drugbank_target|P09237 Matrilysin (DB00786; DB08170; DB08489; DB08493)
 OpenBabel12092120363D

  0  0  0     0  0            999 V3000
M  V30 BEGIN CTAB
M  V30 COUNTS 4144 4199 0 0 0
M  V30 BEGIN ATOM
M  V30 1 H -0.908 1.98254 -0.117106 0
M  V30 2 N 0 1.576 0 0
M  V30 3 C 0.933 2.03868 1.02534 0
M  V30 4 C 1.911 0.928543 1.3348 0
M  V30 5 O 3.095 1.19667 1.45644 0
M  V30 6 C 0.222 2.43627 2.35294 0
M  V30 7 C -0.732 3.65373 2.2001 0
M  V30 8 S 0.101 5.13292 1.52614 0
M  V30 9 C 1.257 5.56322 2.86805 0
M  V30 10 H 1.49 2.90518 0.631377 0
M  V30 11 H -0.977 1.52953 0.210867 0
M  V30 12 H 0.981 2.67203 3.11629 0
M  V30 13 H -0.358 1.57376 2.7183 0
M  V30 14 H -1.165 3.90944 3.18086 0
M  V30 15 H -1.563 3.418 1.51819 0
M  V30 16 H 0.729 5.58782 3.83104 0
M  V30 17 H 1.672 6.56266 2.65933 0
M  V30 18 H 2.08 4.83886 2.90714 0
M  V30 19 N 1.4781 -0.272755 1.55222 0
M  V30 20 C 2.8941 -0.619959 1.47067 0
M  V30 21 C 3.0941 -1.895 0.684978 0
M  V30 22 O 2.1501 -2.51675 0.203931 0
M  V30 23 C 3.4631 -0.746693 2.91282 0
M  V30 24 C 5.0111 -0.840731 3.01497 0
M  V30 25 C 5.4861 -0.99924 4.46967 0
M  V30 26 N 6.9771 -1.06476 4.50796 0
M  V30 27 C 7.7121 -1.20621 5.6057 0
M  V30 28 N 7.2081 -1.31483 6.80209 0
M  V30 29 N 9.0011 -1.23733 5.48312 0
M  V30 30 H 1.1521 0.564606 2.04758 0
M  V30 31 H 3.4151 0.191177 0.928523 0
M  V30 32 H 3.1211 0.119753 3.51496 0
M  V30 33 H 2.9951 -1.6269 3.40311 0
M  V30 34 H 5.3821 -1.69764 2.41379 0
M  V30 35 H 5.4631 0.0640874 2.5572 0
M  V30 36 H 5.1071 -0.146984 5.07687 0
M  V30 37 H 5.0371 -1.91871 4.90401 0
M  V30 38 H 7.5281 -0.993196 3.64615 0
M  V30 39 H 7.8411 -1.42111 7.59621 0
M  V30 40 H 6.1861 -1.28487 6.8302 0
M  V30 41 H 9.3771 -1.14877 4.53785 0
M  V30 42 H 9.5501 -1.34412 6.33906 0
M  V30 43 N 2.9562 -1.48159 -0.537278 0
M  V30 44 C 3.8862 -1.65029 -1.6519 0
M  V30 45 C 4.8672 -0.499281 -1.62607 0
M  V30 46 O 6.0522 -0.730972 -1.79918 0
M  V30 47 C 3.1822 -1.68303 -3.03795 0
M  V30 48 C 2.1362 -2.8283 -3.21234 0
M  V30 49 C 1.4622 -2.71189 -4.60826 0
M  V30 50 C 2.7622 -4.24211 -3.04701 0
M  V30 51 H 4.4562 -2.58341 -1.51328 0
M  V30 52 H 2.0022 -1.24325 -0.726585 0
M  V30 53 H 3.9552 -1.78693 -3.81637 0
M  V30 54 H 2.6792 -0.715635 -3.18663 0
M  V30 55 H 1.3382 -2.71983 -2.45807 0
M  V30 56 H 0.9862 -1.72435 -4.7252 0
M  V30 57 H 0.6862 -3.48035 -4.7344 0
M  V30 58 H 2.2102 -2.83537 -5.40777 0
M  V30 59 H 3.6242 -4.3593 -3.72341 0
M  V30 60 H 2.0212 -5.01998 -3.28813 0
M  V30 61 H 3.0912 -4.41184 -2.01209 0
M  V30 62 N 4.4343 0.785586 -1.36625 0
M  V30 63 C 5.6623 1.57448 -1.3423 0
M  V30 64 C 6.0773 1.88649 0.0755653 0
M  V30 65 O 5.4343 1.50414 1.03354 0
M  V30 66 C 5.4853 2.89316 -2.16745 0
M  V30 67 O 5.2063 2.59459 -3.53005 0
M  V30 68 C 6.7073 3.83606 -2.22174 0
M  V30 69 H 3.9273 0.488226 -0.4603 0
M  V30 70 H 6.4713 0.974733 -1.79775 0
M  V30 71 H 4.6263 3.4575 -1.74745 0
M  V30 72 H 5.0403 3.43804 -3.96105 0
M  V30 73 H 6.5143 4.73181 -2.8426 0
M  V30 74 H 6.9913 4.21734 -1.22627 0
M  V30 75 H 7.5973 3.33104 -2.64427 0
M  V30 76 N 5.9124 1.20967 1.01018 0
M  V30 77 C 7.1584 1.02526 1.74975 0
M  V30 78 C 7.4914 -0.4408 1.89131 0
M  V30 79 O 6.7664 -1.32718 1.42184 0
M  V30 80 C 7.0494 1.71699 3.1653 0
M  V30 81 C 6.9024 3.25791 3.10129 0
M  V30 82 C 8.2214 1.45531 4.15342 0
M  V30 83 H 5.3404 0.373863 0.635134 0
M  V30 84 H 7.9824 1.49071 1.17805 0
M  V30 85 H 6.1324 1.32128 3.65341 0
M  V30 86 H 7.8044 3.74697 2.69072 0
M  V30 87 H 6.0474 3.56363 2.47362 0
M  V30 88 H 6.7184 3.69353 4.10222 0
M  V30 89 H 9.1944 1.79872 3.75213 0
M  V30 90 H 8.0704 1.96453 5.1254 0
M  V30 91 H 8.3314 0.384237 4.40427 0
M  V30 92 N 7.3905 -1.2043 1.01659 0
M  V30 93 C 8.3205 -2.25466 0.607226 0
M  V30 94 C 9.3015 -1.65853 -0.377716 0
M  V30 95 O 10.4865 -1.92409 -0.263149 0
M  V30 96 C 7.6165 -3.47256 -0.0552949 0
M  V30 97 C 6.5705 -4.19462 0.850632 0
M  V30 98 C 5.8965 -5.34673 0.0538859 0
M  V30 99 C 7.1965 -4.75603 2.15868 0
M  V30 100 H 8.8905 -2.59962 1.48526 0
M  V30 101 H 6.4365 -1.2496 0.715605 0
M  V30 102 H 8.3895 -4.19917 -0.353233 0
M  V30 103 H 7.1135 -3.11924 -0.968045 0
M  V30 104 H 5.7725 -3.48667 1.13257 0
M  V30 105 H 5.4205 -4.95585 -0.860514 0
M  V30 106 H 5.1205 -5.83913 0.657192 0
M  V30 107 H 6.6445 -6.10138 -0.237598 0
M  V30 108 H 8.0585 -5.40083 1.92311 0
M  V30 109 H 6.4555 -5.3528 2.71284 0
M  V30 110 H 7.5255 -3.94346 2.82169 0
M  V30 111 N 8.8686 -0.792821 -1.36206 0
M  V30 112 C 10.1086 -0.372238 -2.00982 0
M  V30 113 C 10.4726 1.03749 -1.61555 0
M  V30 114 O 11.6736 1.55934 -2.18948 0
M  V30 115 C 9.9446 -0.534566 -3.5338 0
M  V30 116 S 11.5036 -0.202365 -4.38333 0
M  V30 117 H 8.3216 -0.142044 -0.696667 0
M  V30 118 H 10.9236 -1.03206 -1.66039 0
M  V30 119 H 9.6276 -1.5608 -3.79562 0
M  V30 120 H 9.1586 0.141065 -3.93147 0
M  V30 121 H 11.1736 0.994869 -4.86124 0
M  V30 122 N 10.3467 1.47872 -0.545128 0
M  V30 123 C 11.3097 2.28337 0.198717 0
M  V30 124 C 12.3097 1.36255 0.853888 0
M  V30 125 O 13.4997 1.59003 0.711606 0
M  V30 126 C 10.6317 3.15585 1.28915 0
M  V30 127 H 11.8247 2.95567 -0.507941 0
M  V30 128 H 9.3777 1.53362 -0.301616 0
M  V30 129 H 10.1127 2.53019 2.02859 0
M  V30 130 H 9.8977 3.83337 0.824309 0
M  V30 131 H 11.3877 3.76243 1.81194 0
M  V30 132 N 11.8248 0.280983 1.55075 0
M  V30 133 C 13.0708 -0.33461 2.00021 0
M  V30 134 C 13.4038 -1.55063 1.16915 0
M  V30 135 O 12.6788 -1.93006 0.240646 0
M  V30 136 C 12.9618 -0.711007 3.53011 0
M  V30 137 C 12.8148 0.512766 4.46868 0
M  V30 138 C 14.1338 -1.54522 4.12081 0
M  V30 139 H 11.2528 -0.120147 0.727141 0
M  V30 140 H 13.8948 0.389097 1.85973 0
M  V30 141 H 12.0448 -1.32761 3.65112 0
M  V30 142 H 13.7168 1.15131 4.46702 0
M  V30 143 H 11.9598 1.14975 4.18286 0
M  V30 144 H 12.6308 0.205556 5.51617 0
M  V30 145 H 15.1068 -1.02442 4.03293 0
M  V30 146 H 13.9828 -1.77739 5.19327 0
M  V30 147 H 14.2438 -2.52813 3.62682 0
M  V30 148 N 13.3029 -1.57598 0.00835791 0
M  V30 149 C 14.5429 -1.92788 -0.679136 0
M  V30 150 C 14.9069 -0.883378 -1.70471 0
M  V30 151 O 16.1079 -1.12079 -2.44319 0
M  V30 152 C 14.3789 -3.32994 -1.29807 0
M  V30 153 S 15.9379 -3.90082 -2.00952 0
M  V30 154 H 12.7559 -0.67475 -0.224127 0
M  V30 155 H 15.3579 -1.95385 0.0670497 0
M  V30 156 H 14.0619 -4.06846 -0.538922 0
M  V30 157 H 13.5929 -3.33791 -2.082 0
M  V30 158 H 15.6079 -3.71834 -3.28563 0
M  V30 159 N 14.781 0.264519 -1.55364 0
M  V30 160 C 15.711 1.33121 -1.91836 0
M  V30 161 C 16.692 1.51101 -0.781192 0
M  V30 162 O 17.877 1.64003 -1.04003 0
M  V30 163 C 15.007 2.68921 -2.19769 0
M  V30 164 C 13.961 2.65661 -3.35571 0
M  V30 165 C 13.287 4.05093 -3.49004 0
M  V30 166 C 14.587 2.24187 -4.71739 0
M  V30 167 H 16.281 1.02844 -2.81182 0
M  V30 168 H 13.827 0.493286 -1.35287 0
M  V30 169 H 15.78 3.43663 -2.43872 0
M  V30 170 H 14.504 3.00799 -1.27231 0
M  V30 171 H 13.163 1.93377 -3.1145 0
M  V30 172 H 12.811 4.34206 -2.53917 0
M  V30 173 H 12.511 4.03804 -4.26868 0
M  V30 174 H 14.035 4.81561 -3.75408 0
M  V30 175 H 15.449 2.88654 -4.9533 0
M  V30 176 H 13.846 2.34044 -5.52579 0
M  V30 177 H 14.916 1.19327 -4.69988 0
M  V30 178 N 16.2591 1.48442 0.529413 0
M  V30 179 C 17.1891 1.65902 1.64313 0
M  V30 180 C 18.1701 0.507897 1.6234 0
M  V30 181 O 19.3551 0.740503 1.79528 0
M  V30 182 C 16.4851 1.69911 3.02898 0
M  V30 183 C 15.4391 2.8453 3.19729 0
M  V30 184 C 14.7651 2.73629 4.59381 0
M  V30 185 C 16.0651 4.25821 3.02447 0
M  V30 186 H 17.7591 2.5914 1.49955 0
M  V30 187 H 15.3051 1.24709 0.719982 0
M  V30 188 H 17.2581 1.80715 3.80684 0
M  V30 189 H 15.9821 0.732524 3.18279 0
M  V30 190 H 14.6411 2.73283 2.44361 0
M  V30 191 H 14.2891 1.74938 4.71599 0
M  V30 192 H 13.9891 3.50541 4.71588 0
M  V30 193 H 15.5131 2.86401 5.39265 0
M  V30 194 H 16.9271 4.37898 3.70024 0
M  V30 195 H 15.3241 5.03735 3.26146 0
M  V30 196 H 16.3941 4.42244 1.98867 0
M  V30 197 N 17.7372 -0.778329 1.37039 0
M  V30 198 C 19.1482 -1.35421 1.28523 0
M  V30 199 C 19.4992 -1.96075 -0.0700901 0
M  V30 200 O 18.6242 -1.93352 -0.971801 0
M  V30 201 C 19.2192 -2.46211 2.32735 0
M  V30 202 C 17.7782 -2.99585 2.27873 0
M  V30 203 C 16.9252 -1.72748 2.16918 0
M  V30 204 H 19.8762 -0.5791 1.47757 0
M  V30 205 H 19.8972 -3.2552 1.9702 0
M  V30 206 H 19.4092 -2.02036 3.31365 0
M  V30 207 H 17.5102 -3.48152 1.32745 0
M  V30 208 H 17.6232 -3.55646 3.21018 0
M  V30 209 H 15.9872 -1.95416 1.63354 0
M  V30 210 H 16.7702 -1.30686 3.17452 0
M  V30 211 N 19.2153 -1.21501 -1.00376 0
M  V30 212 C 20.4633 -1.03095 -1.73827 0
M  V30 213 C 20.7843 0.436341 -1.90055 0
M  V30 214 O 20.0543 1.31466 -1.45236 0
M  V30 215 H 18.6343 -0.378487 -0.644016 0
M  V30 216 H 21.2963 -1.52831 -1.20949 0
M  V30 217 H 20.3923 -1.49991 -2.73695 0
M  V30 218 N 20.6934 1.19889 -1.02296 0
M  V30 219 C 21.9184 1.9393 -0.735237 0
M  V30 220 C 22.3434 1.74639 0.698782 0
M  V30 221 O 21.7014 1.04481 1.48167 0
M  V30 222 C 21.7494 3.43916 -1.08417 0
M  V30 223 O 20.8534 4.11917 -0.199446 0
M  V30 224 H 20.1944 0.605645 -0.272196 0
M  V30 225 H 22.7244 1.52137 -1.36804 0
M  V30 226 H 22.7344 3.9456 -1.03856 0
M  V30 227 H 21.4094 3.5728 -2.12894 0
M  V30 228 H 19.9864 3.71666 -0.303136 0
M  V30 229 N 22.1715 0.800033 1.35784 0
M  V30 230 C 23.1015 0.220184 2.3246 0
M  V30 231 C 24.0825 -0.65073 1.57161 0
M  V30 232 O 25.2675 -0.582359 1.85263 0
M  V30 233 C 22.3975 -0.637353 3.41402 0
M  V30 234 C 21.3515 0.134531 4.27789 0
M  V30 235 C 20.6775 -0.844285 5.27992 0
M  V30 236 C 21.9775 1.32979 5.05088 0
M  V30 237 H 23.6715 1.02787 2.81203 0
M  V30 238 H 21.2175 0.495717 1.35199 0
M  V30 239 H 23.1705 -1.05302 4.08031 0
M  V30 240 H 21.8945 -1.47785 2.91251 0
M  V30 241 H 20.5535 0.531296 3.6273 0
M  V30 242 H 20.2015 -1.68011 4.74111 0
M  V30 243 H 19.9015 -0.332184 5.8666 0
M  V30 244 H 21.4255 -1.2583 5.97494 0
M  V30 245 H 22.8395 0.98934 5.64699 0
M  V30 246 H 21.2365 1.77593 5.7322 0
M  V30 247 H 22.3065 2.11978 4.36111 0
M  V30 248 N 23.6496 -1.47581 0.552962 0
M  V30 249 C 24.6126 -2.28439 -0.186605 0
M  V30 250 C 25.6126 -1.36706 -0.84665 0
M  V30 251 O 26.8026 -1.59378 -0.703164 0
M  V30 252 C 23.9346 -3.16264 -1.2724 0
M  V30 253 H 25.1276 -2.95294 0.523609 0
M  V30 254 H 22.6806 -1.532 0.309745 0
M  V30 255 H 23.4156 -2.54091 -2.01514 0
M  V30 256 H 23.2006 -3.83769 -0.803968 0
M  V30 257 H 24.6906 -3.77198 -1.79196 0
M  V30 258 N 25.1277 -0.289203 -1.54924 0
M  V30 259 C 26.0577 0.58549 -2.2604 0
M  V30 260 C 27.0387 1.14753 -1.25562 0
M  V30 261 O 28.2237 1.17906 -1.54311 0
M  V30 262 C 25.3537 1.76305 -2.99222 0
M  V30 263 C 24.3077 1.33191 -4.06748 0
M  V30 264 C 23.6337 2.5937 -4.6758 0
M  V30 265 C 24.9337 0.471775 -5.20165 0
M  V30 266 H 26.6277 -0.00763532 -2.99399 0
M  V30 267 H 24.1737 -0.00511229 -1.43999 0
M  V30 268 H 26.1267 2.38097 -3.47689 0
M  V30 269 H 24.8507 2.38223 -2.23422 0
M  V30 270 H 23.5097 0.737121 -3.59113 0
M  V30 271 H 23.1577 3.19576 -3.88433 0
M  V30 272 H 22.8577 2.31228 -5.40192 0
M  V30 273 H 24.3817 3.21985 -5.18804 0
M  V30 274 H 25.7957 0.995056 -5.64599 0
M  V30 275 H 24.1927 0.284639 -5.99425 0
M  V30 276 H 25.2627 -0.506041 -4.82252 0
M  V30 277 N 26.6058 1.57591 -0.0167156 0
M  V30 278 C 28.0168 1.79201 0.523834 0
M  V30 279 C 28.3678 0.925796 1.72984 0
M  V30 280 O 27.4928 0.132792 2.15992 0
M  V30 281 C 28.0878 3.25 0.957091 0
M  V30 282 C 26.6468 3.47648 1.44283 0
M  V30 283 C 25.7938 2.74374 0.401757 0
M  V30 284 H 28.7448 1.56831 -0.242816 0
M  V30 285 H 28.7658 3.34031 1.82219 0
M  V30 286 H 28.2778 3.88019 0.0791415 0
M  V30 287 H 26.3788 2.89866 2.34113 0
M  V30 288 H 26.4918 4.56352 1.45877 0
M  V30 289 H 24.8558 2.39485 0.867121 0
M  V30 290 H 25.6388 3.40102 -0.467513 0
M  V30 291 N 28.0839 -0.256276 1.55502 0
M  V30 292 C 29.0139 -1.32102 1.92539 0
M  V30 293 C 29.9949 -1.50684 0.789194 0
M  V30 294 O 31.1799 -1.63449 1.04872 0
M  V30 295 C 28.3099 -2.67752 2.21192 0
M  V30 296 C 27.2639 -2.63878 3.36975 0
M  V30 297 C 26.5899 -4.03236 3.51147 0
M  V30 298 C 27.8899 -2.21682 4.72921 0
M  V30 299 H 29.5839 -1.01351 2.81724 0
M  V30 300 H 27.1299 -0.486105 1.35547 0
M  V30 301 H 29.0829 -3.42365 2.45691 0
M  V30 302 H 27.8069 -3.0012 1.28824 0
M  V30 303 H 26.4659 -1.91722 3.12471 0
M  V30 304 H 26.1139 -4.32854 2.56216 0
M  V30 305 H 25.8139 -4.01535 4.29003 0
M  V30 306 H 27.3379 -4.79563 3.77957 0
M  V30 307 H 28.7519 -2.86023 4.96854 0
M  V30 308 H 27.1489 -2.3111 5.53812 0
M  V30 309 H 28.2189 -1.16833 4.70615 0
M  V30 310 N 29.562 -1.4872 -0.521534 0
M  V30 311 C 30.973 -1.50607 -1.10337 0
M  V30 312 C 31.324 -0.280612 -1.94183 0
M  V30 313 O 30.449 0.611507 -2.0758 0
M  V30 314 C 31.044 -2.72903 -2.00772 0
M  V30 315 C 29.603 -2.77634 -2.54158 0
M  V30 316 C 28.75 -2.44241 -1.31307 0
M  V30 317 H 31.701 -1.55714 -0.306388 0
M  V30 318 H 31.722 -2.519 -2.85178 0
M  V30 319 H 31.234 -3.62077 -1.39721 0
M  V30 320 H 29.335 -1.92689 -3.18907 0
M  V30 321 H 29.448 -3.79283 -2.92714 0
M  V30 322 H 27.812 -1.95577 -1.63161 0
M  V30 323 H 28.595 -3.35666 -0.719943 0
M  V30 324 N 31.0401 0.771051 -1.3745 0
M  V30 325 C 31.9721 1.89352 -1.29146 0
M  V30 326 C 32.9851 1.61477 -0.207124 0
M  V30 327 O 34.1741 1.72382 -0.463324 0
M  V30 328 C 31.2741 3.24596 -0.974195 0
M  V30 329 C 30.4471 3.80111 -2.16413 0
M  V30 330 C 29.5061 4.93832 -1.81703 0
M  V30 331 O 28.5321 5.09382 -2.54006 0
M  V30 332 N 29.7341 5.75483 -0.761573 0
M  V30 333 H 32.4991 1.96991 -2.25864 0
M  V30 334 H 30.0601 0.950191 -1.31084 0
M  V30 335 H 32.0521 3.98193 -0.722828 0
M  V30 336 H 30.6221 3.12454 -0.0955527 0
M  V30 337 H 29.8421 2.98284 -2.57721 0
M  V30 338 H 31.1301 4.13932 -2.95867 0
M  V30 339 H 30.5281 5.65469 -0.161609 0
M  V30 340 H 29.0851 6.49302 -0.570064 0
M  V30 341 N 32.5182 1.22032 0.997298 0
M  V30 342 C 33.4282 1.00271 2.12092 0
M  V30 343 C 34.4442 -0.047621 1.73935 0
M  V30 344 O 35.6202 0.144136 2.00884 0
M  V30 345 C 32.6852 0.578449 3.4184 0
M  V30 346 C 31.7462 1.70189 3.94125 0
M  V30 347 C 30.9792 1.29778 5.17681 0
M  V30 348 O 31.2022 0.174676 5.70132 0
M  V30 349 O 30.1362 2.11261 5.63607 0
M  V30 350 H 33.9622 1.94398 2.3333 0
M  V30 351 H 31.5472 1.00587 1.10465 0
M  V30 352 H 33.4292 0.351998 4.19927 0
M  V30 353 H 32.1042 -0.334019 3.21972 0
M  V30 354 H 31.0112 1.98282 3.1723 0
M  V30 355 H 32.3442 2.59206 4.18417 0
M  V30 356 N 33.9963 -1.19345 1.0293 0
M  V30 357 C 34.9593 -2.20793 0.615069 0
M  V30 358 C 35.9593 -1.57553 -0.321533 0
M  V30 359 O 37.1493 -1.73862 -0.108483 0
M  V30 360 C 34.2813 -3.40754 -0.0999222 0
M  V30 361 H 35.4743 -2.58955 1.51269 0
M  V30 362 H 33.0273 -1.3303 0.820534 0
M  V30 363 H 33.7623 -3.0811 -1.01187 0
M  V30 364 H 33.5473 -3.87889 0.57309 0
M  V30 365 H 35.0373 -4.15898 -0.376645 0
M  V30 366 N 35.4744 -0.807222 -1.35358 0
M  V30 367 C 36.7224 -0.387122 -1.98358 0
M  V30 368 C 37.0434 1.04942 -1.64354 0
M  V30 369 O 36.3134 1.72615 -0.926339 0
M  V30 370 H 34.8934 -0.140154 -0.733734 0
M  V30 371 H 37.5554 -1.0332 -1.6526 0
M  V30 372 H 36.6514 -0.493352 -3.08176 0
M  V30 373 N 36.9525 1.47285 -0.560781 0
M  V30 374 C 38.2005 2.02064 -0.0379868 0
M  V30 375 C 38.5215 1.43711 1.31803 0
M  V30 376 O 37.7915 0.61362 1.86042 0
M  V30 377 H 36.3715 0.746918 -0.0110531 0
M  V30 378 H 39.0335 1.80648 -0.731598 0
M  V30 379 H 38.1295 3.12064 0.0474463 0
M  V30 380 N 38.4306 0.297415 1.54768 0
M  V30 381 C 39.3636 -0.622188 2.19554 0
M  V30 382 C 40.3416 -1.13558 1.16376 0
M  V30 383 O 41.5256 -1.20444 1.45002 0
M  V30 384 C 38.6526 -1.8509 2.83653 0
M  V30 385 C 37.6986 -1.47106 4.00328 0
M  V30 386 S 38.5316 -0.53006 5.3287 0
M  V30 387 C 39.6876 -1.76665 6.0045 0
M  V30 388 H 39.9206 -0.0717806 2.97213 0
M  V30 389 H 37.4536 0.0815678 1.54184 0
M  V30 390 H 39.4116 -2.55605 3.21211 0
M  V30 391 H 38.0726 -2.37247 2.05846 0
M  V30 392 H 37.2656 -2.38594 4.43947 0
M  V30 393 H 36.8676 -0.845885 3.64309 0
M  V30 394 H 39.1596 -2.7077 6.21039 0
M  V30 395 H 40.1026 -1.37308 6.9466 0
M  V30 396 H 40.5106 -1.94174 5.30054 0
M  V30 397 N 39.9087 -1.5758 0.0250728 0
M  V30 398 C 41.1337 -1.96337 -0.668317 0
M  V30 399 C 41.5587 -0.901314 -1.651 0
M  V30 400 O 40.9167 0.138187 -1.80773 0
M  V30 401 C 40.9647 -3.34191 -1.35457 0
M  V30 402 O 40.0687 -3.30269 -2.46974 0
M  V30 403 H 39.4097 -0.640281 -0.175887 0
M  V30 404 H 41.9397 -2.0442 0.0857224 0
M  V30 405 H 41.9497 -3.70331 -1.71228 0
M  V30 406 H 40.6247 -4.11036 -0.634218 0
M  V30 407 H 39.2017 -3.05841 -2.13344 0
M  V30 408 N 41.3868 0.248026 -1.55636 0
M  V30 409 C 42.2968 1.32859 -1.93354 0
M  V30 410 C 43.3128 1.52719 -0.833838 0
M  V30 411 O 44.4888 1.66363 -1.13513 0
M  V30 412 C 41.5538 2.66337 -2.21958 0
M  V30 413 C 40.6148 2.55008 -3.45354 0
M  V30 414 C 39.8478 3.82121 -3.72584 0
M  V30 415 O 40.0708 4.83951 -3.01907 0
M  V30 416 O 39.0048 3.80822 -4.6611 0
M  V30 417 H 42.8308 1.03862 -2.85388 0
M  V30 418 H 40.4158 0.448686 -1.42503 0
M  V30 419 H 42.2978 3.45216 -2.4167 0
M  V30 420 H 40.9728 2.95068 -1.33103 0
M  V30 421 H 39.8798 1.7442 -3.30951 0
M  V30 422 H 41.2128 2.31222 -4.34508 0
M  V30 423 N 42.8649 1.48995 0.513639 0
M  V30 424 C 43.7949 1.67636 1.62544 0
M  V30 425 C 44.7759 0.525087 1.61793 0
M  V30 426 O 45.9609 0.759502 1.78732 0
M  V30 427 C 43.0909 1.73114 3.01079 0
M  V30 428 C 42.0449 2.87905 3.16693 0
M  V30 429 C 41.3709 2.78486 4.56453 0
M  V30 430 C 42.6709 4.29005 2.97913 0
M  V30 431 H 44.3649 2.60716 1.47198 0
M  V30 432 H 41.9109 1.25465 0.706714 0
M  V30 433 H 43.8639 1.84742 3.78746 0
M  V30 434 H 42.5879 0.766241 3.17484 0
M  V30 435 H 41.2469 2.75859 2.41448 0
M  V30 436 H 40.8949 1.7993 4.69717 0
M  V30 437 H 40.5949 3.55523 4.67843 0
M  V30 438 H 42.1189 2.92104 5.36197 0
M  V30 439 H 43.5329 4.41798 3.65359 0
M  V30 440 H 41.9299 5.07166 3.20785 0
M  V30 441 H 42.9999 4.44329 1.94165 0
M  V30 442 N 44.343 -0.763751 1.37857 0
M  V30 443 C 45.275 -1.88664 1.30148 0
M  V30 444 C 46.288 -1.61365 0.215685 0
M  V30 445 O 47.477 -1.72134 0.472459 0
M  V30 446 C 44.577 -3.24075 0.991396 0
M  V30 447 C 43.75 -3.78958 2.18426 0
M  V30 448 C 42.809 -4.92862 1.8432 0
M  V30 449 O 41.835 -5.08027 2.56704 0
M  V30 450 N 43.037 -5.75071 0.792081 0
M  V30 451 H 45.802 -1.95791 2.26905 0
M  V30 452 H 43.363 -0.943226 1.31586 0
M  V30 453 H 45.355 -3.97804 0.743935 0
M  V30 454 H 43.925 -3.12399 0.112122 0
M  V30 455 H 43.145 -2.96913 2.59299 0
M  V30 456 H 44.433 -4.12357 2.98058 0
M  V30 457 H 43.831 -5.65375 0.191595 0
M  V30 458 H 42.388 -6.48991 0.60449 0
M  V30 459 N 45.8211 -1.22559 -0.990812 0
M  V30 460 C 47.0671 -1.06303 -1.73411 0
M  V30 461 C 47.4221 0.397442 -1.8825 0
M  V30 462 O 46.7151 1.29062 -1.41611 0
M  V30 463 C 46.9091 -1.71011 -3.13831 0
M  V30 464 C 46.7381 -3.232 -3.12685 0
M  V30 465 C 45.5081 -3.92314 -3.18461 0
M  V30 466 C 47.7061 -4.20107 -2.96673 0
M  V30 467 N 45.6881 -5.31571 -3.07091 0
M  V30 468 C 47.0591 -5.46208 -2.93354 0
M  V30 469 C 49.1141 -4.10973 -2.8108 0
M  V30 470 C 47.8171 -6.64225 -2.76039 0
M  V30 471 C 49.8431 -5.28642 -2.65126 0
M  V30 472 C 49.2051 -6.53663 -2.62496 0
M  V30 473 H 45.3041 -0.443441 -0.644115 0
M  V30 474 H 47.8881 -1.55131 -1.17654 0
M  V30 475 H 46.0591 -1.2473 -3.67827 0
M  V30 476 H 47.7911 -1.47828 -3.76735 0
M  V30 477 H 44.5461 -3.43326 -3.26227 0
M  V30 478 H 44.9701 -6.0455 -3.0471 0
M  V30 479 H 49.6121 -3.15098 -2.8191 0
M  V30 480 H 47.3301 -7.60246 -2.73954 0
M  V30 481 H 50.9161 -5.23407 -2.54039 0
M  V30 482 H 49.7961 -7.43182 -2.50302 0
M  V30 483 N 47.2992 1.18797 -1.03562 0
M  V30 484 C 48.2092 2.25913 -0.632505 0
M  V30 485 C 49.2252 1.70668 0.338882 0
M  V30 486 O 50.4012 2.00453 0.195076 0
M  V30 487 C 47.4662 3.467 0.00350942 0
M  V30 488 C 46.5272 4.17098 -1.01624 0
M  V30 489 C 45.7602 5.32119 -0.410478 0
M  V30 490 O 45.9832 5.64976 0.784725 0
M  V30 491 O 44.9172 5.9107 -1.13667 0
M  V30 492 H 48.7432 2.62648 -1.52478 0
M  V30 493 H 46.3282 1.25781 -0.806195 0
M  V30 494 H 48.2102 4.19878 0.35781 0
M  V30 495 H 46.8852 3.11798 0.869686 0
M  V30 496 H 45.7922 3.4601 -1.42224 0
M  V30 497 H 47.1252 4.55987 -1.85301 0
M  V30 498 N 48.7773 0.814389 1.34928 0
M  V30 499 C 49.7093 0.187834 2.28429 0
M  V30 500 C 50.7223 -0.617374 1.5064 0
M  V30 501 O 51.9113 -0.448454 1.72775 0
M  V30 502 C 49.0113 -0.755962 3.30361 0
M  V30 503 C 48.1843 0.00456686 4.374 0
M  V30 504 C 47.2433 -0.858876 5.19143 0
M  V30 505 O 46.2693 -0.306968 5.68372 0
M  V30 506 N 47.4713 -2.17988 5.38016 0
M  V30 507 H 50.2363 0.991105 2.82838 0
M  V30 508 H 47.7973 0.670561 1.4736 0
M  V30 509 H 49.7893 -1.338 3.81942 0
M  V30 510 H 48.3593 -1.46001 2.7641 0
M  V30 511 H 47.5793 0.767865 3.86649 0
M  V30 512 H 48.8673 0.528422 5.06049 0
M  V30 513 H 48.2653 -2.65212 4.99679 0
M  V30 514 H 46.8223 -2.71098 5.92747 0
M  V30 515 N 50.2554 -1.46986 0.568584 0
M  V30 516 C 51.2184 -2.28624 -0.162366 0
M  V30 517 C 52.2184 -1.37596 -0.832103 0
M  V30 518 O 53.4084 -1.60115 -0.68622 0
M  V30 519 C 50.5404 -3.17596 -1.23878 0
M  V30 520 H 51.7334 -2.94722 0.554899 0
M  V30 521 H 49.2864 -1.52863 0.325976 0
M  V30 522 H 50.0214 -2.56214 -1.98808 0
M  V30 523 H 49.8064 -3.846 -0.763219 0
M  V30 524 H 51.2964 -3.79078 -1.75185 0
M  V30 525 N 51.7335 -0.305618 -1.54608 0
M  V30 526 C 52.6655 0.602161 -2.21149 0
M  V30 527 C 53.6785 1.09394 -1.20569 0
M  V30 528 O 54.8675 1.0106 -1.47136 0
M  V30 529 C 51.9675 1.83692 -2.84799 0
M  V30 530 C 51.1405 1.48686 -4.11353 0
M  V30 531 C 50.1995 2.57725 -4.58764 0
M  V30 532 O 49.2255 2.22623 -5.23858 0
M  V30 533 N 50.4275 3.88346 -4.31471 0
M  V30 534 H 53.1925 0.0324966 -2.99682 0
M  V30 535 H 50.7535 -0.128021 -1.61393 0
M  V30 536 H 52.7455 2.55994 -3.13448 0
M  V30 537 H 51.3155 2.31486 -2.10078 0
M  V30 538 H 50.5355 0.596269 -3.89664 0
M  V30 539 H 51.8235 1.22842 -4.93748 0
M  V30 540 H 51.2215 4.19671 -3.79331 0
M  V30 541 H 49.7785 4.56932 -4.64818 0
M  V30 542 N 53.2116 1.57565 -0.0334293 0
M  V30 543 C 54.4886 1.83282 0.683163 0
M  V30 544 C 54.8686 0.91823 1.90084 0
M  V30 545 O 54.2166 -0.025113 2.28486 0
M  V30 546 C 54.4266 3.32599 1.0573 0
M  V30 547 C 55.7746 3.99179 1.44711 0
M  V30 548 O 56.7986 3.3712 1.15015 0
M  V30 549 O 55.6576 5.08565 2.0006 0
M  V30 550 H 52.7516 0.755869 0.335546 0
M  V30 551 H 55.2976 1.69589 -0.0614402 0
M  V30 552 H 54.0696 3.90834 0.190828 0
M  V30 553 H 53.6926 3.51415 1.85993 0
M  V30 554 N 54.6897 -0.239769 1.55765 0
M  V30 555 C 55.9197 -0.982743 1.8173 0
M  V30 556 C 56.3277 -1.7917 0.607835 0
M  V30 557 O 55.6707 -1.78525 -0.432973 0
M  V30 558 C 55.7327 -1.96332 3.01155 0
M  V30 559 C 55.3967 -1.34062 4.36894 0
M  V30 560 C 56.3937 -0.739539 5.14613 0
M  V30 561 C 54.0787 -1.35784 4.83599 0
M  V30 562 C 56.0727 -0.163989 6.37189 0
M  V30 563 C 53.7597 -0.778441 6.06122 0
M  V30 564 C 54.7577 -0.182548 6.82756 0
M  V30 565 O 54.4457 0.387887 8.02964 0
M  V30 566 H 54.1777 -0.294481 0.608487 0
M  V30 567 H 56.7317 -0.26572 2.03674 0
M  V30 568 H 54.9617 -2.71884 2.74984 0
M  V30 569 H 56.6507 -2.57032 3.14149 0
M  V30 570 H 57.4167 -0.718687 4.79646 0
M  V30 571 H 53.2957 -1.81105 4.23936 0
M  V30 572 H 56.8397 0.301753 6.96947 0
M  V30 573 H 52.7367 -0.796645 6.40565 0
M  V30 574 H 53.5047 0.28044 8.18019 0
M  V30 575 N 56.1678 -1.49265 -0.50573 0
M  V30 576 C 57.0978 -1.68495 -1.61653 0
M  V30 577 C 58.0788 -0.53366 -1.61512 0
M  V30 578 O 59.2638 -0.76897 -1.78327 0
M  V30 579 C 56.3938 -1.74709 -3.00157 0
M  V30 580 C 55.3478 -2.89581 -3.15162 0
M  V30 581 C 54.6738 -2.80903 -4.5497 0
M  V30 582 C 55.9738 -4.30578 -2.95634 0
M  V30 583 H 57.6678 -2.61493 -1.45814 0
M  V30 584 H 55.2138 -1.25838 -0.70005 0
M  V30 585 H 57.1668 -1.86748 -3.77761 0
M  V30 586 H 55.8908 -0.783067 -3.17074 0
M  V30 587 H 54.5498 -2.77136 -2.39982 0
M  V30 588 H 54.1978 -1.82419 -4.68756 0
M  V30 589 H 53.8978 -3.57999 -4.65951 0
M  V30 590 H 55.4218 -2.94944 -5.34641 0
M  V30 591 H 56.8358 -4.4373 -3.63011 0
M  V30 592 H 55.2328 -5.0886 -3.18091 0
M  V30 593 H 56.3028 -4.45352 -1.91806 0
M  V30 594 N 57.6459 0.756429 -1.3826 0
M  V30 595 C 58.5929 1.87011 -1.35261 0
M  V30 596 C 59.5629 1.64695 -0.215616 0
M  V30 597 O 60.7479 1.864 -0.407399 0
M  V30 598 C 57.8879 3.24275 -1.18068 0
M  V30 599 C 57.0009 3.58442 -2.41129 0
M  V30 600 C 56.1359 4.84994 -2.16689 0
M  V30 601 C 55.1749 5.11939 -3.35537 0
M  V30 602 N 54.3119 6.29685 -3.10549 0
M  V30 603 H 59.1519 1.8891 -2.30472 0
M  V30 604 H 56.6889 0.923373 -1.14509 0
M  V30 605 H 58.6469 4.03479 -1.06116 0
M  V30 606 H 57.2769 3.21711 -0.264973 0
M  V30 607 H 56.3289 2.74103 -2.63764 0
M  V30 608 H 57.6409 3.74283 -3.29717 0
M  V30 609 H 56.7949 5.72135 -2.01857 0
M  V30 610 H 55.5339 4.71286 -1.25462 0
M  V30 611 H 54.5389 4.23268 -3.50891 0
M  V30 612 H 55.7639 5.27546 -4.27635 0
M  V30 613 H 53.7099 6.17306 -2.21967 0
M  V30 614 H 53.6269 6.46014 -3.92686 0
M  V30 615 H 54.8949 7.19722 -2.99367 0
M  V30 616 N 59.124 1.23083 0.984299 0
M  V30 617 C 60.54 0.992637 1.24975 0
M  V30 618 C 60.74 -0.308618 1.99123 0
M  V30 619 O 59.796 -1.02905 2.30579 0
M  V30 620 C 61.109 2.19698 2.05312 0
M  V30 621 C 62.657 2.24147 2.18465 0
M  V30 622 C 63.132 3.44157 3.02192 0
M  V30 623 N 64.623 3.44372 3.09777 0
M  V30 624 C 65.358 4.33886 3.74874 0
M  V30 625 N 64.854 5.3363 4.41827 0
M  V30 626 N 66.647 4.21639 3.71721 0
M  V30 627 H 58.798 2.06731 0.487453 0
M  V30 628 H 61.061 0.906339 0.277944 0
M  V30 629 H 60.767 3.1411 1.58201 0
M  V30 630 H 60.641 2.20465 3.06064 0
M  V30 631 H 63.028 1.30277 2.64786 0
M  V30 632 H 63.109 2.27415 1.17115 0
M  V30 633 H 62.753 4.38332 2.56568 0
M  V30 634 H 62.683 3.3813 4.03702 0
M  V30 635 H 65.174 2.72201 2.62135 0
M  V30 636 H 65.487 5.98196 4.89266 0
M  V30 637 H 63.832 5.37534 4.40548 0
M  V30 638 H 67.023 3.42962 3.18582 0
M  V30 639 H 67.196 4.91604 4.22173 0
M  V30 640 N 60.6021 -1.18246 1.0419 0
M  V30 641 C 61.8491 -1.88257 0.746017 0
M  V30 642 C 62.1771 -1.80429 -0.726331 0
M  V30 643 O 61.4321 -1.2 -1.54591 0
M  V30 644 C 61.7311 -3.38082 1.15911 0
M  V30 645 C 61.3971 -3.66114 2.63195 0
M  V30 646 C 60.0591 -3.73474 3.03432 0
M  V30 647 C 62.4111 -3.78398 3.5842 0
M  V30 648 C 59.7391 -3.90599 4.37778 0
M  V30 649 C 62.0911 -3.97039 4.92487 0
M  V30 650 C 60.7551 -4.02635 5.32392 0
M  V30 651 H 60.0251 -0.688883 0.272987 0
M  V30 652 H 62.6721 -1.3995 1.30715 0
M  V30 653 H 60.9771 -3.88377 0.516806 0
M  V30 654 H 62.6741 -3.90596 0.907516 0
M  V30 655 H 59.2641 -3.61003 2.3103 0
M  V30 656 H 63.4481 -3.72042 3.28479 0
M  V30 657 H 58.7041 -3.93175 4.68213 0
M  V30 658 H 62.8781 -4.05486 5.66175 0
M  V30 659 H 60.5051 -4.15657 6.36501 0
M  V30 660 N 62.0802 -0.821533 -1.34494 0
M  V30 661 C 63.3102 -0.421272 -2.02259 0
M  V30 662 C 63.7182 0.977047 -1.6202 0
M  V30 663 O 63.0612 1.64348 -0.820703 0
M  V30 664 C 63.1232 -0.44231 -3.56769 0
M  V30 665 C 62.7872 -1.79372 -4.20327 0
M  V30 666 C 63.7842 -2.75435 -4.40944 0
M  V30 667 C 61.4692 -2.08182 -4.57127 0
M  V30 668 C 63.4632 -3.98482 -4.97484 0
M  V30 669 C 61.1502 -3.31489 -5.13379 0
M  V30 670 C 62.1482 -4.26457 -5.33501 0
M  V30 671 O 61.8362 -5.47585 -5.88562 0
M  V30 672 H 61.5682 -0.167473 -0.654927 0
M  V30 673 H 64.1222 -1.11073 -1.72777 0
M  V30 674 H 62.3522 0.303836 -3.85505 0
M  V30 675 H 64.0412 -0.0622925 -4.05852 0
M  V30 676 H 64.8072 -2.54473 -4.12878 0
M  V30 677 H 60.6862 -1.35066 -4.4077 0
M  V30 678 H 64.2302 -4.72618 -5.13106 0
M  V30 679 H 60.1272 -3.52316 -5.40873 0
M  V30 680 H 60.8952 -5.49086 -6.06998 0
M  V30 681 N 63.5583 1.46682 -0.576371 0
M  V30 682 C 64.4883 2.33028 0.148397 0
M  V30 683 C 65.4693 1.44961 0.889956 0
M  V30 684 O 66.6543 1.73789 0.866662 0
M  V30 685 C 63.7843 3.27117 1.1667 0
M  V30 686 C 62.7383 4.24575 0.540386 0
M  V30 687 C 62.0643 5.08126 1.6647 0
M  V30 688 C 63.3643 5.19722 -0.518331 0
M  V30 689 H 65.0583 2.93875 -0.572509 0
M  V30 690 H 62.6043 1.41315 -0.276768 0
M  V30 691 H 64.5573 3.86374 1.68204 0
M  V30 692 H 63.2813 2.64364 1.9178 0
M  V30 693 H 61.9403 3.66571 0.0461769 0
M  V30 694 H 61.5883 4.41762 2.40531 0
M  V30 695 H 61.2883 5.74122 1.25131 0
M  V30 696 H 62.8123 5.70246 2.18293 0
M  V30 697 H 64.2263 5.73232 -0.0883058 0
M  V30 698 H 62.6233 5.94026 -0.851679 0
M  V30 699 H 63.6933 4.64037 -1.40703 0
M  V30 700 N 65.0364 0.313813 1.54444 0
M  V30 701 C 66.2664 -0.293491 2.04505 0
M  V30 702 C 66.6744 -1.47086 1.19005 0
M  V30 703 O 66.0174 -1.82481 0.211257 0
M  V30 704 C 66.0794 -0.800455 3.50475 0
M  V30 705 C 65.7434 0.253322 4.56297 0
M  V30 706 C 66.7404 1.08612 5.08428 0
M  V30 707 C 64.4254 0.398708 5.00715 0
M  V30 708 C 66.4194 2.05013 6.0353 0
M  V30 709 C 64.1064 1.36614 5.95634 0
M  V30 710 C 65.1044 2.19033 6.46926 0
M  V30 711 O 64.7924 3.14134 7.39983 0
M  V30 712 H 64.5244 -0.0658325 0.672787 0
M  V30 713 H 67.0784 0.455177 2.00293 0
M  V30 714 H 65.3084 -1.59987 3.52053 0
M  V30 715 H 66.9974 -1.32504 3.83663 0
M  V30 716 H 67.7634 0.984736 4.74898 0
M  V30 717 H 63.6424 -0.23289 4.60411 0
M  V30 718 H 67.1864 2.69382 6.4349 0
M  V30 719 H 63.0834 1.4682 6.28581 0
M  V30 720 H 63.8514 3.0926 7.57826 0
M  V30 721 N 66.5145 -1.57545 0.0417849 0
M  V30 722 C 67.7915 -1.83642 -0.673433 0
M  V30 723 C 68.1715 -0.928298 -1.89594 0
M  V30 724 O 67.5195 0.0129955 -2.28496 0
M  V30 725 C 67.7295 -3.33155 -1.03964 0
M  V30 726 C 69.0775 -3.99941 -1.42592 0
M  V30 727 O 70.1015 -3.37725 -1.13226 0
M  V30 728 O 68.9605 -5.09619 -1.9736 0
M  V30 729 H 66.0545 -0.757638 -0.331533 0
M  V30 730 H 68.6005 -1.69554 0.070433 0
M  V30 731 H 67.3725 -3.9093 -0.170098 0
M  V30 732 H 66.9955 -3.52396 -1.84126 0
M  V30 733 N 67.9926 0.231505 -1.5589 0
M  V30 734 C 69.2176 0.978689 -1.82856 0
M  V30 735 C 69.6426 1.77559 -0.620846 0
M  V30 736 O 69.0006 1.76119 0.430305 0
M  V30 737 C 69.0486 1.87997 -3.07716 0
M  V30 738 O 68.1526 2.97393 -2.85712 0
M  V30 739 H 67.4936 0.277663 -0.603158 0
M  V30 740 H 70.0236 0.24783 -2.03093 0
M  V30 741 H 70.0336 2.2917 -3.37558 0
M  V30 742 H 68.7086 1.29417 -3.95252 0
M  V30 743 H 67.2856 2.60238 -2.67078 0
M  V30 744 N 69.4707 1.49531 0.497807 0
M  V30 745 C 70.3807 1.69176 1.62532 0
M  V30 746 C 71.3967 0.5744 1.64246 0
M  V30 747 O 72.5727 0.849497 1.82608 0
M  V30 748 C 69.6377 1.75695 2.98885 0
M  V30 749 C 68.6987 2.9929 3.07773 0
M  V30 750 C 67.9317 3.05488 4.37622 0
M  V30 751 O 68.1547 2.19192 5.26603 0
M  V30 752 O 67.0887 3.9798 4.51548 0
M  V30 753 H 70.9147 2.647 1.48887 0
M  V30 754 H 68.4997 1.3331 0.674441 0
M  V30 755 H 70.3817 1.82317 3.79919 0
M  V30 756 H 69.0567 0.8335 3.12785 0
M  V30 757 H 67.9637 2.98183 2.25915 0
M  V30 758 H 69.2967 3.91125 2.98801 0
M  V30 759 N 70.9488 -0.749086 1.3866 0
M  V30 760 C 72.1768 -1.53834 1.38358 0
M  V30 761 C 72.5918 -1.88783 -0.0255219 0
M  V30 762 O 71.9488 -1.53101 -0.993292 0
M  V30 763 C 71.9998 -2.83468 2.2434 0
M  V30 764 O 71.7208 -2.50008 3.5976 0
M  V30 765 C 73.2218 -3.7758 2.32267 0
M  V30 766 H 70.4418 -0.47585 0.473083 0
M  V30 767 H 72.9858 -0.926726 1.82297 0
M  V30 768 H 71.1408 -3.40995 1.83851 0
M  V30 769 H 71.5548 -3.33182 4.05081 0
M  V30 770 H 73.0288 -4.65478 2.96706 0
M  V30 771 H 73.5058 -4.18334 1.33765 0
M  V30 772 H 74.1118 -3.25976 2.73166 0
M  V30 773 N 72.4269 -1.23603 -0.977757 0
M  V30 774 C 73.3739 -1.01954 -2.07061 0
M  V30 775 C 74.3439 0.0638697 -1.65977 0
M  V30 776 O 75.5289 -0.0887624 -1.90593 0
M  V30 777 C 72.6689 -0.619658 -3.39491 0
M  V30 778 C 71.7819 -1.77547 -3.93829 0
M  V30 779 C 70.9169 -1.32212 -5.14484 0
M  V30 780 C 69.9559 -2.44852 -5.60994 0
M  V30 781 N 69.0929 -2.00456 -6.72876 0
M  V30 782 H 73.9329 -1.95495 -2.24913 0
M  V30 783 H 71.4699 -0.973861 -1.10247 0
M  V30 784 H 73.4279 -0.368898 -4.15566 0
M  V30 785 H 72.0579 0.278752 -3.21594 0
M  V30 786 H 71.1099 -2.14016 -3.14486 0
M  V30 787 H 72.4219 -2.62219 -4.24314 0
M  V30 788 H 71.5759 -1.02965 -5.97899 0
M  V30 789 H 70.3149 -0.445808 -4.85658 0
M  V30 790 H 69.3199 -2.74871 -4.76157 0
M  V30 791 H 70.5449 -3.33024 -5.91837 0
M  V30 792 H 68.4909 -1.15208 -6.45804 0
M  V30 793 H 68.4079 -2.78687 -7.02759 0
M  V30 794 H 69.6759 -1.7432 -7.59758 0
M  V30 795 N 73.905 1.17692 -1.04816 0
M  V30 796 C 74.853 2.23632 -0.63966 0
M  V30 797 C 75.847 1.6601 0.337219 0
M  V30 798 O 77.053 1.78844 0.203693 0
M  V30 799 H 73.428 0.727949 -0.188665 0
M  V30 800 H 75.399 2.55387 -1.54337 0
M  V30 801 C 74.148 3.4769 -0.0264051 0
M  V30 802 H 73.471 3.92331 -0.769164 0
M  V30 803 H 74.911 4.23418 0.222098 0
M  V30 804 C 73.37 3.13807 1.22584 0
M  V30 805 O 73.9 3.28236 2.31569 0
M  V30 806 N 72.106 2.68065 1.12202 0
M  V30 807 H 71.653 2.56525 0.235133 0
M  V30 808 H 71.611 2.45767 1.96076 0
M  V30 809 N 75.3831 0.828654 1.34056 0
M  V30 810 C 76.3461 0.259927 2.27721 0
M  V30 811 C 77.3461 -0.565478 1.50529 0
M  V30 812 O 78.5361 -0.38075 1.69988 0
M  V30 813 C 75.6681 -0.634944 3.34935 0
M  V30 814 H 76.8611 1.0863 2.79534 0
M  V30 815 H 74.4141 0.600951 1.44285 0
M  V30 816 H 75.1491 -1.48416 2.88346 0
M  V30 817 H 74.9341 -0.0444999 3.92075 0
M  V30 818 H 76.4241 -1.02648 4.04788 0
M  V30 819 N 76.8612 -1.46375 0.584142 0
M  V30 820 C 77.8092 -2.32042 -0.161047 0
M  V30 821 C 78.8032 -1.44569 -0.882966 0
M  V30 822 O 80.0092 -1.61186 -0.801191 0
M  V30 823 H 76.3842 -0.748659 -0.0708033 0
M  V30 824 H 78.3552 -2.92704 0.580269 0
M  V30 825 C 77.1042 -3.27762 -1.1605 0
M  V30 826 H 76.4272 -3.95051 -0.614419 0
M  V30 827 H 77.8672 -3.90481 -1.65228 0
M  V30 828 C 76.3262 -2.53218 -2.22221 0
M  V30 829 O 76.8562 -2.29628 -3.29597 0
M  V30 830 N 75.0622 -2.13756 -1.96868 0
M  V30 831 H 74.6092 -2.33142 -1.09557 0
M  V30 832 H 74.5672 -1.642 -2.68115 0
M  V30 833 N 78.3393 -0.321999 -1.54275 0
M  V30 834 C 79.5643 0.285791 -2.05422 0
M  V30 835 C 79.9893 1.45124 -1.19669 0
M  V30 836 O 79.3473 1.80132 -0.205441 0
M  V30 837 C 79.3953 0.69956 -3.53749 0
M  V30 838 O 78.4993 1.8021 -3.70942 0
M  V30 839 H 77.8403 0.0518962 -0.661969 0
M  V30 840 H 80.3703 -0.469954 -1.9913 0
M  V30 841 H 80.3803 0.982649 -3.9599 0
M  V30 842 H 79.0553 -0.152864 -4.15619 0
M  V30 843 H 77.6323 1.51794 -3.40607 0
M  V30 844 N 79.8174 1.5752 -0.0501392 0
M  V30 845 C 80.7474 2.14502 0.922566 0
M  V30 846 C 81.7284 1.06642 1.3252 0
M  V30 847 O 82.9134 1.34577 1.4001 0
M  V30 848 C 80.0434 2.68916 2.19776 0
M  V30 849 C 78.9974 3.8175 1.93523 0
M  V30 850 C 78.3234 4.22677 3.27487 0
M  V30 851 C 79.6234 5.06932 1.25765 0
M  V30 852 H 81.3174 2.9603 0.447952 0
M  V30 853 H 78.8634 1.42401 0.214024 0
M  V30 854 H 80.8164 3.07419 2.88222 0
M  V30 855 H 79.5404 1.84578 2.69441 0
M  V30 856 H 78.1994 3.43718 1.27489 0
M  V30 857 H 77.8474 3.35291 3.74952 0
M  V30 858 H 77.5474 4.98725 3.1072 0
M  V30 859 H 79.0714 4.63779 3.97166 0
M  V30 860 H 80.4854 5.42888 1.84244 0
M  V30 861 H 78.8824 5.88116 1.19328 0
M  V30 862 H 79.9524 4.84337 0.233536 0
M  V30 863 N 81.2955 -0.223234 1.56011 0
M  V30 864 C 82.2055 -1.29766 1.95443 0
M  V30 865 C 83.2215 -1.51373 0.858028 0
M  V30 866 O 84.3975 -1.64536 1.16146 0
M  V30 867 C 81.4625 -2.62772 2.26167 0
M  V30 868 C 80.5235 -2.49482 3.49367 0
M  V30 869 C 79.7565 -3.76145 3.78616 0
M  V30 870 O 79.9795 -4.79087 3.09568 0
M  V30 871 O 78.9135 -3.73358 4.72109 0
M  V30 872 H 82.7395 -0.99309 2.87004 0
M  V30 873 H 80.3245 -0.425958 1.43199 0
M  V30 874 H 82.2065 -3.41327 2.47131 0
M  V30 875 H 80.8815 -2.92913 1.37781 0
M  V30 876 H 79.7885 -1.69133 3.33684 0
M  V30 877 H 81.1215 -2.2428 4.38131 0
M  V30 878 N 82.7736 -1.49793 -0.48987 0
M  V30 879 C 83.7366 -1.66752 -1.57246 0
M  V30 880 C 84.7366 -0.538867 -1.51502 0
M  V30 881 O 85.9266 -0.805545 -1.54456 0
M  V30 882 C 83.0586 -1.67528 -2.96896 0
M  V30 883 H 84.2516 -2.63321 -1.43534 0
M  V30 884 H 81.8046 -1.38992 -0.714914 0
M  V30 885 H 82.5396 -0.725837 -3.16073 0
M  V30 886 H 82.3246 -2.49504 -3.02473 0
M  V30 887 H 83.8146 -1.82667 -3.7553 0
M  V30 888 N 84.2517 0.741722 -1.39055 0
M  V30 889 C 85.1987 1.85566 -1.37237 0
M  V30 890 C 86.1687 1.64457 -0.233072 0
M  V30 891 O 87.3537 1.85957 -0.427147 0
M  V30 892 C 84.4937 3.23004 -1.215 0
M  V30 893 C 83.6067 3.55864 -2.44918 0
M  V30 894 C 82.7417 4.82669 -2.21821 0
M  V30 895 C 81.7807 5.08351 -3.40948 0
M  V30 896 N 80.9177 6.26356 -3.17211 0
M  V30 897 H 85.7577 1.86455 -2.32462 0
M  V30 898 H 83.2947 0.911176 -1.15482 0
M  V30 899 H 85.2527 4.02331 -1.10389 0
M  V30 900 H 83.8827 3.21411 -0.29908 0
M  V30 901 H 82.9347 2.7129 -2.66657 0
M  V30 902 H 84.2467 3.70765 -3.33668 0
M  V30 903 H 83.4007 5.69962 -2.07914 0
M  V30 904 H 82.1397 4.69929 -1.30454 0
M  V30 905 H 81.1447 4.19522 -3.55361 0
M  V30 906 H 82.3697 5.22981 -4.33207 0
M  V30 907 H 80.3157 6.14917 -2.28502 0
M  V30 908 H 80.2327 6.41813 -3.99515 0
M  V30 909 H 81.5007 7.16506 -3.06984 0
M  V30 910 N 85.7298 1.2412 0.971189 0
M  V30 911 C 86.6598 1.05508 2.08304 0
M  V30 912 C 87.6408 -0.0308864 1.70072 0
M  V30 913 O 88.8258 0.135521 1.93727 0
M  V30 914 C 85.9558 0.655365 3.4106 0
M  V30 915 C 84.9098 1.68971 3.93234 0
M  V30 916 C 84.2358 1.14516 5.22293 0
M  V30 917 C 85.5358 3.08487 4.21465 0
M  V30 918 H 87.2298 1.98507 2.24132 0
M  V30 919 H 84.7758 0.955821 1.07704 0
M  V30 920 H 86.7288 0.51217 4.18276 0
M  V30 921 H 85.4528 -0.31032 3.25122 0
M  V30 922 H 84.1118 1.82106 3.18171 0
M  V30 923 H 83.7598 0.170189 5.02712 0
M  V30 924 H 83.4598 1.83635 5.58168 0
M  V30 925 H 84.9838 1.01401 6.02121 0
M  V30 926 H 86.3978 2.98601 4.89398 0
M  V30 927 H 84.7948 3.74926 4.68562 0
M  V30 928 H 85.8648 3.56787 3.28376 0
M  V30 929 N 87.2079 -1.17134 1.05439 0
M  V30 930 C 88.1549 -2.21235 0.657539 0
M  V30 931 C 89.1249 -1.62551 -0.341543 0
M  V30 932 O 90.3099 -1.89379 -0.232393 0
M  V30 933 C 87.4499 -3.45076 0.0410575 0
M  V30 934 C 86.5629 -4.18042 1.08927 0
M  V30 935 C 85.6979 -5.29376 0.439848 0
M  V30 936 C 84.7369 -5.94132 1.4722 0
M  V30 937 N 83.8739 -6.96975 0.846756 0
M  V30 938 H 88.7139 -2.54534 1.54972 0
M  V30 939 H 86.2509 -1.25028 0.775006 0
M  V30 940 H 88.2089 -4.15862 -0.33383 0
M  V30 941 H 86.8389 -3.12353 -0.814568 0
M  V30 942 H 85.8909 -3.45945 1.58196 0
M  V30 943 H 87.2029 -4.62306 1.87282 0
M  V30 944 H 86.3569 -6.06699 0.0115125 0
M  V30 945 H 85.0959 -4.86251 -0.375656 0
M  V30 946 H 84.1009 -5.15538 1.91052 0
M  V30 947 H 85.3259 -6.39337 2.28965 0
M  V30 948 H 83.2719 -6.5598 0.0518075 0
M  V30 949 H 83.1889 -7.39565 1.5678 0
M  V30 950 H 84.4569 -7.78239 0.443277 0
M  V30 951 N 88.686 -0.835752 -1.33615 0
M  V30 952 C 89.596 -0.269088 -2.33052 0
M  V30 953 C 90.612 0.603251 -1.63208 0
M  V30 954 O 91.788 0.508112 -1.94885 0
M  V30 955 C 88.853 0.549091 -3.42324 0
M  V30 956 C 87.914 -0.347156 -4.27894 0
M  V30 957 C 87.147 0.43207 -5.31948 0
M  V30 958 O 87.37 1.66409 -5.45586 0
M  V30 959 O 86.304 -0.192298 -6.01593 0
M  V30 960 H 90.13 -1.09243 -2.83372 0
M  V30 961 H 87.715 -0.598198 -1.36901 0
M  V30 962 H 89.597 1.01414 -4.09015 0
M  V30 963 H 88.272 1.34955 -2.94226 0
M  V30 964 H 87.179 -0.859979 -3.64081 0
M  V30 965 H 88.512 -1.1123 -4.79467 0
M  V30 966 N 90.1641 1.46063 -0.591896 0
M  V30 967 C 91.0971 2.27452 0.184617 0
M  V30 968 C 92.0751 1.36188 0.888351 0
M  V30 969 O 93.2591 1.65606 0.90039 0
M  V30 970 C 90.3861 3.14162 1.26571 0
M  V30 971 C 89.4321 4.21255 0.666814 0
M  V30 972 S 90.2651 5.33034 -0.513345 0
M  V30 973 C 91.4211 6.23311 0.56872 0
M  V30 974 H 91.6541 2.92963 -0.505939 0
M  V30 975 H 89.1871 1.49676 -0.379014 0
M  V30 976 H 91.1451 3.6468 1.88463 0
M  V30 977 H 89.8061 2.47946 1.92826 0
M  V30 978 H 88.9991 4.81788 1.47974 0
M  V30 979 H 88.6011 3.73797 0.123359 0
M  V30 980 H 90.8931 6.61758 1.45198 0
M  V30 981 H 91.8361 7.081 -7.23824e-05 0
M  V30 982 H 92.2441 5.57646 0.876996 0
M  V30 983 N 91.6422 0.330177 1.54103 0
M  V30 984 C 92.5742 -0.566902 2.22079 0
M  V30 985 C 93.5872 -1.07462 1.22294 0
M  V30 986 O 94.7762 -0.987065 1.48726 0
M  V30 987 C 91.8762 -1.79138 2.87685 0
M  V30 988 C 91.0492 -1.42123 4.13666 0
M  V30 989 C 90.1082 -2.50394 4.62806 0
M  V30 990 O 89.1342 -2.14261 5.27334 0
M  V30 991 N 90.3362 -3.81433 4.37595 0
M  V30 992 H 93.1012 0.0151844 2.99696 0
M  V30 993 H 90.6622 0.153681 1.61169 0
M  V30 994 H 92.6542 -2.50975 3.1748 0
M  V30 995 H 91.2242 -2.28115 2.13734 0
M  V30 996 H 90.4442 -0.534201 3.90564 0
M  V30 997 H 91.7322 -1.14971 4.9564 0
M  V30 998 H 91.1302 -4.13584 3.8596 0
M  V30 999 H 89.6872 -4.4948 4.72029 0
M  V30 1000 N 93.1203 -1.57491 0.0584922 0
M  V30 1001 C 94.0673 -2.11958 -0.913376 0
M  V30 1002 C 95.0373 -1.02875 -1.30407 0
M  V30 1003 O 96.2223 -1.30464 -1.39226 0
M  V30 1004 C 93.3623 -2.67497 -2.18035 0
M  V30 1005 C 92.4753 -3.90691 -1.84349 0
M  V30 1006 C 91.6103 -4.3452 -3.05559 0
M  V30 1007 C 90.6493 -5.50395 -2.67827 0
M  V30 1008 N 89.7863 -5.89244 -3.81754 0
M  V30 1009 H 94.6263 -2.94704 -0.442017 0
M  V30 1010 H 92.1633 -1.45643 -0.206545 0
M  V30 1011 H 94.1213 -2.978 -2.92183 0
M  V30 1012 H 92.7513 -1.87537 -2.62735 0
M  V30 1013 H 91.8033 -3.66934 -1.00319 0
M  V30 1014 H 93.1153 -4.7489 -1.5258 0
M  V30 1015 H 92.2693 -4.66414 -3.87998 0
M  V30 1016 H 91.0083 -3.49147 -3.40511 0
M  V30 1017 H 90.0133 -5.18165 -1.83806 0
M  V30 1018 H 91.2383 -6.3749 -2.34059 0
M  V30 1019 H 89.1843 -5.06823 -4.16493 0
M  V30 1020 H 89.1013 -6.68151 -3.53708 0
M  V30 1021 H 90.3693 -6.25756 -4.64811 0
M  V30 1022 N 94.5984 0.214957 -1.56127 0
M  V30 1023 C 95.8454 0.938372 -1.79446 0
M  V30 1024 C 96.1734 1.8407 -0.628378 0
M  V30 1025 O 95.4284 1.91837 0.386925 0
M  V30 1026 C 95.7274 1.80314 -3.0858 0
M  V30 1027 C 95.3934 1.05349 -4.3842 0
M  V30 1028 C 94.0554 0.846435 -4.73697 0
M  V30 1029 C 96.4074 0.524588 -5.18553 0
M  V30 1030 C 93.7354 0.098683 -5.86617 0
M  V30 1031 C 96.0874 -0.209853 -6.32252 0
M  V30 1032 C 94.7514 -0.428102 -6.66126 0
M  V30 1033 H 94.0214 0.343375 -0.656639 0
M  V30 1034 H 96.6684 0.206077 -1.90388 0
M  V30 1035 H 94.9734 2.6035 -2.92789 0
M  V30 1036 H 96.6704 2.36513 -3.23825 0
M  V30 1037 H 93.2604 1.22486 -4.10725 0
M  V30 1038 H 97.4444 0.672008 -4.91729 0
M  V30 1039 H 92.7004 -0.0805753 -6.11347 0
M  V30 1040 H 96.8744 -0.627157 -6.9357 0
M  V30 1041 H 94.5014 -1.00944 -7.53468 0
M  V30 1042 N 96.0765 1.50051 0.48192 0
M  V30 1043 C 97.3235 1.60498 1.23477 0
M  V30 1044 C 97.6515 0.300331 1.92167 0
M  V30 1045 O 96.9065 -0.713094 1.82246 0
M  V30 1046 C 97.2055 2.72717 2.30998 0
M  V30 1047 C 96.8715 4.13572 1.79636 0
M  V30 1048 C 95.5335 4.519 1.65348 0
M  V30 1049 C 97.8855 5.01649 1.41412 0
M  V30 1050 C 95.2135 5.76057 1.11244 0
M  V30 1051 C 97.5655 6.26343 0.887538 0
M  V30 1052 C 96.2295 6.63483 0.731207 0
M  V30 1053 H 95.4995 0.587303 0.451836 0
M  V30 1054 H 98.1465 1.83948 0.532468 0
M  V30 1055 H 96.4515 2.43312 3.07094 0
M  V30 1056 H 98.1485 2.78006 2.88988 0
M  V30 1057 H 94.7385 3.83329 1.91721 0
M  V30 1058 H 98.9225 4.72679 1.51289 0
M  V30 1059 H 94.1785 6.03516 0.978686 0
M  V30 1060 H 98.3525 6.93958 0.582654 0
M  V30 1061 H 95.9795 7.59568 0.309806 0
M  V30 1062 N 97.5546 -0.734337 1.39446 0
M  V30 1063 C 98.8026 -1.49096 1.36436 0
M  V30 1064 C 99.1236 -1.94961 -0.0388255 0
M  V30 1065 O 98.3936 -1.69033 -0.990191 0
M  V30 1066 H 96.9736 -0.5531 0.502085 0
M  V30 1067 H 99.6356 -0.871725 1.74319 0
M  V30 1068 H 98.7316 -2.37276 2.02747 0
M  V30 1069 N 99.0327 -1.24633 -0.964593 0
M  V30 1070 C 99.9627 -1.06611 -2.07741 0
M  V30 1071 C 100.944 0.0218666 -1.70086 0
M  V30 1072 O 102.129 -0.145793 -1.93652 0
M  V30 1073 C 99.2587 -0.673444 -3.40708 0
M  V30 1074 C 98.2127 -1.71054 -3.92332 0
M  V30 1075 C 97.5387 -1.17285 -5.21678 0
M  V30 1076 C 98.8387 -3.10718 -4.19824 0
M  V30 1077 H 100.533 -1.99693 -2.23076 0
M  V30 1078 H 98.0787 -0.96152 -1.07195 0
M  V30 1079 H 100.032 -0.534345 -4.17998 0
M  V30 1080 H 98.7557 0.293073 -3.25282 0
M  V30 1081 H 97.4147 -1.83791 -3.17201 0
M  V30 1082 H 97.0627 -0.196847 -5.02615 0
M  V30 1083 H 96.7627 -1.86592 -5.57187 0
M  V30 1084 H 98.2867 -1.04593 -6.01575 0
M  V30 1085 H 99.7007 -3.01192 -4.87808 0
M  V30 1086 H 98.0977 -3.77406 -4.66567 0
M  V30 1087 H 99.1677 -3.58524 -3.26479 0
M  V30 1088 N 100.511 1.16574 -1.06058 0
M  V30 1089 C 101.922 1.68662 -0.800632 0
M  V30 1090 C 102.273 1.84184 0.67608 0
M  V30 1091 O 101.398 1.53568 1.52466 0
M  V30 1092 C 101.993 3.06356 -1.44676 0
M  V30 1093 C 100.552 3.55575 -1.23465 0
M  V30 1094 C 99.6988 2.31616 -1.52477 0
M  V30 1095 H 102.65 1.00969 -1.22438 0
M  V30 1096 H 102.671 3.70636 -0.860788 0
M  V30 1097 H 102.183 2.95027 -2.52152 0
M  V30 1098 H 100.284 3.72167 -0.179527 0
M  V30 1099 H 100.397 4.37812 -1.94571 0
M  V30 1100 H 98.7608 2.36512 -0.945209 0
M  V30 1101 H 99.5438 2.22887 -2.61106 0
M  V30 1102 N 101.989 0.842826 1.3317 0
M  V30 1103 C 103.238 0.436738 1.96915 0
M  V30 1104 C 103.551 -1.01025 1.67491 0
M  V30 1105 O 104.757 -1.5212 2.24881 0
M  V30 1106 C 103.213 0.730021 3.52418 0
M  V30 1107 C 102.821 2.19195 3.90714 0
M  V30 1108 C 104.565 0.391076 4.22695 0
M  V30 1109 C 102.472 2.42907 5.39212 0
M  V30 1110 H 101.402 0.15958 0.736919 0
M  V30 1111 H 104.053 1.03196 1.51733 0
M  V30 1112 H 102.435 0.0643755 3.95948 0
M  V30 1113 H 103.609 2.8984 3.58231 0
M  V30 1114 H 101.924 2.49425 3.33431 0
M  V30 1115 H 104.521 0.545817 5.31907 0
M  V30 1116 H 104.864 -0.666294 4.10933 0
M  V30 1117 H 105.397 1.01212 3.84709 0
M  V30 1118 H 102.136 3.47224 5.55982 0
M  V30 1119 H 101.656 1.76827 5.73142 0
M  V30 1120 H 103.335 2.2626 6.06148 0
M  V30 1121 N 103.467 -1.45747 0.599634 0
M  V30 1122 C 104.695 -2.06668 0.0978551 0
M  V30 1123 C 105.11 -1.44562 -1.21439 0
M  V30 1124 O 104.467 -0.556923 -1.73795 0
M  V30 1125 C 104.518 -3.61456 -0.0567044 0
M  V30 1126 O 104.239 -4.21242 1.20361 0
M  V30 1127 C 105.74 -4.39345 -0.590869 0
M  V30 1128 H 102.96 -0.667825 0.0651943 0
M  V30 1129 H 105.504 -1.87115 0.82511 0
M  V30 1130 H 103.659 -3.80378 -0.734251 0
M  V30 1131 H 104.073 -5.14323 1.02821 0
M  V30 1132 H 105.547 -5.48182 -0.648131 0
M  V30 1133 H 106.024 -4.08568 -1.61147 0
M  V30 1134 H 106.63 -4.25268 0.0523679 0
M  V30 1135 N 104.945 -0.338344 -1.53925 0
M  V30 1136 C 106.193 0.259245 -2.0043 0
M  V30 1137 C 106.514 1.51484 -1.22791 0
M  V30 1138 O 105.784 1.93037 -0.33368 0
M  V30 1139 H 104.364 0.0987845 -0.740439 0
M  V30 1140 H 107.026 -0.458302 -1.89435 0
M  V30 1141 H 106.122 0.505334 -3.07982 0
M  V30 1142 N 106.423 1.57458 -0.0668435 0
M  V30 1143 C 107.356 2.08033 0.93795 0
M  V30 1144 C 108.334 0.984321 1.29421 0
M  V30 1145 O 109.518 1.25736 1.40437 0
M  V30 1146 C 106.645 2.53388 2.24749 0
M  V30 1147 C 105.691 3.74376 2.04315 0
M  V30 1148 S 106.524 5.19303 1.30706 0
M  V30 1149 C 107.68 5.67986 2.62951 0
M  V30 1150 H 107.913 2.92935 0.50759 0
M  V30 1151 H 105.446 1.5371 0.145804 0
M  V30 1152 H 107.404 2.8018 3.00016 0
M  V30 1153 H 106.065 1.68763 2.64911 0
M  V30 1154 H 105.258 4.04083 3.01218 0
M  V30 1155 H 104.86 3.47931 1.37186 0
M  V30 1156 H 107.152 5.74528 3.5906 0
M  V30 1157 H 108.095 6.66955 2.3786 0
M  V30 1158 H 108.503 4.95781 2.69929 0
M  V30 1159 N 107.901 -0.206675 1.56239 0
M  V30 1160 C 108.831 -1.25909 1.96645 0
M  V30 1161 C 109.812 -1.48097 0.836734 0
M  V30 1162 O 110.997 -1.6003 1.10019 0
M  V30 1163 C 108.127 -2.6058 2.29599 0
M  V30 1164 C 107.081 -2.53024 3.452 0
M  V30 1165 C 106.407 -3.91861 3.63798 0
M  V30 1166 C 107.707 -2.06524 4.79734 0
M  V30 1167 H 109.401 -0.923369 2.84806 0
M  V30 1168 H 106.947 -0.442735 1.37025 0
M  V30 1169 H 108.9 -3.34375 2.56459 0
M  V30 1170 H 107.624 -2.95869 1.38307 0
M  V30 1171 H 106.283 -1.81684 3.18412 0
M  V30 1172 H 105.931 -4.24483 2.69857 0
M  V30 1173 H 105.631 -3.87683 4.4156 0
M  V30 1174 H 107.155 -4.67296 3.93022 0
M  V30 1175 H 108.569 -2.70072 5.05702 0
M  V30 1176 H 106.966 -2.13374 5.60885 0
M  V30 1177 H 108.036 -1.01802 4.74093 0
M  V30 1178 N 109.379 -1.50304 -0.473955 0
M  V30 1179 C 110.327 -1.69482 -1.59307 0
M  V30 1180 C 111.321 -0.560669 -1.59853 0
M  V30 1181 O 112.527 -0.741087 -1.64036 0
M  V30 1182 H 108.902 -0.534892 -0.528578 0
M  V30 1183 H 110.873 -2.63364 -1.40293 0
M  V30 1184 C 109.622 -1.80354 -2.97267 0
M  V30 1185 H 108.945 -2.67012 -2.97564 0
M  V30 1186 H 110.385 -1.97798 -3.75036 0
M  V30 1187 C 108.844 -0.55448 -3.32306 0
M  V30 1188 O 109.374 0.307661 -4.0052 0
M  V30 1189 N 107.58 -0.409354 -2.87702 0
M  V30 1190 H 107.127 -1.11196 -2.32364 0
M  V30 1191 H 107.085 0.425223 -3.11511 0
M  V30 1192 N 110.857 0.726932 -1.39834 0
M  V30 1193 C 112.082 1.52121 -1.40976 0
M  V30 1194 C 112.507 1.88098 -0.00826029 0
M  V30 1195 O 111.865 1.52479 0.980807 0
M  V30 1196 C 111.913 2.78021 -2.29644 0
M  V30 1197 O 111.017 3.74272 -1.73188 0
M  V30 1198 H 110.358 0.45908 -0.479731 0
M  V30 1199 H 112.888 0.896207 -1.83927 0
M  V30 1200 H 112.898 3.26671 -2.44438 0
M  V30 1201 H 111.573 2.51169 -3.31492 0
M  V30 1202 H 110.15 3.33073 -1.6768 0
M  V30 1203 N 112.336 1.25143 0.95797 0
M  V30 1204 C 113.752 1.01892 1.22842 0
M  V30 1205 C 113.952 -0.266311 1.99732 0
M  V30 1206 O 113.008 -0.979913 2.3271 0
M  V30 1207 C 114.321 2.24004 2.00606 0
M  V30 1208 C 115.869 2.28731 2.13662 0
M  V30 1209 C 116.344 3.5049 2.94823 0
M  V30 1210 N 117.835 3.50866 3.02403 0
M  V30 1211 C 118.57 4.4174 3.65586 0
M  V30 1212 N 118.066 5.42882 4.30408 0
M  V30 1213 N 119.859 4.29429 3.62694 0
M  V30 1214 H 112.01 2.07718 0.443493 0
M  V30 1215 H 114.273 0.912031 0.258657 0
M  V30 1216 H 113.979 3.17395 1.51503 0
M  V30 1217 H 113.853 2.26907 3.01319 0
M  V30 1218 H 116.24 1.35865 2.61963 0
M  V30 1219 H 116.321 2.29848 1.12265 0
M  V30 1220 H 115.965 4.43676 2.47213 0
M  V30 1221 H 115.895 3.46617 3.96439 0
M  V30 1222 H 118.386 2.777 2.56302 0
M  V30 1223 H 118.699 6.0844 4.76467 0
M  V30 1224 H 117.044 5.46758 4.29047 0
M  V30 1225 H 120.235 3.49643 3.11236 0
M  V30 1226 H 120.408 5.00448 4.1165 0
M  V30 1227 N 113.814 -1.1601 1.06675 0
M  V30 1228 C 115.06 -1.86909 0.786945 0
M  V30 1229 C 115.393 -1.81717 -0.685018 0
M  V30 1230 O 114.668 -1.23551 -1.50218 0
M  V30 1231 C 114.951 -3.36313 1.28707 0
M  V30 1232 C 114.804 -3.50175 2.82308 0
M  V30 1233 C 116.123 -4.3084 0.898071 0
M  V30 1234 H 113.242 -0.678677 0.287343 0
M  V30 1235 H 115.884 -1.36336 1.32334 0
M  V30 1236 H 114.034 -3.79513 0.830768 0
M  V30 1237 H 115.706 -3.15886 3.36175 0
M  V30 1238 H 113.949 -2.91959 3.20847 0
M  V30 1239 H 114.62 -4.55116 3.12368 0
M  V30 1240 H 117.096 -3.95561 1.29114 0
M  V30 1241 H 115.972 -5.33876 1.27543 0
M  V30 1242 H 116.233 -4.41662 -0.196651 0
M  V30 1243 N 115.292 -0.849877 -1.32721 0
M  V30 1244 C 116.541 -0.447175 -1.96681 0
M  V30 1245 C 116.854 1.00135 -1.68025 0
M  V30 1246 O 118.06 1.50926 -2.25685 0
M  V30 1247 C 116.516 -0.7487 -3.52026 0
M  V30 1248 C 116.124 -2.21264 -3.89546 0
M  V30 1249 C 117.868 -0.413487 -4.22481 0
M  V30 1250 C 115.775 -2.45763 -5.37917 0
M  V30 1251 H 114.705 -0.163486 -0.736063 0
M  V30 1252 H 117.356 -1.03999 -1.51183 0
M  V30 1253 H 115.738 -0.0853727 -3.95908 0
M  V30 1254 H 116.912 -2.91736 -3.56689 0
M  V30 1255 H 115.227 -2.5119 -3.32103 0
M  V30 1256 H 117.824 -0.574017 -5.3161 0
M  V30 1257 H 118.167 0.644492 -4.11281 0
M  V30 1258 H 118.7 -1.03251 -3.84167 0
M  V30 1259 H 115.439 -3.50168 -5.54132 0
M  V30 1260 H 114.959 -1.79864 -5.72197 0
M  V30 1261 H 116.638 -2.29471 -6.0494 0
M  V30 1262 N 116.77 1.45427 -0.607355 0
M  V30 1263 C 117.68 2.34325 0.113463 0
M  V30 1264 C 118.696 1.51226 0.860617 0
M  V30 1265 O 119.872 1.84029 0.818255 0
M  V30 1266 C 116.937 3.28839 1.09844 0
M  V30 1267 C 115.998 4.27844 0.353271 0
M  V30 1268 C 115.231 5.17842 1.29133 0
M  V30 1269 O 115.454 5.11264 2.52913 0
M  V30 1270 O 114.388 5.96713 0.788523 0
M  V30 1271 H 118.214 2.97364 -0.617094 0
M  V30 1272 H 115.799 1.44807 -0.367619 0
M  V30 1273 H 117.681 3.8708 1.66575 0
M  V30 1274 H 116.356 2.68365 1.81003 0
M  V30 1275 H 115.263 3.7322 -0.256494 0
M  V30 1276 H 116.596 4.91173 -0.317822 0
M  V30 1277 N 118.248 0.346503 1.53744 0
M  V30 1278 C 119.497 -0.250122 2.00143 0
M  V30 1279 C 119.81 -1.51418 1.23822 0
M  V30 1280 O 121.016 -2.18823 1.60713 0
M  V30 1281 C 119.472 -0.496252 3.56462 0
M  V30 1282 C 119.08 0.752077 4.41642 0
M  V30 1283 C 120.824 -1.05157 4.11269 0
M  V30 1284 C 118.731 0.476583 5.89477 0
M  V30 1285 H 117.661 -0.0972409 0.747703 0
M  V30 1286 H 120.312 0.46229 1.77581 0
M  V30 1287 H 118.694 -1.26944 3.75102 0
M  V30 1288 H 119.868 1.5266 4.34778 0
M  V30 1289 H 118.183 1.22925 3.97842 0
M  V30 1290 H 120.78 -1.27269 5.19333 0
M  V30 1291 H 121.123 -2.00799 3.64672 0
M  V30 1292 H 121.656 -0.339019 3.96353 0
M  V30 1293 H 118.395 1.4028 6.40314 0
M  V30 1294 H 117.915 -0.259794 5.99237 0
M  V30 1295 H 119.594 0.0949315 6.4693 0
M  V30 1296 N 119.726 -1.57421 0.075193 0
M  V30 1297 C 120.659 -2.08528 -0.926904 0
M  V30 1298 C 121.637 -0.991171 -1.28898 0
M  V30 1299 O 122.821 -1.26479 -1.39769 0
M  V30 1300 C 119.948 -2.54576 -2.23402 0
M  V30 1301 C 118.994 -3.75454 -2.02327 0
M  V30 1302 S 119.827 -5.19989 -1.27951 0
M  V30 1303 C 120.983 -5.69372 -2.59935 0
M  V30 1304 H 121.216 -2.932 -0.492048 0
M  V30 1305 H 118.749 -1.53785 -0.137651 0
M  V30 1306 H 120.707 -2.81767 -2.98526 0
M  V30 1307 H 119.368 -1.70166 -2.64012 0
M  V30 1308 H 118.561 -4.05675 -2.99071 0
M  V30 1309 H 118.163 -3.48654 -1.35339 0
M  V30 1310 H 120.455 -5.76424 -3.56008 0
M  V30 1311 H 121.398 -6.68207 -2.34319 0
M  V30 1312 H 121.806 -4.97205 -2.67296 0
M  V30 1313 N 121.204 0.198386 -1.56346 0
M  V30 1314 C 122.136 1.26987 -1.90806 0
M  V30 1315 C 123.149 1.41877 -0.798419 0
M  V30 1316 O 124.338 1.42362 -1.07682 0
M  V30 1317 C 121.438 2.64246 -2.12196 0
M  V30 1318 C 120.611 2.71007 -3.43328 0
M  V30 1319 C 119.67 3.89439 -3.5387 0
M  V30 1320 O 118.696 3.76695 -4.26719 0
M  V30 1321 N 119.898 5.04752 -2.86715 0
M  V30 1322 H 122.663 0.977433 -2.83313 0
M  V30 1323 H 120.224 0.388322 -1.57174 0
M  V30 1324 H 122.216 3.41896 -2.1654 0
M  V30 1325 H 120.786 2.85992 -1.26204 0
M  V30 1326 H 120.006 1.79657 -3.50881 0
M  V30 1327 H 121.294 2.72512 -4.29668 0
M  V30 1328 H 120.692 5.18004 -2.2735 0
M  V30 1329 H 119.249 5.8036 -2.96691 0
M  V30 1330 N 122.682 1.50554 0.465978 0
M  V30 1331 C 123.629 1.6979 1.56333 0
M  V30 1332 C 124.599 0.539239 1.57103 0
M  V30 1333 O 125.784 0.770401 1.74555 0
M  V30 1334 C 122.924 1.80273 2.94271 0
M  V30 1335 C 122.037 3.07674 3.0325 0
M  V30 1336 C 121.172 3.08922 4.32135 0
M  V30 1337 C 120.211 4.30755 4.34875 0
M  V30 1338 N 119.348 4.29714 5.55239 0
M  V30 1339 H 124.188 2.63472 1.39235 0
M  V30 1340 H 121.725 1.30602 0.676873 0
M  V30 1341 H 123.683 1.84332 3.74269 0
M  V30 1342 H 122.313 0.900258 3.09992 0
M  V30 1343 H 121.365 3.13062 2.16094 0
M  V30 1344 H 122.677 3.97642 3.01135 0
M  V30 1345 H 121.831 3.11738 5.20485 0
M  V30 1346 H 120.57 2.16792 4.36866 0
M  V30 1347 H 119.575 4.28146 3.44922 0
M  V30 1348 H 120.8 5.24117 4.31831 0
M  V30 1349 H 118.746 3.4044 5.60746 0
M  V30 1350 H 118.663 5.13456 5.54886 0
M  V30 1351 H 119.931 4.36683 6.457 0
M  V30 1352 N 124.16 -0.719506 1.40217 0
M  V30 1353 C 125.571 -1.29848 1.34151 0
M  V30 1354 C 125.922 -1.96196 0.0131349 0
M  V30 1355 O 125.047 -1.973 -0.88892 0
M  V30 1356 C 125.642 -2.36118 2.42968 0
M  V30 1357 C 124.201 -2.8965 2.40374 0
M  V30 1358 C 123.348 -1.63393 2.24049 0
M  V30 1359 H 126.299 -0.51591 1.5008 0
M  V30 1360 H 126.32 -3.16871 2.10649 0
M  V30 1361 H 125.832 -1.878 3.39636 0
M  V30 1362 H 123.933 -3.42208 1.47392 0
M  V30 1363 H 124.046 -3.4171 3.35814 0
M  V30 1364 H 122.41 -1.88312 1.71495 0
M  V30 1365 H 123.193 -1.17104 3.2271 0
M  V30 1366 N 125.638 -1.25649 -0.95132 0
M  V30 1367 C 127.054 -1.02542 -1.223 0
M  V30 1368 C 127.254 0.255715 -1.99871 0
M  V30 1369 O 126.31 0.967558 -2.33226 0
M  V30 1370 C 127.623 -2.25065 -1.99415 0
M  V30 1371 C 129.171 -2.29861 -2.12446 0
M  V30 1372 C 129.646 -3.52048 -2.92961 0
M  V30 1373 N 131.137 -3.52465 -3.00538 0
M  V30 1374 C 131.872 -4.43672 -3.63239 0
M  V30 1375 N 131.368 -5.45157 -4.27523 0
M  V30 1376 N 133.161 -4.31346 -3.60412 0
M  V30 1377 H 125.312 -2.07951 -0.432471 0
M  V30 1378 H 127.575 -0.91339 -0.253816 0
M  V30 1379 H 127.281 -3.18194 -1.49817 0
M  V30 1380 H 127.155 -2.28502 -3.00111 0
M  V30 1381 H 129.542 -1.37252 -2.61239 0
M  V30 1382 H 129.623 -2.3044 -1.11044 0
M  V30 1383 H 129.267 -4.44981 -2.44856 0
M  V30 1384 H 129.197 -3.48715 -3.94596 0
M  V30 1385 H 131.688 -2.79056 -2.54826 0
M  V30 1386 H 132.001 -6.10958 -4.73234 0
M  V30 1387 H 130.346 -5.49025 -4.26141 0
M  V30 1388 H 133.537 -3.51288 -3.09377 0
M  V30 1389 H 133.71 -5.02624 -4.0899 0
M  V30 1390 N 127.117 1.15442 -1.07289 0
M  V30 1391 C 128.357 1.8788 -0.805012 0
M  V30 1392 C 128.721 1.80413 0.656907 0
M  V30 1393 O 129.922 2.47874 1.0398 0
M  V30 1394 C 128.193 3.3298 -1.29843 0
M  V30 1395 S 129.752 4.23158 -1.16114 0
M  V30 1396 H 126.57 0.64839 -0.291739 0
M  V30 1397 H 129.172 1.39285 -1.37186 0
M  V30 1398 H 127.876 3.35958 -2.35712 0
M  V30 1399 H 127.407 3.86629 -0.726767 0
M  V30 1400 H 129.422 4.96103 -0.0982778 0
M  V30 1401 N 128.595 0.856903 1.32268 0
M  V30 1402 C 129.843 0.460474 1.96784 0
M  V30 1403 C 130.164 -0.987701 1.68135 0
M  V30 1404 O 129.434 -1.69058 0.989765 0
M  V30 1405 H 128.014 0.167289 0.728027 0
M  V30 1406 H 130.676 1.09383 1.61312 0
M  V30 1407 H 129.772 0.60739 3.06133 0
M  V30 1408 N 130.073 -1.45103 0.615059 0
M  V30 1409 C 131.319 -2.02483 0.113347 0
M  V30 1410 C 131.652 -1.48146 -1.25564 0
M  V30 1411 O 130.927 -0.659104 -1.82992 0
M  V30 1412 C 131.21 -3.60005 0.0825278 0
M  V30 1413 C 131.063 -4.2466 1.48271 0
M  V30 1414 C 132.382 -4.35972 -0.601401 0
M  V30 1415 H 129.501 -0.735764 0.0426632 0
M  V30 1416 H 132.143 -1.72868 0.788461 0
M  V30 1417 H 130.293 -3.85367 -0.492378 0
M  V30 1418 H 131.965 -4.10458 2.10527 0
M  V30 1419 H 130.208 -3.82772 2.04127 0
M  V30 1420 H 130.879 -5.336 1.41332 0
M  V30 1421 H 133.355 -4.15947 -0.112666 0
M  V30 1422 H 132.231 -5.45697 -0.592097 0
M  V30 1423 H 132.492 -4.09391 -1.66887 0
M  V30 1424 N 131.551 -0.354651 -1.53558 0
M  V30 1425 C 132.962 0.126902 -1.86268 0
M  V30 1426 C 133.313 1.49075 -1.27558 0
M  V30 1427 O 132.438 2.08105 -0.5934 0
M  V30 1428 C 133.033 0.237046 -3.3797 0
M  V30 1429 C 131.592 0.662842 -3.70518 0
M  V30 1430 C 130.739 -0.196652 -2.76602 0
M  V30 1431 H 133.69 -0.573849 -1.47962 0
M  V30 1432 H 133.711 1.06259 -3.65362 0
M  V30 1433 H 133.223 -0.755725 -3.80671 0
M  V30 1434 H 131.324 1.66424 -3.33367 0
M  V30 1435 H 131.437 0.445034 -4.77029 0
M  V30 1436 H 129.801 0.332763 -2.52517 0
M  V30 1437 H 130.584 -1.18676 -3.22135 0
M  V30 1438 N 133.029 1.57378 -0.0835403 0
M  V30 1439 C 134.306 1.85363 0.624507 0
M  V30 1440 C 134.686 0.978239 1.87066 0
M  V30 1441 O 134.034 0.0475908 2.2845 0
M  V30 1442 C 134.244 3.35795 0.950947 0
M  V30 1443 C 135.592 4.03581 1.31939 0
M  V30 1444 O 136.616 3.40609 1.04232 0
M  V30 1445 O 135.475 5.14672 1.83779 0
M  V30 1446 H 132.569 0.766162 0.311329 0
M  V30 1447 H 135.115 1.69307 -0.115362 0
M  V30 1448 H 133.887 3.91244 0.0663899 0
M  V30 1449 H 133.51 3.57154 1.74719 0
M  V30 1450 N 134.507 -0.190092 1.56449 0
M  V30 1451 C 135.753 -0.911052 1.81184 0
M  V30 1452 C 136.086 -1.82699 0.658396 0
M  V30 1453 O 135.361 -1.91491 -0.340775 0
M  V30 1454 C 135.644 -1.72297 3.16205 0
M  V30 1455 C 135.497 -0.831419 4.42049 0
M  V30 1456 C 136.816 -2.69454 3.47969 0
M  V30 1457 H 133.935 -0.32977 0.659106 0
M  V30 1458 H 136.577 -0.178169 1.89163 0
M  V30 1459 H 134.727 -2.34778 3.09534 0
M  V30 1460 H 136.399 -0.220929 4.60771 0
M  V30 1461 H 134.642 -0.138406 4.33579 0
M  V30 1462 H 135.313 -1.43461 5.33032 0
M  V30 1463 H 137.789 -2.17104 3.54972 0
M  V30 1464 H 136.665 -3.23342 4.43555 0
M  V30 1465 H 136.926 -3.48744 2.71717 0
M  V30 1466 N 135.985 -1.50799 -0.457987 0
M  V30 1467 C 136.948 -1.7005 -1.53674 0
M  V30 1468 C 137.948 -0.570881 -1.50325 0
M  V30 1469 O 139.138 -0.838126 -1.52712 0
M  V30 1470 C 136.27 -1.73788 -2.93276 0
M  V30 1471 H 137.463 -2.66306 -1.37917 0
M  V30 1472 H 135.016 -1.40477 -0.685271 0
M  V30 1473 H 135.751 -0.792717 -3.14462 0
M  V30 1474 H 135.536 -2.55864 -2.97113 0
M  V30 1475 H 137.026 -1.90591 -3.71571 0
M  V30 1476 N 137.463 0.71206 -1.40597 0
M  V30 1477 C 138.373 1.8562 -1.43466 0
M  V30 1478 C 139.389 1.70902 -0.326902 0
M  V30 1479 O 140.565 1.93105 -0.572043 0
M  V30 1480 C 137.63 3.21451 -1.29884 0
M  V30 1481 C 136.691 3.48398 -2.50833 0
M  V30 1482 C 135.924 4.77749 -2.3789 0
M  V30 1483 O 136.147 5.53089 -1.39459 0
M  V30 1484 O 135.081 5.05111 -3.27333 0
M  V30 1485 H 138.907 1.86155 -2.39958 0
M  V30 1486 H 136.492 0.86295 -1.21957 0
M  V30 1487 H 138.374 4.02579 -1.24531 0
M  V30 1488 H 137.049 3.21636 -0.364997 0
M  V30 1489 H 135.956 2.67265 -2.61763 0
M  V30 1490 H 137.289 3.53014 -3.4299 0
M  V30 1491 N 138.941 1.26152 0.944643 0
M  V30 1492 C 140.171 1.14094 1.72239 0
M  V30 1493 C 140.579 -0.306931 1.86694 0
M  V30 1494 O 139.922 -1.22222 1.3714 0
M  V30 1495 C 139.984 1.73316 3.14963 0
M  V30 1496 C 139.648 3.2239 3.23904 0
M  V30 1497 C 140.645 4.19252 3.07447 0
M  V30 1498 C 138.33 3.62788 3.47405 0
M  V30 1499 C 140.324 5.54491 3.14353 0
M  V30 1500 C 138.011 4.98162 3.53947 0
M  V30 1501 C 139.009 5.93823 3.37436 0
M  V30 1502 O 138.697 7.26732 3.43679 0
M  V30 1503 H 138.429 0.398292 0.546205 0
M  V30 1504 H 140.983 1.67201 1.19301 0
M  V30 1505 H 139.213 1.14667 3.69308 0
M  V30 1506 H 140.902 1.56214 3.74636 0
M  V30 1507 H 141.668 3.8938 2.8915 0
M  V30 1508 H 137.547 2.88816 3.59313 0
M  V30 1509 H 141.091 6.29137 3.01384 0
M  V30 1510 H 136.988 5.27695 3.71763 0
M  V30 1511 H 137.756 7.3496 3.60245 0
M  V30 1512 N 140.419 -1.14872 1.07899 0
M  V30 1513 C 141.644 -1.90202 0.826926 0
M  V30 1514 C 142.069 -1.77774 -0.614664 0
M  V30 1515 O 141.427 -1.11431 -1.43013 0
M  V30 1516 C 141.475 -3.38352 1.24702 0
M  V30 1517 O 140.579 -4.10497 0.39575 0
M  V30 1518 H 139.92 -0.591968 0.300782 0
M  V30 1519 H 142.45 -1.45437 1.43907 0
M  V30 1520 H 142.46 -3.89156 1.22563 0
M  V30 1521 H 141.135 -3.46715 2.29698 0
M  V30 1522 H 139.712 -3.69796 0.480117 0
M  V30 1523 N 141.898 -0.863906 -1.31812 0
M  V30 1524 C 142.828 -0.330843 -2.31144 0
M  V30 1525 C 143.809 0.575005 -1.60087 0
M  V30 1526 O 144.994 0.493304 -1.8783 0
M  V30 1527 C 142.124 0.47374 -3.44054 0
M  V30 1528 C 141.078 -0.338481 -4.26659 0
M  V30 1529 C 140.404 0.591412 -5.31419 0
M  V30 1530 C 141.704 -1.56926 -4.98168 0
M  V30 1531 H 143.398 -1.16086 -2.75979 0
M  V30 1532 H 140.944 -0.559657 -1.32679 0
M  V30 1533 H 142.897 0.857143 -4.12591 0
M  V30 1534 H 141.621 1.33721 -2.9797 0
M  V30 1535 H 140.28 -0.703754 -3.59782 0
M  V30 1536 H 139.928 1.45199 -4.81587 0
M  V30 1537 H 139.628 0.0519022 -5.87577 0
M  V30 1538 H 141.152 0.97179 -6.02817 0
M  V30 1539 H 142.566 -1.25764 -5.59336 0
M  V30 1540 H 140.963 -2.04739 -5.64094 0
M  V30 1541 H 142.033 -2.32544 -4.25501 0
M  V30 1542 N 143.376 1.44774 -0.622745 0
M  V30 1543 C 144.623 2.02121 -0.1239 0
M  V30 1544 C 144.951 1.48915 1.25118 0
M  V30 1545 O 144.206 0.660045 1.84233 0
M  V30 1546 C 144.505 3.57364 -0.0508323 0
M  V30 1547 C 144.171 4.29787 -1.36358 0
M  V30 1548 C 142.833 4.4929 -1.72314 0
M  V30 1549 C 145.185 4.71062 -2.23048 0
M  V30 1550 C 142.513 5.07325 -2.94682 0
M  V30 1551 C 144.865 5.30452 -3.44679 0
M  V30 1552 C 143.529 5.48175 -3.80868 0
M  V30 1553 H 142.799 0.739612 -0.0453381 0
M  V30 1554 H 145.446 1.73648 -0.807389 0
M  V30 1555 H 143.751 3.85202 0.715991 0
M  V30 1556 H 145.448 3.99456 0.351533 0
M  V30 1557 H 142.038 4.14932 -1.07375 0
M  V30 1558 H 146.222 4.55715 -1.96565 0
M  V30 1559 H 141.478 5.19235 -3.22809 0
M  V30 1560 H 145.652 5.61385 -4.12092 0
M  V30 1561 H 143.279 5.92912 -4.75773 0
M  V30 1562 N 144.854 0.36279 1.53368 0
M  V30 1563 C 146.265 -0.117022 1.86333 0
M  V30 1564 C 146.616 -1.48397 1.28347 0
M  V30 1565 O 145.741 -2.07787 0.604428 0
M  V30 1566 C 146.336 -0.21912 3.38091 0
M  V30 1567 C 144.895 -0.643184 3.70864 0
M  V30 1568 C 144.042 0.211318 2.76494 0
M  V30 1569 H 146.993 0.581687 1.47655 0
M  V30 1570 H 147.014 -1.04319 3.6592 0
M  V30 1571 H 146.526 0.775902 3.80265 0
M  V30 1572 H 144.627 -1.64654 3.34245 0
M  V30 1573 H 144.74 -0.41973 4.77258 0
M  V30 1574 H 143.104 -0.319367 2.5269 0
M  V30 1575 H 143.887 1.20383 3.21501 0
M  V30 1576 N 146.332 -1.57332 0.0918853 0
M  V30 1577 C 147.28 -2.15075 -0.885747 0
M  V30 1578 C 148.274 -1.09277 -1.29441 0
M  V30 1579 O 149.48 -1.27627 -1.26931 0
M  V30 1580 H 145.855 -0.687966 -0.303656 0
M  V30 1581 H 147.826 -2.96047 -0.373995 0
M  V30 1582 C 146.575 -2.74325 -2.13638 0
M  V30 1583 H 145.898 -3.55418 -1.8308 0
M  V30 1584 H 147.338 -3.183 -2.80109 0
M  V30 1585 C 145.797 -1.70062 -2.90827 0
M  V30 1586 O 146.327 -1.13763 -3.85254 0
M  V30 1587 N 144.533 -1.40628 -2.54307 0
M  V30 1588 H 144.08 -1.866 -1.7759 0
M  V30 1589 H 144.038 -0.711043 -3.06254 0
M  V30 1590 N 147.81 0.181792 -1.56548 0
M  V30 1591 C 149.035 0.920019 -1.85877 0
M  V30 1592 C 149.46 1.75494 -0.677021 0
M  V30 1593 O 148.818 1.77399 0.374056 0
M  V30 1594 C 148.866 1.78112 -3.13542 0
M  V30 1595 O 147.97 2.88152 -2.95029 0
M  V30 1596 H 147.311 0.258334 -0.611686 0
M  V30 1597 H 149.841 0.183092 -2.03779 0
M  V30 1598 H 149.851 2.18314 -3.44678 0
M  V30 1599 H 148.526 1.16777 -3.99169 0
M  V30 1600 H 147.103 2.51609 -2.75222 0
M  V30 1601 N 149.288 1.51039 0.449983 0
M  V30 1602 C 150.699 1.557 1.03026 0
M  V30 1603 C 151.05 0.372939 1.92623 0
M  V30 1604 O 150.175 -0.511771 2.10261 0
M  V30 1605 C 150.77 2.82171 1.87523 0
M  V30 1606 C 149.329 2.89444 2.40622 0
M  V30 1607 C 148.476 2.50228 1.19504 0
M  V30 1608 H 151.427 1.56999 0.231745 0
M  V30 1609 H 151.448 2.65219 2.72835 0
M  V30 1610 H 150.96 3.68331 1.22286 0
M  V30 1611 H 149.061 2.07685 3.0935 0
M  V30 1612 H 149.174 3.92816 2.74285 0
M  V30 1613 H 147.538 2.03139 1.53644 0
M  V30 1614 H 148.321 3.38719 0.558972 0
M  V30 1615 N 150.766 -0.704594 1.40972 0
M  V30 1616 C 151.713 -1.81862 1.42109 0
M  V30 1617 C 152.683 -1.63781 0.276593 0
M  V30 1618 O 153.868 -1.84759 0.4763 0
M  V30 1619 C 151.008 -3.19669 1.30022 0
M  V30 1620 C 150.121 -3.49246 2.54267 0
M  V30 1621 C 149.256 -4.76618 2.3454 0
M  V30 1622 C 148.295 -4.99133 3.54306 0
M  V30 1623 N 147.432 -6.17726 3.33706 0
M  V30 1624 H 152.272 -1.80226 2.37324 0
M  V30 1625 H 149.809 -0.880238 1.17857 0
M  V30 1626 H 151.767 -3.99263 1.21018 0
M  V30 1627 H 150.397 -3.20506 0.384192 0
M  V30 1628 H 149.449 -2.64125 2.73756 0
M  V30 1629 H 150.761 -3.61788 3.43381 0
M  V30 1630 H 149.915 -5.64249 2.22952 0
M  V30 1631 H 148.654 -4.66305 1.42867 0
M  V30 1632 H 147.659 -4.09953 3.66359 0
M  V30 1633 H 148.884 -5.11311 4.4692 0
M  V30 1634 H 146.83 -6.08642 2.44725 0
M  V30 1635 H 146.747 -6.30995 4.16391 0
M  V30 1636 H 148.015 -7.08115 3.25873 0
M  V30 1637 N 152.244 -1.26651 -0.937939 0
M  V30 1638 C 153.49 -1.13562 -1.68746 0
M  V30 1639 C 153.845 0.317241 -1.89767 0
M  V30 1640 O 153.138 1.22939 -1.46957 0
M  V30 1641 C 153.332 -1.84168 -3.06295 0
M  V30 1642 C 153.161 -3.36171 -2.98696 0
M  V30 1643 C 151.931 -4.05468 -3.01535 0
M  V30 1644 C 154.129 -4.32312 -2.78588 0
M  V30 1645 N 152.111 -5.44118 -2.84269 0
M  V30 1646 C 153.482 -5.58159 -2.69924 0
M  V30 1647 C 155.537 -4.22524 -2.63396 0
M  V30 1648 C 154.24 -6.75335 -2.47618 0
M  V30 1649 C 156.266 -5.39411 -2.42466 0
M  V30 1650 C 155.628 -6.64208 -2.34536 0
M  V30 1651 H 151.727 -0.470361 -0.624728 0
M  V30 1652 H 154.311 -1.59982 -1.10968 0
M  V30 1653 H 152.482 -1.40219 -3.62206 0
M  V30 1654 H 154.214 -1.63674 -3.70126 0
M  V30 1655 H 150.969 -3.56854 -3.11372 0
M  V30 1656 H 151.393 -6.1693 -2.78795 0
M  V30 1657 H 156.035 -3.26771 -2.68292 0
M  V30 1658 H 153.753 -7.71182 -2.41463 0
M  V30 1659 H 157.339 -5.33711 -2.31611 0
M  V30 1660 H 156.219 -7.53129 -2.18555 0
M  V30 1661 N 153.722 1.14298 -1.08507 0
M  V30 1662 C 154.95 1.89219 -0.836876 0
M  V30 1663 C 155.365 1.78638 0.611054 0
M  V30 1664 O 154.722 1.14643 1.41998 0
M  V30 1665 C 154.773 3.39158 -1.25116 0
M  V30 1666 O 154.494 3.49449 -2.64229 0
M  V30 1667 C 155.995 4.31073 -1.03398 0
M  V30 1668 H 153.215 0.599328 -0.301739 0
M  V30 1669 H 155.759 1.44746 -1.44461 0
M  V30 1670 H 153.914 3.81251 -0.687514 0
M  V30 1671 H 154.328 4.42589 -2.81452 0
M  V30 1672 H 155.802 5.34646 -1.37323 0
M  V30 1673 H 156.279 4.3919 0.0289259 0
M  V30 1674 H 156.885 3.94738 -1.58311 0
M  V30 1675 N 155.201 0.870884 1.31352 0
M  V30 1676 C 156.426 0.495957 2.01383 0
M  V30 1677 C 156.851 -0.904324 1.64935 0
M  V30 1678 O 156.209 -1.59687 0.858466 0
M  V30 1679 C 156.257 0.661433 3.54482 0
M  V30 1680 O 155.361 -0.298851 4.11316 0
M  V30 1681 H 154.702 0.197158 0.634054 0
M  V30 1682 H 157.232 1.17455 1.67527 0
M  V30 1683 H 157.242 0.555072 4.04207 0
M  V30 1684 H 155.917 1.68246 3.8035 0
M  V30 1685 H 154.494 -0.147368 3.72609 0
M  V30 1686 N 156.679 -1.44442 0.630414 0
M  V30 1687 C 157.626 -2.30678 -0.0749355 0
M  V30 1688 C 158.596 -1.4344 -0.837502 0
M  V30 1689 O 159.781 -1.72343 -0.818684 0
M  V30 1690 C 156.921 -3.28706 -1.05103 0
M  V30 1691 C 156.034 -4.31046 -0.286954 0
M  V30 1692 C 155.169 -5.16167 -1.2548 0
M  V30 1693 C 154.208 -6.10216 -0.479843 0
M  V30 1694 N 153.345 -6.88039 -1.39811 0
M  V30 1695 H 158.185 -2.90454 0.666386 0
M  V30 1696 H 155.722 -1.43107 0.340404 0
M  V30 1697 H 157.68 -3.84027 -1.63031 0
M  V30 1698 H 156.31 -2.70632 -1.75949 0
M  V30 1699 H 155.362 -3.78203 0.408243 0
M  V30 1700 H 156.674 -4.97794 0.316657 0
M  V30 1701 H 155.828 -5.76002 -1.90544 0
M  V30 1702 H 154.567 -4.49491 -1.89233 0
M  V30 1703 H 153.572 -5.49491 0.184295 0
M  V30 1704 H 154.797 -6.78928 0.152965 0
M  V30 1705 H 152.743 -6.24032 -2.02287 0
M  V30 1706 H 152.66 -7.51223 -0.848508 0
M  V30 1707 H 153.928 -7.52397 -2.03762 0
M  V30 1708 N 158.157 -0.370918 -1.53173 0
M  V30 1709 C 159.403 0.217423 -2.01631 0
M  V30 1710 C 159.736 1.47983 -1.25756 0
M  V30 1711 O 159.011 1.91274 -0.352764 0
M  V30 1712 C 159.294 0.503982 -3.56556 0
M  V30 1713 C 159.147 -0.77243 -4.43118 0
M  V30 1714 C 160.466 1.30234 -4.20389 0
M  V30 1715 H 157.585 0.0775486 -0.732909 0
M  V30 1716 H 160.227 -0.496863 -1.83388 0
M  V30 1717 H 158.377 1.11248 -3.72231 0
M  V30 1718 H 160.049 -1.4098 -4.39229 0
M  V30 1719 H 158.292 -1.39167 -4.10871 0
M  V30 1720 H 158.963 -0.526815 -5.4948 0
M  V30 1721 H 161.439 0.787546 -4.08579 0
M  V30 1722 H 160.315 1.47158 -5.28806 0
M  V30 1723 H 160.576 2.31237 -3.76805 0
M  V30 1724 N 159.635 1.57281 -0.100228 0
M  V30 1725 C 160.881 1.94826 0.563101 0
M  V30 1726 C 161.214 0.982475 1.67514 0
M  V30 1727 O 160.489 0.0164069 1.94493 0
M  V30 1728 C 160.772 3.42453 1.11346 0
M  V30 1729 C 160.625 4.498 0.00612081 0
M  V30 1730 C 161.944 3.91506 2.01024 0
M  V30 1731 H 159.063 0.708428 0.203221 0
M  V30 1732 H 161.705 1.8922 -0.171979 0
M  V30 1733 H 159.855 3.47361 1.7399 0
M  V30 1734 H 161.527 4.57 -0.628357 0
M  V30 1735 H 159.77 4.28756 -0.659581 0
M  V30 1736 H 160.441 5.50306 0.432109 0
M  V30 1737 H 162.917 3.88784 1.48278 0
M  V30 1738 H 161.793 4.95358 2.36457 0
M  V30 1739 H 162.054 3.31099 2.92961 0
M  V30 1740 N 161.113 -0.173488 1.56642 0
M  V30 1741 C 162.341 -0.906095 1.86004 0
M  V30 1742 C 162.756 -1.75921 0.685355 0
M  V30 1743 O 162.113 -1.79198 -0.345578 0
M  V30 1744 C 162.164 -1.78462 3.14378 0
M  V30 1745 O 161.885 -0.965914 4.27319 0
M  V30 1746 C 163.386 -2.62707 3.57071 0
M  V30 1747 H 160.606 -0.263341 0.617165 0
M  V30 1748 H 163.15 -0.174236 2.03756 0
M  V30 1749 H 161.305 -2.46984 2.98459 0
M  V30 1750 H 161.719 -1.56655 5.00559 0
M  V30 1751 H 163.193 -3.19969 4.49804 0
M  V30 1752 H 163.67 -3.37472 2.81086 0
M  V30 1753 H 164.276 -1.99521 3.75595 0
M  V30 1754 N 162.591 -1.51276 -0.441967 0
M  V30 1755 C 163.821 -1.67273 -1.21257 0
M  V30 1756 C 164.229 -0.367624 -1.85594 0
M  V30 1757 O 163.572 0.663349 -1.71305 0
M  V30 1758 C 163.634 -2.72807 -2.34129 0
M  V30 1759 C 163.298 -4.1554 -1.90198 0
M  V30 1760 C 164.295 -5.00471 -1.40801 0
M  V30 1761 C 161.98 -4.61616 -1.9803 0
M  V30 1762 C 163.974 -6.29536 -0.998174 0
M  V30 1763 C 161.661 -5.90679 -1.56658 0
M  V30 1764 C 162.659 -6.74466 -1.07633 0
M  V30 1765 O 162.347 -8.01116 -0.668459 0
M  V30 1766 H 162.079 -0.564614 -0.371734 0
M  V30 1767 H 164.633 -1.9843 -0.530521 0
M  V30 1768 H 162.863 -2.36954 -3.05597 0
M  V30 1769 H 164.552 -2.77729 -2.96009 0
M  V30 1770 H 165.318 -4.66079 -1.34148 0
M  V30 1771 H 161.197 -3.96526 -2.35135 0
M  V30 1772 H 164.741 -6.94885 -0.61482 0
M  V30 1773 H 160.638 -6.24586 -1.62979 0
M  V30 1774 H 161.406 -8.14633 -0.794722 0
M  V30 1775 N 164.069 0.697108 -1.41344 0
M  V30 1776 C 165.485 1.00751 -1.2378 0
M  V30 1777 C 165.685 2.01105 -0.126066 0
M  V30 1778 O 164.741 2.47295 0.51004 0
M  V30 1779 C 166.054 1.53359 -2.58653 0
M  V30 1780 C 167.602 1.6525 -2.65822 0
M  V30 1781 C 168.077 2.2126 -4.01009 0
M  V30 1782 N 169.568 2.28622 -4.02847 0
M  V30 1783 C 170.303 2.72984 -5.04249 0
M  V30 1784 N 169.799 3.16962 -6.16041 0
M  V30 1785 N 171.592 2.72534 -4.91611 0
M  V30 1786 H 163.743 0.0322662 -2.12375 0
M  V30 1787 H 166.006 0.0768853 -0.944877 0
M  V30 1788 H 165.712 0.870773 -3.4075 0
M  V30 1789 H 165.586 2.51597 -2.81032 0
M  V30 1790 H 167.973 2.30644 -1.84086 0
M  V30 1791 H 168.054 0.655614 -2.47256 0
M  V30 1792 H 167.698 1.56482 -4.83193 0
M  V30 1793 H 167.628 3.21698 -4.16915 0
M  V30 1794 H 170.119 1.97585 -3.22131 0
M  V30 1795 H 170.432 3.49434 -6.89287 0
M  V30 1796 H 168.777 3.14875 -6.1958 0
M  V30 1797 H 171.968 2.37525 -4.0336 0
M  V30 1798 H 172.141 3.06789 -5.70775 0
M  V30 1799 N 165.547 1.27147 0.931209 0
M  V30 1800 C 166.796 1.12664 1.67302 0
M  V30 1801 C 167.109 -0.327718 1.92835 0
M  V30 1802 O 168.315 -0.593392 2.64936 0
M  V30 1803 C 166.771 1.9683 3.01307 0
M  V30 1804 C 166.379 3.46901 2.83485 0
M  V30 1805 C 168.123 1.90985 3.79111 0
M  V30 1806 C 166.03 4.23279 4.13024 0
M  V30 1807 H 164.96 0.41803 0.627509 0
M  V30 1808 H 167.611 1.51539 1.03481 0
M  V30 1809 H 165.993 1.50797 3.66164 0
M  V30 1810 H 167.167 4.00773 2.27415 0
M  V30 1811 H 165.482 3.54088 2.19113 0
M  V30 1812 H 168.079 2.45328 4.75098 0
M  V30 1813 H 168.422 0.882718 4.06834 0
M  V30 1814 H 168.955 2.34895 3.21044 0
M  V30 1815 H 165.694 5.26503 3.90481 0
M  V30 1816 H 165.214 3.74186 4.6877 0
M  V30 1817 H 166.893 4.32265 4.81411 0
M  V30 1818 N 167.025 -1.13721 1.09112 0
M  V30 1819 C 168.271 -1.85198 0.826414 0
M  V30 1820 C 168.604 -1.83129 -0.646319 0
M  V30 1821 O 167.879 -1.2671 -1.47563 0
M  V30 1822 C 168.162 -3.33507 1.35812 0
M  V30 1823 C 168.015 -3.44108 2.89672 0
M  V30 1824 C 169.334 -4.28838 0.989256 0
M  V30 1825 H 166.453 -0.67243 0.301675 0
M  V30 1826 H 169.095 -1.33499 1.35197 0
M  V30 1827 H 167.245 -3.77666 0.911082 0
M  V30 1828 H 168.917 -3.08684 3.428 0
M  V30 1829 H 167.16 -2.85087 3.26967 0
M  V30 1830 H 167.831 -4.48388 3.21951 0
M  V30 1831 H 170.307 -3.92734 1.37475 0
M  V30 1832 H 169.183 -5.31051 1.38838 0
M  V30 1833 H 169.444 -4.4198 -0.102924 0
M  V30 1834 N 168.503 -0.877838 -1.30888 0
M  V30 1835 C 169.728 -0.506629 -2.01117 0
M  V30 1836 C 170.153 0.895564 -1.65412 0
M  V30 1837 O 169.511 1.5923 -0.866922 0
M  V30 1838 C 169.559 -0.680223 -3.54126 0
M  V30 1839 O 168.663 0.277033 -4.11468 0
M  V30 1840 H 168.004 -0.200518 -0.633 0
M  V30 1841 H 170.534 -1.18342 -1.66902 0
M  V30 1842 H 170.544 -0.5765 -4.03907 0
M  V30 1843 H 169.219 -1.70261 -3.79452 0
M  V30 1844 H 167.796 0.127606 -3.72682 0
M  V30 1845 N 169.982 1.44106 -0.638065 0
M  V30 1846 C 171.212 2.06037 -0.152394 0
M  V30 1847 C 171.62 1.47808 1.18108 0
M  V30 1848 O 170.963 0.598092 1.73691 0
M  V30 1849 C 171.025 3.59488 0.0293714 0
M  V30 1850 C 170.689 4.4022 -1.22702 0
M  V30 1851 C 171.686 4.73256 -2.15232 0
M  V30 1852 C 169.371 4.8048 -1.46437 0
M  V30 1853 C 171.365 5.45444 -3.29802 0
M  V30 1854 C 169.052 5.52417 -2.61303 0
M  V30 1855 C 170.05 5.84819 -3.52811 0
M  V30 1856 O 169.738 6.55289 -4.65673 0
M  V30 1857 H 169.47 0.671233 -0.0801401 0
M  V30 1858 H 172.024 1.85851 -0.874563 0
M  V30 1859 H 170.254 3.78191 0.806758 0
M  V30 1860 H 171.943 4.03164 0.470475 0
M  V30 1861 H 172.709 4.42684 -1.98131 0
M  V30 1862 H 168.588 4.54676 -0.760977 0
M  V30 1863 H 172.132 5.70653 -4.01249 0
M  V30 1864 H 168.029 5.82404 -2.78344 0
M  V30 1865 H 168.797 6.73762 -4.64744 0
M  V30 1866 N 171.46 0.379036 1.52974 0
M  V30 1867 C 172.688 -0.20679 2.05864 0
M  V30 1868 C 173.103 -1.41356 1.25155 0
M  V30 1869 O 172.46 -1.8009 0.295588 0
M  V30 1870 C 172.511 -0.587045 3.56702 0
M  V30 1871 O 172.232 0.571776 4.34353 0
M  V30 1872 C 173.733 -1.22983 4.25899 0
M  V30 1873 H 170.953 -0.0336123 0.670158 0
M  V30 1874 H 173.497 0.541298 1.97206 0
M  V30 1875 H 171.652 -1.28504 3.65466 0
M  V30 1876 H 172.066 0.261544 5.23847 0
M  V30 1877 H 173.54 -1.44635 5.32715 0
M  V30 1878 H 174.017 -2.19416 3.80465 0
M  V30 1879 H 174.623 -0.572892 4.21424 0
M  V30 1880 N 172.938 -1.57226 0.108567 0
M  V30 1881 C 174.354 -1.5766 -0.248058 0
M  V30 1882 C 174.554 -1.12063 -1.67464 0
M  V30 1883 O 173.61 -0.803236 -2.39383 0
M  V30 1884 C 174.923 -3.0069 -0.0242287 0
M  V30 1885 C 176.471 -3.12868 -0.0909372 0
M  V30 1886 C 176.946 -4.57879 0.105067 0
M  V30 1887 N 178.437 -4.63172 0.0506846 0
M  V30 1888 C 179.172 -5.73126 0.177396 0
M  V30 1889 N 178.668 -6.91866 0.359696 0
M  V30 1890 N 180.461 -5.61977 0.117709 0
M  V30 1891 H 172.612 -1.85169 1.04049 0
M  V30 1892 H 174.875 -0.85529 0.40888 0
M  V30 1893 H 174.581 -3.38299 0.961604 0
M  V30 1894 H 174.455 -3.6945 -0.76068 0
M  V30 1895 H 176.842 -2.75124 -1.06729 0
M  V30 1896 H 176.923 -2.46672 0.677225 0
M  V30 1897 H 176.567 -4.96321 1.07834 0
M  V30 1898 H 176.497 -5.22153 -0.682954 0
M  V30 1899 H 178.988 -3.778 -0.0871266 0
M  V30 1900 H 179.301 -7.71503 0.447529 0
M  V30 1901 H 177.646 -6.93874 0.395536 0
M  V30 1902 H 180.837 -4.68094 -0.0236741 0
M  V30 1903 H 181.01 -6.47627 0.219905 0
M  V30 1904 N 174.416 0.165178 -1.56732 0
M  V30 1905 C 175.693 0.908443 -1.73224 0
M  V30 1906 C 176.073 2.0013 -0.67165 0
M  V30 1907 O 175.421 2.26353 0.31253 0
M  V30 1908 C 175.631 1.46756 -3.16644 0
M  V30 1909 C 176.979 1.93809 -3.77787 0
M  V30 1910 O 178.003 1.56537 -3.1996 0
M  V30 1911 O 176.862 2.62486 -4.79336 0
M  V30 1912 H 173.956 0.428025 -0.707618 0
M  V30 1913 H 176.502 0.152526 -1.69013 0
M  V30 1914 H 175.274 0.68129 -3.85323 0
M  V30 1915 H 174.897 2.28749 -3.25207 0
M  V30 1916 N 175.894 1.51508 0.433938 0
M  V30 1917 C 176.824 1.76016 1.53429 0
M  V30 1918 C 177.805 0.610112 1.58782 0
M  V30 1919 O 178.99 0.853177 1.74455 0
M  V30 1920 C 176.12 1.88831 2.9148 0
M  V30 1921 C 175.074 3.04288 3.00987 0
M  V30 1922 C 174.4 3.0229 4.4105 0
M  V30 1923 C 175.7 4.44193 2.74754 0
M  V30 1924 H 177.394 2.68152 1.33171 0
M  V30 1925 H 174.94 1.29035 0.639214 0
M  V30 1926 H 176.893 2.04559 3.6842 0
M  V30 1927 H 175.617 0.933455 3.12976 0
M  V30 1928 H 174.276 2.8827 2.26486 0
M  V30 1929 H 173.924 2.04576 4.59519 0
M  V30 1930 H 173.624 3.79822 4.4834 0
M  V30 1931 H 175.148 3.20116 5.1996 0
M  V30 1932 H 176.562 4.60544 3.41426 0
M  V30 1933 H 174.959 5.23457 2.9345 0
M  V30 1934 H 176.029 4.53996 1.70339 0
M  V30 1935 N 177.372 -0.689602 1.41712 0
M  V30 1936 C 178.783 -1.26973 1.36875 0
M  V30 1937 C 179.134 -1.96124 0.054748 0
M  V30 1938 O 178.259 -1.99141 -0.84687 0
M  V30 1939 C 178.854 -2.30912 2.47922 0
M  V30 1940 C 177.413 -2.84486 2.46464 0
M  V30 1941 C 176.56 -1.58603 2.27465 0
M  V30 1942 H 179.511 -0.48396 1.51141 0
M  V30 1943 H 179.532 -3.12331 2.17323 0
M  V30 1944 H 179.044 -1.80554 3.43543 0
M  V30 1945 H 177.145 -3.39005 1.54617 0
M  V30 1946 H 177.258 -3.34511 3.42986 0
M  V30 1947 H 175.622 -1.84632 1.75451 0
M  V30 1948 H 176.405 -1.10233 3.25121 0
M  V30 1949 N 178.85 -1.27639 -0.924453 0
M  V30 1950 C 179.8 -1.07295 -2.01176 0
M  V30 1951 C 180.784 5.77352e-05 -1.609 0
M  V30 1952 O 181.976 -0.218855 -1.75642 0
M  V30 1953 C 179.105 -0.725592 -3.35544 0
M  V30 1954 C 178.191 -1.83691 -3.82254 0
M  V30 1955 N 178.582 -3.07697 -4.01443 0
M  V30 1956 C 176.88 -1.72433 -4.11319 0
M  V30 1957 C 177.581 -3.80037 -4.40394 0
M  V30 1958 N 176.557 -3.0782 -4.48049 0
M  V30 1959 H 180.359 -2.01399 -2.14046 0
M  V30 1960 H 177.873 -1.18401 -1.11153 0
M  V30 1961 H 179.87 -0.560959 -4.13109 0
M  V30 1962 H 178.53 0.207782 -3.24034 0
M  V30 1963 H 179.541 -3.43424 -3.8766 0
M  V30 1964 H 176.218 -0.862005 -4.08504 0
M  V30 1965 H 177.608 -4.86632 -4.63291 0
M  V30 1966 N 180.328 1.1314 -1.09713 0
M  V30 1967 C 181.577 1.83838 -0.829851 0
M  V30 1968 C 181.89 1.84599 0.646728 0
M  V30 1969 O 183.096 2.51218 1.02965 0
M  V30 1970 C 181.552 3.30069 -1.43466 0
M  V30 1971 C 181.16 3.37688 -2.94399 0
M  V30 1972 C 182.904 4.05788 -1.24645 0
M  V30 1973 C 180.811 4.78209 -3.47952 0
M  V30 1974 H 179.741 0.68877 -0.306777 0
M  V30 1975 H 182.392 1.27448 -1.3202 0
M  V30 1976 H 180.774 3.8628 -0.871996 0
M  V30 1977 H 181.948 2.91456 -3.56918 0
M  V30 1978 H 180.263 2.75436 -3.12289 0
M  V30 1979 H 182.86 5.09535 -1.62107 0
M  V30 1980 H 183.203 4.15878 -0.187357 0
M  V30 1981 H 183.736 3.55915 -1.77678 0
M  V30 1982 H 180.475 4.73311 -4.53495 0
M  V30 1983 H 179.995 5.24924 -2.90198 0
M  V30 1984 H 181.674 5.47133 -3.45332 0
M  V30 1985 N 181.806 0.884767 1.30421 0
M  V30 1986 C 183.034 0.518044 2.0031 0
M  V30 1987 C 183.449 -0.893408 1.66324 0
M  V30 1988 O 182.806 -1.5875 0.900262 0
M  V30 1989 C 182.857 0.682997 3.54989 0
M  V30 1990 O 182.578 2.03888 3.87764 0
M  V30 1991 C 184.079 0.31924 4.42149 0
M  V30 1992 H 181.299 0.200265 0.640418 0
M  V30 1993 H 183.843 1.19001 1.6631 0
M  V30 1994 H 181.998 0.0584052 3.87356 0
M  V30 1995 H 182.412 2.05735 4.82466 0
M  V30 1996 H 183.886 0.485555 5.4986 0
M  V30 1997 H 184.363 -0.742717 4.32875 0
M  V30 1998 H 184.969 0.920147 4.15227 0
M  V30 1999 N 183.284 -1.43765 0.645699 0
M  V30 2000 C 184.53 -2.02197 0.156271 0
M  V30 2001 C 184.863 -1.50776 -1.22393 0
M  V30 2002 O 184.138 -0.697771 -1.81553 0
M  V30 2003 C 184.421 -3.59749 0.158872 0
M  V30 2004 C 184.274 -4.21419 1.57245 0
M  V30 2005 C 185.593 -4.37149 -0.50879 0
M  V30 2006 H 182.712 -0.734694 0.0582602 0
M  V30 2007 H 185.354 -1.71157 0.824951 0
M  V30 2008 H 183.504 -3.86325 -0.410525 0
M  V30 2009 H 185.176 -4.059 2.19186 0
M  V30 2010 H 183.419 -3.78356 2.122 0
M  V30 2011 H 184.09 -5.30482 1.52619 0
M  V30 2012 H 186.566 -4.16093 -0.024412 0
M  V30 2013 H 185.442 -5.4683 -0.476213 0
M  V30 2014 H 185.703 -4.12839 -1.58165 0
M  V30 2015 N 184.763 -0.387143 -1.52771 0
M  V30 2016 C 186.04 0.253197 -1.93954 0
M  V30 2017 C 186.42 1.64545 -1.32243 0
M  V30 2018 O 185.768 2.23191 -0.489699 0
M  V30 2019 C 185.978 0.281722 -3.47861 0
M  V30 2020 C 187.326 0.511715 -4.21505 0
M  V30 2021 O 188.35 0.362023 -3.54356 0
M  V30 2022 O 187.209 0.804847 -5.40541 0
M  V30 2023 H 184.303 0.156845 -0.811991 0
M  V30 2024 H 186.849 -0.441494 -1.63856 0
M  V30 2025 H 185.621 -0.693571 -3.85104 0
M  V30 2026 H 185.244 1.02142 -3.84256 0
M  V30 2027 N 186.241 1.57166 -0.116904 0
M  V30 2028 C 187.657 1.5779 0.239693 0
M  V30 2029 C 187.857 1.1295 1.66867 0
M  V30 2030 O 186.913 0.81592 2.38954 0
M  V30 2031 C 188.226 3.00699 0.00828202 0
M  V30 2032 C 189.774 3.12912 0.0743438 0
M  V30 2033 C 190.249 4.57817 -0.129348 0
M  V30 2034 N 191.74 4.63139 -0.075247 0
M  V30 2035 C 192.475 5.73023 -0.207788 0
M  V30 2036 N 191.971 6.91665 -0.396382 0
M  V30 2037 N 193.764 5.61906 -0.14751 0
M  V30 2038 H 185.915 1.84615 -1.05029 0
M  V30 2039 H 188.178 0.85311 -0.41341 0
M  V30 2040 H 187.884 3.37784 -0.979531 0
M  V30 2041 H 187.758 3.69848 0.741077 0
M  V30 2042 H 190.145 2.75686 1.05268 0
M  V30 2043 H 190.226 2.4631 -0.690297 0
M  V30 2044 H 189.87 4.95742 -1.10465 0
M  V30 2045 H 189.8 5.22507 0.655253 0
M  V30 2046 H 192.291 3.7784 0.0670898 0
M  V30 2047 H 192.604 7.71255 -0.488437 0
M  V30 2048 H 190.949 6.93654 -0.432329 0
M  V30 2049 H 194.14 4.681 -0.00115036 0
M  V30 2050 H 194.313 6.47501 -0.254247 0
M  V30 2051 N 187.719 -0.156864 1.56817 0
M  V30 2052 C 188.649 -1.19589 2.00551 0
M  V30 2053 C 189.63 -1.4536 0.883426 0
M  V30 2054 O 190.815 -1.56449 1.15054 0
M  V30 2055 C 187.945 -2.53143 2.37773 0
M  V30 2056 C 186.899 -2.41913 3.53075 0
M  V30 2057 C 186.225 -3.80088 3.76081 0
M  V30 2058 C 187.525 -1.91157 4.86062 0
M  V30 2059 H 189.219 -0.832293 2.87599 0
M  V30 2060 H 186.765 -0.398918 1.38364 0
M  V30 2061 H 188.718 -3.26047 2.66967 0
M  V30 2062 H 187.442 -2.91319 1.4765 0
M  V30 2063 H 186.101 -1.71462 3.24031 0
M  V30 2064 H 185.749 -4.15683 2.83225 0
M  V30 2065 H 185.449 -3.73439 4.53671 0
M  V30 2066 H 186.973 -4.54556 4.0769 0
M  V30 2067 H 188.387 -2.53846 5.14038 0
M  V30 2068 H 186.784 -1.95422 5.67389 0
M  V30 2069 H 187.854 -0.866673 4.77092 0
M  V30 2070 N 189.197 -1.51736 -0.425897 0
M  V30 2071 C 190.443 -1.65214 -1.1761 0
M  V30 2072 C 190.776 -0.372778 -1.90589 0
M  V30 2073 O 190.051 0.628139 -1.84078 0
M  V30 2074 C 190.334 -2.86312 -2.18398 0
M  V30 2075 C 190.187 -4.24254 -1.49426 0
M  V30 2076 C 191.506 -3.02925 -3.19256 0
M  V30 2077 H 188.625 -0.601263 -0.426206 0
M  V30 2078 H 191.267 -1.8425 -0.463882 0
M  V30 2079 H 189.417 -2.70213 -2.79137 0
M  V30 2080 H 191.089 -4.52046 -0.919362 0
M  V30 2081 H 189.332 -4.26426 -0.796432 0
M  V30 2082 H 190.003 -5.05001 -2.22885 0
M  V30 2083 H 192.479 -3.1781 -2.68581 0
M  V30 2084 H 191.355 -3.89199 -3.8706 0
M  V30 2085 H 191.616 -2.15497 -3.86023 0
M  V30 2086 N 190.675 0.682077 -1.42076 0
M  V30 2087 C 191.9 1.47558 -1.45744 0
M  V30 2088 C 192.325 1.87977 -0.0680981 0
M  V30 2089 O 191.683 1.55522 0.9318 0
M  V30 2090 C 191.731 2.70575 -2.38373 0
M  V30 2091 O 190.835 3.68573 -1.85007 0
M  V30 2092 H 190.176 0.443585 -0.494093 0
M  V30 2093 H 192.706 0.837238 -1.86686 0
M  V30 2094 H 192.716 3.18729 -2.54707 0
M  V30 2095 H 191.391 2.40495 -3.39315 0
M  V30 2096 H 189.968 3.2757 -1.78192 0
M  V30 2097 N 192.153 1.28127 0.917671 0
M  V30 2098 C 193.1 1.11717 2.0196 0
M  V30 2099 C 194.07 0.0153929 1.66093 0
M  V30 2100 O 195.255 0.179596 1.89953 0
M  V30 2101 C 192.395 0.780927 3.36148 0
M  V30 2102 C 191.508 1.96135 3.84909 0
M  V30 2103 C 190.643 1.56609 5.0759 0
M  V30 2104 C 189.682 2.71339 5.48673 0
M  V30 2105 N 188.819 2.32332 6.62545 0
M  V30 2106 H 193.659 2.06003 2.15329 0
M  V30 2107 H 191.196 1.02535 1.05475 0
M  V30 2108 H 193.154 0.56675 4.13333 0
M  V30 2109 H 191.784 -0.124998 3.22558 0
M  V30 2110 H 190.836 2.28777 3.03916 0
M  V30 2111 H 192.148 2.82165 4.1132 0
M  V30 2112 H 191.302 1.31374 5.92305 0
M  V30 2113 H 190.041 0.677014 4.82978 0
M  V30 2114 H 189.046 2.97276 4.62501 0
M  V30 2115 H 190.271 3.60882 5.75274 0
M  V30 2116 H 188.217 1.45889 6.39572 0
M  V30 2117 H 188.134 3.11899 6.88662 0
M  V30 2118 H 189.402 2.10371 7.50576 0
M  V30 2119 N 193.631 -1.12557 1.10312 0
M  V30 2120 C 194.594 -2.16434 0.75424 0
M  V30 2121 C 195.594 -1.59278 -0.220685 0
M  V30 2122 O 196.784 -1.742 0.00230591 0
M  V30 2123 C 193.916 -3.40699 0.116987 0
M  V30 2124 H 195.109 -2.48811 1.67431 0
M  V30 2125 H 192.662 -1.27542 0.903475 0
M  V30 2126 H 193.397 -3.13921 -0.813877 0
M  V30 2127 H 193.182 -3.83459 0.818613 0
M  V30 2128 H 194.672 -4.17451 -0.111387 0
M  V30 2129 N 195.109 -0.891671 -1.2995 0
M  V30 2130 C 196.039 -0.379797 -2.30391 0
M  V30 2131 C 197.02 0.540919 -1.6127 0
M  V30 2132 O 198.205 0.453352 -1.88834 0
M  V30 2133 C 195.335 0.400654 -3.44981 0
M  V30 2134 C 194.289 -0.428905 -4.25846 0
M  V30 2135 C 193.615 0.478557 -5.32554 0
M  V30 2136 C 194.915 -1.67458 -4.94727 0
M  V30 2137 H 196.609 -1.21914 -2.73454 0
M  V30 2138 H 194.155 -0.587675 -1.31462 0
M  V30 2139 H 196.108 0.769434 -4.14316 0
M  V30 2140 H 194.832 1.27371 -3.0074 0
M  V30 2141 H 193.491 -0.779911 -3.58208 0
M  V30 2142 H 193.139 1.34951 -4.84559 0
M  V30 2143 H 192.839 -0.0727433 -5.87555 0
M  V30 2144 H 194.363 0.843705 -6.04743 0
M  V30 2145 H 195.777 -1.376 -5.56542 0
M  V30 2146 H 194.174 -2.16659 -5.59624 0
M  V30 2147 H 195.244 -2.41518 -4.20473 0
M  V30 2148 N 196.587 1.43421 -0.653314 0
M  V30 2149 C 197.535 2.32546 0.0501531 0
M  V30 2150 C 198.529 1.48617 0.812985 0
M  V30 2151 O 199.735 1.64825 0.723375 0
M  V30 2152 H 196.11 0.751185 0.0350032 0
M  V30 2153 H 198.081 2.89602 -0.719261 0
M  V30 2154 C 196.83 3.32925 1.00279 0
M  V30 2155 H 196.153 3.97532 0.425236 0
M  V30 2156 H 197.593 3.9792 1.46409 0
M  V30 2157 C 196.052 2.63532 2.09886 0
M  V30 2158 O 196.582 2.45092 3.18265 0
M  V30 2159 N 194.788 2.22905 1.86445 0
M  V30 2160 H 194.335 2.38103 0.98309 0
M  V30 2161 H 194.293 1.76805 2.59976 0
M  V30 2162 N 198.065 0.39524 1.52563 0
M  V30 2163 C 198.998 -0.4813 2.23067 0
M  V30 2164 C 199.976 -1.05927 1.23362 0
M  V30 2165 O 201.16 -1.10979 1.52368 0
M  V30 2166 C 198.287 -1.66676 2.9485 0
M  V30 2167 C 197.333 -1.21348 4.08873 0
M  V30 2168 S 198.166 -0.190102 5.35162 0
M  V30 2169 C 199.322 -1.38121 6.1047 0
M  V30 2170 H 199.555 0.117381 2.97068 0
M  V30 2171 H 197.088 0.179458 1.53354 0
M  V30 2172 H 199.046 -2.3466 3.36816 0
M  V30 2173 H 197.707 -2.23676 2.20518 0
M  V30 2174 H 196.9 -2.09877 4.58222 0
M  V30 2175 H 196.502 -0.612486 3.68951 0
M  V30 2176 H 198.794 -2.30726 6.37002 0
M  V30 2177 H 199.737 -0.928521 7.01986 0
M  V30 2178 H 200.145 -1.60071 5.41329 0
M  V30 2179 N 199.544 -1.57102 0.125237 0
M  V30 2180 C 200.79 -1.96488 -0.525753 0
M  V30 2181 C 201.145 -1.00786 -1.6389 0
M  V30 2182 O 200.438 -0.038979 -1.9156 0
M  V30 2183 C 200.632 -3.40096 -1.09862 0
M  V30 2184 C 200.461 -4.4968 -0.0425004 0
M  V30 2185 C 199.231 -5.03781 0.391463 0
M  V30 2186 C 201.429 -5.08936 0.740829 0
M  V30 2187 N 199.411 -5.96948 1.4327 0
M  V30 2188 C 200.782 -5.98105 1.6331 0
M  V30 2189 C 202.837 -4.91576 0.791029 0
M  V30 2190 C 201.54 -6.71774 2.57122 0
M  V30 2191 C 203.566 -5.6593 1.71688 0
M  V30 2192 C 202.928 -6.5479 2.59672 0
M  V30 2193 H 199.027 -0.765072 -0.161831 0
M  V30 2194 H 201.611 -1.93511 0.214801 0
M  V30 2195 H 199.782 -3.43707 -1.80887 0
M  V30 2196 H 201.514 -3.66591 -1.71444 0
M  V30 2197 H 198.269 -4.736 -0.00213584 0
M  V30 2198 H 198.693 -6.48236 1.95243 0
M  V30 2199 H 203.335 -4.22615 0.124915 0
M  V30 2200 H 201.053 -7.39977 3.24744 0
M  V30 2201 H 204.639 -5.54501 1.76125 0
M  V30 2202 H 203.519 -7.11316 3.30149 0
M  V30 2203 N 201.022 0.148545 -1.56898 0
M  V30 2204 C 202.27 0.859717 -1.82902 0
M  V30 2205 C 202.591 1.81775 -0.70588 0
M  V30 2206 O 201.861 1.93994 0.272586 0
M  V30 2207 H 200.441 0.320469 -0.674766 0
M  V30 2208 H 203.103 0.142918 -1.94375 0
M  V30 2209 H 202.199 1.4229 -2.77777 0
M  V30 2210 N 202.5 1.5196 0.417844 0
M  V30 2211 C 203.447 1.74678 1.50852 0
M  V30 2212 C 204.417 0.588947 1.55308 0
M  V30 2213 O 205.602 0.825544 1.72016 0
M  V30 2214 C 202.742 1.89544 2.88387 0
M  V30 2215 C 201.855 3.17166 2.93309 0
M  V30 2216 C 200.99 3.22513 4.22088 0
M  V30 2217 C 200.029 4.44372 4.20951 0
M  V30 2218 N 199.166 4.47161 5.41287 0
M  V30 2219 H 204.006 2.67768 1.30783 0
M  V30 2220 H 201.543 1.32689 0.63498 0
M  V30 2221 H 203.501 1.96146 3.68216 0
M  V30 2222 H 202.131 0.998424 3.06971 0
M  V30 2223 H 201.183 3.19778 2.06024 0
M  V30 2224 H 202.495 4.07021 2.88332 0
M  V30 2225 H 201.649 3.28139 5.10303 0
M  V30 2226 H 200.388 2.30581 4.29748 0
M  V30 2227 H 199.393 4.38902 3.31127 0
M  V30 2228 H 200.618 5.3759 4.14938 0
M  V30 2229 H 198.564 3.58108 5.49632 0
M  V30 2230 H 198.481 5.3085 5.3827 0
M  V30 2231 H 199.749 4.57005 6.3148 0
M  V30 2232 N 203.978 -0.674533 1.42435 0
M  V30 2233 C 204.888 -1.81751 1.48337 0
M  V30 2234 C 205.904 -1.69975 0.372099 0
M  V30 2235 O 207.08 -1.91521 0.62304 0
M  V30 2236 C 204.145 -3.17895 1.38361 0
M  V30 2237 C 203.206 -3.41625 2.59982 0
M  V30 2238 C 202.439 -4.71274 2.50473 0
M  V30 2239 O 202.662 -5.49197 1.54075 0
M  V30 2240 O 201.596 -4.96254 3.4061 0
M  V30 2241 H 205.422 -1.79728 2.44809 0
M  V30 2242 H 203.007 -0.830312 1.24202 0
M  V30 2243 H 204.889 -3.99136 1.35161 0
M  V30 2244 H 203.564 -3.20555 0.450144 0
M  V30 2245 H 202.471 -2.60231 2.68757 0
M  V30 2246 H 203.804 -3.43796 3.52229 0
M  V30 2247 N 205.456 -1.28612 -0.910864 0
M  V30 2248 C 206.705 -1.15311 -1.65488 0
M  V30 2249 C 207.018 0.296999 -1.93332 0
M  V30 2250 O 208.224 0.551168 -2.65847 0
M  V30 2251 C 206.68 -2.01599 -2.98137 0
M  V30 2252 C 206.288 -3.51367 -2.7793 0
M  V30 2253 C 208.032 -1.96993 -3.76024 0
M  V30 2254 C 205.939 -4.29797 -4.06237 0
M  V30 2255 H 204.869 -0.42796 -0.620779 0
M  V30 2256 H 207.52 -1.53166 -1.01057 0
M  V30 2257 H 205.902 -1.56603 -3.63719 0
M  V30 2258 H 207.076 -4.0434 -2.21011 0
M  V30 2259 H 205.391 -3.57529 -2.13452 0
M  V30 2260 H 207.988 -2.52856 -4.71135 0
M  V30 2261 H 208.331 -0.94733 -4.05378 0
M  V30 2262 H 208.864 -2.39973 -3.17266 0
M  V30 2263 H 205.603 -5.32648 -3.82055 0
M  V30 2264 H 205.123 -3.81596 -4.62757 0
M  V30 2265 H 206.802 -4.39869 -4.74473 0
M  V30 2266 N 206.934 1.1197 -1.10907 0
M  V30 2267 C 208.345 1.65114 -0.871446 0
M  V30 2268 C 208.696 1.86885 0.597353 0
M  V30 2269 O 207.821 1.59896 1.45816 0
M  V30 2270 C 208.416 2.99944 -1.5754 0
M  V30 2271 C 206.975 3.50018 -1.38435 0
M  V30 2272 C 206.122 2.24941 -1.62164 0
M  V30 2273 H 209.073 0.956851 -1.2661 0
M  V30 2274 H 209.094 3.66651 -1.01721 0
M  V30 2275 H 208.606 2.84067 -2.64438 0
M  V30 2276 H 206.707 3.71071 -0.337214 0
M  V30 2277 H 206.82 4.29165 -2.12965 0
M  V30 2278 H 205.184 2.3229 -1.04467 0
M  V30 2279 H 205.967 2.11612 -2.70324 0
M  V30 2280 N 208.412 0.89855 1.29475 0
M  V30 2281 C 209.342 0.39201 2.30186 0
M  V30 2282 C 210.323 -0.532359 1.61555 0
M  V30 2283 O 211.508 -0.443331 1.89072 0
M  V30 2284 C 208.638 -0.382353 3.45189 0
M  V30 2285 C 207.592 0.451483 4.25612 0
M  V30 2286 C 206.918 -0.450307 5.328 0
M  V30 2287 C 208.218 1.70079 4.93832 0
M  V30 2288 H 209.912 1.23362 2.72804 0
M  V30 2289 H 207.458 0.594638 1.31149 0
M  V30 2290 H 209.411 -0.747451 4.14718 0
M  V30 2291 H 208.135 -1.25774 3.01411 0
M  V30 2292 H 206.794 0.798897 3.57789 0
M  V30 2293 H 206.442 -1.32379 4.85268 0
M  V30 2294 H 206.142 0.103902 5.87508 0
M  V30 2295 H 207.666 -0.811623 6.05182 0
M  V30 2296 H 209.08 1.40549 5.55805 0
M  V30 2297 H 207.477 2.19623 5.58467 0
M  V30 2298 H 208.547 2.43744 4.19186 0
M  V30 2299 N 209.89 -1.43072 0.660911 0
M  V30 2300 C 210.84 -2.27948 -0.04847 0
M  V30 2301 C 211.824 -1.40325 -0.787246 0
M  V30 2302 O 213.016 -1.63893 -0.668446 0
M  V30 2303 C 210.145 -3.28143 -1.00881 0
M  V30 2304 C 209.231 -4.23252 -0.268108 0
M  V30 2305 N 209.622 -5.00656 0.719528 0
M  V30 2306 C 207.92 -4.43092 -0.508493 0
M  V30 2307 C 208.621 -5.70019 1.15988 0
M  V30 2308 N 207.597 -5.41364 0.492584 0
M  V30 2309 H 211.399 -2.85213 0.709279 0
M  V30 2310 H 208.913 -1.54869 0.488822 0
M  V30 2311 H 210.91 -3.87736 -1.53188 0
M  V30 2312 H 209.57 -2.7244 -1.76654 0
M  V30 2313 H 210.581 -5.06115 1.09855 0
M  V30 2314 H 207.258 -3.98449 -1.24679 0
M  V30 2315 H 208.648 -6.4214 1.97751 0
M  V30 2316 N 211.368 -0.403325 -1.52352 0
M  V30 2317 C 212.615 0.174347 -2.01748 0
M  V30 2318 C 212.943 1.45636 -1.2892 0
M  V30 2319 O 212.198 1.9193 -0.382258 0
M  V30 2320 C 212.497 0.474665 -3.54234 0
M  V30 2321 C 212.163 -0.717458 -4.45155 0
M  V30 2322 C 210.825 -1.04447 -4.69728 0
M  V30 2323 C 213.177 -1.51432 -4.98716 0
M  V30 2324 C 210.505 -2.16963 -5.45109 0
M  V30 2325 C 212.857 -2.6302 -5.75329 0
M  V30 2326 C 211.521 -2.96213 -5.98175 0
M  V30 2327 H 210.791 0.0637981 -0.738248 0
M  V30 2328 H 213.438 -0.543553 -1.83624 0
M  V30 2329 H 211.743 1.27406 -3.70506 0
M  V30 2330 H 213.44 0.934496 -3.89959 0
M  V30 2331 H 210.03 -0.452596 -4.26204 0
M  V30 2332 H 214.214 -1.27491 -4.79645 0
M  V30 2333 H 209.47 -2.43034 -5.61021 0
M  V30 2334 H 213.644 -3.25158 -6.15829 0
M  V30 2335 H 211.271 -3.83516 -6.56368 0
M  V30 2336 N 212.846 1.57033 -0.133567 0
M  V30 2337 C 214.262 1.58035 0.222944 0
M  V30 2338 C 214.462 1.14713 1.6566 0
M  V30 2339 O 213.518 0.841218 2.38075 0
M  V30 2340 C 214.831 3.00691 -0.0236116 0
M  V30 2341 C 216.379 3.12973 0.0411512 0
M  V30 2342 C 216.854 4.57654 -0.177899 0
M  V30 2343 N 218.345 4.63033 -0.124365 0
M  V30 2344 C 219.08 5.72771 -0.268553 0
M  V30 2345 N 218.576 6.91206 -0.46972 0
M  V30 2346 N 220.369 5.61718 -0.2071 0
M  V30 2347 H 212.52 1.8349 -1.06981 0
M  V30 2348 H 214.783 0.848677 -0.422436 0
M  V30 2349 H 214.489 3.36726 -1.0153 0
M  V30 2350 H 214.363 3.70614 0.701808 0
M  V30 2351 H 216.75 2.76787 1.02338 0
M  V30 2352 H 216.831 2.45564 -0.716383 0
M  V30 2353 H 216.475 4.94542 -1.15717 0
M  V30 2354 H 216.405 5.23173 0.599797 0
M  V30 2355 H 218.896 3.7789 0.027011 0
M  V30 2356 H 219.209 7.70693 -0.570212 0
M  V30 2357 H 217.554 6.93156 -0.505876 0
M  V30 2358 H 220.745 4.68072 -0.0507986 0
M  V30 2359 H 220.918 6.47195 -0.322909 0
M  V30 2360 N 214.325 -0.140222 1.56975 0
M  V30 2361 C 215.272 -1.17292 1.98774 0
M  V30 2362 C 216.242 -1.4232 0.856408 0
M  V30 2363 O 217.427 -1.54541 1.119 0
M  V30 2364 C 214.567 -2.49973 2.37923 0
M  V30 2365 C 213.68 -2.32062 3.64378 0
M  V30 2366 C 212.815 -3.57825 3.926 0
M  V30 2367 C 211.854 -3.3498 5.12303 0
M  V30 2368 N 210.991 -4.52891 5.36502 0
M  V30 2369 H 215.831 -0.809472 2.86795 0
M  V30 2370 H 213.368 -0.388237 1.41884 0
M  V30 2371 H 215.326 -3.27346 2.58652 0
M  V30 2372 H 213.956 -2.84252 1.52972 0
M  V30 2373 H 213.008 -1.45711 3.51387 0
M  V30 2374 H 214.32 -2.11145 4.51906 0
M  V30 2375 H 213.474 -4.43624 4.13863 0
M  V30 2376 H 212.213 -3.81753 3.03506 0
M  V30 2377 H 211.218 -2.4757 4.90906 0
M  V30 2378 H 212.443 -3.12444 6.02956 0
M  V30 2379 H 210.389 -4.76979 4.50363 0
M  V30 2380 H 210.306 -4.35001 6.18312 0
M  V30 2381 H 211.574 -5.39884 5.62268 0
M  V30 2382 N 215.803 -1.52179 -0.40978 0
M  V30 2383 C 217.049 -1.66453 -1.15851 0
M  V30 2384 C 217.382 -0.392972 -1.90182 0
M  V30 2385 O 216.657 0.608579 -1.84734 0
M  V30 2386 C 216.94 -2.88612 -2.15349 0
M  V30 2387 C 216.793 -4.25815 -1.44918 0
M  V30 2388 C 218.112 -3.06294 -3.16026 0
M  V30 2389 H 215.231 -0.60575 -0.419805 0
M  V30 2390 H 217.873 -1.84732 -0.444314 0
M  V30 2391 H 216.023 -2.73158 -2.76255 0
M  V30 2392 H 217.695 -4.52995 -0.871365 0
M  V30 2393 H 215.938 -4.27247 -0.751159 0
M  V30 2394 H 216.609 -5.07337 -2.17516 0
M  V30 2395 H 219.085 -3.20641 -2.65195 0
M  V30 2396 H 217.961 -3.93283 -3.8291 0
M  V30 2397 H 218.222 -2.19579 -3.83715 0
M  V30 2398 N 217.281 0.66697 -1.42791 0
M  V30 2399 C 218.527 1.4291 -1.43891 0
M  V30 2400 C 218.86 1.94114 -0.0578972 0
M  V30 2401 O 218.135 1.71414 0.91911 0
M  V30 2402 C 218.418 2.62049 -2.46987 0
M  V30 2403 C 218.271 2.16426 -3.94309 0
M  V30 2404 C 219.59 3.64266 -2.46978 0
M  V30 2405 H 216.709 0.518306 -0.523954 0
M  V30 2406 H 219.351 0.757321 -1.74255 0
M  V30 2407 H 217.501 3.19361 -2.21225 0
M  V30 2408 H 219.173 1.64221 -4.31079 0
M  V30 2409 H 217.416 1.47925 -4.078 0
M  V30 2410 H 218.087 3.02038 -4.62036 0
M  V30 2411 H 220.563 3.16686 -2.69906 0
M  V30 2412 H 219.439 4.45196 -3.21079 0
M  V30 2413 H 219.7 4.15927 -1.49857 0
M  V30 2414 N 218.759 1.29093 0.90403 0
M  V30 2415 C 220.005 1.17996 1.65676 0
M  V30 2416 C 220.36 -0.266816 1.90541 0
M  V30 2417 O 219.653 -1.19 1.50165 0
M  V30 2418 C 219.847 1.92224 3.01305 0
M  V30 2419 C 219.676 3.43972 2.89678 0
M  V30 2420 C 218.446 4.1332 2.90679 0
M  V30 2421 C 220.644 4.39546 2.67028 0
M  V30 2422 N 218.626 5.51463 2.69743 0
M  V30 2423 C 219.997 5.65119 2.5503 0
M  V30 2424 C 222.052 4.29359 2.52101 0
M  V30 2425 C 220.755 6.81663 2.29626 0
M  V30 2426 C 222.781 5.4565 2.28079 0
M  V30 2427 C 222.143 6.70193 2.16843 0
M  V30 2428 H 218.242 0.486759 0.612037 0
M  V30 2429 H 220.826 1.62868 1.06688 0
M  V30 2430 H 218.997 1.49773 3.58361 0
M  V30 2431 H 220.729 1.73429 3.65656 0
M  V30 2432 H 217.484 3.64984 3.01801 0
M  V30 2433 H 217.908 6.24105 2.6234 0
M  V30 2434 H 222.55 3.33769 2.59534 0
M  V30 2435 H 220.268 7.77313 2.20932 0
M  V30 2436 H 223.854 5.39664 2.1738 0
M  V30 2437 H 222.734 7.58659 1.98511 0
M  V30 2438 N 220.237 -1.11381 1.11499 0
M  V30 2439 C 221.485 -1.8277 0.862524 0
M  V30 2440 C 221.806 -1.85097 -0.613534 0
M  V30 2441 O 221.076 -1.32198 -1.4457 0
M  V30 2442 H 219.656 -0.676823 0.316101 0
M  V30 2443 H 222.318 -1.34816 1.4075 0
M  V30 2444 H 221.414 -2.86614 1.23527 0
M  V30 2445 N 221.715 -0.905404 -1.28997 0
M  V30 2446 C 222.943 -0.549846 -1.9946 0
M  V30 2447 C 223.358 0.866834 -1.67724 0
M  V30 2448 O 222.715 1.57298 -0.925404 0
M  V30 2449 C 222.766 -0.739387 -3.53858 0
M  V30 2450 O 222.487 -2.10031 -3.84472 0
M  V30 2451 C 223.988 -0.389541 -4.41585 0
M  V30 2452 H 221.208 -0.210429 -0.637151 0
M  V30 2453 H 223.752 -1.21632 -1.64396 0
M  V30 2454 H 221.907 -0.120023 -3.87214 0
M  V30 2455 H 222.321 -2.13385 -4.79132 0
M  V30 2456 H 223.795 -0.572972 -5.49018 0
M  V30 2457 H 224.272 0.673756 -4.34001 0
M  V30 2458 H 224.878 -0.986089 -4.1371 0
M  V30 2459 N 223.193 1.4272 -0.668489 0
M  V30 2460 C 224.156 2.292 0.00448567 0
M  V30 2461 C 225.156 1.43001 0.735339 0
M  V30 2462 O 226.346 1.64461 0.57429 0
M  V30 2463 C 223.478 3.25375 1.01705 0
M  V30 2464 H 224.671 2.90199 -0.756608 0
M  V30 2465 H 222.224 1.50254 -0.430506 0
M  V30 2466 H 222.959 2.69301 1.80686 0
M  V30 2467 H 222.744 3.88944 0.496463 0
M  V30 2468 H 224.234 3.90245 1.48655 0
M  V30 2469 N 224.671 0.411399 1.52136 0
M  V30 2470 C 225.948 -0.222308 1.94333 0
M  V30 2471 C 226.328 -1.6242 1.34844 0
M  V30 2472 O 225.676 -2.22384 0.525145 0
M  V30 2473 C 225.886 -0.226345 3.48265 0
M  V30 2474 C 227.234 -0.444592 4.22266 0
M  V30 2475 O 228.258 -0.305602 3.54887 0
M  V30 2476 O 227.117 -0.718749 5.41753 0
M  V30 2477 H 224.211 -0.143907 0.814383 0
M  V30 2478 H 226.757 0.467506 1.63133 0
M  V30 2479 H 225.529 0.75475 3.83952 0
M  V30 2480 H 225.152 -0.960163 3.85832 0
M  V30 2481 N 226.149 -1.5696 0.141893 0
M  V30 2482 C 227.398 -1.95135 -0.510427 0
M  V30 2483 C 227.711 -1.02896 -1.66348 0
M  V30 2484 O 228.917 -1.30629 -2.38009 0
M  V30 2485 C 227.373 -3.46876 -0.959427 0
M  V30 2486 C 226.981 -4.47691 0.166419 0
M  V30 2487 C 228.725 -3.93927 -1.58183 0
M  V30 2488 C 226.632 -5.90636 -0.300565 0
M  V30 2489 H 225.562 -0.728494 -0.194454 0
M  V30 2490 H 228.213 -1.8211 0.22542 0
M  V30 2491 H 226.595 -3.55215 -1.75038 0
M  V30 2492 H 227.769 -4.51043 0.94325 0
M  V30 2493 H 226.084 -4.10527 0.696905 0
M  V30 2494 H 228.681 -4.98158 -1.94275 0
M  V30 2495 H 229.024 -3.3519 -2.46888 0
M  V30 2496 H 229.557 -3.88484 -0.855863 0
M  V30 2497 H 226.296 -6.5318 0.550989 0
M  V30 2498 H 225.816 -5.90655 -1.04338 0
M  V30 2499 H 227.495 -6.42588 -0.754265 0
M  V30 2500 N 227.627 0.131896 -1.57047 0
M  V30 2501 C 228.56 1.19236 -1.94571 0
M  V30 2502 C 229.538 1.40782 -0.813576 0
M  V30 2503 O 230.722 1.55148 -1.07058 0
M  V30 2504 C 227.849 2.54858 -2.23081 0
M  V30 2505 C 226.895 2.49817 -3.45679 0
M  V30 2506 S 227.728 1.95036 -4.98719 0
M  V30 2507 C 228.884 3.32357 -5.30367 0
M  V30 2508 H 229.117 0.872297 -2.84215 0
M  V30 2509 H 226.65 0.338134 -1.50652 0
M  V30 2510 H 228.608 3.32898 -2.40185 0
M  V30 2511 H 227.269 2.84047 -1.34074 0
M  V30 2512 H 226.462 3.49688 -3.62952 0
M  V30 2513 H 226.064 1.79892 -3.27895 0
M  V30 2514 H 228.356 4.28525 -5.2476 0
M  V30 2515 H 229.299 3.19923 -6.31708 0
M  V30 2516 H 229.707 3.3019 -4.57859 0
M  V30 2517 N 229.106 1.52395 0.401703 0
M  V30 2518 C 230.355 1.66044 1.14509 0
M  V30 2519 C 230.668 0.400216 1.91462 0
M  V30 2520 O 231.874 0.416632 2.68284 0
M  V30 2521 C 230.33 2.93388 2.0845 0
M  V30 2522 C 229.938 4.26545 1.36978 0
M  V30 2523 C 231.682 3.16402 2.83001 0
M  V30 2524 C 229.589 5.45007 2.29611 0
M  V30 2525 H 228.519 0.618562 0.431158 0
M  V30 2526 H 231.17 1.78886 0.40892 0
M  V30 2527 H 229.552 2.74263 2.8565 0
M  V30 2528 H 230.726 4.56179 0.650916 0
M  V30 2529 H 229.041 4.09692 0.74438 0
M  V30 2530 H 231.638 4.02085 3.52465 0
M  V30 2531 H 231.981 2.30943 3.46368 0
M  V30 2532 H 232.514 3.36034 2.12898 0
M  V30 2533 H 229.253 6.32835 1.70879 0
M  V30 2534 H 228.773 5.19702 2.9945 0
M  V30 2535 H 230.452 5.7838 2.89974 0
M  V30 2536 N 230.584 -0.659388 1.43143 0
M  V30 2537 C 231.832 -1.41654 1.44147 0
M  V30 2538 C 232.153 -1.94893 0.0645739 0
M  V30 2539 O 231.423 -1.74044 -0.899198 0
M  V30 2540 H 230.003 -0.525708 0.530697 0
M  V30 2541 H 232.665 -0.778097 1.78694 0
M  V30 2542 H 231.761 -2.26195 2.1504 0
M  V30 2543 N 232.062 -1.29571 -0.897171 0
M  V30 2544 C 233.309 -1.17689 -1.6479 0
M  V30 2545 C 233.637 0.27107 -1.92602 0
M  V30 2546 O 232.892 1.21193 -1.53658 0
M  V30 2547 C 233.191 -1.9382 -3.00281 0
M  V30 2548 C 232.857 -3.43522 -2.92068 0
M  V30 2549 C 231.519 -3.84348 -2.89535 0
M  V30 2550 C 233.871 -4.38906 -2.81089 0
M  V30 2551 C 231.199 -5.18869 -2.73846 0
M  V30 2552 C 233.551 -5.73521 -2.66939 0
M  V30 2553 C 232.215 -6.13601 -2.62774 0
M  V30 2554 H 231.485 -0.430654 -0.603008 0
M  V30 2555 H 234.132 -1.60536 -1.04404 0
M  V30 2556 H 232.437 -1.4357 -3.64547 0
M  V30 2557 H 234.134 -1.82028 -3.57305 0
M  V30 2558 H 230.724 -3.11072 -2.94842 0
M  V30 2559 H 234.908 -4.08315 -2.82121 0
M  V30 2560 H 230.164 -5.4903 -2.69027 0
M  V30 2561 H 234.338 -6.47078 -2.57416 0
M  V30 2562 H 231.965 -7.17786 -2.50375 0
M  V30 2563 N 233.54 1.10788 -1.12088 0
M  V30 2564 C 234.503 2.15207 -0.788577 0
M  V30 2565 C 235.503 1.59609 0.195317 0
M  V30 2566 O 236.693 1.74174 -0.0300193 0
M  V30 2567 C 233.825 3.4047 -0.171174 0
M  V30 2568 H 235.018 2.46116 -1.71368 0
M  V30 2569 H 232.571 1.26089 -0.923652 0
M  V30 2570 H 233.306 3.15176 0.763832 0
M  V30 2571 H 233.091 3.82109 -0.879514 0
M  V30 2572 H 234.581 4.17576 0.04496 0
M  V30 2573 N 235.018 0.912232 1.28515 0
M  V30 2574 C 236.434 0.610159 1.47476 0
M  V30 2575 C 236.634 -0.844955 1.82928 0
M  V30 2576 O 235.69 -1.62416 1.93332 0
M  V30 2577 C 237.003 1.54675 2.57868 0
M  V30 2578 C 238.551 1.55331 2.71738 0
M  V30 2579 C 239.026 2.47649 3.85272 0
M  V30 2580 N 240.517 2.45767 3.92623 0
M  V30 2581 C 241.252 3.13896 4.79851 0
M  V30 2582 N 240.748 3.9135 5.71679 0
M  V30 2583 N 242.541 3.02991 4.73448 0
M  V30 2584 H 234.692 1.85318 1.03783 0
M  V30 2585 H 236.955 0.794777 0.516753 0
M  V30 2586 H 236.661 2.5841 2.38574 0
M  V30 2587 H 236.535 1.27671 3.54937 0
M  V30 2588 H 238.922 0.52335 2.90422 0
M  V30 2589 H 239.003 1.86378 1.75205 0
M  V30 2590 H 238.647 3.50745 3.67342 0
M  V30 2591 H 238.577 2.13904 4.81199 0
M  V30 2592 H 241.068 1.89503 3.26951 0
M  V30 2593 H 241.381 4.40359 6.35062 0
M  V30 2594 H 239.726 3.95455 5.71524 0
M  V30 2595 H 242.917 2.41987 4.007 0
M  V30 2596 H 243.09 3.5636 5.41213 0
M  V30 2597 N 236.496 -1.42363 0.676048 0
M  V30 2598 C 237.744 -2.01123 0.198437 0
M  V30 2599 C 238.065 -1.53731 -1.19966 0
M  V30 2600 O 237.335 -0.759518 -1.80577 0
M  V30 2601 H 235.915 -0.743678 0.0703721 0
M  V30 2602 H 238.577 -1.74263 0.872837 0
M  V30 2603 H 237.673 -3.11454 0.200686 0
M  V30 2604 N 237.974 -0.419461 -1.51915 0
M  V30 2605 C 238.937 0.389116 -2.25873 0
M  V30 2606 C 239.937 0.964924 -1.28631 0
M  V30 2607 O 241.127 0.842179 -1.52489 0
M  V30 2608 C 238.259 1.54874 -3.03689 0
M  V30 2609 H 239.452 -0.258799 -2.98781 0
M  V30 2610 H 237.005 -0.172209 -1.55348 0
M  V30 2611 H 237.74 2.23323 -2.35154 0
M  V30 2612 H 237.525 1.14223 -3.75094 0
M  V30 2613 H 239.015 2.12046 -3.59759 0
M  V30 2614 N 239.452 1.56882 -0.150215 0
M  V30 2615 C 240.402 2.13501 0.800071 0
M  V30 2616 C 241.386 1.06368 1.20726 0
M  V30 2617 O 242.578 1.32538 1.17314 0
M  V30 2618 C 239.707 2.76271 2.03787 0
M  V30 2619 C 238.793 3.90533 1.65364 0
M  V30 2620 N 239.184 4.96259 0.977794 0
M  V30 2621 C 237.482 4.013 1.94613 0
M  V30 2622 C 238.183 5.76286 0.791794 0
M  V30 2623 N 237.159 5.27163 1.32666 0
M  V30 2624 H 240.961 2.92615 0.274517 0
M  V30 2625 H 238.475 1.62319 0.0512144 0
M  V30 2626 H 240.472 3.15197 2.72867 0
M  V30 2627 H 239.132 1.98631 2.56857 0
M  V30 2628 H 240.143 5.13953 0.638193 0
M  V30 2629 H 236.82 3.3474 2.4951 0
M  V30 2630 H 238.21 6.71401 0.258894 0
M  V30 2631 N 240.93 -0.123565 1.57115 0
M  V30 2632 C 242.178 -0.83051 1.84247 0
M  V30 2633 C 242.499 -1.80629 0.73471 0
M  V30 2634 O 241.769 -1.94403 -0.241688 0
M  V30 2635 H 240.349 -0.309694 0.679778 0
M  V30 2636 H 243.011 -0.111976 1.94578 0
M  V30 2637 H 242.107 -1.37852 2.80006 0
M  V30 2638 N 242.408 -1.52605 -0.393616 0
M  V30 2639 C 243.685 -1.58001 -1.15304 0
M  V30 2640 C 244.065 -0.370385 -2.07825 0
M  V30 2641 O 243.413 0.641638 -2.19306 0
M  V30 2642 C 243.623 -2.91652 -1.91677 0
M  V30 2643 C 244.971 -3.4522 -2.47201 0
M  V30 2644 O 245.995 -2.93495 -2.01839 0
M  V30 2645 O 244.854 -4.35579 -3.3005 0
M  V30 2646 H 241.948 -0.637068 -0.527327 0
M  V30 2647 H 244.494 -1.64939 -0.399141 0
M  V30 2648 H 243.266 -3.71136 -1.23992 0
M  V30 2649 H 242.889 -2.88077 -2.74039 0
M  V30 2650 N 243.887 0.651787 -1.4349 0
M  V30 2651 C 245.112 1.44434 -1.48841 0
M  V30 2652 C 245.537 1.8779 -0.107955 0
M  V30 2653 O 244.895 1.57464 0.898602 0
M  V30 2654 C 244.943 2.65458 -2.44059 0
M  V30 2655 O 244.047 3.64566 -1.92784 0
M  V30 2656 H 243.388 0.433005 -0.503391 0
M  V30 2657 H 245.918 0.797451 -1.88419 0
M  V30 2658 H 245.928 3.13255 -2.6141 0
M  V30 2659 H 244.603 2.33244 -3.4434 0
M  V30 2660 H 243.18 3.23716 -1.851 0
M  V30 2661 N 245.365 1.30045 0.890287 0
M  V30 2662 C 246.595 1.21296 1.67245 0
M  V30 2663 C 247.003 -0.227471 1.87828 0
M  V30 2664 O 246.346 -1.16296 1.422 0
M  V30 2665 C 246.408 1.86519 3.07329 0
M  V30 2666 C 246.072 3.35837 3.09939 0
M  V30 2667 C 247.069 4.31915 2.89389 0
M  V30 2668 C 244.754 3.77196 3.31706 0
M  V30 2669 C 246.748 5.67325 2.90552 0
M  V30 2670 C 244.435 5.12725 3.32499 0
M  V30 2671 C 245.433 6.076 3.11947 0
M  V30 2672 O 245.121 7.40655 3.12547 0
M  V30 2673 H 244.853 0.4211 0.528821 0
M  V30 2674 H 247.407 1.72111 1.12103 0
M  V30 2675 H 245.637 1.30228 3.64112 0
M  V30 2676 H 247.326 1.71963 3.67673 0
M  V30 2677 H 248.092 4.01294 2.72375 0
M  V30 2678 H 243.971 3.03796 3.4674 0
M  V30 2679 H 247.515 6.41354 2.74429 0
M  V30 2680 H 243.412 5.42988 3.49047 0
M  V30 2681 H 244.18 7.49577 3.28749 0
M  V30 2682 N 246.843 -1.10192 1.12674 0
M  V30 2683 C 248.254 -1.63707 0.897604 0
M  V30 2684 C 248.605 -1.87812 -0.567546 0
M  V30 2685 O 247.73 -1.62196 -1.43253 0
M  V30 2686 C 248.325 -2.974 1.62292 0
M  V30 2687 C 246.884 -3.47772 1.43986 0
M  V30 2688 C 246.031 -2.22332 1.65722 0
M  V30 2689 H 248.982 -0.936587 1.28116 0
M  V30 2690 H 249.003 -3.64986 1.07541 0
M  V30 2691 H 248.515 -2.79824 2.68924 0
M  V30 2692 H 246.616 -3.70487 0.396206 0
M  V30 2693 H 246.729 -4.25723 2.19765 0
M  V30 2694 H 245.093 -2.30599 1.08149 0
M  V30 2695 H 245.876 -2.07285 2.73657 0
M  V30 2696 N 248.321 -0.919034 -1.28029 0
M  V30 2697 C 249.568 -0.554934 -1.94748 0
M  V30 2698 C 249.896 0.90231 -1.72304 0
M  V30 2699 O 249.151 1.65767 -1.04018 0
M  V30 2700 C 249.45 -0.816855 -3.4794 0
M  V30 2701 C 249.116 -2.25448 -3.90492 0
M  V30 2702 C 247.778 -2.64752 -4.01821 0
M  V30 2703 C 250.13 -3.18977 -4.12193 0
M  V30 2704 C 247.458 -3.96727 -4.32232 0
M  V30 2705 C 249.81 -4.50523 -4.44086 0
M  V30 2706 C 248.474 -4.89673 -4.53626 0
M  V30 2707 H 247.744 -0.203065 -0.712633 0
M  V30 2708 H 250.391 -1.16136 -1.52265 0
M  V30 2709 H 248.696 -0.127677 -3.91592 0
M  V30 2710 H 250.393 -0.514238 -3.97689 0
M  V30 2711 H 246.983 -1.93952 -3.82205 0
M  V30 2712 H 251.167 -2.89817 -4.02889 0
M  V30 2713 H 246.423 -4.26754 -4.37825 0
M  V30 2714 H 250.597 -5.23005 -4.59825 0
M  V30 2715 H 248.224 -5.91969 -4.76946 0
M  V30 2716 N 249.799 1.42003 -0.683588 0
M  V30 2717 C 251.076 1.95112 -0.138075 0
M  V30 2718 C 251.456 1.62359 1.34918 0
M  V30 2719 O 250.804 0.924311 2.08971 0
M  V30 2720 C 251.014 3.46505 -0.416581 0
M  V30 2721 C 252.362 4.23254 -0.337834 0
M  V30 2722 O 253.386 3.54468 -0.35082 0
M  V30 2723 O 252.245 5.45743 -0.287596 0
M  V30 2724 H 249.339 0.826961 -0.00797996 0
M  V30 2725 H 251.885 1.51784 -0.758924 0
M  V30 2726 H 250.657 3.63582 -1.4465 0
M  V30 2727 H 250.28 3.969 0.235839 0
M  V30 2728 N 251.277 0.427512 1.51691 0
M  V30 2729 C 252.525 -0.141948 2.01601 0
M  V30 2730 C 252.846 -1.44067 1.31414 0
M  V30 2731 O 252.116 -1.90763 0.445658 0
M  V30 2732 H 250.696 -0.0554468 0.744939 0
M  V30 2733 H 253.358 0.567968 1.86441 0
M  V30 2734 H 252.454 -0.324913 3.10404 0
M  V30 2735 N 252.755 -1.56801 0.158532 0
M  V30 2736 C 254.166 -1.83189 -0.360366 0
M  V30 2737 C 254.517 -1.07778 -1.63946 0
M  V30 2738 O 253.642 -0.326718 -2.13919 0
M  V30 2739 C 254.237 -3.32297 -0.660595 0
M  V30 2740 C 252.796 -3.59227 -1.12398 0
M  V30 2741 C 251.943 -2.76877 -0.153097 0
M  V30 2742 H 254.894 -1.54008 0.383031 0
M  V30 2743 H 254.915 -3.4908 -1.51405 0
M  V30 2744 H 254.427 -3.87156 0.270527 0
M  V30 2745 H 252.528 -3.09766 -2.07064 0
M  V30 2746 H 252.641 -4.67632 -1.04197 0
M  V30 2747 H 251.005 -2.46319 -0.647983 0
M  V30 2748 H 251.788 -3.34511 0.77182 0
M  V30 2749 N 254.233 0.115231 -1.57178 0
M  V30 2750 C 255.481 0.820727 -1.84685 0
M  V30 2751 C 255.802 1.80237 -0.744279 0
M  V30 2752 O 255.072 1.94529 0.231375 0
M  V30 2753 H 253.652 0.306084 -0.681411 0
M  V30 2754 H 256.314 0.101656 -1.94635 0
M  V30 2755 H 255.41 1.36366 -2.80733 0
M  V30 2756 N 255.711 1.52812 0.385517 0
M  V30 2757 C 256.659 1.78482 1.49155 0
M  V30 2758 C 257.653 0.652914 1.56312 0
M  V30 2759 O 258.859 0.835464 1.59436 0
M  V30 2760 H 255.234 0.5648 0.496493 0
M  V30 2761 H 257.205 2.71095 1.24699 0
M  V30 2762 C 255.954 1.97378 2.86247 0
M  V30 2763 H 255.277 2.83907 2.81491 0
M  V30 2764 H 256.717 2.19327 3.62866 0
M  V30 2765 C 255.176 0.74728 3.28508 0
M  V30 2766 O 255.706 -0.0736232 4.01633 0
M  V30 2767 N 253.912 0.576396 2.84826 0
M  V30 2768 H 253.459 1.24555 2.25486 0
M  V30 2769 H 253.417 -0.24288 3.1346 0
M  V30 2770 N 257.189 -0.644168 1.43834 0
M  V30 2771 C 258.417 -1.43147 1.49387 0
M  V30 2772 C 258.832 -1.88452 0.114583 0
M  V30 2773 O 258.189 -1.60047 -0.876989 0
M  V30 2774 C 258.24 -2.66046 2.44748 0
M  V30 2775 O 257.961 -2.22633 3.77314 0
M  V30 2776 C 259.462 -3.59311 2.59635 0
M  V30 2777 H 256.682 -0.439447 0.507077 0
M  V30 2778 H 259.226 -0.78895 1.88669 0
M  V30 2779 H 257.381 -3.26418 2.08638 0
M  V30 2780 H 257.795 -3.02216 4.28679 0
M  V30 2781 H 259.269 -4.42187 3.30416 0
M  V30 2782 H 259.746 -4.07259 1.64427 0
M  V30 2783 H 260.352 -3.04816 2.96593 0
M  V30 2784 N 258.668 -1.30515 -0.883378 0
M  V30 2785 C 259.598 -1.19607 -2.00541 0
M  V30 2786 C 260.579 -0.086346 -1.69881 0
M  V30 2787 O 261.764 -0.268654 -1.92333 0
M  V30 2788 C 258.894 -0.888758 -3.35736 0
M  V30 2789 C 257.848 -1.95659 -3.8066 0
M  V30 2790 C 257.174 -1.50224 -5.13164 0
M  V30 2791 C 258.474 -3.36788 -3.99213 0
M  V30 2792 H 260.168 -2.13476 -2.09925 0
M  V30 2793 H 257.714 -1.02775 -1.00863 0
M  V30 2794 H 259.667 -0.799094 -4.13754 0
M  V30 2795 H 258.391 0.0856125 -3.26488 0
M  V30 2796 H 257.05 -2.03591 -3.04871 0
M  V30 2797 H 256.698 -0.516092 -5.00345 0
M  V30 2798 H 256.398 -2.2165 -5.44192 0
M  V30 2799 H 257.922 -1.42639 -5.93706 0
M  V30 2800 H 259.336 -3.31605 -4.67665 0
M  V30 2801 H 257.733 -4.06314 -4.41621 0
M  V30 2802 H 258.803 -3.78561 -3.03017 0
M  V30 2803 N 260.146 1.09593 -1.13257 0
M  V30 2804 C 261.109 2.14359 -0.811358 0
M  V30 2805 C 262.109 1.59808 0.178377 0
M  V30 2806 O 263.299 1.74132 -0.0484911 0
M  V30 2807 C 260.431 3.40269 -0.207276 0
M  V30 2808 H 261.624 2.44284 -1.73969 0
M  V30 2809 H 259.177 1.25102 -0.936973 0
M  V30 2810 H 259.912 3.15969 0.73036 0
M  V30 2811 H 259.697 3.81154 -0.919992 0
M  V30 2812 H 261.187 4.176 0.000667944 0
M  V30 2813 N 261.624 0.925811 1.2754 0
M  V30 2814 C 262.574 0.394488 2.24561 0
M  V30 2815 C 263.558 -0.500183 1.52928 0
M  V30 2816 O 264.75 -0.337936 1.73744 0
M  V30 2817 C 261.879 -0.353328 3.41477 0
M  V30 2818 C 260.965 0.557752 4.20416 0
M  V30 2819 N 261.356 1.67674 4.77199 0
M  V30 2820 C 259.654 0.360404 4.44541 0
M  V30 2821 C 260.355 2.24324 5.36706 0
M  V30 2822 N 259.331 1.53305 5.21535 0
M  V30 2823 H 263.133 1.2489 2.66045 0
M  V30 2824 H 260.647 0.779864 1.4245 0
M  V30 2825 H 262.644 -0.7509 4.10082 0
M  V30 2826 H 261.304 -1.20469 3.01525 0
M  V30 2827 H 262.315 2.05915 4.75204 0
M  V30 2828 H 258.992 -0.450454 4.15063 0
M  V30 2829 H 260.382 3.18521 5.91603 0
M  V30 2830 N 263.102 -1.41638 0.69111 0
M  V30 2831 C 264.065 -2.29178 0.0319786 0
M  V30 2832 C 265.065 -1.44153 -0.712496 0
M  V30 2833 O 266.255 -1.65354 -0.548053 0
M  V30 2834 C 263.387 -3.26952 -0.965161 0
M  V30 2835 H 264.58 -2.88959 0.802681 0
M  V30 2836 H 262.133 -1.4955 0.454356 0
M  V30 2837 H 262.868 -2.72142 -1.76378 0
M  V30 2838 H 262.653 -3.89685 -0.434522 0
M  V30 2839 H 264.143 -3.92561 -1.42428 0
M  V30 2840 N 264.58 -0.43555 -1.51462 0
M  V30 2841 C 265.827 0.131514 -2.02072 0
M  V30 2842 C 266.155 1.42868 -1.31981 0
M  V30 2843 O 265.41 1.91076 -0.422883 0
M  V30 2844 C 265.709 0.39942 -3.55161 0
M  V30 2845 C 265.375 -0.81172 -4.43533 0
M  V30 2846 C 264.037 -1.14387 -4.67407 0
M  V30 2847 C 266.389 -1.61976 -4.95392 0
M  V30 2848 C 263.717 -2.28477 -5.40384 0
M  V30 2849 C 266.069 -2.75164 -5.6962 0
M  V30 2850 C 264.733 -3.08835 -5.91758 0
M  V30 2851 H 264.003 0.0481244 -0.739436 0
M  V30 2852 H 266.65 -0.58238 -1.8243 0
M  V30 2853 H 264.955 1.19519 -3.73125 0
M  V30 2854 H 266.652 0.85157 -3.91854 0
M  V30 2855 H 263.242 -0.542898 -4.25148 0
M  V30 2856 H 267.426 -1.37637 -4.76833 0
M  V30 2857 H 262.682 -2.5488 -5.55739 0
M  V30 2858 H 266.856 -3.38147 -6.08793 0
M  V30 2859 H 264.483 -3.97353 -6.48086 0
M  V30 2860 N 266.058 1.56714 -0.166846 0
M  V30 2861 C 267.021 2.16539 0.751232 0
M  V30 2862 C 268.021 1.11228 1.16125 0
M  V30 2863 O 269.211 1.36765 1.07894 0
M  V30 2864 C 266.343 2.74462 2.02196 0
M  V30 2865 H 267.536 2.99013 0.230499 0
M  V30 2866 H 265.089 1.56081 0.0826982 0
M  V30 2867 H 265.824 1.95709 2.58589 0
M  V30 2868 H 265.609 3.51527 1.73698 0
M  V30 2869 H 267.099 3.20489 2.67725 0
M  V30 2870 N 267.536 -0.106894 1.57237 0
M  V30 2871 C 268.947 -0.662723 1.74542 0
M  V30 2872 C 269.298 -1.7971 0.787319 0
M  V30 2873 O 268.423 -2.16368 -0.0369636 0
M  V30 2874 C 269.018 -1.20896 3.16496 0
M  V30 2875 C 267.577 -1.71096 3.35266 0
M  V30 2876 C 266.724 -0.615642 2.7038 0
M  V30 2877 H 269.675 0.119106 1.58252 0
M  V30 2878 H 269.696 -2.07847 3.18716 0
M  V30 2879 H 269.208 -0.383122 3.86204 0
M  V30 2880 H 267.309 -2.56119 2.70618 0
M  V30 2881 H 267.422 -1.81208 4.43509 0
M  V30 2882 H 265.786 -1.05222 2.31949 0
M  V30 2883 H 266.569 0.199419 3.4272 0
M  V30 2884 N 269.014 -1.53014 -0.377408 0
M  V30 2885 C 270.262 -1.6829 -1.11906 0
M  V30 2886 C 270.583 -0.431206 -1.90173 0
M  V30 2887 O 269.853 0.554595 -1.87886 0
M  V30 2888 H 268.433 -0.620371 -0.416112 0
M  V30 2889 H 271.095 -1.90167 -0.426893 0
M  V30 2890 H 270.191 -2.53862 -1.8155 0
M  V30 2891 N 270.492 0.636531 -1.44174 0
M  V30 2892 C 271.72 1.42353 -1.50144 0
M  V30 2893 C 272.135 1.88389 -0.124575 0
M  V30 2894 O 271.492 1.6051 0.868489 0
M  V30 2895 C 271.543 2.64744 -2.46156 0
M  V30 2896 O 271.264 2.20629 -3.7849 0
M  V30 2897 C 272.765 3.57929 -2.61537 0
M  V30 2898 H 269.985 0.436752 -0.5094 0
M  V30 2899 H 272.529 0.778933 -1.89084 0
M  V30 2900 H 270.684 3.25307 -2.10366 0
M  V30 2901 H 271.098 2.99938 -4.30276 0
M  V30 2902 H 272.572 4.40428 -3.32757 0
M  V30 2903 H 273.049 4.06382 -1.66585 0
M  V30 2904 H 273.655 3.03238 -2.98206 0
M  V30 2905 N 271.97 1.30982 0.876444 0
M  V30 2906 C 273.218 1.20058 1.62575 0
M  V30 2907 C 273.539 -0.242947 1.93481 0
M  V30 2908 O 272.809 -1.1619 1.57724 0
M  V30 2909 H 271.389 0.44135 0.602677 0
M  V30 2910 H 274.051 1.64222 1.04962 0
M  V30 2911 H 273.147 1.76762 2.57219 0
M  V30 2912 N 273.449 -1.08991 1.13837 0
M  V30 2913 C 274.379 -2.17771 0.842507 0
M  V30 2914 C 275.36 -1.6892 -0.20001 0
M  V30 2915 O 276.545 -1.94113 -0.0579731 0
M  V30 2916 C 273.675 -3.4589 0.312644 0
M  V30 2917 C 272.629 -4.08099 1.28992 0
M  V30 2918 C 271.955 -5.31098 0.619623 0
M  V30 2919 C 273.255 -4.50077 2.65005 0
M  V30 2920 H 274.949 -2.42777 1.75213 0
M  V30 2921 H 272.495 -1.16682 0.843875 0
M  V30 2922 H 274.448 -4.21297 0.0933043 0
M  V30 2923 H 273.172 -3.20419 -0.632382 0
M  V30 2924 H 271.831 -3.34717 1.49533 0
M  V30 2925 H 271.479 -5.0191 -0.33102 0
M  V30 2926 H 271.179 -5.73674 1.27167 0
M  V30 2927 H 272.703 -6.09224 0.409669 0
M  V30 2928 H 274.117 -5.16688 2.48407 0
M  V30 2929 H 272.514 -5.03553 3.26427 0
M  V30 2930 H 273.584 -3.62257 3.22332 0
M  V30 2931 N 274.927 -0.932562 -1.27047 0
M  V30 2932 C 276.175 -0.574422 -1.93765 0
M  V30 2933 C 276.496 0.887993 -1.73608 0
M  V30 2934 O 275.766 1.62999 -1.08665 0
M  V30 2935 H 274.346 -0.209451 -0.717035 0
M  V30 2936 H 277.008 -1.18601 -1.5466 0
M  V30 2937 H 276.104 -0.784841 -3.02071 0
M  V30 2938 N 276.405 1.4127 -0.698611 0
M  V30 2939 C 277.653 2.00782 -0.230409 0
M  V30 2940 C 277.974 1.5562 1.17505 0
M  V30 2941 O 277.244 0.78815 1.79346 0
M  V30 2942 H 275.824 0.742464 -0.0821944 0
M  V30 2943 H 278.486 1.72852 -0.90045 0
M  V30 2944 H 277.582 3.11095 -0.25021 0
M  V30 2945 N 277.883 0.443576 1.51229 0
M  V30 2946 C 279.16 -0.181038 1.9476 0
M  V30 2947 C 279.54 -1.59523 1.38259 0
M  V30 2948 O 278.888 -2.2122 0.572198 0
M  V30 2949 C 279.098 -0.152422 3.48667 0
M  V30 2950 C 280.446 -0.354923 4.23114 0
M  V30 2951 O 281.47 -0.230257 3.55455 0
M  V30 2952 O 280.329 -0.603674 5.43156 0
M  V30 2953 H 277.423 -0.1266 0.817252 0
M  V30 2954 H 279.969 0.502004 1.62105 0
M  V30 2955 H 278.741 0.836022 3.82265 0
M  V30 2956 H 278.364 -0.878107 3.87782 0
M  V30 2957 N 279.361 -1.56624 0.175154 0
M  V30 2958 C 280.324 -2.16934 -0.739738 0
M  V30 2959 C 281.324 -1.11842 -1.15533 0
M  V30 2960 O 282.514 -1.37335 -1.07167 0
M  V30 2961 C 279.646 -2.75531 -2.00738 0
M  V30 2962 H 280.839 -2.99131 -0.214639 0
M  V30 2963 H 278.392 -1.56123 -0.0744197 0
M  V30 2964 H 279.127 -1.97078 -2.57548 0
M  V30 2965 H 278.912 -3.52444 -1.71831 0
M  V30 2966 H 280.402 -3.21904 -2.66021 0
M  V30 2967 N 280.839 0.0985539 -1.57292 0
M  V30 2968 C 281.789 1.1261 -1.9825 0
M  V30 2969 C 282.773 1.35961 -0.860426 0
M  V30 2970 O 283.965 1.36711 -1.12424 0
M  V30 2971 C 281.094 2.44727 -2.40757 0
M  V30 2972 C 280.18 2.24764 -3.59642 0
M  V30 2973 N 280.571 1.74661 -4.74687 0
M  V30 2974 C 278.869 2.55344 -3.65672 0
M  V30 2975 C 279.57 1.68887 -5.56644 0
M  V30 2976 N 278.546 2.13976 -4.99715 0
M  V30 2977 H 282.348 0.731604 -2.84648 0
M  V30 2978 H 279.862 0.306029 -1.59491 0
M  V30 2979 H 281.859 3.19072 -2.68326 0
M  V30 2980 H 280.519 2.84917 -1.55733 0
M  V30 2981 H 281.53 1.43908 -4.97505 0
M  V30 2982 H 278.207 2.99081 -2.91302 0
M  V30 2983 H 279.597 1.3123 -6.5896 0
M  V30 2984 N 282.317 1.53212 0.369288 0
M  V30 2985 C 283.564 1.69215 1.11232 0
M  V30 2986 C 283.892 0.442048 1.8941 0
M  V30 2987 O 283.147 -0.575944 1.87033 0
M  V30 2988 C 283.446 2.89101 2.10132 0
M  V30 2989 C 283.112 4.25758 1.48463 0
M  V30 2990 C 281.774 4.6292 1.31372 0
M  V30 2991 C 284.126 5.10757 1.03811 0
M  V30 2992 C 281.454 5.82722 0.68207 0
M  V30 2993 C 283.806 6.31201 0.420487 0
M  V30 2994 C 282.47 6.67079 0.237038 0
M  V30 2995 H 281.74 0.619201 0.407027 0
M  V30 2996 H 284.387 1.87391 0.394552 0
M  V30 2997 H 282.692 2.65421 2.88199 0
M  V30 2998 H 284.389 2.98676 2.6757 0
M  V30 2999 H 280.979 3.96494 1.62758 0
M  V30 3000 H 285.163 4.82599 1.1581 0
M  V30 3001 H 280.419 6.09113 0.528316 0
M  V30 3002 H 284.593 6.96368 0.0662874 0
M  V30 3003 H 282.22 7.59774 -0.254477 0
M  V30 3004 N 283.795 -0.628877 1.44509 0
M  V30 3005 C 285.072 -1.38733 1.37886 0
M  V30 3006 C 285.452 -2.11065 0.0387008 0
M  V30 3007 O 284.8 -2.06476 -0.97878 0
M  V30 3008 C 285.01 -2.35188 2.57852 0
M  V30 3009 C 286.358 -2.9845 3.02014 0
M  V30 3010 O 287.382 -2.45513 2.58073 0
M  V30 3011 O 286.241 -3.94487 3.78209 0
M  V30 3012 H 283.335 -0.621015 0.54614 0
M  V30 3013 H 285.881 -0.653744 1.56602 0
M  V30 3014 H 284.653 -1.80855 3.46998 0
M  V30 3015 H 284.276 -3.1596 2.4136 0
M  V30 3016 N 285.273 -1.31445 -0.869486 0
M  V30 3017 C 286.183 -1.21097 -2.0093 0
M  V30 3018 C 287.199 -0.127584 -1.73532 0
M  V30 3019 O 288.375 -0.345477 -1.98415 0
M  V30 3020 C 285.44 -0.919378 -3.34288 0
M  V30 3021 C 284.501 -2.08971 -3.75006 0
M  V30 3022 C 283.734 -1.81194 -5.02001 0
M  V30 3023 O 283.957 -0.747296 -5.65484 0
M  V30 3024 O 282.891 -2.66883 -5.39497 0
M  V30 3025 H 286.717 -2.16883 -2.12592 0
M  V30 3026 H 284.302 -1.11189 -0.997868 0
M  V30 3027 H 286.184 -0.772625 -4.14257 0
M  V30 3028 H 284.859 0.00844772 -3.23699 0
M  V30 3029 H 283.766 -2.29187 -2.95676 0
M  V30 3030 H 285.099 -2.9998 -3.90221 0
M  V30 3031 N 286.751 1.08385 -1.14413 0
M  V30 3032 C 288.028 1.77429 -0.823297 0
M  V30 3033 C 288.408 1.9974 0.683163 0
M  V30 3034 O 287.756 1.60739 1.62405 0
M  V30 3035 C 287.966 3.09004 -1.62227 0
M  V30 3036 C 289.314 3.83532 -1.82177 0
M  V30 3037 O 290.338 3.18786 -1.58915 0
M  V30 3038 O 289.197 4.99792 -2.21067 0
M  V30 3039 H 286.291 0.769999 -0.301712 0
M  V30 3040 H 288.837 1.14846 -1.24934 0
M  V30 3041 H 287.609 2.88316 -2.64555 0
M  V30 3042 H 287.232 3.79316 -1.19187 0
M  V30 3043 N 288.23 0.939286 1.26551 0
M  V30 3044 C 289.14 0.453432 2.30176 0
M  V30 3045 C 290.156 -0.471649 1.67486 0
M  V30 3046 O 291.332 -0.35164 1.98306 0
M  V30 3047 C 288.397 -0.275326 3.45605 0
M  V30 3048 C 287.458 0.686084 4.23782 0
M  V30 3049 C 286.691 -0.00798994 5.33699 0
M  V30 3050 O 286.914 -1.22528 5.57085 0
M  V30 3051 O 285.848 0.669746 5.98162 0
M  V30 3052 H 289.674 1.31416 2.73795 0
M  V30 3053 H 287.259 0.705095 1.31715 0
M  V30 3054 H 289.141 -0.685911 4.1578 0
M  V30 3055 H 287.816 -1.11147 3.0402 0
M  V30 3056 H 286.723 1.14658 3.56096 0
M  V30 3057 H 288.056 1.48979 4.69112 0
M  V30 3058 N 289.708 -1.40897 0.706093 0
M  V30 3059 C 291.124 -1.55042 0.37869 0
M  V30 3060 C 291.324 -1.67944 -1.11342 0
M  V30 3061 O 290.38 -1.66372 -1.89938 0
M  V30 3062 C 291.693 -2.78398 1.13643 0
M  V30 3063 C 293.241 -2.92206 1.12181 0
M  V30 3064 C 293.716 -4.18463 1.86152 0
M  V30 3065 N 295.207 -4.25443 1.83173 0
M  V30 3066 C 295.942 -5.2202 2.37239 0
M  V30 3067 N 295.438 -6.24563 2.99821 0
M  V30 3068 N 297.231 -5.14033 2.27435 0
M  V30 3069 H 289.382 -1.30769 1.67372 0
M  V30 3070 H 291.645 -0.631653 0.706907 0
M  V30 3071 H 291.351 -2.7511 2.19106 0
M  V30 3072 H 291.225 -3.70228 0.721853 0
M  V30 3073 H 293.612 -2.95004 0.0754171 0
M  V30 3074 H 293.693 -2.01521 1.57554 0
M  V30 3075 H 293.337 -4.16427 2.90776 0
M  V30 3076 H 293.267 -5.08141 1.38206 0
M  V30 3077 H 295.758 -3.51976 1.37556 0
M  V30 3078 H 296.071 -6.94665 3.38616 0
M  V30 3079 H 294.416 -6.25035 3.03902 0
M  V30 3080 H 297.607 -4.3285 1.78208 0
M  V30 3081 H 297.78 -5.89129 2.69873 0
M  V30 3082 N 291.186 -0.45159 -1.50991 0
M  V30 3083 C 292.432 0.102439 -2.03142 0
M  V30 3084 C 292.787 1.39138 -1.32884 0
M  V30 3085 O 292.08 1.86493 -0.439438 0
M  V30 3086 C 292.274 0.361728 -3.55565 0
M  V30 3087 C 292.103 -0.900535 -4.40591 0
M  V30 3088 C 290.873 -1.43821 -4.844 0
M  V30 3089 C 293.071 -1.79063 -4.82121 0
M  V30 3090 N 291.053 -2.65153 -5.53685 0
M  V30 3091 C 292.424 -2.84991 -5.50618 0
M  V30 3092 C 294.479 -1.80334 -4.64095 0
M  V30 3093 C 293.182 -3.92155 -6.02998 0
M  V30 3094 C 295.208 -2.86442 -5.17402 0
M  V30 3095 C 294.57 -3.9109 -5.85857 0
M  V30 3096 H 290.669 -0.00204537 -0.781997 0
M  V30 3097 H 293.253 -0.615446 -1.84717 0
M  V30 3098 H 291.424 1.04865 -3.73976 0
M  V30 3099 H 293.156 0.908372 -3.94374 0
M  V30 3100 H 289.911 -0.990117 -4.63135 0
M  V30 3101 H 290.335 -3.26717 -5.92946 0
M  V30 3102 H 294.977 -1.00753 -4.1062 0
M  V30 3103 H 292.695 -4.72565 -6.55521 0
M  V30 3104 H 296.281 -2.88386 -5.05297 0
M  V30 3105 H 295.161 -4.71845 -6.26364 0
M  V30 3106 N 292.664 1.56529 -0.183458 0
M  V30 3107 C 293.892 2.01623 0.464285 0
M  V30 3108 C 294.307 1.06366 1.55986 0
M  V30 3109 O 293.664 0.0665398 1.82379 0
M  V30 3110 C 293.715 3.46475 1.03139 0
M  V30 3111 O 293.436 4.38095 -0.0204675 0
M  V30 3112 C 294.937 4.0703 1.75617 0
M  V30 3113 H 292.157 0.660596 0.117704 0
M  V30 3114 H 294.701 2.02451 -0.288751 0
M  V30 3115 H 292.856 3.46383 1.73486 0
M  V30 3116 H 293.27 5.22973 0.399952 0
M  V30 3117 H 294.744 5.10271 2.10542 0
M  V30 3118 H 295.221 3.49819 2.65563 0
M  V30 3119 H 295.827 4.1086 1.09882 0
M  V30 3120 N 294.142 -0.090211 1.57342 0
M  V30 3121 C 295.419 -0.824761 1.77361 0
M  V30 3122 C 295.799 -1.96698 0.76637 0
M  V30 3123 O 295.147 -2.27586 -0.204179 0
M  V30 3124 C 295.357 -1.31481 3.23286 0
M  V30 3125 C 296.705 -1.75563 3.86604 0
M  V30 3126 O 297.729 -1.41093 3.27065 0
M  V30 3127 O 296.588 -2.39317 4.91314 0
M  V30 3128 H 293.682 -0.393776 0.727234 0
M  V30 3129 H 296.228 -0.0717138 1.69548 0
M  V30 3130 H 295 -0.496671 3.88135 0
M  V30 3131 H 294.623 -2.12973 3.35751 0
M  V30 3132 N 295.62 -1.53406 -0.361157 0
M  V30 3133 C 296.868 -1.69467 -1.10115 0
M  V30 3134 C 297.189 -0.451352 -1.89705 0
M  V30 3135 O 296.459 0.534636 -1.88463 0
M  V30 3136 H 295.039 -0.624749 -0.409508 0
M  V30 3137 H 297.701 -1.90609 -0.406699 0
M  V30 3138 H 296.797 -2.55774 -1.78847 0
M  V30 3139 N 297.098 0.621204 -1.44841 0
M  V30 3140 C 298.323 1.41244 -1.51871 0
M  V30 3141 C 298.748 1.87519 -0.147764 0
M  V30 3142 O 298.106 1.59334 0.865 0
M  V30 3143 C 298.154 2.60221 -2.49634 0
M  V30 3144 O 297.258 3.60395 -2.00473 0
M  V30 3145 H 296.599 0.42223 -0.512463 0
M  V30 3146 H 299.129 0.757305 -1.90069 0
M  V30 3147 H 299.139 3.0764 -2.67996 0
M  V30 3148 H 297.814 2.25887 -3.4921 0
M  V30 3149 H 296.391 3.19717 -1.91925 0
M  V30 3150 N 298.576 1.31904 0.862503 0
M  V30 3151 C 299.801 1.25135 1.65397 0
M  V30 3152 C 300.226 -0.179 1.87246 0
M  V30 3153 O 299.584 -1.1277 1.4196 0
M  V30 3154 C 299.632 2.00832 2.99498 0
M  V30 3155 O 298.736 1.35075 3.89652 0
M  V30 3156 H 298.077 0.431655 0.504549 0
M  V30 3157 H 300.607 1.74094 1.07483 0
M  V30 3158 H 300.617 2.10709 3.49379 0
M  V30 3159 H 299.292 3.04847 2.82916 0
M  V30 3160 H 297.869 1.33696 3.48109 0
M  V30 3161 N 300.054 -1.07777 1.14986 0
M  V30 3162 C 300.984 -2.16865 0.865557 0
M  V30 3163 C 301.965 -1.69123 -0.182083 0
M  V30 3164 O 303.15 -1.94164 -0.0373815 0
M  V30 3165 C 300.28 -3.45539 0.349313 0
M  V30 3166 C 299.234 -4.06708 1.33313 0
M  V30 3167 C 298.56 -5.30411 0.675918 0
M  V30 3168 C 299.86 -4.47241 2.69764 0
M  V30 3169 H 301.554 -2.40905 1.77778 0
M  V30 3170 H 299.1 -1.15781 0.856203 0
M  V30 3171 H 301.053 -4.21174 0.137983 0
M  V30 3172 H 299.777 -3.21072 -0.598362 0
M  V30 3173 H 298.436 -3.33112 1.53075 0
M  V30 3174 H 298.084 -5.02232 -0.277767 0
M  V30 3175 H 297.784 -5.72293 1.33244 0
M  V30 3176 H 299.308 -6.08755 0.474262 0
M  V30 3177 H 300.722 -5.14025 2.53873 0
M  V30 3178 H 299.119 -5.00062 3.3175 0
M  V30 3179 H 300.189 -3.58818 3.26156 0
M  V30 3180 N 301.532 -0.945985 -1.26051 0
M  V30 3181 C 302.78 -0.594941 -1.93145 0
M  V30 3182 C 303.101 0.86953 -1.7454 0
M  V30 3183 O 302.371 1.61838 -1.10387 0
M  V30 3184 H 300.951 -0.217044 -0.714773 0
M  V30 3185 H 303.613 -1.20235 -1.53393 0
M  V30 3186 H 302.709 -0.816835 -3.01221 0
M  V30 3187 N 303.011 1.40521 -0.713556 0
M  V30 3188 C 304.26 2.00155 -0.249192 0
M  V30 3189 C 304.573 1.57224 1.16362 0
M  V30 3190 O 305.779 2.09542 1.72639 0
M  V30 3191 C 304.235 3.5773 -0.3946 0
M  V30 3192 C 303.843 4.09635 -1.81392 0
M  V30 3193 C 305.587 4.24499 0.00907364 0
M  V30 3194 C 303.494 5.59707 -1.91003 0
M  V30 3195 H 302.424 0.74868 -0.0894114 0
M  V30 3196 H 305.075 1.60784 -0.884352 0
M  V30 3197 H 303.457 3.94792 0.30911 0
M  V30 3198 H 304.631 3.83955 -2.54785 0
M  V30 3199 H 302.946 3.55456 -2.16888 0
M  V30 3200 H 305.543 5.34683 -0.0420404 0
M  V30 3201 H 305.886 4.02824 1.05065 0
M  V30 3202 H 306.419 3.92536 -0.645007 0
M  V30 3203 H 303.158 5.86234 -2.93275 0
M  V30 3204 H 302.678 5.87258 -1.22019 0
M  V30 3205 H 304.357 6.24776 -1.6812 0
M  V30 3206 N 304.489 0.459591 1.5075 0
M  V30 3207 C 305.437 -0.354678 2.2988 0
M  V30 3208 C 306.431 -1.00086 1.36672 0
M  V30 3209 O 307.637 -0.933277 1.53915 0
M  V30 3210 H 304.012 -0.13321 0.740107 0
M  V30 3211 H 305.983 0.333269 2.96533 0
M  V30 3212 C 304.732 -1.43073 3.169 0
M  V30 3213 H 304.055 -0.942882 3.88523 0
M  V30 3214 H 305.495 -1.97328 3.75284 0
M  V30 3215 C 303.954 -2.42633 2.33732 0
M  V30 3216 O 304.484 -3.47658 2.01238 0
M  V30 3217 N 302.69 -2.14066 1.9653 0
M  V30 3218 H 302.237 -1.28685 2.23155 0
M  V30 3219 H 302.195 -2.80917 1.41185 0
M  V30 3220 N 305.967 -1.56429 0.191757 0
M  V30 3221 C 307.214 -1.97485 -0.447891 0
M  V30 3222 C 307.542 -1.07852 -1.61859 0
M  V30 3223 O 306.797 -0.116903 -1.95351 0
M  V30 3224 C 307.096 -3.44449 -0.953384 0
M  V30 3225 C 306.762 -4.50781 0.103586 0
M  V30 3226 C 305.424 -4.79584 0.394023 0
M  V30 3227 C 307.776 -5.1471 0.819946 0
M  V30 3228 C 305.104 -5.69607 1.40585 0
M  V30 3229 C 307.456 -6.05827 1.8209 0
M  V30 3230 C 306.12 -6.32987 2.11857 0
M  V30 3231 H 305.39 -0.722648 -0.163895 0
M  V30 3232 H 308.037 -1.89322 0.28802 0
M  V30 3233 H 306.342 -3.49666 -1.76751 0
M  V30 3234 H 308.039 -3.73569 -1.45765 0
M  V30 3235 H 304.629 -4.28394 -0.132951 0
M  V30 3236 H 308.813 -4.92552 0.608789 0
M  V30 3237 H 304.069 -5.88926 1.64243 0
M  V30 3238 H 308.243 -6.54424 2.38123 0
M  V30 3239 H 305.87 -7.02544 2.90407 0
M  V30 3240 N 307.445 0.0818655 -1.57387 0
M  V30 3241 C 308.375 1.09885 -2.06028 0
M  V30 3242 C 309.356 1.4098 -0.951774 0
M  V30 3243 O 310.541 1.50781 -1.22387 0
M  V30 3244 C 307.671 2.4151 -2.4958 0
M  V30 3245 C 306.625 2.24792 -3.64215 0
M  V30 3246 C 305.951 3.61712 -3.93787 0
M  V30 3247 C 307.251 1.67749 -4.94629 0
M  V30 3248 H 308.945 0.694128 -2.91243 0
M  V30 3249 H 306.491 0.332448 -1.4011 0
M  V30 3250 H 308.444 3.12939 -2.82219 0
M  V30 3251 H 307.168 2.83943 -1.61381 0
M  V30 3252 H 305.827 1.55807 -3.31843 0
M  V30 3253 H 305.475 4.01697 -3.02735 0
M  V30 3254 H 305.175 3.51368 -4.70971 0
M  V30 3255 H 306.699 4.34587 -4.28913 0
M  V30 3256 H 308.113 2.29032 -5.25564 0
M  V30 3257 H 306.51 1.68128 -5.76067 0
M  V30 3258 H 307.58 0.638059 -4.80684 0
M  V30 3259 N 308.923 1.53595 0.353017 0
M  V30 3260 C 310.153 1.74058 1.11299 0
M  V30 3261 C 310.561 0.475205 1.83135 0
M  V30 3262 O 309.904 -0.562344 1.74881 0
M  V30 3263 C 309.966 2.85994 2.17825 0
M  V30 3264 C 309.63 4.25923 1.65647 0
M  V30 3265 C 310.627 5.07829 1.11383 0
M  V30 3266 C 308.312 4.72377 1.7078 0
M  V30 3267 C 310.306 6.34285 0.629439 0
M  V30 3268 C 307.993 5.98808 1.21953 0
M  V30 3269 C 308.991 6.79594 0.681265 0
M  V30 3270 O 308.679 8.03651 0.200248 0
M  V30 3271 H 308.411 0.585327 0.338183 0
M  V30 3272 H 310.965 2.01186 0.413927 0
M  V30 3273 H 309.195 2.54368 2.91262 0
M  V30 3274 H 310.884 2.94515 2.79313 0
M  V30 3275 H 311.65 4.73107 1.06746 0
M  V30 3276 H 307.529 4.0956 2.11617 0
M  V30 3277 H 311.073 6.97288 0.208636 0
M  V30 3278 H 306.97 6.33026 1.26287 0
M  V30 3279 H 307.738 8.1788 0.318416 0
M  V30 3280 N 310.401 -0.613514 1.45168 0
M  V30 3281 C 311.364 -1.7065 1.53007 0
M  V30 3282 C 312.364 -1.5548 0.410184 0
M  V30 3283 O 313.554 -1.60656 0.673455 0
M  V30 3284 C 310.686 -3.09875 1.42093 0
M  V30 3285 H 311.879 -1.65068 2.50385 0
M  V30 3286 H 309.432 -0.828728 1.32521 0
M  V30 3287 H 310.167 -3.21039 0.458769 0
M  V30 3288 H 309.952 -3.22293 2.23315 0
M  V30 3289 H 311.442 -3.895 1.50598 0
M  V30 3290 N 311.879 -1.3236 -0.855495 0
M  V30 3291 C 312.842 -1.21164 -1.94556 0
M  V30 3292 C 313.842 -0.134908 -1.60233 0
M  V30 3293 O 315.032 -0.385249 -1.69887 0
M  V30 3294 C 312.164 -0.863192 -3.29791 0
M  V30 3295 H 313.357 -2.18038 -2.05911 0
M  V30 3296 H 310.91 -1.16179 -1.04557 0
M  V30 3297 H 311.645 0.103769 -3.24134 0
M  V30 3298 H 311.43 -1.64166 -3.56078 0
M  V30 3299 H 312.92 -0.809156 -4.09686 0
M  V30 3300 N 313.357 1.07166 -1.15556 0
M  V30 3301 C 314.585 1.83514 -0.955519 0
M  V30 3302 C 315 1.82163 0.49621 0
M  V30 3303 O 314.357 1.23441 1.34419 0
M  V30 3304 C 314.408 3.30515 -1.46432 0
M  V30 3305 O 314.129 3.31937 -2.85918 0
M  V30 3306 C 315.63 4.23625 -1.30603 0
M  V30 3307 H 312.85 0.578926 -0.339244 0
M  V30 3308 H 315.394 1.35265 -1.53374 0
M  V30 3309 H 313.549 3.76106 -0.928584 0
M  V30 3310 H 313.963 4.23794 -3.09029 0
M  V30 3311 H 315.437 5.24831 -1.71047 0
M  V30 3312 H 315.914 4.38485 -0.250441 0
M  V30 3313 H 316.52 3.83871 -1.83094 0
M  V30 3314 N 314.835 0.952656 1.25548 0
M  V30 3315 C 315.785 0.442033 2.23674 0
M  V30 3316 C 316.769 -0.467632 1.53955 0
M  V30 3317 O 317.961 -0.301006 1.74422 0
M  V30 3318 C 315.09 -0.280816 3.4215 0
M  V30 3319 C 314.176 0.646803 4.19139 0
M  V30 3320 N 314.567 1.77759 4.73535 0
M  V30 3321 C 312.865 0.454617 4.43677 0
M  V30 3322 C 313.566 2.35658 5.31827 0
M  V30 3323 N 312.542 1.64333 5.18166 0
M  V30 3324 H 316.344 1.30505 2.63336 0
M  V30 3325 H 313.858 0.809904 1.40763 0
M  V30 3326 H 315.855 -0.663747 4.11582 0
M  V30 3327 H 314.515 -1.14046 3.04012 0
M  V30 3328 H 315.526 2.15949 4.7073 0
M  V30 3329 H 312.203 -0.362312 4.15925 0
M  V30 3330 H 313.593 3.30998 5.84713 0
M  V30 3331 N 316.313 -1.40141 0.720998 0
M  V30 3332 C 317.223 -2.34486 0.0731031 0
M  V30 3333 C 318.239 -1.57587 -0.737723 0
M  V30 3334 O 319.415 -1.89949 -0.669429 0
M  V30 3335 C 316.48 -3.36528 -0.833656 0
M  V30 3336 C 315.541 -4.29298 -0.0121673 0
M  V30 3337 C 314.774 -5.26466 -0.875742 0
M  V30 3338 O 314.997 -5.29745 -2.11485 0
M  V30 3339 O 313.931 -6.01092 -0.31185 0
M  V30 3340 H 317.757 -2.9152 0.851444 0
M  V30 3341 H 315.342 -1.41427 0.481527 0
M  V30 3342 H 317.224 -3.99093 -1.35289 0
M  V30 3343 H 315.899 -2.81899 -1.59105 0
M  V30 3344 H 314.806 -3.70001 0.552262 0
M  V30 3345 H 316.139 -4.87094 0.707129 0
M  V30 3346 N 317.792 -0.46758 -1.50504 0
M  V30 3347 C 318.722 0.318381 -2.31319 0
M  V30 3348 C 319.703 0.993564 -1.38066 0
M  V30 3349 O 320.888 0.991411 -1.66987 0
M  V30 3350 C 318.018 1.40275 -3.17711 0
M  V30 3351 C 316.972 0.849373 -4.19487 0
M  V30 3352 C 316.298 2.03177 -4.94594 0
M  V30 3353 C 317.598 -0.136942 -5.2212 0
M  V30 3354 H 319.292 -0.356106 -2.97275 0
M  V30 3355 H 316.838 -0.172703 -1.42961 0
M  V30 3356 H 318.791 1.96004 -3.73042 0
M  V30 3357 H 317.515 2.10596 -2.49634 0
M  V30 3358 H 316.174 0.314076 -3.65252 0
M  V30 3359 H 315.822 2.72187 -4.22993 0
M  V30 3360 H 315.522 1.66774 -5.63436 0
M  V30 3361 H 317.046 2.59403 -5.52759 0
M  V30 3362 H 318.46 0.331056 -5.72343 0
M  V30 3363 H 316.857 -0.41507 -5.98663 0
M  V30 3364 H 317.927 -1.06398 -4.73083 0
M  V30 3365 N 319.27 1.56325 -0.20005 0
M  V30 3366 C 320.518 1.97329 0.436547 0
M  V30 3367 C 320.839 1.08826 1.61808 0
M  V30 3368 O 320.109 0.160604 1.95241 0
M  V30 3369 H 318.689 0.728714 0.164272 0
M  V30 3370 H 321.351 1.92761 -0.287937 0
M  V30 3371 H 320.447 3.02264 0.777353 0
M  V30 3372 N 320.748 -0.0735177 1.57428 0
M  V30 3373 C 321.698 -1.09442 2.00016 0
M  V30 3374 C 322.682 -1.34575 0.881947 0
M  V30 3375 O 323.874 -1.34905 1.14585 0
M  V30 3376 C 321.003 -2.40865 2.4462 0
M  V30 3377 C 320.089 -2.19014 3.63172 0
M  V30 3378 N 320.48 -1.67087 4.77405 0
M  V30 3379 C 318.778 -2.49494 3.69688 0
M  V30 3380 C 319.479 -1.6001 5.5926 0
M  V30 3381 N 318.455 -2.05999 5.03056 0
M  V30 3382 H 322.257 -0.686227 2.85776 0
M  V30 3383 H 319.771 -0.280617 1.59957 0
M  V30 3384 H 321.768 -3.14763 2.73368 0
M  V30 3385 H 320.428 -2.82403 1.60246 0
M  V30 3386 H 321.439 -1.35975 4.99731 0
M  V30 3387 H 318.116 -2.94409 2.96023 0
M  V30 3388 H 319.506 -1.2073 6.60964 0
M  V30 3389 N 322.226 -1.5378 -0.344866 0
M  V30 3390 C 323.451 -1.75211 -1.10977 0
M  V30 3391 C 323.876 -0.48936 -1.81623 0
M  V30 3392 O 323.234 0.557925 -1.72502 0
M  V30 3393 C 323.282 -2.93147 -2.09993 0
M  V30 3394 O 322.386 -2.63203 -3.17487 0
M  V30 3395 H 321.727 -0.581241 -0.321021 0
M  V30 3396 H 324.257 -2.00738 -0.395661 0
M  V30 3397 H 324.267 -3.19898 -2.53237 0
M  V30 3398 H 322.942 -3.84731 -1.5797 0
M  V30 3399 H 321.519 -2.47336 -2.79069 0
M  V30 3400 N 323.704 0.605807 -1.45491 0
M  V30 3401 C 324.634 1.72709 -1.57143 0
M  V30 3402 C 325.615 1.6476 -0.422884 0
M  V30 3403 O 326.8 1.83132 -0.646247 0
M  V30 3404 C 323.93 3.11316 -1.53948 0
M  V30 3405 C 322.884 3.34077 -2.67537 0
M  V30 3406 C 322.21 4.72975 -2.49397 0
M  V30 3407 C 323.51 3.24158 -4.09535 0
M  V30 3408 H 325.204 1.63214 -2.51001 0
M  V30 3409 H 322.75 0.78379 -1.208 0
M  V30 3410 H 324.703 3.89557 -1.60696 0
M  V30 3411 H 323.427 3.21655 -0.566205 0
M  V30 3412 H 322.086 2.58227 -2.6022 0
M  V30 3413 H 321.734 4.8005 -1.50205 0
M  V30 3414 H 321.434 4.8916 -3.25571 0
M  V30 3415 H 322.958 5.53414 -2.58002 0
M  V30 3416 H 324.372 3.92271 -4.18086 0
M  V30 3417 H 322.769 3.51872 -4.86113 0
M  V30 3418 H 323.839 2.2157 -4.31317 0
M  V30 3419 N 325.182 1.32811 0.848464 0
M  V30 3420 C 326.43 1.23479 1.59991 0
M  V30 3421 C 326.751 -0.201853 1.93952 0
M  V30 3422 O 326.021 -1.12818 1.60153 0
M  V30 3423 H 324.601 0.454034 0.593179 0
M  V30 3424 H 327.263 1.66412 1.01455 0
M  V30 3425 H 326.359 1.82178 2.53412 0
M  V30 3426 N 326.66 -1.06551 1.16123 0
M  V30 3427 C 327.593 -2.13382 0.80892 0
M  V30 3428 C 328.571 -1.61128 -0.21827 0
M  V30 3429 O 329.755 -1.88219 -0.102952 0
M  V30 3430 C 326.882 -3.38083 0.204303 0
M  V30 3431 C 325.928 -4.09133 1.20469 0
M  V30 3432 S 326.761 -4.5948 2.75024 0
M  V30 3433 C 327.917 -5.87446 2.16005 0
M  V30 3434 H 328.15 -2.42937 1.71373 0
M  V30 3435 H 325.683 -1.18947 0.984428 0
M  V30 3436 H 327.641 -4.10268 -0.138081 0
M  V30 3437 H 326.302 -3.0669 -0.678234 0
M  V30 3438 H 325.495 -4.98685 0.730019 0
M  V30 3439 H 325.097 -3.4295 1.49202 0
M  V30 3440 H 327.389 -6.60065 1.5271 0
M  V30 3441 H 328.332 -6.39639 3.03756 0
M  V30 3442 H 328.74 -5.41354 1.59989 0
M  V30 3443 N 328.138 -0.959301 -1.25041 0
M  V30 3444 C 329.386 -0.615393 -1.92503 0
M  V30 3445 C 329.707 0.850969 -1.75452 0
M  V30 3446 O 328.977 1.60658 -1.12098 0
M  V30 3447 H 327.557 -0.224613 -0.712431 0
M  V30 3448 H 330.219 -1.21855 -1.5211 0
M  V30 3449 H 329.315 -0.848738 -3.00338 0
M  V30 3450 N 329.616 1.39756 -0.72842 0
M  V30 3451 C 330.566 2.2792 -0.0603424 0
M  V30 3452 C 331.55 1.43922 0.719399 0
M  V30 3453 O 332.742 1.66895 0.589489 0
M  V30 3454 C 329.871 3.32582 0.851104 0
M  V30 3455 C 328.957 4.24049 0.0658641 0
M  V30 3456 N 329.348 4.96653 -0.957578 0
M  V30 3457 C 327.646 4.45013 0.296509 0
M  V30 3458 C 328.347 5.63836 -1.43052 0
M  V30 3459 N 327.323 5.38397 -0.750315 0
M  V30 3460 H 331.125 2.81504 -0.84455 0
M  V30 3461 H 328.639 1.5236 -0.562155 0
M  V30 3462 H 330.636 3.94603 1.34514 0
M  V30 3463 H 329.296 2.80558 1.63454 0
M  V30 3464 H 330.307 5.00297 -1.33877 0
M  V30 3465 H 326.984 4.03943 1.05527 0
M  V30 3466 H 328.374 6.31974 -2.28163 0
M  V30 3467 N 331.094 0.475555 1.50254 0
M  V30 3468 C 332.319 -0.0777042 2.07254 0
M  V30 3469 C 332.744 -1.3235 1.3366 0
M  V30 3470 O 332.102 -1.77152 0.385597 0
M  V30 3471 C 332.15 -0.340169 3.58992 0
M  V30 3472 O 331.254 -1.41982 3.87188 0
M  V30 3473 H 330.595 0.0149556 0.663832 0
M  V30 3474 H 333.125 0.667878 1.93392 0
M  V30 3475 H 333.135 -0.579332 4.03866 0
M  V30 3476 H 331.81 0.570167 4.11973 0
M  V30 3477 H 330.387 -1.16762 3.54148 0
M  V30 3478 N 332.573 -1.56217 0.208337 0
M  V30 3479 C 333.798 -2.02782 -0.435222 0
M  V30 3480 C 334.223 -1.08738 -1.53485 0
M  V30 3481 O 333.581 -0.0731855 -1.81152 0
M  V30 3482 C 333.629 -3.47687 -0.956335 0
M  V30 3483 O 332.733 -3.56773 -2.06849 0
M  V30 3484 H 332.074 -0.656403 -0.100158 0
M  V30 3485 H 334.604 -2.02033 0.3231 0
M  V30 3486 H 334.614 -3.87745 -1.26955 0
M  V30 3487 H 333.289 -4.15624 -0.15143 0
M  V30 3488 H 331.866 -3.28597 -1.76292 0
M  V30 3489 N 334.051 0.0651679 -1.57465 0
M  V30 3490 C 335.328 0.79644 -1.78651 0
M  V30 3491 C 335.708 1.95454 -0.797566 0
M  V30 3492 O 335.056 2.27882 0.167946 0
M  V30 3493 C 335.266 1.26322 -3.25337 0
M  V30 3494 C 336.614 1.6939 -3.89348 0
M  V30 3495 O 337.638 1.35872 -3.29268 0
M  V30 3496 O 336.497 2.31471 -4.95059 0
M  V30 3497 H 333.591 0.382157 -0.733407 0
M  V30 3498 H 336.137 0.0447311 -1.69641 0
M  V30 3499 H 334.909 0.434859 -3.88876 0
M  V30 3500 H 334.532 2.07604 -3.39096 0
M  V30 3501 N 335.529 1.53961 0.336706 0
M  V30 3502 C 336.94 1.62914 0.911925 0
M  V30 3503 C 337.291 0.514795 1.89326 0
M  V30 3504 O 336.416 -0.354395 2.13478 0
M  V30 3505 C 337.011 2.95304 1.66076 0
M  V30 3506 C 335.57 3.06496 2.18489 0
M  V30 3507 C 334.717 2.58403 1.00613 0
M  V30 3508 H 337.668 1.58285 0.114649 0
M  V30 3509 H 337.689 2.84727 2.5241 0
M  V30 3510 H 337.201 3.76387 0.946276 0
M  V30 3511 H 335.302 2.3006 2.93092 0
M  V30 3512 H 335.415 4.1208 2.44391 0
M  V30 3513 H 333.779 2.13977 1.38152 0
M  V30 3514 H 334.562 3.41932 0.306179 0
M  V30 3515 N 337.007 -0.598083 1.45811 0
M  V30 3516 C 337.955 -1.72932 1.55555 0
M  V30 3517 C 338.949 -1.63984 0.424921 0
M  V30 3518 O 340.155 -1.69663 0.601205 0
M  V30 3519 H 336.53 -0.571489 0.488779 0
M  V30 3520 H 338.501 -1.61842 2.50699 0
M  V30 3521 C 337.25 -3.11318 1.54843 0
M  V30 3522 H 336.573 -3.18867 2.41172 0
M  V30 3523 H 338.013 -3.90274 1.65717 0
M  V30 3524 C 336.472 -3.3578 0.274427 0
M  V30 3525 O 337.002 -3.9654 -0.641778 0
M  V30 3526 N 335.208 -2.90119 0.167139 0
M  V30 3527 H 334.755 -2.40855 0.913596 0
M  V30 3528 H 334.713 -3.0686 -0.684435 0
M  V30 3529 N 338.485 -1.33259 -0.841409 0
M  V30 3530 C 339.448 -1.23221 -1.9326 0
M  V30 3531 C 340.448 -0.151895 -1.60081 0
M  V30 3532 O 341.638 -0.403246 -1.69468 0
M  V30 3533 C 338.77 -0.898123 -3.28856 0
M  V30 3534 H 339.963 -2.2021 -2.03587 0
M  V30 3535 H 337.516 -1.17281 -1.03319 0
M  V30 3536 H 338.251 0.0693841 -3.24226 0
M  V30 3537 H 338.036 -1.67934 -3.54317 0
M  V30 3538 H 339.526 -0.852563 -4.08805 0
M  V30 3539 N 339.963 1.05934 -1.16686 0
M  V30 3540 C 341.209 1.79065 -0.95203 0
M  V30 3541 C 341.542 1.87147 0.518629 0
M  V30 3542 O 340.817 1.36574 1.38484 0
M  V30 3543 C 341.1 3.23359 -1.58464 0
M  V30 3544 C 340.953 3.23336 -3.12689 0
M  V30 3545 C 342.272 4.21004 -1.28232 0
M  V30 3546 H 339.391 0.65005 -0.34728 0
M  V30 3547 H 342.033 1.23868 -1.44072 0
M  V30 3548 H 340.183 3.70493 -1.16908 0
M  V30 3549 H 341.855 2.84336 -3.6325 0
M  V30 3550 H 340.098 2.61886 -3.4583 0
M  V30 3551 H 340.769 4.25144 -3.52075 0
M  V30 3552 H 343.245 3.8233 -1.64203 0
M  V30 3553 H 342.121 5.20225 -1.75092 0
M  V30 3554 H 342.382 4.41639 -0.201791 0
M  V30 3555 N 341.441 0.965919 1.2453 0
M  V30 3556 C 342.374 0.4393 2.23932 0
M  V30 3557 C 343.352 -0.485615 1.55179 0
M  V30 3558 O 344.536 -0.417402 1.83821 0
M  V30 3559 C 341.663 -0.366042 3.36716 0
M  V30 3560 C 340.709 0.5009 4.23548 0
M  V30 3561 S 341.542 1.94002 4.99123 0
M  V30 3562 C 342.698 1.14342 6.15367 0
M  V30 3563 H 342.931 1.28167 2.68254 0
M  V30 3564 H 340.464 0.770819 1.33782 0
M  V30 3565 H 342.422 -0.824724 4.0213 0
M  V30 3566 H 341.083 -1.18337 2.90956 0
M  V30 3567 H 340.276 -0.117341 5.03863 0
M  V30 3568 H 339.878 0.89524 3.63127 0
M  V30 3569 H 342.17 0.397572 6.76332 0
M  V30 3570 H 343.113 1.92089 6.81548 0
M  V30 3571 H 343.521 0.668579 5.60527 0
M  V30 3572 N 342.919 -1.39368 0.735821 0
M  V30 3573 C 344.149 -2.04498 0.293967 0
M  V30 3574 C 344.557 -1.55593 -1.07645 0
M  V30 3575 O 343.9 -0.716324 -1.69158 0
M  V30 3576 C 343.962 -3.58836 0.218342 0
M  V30 3577 C 343.626 -4.30721 1.52736 0
M  V30 3578 C 344.623 -4.57305 2.47322 0
M  V30 3579 C 342.308 -4.69251 1.79189 0
M  V30 3580 C 344.302 -5.21429 3.66593 0
M  V30 3581 C 341.989 -5.33104 2.98737 0
M  V30 3582 C 342.987 -5.59125 3.9226 0
M  V30 3583 O 342.675 -6.21653 5.09708 0
M  V30 3584 H 342.407 -0.664118 0.126189 0
M  V30 3585 H 344.961 -1.79385 1.00051 0
M  V30 3586 H 343.191 -3.8285 -0.544314 0
M  V30 3587 H 344.88 -4.05447 -0.191626 0
M  V30 3588 H 345.646 -4.27983 2.28156 0
M  V30 3589 H 341.525 -4.48354 1.07239 0
M  V30 3590 H 345.069 -5.41656 4.39607 0
M  V30 3591 H 340.966 -5.61846 3.17803 0
M  V30 3592 H 341.734 -6.40146 5.10054 0
M  V30 3593 N 344.397 -0.483516 -1.5 0
M  V30 3594 C 345.808 -0.0314176 -1.86674 0
M  V30 3595 C 346.159 1.37728 -1.39733 0
M  V30 3596 O 345.284 2.02327 -0.767635 0
M  V30 3597 C 345.879 -0.0502376 -3.38763 0
M  V30 3598 C 344.438 0.346442 -3.74802 0
M  V30 3599 C 343.585 -0.430366 -2.7394 0
M  V30 3600 H 346.536 -0.697182 -1.42566 0
M  V30 3601 H 346.557 0.749116 -3.73053 0
M  V30 3602 H 346.069 -1.07563 -3.72897 0
M  V30 3603 H 344.17 1.37572 -3.46273 0
M  V30 3604 H 344.283 0.0391486 -4.79084 0
M  V30 3605 H 342.647 0.117557 -2.54429 0
M  V30 3606 H 343.43 -1.4555 -3.10918 0
M  V30 3607 N 345.875 1.56104 -0.216619 0
M  V30 3608 C 347.103 2.02563 0.421413 0
M  V30 3609 C 347.518 1.0965 1.53695 0
M  V30 3610 O 346.875 0.10521 1.82196 0
M  V30 3611 C 346.926 3.48584 0.957665 0
M  V30 3612 O 346.647 4.37953 -0.113389 0
M  V30 3613 C 348.148 4.10664 1.66943 0
M  V30 3614 H 345.368 0.662944 0.103665 0
M  V30 3615 H 347.912 2.01793 -0.331629 0
M  V30 3616 H 346.067 3.49985 1.661 0
M  V30 3617 H 346.481 5.23704 0.288932 0
M  V30 3618 H 347.955 5.14622 1.99671 0
M  V30 3619 H 348.432 3.55373 2.58083 0
M  V30 3620 H 349.038 4.13098 1.01142 0
M  V30 3621 N 347.353 -0.0568162 1.57498 0
M  V30 3622 C 348.583 -0.764515 1.91934 0
M  V30 3623 C 348.991 -1.70877 0.81227 0
M  V30 3624 O 348.334 -1.82351 -0.222213 0
M  V30 3625 C 348.396 -1.5994 3.21962 0
M  V30 3626 C 348.06 -0.822925 4.4953 0
M  V30 3627 C 349.057 -0.135464 5.19723 0
M  V30 3628 C 346.742 -0.785666 4.96117 0
M  V30 3629 C 348.736 0.578861 6.34766 0
M  V30 3630 C 346.423 -0.0675784 6.11063 0
M  V30 3631 C 347.421 0.613471 6.80239 0
M  V30 3632 O 347.109 1.31996 7.92989 0
M  V30 3633 H 346.841 -0.221647 0.63863 0
M  V30 3634 H 349.395 -0.0268218 2.05382 0
M  V30 3635 H 347.625 -2.38026 3.04763 0
M  V30 3636 H 349.314 -2.18715 3.41934 0
M  V30 3637 H 350.08 -0.155458 4.84751 0
M  V30 3638 H 345.959 -1.30524 4.42136 0
M  V30 3639 H 349.503 1.111 6.88696 0
M  V30 3640 H 345.4 -0.0455636 6.45484 0
M  V30 3641 H 346.168 1.23077 8.09194 0
M  V30 3642 N 348.832 -1.54138 -0.328536 0
M  V30 3643 C 350.08 -1.71765 -1.06496 0
M  V30 3644 C 350.401 -0.49149 -1.88704 0
M  V30 3645 O 349.671 0.494539 -1.89555 0
M  V30 3646 H 348.251 -0.633295 -0.396164 0
M  V30 3647 H 350.913 -1.91429 -0.366176 0
M  V30 3648 H 350.009 -2.5951 -1.73381 0
M  V30 3649 N 350.31 0.590341 -1.46126 0
M  V30 3650 C 351.258 1.72105 -1.5647 0
M  V30 3651 C 352.252 1.63756 -0.433612 0
M  V30 3652 O 353.458 1.69342 -0.610194 0
M  V30 3653 H 349.833 0.568889 -0.491802 0
M  V30 3654 H 351.804 1.6051 -2.51553 0
M  V30 3655 C 350.553 3.10493 -1.56491 0
M  V30 3656 H 349.876 3.17583 -2.4286 0
M  V30 3657 H 351.316 3.8939 -1.67785 0
M  V30 3658 C 349.775 3.3563 -0.292231 0
M  V30 3659 O 350.305 3.96875 0.620739 0
M  V30 3660 N 348.511 2.90026 -0.182523 0
M  V30 3661 H 348.058 2.40367 -0.926356 0
M  V30 3662 H 348.016 3.07218 0.668152 0
M  V30 3663 N 351.788 1.33704 0.83433 0
M  V30 3664 C 353.036 1.25169 1.58673 0
M  V30 3665 C 353.357 -0.18127 1.94156 0
M  V30 3666 O 352.627 -1.11113 1.6134 0
M  V30 3667 H 351.207 0.4603 0.58833 0
M  V30 3668 H 353.869 1.67478 0.996847 0
M  V30 3669 H 352.965 1.84856 2.51465 0
M  V30 3670 N 353.266 -1.05314 1.17247 0
M  V30 3671 C 354.543 -1.75184 0.87005 0
M  V30 3672 C 354.923 -2.01481 -0.629965 0
M  V30 3673 O 354.271 -1.64988 -1.58086 0
M  V30 3674 C 354.481 -3.04594 1.70363 0
M  V30 3675 C 355.829 -3.78567 1.92281 0
M  V30 3676 O 356.853 -3.14461 1.67311 0
M  V30 3677 O 355.712 -4.93755 2.3424 0
M  V30 3678 H 352.806 -0.761729 0.322021 0
M  V30 3679 H 355.352 -1.11493 1.27935 0
M  V30 3680 H 354.124 -2.81201 2.72106 0
M  V30 3681 H 353.747 -3.76022 1.29202 0
M  V30 3682 N 354.744 -0.972509 -1.24016 0
M  V30 3683 C 356.155 -0.67517 -1.74064 0
M  V30 3684 C 356.506 0.808939 -1.78747 0
M  V30 3685 O 355.631 1.63286 -1.42009 0
M  V30 3686 C 356.226 -1.21889 -3.16115 0
M  V30 3687 C 354.785 -0.971358 -3.6365 0
M  V30 3688 C 353.932 -1.35134 -2.42145 0
M  V30 3689 H 356.883 -1.14727 -1.09651 0
M  V30 3690 H 356.904 -0.587489 -3.75937 0
M  V30 3691 H 356.416 -2.29906 -3.12674 0
M  V30 3692 H 354.517 0.0930686 -3.72484 0
M  V30 3693 H 354.63 -1.62039 -4.50866 0
M  V30 3694 H 352.994 -0.769751 -2.4279 0
M  V30 3695 H 353.777 -2.4411 -2.41381 0
M  V30 3696 N 356.222 1.38976 -0.743202 0
M  V30 3697 C 357.154 2.29096 -0.0689228 0
M  V30 3698 C 358.167 1.47229 0.694791 0
M  V30 3699 O 359.356 1.70212 0.537597 0
M  V30 3700 C 356.456 3.25988 0.926548 0
M  V30 3701 C 355.629 4.36833 0.222647 0
M  V30 3702 C 354.688 5.13981 1.12739 0
M  V30 3703 O 353.714 5.6601 0.601795 0
M  V30 3704 N 354.916 5.25966 2.45641 0
M  V30 3705 H 357.681 2.87604 -0.842846 0
M  V30 3706 H 355.242 1.50645 -0.593109 0
M  V30 3707 H 357.234 3.74476 1.5346 0
M  V30 3708 H 355.804 2.68453 1.60162 0
M  V30 3709 H 355.024 3.90116 -0.565983 0
M  V30 3710 H 356.312 5.0811 -0.264841 0
M  V30 3711 H 355.71 4.85228 2.9081 0
M  V30 3712 H 354.267 5.77865 3.01522 0
M  V30 3713 N 357.7 0.491464 1.49741 0
M  V30 3714 C 358.648 -0.305837 2.30581 0
M  V30 3715 C 359.642 -0.971642 1.38764 0
M  V30 3716 O 360.848 -0.90042 1.5586 0
M  V30 3717 H 357.223 -0.117482 0.742767 0
M  V30 3718 H 359.194 0.396093 2.95759 0
M  V30 3719 C 357.943 -1.36319 3.19863 0
M  V30 3720 H 357.266 -0.860258 3.90435 0
M  V30 3721 H 358.706 -1.89323 3.79385 0
M  V30 3722 C 357.165 -2.37621 2.38826 0
M  V30 3723 O 357.695 -3.43311 2.08567 0
M  V30 3724 N 355.901 -2.09849 2.01026 0
M  V30 3725 H 355.448 -1.23922 2.25834 0
M  V30 3726 H 355.406 -2.77859 1.47112 0
M  V30 3727 N 359.178 -1.55987 0.224894 0
M  V30 3728 C 360.425 -1.9839 -0.4059 0
M  V30 3729 C 360.753 -1.11261 -1.59535 0
M  V30 3730 O 360.008 -0.158314 -1.95059 0
M  V30 3731 C 360.307 -3.46394 -0.880106 0
M  V30 3732 C 359.973 -4.5046 0.19918 0
M  V30 3733 C 358.635 -4.7864 0.495661 0
M  V30 3734 C 360.987 -5.12855 0.928939 0
M  V30 3735 C 358.315 -5.66497 1.52636 0
M  V30 3736 C 360.667 -6.01828 1.949 0
M  V30 3737 C 359.331 -6.28351 2.25236 0
M  V30 3738 H 358.601 -0.725961 -0.148529 0
M  V30 3739 H 361.248 -1.88668 0.328113 0
M  V30 3740 H 359.553 -3.53337 -1.69294 0
M  V30 3741 H 361.25 -3.76577 -1.37808 0
M  V30 3742 H 357.84 -4.28579 -0.0420526 0
M  V30 3743 H 362.024 -4.9115 0.713129 0
M  V30 3744 H 357.28 -5.8531 1.76698 0
M  V30 3745 H 361.454 -6.49225 2.51951 0
M  V30 3746 H 359.081 -6.96226 3.05244 0
M  V30 3747 N 360.656 0.0484629 -1.57525 0
M  V30 3748 C 361.603 1.05504 -2.05275 0
M  V30 3749 C 362.573 1.37084 -0.937927 0
M  V30 3750 O 363.758 1.47754 -1.2072 0
M  V30 3751 C 360.898 2.35676 -2.52093 0
M  V30 3752 C 360.011 2.10423 -3.77288 0
M  V30 3753 C 359.146 3.34327 -4.12794 0
M  V30 3754 C 358.185 3.04542 -5.30962 0
M  V30 3755 N 357.322 4.20841 -5.61994 0
M  V30 3756 H 362.162 0.640885 -2.91027 0
M  V30 3757 H 359.699 0.304854 -1.43906 0
M  V30 3758 H 361.657 3.11709 -2.77297 0
M  V30 3759 H 360.287 2.7485 -1.69285 0
M  V30 3760 H 359.339 1.24976 -3.59284 0
M  V30 3761 H 360.651 1.84438 -4.63448 0
M  V30 3762 H 359.805 4.1874 -4.39024 0
M  V30 3763 H 358.544 3.63408 -3.25247 0
M  V30 3764 H 357.549 2.18528 -5.04505 0
M  V30 3765 H 358.774 2.76758 -6.20146 0
M  V30 3766 H 356.72 4.4991 -4.77406 0
M  V30 3767 H 356.637 3.98212 -6.42622 0
M  V30 3768 H 357.905 5.06184 -5.92789 0
M  V30 3769 N 362.134 1.5431 0.320358 0
M  V30 3770 C 363.064 1.86912 1.3995 0
M  V30 3771 C 364.045 0.726211 1.53819 0
M  V30 3772 O 365.23 0.980233 1.67646 0
M  V30 3773 C 362.36 2.09932 2.7667 0
M  V30 3774 C 361.314 3.25776 2.77586 0
M  V30 3775 C 360.64 3.34173 4.17412 0
M  V30 3776 C 361.94 4.6335 2.41048 0
M  V30 3777 H 363.634 2.77292 1.12914 0
M  V30 3778 H 361.18 1.33421 0.541738 0
M  V30 3779 H 363.133 2.31324 3.52232 0
M  V30 3780 H 361.857 1.16304 3.0519 0
M  V30 3781 H 360.516 3.04276 2.04479 0
M  V30 3782 H 360.164 2.38098 4.43078 0
M  V30 3783 H 359.864 4.12033 4.18931 0
M  V30 3784 H 361.388 3.57803 4.94782 0
M  V30 3785 H 362.802 4.84602 3.06324 0
M  V30 3786 H 361.199 5.43782 2.53813 0
M  V30 3787 H 362.269 4.65381 1.36193 0
M  V30 3788 N 363.613 -0.582584 1.46437 0
M  V30 3789 C 364.838 -1.37168 1.55563 0
M  V30 3790 C 365.263 -1.87061 0.19743 0
M  V30 3791 O 364.621 -1.61572 -0.822451 0
M  V30 3792 C 364.669 -2.53511 2.56446 0
M  V30 3793 O 363.773 -3.54953 2.09958 0
M  V30 3794 H 363.114 -0.408494 0.523477 0
M  V30 3795 H 365.644 -0.706646 1.9201 0
M  V30 3796 H 365.654 -3.00426 2.76058 0
M  V30 3797 H 364.329 -2.16549 3.55076 0
M  V30 3798 H 362.906 -3.14516 2.00334 0
M  V30 3799 N 365.091 -1.34144 -0.827227 0
M  V30 3800 C 366.023 -1.21206 -1.9453 0
M  V30 3801 C 367.036 -0.140176 -1.62195 0
M  V30 3802 O 368.225 -0.391647 -1.7415 0
M  V30 3803 C 365.325 -0.839141 -3.28347 0
M  V30 3804 C 364.498 -2.0051 -3.88734 0
M  V30 3805 C 363.557 -1.61128 -5.00923 0
M  V30 3806 O 362.583 -2.32726 -5.19449 0
M  V30 3807 N 363.785 -0.522958 -5.7814 0
M  V30 3808 H 366.55 -2.17525 -2.06162 0
M  V30 3809 H 364.111 -1.27043 -1.00358 0
M  V30 3810 H 366.103 -0.557556 -4.00841 0
M  V30 3811 H 364.673 0.0337293 -3.12582 0
M  V30 3812 H 363.893 -2.45166 -3.08686 0
M  V30 3813 H 365.181 -2.78498 -4.25812 0
M  V30 3814 H 364.579 0.0723518 -5.65654 0
M  V30 3815 H 363.136 -0.301089 -6.51104 0
M  V30 3816 N 366.569 1.04691 -1.17803 0
M  V30 3817 C 367.846 1.7472 -0.879328 0
M  V30 3818 C 368.226 2.01812 0.619271 0
M  V30 3819 O 367.574 1.65824 1.57209 0
M  V30 3820 C 367.784 3.03686 -1.71976 0
M  V30 3821 C 369.132 3.77542 -1.94286 0
M  V30 3822 O 370.156 3.13569 -1.68976 0
M  V30 3823 O 369.015 4.92506 -2.36855 0
M  V30 3824 H 366.109 0.760011 -0.326056 0
M  V30 3825 H 368.655 1.10813 -1.28525 0
M  V30 3826 H 367.427 2.79754 -2.73594 0
M  V30 3827 H 367.05 3.75332 -1.31194 0
M  V30 3828 N 368.047 0.979072 1.23499 0
M  V30 3829 C 369.324 0.563674 1.87302 0
M  V30 3830 C 369.704 -0.959199 1.88049 0
M  V30 3831 O 369.052 -1.83535 1.36114 0
M  V30 3832 C 369.262 1.16822 3.28867 0
M  V30 3833 C 370.61 1.26014 4.0547 0
M  V30 3834 O 371.634 1.12158 3.38082 0
M  V30 3835 O 370.493 1.48044 5.26066 0
M  V30 3836 H 367.587 0.189602 0.804972 0
M  V30 3837 H 370.133 1.07407 1.31384 0
M  V30 3838 H 368.905 2.21049 3.22883 0
M  V30 3839 H 368.528 0.642564 3.92373 0
M  V30 3840 N 369.525 -1.3858 0.750561 0
M  V30 3841 C 370.774 -1.99424 0.302172 0
M  V30 3842 C 371.087 -1.60254 -1.12152 0
M  V30 3843 O 372.293 -2.14046 -1.67023 0
M  V30 3844 C 370.749 -3.56558 0.489307 0
M  V30 3845 C 370.357 -4.04682 1.92189 0
M  V30 3846 C 372.101 -4.24374 0.103478 0
M  V30 3847 C 370.008 -5.54446 2.05775 0
M  V30 3848 H 368.938 -0.746046 0.10923 0
M  V30 3849 H 371.589 -1.58383 0.92667 0
M  V30 3850 H 369.971 -3.95472 -0.204329 0
M  V30 3851 H 371.145 -3.77065 2.64875 0
M  V30 3852 H 369.46 -3.4958 2.26236 0
M  V30 3853 H 372.057 -5.34384 0.183787 0
M  V30 3854 H 372.4 -4.05468 -0.943481 0
M  V30 3855 H 372.933 -3.90688 0.748854 0
M  V30 3856 H 369.672 -5.78252 3.08714 0
M  V30 3857 H 369.192 -5.83816 1.37546 0
M  V30 3858 H 370.871 -6.20099 1.84626 0
M  V30 3859 N 371.003 -0.499398 -1.49478 0
M  V30 3860 C 371.95 0.279881 -2.29097 0
M  V30 3861 C 372.92 0.961805 -1.3542 0
M  V30 3862 O 374.105 0.968777 -1.64376 0
M  V30 3863 C 371.245 1.33932 -3.18051 0
M  V30 3864 C 370.358 0.669333 -4.26783 0
M  V30 3865 C 369.493 1.70907 -5.02955 0
M  V30 3866 C 368.532 1.02087 -6.03527 0
M  V30 3867 N 367.669 2.00474 -6.7287 0
M  V30 3868 H 372.509 -0.405317 -2.95231 0
M  V30 3869 H 370.046 -0.211726 -1.45568 0
M  V30 3870 H 372.004 1.96553 -3.67998 0
M  V30 3871 H 370.634 1.9933 -2.53904 0
M  V30 3872 H 369.686 -0.0701234 -3.80335 0
M  V30 3873 H 370.998 0.127503 -4.98637 0
M  V30 3874 H 370.152 2.41037 -5.56764 0
M  V30 3875 H 368.891 2.28476 -4.30871 0
M  V30 3876 H 367.896 0.305338 -5.48951 0
M  V30 3877 H 369.121 0.451708 -6.77596 0
M  V30 3878 H 367.067 2.57007 -6.03559 0
M  V30 3879 H 366.984 1.51353 -7.40694 0
M  V30 3880 H 368.252 2.69897 -7.31284 0
M  V30 3881 N 372.481 1.55866 -0.233164 0
M  V30 3882 C 373.729 1.9821 0.394593 0
M  V30 3883 C 374.05 1.12234 1.59463 0
M  V30 3884 O 373.32 0.201981 1.94856 0
M  V30 3885 H 371.9 0.732034 0.148778 0
M  V30 3886 H 374.562 1.92107 -0.32876 0
M  V30 3887 H 373.658 3.03845 0.713063 0
M  V30 3888 N 373.959 -0.0401083 1.57549 0
M  V30 3889 C 375.208 -0.732108 1.87944 0
M  V30 3890 C 375.521 -1.77107 0.830206 0
M  V30 3891 O 376.727 -2.51488 1.02302 0
M  V30 3892 C 375.183 -1.35315 3.33494 0
M  V30 3893 C 374.791 -0.351105 4.46622 0
M  V30 3894 C 376.535 -2.02566 3.73051 0
M  V30 3895 C 374.442 -0.979859 5.83226 0
M  V30 3896 H 373.372 -0.277188 0.701201 0
M  V30 3897 H 376.023 0.0138501 1.83495 0
M  V30 3898 H 374.405 -2.14844 3.32653 0
M  V30 3899 H 375.579 0.416674 4.58912 0
M  V30 3900 H 373.894 0.218708 4.15825 0
M  V30 3901 H 376.491 -2.50441 4.72423 0
M  V30 3902 H 376.834 -2.83904 3.04474 0
M  V30 3903 H 377.367 -1.29827 3.76018 0
M  V30 3904 H 374.106 -0.206135 6.55176 0
M  V30 3905 H 373.626 -1.71774 5.74677 0
M  V30 3906 H 375.305 -1.49046 6.29599 0
M  V30 3907 N 375.437 -1.54477 -0.31217 0
M  V30 3908 C 376.369 -1.81011 -1.40598 0
M  V30 3909 C 377.382 -0.692546 -1.47335 0
M  V30 3910 O 378.571 -0.969847 -1.49854 0
M  V30 3911 C 375.671 -1.92307 -2.79054 0
M  V30 3912 C 374.844 -3.22594 -2.95384 0
M  V30 3913 C 373.903 -3.24448 -4.1427 0
M  V30 3914 O 372.929 -3.98035 -4.06887 0
M  V30 3915 N 374.131 -2.49042 -5.24365 0
M  V30 3916 H 376.896 -2.75408 -1.18196 0
M  V30 3917 H 374.457 -1.53914 -0.502202 0
M  V30 3918 H 376.449 -1.90962 -3.56813 0
M  V30 3919 H 375.019 -1.04955 -2.94454 0
M  V30 3920 H 374.239 -3.36806 -2.04831 0
M  V30 3921 H 375.527 -4.08593 -3.03198 0
M  V30 3922 H 374.925 -1.88867 -5.33241 0
M  V30 3923 H 373.482 -2.53463 -6.005 0
M  V30 3924 N 376.915 0.57481 -1.46744 0
M  V30 3925 C 377.862 1.68329 -1.57905 0
M  V30 3926 C 378.832 1.60625 -0.422927 0
M  V30 3927 O 380.017 1.79721 -0.640711 0
M  V30 3928 C 377.157 3.06665 -1.58274 0
M  V30 3929 C 376.27 3.24935 -2.84678 0
M  V30 3930 C 375.405 4.53566 -2.76499 0
M  V30 3931 C 374.444 4.65207 -3.97806 0
M  V30 3932 N 373.581 5.85172 -3.87967 0
M  V30 3933 H 378.421 1.58127 -2.52587 0
M  V30 3934 H 375.958 0.770552 -1.25303 0
M  V30 3935 H 377.916 3.86745 -1.56473 0
M  V30 3936 H 376.546 3.15745 -0.671194 0
M  V30 3937 H 375.598 2.38405 -2.96424 0
M  V30 3938 H 376.91 3.29403 -3.7456 0
M  V30 3939 H 376.064 5.41885 -2.72848 0
M  V30 3940 H 374.803 4.51548 -1.8427 0
M  V30 3941 H 373.808 3.75304 -4.0178 0
M  V30 3942 H 375.033 4.68997 -4.9114 0
M  V30 3943 H 372.979 5.84137 -2.98529 0
M  V30 3944 H 372.896 5.90943 -4.71511 0
M  V30 3945 H 374.164 6.759 -3.88303 0
M  V30 3946 N 378.394 1.34581 0.820102 0
M  V30 3947 C 379.324 1.29038 1.94606 0
M  V30 3948 C 380.305 0.1673 1.69275 0
M  V30 3949 O 381.49 0.360112 1.90832 0
M  V30 3950 C 378.62 1.04793 3.31113 0
M  V30 3951 C 377.574 2.13597 3.70891 0
M  V30 3952 C 376.9 1.74537 5.05412 0
M  V30 3953 C 378.2 3.55451 3.8269 0
M  V30 3954 H 379.894 2.23248 1.99501 0
M  V30 3955 H 377.44 1.0747 0.958449 0
M  V30 3956 H 379.393 0.995592 4.0947 0
M  V30 3957 H 378.117 0.0702565 3.26524 0
M  V30 3958 H 376.776 2.17905 2.9481 0
M  V30 3959 H 376.424 0.754226 4.97313 0
M  V30 3960 H 376.124 2.47361 5.32997 0
M  V30 3961 H 377.648 1.70803 5.86224 0
M  V30 3962 H 379.062 3.5354 4.51312 0
M  V30 3963 H 377.459 4.26922 4.21732 0
M  V30 3964 H 378.529 3.92587 2.84611 0
M  V30 3965 N 379.872 -1.04064 1.18357 0
M  V30 3966 C 381.102 -1.80654 1.00238 0
M  V30 3967 C 381.51 -1.83713 -0.452362 0
M  V30 3968 O 380.853 -1.27135 -1.32599 0
M  V30 3969 C 380.915 -3.27582 1.48088 0
M  V30 3970 C 380.579 -3.48184 2.96002 0
M  V30 3971 C 381.576 -3.39372 3.93856 0
M  V30 3972 C 379.261 -3.7478 3.34433 0
M  V30 3973 C 381.255 -3.5686 5.28138 0
M  V30 3974 C 378.942 -3.91915 4.68877 0
M  V30 3975 C 379.94 -3.82956 5.65539 0
M  V30 3976 O 379.628 -3.996 6.97549 0
M  V30 3977 H 379.36 -0.575751 0.354241 0
M  V30 3978 H 381.914 -1.32044 1.57333 0
M  V30 3979 H 380.144 -3.77161 0.853588 0
M  V30 3980 H 381.833 -3.8573 1.2636 0
M  V30 3981 H 382.599 -3.18789 3.65511 0
M  V30 3982 H 378.478 -3.80852 2.59756 0
M  V30 3983 H 382.022 -3.49783 6.03571 0
M  V30 3984 H 377.919 -4.11992 4.96923 0
M  V30 3985 H 378.687 -4.1676 7.04452 0
M  V30 3986 N 381.35 -0.985608 -1.22978 0
M  V30 3987 C 382.598 -0.656087 -1.91154 0
M  V30 3988 C 382.919 0.813561 -1.77218 0
M  V30 3989 O 382.189 1.58244 -1.1548 0
M  V30 3990 H 380.769 -0.239674 -0.707506 0
M  V30 3991 H 383.431 -1.25054 -1.49491 0
M  V30 3992 H 382.527 -0.912253 -2.9847 0
M  V30 3993 N 382.828 1.3818 -0.7579 0
M  V30 3994 C 383.775 2.30416 -0.133057 0
M  V30 3995 C 384.745 1.50398 0.704957 0
M  V30 3996 O 385.93 1.79014 0.660192 0
M  V30 3997 C 383.07 3.36834 0.750813 0
M  V30 3998 C 382.183 4.31879 -0.102297 0
M  V30 3999 C 381.318 5.25368 0.784979 0
M  V30 4000 C 380.357 6.12058 -0.0715046 0
M  V30 4001 N 379.494 6.97832 0.772972 0
M  V30 4002 H 384.334 2.83274 -0.925186 0
M  V30 4003 H 381.871 1.39461 -0.467866 0
M  V30 4004 H 383.829 3.97145 1.27794 0
M  V30 4005 H 382.459 2.85374 1.50868 0
M  V30 4006 H 381.511 3.72991 -0.747095 0
M  V30 4007 H 382.823 4.92921 -0.763552 0
M  V30 4008 H 381.977 5.90818 1.37911 0
M  V30 4009 H 380.716 4.64703 1.47996 0
M  V30 4010 H 379.721 5.456 -0.678272 0
M  V30 4011 H 380.946 6.74793 -0.763606 0
M  V30 4012 H 378.892 6.3971 1.45282 0
M  V30 4013 H 378.809 7.55812 0.168709 0
M  V30 4014 H 380.077 7.67687 1.35194 0
M  V30 4015 N 384.306 0.507319 1.49211 0
M  V30 4016 C 385.722 0.163682 1.58758 0
M  V30 4017 C 385.922 -1.33208 1.51188 0
M  V30 4018 O 384.978 -2.10855 1.38911 0
M  V30 4019 C 386.291 0.746095 2.91297 0
M  V30 4020 C 387.839 0.712773 3.04776 0
M  V30 4021 C 388.314 1.27336 4.39943 0
M  V30 4022 N 389.805 1.23433 4.46451 0
M  V30 4023 C 390.54 1.63821 5.495 0
M  V30 4024 N 390.036 2.11832 6.5962 0
M  V30 4025 N 391.829 1.55198 5.4025 0
M  V30 4026 H 383.98 1.47972 1.52375 0
M  V30 4027 H 386.243 0.614147 0.722168 0
M  V30 4028 H 385.949 1.79534 3.02424 0
M  V30 4029 H 385.823 0.210137 3.76614 0
M  V30 4030 H 388.21 -0.327656 2.93275 0
M  V30 4031 H 388.291 1.28595 2.21127 0
M  V30 4032 H 387.935 2.3126 4.52196 0
M  V30 4033 H 387.865 0.676066 5.22242 0
M  V30 4034 H 390.356 0.882627 3.67448 0
M  V30 4035 H 390.669 2.40703 7.34358 0
M  V30 4036 H 389.014 2.1581 6.60644 0
M  V30 4037 H 392.205 1.17505 4.53112 0
M  V30 4038 H 392.378 1.86997 6.20432 0
M  V30 4039 N 385.784 -1.5574 0.241426 0
M  V30 4040 C 387.009 -2.0366 -0.392111 0
M  V30 4041 C 387.434 -1.11969 -1.51144 0
M  V30 4042 O 386.792 -0.111594 -1.80956 0
M  V30 4043 C 386.84 -3.49638 -0.882371 0
M  V30 4044 O 385.944 -3.6108 -1.99235 0
M  V30 4045 H 385.285 -0.658379 -0.0862122 0
M  V30 4046 H 387.815 -2.01302 0.365881 0
M  V30 4047 H 387.825 -3.90351 -1.18702 0
M  V30 4048 H 386.5 -4.15852 -0.0632361 0
M  V30 4049 H 385.077 -3.32262 -1.69282 0
M  V30 4050 N 387.262 0.0317525 -1.57568 0
M  V30 4051 C 388.21 1.05165 -2.07468 0
M  V30 4052 C 389.204 1.3761 -0.98792 0
M  V30 4053 O 390.41 1.36546 -1.17282 0
M  V30 4054 H 386.785 0.35666 -0.66204 0
M  V30 4055 H 388.756 0.604958 -2.92203 0
M  V30 4056 C 387.505 2.34488 -2.56731 0
M  V30 4057 H 386.828 2.10383 -3.39969 0
M  V30 4058 H 388.268 3.04203 -2.95358 0
M  V30 4059 C 386.727 3.03266 -1.46736 0
M  V30 4060 O 387.257 3.92988 -0.832069 0
M  V30 4061 N 385.463 2.6455 -1.20256 0
M  V30 4062 H 385.01 1.91674 -1.72102 0
M  V30 4063 H 384.968 3.10886 -0.468737 0
M  V30 4064 N 388.74 1.54641 0.303973 0
M  V30 4065 C 389.965 1.78092 1.06292 0
M  V30 4066 C 390.39 0.537342 1.80262 0
M  V30 4067 O 389.748 -0.511993 1.7392 0
M  V30 4068 C 389.796 2.98612 2.02147 0
M  V30 4069 O 388.9 2.71528 3.10397 0
M  V30 4070 H 388.241 0.589548 0.305497 0
M  V30 4071 H 390.771 2.01716 0.3423 0
M  V30 4072 H 390.781 3.265 2.44667 0
M  V30 4073 H 389.456 3.88785 1.47714 0
M  V30 4074 H 388.033 2.54648 2.72413 0
M  V30 4075 N 390.218 -0.567019 1.47046 0
M  V30 4076 C 391.634 -0.891975 1.32348 0
M  V30 4077 C 391.834 -1.99154 0.306616 0
M  V30 4078 O 390.89 -2.50883 -0.28532 0
M  V30 4079 C 392.203 -1.29449 2.7141 0
M  V30 4080 C 393.751 -1.40646 2.79621 0
M  V30 4081 C 394.226 -1.84257 4.19301 0
M  V30 4082 N 395.717 -1.91424 4.21795 0
M  V30 4083 C 396.452 -2.26476 5.26779 0
M  V30 4084 N 395.948 -2.60211 6.42077 0
M  V30 4085 N 397.741 -2.27166 5.14152 0
M  V30 4086 H 389.892 0.159074 2.11803 0
M  V30 4087 H 392.155 0.00849752 0.947962 0
M  V30 4088 H 391.861 -0.560448 3.47206 0
M  V30 4089 H 391.735 -2.25273 3.02542 0
M  V30 4090 H 394.122 -2.13133 2.04104 0
M  V30 4091 H 394.203 -0.430339 2.52154 0
M  V30 4092 H 393.847 -1.12343 4.95319 0
M  V30 4093 H 393.777 -2.82855 4.44185 0
M  V30 4094 H 396.268 -1.6778 3.38612 0
M  V30 4095 H 396.581 -2.85956 7.17948 0
M  V30 4096 H 394.926 -2.57813 6.45413 0
M  V30 4097 H 398.117 -2.00244 4.23107 0
M  V30 4098 H 398.29 -2.54154 5.96079 0
M  V30 4099 N 391.696 -1.35014 -0.812953 0
M  V30 4100 C 392.643 -1.27412 -1.92444 0
M  V30 4101 C 393.613 -0.14733 -1.65445 0
M  V30 4102 O 394.798 -0.329974 -1.87925 0
M  V30 4103 C 391.938 -1.04558 -3.28879 0
M  V30 4104 C 391.051 -2.26101 -3.68106 0
M  V30 4105 C 390.186 -1.96449 -4.9354 0
M  V30 4106 C 389.225 -3.14081 -5.25376 0
M  V30 4107 N 388.362 -2.84246 -6.41988 0
M  V30 4108 H 393.202 -2.22463 -1.98278 0
M  V30 4109 H 390.739 -1.10593 -0.969933 0
M  V30 4110 H 392.697 -0.893413 -4.07522 0
M  V30 4111 H 391.327 -0.131719 -3.22531 0
M  V30 4112 H 390.379 -2.52204 -2.84775 0
M  V30 4113 H 391.691 -3.13959 -3.87597 0
M  V30 4114 H 390.845 -1.78026 -5.79993 0
M  V30 4115 H 389.584 -1.05867 -4.76071 0
M  V30 4116 H 388.589 -3.33089 -4.37415 0
M  V30 4117 H 389.814 -4.05455 -5.44778 0
M  V30 4118 H 387.76 -1.96252 -6.25956 0
M  V30 4119 H 387.677 -3.65637 -6.61699 0
M  V30 4120 H 388.945 -2.6935 -7.31485 0
M  V30 4121 N 393.175 1.03435 -1.18907 0
M  V30 4122 C 394.122 2.11591 -0.921837 0
M  V30 4123 C 395.092 1.65499 0.141226 0
M  V30 4124 O 396.277 1.908 0.000242829 0
M  V30 4125 C 393.417 3.42012 -0.460616 0
M  V30 4126 C 392.53 4.01682 -1.58982 0
M  V30 4127 C 391.665 5.20091 -1.08069 0
M  V30 4128 C 390.704 5.71805 -2.18416 0
M  V30 4129 N 389.841 6.81494 -1.68849 0
M  V30 4130 H 394.681 2.33787 -1.8479 0
M  V30 4131 H 392.218 1.1467 -0.921373 0
M  V30 4132 H 394.176 4.16834 -0.174642 0
M  V30 4133 H 392.806 3.19944 0.428467 0
M  V30 4134 H 391.858 3.24127 -1.99113 0
M  V30 4135 H 393.17 4.36084 -2.4214 0
M  V30 4136 H 392.324 6.02051 -0.749615 0
M  V30 4137 H 391.063 4.87209 -0.218771 0
M  V30 4138 H 390.068 4.88461 -2.5236 0
M  V30 4139 H 391.293 6.06728 -3.05054 0
M  V30 4140 H 389.239 6.50475 -0.849572 0
M  V30 4141 H 389.156 7.14994 -2.45601 0
M  V30 4142 H 390.424 7.67063 -1.38689 0
M  V30 4143 O 394.692 1.12039 1.16316 0
M  V30 4144 H 395.383 0.829719 1.7503 0
M  V30 END ATOM
M  V30 BEGIN BOND
M  V30 END BOND
M  V30 END CTAB
M  END
$$$$
