drugbank_target|P09382 Galectin-1 (DB03345; DB04396; DB04447; DB11638)
 OpenBabel12092120543D

  0  0  0     0  0            999 V3000
M  V30 BEGIN CTAB
M  V30 COUNTS 2035 2057 0 0 0
M  V30 BEGIN ATOM
M  V30 1 H -0.908 1.98254 -0.117106 0
M  V30 2 N 0 1.576 0 0
M  V30 3 C 0.933 2.03868 1.02534 0
M  V30 4 C 1.911 0.928543 1.3348 0
M  V30 5 O 3.095 1.19667 1.45644 0
M  V30 6 C 0.222 2.43627 2.35294 0
M  V30 7 C -0.732 3.65373 2.2001 0
M  V30 8 S 0.101 5.13292 1.52614 0
M  V30 9 C 1.257 5.56322 2.86805 0
M  V30 10 H 1.49 2.90518 0.631377 0
M  V30 11 H -0.977 1.52953 0.210867 0
M  V30 12 H 0.981 2.67203 3.11629 0
M  V30 13 H -0.358 1.57376 2.7183 0
M  V30 14 H -1.165 3.90944 3.18086 0
M  V30 15 H -1.563 3.418 1.51819 0
M  V30 16 H 0.729 5.58782 3.83104 0
M  V30 17 H 1.672 6.56266 2.65933 0
M  V30 18 H 2.08 4.83886 2.90714 0
M  V30 19 N 1.4781 -0.272755 1.55222 0
M  V30 20 C 2.4411 -1.32041 1.87344 0
M  V30 21 C 3.4411 -1.42342 0.74803 0
M  V30 22 O 4.6311 -1.41488 1.0162 0
M  V30 23 C 1.7631 -2.70173 2.07893 0
M  V30 24 H 2.9561 -1.04789 2.80997 0
M  V30 25 H 0.5091 -0.51083 1.47717 0
M  V30 26 H 1.2441 -3.02605 1.16622 0
M  V30 27 H 1.0291 -2.64082 2.89833 0
M  V30 28 H 2.5191 -3.45869 2.34017 0
M  V30 29 N 2.9562 -1.48159 -0.537278 0
M  V30 30 C 4.1962 -1.57397 -1.30405 0
M  V30 31 C 4.5602 -0.239202 -1.90504 0
M  V30 32 O 5.7612 -0.206528 -2.68005 0
M  V30 33 C 4.0322 -2.6754 -2.36974 0
M  V30 34 S 5.5912 -2.96496 -3.23475 0
M  V30 35 H 2.4092 -0.555577 -0.443684 0
M  V30 36 H 5.0112 -1.85644 -0.612912 0
M  V30 37 H 3.7152 -3.63092 -1.91291 0
M  V30 38 H 3.2462 -2.41172 -3.10805 0
M  V30 39 H 5.2612 -2.35234 -4.36897 0
M  V30 40 N 4.4343 0.785586 -1.36625 0
M  V30 41 C 5.6823 1.54057 -1.30808 0
M  V30 42 C 6.0033 1.94683 0.111157 0
M  V30 43 O 5.2733 1.65241 1.05224 0
M  V30 44 H 3.8533 0.571354 -0.481211 0
M  V30 45 H 6.5153 0.935821 -1.70963 0
M  V30 46 H 5.6113 2.44637 -1.93801 0
M  V30 47 N 5.9124 1.20967 1.01018 0
M  V30 48 C 6.8424 0.988272 2.11555 0
M  V30 49 C 7.8234 -0.0849778 1.69888 0
M  V30 50 O 9.0084 0.0738202 1.9406 0
M  V30 51 C 6.1384 0.546528 3.42973 0
M  V30 52 C 5.0924 1.56375 3.9841 0
M  V30 53 C 4.4184 0.97842 5.25672 0
M  V30 54 C 5.7184 2.94922 4.31066 0
M  V30 55 H 7.4124 1.91276 2.30334 0
M  V30 56 H 4.9584 0.921073 1.1069 0
M  V30 57 H 6.9114 0.378839 4.19694 0
M  V30 58 H 5.6354 -0.413598 3.23971 0
M  V30 59 H 4.2944 1.71891 3.23804 0
M  V30 60 H 3.9424 0.0101688 5.02999 0
M  V30 61 H 3.6424 1.65784 5.63728 0
M  V30 62 H 5.1664 0.821939 6.05043 0
M  V30 63 H 6.5804 2.8288 4.9865 0
M  V30 64 H 4.9774 3.5983 4.80253 0
M  V30 65 H 6.0474 3.4616 3.39561 0
M  V30 66 N 7.3905 -1.2043 1.01659 0
M  V30 67 C 8.6365 -1.90079 0.706963 0
M  V30 68 C 8.9695 -1.78648 -0.761474 0
M  V30 69 O 8.2445 -1.17069 -1.55323 0
M  V30 70 C 8.5275 -3.41469 1.14327 0
M  V30 71 C 8.3805 -3.61833 2.67201 0
M  V30 72 C 9.6995 -4.34261 0.714529 0
M  V30 73 H 6.8185 -0.690254 0.2583 0
M  V30 74 H 9.4605 -1.41826 1.26433 0
M  V30 75 H 7.6105 -3.82696 0.669056 0
M  V30 76 H 9.2825 -3.2986 3.22475 0
M  V30 77 H 7.5255 -3.05304 3.08175 0
M  V30 78 H 8.1965 -4.67955 2.92783 0
M  V30 79 H 10.6725 -4.00682 1.12221 0
M  V30 80 H 9.5485 -5.38806 1.04784 0
M  V30 81 H 9.8095 -4.40431 -0.383799 0
M  V30 82 N 8.8686 -0.792821 -1.36206 0
M  V30 83 C 9.8316 -0.199459 -2.2833 0
M  V30 84 C 10.8316 0.605189 -1.48977 0
M  V30 85 O 12.0216 0.425685 -1.68919 0
M  V30 86 C 9.1536 0.723523 -3.33134 0
M  V30 87 H 10.3466 -1.01181 -2.82316 0
M  V30 88 H 7.8996 -0.562485 -1.45828 0
M  V30 89 H 8.6346 1.56008 -2.84309 0
M  V30 90 H 8.4196 0.148436 -3.91819 0
M  V30 91 H 9.9096 1.13344 -4.01924 0
M  V30 92 N 10.3467 1.47872 -0.545128 0
M  V30 93 C 11.5717 2.07391 -0.0190611 0
M  V30 94 C 11.9967 1.39688 1.25971 0
M  V30 95 O 11.3547 0.467816 1.7516 0
M  V30 96 C 11.4027 3.60188 0.172335 0
M  V30 97 O 10.5067 3.9339 1.23766 0
M  V30 98 H 9.8477 0.662411 -0.0459059 0
M  V30 99 H 12.3777 1.90066 -0.757365 0
M  V30 100 H 12.3877 4.06129 0.390305 0
M  V30 101 H 11.0627 4.08865 -0.761725 0
M  V30 102 H 9.6397 3.5921 1.00114 0
M  V30 103 N 11.8248 0.280983 1.55075 0
M  V30 104 C 12.7728 -0.619864 2.24188 0
M  V30 105 C 13.7668 -1.15315 1.24092 0
M  V30 106 O 14.9728 -1.1061 1.42005 0
M  V30 107 H 11.3478 -0.218459 0.719569 0
M  V30 108 H 13.3188 -0.0141831 2.98397 0
M  V30 109 C 12.0678 -1.7899 2.98091 0
M  V30 110 H 11.3908 -1.38874 3.74905 0
M  V30 111 H 12.8308 -2.39672 3.49762 0
M  V30 112 C 11.2898 -2.68192 2.03899 0
M  V30 113 O 11.8198 -3.6872 1.594 0
M  V30 114 N 10.0258 -2.35488 1.70275 0
M  V30 115 H 9.5728 -1.53787 2.06658 0
M  V30 116 H 9.5308 -2.95442 1.07524 0
M  V30 117 N 13.3029 -1.57598 0.00835791 0
M  V30 118 C 14.2329 -2.1198 -0.979113 0
M  V30 119 C 15.2139 -1.03091 -1.35301 0
M  V30 120 O 16.3989 -1.30818 -1.43528 0
M  V30 121 C 13.5289 -2.62995 -2.26828 0
M  V30 122 C 12.4829 -3.76485 -2.03576 0
M  V30 123 C 11.8089 -4.13846 -3.38579 0
M  V30 124 C 13.1089 -5.0342 -1.39161 0
M  V30 125 H 14.8029 -2.94738 -0.526281 0
M  V30 126 H 12.3489 -1.41783 -0.251704 0
M  V30 127 H 14.3019 -2.99669 -2.96271 0
M  V30 128 H 13.0259 -1.7737 -2.7424 0
M  V30 129 H 11.6849 -3.40217 -1.36557 0
M  V30 130 H 11.3329 -3.25232 -3.83709 0
M  V30 131 H 11.0329 -4.90312 -3.23834 0
M  V30 132 H 12.5569 -4.53086 -4.09323 0
M  V30 133 H 13.9709 -5.37812 -1.98573 0
M  V30 134 H 12.3679 -5.84746 -1.34878 0
M  V30 135 H 13.4379 -4.83548 -0.361868 0
M  V30 136 N 14.781 0.264519 -1.55364 0
M  V30 137 C 15.729 1.34702 -1.89626 0
M  V30 138 C 16.723 1.50712 -0.773459 0
M  V30 139 O 17.929 1.52395 -0.957897 0
M  V30 140 H 14.304 0.450682 -0.601988 0
M  V30 141 H 16.275 1.0306 -2.80038 0
M  V30 142 C 15.024 2.6989 -2.19214 0
M  V30 143 H 14.347 2.58365 -3.05103 0
M  V30 144 H 15.787 3.44553 -2.47102 0
M  V30 145 C 14.246 3.21637 -1.00254 0
M  V30 146 O 14.776 4.00973 -0.241501 0
M  V30 147 N 12.982 2.7943 -0.797938 0
M  V30 148 H 12.529 2.15026 -1.4185 0
M  V30 149 H 12.487 3.144 -0.00363422 0
M  V30 150 N 16.2591 1.48442 0.529413 0
M  V30 151 C 17.1891 1.65902 1.64313 0
M  V30 152 C 18.1701 0.507897 1.6234 0
M  V30 153 O 19.3551 0.740503 1.79528 0
M  V30 154 C 16.4851 1.69911 3.02898 0
M  V30 155 C 15.4391 2.8453 3.19729 0
M  V30 156 C 14.7651 2.73629 4.59381 0
M  V30 157 C 16.0651 4.25821 3.02447 0
M  V30 158 H 17.7591 2.5914 1.49955 0
M  V30 159 H 15.3051 1.24709 0.719982 0
M  V30 160 H 17.2581 1.80715 3.80684 0
M  V30 161 H 15.9821 0.732524 3.18279 0
M  V30 162 H 14.6411 2.73283 2.44361 0
M  V30 163 H 14.2891 1.74938 4.71599 0
M  V30 164 H 13.9891 3.50541 4.71588 0
M  V30 165 H 15.5131 2.86401 5.39265 0
M  V30 166 H 16.9271 4.37898 3.70024 0
M  V30 167 H 15.3241 5.03735 3.26146 0
M  V30 168 H 16.3941 4.42244 1.98867 0
M  V30 169 N 17.7372 -0.778329 1.37039 0
M  V30 170 C 18.6842 -1.89139 1.32269 0
M  V30 171 C 19.6542 -1.65017 0.189387 0
M  V30 172 O 20.8392 -1.87024 0.377693 0
M  V30 173 C 17.9792 -3.26112 1.12894 0
M  V30 174 C 17.0922 -3.62233 2.35396 0
M  V30 175 C 16.2272 -4.8838 2.08946 0
M  V30 176 C 15.2662 -5.17212 3.2735 0
M  V30 177 N 14.4032 -6.34546 3.00492 0
M  V30 178 H 19.2432 -1.92552 2.27437 0
M  V30 179 H 16.7802 -0.941473 1.13025 0
M  V30 180 H 18.7382 -4.05116 0.996835 0
M  V30 181 H 17.3682 -3.22091 0.213758 0
M  V30 182 H 16.4202 -2.78265 2.5937 0
M  V30 183 H 17.7322 -3.79481 3.23721 0
M  V30 184 H 16.8862 -5.75274 1.92729 0
M  V30 185 H 15.6252 -4.73222 1.17949 0
M  V30 186 H 14.6302 -4.28796 3.44113 0
M  V30 187 H 15.8552 -5.34283 4.19188 0
M  V30 188 H 13.8012 -6.20759 2.12118 0
M  V30 189 H 13.7182 -6.52179 3.82358 0
M  V30 190 H 14.9862 -7.24394 2.87879 0
M  V30 191 N 19.2153 -1.21501 -1.00376 0
M  V30 192 C 20.6263 -1.03146 -1.55621 0
M  V30 193 C 20.9773 0.408375 -1.91903 0
M  V30 194 O 20.1023 1.29177 -1.73616 0
M  V30 195 C 20.6973 -1.86612 -2.82775 0
M  V30 196 C 19.2563 -1.72586 -3.34501 0
M  V30 197 C 18.4033 -1.83747 -2.07683 0
M  V30 198 H 21.3543 -1.35505 -0.826081 0
M  V30 199 H 21.3753 -1.3771 -3.54706 0
M  V30 200 H 20.8873 -2.91399 -2.56336 0
M  V30 201 H 18.9883 -0.704877 -3.65872 0
M  V30 202 H 19.1013 -2.54623 -4.05837 0
M  V30 203 H 17.4653 -1.27069 -2.20739 0
M  V30 204 H 18.2483 -2.90044 -1.83655 0
M  V30 205 N 20.6934 1.19889 -1.02296 0
M  V30 206 C 21.9414 1.89046 -0.714558 0
M  V30 207 C 22.2624 1.79636 0.758681 0
M  V30 208 O 21.5324 1.20292 1.54618 0
M  V30 209 H 20.1124 0.699802 -0.261317 0
M  V30 210 H 22.7744 1.45574 -1.29592 0
M  V30 211 H 21.8704 2.95524 -1.0036 0
M  V30 212 N 22.1715 0.800033 1.35784 0
M  V30 213 C 23.0815 0.207204 2.33683 0
M  V30 214 C 24.0975 -0.64631 1.61551 0
M  V30 215 O 25.2735 -0.559604 1.93469 0
M  V30 216 C 22.3385 -0.639659 3.40748 0
M  V30 217 C 21.3995 0.233585 4.28664 0
M  V30 218 C 20.6325 -0.572954 5.30616 0
M  V30 219 O 20.8555 -1.80816 5.40982 0
M  V30 220 O 19.7895 0.0327285 6.01891 0
M  V30 221 H 23.6155 1.01692 2.86169 0
M  V30 222 H 21.2005 0.561691 1.38439 0
M  V30 223 H 23.0825 -1.12223 4.06182 0
M  V30 224 H 21.7575 -1.42708 2.90544 0
M  V30 225 H 20.6645 0.763147 3.66233 0
M  V30 226 H 21.9975 0.984784 4.82248 0
M  V30 227 N 23.6496 -1.47581 0.552962 0
M  V30 228 C 24.8896 -2.04379 0.0296245 0
M  V30 229 C 25.2536 -1.4185 -1.29393 0
M  V30 230 O 26.4546 -1.89669 -1.90471 0
M  V30 231 C 24.7256 -3.57339 -0.0661371 0
M  V30 232 S 26.2846 -4.35511 -0.536213 0
M  V30 233 H 23.1026 -0.710625 0.0230991 0
M  V30 234 H 25.7046 -1.81005 0.738734 0
M  V30 235 H 24.4086 -4.00374 0.901596 0
M  V30 236 H 23.9396 -3.85202 -0.798931 0
M  V30 237 H 25.9546 -4.6253 -1.79668 0
M  V30 238 N 25.1277 -0.289203 -1.54924 0
M  V30 239 C 26.0577 0.58549 -2.2604 0
M  V30 240 C 27.0387 1.14753 -1.25562 0
M  V30 241 O 28.2237 1.17906 -1.54311 0
M  V30 242 C 25.3537 1.76305 -2.99222 0
M  V30 243 C 24.3077 1.33191 -4.06748 0
M  V30 244 C 23.6337 2.5937 -4.6758 0
M  V30 245 C 24.9337 0.471775 -5.20165 0
M  V30 246 H 26.6277 -0.00763532 -2.99399 0
M  V30 247 H 24.1737 -0.00511229 -1.43999 0
M  V30 248 H 26.1267 2.38097 -3.47689 0
M  V30 249 H 24.8507 2.38223 -2.23422 0
M  V30 250 H 23.5097 0.737121 -3.59113 0
M  V30 251 H 23.1577 3.19576 -3.88433 0
M  V30 252 H 22.8577 2.31228 -5.40192 0
M  V30 253 H 24.3817 3.21985 -5.18804 0
M  V30 254 H 25.7957 0.995056 -5.64599 0
M  V30 255 H 24.1927 0.284639 -5.99425 0
M  V30 256 H 25.2627 -0.506041 -4.82252 0
M  V30 257 N 26.6058 1.57591 -0.0167156 0
M  V30 258 C 28.0218 1.55946 0.339557 0
M  V30 259 C 28.2218 1.02109 1.73713 0
M  V30 260 O 27.2778 0.662303 2.43659 0
M  V30 261 C 28.5908 3.00037 0.199499 0
M  V30 262 C 30.1388 3.11805 0.273193 0
M  V30 263 C 30.6138 4.57713 0.162068 0
M  V30 264 N 32.1048 4.6268 0.219444 0
M  V30 265 C 32.8398 5.73185 0.157054 0
M  V30 266 N 32.3358 6.92786 0.0442936 0
M  V30 267 N 34.1288 5.61707 0.21014 0
M  V30 268 H 26.2798 1.90921 -0.930758 0
M  V30 269 H 28.5428 0.877674 -0.358319 0
M  V30 270 H 28.2488 3.4333 -0.76273 0
M  V30 271 H 28.1228 3.64387 0.974786 0
M  V30 272 H 30.5098 2.68433 1.22587 0
M  V30 273 H 30.5908 2.50201 -0.532256 0
M  V30 274 H 30.2348 5.01763 -0.78714 0
M  V30 275 H 30.1648 5.17283 0.986222 0
M  V30 276 H 32.6558 3.76649 0.307246 0
M  V30 277 H 32.9688 7.728 0.00304069 0
M  V30 278 H 31.3138 6.94999 0.00968457 0
M  V30 279 H 34.5048 4.6716 0.296546 0
M  V30 280 H 34.6778 6.47807 0.158054 0
M  V30 281 N 28.0839 -0.256276 1.55502 0
M  V30 282 C 29.3299 -0.987079 1.77157 0
M  V30 283 C 29.6629 -1.85327 0.580315 0
M  V30 284 O 28.9379 -1.89874 -0.421686 0
M  V30 285 C 29.2209 -1.85553 3.08613 0
M  V30 286 C 29.0739 -1.01816 4.38125 0
M  V30 287 C 30.3929 -2.8397 3.36228 0
M  V30 288 H 27.5119 -0.357428 0.644526 0
M  V30 289 H 30.1539 -0.258239 1.88237 0
M  V30 290 H 28.3039 -2.47695 2.99298 0
M  V30 291 H 29.9759 -0.416159 4.59419 0
M  V30 292 H 28.2189 -0.322178 4.32602 0
M  V30 293 H 28.8899 -1.65939 5.26468 0
M  V30 294 H 31.3659 -2.31964 3.45445 0
M  V30 295 H 30.2419 -3.41864 4.29442 0
M  V30 296 H 30.5029 -3.59955 2.56681 0
M  V30 297 N 29.562 -1.4872 -0.521534 0
M  V30 298 C 30.978 -1.35028 -0.850855 0
M  V30 299 C 31.178 -0.367712 -1.98116 0
M  V30 300 O 30.234 0.208037 -2.51642 0
M  V30 301 C 31.547 -2.75263 -1.21041 0
M  V30 302 C 33.095 -2.83813 -1.31981 0
M  V30 303 C 33.57 -4.24769 -1.71276 0
M  V30 304 N 35.061 -4.27482 -1.78363 0
M  V30 305 C 35.796 -5.33494 -2.1017 0
M  V30 306 N 35.292 -6.49775 -2.40343 0
M  V30 307 N 37.085 -5.20894 -2.11248 0
M  V30 308 H 29.236 -2.11214 0.22413 0
M  V30 309 H 31.499 -0.947252 0.0376439 0
M  V30 310 H 31.205 -3.48765 -0.453415 0
M  V30 311 H 31.079 -3.09327 -2.15863 0
M  V30 312 H 33.466 -2.10561 -2.06756 0
M  V30 313 H 33.547 -2.53358 -0.352596 0
M  V30 314 H 33.191 -4.9854 -0.970588 0
M  V30 315 H 33.121 -4.52673 -2.69062 0
M  V30 316 H 35.612 -3.43611 -1.57288 0
M  V30 317 H 35.925 -7.26402 -2.63743 0
M  V30 318 H 34.27 -6.53035 -2.37844 0
M  V30 319 H 37.461 -4.29065 -1.87139 0
M  V30 320 H 37.634 -6.03612 -2.35704 0
M  V30 321 N 31.0401 0.771051 -1.3745 0
M  V30 322 C 32.2881 1.52661 -1.32435 0
M  V30 323 C 32.6091 1.9479 0.0905024 0
M  V30 324 O 31.8791 1.66348 1.03466 0
M  V30 325 H 30.4591 0.566218 -0.487244 0
M  V30 326 H 33.1211 0.917636 -1.71946 0
M  V30 327 H 32.2171 2.42568 -1.96385 0
M  V30 328 N 32.5182 1.22032 0.997298 0
M  V30 329 C 33.4282 1.00271 2.12092 0
M  V30 330 C 34.4442 -0.047621 1.73935 0
M  V30 331 O 35.6202 0.144136 2.00884 0
M  V30 332 C 32.6852 0.578449 3.4184 0
M  V30 333 C 31.7462 1.70189 3.94125 0
M  V30 334 C 30.9792 1.29778 5.17681 0
M  V30 335 O 31.2022 0.174676 5.70132 0
M  V30 336 O 30.1362 2.11261 5.63607 0
M  V30 337 H 33.9622 1.94398 2.3333 0
M  V30 338 H 31.5472 1.00587 1.10465 0
M  V30 339 H 33.4292 0.351998 4.19927 0
M  V30 340 H 32.1042 -0.334019 3.21972 0
M  V30 341 H 31.0112 1.98282 3.1723 0
M  V30 342 H 32.3442 2.59206 4.18417 0
M  V30 343 N 33.9963 -1.19345 1.0293 0
M  V30 344 C 35.2423 -1.89318 0.727083 0
M  V30 345 C 35.5753 -1.79446 -0.742483 0
M  V30 346 O 34.8503 -1.1871 -1.54072 0
M  V30 347 C 35.1333 -3.40238 1.17942 0
M  V30 348 C 34.9863 -3.58979 2.71024 0
M  V30 349 C 36.3053 -4.33479 0.760548 0
M  V30 350 H 33.4243 -0.687475 0.265606 0
M  V30 351 H 36.0663 -1.40477 1.2793 0
M  V30 352 H 34.2163 -3.81964 0.709608 0
M  V30 353 H 35.8883 -3.26421 3.25955 0
M  V30 354 H 34.1313 -3.02018 3.11396 0
M  V30 355 H 34.8023 -4.64823 2.9773 0
M  V30 356 H 37.2783 -3.99469 1.16464 0
M  V30 357 H 36.1543 -5.37664 1.10493 0
M  V30 358 H 36.4153 -4.40813 -0.337063 0
M  V30 359 N 35.4744 -0.807222 -1.35358 0
M  V30 360 C 36.4374 -0.223665 -2.28106 0
M  V30 361 C 37.4374 0.589354 -1.4961 0
M  V30 362 O 38.6274 0.407745 -1.69361 0
M  V30 363 C 35.7594 0.688149 -3.33882 0
M  V30 364 H 36.9524 -1.04169 -2.81227 0
M  V30 365 H 34.5054 -0.577921 -1.45223 0
M  V30 366 H 35.2404 1.52984 -2.85948 0
M  V30 367 H 35.0254 0.10687 -3.91954 0
M  V30 368 H 36.5154 1.09075 -4.03104 0
M  V30 369 N 36.9525 1.47285 -0.560781 0
M  V30 370 C 38.3635 1.86258 -0.128343 0
M  V30 371 C 38.7145 1.46699 1.30284 0
M  V30 372 O 37.8395 0.871698 1.98067 0
M  V30 373 C 38.4345 3.38044 -0.22614 0
M  V30 374 C 36.9935 3.76096 0.151283 0
M  V30 375 C 36.1405 2.71335 -0.572084 0
M  V30 376 H 39.0915 1.38752 -0.770297 0
M  V30 377 H 39.1125 3.76441 0.554322 0
M  V30 378 H 38.6245 3.66806 -1.26788 0
M  V30 379 H 36.7255 3.52951 1.19399 0
M  V30 380 H 36.8385 4.78641 -0.209765 0
M  V30 381 H 35.2025 2.54696 -0.0147653 0
M  V30 382 H 35.9855 3.02938 -1.61504 0
M  V30 383 N 38.4306 0.297415 1.54768 0
M  V30 384 C 39.7076 -0.365847 1.92148 0
M  V30 385 C 40.0876 -1.71975 1.22424 0
M  V30 386 O 39.4356 -2.25666 0.358739 0
M  V30 387 C 39.6456 -0.484056 3.45627 0
M  V30 388 C 40.9936 -0.756594 4.17805 0
M  V30 389 O 42.0176 -0.568007 3.51642 0
M  V30 390 O 40.8766 -1.11863 5.34929 0
M  V30 391 H 37.9706 -0.203919 0.801465 0
M  V30 392 H 40.5166 0.34521 1.66152 0
M  V30 393 H 39.2886 0.467865 3.88493 0
M  V30 394 H 38.9116 -1.24372 3.77647 0
M  V30 395 N 39.9087 -1.5758 0.0250728 0
M  V30 396 C 40.8717 -2.08896 -0.943139 0
M  V30 397 C 41.8717 -1.00321 -1.25668 0
M  V30 398 O 43.0617 -1.26495 -1.19769 0
M  V30 399 C 40.1937 -2.55143 -2.26086 0
M  V30 400 H 41.3867 -2.95723 -0.498775 0
M  V30 401 H 38.9397 -1.54703 -0.222888 0
M  V30 402 H 39.6747 -1.71633 -2.75159 0
M  V30 403 H 39.4597 -3.34461 -2.04641 0
M  V30 404 H 40.9497 -2.95083 -2.95492 0
M  V30 405 N 41.3868 0.248026 -1.55636 0
M  V30 406 C 42.3338 1.30707 -1.90222 0
M  V30 407 C 43.3038 1.47881 -0.756332 0
M  V30 408 O 44.4888 1.61883 -1.00988 0
M  V30 409 C 41.6288 2.65769 -2.20138 0
M  V30 410 C 40.7418 2.56612 -3.47526 0
M  V30 411 C 39.8768 3.8402 -3.67017 0
M  V30 412 C 38.9158 3.69476 -4.8801 0
M  V30 413 N 38.0528 4.88774 -5.04029 0
M  V30 414 H 42.8928 1.00512 -2.80538 0
M  V30 415 H 40.4298 0.485055 -1.38873 0
M  V30 416 H 42.3878 3.44386 -2.35487 0
M  V30 417 H 41.0178 2.94115 -1.33027 0
M  V30 418 H 40.0698 1.69571 -3.40514 0
M  V30 419 H 41.3818 2.41774 -4.36287 0
M  V30 420 H 40.5358 4.7108 -3.8232 0
M  V30 421 H 39.2748 4.01754 -2.76487 0
M  V30 422 H 38.2798 2.80799 -4.72686 0
M  V30 423 H 39.5048 3.53238 -5.8 0
M  V30 424 H 37.4508 5.0687 -4.16435 0
M  V30 425 H 37.3678 4.76562 -5.86877 0
M  V30 426 H 38.6358 5.77335 -5.23741 0
M  V30 427 N 42.8649 1.48995 0.513639 0
M  V30 428 C 44.0899 1.61792 1.29762 0
M  V30 429 C 44.5149 0.284475 1.85936 0
M  V30 430 O 43.8729 -0.746185 1.65232 0
M  V30 431 C 43.9209 2.67993 2.41272 0
M  V30 432 O 43.0249 2.26287 3.44772 0
M  V30 433 H 42.3659 0.541963 0.38363 0
M  V30 434 H 44.8959 1.95097 0.616307 0
M  V30 435 H 44.9059 2.89772 2.87221 0
M  V30 436 H 43.5809 3.64791 1.9975 0
M  V30 437 H 42.1579 2.14788 3.04829 0
M  V30 438 N 44.343 -0.763751 1.37857 0
M  V30 439 C 45.59 -1.52257 1.33506 0
M  V30 440 C 45.918 -1.94343 -0.078022 0
M  V30 441 O 45.173 -1.64958 -1.05297 0
M  V30 442 C 45.472 -2.79499 2.22745 0
M  V30 443 C 45.138 -2.56426 3.70886 0
M  V30 444 C 43.8 -2.49842 4.11257 0
M  V30 445 C 46.152 -2.36008 4.64704 0
M  V30 446 C 43.48 -2.20841 5.43549 0
M  V30 447 C 45.832 -2.0853 5.97242 0
M  V30 448 C 44.496 -2.00396 6.36709 0
M  V30 449 H 43.766 -0.557149 0.488534 0
M  V30 450 H 46.413 -0.879073 1.70131 0
M  V30 451 H 44.718 -3.48447 1.79142 0
M  V30 452 H 46.415 -3.37413 2.16688 0
M  V30 453 H 43.005 -2.62416 3.38874 0
M  V30 454 H 47.189 -2.40079 4.34368 0
M  V30 455 H 42.445 -2.13045 5.73081 0
M  V30 456 H 46.619 -1.91732 6.69486 0
M  V30 457 H 44.246 -1.77688 7.39142 0
M  V30 458 N 45.8211 -1.22559 -0.990812 0
M  V30 459 C 47.0671 -1.05297 -1.73322 0
M  V30 460 C 47.4001 0.410655 -1.89808 0
M  V30 461 O 46.6751 1.30439 -1.44277 0
M  V30 462 C 46.9581 -1.76713 -3.13759 0
M  V30 463 C 46.8111 -3.30684 -3.04907 0
M  V30 464 C 48.1301 -1.52121 -4.12974 0
M  V30 465 H 45.2491 -0.38392 -0.629106 0
M  V30 466 H 47.8911 -1.50926 -1.15418 0
M  V30 467 H 46.0411 -1.37924 -3.63193 0
M  V30 468 H 47.7131 -3.7893 -2.63077 0
M  V30 469 H 45.9561 -3.60253 -2.41661 0
M  V30 470 H 46.6271 -3.75833 -4.04294 0
M  V30 471 H 49.1031 -1.85819 -3.72304 0
M  V30 472 H 47.9791 -2.04582 -5.0935 0
M  V30 473 H 48.2401 -0.454257 -4.3976 0
M  V30 474 N 47.2992 1.18797 -1.03562 0
M  V30 475 C 48.2292 2.24472 -0.643019 0
M  V30 476 C 49.2102 1.66433 0.351283 0
M  V30 477 O 50.3952 1.92803 0.232505 0
M  V30 478 C 47.5252 3.473 4.24935e-05 0
M  V30 479 C 46.4792 4.18055 -0.917257 0
M  V30 480 C 45.8052 5.34519 -0.138941 0
M  V30 481 C 47.1052 4.72109 -2.23407 0
M  V30 482 H 48.7992 2.57566 -1.52643 0
M  V30 483 H 46.3452 1.23806 -0.735394 0
M  V30 484 H 48.2982 4.20426 0.286383 0
M  V30 485 H 47.0222 3.13424 0.918299 0
M  V30 486 H 45.6812 3.46821 -1.1879 0
M  V30 487 H 45.3292 4.96891 0.781562 0
M  V30 488 H 45.0292 5.82794 -0.750005 0
M  V30 489 H 46.5532 6.10438 0.1405 0
M  V30 490 H 47.9672 5.36955 -2.00879 0
M  V30 491 H 46.3642 5.30897 -2.79765 0
M  V30 492 H 47.4342 3.89807 -2.88407 0
M  V30 493 N 48.7773 0.814389 1.34928 0
M  V30 494 C 49.7253 0.218424 2.31572 0
M  V30 495 C 50.7193 -0.636128 1.57002 0
M  V30 496 O 51.9253 -0.52842 1.72069 0
M  V30 497 H 48.3003 0.0518799 0.750208 0
M  V30 498 H 50.2713 1.04852 2.79372 0
M  V30 499 C 49.0203 -0.61207 3.4227 0
M  V30 500 H 48.3433 0.0361578 3.99784 0
M  V30 501 H 49.7833 -0.995317 4.12152 0
M  V30 502 C 48.2423 -1.78087 2.85984 0
M  V30 503 O 48.7723 -2.8787 2.80168 0
M  V30 504 N 46.9783 -1.59488 2.42924 0
M  V30 505 H 46.5253 -0.701874 2.47854 0
M  V30 506 H 46.4833 -2.37846 2.05613 0
M  V30 507 N 50.2554 -1.46986 0.568584 0
M  V30 508 C 51.1854 -2.32946 -0.160753 0
M  V30 509 C 52.1664 -1.44487 -0.897631 0
M  V30 510 O 53.3514 -1.73327 -0.875867 0
M  V30 511 C 50.4814 -3.26494 -1.18403 0
M  V30 512 C 49.4354 -4.24282 -0.562895 0
M  V30 513 C 48.7614 -5.07236 -1.69163 0
M  V30 514 C 50.0614 -5.19989 0.490761 0
M  V30 515 H 51.7554 -2.94175 0.556916 0
M  V30 516 H 49.3014 -1.4146 0.26927 0
M  V30 517 H 51.2544 -3.85477 -1.70251 0
M  V30 518 H 49.9784 -2.63343 -1.93179 0
M  V30 519 H 48.6374 -3.66541 -0.0656164 0
M  V30 520 H 48.2854 -4.4048 -2.42871 0
M  V30 521 H 47.9854 -5.7345 -1.28174 0
M  V30 522 H 49.5094 -5.6908 -2.21314 0
M  V30 523 H 50.9234 -5.73271 0.0579047 0
M  V30 524 H 49.3204 -5.94469 0.820165 0
M  V30 525 H 50.3904 -4.64777 1.3824 0
M  V30 526 N 51.7335 -0.305618 -1.54608 0
M  V30 527 C 52.9815 0.301701 -1.99835 0
M  V30 528 C 53.3025 1.54054 -1.19551 0
M  V30 529 O 52.5725 1.93702 -0.292658 0
M  V30 530 H 51.1525 0.114468 -0.738178 0
M  V30 531 H 53.8145 -0.418016 -1.90364 0
M  V30 532 H 52.9105 0.570548 -3.06841 0
M  V30 533 N 53.2116 1.57565 -0.0334293 0
M  V30 534 C 54.1586 2.10478 0.946981 0
M  V30 535 C 55.1286 1.00787 1.32027 0
M  V30 536 O 56.3136 1.28232 1.41284 0
M  V30 537 C 53.4536 2.63994 2.22263 0
M  V30 538 C 52.5666 3.87709 1.90541 0
M  V30 539 C 51.7016 4.29604 3.12433 0
M  V30 540 C 50.7406 5.46065 2.76549 0
M  V30 541 N 49.8776 5.83096 3.9108 0
M  V30 542 H 54.7176 2.93963 0.488846 0
M  V30 543 H 52.2546 1.45296 0.22969 0
M  V30 544 H 54.2126 2.93114 2.96884 0
M  V30 545 H 52.8426 1.83333 2.65685 0
M  V30 546 H 51.8946 3.65291 1.06144 0
M  V30 547 H 53.2066 4.72403 1.60116 0
M  V30 548 H 52.3606 4.60182 3.9537 0
M  V30 549 H 51.0996 3.43685 3.46023 0
M  V30 550 H 50.1046 5.15176 1.92026 0
M  V30 551 H 51.3296 6.33685 2.44171 0
M  V30 552 H 49.2756 5.00132 4.24504 0
M  V30 553 H 49.1926 6.6244 3.64293 0
M  V30 554 H 50.4606 6.18282 4.74708 0
M  V30 555 N 54.6897 -0.239769 1.55765 0
M  V30 556 C 55.9667 -0.990056 1.68693 0
M  V30 557 C 56.3467 -2.03107 0.5754 0
M  V30 558 O 55.6947 -2.24604 -0.42017 0
M  V30 559 C 55.9047 -1.61696 3.09282 0
M  V30 560 C 57.2527 -2.11613 3.6811 0
M  V30 561 O 58.2767 -1.71624 3.12127 0
M  V30 562 O 57.1357 -2.85057 4.66267 0
M  V30 563 H 54.2297 -0.461299 0.686391 0
M  V30 564 H 56.7757 -0.232991 1.68093 0
M  V30 565 H 55.5477 -0.864357 3.81634 0
M  V30 566 H 55.1707 -2.44005 3.13923 0
M  V30 567 N 56.1678 -1.49265 -0.50573 0
M  V30 568 C 57.3928 -1.62478 -1.28902 0
M  V30 569 C 57.8178 -0.294332 -1.85783 0
M  V30 570 O 57.1758 0.737412 -1.65626 0
M  V30 571 C 57.2238 -2.69268 -2.39848 0
M  V30 572 O 56.3278 -2.28113 -3.43567 0
M  V30 573 H 55.6688 -0.54399 -0.380751 0
M  V30 574 H 58.1988 -1.95421 -0.605952 0
M  V30 575 H 58.2088 -2.91291 -2.85681 0
M  V30 576 H 56.8838 -3.65846 -1.97812 0
M  V30 577 H 55.4608 -2.16401 -3.03685 0
M  V30 578 N 57.6459 0.756429 -1.3826 0
M  V30 579 C 58.5939 1.89149 -1.35372 0
M  V30 580 C 59.5879 1.67691 -0.24004 0
M  V30 581 O 60.7939 1.75294 -0.408919 0
M  V30 582 H 57.1689 0.622271 -0.422236 0
M  V30 583 H 59.1399 1.88701 -2.31159 0
M  V30 584 C 57.8889 3.26599 -1.19284 0
M  V30 585 H 57.2119 3.43695 -2.0424 0
M  V30 586 H 58.6519 4.06274 -1.21316 0
M  V30 587 C 57.1109 3.3675 0.100454 0
M  V30 588 O 57.6409 3.86951 1.07851 0
M  V30 589 N 55.8469 2.90179 0.15633 0
M  V30 590 H 55.3939 2.49517 -0.640253 0
M  V30 591 H 55.3519 2.97352 1.02123 0
M  V30 592 N 59.124 1.23083 0.984299 0
M  V30 593 C 60.072 1.00593 2.09723 0
M  V30 594 C 61.066 -0.0538014 1.69315 0
M  V30 595 O 62.272 0.0993719 1.79725 0
M  V30 596 H 58.647 0.30817 0.685956 0
M  V30 597 H 60.618 1.95012 2.2586 0
M  V30 598 C 59.367 0.609601 3.42314 0
M  V30 599 H 58.69 1.41675 3.73856 0
M  V30 600 H 60.13 0.491726 4.21139 0
M  V30 601 C 58.589 -0.681745 3.2993 0
M  V30 602 O 59.119 -1.73192 3.62446 0
M  V30 603 N 57.325 -0.656178 2.83095 0
M  V30 604 H 56.872 0.198759 2.56832 0
M  V30 605 H 56.83 -1.52044 2.75191 0
M  V30 606 N 60.6021 -1.18246 1.0419 0
M  V30 607 C 61.5321 -2.24127 0.654914 0
M  V30 608 C 62.5131 -1.66617 -0.342451 0
M  V30 609 O 63.6981 -1.92924 -0.222277 0
M  V30 610 C 60.8281 -3.47295 0.0183757 0
M  V30 611 C 59.7821 -4.17563 0.939414 0
M  V30 612 C 59.1081 -5.34438 0.167286 0
M  V30 613 C 60.4081 -4.70917 2.25908 0
M  V30 614 H 62.1021 -2.56753 1.54007 0
M  V30 615 H 59.6481 -1.23414 0.74195 0
M  V30 616 H 61.6011 -4.20572 -0.264082 0
M  V30 617 H 60.3251 -3.13907 -0.901664 0
M  V30 618 H 58.9841 -3.46186 1.20628 0
M  V30 619 H 58.6321 -4.97298 -0.7552 0
M  V30 620 H 58.3321 -5.82388 0.780901 0
M  V30 621 H 59.8561 -6.10504 -0.108125 0
M  V30 622 H 61.2701 -5.35882 2.03724 0
M  V30 623 H 59.6671 -5.29406 2.82577 0
M  V30 624 H 60.7371 -3.88272 2.9047 0
M  V30 625 N 62.0802 -0.821533 -1.34494 0
M  V30 626 C 63.3202 -0.414785 -2.00147 0
M  V30 627 C 63.6842 1.00299 -1.6372 0
M  V30 628 O 64.8852 1.51255 -2.22206 0
M  V30 629 C 63.1562 -0.609403 -3.52166 0
M  V30 630 S 64.7152 -0.295297 -4.37805 0
M  V30 631 H 61.5332 -0.15679 -0.693497 0
M  V30 632 H 64.1352 -1.06705 -1.63812 0
M  V30 633 H 62.8392 -1.64096 -3.76166 0
M  V30 634 H 62.3702 0.0576414 -3.93358 0
M  V30 635 H 64.3852 0.891531 -4.88125 0
M  V30 636 N 63.5583 1.46682 -0.576371 0
M  V30 637 C 64.4883 2.33028 0.148397 0
M  V30 638 C 65.4693 1.44961 0.889956 0
M  V30 639 O 66.6543 1.73789 0.866662 0
M  V30 640 C 63.7843 3.27117 1.1667 0
M  V30 641 C 62.7383 4.24575 0.540386 0
M  V30 642 C 62.0643 5.08126 1.6647 0
M  V30 643 C 63.3643 5.19722 -0.518331 0
M  V30 644 H 65.0583 2.93875 -0.572509 0
M  V30 645 H 62.6043 1.41315 -0.276768 0
M  V30 646 H 64.5573 3.86374 1.68204 0
M  V30 647 H 63.2813 2.64364 1.9178 0
M  V30 648 H 61.9403 3.66571 0.0461769 0
M  V30 649 H 61.5883 4.41762 2.40531 0
M  V30 650 H 61.2883 5.74122 1.25131 0
M  V30 651 H 62.8123 5.70246 2.18293 0
M  V30 652 H 64.2263 5.73232 -0.0883058 0
M  V30 653 H 62.6233 5.94026 -0.851679 0
M  V30 654 H 63.6933 4.64037 -1.40703 0
M  V30 655 N 65.0364 0.313813 1.54444 0
M  V30 656 C 65.9864 -0.571898 2.20711 0
M  V30 657 C 66.9704 -1.08913 1.18435 0
M  V30 658 O 68.1624 -1.02777 1.44104 0
M  V30 659 C 65.2914 -1.7371 2.96108 0
M  V30 660 C 64.3774 -1.23522 4.05713 0
M  V30 661 N 64.7684 -0.452288 5.03774 0
M  V30 662 C 63.0664 -1.51482 4.19487 0
M  V30 663 C 63.7674 -0.183438 5.81411 0
M  V30 664 N 62.7434 -0.766845 5.38164 0
M  V30 665 H 66.5454 0.0336802 2.93881 0
M  V30 666 H 64.0594 0.119192 1.61962 0
M  V30 667 H 66.0564 -2.38329 3.4206 0
M  V30 668 H 64.7164 -2.34625 2.24458 0
M  V30 669 H 65.7274 -0.0960131 5.17811 0
M  V30 670 H 62.4044 -2.13053 3.59047 0
M  V30 671 H 63.7944 0.446216 6.70417 0
M  V30 672 N 66.5145 -1.57545 0.0417849 0
M  V30 673 C 67.7615 -1.92317 -0.634082 0
M  V30 674 C 68.0895 -0.919334 -1.71402 0
M  V30 675 O 67.3445 0.0698253 -1.95575 0
M  V30 676 C 67.6435 -3.33794 -1.27735 0
M  V30 677 C 67.3095 -4.49716 -0.326543 0
M  V30 678 C 65.9715 -4.81156 -0.0648814 0
M  V30 679 C 68.3235 -5.20182 0.325623 0
M  V30 680 C 65.6515 -5.80414 0.856539 0
M  V30 681 C 68.0035 -6.20424 1.23518 0
M  V30 682 C 66.6675 -6.50298 1.5056 0
M  V30 683 H 65.9375 -0.703736 -0.232027 0
M  V30 684 H 68.5845 -1.91205 0.106259 0
M  V30 685 H 66.8895 -3.31228 -2.09274 0
M  V30 686 H 68.5865 -3.57975 -1.80707 0
M  V30 687 H 65.1765 -4.25176 -0.540665 0
M  V30 688 H 69.3605 -4.96112 0.136546 0
M  V30 689 H 64.6165 -6.019 1.07363 0
M  V30 690 H 68.7905 -6.74141 1.74664 0
M  V30 691 H 66.4175 -7.27025 2.22123 0
M  V30 692 N 67.9926 0.231505 -1.5589 0
M  V30 693 C 68.9406 1.30649 -1.92441 0
M  V30 694 C 69.9346 1.49037 -0.805254 0
M  V30 695 O 71.1406 1.50329 -0.990007 0
M  V30 696 H 67.5156 0.437812 -0.611412 0
M  V30 697 H 69.4866 0.970973 -2.82161 0
M  V30 698 C 68.2356 2.65179 -2.24889 0
M  V30 699 H 67.5586 2.51835 -3.10514 0
M  V30 700 H 68.9986 3.39234 -2.54355 0
M  V30 701 C 67.4576 3.19439 -1.07054 0
M  V30 702 O 67.9876 4.00371 -0.326499 0
M  V30 703 N 66.1936 2.77675 -0.85703 0
M  V30 704 H 65.7406 2.11969 -1.46379 0
M  V30 705 H 65.6986 3.14321 -0.0703223 0
M  V30 706 N 69.4707 1.49531 0.497807 0
M  V30 707 C 70.8817 1.52344 1.07927 0
M  V30 708 C 71.2327 0.311469 1.93712 0
M  V30 709 O 70.3577 -0.578405 2.08527 0
M  V30 710 C 70.9527 2.76062 1.96405 0
M  V30 711 C 69.5117 2.81643 2.49709 0
M  V30 712 C 68.6587 2.46299 1.27404 0
M  V30 713 H 71.6097 1.56182 0.281576 0
M  V30 714 H 71.6307 2.56405 2.81135 0
M  V30 715 H 71.1427 3.64254 1.33943 0
M  V30 716 H 69.2437 1.97739 3.15801 0
M  V30 717 H 69.3567 3.83891 2.86643 0
M  V30 718 H 67.7207 1.98148 1.60029 0
M  V30 719 H 68.5037 3.36769 0.66645 0
M  V30 720 N 70.9488 -0.749086 1.3866 0
M  V30 721 C 72.3648 -1.05276 1.19955 0
M  V30 722 C 72.5648 -2.01435 0.05134 0
M  V30 723 O 71.6208 -2.45232 -0.60147 0
M  V30 724 C 72.9338 -1.62853 2.52783 0
M  V30 725 C 74.4818 -1.75002 2.59506 0
M  V30 726 C 74.9568 -2.35991 3.92521 0
M  V30 727 N 76.4478 -2.43416 3.94085 0
M  V30 728 C 77.1828 -2.91511 4.9377 0
M  V30 729 N 76.6788 -3.39608 6.03853 0
M  V30 730 N 78.4718 -2.90592 4.81157 0
M  V30 731 H 70.6228 -0.111066 2.12109 0
M  V30 732 H 72.8858 -0.111901 0.941373 0
M  V30 733 H 72.5918 -0.99664 3.37283 0
M  V30 734 H 72.4658 -2.61854 2.715 0
M  V30 735 H 74.8528 -2.37317 1.75398 0
M  V30 736 H 74.9338 -0.74693 2.44652 0
M  V30 737 H 74.5778 -1.74308 4.77053 0
M  V30 738 H 74.5078 -3.3695 4.04688 0
M  V30 739 H 76.9988 -2.09405 3.14576 0
M  V30 740 H 77.3118 -3.74775 6.75843 0
M  V30 741 H 75.6568 -3.37653 6.07466 0
M  V30 742 H 78.8478 -2.52332 3.94267 0
M  V30 743 H 79.0208 -3.27762 5.58996 0
M  V30 744 N 72.4269 -1.23603 -0.977757 0
M  V30 745 C 73.6739 -1.06971 -1.71941 0
M  V30 746 C 74.0019 0.393009 -1.90488 0
M  V30 747 O 73.2569 1.30719 -1.4564 0
M  V30 748 C 73.5559 -1.7433 -3.11999 0
M  V30 749 C 73.2219 -3.24252 -3.13323 0
M  V30 750 C 71.8839 -3.65156 -3.13392 0
M  V30 751 C 74.2359 -4.20141 -3.08433 0
M  V30 752 C 71.5639 -5.00403 -3.0629 0
M  V30 753 C 73.9159 -5.55384 -3.02873 0
M  V30 754 C 72.5799 -5.95647 -3.01265 0
M  V30 755 H 71.8499 -0.391433 -0.629175 0
M  V30 756 H 74.4969 -1.53572 -1.14403 0
M  V30 757 H 72.8019 -1.20096 -3.7294 0
M  V30 758 H 74.4989 -1.58936 -3.68158 0
M  V30 759 H 71.0889 -2.91692 -3.14029 0
M  V30 760 H 75.2729 -3.89547 -3.07517 0
M  V30 761 H 70.5289 -5.3081 -3.03399 0
M  V30 762 H 74.7029 -6.29398 -2.98046 0
M  V30 763 H 72.3299 -7.0041 -2.95516 0
M  V30 764 N 73.905 1.17692 -1.04816 0
M  V30 765 C 74.853 2.23632 -0.63966 0
M  V30 766 C 75.847 1.6601 0.337219 0
M  V30 767 O 77.053 1.78844 0.203693 0
M  V30 768 H 73.428 0.727949 -0.188665 0
M  V30 769 H 75.399 2.55387 -1.54337 0
M  V30 770 C 74.148 3.4769 -0.0264051 0
M  V30 771 H 73.471 3.92331 -0.769164 0
M  V30 772 H 74.911 4.23418 0.222098 0
M  V30 773 C 73.37 3.13807 1.22584 0
M  V30 774 O 73.9 3.28236 2.31569 0
M  V30 775 N 72.106 2.68065 1.12202 0
M  V30 776 H 71.653 2.56525 0.235133 0
M  V30 777 H 71.611 2.45767 1.96076 0
M  V30 778 N 75.3831 0.828654 1.34056 0
M  V30 779 C 76.3461 0.259927 2.27721 0
M  V30 780 C 77.3461 -0.565478 1.50529 0
M  V30 781 O 78.5361 -0.38075 1.69988 0
M  V30 782 C 75.6681 -0.634944 3.34935 0
M  V30 783 H 76.8611 1.0863 2.79534 0
M  V30 784 H 74.4141 0.600951 1.44285 0
M  V30 785 H 75.1491 -1.48416 2.88346 0
M  V30 786 H 74.9341 -0.0444999 3.92075 0
M  V30 787 H 76.4241 -1.02648 4.04788 0
M  V30 788 N 76.8612 -1.46375 0.584142 0
M  V30 789 C 77.8112 -2.27371 -0.169232 0
M  V30 790 C 78.7952 -1.35955 -0.860523 0
M  V30 791 O 79.9872 -1.60119 -0.754382 0
M  V30 792 C 77.1162 -3.22334 -1.18134 0
M  V30 793 C 76.2022 -4.21235 -0.492088 0
M  V30 794 N 76.5932 -5.03766 0.453129 0
M  V30 795 C 74.8912 -4.39773 -0.742652 0
M  V30 796 C 75.5922 -5.75366 0.85609 0
M  V30 797 N 74.5682 -5.43214 0.204926 0
M  V30 798 H 78.3702 -2.88572 0.557097 0
M  V30 799 H 75.8842 -1.57242 0.406042 0
M  V30 800 H 77.8812 -3.79071 -1.73525 0
M  V30 801 H 76.5412 -2.62693 -1.90847 0
M  V30 802 H 77.5522 -5.11227 0.828723 0
M  V30 803 H 74.2292 -3.91279 -1.45625 0
M  V30 804 H 75.6192 -6.5172 1.63434 0
M  V30 805 N 78.3393 -0.321999 -1.54275 0
M  V30 806 C 79.5873 0.280489 -2.00144 0
M  V30 807 C 79.9083 1.52777 -1.21178 0
M  V30 808 O 79.1783 1.9338 -0.313187 0
M  V30 809 H 77.7583 0.106632 -0.73935 0
M  V30 810 H 80.4203 -0.438184 -1.8991 0
M  V30 811 H 79.5163 0.537972 -3.07428 0
M  V30 812 N 79.8174 1.5752 -0.0501392 0
M  V30 813 C 81.0944 1.83996 0.663685 0
M  V30 814 C 81.4744 0.938339 1.89099 0
M  V30 815 O 80.8224 -0.00087759 2.285 0
M  V30 816 C 81.0324 3.33702 1.02196 0
M  V30 817 C 82.3804 4.00691 1.40469 0
M  V30 818 O 83.4044 3.38321 1.11433 0
M  V30 819 O 82.2634 5.10658 1.94654 0
M  V30 820 H 79.3574 0.759385 0.32751 0
M  V30 821 H 81.9034 1.69514 -0.0794238 0
M  V30 822 H 80.6754 3.91015 0.149364 0
M  V30 823 H 80.2984 3.53368 1.82255 0
M  V30 824 N 81.2955 -0.223234 1.56011 0
M  V30 825 C 82.2585 -1.26014 1.9145 0
M  V30 826 C 83.2585 -1.3989 0.792937 0
M  V30 827 O 84.4485 -1.38184 1.0607 0
M  V30 828 C 81.5805 -2.63422 2.16383 0
M  V30 829 H 82.7735 -0.95796 2.84189 0
M  V30 830 H 80.3265 -0.463576 1.49267 0
M  V30 831 H 81.0615 -2.98741 1.2619 0
M  V30 832 H 80.8465 -2.54728 2.98088 0
M  V30 833 H 82.3365 -3.38249 2.44903 0
M  V30 834 N 82.7736 -1.49793 -0.48987 0
M  V30 835 C 83.7216 -1.67783 -1.61095 0
M  V30 836 C 84.7156 -0.543683 -1.60438 0
M  V30 837 O 85.9216 -0.723647 -1.64813 0
M  V30 838 H 82.2966 -0.529255 -0.534222 0
M  V30 839 H 84.2676 -2.61861 -1.43078 0
M  V30 840 C 83.0166 -1.77191 -2.99164 0
M  V30 841 H 82.3396 -2.63841 -3.0038 0
M  V30 842 H 83.7796 -1.93809 -3.77113 0
M  V30 843 C 82.2386 -0.519203 -3.32875 0
M  V30 844 O 82.7686 0.350124 -4.00171 0
M  V30 845 N 80.9746 -0.378816 -2.8812 0
M  V30 846 H 80.5216 -1.08725 -2.33531 0
M  V30 847 H 80.4796 0.458239 -3.11043 0
M  V30 848 N 84.2517 0.741722 -1.39055 0
M  V30 849 C 85.4797 1.53098 -1.39171 0
M  V30 850 C 85.8947 1.88794 0.0155099 0
M  V30 851 O 85.2517 1.53626 0.985159 0
M  V30 852 C 85.3027 2.82274 -2.2584 0
M  V30 853 O 85.0237 2.48097 -3.61081 0
M  V30 854 C 86.5247 3.76343 -2.34266 0
M  V30 855 H 83.7447 0.473335 -0.4756 0
M  V30 856 H 86.2887 0.917045 -1.82785 0
M  V30 857 H 84.4437 3.40015 -1.85656 0
M  V30 858 H 84.8577 3.31029 -4.06842 0
M  V30 859 H 86.3317 4.63898 -2.9917 0
M  V30 860 H 86.8087 4.17619 -1.35982 0
M  V30 861 H 87.4147 3.24523 -2.74891 0
M  V30 862 N 85.7298 1.2412 0.971189 0
M  V30 863 C 86.9788 1.07284 1.70801 0
M  V30 864 C 87.2918 -0.388902 1.91695 0
M  V30 865 O 88.4978 -0.677379 2.62914 0
M  V30 866 C 86.9538 1.87145 3.07416 0
M  V30 867 C 86.5618 3.37707 2.94377 0
M  V30 868 C 88.3058 1.78828 3.84995 0
M  V30 869 C 86.2128 4.09925 4.26281 0
M  V30 870 H 85.1428 0.397854 0.64049 0
M  V30 871 H 87.7938 1.4817 1.0825 0
M  V30 872 H 86.1758 1.39071 3.70777 0
M  V30 873 H 87.3498 3.93335 2.4005 0
M  V30 874 H 85.6648 3.46938 2.30267 0
M  V30 875 H 88.2618 2.30089 4.82662 0
M  V30 876 H 88.6048 0.75284 4.09436 0
M  V30 877 H 89.1378 2.24563 3.28354 0
M  V30 878 H 85.8768 5.13813 4.07033 0
M  V30 879 H 85.3968 3.59083 4.80437 0
M  V30 880 H 87.0758 4.1673 4.94919 0
M  V30 881 N 87.2079 -1.17134 1.05439 0
M  V30 882 C 88.4539 -1.87733 0.767077 0
M  V30 883 C 88.7869 -1.8098 -0.704253 0
M  V30 884 O 88.0619 -1.21951 -1.5152 0
M  V30 885 C 88.3449 -3.37659 1.25133 0
M  V30 886 C 88.1979 -3.53149 2.78578 0
M  V30 887 C 89.5169 -4.31768 0.852324 0
M  V30 888 H 86.6359 -0.681687 0.280129 0
M  V30 889 H 89.2779 -1.37732 1.30881 0
M  V30 890 H 87.4279 -3.80373 0.790469 0
M  V30 891 H 89.0999 -3.19434 3.32806 0
M  V30 892 H 87.3429 -2.95345 3.17732 0
M  V30 893 H 88.0139 -4.58403 3.07523 0
M  V30 894 H 90.4899 -3.96909 1.24911 0
M  V30 895 H 89.3659 -5.35199 1.21873 0
M  V30 896 H 89.6269 -4.41429 -0.243485 0
M  V30 897 N 88.686 -0.835752 -1.33615 0
M  V30 898 C 89.926 -0.43599 -1.99696 0
M  V30 899 C 90.29 0.98557 -1.64774 0
M  V30 900 O 91.491 1.48889 -2.23798 0
M  V30 901 C 89.762 -0.646721 -3.515 0
M  V30 902 S 91.321 -0.341715 -4.37467 0
M  V30 903 H 88.139 -0.164136 -0.691795 0
M  V30 904 H 90.741 -1.08436 -1.62671 0
M  V30 905 H 89.445 -1.68077 -3.74404 0
M  V30 906 H 88.976 0.0159173 -3.93397 0
M  V30 907 H 90.991 0.839708 -4.89043 0
M  V30 908 N 90.1641 1.46063 -0.591896 0
M  V30 909 C 91.1121 2.32124 0.148739 0
M  V30 910 C 92.1061 1.45035 0.875286 0
M  V30 911 O 93.3121 1.61609 0.792632 0
M  V30 912 H 89.6871 0.749024 0.066832 0
M  V30 913 H 91.6581 2.92392 -0.595783 0
M  V30 914 C 90.4071 3.28373 1.1431 0
M  V30 915 H 89.7301 3.95371 0.59346 0
M  V30 916 H 91.1701 3.91352 1.63155 0
M  V30 917 C 89.6291 2.54393 2.20875 0
M  V30 918 O 90.1591 2.31373 3.28374 0
M  V30 919 N 88.3651 2.14797 1.95731 0
M  V30 920 H 87.9121 2.33719 1.08319 0
M  V30 921 H 87.8701 1.65619 2.67241 0
M  V30 922 N 91.6422 0.330177 1.54103 0
M  V30 923 C 92.8672 -0.274893 2.0557 0
M  V30 924 C 93.2922 -1.44487 1.20437 0
M  V30 925 O 92.6502 -1.80021 0.214991 0
M  V30 926 C 92.6982 -0.68079 3.54115 0
M  V30 927 O 91.8022 -1.7824 3.71893 0
M  V30 928 H 91.1432 -0.0483849 0.662235 0
M  V30 929 H 93.6732 0.480508 1.98878 0
M  V30 930 H 93.6832 -0.961635 3.96505 0
M  V30 931 H 92.3582 0.174903 4.15532 0
M  V30 932 H 90.9352 -1.49985 3.41407 0
M  V30 933 N 93.1203 -1.57491 0.0584922 0
M  V30 934 C 94.0673 -2.11958 -0.913376 0
M  V30 935 C 95.0373 -1.02875 -1.30407 0
M  V30 936 O 96.2223 -1.30464 -1.39226 0
M  V30 937 C 93.3623 -2.67497 -2.18035 0
M  V30 938 C 92.4753 -3.90691 -1.84349 0
M  V30 939 C 91.6103 -4.3452 -3.05559 0
M  V30 940 C 90.6493 -5.50395 -2.67827 0
M  V30 941 N 89.7863 -5.89244 -3.81754 0
M  V30 942 H 94.6263 -2.94704 -0.442017 0
M  V30 943 H 92.1633 -1.45643 -0.206545 0
M  V30 944 H 94.1213 -2.978 -2.92183 0
M  V30 945 H 92.7513 -1.87537 -2.62735 0
M  V30 946 H 91.8033 -3.66934 -1.00319 0
M  V30 947 H 93.1153 -4.7489 -1.5258 0
M  V30 948 H 92.2693 -4.66414 -3.87998 0
M  V30 949 H 91.0083 -3.49147 -3.40511 0
M  V30 950 H 90.0133 -5.18165 -1.83806 0
M  V30 951 H 91.2383 -6.3749 -2.34059 0
M  V30 952 H 89.1843 -5.06823 -4.16493 0
M  V30 953 H 89.1013 -6.68151 -3.53708 0
M  V30 954 H 90.3693 -6.25756 -4.64811 0
M  V30 955 N 94.5984 0.214957 -1.56127 0
M  V30 956 C 95.8754 0.963093 -1.70247 0
M  V30 957 C 96.2554 2.02166 -0.60764 0
M  V30 958 O 95.6034 2.25244 0.384385 0
M  V30 959 C 95.8134 1.56756 -3.11815 0
M  V30 960 C 97.1614 2.0573 -3.7143 0
M  V30 961 O 98.1854 1.66637 -3.14818 0
M  V30 962 O 97.0444 2.77603 -4.70743 0
M  V30 963 H 94.1384 0.450321 -0.693643 0
M  V30 964 H 96.6844 0.206219 -1.68442 0
M  V30 965 H 95.4564 0.803533 -3.82961 0
M  V30 966 H 95.0794 2.3898 -3.17765 0
M  V30 967 N 96.0765 1.50051 0.48192 0
M  V30 968 C 97.3245 1.60181 1.23234 0
M  V30 969 C 97.6455 0.299176 1.92691 0
M  V30 970 O 96.9155 -0.682708 1.83619 0
M  V30 971 H 95.4955 0.590232 0.457859 0
M  V30 972 H 98.1575 1.86775 0.556881 0
M  V30 973 H 97.2535 2.40753 1.98607 0
M  V30 974 N 97.5546 -0.734337 1.39446 0
M  V30 975 C 98.8026 -1.49096 1.36436 0
M  V30 976 C 99.1236 -1.94961 -0.0388255 0
M  V30 977 O 98.3936 -1.69033 -0.990191 0
M  V30 978 H 96.9736 -0.5531 0.502085 0
M  V30 979 H 99.6356 -0.871725 1.74319 0
M  V30 980 H 98.7316 -2.37276 2.02747 0
M  V30 981 N 99.0327 -1.24633 -0.964593 0
M  V30 982 C 99.9957 -1.0424 -2.04124 0
M  V30 983 C 100.996 0.00137563 -1.608 0
M  V30 984 O 102.186 -0.239883 -1.7254 0
M  V30 985 C 99.3177 -0.580588 -3.3592 0
M  V30 986 H 100.511 -1.99803 -2.23649 0
M  V30 987 H 98.0637 -1.06899 -1.14027 0
M  V30 988 H 98.7987 0.3781 -3.22088 0
M  V30 989 H 98.5837 -1.33398 -3.6871 0
M  V30 990 H 100.074 -0.459034 -4.15069 0
M  V30 991 N 100.511 1.16574 -1.06058 0
M  V30 992 C 101.757 1.87565 -0.78683 0
M  V30 993 C 102.112 1.80012 0.679214 0
M  V30 994 O 101.405 1.20327 1.49104 0
M  V30 995 C 101.599 3.36195 -1.21275 0
M  V30 996 C 101.428 3.58216 -2.71866 0
M  V30 997 C 100.198 3.7444 -3.39298 0
M  V30 998 C 102.396 3.57134 -3.70081 0
M  V30 999 N 100.378 3.84389 -4.78663 0
M  V30 1000 C 101.749 3.73038 -4.9522 0
M  V30 1001 C 103.804 3.40332 -3.63426 0
M  V30 1002 C 102.507 3.73879 -6.14497 0
M  V30 1003 C 104.533 3.42466 -4.82153 0
M  V30 1004 C 103.895 3.58887 -6.06118 0
M  V30 1005 H 99.9938 0.704081 -0.340284 0
M  V30 1006 H 102.578 1.39885 -1.35426 0
M  V30 1007 H 100.749 3.82522 -0.673179 0
M  V30 1008 H 102.481 3.94839 -0.887917 0
M  V30 1009 H 99.2358 3.74662 -2.89699 0
M  V30 1010 H 99.6598 3.93138 -5.51155 0
M  V30 1011 H 104.302 3.26566 -2.68541 0
M  V30 1012 H 102.02 3.86427 -7.09718 0
M  V30 1013 H 105.606 3.30712 -4.78666 0
M  V30 1014 H 104.486 3.60454 -6.9645 0
M  V30 1015 N 101.989 0.842826 1.3317 0
M  V30 1016 C 103.237 0.439577 1.97262 0
M  V30 1017 C 103.558 -1.00548 1.67078 0
M  V30 1018 O 102.828 -1.70098 0.971779 0
M  V30 1019 H 101.408 0.159558 0.72976 0
M  V30 1020 H 104.07 1.07665 1.62463 0
M  V30 1021 H 103.166 0.574886 3.0676 0
M  V30 1022 N 103.467 -1.45747 0.599634 0
M  V30 1023 C 104.695 -2.06668 0.0978551 0
M  V30 1024 C 105.11 -1.44562 -1.21439 0
M  V30 1025 O 104.467 -0.556923 -1.73795 0
M  V30 1026 C 104.518 -3.61456 -0.0567044 0
M  V30 1027 O 104.239 -4.21242 1.20361 0
M  V30 1028 C 105.74 -4.39345 -0.590869 0
M  V30 1029 H 102.96 -0.667825 0.0651943 0
M  V30 1030 H 105.504 -1.87115 0.82511 0
M  V30 1031 H 103.659 -3.80378 -0.734251 0
M  V30 1032 H 104.073 -5.14323 1.02821 0
M  V30 1033 H 105.547 -5.48182 -0.648131 0
M  V30 1034 H 106.024 -4.08568 -1.61147 0
M  V30 1035 H 106.63 -4.25268 0.0523679 0
M  V30 1036 N 104.945 -0.338344 -1.53925 0
M  V30 1037 C 105.855 0.529421 -2.28548 0
M  V30 1038 C 106.871 1.11645 -1.3346 0
M  V30 1039 O 108.047 1.13325 -1.66492 0
M  V30 1040 C 105.112 1.66713 -3.03987 0
M  V30 1041 C 104.173 1.11041 -4.14691 0
M  V30 1042 C 103.406 2.19389 -4.86522 0
M  V30 1043 O 103.629 3.40013 -4.57982 0
M  V30 1044 O 102.563 1.83976 -5.73094 0
M  V30 1045 H 106.389 -0.0770399 -3.03602 0
M  V30 1046 H 103.974 -0.103555 -1.49041 0
M  V30 1047 H 105.856 2.32918 -3.5118 0
M  V30 1048 H 104.531 2.25949 -2.31794 0
M  V30 1049 H 103.438 0.413024 -3.71813 0
M  V30 1050 H 104.771 0.562975 -4.8897 0
M  V30 1051 N 106.423 1.57458 -0.0668435 0
M  V30 1052 C 107.355 2.09413 0.931601 0
M  V30 1053 C 108.368 1.02522 1.26464 0
M  V30 1054 O 109.557 1.30049 1.22269 0
M  V30 1055 C 106.657 2.53537 2.24882 0
M  V30 1056 C 105.83 3.83944 2.09537 0
M  V30 1057 C 104.889 4.14214 3.2452 0
M  V30 1058 O 103.915 4.83891 2.9973 0
M  V30 1059 N 105.117 3.67367 4.49469 0
M  V30 1060 H 107.882 2.95699 0.488048 0
M  V30 1061 H 105.443 1.61462 0.119009 0
M  V30 1062 H 107.435 2.70853 3.00701 0
M  V30 1063 H 106.005 1.72415 2.60753 0
M  V30 1064 H 105.225 3.76057 1.18215 0
M  V30 1065 H 106.513 4.69312 1.96529 0
M  V30 1066 H 105.911 3.11068 4.72497 0
M  V30 1067 H 104.468 3.89891 5.2233 0
M  V30 1068 N 107.901 -0.206675 1.56239 0
M  V30 1069 C 109.317 -0.557025 1.49564 0
M  V30 1070 C 109.517 -1.86424 0.764735 0
M  V30 1071 O 108.573 -2.50584 0.310491 0
M  V30 1072 C 109.886 -0.622478 2.94186 0
M  V30 1073 C 111.434 -0.712099 3.04792 0
M  V30 1074 C 111.909 -0.808767 4.50803 0
M  V30 1075 N 113.4 -0.8726 4.54907 0
M  V30 1076 C 114.135 -0.967365 5.65181 0
M  V30 1077 N 113.631 -1.02515 6.85173 0
M  V30 1078 N 115.424 -1.00366 5.53067 0
M  V30 1079 H 107.575 0.650943 2.02179 0
M  V30 1080 H 109.838 0.230387 0.919579 0
M  V30 1081 H 109.544 0.268727 3.50672 0
M  V30 1082 H 109.418 -1.4811 3.46905 0
M  V30 1083 H 111.805 -1.59374 2.48363 0
M  V30 1084 H 111.886 0.172489 2.55218 0
M  V30 1085 H 111.53 0.0684754 5.07854 0
M  V30 1086 H 111.46 -1.70899 4.98098 0
M  V30 1087 H 113.951 -0.837657 3.68499 0
M  V30 1088 H 114.264 -1.09765 7.64965 0
M  V30 1089 H 112.609 -0.994026 6.87855 0
M  V30 1090 H 115.8 -0.95527 4.58249 0
M  V30 1091 H 115.973 -1.07405 6.39037 0
M  V30 1092 N 109.379 -1.50304 -0.473955 0
M  V30 1093 C 110.289 -1.7174 -1.5982 0
M  V30 1094 C 111.305 -0.600457 -1.63311 0
M  V30 1095 O 112.481 -0.878441 -1.81233 0
M  V30 1096 C 109.546 -1.80427 -2.96052 0
M  V30 1097 C 108.607 -3.04148 -3.02972 0
M  V30 1098 C 107.84 -3.12411 -4.32706 0
M  V30 1099 O 108.063 -2.27542 -5.23049 0
M  V30 1100 O 106.997 -4.05113 -4.45159 0
M  V30 1101 H 110.823 -2.67035 -1.44657 0
M  V30 1102 H 108.408 -1.34366 -0.653148 0
M  V30 1103 H 110.29 -1.88338 -3.7697 0
M  V30 1104 H 108.965 -0.883156 -3.11419 0
M  V30 1105 H 107.872 -3.0174 -2.21142 0
M  V30 1106 H 109.205 -3.95829 -2.92541 0
M  V30 1107 N 110.857 0.726932 -1.39834 0
M  V30 1108 C 111.82 1.82269 -1.38962 0
M  V30 1109 C 112.82 1.58248 -0.285334 0
M  V30 1110 O 114.01 1.65499 -0.54366 0
M  V30 1111 C 111.142 3.20186 -1.17019 0
M  V30 1112 H 112.335 1.84443 -2.36476 0
M  V30 1113 H 109.888 0.931416 -1.25516 0
M  V30 1114 H 110.623 3.23669 -0.202204 0
M  V30 1115 H 110.408 3.3902 -1.96998 0
M  V30 1116 H 111.898 4.00235 -1.1917 0
M  V30 1117 N 112.336 1.25143 0.95797 0
M  V30 1118 C 113.582 1.09855 1.70469 0
M  V30 1119 C 113.915 -0.360187 1.90831 0
M  V30 1120 O 113.19 -1.26568 1.47685 0
M  V30 1121 C 113.473 1.8497 3.08963 0
M  V30 1122 C 113.326 3.38652 2.96032 0
M  V30 1123 C 114.645 1.63016 4.08795 0
M  V30 1124 H 111.764 0.400465 0.618706 0
M  V30 1125 H 114.406 1.53933 1.11376 0
M  V30 1126 H 112.556 1.47505 3.59409 0
M  V30 1127 H 114.228 3.85772 2.52938 0
M  V30 1128 H 112.471 3.66534 2.32025 0
M  V30 1129 H 113.142 3.8642 3.94187 0
M  V30 1130 H 115.618 1.95625 3.67247 0
M  V30 1131 H 114.494 2.18015 5.03747 0
M  V30 1132 H 114.755 0.570692 4.38401 0
M  V30 1133 N 113.814 -1.1601 1.06675 0
M  V30 1134 C 115.061 -1.86633 0.785781 0
M  V30 1135 C 115.389 -1.81929 -0.687896 0
M  V30 1136 O 114.644 -1.23253 -1.52011 0
M  V30 1137 C 114.943 -3.35547 1.23057 0
M  V30 1138 C 114.609 -3.60448 2.70902 0
M  V30 1139 C 113.271 -3.66954 3.11285 0
M  V30 1140 C 115.623 -3.7071 3.66365 0
M  V30 1141 C 112.951 -3.81225 4.45965 0
M  V30 1142 C 115.303 -3.86503 5.00797 0
M  V30 1143 C 113.967 -3.91252 5.40813 0
M  V30 1144 H 113.237 -0.682937 0.287538 0
M  V30 1145 H 115.884 -1.37146 1.33654 0
M  V30 1146 H 114.189 -3.87193 0.59907 0
M  V30 1147 H 115.886 -3.88583 0.990163 0
M  V30 1148 H 112.476 -3.56021 2.38636 0
M  V30 1149 H 116.66 -3.64991 3.36296 0
M  V30 1150 H 111.916 -3.83155 4.76447 0
M  V30 1151 H 116.09 -3.93385 5.74649 0
M  V30 1152 H 113.717 -4.02062 6.45174 0
M  V30 1153 N 115.292 -0.849877 -1.32721 0
M  V30 1154 C 116.703 -0.506188 -1.79707 0
M  V30 1155 C 117.054 0.975627 -1.70223 0
M  V30 1156 O 116.179 1.76078 -1.25799 0
M  V30 1157 C 116.774 -0.912044 -3.26293 0
M  V30 1158 C 115.333 -0.620326 -3.71253 0
M  V30 1159 C 114.48 -1.11439 -2.53922 0
M  V30 1160 H 117.431 -1.03754 -1.20087 0
M  V30 1161 H 117.452 -0.226493 -3.79825 0
M  V30 1162 H 116.964 -1.99057 -3.33164 0
M  V30 1163 H 115.065 0.447674 -3.69901 0
M  V30 1164 H 115.178 -1.18327 -4.64258 0
M  V30 1165 H 113.542 -0.534834 -2.49021 0
M  V30 1166 H 114.325 -2.19992 -2.6355 0
M  V30 1167 N 116.77 1.45427 -0.607355 0
M  V30 1168 C 118.017 2.02241 -0.102455 0
M  V30 1169 C 118.345 1.4758 1.26691 0
M  V30 1170 O 117.6 0.640468 1.84923 0
M  V30 1171 C 117.899 3.57398 -0.0129263 0
M  V30 1172 C 117.565 4.3121 -1.31792 0
M  V30 1173 C 116.227 4.51092 -1.67539 0
M  V30 1174 C 118.579 4.73401 -2.18039 0
M  V30 1175 C 115.907 5.10422 -2.89285 0
M  V30 1176 C 118.259 5.34078 -3.39034 0
M  V30 1177 C 116.923 5.52184 -3.75033 0
M  V30 1178 H 116.193 0.740051 -0.037491 0
M  V30 1179 H 118.84 1.74494 -0.788926 0
M  V30 1180 H 117.145 3.84421 0.756806 0
M  V30 1181 H 118.842 3.99061 0.393881 0
M  V30 1182 H 115.432 4.16047 -1.02968 0
M  V30 1183 H 119.616 4.57774 -1.91721 0
M  V30 1184 H 114.872 5.22629 -3.17283 0
M  V30 1185 H 119.046 5.65724 -4.06115 0
M  V30 1186 H 116.673 5.97925 -4.69457 0
M  V30 1187 N 118.248 0.346503 1.53744 0
M  V30 1188 C 119.18 -0.543316 2.22667 0
M  V30 1189 C 120.193 -1.06159 1.23427 0
M  V30 1190 O 121.382 -0.971235 1.49764 0
M  V30 1191 C 118.482 -1.76076 2.89569 0
M  V30 1192 C 117.655 -1.37727 4.15151 0
M  V30 1193 C 116.714 -2.45471 4.65436 0
M  V30 1194 O 115.74 -2.08655 5.29577 0
M  V30 1195 N 116.942 -3.7677 4.41616 0
M  V30 1196 H 119.707 0.0469703 2.99663 0
M  V30 1197 H 117.268 0.170766 1.60997 0
M  V30 1198 H 119.26 -2.47593 3.20125 0
M  V30 1199 H 117.83 -2.25835 2.16142 0
M  V30 1200 H 117.05 -0.492746 3.91108 0
M  V30 1201 H 118.338 -1.09708 4.96832 0
M  V30 1202 H 117.736 -4.09467 3.90325 0
M  V30 1203 H 116.293 -4.44448 4.7677 0
M  V30 1204 N 119.726 -1.57421 0.075193 0
M  V30 1205 C 121.137 -1.81021 -0.456964 0
M  V30 1206 C 121.488 -0.98936 -1.69429 0
M  V30 1207 O 120.613 -0.212865 -2.15351 0
M  V30 1208 C 121.208 -3.28329 -0.83581 0
M  V30 1209 C 119.767 -3.52764 -1.31281 0
M  V30 1210 C 118.914 -2.75676 -0.299648 0
M  V30 1211 H 121.865 -1.55822 0.300856 0
M  V30 1212 H 121.886 -3.40564 -1.69696 0
M  V30 1213 H 121.398 -3.88046 0.0649238 0
M  V30 1214 H 119.499 -2.98355 -2.23193 0
M  V30 1215 H 119.612 -4.61451 -1.28839 0
M  V30 1216 H 117.976 -2.42538 -0.777641 0
M  V30 1217 H 118.759 -3.38132 0.593417 0
M  V30 1218 N 121.204 0.198386 -1.56346 0
M  V30 1219 C 122.452 0.91747 -1.80075 0
M  V30 1220 C 122.773 1.83929 -0.647692 0
M  V30 1221 O 122.043 1.93029 0.334166 0
M  V30 1222 H 120.623 0.341774 -0.664228 0
M  V30 1223 H 123.285 0.204684 -1.93822 0
M  V30 1224 H 122.381 1.51055 -2.7311 0
M  V30 1225 N 122.682 1.50554 0.465978 0
M  V30 1226 C 123.907 1.65838 1.24549 0
M  V30 1227 C 124.332 0.343486 1.84937 0
M  V30 1228 O 123.69 -0.69324 1.67523 0
M  V30 1229 C 123.738 2.75533 2.32624 0
M  V30 1230 O 122.842 2.37142 3.37398 0
M  V30 1231 H 122.183 0.553893 0.366194 0
M  V30 1232 H 124.713 1.96959 0.553927 0
M  V30 1233 H 124.723 2.98763 2.77857 0
M  V30 1234 H 123.398 3.70962 1.88043 0
M  V30 1235 H 121.975 2.24377 2.97841 0
M  V30 1236 N 124.16 -0.719506 1.40217 0
M  V30 1237 C 125.406 -1.48152 1.38488 0
M  V30 1238 C 125.739 -1.94195 -0.0141867 0
M  V30 1239 O 125.014 -1.67884 -0.982096 0
M  V30 1240 C 125.297 -2.71035 2.37091 0
M  V30 1241 C 125.15 -2.30912 3.86005 0
M  V30 1242 C 126.469 -3.73182 2.33288 0
M  V30 1243 H 123.588 -0.537395 0.504357 0
M  V30 1244 H 126.23 -0.821472 1.71324 0
M  V30 1245 H 124.38 -3.27352 2.0922 0
M  V30 1246 H 126.052 -1.80107 4.24687 0
M  V30 1247 H 124.295 -1.62958 4.02029 0
M  V30 1248 H 124.966 -3.18978 4.50508 0
M  V30 1249 H 127.442 -3.26485 2.57966 0
M  V30 1250 H 126.318 -4.56806 3.04334 0
M  V30 1251 H 126.579 -4.21202 1.34317 0
M  V30 1252 N 125.638 -1.25649 -0.95132 0
M  V30 1253 C 126.601 -1.06399 -2.03007 0
M  V30 1254 C 127.601 -0.0156794 -1.60792 0
M  V30 1255 O 128.791 -0.25817 -1.72276 0
M  V30 1256 C 125.923 -0.616184 -3.35285 0
M  V30 1257 H 127.116 -2.02164 -2.21517 0
M  V30 1258 H 124.669 -1.08103 -1.12887 0
M  V30 1259 H 125.404 0.343917 -3.22471 0
M  V30 1260 H 125.189 -1.37301 -3.67275 0
M  V30 1261 H 126.679 -0.503032 -4.14559 0
M  V30 1262 N 127.117 1.15442 -1.07289 0
M  V30 1263 C 128.027 2.23786 -0.704057 0
M  V30 1264 C 129.043 1.7166 0.284413 0
M  V30 1265 O 130.219 2.00972 0.131205 0
M  V30 1266 C 127.284 3.46535 -0.106792 0
M  V30 1267 C 126.345 4.13654 -1.14842 0
M  V30 1268 C 125.578 5.30544 -0.57956 0
M  V30 1269 O 125.801 5.67187 0.604585 0
M  V30 1270 O 124.735 5.87154 -1.32414 0
M  V30 1271 H 128.561 2.57664 -1.60757 0
M  V30 1272 H 126.146 1.23152 -0.845803 0
M  V30 1273 H 128.028 4.20804 0.224048 0
M  V30 1274 H 126.703 3.14407 0.770049 0
M  V30 1275 H 125.61 3.4131 -1.5316 0
M  V30 1276 H 126.943 4.49861 -1.99714 0
M  V30 1277 N 128.595 0.856903 1.32268 0
M  V30 1278 C 129.841 0.462069 1.97466 0
M  V30 1279 C 130.174 -0.980298 1.67642 0
M  V30 1280 O 129.449 -1.68824 0.965858 0
M  V30 1281 C 129.732 0.704336 3.53145 0
M  V30 1282 C 129.585 2.19529 3.9259 0
M  V30 1283 C 130.904 0.1622 4.39801 0
M  V30 1284 H 128.023 0.169357 0.717278 0
M  V30 1285 H 130.665 1.07574 1.56614 0
M  V30 1286 H 128.815 0.181999 3.88073 0
M  V30 1287 H 130.487 2.78387 3.67829 0
M  V30 1288 H 128.73 2.67292 3.41668 0
M  V30 1289 H 129.401 2.31549 5.01088 0
M  V30 1290 H 131.877 0.608905 4.11621 0
M  V30 1291 H 130.753 0.361265 5.4771 0
M  V30 1292 H 131.014 -0.935158 4.32096 0
M  V30 1293 N 130.073 -1.45103 0.615059 0
M  V30 1294 C 131.313 -2.04069 0.116282 0
M  V30 1295 C 131.677 -1.4721 -1.2326 0
M  V30 1296 O 132.878 -1.97577 -1.82255 0
M  V30 1297 C 131.149 -3.57298 0.085482 0
M  V30 1298 S 132.708 -4.37394 -0.351015 0
M  V30 1299 H 129.526 -0.709006 0.0532183 0
M  V30 1300 H 132.128 -1.77709 0.81484 0
M  V30 1301 H 130.832 -3.9619 1.0706 0
M  V30 1302 H 130.363 -3.88244 -0.634835 0
M  V30 1303 H 132.378 -4.69734 -1.59889 0
M  V30 1304 N 131.551 -0.354651 -1.53558 0
M  V30 1305 C 132.8 0.239504 -2.00273 0
M  V30 1306 C 133.113 1.50759 -1.24623 0
M  V30 1307 O 134.319 2.17968 -1.61871 0
M  V30 1308 C 132.775 0.477341 -3.5672 0
M  V30 1309 C 132.383 -0.775488 -4.41237 0
M  V30 1310 C 134.127 1.02975 -4.11821 0
M  V30 1311 C 132.034 -0.507838 -5.89216 0
M  V30 1312 H 130.964 0.0932743 -0.748208 0
M  V30 1313 H 133.615 -0.471701 -1.77334 0
M  V30 1314 H 131.997 1.24953 -3.7577 0
M  V30 1315 H 133.171 -1.54963 -4.33962 0
M  V30 1316 H 131.486 -1.25033 -3.97185 0
M  V30 1317 H 134.083 1.24513 -5.2 0
M  V30 1318 H 134.426 1.98862 -3.65731 0
M  V30 1319 H 134.959 0.317994 -3.96527 0
M  V30 1320 H 131.698 -1.43674 -6.39561 0
M  V30 1321 H 131.218 0.228011 -5.99366 0
M  V30 1322 H 132.897 -0.129238 -6.46871 0
M  V30 1323 N 133.029 1.57378 -0.0835403 0
M  V30 1324 C 134.257 1.98263 0.59157 0
M  V30 1325 C 134.672 0.962302 1.62435 0
M  V30 1326 O 134.029 -0.049581 1.82433 0
M  V30 1327 C 134.08 3.39214 1.24965 0
M  V30 1328 O 133.801 4.37339 0.258186 0
M  V30 1329 C 135.302 3.95038 2.01147 0
M  V30 1330 H 132.522 0.651773 0.159477 0
M  V30 1331 H 135.066 2.03878 -0.159415 0
M  V30 1332 H 133.221 3.34649 1.95164 0
M  V30 1333 H 133.635 5.19371 0.731734 0
M  V30 1334 H 135.109 4.95848 2.42567 0
M  V30 1335 H 135.586 3.32222 2.87272 0
M  V30 1336 H 136.192 4.0304 1.35789 0
M  V30 1337 N 134.507 -0.190092 1.56449 0
M  V30 1338 C 135.754 -0.909705 1.80916 0
M  V30 1339 C 136.082 -1.83047 0.657583 0
M  V30 1340 O 135.337 -1.92428 -0.356356 0
M  V30 1341 C 135.636 -1.75382 3.1141 0
M  V30 1342 C 135.302 -0.983606 4.40041 0
M  V30 1343 C 133.964 -0.770967 4.74984 0
M  V30 1344 C 136.316 -0.442024 5.19322 0
M  V30 1345 C 133.644 -0.0053448 5.867 0
M  V30 1346 C 135.996 0.310412 6.31838 0
M  V30 1347 C 134.66 0.534023 6.6536 0
M  V30 1348 H 133.93 -0.332885 0.662019 0
M  V30 1349 H 136.577 -0.175762 1.90692 0
M  V30 1350 H 134.882 -2.55659 2.96893 0
M  V30 1351 H 136.579 -2.31331 3.27547 0
M  V30 1352 H 133.169 -1.15936 4.12622 0
M  V30 1353 H 137.353 -0.593693 4.92736 0
M  V30 1354 H 132.609 0.177825 6.11141 0
M  V30 1355 H 136.783 0.737419 6.92485 0
M  V30 1356 H 134.41 1.12918 7.51767 0
M  V30 1357 N 135.985 -1.50799 -0.457987 0
M  V30 1358 C 137.262 -1.52968 -1.21902 0
M  V30 1359 C 137.642 -0.281906 -2.09209 0
M  V30 1360 O 136.99 0.734076 -2.16388 0
M  V30 1361 C 137.2 -2.8326 -2.03875 0
M  V30 1362 C 138.548 -3.34425 -2.6162 0
M  V30 1363 O 139.572 -2.8467 -2.14106 0
M  V30 1364 O 138.431 -4.21188 -3.48228 0
M  V30 1365 H 135.525 -0.614129 -0.553873 0
M  V30 1366 H 138.071 -1.63098 -0.468739 0
M  V30 1367 H 136.843 -3.65543 -1.39621 0
M  V30 1368 H 136.466 -2.76195 -2.8601 0
M  V30 1369 N 137.463 0.71206 -1.40597 0
M  V30 1370 C 138.395 1.83704 -1.37061 0
M  V30 1371 C 139.408 1.60453 -0.275426 0
M  V30 1372 O 140.597 1.70262 -0.53602 0
M  V30 1373 C 137.697 3.20172 -1.11099 0
M  V30 1374 C 136.87 3.7059 -2.3234 0
M  V30 1375 C 135.929 4.85681 -2.02485 0
M  V30 1376 O 134.955 4.9815 -2.75382 0
M  V30 1377 N 136.157 5.71735 -1.00497 0
M  V30 1378 H 138.922 1.87235 -2.34016 0
M  V30 1379 H 136.483 0.893739 -1.34996 0
M  V30 1380 H 138.475 3.94768 -0.891064 0
M  V30 1381 H 137.045 3.11767 -0.227989 0
M  V30 1382 H 136.265 2.87085 -2.7014 0
M  V30 1383 H 137.553 4.01011 -3.13157 0
M  V30 1384 H 136.951 5.64275 -0.401298 0
M  V30 1385 H 135.508 6.463 -0.844942 0
M  V30 1386 N 138.941 1.26152 0.944643 0
M  V30 1387 C 139.904 1.07474 2.0244 0
M  V30 1388 C 140.904 0.0242064 1.60782 0
M  V30 1389 O 142.094 0.267302 1.72137 0
M  V30 1390 C 139.226 0.633956 3.34953 0
M  V30 1391 H 140.419 2.03336 2.20442 0
M  V30 1392 H 137.972 1.087 1.12312 0
M  V30 1393 H 138.707 -0.326811 3.22649 0
M  V30 1394 H 138.492 1.39247 3.66542 0
M  V30 1395 H 139.982 0.52501 4.14287 0
M  V30 1396 N 140.419 -1.14872 1.07899 0
M  V30 1397 C 141.367 -2.21857 0.698727 0
M  V30 1398 C 142.361 -1.66845 -0.293086 0
M  V30 1399 O 143.567 -1.79321 -0.156204 0
M  V30 1400 H 139.942 -0.722691 0.207899 0
M  V30 1401 H 141.913 -2.51205 1.61054 0
M  V30 1402 C 140.662 -3.47498 0.11858 0
M  V30 1403 H 139.985 -3.90154 0.872914 0
M  V30 1404 H 141.425 -4.23858 -0.109759 0
M  V30 1405 C 139.884 -3.16947 -1.1422 0
M  V30 1406 O 140.414 -3.3426 -2.22785 0
M  V30 1407 N 138.62 -2.70946 -1.05055 0
M  V30 1408 H 138.167 -2.57058 -0.167038 0
M  V30 1409 H 138.125 -2.50879 -1.89491 0
M  V30 1410 N 141.898 -0.863906 -1.31812 0
M  V30 1411 C 142.828 -0.330843 -2.31144 0
M  V30 1412 C 143.809 0.575005 -1.60087 0
M  V30 1413 O 144.994 0.493304 -1.8783 0
M  V30 1414 C 142.124 0.47374 -3.44054 0
M  V30 1415 C 141.078 -0.338481 -4.26659 0
M  V30 1416 C 140.404 0.591412 -5.31419 0
M  V30 1417 C 141.704 -1.56926 -4.98168 0
M  V30 1418 H 143.398 -1.16086 -2.75979 0
M  V30 1419 H 140.944 -0.559657 -1.32679 0
M  V30 1420 H 142.897 0.857143 -4.12591 0
M  V30 1421 H 141.621 1.33721 -2.9797 0
M  V30 1422 H 140.28 -0.703754 -3.59782 0
M  V30 1423 H 139.928 1.45199 -4.81587 0
M  V30 1424 H 139.628 0.0519022 -5.87577 0
M  V30 1425 H 141.152 0.97179 -6.02817 0
M  V30 1426 H 142.566 -1.25764 -5.59336 0
M  V30 1427 H 140.963 -2.04739 -5.64094 0
M  V30 1428 H 142.033 -2.32544 -4.25501 0
M  V30 1429 N 143.376 1.44774 -0.622745 0
M  V30 1430 C 144.604 2.06487 -0.130722 0
M  V30 1431 C 145.019 1.46476 1.19123 0
M  V30 1432 O 144.376 0.584502 1.72887 0
M  V30 1433 C 144.427 3.615 -0.000807207 0
M  V30 1434 O 144.148 4.19274 -1.27048 0
M  V30 1435 C 145.649 4.40229 0.520898 0
M  V30 1436 H 142.869 0.666704 -0.0758106 0
M  V30 1437 H 145.413 1.85779 -0.854774 0
M  V30 1438 H 143.568 3.81498 0.673643 0
M  V30 1439 H 143.982 5.12622 -1.1099 0
M  V30 1440 H 145.456 5.49144 0.560838 0
M  V30 1441 H 145.933 4.1108 1.54627 0
M  V30 1442 H 146.539 4.25131 -0.120018 0
M  V30 1443 N 144.854 0.36279 1.53368 0
M  V30 1444 C 146.1 -0.228113 2.01513 0
M  V30 1445 C 146.433 -1.48648 1.2497 0
M  V30 1446 O 145.708 -1.91459 0.342616 0
M  V30 1447 C 145.991 -0.522884 3.56284 0
M  V30 1448 C 145.844 0.74892 4.43521 0
M  V30 1449 C 147.163 -1.32461 4.19693 0
M  V30 1450 H 144.282 -0.0814343 0.732487 0
M  V30 1451 H 146.924 0.48713 1.83649 0
M  V30 1452 H 145.074 -1.1322 3.71636 0
M  V30 1453 H 146.746 1.38648 4.39971 0
M  V30 1454 H 144.989 1.36986 4.11603 0
M  V30 1455 H 145.66 0.497667 5.49752 0
M  V30 1456 H 148.136 -0.809203 4.08156 0
M  V30 1457 H 147.012 -1.49961 5.28018 0
M  V30 1458 H 147.273 -2.33232 3.75573 0
M  V30 1459 N 146.332 -1.57332 0.0918853 0
M  V30 1460 C 147.279 -2.13847 -0.868211 0
M  V30 1461 C 148.249 -1.05618 -1.28196 0
M  V30 1462 O 149.434 -1.33387 -1.36427 0
M  V30 1463 C 146.574 -2.72062 -2.12312 0
M  V30 1464 C 145.687 -3.94514 -1.7602 0
M  V30 1465 C 144.822 -4.40903 -2.96273 0
M  V30 1466 C 143.861 -5.55953 -2.56092 0
M  V30 1467 N 142.998 -5.97209 -3.69169 0
M  V30 1468 H 147.838 -2.95575 -0.379406 0
M  V30 1469 H 145.375 -1.46048 -0.175606 0
M  V30 1470 H 147.333 -3.03931 -2.858 0
M  V30 1471 H 145.963 -1.93068 -2.58698 0
M  V30 1472 H 145.015 -3.68979 -0.925135 0
M  V30 1473 H 146.327 -4.7802 -1.42472 0
M  V30 1474 H 145.481 -4.74539 -3.78018 0
M  V30 1475 H 144.22 -3.56291 -3.33029 0
M  V30 1476 H 143.225 -5.21948 -1.72773 0
M  V30 1477 H 144.45 -6.42311 -2.20484 0
M  V30 1478 H 142.396 -5.15543 -4.05649 0
M  V30 1479 H 142.313 -6.75504 -3.39456 0
M  V30 1480 H 143.581 -6.35475 -4.51434 0
M  V30 1481 N 147.81 0.181792 -1.56548 0
M  V30 1482 C 148.74 1.22765 -1.98623 0
M  V30 1483 C 149.721 1.46747 -0.860189 0
M  V30 1484 O 150.906 1.58259 -1.12551 0
M  V30 1485 C 148.036 2.56894 -2.33715 0
M  V30 1486 C 146.99 2.475 -3.49182 0
M  V30 1487 C 146.316 3.86023 -3.69986 0
M  V30 1488 C 147.616 1.98866 -4.82959 0
M  V30 1489 H 149.31 0.877942 -2.86239 0
M  V30 1490 H 146.856 0.42088 -1.37712 0
M  V30 1491 H 148.809 3.30253 -2.61746 0
M  V30 1492 H 147.533 2.93632 -1.42997 0
M  V30 1493 H 146.192 1.76596 -3.21262 0
M  V30 1494 H 145.84 4.20136 -2.76576 0
M  V30 1495 H 145.54 3.80609 -4.47672 0
M  V30 1496 H 147.064 4.60984 -4.00407 0
M  V30 1497 H 148.478 2.61992 -5.09934 0
M  V30 1498 H 146.875 2.04424 -5.64208 0
M  V30 1499 H 147.945 0.942465 -4.75653 0
M  V30 1500 N 149.288 1.51039 0.449983 0
M  V30 1501 C 150.699 1.557 1.03026 0
M  V30 1502 C 151.05 0.372939 1.92623 0
M  V30 1503 O 150.175 -0.511771 2.10261 0
M  V30 1504 C 150.77 2.82171 1.87523 0
M  V30 1505 C 149.329 2.89444 2.40622 0
M  V30 1506 C 148.476 2.50228 1.19504 0
M  V30 1507 H 151.427 1.56999 0.231745 0
M  V30 1508 H 151.448 2.65219 2.72835 0
M  V30 1509 H 150.96 3.68331 1.22286 0
M  V30 1510 H 149.061 2.07685 3.0935 0
M  V30 1511 H 149.174 3.92816 2.74285 0
M  V30 1512 H 147.538 2.03139 1.53644 0
M  V30 1513 H 148.321 3.38719 0.558972 0
M  V30 1514 N 150.766 -0.704594 1.40972 0
M  V30 1515 C 152.043 -1.45847 1.30338 0
M  V30 1516 C 152.423 -2.10973 -0.0732344 0
M  V30 1517 O 151.771 -2.00997 -1.08685 0
M  V30 1518 C 151.981 -2.48525 2.45023 0
M  V30 1519 C 153.329 -3.1404 2.8577 0
M  V30 1520 O 154.353 -2.58848 2.44696 0
M  V30 1521 O 153.212 -4.13981 3.56766 0
M  V30 1522 H 150.306 -0.649092 0.512454 0
M  V30 1523 H 152.852 -0.735836 1.52917 0
M  V30 1524 H 151.624 -1.98994 3.36923 0
M  V30 1525 H 151.247 -3.2831 2.24272 0
M  V30 1526 N 152.244 -1.26651 -0.937939 0
M  V30 1527 C 153.492 -1.12165 -1.68118 0
M  V30 1528 C 153.813 0.334983 -1.92101 0
M  V30 1529 O 153.083 1.23583 -1.52 0
M  V30 1530 H 151.663 -0.412093 -0.623048 0
M  V30 1531 H 154.325 -1.59027 -1.12678 0
M  V30 1532 H 153.421 -1.64289 -2.6536 0
M  V30 1533 N 153.722 1.14298 -1.08507 0
M  V30 1534 C 154.952 1.88945 -0.835663 0
M  V30 1535 C 155.36 1.78894 0.615928 0
M  V30 1536 O 154.703 1.1468 1.43506 0
M  V30 1537 C 154.765 3.39585 -1.17994 0
M  V30 1538 C 154.429 3.7342 -2.63451 0
M  V30 1539 C 155.426 3.73454 -3.61702 0
M  V30 1540 C 153.111 4.03368 -2.99332 0
M  V30 1541 C 155.105 4.02961 -4.93864 0
M  V30 1542 C 152.792 4.32538 -4.31687 0
M  V30 1543 C 153.79 4.32318 -5.28763 0
M  V30 1544 O 153.478 4.6078 -6.58739 0
M  V30 1545 H 153.21 0.605307 -0.300965 0
M  V30 1546 H 155.764 1.45673 -1.44806 0
M  V30 1547 H 153.994 3.83315 -0.51055 0
M  V30 1548 H 155.683 3.9554 -0.911182 0
M  V30 1549 H 156.449 3.50403 -3.35325 0
M  V30 1550 H 152.328 4.02692 -2.24411 0
M  V30 1551 H 155.872 4.02704 -5.69627 0
M  V30 1552 H 151.769 4.55059 -4.57812 0
M  V30 1553 H 152.537 4.78492 -6.64069 0
M  V30 1554 N 155.201 0.870884 1.31352 0
M  V30 1555 C 156.111 0.330783 2.32256 0
M  V30 1556 C 157.127 -0.559767 1.6475 0
M  V30 1557 O 158.303 -0.456263 1.96164 0
M  V30 1558 C 155.368 -0.458137 3.4366 0
M  V30 1559 C 154.429 0.460482 4.26823 0
M  V30 1560 C 153.662 -0.290881 5.32907 0
M  V30 1561 O 153.885 -1.51885 5.49806 0
M  V30 1562 O 152.819 0.351732 6.00871 0
M  V30 1563 H 156.645 1.16718 2.80376 0
M  V30 1564 H 154.23 0.634285 1.35267 0
M  V30 1565 H 156.112 -0.905343 4.1156 0
M  V30 1566 H 154.787 -1.27106 2.97701 0
M  V30 1567 H 153.694 0.956207 3.61673 0
M  V30 1568 H 155.027 1.23903 4.7635 0
M  V30 1569 N 156.679 -1.44442 0.630414 0
M  V30 1570 C 157.926 -2.02052 0.134617 0
M  V30 1571 C 158.254 -1.49576 -1.24327 0
M  V30 1572 O 157.509 -0.669806 -1.83881 0
M  V30 1573 C 157.808 -3.57332 0.0697835 0
M  V30 1574 C 157.474 -4.29058 1.38635 0
M  V30 1575 C 156.136 -4.4837 1.74694 0
M  V30 1576 C 158.488 -4.69872 2.25543 0
M  V30 1577 C 155.816 -5.05756 2.97369 0
M  V30 1578 C 158.168 -5.28616 3.47487 0
M  V30 1579 C 156.832 -5.46147 3.8377 0
M  V30 1580 H 156.102 -0.739361 0.0492598 0
M  V30 1581 H 158.749 -1.73217 0.816586 0
M  V30 1582 H 157.054 -3.85577 -0.695553 0
M  V30 1583 H 158.751 -3.99637 -0.330344 0
M  V30 1584 H 155.341 -4.14357 1.09574 0
M  V30 1585 H 159.525 -4.54666 1.98979 0
M  V30 1586 H 154.781 -5.17515 3.25558 0
M  V30 1587 H 158.955 -5.59192 4.15063 0
M  V30 1588 H 156.582 -5.9038 4.7891 0
M  V30 1589 N 158.157 -0.370918 -1.53173 0
M  V30 1590 C 159.104 0.473035 -2.259 0
M  V30 1591 C 160.074 1.07311 -1.26781 0
M  V30 1592 O 161.259 1.1046 -1.55574 0
M  V30 1593 C 158.399 1.60405 -3.05556 0
M  V30 1594 C 157.512 1.02863 -4.19575 0
M  V30 1595 C 156.647 2.12918 -4.86661 0
M  V30 1596 C 155.686 1.52869 -5.92704 0
M  V30 1597 N 154.823 2.56779 -6.53459 0
M  V30 1598 H 159.663 -0.153649 -2.97604 0
M  V30 1599 H 157.2 -0.0875946 -1.46839 0
M  V30 1600 H 159.158 2.27034 -3.50016 0
M  V30 1601 H 157.788 2.20131 -2.36097 0
M  V30 1602 H 156.84 0.252465 -3.79561 0
M  V30 1603 H 158.152 0.549642 -4.95762 0
M  V30 1604 H 157.306 2.87356 -5.34333 0
M  V30 1605 H 156.045 2.6417 -4.09958 0
M  V30 1606 H 155.05 0.769479 -5.44389 0
M  V30 1607 H 156.275 1.02435 -6.7133 0
M  V30 1608 H 154.221 3.07235 -5.79606 0
M  V30 1609 H 154.138 2.13583 -7.25202 0
M  V30 1610 H 155.406 3.30903 -7.05779 0
M  V30 1611 N 159.635 1.57281 -0.100228 0
M  V30 1612 C 160.882 1.94537 0.562268 0
M  V30 1613 C 161.21 0.982315 1.67871 0
M  V30 1614 O 160.465 0.00280936 1.957 0
M  V30 1615 C 160.764 3.38305 1.15259 0
M  V30 1616 C 160.43 4.50618 0.159409 0
M  V30 1617 C 159.092 4.81066 -0.113741 0
M  V30 1618 C 161.444 5.18615 -0.518461 0
M  V30 1619 C 158.772 5.76835 -1.07137 0
M  V30 1620 C 161.124 6.15412 -1.46459 0
M  V30 1621 C 159.788 6.44262 -1.74592 0
M  V30 1622 H 159.058 0.711863 0.205748 0
M  V30 1623 H 161.705 1.90679 -0.17715 0
M  V30 1624 H 160.01 3.38766 1.96836 0
M  V30 1625 H 161.707 3.64435 1.67297 0
M  V30 1626 H 158.297 4.2689 0.382491 0
M  V30 1627 H 162.481 4.95264 -0.320581 0
M  V30 1628 H 157.737 5.975 -1.29628 0
M  V30 1629 H 161.911 6.67194 -1.99564 0
M  V30 1630 H 159.538 7.1828 -2.48953 0
M  V30 1631 N 161.113 -0.173488 1.56642 0
M  V30 1632 C 162.524 -0.736155 1.71574 0
M  V30 1633 C 162.875 -1.82888 0.710389 0
M  V30 1634 O 162 -2.16017 -0.1287 0
M  V30 1635 C 162.595 -1.34211 3.11083 0
M  V30 1636 C 161.154 -1.85162 3.27707 0
M  V30 1637 C 160.301 -0.729765 2.67525 0
M  V30 1638 H 163.252 0.0518786 1.58615 0
M  V30 1639 H 163.273 -2.21178 3.09613 0
M  V30 1640 H 162.785 -0.546579 3.84232 0
M  V30 1641 H 160.886 -2.67366 2.59512 0
M  V30 1642 H 160.999 -1.99855 4.35425 0
M  V30 1643 H 159.363 -1.14965 2.27278 0
M  V30 1644 H 160.146 0.0538806 3.43258 0
M  V30 1645 N 162.591 -1.51276 -0.441967 0
M  V30 1646 C 163.539 -1.72823 -1.55676 0
M  V30 1647 C 164.533 -0.59445 -1.58627 0
M  V30 1648 O 165.739 -0.775715 -1.62427 0
M  V30 1649 H 162.114 -0.545983 -0.517113 0
M  V30 1650 H 164.085 -2.6628 -1.34675 0
M  V30 1651 C 162.834 -1.86619 -2.93375 0
M  V30 1652 H 162.157 -2.73264 -2.91834 0
M  V30 1653 H 163.597 -2.05709 -3.70756 0
M  V30 1654 C 162.056 -0.624842 -3.31055 0
M  V30 1655 O 162.586 0.222636 -4.01083 0
M  V30 1656 N 160.792 -0.470288 -2.86769 0
M  V30 1657 H 160.339 -1.161 -2.29953 0
M  V30 1658 H 160.297 0.359051 -3.12343 0
M  V30 1659 N 164.069 0.697108 -1.41344 0
M  V30 1660 C 165.485 1.00751 -1.2378 0
M  V30 1661 C 165.685 2.01105 -0.126066 0
M  V30 1662 O 164.741 2.47295 0.51004 0
M  V30 1663 C 166.054 1.53359 -2.58653 0
M  V30 1664 C 167.602 1.6525 -2.65822 0
M  V30 1665 C 168.077 2.2126 -4.01009 0
M  V30 1666 N 169.568 2.28622 -4.02847 0
M  V30 1667 C 170.303 2.72984 -5.04249 0
M  V30 1668 N 169.799 3.16962 -6.16041 0
M  V30 1669 N 171.592 2.72534 -4.91611 0
M  V30 1670 H 163.743 0.0322662 -2.12375 0
M  V30 1671 H 166.006 0.0768853 -0.944877 0
M  V30 1672 H 165.712 0.870773 -3.4075 0
M  V30 1673 H 165.586 2.51597 -2.81032 0
M  V30 1674 H 167.973 2.30644 -1.84086 0
M  V30 1675 H 168.054 0.655614 -2.47256 0
M  V30 1676 H 167.698 1.56482 -4.83193 0
M  V30 1677 H 167.628 3.21698 -4.16915 0
M  V30 1678 H 170.119 1.97585 -3.22131 0
M  V30 1679 H 170.432 3.49434 -6.89287 0
M  V30 1680 H 168.777 3.14875 -6.1958 0
M  V30 1681 H 171.968 2.37525 -4.0336 0
M  V30 1682 H 172.141 3.06789 -5.70775 0
M  V30 1683 N 165.547 1.27147 0.931209 0
M  V30 1684 C 166.477 1.12081 2.04842 0
M  V30 1685 C 167.458 0.0232364 1.70084 0
M  V30 1686 O 168.643 0.197085 1.93197 0
M  V30 1687 C 165.773 0.76354 3.38803 0
M  V30 1688 C 164.727 1.81396 3.87659 0
M  V30 1689 C 164.053 1.31075 5.18385 0
M  V30 1690 C 165.353 3.21739 4.11438 0
M  V30 1691 H 167.047 2.05537 2.17703 0
M  V30 1692 H 164.593 0.989603 1.04608 0
M  V30 1693 H 166.546 0.644982 4.16435 0
M  V30 1694 H 165.27 -0.206727 3.25945 0
M  V30 1695 H 163.929 1.92136 3.12217 0
M  V30 1696 H 163.577 0.330037 5.01916 0
M  V30 1697 H 163.277 2.013 5.52044 0
M  V30 1698 H 164.801 1.20506 5.98591 0
M  V30 1699 H 166.215 3.14019 4.79651 0
M  V30 1700 H 164.612 3.89644 4.56397 0
M  V30 1701 H 165.682 3.67054 3.16859 0
M  V30 1702 N 167.025 -1.13721 1.09112 0
M  V30 1703 C 167.973 -2.21103 0.722219 0
M  V30 1704 C 168.967 -1.67147 -0.275374 0
M  V30 1705 O 170.173 -1.79477 -0.137176 0
M  V30 1706 H 166.548 -0.720445 0.215553 0
M  V30 1707 H 168.519 -2.49483 1.63709 0
M  V30 1708 C 167.268 -3.47352 0.15543 0
M  V30 1709 H 166.591 -3.89206 0.914246 0
M  V30 1710 H 168.031 -4.2395 -0.0647967 0
M  V30 1711 C 166.49 -3.1814 -1.10852 0
M  V30 1712 O 167.02 -3.36604 -2.19227 0
M  V30 1713 N 165.226 -2.72045 -1.02176 0
M  V30 1714 H 164.773 -2.57221 -0.139764 0
M  V30 1715 H 164.731 -2.52875 -1.8682 0
M  V30 1716 N 168.503 -0.877838 -1.30888 0
M  V30 1717 C 169.433 -0.35534 -2.3078 0
M  V30 1718 C 170.414 0.557994 -1.60687 0
M  V30 1719 O 171.599 0.473355 -1.88343 0
M  V30 1720 C 168.729 0.437221 -3.44537 0
M  V30 1721 C 167.683 -0.383715 -4.26276 0
M  V30 1722 C 167.009 0.535014 -5.32017 0
M  V30 1723 C 168.309 -1.62201 -4.96476 0
M  V30 1724 H 170.003 -1.19007 -2.74732 0
M  V30 1725 H 167.549 -0.573698 -1.32078 0
M  V30 1726 H 169.502 0.813334 -4.13477 0
M  V30 1727 H 168.226 1.30553 -2.99372 0
M  V30 1728 H 166.885 -0.741874 -3.59015 0
M  V30 1729 H 166.533 1.40083 -4.831 0
M  V30 1730 H 166.233 -0.0104211 -5.87599 0
M  V30 1731 H 167.757 0.907799 -6.03814 0
M  V30 1732 H 169.171 -1.31689 -5.5797 0
M  V30 1733 H 167.568 -2.10711 -5.61891 0
M  V30 1734 H 168.638 -2.37044 -4.23011 0
M  V30 1735 N 169.982 1.44106 -0.638065 0
M  V30 1736 C 170.892 2.34513 0.0637334 0
M  V30 1737 C 171.908 1.53018 0.828346 0
M  V30 1738 O 173.084 1.85723 0.779036 0
M  V30 1739 C 170.149 3.31095 1.02844 0
M  V30 1740 C 169.21 4.28497 0.26244 0
M  V30 1741 C 168.443 5.20465 1.1812 0
M  V30 1742 O 168.666 5.16514 2.42011 0
M  V30 1743 O 167.6 5.98251 0.661774 0
M  V30 1744 H 171.426 2.95989 -0.68003 0
M  V30 1745 H 169.011 1.43994 -0.398252 0
M  V30 1746 H 170.893 3.90526 1.58327 0
M  V30 1747 H 169.568 2.72144 1.7527 0
M  V30 1748 H 168.475 3.72592 -0.335602 0
M  V30 1749 H 169.808 4.90388 -0.421936 0
M  V30 1750 N 171.46 0.379036 1.52974 0
M  V30 1751 C 172.423 -0.448865 2.24762 0
M  V30 1752 C 173.423 -0.998689 1.26027 0
M  V30 1753 O 174.613 -0.882313 1.50203 0
M  V30 1754 C 171.745 -1.62872 2.99476 0
M  V30 1755 H 172.938 0.179491 2.99362 0
M  V30 1756 H 170.491 0.13096 1.5575 0
M  V30 1757 H 171.226 -2.29479 2.29151 0
M  V30 1758 H 171.011 -1.24128 3.71934 0
M  V30 1759 H 172.501 -2.2151 3.5401 0
M  V30 1760 N 172.938 -1.57226 0.108567 0
M  V30 1761 C 174.187 -1.94008 -0.551703 0
M  V30 1762 C 174.5 -0.993442 -1.68494 0
M  V30 1763 O 175.706 -1.25551 -2.40726 0
M  V30 1764 C 174.162 -3.44763 -1.03279 0
M  V30 1765 C 173.77 -4.47943 0.0714193 0
M  V30 1766 C 175.514 -3.90483 -1.66503 0
M  V30 1767 C 173.421 -5.89865 -0.425779 0
M  V30 1768 H 172.351 -0.724206 -0.209863 0
M  V30 1769 H 175.002 -1.82547 0.186741 0
M  V30 1770 H 173.384 -3.51422 -1.82533 0
M  V30 1771 H 174.558 -4.52942 0.847365 0
M  V30 1772 H 172.873 -4.11913 0.609669 0
M  V30 1773 H 175.47 -4.93925 -2.04798 0
M  V30 1774 H 175.813 -3.29877 -2.53942 0
M  V30 1775 H 176.346 -3.86581 -0.938074 0
M  V30 1776 H 173.085 -6.54202 0.412316 0
M  V30 1777 H 172.605 -5.88309 -1.16843 0
M  V30 1778 H 174.284 -6.40844 -0.890397 0
M  V30 1779 N 174.416 0.165178 -1.56732 0
M  V30 1780 C 175.364 1.22369 -1.97809 0
M  V30 1781 C 176.358 1.45488 -0.867741 0
M  V30 1782 O 177.564 1.45995 -1.05288 0
M  V30 1783 H 173.939 0.411486 -0.629431 0
M  V30 1784 H 175.91 0.850425 -2.86025 0
M  V30 1785 C 174.659 2.55403 -2.35934 0
M  V30 1786 H 173.982 2.38438 -3.20916 0
M  V30 1787 H 175.422 3.2814 -2.68514 0
M  V30 1788 C 173.881 3.14611 -1.20506 0
M  V30 1789 O 174.411 3.98626 -0.496016 0
M  V30 1790 N 172.617 2.7379 -0.97403 0
M  V30 1791 H 172.164 2.0557 -1.55238 0
M  V30 1792 H 172.122 3.1374 -0.203573 0
M  V30 1793 N 175.894 1.51508 0.433938 0
M  V30 1794 C 177.124 1.67914 1.20369 0
M  V30 1795 C 177.532 0.377461 1.85397 0
M  V30 1796 O 176.875 -0.654255 1.71654 0
M  V30 1797 C 176.937 2.74045 2.32679 0
M  V30 1798 C 176.601 4.16543 1.87991 0
M  V30 1799 C 177.598 5.01211 1.38145 0
M  V30 1800 C 175.283 4.6266 1.95579 0
M  V30 1801 C 177.277 6.30056 0.964774 0
M  V30 1802 C 174.964 5.91501 1.53523 0
M  V30 1803 C 175.962 6.75027 1.04055 0
M  V30 1804 O 175.65 8.01459 0.625964 0
M  V30 1805 H 175.382 0.566578 0.368735 0
M  V30 1806 H 177.936 1.98709 0.51999 0
M  V30 1807 H 176.166 2.38572 3.04336 0
M  V30 1808 H 177.855 2.79295 2.94532 0
M  V30 1809 H 178.621 4.66783 1.31675 0
M  V30 1810 H 174.5 3.97767 2.33029 0
M  V30 1811 H 178.044 6.95202 0.57796 0
M  V30 1812 H 173.941 6.25442 1.59665 0
M  V30 1813 H 174.709 8.15043 0.751509 0
M  V30 1814 N 177.372 -0.689602 1.41712 0
M  V30 1815 C 178.305 -1.81403 1.3845 0
M  V30 1816 C 179.283 -1.60653 0.250874 0
M  V30 1817 O 180.467 -1.83323 0.43874 0
M  V30 1818 C 177.594 -3.18176 1.1611 0
M  V30 1819 C 176.64 -3.57705 2.3227 0
M  V30 1820 S 177.473 -3.61827 3.94767 0
M  V30 1821 C 178.629 -5.01318 3.74742 0
M  V30 1822 H 178.862 -1.83893 2.33603 0
M  V30 1823 H 176.395 -0.858878 1.28307 0
M  V30 1824 H 178.353 -3.97132 1.03907 0
M  V30 1825 H 177.014 -3.13288 0.225668 0
M  V30 1826 H 176.207 -4.57082 2.12349 0
M  V30 1827 H 175.809 -2.86073 2.40911 0
M  V30 1828 H 178.101 -5.88986 3.34817 0
M  V30 1829 H 179.044 -5.26283 4.73743 0
M  V30 1830 H 179.452 -4.73138 3.07898 0
M  V30 1831 N 178.85 -1.27639 -0.924453 0
M  V30 1832 C 179.813 -1.10681 -2.00705 0
M  V30 1833 C 180.813 -0.0497823 -1.60723 0
M  V30 1834 O 182.003 -0.294654 -1.7169 0
M  V30 1835 C 179.135 -0.687164 -3.33902 0
M  V30 1836 H 180.328 -2.06817 -2.17179 0
M  V30 1837 H 177.881 -1.10473 -1.10569 0
M  V30 1838 H 178.616 0.275439 -3.23128 0
M  V30 1839 H 178.401 -1.45061 -3.6428 0
M  V30 1840 H 179.891 -0.590853 -4.13399 0
M  V30 1841 N 180.328 1.1314 -1.09713 0
M  V30 1842 C 181.291 2.16831 -0.742751 0
M  V30 1843 C 182.291 1.59159 0.229129 0
M  V30 1844 O 183.481 1.74199 0.00693237 0
M  V30 1845 C 180.613 3.40756 -0.0989168 0
M  V30 1846 H 181.806 2.49695 -1.66109 0
M  V30 1847 H 179.359 1.2802 -0.896699 0
M  V30 1848 H 180.094 3.13485 0.830514 0
M  V30 1849 H 179.879 3.83888 -0.798265 0
M  V30 1850 H 181.369 4.17386 0.133524 0
M  V30 1851 N 181.806 0.884767 1.30421 0
M  V30 1852 C 183.083 0.423185 1.90967 0
M  V30 1853 C 183.463 -1.09605 1.80416 0
M  V30 1854 O 182.811 -1.93126 1.22125 0
M  V30 1855 C 183.021 0.921056 3.36627 0
M  V30 1856 C 184.369 0.955903 4.137 0
M  V30 1857 O 185.393 0.867706 3.4547 0
M  V30 1858 O 184.252 1.08614 5.35598 0
M  V30 1859 H 181.346 0.129369 0.816819 0
M  V30 1860 H 183.892 0.973653 1.3899 0
M  V30 1861 H 182.664 1.96489 3.3839 0
M  V30 1862 H 182.287 0.349741 3.96059 0
M  V30 1863 N 183.284 -1.43765 0.645699 0
M  V30 1864 C 184.532 -2.01499 0.155731 0
M  V30 1865 C 184.853 -1.51151 -1.232 0
M  V30 1866 O 184.123 -0.721044 -1.82148 0
M  V30 1867 H 182.703 -0.745003 0.0545817 0
M  V30 1868 H 185.365 -1.76075 0.835677 0
M  V30 1869 H 184.461 -3.1181 0.134577 0
M  V30 1870 N 184.763 -0.387143 -1.52771 0
M  V30 1871 C 186.04 0.253197 -1.93954 0
M  V30 1872 C 186.42 1.64545 -1.32243 0
M  V30 1873 O 185.768 2.23191 -0.489699 0
M  V30 1874 C 185.978 0.281722 -3.47861 0
M  V30 1875 C 187.326 0.511715 -4.21505 0
M  V30 1876 O 188.35 0.362023 -3.54356 0
M  V30 1877 O 187.209 0.804847 -5.40541 0
M  V30 1878 H 184.303 0.156845 -0.811991 0
M  V30 1879 H 186.849 -0.441494 -1.63856 0
M  V30 1880 H 185.621 -0.693571 -3.85104 0
M  V30 1881 H 185.244 1.02142 -3.84256 0
M  V30 1882 N 186.241 1.57166 -0.116904 0
M  V30 1883 C 187.488 1.95123 0.541603 0
M  V30 1884 C 187.816 1.00006 1.6682 0
M  V30 1885 O 187.071 0.0235658 1.95686 0
M  V30 1886 C 187.37 3.39508 1.11664 0
M  V30 1887 C 187.036 4.50762 0.111606 0
M  V30 1888 C 185.698 4.80918 -0.164758 0
M  V30 1889 C 188.05 5.18036 -0.573438 0
M  V30 1890 C 185.378 5.75666 -1.13249 0
M  V30 1891 C 187.73 6.13824 -1.52978 0
M  V30 1892 C 186.394 6.42374 -1.81415 0
M  V30 1893 H 185.664 0.714005 0.198187 0
M  V30 1894 H 188.311 1.9048 -0.197365 0
M  V30 1895 H 186.616 3.40835 1.93232 0
M  V30 1896 H 188.313 3.66189 1.63422 0
M  V30 1897 H 184.903 4.27272 0.337192 0
M  V30 1898 H 189.087 4.94896 -0.373092 0
M  V30 1899 H 184.343 5.96092 -1.35958 0
M  V30 1900 H 188.517 6.65039 -2.06629 0
M  V30 1901 H 186.144 7.15599 -2.56557 0
M  V30 1902 N 187.719 -0.156864 1.56817 0
M  V30 1903 C 188.666 -1.19394 1.97519 0
M  V30 1904 C 189.636 -1.4322 0.841265 0
M  V30 1905 O 190.821 -1.55719 1.10255 0
M  V30 1906 C 187.961 -2.52483 2.35258 0
M  V30 1907 C 187.074 -2.35914 3.61896 0
M  V30 1908 C 186.209 -3.61969 3.88782 0
M  V30 1909 C 185.248 -3.40395 5.08722 0
M  V30 1910 N 184.385 -4.58556 5.31668 0
M  V30 1911 H 189.225 -0.839845 2.85921 0
M  V30 1912 H 186.762 -0.403264 1.41464 0
M  V30 1913 H 188.72 -3.30071 2.55165 0
M  V30 1914 H 187.35 -2.85859 1.49949 0
M  V30 1915 H 186.402 -1.49429 3.49821 0
M  V30 1916 H 187.714 -2.15926 4.49641 0
M  V30 1917 H 186.868 -4.47989 4.09135 0
M  V30 1918 H 185.607 -3.84951 2.9944 0
M  V30 1919 H 184.612 -2.52763 4.88253 0
M  V30 1920 H 185.837 -3.18822 5.99608 0
M  V30 1921 H 183.783 -4.81729 4.45279 0
M  V30 1922 H 183.7 -4.41535 6.13664 0
M  V30 1923 H 184.968 -5.45817 5.5651 0
M  V30 1924 N 189.197 -1.51736 -0.425897 0
M  V30 1925 C 190.446 -1.64201 -1.17136 0
M  V30 1926 C 190.759 -0.369705 -1.92074 0
M  V30 1927 O 191.965 -0.373898 -2.68913 0
M  V30 1928 C 190.421 -2.90035 -2.13091 0
M  V30 1929 C 190.029 -4.24312 -1.43747 0
M  V30 1930 C 191.773 -3.1186 -2.87999 0
M  V30 1931 C 189.68 -5.41285 -2.38253 0
M  V30 1932 H 188.61 -0.611624 -0.440944 0
M  V30 1933 H 191.261 -1.78212 -0.437328 0
M  V30 1934 H 189.643 -2.69684 -2.89977 0
M  V30 1935 H 190.817 -4.55086 -0.723408 0
M  V30 1936 H 189.132 -4.08456 -0.809465 0
M  V30 1937 H 191.729 -3.96427 -3.58817 0
M  V30 1938 H 192.072 -2.25403 -3.49999 0
M  V30 1939 H 192.605 -3.32605 -2.18217 0
M  V30 1940 H 189.344 -6.30037 -1.80925 0
M  V30 1941 H 188.864 -5.14872 -3.0768 0
M  V30 1942 H 190.543 -5.73694 -2.99139 0
M  V30 1943 N 190.675 0.682077 -1.42076 0
M  V30 1944 C 191.622 1.79578 -1.44984 0
M  V30 1945 C 192.592 1.6332 -0.302614 0
M  V30 1946 O 193.777 1.83978 -0.505633 0
M  V30 1947 C 190.917 3.1756 -1.35091 0
M  V30 1948 C 190.03 3.45156 -2.59791 0
M  V30 1949 C 189.165 4.72826 -2.42093 0
M  V30 1950 C 188.204 4.93433 -3.62202 0
M  V30 1951 N 187.341 6.12338 -3.43491 0
M  V30 1952 H 192.181 1.76427 -2.40161 0
M  V30 1953 H 189.718 0.861376 -1.19242 0
M  V30 1954 H 191.676 3.97287 -1.27354 0
M  V30 1955 H 190.306 3.19854 -0.435133 0
M  V30 1956 H 189.358 2.59736 -2.77923 0
M  V30 1957 H 190.67 3.5628 -3.49094 0
M  V30 1958 H 189.824 5.60631 -2.319 0
M  V30 1959 H 188.563 4.63973 -1.50268 0
M  V30 1960 H 187.568 4.04073 -3.72834 0
M  V30 1961 H 188.793 5.04136 -4.54998 0
M  V30 1962 H 186.739 6.04672 -2.54377 0
M  V30 1963 H 186.656 6.2429 -4.26377 0
M  V30 1964 H 187.924 7.02841 -3.37097 0
M  V30 1965 N 192.153 1.28127 0.917671 0
M  V30 1966 C 193.393 1.163 1.68088 0
M  V30 1967 C 193.757 -0.284515 1.8988 0
M  V30 1968 O 194.958 -0.525413 2.63615 0
M  V30 1969 C 193.229 1.93546 3.00457 0
M  V30 1970 S 194.788 1.98048 3.91564 0
M  V30 1971 H 191.606 0.415005 0.577315 0
M  V30 1972 H 194.208 1.62173 1.09179 0
M  V30 1973 H 192.912 2.97888 2.82295 0
M  V30 1974 H 192.443 1.48207 3.64415 0
M  V30 1975 H 194.458 1.08415 4.84211 0
M  V30 1976 N 193.631 -1.12557 1.10312 0
M  V30 1977 C 194.877 -1.84311 0.846011 0
M  V30 1978 C 195.21 -1.83805 -0.626859 0
M  V30 1979 O 194.485 -1.28268 -1.46211 0
M  V30 1980 C 194.768 -3.32048 1.39341 0
M  V30 1981 C 194.621 -3.41016 2.93305 0
M  V30 1982 C 195.94 -4.27764 1.03468 0
M  V30 1983 H 193.059 -0.669192 0.30879 0
M  V30 1984 H 195.701 -1.32057 1.36605 0
M  V30 1985 H 193.851 -3.76678 0.951087 0
M  V30 1986 H 195.523 -3.05031 3.46055 0
M  V30 1987 H 193.766 -2.81603 3.29973 0
M  V30 1988 H 194.437 -4.44948 3.26689 0
M  V30 1989 H 196.913 -3.91253 1.41633 0
M  V30 1990 H 195.789 -5.29549 1.44463 0
M  V30 1991 H 196.05 -4.42064 -0.0560404 0
M  V30 1992 N 195.109 -0.891671 -1.2995 0
M  V30 1993 C 196.072 -0.36828 -2.26222 0
M  V30 1994 C 197.072 0.493014 -1.53056 0
M  V30 1995 O 198.262 0.299213 -1.71611 0
M  V30 1996 C 195.394 0.47442 -3.37583 0
M  V30 1997 H 196.587 -1.21844 -2.74033 0
M  V30 1998 H 194.14 -0.669107 -1.41254 0
M  V30 1999 H 194.875 1.34489 -2.95099 0
M  V30 2000 H 194.66 -0.142615 -3.91841 0
M  V30 2001 H 196.15 0.83218 -4.09224 0
M  V30 2002 N 196.587 1.43421 -0.653314 0
M  V30 2003 C 197.834 2.01812 -0.166745 0
M  V30 2004 C 198.162 1.51535 1.21931 0
M  V30 2005 O 197.417 0.698975 1.82792 0
M  V30 2006 C 197.716 3.57176 -0.126623 0
M  V30 2007 C 197.382 4.26798 -1.45444 0
M  V30 2008 C 196.044 4.45534 -1.81805 0
M  V30 2009 C 198.396 4.66225 -2.32989 0
M  V30 2010 C 195.724 5.00961 -3.05377 0
M  V30 2011 C 198.076 5.23021 -3.55853 0
M  V30 2012 C 196.74 5.39973 -3.9241 0
M  V30 2013 H 196.01 0.738484 -0.0610162 0
M  V30 2014 H 198.657 1.71896 -0.84404 0
M  V30 2015 H 196.962 3.86634 0.634123 0
M  V30 2016 H 198.659 4.00112 0.266723 0
M  V30 2017 H 195.249 4.12561 -1.16153 0
M  V30 2018 H 199.433 4.51443 -2.06187 0
M  V30 2019 H 194.689 5.12271 -3.3375 0
M  V30 2020 H 198.863 5.52518 -4.23907 0
M  V30 2021 H 196.49 5.82687 -4.88242 0
M  V30 2022 N 198.065 0.39524 1.52563 0
M  V30 2023 C 199.342 -0.242908 1.94086 0
M  V30 2024 C 199.722 -1.63841 1.33114 0
M  V30 2025 O 199.07 -2.22928 0.501529 0
M  V30 2026 C 199.28 -0.26327 3.48006 0
M  V30 2027 C 200.628 -0.489354 4.21771 0
M  V30 2028 O 201.652 -0.343226 3.54543 0
M  V30 2029 O 200.511 -0.776169 5.4096 0
M  V30 2030 H 197.605 -0.152536 0.812811 0
M  V30 2031 H 200.151 0.450178 1.6362 0
M  V30 2032 H 198.923 0.713985 3.84731 0
M  V30 2033 H 198.546 -1.00103 3.84792 0
M  V30 2034 O 199.582 -1.59299 0.265728 0
M  V30 2035 H 200.273 -1.91266 -0.306134 0
M  V30 END ATOM
M  V30 BEGIN BOND
M  V30 END BOND
M  V30 END CTAB
M  END
$$$$
