drugbank_target|P09486 SPARC (DB11093; DB11348; DB14481)
 OpenBabel12092120063D

  0  0  0     0  0            999 V3000
M  V30 BEGIN CTAB
M  V30 COUNTS 4756 4814 0 0 0
M  V30 BEGIN ATOM
M  V30 1 H -0.908 1.98254 -0.117106 0
M  V30 2 N 0 1.576 0 0
M  V30 3 C 0.933 2.03868 1.02534 0
M  V30 4 C 1.911 0.928543 1.3348 0
M  V30 5 O 3.095 1.19667 1.45644 0
M  V30 6 C 0.222 2.43627 2.35294 0
M  V30 7 C -0.732 3.65373 2.2001 0
M  V30 8 S 0.101 5.13292 1.52614 0
M  V30 9 C 1.257 5.56322 2.86805 0
M  V30 10 H 1.49 2.90518 0.631377 0
M  V30 11 H -0.977 1.52953 0.210867 0
M  V30 12 H 0.981 2.67203 3.11629 0
M  V30 13 H -0.358 1.57376 2.7183 0
M  V30 14 H -1.165 3.90944 3.18086 0
M  V30 15 H -1.563 3.418 1.51819 0
M  V30 16 H 0.729 5.58782 3.83104 0
M  V30 17 H 1.672 6.56266 2.65933 0
M  V30 18 H 2.08 4.83886 2.90714 0
M  V30 19 N 1.4781 -0.272755 1.55222 0
M  V30 20 C 2.8941 -0.619959 1.47067 0
M  V30 21 C 3.0941 -1.895 0.684978 0
M  V30 22 O 2.1501 -2.51675 0.203931 0
M  V30 23 C 3.4631 -0.746693 2.91282 0
M  V30 24 C 5.0111 -0.840731 3.01497 0
M  V30 25 C 5.4861 -0.99924 4.46967 0
M  V30 26 N 6.9771 -1.06476 4.50796 0
M  V30 27 C 7.7121 -1.20621 5.6057 0
M  V30 28 N 7.2081 -1.31483 6.80209 0
M  V30 29 N 9.0011 -1.23733 5.48312 0
M  V30 30 H 1.1521 0.564606 2.04758 0
M  V30 31 H 3.4151 0.191177 0.928523 0
M  V30 32 H 3.1211 0.119753 3.51496 0
M  V30 33 H 2.9951 -1.6269 3.40311 0
M  V30 34 H 5.3821 -1.69764 2.41379 0
M  V30 35 H 5.4631 0.0640874 2.5572 0
M  V30 36 H 5.1071 -0.146984 5.07687 0
M  V30 37 H 5.0371 -1.91871 4.90401 0
M  V30 38 H 7.5281 -0.993196 3.64615 0
M  V30 39 H 7.8411 -1.42111 7.59621 0
M  V30 40 H 6.1861 -1.28487 6.8302 0
M  V30 41 H 9.3771 -1.14877 4.53785 0
M  V30 42 H 9.5501 -1.34412 6.33906 0
M  V30 43 N 2.9562 -1.48159 -0.537278 0
M  V30 44 C 3.9192 -1.61665 -1.62472 0
M  V30 45 C 4.9192 -0.490395 -1.5314 0
M  V30 46 O 6.1092 -0.755998 -1.5694 0
M  V30 47 C 3.2412 -1.57997 -3.02076 0
M  V30 48 H 4.4342 -2.58621 -1.51839 0
M  V30 49 H 1.9872 -1.36647 -0.758771 0
M  V30 50 H 2.7222 -0.624913 -3.18222 0
M  V30 51 H 2.5072 -2.39755 -3.10258 0
M  V30 52 H 3.9972 -1.70627 -3.81151 0
M  V30 53 N 4.4343 0.785586 -1.36625 0
M  V30 54 C 5.6803 1.5452 -1.32269 0
M  V30 55 C 6.0353 1.92159 0.0962266 0
M  V30 56 O 5.3283 1.60158 1.05167 0
M  V30 57 C 5.5223 2.83007 -2.1827 0
M  V30 58 C 5.3513 2.57925 -3.68382 0
M  V30 59 C 4.1213 2.52752 -4.37544 0
M  V30 60 C 6.3193 2.26861 -4.61561 0
M  V30 61 N 4.3013 2.19608 -5.73276 0
M  V30 62 C 5.6723 2.03738 -5.85569 0
M  V30 63 C 7.7273 2.129 -4.50087 0
M  V30 64 C 6.4303 1.68065 -6.9939 0
M  V30 65 C 8.4563 1.78626 -5.63779 0
M  V30 66 C 7.8183 1.56353 -6.86828 0
M  V30 67 H 3.9173 0.566301 -0.539283 0
M  V30 68 H 6.5013 0.917736 -1.71714 0
M  V30 69 H 4.6723 3.43614 -1.81063 0
M  V30 70 H 6.4043 3.48775 -2.05275 0
M  V30 71 H 3.1593 2.6813 -3.90389 0
M  V30 72 H 3.5833 2.05771 -6.44971 0
M  V30 73 H 8.2253 2.28808 -3.55537 0
M  V30 74 H 5.9433 1.50895 -7.93887 0
M  V30 75 H 9.5293 1.68502 -5.56865 0
M  V30 76 H 8.4093 1.30223 -7.73312 0
M  V30 77 N 5.9124 1.20967 1.01018 0
M  V30 78 C 7.1614 1.01796 1.74128 0
M  V30 79 C 7.4744 -0.449691 1.90361 0
M  V30 80 O 8.6804 -0.76068 2.60626 0
M  V30 81 C 7.1364 1.7727 3.13215 0
M  V30 82 C 6.7444 3.28171 3.04972 0
M  V30 83 C 8.4884 1.66489 3.90489 0
M  V30 84 C 6.3954 3.96156 4.39107 0
M  V30 85 H 5.3254 0.377276 0.652824 0
M  V30 86 H 7.9764 1.44651 1.12909 0
M  V30 87 H 6.3584 1.27205 3.75013 0
M  V30 88 H 7.5324 3.85499 2.52443 0
M  V30 89 H 5.8474 3.39437 2.41188 0
M  V30 90 H 8.4444 2.14617 4.89738 0
M  V30 91 H 8.7874 0.6222 4.11624 0
M  V30 92 H 9.3204 2.14003 3.35332 0
M  V30 93 H 6.0594 5.00604 4.23174 0
M  V30 94 H 5.5794 3.43617 4.91617 0
M  V30 95 H 7.2584 4.00774 5.07926 0
M  V30 96 N 7.3905 -1.2043 1.01659 0
M  V30 97 C 8.6375 -1.89797 0.705917 0
M  V30 98 C 8.9655 -1.78848 -0.764439 0
M  V30 99 O 8.2205 -1.16694 -1.57102 0
M  V30 100 C 8.5195 -3.40464 1.08714 0
M  V30 101 C 8.1855 -3.71614 2.5537 0
M  V30 102 C 6.8475 -3.79826 2.95441 0
M  V30 103 C 9.1995 -3.85915 3.50313 0
M  V30 104 C 6.5275 -3.99797 4.29394 0
M  V30 105 C 8.8795 -4.07396 4.83954 0
M  V30 106 C 7.5435 -4.13837 5.23732 0
M  V30 107 H 6.8135 -0.694518 0.258313 0
M  V30 108 H 9.4605 -1.42691 1.27717 0
M  V30 109 H 7.7655 -3.89385 0.434309 0
M  V30 110 H 9.4625 -3.92433 0.824461 0
M  V30 111 H 6.0525 -3.65822 2.23321 0
M  V30 112 H 10.2365 -3.78926 3.20513 0
M  V30 113 H 5.4925 -4.03018 4.59768 0
M  V30 114 H 9.6665 -4.17404 5.57447 0
M  V30 115 H 7.2935 -4.29064 6.27541 0
M  V30 116 N 8.8686 -0.792821 -1.36206 0
M  V30 117 C 10.1156 -0.366786 -1.99151 0
M  V30 118 C 10.4436 1.06243 -1.62919 0
M  V30 119 O 9.6986 1.74927 -0.877442 0
M  V30 120 C 9.9976 -0.481501 -3.54142 0
M  V30 121 C 9.6636 -1.87202 -4.10203 0
M  V30 122 C 8.3256 -2.25248 -4.25226 0
M  V30 123 C 10.6776 -2.78237 -4.40719 0
M  V30 124 C 8.0056 -3.53723 -4.68078 0
M  V30 125 C 10.3576 -4.06144 -4.85005 0
M  V30 126 C 9.0216 -4.44207 -4.98234 0
M  V30 127 H 8.2916 -0.134217 -0.728743 0
M  V30 128 H 10.9386 -1.01094 -1.62641 0
M  V30 129 H 9.2436 0.246146 -3.91026 0
M  V30 130 H 10.9406 -0.132844 -4.0078 0
M  V30 131 H 7.5306 -1.56639 -3.98951 0
M  V30 132 H 11.7146 -2.50097 -4.28679 0
M  V30 133 H 6.9706 -3.8308 -4.76508 0
M  V30 134 H 11.1446 -4.76796 -5.07581 0
M  V30 135 H 8.7716 -5.43814 -5.31197 0
M  V30 136 N 10.3467 1.47872 -0.545128 0
M  V30 137 C 11.2767 2.32661 0.197793 0
M  V30 138 C 12.2577 1.43041 0.920504 0
M  V30 139 O 13.4427 1.71912 0.90333 0
M  V30 140 C 10.5727 3.24569 1.23582 0
M  V30 141 C 9.5267 4.23333 0.630323 0
M  V30 142 C 8.8527 5.0448 1.77211 0
M  V30 143 C 10.1527 5.20704 -0.407974 0
M  V30 144 H 11.8467 2.95024 -0.510045 0
M  V30 145 H 9.3927 1.4187 -0.246731 0
M  V30 146 H 11.3457 3.8272 1.76362 0
M  V30 147 H 10.0697 2.60236 1.97344 0
M  V30 148 H 8.7287 3.6639 0.123922 0
M  V30 149 H 8.3767 4.36561 2.49847 0
M  V30 150 H 8.0767 5.71339 1.37281 0
M  V30 151 H 9.6007 5.65487 2.3034 0
M  V30 152 H 11.0147 5.7329 0.033305 0
M  V30 153 H 9.4117 5.95699 -0.725486 0
M  V30 154 H 10.4817 4.66917 -1.30828 0
M  V30 155 N 11.8248 0.280983 1.55075 0
M  V30 156 C 12.7548 -0.597469 2.25727 0
M  V30 157 C 13.7358 -1.15417 1.24952 0
M  V30 158 O 14.9208 -1.18722 1.53684 0
M  V30 159 C 12.0508 -1.7789 2.98283 0
M  V30 160 C 11.0048 -1.35347 4.06036 0
M  V30 161 C 10.3308 -2.61846 4.66198 0
M  V30 162 C 11.6308 -0.499354 5.19907 0
M  V30 163 H 13.3248 -0.00824265 2.99399 0
M  V30 164 H 10.8708 -0.0025244 1.44 0
M  V30 165 H 12.8238 -2.39937 3.46422 0
M  V30 166 H 11.5478 -2.39405 2.22155 0
M  V30 167 H 10.2068 -0.756156 3.58717 0
M  V30 168 H 9.8548 -3.21632 3.86732 0
M  V30 169 H 9.5548 -2.3409 5.38958 0
M  V30 170 H 11.0788 -3.24732 5.1709 0
M  V30 171 H 12.4928 -1.02498 5.64063 0
M  V30 172 H 10.8898 -0.316424 5.99265 0
M  V30 173 H 11.9598 0.480459 4.82514 0
M  V30 174 N 13.3029 -1.57598 0.00835791 0
M  V30 175 C 14.5429 -1.92788 -0.679136 0
M  V30 176 C 14.9069 -0.883378 -1.70471 0
M  V30 177 O 16.1079 -1.12079 -2.44319 0
M  V30 178 C 14.3789 -3.32994 -1.29807 0
M  V30 179 S 15.9379 -3.90082 -2.00952 0
M  V30 180 H 12.7559 -0.67475 -0.224127 0
M  V30 181 H 15.3579 -1.95385 0.0670497 0
M  V30 182 H 14.0619 -4.06846 -0.538922 0
M  V30 183 H 13.5929 -3.33791 -2.082 0
M  V30 184 H 15.6079 -3.71834 -3.28563 0
M  V30 185 N 14.781 0.264519 -1.55364 0
M  V30 186 C 15.711 1.33121 -1.91836 0
M  V30 187 C 16.692 1.51101 -0.781192 0
M  V30 188 O 17.877 1.64003 -1.04003 0
M  V30 189 C 15.007 2.68921 -2.19769 0
M  V30 190 C 13.961 2.65661 -3.35571 0
M  V30 191 C 13.287 4.05093 -3.49004 0
M  V30 192 C 14.587 2.24187 -4.71739 0
M  V30 193 H 16.281 1.02844 -2.81182 0
M  V30 194 H 13.827 0.493286 -1.35287 0
M  V30 195 H 15.78 3.43663 -2.43872 0
M  V30 196 H 14.504 3.00799 -1.27231 0
M  V30 197 H 13.163 1.93377 -3.1145 0
M  V30 198 H 12.811 4.34206 -2.53917 0
M  V30 199 H 12.511 4.03804 -4.26868 0
M  V30 200 H 14.035 4.81561 -3.75408 0
M  V30 201 H 15.449 2.88654 -4.9533 0
M  V30 202 H 13.846 2.34044 -5.52579 0
M  V30 203 H 14.916 1.19327 -4.69988 0
M  V30 204 N 16.2591 1.48442 0.529413 0
M  V30 205 C 17.2221 1.62524 1.61612 0
M  V30 206 C 18.2221 0.498509 1.52877 0
M  V30 207 O 19.4121 0.76431 1.56537 0
M  V30 208 C 16.5441 1.59597 3.01233 0
M  V30 209 H 17.7371 2.59423 1.50465 0
M  V30 210 H 15.2901 1.37047 0.751514 0
M  V30 211 H 16.0251 0.641781 3.17886 0
M  V30 212 H 15.8101 2.41397 3.08982 0
M  V30 213 H 17.3001 1.72646 3.80241 0
M  V30 214 N 17.7372 -0.778329 1.37039 0
M  V30 215 C 18.9852 -1.53361 1.31623 0
M  V30 216 C 19.3062 -1.94739 -0.100831 0
M  V30 217 O 18.5762 -1.65797 -1.04347 0
M  V30 218 H 17.1562 -0.568794 0.484234 0
M  V30 219 H 19.8182 -0.926742 1.71457 0
M  V30 220 H 18.9142 -2.43606 1.95096 0
M  V30 221 N 19.2153 -1.21501 -1.00376 0
M  V30 222 C 20.6313 -0.972629 -1.26539 0
M  V30 223 C 20.8313 0.340257 -1.98606 0
M  V30 224 O 19.8873 1.06561 -2.28913 0
M  V30 225 C 21.2003 -2.16404 -2.08781 0
M  V30 226 C 22.7483 -2.20643 -2.22004 0
M  V30 227 C 23.2233 -3.39306 -3.07629 0
M  V30 228 N 24.7143 -3.39401 -3.15217 0
M  V30 229 C 25.4493 -4.27867 -3.81729 0
M  V30 230 N 24.9453 -5.26533 -4.5026 0
M  V30 231 N 26.7383 -4.15672 -3.78382 0
M  V30 232 H 18.8893 -2.05929 -0.520281 0
M  V30 233 H 21.1523 -0.901803 -0.292328 0
M  V30 234 H 20.8583 -3.11554 -1.63178 0
M  V30 235 H 20.7323 -2.15567 -3.09533 0
M  V30 236 H 23.1193 -1.26048 -2.66825 0
M  V30 237 H 23.2003 -2.25523 -1.20718 0
M  V30 238 H 22.8443 -4.34195 -2.63509 0
M  V30 239 H 22.7743 -3.31665 -4.09031 0
M  V30 240 H 25.2653 -2.67997 -2.66432 0
M  V30 241 H 25.5783 -5.90337 -4.98721 0
M  V30 242 H 23.9233 -5.30457 -4.49044 0
M  V30 243 H 27.1143 -3.3785 -3.23998 0
M  V30 244 H 27.2873 -4.84825 -4.2994 0
M  V30 245 N 20.6934 1.19889 -1.02296 0
M  V30 246 C 21.6564 2.21116 -0.603351 0
M  V30 247 C 22.6564 1.5738 0.329884 0
M  V30 248 O 23.8464 1.73802 0.117702 0
M  V30 249 C 20.9784 3.40696 0.117992 0
M  V30 250 H 22.1714 2.59754 -1.49893 0
M  V30 251 H 19.7244 1.33463 -0.813468 0
M  V30 252 H 20.4594 3.07569 1.0282 0
M  V30 253 H 20.2444 3.88188 -0.552511 0
M  V30 254 H 21.7344 4.15692 0.398696 0
M  V30 255 N 22.1715 0.800033 1.35784 0
M  V30 256 C 23.1015 0.220184 2.3246 0
M  V30 257 C 24.0825 -0.65073 1.57161 0
M  V30 258 O 25.2675 -0.582359 1.85263 0
M  V30 259 C 22.3975 -0.637353 3.41402 0
M  V30 260 C 21.3515 0.134531 4.27789 0
M  V30 261 C 20.6775 -0.844285 5.27992 0
M  V30 262 C 21.9775 1.32979 5.05088 0
M  V30 263 H 23.6715 1.02787 2.81203 0
M  V30 264 H 21.2175 0.495717 1.35199 0
M  V30 265 H 23.1705 -1.05302 4.08031 0
M  V30 266 H 21.8945 -1.47785 2.91251 0
M  V30 267 H 20.5535 0.531296 3.6273 0
M  V30 268 H 20.2015 -1.68011 4.74111 0
M  V30 269 H 19.9015 -0.332184 5.8666 0
M  V30 270 H 21.4255 -1.2583 5.97494 0
M  V30 271 H 22.8395 0.98934 5.64699 0
M  V30 272 H 21.2365 1.77593 5.7322 0
M  V30 273 H 22.3065 2.11978 4.36111 0
M  V30 274 N 23.6496 -1.47581 0.552962 0
M  V30 275 C 24.6126 -2.28439 -0.186605 0
M  V30 276 C 25.6126 -1.36706 -0.84665 0
M  V30 277 O 26.8026 -1.59378 -0.703164 0
M  V30 278 C 23.9346 -3.16264 -1.2724 0
M  V30 279 H 25.1276 -2.95294 0.523609 0
M  V30 280 H 22.6806 -1.532 0.309745 0
M  V30 281 H 23.4156 -2.54091 -2.01514 0
M  V30 282 H 23.2006 -3.83769 -0.803968 0
M  V30 283 H 24.6906 -3.77198 -1.79196 0
M  V30 284 N 25.1277 -0.289203 -1.54924 0
M  V30 285 C 26.0907 0.579144 -2.21762 0
M  V30 286 C 27.0907 1.07047 -1.1999 0
M  V30 287 O 28.2807 0.968384 -1.44803 0
M  V30 288 C 25.4127 1.80055 -2.8947 0
M  V30 289 H 26.6057 -0.00464908 -2.999 0
M  V30 290 H 24.1587 -0.0399306 -1.56249 0
M  V30 291 H 24.8937 2.42449 -2.15381 0
M  V30 292 H 24.6787 1.45602 -3.64064 0
M  V30 293 H 26.1687 2.41773 -3.40493 0
M  V30 294 N 26.6058 1.57591 -0.0167156 0
M  V30 295 C 28.0168 1.79201 0.523834 0
M  V30 296 C 28.3678 0.925796 1.72984 0
M  V30 297 O 27.4928 0.132792 2.15992 0
M  V30 298 C 28.0878 3.25 0.957091 0
M  V30 299 C 26.6468 3.47648 1.44283 0
M  V30 300 C 25.7938 2.74374 0.401757 0
M  V30 301 H 28.7448 1.56831 -0.242816 0
M  V30 302 H 28.7658 3.34031 1.82219 0
M  V30 303 H 28.2778 3.88019 0.0791415 0
M  V30 304 H 26.3788 2.89866 2.34113 0
M  V30 305 H 26.4918 4.56352 1.45877 0
M  V30 306 H 24.8558 2.39485 0.867121 0
M  V30 307 H 25.6388 3.40102 -0.467513 0
M  V30 308 N 28.0839 -0.256276 1.55502 0
M  V30 309 C 29.0159 -1.33981 1.85962 0
M  V30 310 C 30.0289 -1.44743 0.745212 0
M  V30 311 O 31.2179 -1.4626 1.02324 0
M  V30 312 C 28.3179 -2.7194 2.02242 0
M  V30 313 C 27.4909 -2.83562 3.33033 0
M  V30 314 C 26.5499 -4.02304 3.39172 0
M  V30 315 O 25.5759 -3.92273 4.12444 0
M  V30 316 N 26.7779 -5.15045 2.67784 0
M  V30 317 H 29.5429 -1.08191 2.7949 0
M  V30 318 H 27.1039 -0.446388 1.55624 0
M  V30 319 H 29.0959 -3.49697 2.03701 0
M  V30 320 H 27.6659 -2.90479 1.15502 0
M  V30 321 H 26.8859 -1.92555 3.43971 0
M  V30 322 H 28.1739 -2.88271 4.19258 0
M  V30 323 H 27.5719 -5.26085 2.07968 0
M  V30 324 H 26.1289 -5.90972 2.74947 0
M  V30 325 N 29.562 -1.4872 -0.521534 0
M  V30 326 C 30.494 -1.59968 -1.64143 0
M  V30 327 C 31.507 -0.483463 -1.55456 0
M  V30 328 O 32.696 -0.75467 -1.61762 0
M  V30 329 C 29.796 -1.52127 -3.02838 0
M  V30 330 C 28.969 -2.78932 -3.36921 0
M  V30 331 C 28.028 -2.64428 -4.54933 0
M  V30 332 O 27.054 -3.38331 -4.57735 0
M  V30 333 N 28.256 -1.74606 -5.53618 0
M  V30 334 H 31.021 -2.56548 -1.54929 0
M  V30 335 H 28.582 -1.45551 -0.708988 0
M  V30 336 H 30.574 -1.40106 -3.79674 0
M  V30 337 H 29.144 -0.634868 -3.06085 0
M  V30 338 H 28.364 -3.05455 -2.4918 0
M  V30 339 H 29.652 -3.63041 -3.56481 0
M  V30 340 H 29.05 -1.13782 -5.54139 0
M  V30 341 H 27.607 -1.6852 -6.29638 0
M  V30 342 N 31.0401 0.771051 -1.3745 0
M  V30 343 C 31.9501 1.91538 -1.35464 0
M  V30 344 C 32.9661 1.72134 -0.254123 0
M  V30 345 O 34.1421 1.95358 -0.489626 0
M  V30 346 C 31.2071 3.26671 -1.16134 0
M  V30 347 C 30.2681 3.58723 -2.35831 0
M  V30 348 C 29.5011 4.87409 -2.17413 0
M  V30 349 O 29.7241 5.58506 -1.15876 0
M  V30 350 O 28.6581 5.18539 -3.05615 0
M  V30 351 H 32.4841 1.96165 -2.31847 0
M  V30 352 H 30.0691 0.9139 -1.18187 0
M  V30 353 H 31.9511 4.07499 -1.07345 0
M  V30 354 H 30.6261 3.22894 -0.228251 0
M  V30 355 H 29.5331 2.78127 -2.50192 0
M  V30 356 H 30.8661 3.67243 -3.27709 0
M  V30 357 N 32.5182 1.22032 0.997298 0
M  V30 358 C 33.4812 0.987909 2.06816 0
M  V30 359 C 34.4812 -0.0440084 1.6074 0
M  V30 360 O 35.6712 0.194053 1.73116 0
M  V30 361 C 32.8032 0.49132 3.37341 0
M  V30 362 H 33.9962 1.93803 2.28868 0
M  V30 363 H 31.5492 1.03838 1.16822 0
M  V30 364 H 32.2842 -0.463364 3.20973 0
M  V30 365 H 32.0692 1.23575 3.72118 0
M  V30 366 H 33.5592 0.348824 4.16141 0
M  V30 367 N 33.9963 -1.19345 1.0293 0
M  V30 368 C 34.9263 -2.2481 0.631105 0
M  V30 369 C 35.9073 -1.66245 -0.360104 0
M  V30 370 O 37.0923 -1.92677 -0.242726 0
M  V30 371 C 34.2223 -3.47295 -0.0184607 0
M  V30 372 C 33.1763 -4.18536 0.895073 0
M  V30 373 C 32.5023 -5.34586 0.110592 0
M  V30 374 C 33.8023 -4.73287 2.209 0
M  V30 375 H 35.4963 -2.58372 1.51275 0
M  V30 376 H 33.0423 -1.24194 0.728818 0
M  V30 377 H 34.9953 -4.20268 -0.308675 0
M  V30 378 H 33.7193 -3.12933 -0.934907 0
M  V30 379 H 32.3783 -3.47446 1.16949 0
M  V30 380 H 32.0263 -4.96469 -0.807902 0
M  V30 381 H 31.7263 -5.83183 0.719087 0
M  V30 382 H 33.2503 -6.10355 -0.172871 0
M  V30 383 H 34.6643 -5.38013 1.98028 0
M  V30 384 H 33.0613 -5.32373 2.76946 0
M  V30 385 H 34.1313 -3.91331 2.86336 0
M  V30 386 N 35.4744 -0.807222 -1.35358 0
M  V30 387 C 36.8854 -0.44876 -1.81226 0
M  V30 388 C 37.2364 1.02929 -1.67033 0
M  V30 389 O 36.3614 1.79991 -1.20133 0
M  V30 390 C 36.9564 -0.807774 -3.2903 0
M  V30 391 C 35.5154 -0.501901 -3.73039 0
M  V30 392 C 34.6624 -1.03304 -2.57339 0
M  V30 393 H 37.6134 -0.998808 -1.23327 0
M  V30 394 H 37.6344 -0.10554 -3.80354 0
M  V30 395 H 37.1464 -1.88357 -3.39328 0
M  V30 396 H 35.2474 0.565128 -3.68289 0
M  V30 397 H 35.3604 -1.03497 -4.67787 0
M  V30 398 H 33.7244 -0.455339 -2.50597 0
M  V30 399 H 34.5074 -2.11496 -2.70415 0
M  V30 400 N 36.9525 1.47285 -0.560781 0
M  V30 401 C 38.2295 1.9558 0.0277798 0
M  V30 402 C 38.6095 1.5034 1.48192 0
M  V30 403 O 37.9575 0.743882 2.16052 0
M  V30 404 C 38.1675 3.48789 -0.121418 0
M  V30 405 C 39.5155 4.24594 0.0220912 0
M  V30 406 O 40.5395 3.56166 -0.0491439 0
M  V30 407 O 39.3985 5.46217 0.175958 0
M  V30 408 H 36.4925 0.824663 0.0621342 0
M  V30 409 H 39.0385 1.5767 -0.627556 0
M  V30 410 H 37.8105 3.74533 -1.13316 0
M  V30 411 H 37.4335 3.93473 0.571366 0
M  V30 412 N 38.4306 0.297415 1.54768 0
M  V30 413 C 39.3406 -0.58983 2.27064 0
M  V30 414 C 40.3566 -1.15144 1.30453 0
M  V30 415 O 41.5326 -1.17699 1.63428 0
M  V30 416 C 38.5976 -1.74714 2.9946 0
M  V30 417 C 37.6586 -1.21997 4.11601 0
M  V30 418 C 36.8916 -2.32212 4.80535 0
M  V30 419 O 37.1146 -3.52036 4.48806 0
M  V30 420 O 36.0486 -1.99106 5.68014 0
M  V30 421 H 39.8746 -0.00348199 3.037 0
M  V30 422 H 37.4596 0.0640035 1.49263 0
M  V30 423 H 39.3416 -2.42147 3.44881 0
M  V30 424 H 38.0166 -2.32016 2.25722 0
M  V30 425 H 36.9236 -0.511458 3.70587 0
M  V30 426 H 38.2566 -0.692419 4.87305 0
M  V30 427 N 39.9087 -1.5758 0.0250728 0
M  V30 428 C 41.1367 -1.9593 -0.664747 0
M  V30 429 C 41.5517 -0.901352 -1.65895 0
M  V30 430 O 40.9087 0.117255 -1.82123 0
M  V30 431 C 40.9597 -3.34342 -1.37468 0
M  V30 432 O 40.6807 -4.36079 -0.420324 0
M  V30 433 C 42.1817 -3.873 -2.1567 0
M  V30 434 H 39.4017 -0.645405 -0.183557 0
M  V30 435 H 41.9457 -2.04329 0.0836372 0
M  V30 436 H 40.1007 -3.27175 -2.0745 0
M  V30 437 H 40.5147 -5.16297 -0.923991 0
M  V30 438 H 41.9887 -4.86504 -2.60803 0
M  V30 439 H 42.4657 -3.21331 -2.99405 0
M  V30 440 H 43.0717 -3.97723 -1.50654 0
M  V30 441 N 41.3868 0.248026 -1.55636 0
M  V30 442 C 42.2968 1.32859 -1.93354 0
M  V30 443 C 43.3128 1.52719 -0.833838 0
M  V30 444 O 44.4888 1.66363 -1.13513 0
M  V30 445 C 41.5538 2.66337 -2.21958 0
M  V30 446 C 40.6148 2.55008 -3.45354 0
M  V30 447 C 39.8478 3.82121 -3.72584 0
M  V30 448 O 40.0708 4.83951 -3.01907 0
M  V30 449 O 39.0048 3.80822 -4.6611 0
M  V30 450 H 42.8308 1.03862 -2.85388 0
M  V30 451 H 40.4158 0.448686 -1.42503 0
M  V30 452 H 42.2978 3.45216 -2.4167 0
M  V30 453 H 40.9728 2.95068 -1.33103 0
M  V30 454 H 39.8798 1.7442 -3.30951 0
M  V30 455 H 41.2128 2.31222 -4.34508 0
M  V30 456 N 42.8649 1.48995 0.513639 0
M  V30 457 C 44.1109 1.58076 1.27042 0
M  V30 458 C 44.4439 0.261026 1.92438 0
M  V30 459 O 43.7189 -0.734393 1.80103 0
M  V30 460 C 44.0019 2.73091 2.34719 0
M  V30 461 C 43.8549 4.14821 1.73907 0
M  V30 462 C 45.1739 2.83796 3.36375 0
M  V30 463 H 42.2929 0.575391 0.460536 0
M  V30 464 H 44.9349 1.81232 0.570516 0
M  V30 465 H 43.0849 2.53479 2.94416 0
M  V30 466 H 44.7569 4.45917 1.18135 0
M  V30 467 H 42.9999 4.21058 1.0437 0
M  V30 468 H 43.6709 4.91147 2.51949 0
M  V30 469 H 46.1469 3.01611 2.86653 0
M  V30 470 H 45.0229 3.65971 4.09093 0
M  V30 471 H 45.2839 1.92624 3.9793 0
M  V30 472 N 44.343 -0.763751 1.37857 0
M  V30 473 C 45.589 -1.52483 1.33704 0
M  V30 474 C 45.922 -1.94051 -0.0759612 0
M  V30 475 O 45.197 -1.64675 -1.03501 0
M  V30 476 C 45.48 -2.78441 2.28348 0
M  V30 477 C 45.333 -2.43075 3.78463 0
M  V30 478 C 46.652 -3.80415 2.21298 0
M  V30 479 H 43.771 -0.553169 0.487005 0
M  V30 480 H 46.413 -0.875562 1.68624 0
M  V30 481 H 44.563 -3.33842 1.987 0
M  V30 482 H 46.235 -1.93527 4.18742 0
M  V30 483 H 44.478 -1.75666 3.96641 0
M  V30 484 H 45.149 -3.33149 4.40132 0
M  V30 485 H 47.625 -3.34527 2.47449 0
M  V30 486 H 46.501 -4.66257 2.89647 0
M  V30 487 H 46.762 -4.25262 1.20849 0
M  V30 488 N 45.8211 -1.22559 -0.990812 0
M  V30 489 C 46.7311 -1.01394 -2.11557 0
M  V30 490 C 47.7471 0.0383962 -1.73958 0
M  V30 491 O 48.9231 -0.154787 -2.00804 0
M  V30 492 C 45.9881 -0.596569 -3.41529 0
M  V30 493 C 45.0491 -1.72276 -3.93217 0
M  V30 494 C 44.2821 -1.32521 -5.16985 0
M  V30 495 O 44.5051 -0.204909 -5.70032 0
M  V30 496 O 43.4391 -2.14247 -5.62478 0
M  V30 497 H 47.2651 -1.95633 -2.32296 0
M  V30 498 H 44.8501 -1.01172 -1.0993 0
M  V30 499 H 46.7321 -0.374263 -4.19735 0
M  V30 500 H 45.4071 0.316939 -3.22145 0
M  V30 501 H 44.3141 -1.99961 -3.16174 0
M  V30 502 H 45.6471 -2.61421 -4.17037 0
M  V30 503 N 47.2992 1.18797 -1.03562 0
M  V30 504 C 48.2092 2.25913 -0.632505 0
M  V30 505 C 49.2252 1.70668 0.338882 0
M  V30 506 O 50.4012 2.00453 0.195076 0
M  V30 507 C 47.4662 3.467 0.00350942 0
M  V30 508 C 46.5272 4.17098 -1.01624 0
M  V30 509 C 45.7602 5.32119 -0.410478 0
M  V30 510 O 45.9832 5.64976 0.784725 0
M  V30 511 O 44.9172 5.9107 -1.13667 0
M  V30 512 H 48.7432 2.62648 -1.52478 0
M  V30 513 H 46.3282 1.25781 -0.806195 0
M  V30 514 H 48.2102 4.19878 0.35781 0
M  V30 515 H 46.8852 3.11798 0.869686 0
M  V30 516 H 45.7922 3.4601 -1.42224 0
M  V30 517 H 47.1252 4.55987 -1.85301 0
M  V30 518 N 48.7773 0.814389 1.34928 0
M  V30 519 C 50.0053 0.411136 2.02774 0
M  V30 520 C 50.4203 -0.980316 1.61354 0
M  V30 521 O 49.7773 -1.63299 0.814847 0
M  V30 522 C 49.8283 0.493865 3.58111 0
M  V30 523 O 49.5493 1.83047 3.98027 0
M  V30 524 C 51.0503 0.0844174 4.4322 0
M  V30 525 H 48.2703 0.166037 0.650133 0
M  V30 526 H 50.8143 1.10018 1.72384 0
M  V30 527 H 48.9693 -0.147006 3.87121 0
M  V30 528 H 49.3833 1.79872 4.92693 0
M  V30 529 H 50.8573 0.193404 5.51661 0
M  V30 530 H 51.3343 -0.97113 4.28329 0
M  V30 531 H 51.9403 0.69875 4.19521 0
M  V30 532 N 50.2554 -1.46986 0.568584 0
M  V30 533 C 51.5014 -2.02741 0.0488709 0
M  V30 534 C 51.8344 -1.44077 -1.30214 0
M  V30 535 O 51.1094 -0.600552 -1.84996 0
M  V30 536 C 51.3924 -3.60086 -0.032047 0
M  V30 537 C 51.2454 -4.29162 1.34686 0
M  V30 538 C 52.5644 -4.33838 -0.739798 0
M  V30 539 H 49.6834 -0.736749 0.0192338 0
M  V30 540 H 52.3254 -1.75289 0.733065 0
M  V30 541 H 50.4754 -3.83606 -0.61473 0
M  V30 542 H 52.1474 -4.16948 1.97362 0
M  V30 543 H 50.3904 -3.89073 1.91846 0
M  V30 544 H 51.0614 -5.37826 1.24285 0
M  V30 545 H 53.5374 -4.15378 -0.244939 0
M  V30 546 H 52.4134 -5.43537 -0.765406 0
M  V30 547 H 52.6744 -4.03875 -1.79827 0
M  V30 548 N 51.7335 -0.305618 -1.54608 0
M  V30 549 C 52.6965 0.555591 -2.22364 0
M  V30 550 C 53.6965 1.05768 -1.21119 0
M  V30 551 O 54.8865 0.952972 -1.45822 0
M  V30 552 C 52.0185 1.76974 -2.91364 0
M  V30 553 H 53.2115 -0.0364572 -2.99878 0
M  V30 554 H 50.7645 -0.0565007 -1.56198 0
M  V30 555 H 51.4995 2.40151 -2.17941 0
M  V30 556 H 51.2845 1.41732 -3.65588 0
M  V30 557 H 52.7745 2.38148 -3.43038 0
M  V30 558 N 53.2116 1.57565 -0.0334293 0
M  V30 559 C 54.1216 2.13943 0.962572 0
M  V30 560 C 55.1376 1.09276 1.35406 0
M  V30 561 O 56.3136 1.41355 1.4346 0
M  V30 562 C 53.3786 2.65887 2.22497 0
M  V30 563 C 52.4396 3.85286 1.8935 0
M  V30 564 C 51.6726 4.34743 3.09571 0
M  V30 565 O 51.8956 3.83352 4.22371 0
M  V30 566 O 50.8296 5.26538 2.91618 0
M  V30 567 H 54.6556 2.99333 0.513169 0
M  V30 568 H 52.2406 1.4822 0.18743 0
M  V30 569 H 54.1226 2.99346 2.96598 0
M  V30 570 H 52.7976 1.83578 2.6661 0
M  V30 571 H 51.7046 3.56746 1.1262 0
M  V30 572 H 53.0376 4.68771 1.5005 0
M  V30 573 N 54.6897 -0.239769 1.55765 0
M  V30 574 C 55.9357 -0.968234 1.78194 0
M  V30 575 C 56.2687 -1.84701 0.599938 0
M  V30 576 O 55.5437 -1.9031 -0.401524 0
M  V30 577 C 55.8267 -1.8227 3.10564 0
M  V30 578 C 55.6797 -0.971633 4.3918 0
M  V30 579 C 56.9987 -2.80388 3.39221 0
M  V30 580 H 54.1177 -0.350572 0.648281 0
M  V30 581 H 56.7597 -0.238259 1.885 0
M  V30 582 H 54.9097 -2.44507 3.01908 0
M  V30 583 H 56.5817 -0.367408 4.59835 0
M  V30 584 H 54.8247 -0.276276 4.32919 0
M  V30 585 H 55.4957 -1.60346 5.28198 0
M  V30 586 H 57.9717 -2.28287 3.47885 0
M  V30 587 H 56.8477 -3.3729 4.33044 0
M  V30 588 H 57.1087 -3.57212 2.60484 0
M  V30 589 N 56.1678 -1.49265 -0.50573 0
M  V30 590 C 57.3958 -1.62215 -1.28429 0
M  V30 591 C 57.8108 -0.291697 -1.86533 0
M  V30 592 O 57.1678 0.722233 -1.67601 0
M  V30 593 C 57.2188 -2.68735 -2.41793 0
M  V30 594 O 56.9398 -3.96619 -1.86078 0
M  V30 595 C 58.4408 -2.92346 -3.3324 0
M  V30 596 H 55.6608 -0.546239 -0.389697 0
M  V30 597 H 58.2048 -1.95265 -0.607609 0
M  V30 598 H 56.3598 -2.38476 -3.053 0
M  V30 599 H 56.7738 -4.55256 -2.60465 0
M  V30 600 H 58.2478 -3.70623 -4.09075 0
M  V30 601 H 58.7248 -2.02081 -3.89948 0
M  V30 602 H 59.3308 -3.24003 -2.75503 0
M  V30 603 N 57.6459 0.756429 -1.3826 0
M  V30 604 C 58.5559 1.9009 -1.37488 0
M  V30 605 C 59.5719 1.71855 -0.272366 0
M  V30 606 O 60.7479 1.94827 -0.510318 0
M  V30 607 C 57.8129 3.25421 -1.19592 0
M  V30 608 C 56.8739 3.56202 -2.39622 0
M  V30 609 C 56.1069 4.85075 -2.2257 0
M  V30 610 O 56.3299 5.57246 -1.21793 0
M  V30 611 O 55.2639 5.15269 -3.11098 0
M  V30 612 H 59.0899 1.93695 -2.33914 0
M  V30 613 H 56.6749 0.901313 -1.1915 0
M  V30 614 H 58.5569 4.06337 -1.11661 0
M  V30 615 H 57.2319 3.22634 -0.262486 0
M  V30 616 H 56.1389 2.75458 -2.53128 0
M  V30 617 H 57.4719 3.63747 -3.31586 0
M  V30 618 N 59.124 1.23083 0.984299 0
M  V30 619 C 60.37 1.06214 1.72761 0
M  V30 620 C 60.703 -0.400584 1.90024 0
M  V30 621 O 59.978 -1.29672 1.44967 0
M  V30 622 C 60.261 1.78375 3.12817 0
M  V30 623 C 60.114 3.32296 3.03149 0
M  V30 624 C 61.433 1.54309 4.12161 0
M  V30 625 H 58.552 0.387251 0.627061 0
M  V30 626 H 61.194 1.51536 1.14616 0
M  V30 627 H 59.344 1.39848 3.62457 0
M  V30 628 H 61.016 3.8032 2.61064 0
M  V30 629 H 59.259 3.6153 2.39747 0
M  V30 630 H 59.93 3.77972 4.02295 0
M  V30 631 H 62.406 1.87791 3.71314 0
M  V30 632 H 61.282 2.07281 5.08258 0
M  V30 633 H 61.543 0.477572 4.39513 0
M  V30 634 N 60.6021 -1.18246 1.0419 0
M  V30 635 C 61.8271 -1.92736 0.765996 0
M  V30 636 C 62.2521 -1.75728 -0.67091 0
M  V30 637 O 61.6101 -1.06825 -1.46486 0
M  V30 638 C 61.6581 -3.42148 1.13875 0
M  V30 639 O 60.7621 -4.11548 0.264954 0
M  V30 640 H 60.1031 -0.601238 0.281797 0
M  V30 641 H 62.6331 -1.49942 1.39207 0
M  V30 642 H 62.6431 -3.92858 1.1012 0
M  V30 643 H 61.3181 -3.53848 2.18551 0
M  V30 644 H 59.8951 -3.71137 0.362226 0
M  V30 645 N 62.0802 -0.821533 -1.34494 0
M  V30 646 C 63.3262 -0.409552 -1.98622 0
M  V30 647 C 63.6592 1.0244 -1.64984 0
M  V30 648 O 62.9342 1.71325 -0.920758 0
M  V30 649 C 63.2172 -0.610458 -3.54888 0
M  V30 650 C 63.0702 -2.09043 -3.98273 0
M  V30 651 C 64.3892 -0.0455379 -4.40076 0
M  V30 652 H 61.5082 -0.15028 -0.721516 0
M  V30 653 H 64.1502 -1.03384 -1.59411 0
M  V30 654 H 62.3002 -0.079044 -3.8842 0
M  V30 655 H 63.9722 -2.68537 -3.75081 0
M  V30 656 H 62.2152 -2.58139 -3.48635 0
M  V30 657 H 62.8862 -2.18182 -5.07051 0
M  V30 658 H 65.3622 -0.499557 -4.1309 0
M  V30 659 H 64.2382 -0.215922 -5.48475 0
M  V30 660 H 64.4992 1.04939 -4.29465 0
M  V30 661 N 63.5583 1.46682 -0.576371 0
M  V30 662 C 64.8063 2.02013 -0.0594163 0
M  V30 663 C 65.1273 1.45101 1.30271 0
M  V30 664 O 64.3973 0.633317 1.8538 0
M  V30 665 H 62.9773 0.746759 -0.0189745 0
M  V30 666 H 65.6393 1.79862 -0.750717 0
M  V30 667 H 64.7353 3.12097 0.014345 0
M  V30 668 N 65.0364 0.313813 1.54444 0
M  V30 669 C 65.9994 -0.54379 2.22656 0
M  V30 670 C 66.9994 -1.05124 1.21678 0
M  V30 671 O 68.1894 -0.945225 1.46325 0
M  V30 672 C 65.3214 -1.75427 2.92298 0
M  V30 673 H 66.5144 0.0523599 2.99854 0
M  V30 674 H 64.0674 0.0647834 1.56166 0
M  V30 675 H 64.8024 -2.38991 2.19211 0
M  V30 676 H 64.5874 -1.39791 3.66334 0
M  V30 677 H 66.0774 -2.36325 3.44297 0
M  V30 678 N 66.5145 -1.57545 0.0417849 0
M  V30 679 C 67.4625 -2.12148 -0.953723 0
M  V30 680 C 68.4565 -1.05104 -1.32852 0
M  V30 681 O 69.6625 -1.23524 -1.30927 0
M  V30 682 H 66.0375 -0.677957 -0.325389 0
M  V30 683 H 68.0085 -2.94707 -0.467991 0
M  V30 684 C 66.7575 -2.6739 -2.22257 0
M  V30 685 H 66.0805 -3.49413 -1.94295 0
M  V30 686 H 67.5205 -3.09227 -2.90094 0
M  V30 687 C 65.9795 -1.60723 -2.96091 0
M  V30 688 O 66.5095 -1.01449 -3.88679 0
M  V30 689 N 64.7155 -1.32466 -2.58652 0
M  V30 690 H 64.2625 -1.80856 -1.83437 0
M  V30 691 H 64.2205 -0.61325 -3.08361 0
M  V30 692 N 67.9926 0.231505 -1.5589 0
M  V30 693 C 69.4036 0.799327 -1.68724 0
M  V30 694 C 69.7546 1.85398 -0.642022 0
M  V30 695 O 68.8796 2.1539 0.208784 0
M  V30 696 C 69.4746 1.45664 -3.05888 0
M  V30 697 C 68.0336 1.97197 -3.20609 0
M  V30 698 C 67.1806 0.828552 -2.64632 0
M  V30 699 H 70.1316 0.00702616 -1.58698 0
M  V30 700 H 70.1526 2.32517 -3.01191 0
M  V30 701 H 69.6646 0.688808 -3.81939 0
M  V30 702 H 67.7656 2.76813 -2.4941 0
M  V30 703 H 67.8786 2.15878 -4.27707 0
M  V30 704 H 66.2426 1.23321 -2.22854 0
M  V30 705 H 67.0256 0.0735544 -3.43221 0
M  V30 706 N 69.4707 1.49531 0.497807 0
M  V30 707 C 70.7167 1.59415 1.25358 0
M  V30 708 C 71.0497 0.281422 1.9215 0
M  V30 709 O 70.3247 -0.715249 1.80871 0
M  V30 710 C 70.6077 2.75566 2.3181 0
M  V30 711 C 70.4607 4.16642 1.69498 0
M  V30 712 C 71.7797 2.87347 3.33346 0
M  V30 713 H 68.8987 0.580244 0.454408 0
M  V30 714 H 71.5407 1.81827 0.551262 0
M  V30 715 H 69.6907 2.56587 2.91711 0
M  V30 716 H 71.3627 4.47145 1.13399 0
M  V30 717 H 69.6057 4.22141 0.998978 0
M  V30 718 H 70.2767 4.93792 2.46725 0
M  V30 719 H 72.7527 3.04634 2.83438 0
M  V30 720 H 71.6287 3.70289 4.05188 0
M  V30 721 H 71.8897 1.96834 3.95865 0
M  V30 722 N 70.9488 -0.749086 1.3866 0
M  V30 723 C 71.8808 -1.87273 1.32142 0
M  V30 724 C 72.8938 -1.61127 0.232787 0
M  V30 725 O 74.0828 -1.71623 0.49069 0
M  V30 726 C 71.1828 -3.23005 1.02571 0
M  V30 727 C 70.3558 -3.7662 2.22433 0
M  V30 728 C 69.4148 -4.90879 1.89537 0
M  V30 729 O 68.4408 -5.05276 2.62078 0
M  V30 730 N 69.6428 -5.74198 0.853031 0
M  V30 731 H 72.4078 -1.93373 2.28969 0
M  V30 732 H 69.9688 -0.929216 1.32579 0
M  V30 733 H 71.9608 -3.96992 0.786085 0
M  V30 734 H 70.5308 -3.12262 0.145249 0
M  V30 735 H 69.7508 -2.94147 2.62434 0
M  V30 736 H 71.0388 -4.09173 3.02415 0
M  V30 737 H 70.4368 -5.6514 0.25155 0
M  V30 738 H 68.9938 -6.48313 0.67329 0
M  V30 739 N 72.4269 -1.23603 -0.977757 0
M  V30 740 C 73.6729 -1.07129 -1.72195 0
M  V30 741 C 74.0059 0.390501 -1.90233 0
M  V30 742 O 73.2809 1.28902 -1.45653 0
M  V30 743 C 73.5639 -1.80031 -3.11867 0
M  V30 744 C 73.4169 -3.33899 -3.01383 0
M  V30 745 C 74.7359 -1.56492 -4.11337 0
M  V30 746 H 71.8549 -0.390571 -0.624999 0
M  V30 747 H 74.4969 -1.52142 -1.13811 0
M  V30 748 H 72.6469 -1.41768 -3.6171 0
M  V30 749 H 74.3189 -3.81699 -2.59043 0
M  V30 750 H 72.5619 -3.62796 -2.37827 0
M  V30 751 H 73.2329 -3.801 -4.00285 0
M  V30 752 H 75.7089 -1.89757 -3.70313 0
M  V30 753 H 74.5849 -2.09973 -5.07151 0
M  V30 754 H 74.8459 -0.500874 -4.39254 0
M  V30 755 N 73.905 1.17692 -1.04816 0
M  V30 756 C 74.815 2.25229 -0.65643 0
M  V30 757 C 75.831 1.71018 0.320761 0
M  V30 758 O 77.007 2.00649 0.173805 0
M  V30 759 C 74.072 3.46684 -0.0332629 0
M  V30 760 C 73.133 4.15997 -1.06042 0
M  V30 761 C 72.366 5.31654 -0.466893 0
M  V30 762 O 72.589 5.65777 0.724758 0
M  V30 763 O 71.523 5.89831 -1.1993 0
M  V30 764 H 75.349 2.61016 -1.55255 0
M  V30 765 H 72.934 1.24919 -0.81949 0
M  V30 766 H 74.816 4.20234 0.313256 0
M  V30 767 H 73.491 3.12703 0.836566 0
M  V30 768 H 72.398 3.44482 -1.45886 0
M  V30 769 H 73.731 4.53996 -1.90127 0
M  V30 770 N 75.3831 0.828654 1.34056 0
M  V30 771 C 76.6291 0.42008 1.98402 0
M  V30 772 C 76.9621 -1.01564 1.65525 0
M  V30 773 O 76.2371 -1.70834 0.929831 0
M  V30 774 C 76.5201 0.62927 3.54559 0
M  V30 775 C 76.3731 2.11152 3.97159 0
M  V30 776 C 77.6921 0.0688756 4.40046 0
M  V30 777 H 74.8111 0.154104 0.720709 0
M  V30 778 H 77.4531 1.04228 1.5886 0
M  V30 779 H 75.6031 0.0996418 3.88372 0
M  V30 780 H 77.2751 2.70522 3.73651 0
M  V30 781 H 75.5181 2.59985 3.47261 0
M  V30 782 H 76.1891 2.20868 5.05887 0
M  V30 783 H 78.6651 0.521458 4.1282 0
M  V30 784 H 77.5411 0.245006 5.48353 0
M  V30 785 H 77.8021 -1.0266 4.30015 0
M  V30 786 N 76.8612 -1.46375 0.584142 0
M  V30 787 C 78.1092 -2.01978 0.0701287 0
M  V30 788 C 78.4302 -1.4579 -1.295 0
M  V30 789 O 77.7002 -0.64314 -1.85042 0
M  V30 790 H 76.2802 -0.746648 0.0229345 0
M  V30 791 H 78.9422 -1.79461 0.760245 0
M  V30 792 H 78.0382 -3.121 0.0022064 0
M  V30 793 N 78.3393 -0.321999 -1.54275 0
M  V30 794 C 79.2493 0.553631 -2.27974 0
M  V30 795 C 80.2653 1.13054 -1.32268 0
M  V30 796 O 81.4413 1.15084 -1.6528 0
M  V30 797 C 78.5063 1.69927 -3.02201 0
M  V30 798 C 77.5673 1.15433 -4.1349 0
M  V30 799 C 76.8003 2.24537 -4.84168 0
M  V30 800 O 77.0233 3.44852 -4.5435 0
M  V30 801 O 75.9573 1.90044 -5.7111 0
M  V30 802 H 79.7833 -0.0448345 -3.03667 0
M  V30 803 H 77.3683 -0.0877418 -1.49142 0
M  V30 804 H 79.2503 2.3663 -3.48689 0
M  V30 805 H 77.9253 2.28395 -2.29385 0
M  V30 806 H 76.8323 0.452436 -3.71354 0
M  V30 807 H 78.1653 0.614805 -4.88345 0
M  V30 808 N 79.8174 1.5752 -0.0501392 0
M  V30 809 C 81.0644 1.9265 0.623874 0
M  V30 810 C 81.3924 0.928411 1.70912 0
M  V30 811 O 80.6474 -0.0594525 1.9561 0
M  V30 812 C 80.9464 3.34467 1.25963 0
M  V30 813 C 80.6124 4.49883 0.302689 0
M  V30 814 C 79.2744 4.81184 0.0393636 0
M  V30 815 C 81.6264 5.20002 -0.353205 0
M  V30 816 C 78.9544 5.79951 -0.887308 0
M  V30 817 C 81.3064 6.1976 -1.26806 0
M  V30 818 C 79.9704 6.49491 -1.54007 0
M  V30 819 H 79.2404 0.704957 0.228292 0
M  V30 820 H 81.8874 1.91146 -0.116398 0
M  V30 821 H 80.1924 3.32333 2.07514 0
M  V30 822 H 81.8894 3.58928 1.78806 0
M  V30 823 H 78.4794 4.25457 0.518109 0
M  V30 824 H 82.6634 4.96033 -0.162854 0
M  V30 825 H 77.9194 6.01322 -1.10553 0
M  V30 826 H 82.0934 6.73205 -1.78236 0
M  V30 827 H 79.7204 7.25837 -2.25976 0
M  V30 828 N 81.2955 -0.223234 1.56011 0
M  V30 829 C 82.5725 -0.972108 1.69733 0
M  V30 830 C 82.9525 -2.02485 0.59691 0
M  V30 831 O 82.3005 -2.25037 -0.396324 0
M  V30 832 C 82.5105 -1.58407 3.10979 0
M  V30 833 C 83.8585 -2.07696 3.70334 0
M  V30 834 O 84.8825 -1.68304 3.1393 0
M  V30 835 O 83.7415 -2.80096 4.69264 0
M  V30 836 H 80.8355 -0.453993 0.691245 0
M  V30 837 H 83.3815 -0.215149 1.68331 0
M  V30 838 H 82.1535 -0.823831 3.82529 0
M  V30 839 H 81.7765 -2.40661 3.16493 0
M  V30 840 N 82.7736 -1.49793 -0.48987 0
M  V30 841 C 84.0506 -1.50348 -1.25119 0
M  V30 842 C 84.4306 -0.237466 -2.0976 0
M  V30 843 O 83.7786 0.77981 -2.14782 0
M  V30 844 C 83.9886 -2.78872 -2.09837 0
M  V30 845 C 85.3366 -3.288 -2.68655 0
M  V30 846 O 86.3606 -2.80065 -2.20096 0
M  V30 847 O 85.2196 -4.13707 -3.57083 0
M  V30 848 H 82.3136 -0.602242 -0.566775 0
M  V30 849 H 84.8596 -1.62067 -0.503229 0
M  V30 850 H 83.6316 -3.62499 -1.47343 0
M  V30 851 H 83.2546 -2.70066 -2.91805 0
M  V30 852 N 84.2517 0.741722 -1.39055 0
M  V30 853 C 85.4997 1.49818 -1.35643 0
M  V30 854 C 85.8207 1.94938 0.0491642 0
M  V30 855 O 85.0907 1.68505 0.999141 0
M  V30 856 H 83.6707 0.555755 -0.499144 0
M  V30 857 H 86.3327 0.880957 -1.73854 0
M  V30 858 H 85.4287 2.38348 -2.01486 0
M  V30 859 N 85.7298 1.2412 0.971189 0
M  V30 860 C 86.6928 1.03156 2.04674 0
M  V30 861 C 87.6928 -0.00990322 1.60797 0
M  V30 862 O 88.8828 0.230729 1.72665 0
M  V30 863 C 86.0148 0.562765 3.36223 0
M  V30 864 H 87.2078 1.98614 2.24705 0
M  V30 865 H 84.7608 1.06293 1.14593 0
M  V30 866 H 85.4958 -0.395176 3.21883 0
M  V30 867 H 85.2808 1.31441 3.69413 0
M  V30 868 H 86.7708 0.437015 4.15307 0
M  V30 869 N 87.2079 -1.17134 1.05439 0
M  V30 870 C 88.1179 -2.24878 0.668365 0
M  V30 871 C 89.1339 -1.71186 -0.311687 0
M  V30 872 O 90.3099 -2.00738 -0.163161 0
M  V30 873 C 87.3749 -3.46662 0.051648 0
M  V30 874 C 86.4359 -4.15429 1.08246 0
M  V30 875 C 85.6689 -5.31399 0.495082 0
M  V30 876 O 85.8919 -5.66153 -0.694743 0
M  V30 877 O 84.8259 -5.89187 1.23056 0
M  V30 878 H 88.6519 -2.60189 1.56637 0
M  V30 879 H 86.2369 -1.24482 0.826104 0
M  V30 880 H 88.1189 -4.20394 -0.290966 0
M  V30 881 H 86.7939 -3.13142 -0.819971 0
M  V30 882 H 85.7009 -3.43704 1.47711 0
M  V30 883 H 87.0339 -4.52982 1.92532 0
M  V30 884 N 88.686 -0.835752 -1.33615 0
M  V30 885 C 89.596 -0.269088 -2.33052 0
M  V30 886 C 90.612 0.603251 -1.63208 0
M  V30 887 O 91.788 0.508112 -1.94885 0
M  V30 888 C 88.853 0.549091 -3.42324 0
M  V30 889 C 87.914 -0.347156 -4.27894 0
M  V30 890 C 87.147 0.43207 -5.31948 0
M  V30 891 O 87.37 1.66409 -5.45586 0
M  V30 892 O 86.304 -0.192298 -6.01593 0
M  V30 893 H 90.13 -1.09243 -2.83372 0
M  V30 894 H 87.715 -0.598198 -1.36901 0
M  V30 895 H 89.597 1.01414 -4.09015 0
M  V30 896 H 88.272 1.34955 -2.94226 0
M  V30 897 H 87.179 -0.859979 -3.64081 0
M  V30 898 H 88.512 -1.1123 -4.79467 0
M  V30 899 N 90.1641 1.46063 -0.591896 0
M  V30 900 C 91.3921 2.06717 -0.0868936 0
M  V30 901 C 91.8071 1.43916 1.22203 0
M  V30 902 O 91.1641 0.547698 1.74088 0
M  V30 903 C 91.2151 3.6142 0.0758725 0
M  V30 904 O 90.9361 4.21874 -1.18126 0
M  V30 905 C 92.4371 4.39025 0.61416 0
M  V30 906 H 89.6571 0.668162 -0.0616518 0
M  V30 907 H 92.2011 1.8755 -0.815175 0
M  V30 908 H 90.3561 3.79983 0.754413 0
M  V30 909 H 90.7701 5.14861 -1.00092 0
M  V30 910 H 92.2441 5.4783 0.677193 0
M  V30 911 H 92.7211 4.07708 1.63312 0
M  V30 912 H 93.3271 4.2529 -0.0298142 0
M  V30 913 N 91.6422 0.330177 1.54103 0
M  V30 914 C 92.5522 -0.541534 2.28264 0
M  V30 915 C 93.5682 -1.12351 1.32866 0
M  V30 916 O 94.7442 -1.14206 1.65888 0
M  V30 917 C 91.8092 -1.68322 3.03098 0
M  V30 918 C 90.8702 -1.13238 4.14096 0
M  V30 919 C 90.1032 -2.21966 4.85352 0
M  V30 920 O 90.3262 -3.42437 4.56172 0
M  V30 921 O 89.2602 -1.87013 5.7211 0
M  V30 922 H 93.0862 0.060938 3.03639 0
M  V30 923 H 90.6712 0.09565 1.49093 0
M  V30 924 H 92.5532 -2.34777 3.49939 0
M  V30 925 H 91.2282 -2.27176 2.30593 0
M  V30 926 H 90.1352 -0.432736 3.71589 0
M  V30 927 H 91.4682 -0.588898 4.88664 0
M  V30 928 N 93.1203 -1.57491 0.0584922 0
M  V30 929 C 94.0303 -2.15448 -0.928414 0
M  V30 930 C 95.0463 -1.11416 -1.3365 0
M  V30 931 O 96.2223 -1.4362 -1.41193 0
M  V30 932 C 93.2873 -2.69393 -2.18239 0
M  V30 933 C 92.3483 -3.88249 -1.83196 0
M  V30 934 C 91.5813 -4.39613 -3.02616 0
M  V30 935 O 91.8043 -3.90023 -4.16219 0
M  V30 936 O 90.7383 -5.31111 -2.83204 0
M  V30 937 H 94.5643 -3.00112 -0.465483 0
M  V30 938 H 92.1493 -1.48499 -0.163826 0
M  V30 939 H 94.0313 -3.04026 -2.91798 0
M  V30 940 H 92.7063 -1.87796 -2.63656 0
M  V30 941 H 91.6133 -3.58492 -1.06931 0
M  V30 942 H 92.9463 -4.71098 -1.42573 0
M  V30 943 N 94.5984 0.214957 -1.56127 0
M  V30 944 C 95.5084 1.28727 -1.96129 0
M  V30 945 C 96.5244 1.50916 -0.866044 0
M  V30 946 O 97.7004 1.63918 -1.17016 0
M  V30 947 C 94.7654 2.61569 -2.27558 0
M  V30 948 C 93.8264 2.47625 -3.50685 0
M  V30 949 C 93.0594 3.74132 -3.80606 0
M  V30 950 O 93.2824 4.77438 -3.12104 0
M  V30 951 O 92.2164 3.70849 -4.74083 0
M  V30 952 H 96.0424 0.977855 -2.87527 0
M  V30 953 H 93.6274 0.418358 -1.43423 0
M  V30 954 H 95.5094 3.40012 -2.48938 0
M  V30 955 H 94.1844 2.92178 -1.39332 0
M  V30 956 H 93.0914 1.67361 -3.34576 0
M  V30 957 H 94.4244 2.21954 -4.39315 0
M  V30 958 N 96.0765 1.50051 0.48192 0
M  V30 959 C 97.3225 1.60736 1.2366 0
M  V30 960 C 97.6555 0.301786 1.91841 0
M  V30 961 O 96.9305 -0.696025 1.8162 0
M  V30 962 C 97.2135 2.78009 2.28874 0
M  V30 963 C 97.0665 4.18416 1.65069 0
M  V30 964 C 98.3855 2.90867 3.30279 0
M  V30 965 H 95.5045 0.585031 0.448228 0
M  V30 966 H 98.1465 1.82402 0.531946 0
M  V30 967 H 96.2965 2.59667 2.88973 0
M  V30 968 H 97.9685 4.48322 1.0865 0
M  V30 969 H 96.2115 4.23177 0.954148 0
M  V30 970 H 96.8825 4.96381 2.41474 0
M  V30 971 H 99.3585 3.07623 2.80191 0
M  V30 972 H 98.2345 3.74566 4.01238 0
M  V30 973 H 98.4955 2.01021 3.93755 0
M  V30 974 N 97.5546 -0.734337 1.39446 0
M  V30 975 C 98.8006 -1.49613 1.36908 0
M  V30 976 C 99.1336 -1.94169 -0.0347829 0
M  V30 977 O 98.4086 -1.66833 -0.999847 0
M  V30 978 C 98.6916 -2.73534 2.34203 0
M  V30 979 C 98.5446 -2.34993 3.83534 0
M  V30 980 C 99.8636 -3.75635 2.29317 0
M  V30 981 H 96.9826 -0.542714 0.498629 0
M  V30 982 H 99.6246 -0.839597 1.70443 0
M  V30 983 H 97.7746 -3.29553 2.05736 0
M  V30 984 H 99.4466 -1.84601 4.22753 0
M  V30 985 H 97.6896 -1.67213 4.00278 0
M  V30 986 H 98.3606 -3.23738 4.47099 0
M  V30 987 H 100.837 -3.29203 2.54489 0
M  V30 988 H 99.7126 -4.60008 2.99472 0
M  V30 989 H 99.9736 -4.22603 1.29842 0
M  V30 990 N 99.0327 -1.24633 -0.964593 0
M  V30 991 C 99.9957 -1.0424 -2.04124 0
M  V30 992 C 100.996 0.00137563 -1.608 0
M  V30 993 O 102.186 -0.239883 -1.7254 0
M  V30 994 C 99.3177 -0.580588 -3.3592 0
M  V30 995 H 100.511 -1.99803 -2.23649 0
M  V30 996 H 98.0637 -1.06899 -1.14027 0
M  V30 997 H 98.7987 0.3781 -3.22088 0
M  V30 998 H 98.5837 -1.33398 -3.6871 0
M  V30 999 H 100.074 -0.459034 -4.15069 0
M  V30 1000 N 100.511 1.16574 -1.06058 0
M  V30 1001 C 101.421 2.2452 -0.680282 0
M  V30 1002 C 102.437 1.71348 0.302604 0
M  V30 1003 O 103.613 2.00822 0.152513 0
M  V30 1004 C 100.678 3.46629 -0.0700315 0
M  V30 1005 C 99.7388 4.14849 -1.10448 0
M  V30 1006 C 98.9718 5.31129 -0.523256 0
M  V30 1007 O 99.1948 5.66514 0.664709 0
M  V30 1008 O 98.1288 5.88526 -1.26179 0
M  V30 1009 H 101.955 2.59355 -1.58015 0
M  V30 1010 H 99.5398 1.24043 -0.832694 0
M  V30 1011 H 101.422 4.20543 0.268667 0
M  V30 1012 H 100.097 3.13573 0.803353 0
M  V30 1013 H 99.0038 3.42916 -1.49532 0
M  V30 1014 H 100.337 4.51954 -1.94931 0
M  V30 1015 N 101.989 0.842826 1.3317 0
M  V30 1016 C 102.937 0.267495 2.31057 0
M  V30 1017 C 103.931 -0.602682 1.58316 0
M  V30 1018 O 105.137 -0.491803 1.73151 0
M  V30 1019 H 101.512 0.0677813 0.748939 0
M  V30 1020 H 103.483 1.10754 2.77085 0
M  V30 1021 C 102.232 -0.539331 3.43492 0
M  V30 1022 H 101.555 0.12095 3.99617 0
M  V30 1023 H 102.995 -0.90767 4.14171 0
M  V30 1024 C 101.454 -1.71981 2.89697 0
M  V30 1025 O 101.984 -2.81862 2.86211 0
M  V30 1026 N 100.19 -1.54299 2.46252 0
M  V30 1027 H 99.7369 -0.649143 2.49287 0
M  V30 1028 H 99.6949 -2.33431 2.10612 0
M  V30 1029 N 103.467 -1.45747 0.599634 0
M  V30 1030 C 104.878 -1.85853 0.177681 0
M  V30 1031 C 105.229 -1.50102 -1.26348 0
M  V30 1032 O 104.354 -0.923905 -1.95686 0
M  V30 1033 C 104.949 -3.37326 0.315688 0
M  V30 1034 C 103.508 -3.76365 -0.0515144 0
M  V30 1035 C 102.655 -2.69722 0.643822 0
M  V30 1036 H 105.606 -1.36661 0.806814 0
M  V30 1037 H 105.627 -3.77778 -0.454321 0
M  V30 1038 H 105.139 -3.63315 1.36468 0
M  V30 1039 H 103.24 -3.55993 -1.09999 0
M  V30 1040 H 103.353 -4.77916 0.336594 0
M  V30 1041 H 101.717 -2.54567 0.0822881 0
M  V30 1042 H 102.5 -2.98549 1.6948 0
M  V30 1043 N 104.945 -0.338344 -1.53925 0
M  V30 1044 C 106.185 0.260168 -2.02737 0
M  V30 1045 C 106.549 1.48181 -1.22092 0
M  V30 1046 O 107.75 2.15416 -1.60777 0
M  V30 1047 C 106.021 0.571627 -3.52799 0
M  V30 1048 S 107.58 1.14769 -4.23525 0
M  V30 1049 H 104.398 0.077791 -0.706732 0
M  V30 1050 H 107 -0.474899 -1.89644 0
M  V30 1051 H 105.704 -0.325392 -4.09108 0
M  V30 1052 H 105.235 1.3365 -3.70002 0
M  V30 1053 H 107.25 2.43372 -4.32417 0
M  V30 1054 N 106.423 1.57458 -0.0668435 0
M  V30 1055 C 107.355 2.09413 0.931601 0
M  V30 1056 C 108.368 1.02522 1.26464 0
M  V30 1057 O 109.557 1.30049 1.22269 0
M  V30 1058 C 106.657 2.53537 2.24882 0
M  V30 1059 C 105.83 3.83944 2.09537 0
M  V30 1060 C 104.889 4.14214 3.2452 0
M  V30 1061 O 103.915 4.83891 2.9973 0
M  V30 1062 N 105.117 3.67367 4.49469 0
M  V30 1063 H 107.882 2.95699 0.488048 0
M  V30 1064 H 105.443 1.61462 0.119009 0
M  V30 1065 H 107.435 2.70853 3.00701 0
M  V30 1066 H 106.005 1.72415 2.60753 0
M  V30 1067 H 105.225 3.76057 1.18215 0
M  V30 1068 H 106.513 4.69312 1.96529 0
M  V30 1069 H 105.911 3.11068 4.72497 0
M  V30 1070 H 104.468 3.89891 5.2233 0
M  V30 1071 N 107.901 -0.206675 1.56239 0
M  V30 1072 C 108.849 -1.27571 1.94495 0
M  V30 1073 C 109.843 -1.47737 0.828862 0
M  V30 1074 O 111.049 -1.48735 1.0138 0
M  V30 1075 H 107.424 -0.428029 0.6183 0
M  V30 1076 H 109.395 -0.925961 2.8367 0
M  V30 1077 C 108.144 -2.61568 2.29079 0
M  V30 1078 H 107.467 -2.46863 3.14482 0
M  V30 1079 H 108.907 -3.35144 2.5972 0
M  V30 1080 C 107.366 -3.17695 1.12123 0
M  V30 1081 O 107.896 -3.99801 0.390153 0
M  V30 1082 N 106.102 -2.76276 0.901097 0
M  V30 1083 H 105.649 -2.09613 1.49733 0
M  V30 1084 H 105.607 -3.1417 0.120319 0
M  V30 1085 N 109.379 -1.50304 -0.473955 0
M  V30 1086 C 110.329 -1.65347 -1.56985 0
M  V30 1087 C 111.313 -0.508176 -1.52664 0
M  V30 1088 O 112.505 -0.762446 -1.59737 0
M  V30 1089 C 109.634 -1.74832 -2.95447 0
M  V30 1090 C 108.72 -2.95028 -3.04662 0
M  V30 1091 N 109.111 -4.18747 -2.83698 0
M  V30 1092 C 107.409 -2.93527 -3.35795 0
M  V30 1093 C 108.11 -4.99687 -2.97805 0
M  V30 1094 N 107.086 -4.33585 -3.2788 0
M  V30 1095 H 110.888 -2.58698 -1.39472 0
M  V30 1096 H 108.402 -1.47449 -0.680629 0
M  V30 1097 H 110.399 -1.83712 -3.7424 0
M  V30 1098 H 109.059 -0.826376 -3.14008 0
M  V30 1099 H 110.07 -4.48291 -2.59337 0
M  V30 1100 H 106.747 -2.10821 -3.60362 0
M  V30 1101 H 108.137 -6.08057 -2.85861 0
M  V30 1102 N 110.857 0.726932 -1.39834 0
M  V30 1103 C 111.807 1.83232 -1.35683 0
M  V30 1104 C 112.791 1.59155 -0.236295 0
M  V30 1105 O 113.983 1.70522 -0.474488 0
M  V30 1106 C 111.112 3.21246 -1.21062 0
M  V30 1107 C 110.198 3.51125 -2.37849 0
M  V30 1108 N 110.589 3.51889 -3.63329 0
M  V30 1109 C 108.887 3.81527 -2.30982 0
M  V30 1110 C 109.588 3.79791 -4.40606 0
M  V30 1111 N 108.564 3.97971 -3.70297 0
M  V30 1112 H 112.366 1.8214 -2.30656 0
M  V30 1113 H 109.88 0.925545 -1.33444 0
M  V30 1114 H 111.877 4.00387 -1.16171 0
M  V30 1115 H 110.537 3.23572 -0.270458 0
M  V30 1116 H 111.548 3.33008 -3.96643 0
M  V30 1117 H 108.225 3.91411 -1.45272 0
M  V30 1118 H 109.615 3.86783 -5.49408 0
M  V30 1119 N 112.336 1.25143 0.95797 0
M  V30 1120 C 113.576 1.10893 1.71703 0
M  V30 1121 C 113.94 -0.34478 1.88879 0
M  V30 1122 O 115.141 -0.609014 2.6181 0
M  V30 1123 C 113.412 1.83889 3.06463 0
M  V30 1124 S 114.971 1.85491 3.97666 0
M  V30 1125 H 111.789 0.396428 0.590226 0
M  V30 1126 H 114.391 1.58618 1.14283 0
M  V30 1127 H 113.095 2.88756 2.9163 0
M  V30 1128 H 112.626 1.36538 3.68946 0
M  V30 1129 H 114.641 0.929553 4.87415 0
M  V30 1130 N 113.814 -1.1601 1.06675 0
M  V30 1131 C 114.761 -2.20525 0.680967 0
M  V30 1132 C 115.731 -1.62904 -0.324283 0
M  V30 1133 O 116.916 -1.89615 -0.212294 0
M  V30 1134 C 114.056 -3.45013 0.0776551 0
M  V30 1135 C 113.169 -4.16863 1.13355 0
M  V30 1136 C 112.304 -5.2888 0.49597 0
M  V30 1137 C 111.343 -5.92537 1.53513 0
M  V30 1138 N 110.48 -6.96038 0.920631 0
M  V30 1139 H 115.32 -2.52876 1.57663 0
M  V30 1140 H 112.857 -1.24199 0.788223 0
M  V30 1141 H 114.815 -4.16193 -0.289704 0
M  V30 1142 H 113.445 -3.132 -0.781393 0
M  V30 1143 H 112.497 -3.44248 1.61857 0
M  V30 1144 H 113.809 -4.60294 1.92174 0
M  V30 1145 H 112.963 -6.06653 0.0758604 0
M  V30 1146 H 111.702 -4.86622 -0.324062 0
M  V30 1147 H 110.707 -5.13482 1.9651 0
M  V30 1148 H 111.932 -6.36873 2.35733 0
M  V30 1149 H 109.878 -6.55888 0.12138 0
M  V30 1150 H 109.795 -7.3786 1.64616 0
M  V30 1151 H 111.063 -7.77725 0.525795 0
M  V30 1152 N 115.292 -0.849877 -1.32721 0
M  V30 1153 C 116.242 -0.262892 -2.26479 0
M  V30 1154 C 117.226 0.588493 -1.49752 0
M  V30 1155 O 118.418 0.438659 -1.71478 0
M  V30 1156 C 115.547 0.551818 -3.38836 0
M  V30 1157 C 114.633 -0.311689 -4.22953 0
M  V30 1158 N 115.024 -1.39567 -4.86163 0
M  V30 1159 C 113.322 -0.100611 -4.45887 0
M  V30 1160 C 114.023 -1.92651 -5.48872 0
M  V30 1161 N 112.999 -1.22637 -5.29586 0
M  V30 1162 H 116.801 -1.09166 -2.72873 0
M  V30 1163 H 114.315 -0.695486 -1.46754 0
M  V30 1164 H 116.312 0.988713 -4.05006 0
M  V30 1165 H 114.972 1.37844 -2.93988 0
M  V30 1166 H 115.983 -1.77859 -4.86402 0
M  V30 1167 H 112.66 0.691681 -4.11731 0
M  V30 1168 H 114.05 -2.83487 -6.09167 0
M  V30 1169 N 116.77 1.45427 -0.607355 0
M  V30 1170 C 118.018 2.01841 -0.102253 0
M  V30 1171 C 118.339 1.47832 1.27164 0
M  V30 1172 O 117.609 0.672497 1.83995 0
M  V30 1173 H 116.189 0.746188 -0.0348101 0
M  V30 1174 H 118.851 1.78229 -0.7887 0
M  V30 1175 H 117.947 3.12057 -0.0518585 0
M  V30 1176 N 118.248 0.346503 1.53744 0
M  V30 1177 C 119.195 -0.508914 2.25119 0
M  V30 1178 C 120.165 -1.09315 1.25058 0
M  V30 1179 O 121.35 -1.12921 1.53797 0
M  V30 1180 C 118.49 -1.65246 3.02965 0
M  V30 1181 C 117.603 -1.09525 4.17886 0
M  V30 1182 C 116.738 -2.20634 4.83212 0
M  V30 1183 C 115.777 -1.62279 5.90196 0
M  V30 1184 N 114.914 -2.67143 6.49291 0
M  V30 1185 H 119.754 0.106283 2.9781 0
M  V30 1186 H 117.291 0.0642227 1.4696 0
M  V30 1187 H 119.249 -2.32574 3.4636 0
M  V30 1188 H 117.879 -2.2386 2.32565 0
M  V30 1189 H 116.931 -0.312818 3.79112 0
M  V30 1190 H 118.243 -0.628444 4.94825 0
M  V30 1191 H 117.397 -2.95821 5.29693 0
M  V30 1192 H 116.136 -2.70659 4.05703 0
M  V30 1193 H 115.141 -0.855989 5.43096 0
M  V30 1194 H 116.366 -1.13102 6.69615 0
M  V30 1195 H 114.312 -3.16417 5.74645 0
M  V30 1196 H 114.229 -2.25093 7.21713 0
M  V30 1197 H 115.497 -3.4209 7.00425 0
M  V30 1198 N 119.726 -1.57421 0.075193 0
M  V30 1199 C 120.972 -1.93905 -0.594025 0
M  V30 1200 C 121.305 -0.955701 -1.69056 0
M  V30 1201 O 120.58 0.0145373 -1.94495 0
M  V30 1202 C 120.863 -3.40638 -1.1678 0
M  V30 1203 C 120.716 -4.49733 -0.0776792 0
M  V30 1204 C 122.035 -3.88259 -2.07228 0
M  V30 1205 H 119.154 -0.705105 -0.214466 0
M  V30 1206 H 121.796 -1.8947 0.141854 0
M  V30 1207 H 119.946 -3.44549 -1.79494 0
M  V30 1208 H 121.618 -4.57942 0.555573 0
M  V30 1209 H 119.861 -4.29751 0.591286 0
M  V30 1210 H 120.532 -5.49549 -0.519603 0
M  V30 1211 H 123.008 -3.86376 -1.54445 0
M  V30 1212 H 121.884 -4.91533 -2.44308 0
M  V30 1213 H 122.145 -3.26396 -2.98191 0
M  V30 1214 N 121.204 0.198386 -1.56346 0
M  V30 1215 C 122.444 0.92609 -1.82217 0
M  V30 1216 C 122.808 1.80584 -0.652195 0
M  V30 1217 O 124.009 2.56907 -0.790716 0
M  V30 1218 C 122.28 1.72354 -3.13096 0
M  V30 1219 S 123.839 2.50371 -3.6036 0
M  V30 1220 H 120.657 0.310677 -0.639532 0
M  V30 1221 H 123.259 0.189755 -1.94577 0
M  V30 1222 H 121.963 1.0678 -3.96265 0
M  V30 1223 H 121.494 2.50175 -3.03605 0
M  V30 1224 H 123.509 3.74488 -3.25535 0
M  V30 1225 N 122.682 1.50554 0.465978 0
M  V30 1226 C 123.592 1.72585 1.58907 0
M  V30 1227 C 124.608 0.60911 1.6299 0
M  V30 1228 O 125.784 0.88804 1.80765 0
M  V30 1229 C 122.849 1.81995 2.95091 0
M  V30 1230 C 121.91 3.05751 3.01355 0
M  V30 1231 C 121.143 3.14702 4.31043 0
M  V30 1232 O 121.366 2.30313 5.21835 0
M  V30 1233 O 120.3 4.07468 4.43005 0
M  V30 1234 H 124.126 2.67799 1.43239 0
M  V30 1235 H 121.711 1.34711 0.646013 0
M  V30 1236 H 123.593 1.90335 3.75966 0
M  V30 1237 H 122.268 0.899659 3.10947 0
M  V30 1238 H 121.175 3.02908 2.19539 0
M  V30 1239 H 122.508 3.97375 2.90437 0
M  V30 1240 N 124.16 -0.719506 1.40217 0
M  V30 1241 C 125.09 -1.8465 1.42922 0
M  V30 1242 C 126.071 -1.67599 0.29062 0
M  V30 1243 O 127.256 -1.87688 0.498677 0
M  V30 1244 C 124.386 -3.22565 1.28722 0
M  V30 1245 C 123.34 -3.54281 2.40144 0
M  V30 1246 C 122.666 -4.91298 2.11023 0
M  V30 1247 C 123.966 -3.55676 3.82481 0
M  V30 1248 H 125.66 -1.82644 2.37237 0
M  V30 1249 H 123.206 -0.877305 1.1419 0
M  V30 1250 H 125.159 -4.01095 1.29232 0
M  V30 1251 H 123.883 -3.25137 0.308811 0
M  V30 1252 H 122.542 -2.78088 2.38877 0
M  V30 1253 H 122.19 -4.90468 1.11582 0
M  V30 1254 H 121.89 -5.13485 2.8567 0
M  V30 1255 H 123.414 -5.72166 2.13209 0
M  V30 1256 H 124.828 -4.24254 3.85592 0
M  V30 1257 H 123.225 -3.89388 4.56614 0
M  V30 1258 H 124.295 -2.55144 4.12346 0
M  V30 1259 N 125.638 -1.25649 -0.95132 0
M  V30 1260 C 126.915 -1.01361 -1.67288 0
M  V30 1261 C 127.295 0.459135 -2.06046 0
M  V30 1262 O 126.643 1.43723 -1.7764 0
M  V30 1263 C 126.853 -1.95256 -2.89268 0
M  V30 1264 C 128.201 -2.23289 -3.61147 0
M  V30 1265 O 129.225 -1.93041 -2.99355 0
M  V30 1266 O 128.084 -2.74741 -4.72419 0
M  V30 1267 H 125.178 -0.38464 -0.732107 0
M  V30 1268 H 127.724 -1.36817 -1.00395 0
M  V30 1269 H 126.496 -2.94685 -2.57442 0
M  V30 1270 H 126.119 -1.60218 -3.6389 0
M  V30 1271 N 127.117 1.15442 -1.07289 0
M  V30 1272 C 128.027 2.23786 -0.704057 0
M  V30 1273 C 129.043 1.7166 0.284413 0
M  V30 1274 O 130.219 2.00972 0.131205 0
M  V30 1275 C 127.284 3.46535 -0.106792 0
M  V30 1276 C 126.345 4.13654 -1.14842 0
M  V30 1277 C 125.578 5.30544 -0.57956 0
M  V30 1278 O 125.801 5.67187 0.604585 0
M  V30 1279 O 124.735 5.87154 -1.32414 0
M  V30 1280 H 128.561 2.57664 -1.60757 0
M  V30 1281 H 126.146 1.23152 -0.845803 0
M  V30 1282 H 128.028 4.20804 0.224048 0
M  V30 1283 H 126.703 3.14407 0.770049 0
M  V30 1284 H 125.61 3.4131 -1.5316 0
M  V30 1285 H 126.943 4.49861 -1.99714 0
M  V30 1286 N 128.595 0.856903 1.32268 0
M  V30 1287 C 129.543 0.291987 2.3076 0
M  V30 1288 C 130.537 -0.585857 1.58947 0
M  V30 1289 O 131.743 -0.47341 1.73663 0
M  V30 1290 H 128.118 0.075721 0.748178 0
M  V30 1291 H 130.089 1.13687 2.75895 0
M  V30 1292 C 128.838 -0.502869 3.44044 0
M  V30 1293 H 128.161 0.163328 3.99466 0
M  V30 1294 H 129.601 -0.863691 4.1511 0
M  V30 1295 C 128.06 -1.68898 2.91505 0
M  V30 1296 O 128.59 -2.78811 2.89184 0
M  V30 1297 N 126.796 -1.51679 2.47875 0
M  V30 1298 H 126.343 -0.622666 2.49961 0
M  V30 1299 H 126.301 -2.31184 2.13076 0
M  V30 1300 N 130.073 -1.45103 0.615059 0
M  V30 1301 C 131.021 -2.32331 -0.111791 0
M  V30 1302 C 132.015 -1.46409 -0.852102 0
M  V30 1303 O 133.221 -1.62849 -0.766821 0
M  V30 1304 H 129.596 -0.749993 -0.0549072 0
M  V30 1305 H 131.567 -2.91407 0.642225 0
M  V30 1306 C 130.316 -3.3015 -1.09071 0
M  V30 1307 H 129.639 -3.96265 -0.530485 0
M  V30 1308 H 131.079 -3.93898 -1.56908 0
M  V30 1309 C 129.538 -2.57875 -2.168 0
M  V30 1310 O 130.068 -2.36567 -3.24652 0
M  V30 1311 N 128.274 -2.17884 -1.92289 0
M  V30 1312 H 127.821 -2.35413 -1.04587 0
M  V30 1313 H 127.779 -1.6985 -2.64572 0
M  V30 1314 N 131.551 -0.354651 -1.53558 0
M  V30 1315 C 132.779 0.239515 -2.05509 0
M  V30 1316 C 133.194 1.4333 -1.2289 0
M  V30 1317 O 132.551 1.80538 -0.266899 0
M  V30 1318 C 132.602 0.643719 -3.55723 0
M  V30 1319 O 132.323 -0.502602 -4.35207 0
M  V30 1320 C 133.824 1.29743 -4.23889 0
M  V30 1321 H 131.044 0.0442697 -0.669538 0
M  V30 1322 H 133.588 -0.509856 -1.98042 0
M  V30 1323 H 131.743 1.34302 -3.63376 0
M  V30 1324 H 132.157 -0.178172 -5.24197 0
M  V30 1325 H 133.631 1.53091 -5.30346 0
M  V30 1326 H 134.108 2.25441 -3.76926 0
M  V30 1327 H 134.714 0.639865 -4.20459 0
M  V30 1328 N 133.029 1.57378 -0.0835403 0
M  V30 1329 C 134.44 1.81261 0.447358 0
M  V30 1330 C 134.791 0.998331 1.68902 0
M  V30 1331 O 133.916 0.224282 2.15235 0
M  V30 1332 C 134.511 3.28767 0.818386 0
M  V30 1333 C 133.07 3.53455 1.29409 0
M  V30 1334 C 132.217 2.75831 0.285024 0
M  V30 1335 H 135.168 1.5566 -0.309115 0
M  V30 1336 H 135.189 3.41459 1.67887 0
M  V30 1337 H 134.701 3.88006 -0.0855019 0
M  V30 1338 H 132.802 2.99534 2.21608 0
M  V30 1339 H 132.915 4.62128 1.2639 0
M  V30 1340 H 131.279 2.42947 0.764767 0
M  V30 1341 H 132.062 3.37813 -0.611341 0
M  V30 1342 N 134.507 -0.190092 1.56449 0
M  V30 1343 C 135.44 -1.26375 1.90012 0
M  V30 1344 C 136.418 -1.43705 0.760765 0
M  V30 1345 O 137.602 -1.59014 1.01226 0
M  V30 1346 C 134.729 -2.62962 2.13468 0
M  V30 1347 C 133.775 -2.62474 3.36169 0
M  V30 1348 S 134.608 -2.13412 4.91137 0
M  V30 1349 C 135.764 -3.51812 5.17667 0
M  V30 1350 H 135.997 -0.977181 2.80782 0
M  V30 1351 H 133.53 -0.393814 1.49293 0
M  V30 1352 H 135.488 -3.41583 2.27664 0
M  V30 1353 H 134.149 -2.88828 1.23439 0
M  V30 1354 H 133.342 -3.62918 3.49723 0
M  V30 1355 H 132.944 -1.91937 3.20992 0
M  V30 1356 H 135.236 -4.47706 5.08494 0
M  V30 1357 H 136.179 -3.43148 6.19399 0
M  V30 1358 H 136.587 -3.46956 4.45288 0
M  V30 1359 N 135.985 -1.50799 -0.457987 0
M  V30 1360 C 137.225 -1.64088 -1.21879 0
M  V30 1361 C 137.589 -0.339848 -1.88968 0
M  V30 1362 O 138.79 -0.348301 -2.66534 0
M  V30 1363 C 137.061 -2.79726 -2.2246 0
M  V30 1364 S 138.62 -3.13225 -3.07303 0
M  V30 1365 H 135.438 -0.578314 -0.41361 0
M  V30 1366 H 138.04 -1.88632 -0.513645 0
M  V30 1367 H 136.744 -3.72722 -1.71775 0
M  V30 1368 H 136.275 -2.57308 -2.97584 0
M  V30 1369 H 138.29 -2.58062 -4.23814 0
M  V30 1370 N 137.463 0.71206 -1.40597 0
M  V30 1371 C 138.709 1.47416 -1.39271 0
M  V30 1372 C 139.042 1.942 0.00388791 0
M  V30 1373 O 138.317 1.68403 0.973179 0
M  V30 1374 C 138.6 2.69774 -2.38525 0
M  V30 1375 C 138.453 2.28861 -3.87224 0
M  V30 1376 C 139.772 3.71939 -2.35264 0
M  V30 1377 H 136.891 0.534713 -0.5072 0
M  V30 1378 H 139.533 0.812375 -1.71757 0
M  V30 1379 H 137.683 3.26238 -2.10953 0
M  V30 1380 H 139.355 1.77852 -4.25636 0
M  V30 1381 H 137.598 1.60824 -4.02887 0
M  V30 1382 H 138.269 3.16584 -4.52193 0
M  V30 1383 H 140.745 3.25113 -2.59694 0
M  V30 1384 H 139.621 4.55186 -3.06753 0
M  V30 1385 H 139.882 4.20484 -1.36549 0
M  V30 1386 N 138.941 1.26152 0.944643 0
M  V30 1387 C 140.181 1.12708 1.70517 0
M  V30 1388 C 140.545 -0.324727 1.89234 0
M  V30 1389 O 141.746 -0.581211 2.62441 0
M  V30 1390 C 140.017 1.8713 3.04495 0
M  V30 1391 S 141.576 1.89698 3.95677 0
M  V30 1392 H 138.394 0.402665 0.585988 0
M  V30 1393 H 140.996 1.59821 1.12594 0
M  V30 1394 H 139.7 2.91833 2.88551 0
M  V30 1395 H 139.231 1.40444 3.67477 0
M  V30 1396 H 141.246 0.981198 4.86402 0
M  V30 1397 N 140.419 -1.14872 1.07899 0
M  V30 1398 C 141.351 -2.19425 0.662231 0
M  V30 1399 C 142.364 -1.60231 -0.288079 0
M  V30 1400 O 143.553 -1.78336 -0.076534 0
M  V30 1401 C 140.653 -3.38867 -0.0470695 0
M  V30 1402 C 139.826 -4.27597 0.920831 0
M  V30 1403 C 138.885 -5.25616 0.247805 0
M  V30 1404 O 137.911 -5.62189 0.890599 0
M  V30 1405 N 139.113 -5.71746 -1.00435 0
M  V30 1406 H 141.878 -2.55797 1.56166 0
M  V30 1407 H 139.439 -1.30042 0.964404 0
M  V30 1408 H 141.431 -4.01497 -0.50813 0
M  V30 1409 H 140.001 -3.00864 -0.848523 0
M  V30 1410 H 139.221 -3.61982 1.56087 0
M  V30 1411 H 140.509 -4.83748 1.57688 0
M  V30 1412 H 139.907 -5.44153 -1.54642 0
M  V30 1413 H 138.464 -6.36389 -1.40899 0
M  V30 1414 N 141.898 -0.863906 -1.31812 0
M  V30 1415 C 143.175 -0.39275 -1.91616 0
M  V30 1416 C 143.555 1.12461 -1.7865 0
M  V30 1417 O 142.903 1.95045 -1.19037 0
M  V30 1418 C 143.113 -0.867385 -3.38049 0
M  V30 1419 C 144.461 -0.889966 -4.15168 0
M  V30 1420 O 145.485 -0.812635 -3.46806 0
M  V30 1421 O 144.344 -1.00079 -5.37258 0
M  V30 1422 H 141.438 -0.116358 -0.818773 0
M  V30 1423 H 143.984 -0.951418 -1.40521 0
M  V30 1424 H 142.756 -1.91081 -3.41473 0
M  V30 1425 H 142.379 -0.286687 -3.96565 0
M  V30 1426 N 143.376 1.44774 -0.622745 0
M  V30 1427 C 144.787 1.85546 -0.207226 0
M  V30 1428 C 145.138 1.52093 1.23944 0
M  V30 1429 O 144.263 0.95492 1.94191 0
M  V30 1430 C 144.858 3.36781 -0.369313 0
M  V30 1431 C 143.417 3.76399 -0.00836847 0
M  V30 1432 C 142.564 2.68664 -0.686651 0
M  V30 1433 H 145.515 1.3536 -0.828454 0
M  V30 1434 H 145.536 3.78453 0.394162 0
M  V30 1435 H 145.048 3.61098 -1.42231 0
M  V30 1436 H 143.149 3.57698 1.04322 0
M  V30 1437 H 143.262 4.7732 -0.412584 0
M  V30 1438 H 141.626 2.54404 -0.122777 0
M  V30 1439 H 142.409 2.95815 -1.74208 0
M  V30 1440 N 144.854 0.36279 1.53368 0
M  V30 1441 C 146.082 -0.228613 2.05633 0
M  V30 1442 C 146.497 -1.42676 1.23649 0
M  V30 1443 O 145.854 -1.80394 0.27647 0
M  V30 1444 C 145.905 -0.624845 3.56059 0
M  V30 1445 O 145.626 0.525675 4.34935 0
M  V30 1446 C 147.127 -1.27493 4.24571 0
M  V30 1447 H 144.347 -0.0407183 0.669763 0
M  V30 1448 H 146.891 0.520352 1.97769 0
M  V30 1449 H 145.046 -1.32373 3.64083 0
M  V30 1450 H 145.46 0.205969 5.24095 0
M  V30 1451 H 146.934 -1.50277 5.31151 0
M  V30 1452 H 147.411 -2.23439 3.78116 0
M  V30 1453 H 148.017 -0.617558 4.20792 0
M  V30 1454 N 146.332 -1.57332 0.0918853 0
M  V30 1455 C 147.557 -1.98995 -0.584442 0
M  V30 1456 C 147.982 -0.970528 -1.61128 0
M  V30 1457 O 147.34 0.0613904 -1.81196 0
M  V30 1458 C 147.388 -3.39636 -1.21161 0
M  V30 1459 O 146.492 -3.40447 -2.32744 0
M  V30 1460 H 145.833 -0.647165 -0.148572 0
M  V30 1461 H 148.363 -2.03873 0.172347 0
M  V30 1462 H 148.373 -3.7726 -1.55367 0
M  V30 1463 H 147.048 -4.13356 -0.459313 0
M  V30 1464 H 145.625 -3.14614 -2.0018 0
M  V30 1465 N 147.81 0.181792 -1.56548 0
M  V30 1466 C 149.05 0.906711 -1.83189 0
M  V30 1467 C 149.414 1.79882 -0.671312 0
M  V30 1468 O 150.615 2.56054 -0.81792 0
M  V30 1469 C 148.886 1.69023 -3.14906 0
M  V30 1470 S 150.445 2.46535 -3.62996 0
M  V30 1471 H 147.263 0.303877 -0.642791 0
M  V30 1472 H 149.865 0.169107 -1.94767 0
M  V30 1473 H 148.569 1.02571 -3.97376 0
M  V30 1474 H 148.1 2.46941 -3.06241 0
M  V30 1475 H 150.115 3.71014 -3.29489 0
M  V30 1476 N 149.288 1.51039 0.449983 0
M  V30 1477 C 150.699 1.557 1.03026 0
M  V30 1478 C 151.05 0.372939 1.92623 0
M  V30 1479 O 150.175 -0.511771 2.10261 0
M  V30 1480 C 150.77 2.82171 1.87523 0
M  V30 1481 C 149.329 2.89444 2.40622 0
M  V30 1482 C 148.476 2.50228 1.19504 0
M  V30 1483 H 151.427 1.56999 0.231745 0
M  V30 1484 H 151.448 2.65219 2.72835 0
M  V30 1485 H 150.96 3.68331 1.22286 0
M  V30 1486 H 149.061 2.07685 3.0935 0
M  V30 1487 H 149.174 3.92816 2.74285 0
M  V30 1488 H 147.538 2.03139 1.53644 0
M  V30 1489 H 148.321 3.38719 0.558972 0
M  V30 1490 N 150.766 -0.704594 1.40972 0
M  V30 1491 C 151.729 -1.80035 1.41845 0
M  V30 1492 C 152.729 -1.57774 0.310474 0
M  V30 1493 O 153.919 -1.64613 0.56992 0
M  V30 1494 C 151.051 -3.18284 1.22098 0
M  V30 1495 H 152.244 -1.80658 2.3938 0
M  V30 1496 H 149.797 -0.911329 1.26982 0
M  V30 1497 H 150.532 -3.23306 0.253672 0
M  V30 1498 H 150.317 -3.35843 2.02366 0
M  V30 1499 H 151.807 -3.98289 1.25522 0
M  V30 1500 N 152.244 -1.26651 -0.937939 0
M  V30 1501 C 153.655 -1.1125 -1.49934 0
M  V30 1502 C 154.006 0.306077 -1.93798 0
M  V30 1503 O 153.131 1.19792 -1.80219 0
M  V30 1504 C 153.726 -2.01339 -2.72485 0
M  V30 1505 C 152.285 -1.90074 -3.24883 0
M  V30 1506 C 151.432 -1.94498 -1.97651 0
M  V30 1507 H 154.383 -1.39693 -0.753091 0
M  V30 1508 H 154.404 -1.56319 -3.46907 0
M  V30 1509 H 153.916 -3.04577 -2.40529 0
M  V30 1510 H 152.017 -0.897827 -3.61621 0
M  V30 1511 H 152.13 -2.75778 -3.9177 0
M  V30 1512 H 150.494 -1.38591 -2.13693 0
M  V30 1513 H 151.277 -2.99372 -1.68022 0
M  V30 1514 N 153.722 1.14298 -1.08507 0
M  V30 1515 C 154.971 1.84708 -0.810305 0
M  V30 1516 C 155.284 1.83903 0.666271 0
M  V30 1517 O 156.49 2.50112 1.05624 0
M  V30 1518 C 154.946 3.31572 -1.39957 0
M  V30 1519 C 154.554 3.40791 -2.90801 0
M  V30 1520 C 156.298 4.07087 -1.20334 0
M  V30 1521 C 154.205 4.81872 -3.4286 0
M  V30 1522 H 153.135 0.691985 -0.299454 0
M  V30 1523 H 155.786 1.28841 -1.30661 0
M  V30 1524 H 154.168 3.87183 -0.830976 0
M  V30 1525 H 155.342 2.95225 -3.53806 0
M  V30 1526 H 153.657 2.78732 -3.0935 0
M  V30 1527 H 156.254 5.11225 -1.56693 0
M  V30 1528 H 156.597 4.16054 -0.143237 0
M  V30 1529 H 157.13 3.57779 -1.73893 0
M  V30 1530 H 153.869 4.78094 -4.48449 0
M  V30 1531 H 153.389 5.27972 -2.84615 0
M  V30 1532 H 155.068 5.50765 -3.39509 0
M  V30 1533 N 155.201 0.870884 1.31352 0
M  V30 1534 C 156.449 0.48132 1.96285 0
M  V30 1535 C 156.77 -0.969813 1.69173 0
M  V30 1536 O 156.04 -1.67998 1.00764 0
M  V30 1537 H 154.62 0.175002 0.726212 0
M  V30 1538 H 157.282 1.11087 1.60143 0
M  V30 1539 H 156.378 0.639825 3.05471 0
M  V30 1540 N 156.679 -1.44442 0.630414 0
M  V30 1541 C 157.589 -2.34476 -0.0761693 0
M  V30 1542 C 158.605 -1.52576 -0.836449 0
M  V30 1543 O 159.781 -1.85307 -0.788874 0
M  V30 1544 C 156.846 -3.30545 -1.04599 0
M  V30 1545 C 155.907 -4.28352 -0.28516 0
M  V30 1546 C 155.14 -5.19831 -1.20878 0
M  V30 1547 O 155.363 -5.15223 -2.44747 0
M  V30 1548 O 154.297 -5.97892 -0.693491 0
M  V30 1549 H 158.123 -2.96345 0.664324 0
M  V30 1550 H 155.708 -1.44203 0.39061 0
M  V30 1551 H 157.59 -3.89681 -1.60396 0
M  V30 1552 H 156.265 -2.7121 -1.76711 0
M  V30 1553 H 155.172 -3.72764 0.315837 0
M  V30 1554 H 156.505 -4.90605 0.395924 0
M  V30 1555 N 158.157 -0.370918 -1.53173 0
M  V30 1556 C 159.404 0.217102 -2.01333 0
M  V30 1557 C 159.732 1.48338 -1.25802 0
M  V30 1558 O 158.987 1.92698 -0.34146 0
M  V30 1559 C 159.286 0.549696 -3.53147 0
M  V30 1560 C 158.952 -0.622872 -4.46577 0
M  V30 1561 C 157.614 -0.944595 -4.71838 0
M  V30 1562 C 159.966 -1.40819 -5.01816 0
M  V30 1563 C 157.294 -2.05351 -5.49589 0
M  V30 1564 C 159.646 -2.50757 -5.80778 0
M  V30 1565 C 158.31 -2.83458 -6.04324 0
M  V30 1566 H 157.58 0.0794431 -0.736729 0
M  V30 1567 H 160.227 -0.504481 -1.84736 0
M  V30 1568 H 158.532 1.35237 -3.6772 0
M  V30 1569 H 160.229 1.017 -3.87889 0
M  V30 1570 H 156.819 -0.36209 -4.27068 0
M  V30 1571 H 161.003 -1.17289 -4.82242 0
M  V30 1572 H 156.259 -2.3108 -5.6605 0
M  V30 1573 H 160.433 -3.12022 -6.22588 0
M  V30 1574 H 158.06 -3.69508 -6.64355 0
M  V30 1575 N 159.635 1.57281 -0.100228 0
M  V30 1576 C 160.545 2.17833 0.870965 0
M  V30 1577 C 161.561 1.14921 1.30649 0
M  V30 1578 O 162.737 1.47313 1.37335 0
M  V30 1579 C 159.802 2.75085 2.1102 0
M  V30 1580 C 158.863 3.9297 1.72838 0
M  V30 1581 C 158.096 4.47482 2.90854 0
M  V30 1582 O 158.319 4.00922 4.05731 0
M  V30 1583 O 157.253 5.38433 2.69023 0
M  V30 1584 H 161.079 3.0124 0.38575 0
M  V30 1585 H 158.664 1.48881 0.124397 0
M  V30 1586 H 160.546 3.11656 2.83634 0
M  V30 1587 H 159.221 1.94721 2.58584 0
M  V30 1588 H 158.128 3.61201 0.973883 0
M  V30 1589 H 159.461 4.74713 1.30033 0
M  V30 1590 N 161.113 -0.173488 1.56642 0
M  V30 1591 C 162.06 -1.21482 1.96242 0
M  V30 1592 C 163.03 -1.44104 0.826027 0
M  V30 1593 O 164.215 -1.5688 1.08597 0
M  V30 1594 C 161.355 -2.54964 2.32567 0
M  V30 1595 C 160.468 -2.39739 3.59373 0
M  V30 1596 C 159.603 -3.66072 3.84921 0
M  V30 1597 C 158.642 -3.45771 5.05083 0
M  V30 1598 N 157.779 -4.64169 5.26775 0
M  V30 1599 H 162.619 -0.870123 2.85014 0
M  V30 1600 H 160.156 -0.418245 1.41029 0
M  V30 1601 H 162.114 -3.32758 2.5165 0
M  V30 1602 H 160.744 -2.87433 1.46908 0
M  V30 1603 H 159.796 -1.53131 3.48217 0
M  V30 1604 H 161.108 -2.20683 4.47326 0
M  V30 1605 H 160.262 -4.52303 4.0436 0
M  V30 1606 H 159.001 -3.88105 2.9534 0
M  V30 1607 H 158.006 -2.57927 4.85545 0
M  V30 1608 H 159.231 -3.25163 5.96193 0
M  V30 1609 H 157.177 -4.86425 4.40144 0
M  V30 1610 H 157.094 -4.48019 6.08946 0
M  V30 1611 H 158.362 -5.51689 5.5069 0
M  V30 1612 N 162.591 -1.51276 -0.441967 0
M  V30 1613 C 163.837 -1.63958 -1.19355 0
M  V30 1614 C 164.17 -0.352543 -1.90973 0
M  V30 1615 O 163.445 0.647627 -1.83401 0
M  V30 1616 C 163.728 -2.83979 -2.21422 0
M  V30 1617 C 163.581 -4.22646 -1.53918 0
M  V30 1618 C 164.9 -2.99521 -3.22451 0
M  V30 1619 H 162.019 -0.596709 -0.432559 0
M  V30 1620 H 164.661 -1.83748 -0.483398 0
M  V30 1621 H 162.811 -2.67237 -2.81987 0
M  V30 1622 H 164.483 -4.51045 -0.967256 0
M  V30 1623 H 162.726 -4.25558 -0.841615 0
M  V30 1624 H 163.397 -5.02609 -2.28229 0
M  V30 1625 H 165.873 -3.14944 -2.71937 0
M  V30 1626 H 164.749 -3.85072 -3.91166 0
M  V30 1627 H 165.01 -2.11391 -3.88287 0
M  V30 1628 N 164.069 0.697108 -1.41344 0
M  V30 1629 C 165.309 1.46939 -1.42085 0
M  V30 1630 C 165.673 1.9198 -0.0280397 0
M  V30 1631 O 166.874 2.6865 0.0897504 0
M  V30 1632 C 165.145 2.64985 -2.39828 0
M  V30 1633 S 166.704 3.54147 -2.59085 0
M  V30 1634 H 163.522 0.502146 -0.503359 0
M  V30 1635 H 166.124 0.813546 -1.77769 0
M  V30 1636 H 164.828 2.30098 -3.39828 0
M  V30 1637 H 164.359 3.35464 -2.05493 0
M  V30 1638 H 166.374 4.60137 -1.85711 0
M  V30 1639 N 165.547 1.27147 0.931209 0
M  V30 1640 C 166.772 1.16191 1.71797 0
M  V30 1641 C 167.197 -0.278004 1.86034 0
M  V30 1642 O 166.555 -1.20137 1.35782 0
M  V30 1643 C 166.603 1.84673 3.09723 0
M  V30 1644 O 165.707 1.14231 3.96264 0
M  V30 1645 H 165.048 0.404303 0.526721 0
M  V30 1646 H 167.578 1.68152 1.1656 0
M  V30 1647 H 167.588 1.91893 3.60057 0
M  V30 1648 H 166.263 2.89421 2.98677 0
M  V30 1649 H 164.84 1.15056 3.54706 0
M  V30 1650 N 167.025 -1.13721 1.09112 0
M  V30 1651 C 167.973 -2.21103 0.722219 0
M  V30 1652 C 168.967 -1.67147 -0.275374 0
M  V30 1653 O 170.173 -1.79477 -0.137176 0
M  V30 1654 H 166.548 -0.720445 0.215553 0
M  V30 1655 H 168.519 -2.49483 1.63709 0
M  V30 1656 C 167.268 -3.47352 0.15543 0
M  V30 1657 H 166.591 -3.89206 0.914246 0
M  V30 1658 H 168.031 -4.2395 -0.0647967 0
M  V30 1659 C 166.49 -3.1814 -1.10852 0
M  V30 1660 O 167.02 -3.36604 -2.19227 0
M  V30 1661 N 165.226 -2.72045 -1.02176 0
M  V30 1662 H 164.773 -2.57221 -0.139764 0
M  V30 1663 H 164.731 -2.52875 -1.8682 0
M  V30 1664 N 168.503 -0.877838 -1.30888 0
M  V30 1665 C 169.78 -0.413052 -1.91189 0
M  V30 1666 C 170.16 1.1056 -1.79832 0
M  V30 1667 O 169.508 1.93771 -1.21099 0
M  V30 1668 C 169.718 -0.903191 -3.3711 0
M  V30 1669 C 171.066 -0.93395 -4.14201 0
M  V30 1670 O 172.09 -0.849373 -3.45925 0
M  V30 1671 O 170.949 -1.05772 -5.36167 0
M  V30 1672 H 168.043 -0.125035 -0.817493 0
M  V30 1673 H 170.589 -0.966269 -1.39504 0
M  V30 1674 H 169.361 -1.94692 -3.39427 0
M  V30 1675 H 168.984 -0.328732 -3.96239 0
M  V30 1676 N 169.982 1.44106 -0.638065 0
M  V30 1677 C 170.93 2.3248 0.0748149 0
M  V30 1678 C 171.924 1.47746 0.828702 0
M  V30 1679 O 173.13 1.64049 0.740816 0
M  V30 1680 H 169.505 0.750771 0.0429686 0
M  V30 1681 H 171.476 2.90348 -0.688504 0
M  V30 1682 C 170.225 3.31843 1.03805 0
M  V30 1683 H 169.548 3.97059 0.467375 0
M  V30 1684 H 170.988 3.96345 1.50622 0
M  V30 1685 C 169.447 2.61291 2.1267 0
M  V30 1686 O 169.977 2.41702 3.20847 0
M  V30 1687 N 168.183 2.20915 1.88798 0
M  V30 1688 H 167.73 2.37047 1.00829 0
M  V30 1689 H 167.688 1.74038 2.61836 0
M  V30 1690 N 171.46 0.379036 1.52974 0
M  V30 1691 C 172.407 -0.461048 2.26148 0
M  V30 1692 C 173.377 -1.06637 1.27349 0
M  V30 1693 O 174.562 -1.09633 1.56157 0
M  V30 1694 C 171.702 -1.58782 3.06402 0
M  V30 1695 C 170.815 -1.00636 4.20115 0
M  V30 1696 C 169.95 -2.10334 4.87784 0
M  V30 1697 C 168.989 -1.49724 5.93506 0
M  V30 1698 N 168.126 -2.5331 6.54812 0
M  V30 1699 H 172.966 0.169429 2.97518 0
M  V30 1700 H 170.503 0.0953806 1.4679 0
M  V30 1701 H 172.461 -2.25174 3.51215 0
M  V30 1702 H 171.091 -2.18876 2.37261 0
M  V30 1703 H 170.143 -0.232332 3.7969 0
M  V30 1704 H 171.455 -0.523343 4.96047 0
M  V30 1705 H 170.609 -2.84519 5.35849 0
M  V30 1706 H 169.348 -2.61992 4.11353 0
M  V30 1707 H 168.353 -0.740598 5.44789 0
M  V30 1708 H 169.578 -0.988732 6.71864 0
M  V30 1709 H 167.524 -3.04156 5.81227 0
M  V30 1710 H 167.441 -2.09734 7.26325 0
M  V30 1711 H 168.709 -3.27155 7.07524 0
M  V30 1712 N 172.938 -1.57226 0.108567 0
M  V30 1713 C 174.166 -1.99179 -0.559954 0
M  V30 1714 C 174.581 -0.988022 -1.60884 0
M  V30 1715 O 173.938 0.0205512 -1.82488 0
M  V30 1716 C 173.989 -3.41159 -1.19552 0
M  V30 1717 O 173.71 -4.37694 -0.188577 0
M  V30 1718 C 175.211 -3.98188 -1.94837 0
M  V30 1719 H 172.431 -0.654228 -0.149088 0
M  V30 1720 H 174.975 -2.03598 0.19183 0
M  V30 1721 H 173.13 -3.37711 -1.89815 0
M  V30 1722 H 173.544 -5.20469 -0.649014 0
M  V30 1723 H 175.018 -4.99644 -2.34648 0
M  V30 1724 H 175.495 -3.3675 -2.81951 0
M  V30 1725 H 176.101 -4.0515 -1.2936 0
M  V30 1726 N 174.416 0.165178 -1.56732 0
M  V30 1727 C 175.663 0.880807 -1.8234 0
M  V30 1728 C 175.991 1.81977 -0.686621 0
M  V30 1729 O 175.246 1.92971 0.325697 0
M  V30 1730 C 175.545 1.70405 -3.1416 0
M  V30 1731 C 175.211 0.913475 -4.4155 0
M  V30 1732 C 173.873 0.695303 -4.7615 0
M  V30 1733 C 176.225 0.359349 -5.1996 0
M  V30 1734 C 173.553 -0.0879947 -5.86634 0
M  V30 1735 C 175.905 -0.410893 -6.31264 0
M  V30 1736 C 174.569 -0.639808 -6.64427 0
M  V30 1737 H 173.839 0.32231 -0.667231 0
M  V30 1738 H 176.486 0.145402 -1.90947 0
M  V30 1739 H 174.791 2.50903 -3.00923 0
M  V30 1740 H 176.488 2.26091 -3.31186 0
M  V30 1741 H 173.078 1.09357 -4.14414 0
M  V30 1742 H 177.262 0.515228 -4.93618 0
M  V30 1743 H 172.518 -0.27503 -6.10781 0
M  V30 1744 H 176.692 -0.847494 -6.91224 0
M  V30 1745 H 174.319 -1.24864 -7.49875 0
M  V30 1746 N 175.894 1.51508 0.433938 0
M  V30 1747 C 177.171 1.54888 1.19453 0
M  V30 1748 C 177.551 0.315154 2.08734 0
M  V30 1749 O 176.899 -0.699558 2.17528 0
M  V30 1750 C 177.109 2.86467 1.99342 0
M  V30 1751 C 178.457 3.38545 2.56267 0
M  V30 1752 O 179.481 2.88041 2.0955 0
M  V30 1753 O 178.34 4.26675 3.41483 0
M  V30 1754 H 175.434 0.622863 0.544032 0
M  V30 1755 H 177.98 1.63823 0.442732 0
M  V30 1756 H 176.752 3.67718 1.33788 0
M  V30 1757 H 176.375 2.8071 2.8158 0
M  V30 1758 N 177.372 -0.689602 1.41712 0
M  V30 1759 C 178.597 -1.48329 1.44959 0
M  V30 1760 C 179.022 -1.8801 0.0581283 0
M  V30 1761 O 178.38 -1.55026 -0.940035 0
M  V30 1762 C 178.428 -2.71835 2.36935 0
M  V30 1763 O 177.532 -3.69549 1.8305 0
M  V30 1764 H 176.873 -0.446199 0.491734 0
M  V30 1765 H 179.403 -0.847127 1.86239 0
M  V30 1766 H 179.413 -3.20076 2.53013 0
M  V30 1767 H 178.088 -2.42291 3.38035 0
M  V30 1768 H 176.665 -3.2851 1.76452 0
M  V30 1769 N 178.85 -1.27639 -0.924453 0
M  V30 1770 C 180.075 -1.17101 -1.71179 0
M  V30 1771 C 180.5 0.268134 -1.86179 0
M  V30 1772 O 179.858 1.19415 -1.36418 0
M  V30 1773 C 179.906 -1.86313 -3.08739 0
M  V30 1774 O 179.01 -1.16331 -3.95652 0
M  V30 1775 H 178.351 -0.407091 -0.524569 0
M  V30 1776 H 180.881 -1.68767 -1.15666 0
M  V30 1777 H 180.891 -1.938 -3.59034 0
M  V30 1778 H 179.566 -2.91001 -2.97138 0
M  V30 1779 H 178.143 -1.16935 -3.54091 0
M  V30 1780 N 180.328 1.1314 -1.09713 0
M  V30 1781 C 181.568 1.8613 -0.844683 0
M  V30 1782 C 181.932 1.81765 0.618491 0
M  V30 1783 O 183.133 2.50024 0.98699 0
M  V30 1784 C 181.404 3.30151 -1.36877 0
M  V30 1785 S 182.963 4.206 -1.25064 0
M  V30 1786 H 179.781 0.642056 -0.305427 0
M  V30 1787 H 182.383 1.36343 -1.4011 0
M  V30 1788 H 181.087 3.30883 -2.42786 0
M  V30 1789 H 180.618 3.85 -0.808614 0
M  V30 1790 H 182.633 4.95783 -0.203486 0
M  V30 1791 N 181.806 0.884767 1.30421 0
M  V30 1792 C 182.756 0.322846 2.25703 0
M  V30 1793 C 183.74 -0.548582 1.51259 0
M  V30 1794 O 184.932 -0.39304 1.72581 0
M  V30 1795 C 182.061 -0.461787 3.4018 0
M  V30 1796 C 181.147 0.423717 4.21978 0
M  V30 1797 N 181.538 1.52408 4.82292 0
M  V30 1798 C 179.836 0.218795 4.45463 0
M  V30 1799 C 180.537 2.07136 5.43571 0
M  V30 1800 N 179.513 1.36635 5.26148 0
M  V30 1801 H 183.315 1.16363 2.69883 0
M  V30 1802 H 180.829 0.73415 1.44859 0
M  V30 1803 H 182.826 -0.880985 4.07485 0
M  V30 1804 H 181.486 -1.30001 2.9754 0
M  V30 1805 H 182.497 1.90693 4.81515 0
M  V30 1806 H 179.174 -0.582275 4.1342 0
M  V30 1807 H 180.564 2.99538 6.01437 0
M  V30 1808 N 183.284 -1.43765 0.645699 0
M  V30 1809 C 184.531 -2.01898 0.15604 0
M  V30 1810 C 184.859 -1.50887 -1.22733 0
M  V30 1811 O 184.114 -0.689271 -1.8316 0
M  V30 1812 C 184.413 -3.57238 0.107679 0
M  V30 1813 C 184.079 -4.27564 1.43178 0
M  V30 1814 C 182.741 -4.46492 1.7944 0
M  V30 1815 C 185.093 -4.67454 2.30513 0
M  V30 1816 C 182.421 -5.02573 3.02716 0
M  V30 1817 C 184.773 -5.24901 3.53074 0
M  V30 1818 C 183.437 -5.42046 3.89541 0
M  V30 1819 H 182.707 -0.738797 0.057099 0
M  V30 1820 H 185.354 -1.72341 0.834912 0
M  V30 1821 H 183.659 -3.86293 -0.654618 0
M  V30 1822 H 185.356 -3.99965 -0.287938 0
M  V30 1823 H 181.946 -4.13171 1.13963 0
M  V30 1824 H 186.13 -4.5253 2.0379 0
M  V30 1825 H 181.386 -5.14033 3.31028 0
M  V30 1826 H 185.56 -5.54758 4.20971 0
M  V30 1827 H 183.187 -5.85268 4.85145 0
M  V30 1828 N 184.763 -0.387143 -1.52771 0
M  V30 1829 C 186.01 0.195735 -2.01552 0
M  V30 1830 C 186.338 1.46995 -1.27369 0
M  V30 1831 O 185.593 1.92325 -0.361879 0
M  V30 1832 C 185.892 0.512209 -3.53711 0
M  V30 1833 C 185.558 -0.670202 -4.45891 0
M  V30 1834 C 184.22 -0.994586 -4.70809 0
M  V30 1835 C 186.572 -1.46134 -5.00294 0
M  V30 1836 C 183.9 -2.11169 -5.4738 0
M  V30 1837 C 186.252 -2.56903 -5.78086 0
M  V30 1838 C 184.916 -2.89852 -6.01284 0
M  V30 1839 H 184.186 0.0716246 -0.73753 0
M  V30 1840 H 186.833 -0.524046 -1.8419 0
M  V30 1841 H 185.138 1.31329 -3.69134 0
M  V30 1842 H 186.835 0.975804 -3.88946 0
M  V30 1843 H 183.425 -0.407366 -4.2666 0
M  V30 1844 H 187.609 -1.22397 -4.80971 0
M  V30 1845 H 182.865 -2.3707 -5.63567 0
M  V30 1846 H 187.039 -3.18608 -6.19243 0
M  V30 1847 H 184.666 -3.76533 -6.60399 0
M  V30 1848 N 186.241 1.57166 -0.116904 0
M  V30 1849 C 187.204 2.14039 0.819742 0
M  V30 1850 C 188.204 1.07477 1.19605 0
M  V30 1851 O 189.394 1.33263 1.1219 0
M  V30 1852 C 186.526 2.67891 2.10826 0
M  V30 1853 H 187.719 2.98128 0.325511 0
M  V30 1854 H 185.272 1.55739 0.132312 0
M  V30 1855 H 186.007 1.87384 2.64685 0
M  V30 1856 H 185.792 3.45823 1.84793 0
M  V30 1857 H 187.282 3.11809 2.77785 0
M  V30 1858 N 187.719 -0.156864 1.56817 0
M  V30 1859 C 188.947 -0.886316 1.86955 0
M  V30 1860 C 189.362 -1.75185 0.703975 0
M  V30 1861 O 188.719 -1.79555 -0.326552 0
M  V30 1862 C 188.77 -1.75117 3.16253 0
M  V30 1863 O 188.491 -0.920537 4.2832 0
M  V30 1864 C 189.992 -2.58905 3.59837 0
M  V30 1865 H 187.212 -0.25678 0.619923 0
M  V30 1866 H 189.756 -0.152615 2.0393 0
M  V30 1867 H 187.911 -2.43805 3.01062 0
M  V30 1868 H 188.325 -1.51337 5.02192 0
M  V30 1869 H 189.799 -3.1518 4.53172 0
M  V30 1870 H 190.276 -3.34472 2.84649 0
M  V30 1871 H 190.882 -1.95526 3.7769 0
M  V30 1872 N 189.197 -1.51736 -0.425897 0
M  V30 1873 C 190.144 -1.73875 -1.51776 0
M  V30 1874 C 191.114 -0.580702 -1.55618 0
M  V30 1875 O 192.299 -0.81641 -1.72451 0
M  V30 1876 C 189.439 -1.88012 -2.89388 0
M  V30 1877 C 188.552 -3.15606 -2.94986 0
M  V30 1878 C 187.687 -3.20271 -4.23793 0
M  V30 1879 C 186.726 -4.42134 -4.23302 0
M  V30 1880 N 185.863 -4.44284 -5.43651 0
M  V30 1881 H 190.703 -2.67071 -1.32201 0
M  V30 1882 H 188.24 -1.32351 -0.642008 0
M  V30 1883 H 190.198 -1.9419 -3.69251 0
M  V30 1884 H 188.828 -0.98213 -3.07496 0
M  V30 1885 H 187.88 -3.18681 -2.07717 0
M  V30 1886 H 189.192 -4.05486 -2.90486 0
M  V30 1887 H 188.346 -3.25428 -5.12036 0
M  V30 1888 H 187.085 -2.28299 -4.30965 0
M  V30 1889 H 186.09 -4.3714 -3.3345 0
M  V30 1890 H 187.315 -5.35382 -4.17783 0
M  V30 1891 H 185.261 -3.55188 -5.51523 0
M  V30 1892 H 185.178 -5.27988 -5.41078 0
M  V30 1893 H 186.446 -4.53649 -6.33895 0
M  V30 1894 N 190.675 0.682077 -1.42076 0
M  V30 1895 C 191.915 1.45424 -1.43636 0
M  V30 1896 C 192.279 1.91939 -0.0484001 0
M  V30 1897 O 193.48 2.6873 0.0612514 0
M  V30 1898 C 191.751 2.62427 -2.42625 0
M  V30 1899 S 193.31 3.51379 -2.62827 0
M  V30 1900 H 190.128 0.496779 -0.508657 0
M  V30 1901 H 192.73 0.794645 -1.78621 0
M  V30 1902 H 191.434 2.26481 -3.42249 0
M  V30 1903 H 190.965 3.33266 -2.09039 0
M  V30 1904 H 192.98 4.58141 -1.9058 0
M  V30 1905 N 192.153 1.28127 0.917671 0
M  V30 1906 C 193.381 1.17892 1.70026 0
M  V30 1907 C 193.796 -0.262958 1.8696 0
M  V30 1908 O 193.153 -1.17811 1.3938 0
M  V30 1909 C 193.204 1.86872 3.09453 0
M  V30 1910 O 192.925 3.25428 2.93306 0
M  V30 1911 C 194.426 1.8289 4.03815 0
M  V30 1912 H 191.646 0.40942 0.531617 0
M  V30 1913 H 194.19 1.69181 1.14883 0
M  V30 1914 H 192.345 1.39464 3.61426 0
M  V30 1915 H 192.759 3.59918 3.81523 0
M  V30 1916 H 194.233 2.35751 4.99125 0
M  V30 1917 H 194.71 0.800412 4.31845 0
M  V30 1918 H 195.316 2.29959 3.57769 0
M  V30 1919 N 193.631 -1.12557 1.10312 0
M  V30 1920 C 194.561 -2.20341 0.772798 0
M  V30 1921 C 195.542 -1.68198 -0.25365 0
M  V30 1922 O 196.727 -1.93831 -0.119699 0
M  V30 1923 C 193.857 -3.46709 0.202443 0
M  V30 1924 C 192.811 -4.11996 1.15943 0
M  V30 1925 C 192.137 -5.328 0.450345 0
M  V30 1926 C 193.437 -4.5828 2.50552 0
M  V30 1927 H 195.131 -2.48229 1.674 0
M  V30 1928 H 192.677 -1.19308 0.806326 0
M  V30 1929 H 194.63 -4.2138 -0.0407752 0
M  V30 1930 H 193.354 -3.18245 -0.734001 0
M  V30 1931 H 192.013 -3.39305 1.38808 0
M  V30 1932 H 191.661 -5.00602 -0.490531 0
M  V30 1933 H 191.361 -5.7743 1.08851 0
M  V30 1934 H 192.885 -6.10219 0.215642 0
M  V30 1935 H 194.299 -5.2433 2.31843 0
M  V30 1936 H 192.696 -5.13683 3.10242 0
M  V30 1937 H 193.766 -3.72329 3.10643 0
M  V30 1938 N 195.109 -0.891671 -1.2995 0
M  V30 1939 C 196.019 -0.367691 -2.31701 0
M  V30 1940 C 197.035 0.533486 -1.6562 0
M  V30 1941 O 198.211 0.424997 -1.96865 0
M  V30 1942 C 195.276 0.403406 -3.44345 0
M  V30 1943 C 194.337 -0.528328 -4.26037 0
M  V30 1944 C 193.57 0.206063 -5.33302 0
M  V30 1945 O 193.793 1.43119 -5.52153 0
M  V30 1946 O 192.727 -0.447281 -6.00236 0
M  V30 1947 H 196.553 -1.21163 -2.78484 0
M  V30 1948 H 194.138 -0.655725 -1.34241 0
M  V30 1949 H 196.02 0.839753 -4.12948 0
M  V30 1950 H 194.695 1.22354 -2.99685 0
M  V30 1951 H 193.602 -1.01362 -3.60106 0
M  V30 1952 H 194.935 -1.31465 -4.74318 0
M  V30 1953 N 196.587 1.43421 -0.653314 0
M  V30 1954 C 197.835 2.01414 -0.166415 0
M  V30 1955 C 198.156 1.51803 1.22397 0
M  V30 1956 O 197.426 0.730693 1.81763 0
M  V30 1957 H 196.006 0.744703 -0.0585319 0
M  V30 1958 H 198.668 1.75629 -0.845003 0
M  V30 1959 H 197.764 3.11734 -0.151111 0
M  V30 1960 N 198.065 0.39524 1.52563 0
M  V30 1961 C 199.293 -0.184943 2.06072 0
M  V30 1962 C 199.708 -1.40021 1.26647 0
M  V30 1963 O 199.065 -1.79767 0.314672 0
M  V30 1964 C 199.116 -0.549179 3.57304 0
M  V30 1965 O 198.837 0.617813 4.33722 0
M  V30 1966 C 200.338 -1.18459 4.2718 0
M  V30 1967 H 197.558 -0.0265025 0.670476 0
M  V30 1968 H 200.102 0.562184 1.96621 0
M  V30 1969 H 198.257 -1.2462 3.66809 0
M  V30 1970 H 198.671 0.317091 5.23541 0
M  V30 1971 H 200.145 -1.38976 5.34219 0
M  V30 1972 H 200.622 -2.15368 3.82771 0
M  V30 1973 H 201.228 -0.528163 4.22008 0
M  V30 1974 N 199.544 -1.57102 0.125237 0
M  V30 1975 C 200.491 -2.15641 -0.822655 0
M  V30 1976 C 201.461 -1.08313 -1.25927 0
M  V30 1977 O 202.646 -1.36251 -1.33567 0
M  V30 1978 C 199.786 -2.76504 -2.06494 0
M  V30 1979 C 198.899 -3.98158 -1.67612 0
M  V30 1980 C 198.034 -4.47088 -2.86854 0
M  V30 1981 C 197.073 -5.6126 -2.44242 0
M  V30 1982 N 196.21 -6.04905 -3.56419 0
M  V30 1983 H 201.05 -2.96313 -0.316625 0
M  V30 1984 H 198.587 -1.46388 -0.144588 0
M  V30 1985 H 200.545 -3.09925 -2.79289 0
M  V30 1986 H 199.175 -1.98512 -2.54545 0
M  V30 1987 H 198.227 -3.70858 -0.846661 0
M  V30 1988 H 199.539 -4.80934 -1.32301 0
M  V30 1989 H 198.693 -4.82451 -3.67867 0
M  V30 1990 H 197.432 -3.63275 -3.25396 0
M  V30 1991 H 196.437 -5.25495 -1.61663 0
M  V30 1992 H 197.662 -6.46843 -2.0681 0
M  V30 1993 H 195.608 -5.24032 -3.94623 0
M  V30 1994 H 195.525 -6.82552 -3.25051 0
M  V30 1995 H 196.793 -6.44907 -4.37853 0
M  V30 1996 N 201.022 0.148545 -1.56898 0
M  V30 1997 C 201.969 1.18345 -1.98149 0
M  V30 1998 C 202.939 1.42772 -0.848848 0
M  V30 1999 O 204.124 1.55132 -1.11079 0
M  V30 2000 C 201.264 2.51231 -2.36594 0
M  V30 2001 C 200.377 2.33991 -3.63142 0
M  V30 2002 C 199.512 3.59902 -3.90697 0
M  V30 2003 C 198.551 3.37692 -5.1052 0
M  V30 2004 N 197.688 4.5573 -5.34092 0
M  V30 2005 H 202.528 0.82467 -2.86362 0
M  V30 2006 H 200.065 0.395756 -1.41676 0
M  V30 2007 H 202.023 3.28713 -2.56912 0
M  V30 2008 H 200.653 2.85059 -1.51463 0
M  V30 2009 H 199.705 1.47572 -3.50609 0
M  V30 2010 H 201.017 2.13539 -4.5078 0
M  V30 2011 H 200.171 4.45813 -4.11505 0
M  V30 2012 H 198.91 3.83357 -3.01477 0
M  V30 2013 H 197.915 2.5017 -4.89587 0
M  V30 2014 H 199.14 3.15637 -6.0129 0
M  V30 2015 H 197.086 4.79361 -4.47827 0
M  V30 2016 H 197.003 4.38274 -6.15996 0
M  V30 2017 H 198.271 5.42858 -5.59397 0
M  V30 2018 N 202.5 1.5196 0.417844 0
M  V30 2019 C 203.748 1.65263 1.16329 0
M  V30 2020 C 204.069 0.380634 1.91249 0
M  V30 2021 O 203.339 -0.604214 1.86349 0
M  V30 2022 H 201.919 0.60912 0.432414 0
M  V30 2023 H 204.581 1.88969 0.477162 0
M  V30 2024 H 203.677 2.4896 1.88217 0
M  V30 2025 N 203.978 -0.674533 1.42435 0
M  V30 2026 C 204.928 -1.7807 1.4239 0
M  V30 2027 C 205.912 -1.58169 0.295202 0
M  V30 2028 O 207.104 -1.68643 0.537449 0
M  V30 2029 C 204.233 -3.16532 1.32901 0
M  V30 2030 C 203.319 -3.42055 2.50717 0
M  V30 2031 N 203.71 -3.38162 3.76139 0
M  V30 2032 C 202.008 -3.72692 2.44983 0
M  V30 2033 C 202.709 -3.63177 4.54398 0
M  V30 2034 N 201.685 -3.83954 3.84812 0
M  V30 2035 H 205.487 -1.73454 2.37257 0
M  V30 2036 H 203.001 -0.875381 1.36788 0
M  V30 2037 H 204.998 -3.958 1.30951 0
M  V30 2038 H 203.658 -3.22345 0.390363 0
M  V30 2039 H 204.669 -3.18057 4.0873 0
M  V30 2040 H 201.346 -3.85749 1.59699 0
M  V30 2041 H 202.736 -3.66125 5.63384 0
M  V30 2042 N 205.456 -1.28612 -0.910864 0
M  V30 2043 C 206.403 -1.12786 -2.01365 0
M  V30 2044 C 207.373 -0.024201 -1.66082 0
M  V30 2045 O 208.558 -0.189667 -1.89855 0
M  V30 2046 C 205.698 -0.798743 -3.35729 0
M  V30 2047 C 204.811 -1.98173 -3.83864 0
M  V30 2048 C 203.946 -1.59298 -5.06752 0
M  V30 2049 C 202.985 -2.74245 -5.47226 0
M  V30 2050 N 202.122 -2.35842 -6.61304 0
M  V30 2051 H 206.962 -2.07142 -2.14234 0
M  V30 2052 H 204.499 -1.03093 -1.0493 0
M  V30 2053 H 206.457 -0.588662 -4.13026 0
M  V30 2054 H 205.087 0.10789 -3.2262 0
M  V30 2055 H 204.139 -2.30386 -3.02699 0
M  V30 2056 H 205.451 -2.84343 -4.09818 0
M  V30 2057 H 204.605 -1.34513 -5.916 0
M  V30 2058 H 203.344 -0.702618 -4.82612 0
M  V30 2059 H 202.349 -2.99725 -4.60918 0
M  V30 2060 H 203.574 -3.63928 -5.73353 0
M  V30 2061 H 201.52 -1.49279 -6.38789 0
M  V30 2062 H 201.437 -3.15546 -6.86998 0
M  V30 2063 H 202.705 -2.14348 -7.4945 0
M  V30 2064 N 206.934 1.1197 -1.10907 0
M  V30 2065 C 207.864 2.19928 -0.784473 0
M  V30 2066 C 208.845 1.6833 0.244726 0
M  V30 2067 O 210.03 1.93892 0.109418 0
M  V30 2068 C 207.16 3.46597 -0.220827 0
M  V30 2069 C 206.114 4.11376 -1.18127 0
M  V30 2070 C 205.44 5.32554 -0.478594 0
M  V30 2071 C 206.74 4.56945 -2.52979 0
M  V30 2072 H 208.434 2.47337 -1.68715 0
M  V30 2073 H 205.98 1.18879 -0.812642 0
M  V30 2074 H 207.933 4.21396 0.0184278 0
M  V30 2075 H 206.657 3.1863 0.717113 0
M  V30 2076 H 205.316 3.38564 -1.40606 0
M  V30 2077 H 204.964 5.00856 0.463976 0
M  V30 2078 H 204.664 5.76844 -1.11912 0
M  V30 2079 H 206.188 6.10096 -0.248 0
M  V30 2080 H 207.602 5.23093 -2.3462 0
M  V30 2081 H 205.999 5.1203 -3.12962 0
M  V30 2082 H 207.069 3.70676 -3.12614 0
M  V30 2083 N 208.412 0.89855 1.29475 0
M  V30 2084 C 209.362 0.346767 2.25348 0
M  V30 2085 C 210.346 -0.532509 1.51833 0
M  V30 2086 O 211.538 -0.374714 1.72988 0
M  V30 2087 C 208.667 -0.425681 3.40651 0
M  V30 2088 C 207.753 0.46845 4.21505 0
M  V30 2089 N 208.144 1.57514 4.80648 0
M  V30 2090 C 206.442 0.26603 4.45206 0
M  V30 2091 C 207.143 2.12889 5.41344 0
M  V30 2092 N 206.119 1.42208 5.24669 0
M  V30 2093 H 209.921 1.19219 2.68634 0
M  V30 2094 H 207.435 0.749473 1.44072 0
M  V30 2095 H 209.432 -0.837716 4.08397 0
M  V30 2096 H 208.092 -1.26838 2.98902 0
M  V30 2097 H 209.103 1.95789 4.79465 0
M  V30 2098 H 205.78 -0.538394 4.14014 0
M  V30 2099 H 207.17 3.05901 5.98226 0
M  V30 2100 N 209.89 -1.43072 0.660911 0
M  V30 2101 C 210.82 -2.33497 -0.0122829 0
M  V30 2102 C 211.801 -1.49903 -0.803925 0
M  V30 2103 O 212.986 -1.78546 -0.763864 0
M  V30 2104 C 210.116 -3.33363 -0.973994 0
M  V30 2105 C 209.07 -4.27003 -0.291928 0
M  V30 2106 C 208.396 -5.16967 -1.36562 0
M  V30 2107 C 209.696 -5.15816 0.820462 0
M  V30 2108 H 211.39 -2.90038 0.742873 0
M  V30 2109 H 208.936 -1.39461 0.358688 0
M  V30 2110 H 210.889 -3.95524 -1.45392 0
M  V30 2111 H 209.613 -2.75095 -1.7604 0
M  V30 2112 H 208.272 -3.66217 0.167623 0
M  V30 2113 H 207.92 -4.55034 -2.14366 0
M  V30 2114 H 207.62 -5.80441 -0.914454 0
M  V30 2115 H 209.144 -5.82003 -1.84675 0
M  V30 2116 H 210.558 -5.71742 0.422366 0
M  V30 2117 H 208.955 -5.8805 1.19656 0
M  V30 2118 H 210.025 -4.55045 1.67518 0
M  V30 2119 N 211.368 -0.403325 -1.52352 0
M  V30 2120 C 212.645 0.232611 -1.94212 0
M  V30 2121 C 213.025 1.63133 -1.33981 0
M  V30 2122 O 212.373 2.22659 -0.513344 0
M  V30 2123 C 212.583 0.244811 -3.4814 0
M  V30 2124 C 213.931 0.46698 -4.22024 0
M  V30 2125 O 214.955 0.324419 -3.5472 0
M  V30 2126 O 213.814 0.74747 -5.41364 0
M  V30 2127 H 210.908 0.148223 -0.813609 0
M  V30 2128 H 213.454 -0.458848 -1.63379 0
M  V30 2129 H 212.226 -0.734378 -3.84347 0
M  V30 2130 H 211.849 0.980611 -3.85318 0
M  V30 2131 N 212.846 1.57033 -0.133567 0
M  V30 2132 C 214.076 1.99754 0.527429 0
M  V30 2133 C 214.484 1.01245 1.59832 0
M  V30 2134 O 213.827 -0.000645496 1.837 0
M  V30 2135 C 213.889 3.38903 1.19939 0
M  V30 2136 C 213.553 4.56174 0.274709 0
M  V30 2137 C 214.55 5.17563 -0.492398 0
M  V30 2138 C 212.235 5.01972 0.18153 0
M  V30 2139 C 214.229 6.2315 -1.34027 0
M  V30 2140 C 211.916 6.07416 -0.669958 0
M  V30 2141 C 212.914 6.67874 -1.42947 0
M  V30 2142 O 212.602 7.71279 -2.2668 0
M  V30 2143 H 212.334 0.660702 0.142999 0
M  V30 2144 H 214.888 2.04207 -0.221099 0
M  V30 2145 H 213.118 3.31248 1.99528 0
M  V30 2146 H 214.807 3.65818 1.75875 0
M  V30 2147 H 215.573 4.83087 -0.430367 0
M  V30 2148 H 211.452 4.54652 0.762422 0
M  V30 2149 H 214.996 6.70268 -1.93357 0
M  V30 2150 H 210.893 6.41321 -0.73333 0
M  V30 2151 H 211.661 7.88441 -2.1978 0
M  V30 2152 N 214.325 -0.140222 1.56975 0
M  V30 2153 C 215.574 -0.850152 1.82908 0
M  V30 2154 C 215.887 -1.82028 0.715892 0
M  V30 2155 O 217.093 -2.57485 0.861016 0
M  V30 2156 C 215.549 -1.5625 3.24213 0
M  V30 2157 C 215.157 -0.63443 4.43485 0
M  V30 2158 C 216.901 -2.25881 3.59413 0
M  V30 2159 C 214.808 -1.34879 5.75814 0
M  V30 2160 H 213.738 -0.321221 0.682153 0
M  V30 2161 H 216.389 -0.102874 1.83211 0
M  V30 2162 H 214.771 -2.35565 3.18316 0
M  V30 2163 H 215.945 0.12398 4.60633 0
M  V30 2164 H 214.26 -0.0461836 4.16374 0
M  V30 2165 H 216.857 -2.79978 4.5554 0
M  V30 2166 H 217.2 -3.02693 2.85802 0
M  V30 2167 H 217.733 -1.53477 3.67001 0
M  V30 2168 H 214.472 -0.622385 6.52539 0
M  V30 2169 H 213.992 -2.07974 5.6259 0
M  V30 2170 H 215.671 -1.88784 6.18845 0
M  V30 2171 N 215.803 -1.52179 -0.40978 0
M  V30 2172 C 217.051 -1.65878 -1.15451 0
M  V30 2173 C 217.372 -0.390771 -1.91044 0
M  V30 2174 O 216.642 0.594323 -1.86667 0
M  V30 2175 H 215.222 -0.611405 -0.429177 0
M  V30 2176 H 217.884 -1.89219 -0.467134 0
M  V30 2177 H 216.98 -2.49954 -1.86894 0
M  V30 2178 N 217.281 0.66697 -1.42791 0
M  V30 2179 C 218.692 1.2478 -1.38877 0
M  V30 2180 C 219.043 1.96012 -0.0859426 0
M  V30 2181 O 218.168 2.00463 0.815081 0
M  V30 2182 C 218.763 2.26938 -2.51564 0
M  V30 2183 C 217.322 2.80529 -2.50959 0
M  V30 2184 C 216.469 1.54965 -2.29959 0
M  V30 2185 H 219.42 0.459853 -1.51892 0
M  V30 2186 H 219.441 3.08834 -2.22265 0
M  V30 2187 H 218.953 1.75065 -3.46372 0
M  V30 2188 H 217.054 3.36502 -1.59991 0
M  V30 2189 H 217.167 3.29012 -3.48265 0
M  V30 2190 H 215.531 1.81817 -1.78366 0
M  V30 2191 H 216.314 1.05047 -3.26833 0
M  V30 2192 N 218.759 1.29093 0.90403 0
M  V30 2193 C 219.999 1.18076 1.66845 0
M  V30 2194 C 220.363 -0.26436 1.90171 0
M  V30 2195 O 221.564 -0.497423 2.64157 0
M  V30 2196 C 219.835 1.96722 2.98388 0
M  V30 2197 S 221.394 2.0219 3.89441 0
M  V30 2198 H 218.212 0.421104 0.572881 0
M  V30 2199 H 220.814 1.63322 1.07453 0
M  V30 2200 H 219.518 3.00866 2.7912 0
M  V30 2201 H 219.049 1.52064 3.62823 0
M  V30 2202 H 221.064 1.13545 4.83034 0
M  V30 2203 N 220.237 -1.11381 1.11499 0
M  V30 2204 C 221.184 -2.17439 0.773887 0
M  V30 2205 C 222.154 -1.64132 -0.254899 0
M  V30 2206 O 223.339 -1.90345 -0.13168 0
M  V30 2207 C 220.479 -3.44373 0.223917 0
M  V30 2208 C 219.592 -4.1168 1.30934 0
M  V30 2209 C 218.727 -5.263 0.71984 0
M  V30 2210 C 217.766 -5.85493 1.78507 0
M  V30 2211 N 216.903 -6.91507 1.21502 0
M  V30 2212 H 221.743 -2.45962 1.68246 0
M  V30 2213 H 219.28 -1.20744 0.840191 0
M  V30 2214 H 221.238 -4.17047 -0.112921 0
M  V30 2215 H 219.868 -3.16232 -0.647851 0
M  V30 2216 H 218.92 -3.37073 1.76312 0
M  V30 2217 H 220.232 -4.51729 2.11524 0
M  V30 2218 H 219.386 -6.05785 0.333094 0
M  V30 2219 H 218.125 -4.87559 -0.117377 0
M  V30 2220 H 217.13 -5.04686 2.18111 0
M  V30 2221 H 218.355 -6.26301 2.62533 0
M  V30 2222 H 216.301 -6.54783 0.399455 0
M  V30 2223 H 216.218 -7.30214 1.95763 0
M  V30 2224 H 217.486 -7.74795 0.855181 0
M  V30 2225 N 221.715 -0.905404 -1.28997 0
M  V30 2226 C 222.945 -0.549049 -1.99171 0
M  V30 2227 C 223.353 0.87203 -1.67906 0
M  V30 2228 O 222.696 1.58796 -0.923561 0
M  V30 2229 C 222.758 -0.668306 -3.53234 0
M  V30 2230 C 222.422 -2.0574 -4.08069 0
M  V30 2231 C 223.419 -3.0292 -4.22534 0
M  V30 2232 C 221.104 -2.36833 -4.42962 0
M  V30 2233 C 223.098 -4.29314 -4.71135 0
M  V30 2234 C 220.785 -3.63467 -4.91258 0
M  V30 2235 C 221.783 -4.59522 -5.053 0
M  V30 2236 O 221.471 -5.83907 -5.52546 0
M  V30 2237 H 221.203 -0.208784 -0.64295 0
M  V30 2238 H 223.757 -1.21836 -1.65363 0
M  V30 2239 H 221.987 0.0580547 -3.86656 0
M  V30 2240 H 223.676 -0.320273 -4.04634 0
M  V30 2241 H 224.442 -2.80216 -3.95859 0
M  V30 2242 H 220.321 -1.62824 -4.31288 0
M  V30 2243 H 223.865 -5.04293 -4.8201 0
M  V30 2244 H 219.762 -3.86 -5.17372 0
M  V30 2245 H 220.53 -5.86578 -5.70849 0
M  V30 2246 N 223.193 1.4272 -0.668489 0
M  V30 2247 C 224.442 2.00846 -0.185389 0
M  V30 2248 C 224.755 1.53442 1.21305 0
M  V30 2249 O 225.961 2.03944 1.79218 0
M  V30 2250 C 224.417 3.58805 -0.280591 0
M  V30 2251 C 224.025 4.15198 -1.68268 0
M  V30 2252 C 225.769 4.24255 0.14412 0
M  V30 2253 C 223.676 5.655 -1.73099 0
M  V30 2254 H 222.606 0.751145 -0.0655475 0
M  V30 2255 H 225.257 1.63516 -0.832752 0
M  V30 2256 H 223.639 3.93608 0.434553 0
M  V30 2257 H 224.813 3.91866 -2.42441 0
M  V30 2258 H 223.128 3.62176 -2.05469 0
M  V30 2259 H 225.725 5.34547 0.128086 0
M  V30 2260 H 226.068 3.99277 1.17827 0
M  V30 2261 H 226.601 3.94389 -0.519798 0
M  V30 2262 H 223.34 5.95268 -2.74475 0
M  V30 2263 H 222.86 5.90842 -1.03274 0
M  V30 2264 H 224.539 6.29808 -1.48158 0
M  V30 2265 N 224.671 0.411399 1.52136 0
M  V30 2266 C 226.082 -0.0576826 1.86611 0
M  V30 2267 C 226.433 -1.44238 1.33003 0
M  V30 2268 O 225.558 -2.05759 0.670228 0
M  V30 2269 C 226.153 -0.111448 3.38617 0
M  V30 2270 C 224.712 -0.52487 3.72723 0
M  V30 2271 C 223.859 0.299176 2.75681 0
M  V30 2272 H 226.81 0.628368 1.4573 0
M  V30 2273 H 226.831 -0.926252 3.69054 0
M  V30 2274 H 226.343 0.896488 3.77604 0
M  V30 2275 H 224.444 -1.53936 3.39315 0
M  V30 2276 H 224.557 -0.267681 4.78352 0
M  V30 2277 H 222.921 -0.238814 2.53578 0
M  V30 2278 H 223.704 1.3055 3.17508 0
M  V30 2279 N 226.149 -1.5696 0.141893 0
M  V30 2280 C 227.56 -1.82797 -0.379776 0
M  V30 2281 C 227.911 -1.06033 -1.6508 0
M  V30 2282 O 227.036 -0.304011 -2.14254 0
M  V30 2283 C 227.631 -3.31578 -0.695802 0
M  V30 2284 C 226.19 -3.58014 -1.16201 0
M  V30 2285 C 225.337 -2.76699 -0.182455 0
M  V30 2286 H 228.288 -1.54406 0.366675 0
M  V30 2287 H 228.309 -3.47454 -1.55099 0
M  V30 2288 H 227.821 -3.87421 0.229449 0
M  V30 2289 H 225.922 -3.07553 -2.10338 0
M  V30 2290 H 226.035 -4.66501 -1.09151 0
M  V30 2291 H 224.399 -2.45618 -0.674072 0
M  V30 2292 H 225.182 -3.35311 0.736297 0
M  V30 2293 N 227.627 0.131896 -1.57047 0
M  V30 2294 C 228.867 0.847972 -1.85981 0
M  V30 2295 C 229.231 1.77655 -0.7282 0
M  V30 2296 O 230.432 2.53322 -0.898968 0
M  V30 2297 C 228.703 1.58919 -3.20124 0
M  V30 2298 S 230.262 2.34862 -3.70655 0
M  V30 2299 H 227.08 0.283273 -0.652133 0
M  V30 2300 H 229.682 0.107057 -1.95207 0
M  V30 2301 H 228.386 0.898771 -4.00438 0
M  V30 2302 H 227.917 2.37073 -3.13942 0
M  V30 2303 H 229.932 3.60344 -3.41126 0
M  V30 2304 N 229.106 1.52395 0.401703 0
M  V30 2305 C 230.036 1.79231 1.49661 0
M  V30 2306 C 231.017 0.643654 1.57452 0
M  V30 2307 O 232.202 0.889989 1.72606 0
M  V30 2308 C 229.332 1.94971 2.87409 0
M  V30 2309 C 228.286 3.10604 2.94465 0
M  V30 2310 C 227.612 3.11577 4.34538 0
M  V30 2311 C 228.912 4.49921 2.6527 0
M  V30 2312 H 230.606 2.70917 1.27454 0
M  V30 2313 H 228.152 1.30362 0.6117 0
M  V30 2314 H 230.105 2.12328 3.63999 0
M  V30 2315 H 228.829 0.999632 3.10926 0
M  V30 2316 H 227.488 2.93009 2.20321 0
M  V30 2317 H 227.136 2.14277 4.55076 0
M  V30 2318 H 226.836 3.89247 4.40183 0
M  V30 2319 H 228.36 3.31073 5.13053 0
M  V30 2320 H 229.774 4.67683 3.31581 0
M  V30 2321 H 228.171 5.29564 2.82281 0
M  V30 2322 H 229.241 4.57507 1.60671 0
M  V30 2323 N 230.584 -0.659388 1.43143 0
M  V30 2324 C 231.861 -1.41627 1.34912 0
M  V30 2325 C 232.241 -2.11099 -0.00607785 0
M  V30 2326 O 231.589 -2.04353 -1.02236 0
M  V30 2327 C 231.799 -2.40604 2.52805 0
M  V30 2328 C 233.147 -3.04789 2.95616 0
M  V30 2329 O 234.171 -2.50932 2.52807 0
M  V30 2330 O 233.03 -4.02421 3.69756 0
M  V30 2331 H 230.124 -0.63246 0.532844 0
M  V30 2332 H 232.67 -0.686814 1.5518 0
M  V30 2333 H 231.442 -1.88174 3.43083 0
M  V30 2334 H 231.065 -3.21009 2.34604 0
M  V30 2335 N 232.062 -1.29571 -0.897171 0
M  V30 2336 C 233.287 -1.20705 -1.68656 0
M  V30 2337 C 233.712 0.228582 -1.86706 0
M  V30 2338 O 233.07 1.16494 -1.3892 0
M  V30 2339 C 233.118 -1.9282 -3.04717 0
M  V30 2340 O 232.222 -1.24697 -3.93096 0
M  V30 2341 H 231.563 -0.418126 -0.515816 0
M  V30 2342 H 234.093 -1.71183 -1.12061 0
M  V30 2343 H 234.103 -2.01372 -3.54843 0
M  V30 2344 H 232.778 -2.97239 -2.90899 0
M  V30 2345 H 231.355 -1.2442 -3.51531 0
M  V30 2346 N 233.54 1.10788 -1.12088 0
M  V30 2347 C 234.45 2.20599 -0.798338 0
M  V30 2348 C 235.466 1.72712 0.21135 0
M  V30 2349 O 236.642 2.01348 0.0458477 0
M  V30 2350 C 233.707 3.45771 -0.253674 0
M  V30 2351 C 232.768 4.08411 -1.32283 0
M  V30 2352 C 232.001 5.27608 -0.80406 0
M  V30 2353 O 232.224 5.69241 0.363478 0
M  V30 2354 O 231.158 5.8101 -1.57198 0
M  V30 2355 H 234.984 2.50614 -1.7154 0
M  V30 2356 H 232.569 1.19454 -0.897275 0
M  V30 2357 H 234.451 4.21376 0.0453691 0
M  V30 2358 H 233.126 3.1739 0.636005 0
M  V30 2359 H 232.033 3.34507 -1.67499 0
M  V30 2360 H 233.366 4.40986 -2.18614 0
M  V30 2361 N 235.018 0.912232 1.28515 0
M  V30 2362 C 235.948 0.416403 2.29757 0
M  V30 2363 C 236.929 -0.515194 1.6211 0
M  V30 2364 O 238.114 -0.423253 1.89532 0
M  V30 2365 C 235.244 -0.34572 3.45575 0
M  V30 2366 C 234.198 0.496599 4.25109 0
M  V30 2367 C 233.524 -0.393771 5.33248 0
M  V30 2368 C 234.824 1.75307 4.92001 0
M  V30 2369 H 236.518 1.26249 2.7148 0
M  V30 2370 H 234.064 0.608515 1.30511 0
M  V30 2371 H 236.017 -0.703422 4.15488 0
M  V30 2372 H 234.741 -1.2257 3.02728 0
M  V30 2373 H 233.4 0.8368 3.56922 0
M  V30 2374 H 233.048 -1.27225 4.86644 0
M  V30 2375 H 232.748 0.166209 5.87365 0
M  V30 2376 H 234.272 -0.747389 6.06009 0
M  V30 2377 H 235.686 1.46437 5.54283 0
M  V30 2378 H 234.083 2.25534 5.56106 0
M  V30 2379 H 235.153 2.48176 4.16577 0
M  V30 2380 N 236.496 -1.42363 0.676048 0
M  V30 2381 C 237.724 -2.05859 0.207268 0
M  V30 2382 C 238.139 -1.50796 -1.13605 0
M  V30 2383 O 237.496 -0.648265 -1.70598 0
M  V30 2384 C 237.547 -3.61248 0.134975 0
M  V30 2385 O 237.268 -4.1427 1.42521 0
M  V30 2386 C 238.769 -4.41859 -0.357151 0
M  V30 2387 H 235.989 -0.663431 0.100503 0
M  V30 2388 H 238.533 -1.82479 0.923136 0
M  V30 2389 H 236.688 -3.83735 -0.531588 0
M  V30 2390 H 237.102 -5.0815 1.29939 0
M  V30 2391 H 238.576 -5.50847 -0.356641 0
M  V30 2392 H 239.053 -4.16536 -1.39264 0
M  V30 2393 H 239.659 -4.24392 0.27772 0
M  V30 2394 N 237.974 -0.419461 -1.51915 0
M  V30 2395 C 238.884 0.407528 -2.31033 0
M  V30 2396 C 239.9 1.04413 -1.3919 0
M  V30 2397 O 241.076 1.0434 -1.72265 0
M  V30 2398 C 238.141 1.50365 -3.12396 0
M  V30 2399 C 237.202 0.889029 -4.19994 0
M  V30 2400 C 236.435 1.93291 -4.97468 0
M  V30 2401 O 236.658 3.15259 -4.75361 0
M  V30 2402 O 235.592 1.53339 -5.8204 0
M  V30 2403 H 239.418 -0.237865 -3.02767 0
M  V30 2404 H 237.003 -0.182413 -1.48282 0
M  V30 2405 H 238.885 2.13975 -3.63032 0
M  V30 2406 H 237.56 2.13345 -2.43445 0
M  V30 2407 H 236.467 0.215353 -3.7348 0
M  V30 2408 H 237.8 0.302991 -4.91267 0
M  V30 2409 N 239.452 1.56882 -0.150215 0
M  V30 2410 C 240.699 1.96228 0.500093 0
M  V30 2411 C 241.027 1.03522 1.64661 0
M  V30 2412 O 240.282 0.0650683 1.95592 0
M  V30 2413 C 240.581 3.41801 1.04437 0
M  V30 2414 C 240.247 4.50897 0.0159671 0
M  V30 2415 C 238.909 4.8046 -0.266731 0
M  V30 2416 C 241.261 5.16703 -0.683192 0
M  V30 2417 C 238.589 5.73135 -1.25434 0
M  V30 2418 C 240.941 6.10441 -1.65964 0
M  V30 2419 C 239.605 6.38382 -1.95 0
M  V30 2420 H 238.875 0.718048 0.182997 0
M  V30 2421 H 241.522 1.90019 -0.237724 0
M  V30 2422 H 239.827 3.44857 1.85959 0
M  V30 2423 H 241.524 3.69573 1.55618 0
M  V30 2424 H 238.114 4.27891 0.246485 0
M  V30 2425 H 242.298 4.93993 -0.477983 0
M  V30 2426 H 237.554 5.93074 -1.48571 0
M  V30 2427 H 241.728 6.60507 -2.20689 0
M  V30 2428 H 239.355 7.09996 -2.71679 0
M  V30 2429 N 240.93 -0.123565 1.57115 0
M  V30 2430 C 242.341 -0.681198 1.73829 0
M  V30 2431 C 242.692 -1.80535 0.768214 0
M  V30 2432 O 241.817 -2.16317 -0.0599103 0
M  V30 2433 C 242.412 -1.24246 3.15196 0
M  V30 2434 C 240.971 -1.74643 3.33432 0
M  V30 2435 C 240.118 -0.644284 2.69711 0
M  V30 2436 H 243.069 0.102315 1.5837 0
M  V30 2437 H 243.09 -2.11216 3.16493 0
M  V30 2438 H 242.602 -0.424062 3.85776 0
M  V30 2439 H 240.703 -2.58974 2.67886 0
M  V30 2440 H 240.816 -1.85902 4.41562 0
M  V30 2441 H 239.18 -1.07676 2.3082 0
M  V30 2442 H 239.963 0.163058 3.42913 0
M  V30 2443 N 242.408 -1.52605 -0.393616 0
M  V30 2444 C 243.338 -1.80022 -1.48709 0
M  V30 2445 C 244.319 -0.651995 -1.57108 0
M  V30 2446 O 245.504 -0.89913 -1.72132 0
M  V30 2447 C 242.634 -1.96492 -2.86371 0
M  V30 2448 C 241.588 -3.12161 -2.92813 0
M  V30 2449 C 240.914 -3.13877 -4.3288 0
M  V30 2450 C 242.214 -4.51322 -2.6288 0
M  V30 2451 H 243.908 -2.71589 -1.26015 0
M  V30 2452 H 241.454 -1.30684 -0.604778 0
M  V30 2453 H 243.407 -2.14255 -3.62867 0
M  V30 2454 H 242.131 -1.01611 -3.10391 0
M  V30 2455 H 240.79 -2.94173 -2.18764 0
M  V30 2456 H 240.438 -2.16687 -4.53933 0
M  V30 2457 H 240.138 -3.91576 -4.38112 0
M  V30 2458 H 241.662 -3.33789 -5.1129 0
M  V30 2459 H 243.076 -4.69435 -3.29096 0
M  V30 2460 H 241.473 -5.31053 -2.79468 0
M  V30 2461 H 242.543 -4.58353 -1.58242 0
M  V30 2462 N 243.887 0.651787 -1.4349 0
M  V30 2463 C 245.303 0.96762 -1.26922 0
M  V30 2464 C 245.503 2.00602 -0.189982 0
M  V30 2465 O 244.559 2.48793 0.431107 0
M  V30 2466 C 245.872 1.45052 -2.63401 0
M  V30 2467 C 247.42 1.5671 -2.70945 0
M  V30 2468 C 247.895 2.0839 -4.07845 0
M  V30 2469 N 249.386 2.1569 -4.09917 0
M  V30 2470 C 250.121 2.56804 -5.12679 0
M  V30 2471 N 249.617 2.97203 -6.25813 0
M  V30 2472 N 251.41 2.56756 -5.00033 0
M  V30 2473 H 243.561 -0.0353158 -2.12371 0
M  V30 2474 H 245.824 0.0467858 -0.946845 0
M  V30 2475 H 245.53 0.761926 -3.43348 0
M  V30 2476 H 245.404 2.42529 -2.88894 0
M  V30 2477 H 247.791 2.2467 -1.9133 0
M  V30 2478 H 247.872 0.57662 -2.49216 0
M  V30 2479 H 247.516 1.41031 -4.87927 0
M  V30 2480 H 247.446 3.08271 -4.26938 0
M  V30 2481 H 249.937 1.87237 -3.28254 0
M  V30 2482 H 250.25 3.27328 -7.00055 0
M  V30 2483 H 248.595 2.95004 -6.29283 0
M  V30 2484 H 251.786 2.24572 -4.10713 0
M  V30 2485 H 251.959 2.88475 -5.80247 0
M  V30 2486 N 245.365 1.30045 0.890287 0
M  V30 2487 C 246.298 1.10301 1.99772 0
M  V30 2488 C 247.276 0.0121631 1.62595 0
M  V30 2489 O 248.46 0.16469 1.87779 0
M  V30 2490 C 245.587 0.681125 3.31781 0
M  V30 2491 C 244.633 1.77206 3.87944 0
M  V30 2492 S 245.466 3.37335 4.15891 0
M  V30 2493 C 246.622 2.97036 5.50927 0
M  V30 2494 H 246.855 2.04057 2.16213 0
M  V30 2495 H 244.388 1.14299 1.03804 0
M  V30 2496 H 246.346 0.444439 4.08087 0
M  V30 2497 H 245.007 -0.236981 3.13205 0
M  V30 2498 H 244.2 1.42903 4.83316 0
M  V30 2499 H 243.802 1.96275 3.18358 0
M  V30 2500 H 246.094 2.44666 6.31779 0
M  V30 2501 H 247.037 3.91296 5.90164 0
M  V30 2502 H 247.445 2.35057 5.13233 0
M  V30 2503 N 246.843 -1.10192 1.12674 0
M  V30 2504 C 248.259 -1.34235 0.863317 0
M  V30 2505 C 248.459 -1.95062 -0.505277 0
M  V30 2506 O 247.515 -2.19192 -1.25345 0
M  V30 2507 C 248.828 -2.2616 1.98172 0
M  V30 2508 C 250.376 -2.3969 2.0129 0
M  V30 2509 C 250.851 -3.34946 3.1237 0
M  V30 2510 N 252.342 -3.42515 3.11829 0
M  V30 2511 C 253.077 -4.16199 3.94419 0
M  V30 2512 N 252.573 -4.92747 4.87004 0
M  V30 2513 N 254.366 -4.11843 3.82547 0
M  V30 2514 H 246.517 -0.690798 2.00853 0
M  V30 2515 H 248.78 -0.366774 0.874174 0
M  V30 2516 H 248.486 -1.8868 2.96804 0
M  V30 2517 H 248.36 -3.26488 1.88906 0
M  V30 2518 H 250.747 -2.76438 1.03276 0
M  V30 2519 H 250.828 -1.39169 2.14629 0
M  V30 2520 H 250.472 -2.98923 4.10619 0
M  V30 2521 H 250.402 -4.35353 2.96269 0
M  V30 2522 H 252.893 -2.87926 2.44759 0
M  V30 2523 H 253.206 -5.46376 5.46528 0
M  V30 2524 H 251.551 -4.91862 4.91016 0
M  V30 2525 H 254.742 -3.51136 3.0955 0
M  V30 2526 H 254.915 -4.69007 4.47142 0
M  V30 2527 N 248.321 -0.919034 -1.28029 0
M  V30 2528 C 249.598 -0.473668 -1.89778 0
M  V30 2529 C 249.978 1.04783 -1.83259 0
M  V30 2530 O 249.326 1.8982 -1.27202 0
M  V30 2531 C 249.536 -1.00998 -3.34066 0
M  V30 2532 C 250.884 -1.06525 -4.1102 0
M  V30 2533 O 251.908 -0.958996 -3.43048 0
M  V30 2534 O 250.767 -1.22776 -5.3253 0
M  V30 2535 H 247.861 -0.15098 -0.813101 0
M  V30 2536 H 250.407 -1.01016 -1.36359 0
M  V30 2537 H 249.179 -2.05392 -3.33061 0
M  V30 2538 H 248.802 -0.454626 -3.94992 0
M  V30 2539 N 249.799 1.42003 -0.683588 0
M  V30 2540 C 251.045 2.02223 -0.218536 0
M  V30 2541 C 251.4 1.53126 1.16492 0
M  V30 2542 O 250.693 0.727459 1.77253 0
M  V30 2543 C 250.887 3.56827 -0.202357 0
M  V30 2544 C 250.716 4.20928 -1.5827 0
M  V30 2545 C 249.486 4.5573 -2.18262 0
M  V30 2546 C 251.684 4.47933 -2.52706 0
M  V30 2547 N 249.666 5.05056 -3.48986 0
M  V30 2548 C 251.037 4.98906 -3.68094 0
M  V30 2549 C 253.092 4.29931 -2.51125 0
M  V30 2550 C 251.795 5.33768 -4.82166 0
M  V30 2551 C 253.821 4.65875 -3.643 0
M  V30 2552 C 253.183 5.17008 -4.78417 0
M  V30 2553 H 249.282 0.771931 -0.125088 0
M  V30 2554 H 251.866 1.72729 -0.898479 0
M  V30 2555 H 250.037 3.85819 0.447029 0
M  V30 2556 H 251.769 4.03755 0.276399 0
M  V30 2557 H 248.524 4.41781 -1.70665 0
M  V30 2558 H 248.948 5.34139 -4.15962 0
M  V30 2559 H 253.59 3.89647 -1.6412 0
M  V30 2560 H 251.308 5.72981 -5.6984 0
M  V30 2561 H 254.894 4.53615 -3.64314 0
M  V30 2562 H 253.774 5.44301 -5.64541 0
M  V30 2563 N 251.277 0.427512 1.51691 0
M  V30 2564 C 252.207 -0.3796 2.30394 0
M  V30 2565 C 253.188 -1.02982 1.35384 0
M  V30 2566 O 254.373 -1.03534 1.643 0
M  V30 2567 C 251.503 -1.48649 3.1388 0
M  V30 2568 C 250.457 -0.960294 4.17088 0
M  V30 2569 C 249.783 -2.16219 4.89033 0
M  V30 2570 C 251.083 -0.00153679 5.223 0
M  V30 2571 H 252.777 0.277164 2.98114 0
M  V30 2572 H 250.323 0.134739 1.43368 0
M  V30 2573 H 252.276 -2.05826 3.67714 0
M  V30 2574 H 251 -2.1714 2.43962 0
M  V30 2575 H 249.659 -0.410806 3.64291 0
M  V30 2576 H 249.307 -2.83307 4.15628 0
M  V30 2577 H 249.007 -1.81654 5.58816 0
M  V30 2578 H 250.531 -2.73968 5.45687 0
M  V30 2579 H 251.945 -0.482687 5.71264 0
M  V30 2580 H 250.342 0.256199 5.99553 0
M  V30 2581 H 251.412 0.938174 4.75738 0
M  V30 2582 N 252.755 -1.56801 0.158532 0
M  V30 2583 C 253.702 -2.17337 -0.776729 0
M  V30 2584 C 254.672 -1.1096 -1.23601 0
M  V30 2585 O 255.857 -1.39054 -1.30647 0
M  V30 2586 C 252.997 -2.80822 -2.00582 0
M  V30 2587 C 252.11 -4.01624 -1.59129 0
M  V30 2588 C 251.245 -4.53072 -2.77306 0
M  V30 2589 C 250.284 -5.66314 -2.32282 0
M  V30 2590 N 249.421 -6.12329 -3.43508 0
M  V30 2591 H 254.261 -2.96918 -0.253701 0
M  V30 2592 H 251.798 -1.46661 -0.113504 0
M  V30 2593 H 253.756 -3.15779 -2.72652 0
M  V30 2594 H 252.386 -2.03866 -2.50277 0
M  V30 2595 H 251.438 -3.72571 -0.767806 0
M  V30 2596 H 252.75 -4.83633 -1.2207 0
M  V30 2597 H 251.904 -4.90145 -3.57551 0
M  V30 2598 H 250.643 -3.70095 -3.17617 0
M  V30 2599 H 249.648 -5.28806 -1.5048 0
M  V30 2600 H 250.873 -6.51085 -1.93043 0
M  V30 2601 H 248.819 -5.32284 -3.83418 0
M  V30 2602 H 248.736 -6.89293 -3.105 0
M  V30 2603 H 250.004 -6.5405 -4.24075 0
M  V30 2604 N 254.233 0.115231 -1.57178 0
M  V30 2605 C 255.181 1.16014 -2.01602 0
M  V30 2606 C 256.175 1.42653 -0.913587 0
M  V30 2607 O 257.381 1.42571 -1.09879 0
M  V30 2608 H 253.756 0.391252 -0.642204 0
M  V30 2609 H 255.727 0.758998 -2.88586 0
M  V30 2610 C 254.476 2.47767 -2.4394 0
M  V30 2611 H 253.799 2.28108 -3.28339 0
M  V30 2612 H 255.239 3.19432 -2.78818 0
M  V30 2613 C 253.698 3.10617 -1.30455 0
M  V30 2614 O 254.228 3.96846 -0.622585 0
M  V30 2615 N 252.434 2.70553 -1.06064 0
M  V30 2616 H 251.981 2.00527 -1.61699 0
M  V30 2617 H 251.939 3.12934 -0.303284 0
M  V30 2618 N 255.711 1.52812 0.385517 0
M  V30 2619 C 256.957 1.68275 1.13188 0
M  V30 2620 C 257.29 0.423179 1.89533 0
M  V30 2621 O 256.565 -0.579113 1.85679 0
M  V30 2622 C 256.848 2.92001 2.1073 0
M  V30 2623 C 256.701 4.28067 1.38125 0
M  V30 2624 C 258.02 3.11283 3.11113 0
M  V30 2625 H 255.139 0.612352 0.410115 0
M  V30 2626 H 257.781 1.85415 0.414869 0
M  V30 2627 H 255.931 2.77519 2.71874 0
M  V30 2628 H 257.603 4.54324 0.799187 0
M  V30 2629 H 255.846 4.28388 0.683092 0
M  V30 2630 H 256.517 5.10733 2.09417 0
M  V30 2631 H 258.993 3.2482 2.6006 0
M  V30 2632 H 257.869 3.99325 3.76605 0
M  V30 2633 H 258.13 2.25656 3.80173 0
M  V30 2634 N 257.189 -0.644168 1.43834 0
M  V30 2635 C 258.119 -1.76814 1.52509 0
M  V30 2636 C 259.1 -1.65823 0.379052 0
M  V30 2637 O 260.285 -1.84781 0.597466 0
M  V30 2638 C 257.415 -3.15288 1.4564 0
M  V30 2639 C 256.369 -3.41053 2.58586 0
M  V30 2640 C 255.695 -4.79421 2.36769 0
M  V30 2641 C 256.995 -3.34902 4.00797 0
M  V30 2642 H 258.689 -1.69812 2.46586 0
M  V30 2643 H 256.235 -0.815542 1.1868 0
M  V30 2644 H 258.188 -3.93681 1.50311 0
M  V30 2645 H 256.912 -3.23043 0.480725 0
M  V30 2646 H 255.571 -2.65035 2.53282 0
M  V30 2647 H 255.219 -4.83863 1.37424 0
M  V30 2648 H 254.919 -4.9762 3.12487 0
M  V30 2649 H 256.443 -5.6006 2.43238 0
M  V30 2650 H 257.857 -4.03218 4.07539 0
M  V30 2651 H 256.254 -3.64637 4.76613 0
M  V30 2652 H 257.324 -2.32928 4.25291 0
M  V30 2653 N 258.668 -1.30515 -0.883378 0
M  V30 2654 C 259.914 -1.19607 -1.63774 0
M  V30 2655 C 260.247 0.248314 -1.92606 0
M  V30 2656 O 259.522 1.17742 -1.54813 0
M  V30 2657 C 259.805 -2.02669 -2.97653 0
M  V30 2658 C 259.658 -3.55335 -2.75784 0
M  V30 2659 C 260.977 -1.86573 -3.98596 0
M  V30 2660 H 258.096 -0.435856 -0.594305 0
M  V30 2661 H 260.738 -1.60165 -1.02212 0
M  V30 2662 H 258.888 -1.68208 -3.50197 0
M  V30 2663 H 260.56 -3.99863 -2.30016 0
M  V30 2664 H 258.803 -3.79438 -2.1026 0
M  V30 2665 H 259.474 -4.08745 -3.70988 0
M  V30 2666 H 261.95 -2.16703 -3.55217 0
M  V30 2667 H 260.826 -2.47014 -4.90179 0
M  V30 2668 H 261.087 -0.825321 -4.34328 0
M  V30 2669 N 260.146 1.09593 -1.13257 0
M  V30 2670 C 261.374 1.855 -0.916378 0
M  V30 2671 C 261.789 1.81069 0.534738 0
M  V30 2672 O 261.146 1.20562 1.37007 0
M  V30 2673 C 261.197 3.33546 -1.39388 0
M  V30 2674 O 260.918 3.37927 -2.78813 0
M  V30 2675 C 262.419 4.26299 -1.21588 0
M  V30 2676 H 259.639 0.585991 -0.326887 0
M  V30 2677 H 262.183 1.38488 -1.5047 0
M  V30 2678 H 260.338 3.77992 -0.848597 0
M  V30 2679 H 260.752 4.30254 -2.9997 0
M  V30 2680 H 262.226 5.28341 -1.59876 0
M  V30 2681 H 262.703 4.38918 -0.157376 0
M  V30 2682 H 263.309 3.87668 -1.7491 0
M  V30 2683 N 261.624 0.925811 1.2754 0
M  V30 2684 C 262.554 0.440748 2.29303 0
M  V30 2685 C 263.535 -0.497971 1.62648 0
M  V30 2686 O 264.72 -0.403126 1.8997 0
M  V30 2687 C 261.85 -0.309048 3.45922 0
M  V30 2688 C 260.804 0.54166 4.24559 0
M  V30 2689 C 260.13 -0.337191 5.33636 0
M  V30 2690 C 261.43 1.80516 4.90114 0
M  V30 2691 H 263.124 1.29121 2.70126 0
M  V30 2692 H 260.67 0.622323 1.29858 0
M  V30 2693 H 262.623 -0.659315 4.1621 0
M  V30 2694 H 261.347 -1.19352 3.04011 0
M  V30 2695 H 260.006 0.874609 3.56014 0
M  V30 2696 H 259.654 -1.22056 4.87966 0
M  V30 2697 H 259.354 0.228497 5.87156 0
M  V30 2698 H 260.878 -0.683072 6.06767 0
M  V30 2699 H 262.292 1.52307 5.52698 0
M  V30 2700 H 260.689 2.3142 5.53683 0
M  V30 2701 H 261.759 2.52581 4.13921 0
M  V30 2702 N 263.102 -1.41638 0.69111 0
M  V30 2703 C 264.332 -2.0533 0.228758 0
M  V30 2704 C 264.74 -1.52089 -1.12541 0
M  V30 2705 O 264.083 -0.662145 -1.71351 0
M  V30 2706 C 264.145 -3.59349 0.10407 0
M  V30 2707 C 263.809 -4.35362 1.38956 0
M  V30 2708 C 264.806 -4.64942 2.32648 0
M  V30 2709 C 262.491 -4.74714 1.64169 0
M  V30 2710 C 264.485 -5.32828 3.49818 0
M  V30 2711 C 262.172 -5.42338 2.81625 0
M  V30 2712 C 263.17 -5.71322 3.74273 0
M  V30 2713 O 262.858 -6.37554 4.89673 0
M  V30 2714 H 262.59 -0.667796 0.104997 0
M  V30 2715 H 265.144 -1.82477 0.942938 0
M  V30 2716 H 263.374 -3.80924 -0.665839 0
M  V30 2717 H 265.063 -4.04633 -0.320519 0
M  V30 2718 H 265.829 -4.35025 2.14425 0
M  V30 2719 H 261.708 -4.51538 0.929202 0
M  V30 2720 H 265.252 -5.55368 4.22152 0
M  V30 2721 H 261.149 -5.71673 2.99768 0
M  V30 2722 H 261.917 -6.56049 4.8943 0
M  V30 2723 N 264.58 -0.43555 -1.51462 0
M  V30 2724 C 265.49 0.383001 -2.31453 0
M  V30 2725 C 266.506 1.02931 -1.4029 0
M  V30 2726 O 267.682 1.02507 -1.73362 0
M  V30 2727 C 264.747 1.47043 -3.13973 0
M  V30 2728 C 263.808 0.844433 -4.20913 0
M  V30 2729 C 263.041 1.88004 -4.9949 0
M  V30 2730 O 263.264 3.10199 -4.78678 0
M  V30 2731 O 262.198 1.47157 -5.83634 0
M  V30 2732 H 266.024 -0.269964 -3.02498 0
M  V30 2733 H 263.609 -0.19813 -1.4808 0
M  V30 2734 H 265.491 2.10113 -3.65281 0
M  V30 2735 H 264.166 2.10751 -2.45695 0
M  V30 2736 H 263.073 0.175729 -3.73687 0
M  V30 2737 H 264.406 0.250869 -4.9156 0
M  V30 2738 N 266.058 1.56714 -0.166846 0
M  V30 2739 C 267.474 1.58473 0.189372 0
M  V30 2740 C 267.674 1.18201 1.63189 0
M  V30 2741 O 266.73 0.891528 2.36237 0
M  V30 2742 C 268.043 3.00573 -0.0873872 0
M  V30 2743 C 269.591 3.1299 -0.0252443 0
M  V30 2744 C 270.066 4.57174 -0.274934 0
M  V30 2745 N 271.557 4.62665 -0.222553 0
M  V30 2746 C 272.292 5.72072 -0.389985 0
M  V30 2747 N 271.788 6.90054 -0.616229 0
M  V30 2748 N 273.581 5.61153 -0.326202 0
M  V30 2749 H 265.732 1.8118 -1.10849 0
M  V30 2750 H 267.995 0.839525 -0.440342 0
M  V30 2751 H 267.701 3.34497 -1.0865 0
M  V30 2752 H 267.575 3.72019 0.623037 0
M  V30 2753 H 269.962 2.78895 0.96444 0
M  V30 2754 H 270.043 2.43989 -0.768309 0
M  V30 2755 H 269.687 4.91976 -1.26181 0
M  V30 2756 H 269.617 5.24328 0.48869 0
M  V30 2757 H 272.108 3.77863 -0.0531512 0
M  V30 2758 H 272.421 7.69311 -0.733559 0
M  V30 2759 H 270.766 6.91927 -0.652791 0
M  V30 2760 H 273.957 4.67859 -0.150072 0
M  V30 2761 H 274.13 6.46364 -0.460116 0
M  V30 2762 N 267.536 -0.106894 1.57237 0
M  V30 2763 C 268.813 -0.843526 1.76477 0
M  V30 2764 C 269.193 -1.97499 0.745464 0
M  V30 2765 O 268.541 -2.27357 -0.228306 0
M  V30 2766 C 268.751 -1.34903 3.21873 0
M  V30 2767 C 270.099 -1.79654 3.8472 0
M  V30 2768 O 271.123 -1.44554 3.2555 0
M  V30 2769 O 269.982 -2.44515 4.88748 0
M  V30 2770 H 267.076 -0.401468 0.723016 0
M  V30 2771 H 269.622 -0.0896927 1.69463 0
M  V30 2772 H 268.394 -0.53781 3.87586 0
M  V30 2773 H 268.017 -2.16522 3.33473 0
M  V30 2774 N 269.014 -1.53014 -0.377408 0
M  V30 2775 C 269.924 -1.81557 -1.48574 0
M  V30 2776 C 270.94 -0.703102 -1.59162 0
M  V30 2777 O 272.116 -0.99192 -1.75279 0
M  V30 2778 C 269.181 -1.9889 -2.83978 0
M  V30 2779 C 268.242 -3.22801 -2.83016 0
M  V30 2780 C 267.475 -3.39298 -4.11962 0
M  V30 2781 O 267.698 -2.60345 -5.0752 0
M  V30 2782 O 266.632 -4.32604 -4.18494 0
M  V30 2783 H 270.458 -2.75695 -1.27382 0
M  V30 2784 H 268.043 -1.38248 -0.566373 0
M  V30 2785 H 269.925 -2.11931 -3.6423 0
M  V30 2786 H 268.6 -1.07942 -3.05172 0
M  V30 2787 H 267.507 -3.15193 -2.01505 0
M  V30 2788 H 268.84 -4.13632 -2.66775 0
M  V30 2789 N 270.492 0.636531 -1.44174 0
M  V30 2790 C 271.769 1.39463 -1.37148 0
M  V30 2791 C 272.149 2.11082 -0.027507 0
M  V30 2792 O 271.497 2.05954 0.989716 0
M  V30 2793 C 271.707 2.36552 -2.56601 0
M  V30 2794 C 273.055 3.00048 -3.00427 0
M  V30 2795 O 274.079 2.46878 -2.56767 0
M  V30 2796 O 272.938 3.96488 -3.76111 0
M  V30 2797 H 270.032 0.623903 -0.542839 0
M  V30 2798 H 272.578 0.662039 -1.56253 0
M  V30 2799 H 271.35 1.82692 -3.46034 0
M  V30 2800 H 270.973 3.17236 -2.39681 0
M  V30 2801 N 271.97 1.30982 0.876444 0
M  V30 2802 C 272.918 1.18006 2.00443 0
M  V30 2803 C 273.912 0.0898871 1.69161 0
M  V30 2804 O 275.118 0.251333 1.78237 0
M  V30 2805 H 271.493 0.365196 0.65737 0
M  V30 2806 H 273.464 2.13453 2.0852 0
M  V30 2807 C 272.213 0.897521 3.35916 0
M  V30 2808 H 271.536 1.7285 3.60504 0
M  V30 2809 H 272.976 0.846874 4.15456 0
M  V30 2810 C 271.435 -0.399674 3.34521 0
M  V30 2811 O 271.965 -1.41852 3.7582 0
M  V30 2812 N 270.171 -0.413893 2.87637 0
M  V30 2813 H 269.718 0.41571 2.54224 0
M  V30 2814 H 269.676 -1.28175 2.87086 0
M  V30 2815 N 273.449 -1.08991 1.13837 0
M  V30 2816 C 274.397 -2.17841 0.815347 0
M  V30 2817 C 275.391 -1.68164 -0.204233 0
M  V30 2818 O 276.597 -1.79897 -0.0609304 0
M  V30 2819 H 272.972 -0.710654 0.245915 0
M  V30 2820 H 274.943 -2.42315 1.74143 0
M  V30 2821 C 273.692 -3.46381 0.302614 0
M  V30 2822 H 273.015 -3.84979 1.0785 0
M  V30 2823 H 274.455 -4.23844 0.115074 0
M  V30 2824 C 272.914 -3.22556 -0.972591 0
M  V30 2825 O 273.444 -3.45599 -2.04754 0
M  V30 2826 N 271.65 -2.76134 -0.905455 0
M  V30 2827 H 271.197 -2.57582 -0.0305421 0
M  V30 2828 H 271.155 -2.60571 -1.75926 0
M  V30 2829 N 274.927 -0.932562 -1.27047 0
M  V30 2830 C 275.857 -0.452902 -2.29066 0
M  V30 2831 C 276.838 0.489338 -1.62909 0
M  V30 2832 O 278.023 0.393046 -1.90181 0
M  V30 2833 C 275.153 0.290698 -3.46081 0
M  V30 2834 C 274.107 -0.564168 -4.24265 0
M  V30 2835 C 273.433 0.308886 -5.33807 0
M  V30 2836 C 274.733 -1.83112 -4.89149 0
M  V30 2837 H 276.427 -1.30552 -2.69437 0
M  V30 2838 H 273.973 -0.629201 -1.29526 0
M  V30 2839 H 275.926 0.637233 -4.16554 0
M  V30 2840 H 274.65 1.17738 -3.0464 0
M  V30 2841 H 273.309 -0.893477 -3.55545 0
M  V30 2842 H 272.957 1.19467 -4.88607 0
M  V30 2843 H 272.657 -0.259633 -5.87026 0
M  V30 2844 H 274.181 0.650884 -6.07121 0
M  V30 2845 H 275.595 -1.55236 -5.51883 0
M  V30 2846 H 273.992 -2.34353 -5.52448 0
M  V30 2847 H 275.062 -2.54772 -4.12576 0
M  V30 2848 N 276.405 1.4127 -0.698611 0
M  V30 2849 C 277.335 2.33447 -0.049629 0
M  V30 2850 C 278.316 1.51982 0.763898 0
M  V30 2851 O 279.501 1.80509 0.716257 0
M  V30 2852 C 276.631 3.35828 0.885267 0
M  V30 2853 C 275.585 4.27627 0.178613 0
M  V30 2854 C 274.911 5.20406 1.22807 0
M  V30 2855 C 276.211 5.13459 -0.956933 0
M  V30 2856 H 277.905 2.87966 -0.81951 0
M  V30 2857 H 275.451 1.38461 -0.395538 0
M  V30 2858 H 277.404 3.9924 1.34854 0
M  V30 2859 H 276.128 2.79666 1.68685 0
M  V30 2860 H 274.787 3.65643 -0.26466 0
M  V30 2861 H 274.435 4.60558 2.02226 0
M  V30 2862 H 274.135 5.82661 0.760239 0
M  V30 2863 H 275.659 5.86695 1.69179 0
M  V30 2864 H 277.073 5.70421 -0.573805 0
M  V30 2865 H 275.47 5.8467 -1.35205 0
M  V30 2866 H 276.54 4.50443 -1.79524 0
M  V30 2867 N 277.883 0.443576 1.51229 0
M  V30 2868 C 279.111 -0.11929 2.06556 0
M  V30 2869 C 279.526 -1.35921 1.31038 0
M  V30 2870 O 278.883 -1.78675 0.371704 0
M  V30 2871 C 278.934 -0.435228 3.5887 0
M  V30 2872 O 278.655 0.755486 4.31537 0
M  V30 2873 C 280.156 -1.04808 4.30732 0
M  V30 2874 H 277.376 -0.0051584 0.67098 0
M  V30 2875 H 279.92 0.624453 1.94733 0
M  V30 2876 H 278.075 -1.12887 3.70588 0
M  V30 2877 H 278.489 0.483491 5.22267 0
M  V30 2878 H 279.963 -1.2191 5.3837 0
M  V30 2879 H 280.44 -2.03081 3.89429 0
M  V30 2880 H 281.046 -0.393637 4.23474 0
M  V30 2881 N 279.361 -1.56624 0.175154 0
M  V30 2882 C 280.271 -2.21741 -0.766042 0
M  V30 2883 C 281.287 -1.21023 -1.25018 0
M  V30 2884 O 282.463 -1.53697 -1.3015 0
M  V30 2885 C 279.528 -2.84839 -1.97655 0
M  V30 2886 C 278.589 -4.00769 -1.53892 0
M  V30 2887 C 277.822 -4.60849 -2.69173 0
M  V30 2888 O 278.045 -4.19823 -3.86141 0
M  V30 2889 O 276.979 -5.50655 -2.43028 0
M  V30 2890 H 280.805 -3.02738 -0.241585 0
M  V30 2891 H 278.39 -1.49305 -0.053222 0
M  V30 2892 H 280.272 -3.24834 -2.68442 0
M  V30 2893 H 278.947 -2.06836 -2.48999 0
M  V30 2894 H 277.854 -3.65436 -0.80044 0
M  V30 2895 H 279.187 -4.80376 -1.07236 0
M  V30 2896 N 280.839 0.0985539 -1.57292 0
M  V30 2897 C 281.786 1.11981 -2.01814 0
M  V30 2898 C 282.756 1.39999 -0.89384 0
M  V30 2899 O 283.941 1.5152 -1.15958 0
M  V30 2900 C 281.081 2.43577 -2.44467 0
M  V30 2901 C 280.194 2.2232 -3.70402 0
M  V30 2902 C 279.329 3.4729 -4.01949 0
M  V30 2903 C 278.368 3.2128 -5.21005 0
M  V30 2904 N 277.505 4.38507 -5.48321 0
M  V30 2905 H 282.345 0.733149 -2.88841 0
M  V30 2906 H 279.882 0.350482 -1.42864 0
M  V30 2907 H 281.84 3.20373 -2.6724 0
M  V30 2908 H 280.47 2.80097 -1.60455 0
M  V30 2909 H 279.522 1.36343 -3.55126 0
M  V30 2910 H 280.834 1.99089 -4.57345 0
M  V30 2911 H 279.988 4.32495 -4.25479 0
M  V30 2912 H 278.727 3.73572 -3.13521 0
M  V30 2913 H 277.732 2.34468 -4.97298 0
M  V30 2914 H 278.957 2.96348 -6.11028 0
M  V30 2915 H 276.903 4.64871 -4.62851 0
M  V30 2916 H 276.82 4.18455 -6.29628 0
M  V30 2917 H 278.088 5.24787 -5.76385 0
M  V30 2918 N 282.317 1.53212 0.369288 0
M  V30 2919 C 283.249 1.75668 1.47219 0
M  V30 2920 C 284.262 0.637387 1.49804 0
M  V30 2921 O 285.451 0.913561 1.5335 0
M  V30 2922 C 282.551 1.81818 2.85999 0
M  V30 2923 C 281.724 3.11409 3.07153 0
M  V30 2924 C 280.783 3.08849 4.26026 0
M  V30 2925 O 279.809 3.82659 4.2138 0
M  V30 2926 N 281.011 2.29409 5.33246 0
M  V30 2927 H 283.776 2.70832 1.28337 0
M  V30 2928 H 281.337 1.51944 0.55898 0
M  V30 2929 H 283.329 1.77588 3.63655 0
M  V30 2930 H 281.899 0.939544 2.98146 0
M  V30 2931 H 281.119 3.28971 2.1719 0
M  V30 2932 H 282.407 3.97059 3.18154 0
M  V30 2933 H 281.805 1.68946 5.39883 0
M  V30 2934 H 280.362 2.31001 6.09493 0
M  V30 2935 N 283.795 -0.628877 1.44509 0
M  V30 2936 C 284.742 -1.74074 1.51549 0
M  V30 2937 C 285.712 -1.62084 0.363021 0
M  V30 2938 O 286.897 -1.81975 0.573567 0
M  V30 2939 C 284.037 -3.12328 1.46784 0
M  V30 2940 C 283.15 -3.35277 2.72422 0
M  V30 2941 C 282.285 -4.63515 2.59475 0
M  V30 2942 C 281.324 -4.7965 3.80266 0
M  V30 2943 N 280.461 -5.99168 3.65981 0
M  V30 2944 H 285.301 -1.67392 2.46544 0
M  V30 2945 H 282.838 -0.816527 1.22357 0
M  V30 2946 H 284.796 -3.92286 1.42012 0
M  V30 2947 H 283.426 -3.18018 0.553544 0
M  V30 2948 H 282.478 -2.49242 2.87372 0
M  V30 2949 H 283.79 -3.43078 3.62076 0
M  V30 2950 H 282.944 -5.51638 2.52548 0
M  V30 2951 H 281.683 -4.58076 1.67384 0
M  V30 2952 H 280.688 -3.89957 3.87574 0
M  V30 2953 H 281.913 -4.86902 4.73395 0
M  V30 2954 H 279.859 -5.94814 2.76644 0
M  V30 2955 H 279.776 -6.08035 4.49254 0
M  V30 2956 H 281.044 -6.89846 3.6295 0
M  V30 2957 N 285.273 -1.31445 -0.869486 0
M  V30 2958 C 286.203 -1.21727 -1.99261 0
M  V30 2959 C 287.184 -0.104359 -1.6978 0
M  V30 2960 O 288.369 -0.289038 -1.92037 0
M  V30 2961 C 285.499 -0.924317 -3.34774 0
M  V30 2962 C 284.453 -1.99685 -3.78563 0
M  V30 2963 C 283.779 -1.55658 -5.11541 0
M  V30 2964 C 285.079 -3.41003 -3.95619 0
M  V30 2965 H 286.773 -2.1569 -2.07649 0
M  V30 2966 H 284.319 -1.03839 -0.997675 0
M  V30 2967 H 286.272 -0.842934 -4.12883 0
M  V30 2968 H 284.996 0.0509793 -3.2656 0
M  V30 2969 H 283.655 -2.06813 -3.02694 0
M  V30 2970 H 283.303 -0.569132 -4.9977 0
M  V30 2971 H 283.003 -2.27409 -5.41811 0
M  V30 2972 H 284.527 -1.48928 -5.92159 0
M  V30 2973 H 285.941 -3.36547 -4.64122 0
M  V30 2974 H 284.338 -4.10975 -4.37286 0
M  V30 2975 H 285.408 -3.81754 -2.98985 0
M  V30 2976 N 286.751 1.08385 -1.14413 0
M  V30 2977 C 288.167 1.32844 -0.884563 0
M  V30 2978 C 288.367 1.95841 0.474181 0
M  V30 2979 O 287.423 2.21158 1.21842 0
M  V30 2980 C 288.736 2.22978 -2.01745 0
M  V30 2981 C 290.284 2.36458 -2.05077 0
M  V30 2982 C 290.759 3.29934 -3.1766 0
M  V30 2983 N 292.25 3.37511 -3.17239 0
M  V30 2984 C 292.985 4.09871 -4.0099 0
M  V30 2985 N 292.481 4.84936 -4.94781 0
M  V30 2986 N 294.274 4.05704 -3.89051 0
M  V30 2987 H 286.425 0.658756 -2.01926 0
M  V30 2988 H 288.688 0.352821 -0.879899 0
M  V30 2989 H 288.394 1.83934 -2.99769 0
M  V30 2990 H 288.268 3.23441 -1.94077 0
M  V30 2991 H 290.655 2.7476 -1.0766 0
M  V30 2992 H 290.736 1.35736 -2.16816 0
M  V30 2993 H 290.38 2.92352 -4.15322 0
M  V30 2994 H 290.31 4.30584 -3.03158 0
M  V30 2995 H 292.801 2.83996 -2.49308 0
M  V30 2996 H 293.114 5.37612 -5.55151 0
M  V30 2997 H 291.459 4.83988 -4.98779 0
M  V30 2998 H 294.65 3.46167 -3.15097 0
M  V30 2999 H 294.823 4.61834 -4.54547 0
M  V30 3000 N 288.23 0.939286 1.26551 0
M  V30 3001 C 289.476 0.586715 1.94128 0
M  V30 3002 C 289.809 -0.8717 1.73537 0
M  V30 3003 O 289.084 -1.62339 1.07127 0
M  V30 3004 C 289.367 0.927497 3.4795 0
M  V30 3005 C 289.22 2.44052 3.77834 0
M  V30 3006 C 290.539 0.441569 4.37879 0
M  V30 3007 H 287.658 0.21463 0.705055 0
M  V30 3008 H 290.3 1.17316 1.49455 0
M  V30 3009 H 288.45 0.428431 3.8613 0
M  V30 3010 H 290.122 3.01216 3.4938 0
M  V30 3011 H 288.365 2.8848 3.23978 0
M  V30 3012 H 289.036 2.62947 4.85348 0
M  V30 3013 H 291.512 0.869448 4.06915 0
M  V30 3014 H 290.388 0.708856 5.44304 0
M  V30 3015 H 290.649 -0.658467 4.37169 0
M  V30 3016 N 289.708 -1.40897 0.706093 0
M  V30 3017 C 290.655 -2.30751 0.0474474 0
M  V30 3018 C 291.625 -1.47678 -0.76029 0
M  V30 3019 O 292.81 -1.76441 -0.726177 0
M  V30 3020 C 289.95 -3.33815 -0.875309 0
M  V30 3021 C 289.063 -4.31961 -0.0580623 0
M  V30 3022 C 288.198 -5.22093 -0.979425 0
M  V30 3023 C 287.237 -6.11902 -0.155706 0
M  V30 3024 N 286.374 -6.94482 -1.03144 0
M  V30 3025 H 291.214 -2.86513 0.819413 0
M  V30 3026 H 288.751 -1.41102 0.415783 0
M  V30 3027 H 290.709 -3.92129 -1.42446 0
M  V30 3028 H 289.339 -2.79579 -1.61356 0
M  V30 3029 H 288.391 -3.75507 0.608147 0
M  V30 3030 H 289.703 -4.95415 0.580082 0
M  V30 3031 H 288.857 -5.85292 -1.59744 0
M  V30 3032 H 287.596 -4.5889 -1.65141 0
M  V30 3033 H 286.601 -5.47742 0.475309 0
M  V30 3034 H 287.826 -6.77162 0.512635 0
M  V30 3035 H 285.772 -6.33877 -1.68924 0
M  V30 3036 H 285.689 -7.54665 -0.449108 0
M  V30 3037 H 286.957 -7.6214 -1.63593 0
M  V30 3038 N 291.186 -0.45159 -1.50991 0
M  V30 3039 C 292.133 0.352625 -2.2809 0
M  V30 3040 C 293.103 1.0044 -1.32291 0
M  V30 3041 O 294.288 1.02058 -1.6121 0
M  V30 3042 C 291.428 1.43983 -3.13629 0
M  V30 3043 C 290.541 0.804772 -4.24438 0
M  V30 3044 C 289.676 1.86822 -4.97263 0
M  V30 3045 C 288.715 1.21236 -5.99973 0
M  V30 3046 N 287.852 2.2178 -6.66152 0
M  V30 3047 H 292.692 -0.311186 -2.96371 0
M  V30 3048 H 290.229 -0.165308 -1.46168 0
M  V30 3049 H 292.187 2.08161 -3.61559 0
M  V30 3050 H 290.817 2.07307 -2.47434 0
M  V30 3051 H 289.869 0.0509129 -3.80366 0
M  V30 3052 H 291.181 0.286076 -4.97979 0
M  V30 3053 H 290.335 2.58628 -5.48813 0
M  V30 3054 H 289.074 2.42068 -4.23385 0
M  V30 3055 H 288.079 0.479828 -5.47702 0
M  V30 3056 H 289.304 0.667051 -6.75816 0
M  V30 3057 H 287.25 2.76079 -5.95077 0
M  V30 3058 H 287.167 1.74841 -7.35504 0
M  V30 3059 H 288.435 2.93026 -7.22327 0
M  V30 3060 N 292.664 1.56529 -0.183458 0
M  V30 3061 C 293.913 1.96419 0.458511 0
M  V30 3062 C 294.226 1.0727 1.63562 0
M  V30 3063 O 295.432 1.36893 2.34462 0
M  V30 3064 C 293.888 3.49298 0.867122 0
M  V30 3065 C 293.496 4.47092 -0.285057 0
M  V30 3066 C 295.24 3.97983 1.47683 0
M  V30 3067 C 293.147 5.91225 0.143862 0
M  V30 3068 H 292.077 0.733394 0.175071 0
M  V30 3069 H 294.728 1.81448 -0.273624 0
M  V30 3070 H 293.11 3.59731 1.65559 0
M  V30 3071 H 294.284 4.48383 -1.0625 0
M  V30 3072 H 292.599 4.08535 -0.805503 0
M  V30 3073 H 295.196 5.03134 1.80999 0
M  V30 3074 H 295.539 3.41618 2.37914 0
M  V30 3075 H 296.072 3.90617 0.752562 0
M  V30 3076 H 292.811 6.5149 -0.723974 0
M  V30 3077 H 292.331 5.93214 0.886413 0
M  V30 3078 H 294.01 6.44362 0.583628 0
M  V30 3079 N 294.142 -0.090211 1.57342 0
M  V30 3080 C 295.092 -1.11557 1.98844 0
M  V30 3081 C 296.076 -1.35503 0.867624 0
M  V30 3082 O 297.268 -1.36113 1.13148 0
M  V30 3083 C 294.397 -2.43446 2.42051 0
M  V30 3084 C 293.483 -2.22853 3.60828 0
M  V30 3085 N 293.874 -1.72141 4.75606 0
M  V30 3086 C 292.172 -2.53401 3.67021 0
M  V30 3087 C 292.873 -1.65932 5.57531 0
M  V30 3088 N 291.849 -2.11323 5.00843 0
M  V30 3089 H 295.651 -0.716499 2.85032 0
M  V30 3090 H 293.165 -0.297567 1.59651 0
M  V30 3091 H 295.162 -3.17644 2.70014 0
M  V30 3092 H 293.822 -2.84087 1.57241 0
M  V30 3093 H 294.833 -1.41268 4.98261 0
M  V30 3094 H 291.51 -2.97532 2.92884 0
M  V30 3095 H 292.9 -1.27733 6.59647 0
M  V30 3096 N 295.62 -1.53406 -0.361157 0
M  V30 3097 C 296.53 -1.83122 -1.4664 0
M  V30 3098 C 297.546 -0.719943 -1.58407 0
M  V30 3099 O 298.722 -1.01046 -1.74218 0
M  V30 3100 C 295.787 -2.01891 -2.81853 0
M  V30 3101 C 294.848 -3.25784 -2.79577 0
M  V30 3102 C 294.081 -3.43648 -4.0834 0
M  V30 3103 O 294.304 -2.65714 -5.0473 0
M  V30 3104 O 293.238 -4.37018 -4.13883 0
M  V30 3105 H 297.064 -2.7703 -1.24451 0
M  V30 3106 H 294.649 -1.38841 -0.551678 0
M  V30 3107 H 296.531 -2.15782 -3.61962 0
M  V30 3108 H 295.206 -1.11173 -3.0401 0
M  V30 3109 H 294.113 -3.17312 -1.98151 0
M  V30 3110 H 295.446 -4.16439 -2.62373 0
M  V30 3111 N 297.098 0.621204 -1.44841 0
M  V30 3112 C 298.046 1.75385 -1.52784 0
M  V30 3113 C 299.04 1.64639 -0.398779 0
M  V30 3114 O 300.246 1.70598 -0.574137 0
M  V30 3115 H 296.621 0.579193 -0.479625 0
M  V30 3116 H 298.592 1.6581 -2.48092 0
M  V30 3117 C 297.341 3.13742 -1.4987 0
M  V30 3118 H 296.664 3.22663 -2.36069 0
M  V30 3119 H 298.104 3.92861 -1.59487 0
M  V30 3120 C 296.563 3.36175 -0.220973 0
M  V30 3121 O 297.093 3.95469 0.704782 0
M  V30 3122 N 295.299 2.90348 -0.120963 0
M  V30 3123 H 294.846 2.42278 -0.875162 0
M  V30 3124 H 294.804 3.05732 0.733168 0
M  V30 3125 N 298.576 1.31904 0.862503 0
M  V30 3126 C 299.486 1.22161 2.00285 0
M  V30 3127 C 300.502 0.136785 1.73462 0
M  V30 3128 O 301.678 0.355994 1.98229 0
M  V30 3129 C 298.743 0.937093 3.33796 0
M  V30 3130 C 297.804 2.10957 3.73893 0
M  V30 3131 C 297.037 1.83853 5.01033 0
M  V30 3132 O 297.26 0.777274 5.65079 0
M  V30 3133 O 296.194 2.69741 5.38074 0
M  V30 3134 H 300.02 2.18008 2.11439 0
M  V30 3135 H 297.605 1.11716 0.991957 0
M  V30 3136 H 299.487 0.794583 4.13841 0
M  V30 3137 H 298.162 0.00871894 3.23699 0
M  V30 3138 H 297.069 2.30752 2.94456 0
M  V30 3139 H 298.402 3.02046 3.88625 0
M  V30 3140 N 300.054 -1.07777 1.14986 0
M  V30 3141 C 301.001 -2.14867 0.842672 0
M  V30 3142 C 301.971 -1.6486 -0.202552 0
M  V30 3143 O 303.156 -1.90668 -0.0710568 0
M  V30 3144 C 300.296 -3.43486 0.333363 0
M  V30 3145 C 299.409 -4.07306 1.43965 0
M  V30 3146 C 298.544 -5.23744 0.886914 0
M  V30 3147 C 297.583 -5.79517 1.97043 0
M  V30 3148 N 296.72 -6.87291 1.4344 0
M  V30 3149 H 301.56 -2.40485 1.75986 0
M  V30 3150 H 299.097 -1.1801 0.878179 0
M  V30 3151 H 301.055 -4.17195 0.0198163 0
M  V30 3152 H 299.685 -3.18133 -0.546916 0
M  V30 3153 H 298.737 -3.31293 1.86946 0
M  V30 3154 H 300.049 -4.44771 2.25788 0
M  V30 3155 H 299.203 -6.04419 0.525651 0
M  V30 3156 H 297.942 -4.87685 0.0377957 0
M  V30 3157 H 296.947 -4.97491 2.34057 0
M  V30 3158 H 298.172 -6.17632 2.82325 0
M  V30 3159 H 296.118 -6.5318 0.607567 0
M  V30 3160 H 296.035 -7.23617 2.18895 0
M  V30 3161 H 297.303 -7.71682 1.10124 0
M  V30 3162 N 301.532 -0.945985 -1.26051 0
M  V30 3163 C 302.948 -0.649045 -1.45807 0
M  V30 3164 C 303.148 0.796158 -1.85104 0
M  V30 3165 O 302.204 1.57233 -1.97571 0
M  V30 3166 C 303.517 -1.61458 -2.53677 0
M  V30 3167 C 305.065 -1.62481 -2.67524 0
M  V30 3168 C 305.54 -2.57776 -3.7857 0
M  V30 3169 N 307.031 -2.5609 -3.85969 0
M  V30 3170 C 307.766 -3.26508 -4.7136 0
M  V30 3171 N 307.262 -4.0637 -5.61102 0
M  V30 3172 N 309.055 -3.15437 -4.65248 0
M  V30 3173 H 301.206 -1.88005 -0.988328 0
M  V30 3174 H 303.469 -0.808198 -0.4955 0
M  V30 3175 H 303.175 -2.64644 -2.31638 0
M  V30 3176 H 303.049 -1.37036 -3.51427 0
M  V30 3177 H 305.436 -0.600167 -2.88933 0
M  V30 3178 H 305.517 -1.90958 -1.70202 0
M  V30 3179 H 305.161 -3.60361 -3.57913 0
M  V30 3180 H 305.091 -2.26587 -4.75359 0
M  V30 3181 H 307.582 -1.98105 -3.21812 0
M  V30 3182 H 307.895 -4.57042 -6.23164 0
M  V30 3183 H 306.24 -4.10469 -5.60839 0
M  V30 3184 H 309.431 -2.52525 -3.94143 0
M  V30 3185 H 309.604 -3.70584 -5.31575 0
M  V30 3186 N 303.011 1.40521 -0.713556 0
M  V30 3187 C 303.941 2.33381 -0.0743864 0
M  V30 3188 C 304.922 1.52784 0.747735 0
M  V30 3189 O 306.107 1.81258 0.697071 0
M  V30 3190 C 303.237 3.36748 0.849598 0
M  V30 3191 C 302.191 4.27793 0.133247 0
M  V30 3192 C 301.517 5.21679 1.17281 0
M  V30 3193 C 302.817 5.12415 -1.01134 0
M  V30 3194 H 304.511 2.87081 -0.850007 0
M  V30 3195 H 302.057 1.38034 -0.410201 0
M  V30 3196 H 304.01 4.00648 1.30612 0
M  V30 3197 H 302.734 2.81439 1.65709 0
M  V30 3198 H 301.393 3.65342 -0.303426 0
M  V30 3199 H 301.041 4.62677 1.9733 0
M  V30 3200 H 300.741 5.83435 0.698397 0
M  V30 3201 H 302.265 5.88456 1.62947 0
M  V30 3202 H 303.679 5.69781 -0.634274 0
M  V30 3203 H 302.076 5.83203 -1.41399 0
M  V30 3204 H 303.146 4.48514 -1.84292 0
M  V30 3205 N 304.489 0.459591 1.5075 0
M  V30 3206 C 305.399 -0.34613 2.32033 0
M  V30 3207 C 306.415 -1.00686 1.41909 0
M  V30 3208 O 307.591 -0.997361 1.7497 0
M  V30 3209 C 304.656 -1.42029 3.16273 0
M  V30 3210 C 303.717 -0.777362 4.22203 0
M  V30 3211 C 302.95 -1.80034 5.02418 0
M  V30 3212 O 303.173 -3.02544 4.83553 0
M  V30 3213 O 302.107 -1.37853 5.85901 0
M  V30 3214 H 305.933 0.318054 3.0203 0
M  V30 3215 H 303.518 0.221663 1.47746 0
M  V30 3216 H 305.4 -2.04275 3.68578 0
M  V30 3217 H 304.075 -2.06815 2.49016 0
M  V30 3218 H 302.982 -0.116256 3.73919 0
M  V30 3219 H 304.315 -0.172634 4.91897 0
M  V30 3220 N 305.967 -1.56429 0.191757 0
M  V30 3221 C 306.93 -2.17707 -0.716688 0
M  V30 3222 C 307.93 -1.13061 -1.14341 0
M  V30 3223 O 309.12 -1.38464 -1.05704 0
M  V30 3224 C 306.252 -2.77644 -1.97804 0
M  V30 3225 H 307.445 -2.99342 -0.1829 0
M  V30 3226 H 304.998 -1.56193 -0.0578566 0
M  V30 3227 H 305.733 -1.99799 -2.55443 0
M  V30 3228 H 305.518 -3.54246 -1.68083 0
M  V30 3229 H 307.008 -3.24708 -2.62592 0
M  V30 3230 N 307.445 0.0818655 -1.57387 0
M  V30 3231 C 308.693 0.781368 -1.86384 0
M  V30 3232 C 309.014 1.78618 -0.782342 0
M  V30 3233 O 308.284 1.94976 0.190061 0
M  V30 3234 H 306.864 0.291562 -0.687751 0
M  V30 3235 H 309.526 0.060348 -1.94807 0
M  V30 3236 H 308.622 1.3038 -2.83562 0
M  V30 3237 N 308.923 1.53595 0.353017 0
M  V30 3238 C 310.2 1.61002 1.11075 0
M  V30 3239 C 310.58 0.425356 2.0677 0
M  V30 3240 O 309.928 -0.583267 2.2093 0
M  V30 3241 C 310.138 2.96631 1.83877 0
M  V30 3242 C 311.486 3.51653 2.37961 0
M  V30 3243 O 312.51 2.98743 1.93987 0
M  V30 3244 O 311.369 4.44177 3.18386 0
M  V30 3245 H 308.463 0.650825 0.510251 0
M  V30 3246 H 311.009 1.6594 0.35527 0
M  V30 3247 H 309.781 3.74293 1.14108 0
M  V30 3248 H 309.404 2.95242 2.66304 0
M  V30 3249 N 310.401 -0.613514 1.45168 0
M  V30 3250 C 311.351 -1.71871 1.49815 0
M  V30 3251 C 312.335 -1.56774 0.362021 0
M  V30 3252 O 313.527 -1.66212 0.608493 0
M  V30 3253 C 310.656 -3.1061 1.46207 0
M  V30 3254 C 309.742 -3.31114 2.64999 0
M  V30 3255 N 310.133 -3.21904 3.90143 0
M  V30 3256 C 308.431 -3.61966 2.6057 0
M  V30 3257 C 309.132 -3.43577 4.69393 0
M  V30 3258 N 308.108 -3.67287 4.00751 0
M  V30 3259 H 311.91 -1.63235 2.444 0
M  V30 3260 H 309.424 -0.816577 1.40377 0
M  V30 3261 H 311.421 -3.8989 1.4762 0
M  V30 3262 H 310.081 -3.20399 0.52673 0
M  V30 3263 H 311.092 -3.00436 4.21852 0
M  V30 3264 H 307.769 -3.78629 1.75916 0
M  V30 3265 H 309.159 -3.41901 5.78406 0
M  V30 3266 N 311.879 -1.3236 -0.855495 0
M  V30 3267 C 313.29 -1.2056 -1.42556 0
M  V30 3268 C 313.641 0.182209 -1.95352 0
M  V30 3269 O 312.766 1.08088 -1.87472 0
M  V30 3270 C 313.361 -2.1826 -2.59129 0
M  V30 3271 C 311.92 -2.10351 -3.12137 0
M  V30 3272 C 311.067 -2.06674 -1.84882 0
M  V30 3273 H 314.018 -1.442 -0.662727 0
M  V30 3274 H 314.039 -1.78064 -3.36264 0
M  V30 3275 H 313.551 -3.19257 -2.20673 0
M  V30 3276 H 311.652 -1.12599 -3.55179 0
M  V30 3277 H 311.765 -3.00135 -3.73438 0
M  V30 3278 H 310.129 -1.51901 -2.04446 0
M  V30 3279 H 310.912 -3.09451 -1.48643 0
M  V30 3280 N 313.357 1.07166 -1.15556 0
M  V30 3281 C 314.603 1.80065 -0.932984 0
M  V30 3282 C 314.936 1.86586 0.53845 0
M  V30 3283 O 314.211 1.35098 1.39924 0
M  V30 3284 C 314.494 3.25022 -1.55025 0
M  V30 3285 C 314.347 3.26634 -3.09242 0
M  V30 3286 C 315.666 4.22341 -1.2376 0
M  V30 3287 H 312.785 0.653697 -0.340366 0
M  V30 3288 H 315.427 1.25389 -1.4275 0
M  V30 3289 H 313.577 3.71712 -1.12972 0
M  V30 3290 H 315.249 2.88173 -3.60214 0
M  V30 3291 H 313.492 2.65539 -3.43033 0
M  V30 3292 H 314.163 4.28854 -3.47546 0
M  V30 3293 H 316.639 3.8405 -1.60139 0
M  V30 3294 H 315.515 5.22053 -1.69564 0
M  V30 3295 H 315.776 4.41828 -0.154938 0
M  V30 3296 N 314.835 0.952656 1.25548 0
M  V30 3297 C 315.745 0.47782 2.29682 0
M  V30 3298 C 316.761 -0.453859 1.67977 0
M  V30 3299 O 317.937 -0.330587 1.98668 0
M  V30 3300 C 315.002 -0.238655 3.45878 0
M  V30 3301 C 314.063 0.730994 4.23031 0
M  V30 3302 C 313.296 0.0486165 5.33678 0
M  V30 3303 O 313.519 -1.16612 5.58353 0
M  V30 3304 O 312.453 0.733152 5.97418 0
M  V30 3305 H 316.279 1.34312 2.72386 0
M  V30 3306 H 313.864 0.719026 1.30959 0
M  V30 3307 H 315.746 -0.641774 4.16484 0
M  V30 3308 H 314.421 -1.07916 3.05181 0
M  V30 3309 H 313.328 1.18428 3.5486 0
M  V30 3310 H 314.661 1.53946 4.67506 0
M  V30 3311 N 316.313 -1.40141 0.720998 0
M  V30 3312 C 317.243 -2.33339 0.0867621 0
M  V30 3313 C 318.224 -1.53178 -0.739622 0
M  V30 3314 O 319.409 -1.81625 -0.687449 0
M  V30 3315 C 316.539 -3.37194 -0.831728 0
M  V30 3316 C 315.493 -4.27857 -0.110558 0
M  V30 3317 C 314.819 -5.22294 -1.14513 0
M  V30 3318 C 316.119 -5.11872 1.0385 0
M  V30 3319 H 317.813 -2.86626 0.865219 0
M  V30 3320 H 315.359 -1.37814 0.417516 0
M  V30 3321 H 317.312 -4.01335 -1.28485 0
M  V30 3322 H 316.036 -2.82314 -1.64214 0
M  V30 3323 H 314.695 -3.65176 0.322797 0
M  V30 3324 H 314.343 -4.63717 -1.94874 0
M  V30 3325 H 314.043 -5.83797 -0.667446 0
M  V30 3326 H 315.567 -5.89312 -1.59824 0
M  V30 3327 H 316.981 -5.69436 0.664482 0
M  V30 3328 H 315.378 -5.82445 1.4449 0
M  V30 3329 H 316.448 -4.4753 1.86668 0
M  V30 3330 N 317.792 -0.46758 -1.50504 0
M  V30 3331 C 318.722 0.318381 -2.31319 0
M  V30 3332 C 319.703 0.993564 -1.38066 0
M  V30 3333 O 320.888 0.991411 -1.66987 0
M  V30 3334 C 318.018 1.40275 -3.17711 0
M  V30 3335 C 316.972 0.849373 -4.19487 0
M  V30 3336 C 316.298 2.03177 -4.94594 0
M  V30 3337 C 317.598 -0.136942 -5.2212 0
M  V30 3338 H 319.292 -0.356106 -2.97275 0
M  V30 3339 H 316.838 -0.172703 -1.42961 0
M  V30 3340 H 318.791 1.96004 -3.73042 0
M  V30 3341 H 317.515 2.10596 -2.49634 0
M  V30 3342 H 316.174 0.314076 -3.65252 0
M  V30 3343 H 315.822 2.72187 -4.22993 0
M  V30 3344 H 315.522 1.66774 -5.63436 0
M  V30 3345 H 317.046 2.59403 -5.52759 0
M  V30 3346 H 318.46 0.331056 -5.72343 0
M  V30 3347 H 316.857 -0.41507 -5.98663 0
M  V30 3348 H 317.927 -1.06398 -4.73083 0
M  V30 3349 N 319.27 1.56325 -0.20005 0
M  V30 3350 C 320.233 2.18084 0.705132 0
M  V30 3351 C 321.233 1.13666 1.1374 0
M  V30 3352 O 322.423 1.39023 1.04968 0
M  V30 3353 C 319.555 2.78689 1.96329 0
M  V30 3354 H 320.748 2.99435 0.167023 0
M  V30 3355 H 318.301 1.56221 0.0495725 0
M  V30 3356 H 319.036 2.0115 2.5438 0
M  V30 3357 H 318.821 3.55133 1.66202 0
M  V30 3358 H 320.311 3.26096 2.60866 0
M  V30 3359 N 320.748 -0.0735177 1.57428 0
M  V30 3360 C 322.164 -0.428264 1.53747 0
M  V30 3361 C 322.364 -1.79272 0.91998 0
M  V30 3362 O 321.42 -2.47051 0.521745 0
M  V30 3363 C 322.733 -0.370914 2.98404 0
M  V30 3364 C 324.281 -0.451224 3.0973 0
M  V30 3365 C 324.756 -0.4238 4.56035 0
M  V30 3366 N 326.247 -0.483925 4.60665 0
M  V30 3367 C 326.982 -0.484891 5.71346 0
M  V30 3368 N 326.478 -0.440775 6.91396 0
M  V30 3369 N 328.271 -0.531319 5.59583 0
M  V30 3370 H 320.422 0.819949 1.95935 0
M  V30 3371 H 322.685 0.307493 0.896745 0
M  V30 3372 H 322.391 0.564956 3.47133 0
M  V30 3373 H 322.265 -1.18176 3.5821 0
M  V30 3374 H 324.652 -1.37752 2.60976 0
M  V30 3375 H 324.733 0.388167 2.52838 0
M  V30 3376 H 324.377 0.498638 5.05446 0
M  V30 3377 H 324.307 -1.2807 5.10789 0
M  V30 3378 H 326.798 -0.522338 3.74273 0
M  V30 3379 H 327.111 -0.44539 7.71515 0
M  V30 3380 H 325.456 -0.40749 6.93804 0
M  V30 3381 H 328.647 -0.563464 4.64696 0
M  V30 3382 H 328.82 -0.528603 6.4584 0
M  V30 3383 N 322.226 -1.5378 -0.344866 0
M  V30 3384 C 323.503 -1.61589 -1.10219 0
M  V30 3385 C 323.883 -0.436316 -2.06542 0
M  V30 3386 O 323.231 0.571543 -2.21237 0
M  V30 3387 C 323.441 -2.97602 -1.82301 0
M  V30 3388 C 324.789 -3.5291 -2.36093 0
M  V30 3389 O 325.813 -2.99768 -1.924 0
M  V30 3390 O 324.672 -4.45859 -3.16026 0
M  V30 3391 H 321.766 -0.653522 -0.506792 0
M  V30 3392 H 324.312 -1.66126 -0.346465 0
M  V30 3393 H 323.084 -3.74893 -1.12121 0
M  V30 3394 H 322.707 -2.9665 -2.64735 0
M  V30 3395 N 323.704 0.605807 -1.45491 0
M  V30 3396 C 324.951 1.36476 -1.49601 0
M  V30 3397 C 325.279 1.94007 -0.138452 0
M  V30 3398 O 324.534 1.75638 0.863114 0
M  V30 3399 C 324.833 2.53012 -2.52428 0
M  V30 3400 C 324.499 2.13617 -3.97087 0
M  V30 3401 C 323.161 2.02587 -4.36477 0
M  V30 3402 C 325.513 1.82899 -4.88055 0
M  V30 3403 C 322.841 1.59064 -5.64726 0
M  V30 3404 C 325.193 1.40861 -6.16718 0
M  V30 3405 C 323.857 1.28391 -6.55036 0
M  V30 3406 H 323.127 0.499402 -0.547429 0
M  V30 3407 H 325.774 0.684546 -1.78847 0
M  V30 3408 H 324.079 3.26379 -2.16758 0
M  V30 3409 H 325.776 3.1124 -2.52845 0
M  V30 3410 H 322.366 2.23129 -3.65939 0
M  V30 3411 H 326.55 1.90317 -4.58359 0
M  V30 3412 H 321.806 1.48034 -5.93208 0
M  V30 3413 H 325.98 1.16138 -6.86648 0
M  V30 3414 H 323.607 0.944403 -7.54311 0
M  V30 3415 N 325.182 1.32811 0.848464 0
M  V30 3416 C 326.092 1.24278 1.98978 0
M  V30 3417 C 327.108 0.155176 1.73307 0
M  V30 3418 O 328.284 0.376999 1.9784 0
M  V30 3419 C 325.349 0.972444 3.32783 0
M  V30 3420 C 324.41 2.14911 3.71634 0
M  V30 3421 C 323.643 1.89157 4.99054 0
M  V30 3422 O 323.866 0.837165 5.64223 0
M  V30 3423 O 322.8 2.75433 5.35183 0
M  V30 3424 H 326.626 2.20238 2.09115 0
M  V30 3425 H 324.211 1.12762 0.980052 0
M  V30 3426 H 326.093 0.838432 4.12975 0
M  V30 3427 H 324.768 0.043051 3.23671 0
M  V30 3428 H 323.675 2.33862 2.91992 0
M  V30 3429 H 325.008 3.06151 3.85399 0
M  V30 3430 N 326.66 -1.06551 1.16123 0
M  V30 3431 C 327.607 -2.13961 0.865414 0
M  V30 3432 C 328.577 -1.65066 -0.185055 0
M  V30 3433 O 329.762 -1.90732 -0.05083 0
M  V30 3434 C 326.902 -3.43113 0.369776 0
M  V30 3435 C 326.015 -4.05756 1.48276 0
M  V30 3436 C 325.15 -5.22773 0.942414 0
M  V30 3437 C 324.189 -5.77395 2.03179 0
M  V30 3438 N 323.326 -6.85731 1.50721 0
M  V30 3439 H 328.166 -2.38605 1.78527 0
M  V30 3440 H 325.703 -1.17072 0.890646 0
M  V30 3441 H 327.661 -4.17151 0.0640643 0
M  V30 3442 H 326.291 -3.18695 -0.513143 0
M  V30 3443 H 325.343 -3.29292 1.9045 0
M  V30 3444 H 326.655 -4.42351 2.30493 0
M  V30 3445 H 325.809 -6.03827 0.589729 0
M  V30 3446 H 324.548 -4.87618 0.0895191 0
M  V30 3447 H 323.553 -4.94981 2.3932 0
M  V30 3448 H 324.778 -6.14603 2.8886 0
M  V30 3449 H 322.724 -6.52499 0.676811 0
M  V30 3450 H 322.641 -7.21254 2.26557 0
M  V30 3451 H 323.909 -7.7047 1.18303 0
M  V30 3452 N 328.138 -0.959301 -1.25041 0
M  V30 3453 C 329.086 -0.474437 -2.2771 0
M  V30 3454 C 330.08 0.457697 -1.631 0
M  V30 3455 O 331.286 0.333912 -1.76876 0
M  V30 3456 H 327.661 -0.134936 -0.739795 0
M  V30 3457 H 329.632 -1.35251 -2.65988 0
M  V30 3458 C 328.381 0.227884 -3.46952 0
M  V30 3459 H 327.704 -0.480248 -3.96905 0
M  V30 3460 H 329.144 0.531091 -4.20661 0
M  V30 3461 C 327.603 1.452 -3.04004 0
M  V30 3462 O 328.133 2.54949 -3.10426 0
M  V30 3463 N 326.339 1.31502 -2.59144 0
M  V30 3464 H 325.886 0.422065 -2.54119 0
M  V30 3465 H 325.844 2.13521 -2.30773 0
M  V30 3466 N 329.616 1.39756 -0.72842 0
M  V30 3467 C 330.846 2.04651 -0.283117 0
M  V30 3468 C 331.254 1.5502 1.08469 0
M  V30 3469 O 330.597 0.707343 1.69536 0
M  V30 3470 C 330.659 3.58947 -0.199309 0
M  V30 3471 C 330.323 4.31525 -1.5045 0
M  V30 3472 C 331.32 4.5861 -2.44894 0
M  V30 3473 C 329.005 4.70195 -1.76698 0
M  V30 3474 C 330.999 5.23366 -3.63822 0
M  V30 3475 C 328.686 5.3468 -2.95906 0
M  V30 3476 C 329.684 5.61198 -3.89289 0
M  V30 3477 O 329.372 6.24347 -5.06404 0
M  V30 3478 H 329.104 0.664777 -0.122666 0
M  V30 3479 H 331.658 1.79913 -0.990987 0
M  V30 3480 H 329.888 3.82556 0.56461 0
M  V30 3481 H 331.577 4.0534 0.213125 0
M  V30 3482 H 332.343 4.29187 -2.25883 0
M  V30 3483 H 328.222 4.48916 -1.04859 0
M  V30 3484 H 331.766 5.4398 -4.36728 0
M  V30 3485 H 327.663 5.63524 -3.14819 0
M  V30 3486 H 328.431 6.42842 -5.06652 0
M  V30 3487 N 331.094 0.475555 1.50254 0
M  V30 3488 C 332.042 -0.330276 2.30243 0
M  V30 3489 C 333.036 -0.986306 1.37726 0
M  V30 3490 O 334.242 -0.9169 1.54897 0
M  V30 3491 H 330.617 -0.125353 0.741479 0
M  V30 3492 H 332.588 0.364702 2.96163 0
M  V30 3493 C 331.337 -1.39704 3.18399 0
M  V30 3494 H 330.66 -0.901621 3.89501 0
M  V30 3495 H 332.1 -1.93336 3.77355 0
M  V30 3496 C 330.559 -2.4014 2.36293 0
M  V30 3497 O 331.089 -3.45504 2.04914 0
M  V30 3498 N 329.295 -2.1197 1.98789 0
M  V30 3499 H 328.842 -1.2631 2.24507 0
M  V30 3500 H 328.8 -2.79403 1.44157 0
M  V30 3501 N 332.573 -1.56217 0.208337 0
M  V30 3502 C 333.506 -2.15633 -0.746842 0
M  V30 3503 C 334.484 -1.09685 -1.20034 0
M  V30 3504 O 335.668 -1.3787 -1.28547 0
M  V30 3505 C 332.795 -2.72594 -2.01023 0
M  V30 3506 C 331.841 -3.91251 -1.69779 0
M  V30 3507 S 332.674 -5.28962 -0.834209 0
M  V30 3508 C 333.83 -5.89353 -2.10745 0
M  V30 3509 H 334.063 -2.96315 -0.241789 0
M  V30 3510 H 331.596 -1.54398 -0.00682183 0
M  V30 3511 H 333.554 -3.06053 -2.73572 0
M  V30 3512 H 332.215 -1.91929 -2.48641 0
M  V30 3513 H 331.408 -4.29562 -2.63614 0
M  V30 3514 H 331.01 -3.58869 -1.05303 0
M  V30 3515 H 333.302 -6.04522 -3.05875 0
M  V30 3516 H 334.245 -6.85661 -1.76845 0
M  V30 3517 H 334.653 -5.1807 -2.24196 0
M  V30 3518 N 334.051 0.0651679 -1.57465 0
M  V30 3519 C 335.281 0.774683 -1.91526 0
M  V30 3520 C 335.689 1.71305 -0.803196 0
M  V30 3521 O 335.032 1.82231 0.231881 0
M  V30 3522 C 335.094 1.61645 -3.21109 0
M  V30 3523 C 334.758 0.846753 -4.49087 0
M  V30 3524 C 335.755 0.163024 -5.19644 0
M  V30 3525 C 333.44 0.811966 -4.95694 0
M  V30 3526 C 335.434 -0.54519 -6.35064 0
M  V30 3527 C 333.121 0.0999836 -6.11018 0
M  V30 3528 C 334.119 -0.577388 -6.80555 0
M  V30 3529 O 333.807 -1.27789 -7.93678 0
M  V30 3530 H 333.539 0.225031 -0.637446 0
M  V30 3531 H 336.093 0.0377134 -2.05365 0
M  V30 3532 H 334.323 2.39638 -3.03497 0
M  V30 3533 H 336.012 2.20525 -3.40769 0
M  V30 3534 H 336.778 0.181163 -4.84662 0
M  V30 3535 H 332.657 1.32867 -4.41438 0
M  V30 3536 H 336.201 -1.07446 -6.89276 0
M  V30 3537 H 332.098 0.0797945 -6.45451 0
M  V30 3538 H 332.866 -1.18784 -8.09835 0
M  V30 3539 N 335.529 1.53961 0.336706 0
M  V30 3540 C 336.778 1.70751 1.07363 0
M  V30 3541 C 337.091 0.481061 1.89592 0
M  V30 3542 O 338.297 0.530046 2.66276 0
M  V30 3543 C 336.753 3.01965 1.95818 0
M  V30 3544 C 336.361 4.31971 1.18764 0
M  V30 3545 C 338.105 3.28121 2.69327 0
M  V30 3546 C 336.012 5.54255 2.06289 0
M  V30 3547 H 334.942 0.636292 0.404535 0
M  V30 3548 H 337.593 1.80459 0.332681 0
M  V30 3549 H 335.975 2.86132 2.7376 0
M  V30 3550 H 337.149 4.5853 0.456849 0
M  V30 3551 H 335.464 4.12481 0.569946 0
M  V30 3552 H 338.061 4.16673 3.35094 0
M  V30 3553 H 338.404 2.45426 3.36261 0
M  V30 3554 H 338.937 3.44762 1.98454 0
M  V30 3555 H 335.676 6.39513 1.43885 0
M  V30 3556 H 335.196 5.31935 2.77138 0
M  V30 3557 H 336.875 5.90159 2.65182 0
M  V30 3558 N 337.007 -0.598083 1.45811 0
M  V30 3559 C 338.254 -1.35681 1.50323 0
M  V30 3560 C 338.582 -1.9393 0.148739 0
M  V30 3561 O 337.837 -1.76094 -0.853787 0
M  V30 3562 C 338.136 -2.51669 2.53766 0
M  V30 3563 C 337.802 -2.11508 3.98215 0
M  V30 3564 C 336.464 -2.0027 4.37545 0
M  V30 3565 C 338.816 -1.80308 4.89018 0
M  V30 3566 C 336.144 -1.56067 5.65562 0
M  V30 3567 C 338.496 -1.37589 6.17456 0
M  V30 3568 C 337.16 -1.24916 6.55708 0
M  V30 3569 H 336.43 -0.496492 0.550069 0
M  V30 3570 H 339.077 -0.675052 1.79207 0
M  V30 3571 H 337.382 -3.25225 2.18486 0
M  V30 3572 H 339.079 -3.09895 2.54492 0
M  V30 3573 H 335.669 -2.21185 3.67117 0
M  V30 3574 H 339.853 -1.87884 4.59362 0
M  V30 3575 H 335.109 -1.44886 5.93985 0
M  V30 3576 H 339.283 -1.12495 6.87254 0
M  V30 3577 H 336.91 -0.904386 7.54801 0
M  V30 3578 N 338.485 -1.33259 -0.841409 0
M  V30 3579 C 339.896 -1.22066 -1.41269 0
M  V30 3580 C 340.247 0.161479 -1.95534 0
M  V30 3581 O 339.372 1.06094 -1.88608 0
M  V30 3582 C 339.967 -2.20996 -2.568 0
M  V30 3583 C 338.526 -2.13649 -3.09888 0
M  V30 3584 C 337.673 -2.08623 -1.82679 0
M  V30 3585 H 340.624 -1.44895 -0.647395 0
M  V30 3586 H 340.645 -1.81621 -3.34356 0
M  V30 3587 H 340.157 -3.2158 -2.17274 0
M  V30 3588 H 338.258 -1.16359 -3.53965 0
M  V30 3589 H 338.371 -3.04079 -3.70234 0
M  V30 3590 H 336.735 -1.54061 -2.02824 0
M  V30 3591 H 337.518 -3.1101 -1.45353 0
M  V30 3592 N 339.963 1.05934 -1.16686 0
M  V30 3593 C 341.209 1.79065 -0.95203 0
M  V30 3594 C 341.542 1.87147 0.518629 0
M  V30 3595 O 340.817 1.36574 1.38484 0
M  V30 3596 C 341.1 3.23359 -1.58464 0
M  V30 3597 C 340.953 3.23336 -3.12689 0
M  V30 3598 C 342.272 4.21004 -1.28232 0
M  V30 3599 H 339.391 0.65005 -0.34728 0
M  V30 3600 H 342.033 1.23868 -1.44072 0
M  V30 3601 H 340.183 3.70493 -1.16908 0
M  V30 3602 H 341.855 2.84336 -3.6325 0
M  V30 3603 H 340.098 2.61886 -3.4583 0
M  V30 3604 H 340.769 4.25144 -3.52075 0
M  V30 3605 H 343.245 3.8233 -1.64203 0
M  V30 3606 H 342.121 5.20225 -1.75092 0
M  V30 3607 H 342.382 4.41639 -0.201791 0
M  V30 3608 N 341.441 0.965919 1.2453 0
M  V30 3609 C 342.391 0.465731 2.23193 0
M  V30 3610 C 343.375 -0.451277 1.54442 0
M  V30 3611 O 344.567 -0.282489 1.74731 0
M  V30 3612 C 341.696 -0.244511 3.42428 0
M  V30 3613 C 340.782 0.691222 4.18429 0
M  V30 3614 N 341.173 1.82771 4.71623 0
M  V30 3615 C 339.471 0.501649 4.4317 0
M  V30 3616 C 340.172 2.41285 5.29298 0
M  V30 3617 N 339.148 1.69819 5.16394 0
M  V30 3618 H 342.95 1.33291 2.61937 0
M  V30 3619 H 340.464 0.824789 1.39896 0
M  V30 3620 H 342.461 -0.620056 4.12263 0
M  V30 3621 H 341.121 -1.10815 3.05205 0
M  V30 3622 H 342.132 2.20929 4.68413 0
M  V30 3623 H 338.809 -0.318177 4.16286 0
M  V30 3624 H 340.199 3.37181 5.8117 0
M  V30 3625 N 342.919 -1.39368 0.735821 0
M  V30 3626 C 344.165 -2.01272 0.293439 0
M  V30 3627 C 344.52 -1.57344 -1.10728 0
M  V30 3628 O 343.813 -0.792744 -1.74431 0
M  V30 3629 C 344.007 -3.5583 0.334651 0
M  V30 3630 C 343.836 -4.14764 1.73784 0
M  V30 3631 C 342.606 -4.47315 2.35026 0
M  V30 3632 C 344.804 -4.38246 2.69157 0
M  V30 3633 N 342.786 -4.91756 3.6749 0
M  V30 3634 C 344.157 -4.849 3.86357 0
M  V30 3635 C 346.212 -4.20315 2.66908 0
M  V30 3636 C 344.915 -5.15505 5.01645 0
M  V30 3637 C 346.941 -4.52033 3.8134 0
M  V30 3638 C 346.303 -4.98895 4.97276 0
M  V30 3639 H 342.402 -0.766756 0.153652 0
M  V30 3640 H 344.986 -1.69276 0.961967 0
M  V30 3641 H 343.157 -3.87212 -0.303527 0
M  V30 3642 H 344.889 -4.04503 -0.126358 0
M  V30 3643 H 341.644 -4.35143 1.86943 0
M  V30 3644 H 342.068 -5.18333 4.35499 0
M  V30 3645 H 346.71 -3.83287 1.78468 0
M  V30 3646 H 344.428 -5.51437 5.90713 0
M  V30 3647 H 348.014 -4.39781 3.80899 0
M  V30 3648 H 346.894 -5.22973 5.84353 0
M  V30 3649 N 344.397 -0.483516 -1.5 0
M  V30 3650 C 345.329 0.340634 -2.26655 0
M  V30 3651 C 346.342 0.946152 -1.32483 0
M  V30 3652 O 347.531 0.832453 -1.579 0
M  V30 3653 C 344.631 1.4929 -3.04246 0
M  V30 3654 C 343.804 0.997903 -4.25865 0
M  V30 3655 C 342.863 2.02569 -4.85646 0
M  V30 3656 O 341.889 1.60128 -5.46212 0
M  V30 3657 N 343.091 3.3548 -4.73744 0
M  V30 3658 H 345.856 -0.316577 -2.98023 0
M  V30 3659 H 343.417 -0.315024 -1.58806 0
M  V30 3660 H 345.409 2.17766 -3.41116 0
M  V30 3661 H 343.979 2.05458 -2.35597 0
M  V30 3662 H 343.199 0.138617 -3.93956 0
M  V30 3663 H 344.487 0.645305 -5.04691 0
M  V30 3664 H 343.885 3.72661 -4.25605 0
M  V30 3665 H 342.442 3.99718 -5.14848 0
M  V30 3666 N 345.875 1.56104 -0.216619 0
M  V30 3667 C 347.122 1.98172 0.416416 0
M  V30 3668 C 347.45 1.10413 1.60122 0
M  V30 3669 O 346.705 0.147967 1.9514 0
M  V30 3670 C 347.004 3.45923 0.898464 0
M  V30 3671 C 346.67 4.50559 -0.175288 0
M  V30 3672 C 345.332 4.78897 -0.470271 0
M  V30 3673 C 347.684 5.1334 -0.901728 0
M  V30 3674 C 345.012 5.67299 -1.4963 0
M  V30 3675 C 347.364 6.02853 -1.91705 0
M  V30 3676 C 346.028 6.29537 -2.21901 0
M  V30 3677 H 345.298 0.725164 0.152377 0
M  V30 3678 H 347.945 1.88839 -0.318103 0
M  V30 3679 H 346.25 3.52434 1.71165 0
M  V30 3680 H 347.947 3.75841 1.39803 0
M  V30 3681 H 344.537 4.28551 0.0647806 0
M  V30 3682 H 348.721 4.91521 -0.687072 0
M  V30 3683 H 343.977 5.86239 -1.73592 0
M  V30 3684 H 348.151 6.50552 -2.48505 0
M  V30 3685 H 345.778 6.97835 -3.01548 0
M  V30 3686 N 347.353 -0.0568162 1.57498 0
M  V30 3687 C 348.601 -0.751617 1.87604 0
M  V30 3688 C 348.922 -1.77351 0.81066 0
M  V30 3689 O 348.192 -1.95254 -0.159018 0
M  V30 3690 H 346.772 -0.280583 0.692302 0
M  V30 3691 H 349.434 -0.0293483 1.94878 0
M  V30 3692 H 348.53 -1.25852 2.856 0
M  V30 3693 N 348.832 -1.54138 -0.328536 0
M  V30 3694 C 349.764 -1.79509 -1.4251 0
M  V30 3695 C 350.777 -0.67688 -1.48061 0
M  V30 3696 O 351.966 -0.953898 -1.50874 0
M  V30 3697 C 349.066 -1.89337 -2.81078 0
M  V30 3698 C 348.239 -3.19443 -2.98789 0
M  V30 3699 C 347.298 -3.20036 -4.17688 0
M  V30 3700 O 346.324 -3.93697 -4.11086 0
M  V30 3701 N 347.526 -2.43467 -5.26976 0
M  V30 3702 H 350.291 -2.74139 -1.21111 0
M  V30 3703 H 347.852 -1.53373 -0.518499 0
M  V30 3704 H 349.844 -1.87167 -3.58818 0
M  V30 3705 H 348.414 -1.01826 -2.95551 0
M  V30 3706 H 347.634 -3.34614 -2.08391 0
M  V30 3707 H 348.922 -4.05354 -3.07515 0
M  V30 3708 H 348.32 -1.83201 -5.35214 0
M  V30 3709 H 346.877 -2.4708 -6.03154 0
M  V30 3710 N 350.31 0.590341 -1.46126 0
M  V30 3711 C 351.24 1.71032 -1.58966 0
M  V30 3712 C 352.221 1.64302 -0.440335 0
M  V30 3713 O 353.406 1.82436 -0.665634 0
M  V30 3714 C 350.536 3.09665 -1.57241 0
M  V30 3715 C 349.49 3.31221 -2.71066 0
M  V30 3716 C 348.816 4.70303 -2.54399 0
M  V30 3717 C 350.116 3.19796 -4.1295 0
M  V30 3718 H 351.81 1.60543 -2.52718 0
M  V30 3719 H 349.356 0.770933 -1.21625 0
M  V30 3720 H 351.309 3.87831 -1.64819 0
M  V30 3721 H 350.033 3.21036 -0.600289 0
M  V30 3722 H 348.692 2.55452 -2.62944 0
M  V30 3723 H 348.34 4.78429 -1.55288 0
M  V30 3724 H 348.04 4.85679 -3.30741 0
M  V30 3725 H 349.564 5.50647 -2.63857 0
M  V30 3726 H 350.978 3.87815 -4.22223 0
M  V30 3727 H 349.375 3.46696 -4.89818 0
M  V30 3728 H 350.445 2.16983 -4.33643 0
M  V30 3729 N 351.788 1.33704 0.83433 0
M  V30 3730 C 353.065 1.16011 1.57483 0
M  V30 3731 C 353.445 -0.27176 2.09343 0
M  V30 3732 O 352.793 -1.27146 1.89858 0
M  V30 3733 C 353.003 2.20507 2.70514 0
M  V30 3734 C 354.351 2.54898 3.39577 0
M  V30 3735 O 355.375 2.19209 2.80759 0
M  V30 3736 O 354.234 3.16158 4.45765 0
M  V30 3737 H 351.328 0.448992 0.694503 0
M  V30 3738 H 353.874 1.453 0.876691 0
M  V30 3739 H 352.646 3.16667 2.29865 0
M  V30 3740 H 352.269 1.92329 3.47987 0
M  V30 3741 N 353.266 -1.05314 1.17247 0
M  V30 3742 C 354.198 -2.13023 0.845812 0
M  V30 3743 C 355.211 -1.62096 -0.151246 0
M  V30 3744 O 356.4 -1.78343 0.0748818 0
M  V30 3745 C 353.5 -3.38047 0.240292 0
M  V30 3746 C 352.673 -4.18255 1.27991 0
M  V30 3747 C 351.732 -5.21625 0.692375 0
M  V30 3748 O 350.758 -5.52619 1.36385 0
M  V30 3749 N 351.96 -5.78201 -0.516178 0
M  V30 3750 H 354.725 -2.41642 1.77283 0
M  V30 3751 H 352.286 -1.21401 1.07115 0
M  V30 3752 H 354.278 -4.04359 -0.16603 0
M  V30 3753 H 352.848 -3.06972 -0.590487 0
M  V30 3754 H 352.068 -3.47451 1.86203 0
M  V30 3755 H 353.356 -4.68643 1.98119 0
M  V30 3756 H 352.754 -5.55301 -1.07969 0
M  V30 3757 H 351.311 -6.4604 -0.86458 0
M  V30 3758 N 354.744 -0.972509 -1.24016 0
M  V30 3759 C 355.694 -0.477561 -2.22942 0
M  V30 3760 C 356.678 0.44308 -1.54679 0
M  V30 3761 O 357.87 0.273219 -1.74879 0
M  V30 3762 C 354.999 0.226348 -3.42553 0
M  V30 3763 C 354.085 -0.713403 -4.18057 0
M  V30 3764 N 354.476 -1.8527 -4.70647 0
M  V30 3765 C 352.774 -0.525145 -4.42898 0
M  V30 3766 C 353.475 -2.44089 -5.28011 0
M  V30 3767 N 352.451 -1.72556 -5.15486 0
M  V30 3768 H 356.253 -1.34678 -2.61226 0
M  V30 3769 H 353.767 -0.832196 -1.39457 0
M  V30 3770 H 355.764 0.598184 -4.12586 0
M  V30 3771 H 354.424 1.09195 -3.05788 0
M  V30 3772 H 355.435 -2.2341 -4.67235 0
M  V30 3773 H 352.112 0.296096 -4.16449 0
M  V30 3774 H 353.502 -3.40259 -5.79374 0
M  V30 3775 N 356.222 1.38976 -0.743202 0
M  V30 3776 C 357.633 1.83123 -0.363732 0
M  V30 3777 C 357.984 1.6205 1.10609 0
M  V30 3778 O 357.109 1.11606 1.854 0
M  V30 3779 C 357.704 3.32439 -0.653408 0
M  V30 3780 C 356.263 3.74974 -0.327338 0
M  V30 3781 C 355.41 2.61878 -0.911875 0
M  V30 3782 H 358.361 1.27852 -0.940191 0
M  V30 3783 H 358.382 3.80432 0.0720031 0
M  V30 3784 H 357.894 3.47745 -1.72323 0
M  V30 3785 H 355.995 3.65252 0.736314 0
M  V30 3786 H 356.108 4.72106 -0.815631 0
M  V30 3787 H 354.472 2.52448 -0.337944 0
M  V30 3788 H 355.255 2.79987 -1.98651 0
M  V30 3789 N 357.7 0.491464 1.49741 0
M  V30 3790 C 358.949 -0.0582189 2.01616 0
M  V30 3791 C 359.262 -1.38927 1.3769 0
M  V30 3792 O 360.468 -2.02509 1.80838 0
M  V30 3793 C 358.924 -0.154235 3.59569 0
M  V30 3794 C 358.532 1.1696 4.32463 0
M  V30 3795 C 360.276 -0.65479 4.1942 0
M  V30 3796 C 358.183 1.03627 5.8225 0
M  V30 3797 H 357.113 -0.0255317 0.753568 0
M  V30 3798 H 359.764 0.629445 1.72367 0
M  V30 3799 H 358.146 -0.906138 3.85493 0
M  V30 3800 H 359.32 1.93405 4.18248 0
M  V30 3801 H 357.635 1.60285 3.84315 0
M  V30 3802 H 360.232 -0.771903 5.29099 0
M  V30 3803 H 360.575 -1.65127 3.8215 0
M  V30 3804 H 361.108 0.040304 3.9778 0
M  V30 3805 H 357.847 2.00672 6.24028 0
M  V30 3806 H 357.367 0.312546 5.98985 0
M  V30 3807 H 359.046 0.711114 6.4308 0
M  V30 3808 N 359.178 -1.55987 0.224894 0
M  V30 3809 C 360.455 -1.90232 -0.455083 0
M  V30 3810 C 360.835 -1.14269 -1.77499 0
M  V30 3811 O 360.183 -0.253079 -2.27094 0
M  V30 3812 C 360.393 -3.42993 -0.644758 0
M  V30 3813 C 361.741 -4.13821 -0.950669 0
M  V30 3814 O 362.765 -3.4861 -0.731423 0
M  V30 3815 O 361.624 -5.29128 -1.36695 0
M  V30 3816 H 358.718 -0.79108 -0.241084 0
M  V30 3817 H 361.264 -1.67581 0.267327 0
M  V30 3818 H 360.036 -3.90252 0.28613 0
M  V30 3819 H 359.659 -3.71434 -1.41853 0
M  V30 3820 N 360.656 0.0484629 -1.57525 0
M  V30 3821 C 361.904 0.741657 -1.88 0
M  V30 3822 C 362.225 1.76918 -0.820054 0
M  V30 3823 O 361.495 1.95335 0.148661 0
M  V30 3824 H 360.075 0.276908 -0.69378 0
M  V30 3825 H 362.737 0.019013 -1.94891 0
M  V30 3826 H 361.833 1.24336 -2.86264 0
M  V30 3827 N 362.134 1.5431 0.320358 0
M  V30 3828 C 363.364 1.7638 1.07582 0
M  V30 3829 C 363.772 0.513944 1.82086 0
M  V30 3830 O 363.115 -0.525123 1.76035 0
M  V30 3831 C 363.177 2.9055 2.1171 0
M  V30 3832 C 362.841 4.2934 1.56575 0
M  V30 3833 C 363.838 5.10077 1.00586 0
M  V30 3834 C 361.523 4.75893 1.60722 0
M  V30 3835 C 363.517 6.35477 0.494756 0
M  V30 3836 C 361.204 6.0126 1.09224 0
M  V30 3837 C 362.202 6.80886 0.53696 0
M  V30 3838 O 361.89 8.03894 0.0297371 0
M  V30 3839 H 361.622 0.592369 0.325692 0
M  V30 3840 H 364.176 2.02019 0.37116 0
M  V30 3841 H 362.406 2.60489 2.85801 0
M  V30 3842 H 364.095 3.00373 2.73003 0
M  V30 3843 H 364.861 4.75265 0.966869 0
M  V30 3844 H 360.74 4.13957 2.02882 0
M  V30 3845 H 364.284 6.97574 0.0606842 0
M  V30 3846 H 360.181 6.35562 1.12831 0
M  V30 3847 H 360.949 8.18372 0.14486 0
M  V30 3848 N 363.613 -0.582584 1.46437 0
M  V30 3849 C 364.543 -1.70187 1.59871 0
M  V30 3850 C 365.524 -1.64066 0.449042 0
M  V30 3851 O 366.709 -1.82081 0.6753 0
M  V30 3852 C 363.839 -3.08827 1.58881 0
M  V30 3853 C 362.793 -3.29779 2.72819 0
M  V30 3854 C 362.119 -4.68947 2.5689 0
M  V30 3855 C 363.419 -3.17601 4.1464 0
M  V30 3856 H 365.113 -1.592 2.53566 0
M  V30 3857 H 362.659 -0.764472 1.22032 0
M  V30 3858 H 364.612 -3.86951 1.66873 0
M  V30 3859 H 363.336 -3.20713 0.617306 0
M  V30 3860 H 361.995 -2.54054 2.64296 0
M  V30 3861 H 361.643 -4.77599 1.57823 0
M  V30 3862 H 361.343 -4.83919 3.33312 0
M  V30 3863 H 362.867 -5.4924 2.66773 0
M  V30 3864 H 364.281 -3.8557 4.24274 0
M  V30 3865 H 362.678 -3.44094 4.9165 0
M  V30 3866 H 363.748 -2.14681 4.34788 0
M  V30 3867 N 365.091 -1.34144 -0.827227 0
M  V30 3868 C 366.316 -1.29476 -1.62021 0
M  V30 3869 C 366.741 0.129292 -1.87655 0
M  V30 3870 O 366.099 1.08967 -1.449 0
M  V30 3871 C 366.147 -2.08702 -2.94068 0
M  V30 3872 O 365.251 -1.45359 -3.85933 0
M  V30 3873 H 364.592 -0.444881 -0.492927 0
M  V30 3874 H 367.122 -1.76882 -1.02829 0
M  V30 3875 H 367.132 -2.19898 -3.43669 0
M  V30 3876 H 365.807 -3.12241 -2.74734 0
M  V30 3877 H 364.384 -1.42879 -3.44442 0
M  V30 3878 N 366.569 1.04691 -1.17803 0
M  V30 3879 C 367.519 2.10856 -0.867391 0
M  V30 3880 C 368.503 1.601 0.160206 0
M  V30 3881 O 369.695 1.76948 -0.042947 0
M  V30 3882 C 366.824 3.411 -0.388012 0
M  V30 3883 C 365.91 3.9864 -1.44732 0
M  V30 3884 N 366.301 4.30075 -2.66212 0
M  V30 3885 C 364.599 4.26439 -1.30637 0
M  V30 3886 C 365.3 4.76033 -3.34317 0
M  V30 3887 N 364.276 4.76462 -2.61696 0
M  V30 3888 H 368.078 2.33029 -1.79094 0
M  V30 3889 H 365.592 1.22386 -1.0675 0
M  V30 3890 H 367.589 4.16641 -0.146994 0
M  V30 3891 H 366.249 3.20357 0.529271 0
M  V30 3892 H 367.26 4.19917 -3.03134 0
M  V30 3893 H 363.937 4.15056 -0.451129 0
M  V30 3894 H 365.327 5.09427 -4.38103 0
M  V30 3895 N 368.047 0.979072 1.23499 0
M  V30 3896 C 369.275 0.665202 1.95915 0
M  V30 3897 C 369.69 -0.767571 1.72493 0
M  V30 3898 O 369.047 -1.51635 1.01554 0
M  V30 3899 C 369.098 0.944438 3.48945 0
M  V30 3900 O 368.819 2.3209 3.71572 0
M  V30 3901 C 370.32 0.646336 4.38563 0
M  V30 3902 H 367.54 0.247218 0.623798 0
M  V30 3903 H 370.084 1.31009 1.57025 0
M  V30 3904 H 368.239 0.345575 3.85856 0
M  V30 3905 H 368.653 2.40957 4.65876 0
M  V30 3906 H 370.127 0.892091 5.44744 0
M  V30 3907 H 370.604 -0.419575 4.37191 0
M  V30 3908 H 371.21 1.22562 4.07258 0
M  V30 3909 N 369.525 -1.3858 0.750561 0
M  V30 3910 C 370.435 -2.34278 0.122825 0
M  V30 3911 C 371.451 -1.59116 -0.704131 0
M  V30 3912 O 372.627 -1.91326 -0.628987 0
M  V30 3913 C 369.692 -3.38221 -0.762086 0
M  V30 3914 C 368.753 -4.29227 0.078896 0
M  V30 3915 C 367.986 -5.28205 -0.763874 0
M  V30 3916 O 368.209 -5.34112 -2.00201 0
M  V30 3917 O 367.143 -6.01618 -0.18428 0
M  V30 3918 H 370.969 -2.89649 0.913088 0
M  V30 3919 H 368.554 -1.40374 0.511417 0
M  V30 3920 H 370.436 -4.01872 -1.26793 0
M  V30 3921 H 369.111 -2.85211 -1.5309 0
M  V30 3922 H 368.018 -3.68747 0.630621 0
M  V30 3923 H 369.351 -4.85484 0.810289 0
M  V30 3924 N 371.003 -0.499398 -1.49478 0
M  V30 3925 C 371.933 0.269244 -2.31943 0
M  V30 3926 C 372.914 0.964054 -1.40143 0
M  V30 3927 O 374.099 0.955767 -1.69052 0
M  V30 3928 C 371.229 1.33504 -3.20615 0
M  V30 3929 C 370.183 0.760202 -4.21195 0
M  V30 3930 C 369.509 1.9264 -4.98792 0
M  V30 3931 C 370.809 -0.247661 -5.21712 0
M  V30 3932 H 372.503 -0.419082 -2.96452 0
M  V30 3933 H 370.049 -0.202988 -1.42562 0
M  V30 3934 H 372.002 1.88048 -3.77115 0
M  V30 3935 H 370.726 2.05253 -2.54045 0
M  V30 3936 H 369.385 0.23653 -3.65836 0
M  V30 3937 H 369.033 2.63154 -4.28671 0
M  V30 3938 H 368.733 1.54785 -5.66847 0
M  V30 3939 H 370.257 2.4762 -5.58137 0
M  V30 3940 H 371.671 0.209579 -5.72917 0
M  V30 3941 H 370.068 -0.541962 -5.97648 0
M  V30 3942 H 371.138 -1.16409 -4.7072 0
M  V30 3943 N 372.481 1.55866 -0.233164 0
M  V30 3944 C 373.444 2.1953 0.658715 0
M  V30 3945 C 374.444 1.16053 1.11303 0
M  V30 3946 O 375.634 1.41218 1.01996 0
M  V30 3947 C 372.766 2.82791 1.90373 0
M  V30 3948 H 373.959 2.99721 0.10347 0
M  V30 3949 H 371.512 1.56291 0.0164245 0
M  V30 3950 H 372.247 2.06501 2.50056 0
M  V30 3951 H 372.032 3.58578 1.58632 0
M  V30 3952 H 373.522 3.31556 2.53891 0
M  V30 3953 N 373.959 -0.0401083 1.57549 0
M  V30 3954 C 375.37 -0.588097 1.77196 0
M  V30 3955 C 375.721 -1.76209 0.862832 0
M  V30 3956 O 374.846 -2.16331 0.0548389 0
M  V30 3957 C 375.441 -1.07363 3.21339 0
M  V30 3958 C 374 -1.56723 3.42221 0
M  V30 3959 C 373.147 -0.50041 2.72747 0
M  V30 3960 H 376.098 0.186119 1.57605 0
M  V30 3961 H 376.119 -1.94143 3.27244 0
M  V30 3962 H 375.631 -0.218975 3.87482 0
M  V30 3963 H 373.732 -2.4441 2.81237 0
M  V30 3964 H 373.845 -1.62234 4.50796 0
M  V30 3965 H 372.209 -0.952894 2.36203 0
M  V30 3966 H 372.992 0.344599 3.41566 0
M  V30 3967 N 375.437 -1.54477 -0.31217 0
M  V30 3968 C 376.367 -1.87652 -1.38957 0
M  V30 3969 C 377.348 -0.734358 -1.53431 0
M  V30 3970 O 378.533 -0.98911 -1.67123 0
M  V30 3971 C 375.663 -2.11396 -2.75552 0
M  V30 3972 C 374.617 -3.27243 -2.75855 0
M  V30 3973 C 373.943 -3.36382 -4.15633 0
M  V30 3974 C 375.243 -4.64622 -2.38587 0
M  V30 3975 H 376.937 -2.77887 -1.11442 0
M  V30 3976 H 374.483 -1.33707 -0.534655 0
M  V30 3977 H 376.436 -2.33189 -3.51 0
M  V30 3978 H 375.16 -1.17921 -3.04569 0
M  V30 3979 H 373.819 -3.05356 -2.02863 0
M  V30 3980 H 373.467 -2.40445 -4.41809 0
M  V30 3981 H 373.167 -4.14249 -4.1674 0
M  V30 3982 H 374.691 -3.60422 -4.92877 0
M  V30 3983 H 376.105 -4.86219 -3.03749 0
M  V30 3984 H 374.502 -5.45121 -2.50925 0
M  V30 3985 H 375.572 -4.66097 -1.33723 0
M  V30 3986 N 376.915 0.57481 -1.46744 0
M  V30 3987 C 378.331 0.898981 -1.31873 0
M  V30 3988 C 378.531 1.99313 -0.29605 0
M  V30 3989 O 377.587 2.50728 0.298621 0
M  V30 3990 C 378.9 1.30886 -2.7072 0
M  V30 3991 C 380.448 1.42127 -2.78871 0
M  V30 3992 C 380.923 1.86478 -4.18318 0
M  V30 3993 N 382.414 1.93658 -4.20774 0
M  V30 3994 C 383.149 2.29267 -5.2557 0
M  V30 3995 N 382.645 2.63612 -6.40688 0
M  V30 3996 N 384.438 2.29889 -5.1294 0
M  V30 3997 H 376.589 -0.147839 -2.11885 0
M  V30 3998 H 378.852 -0.00347013 -0.947994 0
M  V30 3999 H 378.558 0.578853 -3.46904 0
M  V30 4000 H 378.432 2.26874 -3.01343 0
M  V30 4001 H 380.819 2.14213 -2.0297 0
M  V30 4002 H 380.9 0.443705 -2.51922 0
M  V30 4003 H 380.544 1.14968 -4.94717 0
M  V30 4004 H 380.474 2.85207 -4.42679 0
M  V30 4005 H 382.965 1.69574 -3.37718 0
M  V30 4006 H 383.278 2.89759 -7.16421 0
M  V30 4007 H 381.623 2.61232 -6.44036 0
M  V30 4008 H 384.814 2.02485 -4.22039 0
M  V30 4009 H 384.987 2.57312 -5.94722 0
M  V30 4010 N 378.394 1.34581 0.820102 0
M  V30 4011 C 379.357 1.2628 1.91275 0
M  V30 4012 C 380.357 0.177344 1.59819 0
M  V30 4013 O 381.547 0.430156 1.68806 0
M  V30 4014 C 378.679 0.950327 3.27386 0
M  V30 4015 H 379.872 2.23421 2.00057 0
M  V30 4016 H 377.425 1.1891 1.0144 0
M  V30 4017 H 378.16 -0.0177938 3.24295 0
M  V30 4018 H 377.945 1.73549 3.51601 0
M  V30 4019 H 379.435 0.917492 4.07396 0
M  V30 4020 N 379.872 -1.04064 1.18357 0
M  V30 4021 C 381.283 -1.58719 0.98312 0
M  V30 4022 C 381.634 -1.90556 -0.467193 0
M  V30 4023 O 380.759 -1.69561 -1.34454 0
M  V30 4024 C 381.354 -2.88379 1.77828 0
M  V30 4025 C 379.913 -3.3965 1.62218 0
M  V30 4026 C 379.06 -2.13235 1.77274 0
M  V30 4027 H 382.011 -0.867359 1.32901 0
M  V30 4028 H 382.032 -3.58773 1.26737 0
M  V30 4029 H 381.544 -2.65176 2.83379 0
M  V30 4030 H 379.645 -3.67866 0.592036 0
M  V30 4031 H 379.758 -4.13475 2.42023 0
M  V30 4032 H 378.122 -2.24542 1.20221 0
M  V30 4033 H 378.905 -1.92487 2.8426 0
M  V30 4034 N 381.35 -0.985608 -1.22978 0
M  V30 4035 C 382.28 -0.549649 -2.26939 0
M  V30 4036 C 383.261 0.419803 -1.64838 0
M  V30 4037 O 384.446 0.31203 -1.91677 0
M  V30 4038 C 381.576 0.143652 -3.47003 0
M  V30 4039 C 380.53 -0.743606 -4.21491 0
M  V30 4040 C 379.856 0.0822027 -5.34637 0
M  V30 4041 C 381.156 -2.03694 -4.80943 0
M  V30 4042 H 382.85 -1.41862 -2.63658 0
M  V30 4043 H 380.396 -0.683571 -1.26741 0
M  V30 4044 H 382.349 0.459985 -4.18882 0
M  V30 4045 H 381.073 1.04711 -3.09359 0
M  V30 4046 H 379.732 -1.04347 -3.51436 0
M  V30 4047 H 379.38 0.986359 -4.93234 0
M  V30 4048 H 379.08 -0.508377 -5.85397 0
M  V30 4049 H 380.604 0.392797 -6.09335 0
M  V30 4050 H 382.018 -1.78504 -5.44802 0
M  V30 4051 H 380.415 -2.57573 -5.42011 0
M  V30 4052 H 381.485 -2.72042 -4.01399 0
M  V30 4053 N 382.828 1.3818 -0.7579 0
M  V30 4054 C 384.077 1.99261 -0.312744 0
M  V30 4055 C 384.39 1.60846 1.11301 0
M  V30 4056 O 385.596 2.14929 1.65885 0
M  V30 4057 C 384.052 3.56294 -0.50821 0
M  V30 4058 C 383.66 4.03657 -1.94333 0
M  V30 4059 C 385.404 4.24313 -0.125982 0
M  V30 4060 C 383.311 5.53347 -2.08712 0
M  V30 4061 H 382.241 0.745456 -0.113185 0
M  V30 4062 H 384.892 1.57889 -0.935056 0
M  V30 4063 H 383.274 3.95575 0.183353 0
M  V30 4064 H 384.448 3.75655 -2.66871 0
M  V30 4065 H 382.763 3.48376 -2.28086 0
M  V30 4066 H 385.36 5.34279 -0.212125 0
M  V30 4067 H 385.703 4.05962 0.921964 0
M  V30 4068 H 386.236 3.90285 -0.769563 0
M  V30 4069 H 382.975 5.76607 -3.11777 0
M  V30 4070 H 382.495 5.83078 -1.4064 0
M  V30 4071 H 384.174 6.19111 -1.87912 0
M  V30 4072 N 384.306 0.507319 1.49211 0
M  V30 4073 C 385.717 0.0611118 1.866 0
M  V30 4074 C 386.068 -1.35488 1.41907 0
M  V30 4075 O 385.193 -2.0108 0.799726 0
M  V30 4076 C 385.788 0.104125 3.3864 0
M  V30 4077 C 384.347 -0.28677 3.75306 0
M  V30 4078 C 383.494 0.473893 2.73221 0
M  V30 4079 H 386.445 0.719775 1.41439 0
M  V30 4080 H 386.466 -0.689672 3.74198 0
M  V30 4081 H 385.978 1.13482 3.71138 0
M  V30 4082 H 384.079 -1.32046 3.48417 0
M  V30 4083 H 384.192 0.0370745 4.79086 0
M  V30 4084 H 382.556 -0.0770644 2.54583 0
M  V30 4085 H 383.339 1.50478 3.08563 0
M  V30 4086 N 385.784 -1.5574 0.241426 0
M  V30 4087 C 386.717 -2.17168 -0.700935 0
M  V30 4088 C 387.695 -1.12206 -1.1768 0
M  V30 4089 O 388.879 -1.40565 -1.25593 0
M  V30 4090 C 386.006 -2.76796 -1.95196 0
M  V30 4091 C 385.052 -3.94764 -1.61442 0
M  V30 4092 S 385.885 -5.30613 -0.72182 0
M  V30 4093 C 387.041 -5.93691 -1.98197 0
M  V30 4094 H 387.274 -2.96761 -0.178882 0
M  V30 4095 H 384.807 -1.54378 0.0259299 0
M  V30 4096 H 386.765 -3.11787 -2.67019 0
M  V30 4097 H 385.426 -1.9716 -2.44514 0
M  V30 4098 H 384.619 -4.35057 -2.54443 0
M  V30 4099 H 384.221 -3.61022 -0.976672 0
M  V30 4100 H 386.513 -6.10874 -2.92983 0
M  V30 4101 H 387.456 -6.89258 -1.62262 0
M  V30 4102 H 387.864 -5.22709 -2.13156 0
M  V30 4103 N 387.262 0.0317525 -1.57568 0
M  V30 4104 C 388.172 1.05021 -2.0978 0
M  V30 4105 C 389.188 1.39809 -1.03583 0
M  V30 4106 O 390.364 1.49182 -1.35302 0
M  V30 4107 C 387.429 2.33301 -2.56459 0
M  V30 4108 C 386.49 2.0512 -3.77127 0
M  V30 4109 C 385.723 3.27283 -4.2157 0
M  V30 4110 O 385.946 4.37861 -3.65559 0
M  V30 4111 O 384.88 3.13141 -5.14029 0
M  V30 4112 H 388.706 0.636505 -2.96955 0
M  V30 4113 H 386.291 0.248559 -1.47318 0
M  V30 4114 H 388.173 3.08722 -2.86825 0
M  V30 4115 H 386.848 2.73973 -1.72397 0
M  V30 4116 H 385.755 1.27276 -3.51784 0
M  V30 4117 H 387.088 1.69305 -4.62165 0
M  V30 4118 N 388.74 1.54641 0.303973 0
M  V30 4119 C 389.69 1.8177 1.37636 0
M  V30 4120 C 390.674 0.674697 1.46071 0
M  V30 4121 O 391.866 0.935251 1.50273 0
M  V30 4122 C 388.995 2.06584 2.74186 0
M  V30 4123 C 388.081 3.2706 2.69986 0
M  V30 4124 N 388.472 4.47682 2.35402 0
M  V30 4125 C 386.77 3.29028 3.01092 0
M  V30 4126 C 387.471 5.29689 2.40426 0
M  V30 4127 N 386.447 4.67339 2.7766 0
M  V30 4128 H 390.249 2.72596 1.09857 0
M  V30 4129 H 387.763 1.541 0.51254 0
M  V30 4130 H 389.76 2.24166 3.51504 0
M  V30 4131 H 388.42 1.17024 3.02879 0
M  V30 4132 H 389.431 4.74336 2.07908 0
M  V30 4133 H 386.108 2.49565 3.34699 0
M  V30 4134 H 387.498 6.3606 2.16512 0
M  V30 4135 N 390.218 -0.567019 1.47046 0
M  V30 4136 C 391.458 -1.3355 1.54738 0
M  V30 4137 C 391.822 -1.90947 0.200772 0
M  V30 4138 O 393.023 -2.68367 0.152489 0
M  V30 4139 C 391.294 -2.42317 2.62712 0
M  V30 4140 S 392.853 -3.29383 2.89918 0
M  V30 4141 H 389.671 -0.454788 0.546525 0
M  V30 4142 H 392.273 -0.650191 1.84371 0
M  V30 4143 H 390.977 -1.98568 3.59164 0
M  V30 4144 H 390.508 -3.15601 2.34861 0
M  V30 4145 H 392.523 -4.41548 2.26384 0
M  V30 4146 N 391.696 -1.35014 -0.812953 0
M  V30 4147 C 392.924 -1.31031 -1.6012 0
M  V30 4148 C 393.339 0.113558 -1.88458 0
M  V30 4149 O 392.696 1.06363 -1.48301 0
M  V30 4150 C 392.747 -2.10872 -2.93624 0
M  V30 4151 O 392.468 -3.47706 -2.66518 0
M  V30 4152 C 393.969 -2.14401 -3.88004 0
M  V30 4153 H 391.189 -0.45037 -0.497401 0
M  V30 4154 H 393.733 -1.77775 -1.01076 0
M  V30 4155 H 391.888 -1.67744 -3.492 0
M  V30 4156 H 392.302 -3.89097 -3.51715 0
M  V30 4157 H 393.776 -2.74669 -4.78812 0
M  V30 4158 H 394.253 -1.14105 -4.24119 0
M  V30 4159 H 394.859 -2.57662 -3.38364 0
M  V30 4160 N 393.175 1.03435 -1.18907 0
M  V30 4161 C 394.403 1.80381 -1.01342 0
M  V30 4162 C 394.818 1.83649 0.438005 0
M  V30 4163 O 394.175 1.27655 1.30424 0
M  V30 4164 C 394.226 3.25689 -1.56873 0
M  V30 4165 O 393.947 3.22673 -2.96334 0
M  V30 4166 C 395.448 4.19255 -1.44014 0
M  V30 4167 H 392.668 0.56784 -0.35749 0
M  V30 4168 H 395.212 1.30317 -1.576 0
M  V30 4169 H 393.367 3.72962 -1.04777 0
M  V30 4170 H 393.781 4.13748 -3.22355 0
M  V30 4171 H 395.255 5.19123 -1.87657 0
M  V30 4172 H 395.732 4.37467 -0.389815 0
M  V30 4173 H 396.338 3.77851 -1.95214 0
M  V30 4174 N 394.653 0.992116 1.22453 0
M  V30 4175 C 396.069 0.702713 1.43297 0
M  V30 4176 C 396.269 -0.726909 1.87932 0
M  V30 4177 O 395.325 -1.49792 2.0327 0
M  V30 4178 C 396.638 1.70762 2.47509 0
M  V30 4179 C 398.186 1.72298 2.61309 0
M  V30 4180 C 398.661 2.71649 3.68742 0
M  V30 4181 N 400.152 2.70239 3.76199 0
M  V30 4182 C 400.887 3.43778 4.58917 0
M  V30 4183 N 400.383 4.26914 5.45633 0
M  V30 4184 N 402.176 3.32487 4.5322 0
M  V30 4185 H 394.327 1.91543 0.917871 0
M  V30 4186 H 396.59 0.826031 0.465162 0
M  V30 4187 H 396.296 2.73059 2.21657 0
M  V30 4188 H 396.17 1.49985 3.46099 0
M  V30 4189 H 398.557 0.706989 2.86506 0
M  V30 4190 H 398.638 1.97143 1.62997 0
M  V30 4191 H 398.282 3.73397 3.44292 0
M  V30 4192 H 398.212 2.44074 4.66622 0
M  V30 4193 H 400.703 2.09912 3.14237 0
M  V30 4194 H 401.016 4.79855 6.05771 0
M  V30 4195 H 399.361 4.31002 5.45218 0
M  V30 4196 H 402.552 2.6698 3.84499 0
M  V30 4197 H 402.725 3.90058 5.17454 0
M  V30 4198 N 396.131 -1.37776 0.765217 0
M  V30 4199 C 397.378 -1.99849 0.326588 0
M  V30 4200 C 397.706 -1.60746 -1.09504 0
M  V30 4201 O 396.961 -0.84202 -1.76659 0
M  V30 4202 C 397.26 -3.5504 0.410053 0
M  V30 4203 C 396.926 -4.13891 1.78899 0
M  V30 4204 C 395.588 -4.29678 2.16635 0
M  V30 4205 C 397.94 -4.46236 2.69301 0
M  V30 4206 C 395.268 -4.7511 3.44221 0
M  V30 4207 C 397.62 -4.93089 3.9629 0
M  V30 4208 C 396.284 -5.07082 4.34078 0
M  V30 4209 H 395.554 -0.7313 0.119507 0
M  V30 4210 H 398.201 -1.64645 0.977968 0
M  V30 4211 H 396.506 -3.90451 -0.324878 0
M  V30 4212 H 398.203 -4.00966 0.0520699 0
M  V30 4213 H 394.793 -4.02026 1.48569 0
M  V30 4214 H 398.977 -4.3363 2.41409 0
M  V30 4215 H 394.233 -4.84129 3.73402 0
M  V30 4216 H 398.407 -5.17084 4.66472 0
M  V30 4217 H 396.034 -5.42046 5.33001 0
M  V30 4218 N 397.609 -0.515225 -1.4894 0
M  V30 4219 C 398.856 0.024215 -2.02486 0
M  V30 4220 C 399.184 1.35671 -1.39368 0
M  V30 4221 O 398.439 1.88566 -0.523574 0
M  V30 4222 C 398.738 0.210595 -3.56779 0
M  V30 4223 C 398.404 -1.04569 -4.38607 0
M  V30 4224 C 397.066 -1.39002 -4.60686 0
M  V30 4225 C 399.418 -1.88008 -4.86109 0
M  V30 4226 C 396.746 -2.568 -5.27514 0
M  V30 4227 C 399.098 -3.04972 -5.54234 0
M  V30 4228 C 397.762 -3.39768 -5.74555 0
M  V30 4229 H 397.032 0.00886088 -0.740947 0
M  V30 4230 H 399.679 -0.678263 -1.79086 0
M  V30 4231 H 397.984 0.99572 -3.78936 0
M  V30 4232 H 399.681 0.642659 -3.95817 0
M  V30 4233 H 396.271 -0.767497 -4.21672 0
M  V30 4234 H 400.455 -1.62719 -4.68867 0
M  V30 4235 H 395.711 -2.8398 -5.41447 0
M  V30 4236 H 399.885 -3.69943 -5.90013 0
M  V30 4237 H 397.512 -4.31148 -6.26112 0
M  V30 4238 N 399.087 1.5561 -0.249682 0
M  V30 4239 C 399.997 2.25143 0.659375 0
M  V30 4240 C 401.013 1.2685 1.19101 0
M  V30 4241 O 402.189 1.59732 1.22669 0
M  V30 4242 C 399.254 2.93945 1.8384 0
M  V30 4243 C 398.315 4.07655 1.34596 0
M  V30 4244 C 397.548 4.73167 2.46878 0
M  V30 4245 O 397.771 4.37768 3.65671 0
M  V30 4246 O 396.705 5.61623 2.16478 0
M  V30 4247 H 400.531 3.03545 0.0968698 0
M  V30 4248 H 398.116 1.49389 -0.018074 0
M  V30 4249 H 399.998 3.37271 2.52638 0
M  V30 4250 H 398.673 2.18481 2.38847 0
M  V30 4251 H 397.58 3.68839 0.625174 0
M  V30 4252 H 398.913 4.84946 0.841941 0
M  V30 4253 N 400.565 -0.0233959 1.57583 0
M  V30 4254 C 401.793 -0.724682 1.93794 0
M  V30 4255 C 402.208 -1.68588 0.849912 0
M  V30 4256 O 401.565 -1.81676 -0.173204 0
M  V30 4257 C 401.616 -1.47684 3.29957 0
M  V30 4258 O 401.337 -0.554222 4.3458 0
M  V30 4259 C 402.838 -2.27477 3.80485 0
M  V30 4260 H 400.058 -0.203317 0.639455 0
M  V30 4261 H 402.602 0.0207653 2.04489 0
M  V30 4262 H 400.757 -2.17412 3.20641 0
M  V30 4263 H 401.171 -1.08232 5.13212 0
M  V30 4264 H 402.645 -2.7564 4.78254 0
M  V30 4265 H 403.122 -3.09144 3.11972 0
M  V30 4266 H 403.728 -1.62813 3.92902 0
M  V30 4267 N 402.043 -1.548 -0.295768 0
M  V30 4268 C 403.283 -1.76069 -1.03823 0
M  V30 4269 C 403.647 -0.537992 -1.84309 0
M  V30 4270 O 404.848 -0.628514 -2.61349 0
M  V30 4271 C 403.119 -3.01705 -1.91596 0
M  V30 4272 S 404.678 -3.43998 -2.72416 0
M  V30 4273 H 401.496 -0.618852 -0.350062 0
M  V30 4274 H 404.098 -1.93009 -0.31106 0
M  V30 4275 H 402.802 -3.88812 -1.31351 0
M  V30 4276 H 402.333 -2.87366 -2.68671 0
M  V30 4277 H 404.348 -3.0148 -3.94112 0
M  V30 4278 N 403.521 0.559213 -1.47345 0
M  V30 4279 C 404.798 1.31997 -1.44348 0
M  V30 4280 C 405.178 2.1064 -0.139358 0
M  V30 4281 O 404.526 2.1091 0.879153 0
M  V30 4282 C 404.736 2.22618 -2.68779 0
M  V30 4283 C 406.084 2.83701 -3.1591 0
M  V30 4284 O 407.108 2.32921 -2.69493 0
M  V30 4285 O 405.967 3.75993 -3.966 0
M  V30 4286 H 403.061 0.594251 -0.575147 0
M  V30 4287 H 405.607 0.578282 -1.59543 0
M  V30 4288 H 404.379 1.64093 -3.55231 0
M  V30 4289 H 404.002 3.04085 -2.5616 0
M  V30 4290 N 404.999 1.35443 0.805782 0
M  V30 4291 C 405.929 1.31095 1.93226 0
M  V30 4292 C 406.91 0.185244 1.69088 0
M  V30 4293 O 408.095 0.380332 1.90439 0
M  V30 4294 C 405.225 1.08299 3.29983 0
M  V30 4295 C 404.179 2.17519 3.68605 0
M  V30 4296 C 403.505 1.79887 5.03532 0
M  V30 4297 C 404.805 3.5949 3.78898 0
M  V30 4298 H 406.499 2.25352 1.97122 0
M  V30 4299 H 404.045 1.0848 0.946996 0
M  V30 4300 H 405.998 1.03897 4.08391 0
M  V30 4301 H 404.722 0.104885 3.26432 0
M  V30 4302 H 403.381 2.2102 2.92482 0
M  V30 4303 H 403.029 0.80693 4.96485 0
M  V30 4304 H 402.729 2.53001 5.30344 0
M  V30 4305 H 404.253 1.77011 5.84379 0
M  V30 4306 H 405.667 3.58307 4.47536 0
M  V30 4307 H 404.064 4.31371 4.1718 0
M  V30 4308 H 405.134 3.95584 2.80431 0
M  V30 4309 N 406.477 -1.02803 1.19454 0
M  V30 4310 C 407.754 -1.73299 0.907013 0
M  V30 4311 C 408.134 -2.02772 -0.587086 0
M  V30 4312 O 407.482 -1.68304 -1.54551 0
M  V30 4313 C 407.692 -3.00912 1.76785 0
M  V30 4314 C 409.04 -3.74403 2.00268 0
M  V30 4315 O 410.064 -3.10841 1.73943 0
M  V30 4316 O 408.923 -4.88675 2.4466 0
M  V30 4317 H 406.017 -0.754727 0.338106 0
M  V30 4318 H 408.563 -1.08754 1.30271 0
M  V30 4319 H 407.335 -2.75366 2.7801 0
M  V30 4320 H 406.958 -3.73197 1.37149 0
M  V30 4321 N 407.956 -0.998596 -1.21925 0
M  V30 4322 C 408.904 -0.546641 -2.26085 0
M  V30 4323 C 409.898 0.405576 -1.64473 0
M  V30 4324 O 411.104 0.277471 -1.77849 0
M  V30 4325 H 407.479 -0.158403 -0.735127 0
M  V30 4326 H 409.45 -1.43645 -2.61551 0
M  V30 4327 C 408.199 0.117388 -3.47502 0
M  V30 4328 H 407.522 -0.606277 -3.95176 0
M  V30 4329 H 408.962 0.396993 -4.22137 0
M  V30 4330 C 407.421 1.35455 -3.0847 0
M  V30 4331 O 407.951 2.44944 -3.18379 0
M  V30 4332 N 406.157 1.23191 -2.63196 0
M  V30 4333 H 405.704 0.341006 -2.55333 0
M  V30 4334 H 405.662 2.06071 -2.37449 0
M  V30 4335 N 409.434 1.37368 -0.772513 0
M  V30 4336 C 410.711 1.93839 -0.26188 0
M  V30 4337 C 411.091 1.7061 1.24319 0
M  V30 4338 O 410.439 1.05534 2.02669 0
M  V30 4339 C 410.649 3.43154 -0.636102 0
M  V30 4340 C 411.997 4.20249 -0.606324 0
M  V30 4341 O 413.021 3.5152 -0.575538 0
M  V30 4342 O 411.88 5.42809 -0.634086 0
M  V30 4343 H 408.974 0.82478 -0.0605555 0
M  V30 4344 H 411.52 1.4665 -0.853917 0
M  V30 4345 H 410.292 3.53647 -1.6748 0
M  V30 4346 H 409.915 3.97596 -0.0170516 0
M  V30 4347 N 410.912 0.523116 1.48665 0
M  V30 4348 C 411.859 -0.243398 2.29513 0
M  V30 4349 C 412.829 -0.940139 1.36933 0
M  V30 4350 O 414.014 -0.942503 1.65896 0
M  V30 4351 C 411.154 -1.28855 3.20141 0
M  V30 4352 C 410.267 -0.60135 4.27794 0
M  V30 4353 C 409.402 -1.62884 5.05611 0
M  V30 4354 C 408.441 -0.924726 6.05075 0
M  V30 4355 N 407.578 -1.89744 6.75975 0
M  V30 4356 H 412.418 0.452234 2.94549 0
M  V30 4357 H 409.955 0.234858 1.45213 0
M  V30 4358 H 411.913 -1.90674 3.71079 0
M  V30 4359 H 410.543 -1.95266 2.57043 0
M  V30 4360 H 409.595 0.130623 3.80176 0
M  V30 4361 H 410.907 -0.0481585 4.98777 0
M  V30 4362 H 410.061 -2.32149 5.60528 0
M  V30 4363 H 408.8 -2.21592 4.34452 0
M  V30 4364 H 407.805 -0.217966 5.49368 0
M  V30 4365 H 409.03 -0.343851 6.78229 0
M  V30 4366 H 406.976 -2.47373 6.07571 0
M  V30 4367 H 406.893 -1.3955 7.43009 0
M  V30 4368 H 408.161 -2.58229 7.35485 0
M  V30 4369 N 412.39 -1.55475 0.257931 0
M  V30 4370 C 413.62 -2.03314 -0.367026 0
M  V30 4371 C 414.028 -1.13625 -1.51281 0
M  V30 4372 O 413.371 -0.145334 -1.83124 0
M  V30 4373 C 413.433 -3.47362 -0.926284 0
M  V30 4374 C 413.097 -4.56914 0.0886584 0
M  V30 4375 C 414.094 -5.12013 0.902123 0
M  V30 4376 C 411.779 -5.01827 0.217936 0
M  V30 4377 C 413.773 -6.10529 1.83122 0
M  V30 4378 C 411.46 -6.00172 1.15052 0
M  V30 4379 C 412.458 -6.54402 1.95568 0
M  V30 4380 O 412.146 -7.50827 2.87253 0
M  V30 4381 H 411.878 -0.669976 -0.0900443 0
M  V30 4382 H 414.432 -2.01804 0.382673 0
M  V30 4383 H 412.662 -3.46056 -1.72575 0
M  V30 4384 H 414.351 -3.78637 -1.46249 0
M  V30 4385 H 415.117 -4.78139 0.812891 0
M  V30 4386 H 410.996 -4.59272 -0.398721 0
M  V30 4387 H 414.54 -6.52783 2.46008 0
M  V30 4388 H 410.437 -6.33465 1.24064 0
M  V30 4389 H 411.205 -7.68483 2.81739 0
M  V30 4390 N 413.868 0.0150385 -1.57593 0
M  V30 4391 C 415.117 0.702115 -1.89085 0
M  V30 4392 C 415.43 1.75764 -0.858277 0
M  V30 4393 O 416.636 2.49829 -1.0629 0
M  V30 4394 C 415.092 1.29992 -3.35604 0
M  V30 4395 C 414.7 0.280007 -4.47124 0
M  V30 4396 C 416.444 1.96606 -3.76227 0
M  V30 4397 C 414.351 0.886949 -5.84711 0
M  V30 4398 H 413.281 0.265997 -0.705522 0
M  V30 4399 H 415.932 -0.0430408 -1.8345 0
M  V30 4400 H 414.314 2.09525 -3.36029 0
M  V30 4401 H 415.488 -0.489631 -4.58191 0
M  V30 4402 H 413.803 -0.284835 -4.15425 0
M  V30 4403 H 416.4 2.42893 -4.76347 0
M  V30 4404 H 416.743 2.79024 -3.08952 0
M  V30 4405 H 417.276 1.23828 -3.78036 0
M  V30 4406 H 414.015 0.101876 -6.55421 0
M  V30 4407 H 413.535 1.6261 -5.77337 0
M  V30 4408 H 415.214 1.39011 -6.3189 0
M  V30 4409 N 415.346 1.54954 0.287554 0
M  V30 4410 C 416.309 1.86076 1.33823 0
M  V30 4411 C 417.309 0.734414 1.43049 0
M  V30 4412 O 418.499 1.00266 1.42452 0
M  V30 4413 C 415.631 2.05305 2.72144 0
M  V30 4414 H 416.824 2.79984 1.07465 0
M  V30 4415 H 414.377 1.47223 0.524902 0
M  V30 4416 H 415.112 1.1373 3.03704 0
M  V30 4417 H 414.897 2.873 2.66836 0
M  V30 4418 H 416.387 2.30706 3.48087 0
M  V30 4419 N 416.824 -0.551391 1.4764 0
M  V30 4420 C 417.754 -1.66757 1.63445 0
M  V30 4421 C 418.735 -1.63077 0.483742 0
M  V30 4422 O 419.92 -1.80607 0.71377 0
M  V30 4423 C 417.05 -3.05387 1.65396 0
M  V30 4424 C 416.004 -3.23918 2.79752 0
M  V30 4425 C 415.33 -4.63393 2.66779 0
M  V30 4426 C 416.63 -3.08735 4.21284 0
M  V30 4427 H 418.324 -1.53786 2.56886 0
M  V30 4428 H 415.87 -0.738415 1.23626 0
M  V30 4429 H 417.823 -3.83325 1.75043 0
M  V30 4430 H 416.547 -3.19332 0.685195 0
M  V30 4431 H 415.206 -2.48391 2.69625 0
M  V30 4432 H 414.854 -4.74144 1.67918 0
M  V30 4433 H 414.554 -4.7674 3.43501 0
M  V30 4434 H 416.078 -5.43458 2.78364 0
M  V30 4435 H 417.492 -3.76484 4.32357 0
M  V30 4436 H 415.889 -3.33588 4.98838 0
M  V30 4437 H 416.959 -2.0541 4.39243 0
M  V30 4438 N 418.302 -1.35869 -0.798587 0
M  V30 4439 C 419.579 -1.20145 -1.54352 0
M  V30 4440 C 419.959 0.216161 -2.0999 0
M  V30 4441 O 419.307 1.22068 -1.93162 0
M  V30 4442 C 419.517 -2.27602 -2.64572 0
M  V30 4443 C 420.865 -2.63811 -3.32699 0
M  V30 4444 O 421.889 -2.26576 -2.74849 0
M  V30 4445 O 420.748 -3.27866 -4.37226 0
M  V30 4446 H 417.842 -0.467248 -0.682355 0
M  V30 4447 H 420.388 -1.47574 -0.837859 0
M  V30 4448 H 419.16 -3.2265 -2.21388 0
M  V30 4449 H 418.783 -2.01488 -3.42766 0
M  V30 4450 N 419.78 1.02168 -1.19998 0
M  V30 4451 C 420.69 2.14069 -0.959774 0
M  V30 4452 C 421.706 1.73804 0.082655 0
M  V30 4453 O 422.882 2.01133 -0.103633 0
M  V30 4454 C 419.947 3.42936 -0.509459 0
M  V30 4455 C 419.008 3.97474 -1.62213 0
M  V30 4456 C 418.241 5.2019 -1.19321 0
M  V30 4457 O 418.464 5.70369 -0.0597726 0
M  V30 4458 O 417.398 5.67749 -1.99863 0
M  V30 4459 H 421.224 2.37199 -1.89658 0
M  V30 4460 H 418.809 1.12469 -0.983411 0
M  V30 4461 H 420.691 4.20551 -0.267322 0
M  V30 4462 H 419.366 3.21234 0.398821 0
M  V30 4463 H 418.273 3.21161 -1.9185 0
M  V30 4464 H 419.606 4.23555 -2.50723 0
M  V30 4465 N 421.258 1.00505 1.21394 0
M  V30 4466 C 422.504 0.698477 1.91031 0
M  V30 4467 C 422.859 -0.762448 1.76648 0
M  V30 4468 O 422.152 -1.54554 1.13241 0
M  V30 4469 C 422.346 1.0546 3.41486 0
M  V30 4470 C 422.175 2.5486 3.70508 0
M  V30 4471 C 420.945 3.21461 3.8986 0
M  V30 4472 C 423.143 3.53019 3.74008 0
M  V30 4473 N 421.125 4.60211 4.06299 0
M  V30 4474 C 422.496 4.77279 3.95733 0
M  V30 4475 C 424.551 3.47154 3.56915 0
M  V30 4476 C 423.254 5.96388 4.02137 0
M  V30 4477 C 425.28 4.65652 3.64585 0
M  V30 4478 C 424.642 5.88717 3.86771 0
M  V30 4479 H 420.741 0.30707 0.719189 0
M  V30 4480 H 423.325 1.28753 1.46051 0
M  V30 4481 H 421.496 0.494007 3.85246 0
M  V30 4482 H 423.228 0.702765 3.98552 0
M  V30 4483 H 419.983 2.71906 3.87768 0
M  V30 4484 H 420.407 5.32216 4.1842 0
M  V30 4485 H 425.049 2.53015 3.38738 0
M  V30 4486 H 422.767 6.90919 4.19114 0
M  V30 4487 H 426.353 4.62717 3.52681 0
M  V30 4488 H 425.233 6.78877 3.92549 0
M  V30 4489 N 422.737 -1.36956 0.779787 0
M  V30 4490 C 423.7 -2.2851 0.177662 0
M  V30 4491 C 424.7 -1.48393 -0.619377 0
M  V30 4492 O 425.89 -1.68505 -0.441785 0
M  V30 4493 C 423.022 -3.32428 -0.755279 0
M  V30 4494 H 424.215 -2.83269 0.984823 0
M  V30 4495 H 421.768 -1.46358 0.548544 0
M  V30 4496 H 422.503 -2.82808 -1.58714 0
M  V30 4497 H 422.288 -3.91659 -0.185817 0
M  V30 4498 H 423.778 -4.00824 -1.17174 0
M  V30 4499 N 424.215 -0.530993 -1.48385 0
M  V30 4500 C 425.463 0.00273189 -2.021 0
M  V30 4501 C 425.784 1.34672 -1.41027 0
M  V30 4502 O 425.054 1.8724 -0.576012 0
M  V30 4503 H 423.634 0.00399774 -0.746989 0
M  V30 4504 H 426.296 -0.695054 -1.82085 0
M  V30 4505 H 425.392 0.11031 -3.11905 0
M  V30 4506 N 425.693 1.55336 -0.266172 0
M  V30 4507 C 426.933 2.01303 0.354459 0
M  V30 4508 C 427.297 1.15046 1.53715 0
M  V30 4509 O 428.498 1.50554 2.22681 0
M  V30 4510 C 426.769 3.49748 0.735579 0
M  V30 4511 S 428.328 4.1771 1.34401 0
M  V30 4512 H 425.146 0.702333 0.110674 0
M  V30 4513 H 427.748 1.91653 -0.385916 0
M  V30 4514 H 426.452 4.10181 -0.134196 0
M  V30 4515 H 425.983 3.63364 1.50764 0
M  V30 4516 H 427.998 4.20594 2.63278 0
M  V30 4517 N 427.171 -0.0066808 1.57599 0
M  V30 4518 C 428.418 -0.69292 1.90276 0
M  V30 4519 C 428.746 -1.74148 0.866192 0
M  V30 4520 O 428.001 -1.95268 -0.129933 0
M  V30 4521 C 428.3 -1.37939 3.29708 0
M  V30 4522 C 427.966 -0.464679 4.48499 0
M  V30 4523 C 426.628 -0.212809 4.80729 0
M  V30 4524 C 428.98 0.16551 5.20937 0
M  V30 4525 C 426.308 0.677653 5.82773 0
M  V30 4526 C 428.66 1.04381 6.23929 0
M  V30 4527 C 427.324 1.30492 6.54621 0
M  V30 4528 H 426.594 -0.253558 0.696268 0
M  V30 4529 H 429.241 0.0474123 1.91441 0
M  V30 4530 H 427.546 -2.1936 3.24636 0
M  V30 4531 H 429.243 -1.9163 3.52249 0
M  V30 4532 H 425.833 -0.671153 4.23313 0
M  V30 4533 H 430.017 -0.0160756 4.96297 0
M  V30 4534 H 425.273 0.88803 6.04917 0
M  V30 4535 H 429.447 1.53851 6.79193 0
M  V30 4536 H 427.074 1.99662 7.33512 0
M  V30 4537 N 428.649 -1.55105 -0.279332 0
M  V30 4538 C 429.897 -1.75066 -1.00977 0
M  V30 4539 C 430.218 -0.551276 -1.87045 0
M  V30 4540 O 429.488 0.433984 -1.91032 0
M  V30 4541 H 428.068 -0.645578 -0.375816 0
M  V30 4542 H 430.73 -1.92497 -0.305089 0
M  V30 4543 H 429.826 -2.64894 -1.65038 0
M  V30 4544 N 430.127 0.543554 -1.4793 0
M  V30 4545 C 431.376 1.29649 -1.54512 0
M  V30 4546 C 431.689 1.94382 -0.217973 0
M  V30 4547 O 432.895 2.71017 -0.161908 0
M  V30 4548 C 431.351 2.35175 -2.72435 0
M  V30 4549 C 430.959 1.76572 -4.11736 0
M  V30 4550 C 432.703 3.11564 -2.8832 0
M  V30 4551 C 430.61 2.79958 -5.20939 0
M  V30 4552 H 429.54 0.487541 -0.57517 0
M  V30 4553 H 432.191 0.575708 -1.74235 0
M  V30 4554 H 430.573 3.10229 -2.46118 0
M  V30 4555 H 431.747 1.07799 -4.48013 0
M  V30 4556 H 430.062 1.12722 -4.00852 0
M  V30 4557 H 432.659 3.88794 -3.67074 0
M  V30 4558 H 433.002 3.66594 -1.97268 0
M  V30 4559 H 433.535 2.43623 -3.14472 0
M  V30 4560 H 430.274 2.29766 -6.13912 0
M  V30 4561 H 429.794 3.47101 -4.89164 0
M  V30 4562 H 431.473 3.43198 -5.48474 0
M  V30 4563 N 431.605 1.3629 0.791371 0
M  V30 4564 C 432.552 1.30458 1.90393 0
M  V30 4565 C 433.522 0.173632 1.6519 0
M  V30 4566 O 434.707 0.35983 1.87376 0
M  V30 4567 C 431.847 1.09777 3.27174 0
M  V30 4568 C 430.96 2.31929 3.64462 0
M  V30 4569 C 430.095 2.04276 4.90352 0
M  V30 4570 C 429.134 3.224 5.20312 0
M  V30 4571 N 428.271 2.94424 6.37385 0
M  V30 4572 H 433.111 2.25589 1.94714 0
M  V30 4573 H 430.648 1.12122 0.952216 0
M  V30 4574 H 432.606 0.958133 4.06049 0
M  V30 4575 H 431.236 0.183014 3.22281 0
M  V30 4576 H 430.288 2.56703 2.80727 0
M  V30 4577 H 431.6 3.20085 3.82553 0
M  V30 4578 H 430.754 1.87231 5.77087 0
M  V30 4579 H 429.493 1.13428 4.74326 0
M  V30 4580 H 428.498 3.40005 4.32061 0
M  V30 4581 H 429.723 4.14071 5.38258 0
M  V30 4582 H 427.669 2.06185 6.22755 0
M  V30 4583 H 427.586 3.76118 6.55798 0
M  V30 4584 H 428.854 2.80953 7.27108 0
M  V30 4585 N 433.083 -1.0153 1.20538 0
M  V30 4586 C 434.015 -2.10224 0.913155 0
M  V30 4587 C 435.028 -1.62495 -0.0995998 0
M  V30 4588 O 436.217 -1.78014 0.131582 0
M  V30 4589 C 433.317 -3.37111 0.347717 0
M  V30 4590 C 432.49 -4.13971 1.41233 0
M  V30 4591 C 431.549 -5.19158 0.857976 0
M  V30 4592 O 430.575 -5.48 1.53897 0
M  V30 4593 N 431.777 -5.7955 -0.331966 0
M  V30 4594 H 434.542 -2.35879 1.84881 0
M  V30 4595 H 432.103 -1.17931 1.10923 0
M  V30 4596 H 434.095 -4.04683 -0.0373026 0
M  V30 4597 H 432.665 -3.08696 -0.492527 0
M  V30 4598 H 431.885 -3.41351 1.97163 0
M  V30 4599 H 433.173 -4.62103 2.12928 0
M  V30 4600 H 432.571 -5.58455 -0.902478 0
M  V30 4601 H 431.128 -6.48464 -0.65861 0
M  V30 4602 N 434.561 -1.01147 -1.20859 0
M  V30 4603 C 435.508 -0.577354 -2.23462 0
M  V30 4604 C 436.478 0.399922 -1.61214 0
M  V30 4605 O 437.663 0.300515 -1.88419 0
M  V30 4606 C 434.803 0.083372 -3.44999 0
M  V30 4607 C 433.916 -0.937856 -4.21697 0
M  V30 4608 C 433.051 -0.248717 -5.30617 0
M  V30 4609 C 432.09 -1.25705 -5.99053 0
M  V30 4610 N 431.227 -0.594939 -6.99575 0
M  V30 4611 H 436.067 -1.45695 -2.59956 0
M  V30 4612 H 433.604 -0.729428 -1.27741 0
M  V30 4613 H 435.562 0.483535 -4.14388 0
M  V30 4614 H 434.192 0.926645 -3.09214 0
M  V30 4615 H 433.244 -1.45622 -3.51423 0
M  V30 4616 H 434.556 -1.70493 -4.68757 0
M  V30 4617 H 433.71 0.207215 -6.06346 0
M  V30 4618 H 432.449 0.55071 -4.84581 0
M  V30 4619 H 431.454 -1.72343 -5.2209 0
M  V30 4620 H 432.679 -2.05767 -6.47176 0
M  V30 4621 H 430.625 0.184713 -6.5574 0
M  V30 4622 H 430.542 -1.30017 -7.44736 0
M  V30 4623 H 431.81 -0.162427 -7.79331 0
M  V30 4624 N 436.039 1.36541 -0.78704 0
M  V30 4625 C 437.316 1.9355 -0.282424 0
M  V30 4626 C 437.696 1.71919 1.22503 0
M  V30 4627 O 437.044 1.07677 2.01539 0
M  V30 4628 C 437.254 3.4246 -0.672462 0
M  V30 4629 C 438.602 4.19582 -0.650863 0
M  V30 4630 O 439.626 3.50889 -0.612789 0
M  V30 4631 O 438.485 5.42106 -0.691623 0
M  V30 4632 H 435.579 0.824091 -0.0693 0
M  V30 4633 H 438.125 1.45736 -0.869423 0
M  V30 4634 H 436.897 3.51851 -1.71221 0
M  V30 4635 H 436.52 3.97556 -0.0592211 0
M  V30 4636 N 437.518 0.538854 1.48102 0
M  V30 4637 C 438.767 0.0059532 2.01699 0
M  V30 4638 C 439.08 -1.34476 1.42041 0
M  V30 4639 O 440.286 -1.96653 1.87189 0
M  V30 4640 C 438.742 -0.0397627 3.59878 0
M  V30 4641 C 438.35 1.30659 4.28523 0
M  V30 4642 C 440.094 -0.521024 4.2129 0
M  V30 4643 C 438.001 1.22098 5.78659 0
M  V30 4644 H 436.931 -0.00154456 0.753998 0
M  V30 4645 H 439.582 0.683963 1.70277 0
M  V30 4646 H 437.964 -0.783037 3.88181 0
M  V30 4647 H 439.138 2.06613 4.11883 0
M  V30 4648 H 437.453 1.7243 3.79021 0
M  V30 4649 H 440.05 -0.603184 5.31287 0
M  V30 4650 H 440.393 -1.52885 3.8721 0
M  V30 4651 H 440.926 0.166834 3.9745 0
M  V30 4652 H 437.665 2.20424 6.17328 0
M  V30 4653 H 437.185 0.50295 5.97688 0
M  V30 4654 H 438.864 0.915345 6.40492 0
M  V30 4655 N 438.996 -1.55193 0.274407 0
M  V30 4656 C 440.273 -1.91584 -0.394331 0
M  V30 4657 C 440.653 -1.19858 -1.73774 0
M  V30 4658 O 440.001 -0.3252 -2.26174 0
M  V30 4659 C 440.211 -3.4487 -0.535311 0
M  V30 4660 C 441.559 -4.16636 -0.818534 0
M  V30 4661 O 442.583 -3.5076 -0.620146 0
M  V30 4662 O 441.442 -5.33209 -1.19792 0
M  V30 4663 H 438.536 -0.798349 -0.215794 0
M  V30 4664 H 441.082 -1.66646 0.320507 0
M  V30 4665 H 439.854 -3.89145 0.410141 0
M  V30 4666 H 439.477 -3.75759 -1.29964 0
M  V30 4667 N 440.474 -0.00167713 -1.576 0
M  V30 4668 C 441.421 0.989195 -2.08527 0
M  V30 4669 C 442.391 1.34031 -0.981065 0
M  V30 4670 O 443.576 1.43839 -1.2536 0
M  V30 4671 C 440.716 2.27537 -2.59463 0
M  V30 4672 C 439.829 1.98314 -3.83791 0
M  V30 4673 C 438.964 3.21025 -4.23222 0
M  V30 4674 C 438.003 2.87495 -5.40382 0
M  V30 4675 N 437.14 4.02749 -5.75098 0
M  V30 4676 H 441.98 0.547973 -2.92919 0
M  V30 4677 H 439.517 0.258917 -1.44803 0
M  V30 4678 H 441.475 3.02729 -2.87073 0
M  V30 4679 H 440.105 2.69325 -1.77943 0
M  V30 4680 H 439.157 1.13482 -3.63078 0
M  V30 4681 H 440.469 1.69601 -4.69081 0
M  V30 4682 H 439.623 4.04561 -4.52123 0
M  V30 4683 H 438.362 3.52877 -3.36644 0
M  V30 4684 H 437.367 2.02367 -5.11202 0
M  V30 4685 H 438.592 2.56889 -6.28637 0
M  V30 4686 H 436.538 4.34494 -4.91478 0
M  V30 4687 H 436.455 3.77566 -6.54966 0
M  V30 4688 H 437.723 4.87068 -6.08592 0
M  V30 4689 N 441.952 1.55251 0.271103 0
M  V30 4690 C 443.229 1.66664 1.02384 0
M  V30 4691 C 443.609 0.534363 2.04225 0
M  V30 4692 O 442.957 -0.465337 2.23712 0
M  V30 4693 C 443.167 3.05961 1.67895 0
M  V30 4694 C 444.515 3.63772 2.18986 0
M  V30 4695 O 445.539 3.08606 1.77878 0
M  V30 4696 O 444.398 4.60429 2.94393 0
M  V30 4697 H 441.492 0.676957 0.475035 0
M  V30 4698 H 444.038 1.67589 0.26681 0
M  V30 4699 H 442.81 3.79815 0.941071 0
M  V30 4700 H 442.433 3.08943 2.5028 0
M  V30 4701 N 443.43 -0.535701 1.48216 0
M  V30 4702 C 444.36 -1.65014 1.65204 0
M  V30 4703 C 445.341 -1.62554 0.501011 0
M  V30 4704 O 446.526 -1.7984 0.732886 0
M  V30 4705 C 443.656 -3.03616 1.68626 0
M  V30 4706 C 442.61 -3.20932 2.83172 0
M  V30 4707 C 441.936 -4.60537 2.71679 0
M  V30 4708 C 443.236 -3.04249 4.24535 0
M  V30 4709 H 444.93 -1.51053 2.58502 0
M  V30 4710 H 442.476 -0.725262 1.24402 0
M  V30 4711 H 444.429 -3.81446 1.79099 0
M  V30 4712 H 443.153 -3.18587 0.719026 0
M  V30 4713 H 441.812 -2.45517 2.72244 0
M  V30 4714 H 441.46 -4.72336 1.72937 0
M  V30 4715 H 441.16 -4.73069 3.48538 0
M  V30 4716 H 442.684 -5.40475 2.84112 0
M  V30 4717 H 444.098 -3.71877 4.36326 0
M  V30 4718 H 442.495 -3.28278 5.02348 0
M  V30 4719 H 443.565 -2.00739 4.41397 0
M  V30 4720 N 444.908 -1.36708 -0.784132 0
M  V30 4721 C 446.154 -1.31426 -1.54451 0
M  V30 4722 C 446.487 0.10476 -1.93917 0
M  V30 4723 O 445.762 1.05934 -1.6312 0
M  V30 4724 C 446.045 -2.24189 -2.818 0
M  V30 4725 C 445.898 -3.74813 -2.48667 0
M  V30 4726 C 447.217 -2.15626 -3.83658 0
M  V30 4727 H 444.336 -0.478739 -0.560337 0
M  V30 4728 H 446.978 -1.67305 -0.900498 0
M  V30 4729 H 445.128 -1.93722 -3.36755 0
M  V30 4730 H 446.8 -4.15823 -1.99722 0
M  V30 4731 H 445.043 -3.93989 -1.81535 0
M  V30 4732 H 445.714 -4.35138 -3.39646 0
M  V30 4733 H 448.19 -2.42456 -3.38163 0
M  V30 4734 H 447.066 -2.82694 -4.70506 0
M  V30 4735 H 447.327 -1.14522 -4.27009 0
M  V30 4736 N 446.386 1.0089 -1.21074 0
M  V30 4737 C 447.635 1.74019 -1.01981 0
M  V30 4738 C 447.948 1.90408 0.447665 0
M  V30 4739 O 449.154 2.60707 0.757906 0
M  V30 4740 C 447.61 3.13026 -1.77603 0
M  V30 4741 C 447.218 3.04623 -3.28495 0
M  V30 4742 C 448.962 3.90312 -1.66904 0
M  V30 4743 C 446.869 4.38685 -3.96623 0
M  V30 4744 H 445.799 0.652422 -0.377971 0
M  V30 4745 H 448.45 1.12755 -1.44771 0
M  V30 4746 H 446.832 3.74878 -1.27604 0
M  V30 4747 H 448.006 2.52032 -3.85767 0
M  V30 4748 H 446.321 2.40827 -3.39693 0
M  V30 4749 H 448.918 4.8951 -2.15138 0
M  V30 4750 H 449.261 4.11558 -0.62658 0
M  V30 4751 H 449.794 3.35104 -2.14359 0
M  V30 4752 H 446.533 4.22641 -5.01054 0
M  V30 4753 H 446.053 4.91252 -3.4414 0
M  V30 4754 H 447.732 5.075 -4.01314 0
M  V30 4755 O 447.903 1.14481 1.13914 0
M  V30 4756 H 448.594 0.866659 1.7323 0
M  V30 END ATOM
M  V30 BEGIN BOND
M  V30 END BOND
M  V30 END CTAB
M  END
$$$$
