drugbank_target|P09467 Fructose-1,6-bisphosphatase 1 (DB00131; DB02778; DB02848; DB04175; DB04493; DB05053; DB05518; DB07270; DB07312; DB07321; DB08484)
 OpenBabel12092120153D

  0  0  0     0  0            999 V3000
M  V30 BEGIN CTAB
M  V30 COUNTS 5197 5243 0 0 0
M  V30 BEGIN ATOM
M  V30 1 H -0.908 1.98254 -0.117106 0
M  V30 2 N 0 1.576 0 0
M  V30 3 C 0.933 2.03868 1.02534 0
M  V30 4 C 1.911 0.928543 1.3348 0
M  V30 5 O 3.095 1.19667 1.45644 0
M  V30 6 C 0.222 2.43627 2.35294 0
M  V30 7 C -0.732 3.65373 2.2001 0
M  V30 8 S 0.101 5.13292 1.52614 0
M  V30 9 C 1.257 5.56322 2.86805 0
M  V30 10 H 1.49 2.90518 0.631377 0
M  V30 11 H -0.977 1.52953 0.210867 0
M  V30 12 H 0.981 2.67203 3.11629 0
M  V30 13 H -0.358 1.57376 2.7183 0
M  V30 14 H -1.165 3.90944 3.18086 0
M  V30 15 H -1.563 3.418 1.51819 0
M  V30 16 H 0.729 5.58782 3.83104 0
M  V30 17 H 1.672 6.56266 2.65933 0
M  V30 18 H 2.08 4.83886 2.90714 0
M  V30 19 N 1.4781 -0.272755 1.55222 0
M  V30 20 C 2.4411 -1.32041 1.87344 0
M  V30 21 C 3.4411 -1.42342 0.74803 0
M  V30 22 O 4.6311 -1.41488 1.0162 0
M  V30 23 C 1.7631 -2.70173 2.07893 0
M  V30 24 H 2.9561 -1.04789 2.80997 0
M  V30 25 H 0.5091 -0.51083 1.47717 0
M  V30 26 H 1.2441 -3.02605 1.16622 0
M  V30 27 H 1.0291 -2.64082 2.89833 0
M  V30 28 H 2.5191 -3.45869 2.34017 0
M  V30 29 N 2.9562 -1.48159 -0.537278 0
M  V30 30 C 4.2332 -1.46291 -1.29839 0
M  V30 31 C 4.6132 -0.170613 -2.10409 0
M  V30 32 O 3.9612 0.847746 -2.12192 0
M  V30 33 C 4.1712 -2.72055 -2.18603 0
M  V30 34 C 5.5192 -3.20087 -2.7898 0
M  V30 35 O 6.5432 -2.72921 -2.28894 0
M  V30 36 O 5.4022 -4.02138 -3.70064 0
M  V30 37 H 2.4962 -0.583906 -0.585647 0
M  V30 38 H 5.0422 -1.60384 -0.554534 0
M  V30 39 H 3.8142 -3.57628 -1.58801 0
M  V30 40 H 3.4372 -2.60646 -3.00249 0
M  V30 41 N 4.4343 0.785586 -1.36625 0
M  V30 42 C 5.3663 1.90711 -1.2713 0
M  V30 43 C 6.3793 1.61688 -0.189986 0
M  V30 44 O 7.5683 1.72864 -0.445014 0
M  V30 45 C 4.6683 3.25611 -0.939713 0
M  V30 46 C 3.8413 3.82385 -2.12369 0
M  V30 47 C 2.9003 4.95732 -1.76456 0
M  V30 48 O 1.9263 5.12047 -2.48589 0
M  V30 49 N 3.1283 5.76258 -0.700492 0
M  V30 50 H 5.8933 1.99376 -2.23762 0
M  V30 51 H 3.4543 0.964041 -1.30069 0
M  V30 52 H 5.4463 3.98937 -0.680554 0
M  V30 53 H 4.0163 3.12538 -0.0624074 0
M  V30 54 H 3.2363 3.01001 -2.54543 0
M  V30 55 H 4.5243 4.17047 -2.9146 0
M  V30 56 H 3.9223 5.65609 -0.101624 0
M  V30 57 H 2.4793 6.4987 -0.501165 0
M  V30 58 N 5.9124 1.20967 1.01018 0
M  V30 59 C 6.8754 0.965918 2.07853 0
M  V30 60 C 7.8754 -0.0610545 1.60684 0
M  V30 61 O 9.0654 0.175681 1.73312 0
M  V30 62 C 6.1974 0.455513 3.37843 0
M  V30 63 H 7.3904 1.91365 2.3091 0
M  V30 64 H 4.9434 1.02594 1.17916 0
M  V30 65 H 5.6784 -0.497381 3.20463 0
M  V30 66 H 5.4634 1.19622 3.73407 0
M  V30 67 H 6.9534 0.304667 4.16487 0
M  V30 68 N 7.3905 -1.2043 1.01659 0
M  V30 69 C 8.8015 -1.71517 0.737482 0
M  V30 70 C 9.1525 -1.81547 -0.743973 0
M  V30 71 O 8.2775 -1.47803 -1.58061 0
M  V30 72 C 8.8725 -3.11515 1.33206 0
M  V30 73 C 7.4315 -3.59912 1.10183 0
M  V30 74 C 6.5785 -2.37116 1.43776 0
M  V30 75 H 9.5295 -1.05444 1.18606 0
M  V30 76 H 9.5505 -3.73575 0.722636 0
M  V30 77 H 9.0625 -3.04182 2.41028 0
M  V30 78 H 7.1635 -3.72577 0.0412756 0
M  V30 79 H 7.2765 -4.44731 1.78188 0
M  V30 80 H 5.6405 -2.39857 0.856778 0
M  V30 81 H 6.4235 -2.32424 2.52654 0
M  V30 82 N 8.8686 -0.792821 -1.36206 0
M  V30 83 C 10.1156 -0.366786 -1.99151 0
M  V30 84 C 10.4436 1.06243 -1.62919 0
M  V30 85 O 9.6986 1.74927 -0.877442 0
M  V30 86 C 9.9976 -0.481501 -3.54142 0
M  V30 87 C 9.6636 -1.87202 -4.10203 0
M  V30 88 C 8.3256 -2.25248 -4.25226 0
M  V30 89 C 10.6776 -2.78237 -4.40719 0
M  V30 90 C 8.0056 -3.53723 -4.68078 0
M  V30 91 C 10.3576 -4.06144 -4.85005 0
M  V30 92 C 9.0216 -4.44207 -4.98234 0
M  V30 93 H 8.2916 -0.134217 -0.728743 0
M  V30 94 H 10.9386 -1.01094 -1.62641 0
M  V30 95 H 9.2436 0.246146 -3.91026 0
M  V30 96 H 10.9406 -0.132844 -4.0078 0
M  V30 97 H 7.5306 -1.56639 -3.98951 0
M  V30 98 H 11.7146 -2.50097 -4.28679 0
M  V30 99 H 6.9706 -3.8308 -4.76508 0
M  V30 100 H 11.1446 -4.76796 -5.07581 0
M  V30 101 H 8.7716 -5.43814 -5.31197 0
M  V30 102 N 10.3467 1.47872 -0.545128 0
M  V30 103 C 11.6237 1.9554 0.0485222 0
M  V30 104 C 12.0037 1.4876 1.49779 0
M  V30 105 O 11.3517 0.720925 2.16829 0
M  V30 106 C 11.5617 3.48898 -0.084417 0
M  V30 107 C 12.9097 4.24547 0.0671239 0
M  V30 108 O 13.9337 3.56198 -0.0113649 0
M  V30 109 O 12.7927 5.45999 0.233882 0
M  V30 110 H 9.8867 0.823957 0.0708773 0
M  V30 111 H 12.4327 1.58327 -0.610798 0
M  V30 112 H 11.2047 3.75714 -1.09337 0
M  V30 113 H 10.8277 3.92845 0.613066 0
M  V30 114 N 11.8248 0.280983 1.55075 0
M  V30 115 C 13.0528 -0.337293 2.04132 0
M  V30 116 C 13.4678 -1.4903 1.15912 0
M  V30 117 O 12.8248 -1.81606 0.180459 0
M  V30 118 C 12.8758 -0.812706 3.52246 0
M  V30 119 O 12.5968 0.294387 4.3711 0
M  V30 120 C 14.0978 -1.4982 4.17216 0
M  V30 121 H 11.3178 -0.0761638 0.666663 0
M  V30 122 H 13.8618 0.414787 2.00249 0
M  V30 123 H 12.0168 -1.51486 3.56554 0
M  V30 124 H 12.4308 -0.0721325 5.2445 0
M  V30 125 H 13.9048 -1.7822 5.22438 0
M  V30 126 H 14.3818 -2.43168 3.65741 0
M  V30 127 H 14.9878 -0.839742 4.16927 0
M  V30 128 N 13.3029 -1.57598 0.00835791 0
M  V30 129 C 14.5799 -1.82172 -0.712235 0
M  V30 130 C 14.9599 -0.887873 -1.9152 0
M  V30 131 O 14.3079 0.06146 -2.28417 0
M  V30 132 C 14.5179 -3.30875 -1.11008 0
M  V30 133 C 15.8659 -3.96826 -1.51044 0
M  V30 134 O 16.8899 -3.35248 -1.20364 0
M  V30 135 O 15.7489 -5.05318 -2.08125 0
M  V30 136 H 12.8429 -0.750435 -0.347529 0
M  V30 137 H 15.3889 -1.69665 0.0344523 0
M  V30 138 H 14.1609 -3.90481 -0.252982 0
M  V30 139 H 13.7839 -3.48412 -1.9156 0
M  V30 140 N 14.781 0.264519 -1.55364 0
M  V30 141 C 16.027 0.99646 -1.76631 0
M  V30 142 C 16.36 1.85632 -0.570478 0
M  V30 143 O 15.635 1.89647 0.43175 0
M  V30 144 C 15.918 1.87187 -3.07625 0
M  V30 145 C 15.771 1.04138 -4.37579 0
M  V30 146 C 17.09 2.85749 -3.34717 0
M  V30 147 H 14.209 0.360841 -0.642622 0
M  V30 148 H 16.851 0.268218 -1.88097 0
M  V30 149 H 15.001 2.49279 -2.9798 0
M  V30 150 H 16.673 0.440517 -4.59192 0
M  V30 151 H 14.916 0.345115 -4.32425 0
M  V30 152 H 15.587 1.68729 -5.2558 0
M  V30 153 H 18.063 2.33793 -3.4421 0
M  V30 154 H 16.939 3.44136 -4.27623 0
M  V30 155 H 17.2 3.61311 -2.54768 0
M  V30 156 N 16.2591 1.48442 0.529413 0
M  V30 157 C 17.2071 1.63452 1.65487 0
M  V30 158 C 18.2011 0.500955 1.61823 0
M  V30 159 O 19.4071 0.679695 1.66674 0
M  V30 160 H 15.7821 0.514905 0.548066 0
M  V30 161 H 17.7531 2.57975 1.49971 0
M  V30 162 C 16.5021 1.69196 3.03756 0
M  V30 163 H 15.8251 2.55784 3.07269 0
M  V30 164 H 17.2651 1.83743 3.82119 0
M  V30 165 C 15.7241 0.430765 3.34135 0
M  V30 166 O 16.2541 -0.4561 3.99102 0
M  V30 167 N 14.4601 0.302293 2.89023 0
M  V30 168 H 14.0071 1.02496 2.36331 0
M  V30 169 H 13.9651 -0.540546 3.09718 0
M  V30 170 N 17.7372 -0.778329 1.37039 0
M  V30 171 C 18.9652 -1.56734 1.35063 0
M  V30 172 C 19.3802 -1.88686 -0.0655597 0
M  V30 173 O 18.7372 -1.5096 -1.02554 0
M  V30 174 C 18.7882 -2.88163 2.18276 0
M  V30 175 O 18.5092 -2.57583 3.54376 0
M  V30 176 C 20.0102 -3.82422 2.24206 0
M  V30 177 H 17.2302 -0.485778 0.462883 0
M  V30 178 H 19.7742 -0.965185 1.8029 0
M  V30 179 H 17.9292 -3.44818 1.76576 0
M  V30 180 H 18.3432 -3.41699 3.97922 0
M  V30 181 H 19.8172 -4.71667 2.86765 0
M  V30 182 H 20.2942 -4.21078 1.24861 0
M  V30 183 H 20.9002 -3.31697 2.6619 0
M  V30 184 N 19.2153 -1.21501 -1.00376 0
M  V30 185 C 20.1453 -0.999478 -2.11028 0
M  V30 186 C 21.1263 0.0759671 -1.6993 0
M  V30 187 O 22.3113 -0.0841106 -1.94018 0
M  V30 188 C 19.4413 -0.564709 -3.42678 0
M  V30 189 C 18.3953 -1.58486 -3.97576 0
M  V30 190 C 17.7213 -1.00628 -5.25146 0
M  V30 191 C 19.0213 -2.97204 -4.29496 0
M  V30 192 H 20.7153 -1.92495 -2.29317 0
M  V30 193 H 18.2613 -0.92693 -1.102 0
M  V30 194 H 20.2143 -0.401091 -4.19487 0
M  V30 195 H 18.9383 0.396411 -3.24185 0
M  V30 196 H 17.5973 -1.73606 -3.22888 0
M  V30 197 H 17.2453 -0.0368439 -5.02987 0
M  V30 198 H 16.9453 -1.68771 -5.62841 0
M  V30 199 H 18.4693 -0.854015 -6.04598 0
M  V30 200 H 19.8833 -2.8552 -4.97143 0
M  V30 201 H 18.2803 -3.62372 -4.78338 0
M  V30 202 H 19.3503 -3.47956 -3.3772 0
M  V30 203 N 20.6934 1.19889 -1.02296 0
M  V30 204 C 21.9214 1.9339 -0.735399 0
M  V30 205 C 22.3364 1.75148 0.704887 0
M  V30 206 O 21.6934 1.06954 1.47875 0
M  V30 207 C 21.7444 3.45313 -1.06962 0
M  V30 208 O 21.4654 3.62964 -2.45334 0
M  V30 209 C 22.9664 4.35948 -0.804021 0
M  V30 210 H 20.1864 0.61448 -0.269546 0
M  V30 211 H 22.7304 1.522 -1.36585 0
M  V30 212 H 20.8854 3.84359 -0.484455 0
M  V30 213 H 21.2994 4.56886 -2.57595 0
M  V30 214 H 22.7734 5.41174 -1.0879 0
M  V30 215 H 23.2504 4.3842 0.261691 0
M  V30 216 H 23.8564 4.02574 -1.37164 0
M  V30 217 N 22.1715 0.800033 1.35784 0
M  V30 218 C 23.5875 0.482977 1.52117 0
M  V30 219 C 23.7875 -0.996948 1.75109 0
M  V30 220 O 22.8435 -1.78216 1.78872 0
M  V30 221 C 24.1565 1.32264 2.70049 0
M  V30 222 C 25.7045 1.31742 2.83924 0
M  V30 223 C 26.1795 2.14106 4.04874 0
M  V30 224 N 27.6705 2.11607 4.12039 0
M  V30 225 C 28.4055 2.72099 5.04727 0
M  V30 226 N 27.9015 3.41492 6.02789 0
M  V30 227 N 29.6945 2.61776 4.97423 0
M  V30 228 H 21.8455 1.75856 1.19115 0
M  V30 229 H 24.1085 0.748122 0.582252 0
M  V30 230 H 23.8145 2.37261 2.59616 0
M  V30 231 H 23.6885 0.971303 3.6448 0
M  V30 232 H 26.0755 0.275333 2.93813 0
M  V30 233 H 26.1565 1.70859 1.9037 0
M  V30 234 H 25.8005 3.18351 3.95746 0
M  V30 235 H 25.7305 1.72353 4.97596 0
M  V30 236 H 28.2215 1.61112 3.41835 0
M  V30 237 H 28.5345 3.84953 6.70098 0
M  V30 238 H 26.8795 3.45596 6.02983 0
M  V30 239 H 30.0705 2.07157 4.19766 0
M  V30 240 H 30.2435 3.0921 5.69468 0
M  V30 241 N 23.6496 -1.47581 0.552962 0
M  V30 242 C 24.8966 -2.02482 0.0273243 0
M  V30 243 C 25.2246 -1.42776 -1.32081 0
M  V30 244 O 24.4796 -0.571393 -1.87173 0
M  V30 245 C 24.7786 -3.57199 -0.119728 0
M  V30 246 C 24.4446 -4.35804 1.15697 0
M  V30 247 C 23.1066 -4.57 1.50681 0
M  V30 248 C 25.4586 -4.81167 2.00319 0
M  V30 249 C 22.7866 -5.20807 2.70142 0
M  V30 250 C 25.1386 -5.46293 3.18978 0
M  V30 251 C 23.8026 -5.65722 3.54281 0
M  V30 252 H 23.0726 -0.740933 0.00999866 0
M  V30 253 H 25.7196 -1.77302 0.72362 0
M  V30 254 H 24.0246 -3.81348 -0.89896 0
M  V30 255 H 25.7216 -3.97324 -0.541718 0
M  V30 256 H 22.3116 -4.19582 0.874561 0
M  V30 257 H 26.4956 -4.64574 1.74599 0
M  V30 258 H 21.7516 -5.34045 2.97668 0
M  V30 259 H 25.9256 -5.80407 3.84838 0
M  V30 260 H 23.5526 -6.14936 4.46942 0
M  V30 261 N 25.1277 -0.289203 -1.54924 0
M  V30 262 C 26.3737 0.323998 -2.00195 0
M  V30 263 C 26.7067 1.54441 -1.17735 0
M  V30 264 O 25.9817 1.92875 -0.250878 0
M  V30 265 C 26.2647 0.692276 -3.53383 0
M  V30 266 C 26.1177 -0.536457 -4.46589 0
M  V30 267 C 27.4367 1.52335 -4.12895 0
M  V30 268 H 24.5557 0.116289 -0.727768 0
M  V30 269 H 27.1977 -0.398954 -1.85764 0
M  V30 270 H 25.3477 1.30822 -3.65811 0
M  V30 271 H 27.0197 -1.17499 -4.46085 0
M  V30 272 H 25.2627 -1.17192 -4.1767 0
M  V30 273 H 25.9337 -0.234806 -5.515 0
M  V30 274 H 28.4097 1.00302 -4.0383 0
M  V30 275 H 27.2857 1.74982 -5.20262 0
M  V30 276 H 27.5467 2.50886 -3.64018 0
M  V30 277 N 26.6058 1.57591 -0.0167156 0
M  V30 278 C 27.5388 2.04944 1.00366 0
M  V30 279 C 28.5168 0.942648 1.32487 0
M  V30 280 O 29.7008 1.21205 1.44367 0
M  V30 281 C 26.8278 2.46109 2.32697 0
M  V30 282 C 25.8738 3.67686 2.16123 0
M  V30 283 S 26.7068 5.14882 1.47161 0
M  V30 284 C 27.8628 5.59332 2.80888 0
M  V30 285 H 28.0958 2.91172 0.600528 0
M  V30 286 H 25.6288 1.53168 0.194632 0
M  V30 287 H 27.5868 2.70493 3.08778 0
M  V30 288 H 26.2478 1.6025 2.70146 0
M  V30 289 H 25.4408 3.94296 3.13922 0
M  V30 290 H 25.0428 3.43391 1.48185 0
M  V30 291 H 27.3348 5.62814 3.77156 0
M  V30 292 H 28.2778 6.5905 2.58958 0
M  V30 293 H 28.6858 4.86942 2.85565 0
M  V30 294 N 28.0839 -0.256276 1.55502 0
M  V30 295 C 28.9939 -1.33882 1.92647 0
M  V30 296 C 30.0099 -1.53159 0.825727 0
M  V30 297 O 31.1859 -1.66963 1.12629 0
M  V30 298 C 28.2509 -2.6751 2.20543 0
M  V30 299 C 27.3119 -2.56836 3.43997 0
M  V30 300 C 26.5449 -3.84092 3.70553 0
M  V30 301 O 26.7679 -4.85545 2.99336 0
M  V30 302 O 25.7019 -3.83288 4.64084 0
M  V30 303 H 29.5279 -1.05374 2.84833 0
M  V30 304 H 27.1129 -0.456237 1.42263 0
M  V30 305 H 28.9949 -3.46492 2.39835 0
M  V30 306 H 27.6699 -2.9577 1.31536 0
M  V30 307 H 26.5769 -1.76172 3.30021 0
M  V30 308 H 27.9099 -2.33523 4.33275 0
M  V30 309 N 29.562 -1.4872 -0.521534 0
M  V30 310 C 30.472 -1.66569 -1.65203 0
M  V30 311 C 31.488 -0.548197 -1.65139 0
M  V30 312 O 32.664 -0.820339 -1.83936 0
M  V30 313 C 29.729 -1.70917 -3.01642 0
M  V30 314 C 28.79 -2.94356 -3.12495 0
M  V30 315 C 28.023 -2.98487 -4.42426 0
M  V30 316 O 28.246 -2.10786 -5.30024 0
M  V30 317 O 27.18 -3.90746 -4.57822 0
M  V30 318 H 31.006 -2.62298 -1.5308 0
M  V30 319 H 28.591 -1.3222 -0.695565 0
M  V30 320 H 30.473 -1.7625 -3.82771 0
M  V30 321 H 29.148 -0.783633 -3.14071 0
M  V30 322 H 28.055 -2.94552 -2.3063 0
M  V30 323 H 29.388 -3.86322 -3.04986 0
M  V30 324 N 31.0401 0.771051 -1.3745 0
M  V30 325 C 32.2881 1.52661 -1.32435 0
M  V30 326 C 32.6091 1.9479 0.0905024 0
M  V30 327 O 31.8791 1.66348 1.03466 0
M  V30 328 H 30.4591 0.566218 -0.487244 0
M  V30 329 H 33.1211 0.917636 -1.71946 0
M  V30 330 H 32.2171 2.42568 -1.96385 0
M  V30 331 N 32.5182 1.22032 0.997298 0
M  V30 332 C 33.9342 0.979326 1.26021 0
M  V30 333 C 34.1342 -0.32972 1.98784 0
M  V30 334 O 33.1902 -1.05345 2.29475 0
M  V30 335 C 34.5032 2.17509 2.07631 0
M  V30 336 C 36.0512 2.21817 2.2083 0
M  V30 337 C 36.5262 3.40933 3.05825 0
M  V30 338 N 38.0172 3.41067 3.13412 0
M  V30 339 C 38.7522 4.29885 3.79455 0
M  V30 340 N 38.2482 5.28914 4.47462 0
M  V30 341 N 40.0412 4.17673 3.76173 0
M  V30 342 H 32.1922 2.06202 0.509352 0
M  V30 343 H 34.4552 0.90334 0.287541 0
M  V30 344 H 34.1612 3.12415 1.61524 0
M  V30 345 H 34.0352 2.17206 3.08385 0
M  V30 346 H 36.4222 1.27462 2.66153 0
M  V30 347 H 36.5032 2.2616 1.1952 0
M  V30 348 H 36.1472 4.35586 2.61203 0
M  V30 349 H 36.0772 3.33829 4.07266 0
M  V30 350 H 38.5682 2.69406 2.65007 0
M  V30 351 H 38.8812 5.92973 4.95583 0
M  V30 352 H 37.2262 5.32831 4.46224 0
M  V30 353 H 40.4172 3.39564 3.22202 0
M  V30 354 H 40.5902 4.87098 4.27363 0
M  V30 355 N 33.9963 -1.19345 1.0293 0
M  V30 356 C 34.9433 -2.2258 0.610464 0
M  V30 357 C 35.9133 -1.6179 -0.375946 0
M  V30 358 O 37.0983 -1.88844 -0.272511 0
M  V30 359 C 34.2383 -3.45085 -0.0321473 0
M  V30 360 C 33.3513 -4.20258 1.00035 0
M  V30 361 C 32.4863 -5.3019 0.32746 0
M  V30 362 C 31.5253 -5.97121 1.34584 0
M  V30 363 N 30.6623 -6.98615 0.698726 0
M  V30 364 H 35.5023 -2.57764 1.49538 0
M  V30 365 H 33.0393 -1.26644 0.748311 0
M  V30 366 H 34.9973 -4.15061 -0.421966 0
M  V30 367 H 33.6273 -3.10555 -0.88064 0
M  V30 368 H 32.6793 -3.49223 1.50823 0
M  V30 369 H 33.9913 -4.66175 1.77433 0
M  V30 370 H 33.1453 -6.06587 -0.11718 0
M  V30 371 H 31.8843 -4.85345 -0.478713 0
M  V30 372 H 30.8893 -5.19474 1.80074 0
M  V30 373 H 32.1143 -6.4405 2.15352 0
M  V30 374 H 30.0603 -6.55942 -0.0873471 0
M  V30 375 H 29.9773 -7.42724 1.41058 0
M  V30 376 H 31.2453 -7.79004 0.278102 0
M  V30 377 N 35.4744 -0.807222 -1.35358 0
M  V30 378 C 36.4374 -0.223665 -2.28106 0
M  V30 379 C 37.4374 0.589354 -1.4961 0
M  V30 380 O 38.6274 0.407745 -1.69361 0
M  V30 381 C 35.7594 0.688149 -3.33882 0
M  V30 382 H 36.9524 -1.04169 -2.81227 0
M  V30 383 H 34.5054 -0.577921 -1.45223 0
M  V30 384 H 35.2404 1.52984 -2.85948 0
M  V30 385 H 35.0254 0.10687 -3.91954 0
M  V30 386 H 36.5154 1.09075 -4.03104 0
M  V30 387 N 36.9525 1.47285 -0.560781 0
M  V30 388 C 38.3685 1.58065 -0.22081 0
M  V30 389 C 38.5685 1.55892 1.27671 0
M  V30 390 O 37.6245 1.46422 2.0571 0
M  V30 391 C 38.9375 2.88418 -0.850625 0
M  V30 392 C 40.4855 3.02009 -0.822184 0
M  V30 393 C 40.9605 4.35066 -1.43113 0
M  V30 394 N 42.4515 4.41711 -1.39448 0
M  V30 395 C 43.1865 5.43237 -1.83525 0
M  V30 396 N 42.6825 6.51555 -2.35474 0
M  V30 397 N 44.4755 5.34304 -1.74574 0
M  V30 398 H 36.6265 1.46941 -1.53369 0
M  V30 399 H 38.8895 0.699558 -0.639783 0
M  V30 400 H 38.5955 2.95755 -1.9032 0
M  V30 401 H 38.4695 3.75612 -0.345773 0
M  V30 402 H 40.8565 2.94266 0.221714 0
M  V30 403 H 40.9375 2.16347 -1.36483 0
M  V30 404 H 40.5815 4.43565 -2.47412 0
M  V30 405 H 40.5115 5.19465 -0.863899 0
M  V30 406 H 43.0025 3.64027 -1.01452 0
M  V30 407 H 43.3155 7.25203 -2.67021 0
M  V30 408 H 41.6605 6.52435 -2.39487 0
M  V30 409 H 44.8515 4.48581 -1.33763 0
M  V30 410 H 45.0245 6.13288 -2.09242 0
M  V30 411 N 38.4306 0.297415 1.54768 0
M  V30 412 C 39.6786 -0.312295 1.99673 0
M  V30 413 C 39.9996 -1.54686 1.18732 0
M  V30 414 O 39.2696 -1.93854 0.282382 0
M  V30 415 H 37.8496 -0.118381 0.73756 0
M  V30 416 H 40.5116 0.407915 1.90583 0
M  V30 417 H 39.6076 -0.586813 3.06534 0
M  V30 418 N 39.9087 -1.5758 0.0250728 0
M  V30 419 C 41.1367 -1.9593 -0.664747 0
M  V30 420 C 41.5517 -0.901352 -1.65895 0
M  V30 421 O 40.9087 0.117255 -1.82123 0
M  V30 422 C 40.9597 -3.34342 -1.37468 0
M  V30 423 O 40.6807 -4.36079 -0.420324 0
M  V30 424 C 42.1817 -3.873 -2.1567 0
M  V30 425 H 39.4017 -0.645405 -0.183557 0
M  V30 426 H 41.9457 -2.04329 0.0836372 0
M  V30 427 H 40.1007 -3.27175 -2.0745 0
M  V30 428 H 40.5147 -5.16297 -0.923991 0
M  V30 429 H 41.9887 -4.86504 -2.60803 0
M  V30 430 H 42.4657 -3.21331 -2.99405 0
M  V30 431 H 43.0717 -3.97723 -1.50654 0
M  V30 432 N 41.3868 0.248026 -1.55636 0
M  V30 433 C 42.6348 0.974295 -1.77065 0
M  V30 434 C 42.9558 1.85897 -0.588849 0
M  V30 435 O 42.2258 1.91868 0.395407 0
M  V30 436 H 40.8058 0.362733 -0.653019 0
M  V30 437 H 43.4678 0.266244 -1.93073 0
M  V30 438 H 42.5638 1.59667 -2.68166 0
M  V30 439 N 42.8649 1.48995 0.513639 0
M  V30 440 C 43.7749 1.67443 1.64317 0
M  V30 441 C 44.7909 0.556947 1.64846 0
M  V30 442 O 45.9669 0.830082 1.83498 0
M  V30 443 C 43.0319 1.72515 3.00732 0
M  V30 444 C 42.0929 2.96009 3.1093 0
M  V30 445 C 41.3259 3.00829 4.40837 0
M  V30 446 O 41.5489 2.13594 5.28898 0
M  V30 447 O 40.4829 3.93168 4.55744 0
M  V30 448 H 44.3089 2.63106 1.51687 0
M  V30 449 H 41.8939 1.32588 0.688543 0
M  V30 450 H 43.7759 1.78277 3.81831 0
M  V30 451 H 42.4509 0.800278 3.13651 0
M  V30 452 H 41.3579 2.9577 2.29065 0
M  V30 453 H 42.6909 3.87934 3.02933 0
M  V30 454 N 44.343 -0.763751 1.37857 0
M  V30 455 C 45.273 -1.89103 1.36975 0
M  V30 456 C 46.254 -1.68439 0.237152 0
M  V30 457 O 47.439 -1.8918 0.438713 0
M  V30 458 C 44.569 -3.26496 1.18395 0
M  V30 459 C 43.523 -3.61741 2.28751 0
M  V30 460 C 42.849 -4.97762 1.95286 0
M  V30 461 C 44.149 -3.67665 3.70972 0
M  V30 462 H 45.843 -1.90099 2.31307 0
M  V30 463 H 43.389 -0.91319 1.11341 0
M  V30 464 H 45.342 -4.05003 1.16406 0
M  V30 465 H 44.066 -3.25955 0.205215 0
M  V30 466 H 42.725 -2.85547 2.29909 0
M  V30 467 H 42.373 -4.93769 0.959221 0
M  V30 468 H 42.073 -5.22313 2.69189 0
M  V30 469 H 43.597 -5.7866 1.94898 0
M  V30 470 H 45.011 -4.36307 3.719 0
M  V30 471 H 43.408 -4.03718 4.43995 0
M  V30 472 H 44.478 -2.68134 4.0402 0
M  V30 473 N 45.8211 -1.22559 -0.990812 0
M  V30 474 C 47.0491 -1.07779 -1.76611 0
M  V30 475 C 47.4641 0.371513 -1.85109 0
M  V30 476 O 46.8211 1.25737 -1.32274 0
M  V30 477 C 46.8721 -1.68512 -3.19822 0
M  V30 478 O 46.5931 -3.07774 -3.1178 0
M  V30 479 C 48.0941 -1.59035 -4.13791 0
M  V30 480 H 45.3141 -0.377729 -0.554583 0
M  V30 481 H 47.8581 -1.62195 -1.24551 0
M  V30 482 H 46.0131 -1.18154 -3.68942 0
M  V30 483 H 46.4271 -3.37062 -4.01858 0
M  V30 484 H 47.9011 -2.0625 -5.1202 0
M  V30 485 H 48.3781 -0.547273 -4.35777 0
M  V30 486 H 48.9841 -2.08709 -3.70568 0
M  V30 487 N 47.2992 1.18797 -1.03562 0
M  V30 488 C 48.2312 2.21731 -0.580337 0
M  V30 489 C 49.2442 1.59051 0.347349 0
M  V30 490 O 50.4332 1.77929 0.142669 0
M  V30 491 C 47.5332 3.38459 0.172805 0
M  V30 492 C 46.7062 4.3072 -0.761496 0
M  V30 493 C 45.7652 5.26174 -0.0525547 0
M  V30 494 O 44.7912 5.65108 -0.681333 0
M  V30 495 N 45.9932 5.67624 1.21586 0
M  V30 496 H 48.7582 2.61417 -1.46565 0
M  V30 497 H 46.3192 1.33531 -0.915476 0
M  V30 498 H 48.3112 3.99335 0.656793 0
M  V30 499 H 46.8812 2.97507 0.959602 0
M  V30 500 H 46.1012 3.67525 -1.42544 0
M  V30 501 H 47.3892 4.89267 -1.39626 0
M  V30 502 H 46.7872 5.38038 1.74732 0
M  V30 503 H 45.3442 6.30721 1.64421 0
M  V30 504 N 48.7773 0.814389 1.34928 0
M  V30 505 C 49.7073 0.244827 2.32213 0
M  V30 506 C 50.6883 -0.634024 1.57842 0
M  V30 507 O 51.8733 -0.562676 1.8587 0
M  V30 508 C 49.0033 -0.601106 3.42058 0
M  V30 509 C 47.9573 0.179896 4.27622 0
M  V30 510 C 47.2833 -0.788237 5.28858 0
M  V30 511 C 48.5833 1.38329 5.03649 0
M  V30 512 H 50.2773 1.05763 2.80097 0
M  V30 513 H 47.8233 0.510029 1.34665 0
M  V30 514 H 49.7763 -1.00968 4.09125 0
M  V30 515 H 48.5003 -1.44688 2.92802 0
M  V30 516 H 47.1593 0.569739 3.62146 0
M  V30 517 H 46.8073 -1.62973 4.75866 0
M  V30 518 H 46.5073 -0.269942 5.8698 0
M  V30 519 H 48.0313 -1.19485 5.98795 0
M  V30 520 H 49.4453 1.04918 5.63618 0
M  V30 521 H 47.8423 1.83662 5.71304 0
M  V30 522 H 48.9123 2.16592 4.33839 0
M  V30 523 N 50.2554 -1.46986 0.568584 0
M  V30 524 C 51.1854 -2.32946 -0.160753 0
M  V30 525 C 52.1664 -1.44487 -0.897631 0
M  V30 526 O 53.3514 -1.73327 -0.875867 0
M  V30 527 C 50.4814 -3.26494 -1.18403 0
M  V30 528 C 49.4354 -4.24282 -0.562895 0
M  V30 529 C 48.7614 -5.07236 -1.69163 0
M  V30 530 C 50.0614 -5.19989 0.490761 0
M  V30 531 H 51.7554 -2.94175 0.556916 0
M  V30 532 H 49.3014 -1.4146 0.26927 0
M  V30 533 H 51.2544 -3.85477 -1.70251 0
M  V30 534 H 49.9784 -2.63343 -1.93179 0
M  V30 535 H 48.6374 -3.66541 -0.0656164 0
M  V30 536 H 48.2854 -4.4048 -2.42871 0
M  V30 537 H 47.9854 -5.7345 -1.28174 0
M  V30 538 H 49.5094 -5.6908 -2.21314 0
M  V30 539 H 50.9234 -5.73271 0.0579047 0
M  V30 540 H 49.3204 -5.94469 0.820165 0
M  V30 541 H 50.3904 -4.64777 1.3824 0
M  V30 542 N 51.7335 -0.305618 -1.54608 0
M  V30 543 C 52.6815 0.584119 -2.25146 0
M  V30 544 C 53.6755 1.13326 -1.25911 0
M  V30 545 O 54.8815 1.08337 -1.43747 0
M  V30 546 H 51.2565 0.206983 -0.722954 0
M  V30 547 H 53.2275 -0.033291 -2.98381 0
M  V30 548 C 51.9765 1.74225 -3.009 0
M  V30 549 H 51.2995 1.32892 -3.77067 0
M  V30 550 H 52.7395 2.34077 -3.53531 0
M  V30 551 C 51.1985 2.64914 -2.0814 0
M  V30 552 O 51.7285 3.66137 -1.65246 0
M  V30 553 N 49.9345 2.3275 -1.74 0
M  V30 554 H 49.4815 1.50479 -2.09078 0
M  V30 555 H 49.4395 2.93694 -1.12211 0
M  V30 556 N 53.2116 1.57565 -0.0334293 0
M  V30 557 C 54.4366 1.96689 0.657895 0
M  V30 558 C 54.8616 0.910057 1.64619 0
M  V30 559 O 54.2196 -0.128598 1.80843 0
M  V30 560 C 54.2676 3.34905 1.33683 0
M  V30 561 O 53.3716 3.31574 2.45219 0
M  V30 562 H 52.7126 0.641205 0.172489 0
M  V30 563 H 55.2426 2.04372 -0.0965621 0
M  V30 564 H 55.2526 3.71234 1.69262 0
M  V30 565 H 53.9276 4.11366 0.612411 0
M  V30 566 H 52.5046 3.06968 2.11719 0
M  V30 567 N 54.6897 -0.239769 1.55765 0
M  V30 568 C 55.6197 -1.30052 1.9393 0
M  V30 569 C 56.6007 -1.49839 0.805132 0
M  V30 570 O 57.7857 -1.62328 1.06599 0
M  V30 571 C 54.9157 -2.65391 2.2402 0
M  V30 572 C 53.8697 -2.60289 3.39755 0
M  V30 573 C 53.1957 -3.99489 3.55405 0
M  V30 574 C 54.4957 -2.16654 4.75246 0
M  V30 575 H 56.1897 -0.983573 2.82783 0
M  V30 576 H 53.7357 -0.471701 1.36055 0
M  V30 577 H 55.6887 -3.3974 2.49308 0
M  V30 578 H 54.4127 -2.98736 1.32 0
M  V30 579 H 53.0717 -1.88398 3.14487 0
M  V30 580 H 52.7197 -4.30112 2.60793 0
M  V30 581 H 52.4197 -3.96962 4.33238 0
M  V30 582 H 53.9437 -4.75528 3.83022 0
M  V30 583 H 55.3577 -2.80737 4.99859 0
M  V30 584 H 53.7547 -2.25223 5.56232 0
M  V30 585 H 54.8247 -1.11835 4.71827 0
M  V30 586 N 56.1678 -1.49265 -0.50573 0
M  V30 587 C 57.4078 -1.60128 -1.27038 0
M  V30 588 C 57.7718 -0.279557 -1.89954 0
M  V30 589 O 58.9728 -0.263329 -2.67507 0
M  V30 590 C 57.2438 -2.72507 -2.31246 0
M  V30 591 S 58.8028 -3.0329 -3.17113 0
M  V30 592 H 55.6208 -0.564863 -0.4318 0
M  V30 593 H 58.2228 -1.86902 -0.573397 0
M  V30 594 H 56.9268 -3.67068 -1.83546 0
M  V30 595 H 56.4578 -2.4771 -3.05619 0
M  V30 596 H 58.4728 -2.44448 -4.31809 0
M  V30 597 N 57.6459 0.756429 -1.3826 0
M  V30 598 C 58.8739 1.54565 -1.3754 0
M  V30 599 C 59.2889 1.88767 0.0355331 0
M  V30 600 O 58.6459 1.52572 1.0014 0
M  V30 601 C 58.6969 2.84654 -2.22833 0
M  V30 602 O 58.4179 2.51912 -3.5843 0
M  V30 603 C 59.9189 3.78807 -2.30261 0
M  V30 604 H 57.1389 0.478353 -0.470553 0
M  V30 605 H 59.6829 0.936381 -1.81803 0
M  V30 606 H 57.8379 3.41965 -1.8204 0
M  V30 607 H 58.2519 3.35325 -4.03308 0
M  V30 608 H 59.7259 4.67045 -2.94233 0
M  V30 609 H 60.2029 4.19038 -1.31545 0
M  V30 610 H 60.8089 3.2742 -2.71433 0
M  V30 611 N 59.124 1.23083 0.984299 0
M  V30 612 C 60.087 1.00979 2.05757 0
M  V30 613 C 61.087 -0.0269573 1.60777 0
M  V30 614 O 62.277 0.212403 1.729 0
M  V30 615 C 59.409 0.527072 3.36801 0
M  V30 616 H 60.602 1.9622 2.26799 0
M  V30 617 H 58.155 1.05072 1.15714 0
M  V30 618 H 58.89 -0.429294 3.21446 0
M  V30 619 H 58.675 1.27515 3.70786 0
M  V30 620 H 60.165 0.392942 4.15747 0
M  V30 621 N 60.6021 -1.18246 1.0419 0
M  V30 622 C 61.8481 -1.88536 0.747122 0
M  V30 623 C 62.1811 -1.80223 -0.723409 0
M  V30 624 O 61.4561 -1.20337 -1.52804 0
M  V30 625 C 61.7391 -3.38968 1.21544 0
M  V30 626 C 61.5921 -3.56084 2.74816 0
M  V30 627 C 62.9111 -4.32648 0.806482 0
M  V30 628 H 60.0301 -0.684619 0.272883 0
M  V30 629 H 62.6721 -1.39113 1.29413 0
M  V30 630 H 60.8221 -3.8119 0.750081 0
M  V30 631 H 62.4941 -3.22946 3.29399 0
M  V30 632 H 60.7371 -2.98699 3.14582 0
M  V30 633 H 61.4081 -4.61639 3.02644 0
M  V30 634 H 63.8841 -3.98211 1.20695 0
M  V30 635 H 62.7601 -5.36462 1.1619 0
M  V30 636 H 63.0211 -4.41146 -0.29029 0
M  V30 637 N 62.0802 -0.821533 -1.34494 0
M  V30 638 C 63.0272 -0.240397 -2.29545 0
M  V30 639 C 63.9972 0.634031 -1.53523 0
M  V30 640 O 65.1822 0.575966 -1.81899 0
M  V30 641 C 62.3222 0.592869 -3.39969 0
M  V30 642 C 61.4352 -0.30365 -4.30932 0
M  V30 643 C 60.5702 0.539049 -5.28458 0
M  V30 644 C 59.6092 -0.356942 -6.11058 0
M  V30 645 N 58.7462 0.446603 -7.00678 0
M  V30 646 H 63.5862 -1.05632 -2.7865 0
M  V30 647 H 61.1232 -0.532413 -1.37127 0
M  V30 648 H 63.0812 1.09129 -4.02675 0
M  V30 649 H 61.7112 1.37392 -2.92102 0
M  V30 650 H 60.7632 -0.920276 -3.691 0
M  V30 651 H 62.0752 -0.992661 -4.88823 0
M  V30 652 H 61.2292 1.102 -5.96608 0
M  V30 653 H 59.9682 1.26157 -4.71101 0
M  V30 654 H 58.9732 -0.932047 -5.41842 0
M  V30 655 H 60.1982 -1.07755 -6.70497 0
M  V30 656 H 58.1442 1.15282 -6.45791 0
M  V30 657 H 58.0612 -0.184048 -7.55776 0
M  V30 658 H 59.3292 0.992352 -7.73158 0
M  V30 659 N 63.5583 1.46682 -0.576371 0
M  V30 660 C 64.5213 2.28707 0.150239 0
M  V30 661 C 65.5213 1.38035 0.824794 0
M  V30 662 O 66.7113 1.60476 0.677719 0
M  V30 663 C 63.8433 3.18248 1.22192 0
M  V30 664 H 65.0363 2.94423 -0.570521 0
M  V30 665 H 62.5893 1.52688 -0.334078 0
M  V30 666 H 63.3243 2.57265 1.97447 0
M  V30 667 H 63.1093 3.85 0.742812 0
M  V30 668 H 64.5993 3.80001 1.73172 0
M  V30 669 N 65.0364 0.313813 1.54444 0
M  V30 670 C 66.2854 -0.292519 1.99568 0
M  V30 671 C 66.5984 -1.54011 1.20582 0
M  V30 672 O 67.8044 -2.22183 1.56035 0
M  V30 673 C 66.2604 -0.571752 3.55329 0
M  V30 674 C 65.8684 0.658229 4.43138 0
M  V30 675 C 67.6124 -1.13857 4.08946 0
M  V30 676 C 65.5194 0.351439 5.90355 0
M  V30 677 H 64.4494 -0.113079 0.745472 0
M  V30 678 H 67.1004 0.424518 1.78522 0
M  V30 679 H 65.4824 -1.34872 3.72325 0
M  V30 680 H 66.6564 1.43403 4.37918 0
M  V30 681 H 64.9714 1.14458 4.0036 0
M  V30 682 H 67.5684 -1.38257 5.16516 0
M  V30 683 H 67.9114 -2.08489 3.6033 0
M  V30 684 H 68.4444 -0.423015 3.95544 0
M  V30 685 H 65.1834 1.26667 6.43145 0
M  V30 686 H 64.7034 -0.386842 5.98551 0
M  V30 687 H 66.3824 -0.0423134 6.46986 0
M  V30 688 N 66.5145 -1.57545 0.0417849 0
M  V30 689 C 67.7395 -1.97035 -0.647455 0
M  V30 690 C 68.1645 -0.918775 -1.64135 0
M  V30 691 O 67.5225 0.119006 -1.80909 0
M  V30 692 C 67.5705 -3.35609 -1.31905 0
M  V30 693 O 66.6745 -3.3287 -2.43457 0
M  V30 694 H 66.0155 -0.64211 -0.169086 0
M  V30 695 H 68.5455 -2.04318 0.107399 0
M  V30 696 H 68.5555 -3.72126 -1.67291 0
M  V30 697 H 67.2305 -4.11685 -0.590586 0
M  V30 698 H 65.8075 -3.08087 -2.10088 0
M  V30 699 N 67.9926 0.231505 -1.5589 0
M  V30 700 C 69.2176 0.978689 -1.82856 0
M  V30 701 C 69.6426 1.77559 -0.620846 0
M  V30 702 O 69.0006 1.76119 0.430305 0
M  V30 703 C 69.0486 1.87997 -3.07716 0
M  V30 704 O 68.1526 2.97393 -2.85712 0
M  V30 705 H 67.4936 0.277663 -0.603158 0
M  V30 706 H 70.0236 0.24783 -2.03093 0
M  V30 707 H 70.0336 2.2917 -3.37558 0
M  V30 708 H 68.7086 1.29417 -3.95252 0
M  V30 709 H 67.2856 2.60238 -2.67078 0
M  V30 710 N 69.4707 1.49531 0.497807 0
M  V30 711 C 70.4337 1.65916 1.58128 0
M  V30 712 C 71.4337 0.530825 1.51786 0
M  V30 713 O 72.6237 0.797342 1.54881 0
M  V30 714 C 69.7557 1.65951 2.9778 0
M  V30 715 H 70.9487 2.62556 1.44929 0
M  V30 716 H 68.5017 1.38611 0.722275 0
M  V30 717 H 69.2367 0.709065 3.16453 0
M  V30 718 H 69.0217 2.47897 3.03792 0
M  V30 719 H 70.5117 1.80673 3.76493 0
M  V30 720 N 70.9488 -0.749086 1.3866 0
M  V30 721 C 72.1948 -1.51056 1.35314 0
M  V30 722 C 72.5278 -1.94121 -0.0553751 0
M  V30 723 O 71.8028 -1.65763 -1.01749 0
M  V30 724 C 72.0858 -2.76003 2.31288 0
M  V30 725 C 71.9388 -2.39047 3.8102 0
M  V30 726 C 73.2578 -3.78046 2.2532 0
M  V30 727 H 70.3768 -0.547972 0.492844 0
M  V30 728 H 73.0188 -0.857628 1.69543 0
M  V30 729 H 71.1688 -3.31716 2.02229 0
M  V30 730 H 72.8408 -1.89074 4.20771 0
M  V30 731 H 71.0838 -1.71449 3.98482 0
M  V30 732 H 71.7548 -3.28462 4.4364 0
M  V30 733 H 74.2308 -3.31884 2.50983 0
M  V30 734 H 73.1068 -4.63159 2.94576 0
M  V30 735 H 73.3678 -4.23957 1.25352 0
M  V30 736 N 72.4269 -1.23603 -0.977757 0
M  V30 737 C 73.8429 -0.999251 -1.24447 0
M  V30 738 C 74.0429 0.298053 -1.99283 0
M  V30 739 O 73.0989 1.01681 -2.31122 0
M  V30 740 C 74.4119 -2.20784 -2.04144 0
M  V30 741 C 75.9599 -2.25303 -2.17273 0
M  V30 742 C 76.4349 -3.45755 -3.00362 0
M  V30 743 N 77.9259 -3.4601 -3.07947 0
M  V30 744 C 78.6609 -4.35868 -3.72568 0
M  V30 745 N 78.1569 -5.35966 -4.38991 0
M  V30 746 N 79.9499 -4.23605 -3.6948 0
M  V30 747 H 72.1009 -2.06986 -0.476483 0
M  V30 748 H 74.3639 -0.907801 -0.273134 0
M  V30 749 H 74.0699 -3.14945 -1.56533 0
M  V30 750 H 73.9439 -2.22085 -3.04891 0
M  V30 751 H 76.3309 -1.3168 -2.64092 0
M  V30 752 H 76.4119 -2.28033 -1.15907 0
M  V30 753 H 76.0559 -4.39687 -2.5424 0
M  V30 754 H 75.9859 -3.40266 -4.01904 0
M  V30 755 H 78.4769 -2.73588 -2.60688 0
M  V30 756 H 78.7899 -6.00783 -4.86086 0
M  V30 757 H 77.1349 -5.39863 -4.37691 0
M  V30 758 H 80.3259 -3.44647 -3.16759 0
M  V30 759 H 80.4989 -4.93836 -4.1956 0
M  V30 760 N 73.905 1.17692 -1.04816 0
M  V30 761 C 74.852 2.21581 -0.645797 0
M  V30 762 C 75.822 1.62367 0.350159 0
M  V30 763 O 77.007 1.89254 0.242433 0
M  V30 764 C 74.147 3.45092 -0.0227568 0
M  V30 765 C 73.26 4.18613 -1.06709 0
M  V30 766 C 72.395 5.29602 -0.411767 0
M  V30 767 C 71.434 5.94904 -1.44067 0
M  V30 768 N 70.571 6.97414 -0.809781 0
M  V30 769 H 75.411 2.55353 -1.5362 0
M  V30 770 H 72.948 1.25438 -0.768364 0
M  V30 771 H 74.906 4.15679 0.35588 0
M  V30 772 H 73.536 3.11917 0.831122 0
M  V30 773 H 72.588 3.46779 -1.5636 0
M  V30 774 H 73.9 4.63293 -1.84827 0
M  V30 775 H 73.054 6.06696 0.0206623 0
M  V30 776 H 71.793 4.86045 0.401438 0
M  V30 777 H 70.798 5.16544 -1.88316 0
M  V30 778 H 72.023 6.40542 -2.25571 0
M  V30 779 H 69.969 6.55998 -0.0170186 0
M  V30 780 H 69.886 7.40386 -1.52856 0
M  V30 781 H 71.154 7.78463 -0.401999 0
M  V30 782 N 75.3831 0.828654 1.34056 0
M  V30 783 C 76.3461 0.259927 2.27721 0
M  V30 784 C 77.3461 -0.565478 1.50529 0
M  V30 785 O 78.5361 -0.38075 1.69988 0
M  V30 786 C 75.6681 -0.634944 3.34935 0
M  V30 787 H 76.8611 1.0863 2.79534 0
M  V30 788 H 74.4141 0.600951 1.44285 0
M  V30 789 H 75.1491 -1.48416 2.88346 0
M  V30 790 H 74.9341 -0.0444999 3.92075 0
M  V30 791 H 76.4241 -1.02648 4.04788 0
M  V30 792 N 76.8612 -1.46375 0.584142 0
M  V30 793 C 78.1092 -2.01978 0.0701287 0
M  V30 794 C 78.4302 -1.4579 -1.295 0
M  V30 795 O 77.7002 -0.64314 -1.85042 0
M  V30 796 H 76.2802 -0.746648 0.0229345 0
M  V30 797 H 78.9422 -1.79461 0.760245 0
M  V30 798 H 78.0382 -3.121 0.0022064 0
M  V30 799 N 78.3393 -0.321999 -1.54275 0
M  V30 800 C 79.5883 0.281931 -1.9972 0
M  V30 801 C 79.9013 1.53369 -1.21397 0
M  V30 802 O 81.1073 2.21352 -1.57211 0
M  V30 803 C 79.5633 0.5529 -3.55628 0
M  V30 804 C 79.1713 -0.681721 -4.42783 0
M  V30 805 C 80.9153 1.11687 -4.09544 0
M  V30 806 C 78.8223 -0.382742 -5.9016 0
M  V30 807 H 77.7523 0.109124 -0.746062 0
M  V30 808 H 80.4033 -0.43398 -1.78294 0
M  V30 809 H 78.7853 1.32896 -3.73035 0
M  V30 810 H 79.9593 -1.45723 -4.37151 0
M  V30 811 H 78.2743 -1.1658 -3.99748 0
M  V30 812 H 80.8713 1.35515 -5.17242 0
M  V30 813 H 81.2143 2.06575 -3.61431 0
M  V30 814 H 81.7473 0.402032 -3.95763 0
M  V30 815 H 78.4863 -1.30076 -6.42464 0
M  V30 816 H 78.0063 0.355094 -5.98748 0
M  V30 817 H 79.6853 0.00800157 -6.47 0
M  V30 818 N 79.8174 1.5752 -0.0501392 0
M  V30 819 C 80.7804 2.1037 0.909786 0
M  V30 820 C 81.7804 1.02308 1.24056 0
M  V30 821 O 82.9704 1.28385 1.17741 0
M  V30 822 C 80.1024 2.58708 2.21998 0
M  V30 823 H 81.2954 2.96479 0.451665 0
M  V30 824 H 78.8484 1.55038 0.198248 0
M  V30 825 H 79.5834 1.75989 2.72394 0
M  V30 826 H 79.3684 3.37675 1.99295 0
M  V30 827 H 80.8584 2.99747 2.9076 0
M  V30 828 N 81.2955 -0.223234 1.56011 0
M  V30 829 C 82.2455 -1.28008 1.88674 0
M  V30 830 C 83.2295 -1.42369 0.749663 0
M  V30 831 O 84.4215 -1.45212 1.01205 0
M  V30 832 C 81.5505 -2.63084 2.20548 0
M  V30 833 C 80.6365 -2.52632 3.40643 0
M  V30 834 N 81.0275 -2.11829 4.59306 0
M  V30 835 C 79.3255 -2.83594 3.44224 0
M  V30 836 C 80.0265 -2.12587 5.41463 0
M  V30 837 N 79.0025 -2.5301 4.81131 0
M  V30 838 H 82.8045 -0.955487 2.77935 0
M  V30 839 H 80.3185 -0.431801 1.56554 0
M  V30 840 H 82.3155 -3.39385 2.42122 0
M  V30 841 H 80.9755 -2.96391 1.32599 0
M  V30 842 H 81.9865 -1.82988 4.84496 0
M  V30 843 H 78.6635 -3.21284 2.66614 0
M  V30 844 H 80.0535 -1.83179 6.46448 0
M  V30 845 N 82.7736 -1.49793 -0.48987 0
M  V30 846 C 83.7036 -1.70201 -1.59856 0
M  V30 847 C 84.6846 -0.55076 -1.60937 0
M  V30 848 O 85.8696 -0.787841 -1.77501 0
M  V30 849 C 82.9996 -1.77882 -2.98287 0
M  V30 850 C 81.9536 -2.92907 -3.12073 0
M  V30 851 C 81.2796 -2.85712 -4.51965 0
M  V30 852 C 82.5796 -4.3369 -2.91051 0
M  V30 853 H 84.2736 -2.63025 -1.43032 0
M  V30 854 H 81.8196 -1.26574 -0.686664 0
M  V30 855 H 83.7726 -1.90744 -3.75759 0
M  V30 856 H 82.4966 -0.816653 -3.16225 0
M  V30 857 H 81.1556 -2.79665 -2.37029 0
M  V30 858 H 80.8036 -1.8738 -4.66795 0
M  V30 859 H 80.5036 -3.62921 -4.62128 0
M  V30 860 H 82.0276 -3.00598 -5.31482 0
M  V30 861 H 83.4416 -4.47555 -3.58284 0
M  V30 862 H 81.8386 -5.12205 -3.12675 0
M  V30 863 H 82.9086 -4.47362 -1.87071 0
M  V30 864 N 84.2517 0.741722 -1.39055 0
M  V30 865 C 85.4817 1.52876 -1.3897 0
M  V30 866 C 85.8897 1.8919 0.0193266 0
M  V30 867 O 85.2327 1.54138 0.999356 0
M  V30 868 C 85.2947 2.84929 -2.19216 0
M  V30 869 C 84.9587 2.71086 -3.67915 0
M  V30 870 C 85.9557 2.40084 -4.61146 0
M  V30 871 C 83.6407 2.88168 -4.11418 0
M  V30 872 C 85.6347 2.26335 -5.95862 0
M  V30 873 C 83.3217 2.74037 -5.46211 0
M  V30 874 C 84.3197 2.43166 -6.38247 0
M  V30 875 O 84.0077 2.29115 -7.70559 0
M  V30 876 H 83.7397 0.479252 -0.476753 0
M  V30 877 H 86.2937 0.924751 -1.83405 0
M  V30 878 H 84.5237 3.47564 -1.69518 0
M  V30 879 H 86.2127 3.46509 -2.11392 0
M  V30 880 H 86.9787 2.26545 -4.28838 0
M  V30 881 H 82.8577 3.11191 -3.40119 0
M  V30 882 H 86.4017 2.0216 -6.67665 0
M  V30 883 H 82.2987 2.87153 -5.78112 0
M  V30 884 H 83.0667 2.44237 -7.81211 0
M  V30 885 N 85.7298 1.2412 0.971189 0
M  V30 886 C 86.9778 1.07668 1.71032 0
M  V30 887 C 87.2988 -0.385797 1.91146 0
M  V30 888 O 86.5688 -1.27569 1.4867 0
M  V30 889 H 85.1488 0.395429 0.633755 0
M  V30 890 H 87.8108 1.55984 1.16855 0
M  V30 891 H 86.9068 1.57195 2.69622 0
M  V30 892 N 87.2079 -1.17134 1.05439 0
M  V30 893 C 88.4569 -1.86791 0.761049 0
M  V30 894 C 88.7699 -1.82072 -0.714795 0
M  V30 895 O 89.9759 -2.47223 -1.12218 0
M  V30 896 C 88.4319 -3.35166 1.31117 0
M  V30 897 C 88.0399 -3.48381 2.81664 0
M  V30 898 C 89.7839 -4.10134 1.09499 0
M  V30 899 C 87.6909 -4.90793 3.29964 0
M  V30 900 H 86.6209 -0.699681 0.281002 0
M  V30 901 H 89.2719 -1.3226 1.27199 0
M  V30 902 H 87.6539 -3.8925 0.72803 0
M  V30 903 H 88.8279 -3.04502 3.45855 0
M  V30 904 H 87.1429 -2.86836 3.01851 0
M  V30 905 H 89.7399 -5.152 1.43084 0
M  V30 906 H 90.0829 -4.16287 0.0328772 0
M  V30 907 H 90.6159 -3.62264 1.64346 0
M  V30 908 H 87.3549 -4.89816 4.35616 0
M  V30 909 H 86.8749 -5.35333 2.70516 0
M  V30 910 H 88.5539 -5.59573 3.24787 0
M  V30 911 N 88.686 -0.835752 -1.33615 0
M  V30 912 C 89.649 -0.272 -2.2758 0
M  V30 913 C 90.649 0.557487 -1.50827 0
M  V30 914 O 91.839 0.37173 -1.70188 0
M  V30 915 C 88.971 0.617173 -3.35267 0
M  V30 916 H 90.164 -1.10111 -2.78954 0
M  V30 917 H 87.717 -0.608594 -1.43965 0
M  V30 918 H 88.452 1.46884 -2.89129 0
M  V30 919 H 88.237 0.0237066 -3.92093 0
M  V30 920 H 89.727 1.005 -4.05326 0
M  V30 921 N 90.1641 1.46063 -0.591896 0
M  V30 922 C 91.4121 2.01938 -0.0808391 0
M  V30 923 C 91.7331 1.46475 1.28725 0
M  V30 924 O 91.0031 0.652944 1.84698 0
M  V30 925 H 89.5831 0.746516 -0.0268938 0
M  V30 926 H 92.2451 1.79055 -0.769752 0
M  V30 927 H 91.3411 3.12094 -0.0187578 0
M  V30 928 N 91.6422 0.330177 1.54103 0
M  V30 929 C 92.8672 -0.274893 2.0557 0
M  V30 930 C 93.2922 -1.44487 1.20437 0
M  V30 931 O 92.6502 -1.80021 0.214991 0
M  V30 932 C 92.6982 -0.68079 3.54115 0
M  V30 933 O 91.8022 -1.7824 3.71893 0
M  V30 934 H 91.1432 -0.0483849 0.662235 0
M  V30 935 H 93.6732 0.480508 1.98878 0
M  V30 936 H 93.6832 -0.961635 3.96505 0
M  V30 937 H 92.3582 0.174903 4.15532 0
M  V30 938 H 90.9352 -1.49985 3.41407 0
M  V30 939 N 93.1203 -1.57491 0.0584922 0
M  V30 940 C 94.3483 -1.97296 -0.623037 0
M  V30 941 C 94.7633 -0.936338 -1.63946 0
M  V30 942 O 94.1203 0.0785981 -1.82331 0
M  V30 943 C 94.1713 -3.37183 -1.30345 0
M  V30 944 O 93.8923 -4.36872 -0.32773 0
M  V30 945 C 95.3933 -3.91788 -2.07406 0
M  V30 946 H 92.6133 -0.649153 -0.169826 0
M  V30 947 H 95.1573 -2.04106 0.12696 0
M  V30 948 H 93.3123 -3.31502 -2.00463 0
M  V30 949 H 93.7263 -5.18141 -0.814269 0
M  V30 950 H 95.2003 -4.91926 -2.50425 0
M  V30 951 H 95.6773 -3.27609 -2.92521 0
M  V30 952 H 96.2833 -4.00829 -1.42184 0
M  V30 953 N 94.5984 0.214957 -1.56127 0
M  V30 954 C 95.5464 1.28601 -1.93816 0
M  V30 955 C 96.5404 1.48175 -0.821016 0
M  V30 956 O 97.7464 1.49271 -1.0059 0
M  V30 957 H 94.1214 0.431302 -0.616022 0
M  V30 958 H 96.0924 0.940991 -2.83175 0
M  V30 959 C 94.8414 2.62779 -2.27689 0
M  V30 960 H 94.1644 2.48527 -3.13168 0
M  V30 961 H 95.6044 3.36517 -2.57939 0
M  V30 962 C 94.0634 3.18285 -1.10436 0
M  V30 963 O 94.5934 4.00002 -0.368945 0
M  V30 964 N 92.7994 2.7675 -0.886433 0
M  V30 965 H 92.3464 2.10404 -1.48619 0
M  V30 966 H 92.3044 3.14229 -0.103656 0
M  V30 967 N 96.0765 1.50051 0.48192 0
M  V30 968 C 97.3225 1.60736 1.2366 0
M  V30 969 C 97.6555 0.301786 1.91841 0
M  V30 970 O 96.9305 -0.696025 1.8162 0
M  V30 971 C 97.2135 2.78009 2.28874 0
M  V30 972 C 97.0665 4.18416 1.65069 0
M  V30 973 C 98.3855 2.90867 3.30279 0
M  V30 974 H 95.5045 0.585031 0.448228 0
M  V30 975 H 98.1465 1.82402 0.531946 0
M  V30 976 H 96.2965 2.59667 2.88973 0
M  V30 977 H 97.9685 4.48322 1.0865 0
M  V30 978 H 96.2115 4.23177 0.954148 0
M  V30 979 H 96.8825 4.96381 2.41474 0
M  V30 980 H 99.3585 3.07623 2.80191 0
M  V30 981 H 98.2345 3.74566 4.01238 0
M  V30 982 H 98.4955 2.01021 3.93755 0
M  V30 983 N 97.5546 -0.734337 1.39446 0
M  V30 984 C 98.7826 -1.52358 1.39981 0
M  V30 985 C 99.1976 -1.88799 -0.0054975 0
M  V30 986 O 98.5546 -1.54146 -0.976998 0
M  V30 987 C 98.6056 -2.81072 2.27333 0
M  V30 988 O 98.3266 -2.46178 3.62392 0
M  V30 989 C 99.8276 -3.75096 2.36259 0
M  V30 990 H 97.0476 -0.470806 0.478103 0
M  V30 991 H 99.5916 -0.907339 1.83269 0
M  V30 992 H 97.7466 -3.39026 1.87457 0
M  V30 993 H 98.1606 -3.28866 4.08592 0
M  V30 994 H 99.6346 -4.62305 3.01626 0
M  V30 995 H 100.112 -4.16892 1.38194 0
M  V30 996 H 100.718 -3.23061 2.76608 0
M  V30 997 N 99.0327 -1.24633 -0.964593 0
M  V30 998 C 100.281 -1.08573 -1.70459 0
M  V30 999 C 100.602 0.375655 -1.91347 0
M  V30 1000 O 99.8717 1.26779 -1.49345 0
M  V30 1001 H 98.4517 -0.398784 -0.631649 0
M  V30 1002 H 101.114 -1.56601 -1.16026 0
M  V30 1003 H 100.21 -1.58623 -2.68785 0
M  V30 1004 N 100.511 1.16574 -1.06058 0
M  V30 1005 C 101.788 1.83048 -0.689416 0
M  V30 1006 C 102.168 1.94122 0.829443 0
M  V30 1007 O 101.516 1.48249 1.7388 0
M  V30 1008 C 101.726 3.20186 -1.38859 0
M  V30 1009 C 103.074 3.95989 -1.53226 0
M  V30 1010 O 104.098 3.29696 -1.3483 0
M  V30 1011 O 102.957 5.14813 -1.83384 0
M  V30 1012 H 100.051 0.790258 -0.243764 0
M  V30 1013 H 102.597 1.23797 -1.16071 0
M  V30 1014 H 101.369 3.07146 -2.4244 0
M  V30 1015 H 100.992 3.87112 -0.907216 0
M  V30 1016 N 101.989 0.842826 1.3317 0
M  V30 1017 C 102.921 0.236245 2.27979 0
M  V30 1018 C 103.934 -0.585282 1.51915 0
M  V30 1019 O 105.123 -0.411705 1.73687 0
M  V30 1020 C 102.223 -0.685717 3.3189 0
M  V30 1021 C 101.396 0.0973448 4.37292 0
M  V30 1022 C 100.455 -0.748565 5.20848 0
M  V30 1023 O 99.4809 -0.186339 5.68895 0
M  V30 1024 N 100.683 -2.06527 5.42519 0
M  V30 1025 H 103.448 1.05088 2.80672 0
M  V30 1026 H 101.009 0.701667 1.45905 0
M  V30 1027 H 103.001 -1.25669 3.84694 0
M  V30 1028 H 101.571 -1.40105 2.79445 0
M  V30 1029 H 100.791 0.849706 3.84933 0
M  V30 1030 H 102.079 0.635643 5.04814 0
M  V30 1031 H 101.477 -2.54554 5.05192 0
M  V30 1032 H 100.034 -2.58464 5.98364 0
M  V30 1033 N 103.467 -1.45747 0.599634 0
M  V30 1034 C 104.713 -2.02592 0.0918643 0
M  V30 1035 C 105.046 -1.46806 -1.27128 0
M  V30 1036 O 104.321 -0.639658 -1.83681 0
M  V30 1037 C 104.604 -3.60073 0.0443398 0
M  V30 1038 C 104.457 -4.26208 1.43759 0
M  V30 1039 C 105.776 -4.35309 -0.647608 0
M  V30 1040 H 102.895 -0.736175 0.034857 0
M  V30 1041 H 105.537 -1.73694 0.770081 0
M  V30 1042 H 103.687 -3.84823 -0.533224 0
M  V30 1043 H 105.359 -4.12668 2.06162 0
M  V30 1044 H 103.602 -3.84916 2.00056 0
M  V30 1045 H 104.273 -5.35069 1.35665 0
M  V30 1046 H 106.749 -4.15805 -0.156776 0
M  V30 1047 H 105.625 -5.45038 -0.649942 0
M  V30 1048 H 105.886 -4.07598 -1.71219 0
M  V30 1049 N 104.945 -0.338344 -1.53925 0
M  V30 1050 C 105.892 0.520845 -2.24846 0
M  V30 1051 C 106.862 1.09976 -1.24477 0
M  V30 1052 O 108.047 1.13735 -1.53196 0
M  V30 1053 C 105.187 1.6685 -3.02084 0
M  V30 1054 C 104.3 1.11739 -4.17299 0
M  V30 1055 C 103.435 2.23193 -4.82036 0
M  V30 1056 C 102.474 1.65407 -5.89328 0
M  V30 1057 N 101.611 2.70582 -6.47866 0
M  V30 1058 H 106.451 -0.0904881 -2.97863 0
M  V30 1059 H 103.988 -0.0564282 -1.46992 0
M  V30 1060 H 105.946 2.34407 -3.45122 0
M  V30 1061 H 104.576 2.2509 -2.31375 0
M  V30 1062 H 103.628 0.332919 -3.7894 0
M  V30 1063 H 104.94 0.654677 -4.94485 0
M  V30 1064 H 104.094 2.98626 -5.28117 0
M  V30 1065 H 102.833 2.72807 -4.04262 0
M  V30 1066 H 101.838 0.884779 -5.42634 0
M  V30 1067 H 103.063 1.16652 -6.69006 0
M  V30 1068 H 101.009 3.1946 -5.72959 0
M  V30 1069 H 100.926 2.28917 -7.20509 0
M  V30 1070 H 102.194 3.45799 -6.98601 0
M  V30 1071 N 106.423 1.57458 -0.0668435 0
M  V30 1072 C 107.37 2.12439 0.902122 0
M  V30 1073 C 108.34 1.03565 1.2986 0
M  V30 1074 O 109.525 1.312 1.38532 0
M  V30 1075 C 106.665 2.6865 2.16614 0
M  V30 1076 C 105.778 3.91663 1.82274 0
M  V30 1077 C 104.913 4.36134 3.0325 0
M  V30 1078 C 103.952 5.51808 2.64904 0
M  V30 1079 N 103.089 5.9126 3.78624 0
M  V30 1080 H 107.929 2.94934 0.426382 0
M  V30 1081 H 105.466 1.4575 0.198819 0
M  V30 1082 H 107.424 2.99346 2.90599 0
M  V30 1083 H 106.054 1.88928 2.61737 0
M  V30 1084 H 105.106 3.6746 0.983719 0
M  V30 1085 H 106.418 4.75693 1.50059 0
M  V30 1086 H 105.572 4.68465 3.85519 0
M  V30 1087 H 104.311 3.50948 3.38655 0
M  V30 1088 H 103.316 5.19133 1.81055 0
M  V30 1089 H 104.541 6.38722 2.30675 0
M  V30 1090 H 102.487 5.09024 4.138 0
M  V30 1091 H 102.404 6.70018 3.5016 0
M  V30 1092 H 103.672 6.28212 4.61486 0
M  V30 1093 N 107.901 -0.206675 1.56239 0
M  V30 1094 C 108.831 -1.25909 1.96645 0
M  V30 1095 C 109.812 -1.48097 0.836734 0
M  V30 1096 O 110.997 -1.6003 1.10019 0
M  V30 1097 C 108.127 -2.6058 2.29599 0
M  V30 1098 C 107.081 -2.53024 3.452 0
M  V30 1099 C 106.407 -3.91861 3.63798 0
M  V30 1100 C 107.707 -2.06524 4.79734 0
M  V30 1101 H 109.401 -0.923369 2.84806 0
M  V30 1102 H 106.947 -0.442735 1.37025 0
M  V30 1103 H 108.9 -3.34375 2.56459 0
M  V30 1104 H 107.624 -2.95869 1.38307 0
M  V30 1105 H 106.283 -1.81684 3.18412 0
M  V30 1106 H 105.931 -4.24483 2.69857 0
M  V30 1107 H 105.631 -3.87683 4.4156 0
M  V30 1108 H 107.155 -4.67296 3.93022 0
M  V30 1109 H 108.569 -2.70072 5.05702 0
M  V30 1110 H 106.966 -2.13374 5.60885 0
M  V30 1111 H 108.036 -1.01802 4.74093 0
M  V30 1112 N 109.379 -1.50304 -0.473955 0
M  V30 1113 C 110.656 -1.51667 -1.23518 0
M  V30 1114 C 111.036 -0.259701 -2.09496 0
M  V30 1115 O 110.384 0.756986 -2.15597 0
M  V30 1116 C 110.594 -2.81082 -2.06868 0
M  V30 1117 C 111.942 -3.31631 -2.65153 0
M  V30 1118 O 112.966 -2.82384 -2.17113 0
M  V30 1119 O 111.825 -4.17471 -3.52675 0
M  V30 1120 H 108.919 -0.60822 -0.560355 0
M  V30 1121 H 111.465 -1.62592 -0.486011 0
M  V30 1122 H 110.237 -3.64041 -1.4349 0
M  V30 1123 H 109.86 -2.73146 -2.88924 0
M  V30 1124 N 110.857 0.726932 -1.39834 0
M  V30 1125 C 112.103 1.48884 -1.377 0
M  V30 1126 C 112.436 1.94185 0.0244852 0
M  V30 1127 O 111.711 1.67361 0.990986 0
M  V30 1128 C 111.994 2.72288 -2.3565 0
M  V30 1129 C 111.847 2.32956 -3.84775 0
M  V30 1130 C 113.166 3.74414 -2.31306 0
M  V30 1131 H 110.285 0.540062 -0.5015 0
M  V30 1132 H 112.927 0.830547 -1.70886 0
M  V30 1133 H 111.077 3.28457 -2.07481 0
M  V30 1134 H 112.749 1.82356 -4.23726 0
M  V30 1135 H 110.992 1.65088 -4.01159 0
M  V30 1136 H 111.663 3.21362 -4.4881 0
M  V30 1137 H 114.139 3.27849 -2.56231 0
M  V30 1138 H 113.015 4.58414 -3.01907 0
M  V30 1139 H 113.276 4.21909 -1.32081 0
M  V30 1140 N 112.336 1.25143 0.95797 0
M  V30 1141 C 113.266 1.07711 2.07173 0
M  V30 1142 C 114.247 -0.0128462 1.70095 0
M  V30 1143 O 115.432 0.156061 1.93572 0
M  V30 1144 C 112.562 0.691503 3.40346 0
M  V30 1145 C 111.516 1.73132 3.9142 0
M  V30 1146 C 110.842 1.20049 5.21049 0
M  V30 1147 C 112.142 3.1294 4.1817 0
M  V30 1148 H 113.836 2.00873 2.22014 0
M  V30 1149 H 111.382 0.967191 1.06684 0
M  V30 1150 H 113.335 0.556505 4.17709 0
M  V30 1151 H 112.059 -0.275819 3.25433 0
M  V30 1152 H 110.718 1.8547 3.16222 0
M  V30 1153 H 110.366 0.223499 5.02503 0
M  V30 1154 H 110.066 1.89545 5.56189 0
M  V30 1155 H 111.59 1.07782 6.01012 0
M  V30 1156 H 113.004 3.03775 4.86203 0
M  V30 1157 H 111.401 3.79875 4.64559 0
M  V30 1158 H 112.471 3.6025 3.24573 0
M  V30 1159 N 113.814 -1.1601 1.06675 0
M  V30 1160 C 115.039 -1.91068 0.806706 0
M  V30 1161 C 115.464 -1.77112 -0.633485 0
M  V30 1162 O 114.822 -1.09908 -1.44187 0
M  V30 1163 C 114.87 -3.39655 1.21106 0
M  V30 1164 O 113.974 -4.10893 0.352189 0
M  V30 1165 H 113.315 -0.595125 0.294486 0
M  V30 1166 H 115.845 -1.46955 1.42356 0
M  V30 1167 H 115.855 -3.90434 1.18428 0
M  V30 1168 H 114.53 -3.49132 2.26008 0
M  V30 1169 H 113.107 -3.70285 0.440868 0
M  V30 1170 N 115.292 -0.849877 -1.32721 0
M  V30 1171 C 116.24 -0.279745 -2.30912 0
M  V30 1172 C 117.234 0.594278 -1.58634 0
M  V30 1173 O 118.44 0.482613 -1.73409 0
M  V30 1174 H 114.815 -0.0717521 -0.748569 0
M  V30 1175 H 116.786 -1.12222 -2.76494 0
M  V30 1176 C 115.535 0.521108 -3.43773 0
M  V30 1177 H 114.858 -0.142141 -3.99547 0
M  V30 1178 H 116.298 0.885693 -4.14646 0
M  V30 1179 C 114.757 1.70442 -2.90605 0
M  V30 1180 O 115.287 2.8034 -2.87702 0
M  V30 1181 N 113.493 1.52991 -2.47067 0
M  V30 1182 H 113.04 0.635914 -2.49628 0
M  V30 1183 H 112.998 2.32311 -2.11847 0
M  V30 1184 N 116.77 1.45427 -0.607355 0
M  V30 1185 C 118.047 1.9557 -0.0344566 0
M  V30 1186 C 118.427 1.54979 1.43334 0
M  V30 1187 O 117.775 0.812241 2.13576 0
M  V30 1188 C 117.985 3.48226 -0.232321 0
M  V30 1189 C 119.333 4.2445 -0.113001 0
M  V30 1190 O 120.357 3.55829 -0.162431 0
M  V30 1191 O 119.216 5.465 0.00209442 0
M  V30 1192 H 116.31 0.826222 0.0358667 0
M  V30 1193 H 118.856 1.55594 -0.6774 0
M  V30 1194 H 117.628 3.70739 -1.25174 0
M  V30 1195 H 117.251 3.95092 0.445896 0
M  V30 1196 N 118.248 0.346503 1.53744 0
M  V30 1197 C 119.178 -0.501193 2.28058 0
M  V30 1198 C 120.159 -1.10014 1.29734 0
M  V30 1199 O 121.344 -1.12097 1.58581 0
M  V30 1200 C 118.474 -1.65078 3.05559 0
M  V30 1201 C 117.428 -1.18003 4.11411 0
M  V30 1202 C 116.754 -2.41837 4.76884 0
M  V30 1203 C 118.054 -0.278394 5.21558 0
M  V30 1204 H 119.748 0.11875 2.99164 0
M  V30 1205 H 117.294 0.0585531 1.43881 0
M  V30 1206 H 119.247 -2.25028 3.56287 0
M  V30 1207 H 117.971 -2.29767 2.32109 0
M  V30 1208 H 116.63 -0.603331 3.61601 0
M  V30 1209 H 116.278 -3.0494 4.00026 0
M  V30 1210 H 115.978 -2.1102 5.48402 0
M  V30 1211 H 117.502 -3.02508 5.30397 0
M  V30 1212 H 118.916 -0.784823 5.67903 0
M  V30 1213 H 117.313 -0.0619707 6.00068 0
M  V30 1214 H 118.383 0.684677 4.80042 0
M  V30 1215 N 119.726 -1.57421 0.075193 0
M  V30 1216 C 120.972 -1.93905 -0.594025 0
M  V30 1217 C 121.305 -0.955701 -1.69056 0
M  V30 1218 O 120.58 0.0145373 -1.94495 0
M  V30 1219 C 120.863 -3.40638 -1.1678 0
M  V30 1220 C 120.716 -4.49733 -0.0776792 0
M  V30 1221 C 122.035 -3.88259 -2.07228 0
M  V30 1222 H 119.154 -0.705105 -0.214466 0
M  V30 1223 H 121.796 -1.8947 0.141854 0
M  V30 1224 H 119.946 -3.44549 -1.79494 0
M  V30 1225 H 121.618 -4.57942 0.555573 0
M  V30 1226 H 119.861 -4.29751 0.591286 0
M  V30 1227 H 120.532 -5.49549 -0.519603 0
M  V30 1228 H 123.008 -3.86376 -1.54445 0
M  V30 1229 H 121.884 -4.91533 -2.44308 0
M  V30 1230 H 122.145 -3.26396 -2.98191 0
M  V30 1231 N 121.204 0.198386 -1.56346 0
M  V30 1232 C 122.137 1.27381 -1.89339 0
M  V30 1233 C 123.115 1.44106 -0.753134 0
M  V30 1234 O 124.299 1.59549 -1.00381 0
M  V30 1235 C 121.426 2.6409 -2.12071 0
M  V30 1236 C 120.472 2.64253 -3.34772 0
M  V30 1237 S 121.305 2.16013 -4.89999 0
M  V30 1238 C 122.461 3.54553 -5.15794 0
M  V30 1239 H 122.694 0.992058 -2.8026 0
M  V30 1240 H 120.227 0.401726 -1.49082 0
M  V30 1241 H 122.185 3.42786 -2.2585 0
M  V30 1242 H 120.846 2.89478 -1.21906 0
M  V30 1243 H 120.039 3.64768 -3.47794 0
M  V30 1244 H 119.641 1.93637 -3.1997 0
M  V30 1245 H 121.933 4.50396 -5.06112 0
M  V30 1246 H 122.876 3.46428 -6.1757 0
M  V30 1247 H 123.284 3.49313 -4.43442 0
M  V30 1248 N 122.682 1.50554 0.465978 0
M  V30 1249 C 123.63 1.70324 1.58406 0
M  V30 1250 C 124.624 0.569139 1.59553 0
M  V30 1251 O 125.83 0.749776 1.63641 0
M  V30 1252 H 122.205 0.537688 0.525734 0
M  V30 1253 H 124.176 2.64104 1.38894 0
M  V30 1254 C 122.925 1.81928 2.96307 0
M  V30 1255 H 122.248 2.68586 2.96144 0
M  V30 1256 H 123.688 1.99784 3.73982 0
M  V30 1257 C 122.147 0.572095 3.32007 0
M  V30 1258 O 122.677 -0.286416 4.00678 0
M  V30 1259 N 120.883 0.424606 2.87481 0
M  V30 1260 H 120.43 1.12427 2.31771 0
M  V30 1261 H 120.388 -0.408697 3.11732 0
M  V30 1262 N 124.16 -0.719506 1.40217 0
M  V30 1263 C 125.093 -1.84298 1.34571 0
M  V30 1264 C 126.071 -1.61149 0.216741 0
M  V30 1265 O 127.255 -1.84212 0.399756 0
M  V30 1266 C 124.382 -3.20568 1.09335 0
M  V30 1267 C 123.428 -3.62551 2.24631 0
M  V30 1268 S 124.261 -3.7012 3.87004 0
M  V30 1269 C 125.417 -5.09154 3.64024 0
M  V30 1270 H 125.65 -1.88807 2.2965 0
M  V30 1271 H 123.183 -0.885901 1.26456 0
M  V30 1272 H 125.141 -3.99246 0.954602 0
M  V30 1273 H 123.802 -3.13696 0.159164 0
M  V30 1274 H 122.995 -4.61483 2.02606 0
M  V30 1275 H 122.597 -2.91119 2.34789 0
M  V30 1276 H 124.889 -5.95955 3.22248 0
M  V30 1277 H 125.832 -5.36213 4.62473 0
M  V30 1278 H 126.24 -4.79562 2.97793 0
M  V30 1279 N 125.638 -1.25649 -0.95132 0
M  V30 1280 C 126.568 -1.08808 -2.06599 0
M  V30 1281 C 127.549 0.00382547 -1.701 0
M  V30 1282 O 128.734 -0.166325 -1.93486 0
M  V30 1283 C 125.864 -0.709542 -3.39975 0
M  V30 1284 C 124.818 -1.75206 -3.90496 0
M  V30 1285 C 124.144 -1.22811 -5.20405 0
M  V30 1286 C 125.444 -3.15153 -4.16504 0
M  V30 1287 H 127.138 -2.02048 -2.20946 0
M  V30 1288 H 124.684 -0.972835 -1.06169 0
M  V30 1289 H 126.637 -0.578649 -4.17408 0
M  V30 1290 H 125.361 0.258556 -3.25575 0
M  V30 1291 H 124.02 -1.87145 -3.15234 0
M  V30 1292 H 123.668 -0.250145 -5.02378 0
M  V30 1293 H 123.368 -1.92492 -5.55176 0
M  V30 1294 H 124.892 -1.10968 -6.00432 0
M  V30 1295 H 126.306 -3.06349 -4.84586 0
M  V30 1296 H 124.703 -3.82333 -4.62538 0
M  V30 1297 H 125.773 -3.61966 -3.22658 0
M  V30 1298 N 127.117 1.15442 -1.07289 0
M  V30 1299 C 128.064 2.20161 -0.692653 0
M  V30 1300 C 129.034 1.63073 0.31564 0
M  V30 1301 O 130.219 1.89725 0.202235 0
M  V30 1302 C 127.359 3.44967 -0.0959509 0
M  V30 1303 C 126.472 4.16256 -1.15564 0
M  V30 1304 C 125.607 5.28609 -0.524011 0
M  V30 1305 C 124.646 5.91715 -1.56653 0
M  V30 1306 N 123.783 6.9554 -0.957531 0
M  V30 1307 H 128.623 2.52037 -1.59002 0
M  V30 1308 H 126.16 1.2378 -0.794798 0
M  V30 1309 H 128.118 4.16341 0.267628 0
M  V30 1310 H 126.748 3.1361 0.764772 0
M  V30 1311 H 125.8 3.43385 -1.6368 0
M  V30 1312 H 127.112 4.59268 -1.94613 0
M  V30 1313 H 126.266 6.06604 -0.108032 0
M  V30 1314 H 125.005 4.86787 0.29825 0
M  V30 1315 H 124.01 5.12433 -1.9923 0
M  V30 1316 H 125.235 6.35614 -2.39107 0
M  V30 1317 H 123.181 6.55814 -0.156162 0
M  V30 1318 H 123.098 7.36977 -1.68526 0
M  V30 1319 H 124.366 7.77435 -0.567032 0
M  V30 1320 N 128.595 0.856903 1.32268 0
M  V30 1321 C 129.82 0.474569 2.01897 0
M  V30 1322 C 130.245 -0.921766 1.63967 0
M  V30 1323 O 129.603 -1.60589 0.84148 0
M  V30 1324 C 129.651 0.623799 3.55164 0
M  V30 1325 O 128.755 -0.342459 4.10976 0
M  V30 1326 H 128.096 0.190422 0.63611 0
M  V30 1327 H 130.626 1.15672 1.68764 0
M  V30 1328 H 130.636 0.512169 4.04773 0
M  V30 1329 H 129.311 1.64202 3.82113 0
M  V30 1330 H 127.888 -0.18688 3.72431 0
M  V30 1331 N 130.073 -1.45103 0.615059 0
M  V30 1332 C 131.298 -2.07064 0.117988 0
M  V30 1333 C 131.723 -1.4554 -1.19163 0
M  V30 1334 O 131.081 -0.550855 -1.72729 0
M  V30 1335 C 131.129 -3.606 -0.000288387 0
M  V30 1336 O 130.233 -3.98847 -1.04856 0
M  V30 1337 H 129.574 -0.659467 0.0774581 0
M  V30 1338 H 132.104 -1.86236 0.847186 0
M  V30 1339 H 132.114 -4.07529 -0.196091 0
M  V30 1340 H 130.789 -4.04765 0.955932 0
M  V30 1341 H 129.366 -3.63577 -0.828619 0
M  V30 1342 N 131.551 -0.354651 -1.53558 0
M  V30 1343 C 132.798 0.238443 -2.01091 0
M  V30 1344 C 133.126 1.49663 -1.24222 0
M  V30 1345 O 132.381 1.93049 -0.321003 0
M  V30 1346 C 132.68 0.587121 -3.52545 0
M  V30 1347 C 132.346 -0.575472 -4.47213 0
M  V30 1348 C 131.008 -0.894497 -4.72813 0
M  V30 1349 C 133.36 -1.35489 -5.03281 0
M  V30 1350 C 130.688 -1.99511 -5.51736 0
M  V30 1351 C 133.04 -2.44583 -5.83405 0
M  V30 1352 C 131.704 -2.77033 -6.07296 0
M  V30 1353 H 130.974 0.0872526 -0.735845 0
M  V30 1354 H 133.621 -0.484859 -1.8526 0
M  V30 1355 H 131.926 1.39129 -3.66265 0
M  V30 1356 H 133.623 1.05809 -3.86789 0
M  V30 1357 H 130.213 -0.316774 -4.27428 0
M  V30 1358 H 134.397 -1.12167 -4.83459 0
M  V30 1359 H 129.653 -2.25063 -5.68469 0
M  V30 1360 H 133.827 -3.05401 -6.25862 0
M  V30 1361 H 131.454 -3.6244 -6.68237 0
M  V30 1362 N 133.029 1.57378 -0.0835403 0
M  V30 1363 C 133.992 2.12252 0.864959 0
M  V30 1364 C 134.992 1.04916 1.21858 0
M  V30 1365 O 136.182 1.30853 1.14991 0
M  V30 1366 C 133.314 2.63358 2.16461 0
M  V30 1367 H 134.507 2.97371 0.388676 0
M  V30 1368 H 132.06 1.55423 0.165317 0
M  V30 1369 H 132.795 1.81727 2.686 0
M  V30 1370 H 132.58 3.41826 1.92087 0
M  V30 1371 H 134.07 3.05847 2.84337 0
M  V30 1372 N 134.507 -0.190092 1.56449 0
M  V30 1373 C 135.735 -0.925772 1.85033 0
M  V30 1374 C 136.15 -1.76638 0.666658 0
M  V30 1375 O 135.507 -1.78822 -0.364565 0
M  V30 1376 C 135.558 -1.81786 3.12468 0
M  V30 1377 O 135.279 -1.01118 4.26271 0
M  V30 1378 C 136.78 -2.6648 3.54265 0
M  V30 1379 H 134 -0.269872 0.614337 0
M  V30 1380 H 136.544 -0.195837 2.0356 0
M  V30 1381 H 134.699 -2.50136 2.95822 0
M  V30 1382 H 135.113 -1.61956 4.98869 0
M  V30 1383 H 136.587 -3.24722 4.46385 0
M  V30 1384 H 137.064 -3.40434 2.77491 0
M  V30 1385 H 137.67 -2.03493 3.73458 0
M  V30 1386 N 135.985 -1.50799 -0.457987 0
M  V30 1387 C 137.225 -1.64088 -1.21879 0
M  V30 1388 C 137.589 -0.339848 -1.88968 0
M  V30 1389 O 138.79 -0.348301 -2.66534 0
M  V30 1390 C 137.061 -2.79726 -2.2246 0
M  V30 1391 S 138.62 -3.13225 -3.07303 0
M  V30 1392 H 135.438 -0.578314 -0.41361 0
M  V30 1393 H 138.04 -1.88632 -0.513645 0
M  V30 1394 H 136.744 -3.72722 -1.71775 0
M  V30 1395 H 136.275 -2.57308 -2.97584 0
M  V30 1396 H 138.29 -2.58062 -4.23814 0
M  V30 1397 N 137.463 0.71206 -1.40597 0
M  V30 1398 C 138.709 1.47416 -1.39271 0
M  V30 1399 C 139.042 1.942 0.00388791 0
M  V30 1400 O 138.317 1.68403 0.973179 0
M  V30 1401 C 138.6 2.69774 -2.38525 0
M  V30 1402 C 138.453 2.28861 -3.87224 0
M  V30 1403 C 139.772 3.71939 -2.35264 0
M  V30 1404 H 136.891 0.534713 -0.5072 0
M  V30 1405 H 139.533 0.812375 -1.71757 0
M  V30 1406 H 137.683 3.26238 -2.10953 0
M  V30 1407 H 139.355 1.77852 -4.25636 0
M  V30 1408 H 137.598 1.60824 -4.02887 0
M  V30 1409 H 138.269 3.16584 -4.52193 0
M  V30 1410 H 140.745 3.25113 -2.59694 0
M  V30 1411 H 139.621 4.55186 -3.06753 0
M  V30 1412 H 139.882 4.20484 -1.36549 0
M  V30 1413 N 138.941 1.26152 0.944643 0
M  V30 1414 C 139.871 1.09902 2.06019 0
M  V30 1415 C 140.852 0.00519538 1.70099 0
M  V30 1416 O 142.037 0.176583 1.93396 0
M  V30 1417 C 139.167 0.727562 3.39594 0
M  V30 1418 C 138.121 1.77274 3.89561 0
M  V30 1419 C 137.447 1.25569 5.19747 0
M  V30 1420 C 138.747 3.17357 4.14827 0
M  V30 1421 H 140.441 2.03217 2.19871 0
M  V30 1422 H 137.987 0.978452 1.05652 0
M  V30 1423 H 139.94 0.600777 4.17095 0
M  V30 1424 H 138.664 -0.241287 3.25707 0
M  V30 1425 H 137.323 1.88814 3.14237 0
M  V30 1426 H 136.971 0.276783 5.02238 0
M  V30 1427 H 136.671 1.95433 5.54148 0
M  V30 1428 H 138.195 1.1415 5.99835 0
M  V30 1429 H 139.609 3.08914 4.82954 0
M  V30 1430 H 138.006 3.84781 4.60504 0
M  V30 1431 H 139.076 3.63673 3.20734 0
M  V30 1432 N 140.419 -1.14872 1.07899 0
M  V30 1433 C 141.665 -1.86064 0.806725 0
M  V30 1434 C 141.998 -1.82434 -0.665706 0
M  V30 1435 O 141.273 -1.25138 -1.48899 0
M  V30 1436 C 141.556 -3.34929 1.32267 0
M  V30 1437 C 141.409 -3.47161 2.86006 0
M  V30 1438 C 142.728 -4.29863 0.943717 0
M  V30 1439 H 139.847 -0.675591 0.294526 0
M  V30 1440 H 142.489 -1.34925 1.33773 0
M  V30 1441 H 140.639 -3.78611 0.870974 0
M  V30 1442 H 142.311 -3.12302 3.39507 0
M  V30 1443 H 140.554 -2.88539 3.23925 0
M  V30 1444 H 141.225 -4.51777 3.17177 0
M  V30 1445 H 143.701 -3.9417 1.33302 0
M  V30 1446 H 142.577 -5.32494 1.33198 0
M  V30 1447 H 142.838 -4.41846 -0.149796 0
M  V30 1448 N 141.898 -0.863906 -1.31812 0
M  V30 1449 C 143.123 -0.48527 -2.01643 0
M  V30 1450 C 143.548 0.913058 -1.64453 0
M  V30 1451 O 142.906 1.6014 -0.849985 0
M  V30 1452 C 142.954 -0.642625 -3.54828 0
M  V30 1453 O 142.058 0.320659 -4.11151 0
M  V30 1454 H 141.399 -0.193793 -0.635091 0
M  V30 1455 H 143.929 -1.16565 -1.68148 0
M  V30 1456 H 143.939 -0.533628 -4.04495 0
M  V30 1457 H 142.614 -1.66227 -3.81237 0
M  V30 1458 H 141.191 0.167126 -3.72525 0
M  V30 1459 N 143.376 1.44774 -0.622745 0
M  V30 1460 C 144.286 2.34433 0.0886031 0
M  V30 1461 C 145.302 1.52131 0.844529 0
M  V30 1462 O 146.478 1.84886 0.798691 0
M  V30 1463 C 143.543 3.29986 1.0635 0
M  V30 1464 C 142.604 4.28195 0.307873 0
M  V30 1465 C 141.837 5.19183 1.23633 0
M  V30 1466 O 142.06 5.13918 2.47476 0
M  V30 1467 O 140.994 5.97515 0.725189 0
M  V30 1468 H 144.82 2.96693 -0.648599 0
M  V30 1469 H 142.405 1.44408 -0.382957 0
M  V30 1470 H 144.287 3.88825 1.6246 0
M  V30 1471 H 142.962 2.70269 1.78146 0
M  V30 1472 H 141.869 3.72927 -0.296064 0
M  V30 1473 H 143.202 4.90808 -0.3699 0
M  V30 1474 N 144.854 0.36279 1.53368 0
M  V30 1475 C 145.764 -0.492994 2.29362 0
M  V30 1476 C 146.78 -1.09507 1.35219 0
M  V30 1477 O 147.956 -1.10662 1.68273 0
M  V30 1478 C 145.021 -1.61855 3.066 0
M  V30 1479 C 144.082 -1.04429 4.16405 0
M  V30 1480 C 143.315 -2.11621 4.89951 0
M  V30 1481 O 143.538 -3.32684 4.63333 0
M  V30 1482 O 142.472 -1.74835 5.75948 0
M  V30 1483 H 146.298 0.125331 3.03441 0
M  V30 1484 H 143.883 0.127253 1.48857 0
M  V30 1485 H 145.765 -2.27302 3.54841 0
M  V30 1486 H 144.44 -2.22233 2.3536 0
M  V30 1487 H 143.347 -0.353819 3.72423 0
M  V30 1488 H 144.68 -0.485113 4.89804 0
M  V30 1489 N 146.332 -1.57332 0.0918853 0
M  V30 1490 C 147.609 -1.85691 -0.614668 0
M  V30 1491 C 147.989 -0.988146 -1.86545 0
M  V30 1492 O 147.337 -0.0597055 -2.28422 0
M  V30 1493 C 147.547 -3.36294 -0.933126 0
M  V30 1494 C 148.895 -4.04275 -1.29796 0
M  V30 1495 O 149.919 -3.41157 -1.02424 0
M  V30 1496 O 148.778 -5.1564 -1.81047 0
M  V30 1497 H 145.872 -0.767802 -0.307261 0
M  V30 1498 H 148.418 -1.69244 0.12434 0
M  V30 1499 H 147.19 -3.91273 -0.0456404 0
M  V30 1500 H 146.813 -3.58076 -1.72822 0
M  V30 1501 N 147.81 0.181792 -1.56548 0
M  V30 1502 C 148.757 1.22521 -1.95595 0
M  V30 1503 C 149.727 1.4454 -0.818373 0
M  V30 1504 O 150.912 1.57454 -1.07763 0
M  V30 1505 C 148.052 2.56193 -2.31212 0
M  V30 1506 C 147.165 2.41641 -3.58097 0
M  V30 1507 C 146.3 3.68108 -3.82975 0
M  V30 1508 C 145.339 3.48445 -5.03242 0
M  V30 1509 N 144.476 4.66956 -5.24306 0
M  V30 1510 H 149.316 0.885226 -2.84548 0
M  V30 1511 H 146.853 0.425718 -1.40805 0
M  V30 1512 H 148.811 3.34088 -2.49882 0
M  V30 1513 H 147.441 2.88208 -1.45382 0
M  V30 1514 H 146.493 1.54976 -3.474 0
M  V30 1515 H 147.805 2.23052 -4.46149 0
M  V30 1516 H 146.959 4.54441 -4.01956 0
M  V30 1517 H 145.698 3.89666 -2.93278 0
M  V30 1518 H 144.703 2.60499 -4.8417 0
M  V30 1519 H 145.928 3.2832 -5.9446 0
M  V30 1520 H 143.874 4.88752 -4.37559 0
M  V30 1521 H 143.791 4.51242 -6.06561 0
M  V30 1522 H 145.059 5.54602 -5.47756 0
M  V30 1523 N 149.288 1.51039 0.449983 0
M  V30 1524 C 150.238 1.67824 1.54335 0
M  V30 1525 C 151.222 0.5324 1.51836 0
M  V30 1526 O 152.414 0.787762 1.58503 0
M  V30 1527 C 149.543 1.7951 2.92628 0
M  V30 1528 C 148.629 2.99838 2.9993 0
M  V30 1529 N 149.02 4.23207 2.77001 0
M  V30 1530 C 147.318 2.98832 3.31082 0
M  V30 1531 C 148.019 5.04361 2.89818 0
M  V30 1532 N 146.995 4.38746 3.2094 0
M  V30 1533 H 150.797 2.60884 1.35339 0
M  V30 1534 H 148.311 1.48513 0.657085 0
M  V30 1535 H 150.308 1.89642 3.7127 0
M  V30 1536 H 148.968 0.876227 3.12654 0
M  V30 1537 H 149.979 4.5236 2.52172 0
M  V30 1538 H 146.656 2.16527 3.56963 0
M  V30 1539 H 148.046 6.12528 2.76151 0
M  V30 1540 N 150.766 -0.704594 1.40972 0
M  V30 1541 C 151.729 -1.80035 1.41845 0
M  V30 1542 C 152.729 -1.57774 0.310474 0
M  V30 1543 O 153.919 -1.64613 0.56992 0
M  V30 1544 C 151.051 -3.18284 1.22098 0
M  V30 1545 H 152.244 -1.80658 2.3938 0
M  V30 1546 H 149.797 -0.911329 1.26982 0
M  V30 1547 H 150.532 -3.23306 0.253672 0
M  V30 1548 H 150.317 -3.35843 2.02366 0
M  V30 1549 H 151.807 -3.98289 1.25522 0
M  V30 1550 N 152.244 -1.26651 -0.937939 0
M  V30 1551 C 153.493 -1.11775 -1.67897 0
M  V30 1552 C 153.806 0.33794 -1.92659 0
M  V30 1553 O 155.012 0.607434 -2.64618 0
M  V30 1554 C 153.468 -1.9523 -3.02346 0
M  V30 1555 C 153.076 -3.45393 -2.8532 0
M  V30 1556 C 154.82 -1.88972 -3.80118 0
M  V30 1557 C 152.727 -4.21083 -4.15263 0
M  V30 1558 H 151.657 -0.414696 -0.629717 0
M  V30 1559 H 154.308 -1.50988 -1.04283 0
M  V30 1560 H 152.69 -1.48853 -3.66959 0
M  V30 1561 H 153.864 -3.99561 -2.29537 0
M  V30 1562 H 152.179 -3.52921 -2.20988 0
M  V30 1563 H 154.776 -2.42805 -4.76392 0
M  V30 1564 H 155.119 -0.86113 -4.07296 0
M  V30 1565 H 155.652 -2.33189 -3.22285 0
M  V30 1566 H 152.391 -5.24425 -3.93267 0
M  V30 1567 H 151.911 -3.71695 -4.70747 0
M  V30 1568 H 153.59 -4.29706 -4.83696 0
M  V30 1569 N 153.722 1.14298 -1.08507 0
M  V30 1570 C 154.971 1.84708 -0.810305 0
M  V30 1571 C 155.284 1.83903 0.666271 0
M  V30 1572 O 156.49 2.50112 1.05624 0
M  V30 1573 C 154.946 3.31572 -1.39957 0
M  V30 1574 C 154.554 3.40791 -2.90801 0
M  V30 1575 C 156.298 4.07087 -1.20334 0
M  V30 1576 C 154.205 4.81872 -3.4286 0
M  V30 1577 H 153.135 0.691985 -0.299454 0
M  V30 1578 H 155.786 1.28841 -1.30661 0
M  V30 1579 H 154.168 3.87183 -0.830976 0
M  V30 1580 H 155.342 2.95225 -3.53806 0
M  V30 1581 H 153.657 2.78732 -3.0935 0
M  V30 1582 H 156.254 5.11225 -1.56693 0
M  V30 1583 H 156.597 4.16054 -0.143237 0
M  V30 1584 H 157.13 3.57779 -1.73893 0
M  V30 1585 H 153.869 4.78094 -4.48449 0
M  V30 1586 H 153.389 5.27972 -2.84615 0
M  V30 1587 H 155.068 5.50765 -3.39509 0
M  V30 1588 N 155.201 0.870884 1.31352 0
M  V30 1589 C 156.447 0.482987 1.96965 0
M  V30 1590 C 156.78 -0.962462 1.68672 0
M  V30 1591 O 156.055 -1.6779 0.98371 0
M  V30 1592 C 156.338 0.741752 3.52378 0
M  V30 1593 C 156.191 2.2368 3.9024 0
M  V30 1594 C 157.51 0.208838 4.39604 0
M  V30 1595 H 154.629 0.176955 0.715441 0
M  V30 1596 H 157.271 1.09229 1.55464 0
M  V30 1597 H 155.421 0.223149 3.87859 0
M  V30 1598 H 157.093 2.82273 3.64856 0
M  V30 1599 H 155.336 2.70901 3.38814 0
M  V30 1600 H 156.007 2.3685 4.98604 0
M  V30 1601 H 158.483 0.652529 4.10952 0
M  V30 1602 H 157.359 0.419336 5.47296 0
M  V30 1603 H 157.62 -0.889275 4.33064 0
M  V30 1604 N 156.679 -1.44442 0.630414 0
M  V30 1605 C 157.589 -2.34476 -0.0761693 0
M  V30 1606 C 158.605 -1.52576 -0.836449 0
M  V30 1607 O 159.781 -1.85307 -0.788874 0
M  V30 1608 C 156.846 -3.30545 -1.04599 0
M  V30 1609 C 155.907 -4.28352 -0.28516 0
M  V30 1610 C 155.14 -5.19831 -1.20878 0
M  V30 1611 O 155.363 -5.15223 -2.44747 0
M  V30 1612 O 154.297 -5.97892 -0.693491 0
M  V30 1613 H 158.123 -2.96345 0.664324 0
M  V30 1614 H 155.708 -1.44203 0.39061 0
M  V30 1615 H 157.59 -3.89681 -1.60396 0
M  V30 1616 H 156.265 -2.7121 -1.76711 0
M  V30 1617 H 155.172 -3.72764 0.315837 0
M  V30 1618 H 156.505 -4.90605 0.395924 0
M  V30 1619 N 158.157 -0.370918 -1.53173 0
M  V30 1620 C 159.568 0.107139 -1.86392 0
M  V30 1621 C 159.919 1.47714 -1.29132 0
M  V30 1622 O 159.044 2.07464 -0.615439 0
M  V30 1623 C 159.639 0.201187 -3.38202 0
M  V30 1624 C 158.198 0.623507 -3.712 0
M  V30 1625 C 157.345 -0.225978 -2.76378 0
M  V30 1626 H 160.296 -0.58951 -1.47345 0
M  V30 1627 H 160.317 1.02377 -3.66468 0
M  V30 1628 H 159.829 -0.796058 -3.79848 0
M  V30 1629 H 157.93 1.62879 -3.35114 0
M  V30 1630 H 158.043 0.394414 -4.77474 0
M  V30 1631 H 156.407 0.305962 -2.52856 0
M  V30 1632 H 157.19 -1.22086 -3.20858 0
M  V30 1633 N 159.635 1.57281 -0.100228 0
M  V30 1634 C 160.545 2.17833 0.870965 0
M  V30 1635 C 161.561 1.14921 1.30649 0
M  V30 1636 O 162.737 1.47313 1.37335 0
M  V30 1637 C 159.802 2.75085 2.1102 0
M  V30 1638 C 158.863 3.9297 1.72838 0
M  V30 1639 C 158.096 4.47482 2.90854 0
M  V30 1640 O 158.319 4.00922 4.05731 0
M  V30 1641 O 157.253 5.38433 2.69023 0
M  V30 1642 H 161.079 3.0124 0.38575 0
M  V30 1643 H 158.664 1.48881 0.124397 0
M  V30 1644 H 160.546 3.11656 2.83634 0
M  V30 1645 H 159.221 1.94721 2.58584 0
M  V30 1646 H 158.128 3.61201 0.973883 0
M  V30 1647 H 159.461 4.74713 1.30033 0
M  V30 1648 N 161.113 -0.173488 1.56642 0
M  V30 1649 C 162.06 -1.21482 1.96242 0
M  V30 1650 C 163.03 -1.44104 0.826027 0
M  V30 1651 O 164.215 -1.5688 1.08597 0
M  V30 1652 C 161.355 -2.54964 2.32567 0
M  V30 1653 C 160.468 -2.39739 3.59373 0
M  V30 1654 C 159.603 -3.66072 3.84921 0
M  V30 1655 C 158.642 -3.45771 5.05083 0
M  V30 1656 N 157.779 -4.64169 5.26775 0
M  V30 1657 H 162.619 -0.870123 2.85014 0
M  V30 1658 H 160.156 -0.418245 1.41029 0
M  V30 1659 H 162.114 -3.32758 2.5165 0
M  V30 1660 H 160.744 -2.87433 1.46908 0
M  V30 1661 H 159.796 -1.53131 3.48217 0
M  V30 1662 H 161.108 -2.20683 4.47326 0
M  V30 1663 H 160.262 -4.52303 4.0436 0
M  V30 1664 H 159.001 -3.88105 2.9534 0
M  V30 1665 H 158.006 -2.57927 4.85545 0
M  V30 1666 H 159.231 -3.25163 5.96193 0
M  V30 1667 H 157.177 -4.86425 4.40144 0
M  V30 1668 H 157.094 -4.48019 6.08946 0
M  V30 1669 H 158.362 -5.51689 5.5069 0
M  V30 1670 N 162.591 -1.51276 -0.441967 0
M  V30 1671 C 164.007 -1.39349 -0.778083 0
M  V30 1672 C 164.207 -0.472212 -1.95889 0
M  V30 1673 O 163.263 0.0743551 -2.5239 0
M  V30 1674 C 164.576 -2.81292 -1.0628 0
M  V30 1675 C 166.124 -2.9041 -1.16751 0
M  V30 1676 C 166.599 -4.33251 -1.48519 0
M  V30 1677 N 168.09 -4.36336 -1.55453 0
M  V30 1678 C 168.825 -5.43885 -1.81596 0
M  V30 1679 N 168.321 -6.61601 -2.05562 0
M  V30 1680 N 170.114 -5.3136 -1.8334 0
M  V30 1681 H 162.265 -2.09729 0.335774 0
M  V30 1682 H 164.528 -0.943925 0.0878028 0
M  V30 1683 H 164.234 -3.50678 -0.267905 0
M  V30 1684 H 164.108 -3.20334 -1.99163 0
M  V30 1685 H 166.495 -2.21225 -1.95304 0
M  V30 1686 H 166.576 -2.54871 -0.217801 0
M  V30 1687 H 166.22 -5.02984 -0.704958 0
M  V30 1688 H 166.15 -4.66299 -2.44689 0
M  V30 1689 H 168.641 -3.51466 -1.38853 0
M  V30 1690 H 168.954 -7.39361 -2.24867 0
M  V30 1691 H 167.299 -6.64725 -2.02894 0
M  V30 1692 H 170.49 -4.38382 -1.64132 0
M  V30 1693 H 170.663 -6.15258 -2.03377 0
M  V30 1694 N 164.069 0.697108 -1.41344 0
M  V30 1695 C 165.317 1.45426 -1.40341 0
M  V30 1696 C 165.638 1.94996 -0.0128787 0
M  V30 1697 O 164.908 1.71599 0.945027 0
M  V30 1698 H 163.488 0.539594 -0.516573 0
M  V30 1699 H 166.15 0.825201 -1.76569 0
M  V30 1700 H 165.246 2.31817 -2.08967 0
M  V30 1701 N 165.547 1.27147 0.931209 0
M  V30 1702 C 166.494 1.09568 2.03134 0
M  V30 1703 C 167.464 -0.00222433 1.661 0
M  V30 1704 O 168.649 0.159439 1.90133 0
M  V30 1705 C 165.789 0.745231 3.36957 0
M  V30 1706 C 164.902 1.92041 3.86968 0
M  V30 1707 C 164.037 1.51216 5.09222 0
M  V30 1708 C 163.076 2.65504 5.5152 0
M  V30 1709 N 162.213 2.25291 6.64972 0
M  V30 1710 H 167.053 2.03708 2.17502 0
M  V30 1711 H 164.59 1.01411 1.06556 0
M  V30 1712 H 166.548 0.522878 4.1391 0
M  V30 1713 H 165.178 -0.159202 3.22407 0
M  V30 1714 H 164.23 2.25541 3.06326 0
M  V30 1715 H 165.542 2.77787 4.1429 0
M  V30 1716 H 164.696 1.25084 5.93666 0
M  V30 1717 H 163.435 0.625749 4.83669 0
M  V30 1718 H 162.44 2.92354 4.65628 0
M  V30 1719 H 163.665 3.54761 5.7907 0
M  V30 1720 H 161.611 1.39098 6.41083 0
M  V30 1721 H 161.528 3.04577 6.91931 0
M  V30 1722 H 162.796 2.02398 7.52765 0
M  V30 1723 N 167.025 -1.13721 1.09112 0
M  V30 1724 C 168.255 -1.88499 0.845671 0
M  V30 1725 C 168.663 -1.79218 -0.606432 0
M  V30 1726 O 168.006 -1.1544 -1.42896 0
M  V30 1727 C 168.068 -3.38954 1.19793 0
M  V30 1728 C 167.732 -3.72018 2.65428 0
M  V30 1729 C 168.729 -3.7153 3.63677 0
M  V30 1730 C 166.414 -4.01775 3.01467 0
M  V30 1731 C 168.408 -4.00336 4.95994 0
M  V30 1732 C 166.095 -4.30243 4.33975 0
M  V30 1733 C 167.093 -4.29508 5.31048 0
M  V30 1734 O 166.781 -4.5728 6.61173 0
M  V30 1735 H 166.513 -0.603702 0.304171 0
M  V30 1736 H 169.067 -1.44903 1.45576 0
M  V30 1737 H 167.297 -3.83039 0.530871 0
M  V30 1738 H 168.986 -3.95052 0.932146 0
M  V30 1739 H 169.752 -3.4862 3.37179 0
M  V30 1740 H 165.631 -4.01496 2.26544 0
M  V30 1741 H 169.175 -3.99678 5.71755 0
M  V30 1742 H 165.072 -4.52625 4.60219 0
M  V30 1743 H 165.84 -4.74964 6.66597 0
M  V30 1744 N 168.503 -0.877838 -1.30888 0
M  V30 1745 C 169.749 -0.493426 -1.96706 0
M  V30 1746 C 170.082 0.953504 -1.6918 0
M  V30 1747 O 169.357 1.67266 -0.992594 0
M  V30 1748 C 169.64 -0.760429 -3.51979 0
M  V30 1749 C 169.493 -2.25747 -3.89048 0
M  V30 1750 C 170.812 -0.232148 -4.39487 0
M  V30 1751 H 167.931 -0.180746 -0.714493 0
M  V30 1752 H 170.573 -1.10052 -1.54882 0
M  V30 1753 H 168.723 -0.243715 -3.87735 0
M  V30 1754 H 170.395 -2.84204 -3.63354 0
M  V30 1755 H 168.638 -2.72694 -3.37373 0
M  V30 1756 H 169.309 -2.39491 -4.97341 0
M  V30 1757 H 171.785 -0.674314 -4.106 0
M  V30 1758 H 170.661 -0.448355 -5.47066 0
M  V30 1759 H 170.922 0.866297 -4.33529 0
M  V30 1760 N 169.982 1.44106 -0.638065 0
M  V30 1761 C 171.228 2.02277 -0.145546 0
M  V30 1762 C 171.561 1.50125 1.23191 0
M  V30 1763 O 170.836 0.688133 1.8192 0
M  V30 1764 C 171.119 3.59829 -0.139791 0
M  V30 1765 C 170.972 4.22247 -1.55008 0
M  V30 1766 C 172.291 4.36873 0.531966 0
M  V30 1767 H 169.41 0.734992 -0.0543632 0
M  V30 1768 H 172.052 1.71592 -0.815863 0
M  V30 1769 H 170.202 3.86102 0.431007 0
M  V30 1770 H 171.874 4.07057 -2.1703 0
M  V30 1771 H 170.117 3.79476 -2.10191 0
M  V30 1772 H 170.788 5.31284 -1.49804 0
M  V30 1773 H 173.264 4.16074 0.0464781 0
M  V30 1774 H 172.14 5.4657 0.505206 0
M  V30 1775 H 172.401 4.11995 1.60352 0
M  V30 1776 N 171.46 0.379036 1.52974 0
M  V30 1777 C 172.7 -0.206325 2.03356 0
M  V30 1778 C 173.064 -1.44892 1.25977 0
M  V30 1779 O 174.265 -2.11078 1.66432 0
M  V30 1780 C 172.536 -0.477887 3.54191 0
M  V30 1781 S 174.095 -1.035 4.26419 0
M  V30 1782 H 170.913 -0.0590259 0.708546 0
M  V30 1783 H 173.515 0.525013 1.88319 0
M  V30 1784 H 172.219 0.433745 4.08101 0
M  V30 1785 H 171.75 -1.23793 3.73415 0
M  V30 1786 H 173.765 -2.31821 4.38718 0
M  V30 1787 N 172.938 -1.57226 0.108567 0
M  V30 1788 C 174.185 -1.94833 -0.551943 0
M  V30 1789 C 174.513 -0.991204 -1.67348 0
M  V30 1790 O 173.768 -0.0131878 -1.95696 0
M  V30 1791 C 174.067 -3.38911 -1.13463 0
M  V30 1792 C 173.733 -4.50696 -0.135509 0
M  V30 1793 C 172.395 -4.80998 0.139252 0
M  V30 1794 C 174.747 -5.18333 0.545957 0
M  V30 1795 C 172.075 -5.76259 1.10194 0
M  V30 1796 C 174.427 -6.14627 1.49721 0
M  V30 1797 C 173.091 -6.43327 1.78006 0
M  V30 1798 H 172.361 -0.712944 -0.20197 0
M  V30 1799 H 175.008 -1.90582 0.18726 0
M  V30 1800 H 173.313 -3.39805 -1.95037 0
M  V30 1801 H 175.01 -3.65317 -1.65362 0
M  V30 1802 H 171.6 -4.27087 -0.359846 0
M  V30 1803 H 175.784 -4.95087 0.346842 0
M  V30 1804 H 171.04 -5.96804 1.32795 0
M  V30 1805 H 175.214 -6.66126 2.03099 0
M  V30 1806 H 172.841 -7.1695 2.52759 0
M  V30 1807 N 174.416 0.165178 -1.56732 0
M  V30 1808 C 175.693 0.908443 -1.73224 0
M  V30 1809 C 176.073 2.0013 -0.67165 0
M  V30 1810 O 175.421 2.26353 0.31253 0
M  V30 1811 C 175.631 1.46756 -3.16644 0
M  V30 1812 C 176.979 1.93809 -3.77787 0
M  V30 1813 O 178.003 1.56537 -3.1996 0
M  V30 1814 O 176.862 2.62486 -4.79336 0
M  V30 1815 H 173.956 0.428025 -0.707618 0
M  V30 1816 H 176.502 0.152526 -1.69013 0
M  V30 1817 H 175.274 0.68129 -3.85323 0
M  V30 1818 H 174.897 2.28749 -3.25207 0
M  V30 1819 N 175.894 1.51508 0.433938 0
M  V30 1820 C 177.305 1.56784 1.01369 0
M  V30 1821 C 177.656 0.393349 1.92217 0
M  V30 1822 O 176.781 -0.489441 2.10792 0
M  V30 1823 C 177.376 2.84144 1.8452 0
M  V30 1824 C 175.935 2.9198 2.37539 0
M  V30 1825 C 175.082 2.51482 1.16843 0
M  V30 1826 H 178.033 1.57236 0.215081 0
M  V30 1827 H 178.054 2.68098 2.70007 0
M  V30 1828 H 177.566 3.69607 1.18373 0
M  V30 1829 H 175.667 2.10955 3.0713 0
M  V30 1830 H 175.78 3.95704 2.70103 0
M  V30 1831 H 174.144 2.04758 1.51481 0
M  V30 1832 H 174.927 3.39293 0.523015 0
M  V30 1833 N 177.372 -0.689602 1.41712 0
M  V30 1834 C 178.302 -1.81577 1.46806 0
M  V30 1835 C 179.283 -1.66945 0.326105 0
M  V30 1836 O 180.468 -1.86588 0.538377 0
M  V30 1837 C 177.598 -3.19762 1.35535 0
M  V30 1838 C 176.552 -3.49107 2.47605 0
M  V30 1839 C 175.878 -4.86711 2.21397 0
M  V30 1840 C 177.178 -3.47483 3.89939 0
M  V30 1841 H 178.872 -1.7757 2.41058 0
M  V30 1842 H 176.418 -0.852887 1.16025 0
M  V30 1843 H 178.371 -3.98263 1.3771 0
M  V30 1844 H 177.095 -3.24409 0.377708 0
M  V30 1845 H 175.754 -2.72959 2.44722 0
M  V30 1846 H 175.402 -4.8799 1.21961 0
M  V30 1847 H 175.102 -5.0731 2.96497 0
M  V30 1848 H 176.626 -5.67515 2.25297 0
M  V30 1849 H 178.04 -4.1598 3.94505 0
M  V30 1850 H 176.437 -3.79615 4.64771 0
M  V30 1851 H 177.507 -2.46341 4.17665 0
M  V30 1852 N 178.85 -1.27639 -0.924453 0
M  V30 1853 C 180.127 -1.04887 -1.651 0
M  V30 1854 C 180.507 0.415327 -2.06974 0
M  V30 1855 O 179.855 1.39923 -1.80648 0
M  V30 1856 C 180.065 -2.01348 -2.85061 0
M  V30 1857 C 181.413 -2.30899 -3.56329 0
M  V30 1858 O 182.437 -1.99348 -2.95193 0
M  V30 1859 O 181.296 -2.84699 -4.66485 0
M  V30 1860 H 178.39 -0.400083 -0.723784 0
M  V30 1861 H 180.936 -1.38916 -0.974703 0
M  V30 1862 H 179.708 -3.0008 -2.51133 0
M  V30 1863 H 179.331 -1.679 -3.6041 0
M  V30 1864 N 180.328 1.1314 -1.09713 0
M  V30 1865 C 181.576 1.84119 -0.833338 0
M  V30 1866 C 181.897 1.84097 0.642904 0
M  V30 1867 O 181.167 1.29881 1.46655 0
M  V30 1868 H 179.747 0.681766 -0.305293 0
M  V30 1869 H 182.409 1.37038 -1.38588 0
M  V30 1870 H 181.505 2.88543 -1.18951 0
M  V30 1871 N 181.806 0.884767 1.30421 0
M  V30 1872 C 183.031 0.517288 2.00845 0
M  V30 1873 C 183.456 -0.886779 1.65885 0
M  V30 1874 O 182.814 -1.58768 0.875354 0
M  V30 1875 C 182.862 0.698994 3.5376 0
M  V30 1876 O 181.966 -0.255208 4.1161 0
M  V30 1877 H 181.307 0.203872 0.631927 0
M  V30 1878 H 183.837 1.19225 1.66272 0
M  V30 1879 H 183.847 0.597912 4.03595 0
M  V30 1880 H 182.522 1.72271 3.78544 0
M  V30 1881 H 181.099 -0.10784 3.72744 0
M  V30 1882 N 183.284 -1.43765 0.645699 0
M  V30 1883 C 184.509 -2.06767 0.161883 0
M  V30 1884 C 184.934 -1.48034 -1.16049 0
M  V30 1885 O 184.292 -0.587369 -1.71522 0
M  V30 1886 C 184.34 -3.60519 0.0762003 0
M  V30 1887 O 183.444 -4.00982 -0.963721 0
M  V30 1888 H 182.785 -0.657675 0.091429 0
M  V30 1889 H 185.315 -1.84397 0.886499 0
M  V30 1890 H 185.325 -4.07853 -0.109604 0
M  V30 1891 H 184 -4.02646 1.04157 0
M  V30 1892 H 182.577 -3.65253 -0.751312 0
M  V30 1893 N 184.763 -0.387143 -1.52771 0
M  V30 1894 C 185.711 0.463953 -2.27926 0
M  V30 1895 C 186.705 1.06493 -1.31741 0
M  V30 1896 O 187.911 1.00565 -1.49287 0
M  V30 1897 H 184.286 0.16837 -0.732909 0
M  V30 1898 H 186.257 -0.19141 -2.97785 0
M  V30 1899 C 185.006 1.5803 -3.09713 0
M  V30 1900 H 184.329 1.12718 -3.83581 0
M  V30 1901 H 185.769 2.15008 -3.65442 0
M  V30 1902 C 184.228 2.53509 -2.2189 0
M  V30 1903 O 184.758 3.56863 -1.84422 0
M  V30 1904 N 182.964 2.23199 -1.86093 0
M  V30 1905 H 182.511 1.39185 -2.16761 0
M  V30 1906 H 182.469 2.87333 -1.27621 0
M  V30 1907 N 186.241 1.57166 -0.116904 0
M  V30 1908 C 187.49 1.94298 0.541407 0
M  V30 1909 C 187.803 1.00236 1.67964 0
M  V30 1910 O 189.009 1.26826 2.40057 0
M  V30 1911 C 187.465 3.45306 1.01449 0
M  V30 1912 C 187.073 4.47899 -0.0951738 0
M  V30 1913 C 188.817 3.91361 1.6443 0
M  V30 1914 C 186.724 5.90083 0.394491 0
M  V30 1915 H 185.654 0.725308 0.206019 0
M  V30 1916 H 188.305 1.82446 -0.196419 0
M  V30 1917 H 186.687 3.52385 1.80667 0
M  V30 1918 H 187.861 4.52486 -0.871374 0
M  V30 1919 H 186.176 4.11583 -0.631505 0
M  V30 1920 H 188.773 4.95004 2.02176 0
M  V30 1921 H 189.116 3.3122 2.52189 0
M  V30 1922 H 189.649 3.87073 0.917559 0
M  V30 1923 H 186.388 6.53974 -0.447004 0
M  V30 1924 H 185.908 5.88921 1.13722 0
M  V30 1925 H 187.587 6.41307 0.856399 0
M  V30 1926 N 187.719 -0.156864 1.56817 0
M  V30 1927 C 188.996 -0.899244 1.73704 0
M  V30 1928 C 189.376 -1.99771 0.682254 0
M  V30 1929 O 188.724 -2.26515 -0.300522 0
M  V30 1930 C 188.934 -1.45075 3.17418 0
M  V30 1931 C 190.282 -1.91802 3.7881 0
M  V30 1932 O 191.306 -1.54838 3.20786 0
M  V30 1933 O 190.165 -2.5994 4.80722 0
M  V30 1934 H 187.259 -0.424267 0.709878 0
M  V30 1935 H 189.805 -0.143561 1.69092 0
M  V30 1936 H 188.577 -0.660846 3.85679 0
M  V30 1937 H 188.2 -2.27021 3.26416 0
M  V30 1938 N 189.197 -1.51736 -0.425897 0
M  V30 1939 C 190.437 -1.66636 -1.18371 0
M  V30 1940 C 190.801 -0.379854 -1.88205 0
M  V30 1941 O 192.002 -0.404758 -2.65735 0
M  V30 1942 C 190.273 -2.84382 -2.16476 0
M  V30 1943 S 191.832 -3.19673 -3.0059 0
M  V30 1944 H 188.65 -0.586957 -0.40125 0
M  V30 1945 H 191.252 -1.89679 -0.473518 0
M  V30 1946 H 189.956 -3.76281 -1.63831 0
M  V30 1947 H 189.487 -2.63562 -2.92059 0
M  V30 1948 H 191.502 -2.66994 -4.18245 0
M  V30 1949 N 190.675 0.682077 -1.42076 0
M  V30 1950 C 191.605 1.80796 -1.47767 0
M  V30 1951 C 192.586 1.6677 -0.334954 0
M  V30 1952 O 193.771 1.863 -0.548264 0
M  V30 1953 C 190.901 3.19038 -1.37229 0
M  V30 1954 C 189.855 3.47789 -2.49453 0
M  V30 1955 C 189.181 4.8553 -2.23975 0
M  V30 1956 C 190.481 3.45411 -3.91776 0
M  V30 1957 H 192.175 1.7629 -2.41997 0
M  V30 1958 H 189.721 0.846721 -1.16476 0
M  V30 1959 H 191.674 3.97528 -1.39821 0
M  V30 1960 H 190.398 3.24204 -0.394907 0
M  V30 1961 H 189.057 2.71657 -2.46166 0
M  V30 1962 H 188.705 4.87337 -1.24547 0
M  V30 1963 H 188.405 5.0573 -2.99184 0
M  V30 1964 H 189.929 5.66312 -2.28304 0
M  V30 1965 H 191.343 4.13882 -3.96705 0
M  V30 1966 H 189.74 3.77145 -4.66778 0
M  V30 1967 H 190.81 2.44122 -4.18966 0
M  V30 1968 N 192.153 1.28127 0.917671 0
M  V30 1969 C 193.399 1.15223 1.66888 0
M  V30 1970 C 193.732 -0.299293 1.9188 0
M  V30 1971 O 193.007 -1.21805 1.51637 0
M  V30 1972 C 193.29 1.94706 3.02922 0
M  V30 1973 C 193.143 3.47898 2.85109 0
M  V30 1974 C 194.462 1.75939 4.03402 0
M  V30 1975 H 191.581 0.419946 0.605652 0
M  V30 1976 H 194.223 1.57398 1.06423 0
M  V30 1977 H 192.373 1.58864 3.54534 0
M  V30 1978 H 194.045 3.93624 2.40537 0
M  V30 1979 H 192.288 3.7373 2.20246 0
M  V30 1980 H 192.959 3.98765 3.81694 0
M  V30 1981 H 195.435 2.07209 3.60837 0
M  V30 1982 H 194.311 2.33931 4.96556 0
M  V30 1983 H 194.572 0.709877 4.36364 0
M  V30 1984 N 193.631 -1.12557 1.10312 0
M  V30 1985 C 194.856 -1.88405 0.867085 0
M  V30 1986 C 195.281 -1.79038 -0.576817 0
M  V30 1987 O 194.639 -1.14439 -1.40618 0
M  V30 1988 C 194.687 -3.3563 1.31851 0
M  V30 1989 O 193.791 -4.09565 0.482734 0
M  V30 1990 H 193.132 -0.585455 0.313271 0
M  V30 1991 H 195.662 -1.42352 1.4696 0
M  V30 1992 H 195.672 -3.86469 1.3079 0
M  V30 1993 H 194.347 -3.41765 2.37001 0
M  V30 1994 H 192.924 -3.68695 0.558448 0
M  V30 1995 N 195.109 -0.891671 -1.2995 0
M  V30 1996 C 196.355 -0.514261 -1.96171 0
M  V30 1997 C 196.688 0.935506 -1.70182 0
M  V30 1998 O 195.963 1.66204 -1.01028 0
M  V30 1999 C 196.246 -0.797719 -3.51153 0
M  V30 2000 C 196.099 -2.2986 -3.86632 0
M  V30 2001 C 197.418 -0.278749 -4.39216 0
M  V30 2002 H 194.537 -0.188314 -0.712535 0
M  V30 2003 H 197.179 -1.11689 -1.53706 0
M  V30 2004 H 195.329 -0.284826 -3.87455 0
M  V30 2005 H 197.001 -2.88042 -3.60319 0
M  V30 2006 H 195.244 -2.76257 -3.34462 0
M  V30 2007 H 195.915 -2.44753 -4.94773 0
M  V30 2008 H 198.391 -0.717825 -4.09862 0
M  V30 2009 H 197.267 -0.506353 -5.46559 0
M  V30 2010 H 197.528 0.820266 -4.34424 0
M  V30 2011 N 196.587 1.43421 -0.653314 0
M  V30 2012 C 197.835 2.01414 -0.166415 0
M  V30 2013 C 198.156 1.51803 1.22397 0
M  V30 2014 O 197.426 0.730693 1.81763 0
M  V30 2015 H 196.006 0.744703 -0.0585319 0
M  V30 2016 H 198.668 1.75629 -0.845003 0
M  V30 2017 H 197.764 3.11734 -0.151111 0
M  V30 2018 N 198.065 0.39524 1.52563 0
M  V30 2019 C 199.293 -0.184943 2.06072 0
M  V30 2020 C 199.708 -1.40021 1.26647 0
M  V30 2021 O 199.065 -1.79767 0.314672 0
M  V30 2022 C 199.116 -0.549179 3.57304 0
M  V30 2023 O 198.837 0.617813 4.33722 0
M  V30 2024 C 200.338 -1.18459 4.2718 0
M  V30 2025 H 197.558 -0.0265025 0.670476 0
M  V30 2026 H 200.102 0.562184 1.96621 0
M  V30 2027 H 198.257 -1.2462 3.66809 0
M  V30 2028 H 198.671 0.317091 5.23541 0
M  V30 2029 H 200.145 -1.38976 5.34219 0
M  V30 2030 H 200.622 -2.15368 3.82771 0
M  V30 2031 H 201.228 -0.528163 4.22008 0
M  V30 2032 N 199.544 -1.57102 0.125237 0
M  V30 2033 C 200.793 -1.94582 -0.531095 0
M  V30 2034 C 201.106 -1.01126 -1.6743 0
M  V30 2035 O 202.312 -1.28097 -2.39381 0
M  V30 2036 C 200.768 -3.45839 -0.996164 0
M  V30 2037 C 200.376 -4.47842 0.118926 0
M  V30 2038 C 202.12 -3.92227 -1.62352 0
M  V30 2039 C 200.027 -5.90284 -0.363192 0
M  V30 2040 H 198.957 -0.726391 -0.20217 0
M  V30 2041 H 201.608 -1.82339 0.206092 0
M  V30 2042 H 199.99 -3.53338 -1.78796 0
M  V30 2043 H 201.164 -4.52018 0.895358 0
M  V30 2044 H 199.479 -4.11243 0.653324 0
M  V30 2045 H 202.076 -4.96069 -1.99548 0
M  V30 2046 H 202.419 -3.32552 -2.50429 0
M  V30 2047 H 202.952 -3.87554 -0.897019 0
M  V30 2048 H 199.691 -6.53728 0.481679 0
M  V30 2049 H 199.211 -5.89515 -1.10597 0
M  V30 2050 H 200.89 -6.41752 -0.822377 0
M  V30 2051 N 201.022 0.148545 -1.56898 0
M  V30 2052 C 202.269 0.861418 -1.83264 0
M  V30 2053 C 202.597 1.81239 -0.705883 0
M  V30 2054 O 201.852 1.93305 0.305212 0
M  V30 2055 C 202.151 1.67064 -3.1595 0
M  V30 2056 C 201.817 0.866591 -4.42494 0
M  V30 2057 C 200.479 0.644762 -4.76861 0
M  V30 2058 C 202.831 0.30418 -5.20312 0
M  V30 2059 C 200.159 -0.15021 -5.86508 0
M  V30 2060 C 202.511 -0.477824 -6.30793 0
M  V30 2061 C 201.175 -0.710244 -6.63711 0
M  V30 2062 H 200.445 0.315215 -0.670612 0
M  V30 2063 H 203.092 0.125142 -1.91091 0
M  V30 2064 H 201.397 2.47698 -3.03567 0
M  V30 2065 H 203.094 2.22566 -3.33565 0
M  V30 2066 H 199.684 1.04955 -4.15551 0
M  V30 2067 H 203.868 0.462844 -4.94137 0
M  V30 2068 H 199.124 -0.339796 -6.10455 0
M  V30 2069 H 203.298 -0.92076 -6.90286 0
M  V30 2070 H 200.925 -1.3281 -7.48509 0
M  V30 2071 N 202.5 1.5196 0.417844 0
M  V30 2072 C 203.748 1.65263 1.16329 0
M  V30 2073 C 204.069 0.380634 1.91249 0
M  V30 2074 O 203.339 -0.604214 1.86349 0
M  V30 2075 H 201.919 0.60912 0.432414 0
M  V30 2076 H 204.581 1.88969 0.477162 0
M  V30 2077 H 203.677 2.4896 1.88217 0
M  V30 2078 N 203.978 -0.674533 1.42435 0
M  V30 2079 C 205.227 -1.43034 1.42212 0
M  V30 2080 C 205.54 -1.95555 0.0420788 0
M  V30 2081 O 206.746 -2.71374 -0.0827558 0
M  V30 2082 C 205.202 -2.58748 2.50155 0
M  V30 2083 C 204.81 -2.12925 3.94166 0
M  V30 2084 C 206.554 -3.36257 2.59098 0
M  V30 2085 C 204.461 -3.25723 4.93618 0
M  V30 2086 H 203.391 -0.537345 0.528939 0
M  V30 2087 H 206.042 -0.73024 1.68344 0
M  V30 2088 H 204.424 -3.31128 2.17188 0
M  V30 2089 H 205.598 -1.47697 4.36488 0
M  V30 2090 H 203.913 -1.48354 3.89076 0
M  V30 2091 H 206.51 -4.20264 3.30578 0
M  V30 2092 H 206.853 -3.82866 1.63461 0
M  V30 2093 H 207.386 -2.70947 2.9126 0
M  V30 2094 H 204.125 -2.84105 5.90732 0
M  V30 2095 H 203.645 -3.89732 4.55926 0
M  V30 2096 H 205.324 -3.91186 5.15347 0
M  V30 2097 N 205.456 -1.28612 -0.910864 0
M  V30 2098 C 206.686 -1.1862 -1.69153 0
M  V30 2099 C 207.094 0.257324 -1.87442 0
M  V30 2100 O 206.437 1.18543 -1.40332 0
M  V30 2101 C 206.499 -1.81606 -3.10257 0
M  V30 2102 C 206.163 -3.30864 -3.15243 0
M  V30 2103 C 207.16 -4.27256 -2.96223 0
M  V30 2104 C 204.845 -3.71871 -3.37664 0
M  V30 2105 C 206.839 -5.62631 -2.99541 0
M  V30 2106 C 204.526 -5.07371 -3.40614 0
M  V30 2107 C 205.524 -6.02561 -3.21573 0
M  V30 2108 O 205.212 -7.35589 -3.2429 0
M  V30 2109 H 204.944 -0.412633 -0.535453 0
M  V30 2110 H 207.498 -1.70306 -1.14827 0
M  V30 2111 H 205.728 -1.24418 -3.66138 0
M  V30 2112 H 207.417 -1.66092 -3.70362 0
M  V30 2113 H 208.183 -3.9691 -2.78725 0
M  V30 2114 H 204.062 -2.98241 -3.5153 0
M  V30 2115 H 207.606 -6.36907 -2.84597 0
M  V30 2116 H 203.503 -5.37366 -3.57642 0
M  V30 2117 H 204.271 -7.44252 -3.40633 0
M  V30 2118 N 206.934 1.1197 -1.10907 0
M  V30 2119 C 208.35 1.35591 -0.841852 0
M  V30 2120 C 208.55 1.94233 0.536246 0
M  V30 2121 O 207.606 2.1717 1.28816 0
M  V30 2122 C 208.919 2.29284 -1.94549 0
M  V30 2123 C 210.467 2.42862 -1.97451 0
M  V30 2124 C 210.942 3.39873 -3.07002 0
M  V30 2125 N 212.433 3.47433 -3.06341 0
M  V30 2126 C 213.168 4.22421 -3.87748 0
M  V30 2127 N 212.664 5.00432 -4.79103 0
M  V30 2128 N 214.457 4.17876 -3.75946 0
M  V30 2129 H 206.608 0.722664 -1.99728 0
M  V30 2130 H 208.871 0.380635 -0.868229 0
M  V30 2131 H 208.577 1.93378 -2.93765 0
M  V30 2132 H 208.451 3.29452 -1.83688 0
M  V30 2133 H 210.838 2.78046 -0.988645 0
M  V30 2134 H 210.919 1.42566 -2.12388 0
M  V30 2135 H 210.563 3.05417 -4.05811 0
M  V30 2136 H 210.493 4.40011 -2.89306 0
M  V30 2137 H 212.984 2.91784 -2.40147 0
M  V30 2138 H 213.297 5.55002 -5.37766 0
M  V30 2139 H 211.642 4.99612 -4.83128 0
M  V30 2140 H 214.833 3.56016 -3.03924 0
M  V30 2141 H 215.006 4.76061 -4.39624 0
M  V30 2142 N 208.412 0.89855 1.29475 0
M  V30 2143 C 209.359 0.373819 2.27753 0
M  V30 2144 C 210.329 -0.543444 1.56958 0
M  V30 2145 O 211.514 -0.468934 1.84948 0
M  V30 2146 C 208.654 -0.393648 3.42848 0
M  V30 2147 C 207.767 0.554379 4.28428 0
M  V30 2148 C 206.902 -0.230026 5.30702 0
M  V30 2149 C 205.941 0.712599 6.07938 0
M  V30 2150 N 205.078 -0.0373283 7.0209 0
M  V30 2151 H 209.918 1.21699 2.72017 0
M  V30 2152 H 207.455 0.611456 1.33789 0
M  V30 2153 H 209.413 -0.85466 4.08352 0
M  V30 2154 H 208.043 -1.20128 2.99615 0
M  V30 2155 H 207.095 1.13391 3.63107 0
M  V30 2156 H 208.407 1.27597 4.82204 0
M  V30 2157 H 207.561 -0.752288 6.02018 0
M  V30 2158 H 206.3 -0.984758 4.77654 0
M  V30 2159 H 205.305 1.24637 5.35486 0
M  V30 2160 H 206.53 1.46664 6.63074 0
M  V30 2161 H 204.476 -0.774348 6.51414 0
M  V30 2162 H 204.393 0.624374 7.53417 0
M  V30 2163 H 205.661 -0.539891 7.77628 0
M  V30 2164 N 209.89 -1.43072 0.660911 0
M  V30 2165 C 210.837 -2.30785 -0.0259884 0
M  V30 2166 C 211.807 -1.45184 -0.806888 0
M  V30 2167 O 212.992 -1.74041 -0.781943 0
M  V30 2168 C 210.132 -3.30861 -0.981067 0
M  V30 2169 C 209.245 -4.31558 -0.195458 0
M  V30 2170 C 208.38 -5.18712 -1.14503 0
M  V30 2171 C 207.419 -6.11097 -0.350299 0
M  V30 2172 N 206.556 -6.90849 -1.25186 0
M  V30 2173 H 211.396 -2.88975 0.727846 0
M  V30 2174 H 208.933 -1.42353 0.370682 0
M  V30 2175 H 210.891 -3.87399 -1.54849 0
M  V30 2176 H 209.521 -2.74304 -1.70169 0
M  V30 2177 H 208.573 -3.77252 0.488374 0
M  V30 2178 H 209.885 -4.9701 0.422176 0
M  V30 2179 H 209.039 -5.79914 -1.78284 0
M  V30 2180 H 207.778 -4.53404 -1.79656 0
M  V30 2181 H 206.783 -5.48976 0.300808 0
M  V30 2182 H 208.008 -6.7845 0.296941 0
M  V30 2183 H 205.954 -6.28182 -1.89005 0
M  V30 2184 H 205.871 -7.52854 -0.688971 0
M  V30 2185 H 207.139 -7.5655 -1.87757 0
M  V30 2186 N 211.368 -0.403325 -1.52352 0
M  V30 2187 C 212.593 0.176499 -2.06648 0
M  V30 2188 C 213.018 1.38577 -1.27193 0
M  V30 2189 O 212.376 1.7879 -0.300637 0
M  V30 2190 C 212.424 0.511061 -3.5696 0
M  V30 2191 O 211.528 1.60294 -3.79973 0
M  V30 2192 H 210.869 0.0167337 -0.663789 0
M  V30 2193 H 213.399 -0.574848 -1.96359 0
M  V30 2194 H 213.409 0.771362 -4.00642 0
M  V30 2195 H 212.084 -0.37296 -4.14224 0
M  V30 2196 H 210.661 1.33526 -3.48174 0
M  V30 2197 N 212.846 1.57033 -0.133567 0
M  V30 2198 C 214.074 2.00044 0.528195 0
M  V30 2199 C 214.489 1.01349 1.59291 0
M  V30 2200 O 213.846 0.00848369 1.82498 0
M  V30 2201 C 213.897 3.43018 1.1411 0
M  V30 2202 O 213.618 4.37939 0.11892 0
M  V30 2203 C 215.119 4.01237 1.88477 0
M  V30 2204 H 212.339 0.656517 0.138661 0
M  V30 2205 H 214.883 2.03267 -0.224196 0
M  V30 2206 H 213.038 3.40688 1.84418 0
M  V30 2207 H 213.452 5.21436 0.56613 0
M  V30 2208 H 214.926 5.03314 2.26669 0
M  V30 2209 H 215.403 3.41193 2.76558 0
M  V30 2210 H 216.009 4.07156 1.22898 0
M  V30 2211 N 214.325 -0.140222 1.56975 0
M  V30 2212 C 215.602 -0.880769 1.74648 0
M  V30 2213 C 215.982 -1.99036 0.703404 0
M  V30 2214 O 215.33 -2.26821 -0.27648 0
M  V30 2215 C 215.54 -1.417 3.18939 0
M  V30 2216 C 216.888 -1.87774 3.80823 0
M  V30 2217 O 217.912 -1.51427 3.2241 0
M  V30 2218 O 216.771 -2.54827 4.83452 0
M  V30 2219 H 213.865 -0.416713 0.714338 0
M  V30 2220 H 216.411 -0.125618 1.69234 0
M  V30 2221 H 215.183 -0.619902 3.86359 0
M  V30 2222 H 214.806 -2.23546 3.28805 0
M  V30 2223 N 215.803 -1.52179 -0.40978 0
M  V30 2224 C 216.713 -1.78364 -1.52392 0
M  V30 2225 C 217.729 -0.669183 -1.60617 0
M  V30 2226 O 218.905 -0.954518 -1.77344 0
M  V30 2227 C 215.97 -1.92822 -2.88133 0
M  V30 2228 C 215.031 -3.16725 -2.898 0
M  V30 2229 C 214.264 -3.30483 -4.19067 0
M  V30 2230 O 214.487 -2.49522 -5.12928 0
M  V30 2231 O 213.421 -4.2363 -4.27576 0
M  V30 2232 H 217.247 -2.72931 -1.33201 0
M  V30 2233 H 214.832 -1.37016 -0.59557 0
M  V30 2234 H 216.714 -2.04157 -3.68643 0
M  V30 2235 H 215.389 -1.01444 -3.07393 0
M  V30 2236 H 214.296 -3.10848 -2.08146 0
M  V30 2237 H 215.629 -4.07881 -2.75489 0
M  V30 2238 N 217.281 0.66697 -1.42791 0
M  V30 2239 C 218.692 1.2478 -1.38877 0
M  V30 2240 C 219.043 1.96012 -0.0859426 0
M  V30 2241 O 218.168 2.00463 0.815081 0
M  V30 2242 C 218.763 2.26938 -2.51564 0
M  V30 2243 C 217.322 2.80529 -2.50959 0
M  V30 2244 C 216.469 1.54965 -2.29959 0
M  V30 2245 H 219.42 0.459853 -1.51892 0
M  V30 2246 H 219.441 3.08834 -2.22265 0
M  V30 2247 H 218.953 1.75065 -3.46372 0
M  V30 2248 H 217.054 3.36502 -1.59991 0
M  V30 2249 H 217.167 3.29012 -3.48265 0
M  V30 2250 H 215.531 1.81817 -1.78366 0
M  V30 2251 H 216.314 1.05047 -3.26833 0
M  V30 2252 N 218.759 1.29093 0.90403 0
M  V30 2253 C 219.984 1.19809 1.69294 0
M  V30 2254 C 220.409 -0.238481 1.86582 0
M  V30 2255 O 219.767 -1.1723 1.383 0
M  V30 2256 C 219.815 1.91202 3.05736 0
M  V30 2257 O 218.919 1.22611 3.93752 0
M  V30 2258 H 218.26 0.415385 0.518027 0
M  V30 2259 H 220.79 1.70586 1.12967 0
M  V30 2260 H 220.8 1.99487 3.55906 0
M  V30 2261 H 219.475 2.95692 2.92471 0
M  V30 2262 H 218.052 1.22554 3.52186 0
M  V30 2263 N 220.237 -1.11381 1.11499 0
M  V30 2264 C 221.147 -2.21019 0.786628 0
M  V30 2265 C 222.163 -1.72597 -0.220507 0
M  V30 2266 O 223.339 -2.01321 -0.0565251 0
M  V30 2267 C 220.404 -3.459 0.235333 0
M  V30 2268 C 219.465 -4.09107 1.30115 0
M  V30 2269 C 218.698 -5.28027 0.776068 0
M  V30 2270 O 218.921 -5.6904 -0.393661 0
M  V30 2271 O 217.855 -5.81835 1.54114 0
M  V30 2272 H 221.681 -2.51521 1.70209 0
M  V30 2273 H 219.266 -1.19928 0.890928 0
M  V30 2274 H 221.148 -4.21346 -0.067715 0
M  V30 2275 H 219.823 -3.17049 -0.652828 0
M  V30 2276 H 218.73 -3.35391 1.65722 0
M  V30 2277 H 220.063 -4.42139 2.16273 0
M  V30 2278 N 221.715 -0.905404 -1.28997 0
M  V30 2279 C 222.662 -0.385892 -2.27551 0
M  V30 2280 C 223.632 0.535113 -1.57244 0
M  V30 2281 O 224.817 0.459119 -1.85194 0
M  V30 2282 C 221.957 0.375461 -3.43051 0
M  V30 2283 C 221.07 -0.577092 -4.28128 0
M  V30 2284 C 220.205 0.201879 -5.30816 0
M  V30 2285 C 219.244 -0.744829 -6.07551 0
M  V30 2286 N 218.381 9.42587e-05 -7.021 0
M  V30 2287 H 223.221 -1.23139 -2.71368 0
M  V30 2288 H 220.758 -0.618542 -1.33463 0
M  V30 2289 H 222.716 0.832992 -4.088 0
M  V30 2290 H 221.346 1.18537 -3.00248 0
M  V30 2291 H 220.398 -1.15315 -3.62501 0
M  V30 2292 H 221.71 -1.30152 -4.8152 0
M  V30 2293 H 220.864 0.720351 -6.02408 0
M  V30 2294 H 219.603 0.959413 -4.7817 0
M  V30 2295 H 218.608 -1.27475 -5.34818 0
M  V30 2296 H 219.833 -1.50178 -6.62286 0
M  V30 2297 H 217.779 0.739791 -6.51815 0
M  V30 2298 H 217.696 -0.664321 -7.53076 0
M  V30 2299 H 218.964 0.498644 -7.77903 0
M  V30 2300 N 223.193 1.4272 -0.668489 0
M  V30 2301 C 224.47 1.95248 -0.117373 0
M  V30 2302 C 224.85 1.60919 1.36632 0
M  V30 2303 O 224.198 0.902095 2.09939 0
M  V30 2304 C 224.408 3.46927 -0.379806 0
M  V30 2305 C 225.756 4.23588 -0.292923 0
M  V30 2306 O 226.78 3.5482 -0.313204 0
M  V30 2307 O 225.639 5.46017 -0.229697 0
M  V30 2308 H 222.733 0.827 0.00079152 0
M  V30 2309 H 225.279 1.52581 -0.742783 0
M  V30 2310 H 224.051 3.65096 -1.40786 0
M  V30 2311 H 223.674 3.96627 0.277923 0
M  V30 2312 N 224.671 0.411399 1.52136 0
M  V30 2313 C 225.634 -0.401089 2.25663 0
M  V30 2314 C 226.634 -0.971732 1.28117 0
M  V30 2315 O 227.824 -0.850254 1.52041 0
M  V30 2316 C 224.956 -1.56483 3.02863 0
M  V30 2317 H 226.149 0.24295 2.98914 0
M  V30 2318 H 223.702 0.163968 1.55438 0
M  V30 2319 H 224.437 -2.24567 2.33967 0
M  V30 2320 H 224.222 -1.16211 3.74483 0
M  V30 2321 H 225.712 -2.13951 3.58629 0
M  V30 2322 N 226.149 -1.5696 0.141893 0
M  V30 2323 C 227.079 -2.19516 -0.795936 0
M  V30 2324 C 228.06 -1.14187 -1.26077 0
M  V30 2325 O 229.245 -1.42511 -1.31925 0
M  V30 2326 C 226.375 -2.81272 -2.03723 0
M  V30 2327 C 225.329 -3.92384 -1.70936 0
M  V30 2328 C 224.655 -4.41052 -3.02287 0
M  V30 2329 C 225.955 -5.13403 -0.959954 0
M  V30 2330 H 227.649 -2.98138 -0.274596 0
M  V30 2331 H 225.195 -1.43406 -0.130636 0
M  V30 2332 H 227.148 -3.237 -2.69808 0
M  V30 2333 H 225.872 -1.99973 -2.58221 0
M  V30 2334 H 224.531 -3.50566 -1.07232 0
M  V30 2335 H 224.179 -3.56582 -3.54765 0
M  V30 2336 H 223.879 -5.15993 -2.81114 0
M  V30 2337 H 225.403 -4.86146 -3.69451 0
M  V30 2338 H 226.817 -5.52706 -1.52279 0
M  V30 2339 H 225.214 -5.94073 -0.848357 0
M  V30 2340 H 226.284 -4.84875 0.0492434 0
M  V30 2341 N 227.627 0.131896 -1.57047 0
M  V30 2342 C 228.559 1.1878 -1.9602 0
M  V30 2343 C 229.572 1.38363 -0.857875 0
M  V30 2344 O 230.761 1.37666 -1.13623 0
M  V30 2345 C 227.861 2.55008 -2.23213 0
M  V30 2346 C 227.034 2.56201 -3.54513 0
M  V30 2347 C 226.093 3.7408 -3.70069 0
M  V30 2348 O 225.119 3.58258 -4.42312 0
M  V30 2349 N 226.321 4.92137 -3.07866 0
M  V30 2350 H 229.086 0.85639 -2.87204 0
M  V30 2351 H 226.647 0.321309 -1.5868 0
M  V30 2352 H 228.639 3.32404 -2.30846 0
M  V30 2353 H 227.209 2.80382 -1.3822 0
M  V30 2354 H 226.429 1.64613 -3.58185 0
M  V30 2355 H 227.717 2.54043 -4.4084 0
M  V30 2356 H 227.115 5.07895 -2.49116 0
M  V30 2357 H 225.672 5.67254 -3.21039 0
M  V30 2358 N 229.106 1.52395 0.401703 0
M  V30 2359 C 230.517 1.58899 0.980202 0
M  V30 2360 C 230.868 0.434032 1.91339 0
M  V30 2361 O 229.993 -0.444619 2.11783 0
M  V30 2362 C 230.588 2.87994 1.78451 0
M  V30 2363 C 229.147 2.96953 2.31292 0
M  V30 2364 C 228.294 2.53903 1.11483 0
M  V30 2365 H 231.245 1.57657 0.18168 0
M  V30 2366 H 231.266 2.73765 2.64259 0
M  V30 2367 H 230.778 3.72035 1.10506 0
M  V30 2368 H 228.879 2.17422 3.02586 0
M  V30 2369 H 228.992 4.01344 2.61649 0
M  V30 2370 H 227.356 2.07925 1.47104 0
M  V30 2371 H 228.139 3.40326 0.450928 0
M  V30 2372 N 230.584 -0.659388 1.43143 0
M  V30 2373 C 231.832 -1.41654 1.44147 0
M  V30 2374 C 232.153 -1.94893 0.0645739 0
M  V30 2375 O 231.423 -1.74044 -0.899198 0
M  V30 2376 H 230.003 -0.525708 0.530697 0
M  V30 2377 H 232.665 -0.778097 1.78694 0
M  V30 2378 H 231.761 -2.26195 2.1504 0
M  V30 2379 N 232.062 -1.29571 -0.897171 0
M  V30 2380 C 233.478 -1.07637 -1.17841 0
M  V30 2381 C 233.678 0.170713 -2.00776 0
M  V30 2382 O 232.734 0.867768 -2.3712 0
M  V30 2383 C 234.047 -2.3332 -1.8969 0
M  V30 2384 C 235.595 -2.38664 -2.02505 0
M  V30 2385 C 236.07 -3.64157 -2.77765 0
M  V30 2386 N 237.561 -3.64894 -2.85318 0
M  V30 2387 C 238.296 -4.58679 -3.44094 0
M  V30 2388 N 237.792 -5.62799 -4.04017 0
M  V30 2389 N 239.585 -4.46245 -3.41793 0
M  V30 2390 H 231.736 -2.09598 -0.343883 0
M  V30 2391 H 233.999 -0.923333 -0.214848 0
M  V30 2392 H 233.705 -3.24262 -1.36187 0
M  V30 2393 H 233.579 -2.41025 -2.9015 0
M  V30 2394 H 235.966 -1.48208 -2.55183 0
M  V30 2395 H 236.047 -2.34943 -1.01171 0
M  V30 2396 H 235.691 -4.54965 -2.25763 0
M  V30 2397 H 235.621 -3.65137 -3.7945 0
M  V30 2398 H 238.112 -2.89613 -2.42761 0
M  V30 2399 H 238.425 -6.3048 -4.46895 0
M  V30 2400 H 236.77 -5.66605 -4.02472 0
M  V30 2401 H 239.961 -3.64094 -2.94199 0
M  V30 2402 H 240.134 -5.19518 -3.87304 0
M  V30 2403 N 233.54 1.10788 -1.12088 0
M  V30 2404 C 234.488 2.19111 -0.780587 0
M  V30 2405 C 235.482 1.67818 0.230961 0
M  V30 2406 O 236.688 1.79777 0.0895427 0
M  V30 2407 H 233.063 0.714477 -0.234578 0
M  V30 2408 H 235.034 2.45055 -1.70266 0
M  V30 2409 C 233.783 3.46818 -0.24747 0
M  V30 2410 H 233.106 3.86646 -1.01712 0
M  V30 2411 H 234.546 4.23973 -0.0476291 0
M  V30 2412 C 233.005 3.20968 1.02378 0
M  V30 2413 O 233.535 3.42298 2.10226 0
M  V30 2414 N 231.741 2.74658 0.949271 0
M  V30 2415 H 231.288 2.57501 0.0715173 0
M  V30 2416 H 231.246 2.57739 1.80049 0
M  V30 2417 N 235.018 0.912232 1.28515 0
M  V30 2418 C 235.948 0.416403 2.29757 0
M  V30 2419 C 236.929 -0.515194 1.6211 0
M  V30 2420 O 238.114 -0.423253 1.89532 0
M  V30 2421 C 235.244 -0.34572 3.45575 0
M  V30 2422 C 234.198 0.496599 4.25109 0
M  V30 2423 C 233.524 -0.393771 5.33248 0
M  V30 2424 C 234.824 1.75307 4.92001 0
M  V30 2425 H 236.518 1.26249 2.7148 0
M  V30 2426 H 234.064 0.608515 1.30511 0
M  V30 2427 H 236.017 -0.703422 4.15488 0
M  V30 2428 H 234.741 -1.2257 3.02728 0
M  V30 2429 H 233.4 0.8368 3.56922 0
M  V30 2430 H 233.048 -1.27225 4.86644 0
M  V30 2431 H 232.748 0.166209 5.87365 0
M  V30 2432 H 234.272 -0.747389 6.06009 0
M  V30 2433 H 235.686 1.46437 5.54283 0
M  V30 2434 H 234.083 2.25534 5.56106 0
M  V30 2435 H 235.153 2.48176 4.16577 0
M  V30 2436 N 236.496 -1.42363 0.676048 0
M  V30 2437 C 237.742 -2.0182 0.199125 0
M  V30 2438 C 238.075 -1.53339 -1.19168 0
M  V30 2439 O 237.35 -0.736124 -1.80032 0
M  V30 2440 C 237.633 -3.59331 0.235144 0
M  V30 2441 C 237.486 -4.17989 1.66149 0
M  V30 2442 C 238.805 -4.3813 -0.41595 0
M  V30 2443 H 235.924 -0.733293 0.0738311 0
M  V30 2444 H 238.566 -1.69368 0.86107 0
M  V30 2445 H 236.716 -3.87109 -0.328487 0
M  V30 2446 H 238.388 -4.0116 2.27747 0
M  V30 2447 H 236.631 -3.7377 2.20178 0
M  V30 2448 H 237.302 -5.27126 1.63837 0
M  V30 2449 H 239.778 -4.16051 0.0638529 0
M  V30 2450 H 238.654 -5.47717 -0.360115 0
M  V30 2451 H 238.915 -4.16101 -1.49373 0
M  V30 2452 N 237.974 -0.419461 -1.51915 0
M  V30 2453 C 238.937 0.389116 -2.25873 0
M  V30 2454 C 239.937 0.964924 -1.28631 0
M  V30 2455 O 241.127 0.842179 -1.52489 0
M  V30 2456 C 238.259 1.54874 -3.03689 0
M  V30 2457 H 239.452 -0.258799 -2.98781 0
M  V30 2458 H 237.005 -0.172209 -1.55348 0
M  V30 2459 H 237.74 2.23323 -2.35154 0
M  V30 2460 H 237.525 1.14223 -3.75094 0
M  V30 2461 H 239.015 2.12046 -3.59759 0
M  V30 2462 N 239.452 1.56882 -0.150215 0
M  V30 2463 C 240.415 2.1573 0.774157 0
M  V30 2464 C 241.415 1.0999 1.17298 0
M  V30 2465 O 242.605 1.35613 1.09338 0
M  V30 2466 C 239.737 2.72302 2.05096 0
M  V30 2467 H 240.93 2.98752 0.262201 0
M  V30 2468 H 238.483 1.55985 0.099248 0
M  V30 2469 H 239.218 1.92956 2.6065 0
M  V30 2470 H 239.003 3.49665 1.77416 0
M  V30 2471 H 240.493 3.17632 2.71109 0
M  V30 2472 N 240.93 -0.123565 1.57115 0
M  V30 2473 C 242.178 -0.83051 1.84247 0
M  V30 2474 C 242.499 -1.80629 0.73471 0
M  V30 2475 O 241.769 -1.94403 -0.241688 0
M  V30 2476 H 240.349 -0.309694 0.679778 0
M  V30 2477 H 243.011 -0.111976 1.94578 0
M  V30 2478 H 242.107 -1.37852 2.80006 0
M  V30 2479 N 242.408 -1.52605 -0.393616 0
M  V30 2480 C 243.638 -1.71046 -1.15874 0
M  V30 2481 C 244.046 -0.426483 -1.84331 0
M  V30 2482 O 243.389 0.608513 -1.73329 0
M  V30 2483 C 243.451 -2.80118 -2.25332 0
M  V30 2484 C 243.115 -4.21381 -1.76881 0
M  V30 2485 C 244.112 -5.04697 -1.24808 0
M  V30 2486 C 241.797 -4.67683 -1.83244 0
M  V30 2487 C 243.791 -6.32393 -0.797387 0
M  V30 2488 C 241.478 -5.95364 -1.37787 0
M  V30 2489 C 242.476 -6.77549 -0.861208 0
M  V30 2490 O 242.164 -8.02837 -0.413252 0
M  V30 2491 H 241.896 -0.576155 -0.353583 0
M  V30 2492 H 244.45 -2.00018 -0.467123 0
M  V30 2493 H 242.68 -2.46557 -2.97904 0
M  V30 2494 H 244.369 -2.87006 -2.87023 0
M  V30 2495 H 245.135 -4.70111 -1.19252 0
M  V30 2496 H 241.014 -4.03805 -2.22401 0
M  V30 2497 H 244.558 -6.9649 -0.393437 0
M  V30 2498 H 240.455 -6.29455 -1.43026 0
M  V30 2499 H 241.223 -8.16749 -0.53515 0
M  V30 2500 N 243.887 0.651787 -1.4349 0
M  V30 2501 C 244.85 1.74647 -1.48429 0
M  V30 2502 C 245.85 1.56513 -0.368817 0
M  V30 2503 O 247.04 1.62385 -0.630623 0
M  V30 2504 C 244.172 3.13533 -1.33827 0
M  V30 2505 H 245.365 1.71649 -2.4592 0
M  V30 2506 H 242.918 0.863573 -1.30277 0
M  V30 2507 H 243.653 3.22142 -0.37349 0
M  V30 2508 H 243.438 3.28101 -2.14691 0
M  V30 2509 H 244.928 3.93356 -1.40218 0
M  V30 2510 N 245.365 1.30045 0.890287 0
M  V30 2511 C 246.295 1.18541 2.01172 0
M  V30 2512 C 247.276 0.0773356 1.69924 0
M  V30 2513 O 248.461 0.25845 1.92473 0
M  V30 2514 C 245.591 0.870941 3.36202 0
M  V30 2515 C 244.545 1.93637 3.81692 0
M  V30 2516 C 243.871 1.475 5.13953 0
M  V30 2517 C 245.171 3.34666 4.00994 0
M  V30 2518 H 246.865 2.12359 2.11054 0
M  V30 2519 H 244.411 1.02238 1.01407 0
M  V30 2520 H 246.364 0.777141 4.14172 0
M  V30 2521 H 245.088 -0.102926 3.26438 0
M  V30 2522 H 243.747 2.01972 3.05946 0
M  V30 2523 H 243.395 0.489551 5.00612 0
M  V30 2524 H 243.095 2.1876 5.4536 0
M  V30 2525 H 244.619 1.39489 5.94454 0
M  V30 2526 H 246.033 3.2912 4.69417 0
M  V30 2527 H 244.43 4.03966 4.43769 0
M  V30 2528 H 245.5 3.76949 3.05021 0
M  V30 2529 N 246.843 -1.10192 1.12674 0
M  V30 2530 C 248.073 -1.85713 0.905213 0
M  V30 2531 C 248.481 -1.81056 -0.549108 0
M  V30 2532 O 247.824 -1.19927 -1.39151 0
M  V30 2533 C 247.886 -3.34972 1.30516 0
M  V30 2534 C 247.55 -3.63385 2.77129 0
M  V30 2535 C 248.547 -3.59772 3.75313 0
M  V30 2536 C 246.232 -3.91981 3.14096 0
M  V30 2537 C 248.226 -3.84354 5.08479 0
M  V30 2538 C 245.913 -4.16218 4.47443 0
M  V30 2539 C 246.911 -4.12395 5.44444 0
M  V30 2540 O 246.599 -4.36014 6.75387 0
M  V30 2541 H 246.331 -0.593719 0.323223 0
M  V30 2542 H 248.885 -1.40198 1.50112 0
M  V30 2543 H 247.115 -3.81156 0.652463 0
M  V30 2544 H 248.804 -3.91886 1.05736 0
M  V30 2545 H 249.57 -3.37716 3.48099 0
M  V30 2546 H 245.449 -3.94085 2.39202 0
M  V30 2547 H 248.993 -3.81285 5.84181 0
M  V30 2548 H 244.89 -4.37754 4.74386 0
M  V30 2549 H 245.658 -4.53516 6.8137 0
M  V30 2550 N 248.321 -0.919034 -1.28029 0
M  V30 2551 C 249.569 -0.553838 -1.94363 0
M  V30 2552 C 249.89 0.906357 -1.72656 0
M  V30 2553 O 249.16 1.64143 -1.0693 0
M  V30 2554 H 247.74 -0.201834 -0.719216 0
M  V30 2555 H 250.402 -1.16954 -1.55909 0
M  V30 2556 H 249.498 -0.752758 -3.02886 0
M  V30 2557 N 249.799 1.42003 -0.683588 0
M  V30 2558 C 251.024 2.06265 -0.216647 0
M  V30 2559 C 251.449 1.51059 1.12083 0
M  V30 2560 O 250.807 0.632638 1.69904 0
M  V30 2561 C 250.855 3.60191 -0.171759 0
M  V30 2562 O 249.959 4.03396 0.857069 0
M  V30 2563 H 249.3 0.65502 -0.108834 0
M  V30 2564 H 251.83 1.81982 -0.935077 0
M  V30 2565 H 251.84 4.08 0.0014303 0
M  V30 2566 H 250.515 3.99743 -1.14796 0
M  V30 2567 H 249.092 3.67117 0.654208 0
M  V30 2568 N 251.277 0.427512 1.51691 0
M  V30 2569 C 252.24 -0.377132 2.26076 0
M  V30 2570 C 253.24 -0.958089 1.29141 0
M  V30 2571 O 254.43 -0.83408 1.52934 0
M  V30 2572 C 251.562 -1.53262 3.04506 0
M  V30 2573 H 252.755 0.27464 2.9864 0
M  V30 2574 H 250.308 0.180445 1.55255 0
M  V30 2575 H 251.043 -2.22072 2.36335 0
M  V30 2576 H 250.828 -1.12232 3.75694 0
M  V30 2577 H 252.318 -2.10135 3.60878 0
M  V30 2578 N 252.755 -1.56801 0.158532 0
M  V30 2579 C 253.983 -2.00859 -0.496303 0
M  V30 2580 C 254.398 -1.03871 -1.57659 0
M  V30 2581 O 253.755 -0.0375165 -1.82461 0
M  V30 2582 C 253.806 -3.4479 -1.08638 0
M  V30 2583 O 253.527 -4.38072 -0.0492322 0
M  V30 2584 C 255.028 -4.04185 -1.8207 0
M  V30 2585 H 252.248 -0.65864 -0.128199 0
M  V30 2586 H 254.792 -2.02885 0.256506 0
M  V30 2587 H 252.947 -3.43579 -1.78975 0
M  V30 2588 H 253.361 -5.2227 -0.483102 0
M  V30 2589 H 254.835 -5.06857 -2.18633 0
M  V30 2590 H 255.312 -3.45549 -2.71095 0
M  V30 2591 H 255.918 -4.0906 -1.16405 0
M  V30 2592 N 254.233 0.115231 -1.57178 0
M  V30 2593 C 255.166 1.17166 -1.95825 0
M  V30 2594 C 256.144 1.39912 -0.828463 0
M  V30 2595 O 257.328 1.54004 -1.08697 0
M  V30 2596 C 254.455 2.52478 -2.25771 0
M  V30 2597 C 253.501 2.46136 -3.48309 0
M  V30 2598 S 254.334 1.89736 -5.0076 0
M  V30 2599 C 255.49 3.26713 -5.33863 0
M  V30 2600 H 255.723 0.842103 -2.85124 0
M  V30 2601 H 253.256 0.322136 -1.51002 0
M  V30 2602 H 255.214 3.30332 -2.43702 0
M  V30 2603 H 253.875 2.82609 -1.37079 0
M  V30 2604 H 253.068 3.45819 -3.66641 0
M  V30 2605 H 252.67 1.76404 -3.29784 0
M  V30 2606 H 254.962 4.22935 -5.29275 0
M  V30 2607 H 255.905 3.13205 -6.35065 0
M  V30 2608 H 256.313 3.25316 -4.61335 0
M  V30 2609 N 255.711 1.52812 0.385517 0
M  V30 2610 C 256.641 1.80808 1.47752 0
M  V30 2611 C 257.622 0.660318 1.5676 0
M  V30 2612 O 258.807 0.908246 1.71652 0
M  V30 2613 C 255.937 1.98008 2.85324 0
M  V30 2614 C 254.891 3.13709 2.91154 0
M  V30 2615 C 254.217 3.16169 4.31209 0
M  V30 2616 C 255.517 4.52709 2.60483 0
M  V30 2617 H 257.211 2.72253 1.24573 0
M  V30 2618 H 254.757 1.31003 0.597839 0
M  V30 2619 H 256.71 2.16176 3.61726 0
M  V30 2620 H 255.434 1.03255 3.09848 0
M  V30 2621 H 254.093 2.95329 2.17201 0
M  V30 2622 H 253.741 2.19092 4.52778 0
M  V30 2623 H 253.441 3.93894 4.36029 0
M  V30 2624 H 254.965 3.36496 5.09512 0
M  V30 2625 H 256.379 4.71173 3.26602 0
M  V30 2626 H 254.776 5.32528 2.76648 0
M  V30 2627 H 255.846 4.59186 1.55809 0
M  V30 2628 N 257.189 -0.644168 1.43834 0
M  V30 2629 C 258.435 -1.40603 1.46146 0
M  V30 2630 C 258.768 -1.93997 0.0887717 0
M  V30 2631 O 258.043 -1.72854 -0.891724 0
M  V30 2632 C 258.326 -2.58086 2.51124 0
M  V30 2633 C 258.179 -2.10126 3.97702 0
M  V30 2634 C 259.498 -3.60291 2.52742 0
M  V30 2635 H 256.617 -0.509905 0.532134 0
M  V30 2636 H 259.259 -0.729502 1.75437 0
M  V30 2637 H 257.409 -3.15801 2.26278 0
M  V30 2638 H 259.081 -1.57342 4.33637 0
M  V30 2639 H 257.324 -1.41419 4.10101 0
M  V30 2640 H 257.995 -2.94649 4.66783 0
M  V30 2641 H 260.471 -3.12352 2.7491 0
M  V30 2642 H 259.347 -4.40032 3.28121 0
M  V30 2643 H 259.608 -4.1349 1.56455 0
M  V30 2644 N 258.668 -1.30515 -0.883378 0
M  V30 2645 C 259.598 -1.19607 -2.00541 0
M  V30 2646 C 260.579 -0.086346 -1.69881 0
M  V30 2647 O 261.764 -0.268654 -1.92333 0
M  V30 2648 C 258.894 -0.888758 -3.35736 0
M  V30 2649 C 257.848 -1.95659 -3.8066 0
M  V30 2650 C 257.174 -1.50224 -5.13164 0
M  V30 2651 C 258.474 -3.36788 -3.99213 0
M  V30 2652 H 260.168 -2.13476 -2.09925 0
M  V30 2653 H 257.714 -1.02775 -1.00863 0
M  V30 2654 H 259.667 -0.799094 -4.13754 0
M  V30 2655 H 258.391 0.0856125 -3.26488 0
M  V30 2656 H 257.05 -2.03591 -3.04871 0
M  V30 2657 H 256.698 -0.516092 -5.00345 0
M  V30 2658 H 256.398 -2.2165 -5.44192 0
M  V30 2659 H 257.922 -1.42639 -5.93706 0
M  V30 2660 H 259.336 -3.31605 -4.67665 0
M  V30 2661 H 257.733 -4.06314 -4.41621 0
M  V30 2662 H 258.803 -3.78561 -3.03017 0
M  V30 2663 N 260.146 1.09593 -1.13257 0
M  V30 2664 C 261.109 2.14359 -0.811358 0
M  V30 2665 C 262.109 1.59808 0.178377 0
M  V30 2666 O 263.299 1.74132 -0.0484911 0
M  V30 2667 C 260.431 3.40269 -0.207276 0
M  V30 2668 H 261.624 2.44284 -1.73969 0
M  V30 2669 H 259.177 1.25102 -0.936973 0
M  V30 2670 H 259.912 3.15969 0.73036 0
M  V30 2671 H 259.697 3.81154 -0.919992 0
M  V30 2672 H 261.187 4.176 0.000667944 0
M  V30 2673 N 261.624 0.925811 1.2754 0
M  V30 2674 C 262.557 0.367836 2.25216 0
M  V30 2675 C 263.535 -0.534738 1.53556 0
M  V30 2676 O 264.719 -0.475672 1.824 0
M  V30 2677 C 261.846 -0.47298 3.35381 0
M  V30 2678 C 260.892 0.365898 4.24928 0
M  V30 2679 S 261.725 1.78025 5.05042 0
M  V30 2680 C 262.881 0.947068 6.18693 0
M  V30 2681 H 263.114 1.19568 2.72196 0
M  V30 2682 H 260.647 0.727867 1.36167 0
M  V30 2683 H 262.605 -0.952242 3.99303 0
M  V30 2684 H 261.266 -1.27533 2.87044 0
M  V30 2685 H 260.459 -0.277582 5.03235 0
M  V30 2686 H 260.061 0.779261 3.65792 0
M  V30 2687 H 262.353 0.182201 6.77255 0
M  V30 2688 H 263.296 1.70309 6.87314 0
M  V30 2689 H 263.704 0.489913 5.6237 0
M  V30 2690 N 263.102 -1.41638 0.69111 0
M  V30 2691 C 264.379 -1.95036 0.148421 0
M  V30 2692 C 264.759 -1.63072 -1.34055 0
M  V30 2693 O 264.107 -0.93538 -2.08478 0
M  V30 2694 C 264.317 -3.46279 0.434951 0
M  V30 2695 C 265.665 -4.23069 0.360275 0
M  V30 2696 O 266.689 -3.54277 0.369613 0
M  V30 2697 O 265.548 -5.45583 0.316534 0
M  V30 2698 H 262.642 -0.826908 0.0123654 0
M  V30 2699 H 265.188 -1.5138 0.766963 0
M  V30 2700 H 263.96 -3.6281 1.46576 0
M  V30 2701 H 263.583 -3.97019 -0.214787 0
M  V30 2702 N 264.58 -0.43555 -1.51462 0
M  V30 2703 C 265.82 0.130708 -2.03982 0
M  V30 2704 C 266.184 1.40117 -1.31268 0
M  V30 2705 O 267.385 2.04755 -1.74152 0
M  V30 2706 C 265.656 0.346102 -3.5572 0
M  V30 2707 S 267.215 0.876022 -4.29967 0
M  V30 2708 H 264.033 0.0326881 -0.710248 0
M  V30 2709 H 266.635 -0.594544 -1.8624 0
M  V30 2710 H 265.339 -0.584911 -4.0621 0
M  V30 2711 H 264.87 1.09849 -3.77752 0
M  V30 2712 H 266.885 2.15379 -4.47019 0
M  V30 2713 N 266.058 1.56714 -0.166846 0
M  V30 2714 C 267.306 1.96358 0.478305 0
M  V30 2715 C 267.627 1.0537 1.6408 0
M  V30 2716 O 266.897 0.119154 1.95537 0
M  V30 2717 H 265.477 0.725065 0.179692 0
M  V30 2718 H 268.139 1.93329 -0.246985 0
M  V30 2719 H 267.235 3.00547 0.841292 0
M  V30 2720 N 267.536 -0.106894 1.57237 0
M  V30 2721 C 268.782 -0.81373 1.85759 0
M  V30 2722 C 269.115 -1.78952 0.754315 0
M  V30 2723 O 268.39 -1.93029 -0.23879 0
M  V30 2724 C 268.673 -1.55293 3.24894 0
M  V30 2725 C 268.526 -0.595929 4.45835 0
M  V30 2726 C 269.845 -2.5063 3.61763 0
M  V30 2727 H 266.964 -0.294369 0.67566 0
M  V30 2728 H 269.606 -0.0776472 1.89841 0
M  V30 2729 H 267.756 -2.1804 3.21544 0
M  V30 2730 H 269.428 0.0236262 4.61294 0
M  V30 2731 H 267.671 0.0916191 4.33703 0
M  V30 2732 H 268.342 -1.15004 5.39887 0
M  V30 2733 H 270.818 -1.97982 3.65981 0
M  V30 2734 H 269.694 -2.99376 4.60071 0
M  V30 2735 H 269.955 -3.3385 2.89821 0
M  V30 2736 N 269.014 -1.53014 -0.377408 0
M  V30 2737 C 269.962 -1.7927 -1.48206 0
M  V30 2738 C 270.956 -0.661195 -1.55963 0
M  V30 2739 O 272.162 -0.843908 -1.58991 0
M  V30 2740 H 268.537 -0.567425 -0.493491 0
M  V30 2741 H 270.508 -2.71753 -1.2326 0
M  V30 2742 C 269.257 -1.98894 -2.85196 0
M  V30 2743 H 268.58 -2.85395 -2.79981 0
M  V30 2744 H 270.02 -2.21249 -3.61698 0
M  V30 2745 C 268.479 -0.764691 -3.28107 0
M  V30 2746 O 269.009 0.0523226 -4.01666 0
M  V30 2747 N 267.215 -0.591493 -2.84517 0
M  V30 2748 H 266.762 -1.25749 -2.24822 0
M  V30 2749 H 266.72 0.226253 -3.13585 0
M  V30 2750 N 270.492 0.636531 -1.44174 0
M  V30 2751 C 271.732 1.40781 -1.48189 0
M  V30 2752 C 272.096 1.91688 -0.10944 0
M  V30 2753 O 273.297 2.68789 -0.0242741 0
M  V30 2754 C 271.568 2.54575 -2.50851 0
M  V30 2755 S 273.127 3.4284 -2.73873 0
M  V30 2756 H 269.945 0.480345 -0.524204 0
M  V30 2757 H 272.547 0.737416 -1.81059 0
M  V30 2758 H 271.251 2.15478 -3.49281 0
M  V30 2759 H 270.782 3.26447 -2.19536 0
M  V30 2760 H 272.797 4.51846 -2.05059 0
M  V30 2761 N 271.97 1.30982 0.876444 0
M  V30 2762 C 273.217 1.20296 1.62896 0
M  V30 2763 C 273.545 -0.240395 1.93009 0
M  V30 2764 O 272.8 -1.18733 1.55567 0
M  V30 2765 C 273.099 1.98572 2.9716 0
M  V30 2766 C 272.765 3.48125 2.86566 0
M  V30 2767 C 271.427 3.88905 2.83383 0
M  V30 2768 C 273.779 4.43322 2.74071 0
M  V30 2769 C 271.107 5.2316 2.65556 0
M  V30 2770 C 273.459 5.77695 2.57781 0
M  V30 2771 C 272.123 6.17704 2.52979 0
M  V30 2772 H 271.393 0.440193 0.59608 0
M  V30 2773 H 274.04 1.62177 1.01837 0
M  V30 2774 H 272.345 1.49352 3.62217 0
M  V30 2775 H 274.042 1.8769 3.54364 0
M  V30 2776 H 270.632 3.15723 2.89856 0
M  V30 2777 H 274.816 4.12752 2.75589 0
M  V30 2778 H 270.072 5.53241 2.60259 0
M  V30 2779 H 274.246 6.51091 2.47089 0
M  V30 2780 H 271.873 7.21678 2.38924 0
M  V30 2781 N 273.449 -1.08991 1.13837 0
M  V30 2782 C 274.382 -2.15049 0.763477 0
M  V30 2783 C 275.36 -1.60629 -0.252398 0
M  V30 2784 O 276.544 -1.87958 -0.142853 0
M  V30 2785 C 273.671 -3.38441 0.132545 0
M  V30 2786 C 272.717 -4.11596 1.11763 0
M  V30 2787 S 273.55 -4.6521 2.65216 0
M  V30 2788 C 274.706 -5.91896 2.03495 0
M  V30 2789 H 274.939 -2.46518 1.66182 0
M  V30 2790 H 272.472 -1.21008 0.958976 0
M  V30 2791 H 274.43 -4.09883 -0.225074 0
M  V30 2792 H 273.091 -3.05182 -0.743135 0
M  V30 2793 H 272.284 -5.00121 0.624076 0
M  V30 2794 H 271.886 -3.46038 1.41894 0
M  V30 2795 H 274.178 -6.63156 1.38675 0
M  V30 2796 H 275.121 -6.45938 2.9012 0
M  V30 2797 H 275.529 -5.44625 1.48471 0
M  V30 2798 N 274.927 -0.932562 -1.27047 0
M  V30 2799 C 275.857 -0.452902 -2.29066 0
M  V30 2800 C 276.838 0.489338 -1.62909 0
M  V30 2801 O 278.023 0.393046 -1.90181 0
M  V30 2802 C 275.153 0.290698 -3.46081 0
M  V30 2803 C 274.107 -0.564168 -4.24265 0
M  V30 2804 C 273.433 0.308886 -5.33807 0
M  V30 2805 C 274.733 -1.83112 -4.89149 0
M  V30 2806 H 276.427 -1.30552 -2.69437 0
M  V30 2807 H 273.973 -0.629201 -1.29526 0
M  V30 2808 H 275.926 0.637233 -4.16554 0
M  V30 2809 H 274.65 1.17738 -3.0464 0
M  V30 2810 H 273.309 -0.893477 -3.55545 0
M  V30 2811 H 272.957 1.19467 -4.88607 0
M  V30 2812 H 272.657 -0.259633 -5.87026 0
M  V30 2813 H 274.181 0.650884 -6.07121 0
M  V30 2814 H 275.595 -1.55236 -5.51883 0
M  V30 2815 H 273.992 -2.34353 -5.52448 0
M  V30 2816 H 275.062 -2.54772 -4.12576 0
M  V30 2817 N 276.405 1.4127 -0.698611 0
M  V30 2818 C 277.682 1.94955 -0.158762 0
M  V30 2819 C 278.062 1.63781 1.33188 0
M  V30 2820 O 277.41 0.946423 2.07979 0
M  V30 2821 C 277.62 3.46044 -0.453309 0
M  V30 2822 C 278.968 4.22872 -0.382707 0
M  V30 2823 O 279.992 3.54076 -0.388396 0
M  V30 2824 O 278.851 5.45407 -0.345463 0
M  V30 2825 H 275.945 0.82683 -0.0167505 0
M  V30 2826 H 278.491 1.50971 -0.77498 0
M  V30 2827 H 277.263 3.62028 -1.48498 0
M  V30 2828 H 276.886 3.97128 0.19373 0
M  V30 2829 N 277.883 0.443576 1.51229 0
M  V30 2830 C 279.294 -0.0180867 1.86691 0
M  V30 2831 C 279.645 -1.41384 1.36033 0
M  V30 2832 O 278.77 -2.04291 0.713722 0
M  V30 2833 C 279.365 -0.039597 3.38777 0
M  V30 2834 C 277.924 -0.445692 3.73752 0
M  V30 2835 C 277.071 0.357584 2.74985 0
M  V30 2836 H 280.022 0.659138 1.44364 0
M  V30 2837 H 280.043 -0.847761 3.70936 0
M  V30 2838 H 279.555 0.976382 3.75617 0
M  V30 2839 H 277.656 -1.46704 3.42503 0
M  V30 2840 H 277.769 -0.166155 4.78812 0
M  V30 2841 H 276.133 -0.184973 2.54027 0
M  V30 2842 H 276.916 1.37256 3.14668 0
M  V30 2843 N 279.361 -1.56624 0.175154 0
M  V30 2844 C 280.324 -2.16934 -0.739738 0
M  V30 2845 C 281.324 -1.11842 -1.15533 0
M  V30 2846 O 282.514 -1.37335 -1.07167 0
M  V30 2847 C 279.646 -2.75531 -2.00738 0
M  V30 2848 H 280.839 -2.99131 -0.214639 0
M  V30 2849 H 278.392 -1.56123 -0.0744197 0
M  V30 2850 H 279.127 -1.97078 -2.57548 0
M  V30 2851 H 278.912 -3.52444 -1.71831 0
M  V30 2852 H 280.402 -3.21904 -2.66021 0
M  V30 2853 N 280.839 0.0985539 -1.57292 0
M  V30 2854 C 282.088 0.801358 -1.85098 0
M  V30 2855 C 282.401 1.80066 -0.763902 0
M  V30 2856 O 283.607 2.55112 -0.928981 0
M  V30 2857 C 282.063 1.47599 -3.28242 0
M  V30 2858 C 281.671 0.516624 -4.45011 0
M  V30 2859 C 283.415 2.16272 -3.65276 0
M  V30 2860 C 281.322 1.19564 -5.79188 0
M  V30 2861 H 280.252 0.303022 -0.69043 0
M  V30 2862 H 282.903 0.0542623 -1.8342 0
M  V30 2863 H 281.285 2.27042 -3.2445 0
M  V30 2864 H 282.459 -0.246065 -4.60143 0
M  V30 2865 H 280.774 -0.064227 -4.1635 0
M  V30 2866 H 283.371 2.67802 -4.62803 0
M  V30 2867 H 283.714 2.95009 -2.93727 0
M  V30 2868 H 284.247 1.43693 -3.70941 0
M  V30 2869 H 280.986 0.449157 -6.53959 0
M  V30 2870 H 280.506 1.92984 -5.67906 0
M  V30 2871 H 282.185 1.7231 -6.23633 0
M  V30 2872 N 282.317 1.53212 0.369288 0
M  V30 2873 C 283.565 1.68881 1.11012 0
M  V30 2874 C 283.886 0.441285 1.89941 0
M  V30 2875 O 283.156 -0.544623 1.88177 0
M  V30 2876 H 281.736 0.622569 0.412816 0
M  V30 2877 H 284.398 1.90391 0.416802 0
M  V30 2878 H 283.494 2.54822 1.80201 0
M  V30 2879 N 283.795 -0.628877 1.44509 0
M  V30 2880 C 284.705 -1.7694 1.54044 0
M  V30 2881 C 285.721 -1.68705 0.425987 0
M  V30 2882 O 286.897 -1.89442 0.683656 0
M  V30 2883 C 283.962 -3.13332 1.48405 0
M  V30 2884 C 283.023 -3.33181 2.70719 0
M  V30 2885 C 282.256 -4.63067 2.6534 0
M  V30 2886 O 282.479 -5.44017 1.71469 0
M  V30 2887 O 281.413 -4.85167 3.56226 0
M  V30 2888 H 285.239 -1.71848 2.50403 0
M  V30 2889 H 282.824 -0.790378 1.26781 0
M  V30 2890 H 284.706 -3.94634 1.47791 0
M  V30 2891 H 283.381 -3.1896 0.551898 0
M  V30 2892 H 282.288 -2.51549 2.769 0
M  V30 2893 H 283.621 -3.32416 3.62988 0
M  V30 2894 N 285.273 -1.31445 -0.869486 0
M  V30 2895 C 286.52 -1.21158 -1.62256 0
M  V30 2896 C 286.848 0.230155 -1.93133 0
M  V30 2897 O 286.103 1.17906 -1.56194 0
M  V30 2898 C 286.402 -2.00145 -2.96102 0
M  V30 2899 C 286.068 -3.4964 -2.84715 0
M  V30 2900 C 284.73 -3.90403 -2.81317 0
M  V30 2901 C 287.082 -4.44769 -2.71716 0
M  V30 2902 C 284.41 -5.24561 -2.62778 0
M  V30 2903 C 286.762 -5.79054 -2.54714 0
M  V30 2904 C 285.426 -6.19037 -2.49699 0
M  V30 2905 H 284.696 -0.443348 -0.593737 0
M  V30 2906 H 287.343 -1.62715 -1.00976 0
M  V30 2907 H 285.648 -1.5127 -3.6142 0
M  V30 2908 H 287.345 -1.89566 -3.53363 0
M  V30 2909 H 283.935 -3.17256 -2.88178 0
M  V30 2910 H 288.119 -4.14208 -2.73397 0
M  V30 2911 H 283.375 -5.54613 -2.57321 0
M  V30 2912 H 287.549 -6.52393 -2.43632 0
M  V30 2913 H 285.176 -7.22935 -2.35093 0
M  V30 2914 N 286.751 1.08385 -1.14413 0
M  V30 2915 C 288 1.80153 -0.907076 0
M  V30 2916 C 288.313 1.87176 0.567851 0
M  V30 2917 O 289.519 2.55359 0.922172 0
M  V30 2918 C 287.975 3.23687 -1.57336 0
M  V30 2919 C 287.583 3.24897 -3.08457 0
M  V30 2920 C 289.327 4.00136 -1.41744 0
M  V30 2921 C 287.234 4.6302 -3.67921 0
M  V30 2922 H 286.164 0.675139 -0.335714 0
M  V30 2923 H 288.815 1.21733 -1.37307 0
M  V30 2924 H 287.197 3.82234 -1.03505 0
M  V30 2925 H 288.371 2.76055 -3.68958 0
M  V30 2926 H 286.686 2.61943 -3.2369 0
M  V30 2927 H 289.283 5.02201 -1.83572 0
M  V30 2928 H 289.626 4.14709 -0.363576 0
M  V30 2929 H 290.159 3.48058 -1.92614 0
M  V30 2930 H 286.898 4.5365 -4.73161 0
M  V30 2931 H 286.418 5.12143 -3.12201 0
M  V30 2932 H 288.097 5.31994 -3.68227 0
M  V30 2933 N 288.23 0.939286 1.26551 0
M  V30 2934 C 289.16 0.465044 2.28822 0
M  V30 2935 C 290.141 -0.480692 1.63167 0
M  V30 2936 O 291.326 -0.382955 1.90387 0
M  V30 2937 C 288.456 -0.27234 3.46231 0
M  V30 2938 C 287.41 0.58666 4.2396 0
M  V30 2939 C 286.736 -0.280573 5.33963 0
M  V30 2940 C 288.036 1.85704 4.88171 0
M  V30 2941 H 289.73 1.31979 2.68741 0
M  V30 2942 H 287.276 0.636061 1.29191 0
M  V30 2943 H 289.229 -0.615133 4.16886 0
M  V30 2944 H 287.953 -1.16121 3.0526 0
M  V30 2945 H 286.612 0.91232 3.55067 0
M  V30 2946 H 286.26 -1.16874 4.89234 0
M  V30 2947 H 285.96 0.29076 5.8688 0
M  V30 2948 H 287.484 -0.618678 6.07458 0
M  V30 2949 H 288.898 1.58161 5.51052 0
M  V30 2950 H 287.295 2.37279 5.51197 0
M  V30 2951 H 288.365 2.56957 4.11219 0
M  V30 2952 N 289.708 -1.40897 0.706093 0
M  V30 2953 C 290.954 -2.01352 0.241889 0
M  V30 2954 C 291.287 -1.55832 -1.15888 0
M  V30 2955 O 290.562 -0.774145 -1.7843 0
M  V30 2956 C 290.845 -3.58752 0.311311 0
M  V30 2957 C 290.698 -4.1437 1.74978 0
M  V30 2958 C 292.017 -4.38914 -0.322922 0
M  V30 2959 H 289.136 -0.731562 0.0893687 0
M  V30 2960 H 291.778 -1.67504 0.896802 0
M  V30 2961 H 289.928 -3.87718 -0.246302 0
M  V30 2962 H 291.6 -3.96239 2.36205 0
M  V30 2963 H 289.843 -3.69016 2.28057 0
M  V30 2964 H 290.514 -5.23532 1.74981 0
M  V30 2965 H 292.99 -4.15822 0.152089 0
M  V30 2966 H 291.866 -5.48358 -0.243855 0
M  V30 2967 H 292.127 -4.19176 -1.40513 0
M  V30 2968 N 291.186 -0.45159 -1.50991 0
M  V30 2969 C 292.463 0.170707 -1.94854 0
M  V30 2970 C 292.843 1.58788 -1.39103 0
M  V30 2971 O 292.191 2.20913 -0.583921 0
M  V30 2972 C 292.401 0.133929 -3.48743 0
M  V30 2973 C 293.749 0.33248 -4.23296 0
M  V30 2974 O 294.773 0.211403 -3.55572 0
M  V30 2975 O 293.632 0.57486 -5.43468 0
M  V30 2976 H 290.726 0.122264 -0.817912 0
M  V30 2977 H 293.272 -0.510594 -1.61836 0
M  V30 2978 H 292.044 -0.856283 -3.81816 0
M  V30 2979 H 291.667 0.857529 -3.88242 0
M  V30 2980 N 292.664 1.56529 -0.183458 0
M  V30 2981 C 293.611 2.18546 0.742055 0
M  V30 2982 C 294.581 1.12912 1.2182 0
M  V30 2983 O 295.766 1.41115 1.28418 0
M  V30 2984 C 292.906 2.83977 1.96089 0
M  V30 2985 C 292.019 4.04105 1.52719 0
M  V30 2986 C 291.154 4.57427 2.70063 0
M  V30 2987 C 290.193 5.69938 2.23243 0
M  V30 2988 N 289.33 6.17717 3.33722 0
M  V30 2989 H 294.17 2.97284 0.206432 0
M  V30 2990 H 291.707 1.46823 0.0901571 0
M  V30 2991 H 293.665 3.20077 2.67594 0
M  V30 2992 H 292.295 2.07822 2.47002 0
M  V30 2993 H 291.347 3.73745 0.708436 0
M  V30 2994 H 292.659 4.85513 1.1436 0
M  V30 2995 H 291.813 4.95772 3.49708 0
M  V30 2996 H 290.552 3.75101 3.11689 0
M  V30 2997 H 289.557 5.31133 1.42048 0
M  V30 2998 H 290.782 6.54073 1.82661 0
M  V30 2999 H 288.728 5.38317 3.74902 0
M  V30 3000 H 288.645 6.94146 2.99495 0
M  V30 3001 H 289.913 6.60713 4.13616 0
M  V30 3002 N 294.142 -0.090211 1.57342 0
M  V30 3003 C 295.419 -0.824761 1.77361 0
M  V30 3004 C 295.799 -1.96698 0.76637 0
M  V30 3005 O 295.147 -2.27586 -0.204179 0
M  V30 3006 C 295.357 -1.31481 3.23286 0
M  V30 3007 C 296.705 -1.75563 3.86604 0
M  V30 3008 O 297.729 -1.41093 3.27065 0
M  V30 3009 O 296.588 -2.39317 4.91314 0
M  V30 3010 H 293.682 -0.393776 0.727234 0
M  V30 3011 H 296.228 -0.0717138 1.69548 0
M  V30 3012 H 295 -0.496671 3.88135 0
M  V30 3013 H 294.623 -2.12973 3.35751 0
M  V30 3014 N 295.62 -1.53406 -0.361157 0
M  V30 3015 C 296.866 -1.70054 -1.10496 0
M  V30 3016 C 297.199 -0.453278 -1.88836 0
M  V30 3017 O 296.474 0.5495 -1.86576 0
M  V30 3018 C 296.757 -2.95317 -2.06058 0
M  V30 3019 C 296.61 -4.3021 -1.31298 0
M  V30 3020 C 297.929 -3.16193 -3.06121 0
M  V30 3021 H 295.048 -0.618799 -0.400321 0
M  V30 3022 H 297.69 -1.86052 -0.385318 0
M  V30 3023 H 295.84 -2.81809 -2.67425 0
M  V30 3024 H 297.512 -4.55538 -0.726807 0
M  V30 3025 H 295.755 -4.29421 -0.614853 0
M  V30 3026 H 296.426 -5.14 -2.01265 0
M  V30 3027 H 298.902 -3.28916 -2.5486 0
M  V30 3028 H 297.778 -4.05266 -3.70204 0
M  V30 3029 H 298.039 -2.31676 -3.76535 0
M  V30 3030 N 297.098 0.621204 -1.44841 0
M  V30 3031 C 298.045 1.73267 -1.5247 0
M  V30 3032 C 299.015 1.6189 -0.371611 0
M  V30 3033 O 300.2 1.81668 -0.58321 0
M  V30 3034 C 297.34 3.11545 -1.48438 0
M  V30 3035 C 296.453 3.33827 -2.74196 0
M  V30 3036 C 295.588 4.62133 -2.61929 0
M  V30 3037 C 294.627 4.77627 -3.82804 0
M  V30 3038 N 293.764 5.97219 -3.69153 0
M  V30 3039 H 298.604 1.66082 -2.47428 0
M  V30 3040 H 296.141 0.810026 -1.22788 0
M  V30 3041 H 298.099 3.91528 -1.4409 0
M  V30 3042 H 296.729 3.1772 -0.570402 0
M  V30 3043 H 295.781 2.47715 -2.88689 0
M  V30 3044 H 297.093 3.41153 -3.6389 0
M  V30 3045 H 296.247 5.50291 -2.5547 0
M  V30 3046 H 294.986 4.57182 -1.69811 0
M  V30 3047 H 293.991 3.87896 -3.89637 0
M  V30 3048 H 295.216 4.84385 -4.75971 0
M  V30 3049 H 293.162 5.93339 -2.79794 0
M  V30 3050 H 293.079 6.05644 -4.52472 0
M  V30 3051 H 294.347 6.87912 -3.66603 0
M  V30 3052 N 298.576 1.31904 0.862503 0
M  V30 3053 C 299.825 1.21373 1.61094 0
M  V30 3054 C 300.138 -0.22504 1.94301 0
M  V30 3055 O 301.344 -0.452121 2.67709 0
M  V30 3056 C 299.8 2.12525 2.9045 0
M  V30 3057 C 299.408 3.61441 2.64697 0
M  V30 3058 C 301.152 2.10813 3.68454 0
M  V30 3059 C 299.059 4.44578 3.90006 0
M  V30 3060 H 297.989 0.450705 0.604468 0
M  V30 3061 H 300.64 1.56811 0.953027 0
M  V30 3062 H 299.022 1.69994 3.57656 0
M  V30 3063 H 300.196 4.12264 2.05851 0
M  V30 3064 H 298.511 3.65205 2.00036 0
M  V30 3065 H 301.108 2.70167 4.61426 0
M  V30 3066 H 301.451 1.09713 4.01583 0
M  V30 3067 H 301.984 2.51583 3.08141 0
M  V30 3068 H 298.723 5.46461 3.62023 0
M  V30 3069 H 298.243 3.98508 4.48276 0
M  V30 3070 H 299.922 4.57176 4.5782 0
M  V30 3071 N 300.054 -1.07777 1.14986 0
M  V30 3072 C 301.001 -2.14867 0.842672 0
M  V30 3073 C 301.971 -1.6486 -0.202552 0
M  V30 3074 O 303.156 -1.90668 -0.0710568 0
M  V30 3075 C 300.296 -3.43486 0.333363 0
M  V30 3076 C 299.409 -4.07306 1.43965 0
M  V30 3077 C 298.544 -5.23744 0.886914 0
M  V30 3078 C 297.583 -5.79517 1.97043 0
M  V30 3079 N 296.72 -6.87291 1.4344 0
M  V30 3080 H 301.56 -2.40485 1.75986 0
M  V30 3081 H 299.097 -1.1801 0.878179 0
M  V30 3082 H 301.055 -4.17195 0.0198163 0
M  V30 3083 H 299.685 -3.18133 -0.546916 0
M  V30 3084 H 298.737 -3.31293 1.86946 0
M  V30 3085 H 300.049 -4.44771 2.25788 0
M  V30 3086 H 299.203 -6.04419 0.525651 0
M  V30 3087 H 297.942 -4.87685 0.0377957 0
M  V30 3088 H 296.947 -4.97491 2.34057 0
M  V30 3089 H 298.172 -6.17632 2.82325 0
M  V30 3090 H 296.118 -6.5318 0.607567 0
M  V30 3091 H 296.035 -7.23617 2.18895 0
M  V30 3092 H 297.303 -7.71682 1.10124 0
M  V30 3093 N 301.532 -0.945985 -1.26051 0
M  V30 3094 C 302.479 -0.45809 -2.26208 0
M  V30 3095 C 303.449 0.484816 -1.58867 0
M  V30 3096 O 304.634 0.399969 -1.86561 0
M  V30 3097 C 301.774 0.266131 -3.44072 0
M  V30 3098 C 300.887 -0.713005 -4.26075 0
M  V30 3099 C 300.022 0.0329013 -5.3119 0
M  V30 3100 C 299.061 -0.93774 -6.04874 0
M  V30 3101 N 298.198 -0.223274 -7.01745 0
M  V30 3102 H 303.038 -1.3171 -2.67313 0
M  V30 3103 H 300.575 -0.66069 -1.31428 0
M  V30 3104 H 302.533 0.702514 -4.11243 0
M  V30 3105 H 301.163 1.08925 -3.03867 0
M  V30 3106 H 300.215 -1.26789 -3.58648 0
M  V30 3107 H 301.527 -1.45406 -4.77136 0
M  V30 3108 H 300.681 0.528335 -6.04395 0
M  V30 3109 H 299.42 0.806801 -4.8098 0
M  V30 3110 H 298.425 -1.44425 -5.30492 0
M  V30 3111 H 299.65 -1.71172 -6.57173 0
M  V30 3112 H 297.596 0.532046 -6.53839 0
M  V30 3113 H 297.513 -0.90357 -7.50581 0
M  V30 3114 H 298.781 0.250907 -7.79096 0
M  V30 3115 N 303.011 1.40521 -0.713556 0
M  V30 3116 C 303.958 2.30723 -0.059684 0
M  V30 3117 C 304.928 1.48079 0.752448 0
M  V30 3118 O 306.113 1.76823 0.71681 0
M  V30 3119 C 303.253 3.34274 0.857594 0
M  V30 3120 C 302.366 4.31986 0.0351536 0
M  V30 3121 C 301.501 5.22605 0.951724 0
M  V30 3122 C 300.54 6.11976 0.123253 0
M  V30 3123 N 299.677 6.9502 0.99459 0
M  V30 3124 H 304.517 2.86074 -0.834596 0
M  V30 3125 H 302.054 1.40879 -0.42326 0
M  V30 3126 H 304.012 3.92879 1.40364 0
M  V30 3127 H 302.642 2.8043 1.59871 0
M  V30 3128 H 301.694 3.7518 -0.628052 0
M  V30 3129 H 303.006 4.95101 -0.606347 0
M  V30 3130 H 302.16 5.86131 1.56638 0
M  V30 3131 H 300.899 4.59759 1.62705 0
M  V30 3132 H 299.904 5.47482 -0.50435 0
M  V30 3133 H 301.129 6.76881 -0.548539 0
M  V30 3134 H 299.075 6.34764 1.6556 0
M  V30 3135 H 298.992 7.54892 0.40908 0
M  V30 3136 H 300.26 7.62997 1.59549 0
M  V30 3137 N 304.489 0.459591 1.5075 0
M  V30 3138 C 305.737 -0.0991532 2.01857 0
M  V30 3139 C 306.058 -1.41247 1.34441 0
M  V30 3140 O 305.328 -1.89775 0.486022 0
M  V30 3141 H 303.908 -0.039633 0.745948 0
M  V30 3142 H 306.57 0.607387 1.85194 0
M  V30 3143 H 305.666 -0.258998 3.11023 0
M  V30 3144 N 305.967 -1.56429 0.191757 0
M  V30 3145 C 306.914 -2.18936 -0.730454 0
M  V30 3146 C 307.884 -1.13557 -1.21219 0
M  V30 3147 O 309.069 -1.41794 -1.27668 0
M  V30 3148 C 306.209 -2.85013 -1.9458 0
M  V30 3149 C 305.322 -4.04909 -1.50574 0
M  V30 3150 C 304.457 -4.58853 -2.67634 0
M  V30 3151 C 303.496 -5.71114 -2.20217 0
M  V30 3152 N 302.633 -6.19478 -3.30442 0
M  V30 3153 H 307.473 -2.97389 -0.190664 0
M  V30 3154 H 305.01 -1.46869 -0.0823694 0
M  V30 3155 H 306.968 -3.21492 -2.65893 0
M  V30 3156 H 305.598 -2.09129 -2.45896 0
M  V30 3157 H 304.65 -3.74115 -0.688605 0
M  V30 3158 H 305.962 -4.86113 -1.11784 0
M  V30 3159 H 305.116 -4.97619 -3.47074 0
M  V30 3160 H 303.855 -3.76749 -3.09696 0
M  V30 3161 H 302.86 -5.31879 -1.3923 0
M  V30 3162 H 304.085 -6.55033 -1.79189 0
M  V30 3163 H 302.031 -5.40297 -3.72041 0
M  V30 3164 H 301.948 -6.95725 -2.9581 0
M  V30 3165 H 303.216 -6.62898 -4.10106 0
M  V30 3166 N 307.445 0.0818655 -1.57387 0
M  V30 3167 C 308.694 0.781681 -1.85937 0
M  V30 3168 C 309.007 1.79246 -0.782957 0
M  V30 3169 O 310.213 2.54112 -0.955987 0
M  V30 3170 C 308.669 1.44109 -3.29789 0
M  V30 3171 C 308.277 0.469396 -4.45534 0
M  V30 3172 C 310.021 2.12386 -3.67549 0
M  V30 3173 C 307.928 1.13415 -5.80423 0
M  V30 3174 H 306.858 0.295682 -0.693605 0
M  V30 3175 H 309.509 0.0348051 -1.83467 0
M  V30 3176 H 307.891 2.23588 -3.2684 0
M  V30 3177 H 309.065 -0.294856 -4.59856 0
M  V30 3178 H 307.38 -0.108383 -4.16259 0
M  V30 3179 H 309.977 2.62878 -4.65617 0
M  V30 3180 H 310.32 2.91877 -2.96839 0
M  V30 3181 H 310.853 1.39751 -3.72444 0
M  V30 3182 H 307.592 0.379771 -6.54399 0
M  V30 3183 H 307.112 1.8695 -5.69921 0
M  V30 3184 H 308.791 1.65686 -6.25426 0
M  V30 3185 N 308.923 1.53595 0.353017 0
M  V30 3186 C 310.153 1.74058 1.11299 0
M  V30 3187 C 310.561 0.475205 1.83135 0
M  V30 3188 O 309.904 -0.562344 1.74881 0
M  V30 3189 C 309.966 2.85994 2.17825 0
M  V30 3190 C 309.63 4.25923 1.65647 0
M  V30 3191 C 310.627 5.07829 1.11383 0
M  V30 3192 C 308.312 4.72377 1.7078 0
M  V30 3193 C 310.306 6.34285 0.629439 0
M  V30 3194 C 307.993 5.98808 1.21953 0
M  V30 3195 C 308.991 6.79594 0.681265 0
M  V30 3196 O 308.679 8.03651 0.200248 0
M  V30 3197 H 308.411 0.585327 0.338183 0
M  V30 3198 H 310.965 2.01186 0.413927 0
M  V30 3199 H 309.195 2.54368 2.91262 0
M  V30 3200 H 310.884 2.94515 2.79313 0
M  V30 3201 H 311.65 4.73107 1.06746 0
M  V30 3202 H 307.529 4.0956 2.11617 0
M  V30 3203 H 311.073 6.97288 0.208636 0
M  V30 3204 H 306.97 6.33026 1.26287 0
M  V30 3205 H 307.738 8.1788 0.318416 0
M  V30 3206 N 310.401 -0.613514 1.45168 0
M  V30 3207 C 311.626 -1.40437 1.52618 0
M  V30 3208 C 312.051 -1.87438 0.157707 0
M  V30 3209 O 311.409 -1.59791 -0.856537 0
M  V30 3210 C 311.457 -2.58894 2.51011 0
M  V30 3211 O 310.561 -3.59326 2.02382 0
M  V30 3212 H 309.902 -0.419506 0.514695 0
M  V30 3213 H 312.432 -0.747215 1.90467 0
M  V30 3214 H 312.442 -3.06214 2.69624 0
M  V30 3215 H 311.117 -2.24032 3.50403 0
M  V30 3216 H 309.694 -3.18695 1.93618 0
M  V30 3217 N 311.879 -1.3236 -0.855495 0
M  V30 3218 C 312.809 -1.23833 -1.97958 0
M  V30 3219 C 313.79 -0.122361 -1.69659 0
M  V30 3220 O 314.975 -0.30939 -1.9172 0
M  V30 3221 C 312.105 -0.959772 -3.33775 0
M  V30 3222 C 311.059 -2.03689 -3.76424 0
M  V30 3223 C 310.385 -1.61075 -5.09862 0
M  V30 3224 C 311.685 -3.4518 -3.9198 0
M  V30 3225 H 313.379 -2.1788 -2.0535 0
M  V30 3226 H 310.925 -1.04891 -0.986605 0
M  V30 3227 H 312.878 -0.886678 -4.11966 0
M  V30 3228 H 311.602 0.0163404 -3.26596 0
M  V30 3229 H 310.261 -2.10012 -3.00484 0
M  V30 3230 H 309.909 -0.622107 -4.99138 0
M  V30 3231 H 309.609 -2.33143 -5.39368 0
M  V30 3232 H 311.133 -1.55201 -5.90546 0
M  V30 3233 H 312.547 -3.4145 -4.60526 0
M  V30 3234 H 310.944 -4.1559 -4.32903 0
M  V30 3235 H 312.014 -3.84903 -2.94919 0
M  V30 3236 N 313.357 1.07166 -1.15556 0
M  V30 3237 C 314.305 2.16517 -0.8499 0
M  V30 3238 C 315.299 1.68468 0.177454 0
M  V30 3239 O 316.505 1.79971 0.0323026 0
M  V30 3240 H 312.88 0.706652 -0.25719 0
M  V30 3241 H 314.851 2.39514 -1.77976 0
M  V30 3242 C 313.6 3.45855 -0.357682 0
M  V30 3243 H 312.923 3.83214 -1.13961 0
M  V30 3244 H 314.363 4.23607 -0.182489 0
M  V30 3245 C 312.822 3.24062 0.921152 0
M  V30 3246 O 313.352 3.48813 1.9923 0
M  V30 3247 N 311.558 2.77539 0.86141 0
M  V30 3248 H 311.105 2.57598 -0.0104408 0
M  V30 3249 H 311.063 2.63337 1.71758 0
M  V30 3250 N 314.835 0.952656 1.25548 0
M  V30 3251 C 315.745 0.47782 2.29682 0
M  V30 3252 C 316.761 -0.453859 1.67977 0
M  V30 3253 O 317.937 -0.330587 1.98668 0
M  V30 3254 C 315.002 -0.238655 3.45878 0
M  V30 3255 C 314.063 0.730994 4.23031 0
M  V30 3256 C 313.296 0.0486165 5.33678 0
M  V30 3257 O 313.519 -1.16612 5.58353 0
M  V30 3258 O 312.453 0.733152 5.97418 0
M  V30 3259 H 316.279 1.34312 2.72386 0
M  V30 3260 H 313.864 0.719026 1.30959 0
M  V30 3261 H 315.746 -0.641774 4.16484 0
M  V30 3262 H 314.421 -1.07916 3.05181 0
M  V30 3263 H 313.328 1.18428 3.5486 0
M  V30 3264 H 314.661 1.53946 4.67506 0
M  V30 3265 N 316.313 -1.40141 0.720998 0
M  V30 3266 C 317.561 -2.0039 0.262323 0
M  V30 3267 C 317.882 -1.57469 -1.15015 0
M  V30 3268 O 317.152 -0.816582 -1.78069 0
M  V30 3269 H 315.732 -0.741063 0.093996 0
M  V30 3270 H 318.394 -1.71398 0.927835 0
M  V30 3271 H 317.49 -3.10658 0.299671 0
M  V30 3272 N 317.792 -0.46758 -1.50504 0
M  V30 3273 C 319.022 0.086288 -2.0642 0
M  V30 3274 C 319.43 1.34369 -1.33197 0
M  V30 3275 O 318.773 1.79431 -0.393747 0
M  V30 3276 C 318.835 0.443846 -3.5675 0
M  V30 3277 C 318.499 -0.711035 -4.51435 0
M  V30 3278 C 319.496 -1.59205 -4.94924 0
M  V30 3279 C 317.181 -0.900363 -4.94165 0
M  V30 3280 C 319.175 -2.64683 -5.79846 0
M  V30 3281 C 316.862 -1.95837 -5.7887 0
M  V30 3282 C 317.86 -2.82997 -6.21612 0
M  V30 3283 O 317.548 -3.86977 -7.0463 0
M  V30 3284 H 317.28 -0.00217814 -0.675996 0
M  V30 3285 H 319.834 -0.654346 -1.94698 0
M  V30 3286 H 318.064 1.23762 -3.6636 0
M  V30 3287 H 319.753 0.932386 -3.95046 0
M  V30 3288 H 320.519 -1.45745 -4.62583 0
M  V30 3289 H 316.398 -0.231427 -4.60419 0
M  V30 3290 H 319.942 -3.32745 -6.13128 0
M  V30 3291 H 315.839 -2.09305 -6.10624 0
M  V30 3292 H 316.607 -3.83923 -7.22873 0
M  V30 3293 N 319.27 1.56325 -0.20005 0
M  V30 3294 C 320.233 2.18084 0.705132 0
M  V30 3295 C 321.233 1.13666 1.1374 0
M  V30 3296 O 322.423 1.39023 1.04968 0
M  V30 3297 C 319.555 2.78689 1.96329 0
M  V30 3298 H 320.748 2.99435 0.167023 0
M  V30 3299 H 318.301 1.56221 0.0495725 0
M  V30 3300 H 319.036 2.0115 2.5438 0
M  V30 3301 H 318.821 3.55133 1.66202 0
M  V30 3302 H 320.311 3.26096 2.60866 0
M  V30 3303 N 320.748 -0.0735177 1.57428 0
M  V30 3304 C 322.164 -0.428264 1.53747 0
M  V30 3305 C 322.364 -1.79272 0.91998 0
M  V30 3306 O 321.42 -2.47051 0.521745 0
M  V30 3307 C 322.733 -0.370914 2.98404 0
M  V30 3308 C 324.281 -0.451224 3.0973 0
M  V30 3309 C 324.756 -0.4238 4.56035 0
M  V30 3310 N 326.247 -0.483925 4.60665 0
M  V30 3311 C 326.982 -0.484891 5.71346 0
M  V30 3312 N 326.478 -0.440775 6.91396 0
M  V30 3313 N 328.271 -0.531319 5.59583 0
M  V30 3314 H 320.422 0.819949 1.95935 0
M  V30 3315 H 322.685 0.307493 0.896745 0
M  V30 3316 H 322.391 0.564956 3.47133 0
M  V30 3317 H 322.265 -1.18176 3.5821 0
M  V30 3318 H 324.652 -1.37752 2.60976 0
M  V30 3319 H 324.733 0.388167 2.52838 0
M  V30 3320 H 324.377 0.498638 5.05446 0
M  V30 3321 H 324.307 -1.2807 5.10789 0
M  V30 3322 H 326.798 -0.522338 3.74273 0
M  V30 3323 H 327.111 -0.44539 7.71515 0
M  V30 3324 H 325.456 -0.40749 6.93804 0
M  V30 3325 H 328.647 -0.563464 4.64696 0
M  V30 3326 H 328.82 -0.528603 6.4584 0
M  V30 3327 N 322.226 -1.5378 -0.344866 0
M  V30 3328 C 323.503 -1.61589 -1.10219 0
M  V30 3329 C 323.883 -0.436316 -2.06542 0
M  V30 3330 O 323.231 0.571543 -2.21237 0
M  V30 3331 C 323.441 -2.97602 -1.82301 0
M  V30 3332 C 324.789 -3.5291 -2.36093 0
M  V30 3333 O 325.813 -2.99768 -1.924 0
M  V30 3334 O 324.672 -4.45859 -3.16026 0
M  V30 3335 H 321.766 -0.653522 -0.506792 0
M  V30 3336 H 324.312 -1.66126 -0.346465 0
M  V30 3337 H 323.084 -3.74893 -1.12121 0
M  V30 3338 H 322.707 -2.9665 -2.64735 0
M  V30 3339 N 323.704 0.605807 -1.45491 0
M  V30 3340 C 324.951 1.36476 -1.49601 0
M  V30 3341 C 325.279 1.94007 -0.138452 0
M  V30 3342 O 324.534 1.75638 0.863114 0
M  V30 3343 C 324.833 2.53012 -2.52428 0
M  V30 3344 C 324.499 2.13617 -3.97087 0
M  V30 3345 C 323.161 2.02587 -4.36477 0
M  V30 3346 C 325.513 1.82899 -4.88055 0
M  V30 3347 C 322.841 1.59064 -5.64726 0
M  V30 3348 C 325.193 1.40861 -6.16718 0
M  V30 3349 C 323.857 1.28391 -6.55036 0
M  V30 3350 H 323.127 0.499402 -0.547429 0
M  V30 3351 H 325.774 0.684546 -1.78847 0
M  V30 3352 H 324.079 3.26379 -2.16758 0
M  V30 3353 H 325.776 3.1124 -2.52845 0
M  V30 3354 H 322.366 2.23129 -3.65939 0
M  V30 3355 H 326.55 1.90317 -4.58359 0
M  V30 3356 H 321.806 1.48034 -5.93208 0
M  V30 3357 H 325.98 1.16138 -6.86648 0
M  V30 3358 H 323.607 0.944403 -7.54311 0
M  V30 3359 N 325.182 1.32811 0.848464 0
M  V30 3360 C 326.459 1.14334 1.58704 0
M  V30 3361 C 326.839 -0.293948 2.09043 0
M  V30 3362 O 326.187 -1.29153 1.88499 0
M  V30 3363 C 326.397 2.17626 2.72837 0
M  V30 3364 C 327.745 2.51282 3.42261 0
M  V30 3365 O 328.769 2.16219 2.83068 0
M  V30 3366 O 327.628 3.11413 4.49093 0
M  V30 3367 H 324.722 0.441601 0.699226 0
M  V30 3368 H 327.268 1.44362 0.892053 0
M  V30 3369 H 326.04 3.14211 2.3321 0
M  V30 3370 H 325.663 1.88628 3.50008 0
M  V30 3371 N 326.66 -1.06551 1.16123 0
M  V30 3372 C 328.071 -1.60768 0.949232 0
M  V30 3373 C 328.422 -1.89523 -0.507508 0
M  V30 3374 O 327.547 -1.66671 -1.38021 0
M  V30 3375 C 328.142 -2.92086 1.71671 0
M  V30 3376 C 326.701 -3.43015 1.54977 0
M  V30 3377 C 325.848 -2.16947 1.72711 0
M  V30 3378 H 328.799 -0.895354 1.31031 0
M  V30 3379 H 328.82 -3.6138 1.19099 0
M  V30 3380 H 328.332 -2.71127 2.7769 0
M  V30 3381 H 326.433 -3.69039 0.513873 0
M  V30 3382 H 326.546 -4.18516 2.33198 0
M  V30 3383 H 324.91 -2.27041 1.15431 0
M  V30 3384 H 325.693 -1.98473 2.80113 0
M  V30 3385 N 328.138 -0.959301 -1.25041 0
M  V30 3386 C 329.101 -0.487677 -2.23952 0
M  V30 3387 C 330.101 0.41119 -1.55454 0
M  V30 3388 O 331.291 0.207825 -1.72956 0
M  V30 3389 C 328.423 0.294807 -3.39623 0
M  V30 3390 H 329.616 -1.36198 -2.67189 0
M  V30 3391 H 327.169 -0.743042 -1.37508 0
M  V30 3392 H 327.904 1.18658 -3.01813 0
M  V30 3393 H 327.689 -0.35012 -3.90534 0
M  V30 3394 H 329.179 0.614089 -4.1306 0
M  V30 3395 N 329.616 1.39756 -0.72842 0
M  V30 3396 C 330.862 2.00942 -0.273892 0
M  V30 3397 C 331.195 1.57656 1.13394 0
M  V30 3398 O 330.47 0.802434 1.77176 0
M  V30 3399 C 330.753 3.58211 -0.368346 0
M  V30 3400 C 330.606 4.11534 -1.81548 0
M  V30 3401 C 331.925 4.39372 0.253054 0
M  V30 3402 H 329.044 0.730047 -0.100996 0
M  V30 3403 H 331.686 1.66056 -0.923337 0
M  V30 3404 H 329.836 3.88061 0.184588 0
M  V30 3405 H 331.508 3.92431 -2.42478 0
M  V30 3406 H 329.751 3.65341 -2.33898 0
M  V30 3407 H 330.422 5.20682 -1.83288 0
M  V30 3408 H 332.898 4.15527 -0.218224 0
M  V30 3409 H 331.774 5.48677 0.156585 0
M  V30 3410 H 332.035 4.21358 1.33826 0
M  V30 3411 N 331.094 0.475555 1.50254 0
M  V30 3412 C 332.322 -0.0754493 2.06762 0
M  V30 3413 C 332.737 -1.33111 1.33891 0
M  V30 3414 O 332.094 -1.77846 0.40952 0
M  V30 3415 C 332.145 -0.359008 3.59713 0
M  V30 3416 O 331.866 0.846851 4.29837 0
M  V30 3417 C 333.367 -0.956484 4.32858 0
M  V30 3418 H 330.587 0.00907525 0.670939 0
M  V30 3419 H 333.131 0.665618 1.93364 0
M  V30 3420 H 331.286 -1.05001 3.72899 0
M  V30 3421 H 331.7 0.594162 5.21124 0
M  V30 3422 H 333.174 -1.10463 5.40834 0
M  V30 3423 H 333.651 -1.94775 3.93649 0
M  V30 3424 H 334.257 -0.303723 4.24214 0
M  V30 3425 N 332.573 -1.56217 0.208337 0
M  V30 3426 C 333.483 -2.23316 -0.718836 0
M  V30 3427 C 334.499 -1.23648 -1.22422 0
M  V30 3428 O 335.675 -1.56423 -1.26861 0
M  V30 3429 C 332.74 -2.88968 -1.91568 0
M  V30 3430 C 331.801 -4.03943 -1.45357 0
M  V30 3431 C 331.034 -4.66455 -2.59337 0
M  V30 3432 O 331.257 -4.27919 -3.77149 0
M  V30 3433 O 330.191 -5.55686 -2.31293 0
M  V30 3434 H 334.017 -3.03182 -0.177315 0
M  V30 3435 H 331.602 -1.49384 -0.0215402 0
M  V30 3436 H 333.484 -3.30455 -2.61491 0
M  V30 3437 H 332.159 -2.12071 -2.44556 0
M  V30 3438 H 331.066 -3.67052 -0.722746 0
M  V30 3439 H 332.399 -4.82543 -0.970219 0
M  V30 3440 N 334.051 0.0651679 -1.57465 0
M  V30 3441 C 335.281 0.774683 -1.91526 0
M  V30 3442 C 335.689 1.71305 -0.803196 0
M  V30 3443 O 335.032 1.82231 0.231881 0
M  V30 3444 C 335.094 1.61645 -3.21109 0
M  V30 3445 C 334.758 0.846753 -4.49087 0
M  V30 3446 C 335.755 0.163024 -5.19644 0
M  V30 3447 C 333.44 0.811966 -4.95694 0
M  V30 3448 C 335.434 -0.54519 -6.35064 0
M  V30 3449 C 333.121 0.0999836 -6.11018 0
M  V30 3450 C 334.119 -0.577388 -6.80555 0
M  V30 3451 O 333.807 -1.27789 -7.93678 0
M  V30 3452 H 333.539 0.225031 -0.637446 0
M  V30 3453 H 336.093 0.0377134 -2.05365 0
M  V30 3454 H 334.323 2.39638 -3.03497 0
M  V30 3455 H 336.012 2.20525 -3.40769 0
M  V30 3456 H 336.778 0.181163 -4.84662 0
M  V30 3457 H 332.657 1.32867 -4.41438 0
M  V30 3458 H 336.201 -1.07446 -6.89276 0
M  V30 3459 H 332.098 0.0797945 -6.45451 0
M  V30 3460 H 332.866 -1.18784 -8.09835 0
M  V30 3461 N 335.529 1.53961 0.336706 0
M  V30 3462 C 336.778 1.70751 1.07363 0
M  V30 3463 C 337.091 0.481061 1.89592 0
M  V30 3464 O 338.297 0.530046 2.66276 0
M  V30 3465 C 336.753 3.01965 1.95818 0
M  V30 3466 C 336.361 4.31971 1.18764 0
M  V30 3467 C 338.105 3.28121 2.69327 0
M  V30 3468 C 336.012 5.54255 2.06289 0
M  V30 3469 H 334.942 0.636292 0.404535 0
M  V30 3470 H 337.593 1.80459 0.332681 0
M  V30 3471 H 335.975 2.86132 2.7376 0
M  V30 3472 H 337.149 4.5853 0.456849 0
M  V30 3473 H 335.464 4.12481 0.569946 0
M  V30 3474 H 338.061 4.16673 3.35094 0
M  V30 3475 H 338.404 2.45426 3.36261 0
M  V30 3476 H 338.937 3.44762 1.98454 0
M  V30 3477 H 335.676 6.39513 1.43885 0
M  V30 3478 H 335.196 5.31935 2.77138 0
M  V30 3479 H 336.875 5.90159 2.65182 0
M  V30 3480 N 337.007 -0.598083 1.45811 0
M  V30 3481 C 337.939 -1.72231 1.51225 0
M  V30 3482 C 338.952 -1.57757 0.402059 0
M  V30 3483 O 340.141 -1.65464 0.669624 0
M  V30 3484 C 337.241 -3.10331 1.3619 0
M  V30 3485 C 336.414 -3.50955 2.61054 0
M  V30 3486 C 335.473 -4.68055 2.40439 0
M  V30 3487 O 334.499 -4.74691 3.14097 0
M  V30 3488 N 335.701 -5.61941 1.45612 0
M  V30 3489 H 338.466 -1.68046 2.48154 0
M  V30 3490 H 336.027 -0.783637 1.41671 0
M  V30 3491 H 338.019 -3.86439 1.20195 0
M  V30 3492 H 336.589 -3.0897 0.475015 0
M  V30 3493 H 335.809 -2.64711 2.92099 0
M  V30 3494 H 337.097 -3.74858 3.44034 0
M  V30 3495 H 336.495 -5.59301 0.848431 0
M  V30 3496 H 335.052 -6.37542 1.35585 0
M  V30 3497 N 338.485 -1.33259 -0.841409 0
M  V30 3498 C 339.901 -1.12538 -1.13169 0
M  V30 3499 C 340.101 0.0854037 -2.01319 0
M  V30 3500 O 339.157 0.766417 -2.40587 0
M  V30 3501 C 340.47 -2.41156 -1.79623 0
M  V30 3502 C 342.018 -2.47038 -1.922 0
M  V30 3503 C 342.493 -3.7561 -2.6207 0
M  V30 3504 N 343.984 -3.76667 -2.69585 0
M  V30 3505 C 344.719 -4.72861 -3.2433 0
M  V30 3506 N 344.215 -5.79428 -3.79783 0
M  V30 3507 N 346.008 -4.6034 -3.22558 0
M  V30 3508 H 338.159 -2.10868 -0.254676 0
M  V30 3509 H 340.422 -0.931615 -0.175493 0
M  V30 3510 H 340.128 -3.29747 -1.22311 0
M  V30 3511 H 340.002 -2.53114 -2.79666 0
M  V30 3512 H 342.389 -1.58898 -2.48667 0
M  V30 3513 H 342.47 -2.39022 -0.911148 0
M  V30 3514 H 342.114 -4.64131 -2.06263 0
M  V30 3515 H 342.044 -3.80902 -3.63622 0
M  V30 3516 H 344.535 -2.99648 -2.30259 0
M  V30 3517 H 344.848 -6.48867 -4.19752 0
M  V30 3518 H 343.193 -5.83166 -3.78078 0
M  V30 3519 H 346.384 -3.76244 -2.78492 0
M  V30 3520 H 346.557 -5.35478 -3.64921 0
M  V30 3521 N 339.963 1.05934 -1.16686 0
M  V30 3522 C 340.91 2.13499 -0.876748 0
M  V30 3523 C 341.88 1.65162 0.176299 0
M  V30 3524 O 343.065 1.90757 0.0407143 0
M  V30 3525 C 340.205 3.42912 -0.387967 0
M  V30 3526 C 339.318 4.04964 -1.50426 0
M  V30 3527 C 338.453 5.22266 -0.970125 0
M  V30 3528 C 337.492 5.76309 -2.06238 0
M  V30 3529 N 336.629 6.84922 -1.54356 0
M  V30 3530 H 341.469 2.37654 -1.7979 0
M  V30 3531 H 339.006 1.16598 -0.896843 0
M  V30 3532 H 340.964 4.17111 -0.086186 0
M  V30 3533 H 339.594 3.18963 0.496235 0
M  V30 3534 H 338.646 3.28277 -1.92193 0
M  V30 3535 H 339.958 4.41122 -2.32836 0
M  V30 3536 H 339.112 6.03506 -0.621743 0
M  V30 3537 H 337.851 4.87564 -0.115377 0
M  V30 3538 H 336.856 4.93704 -2.41942 0
M  V30 3539 H 338.081 6.13062 -2.92115 0
M  V30 3540 H 336.027 6.52131 -0.711406 0
M  V30 3541 H 335.944 7.20043 -2.30379 0
M  V30 3542 H 337.212 7.69832 -1.22387 0
M  V30 3543 N 341.441 0.965919 1.2453 0
M  V30 3544 C 342.388 0.49402 2.25451 0
M  V30 3545 C 343.358 -0.45948 1.59618 0
M  V30 3546 O 344.543 -0.370238 1.87173 0
M  V30 3547 C 341.683 -0.211359 3.44452 0
M  V30 3548 C 340.796 0.7807 4.24887 0
M  V30 3549 C 339.931 0.0516105 5.31175 0
M  V30 3550 C 338.97 1.03385 6.03306 0
M  V30 3551 N 338.107 0.334887 7.01301 0
M  V30 3552 H 342.947 1.35946 2.65184 0
M  V30 3553 H 340.484 0.681515 1.3036 0
M  V30 3554 H 342.442 -0.637 4.12308 0
M  V30 3555 H 341.072 -1.04077 3.05562 0
M  V30 3556 H 340.124 1.32479 3.56586 0
M  V30 3557 H 341.436 1.52978 4.74762 0
M  V30 3558 H 340.59 -0.432114 6.05159 0
M  V30 3559 H 339.329 -0.730179 4.82203 0
M  V30 3560 H 338.334 1.52847 5.28127 0
M  V30 3561 H 339.559 1.81606 6.54367 0
M  V30 3562 H 337.505 -0.427959 6.54603 0
M  V30 3563 H 337.422 1.02287 7.49048 0
M  V30 3564 H 338.69 -0.126928 7.79397 0
M  V30 3565 N 342.919 -1.39368 0.735821 0
M  V30 3566 C 344.166 -2.00497 0.284123 0
M  V30 3567 C 344.494 -1.58387 -1.12889 0
M  V30 3568 O 343.749 -0.804359 -1.78406 0
M  V30 3569 C 344.048 -3.5583 0.334651 0
M  V30 3570 C 343.714 -4.17593 1.7008 0
M  V30 3571 C 342.376 -4.34176 2.07472 0
M  V30 3572 C 344.728 -4.51848 2.59775 0
M  V30 3573 C 342.056 -4.82304 3.34065 0
M  V30 3574 C 344.408 -5.01384 3.85741 0
M  V30 3575 C 343.072 -5.16175 4.23225 0
M  V30 3576 H 342.342 -0.73367 0.103968 0
M  V30 3577 H 344.989 -1.66683 0.942825 0
M  V30 3578 H 343.294 -3.89674 -0.407625 0
M  V30 3579 H 344.991 -4.00986 -0.0329927 0
M  V30 3580 H 341.581 -4.05087 1.40008 0
M  V30 3581 H 345.765 -4.38653 2.32157 0
M  V30 3582 H 341.021 -4.91941 3.63049 0
M  V30 3583 H 345.195 -5.26863 4.55399 0
M  V30 3584 H 342.822 -5.5323 5.21384 0
M  V30 3585 N 344.397 -0.483516 -1.5 0
M  V30 3586 C 345.808 -0.0314176 -1.86674 0
M  V30 3587 C 346.159 1.37728 -1.39733 0
M  V30 3588 O 345.284 2.02327 -0.767635 0
M  V30 3589 C 345.879 -0.0502376 -3.38763 0
M  V30 3590 C 344.438 0.346442 -3.74802 0
M  V30 3591 C 343.585 -0.430366 -2.7394 0
M  V30 3592 H 346.536 -0.697182 -1.42566 0
M  V30 3593 H 346.557 0.749116 -3.73053 0
M  V30 3594 H 346.069 -1.07563 -3.72897 0
M  V30 3595 H 344.17 1.37572 -3.46273 0
M  V30 3596 H 344.283 0.0391486 -4.79084 0
M  V30 3597 H 342.647 0.117557 -2.54429 0
M  V30 3598 H 343.43 -1.4555 -3.10918 0
M  V30 3599 N 345.875 1.56104 -0.216619 0
M  V30 3600 C 347.286 1.844 0.292128 0
M  V30 3601 C 347.637 1.13788 1.59833 0
M  V30 3602 O 346.762 0.405888 2.12559 0
M  V30 3603 C 347.357 3.3452 0.53681 0
M  V30 3604 C 345.916 3.63151 0.989876 0
M  V30 3605 C 345.063 2.77255 0.0502302 0
M  V30 3606 H 348.014 1.52481 -0.439926 0
M  V30 3607 H 348.035 3.54459 1.38345 0
M  V30 3608 H 347.547 3.85885 -0.414031 0
M  V30 3609 H 345.648 3.17238 1.95425 0
M  V30 3610 H 345.761 4.71177 0.867698 0
M  V30 3611 H 344.125 2.48555 0.556117 0
M  V30 3612 H 344.908 3.31416 -0.89544 0
M  V30 3613 N 347.353 -0.0568162 1.57498 0
M  V30 3614 C 348.63 -0.786954 1.79071 0
M  V30 3615 C 349.01 -1.95028 0.80792 0
M  V30 3616 O 348.358 -2.27968 -0.155858 0
M  V30 3617 C 348.568 -1.24594 3.26002 0
M  V30 3618 C 349.916 -1.67323 3.90241 0
M  V30 3619 O 350.94 -1.34124 3.29984 0
M  V30 3620 O 349.799 -2.28842 4.9628 0
M  V30 3621 H 346.893 -0.378262 0.735423 0
M  V30 3622 H 349.439 -0.035734 1.69662 0
M  V30 3623 H 348.211 -0.41423 3.89101 0
M  V30 3624 H 347.834 -2.05803 3.40192 0
M  V30 3625 N 348.832 -1.54138 -0.328536 0
M  V30 3626 C 349.78 -1.83894 -1.42428 0
M  V30 3627 C 350.774 -0.710478 -1.53781 0
M  V30 3628 O 351.98 -0.894062 -1.56226 0
M  V30 3629 H 348.355 -0.582837 -0.475189 0
M  V30 3630 H 350.326 -2.75537 -1.14552 0
M  V30 3631 C 349.075 -2.07866 -2.78724 0
M  V30 3632 H 348.398 -2.94158 -2.7076 0
M  V30 3633 H 349.838 -2.32644 -3.54476 0
M  V30 3634 C 348.297 -0.868689 -3.25508 0
M  V30 3635 O 348.827 -0.0754908 -4.01629 0
M  V30 3636 N 347.033 -0.681711 -2.82491 0
M  V30 3637 H 346.58 -1.32838 -2.20708 0
M  V30 3638 H 346.538 0.126374 -3.14146 0
M  V30 3639 N 350.31 0.590341 -1.46126 0
M  V30 3640 C 351.535 1.37991 -1.54833 0
M  V30 3641 C 351.96 1.87163 -0.187506 0
M  V30 3642 O 351.318 1.61133 0.831008 0
M  V30 3643 C 351.366 2.54867 -2.55098 0
M  V30 3644 O 350.47 3.56061 -2.08073 0
M  V30 3645 H 349.811 0.411265 -0.521303 0
M  V30 3646 H 352.341 0.716819 -1.91632 0
M  V30 3647 H 352.351 3.01886 -2.74461 0
M  V30 3648 H 351.026 2.18429 -3.53923 0
M  V30 3649 H 349.603 3.15574 -1.98664 0
M  V30 3650 N 351.788 1.33704 0.83433 0
M  V30 3651 C 352.751 1.24244 1.92603 0
M  V30 3652 C 353.751 0.160383 1.59998 0
M  V30 3653 O 354.941 0.412228 1.69252 0
M  V30 3654 C 352.073 0.91555 3.28376 0
M  V30 3655 H 353.266 2.21287 2.02416 0
M  V30 3656 H 350.819 1.17827 1.02696 0
M  V30 3657 H 351.554 -0.0521886 3.24258 0
M  V30 3658 H 351.339 1.69811 3.53422 0
M  V30 3659 H 352.829 0.874231 4.08347 0
M  V30 3660 N 353.266 -1.05314 1.17247 0
M  V30 3661 C 354.677 -1.59753 0.96623 0
M  V30 3662 C 355.028 -1.9005 -0.487378 0
M  V30 3663 O 354.153 -1.68126 -1.36245 0
M  V30 3664 C 354.748 -2.90249 1.74759 0
M  V30 3665 C 353.307 -3.41352 1.58606 0
M  V30 3666 C 352.454 -2.15103 1.75002 0
M  V30 3667 H 355.405 -0.881406 1.31973 0
M  V30 3668 H 355.426 -3.60097 1.22925 0
M  V30 3669 H 354.938 -2.68166 2.8055 0
M  V30 3670 H 353.039 -3.68474 0.552985 0
M  V30 3671 H 353.152 -4.16019 2.37624 0
M  V30 3672 H 351.516 -2.25804 1.17833 0
M  V30 3673 H 352.299 -1.95491 2.82202 0
M  V30 3674 N 354.744 -0.972509 -1.24016 0
M  V30 3675 C 355.974 -0.653853 -1.9598 0
M  V30 3676 C 356.382 0.781801 -1.72292 0
M  V30 3677 O 355.725 1.53677 -1.00644 0
M  V30 3678 C 355.787 -0.854608 -3.49194 0
M  V30 3679 C 355.451 -2.27082 -3.96589 0
M  V30 3680 C 356.448 -3.24892 -4.05883 0
M  V30 3681 C 354.133 -2.5998 -4.29786 0
M  V30 3682 C 356.127 -4.53684 -4.47716 0
M  V30 3683 C 353.814 -3.88997 -4.71301 0
M  V30 3684 C 354.812 -4.85661 -4.80232 0
M  V30 3685 O 354.5 -6.12376 -5.20818 0
M  V30 3686 H 354.232 -0.242572 -0.630979 0
M  V30 3687 H 356.786 -1.30431 -1.58673 0
M  V30 3688 H 355.016 -0.146985 -3.86421 0
M  V30 3689 H 356.705 -0.534311 -4.02368 0
M  V30 3690 H 357.471 -3.00805 -3.80449 0
M  V30 3691 H 353.35 -1.85457 -4.22051 0
M  V30 3692 H 356.894 -5.29135 -4.54601 0
M  V30 3693 H 352.791 -4.12882 -4.96184 0
M  V30 3694 H 353.559 -6.16013 -5.38953 0
M  V30 3695 N 356.222 1.38976 -0.743202 0
M  V30 3696 C 357.47 1.99948 -0.29417 0
M  V30 3697 C 357.791 1.59279 1.12495 0
M  V30 3698 O 357.061 0.844808 1.76748 0
M  V30 3699 H 355.641 0.739473 -0.105774 0
M  V30 3700 H 358.303 1.699 -0.954986 0
M  V30 3701 H 357.399 3.10142 -0.349056 0
M  V30 3702 N 357.7 0.491464 1.49741 0
M  V30 3703 C 358.663 -0.280906 2.27472 0
M  V30 3704 C 359.663 -0.902454 1.33088 0
M  V30 3705 O 360.853 -0.768465 1.56334 0
M  V30 3706 C 357.985 -1.40209 3.10732 0
M  V30 3707 H 359.178 0.401056 2.97206 0
M  V30 3708 H 356.731 0.246131 1.5435 0
M  V30 3709 H 357.466 -2.11849 2.45541 0
M  V30 3710 H 357.251 -0.961969 3.80117 0
M  V30 3711 H 358.741 -1.9464 3.69466 0
M  V30 3712 N 359.178 -1.55987 0.224894 0
M  V30 3713 C 360.594 -1.59066 -0.130426 0
M  V30 3714 C 360.794 -1.24176 -1.5869 0
M  V30 3715 O 359.85 -0.978592 -2.32766 0
M  V30 3716 C 361.163 -3.00042 0.198883 0
M  V30 3717 C 362.711 -3.1268 0.141391 0
M  V30 3718 C 363.186 -4.55839 0.444422 0
M  V30 3719 N 364.677 -4.6152 0.394115 0
M  V30 3720 C 365.412 -5.70231 0.602038 0
M  V30 3721 N 364.908 -6.87291 0.871914 0
M  V30 3722 N 366.701 -5.59555 0.534245 0
M  V30 3723 H 358.852 -1.76941 1.17497 0
M  V30 3724 H 361.115 -0.822604 0.471197 0
M  V30 3725 H 360.821 -3.30234 1.2099 0
M  V30 3726 H 360.695 -3.74075 -0.484535 0
M  V30 3727 H 363.082 -2.82283 -0.860265 0
M  V30 3728 H 363.163 -2.40969 0.858335 0
M  V30 3729 H 362.807 -4.86954 1.44353 0
M  V30 3730 H 362.737 -5.2578 -0.293752 0
M  V30 3731 H 365.228 -3.77405 0.193356 0
M  V30 3732 H 365.541 -7.66058 1.01858 0
M  V30 3733 H 363.886 -6.89028 0.909145 0
M  V30 3734 H 367.077 -4.6698 0.323612 0
M  V30 3735 H 367.25 -6.44211 0.699693 0
M  V30 3736 N 360.656 0.0484629 -1.57525 0
M  V30 3737 C 361.886 0.754326 -1.92337 0
M  V30 3738 C 362.294 1.70443 -0.82132 0
M  V30 3739 O 361.637 1.82466 0.21254 0
M  V30 3740 C 361.699 1.58231 -3.22805 0
M  V30 3741 C 361.363 0.799074 -4.4996 0
M  V30 3742 C 362.36 0.1079 -5.19788 0
M  V30 3743 C 360.045 0.759345 -4.96527 0
M  V30 3744 C 362.039 -0.612516 -6.3445 0
M  V30 3745 C 359.726 0.0351713 -6.1109 0
M  V30 3746 C 360.724 -0.649537 -6.79904 0
M  V30 3747 O 360.412 -1.36199 -7.92278 0
M  V30 3748 H 360.144 0.218257 -0.639797 0
M  V30 3749 H 362.698 0.0159295 -2.05394 0
M  V30 3750 H 360.928 2.36406 -3.06021 0
M  V30 3751 H 362.617 2.16898 -3.43089 0
M  V30 3752 H 363.383 0.129748 -4.84826 0
M  V30 3753 H 359.262 1.28177 -4.42822 0
M  V30 3754 H 362.806 -1.14751 -6.88097 0
M  V30 3755 H 358.703 0.0113314 -6.45499 0
M  V30 3756 H 359.471 -1.27366 -8.0853 0
M  V30 3757 N 362.134 1.5431 0.320358 0
M  V30 3758 C 363.38 1.72924 1.05949 0
M  V30 3759 C 363.713 0.503185 1.87568 0
M  V30 3760 O 362.988 -0.499839 1.87968 0
M  V30 3761 C 363.271 3.00676 1.98156 0
M  V30 3762 C 363.124 4.3354 1.19845 0
M  V30 3763 C 364.443 3.24198 2.9763 0
M  V30 3764 H 361.562 0.629195 0.383774 0
M  V30 3765 H 364.204 1.87008 0.335854 0
M  V30 3766 H 362.354 2.888 2.59859 0
M  V30 3767 H 364.026 4.57305 0.605773 0
M  V30 3768 H 362.269 4.309 0.500784 0
M  V30 3769 H 362.94 5.19156 1.87567 0
M  V30 3770 H 365.416 3.35557 2.4605 0
M  V30 3771 H 364.292 4.14938 3.59329 0
M  V30 3772 H 364.553 2.41577 3.7026 0
M  V30 3773 N 363.613 -0.582584 1.46437 0
M  V30 3774 C 364.861 -1.33814 1.51453 0
M  V30 3775 C 365.182 -1.94277 0.167792 0
M  V30 3776 O 364.452 -1.78566 -0.805677 0
M  V30 3777 H 363.032 -0.496838 0.557818 0
M  V30 3778 H 365.694 -0.682281 1.82568 0
M  V30 3779 H 364.79 -2.14479 2.26728 0
M  V30 3780 N 365.091 -1.34144 -0.827227 0
M  V30 3781 C 366.316 -1.29476 -1.62021 0
M  V30 3782 C 366.741 0.129292 -1.87655 0
M  V30 3783 O 366.099 1.08967 -1.449 0
M  V30 3784 C 366.147 -2.08702 -2.94068 0
M  V30 3785 O 365.251 -1.45359 -3.85933 0
M  V30 3786 H 364.592 -0.444881 -0.492927 0
M  V30 3787 H 367.122 -1.76882 -1.02829 0
M  V30 3788 H 367.132 -2.19898 -3.43669 0
M  V30 3789 H 365.807 -3.12241 -2.74734 0
M  V30 3790 H 364.384 -1.42879 -3.44442 0
M  V30 3791 N 366.569 1.04691 -1.17803 0
M  V30 3792 C 367.502 2.12068 -0.842765 0
M  V30 3793 C 368.48 1.61455 0.192608 0
M  V30 3794 O 369.664 1.88359 0.072995 0
M  V30 3795 C 366.791 3.37715 -0.258063 0
M  V30 3796 C 365.837 4.07164 -1.26962 0
M  V30 3797 S 366.67 4.55047 -2.82299 0
M  V30 3798 C 367.826 5.83935 -2.25323 0
M  V30 3799 H 368.059 2.4018 -1.75217 0
M  V30 3800 H 365.592 1.17366 -1.00323 0
M  V30 3801 H 367.55 4.10435 0.0727935 0
M  V30 3802 H 366.211 3.0773 0.629357 0
M  V30 3803 H 365.404 4.9746 -0.809263 0
M  V30 3804 H 365.006 3.40533 -1.54639 0
M  V30 3805 H 367.298 6.57552 -1.63192 0
M  V30 3806 H 368.241 6.34725 -3.13894 0
M  V30 3807 H 368.649 5.3874 -1.68582 0
M  V30 3808 N 368.047 0.979072 1.23499 0
M  V30 3809 C 369.293 0.648178 1.92163 0
M  V30 3810 C 369.626 -0.816049 1.76222 0
M  V30 3811 O 368.901 -1.58849 1.12237 0
M  V30 3812 C 369.184 1.03773 3.44824 0
M  V30 3813 C 369.037 2.55948 3.69879 0
M  V30 3814 C 370.356 0.580653 4.36253 0
M  V30 3815 H 367.475 0.236952 0.69787 0
M  V30 3816 H 370.117 1.22012 1.45647 0
M  V30 3817 H 368.267 0.551058 3.84572 0
M  V30 3818 H 369.939 3.12179 3.3962 0
M  V30 3819 H 368.182 2.98641 3.14636 0
M  V30 3820 H 368.853 2.78255 4.76737 0
M  V30 3821 H 371.329 0.998465 4.03943 0
M  V30 3822 H 370.205 0.881663 5.41773 0
M  V30 3823 H 370.466 -0.519052 4.39042 0
M  V30 3824 N 369.525 -1.3858 0.750561 0
M  V30 3825 C 370.488 -2.28836 0.129152 0
M  V30 3826 C 371.488 -1.47045 -0.650714 0
M  V30 3827 O 372.678 -1.6753 -0.477428 0
M  V30 3828 C 369.81 -3.30751 -0.825622 0
M  V30 3829 H 371.003 -2.85294 0.924516 0
M  V30 3830 H 368.556 -1.47489 0.517376 0
M  V30 3831 H 369.291 -2.79378 -1.64677 0
M  V30 3832 H 369.076 -3.91177 -0.268852 0
M  V30 3833 H 370.566 -3.98249 -1.2565 0
M  V30 3834 N 371.003 -0.499398 -1.49478 0
M  V30 3835 C 372.28 0.108629 -1.95298 0
M  V30 3836 C 372.66 1.54282 -1.44084 0
M  V30 3837 O 372.008 2.18944 -0.653908 0
M  V30 3838 C 372.218 0.0229111 -3.48992 0
M  V30 3839 C 373.566 0.197643 -4.2414 0
M  V30 3840 O 374.59 0.0981735 -3.56065 0
M  V30 3841 O 373.449 0.401669 -5.45022 0
M  V30 3842 H 370.543 0.096181 -0.821388 0
M  V30 3843 H 373.089 -0.561822 -1.6013 0
M  V30 3844 H 371.861 -0.977321 -3.78899 0
M  V30 3845 H 371.484 0.733579 -3.90774 0
M  V30 3846 N 372.481 1.55866 -0.233164 0
M  V30 3847 C 373.727 1.98897 0.395959 0
M  V30 3848 C 374.06 1.12091 1.58585 0
M  V30 3849 O 373.335 0.181182 1.93654 0
M  V30 3850 C 373.618 3.50658 0.819224 0
M  V30 3851 C 373.471 4.48233 -0.375109 0
M  V30 3852 C 374.79 4.07135 1.67121 0
M  V30 3853 H 371.909 0.723102 0.142451 0
M  V30 3854 H 374.551 1.87082 -0.331725 0
M  V30 3855 H 372.701 3.60857 1.43925 0
M  V30 3856 H 374.373 4.50031 -1.01341 0
M  V30 3857 H 372.616 4.21624 -1.02058 0
M  V30 3858 H 373.287 5.51988 -0.0358328 0
M  V30 3859 H 375.763 3.99952 1.14795 0
M  V30 3860 H 374.639 5.13615 1.93625 0
M  V30 3861 H 374.9 3.54736 2.63846 0
M  V30 3862 N 373.959 -0.0401083 1.57549 0
M  V30 3863 C 374.909 -1.05175 2.02292 0
M  V30 3864 C 375.893 -1.32674 0.910294 0
M  V30 3865 O 377.085 -1.32444 1.17421 0
M  V30 3866 C 374.214 -2.35622 2.49674 0
M  V30 3867 C 373.3 -2.11261 3.67736 0
M  V30 3868 N 373.691 -1.56923 4.80842 0
M  V30 3869 C 371.989 -2.41596 3.74897 0
M  V30 3870 C 372.69 -1.48111 5.62528 0
M  V30 3871 N 371.666 -1.95282 5.07312 0
M  V30 3872 H 375.468 -0.625455 2.87168 0
M  V30 3873 H 372.982 -0.246624 1.60516 0
M  V30 3874 H 374.979 -3.08893 2.79983 0
M  V30 3875 H 373.639 -2.7894 1.662 0
M  V30 3876 H 374.65 -1.25345 5.02503 0
M  V30 3877 H 371.327 -2.88064 3.02201 0
M  V30 3878 H 372.717 -1.06683 6.63377 0
M  V30 3879 N 375.437 -1.54477 -0.31217 0
M  V30 3880 C 376.853 -1.45442 -0.657185 0
M  V30 3881 C 377.053 -0.63653 -1.91182 0
M  V30 3882 O 376.109 -0.139815 -2.52113 0
M  V30 3883 C 377.422 -2.89287 -0.82058 0
M  V30 3884 C 378.97 -2.9926 -0.917188 0
M  V30 3885 C 379.445 -4.44279 -1.11267 0
M  V30 3886 N 380.936 -4.4794 -1.17914 0
M  V30 3887 C 381.671 -5.57318 -1.34848 0
M  V30 3888 N 381.167 -6.76642 -1.48752 0
M  V30 3889 N 382.96 -5.44986 -1.37647 0
M  V30 3890 H 375.111 -2.06129 0.512313 0
M  V30 3891 H 377.374 -0.933088 0.167485 0
M  V30 3892 H 377.08 -3.51687 0.0302604 0
M  V30 3893 H 376.954 -3.36061 -1.71298 0
M  V30 3894 H 379.341 -2.36981 -1.75852 0
M  V30 3895 H 379.422 -2.558 -0.00101257 0
M  V30 3896 H 379.066 -5.07149 -0.27614 0
M  V30 3897 H 378.996 -4.85359 -2.04289 0
M  V30 3898 H 381.487 -3.61969 -1.08567 0
M  V30 3899 H 381.8 -7.55758 -1.61397 0
M  V30 3900 H 380.145 -6.79529 -1.45828 0
M  V30 3901 H 383.336 -4.50715 -1.26388 0
M  V30 3902 H 383.509 -6.3028 -1.50501 0
M  V30 3903 N 376.915 0.57481 -1.46744 0
M  V30 3904 C 378.143 1.35856 -1.56047 0
M  V30 3905 C 378.558 1.87691 -0.204365 0
M  V30 3906 O 377.915 1.64049 0.79963 0
M  V30 3907 C 377.966 2.54066 -2.57163 0
M  V30 3908 O 377.687 2.04377 -3.87507 0
M  V30 3909 C 379.188 3.46514 -2.76483 0
M  V30 3910 H 376.408 0.414754 -0.527466 0
M  V30 3911 H 378.952 0.698035 -1.92218 0
M  V30 3912 H 377.107 3.16092 -2.23974 0
M  V30 3913 H 377.521 2.81419 -4.4261 0
M  V30 3914 H 378.995 4.25919 -3.51137 0
M  V30 3915 H 379.472 3.98951 -1.83671 0
M  V30 3916 H 380.078 2.90318 -3.10799 0
M  V30 3917 N 378.394 1.34581 0.820102 0
M  V30 3918 C 379.324 1.29038 1.94606 0
M  V30 3919 C 380.305 0.1673 1.69275 0
M  V30 3920 O 381.49 0.360112 1.90832 0
M  V30 3921 C 378.62 1.04793 3.31113 0
M  V30 3922 C 377.574 2.13597 3.70891 0
M  V30 3923 C 376.9 1.74537 5.05412 0
M  V30 3924 C 378.2 3.55451 3.8269 0
M  V30 3925 H 379.894 2.23248 1.99501 0
M  V30 3926 H 377.44 1.0747 0.958449 0
M  V30 3927 H 379.393 0.995592 4.0947 0
M  V30 3928 H 378.117 0.0702565 3.26524 0
M  V30 3929 H 376.776 2.17905 2.9481 0
M  V30 3930 H 376.424 0.754226 4.97313 0
M  V30 3931 H 376.124 2.47361 5.32997 0
M  V30 3932 H 377.648 1.70803 5.86224 0
M  V30 3933 H 379.062 3.5354 4.51312 0
M  V30 3934 H 377.459 4.26922 4.21732 0
M  V30 3935 H 378.529 3.92587 2.84611 0
M  V30 3936 N 379.872 -1.04064 1.18357 0
M  V30 3937 C 381.118 -1.77528 0.980397 0
M  V30 3938 C 381.451 -1.87948 -0.48879 0
M  V30 3939 O 380.726 -1.3876 -1.36293 0
M  V30 3940 C 381.009 -3.20797 1.63588 0
M  V30 3941 C 380.862 -3.1832 3.17793 0
M  V30 3942 C 382.181 -4.18911 1.34914 0
M  V30 3943 H 379.3 -0.644443 0.357578 0
M  V30 3944 H 381.942 -1.2156 1.46024 0
M  V30 3945 H 380.092 -3.68586 1.22788 0
M  V30 3946 H 381.764 -2.78521 3.67728 0
M  V30 3947 H 380.007 -2.56351 3.49952 0
M  V30 3948 H 380.678 -4.19489 3.58794 0
M  V30 3949 H 383.154 -3.7967 1.70265 0
M  V30 3950 H 382.03 -5.17374 1.83346 0
M  V30 3951 H 382.291 -4.41262 0.272027 0
M  V30 3952 N 381.35 -0.985608 -1.22978 0
M  V30 3953 C 382.58 -0.674603 -1.95276 0
M  V30 3954 C 382.988 0.763483 -1.73111 0
M  V30 3955 O 382.331 1.52601 -1.02268 0
M  V30 3956 C 382.393 -0.891597 -3.48268 0
M  V30 3957 C 382.057 -2.31275 -3.94158 0
M  V30 3958 C 383.054 -3.29179 -4.02415 0
M  V30 3959 C 380.739 -2.64524 -4.27004 0
M  V30 3960 C 382.733 -4.58407 -4.42879 0
M  V30 3961 C 380.42 -3.93974 -4.67149 0
M  V30 3962 C 381.418 -4.90727 -4.75053 0
M  V30 3963 O 381.106 -6.17865 -5.14294 0
M  V30 3964 H 380.838 -0.249251 -0.628371 0
M  V30 3965 H 383.392 -1.32106 -1.5728 0
M  V30 3966 H 381.622 -0.187962 -3.86243 0
M  V30 3967 H 383.311 -0.576957 -4.01779 0
M  V30 3968 H 384.077 -3.04823 -3.77237 0
M  V30 3969 H 379.956 -1.89923 -4.2006 0
M  V30 3970 H 383.5 -5.33926 -4.48964 0
M  V30 3971 H 379.397 -4.18122 -4.91777 0
M  V30 3972 H 380.165 -6.21694 -5.32389 0
M  V30 3973 N 382.828 1.3818 -0.7579 0
M  V30 3974 C 384.076 1.99624 -0.315361 0
M  V30 3975 C 384.397 1.60464 1.10799 0
M  V30 3976 O 383.667 0.863507 1.75842 0
M  V30 3977 H 382.247 0.73831 -0.113611 0
M  V30 3978 H 384.909 1.68878 -0.972952 0
M  V30 3979 H 384.005 3.09754 -0.381931 0
M  V30 3980 N 384.306 0.507319 1.49211 0
M  V30 3981 C 385.554 -0.0348839 2.0207 0
M  V30 3982 C 385.875 -1.36898 1.38866 0
M  V30 3983 O 385.145 -1.88133 0.546151 0
M  V30 3984 H 383.725 -0.0158812 0.746831 0
M  V30 3985 H 386.387 0.665998 1.83168 0
M  V30 3986 H 385.483 -0.159917 3.1169 0
M  V30 3987 N 385.784 -1.5574 0.241426 0
M  V30 3988 C 387.033 -1.97986 -0.385295 0
M  V30 3989 C 387.346 -1.13267 -1.59468 0
M  V30 3990 O 388.552 -1.45501 -2.2922 0
M  V30 3991 C 387.008 -3.52275 -0.736884 0
M  V30 3992 C 386.616 -4.45726 0.450796 0
M  V30 3993 C 388.36 -4.03189 -1.3281 0
M  V30 3994 C 386.267 -5.91352 0.0756662 0
M  V30 3995 H 385.197 -0.739386 -0.147731 0
M  V30 3996 H 387.848 -1.80308 0.340779 0
M  V30 3997 H 386.23 -3.65628 -1.52094 0
M  V30 3998 H 387.404 -4.44131 1.22819 0
M  V30 3999 H 385.719 -4.05264 0.956573 0
M  V30 4000 H 388.316 -5.09505 -1.62201 0
M  V30 4001 H 388.659 -3.50212 -2.25071 0
M  V30 4002 H 389.192 -3.93141 -0.607069 0
M  V30 4003 H 385.931 -6.48354 0.965272 0
M  V30 4004 H 385.451 -5.96095 -0.665635 0
M  V30 4005 H 387.13 -6.46084 -0.344075 0
M  V30 4006 N 387.262 0.0317525 -1.57568 0
M  V30 4007 C 388.509 0.723104 -1.89149 0
M  V30 4008 C 388.837 1.75504 -0.838377 0
M  V30 4009 O 388.092 1.95037 0.160982 0
M  V30 4010 C 388.391 1.43167 -3.27472 0
M  V30 4011 C 388.057 0.535972 -4.47703 0
M  V30 4012 C 386.719 0.289262 -4.8033 0
M  V30 4013 C 389.071 -0.0826125 -5.21135 0
M  V30 4014 C 386.399 -0.584853 -5.83778 0
M  V30 4015 C 388.751 -0.944414 -6.25511 0
M  V30 4016 C 387.415 -1.20061 -6.56614 0
M  V30 4017 H 386.685 0.264602 -0.692146 0
M  V30 4018 H 389.332 -0.0169496 -1.91492 0
M  V30 4019 H 387.637 2.24497 -3.21105 0
M  V30 4020 H 389.334 1.97209 -3.49155 0
M  V30 4021 H 385.924 0.738414 -4.22191 0
M  V30 4022 H 390.108 0.0950302 -4.96209 0
M  V30 4023 H 385.364 -0.79168 -6.06253 0
M  V30 4024 H 389.538 -1.43026 -6.81554 0
M  V30 4025 H 387.165 -1.87967 -7.36595 0
M  V30 4026 N 388.74 1.54641 0.303973 0
M  V30 4027 C 389.67 1.88386 1.3796 0
M  V30 4028 C 390.651 0.742485 1.5304 0
M  V30 4029 O 391.836 0.997959 1.66597 0
M  V30 4030 C 388.966 2.12854 2.74427 0
M  V30 4031 C 387.92 3.28702 2.74115 0
M  V30 4032 C 387.246 3.38582 4.13844 0
M  V30 4033 C 388.546 4.65881 2.3612 0
M  V30 4034 H 390.24 2.78474 1.09966 0
M  V30 4035 H 387.786 1.33988 0.527556 0
M  V30 4036 H 389.739 2.35047 3.49758 0
M  V30 4037 H 388.463 1.19535 3.03939 0
M  V30 4038 H 387.122 3.06428 2.0124 0
M  V30 4039 H 386.77 2.42784 4.40528 0
M  V30 4040 H 386.47 4.16453 4.14537 0
M  V30 4041 H 387.994 3.63031 4.90959 0
M  V30 4042 H 389.408 4.87823 3.01167 0
M  V30 4043 H 387.805 5.46444 2.48031 0
M  V30 4044 H 388.875 4.66799 1.3125 0
M  V30 4045 N 390.218 -0.567019 1.47046 0
M  V30 4046 C 391.448 -1.34831 1.56538 0
M  V30 4047 C 391.856 -1.8802 0.21101 0
M  V30 4048 O 391.199 -1.65152 -0.804387 0
M  V30 4049 C 391.261 -2.56139 2.52256 0
M  V30 4050 C 390.925 -2.24307 3.98165 0
M  V30 4051 C 391.922 -1.82192 4.86931 0
M  V30 4052 C 389.607 -2.35968 4.43423 0
M  V30 4053 C 391.601 -1.52153 6.18973 0
M  V30 4054 C 389.288 -2.05542 5.75496 0
M  V30 4055 C 390.286 -1.63701 6.63092 0
M  V30 4056 O 389.974 -1.33657 7.92711 0
M  V30 4057 H 389.706 -0.417683 0.531523 0
M  V30 4058 H 392.26 -0.694726 1.93294 0
M  V30 4059 H 390.49 -3.24356 2.10548 0
M  V30 4060 H 392.179 -3.18214 2.51982 0
M  V30 4061 H 392.945 -1.72684 4.53217 0
M  V30 4062 H 388.824 -2.67495 3.75456 0
M  V30 4063 H 392.368 -1.19421 6.87302 0
M  V30 4064 H 388.265 -2.14679 6.08755 0
M  V30 4065 H 389.033 -1.4737 8.05124 0
M  V30 4066 N 391.696 -1.35014 -0.812953 0
M  V30 4067 C 393.107 -1.25035 -1.38648 0
M  V30 4068 C 393.458 0.119967 -1.95833 0
M  V30 4069 O 392.583 1.02069 -1.90816 0
M  V30 4070 C 393.178 -2.26394 -2.52054 0
M  V30 4071 C 391.737 -2.20175 -3.05287 0
M  V30 4072 C 390.884 -2.12451 -1.78213 0
M  V30 4073 H 393.835 -1.46235 -0.616516 0
M  V30 4074 H 393.856 -1.88672 -3.30429 0
M  V30 4075 H 393.368 -3.26116 -2.10404 0
M  V30 4076 H 391.469 -1.23841 -3.51417 0
M  V30 4077 H 391.582 -3.11863 -3.63701 0
M  V30 4078 H 389.946 -1.58328 -1.9951 0
M  V30 4079 H 390.729 -3.14024 -1.38723 0
M  V30 4080 N 393.175 1.03435 -1.18907 0
M  V30 4081 C 394.138 2.09756 -0.923844 0
M  V30 4082 C 395.138 1.60528 0.093416 0
M  V30 4083 O 396.328 1.73631 -0.140727 0
M  V30 4084 C 393.46 3.38692 -0.387354 0
M  V30 4085 H 394.653 2.34719 -1.86674 0
M  V30 4086 H 392.206 1.19959 -1.00197 0
M  V30 4087 H 392.941 3.19396 0.561845 0
M  V30 4088 H 392.726 3.75742 -1.12074 0
M  V30 4089 H 394.216 4.17016 -0.220694 0
M  V30 4090 N 394.653 0.992116 1.22453 0
M  V30 4091 C 395.601 0.534644 2.26372 0
M  V30 4092 C 396.595 -0.414293 1.64256 0
M  V30 4093 O 397.801 -0.286899 1.77699 0
M  V30 4094 H 394.176 0.154502 0.735957 0
M  V30 4095 H 396.147 1.42256 2.62309 0
M  V30 4096 C 394.896 -0.135815 3.47435 0
M  V30 4097 H 394.219 0.585311 3.95492 0
M  V30 4098 H 395.659 -0.419374 4.21921 0
M  V30 4099 C 394.118 -1.37089 3.07747 0
M  V30 4100 O 394.648 -2.46629 3.17076 0
M  V30 4101 N 392.854 -1.24585 2.62539 0
M  V30 4102 H 392.401 -0.354542 2.55149 0
M  V30 4103 H 392.359 -2.07327 2.36353 0
M  V30 4104 N 396.131 -1.37776 0.765217 0
M  V30 4105 C 397.078 -2.30342 0.145274 0
M  V30 4106 C 398.048 -1.5077 -0.696971 0
M  V30 4107 O 399.233 -1.79362 -0.650689 0
M  V30 4108 C 396.373 -3.37227 -0.732939 0
M  V30 4109 C 395.486 -4.31819 0.125199 0
M  V30 4110 C 394.621 -5.25777 -0.757107 0
M  V30 4111 C 393.66 -6.12012 0.103963 0
M  V30 4112 N 392.797 -6.98232 -0.735953 0
M  V30 4113 H 397.637 -2.8278 0.940195 0
M  V30 4114 H 395.174 -1.39211 0.475255 0
M  V30 4115 H 397.132 -3.97818 -1.25686 0
M  V30 4116 H 395.762 -2.86171 -1.49353 0
M  V30 4117 H 394.814 -3.7259 0.766865 0
M  V30 4118 H 396.126 -4.92509 0.789683 0
M  V30 4119 H 395.28 -5.91541 -1.34776 0
M  V30 4120 H 394.019 -4.65481 -1.45529 0
M  V30 4121 H 393.024 -5.45233 0.707197 0
M  V30 4122 H 394.249 -6.74379 0.799381 0
M  V30 4123 H 392.195 -6.40472 -1.41887 0
M  V30 4124 H 392.112 -7.55891 -0.128624 0
M  V30 4125 H 393.38 -7.68393 -1.31121 0
M  V30 4126 N 397.609 -0.515225 -1.4894 0
M  V30 4127 C 398.556 0.255567 -2.29381 0
M  V30 4128 C 399.526 0.947387 -1.36432 0
M  V30 4129 O 400.711 0.951288 -1.65394 0
M  V30 4130 C 397.851 1.30551 -3.19453 0
M  V30 4131 C 396.964 0.624029 -4.27469 0
M  V30 4132 C 396.099 1.65563 -5.0474 0
M  V30 4133 C 395.138 0.956802 -6.04576 0
M  V30 4134 N 394.275 1.93326 -6.74959 0
M  V30 4135 H 399.115 -0.436607 -2.94784 0
M  V30 4136 H 396.652 -0.227154 -1.45336 0
M  V30 4137 H 398.61 1.92639 -3.70062 0
M  V30 4138 H 397.24 1.96626 -2.56004 0
M  V30 4139 H 396.292 -0.110459 -3.8024 0
M  V30 4140 H 397.604 0.0746092 -4.98744 0
M  V30 4141 H 396.758 2.35119 -5.59289 0
M  V30 4142 H 395.497 2.23893 -4.3327 0
M  V30 4143 H 394.502 0.247097 -5.49244 0
M  V30 4144 H 395.727 0.379814 -6.78037 0
M  V30 4145 H 393.673 2.50591 -6.06251 0
M  V30 4146 H 393.59 1.43489 -7.42258 0
M  V30 4147 H 394.858 2.62126 -7.34105 0
M  V30 4148 N 399.087 1.5561 -0.249682 0
M  V30 4149 C 400.312 2.03865 0.381305 0
M  V30 4150 C 400.737 1.12769 1.50548 0
M  V30 4151 O 400.095 0.121189 1.80895 0
M  V30 4152 C 400.143 3.50101 0.863816 0
M  V30 4153 O 399.247 3.62132 1.97318 0
M  V30 4154 H 398.588 0.658827 0.0827194 0
M  V30 4155 H 401.118 2.01105 -0.376552 0
M  V30 4156 H 401.128 3.90975 1.1663 0
M  V30 4157 H 399.803 4.1588 0.0411816 0
M  V30 4158 H 398.38 3.33155 1.67517 0
M  V30 4159 N 400.565 -0.0233959 1.57583 0
M  V30 4160 C 401.976 -0.56927 1.77809 0
M  V30 4161 C 402.327 -1.75284 0.881472 0
M  V30 4162 O 401.452 -2.1626 0.0777805 0
M  V30 4163 C 402.047 -1.03949 3.22459 0
M  V30 4164 C 400.606 -1.53084 3.43864 0
M  V30 4165 C 399.753 -0.471454 2.73263 0
M  V30 4166 H 402.704 0.202825 1.57399 0
M  V30 4167 H 402.725 -1.90661 3.29285 0
M  V30 4168 H 402.237 -0.177865 3.87692 0
M  V30 4169 H 400.338 -2.41414 2.83814 0
M  V30 4170 H 400.451 -1.57443 4.52491 0
M  V30 4171 H 398.815 -0.927788 2.37201 0
M  V30 4172 H 399.598 0.380808 3.41181 0
M  V30 4173 N 402.043 -1.548 -0.295768 0
M  V30 4174 C 402.991 -1.86874 -1.38495 0
M  V30 4175 C 403.985 -0.742938 -1.52239 0
M  V30 4176 O 405.191 -0.926999 -1.54294 0
M  V30 4177 H 401.566 -0.592786 -0.462719 0
M  V30 4178 H 403.537 -2.77904 -1.08682 0
M  V30 4179 C 402.286 -2.13732 -2.74252 0
M  V30 4180 H 401.609 -2.99835 -2.64459 0
M  V30 4181 H 403.049 -2.4011 -3.49461 0
M  V30 4182 C 401.508 -0.937539 -3.23592 0
M  V30 4183 O 402.038 -0.160665 -4.01379 0
M  V30 4184 N 400.244 -0.741478 -2.80981 0
M  V30 4185 H 399.791 -1.37489 -2.1784 0
M  V30 4186 H 399.749 0.0597103 -3.14343 0
M  V30 4187 N 403.521 0.559213 -1.47345 0
M  V30 4188 C 404.769 1.31388 -1.53563 0
M  V30 4189 C 405.09 1.93985 -0.198678 0
M  V30 4190 O 404.36 1.79825 0.777167 0
M  V30 4191 H 402.94 0.487901 -0.565652 0
M  V30 4192 H 405.602 0.65315 -1.8363 0
M  V30 4193 H 404.698 2.10844 -2.30111 0
M  V30 4194 N 404.999 1.35443 0.805782 0
M  V30 4195 C 405.946 1.28431 1.91766 0
M  V30 4196 C 406.916 0.156102 1.65365 0
M  V30 4197 O 408.101 0.339936 1.87747 0
M  V30 4198 C 405.241 1.06301 3.2832 0
M  V30 4199 C 404.354 2.2805 3.66902 0
M  V30 4200 C 403.489 1.99064 4.92491 0
M  V30 4201 C 402.528 3.16863 5.23703 0
M  V30 4202 N 401.665 2.87647 6.40471 0
M  V30 4203 H 406.505 2.23511 1.97096 0
M  V30 4204 H 404.042 1.11105 0.964054 0
M  V30 4205 H 406 0.915012 4.07042 0
M  V30 4206 H 404.63 0.148822 3.22457 0
M  V30 4207 H 403.682 2.53711 2.83434 0
M  V30 4208 H 404.994 3.1601 3.85927 0
M  V30 4209 H 404.148 1.81099 5.7904 0
M  V30 4210 H 402.887 1.0839 4.75503 0
M  V30 4211 H 401.892 3.35404 4.35642 0
M  V30 4212 H 403.117 4.08339 5.4262 0
M  V30 4213 H 401.063 1.99568 6.24907 0
M  V30 4214 H 400.98 3.69141 6.59751 0
M  V30 4215 H 402.248 2.73226 7.30047 0
M  V30 4216 N 406.477 -1.02803 1.19454 0
M  V30 4217 C 407.407 -2.12999 0.956758 0
M  V30 4218 C 408.388 -1.69743 -0.110188 0
M  V30 4219 O 409.573 -1.94148 0.0450038 0
M  V30 4220 C 406.703 -3.43746 0.495553 0
M  V30 4221 C 405.657 -4.00688 1.50443 0
M  V30 4222 C 404.983 -5.27067 0.900275 0
M  V30 4223 C 406.283 -4.35397 2.8849 0
M  V30 4224 H 407.977 -2.33148 1.87836 0
M  V30 4225 H 405.523 -1.12045 0.904539 0
M  V30 4226 H 407.476 -4.2021 0.316493 0
M  V30 4227 H 406.2 -3.23321 -0.461646 0
M  V30 4228 H 404.859 -3.2632 1.67065 0
M  V30 4229 H 404.507 -5.02959 -0.064503 0
M  V30 4230 H 404.207 -5.66127 1.57397 0
M  V30 4231 H 405.731 -6.06196 0.73203 0
M  V30 4232 H 407.145 -5.02795 2.75446 0
M  V30 4233 H 405.542 -4.85541 3.52661 0
M  V30 4234 H 406.612 -3.44662 3.41081 0
M  V30 4235 N 407.956 -0.998596 -1.21925 0
M  V30 4236 C 409.372 -0.710303 -1.42923 0
M  V30 4237 C 409.572 0.716933 -1.88314 0
M  V30 4238 O 408.628 1.48712 -2.04062 0
M  V30 4239 C 409.941 -1.72072 -2.466 0
M  V30 4240 C 411.489 -1.73681 -2.60392 0
M  V30 4241 C 411.964 -2.73601 -3.67296 0
M  V30 4242 N 413.455 -2.7223 -3.7476 0
M  V30 4243 C 414.19 -3.46206 -4.57087 0
M  V30 4244 N 413.686 -4.29802 -5.43362 0
M  V30 4245 N 415.479 -3.34886 -4.51451 0
M  V30 4246 H 407.63 -1.92028 -0.9077 0
M  V30 4247 H 409.893 -0.828487 -0.460775 0
M  V30 4248 H 409.599 -2.74231 -2.20206 0
M  V30 4249 H 409.473 -1.51818 -3.45299 0
M  V30 4250 H 411.86 -0.722173 -2.86127 0
M  V30 4251 H 411.941 -1.98005 -1.61949 0
M  V30 4252 H 411.585 -3.75217 -3.42307 0
M  V30 4253 H 411.515 -2.46545 -4.65321 0
M  V30 4254 H 414.006 -2.11576 -3.1312 0
M  V30 4255 H 414.319 -4.83061 -6.03218 0
M  V30 4256 H 412.664 -4.33887 -5.42925 0
M  V30 4257 H 415.855 -2.69015 -3.83078 0
M  V30 4258 H 416.028 -3.92796 -5.15379 0
M  V30 4259 N 409.434 1.37368 -0.772513 0
M  V30 4260 C 410.364 2.32856 -0.173304 0
M  V30 4261 C 411.345 1.55818 0.682262 0
M  V30 4262 O 412.53 1.84052 0.619566 0
M  V30 4263 C 409.66 3.40048 0.706007 0
M  V30 4264 C 408.614 4.27973 -0.0483144 0
M  V30 4265 C 407.94 5.26184 0.950491 0
M  V30 4266 C 409.24 5.07665 -1.22776 0
M  V30 4267 H 410.934 2.83217 -0.971002 0
M  V30 4268 H 408.48 1.3617 -0.468377 0
M  V30 4269 H 410.433 4.05827 1.13501 0
M  V30 4270 H 409.157 2.88214 1.53623 0
M  V30 4271 H 407.816 3.63726 -0.458107 0
M  V30 4272 H 407.464 4.7063 1.77529 0
M  V30 4273 H 407.164 5.85872 0.450314 0
M  V30 4274 H 408.688 5.94838 1.37842 0
M  V30 4275 H 410.102 5.66578 -0.875366 0
M  V30 4276 H 408.499 5.76681 -1.66007 0
M  V30 4277 H 409.569 4.40294 -2.03149 0
M  V30 4278 N 410.912 0.523116 1.48665 0
M  V30 4279 C 411.842 -0.23231 2.32342 0
M  V30 4280 C 412.823 -0.941637 1.41659 0
M  V30 4281 O 414.008 -0.928751 1.70552 0
M  V30 4282 C 411.138 -1.28387 3.22698 0
M  V30 4283 C 410.092 -0.693098 4.22351 0
M  V30 4284 C 409.418 -1.8468 5.01794 0
M  V30 4285 C 410.718 0.33063 5.21252 0
M  V30 4286 H 412.412 0.466192 2.95748 0
M  V30 4287 H 409.958 0.225643 1.42221 0
M  V30 4288 H 411.911 -1.82024 3.80059 0
M  V30 4289 H 410.635 -2.01186 2.57278 0
M  V30 4290 H 409.294 -0.178299 3.66166 0
M  V30 4291 H 408.942 -2.56301 4.32804 0
M  V30 4292 H 408.642 -1.45747 5.69238 0
M  V30 4293 H 410.166 -2.38709 5.62006 0
M  V30 4294 H 411.58 -0.118407 5.73178 0
M  V30 4295 H 409.977 0.636974 5.9671 0
M  V30 4296 H 411.047 1.23883 4.68808 0
M  V30 4297 N 412.39 -1.55475 0.257931 0
M  V30 4298 C 413.62 -2.03314 -0.367026 0
M  V30 4299 C 414.028 -1.13625 -1.51281 0
M  V30 4300 O 413.371 -0.145334 -1.83124 0
M  V30 4301 C 413.433 -3.47362 -0.926284 0
M  V30 4302 C 413.097 -4.56914 0.0886584 0
M  V30 4303 C 414.094 -5.12013 0.902123 0
M  V30 4304 C 411.779 -5.01827 0.217936 0
M  V30 4305 C 413.773 -6.10529 1.83122 0
M  V30 4306 C 411.46 -6.00172 1.15052 0
M  V30 4307 C 412.458 -6.54402 1.95568 0
M  V30 4308 O 412.146 -7.50827 2.87253 0
M  V30 4309 H 411.878 -0.669976 -0.0900443 0
M  V30 4310 H 414.432 -2.01804 0.382673 0
M  V30 4311 H 412.662 -3.46056 -1.72575 0
M  V30 4312 H 414.351 -3.78637 -1.46249 0
M  V30 4313 H 415.117 -4.78139 0.812891 0
M  V30 4314 H 410.996 -4.59272 -0.398721 0
M  V30 4315 H 414.54 -6.52783 2.46008 0
M  V30 4316 H 410.437 -6.33465 1.24064 0
M  V30 4317 H 411.205 -7.68483 2.81739 0
M  V30 4318 N 413.868 0.0150385 -1.57593 0
M  V30 4319 C 414.778 1.02791 -2.10882 0
M  V30 4320 C 415.794 1.38702 -1.0506 0
M  V30 4321 O 416.97 1.47739 -1.36877 0
M  V30 4322 C 414.035 2.30568 -2.58919 0
M  V30 4323 C 413.096 2.01108 -3.79281 0
M  V30 4324 C 412.329 3.22794 -4.25018 0
M  V30 4325 O 412.552 4.33959 -3.70183 0
M  V30 4326 O 411.486 3.07672 -5.17322 0
M  V30 4327 H 415.312 0.604973 -2.97613 0
M  V30 4328 H 412.897 0.23292 -1.47573 0
M  V30 4329 H 414.779 3.05662 -2.90084 0
M  V30 4330 H 413.454 2.72129 -1.75293 0
M  V30 4331 H 412.361 1.23537 -3.53114 0
M  V30 4332 H 413.694 1.64394 -4.63935 0
M  V30 4333 N 415.346 1.54954 0.287554 0
M  V30 4334 C 416.586 1.76617 1.02887 0
M  V30 4335 C 416.95 0.547759 1.84021 0
M  V30 4336 O 418.151 0.642365 2.61012 0
M  V30 4337 C 416.422 3.02717 1.89993 0
M  V30 4338 S 417.981 3.45438 2.70588 0
M  V30 4339 H 414.799 0.6207 0.346775 0
M  V30 4340 H 417.401 1.93172 0.30082 0
M  V30 4341 H 416.105 3.89503 1.29287 0
M  V30 4342 H 415.636 2.88787 2.67144 0
M  V30 4343 H 417.651 3.03566 3.92508 0
M  V30 4344 N 416.824 -0.551391 1.4764 0
M  V30 4345 C 417.772 -1.67896 1.60978 0
M  V30 4346 C 418.766 -1.62549 0.476877 0
M  V30 4347 O 419.972 -1.67664 0.654878 0
M  V30 4348 H 416.347 -0.555649 0.506713 0
M  V30 4349 H 418.318 -1.53784 2.55721 0
M  V30 4350 C 417.067 -3.06234 1.64669 0
M  V30 4351 H 416.39 -3.11033 2.51194 0
M  V30 4352 H 417.83 -3.84804 1.7805 0
M  V30 4353 C 416.289 -3.34737 0.381115 0
M  V30 4354 O 416.819 -3.98381 -0.515297 0
M  V30 4355 N 415.025 -2.8944 0.259354 0
M  V30 4356 H 414.572 -2.37827 0.98976 0
M  V30 4357 H 414.53 -3.08882 -0.586464 0
M  V30 4358 N 418.302 -1.35869 -0.798587 0
M  V30 4359 C 419.713 -1.26498 -1.37314 0
M  V30 4360 C 420.064 0.0991899 -1.95949 0
M  V30 4361 O 419.189 1.0004 -1.91888 0
M  V30 4362 C 419.784 -2.29054 -2.49639 0
M  V30 4363 C 418.343 -2.234 -3.02935 0
M  V30 4364 C 417.49 -2.14329 -1.75949 0
M  V30 4365 H 420.441 -1.46881 -0.600971 0
M  V30 4366 H 420.462 -1.92166 -3.28409 0
M  V30 4367 H 419.974 -3.2833 -2.06933 0
M  V30 4368 H 418.075 -1.27562 -3.50084 0
M  V30 4369 H 418.188 -3.15703 -3.60372 0
M  V30 4370 H 416.552 -1.60435 -1.9782 0
M  V30 4371 H 417.335 -3.15477 -1.35384 0
M  V30 4372 N 419.78 1.02168 -1.19998 0
M  V30 4373 C 420.713 2.10232 -0.887558 0
M  V30 4374 C 421.691 1.61827 0.158317 0
M  V30 4375 O 422.875 1.88471 0.0330249 0
M  V30 4376 C 420.002 3.37092 -0.32964 0
M  V30 4377 C 419.048 4.0438 -1.3557 0
M  V30 4378 S 419.881 4.48956 -2.91888 0
M  V30 4379 C 421.037 5.79024 -2.37658 0
M  V30 4380 H 421.27 2.36409 -1.80272 0
M  V30 4381 H 418.803 1.15211 -1.0279 0
M  V30 4382 H 420.761 4.10498 -0.0142824 0
M  V30 4383 H 419.422 3.08996 0.563941 0
M  V30 4384 H 418.615 4.95632 -0.9146 0
M  V30 4385 H 418.217 3.37176 -1.61828 0
M  V30 4386 H 420.509 6.53942 -1.77103 0
M  V30 4387 H 421.452 6.27924 -3.27287 0
M  V30 4388 H 421.86 5.35043 -1.79971 0
M  V30 4389 N 421.258 1.00505 1.21394 0
M  V30 4390 C 422.221 0.570459 2.21987 0
M  V30 4391 C 423.221 -0.353211 1.56873 0
M  V30 4392 O 424.411 -0.14349 1.73608 0
M  V30 4393 C 421.543 -0.168555 3.40483 0
M  V30 4394 H 422.736 1.46021 2.6195 0
M  V30 4395 H 420.289 0.793565 1.34656 0
M  V30 4396 H 421.024 -1.07374 3.06009 0
M  V30 4397 H 420.809 0.494823 3.88965 0
M  V30 4398 H 422.299 -0.460362 4.15055 0
M  V30 4399 N 422.737 -1.36956 0.779787 0
M  V30 4400 C 423.967 -2.03459 0.358877 0
M  V30 4401 C 424.375 -1.58939 -1.02641 0
M  V30 4402 O 423.718 -0.769777 -1.66794 0
M  V30 4403 C 423.78 -3.5796 0.332393 0
M  V30 4404 C 423.444 -4.25644 1.66362 0
M  V30 4405 C 424.441 -4.49205 2.61746 0
M  V30 4406 C 422.126 -4.63313 1.94027 0
M  V30 4407 C 424.12 -5.09503 3.82996 0
M  V30 4408 C 421.807 -5.2333 3.15546 0
M  V30 4409 C 422.805 -5.46363 4.0985 0
M  V30 4410 O 422.493 -6.05122 5.29228 0
M  V30 4411 H 422.225 -0.659767 0.147254 0
M  V30 4412 H 424.779 -1.76111 1.05708 0
M  V30 4413 H 423.009 -3.84388 -0.422237 0
M  V30 4414 H 424.698 -4.05852 -0.0625389 0
M  V30 4415 H 425.464 -4.20508 2.41657 0
M  V30 4416 H 421.343 -4.44715 1.21448 0
M  V30 4417 H 424.887 -5.27397 4.56617 0
M  V30 4418 H 420.784 -5.51451 3.35517 0
M  V30 4419 H 421.552 -6.23595 5.30161 0
M  V30 4420 N 424.215 -0.530993 -1.48385 0
M  V30 4421 C 425.461 0.00274135 -2.028 0
M  V30 4422 C 425.794 1.33838 -1.40716 0
M  V30 4423 O 425.069 1.86465 -0.553277 0
M  V30 4424 C 425.352 0.123676 -3.59888 0
M  V30 4425 C 425.205 -1.2372 -4.3245 0
M  V30 4426 C 426.524 0.849967 -4.31814 0
M  V30 4427 H 423.643 -0.000477758 -0.737 0
M  V30 4428 H 426.285 -0.688217 -1.77098 0
M  V30 4429 H 424.435 0.712157 -3.81917 0
M  V30 4430 H 426.107 -1.86687 -4.21836 0
M  V30 4431 H 424.35 -1.81882 -3.93829 0
M  V30 4432 H 425.021 -1.10557 -5.40815 0
M  V30 4433 H 427.497 0.350572 -4.14621 0
M  V30 4434 H 426.373 0.903486 -5.41413 0
M  V30 4435 H 426.634 1.90047 -3.99167 0
M  V30 4436 N 425.693 1.55336 -0.266172 0
M  V30 4437 C 426.626 2.18256 0.666296 0
M  V30 4438 C 427.604 1.14064 1.1588 0
M  V30 4439 O 428.788 1.42546 1.23341 0
M  V30 4440 C 425.915 2.79867 1.90768 0
M  V30 4441 C 424.961 3.97283 1.55141 0
M  V30 4442 S 425.794 5.31694 0.637313 0
M  V30 4443 C 426.95 5.96769 1.88727 0
M  V30 4444 H 427.183 2.97008 0.131647 0
M  V30 4445 H 424.716 1.54317 -0.0504869 0
M  V30 4446 H 426.674 3.15996 2.62025 0
M  V30 4447 H 425.335 2.01025 2.41346 0
M  V30 4448 H 424.528 4.3905 2.4749 0
M  V30 4449 H 424.13 3.6253 0.919113 0
M  V30 4450 H 426.422 6.15458 2.83227 0
M  V30 4451 H 427.365 6.91752 1.51276 0
M  V30 4452 H 427.773 5.26034 2.04814 0
M  V30 4453 N 427.171 -0.0066808 1.57599 0
M  V30 4454 C 428.081 -1.01671 2.11424 0
M  V30 4455 C 429.097 -1.38143 1.05795 0
M  V30 4456 O 430.273 -1.47011 1.37658 0
M  V30 4457 C 427.338 -2.29192 2.60139 0
M  V30 4458 C 426.399 -1.99094 3.80342 0
M  V30 4459 C 425.632 -3.20535 4.26724 0
M  V30 4460 O 425.855 -4.3199 3.72479 0
M  V30 4461 O 424.789 -3.04924 5.18946 0
M  V30 4462 H 428.615 -0.589181 2.9793 0
M  V30 4463 H 426.2 -0.225091 1.47695 0
M  V30 4464 H 428.082 -3.0412 2.917 0
M  V30 4465 H 426.757 -2.71195 1.76733 0
M  V30 4466 H 425.664 -1.21663 3.53764 0
M  V30 4467 H 426.997 -1.61931 4.648 0
M  V30 4468 N 428.649 -1.55105 -0.279332 0
M  V30 4469 C 429.596 -1.8755 -1.34513 0
M  V30 4470 C 430.566 -0.726384 -1.49375 0
M  V30 4471 O 431.751 -0.977063 -1.63884 0
M  V30 4472 C 428.891 -2.14738 -2.70151 0
M  V30 4473 C 428.004 -3.42285 -2.63562 0
M  V30 4474 C 427.139 -3.59206 -3.91337 0
M  V30 4475 C 426.178 -4.80467 -3.79233 0
M  V30 4476 N 425.315 -4.94079 -4.98829 0
M  V30 4477 H 430.155 -2.78456 -1.06143 0
M  V30 4478 H 427.692 -1.37867 -0.512936 0
M  V30 4479 H 429.65 -2.28501 -3.49061 0
M  V30 4480 H 428.28 -1.27075 -2.96735 0
M  V30 4481 H 427.332 -3.37029 -1.76397 0
M  V30 4482 H 428.644 -4.31328 -2.50515 0
M  V30 4483 H 427.798 -3.72751 -4.78687 0
M  V30 4484 H 426.537 -2.68337 -4.07243 0
M  V30 4485 H 425.542 -4.66932 -2.90266 0
M  V30 4486 H 426.767 -5.72765 -3.64852 0
M  V30 4487 H 424.713 -4.06139 -5.15158 0
M  V30 4488 H 424.63 -5.77156 -4.8829 0
M  V30 4489 H 425.898 -5.12003 -5.8777 0
M  V30 4490 N 430.127 0.543554 -1.4793 0
M  V30 4491 C 431.09 1.63156 -1.60975 0
M  V30 4492 C 432.09 1.53346 -0.483899 0
M  V30 4493 O 433.28 1.5726 -0.749339 0
M  V30 4494 C 430.412 3.02743 -1.56716 0
M  V30 4495 H 431.605 1.52934 -2.57975 0
M  V30 4496 H 429.158 0.764557 -1.36324 0
M  V30 4497 H 429.893 3.18484 -0.611418 0
M  V30 4498 H 429.678 3.11272 -2.38438 0
M  V30 4499 H 431.168 3.81871 -1.6901 0
M  V30 4500 N 431.605 1.3629 0.791371 0
M  V30 4501 C 432.853 1.30154 1.5461 0
M  V30 4502 C 433.174 -0.119409 1.94634 0
M  V30 4503 O 432.444 -1.05924 1.64794 0
M  V30 4504 H 431.024 0.478784 0.573389 0
M  V30 4505 H 433.686 1.70565 0.94306 0
M  V30 4506 H 432.782 1.92762 2.45457 0
M  V30 4507 N 433.083 -1.0153 1.20538 0
M  V30 4508 C 434.331 -1.74803 1.01432 0
M  V30 4509 C 434.652 -1.8963 -0.454456 0
M  V30 4510 O 433.922 -1.43975 -1.32846 0
M  V30 4511 H 432.502 -0.647598 0.372324 0
M  V30 4512 H 435.164 -1.22402 1.5167 0
M  V30 4513 H 434.26 -2.75114 1.47373 0
M  V30 4514 N 434.561 -1.01147 -1.20859 0
M  V30 4515 C 435.494 -0.522108 -2.22147 0
M  V30 4516 C 436.472 0.427686 -1.56874 0
M  V30 4517 O 437.656 0.34889 -1.85243 0
M  V30 4518 C 434.783 0.240819 -3.37843 0
M  V30 4519 C 433.829 -0.657752 -4.21398 0
M  V30 4520 S 434.662 -2.12393 -4.91578 0
M  V30 4521 C 435.818 -1.37102 -6.10699 0
M  V30 4522 H 436.051 -1.38035 -2.63313 0
M  V30 4523 H 433.584 -0.819941 -1.30829 0
M  V30 4524 H 435.542 0.674908 -4.04914 0
M  V30 4525 H 434.203 1.07457 -2.95147 0
M  V30 4526 H 433.396 -0.0697456 -5.03952 0
M  V30 4527 H 432.998 -1.0294 -3.59555 0
M  V30 4528 H 435.29 -0.648315 -6.74391 0
M  V30 4529 H 436.233 -2.17252 -6.73949 0
M  V30 4530 H 436.641 -0.876154 -5.57659 0
M  V30 4531 N 436.039 1.36541 -0.78704 0
M  V30 4532 C 437.002 2.28413 -0.189778 0
M  V30 4533 C 438.002 1.48719 0.611499 0
M  V30 4534 O 439.192 1.68737 0.432842 0
M  V30 4535 C 436.324 3.32824 0.737638 0
M  V30 4536 H 437.517 2.82743 -0.999831 0
M  V30 4537 H 435.07 1.46065 -0.556298 0
M  V30 4538 H 435.805 2.83646 1.57212 0
M  V30 4539 H 435.59 3.91752 0.165044 0
M  V30 4540 H 437.08 4.0144 1.15047 0
M  V30 4541 N 437.518 0.538854 1.48102 0
M  V30 4542 C 438.746 0.0123136 2.06896 0
M  V30 4543 C 439.161 -1.27312 1.39417 0
M  V30 4544 O 438.518 -1.75949 0.484582 0
M  V30 4545 C 438.569 -0.206118 3.60912 0
M  V30 4546 O 438.29 1.0284 4.25859 0
M  V30 4547 C 439.791 -0.772033 4.36526 0
M  V30 4548 H 437.011 0.0375239 0.66995 0
M  V30 4549 H 439.555 0.747032 1.90367 0
M  V30 4550 H 437.71 -0.89091 3.77017 0
M  V30 4551 H 438.124 0.814654 5.18135 0
M  V30 4552 H 439.598 -0.874251 5.45033 0
M  V30 4553 H 440.075 -1.77904 4.01555 0
M  V30 4554 H 440.681 -0.123526 4.25121 0
M  V30 4555 N 438.996 -1.55193 0.274407 0
M  V30 4556 C 440.224 -2.03987 -0.345943 0
M  V30 4557 C 440.639 -1.15279 -1.4952 0
M  V30 4558 O 439.996 -0.172759 -1.8168 0
M  V30 4559 C 440.047 -3.51898 -0.827631 0
M  V30 4560 O 439.768 -4.37231 0.275855 0
M  V30 4561 C 441.269 -4.16577 -1.51587 0
M  V30 4562 H 438.489 -0.666335 -0.0789892 0
M  V30 4563 H 441.033 -2.00423 0.406294 0
M  V30 4564 H 439.188 -3.55909 -1.52996 0
M  V30 4565 H 439.602 -5.24415 -0.0943638 0
M  V30 4566 H 441.076 -5.21678 -1.80433 0
M  V30 4567 H 441.553 -3.64707 -2.44716 0
M  V30 4568 H 442.159 -4.16568 -0.857409 0
M  V30 4569 N 440.474 -0.00167713 -1.576 0
M  V30 4570 C 441.722 0.681471 -1.90264 0
M  V30 4571 C 442.043 1.7422 -0.875924 0
M  V30 4572 O 441.313 1.95709 0.0864412 0
M  V30 4573 H 439.893 0.254696 -0.702239 0
M  V30 4574 H 442.555 -0.0429996 -1.94853 0
M  V30 4575 H 441.651 1.15166 -2.90075 0
M  V30 4576 N 441.952 1.55251 0.271103 0
M  V30 4577 C 442.899 1.88261 1.33516 0
M  V30 4578 C 443.869 0.734296 1.48988 0
M  V30 4579 O 445.054 0.985741 1.63364 0
M  V30 4580 C 442.194 2.16168 2.69008 0
M  V30 4581 C 441.307 3.43678 2.61743 0
M  V30 4582 C 440.442 3.61276 3.89427 0
M  V30 4583 C 439.481 4.82472 3.7668 0
M  V30 4584 N 438.618 4.96717 4.96202 0
M  V30 4585 H 443.458 2.79015 1.04665 0
M  V30 4586 H 440.995 1.38137 0.505618 0
M  V30 4587 H 442.953 2.30349 3.47844 0
M  V30 4588 H 441.583 1.28646 2.96057 0
M  V30 4589 H 440.635 3.37959 1.74607 0
M  V30 4590 H 441.947 4.3265 2.48224 0
M  V30 4591 H 441.101 3.75284 4.76704 0
M  V30 4592 H 439.84 2.70492 4.05814 0
M  V30 4593 H 438.845 4.68465 2.87786 0
M  V30 4594 H 440.07 5.74692 3.61809 0
M  V30 4595 H 438.016 4.08865 5.12997 0
M  V30 4596 H 437.933 5.79738 4.85222 0
M  V30 4597 H 439.201 5.15113 5.85046 0
M  V30 4598 N 443.43 -0.535701 1.48216 0
M  V30 4599 C 444.34 -1.66785 1.64985 0
M  V30 4600 C 445.356 -1.65654 0.532414 0
M  V30 4601 O 446.532 -1.8471 0.80275 0
M  V30 4602 C 443.597 -3.0326 1.68031 0
M  V30 4603 C 442.658 -3.1529 2.9136 0
M  V30 4604 C 441.891 -4.45255 2.94252 0
M  V30 4605 O 442.114 -5.32011 2.05719 0
M  V30 4606 O 441.048 -4.6153 3.86359 0
M  V30 4607 H 444.874 -1.55576 2.60825 0
M  V30 4608 H 442.459 -0.70815 1.31551 0
M  V30 4609 H 444.341 -3.84436 1.72589 0
M  V30 4610 H 443.016 -3.14805 0.753628 0
M  V30 4611 H 441.923 -2.3343 2.92337 0
M  V30 4612 H 443.256 -3.08658 3.83394 0
M  V30 4613 N 444.908 -1.36708 -0.784132 0
M  V30 4614 C 445.871 -1.31307 -1.87859 0
M  V30 4615 C 446.871 -0.219654 -1.59293 0
M  V30 4616 O 448.061 -0.47476 -1.67606 0
M  V30 4617 C 445.193 -1.03679 -3.24751 0
M  V30 4618 H 446.386 -2.28647 -1.94064 0
M  V30 4619 H 443.939 -1.21558 -0.98252 0
M  V30 4620 H 444.674 -0.0681936 -3.24228 0
M  V30 4621 H 444.459 -1.82811 -3.46876 0
M  V30 4622 H 445.949 -1.02518 -4.04821 0
M  V30 4623 N 446.386 1.0089 -1.21074 0
M  V30 4624 C 447.632 1.74866 -1.02712 0
M  V30 4625 C 447.965 1.89178 0.438787 0
M  V30 4626 O 447.24 1.42325 1.32567 0
M  V30 4627 C 447.523 3.16347 -1.72036 0
M  V30 4628 C 447.376 3.09782 -3.26121 0
M  V30 4629 C 448.695 4.15187 -1.45973 0
M  V30 4630 H 445.814 0.634736 -0.374539 0
M  V30 4631 H 448.456 1.17646 -1.49196 0
M  V30 4632 H 446.606 3.65201 -1.32517 0
M  V30 4633 H 448.278 2.68673 -3.74983 0
M  V30 4634 H 446.521 2.46982 -3.56626 0
M  V30 4635 H 447.192 4.09829 -3.6979 0
M  V30 4636 H 449.668 3.75022 -1.80272 0
M  V30 4637 H 448.544 5.12331 -1.96999 0
M  V30 4638 H 448.805 4.40386 -0.388924 0
M  V30 4639 N 447.864 1.01787 1.20321 0
M  V30 4640 C 448.794 0.609625 2.25401 0
M  V30 4641 C 449.775 -0.375951 1.65893 0
M  V30 4642 O 450.96 -0.261101 1.92437 0
M  V30 4643 C 448.09 -0.0515995 3.47262 0
M  V30 4644 C 447.044 0.855095 4.19371 0
M  V30 4645 C 446.37 0.0595757 5.34667 0
M  V30 4646 C 447.67 2.16374 4.75373 0
M  V30 4647 H 449.364 1.48803 2.59804 0
M  V30 4648 H 446.91 0.716934 1.24884 0
M  V30 4649 H 448.863 -0.348764 4.19954 0
M  V30 4650 H 447.587 -0.964726 3.12027 0
M  V30 4651 H 446.246 1.13628 3.48546 0
M  V30 4652 H 445.894 -0.85524 4.95676 0
M  V30 4653 H 445.594 0.663406 5.83843 0
M  V30 4654 H 447.118 -0.231105 6.10162 0
M  V30 4655 H 448.532 1.92885 5.39878 0
M  V30 4656 H 446.929 2.71853 5.34991 0
M  V30 4657 H 447.999 2.82589 3.94045 0
M  V30 4658 N 449.342 -1.36122 0.79427 0
M  V30 4659 C 450.619 -1.93398 0.292685 0
M  V30 4660 C 450.999 -1.72567 -1.21589 0
M  V30 4661 O 450.347 -1.08745 -2.00965 0
M  V30 4662 C 450.557 -3.42099 0.690614 0
M  V30 4663 C 451.905 -4.19231 0.673105 0
M  V30 4664 O 452.929 -3.50559 0.631389 0
M  V30 4665 O 451.788 -5.41732 0.720362 0
M  V30 4666 H 448.882 -0.823712 0.0736693 0
M  V30 4667 H 451.428 -1.45273 0.87714 0
M  V30 4668 H 450.2 -3.50938 1.73085 0
M  V30 4669 H 449.823 -3.97519 0.0803036 0
M  V30 4670 N 450.82 -0.546701 -1.47814 0
M  V30 4671 C 452.066 -0.0187684 -2.02791 0
M  V30 4672 C 452.399 1.32338 -1.42128 0
M  V30 4673 O 451.674 1.85867 -0.573023 0
M  V30 4674 C 451.957 0.0854985 -3.59998 0
M  V30 4675 C 451.81 -1.283 -4.31114 0
M  V30 4676 C 453.129 0.80412 -4.32691 0
M  V30 4677 H 450.248 -0.0082946 -0.736953 0
M  V30 4678 H 452.89 -0.706962 -1.76358 0
M  V30 4679 H 451.04 0.671609 -3.82651 0
M  V30 4680 H 452.712 -1.91151 -4.19832 0
M  V30 4681 H 450.955 -1.86049 -3.91878 0
M  V30 4682 H 451.626 -1.16287 -5.39612 0
M  V30 4683 H 454.102 0.306576 -4.14969 0
M  V30 4684 H 452.978 0.846011 -5.42341 0
M  V30 4685 H 453.239 1.85802 -4.01161 0
M  V30 4686 N 452.299 1.55045 -0.282633 0
M  V30 4687 C 453.548 1.98938 0.332667 0
M  V30 4688 C 453.861 1.17455 1.56409 0
M  V30 4689 O 455.067 1.51527 2.25282 0
M  V30 4690 C 453.523 3.54105 0.643226 0
M  V30 4691 C 453.131 4.44374 -0.568814 0
M  V30 4692 C 454.875 4.06569 1.22074 0
M  V30 4693 C 452.782 5.90943 -0.232426 0
M  V30 4694 H 451.712 0.743043 0.128075 0
M  V30 4695 H 454.363 1.79341 -0.388464 0
M  V30 4696 H 452.745 3.69532 1.42346 0
M  V30 4697 H 453.919 4.40718 -1.34551 0
M  V30 4698 H 452.234 4.02585 -1.06369 0
M  V30 4699 H 454.831 5.13626 1.48635 0
M  V30 4700 H 455.174 3.56057 2.15707 0
M  V30 4701 H 455.707 3.94612 0.502621 0
M  V30 4702 H 452.446 6.45567 -1.13683 0
M  V30 4703 H 451.966 5.9765 0.507357 0
M  V30 4704 H 453.645 6.4677 0.172657 0
M  V30 4705 N 453.777 0.010035 1.57597 0
M  V30 4706 C 455.188 -0.531426 1.78977 0
M  V30 4707 C 455.539 -1.73375 0.918454 0
M  V30 4708 O 454.664 -2.16047 0.123635 0
M  V30 4709 C 455.259 -0.97086 3.24592 0
M  V30 4710 C 453.818 -1.45756 3.47033 0
M  V30 4711 C 452.965 -0.413384 2.74201 0
M  V30 4712 H 455.916 0.236166 1.56933 0
M  V30 4713 H 455.937 -1.83633 3.33255 0
M  V30 4714 H 455.449 -0.0955893 3.87982 0
M  V30 4715 H 453.55 -2.35339 2.88871 0
M  V30 4716 H 453.663 -1.4781 4.55729 0
M  V30 4717 H 452.027 -0.877266 2.39115 0
M  V30 4718 H 452.81 0.453092 3.40297 0
M  V30 4719 N 455.255 -1.55392 -0.262866 0
M  V30 4720 C 456.483 -1.80513 -1.01108 0
M  V30 4721 C 456.898 -0.583533 -1.79556 0
M  V30 4722 O 456.255 0.447585 -1.76926 0
M  V30 4723 C 456.306 -3.03648 -1.96164 0
M  V30 4724 O 456.027 -4.2109 -1.20893 0
M  V30 4725 C 457.528 -3.41448 -2.82715 0
M  V30 4726 H 454.748 -0.601079 -0.298236 0
M  V30 4727 H 457.292 -2.02425 -0.290582 0
M  V30 4728 H 455.447 -2.83832 -2.63663 0
M  V30 4729 H 455.861 -4.90771 -1.85051 0
M  V30 4730 H 457.335 -4.30751 -3.45192 0
M  V30 4731 H 457.812 -2.61308 -3.53008 0
M  V30 4732 H 458.418 -3.63559 -2.20693 0
M  V30 4733 N 456.733 0.527833 -1.48498 0
M  V30 4734 C 458.01 1.28905 -1.47115 0
M  V30 4735 C 458.39 2.10297 -0.184007 0
M  V30 4736 O 457.738 2.12728 0.834218 0
M  V30 4737 C 457.948 2.16866 -2.73441 0
M  V30 4738 C 459.296 2.76936 -3.21857 0
M  V30 4739 O 460.32 2.27152 -2.74373 0
M  V30 4740 O 459.179 3.67496 -4.04486 0
M  V30 4741 H 456.273 0.581918 -0.587623 0
M  V30 4742 H 458.819 0.544311 -1.60734 0
M  V30 4743 H 457.591 1.56521 -3.58632 0
M  V30 4744 H 457.214 2.98583 -2.62553 0
M  V30 4745 N 458.211 1.37122 0.776871 0
M  V30 4746 C 459.46 1.31373 1.53049 0
M  V30 4747 C 459.773 -0.101016 1.95339 0
M  V30 4748 O 460.979 -0.280953 2.70042 0
M  V30 4749 C 459.435 2.30567 2.76346 0
M  V30 4750 C 459.043 3.77543 2.41175 0
M  V30 4751 C 460.787 2.33818 3.54301 0
M  V30 4752 C 458.694 4.68481 3.60943 0
M  V30 4753 H 457.624 0.488234 0.574581 0
M  V30 4754 H 460.275 1.62554 0.851372 0
M  V30 4755 H 458.657 1.92396 3.46121 0
M  V30 4756 H 459.831 4.24521 1.79216 0
M  V30 4757 H 458.146 3.77187 1.76405 0
M  V30 4758 H 460.743 2.98965 4.4331 0
M  V30 4759 H 461.086 1.3503 3.93793 0
M  V30 4760 H 461.619 2.7067 2.91518 0
M  V30 4761 H 458.358 5.68378 3.26537 0
M  V30 4762 H 457.878 4.2621 4.22025 0
M  V30 4763 H 459.557 4.85366 4.27819 0
M  V30 4764 N 459.689 -1.00246 1.21608 0
M  V30 4765 C 460.639 -2.07492 0.945051 0
M  V30 4766 C 461.623 -1.60585 -0.100675 0
M  V30 4767 O 462.815 -1.76667 0.10859 0
M  V30 4768 C 459.944 -3.39425 0.514342 0
M  V30 4769 C 459.03 -3.92993 1.59428 0
M  V30 4770 N 459.421 -4.19898 2.81991 0
M  V30 4771 C 457.719 -4.21297 1.46374 0
M  V30 4772 C 458.42 -4.63297 3.51754 0
M  V30 4773 N 457.396 -4.66421 2.79199 0
M  V30 4774 H 461.198 -2.26222 1.87619 0
M  V30 4775 H 458.712 -1.18339 1.11219 0
M  V30 4776 H 460.709 -4.15808 0.301527 0
M  V30 4777 H 459.369 -3.22101 -0.410008 0
M  V30 4778 H 460.38 -4.08377 3.1851 0
M  V30 4779 H 457.057 -4.13095 0.604863 0
M  V30 4780 H 458.447 -4.92816 4.56708 0
M  V30 4781 N 461.167 -1.02423 -1.1978 0
M  V30 4782 C 462.099 -0.559152 -2.22275 0
M  V30 4783 C 463.112 0.36251 -1.58713 0
M  V30 4784 O 464.301 0.159641 -1.77785 0
M  V30 4785 C 461.401 0.205094 -3.38279 0
M  V30 4786 C 460.574 -0.720361 -4.31427 0
M  V30 4787 C 459.633 -0.00234368 -5.262 0
M  V30 4788 O 458.659 -0.627378 -5.65732 0
M  V30 4789 N 459.861 1.26996 -5.66438 0
M  V30 4790 H 462.626 -1.44064 -2.62804 0
M  V30 4791 H 460.187 -0.902692 -1.34399 0
M  V30 4792 H 462.179 0.694868 -3.9869 0
M  V30 4793 H 460.749 0.987947 -2.96578 0
M  V30 4794 H 459.969 -1.39031 -3.68869 0
M  V30 4795 H 461.257 -1.3495 -4.90577 0
M  V30 4796 H 460.655 1.79858 -5.36347 0
M  V30 4797 H 459.212 1.70432 -6.29123 0
M  V30 4798 N 462.645 1.35699 -0.801477 0
M  V30 4799 C 464.061 1.52065 -0.484596 0
M  V30 4800 C 464.261 1.75215 0.995084 0
M  V30 4801 O 463.317 1.79061 1.78026 0
M  V30 4802 C 464.63 2.69908 -1.32552 0
M  V30 4803 C 466.178 2.83784 -1.32044 0
M  V30 4804 C 466.653 4.04646 -2.14536 0
M  V30 4805 N 468.144 4.11814 -2.12046 0
M  V30 4806 C 468.879 5.04437 -2.72636 0
M  V30 4807 N 468.375 6.02426 -3.42133 0
M  V30 4808 N 470.168 4.97144 -2.62305 0
M  V30 4809 H 462.319 1.18928 -1.75983 0
M  V30 4810 H 464.582 0.581455 -0.748741 0
M  V30 4811 H 464.288 2.59363 -2.37537 0
M  V30 4812 H 464.162 3.64376 -0.975181 0
M  V30 4813 H 466.549 2.93783 -0.27846 0
M  V30 4814 H 466.63 1.90188 -1.71062 0
M  V30 4815 H 466.274 3.95407 -3.18772 0
M  V30 4816 H 466.204 4.97413 -1.72882 0
M  V30 4817 H 468.695 3.41664 -1.61476 0
M  V30 4818 H 469.008 6.69688 -3.85666 0
M  V30 4819 H 467.353 6.02615 -3.46237 0
M  V30 4820 H 470.544 4.19546 -2.07603 0
M  V30 4821 H 470.717 5.69138 -3.09815 0
M  V30 4822 N 464.123 0.554532 1.47522 0
M  V30 4823 C 465.086 -0.184174 2.28459 0
M  V30 4824 C 466.086 -0.845195 1.36796 0
M  V30 4825 O 467.276 -0.701467 1.59452 0
M  V30 4826 C 464.408 -1.26903 3.16399 0
M  V30 4827 H 465.601 0.526751 2.95238 0
M  V30 4828 H 463.154 0.311375 1.53167 0
M  V30 4829 H 463.889 -2.01244 2.54306 0
M  V30 4830 H 463.674 -0.799883 3.83854 0
M  V30 4831 H 465.164 -1.78794 3.77389 0
M  V30 4832 N 465.601 -1.54893 0.290851 0
M  V30 4833 C 467.012 -1.85584 -0.203816 0
M  V30 4834 C 467.363 -1.21285 -1.54222 0
M  V30 4835 O 466.488 -0.506841 -2.10381 0
M  V30 4836 C 467.083 -3.367 -0.376595 0
M  V30 4837 C 465.642 -3.6746 -0.815485 0
M  V30 4838 C 464.789 -2.77178 0.0821087 0
M  V30 4839 H 467.74 -1.50208 0.512175 0
M  V30 4840 H 467.761 -3.60656 -1.21275 0
M  V30 4841 H 467.273 -3.8347 0.59767 0
M  V30 4842 H 465.374 -3.26201 -1.80066 0
M  V30 4843 H 465.487 -4.7478 -0.641905 0
M  V30 4844 H 463.851 -2.50925 -0.436895 0
M  V30 4845 H 464.634 -3.26767 1.05254 0
M  V30 4846 N 467.08 -0.0183926 -1.57589 0
M  V30 4847 C 468.326 0.663543 -1.91638 0
M  V30 4848 C 468.659 1.72392 -0.894134 0
M  V30 4849 O 467.934 1.94316 0.0846449 0
M  V30 4850 C 468.217 1.28984 -3.36207 0
M  V30 4851 C 468.07 0.239761 -4.49161 0
M  V30 4852 C 469.389 2.2109 -3.80536 0
M  V30 4853 H 466.508 0.239746 -0.696915 0
M  V30 4854 H 469.15 -0.073456 -1.89858 0
M  V30 4855 H 467.3 1.91799 -3.37854 0
M  V30 4856 H 468.972 -0.390119 -4.59647 0
M  V30 4857 H 467.215 -0.435972 -4.31604 0
M  V30 4858 H 467.886 0.717383 -5.47319 0
M  V30 4859 H 470.362 1.68273 -3.80557 0
M  V30 4860 H 469.238 2.61869 -4.82406 0
M  V30 4861 H 469.499 3.09764 -3.15434 0
M  V30 4862 N 468.558 1.5553 0.254621 0
M  V30 4863 C 469.807 1.76202 0.981612 0
M  V30 4864 C 470.12 0.580883 1.86776 0
M  V30 4865 O 471.326 0.670448 2.63092 0
M  V30 4866 C 469.782 3.11921 1.79537 0
M  V30 4867 C 469.39 4.37659 0.956991 0
M  V30 4868 C 471.134 3.41936 2.51555 0
M  V30 4869 C 469.041 5.64411 1.76619 0
M  V30 4870 H 467.971 0.656841 0.370237 0
M  V30 4871 H 470.622 1.81969 0.236556 0
M  V30 4872 H 469.004 3.00241 2.58208 0
M  V30 4873 H 470.178 4.60307 0.21315 0
M  V30 4874 H 468.493 4.14922 0.350497 0
M  V30 4875 H 471.09 4.33849 3.12536 0
M  V30 4876 H 471.433 2.62905 3.22779 0
M  V30 4877 H 471.966 3.54797 1.799 0
M  V30 4878 H 468.705 6.46241 1.09783 0
M  V30 4879 H 468.225 5.45877 2.48551 0
M  V30 4880 H 469.904 6.03386 2.33527 0
M  V30 4881 N 470.036 -0.519951 1.48776 0
M  V30 4882 C 470.966 -1.63253 1.66945 0
M  V30 4883 C 471.947 -1.62014 0.518224 0
M  V30 4884 O 473.132 -1.79053 0.751919 0
M  V30 4885 C 470.262 -3.0181 1.71836 0
M  V30 4886 C 469.216 -3.17911 2.8656 0
M  V30 4887 C 468.542 -4.5763 2.76548 0
M  V30 4888 C 469.842 -2.99729 4.27738 0
M  V30 4889 H 471.536 -1.48302 2.6009 0
M  V30 4890 H 469.082 -0.712026 1.25165 0
M  V30 4891 H 471.035 -3.79525 1.83135 0
M  V30 4892 H 469.759 -3.17806 0.752775 0
M  V30 4893 H 468.418 -2.42616 2.74833 0
M  V30 4894 H 468.066 -4.70476 1.77937 0
M  V30 4895 H 467.766 -4.69346 3.53536 0
M  V30 4896 H 469.29 -5.37431 2.89828 0
M  V30 4897 H 470.704 -3.67228 4.40246 0
M  V30 4898 H 469.101 -3.22932 5.05801 0
M  V30 4899 H 470.171 -1.96047 4.43502 0
M  V30 4900 N 471.514 -1.37532 -0.769588 0
M  V30 4901 C 472.762 -1.32597 -1.5252 0
M  V30 4902 C 473.083 0.0884294 -1.94799 0
M  V30 4903 O 472.353 1.03289 -1.66458 0
M  V30 4904 H 470.933 -0.487846 -0.565699 0
M  V30 4905 H 473.595 -1.72044 -0.915806 0
M  V30 4906 H 472.691 -1.96643 -2.42359 0
M  V30 4907 N 472.992 0.995999 -1.22138 0
M  V30 4908 C 474.217 1.77601 -1.0711 0
M  V30 4909 C 474.642 1.84339 0.374264 0
M  V30 4910 O 474 1.29359 1.27028 0
M  V30 4911 C 474.048 3.18897 -1.68336 0
M  V30 4912 O 473.152 4.01663 -0.934928 0
M  V30 4913 H 472.493 0.547011 -0.376397 0
M  V30 4914 H 475.023 1.25137 -1.6187 0
M  V30 4915 H 475.033 3.69539 -1.72931 0
M  V30 4916 H 473.708 3.13308 -2.73516 0
M  V30 4917 H 472.285 3.60204 -0.964751 0
M  V30 4918 N 474.47 1.03057 1.19235 0
M  V30 4919 C 475.881 0.757449 1.70645 0
M  V30 4920 C 476.232 -0.722735 1.82403 0
M  V30 4921 O 475.357 -1.56325 1.49638 0
M  V30 4922 C 475.952 1.36833 3.09939 0
M  V30 4923 C 474.511 1.14375 3.58602 0
M  V30 4924 C 473.658 1.46533 2.35422 0
M  V30 4925 H 476.609 1.19828 1.04052 0
M  V30 4926 H 476.63 0.766184 3.72706 0
M  V30 4927 H 476.142 2.44562 3.01349 0
M  V30 4928 H 474.243 0.0847542 3.72504 0
M  V30 4929 H 474.356 1.83366 4.42622 0
M  V30 4930 H 472.72 0.884712 2.38841 0
M  V30 4931 H 473.503 2.55349 2.2946 0
M  V30 4932 N 475.948 -1.35272 0.808662 0
M  V30 4933 C 477.225 -1.93077 0.313181 0
M  V30 4934 C 477.605 -1.73847 -1.19752 0
M  V30 4935 O 476.953 -1.1087 -1.998 0
M  V30 4936 C 477.163 -3.41347 0.726859 0
M  V30 4937 C 478.511 -4.18493 0.717532 0
M  V30 4938 O 479.535 -3.4987 0.668535 0
M  V30 4939 O 478.394 -5.40937 0.777779 0
M  V30 4940 H 475.488 -0.822885 0.0824018 0
M  V30 4941 H 478.034 -1.44335 0.892499 0
M  V30 4942 H 476.806 -3.49082 1.76797 0
M  V30 4943 H 476.429 -3.97411 0.122461 0
M  V30 4944 N 477.426 -0.562348 -1.47226 0
M  V30 4945 C 478.703 0.0256985 -1.95583 0
M  V30 4946 C 479.083 1.48032 -1.50498 0
M  V30 4947 O 478.431 2.15973 -0.746181 0
M  V30 4948 C 478.641 -0.125129 -3.48776 0
M  V30 4949 C 479.989 0.0175728 -4.24596 0
M  V30 4950 O 481.013 -0.0529341 -3.56161 0
M  V30 4951 O 479.872 0.170145 -5.46235 0
M  V30 4952 H 476.966 0.0612565 -0.824728 0
M  V30 4953 H 479.512 -0.629233 -1.57603 0
M  V30 4954 H 478.284 -1.13715 -3.74412 0
M  V30 4955 H 477.907 0.567178 -3.93534 0
M  V30 4956 N 478.904 1.54736 -0.299062 0
M  V30 4957 C 480.15 2.00397 0.311244 0
M  V30 4958 C 480.483 1.18716 1.53688 0
M  V30 4959 O 479.758 0.263154 1.92712 0
M  V30 4960 C 480.041 3.53817 0.669761 0
M  V30 4961 C 479.894 4.46239 -0.564882 0
M  V30 4962 C 481.213 4.13856 1.49702 0
M  V30 4963 H 478.332 0.728493 0.111653 0
M  V30 4964 H 480.974 1.85506 -0.410774 0
M  V30 4965 H 479.124 3.66637 1.28491 0
M  V30 4966 H 480.796 4.45328 -1.20337 0
M  V30 4967 H 479.039 4.16916 -1.19849 0
M  V30 4968 H 479.71 5.5134 -0.269918 0
M  V30 4969 H 482.186 4.04461 0.977284 0
M  V30 4970 H 481.062 5.21365 1.71666 0
M  V30 4971 H 481.323 3.65608 2.48563 0
M  V30 4972 N 480.382 0.0267497 1.57577 0
M  V30 4973 C 481.312 -0.954308 2.13108 0
M  V30 4974 C 482.293 -1.34088 1.04663 0
M  V30 4975 O 483.478 -1.41992 1.32484 0
M  V30 4976 C 480.608 -2.23744 2.65624 0
M  V30 4977 C 479.562 -1.99168 3.78835 0
M  V30 4978 C 478.888 -3.33726 4.17769 0
M  V30 4979 C 480.188 -1.33277 5.0501 0
M  V30 4980 H 481.882 -0.491848 2.95332 0
M  V30 4981 H 479.428 -0.23514 1.42067 0
M  V30 4982 H 481.381 -2.92754 3.03106 0
M  V30 4983 H 480.105 -2.72151 1.80558 0
M  V30 4984 H 478.764 -1.32577 3.41788 0
M  V30 4985 H 478.412 -3.79888 3.29688 0
M  V30 4986 H 478.112 -3.18089 4.94058 0
M  V30 4987 H 479.636 -4.04008 4.57832 0
M  V30 4988 H 481.05 -1.92283 5.40093 0
M  V30 4989 H 479.447 -1.28045 5.8628 0
M  V30 4990 H 480.517 -0.305411 4.83937 0
M  V30 4991 N 481.861 -1.55662 -0.24637 0
M  V30 4992 C 482.771 -1.93495 -1.32653 0
M  V30 4993 C 483.787 -0.835462 -1.5263 0
M  V30 4994 O 484.963 -1.1369 -1.66242 0
M  V30 4995 C 482.028 -2.22242 -2.66101 0
M  V30 4996 C 481.089 -3.45625 -2.54641 0
M  V30 4997 C 480.322 -3.72991 -3.81724 0
M  V30 4998 O 480.545 -3.02421 -4.8363 0
M  V30 4999 O 479.479 -4.66515 -3.80325 0
M  V30 5000 H 483.305 -2.85498 -1.03559 0
M  V30 5001 H 480.89 -1.42551 -0.44717 0
M  V30 5002 H 482.772 -2.42037 -3.44958 0
M  V30 5003 H 481.447 -1.33417 -2.94926 0
M  V30 5004 H 480.354 -3.31136 -1.74067 0
M  V30 5005 H 481.687 -4.34754 -2.3076 0
M  V30 5006 N 483.339 0.512053 -1.4905 0
M  V30 5007 C 484.586 1.26686 -1.57978 0
M  V30 5008 C 484.914 1.92733 -0.261553 0
M  V30 5009 O 484.169 1.80772 0.749667 0
M  V30 5010 C 484.468 2.36446 -2.68008 0
M  V30 5011 C 484.134 1.87932 -4.09869 0
M  V30 5012 C 482.796 1.74419 -4.48477 0
M  V30 5013 C 485.148 1.5149 -4.98698 0
M  V30 5014 C 482.476 1.22827 -5.73699 0
M  V30 5015 C 484.828 1.01355 -6.24428 0
M  V30 5016 C 483.492 0.864735 -6.61875 0
M  V30 5017 H 482.762 0.463577 -0.578081 0
M  V30 5018 H 485.409 0.569421 -1.82838 0
M  V30 5019 H 483.714 3.11933 -2.37076 0
M  V30 5020 H 485.411 2.9453 -2.72127 0
M  V30 5021 H 482.001 1.99405 -3.79389 0
M  V30 5022 H 486.185 1.60782 -4.69535 0
M  V30 5023 H 481.441 1.10008 -6.01422 0
M  V30 5024 H 485.615 0.722351 -6.92644 0
M  V30 5025 H 483.242 0.462777 -7.5879 0
M  V30 5026 N 484.817 1.37938 0.762283 0
M  V30 5027 C 485.747 1.37176 1.88958 0
M  V30 5028 C 486.728 0.238945 1.68413 0
M  V30 5029 O 487.913 0.440726 1.89133 0
M  V30 5030 C 485.043 1.18742 3.2637 0
M  V30 5031 C 483.997 2.29136 3.61498 0
M  V30 5032 C 483.323 1.95816 4.97554 0
M  V30 5033 C 484.623 3.71363 3.6727 0
M  V30 5034 H 486.317 2.31509 1.89853 0
M  V30 5035 H 483.863 1.11438 0.912005 0
M  V30 5036 H 485.816 1.16837 4.04879 0
M  V30 5037 H 484.54 0.208683 3.25933 0
M  V30 5038 H 483.199 2.30213 2.85303 0
M  V30 5039 H 482.847 0.964475 4.93667 0
M  V30 5040 H 482.547 2.69745 5.22026 0
M  V30 5041 H 484.071 1.95513 5.78452 0
M  V30 5042 H 485.485 3.72364 4.35911 0
M  V30 5043 H 483.882 4.44425 4.03245 0
M  V30 5044 H 484.952 4.04305 2.67704 0
M  V30 5045 N 486.295 -0.989507 1.22664 0
M  V30 5046 C 487.242 -2.08024 0.999733 0
M  V30 5047 C 488.212 -1.65909 -0.0797047 0
M  V30 5048 O 489.397 -1.90669 0.0705715 0
M  V30 5049 C 486.537 -3.40067 0.587234 0
M  V30 5050 C 485.65 -3.95505 1.73781 0
M  V30 5051 C 484.785 -5.15722 1.27297 0
M  V30 5052 C 483.824 -5.63305 2.39488 0
M  V30 5053 N 482.961 -6.74758 1.94026 0
M  V30 5054 H 487.801 -2.26768 1.9334 0
M  V30 5055 H 485.338 -1.11171 0.963297 0
M  V30 5056 H 487.296 -4.15899 0.329227 0
M  V30 5057 H 485.926 -3.21314 -0.309426 0
M  V30 5058 H 484.978 -3.16513 2.11006 0
M  V30 5059 H 486.29 -4.26797 2.58158 0
M  V30 5060 H 485.444 -5.98854 0.972546 0
M  V30 5061 H 484.183 -4.86061 0.399445 0
M  V30 5062 H 483.188 -4.78759 2.70315 0
M  V30 5063 H 484.413 -5.94988 3.27362 0
M  V30 5064 H 482.359 -6.46874 1.09041 0
M  V30 5065 H 482.276 -7.05386 2.71968 0
M  V30 5066 H 483.544 -7.61387 1.67062 0
M  V30 5067 N 487.773 -1.03688 -1.18687 0
M  V30 5068 C 489.019 -0.739123 -1.88851 0
M  V30 5069 C 489.352 0.731042 -1.79915 0
M  V30 5070 O 488.627 1.53313 -1.19688 0
M  V30 5071 C 488.91 -1.20106 -3.3948 0
M  V30 5072 C 488.763 -2.73304 -3.57246 0
M  V30 5073 C 490.082 -0.788134 -4.32986 0
M  V30 5074 H 487.201 -0.269978 -0.68577 0
M  V30 5075 H 489.843 -1.28822 -1.3966 0
M  V30 5076 H 487.993 -0.733915 -3.81505 0
M  V30 5077 H 489.665 -3.28027 -3.24339 0
M  V30 5078 H 487.908 -3.13313 -3.00029 0
M  V30 5079 H 488.579 -3.00684 -4.62918 0
M  V30 5080 H 491.055 -1.19005 -3.98719 0
M  V30 5081 H 489.931 -1.13915 -5.36949 0
M  V30 5082 H 490.192 0.308988 -4.41019 0
M  V30 5083 N 489.251 1.34841 -0.815825 0
M  V30 5084 C 490.481 2.02436 -0.412695 0
M  V30 5085 C 490.889 1.61604 0.983906 0
M  V30 5086 O 490.232 0.813729 1.64694 0
M  V30 5087 C 490.294 3.56953 -0.427182 0
M  V30 5088 C 489.958 4.21083 -1.77589 0
M  V30 5089 C 490.955 4.42107 -2.73564 0
M  V30 5090 C 488.64 4.58006 -2.06243 0
M  V30 5091 C 490.634 4.99169 -3.9637 0
M  V30 5092 C 488.321 5.1478 -3.2931 0
M  V30 5093 C 489.319 5.35304 -4.24191 0
M  V30 5094 O 489.007 5.90878 -5.45086 0
M  V30 5095 H 488.739 0.655631 -0.164695 0
M  V30 5096 H 491.293 1.73246 -1.1034 0
M  V30 5097 H 489.523 3.85372 0.320175 0
M  V30 5098 H 491.212 4.05875 -0.0450875 0
M  V30 5099 H 491.978 4.13953 -2.52721 0
M  V30 5100 H 487.857 4.41339 -1.33196 0
M  V30 5101 H 491.401 5.15105 -4.70439 0
M  V30 5102 H 487.298 5.42362 -3.5002 0
M  V30 5103 H 488.066 6.0932 -5.46508 0
M  V30 5104 N 490.729 0.570148 1.46925 0
M  V30 5105 C 491.639 -0.173061 2.33961 0
M  V30 5106 C 492.655 -0.898825 1.48987 0
M  V30 5107 O 493.831 -0.864825 1.81887 0
M  V30 5108 C 490.896 -1.18177 3.25937 0
M  V30 5109 C 489.957 -0.462041 4.26806 0
M  V30 5110 C 489.19 -1.4227 5.14388 0
M  V30 5111 O 489.413 -2.65842 5.04662 0
M  V30 5112 O 488.347 -0.940127 5.94513 0
M  V30 5113 H 492.173 0.541216 2.98839 0
M  V30 5114 H 489.758 0.330647 1.45695 0
M  V30 5115 H 491.64 -1.76372 3.82715 0
M  V30 5116 H 490.315 -1.87774 2.63671 0
M  V30 5117 H 489.222 0.161429 3.73752 0
M  V30 5118 H 490.555 0.192719 4.91823 0
M  V30 5119 N 492.207 -1.54576 0.307264 0
M  V30 5120 C 493.154 -2.23751 -0.56604 0
M  V30 5121 C 494.124 -1.22235 -1.12462 0
M  V30 5122 O 495.309 -1.50873 -1.16799 0
M  V30 5123 C 492.449 -2.98661 -1.72903 0
M  V30 5124 C 491.562 -4.14963 -1.20124 0
M  V30 5125 C 490.697 -4.77441 -2.3286 0
M  V30 5126 C 489.736 -5.85875 -1.77247 0
M  V30 5127 N 488.873 -6.42282 -2.8358 0
M  V30 5128 H 493.713 -2.97984 0.0304578 0
M  V30 5129 H 491.25 -1.47076 0.0268015 0
M  V30 5130 H 493.208 -3.40329 -2.41313 0
M  V30 5131 H 491.838 -2.26793 -2.29706 0
M  V30 5132 H 490.89 -3.78193 -0.409198 0
M  V30 5133 H 492.202 -4.93066 -0.754171 0
M  V30 5134 H 491.356 -5.21993 -3.09205 0
M  V30 5135 H 490.095 -3.98684 -2.80896 0
M  V30 5136 H 489.1 -5.40741 -0.993926 0
M  V30 5137 H 490.325 -6.6652 -1.30107 0
M  V30 5138 H 488.271 -5.66406 -3.30939 0
M  V30 5139 H 488.188 -7.1575 -2.43388 0
M  V30 5140 H 489.456 -6.91492 -3.59804 0
M  V30 5141 N 493.685 -0.035106 -1.57561 0
M  V30 5142 C 494.635 0.954034 -2.0708 0
M  V30 5143 C 495.619 1.2818 -0.972558 0
M  V30 5144 O 496.811 1.26691 -1.23606 0
M  V30 5145 C 493.94 2.23442 -2.60631 0
M  V30 5146 C 493.026 1.93475 -3.77396 0
M  V30 5147 N 493.417 1.33802 -4.87781 0
M  V30 5148 C 491.715 2.23434 -3.85996 0
M  V30 5149 C 492.416 1.21103 -5.68954 0
M  V30 5150 N 491.392 1.70855 -5.16052 0
M  V30 5151 H 495.194 0.487731 -2.89825 0
M  V30 5152 H 492.708 0.169759 -1.6151 0
M  V30 5153 H 494.705 2.95183 -2.94402 0
M  V30 5154 H 493.365 2.70693 -1.79319 0
M  V30 5155 H 494.376 1.01227 -5.07911 0
M  V30 5156 H 491.053 2.73317 -3.15601 0
M  V30 5157 H 492.443 0.749105 -6.67711 0
M  V30 5158 N 495.163 1.55791 0.238111 0
M  V30 5159 C 496.388 1.8244 0.986432 0
M  V30 5160 C 496.813 0.613314 1.7782 0
M  V30 5161 O 496.171 -0.437767 1.75935 0
M  V30 5162 C 496.219 3.06917 1.893 0
M  V30 5163 O 495.323 2.84449 2.98601 0
M  V30 5164 H 494.664 0.601975 0.280218 0
M  V30 5165 H 497.194 2.02987 0.256437 0
M  V30 5166 H 497.204 3.36583 2.30598 0
M  V30 5167 H 495.879 3.947 1.31091 0
M  V30 5168 H 494.456 2.65972 2.61368 0
M  V30 5169 N 496.642 -0.504142 1.49319 0
M  V30 5170 C 497.605 -1.5883 1.65244 0
M  V30 5171 C 498.605 -1.52009 0.524386 0
M  V30 5172 O 499.795 -1.55218 0.79077 0
M  V30 5173 C 496.927 -2.98481 1.64687 0
M  V30 5174 H 498.12 -1.4604 2.61939 0
M  V30 5175 H 495.673 -0.728144 1.38303 0
M  V30 5176 H 496.408 -3.16751 0.695644 0
M  V30 5177 H 496.193 -3.0484 2.46607 0
M  V30 5178 H 497.683 -3.77256 1.79075 0
M  V30 5179 N 498.12 -1.38341 -0.754957 0
M  V30 5180 C 499.052 -1.31347 -1.87831 0
M  V30 5181 C 500.065 -0.225955 -1.61224 0
M  V30 5182 O 501.254 -0.48341 -1.7183 0
M  V30 5183 C 498.354 -1.01201 -3.23437 0
M  V30 5184 C 497.527 -2.20834 -3.77559 0
M  V30 5185 C 496.586 -1.87454 -4.91678 0
M  V30 5186 O 495.612 -2.59934 -5.06382 0
M  V30 5187 N 496.814 -0.828682 -5.74555 0
M  V30 5188 H 499.579 -2.28147 -1.94342 0
M  V30 5189 H 497.14 -1.32184 -0.934828 0
M  V30 5190 H 499.132 -0.769249 -3.97322 0
M  V30 5191 H 497.702 -0.132011 -3.12321 0
M  V30 5192 H 496.922 -2.61184 -2.95256 0
M  V30 5193 H 498.21 -3.00678 -4.10451 0
M  V30 5194 H 497.608 -0.227591 -5.65242 0
M  V30 5195 H 496.165 -0.645802 -6.48593 0
M  V30 5196 O 499.637 0.895511 -1.34398 0
M  V30 5197 H 500.328 1.53136 -1.18614 0
M  V30 END ATOM
M  V30 BEGIN BOND
M  V30 END BOND
M  V30 END CTAB
M  END
$$$$
