drugbank_target|P09455 Retinol-binding protein 1 (DB00459)
 OpenBabel12092119283D

  0  0  0     0  0            999 V3000
M  V30 BEGIN CTAB
M  V30 COUNTS 2209 2229 0 0 0
M  V30 BEGIN ATOM
M  V30 1 H -0.908 1.98254 -0.117106 0
M  V30 2 N 0 1.576 0 0
M  V30 3 C 0.933 2.03868 1.02534 0
M  V30 4 C 1.911 0.928543 1.3348 0
M  V30 5 O 3.095 1.19667 1.45644 0
M  V30 6 C 0.222 2.43627 2.35294 0
M  V30 7 C -0.732 3.65373 2.2001 0
M  V30 8 S 0.101 5.13292 1.52614 0
M  V30 9 C 1.257 5.56322 2.86805 0
M  V30 10 H 1.49 2.90518 0.631377 0
M  V30 11 H -0.977 1.52953 0.210867 0
M  V30 12 H 0.981 2.67203 3.11629 0
M  V30 13 H -0.358 1.57376 2.7183 0
M  V30 14 H -1.165 3.90944 3.18086 0
M  V30 15 H -1.563 3.418 1.51819 0
M  V30 16 H 0.729 5.58782 3.83104 0
M  V30 17 H 1.672 6.56266 2.65933 0
M  V30 18 H 2.08 4.83886 2.90714 0
M  V30 19 N 1.4781 -0.272755 1.55222 0
M  V30 20 C 2.8891 -0.84378 1.66545 0
M  V30 21 C 3.2401 -1.87035 0.592641 0
M  V30 22 O 2.3651 -2.14761 -0.265818 0
M  V30 23 C 2.9601 -1.53723 3.01918 0
M  V30 24 C 1.5191 -2.05628 3.15268 0
M  V30 25 C 0.6661 -0.898424 2.62343 0
M  V30 26 H 3.6171 -0.0490998 1.58624 0
M  V30 27 H 3.6381 -2.40421 2.94921 0
M  V30 28 H 3.1501 -0.78983 3.79978 0
M  V30 29 H 1.2511 -2.83329 2.41983 0
M  V30 30 H 1.3641 -2.27142 4.21833 0
M  V30 31 H -0.2719 -1.29186 2.19506 0
M  V30 32 H 0.5111 -0.164528 3.42906 0
M  V30 33 N 2.9562 -1.48159 -0.537278 0
M  V30 34 C 4.2022 -1.56035 -1.29541 0
M  V30 35 C 4.5352 -0.230377 -1.92829 0
M  V30 36 O 3.8102 0.762952 -1.78911 0
M  V30 37 C 4.0932 -2.69323 -2.39034 0
M  V30 38 C 3.9462 -4.12002 -1.80485 0
M  V30 39 C 5.2652 -2.78408 -3.40847 0
M  V30 40 H 2.3842 -0.567992 -0.469632 0
M  V30 41 H 5.0262 -1.80302 -0.599277 0
M  V30 42 H 3.1762 -2.48763 -2.98412 0
M  V30 43 H 4.8482 -4.43981 -1.25215 0
M  V30 44 H 3.0912 -4.19344 -1.11055 0
M  V30 45 H 3.7622 -4.87077 -2.59731 0
M  V30 46 H 6.2382 -2.97012 -2.91416 0
M  V30 47 H 5.1142 -3.59416 -4.14863 0
M  V30 48 H 5.3752 -1.86269 -4.00944 0
M  V30 49 N 4.4343 0.785586 -1.36625 0
M  V30 50 C 5.7113 1.53198 -1.21613 0
M  V30 51 C 6.0913 2.10187 0.196113 0
M  V30 52 O 5.4393 1.94318 1.20219 0
M  V30 53 C 5.6493 2.62388 -2.30116 0
M  V30 54 C 6.9973 3.30167 -2.66974 0
M  V30 55 O 8.0213 2.72674 -2.29188 0
M  V30 56 O 6.8803 4.34077 -3.32023 0
M  V30 57 H 3.9743 0.677865 -0.473738 0
M  V30 58 H 6.5203 0.823739 -1.48367 0
M  V30 59 H 5.2923 2.18299 -3.24748 0
M  V30 60 H 4.9153 3.40827 -2.0475 0
M  V30 61 N 5.9124 1.20967 1.01018 0
M  V30 62 C 7.1594 1.02374 1.74716 0
M  V30 63 C 7.4874 -0.443375 1.89379 0
M  V30 64 O 6.7424 -1.34535 1.42123 0
M  V30 65 C 7.0414 1.65997 3.16512 0
M  V30 66 C 6.7074 3.15831 3.2181 0
M  V30 67 C 5.3694 3.56719 3.22963 0
M  V30 68 C 7.7214 4.11816 3.19464 0
M  V30 69 C 5.0494 4.92107 3.19449 0
M  V30 70 C 7.4014 5.47158 3.17491 0
M  V30 71 C 6.0654 5.87451 3.16951 0
M  V30 72 H 5.3354 0.374614 0.639332 0
M  V30 73 H 7.9824 1.50485 1.18434 0
M  V30 74 H 6.2874 1.10166 3.75993 0
M  V30 75 H 7.9844 1.49119 3.72242 0
M  V30 76 H 4.5744 2.83263 3.21652 0
M  V30 77 H 8.7584 3.81257 3.17737 0
M  V30 78 H 4.0144 5.22579 3.17366 0
M  V30 79 H 8.1884 6.21274 3.14629 0
M  V30 80 H 5.8154 6.92329 3.13983 0
M  V30 81 N 7.3905 -1.2043 1.01659 0
M  V30 82 C 8.6185 -1.93777 0.725132 0
M  V30 83 C 9.0335 -1.74772 -0.714166 0
M  V30 84 O 8.3905 -1.06169 -1.4844 0
M  V30 85 C 8.4415 -3.45876 1.05129 0
M  V30 86 O 8.1625 -3.6426 2.43406 0
M  V30 87 C 9.6635 -4.36368 0.780891 0
M  V30 88 H 6.8835 -0.615901 0.266284 0
M  V30 89 H 9.4275 -1.52922 1.35776 0
M  V30 90 H 7.5825 -3.8461 0.464065 0
M  V30 91 H 7.9965 -4.58246 2.55169 0
M  V30 92 H 9.4705 -5.41743 1.05918 0
M  V30 93 H 9.9475 -4.38275 -0.284937 0
M  V30 94 H 10.5535 -4.03296 1.35027 0
M  V30 95 N 8.8686 -0.792821 -1.36206 0
M  V30 96 C 10.1166 -0.366062 -1.98757 0
M  V30 97 C 10.4376 1.0668 -1.63231 0
M  V30 98 O 9.7076 1.73587 -0.907978 0
M  V30 99 H 8.2876 -0.132364 -0.735179 0
M  V30 100 H 10.9496 -1.01562 -1.66347 0
M  V30 101 H 10.0456 -0.460638 -3.08682 0
M  V30 102 N 10.3467 1.47872 -0.545128 0
M  V30 103 C 11.5767 2.06589 -0.0210534 0
M  V30 104 C 11.9847 1.39997 1.27269 0
M  V30 105 O 11.3277 0.486421 1.77143 0
M  V30 106 C 11.3897 3.58574 0.257933 0
M  V30 107 C 11.0537 4.47132 -0.944573 0
M  V30 108 C 12.0507 4.85986 -1.84699 0
M  V30 109 C 9.7357 4.88821 -1.15584 0
M  V30 110 C 11.7297 5.65314 -2.94446 0
M  V30 111 C 9.4167 5.67916 -2.25642 0
M  V30 112 C 10.4147 6.06073 -3.14905 0
M  V30 113 O 10.1027 6.83578 -4.23057 0
M  V30 114 H 9.8347 0.674971 -0.0372899 0
M  V30 115 H 12.3887 1.91037 -0.754599 0
M  V30 116 H 10.6187 3.72295 1.04564 0
M  V30 117 H 12.3077 3.99356 0.72592 0
M  V30 118 H 13.0737 4.54388 -1.69577 0
M  V30 119 H 8.9527 4.58595 -0.470279 0
M  V30 120 H 12.4967 5.95016 -3.64145 0
M  V30 121 H 8.3937 5.98927 -2.40742 0
M  V30 122 H 9.1617 7.01954 -4.20954 0
M  V30 123 N 11.8248 0.280983 1.55075 0
M  V30 124 C 13.0708 -0.327573 2.00745 0
M  V30 125 C 13.4258 -1.53045 1.16598 0
M  V30 126 O 12.7188 -1.90221 0.229451 0
M  V30 127 C 12.9128 -0.754656 3.49342 0
M  V30 128 C 12.7418 0.40529 4.4787 0
M  V30 129 C 11.5118 0.890947 4.97383 0
M  V30 130 C 13.7098 1.24371 4.99035 0
M  V30 131 N 11.6918 2.01975 5.79724 0
M  V30 132 C 13.0628 2.22031 5.7888 0
M  V30 133 C 15.1178 1.27638 4.81262 0
M  V30 134 C 13.8208 3.22709 6.42846 0
M  V30 135 C 15.8468 2.27164 5.46031 0
M  V30 136 C 15.2088 3.23556 6.25692 0
M  V30 137 H 11.3078 -0.0848774 0.77738 0
M  V30 138 H 13.8918 0.406342 1.90413 0
M  V30 139 H 12.0628 -1.45778 3.60005 0
M  V30 140 H 13.7948 -1.34105 3.81835 0
M  V30 141 H 10.5498 0.469262 4.71269 0
M  V30 142 H 10.9738 2.58794 6.25584 0
M  V30 143 H 15.6158 0.544936 4.19274 0
M  V30 144 H 13.3338 3.96784 7.0398 0
M  V30 145 H 16.9198 2.30441 5.34217 0
M  V30 146 H 15.7998 3.99309 6.74924 0
M  V30 147 N 13.3029 -1.57598 0.00835791 0
M  V30 148 C 14.2499 -2.08945 -0.980346 0
M  V30 149 C 15.2199 -0.986738 -1.33614 0
M  V30 150 O 16.4049 -1.25968 -1.43306 0
M  V30 151 C 13.5449 -2.60425 -2.26435 0
M  V30 152 C 12.6579 -3.84628 -1.96685 0
M  V30 153 C 11.7929 -4.24579 -3.19228 0
M  V30 154 C 10.8319 -5.41596 -2.85202 0
M  V30 155 N 9.9689 -5.768 -4.00307 0
M  V30 156 H 14.8089 -2.93148 -0.535551 0
M  V30 157 H 12.3459 -1.44912 -0.252776 0
M  V30 158 H 14.3039 -2.88354 -3.01509 0
M  V30 159 H 12.9339 -1.79083 -2.68568 0
M  V30 160 H 11.9859 -3.63556 -1.11942 0
M  V30 161 H 13.2979 -4.69796 -1.67611 0
M  V30 162 H 12.4519 -4.53834 -4.02641 0
M  V30 163 H 11.1909 -3.38137 -3.51447 0
M  V30 164 H 10.1959 -5.12056 -2.00198 0
M  V30 165 H 11.4209 -6.29721 -2.54222 0
M  V30 166 H 9.3669 -4.93316 -4.32407 0
M  V30 167 H 9.2839 -6.5656 -3.74786 0
M  V30 168 H 10.5519 -6.10652 -4.84484 0
M  V30 169 N 14.781 0.264519 -1.55364 0
M  V30 170 C 15.714 1.35297 -1.83766 0
M  V30 171 C 16.692 1.47171 -0.691336 0
M  V30 172 O 17.876 1.63663 -0.935238 0
M  V30 173 C 15.003 2.72847 -2.00679 0
M  V30 174 C 14.049 2.78214 -3.23263 0
M  V30 175 S 14.882 2.36601 -4.80396 0
M  V30 176 C 16.038 3.7611 -5.00292 0
M  V30 177 H 16.271 1.11003 -2.758 0
M  V30 178 H 13.804 0.464596 -1.47244 0
M  V30 179 H 15.762 3.52057 -2.11108 0
M  V30 180 H 14.423 2.94388 -1.09518 0
M  V30 181 H 13.616 3.7919 -3.3201 0
M  V30 182 H 13.218 2.07034 -3.11469 0
M  V30 183 H 15.51 4.71457 -4.86554 0
M  V30 184 H 16.453 3.7231 -6.02321 0
M  V30 185 H 16.861 3.67806 -4.28228 0
M  V30 186 N 16.2591 1.48442 0.529413 0
M  V30 187 C 17.1891 1.65902 1.64313 0
M  V30 188 C 18.1701 0.507897 1.6234 0
M  V30 189 O 19.3551 0.740503 1.79528 0
M  V30 190 C 16.4851 1.69911 3.02898 0
M  V30 191 C 15.4391 2.8453 3.19729 0
M  V30 192 C 14.7651 2.73629 4.59381 0
M  V30 193 C 16.0651 4.25821 3.02447 0
M  V30 194 H 17.7591 2.5914 1.49955 0
M  V30 195 H 15.3051 1.24709 0.719982 0
M  V30 196 H 17.2581 1.80715 3.80684 0
M  V30 197 H 15.9821 0.732524 3.18279 0
M  V30 198 H 14.6411 2.73283 2.44361 0
M  V30 199 H 14.2891 1.74938 4.71599 0
M  V30 200 H 13.9891 3.50541 4.71588 0
M  V30 201 H 15.5131 2.86401 5.39265 0
M  V30 202 H 16.9271 4.37898 3.70024 0
M  V30 203 H 15.3241 5.03735 3.26146 0
M  V30 204 H 16.3941 4.42244 1.98867 0
M  V30 205 N 17.7372 -0.778329 1.37039 0
M  V30 206 C 18.9832 -1.53892 1.32079 0
M  V30 207 C 19.3162 -1.9396 -0.0965386 0
M  V30 208 O 18.5912 -1.63568 -1.05242 0
M  V30 209 C 18.8742 -2.80847 2.25382 0
M  V30 210 C 18.7272 -2.47076 3.75864 0
M  V30 211 C 20.0462 -3.82741 2.1725 0
M  V30 212 H 17.1652 -0.558303 0.48111 0
M  V30 213 H 19.8072 -0.893397 1.67685 0
M  V30 214 H 17.9572 -3.35931 1.95148 0
M  V30 215 H 19.6292 -1.97957 4.16666 0
M  V30 216 H 17.8722 -1.79863 3.94755 0
M  V30 217 H 18.5432 -3.37798 4.36574 0
M  V30 218 H 21.0192 -3.37133 2.43887 0
M  V30 219 H 19.8952 -4.69303 2.84686 0
M  V30 220 H 20.1562 -4.2652 1.16331 0
M  V30 221 N 19.2153 -1.21501 -1.00376 0
M  V30 222 C 20.1633 -0.972442 -2.11297 0
M  V30 223 C 21.1573 0.080731 -1.69208 0
M  V30 224 O 22.3633 -0.0707666 -1.79861 0
M  V30 225 H 18.7383 -0.297218 -0.690772 0
M  V30 226 H 20.7093 -1.91394 -2.28934 0
M  V30 227 C 19.4583 -0.555065 -3.43241 0
M  V30 228 H 18.7813 -1.35709 -3.76062 0
M  V30 229 H 20.2213 -0.424664 -4.21868 0
M  V30 230 C 18.6803 0.734147 -3.28804 0
M  V30 231 O 19.2103 1.78937 -3.59645 0
M  V30 232 N 17.4163 0.701133 -2.82015 0
M  V30 233 H 16.9633 -0.157874 -2.57116 0
M  V30 234 H 16.9213 1.56403 -2.72737 0
M  V30 235 N 20.6934 1.19889 -1.02296 0
M  V30 236 C 21.6034 2.26571 -0.608508 0
M  V30 237 C 22.6194 1.70299 0.356964 0
M  V30 238 O 23.7954 2.00235 0.216326 0
M  V30 239 C 20.8604 3.46677 0.0402814 0
M  V30 240 C 19.9214 4.18153 -0.97194 0
M  V30 241 C 19.1544 5.32525 -0.354016 0
M  V30 242 O 19.3774 5.64112 0.844604 0
M  V30 243 O 18.3114 5.92242 -1.07391 0
M  V30 244 H 22.1374 2.64251 -1.49684 0
M  V30 245 H 19.7224 1.26629 -0.792809 0
M  V30 246 H 21.6044 4.19475 0.402324 0
M  V30 247 H 20.2794 3.10858 0.902707 0
M  V30 248 H 19.1864 3.47499 -1.38546 0
M  V30 249 H 20.5194 4.57927 -1.80454 0
M  V30 250 N 22.1715 0.800033 1.35784 0
M  V30 251 C 23.1195 0.193851 2.31791 0
M  V30 252 C 24.1135 -0.652744 1.56319 0
M  V30 253 O 25.3195 -0.546641 1.71499 0
M  V30 254 H 21.6945 0.04392 0.750716 0
M  V30 255 H 23.6655 1.01883 2.80468 0
M  V30 256 C 22.4145 -0.648338 3.41602 0
M  V30 257 H 21.7375 -0.00624665 3.998 0
M  V30 258 H 23.1775 -1.03898 4.11073 0
M  V30 259 C 21.6365 -1.8111 2.84079 0
M  V30 260 O 22.1665 -2.90825 2.77099 0
M  V30 261 N 20.3725 -1.62056 2.41218 0
M  V30 262 H 19.9195 -0.728123 2.47095 0
M  V30 263 H 19.8775 -2.40013 2.03079 0
M  V30 264 N 23.6496 -1.47581 0.552962 0
M  V30 265 C 24.8966 -2.02482 0.0273243 0
M  V30 266 C 25.2246 -1.42776 -1.32081 0
M  V30 267 O 24.4796 -0.571393 -1.87173 0
M  V30 268 C 24.7786 -3.57199 -0.119728 0
M  V30 269 C 24.4446 -4.35804 1.15697 0
M  V30 270 C 23.1066 -4.57 1.50681 0
M  V30 271 C 25.4586 -4.81167 2.00319 0
M  V30 272 C 22.7866 -5.20807 2.70142 0
M  V30 273 C 25.1386 -5.46293 3.18978 0
M  V30 274 C 23.8026 -5.65722 3.54281 0
M  V30 275 H 23.0726 -0.740933 0.00999866 0
M  V30 276 H 25.7196 -1.77302 0.72362 0
M  V30 277 H 24.0246 -3.81348 -0.89896 0
M  V30 278 H 25.7216 -3.97324 -0.541718 0
M  V30 279 H 22.3116 -4.19582 0.874561 0
M  V30 280 H 26.4956 -4.64574 1.74599 0
M  V30 281 H 21.7516 -5.34045 2.97668 0
M  V30 282 H 25.9256 -5.80407 3.84838 0
M  V30 283 H 23.5526 -6.14936 4.46942 0
M  V30 284 N 25.1277 -0.289203 -1.54924 0
M  V30 285 C 26.0377 0.601863 -2.26748 0
M  V30 286 C 27.0537 1.15834 -1.2984 0
M  V30 287 O 28.2297 1.18564 -1.62802 0
M  V30 288 C 25.2947 1.76299 -2.98529 0
M  V30 289 C 24.3557 1.24178 -4.10948 0
M  V30 290 C 23.5887 2.34757 -4.79296 0
M  V30 291 O 23.8117 3.54411 -4.46933 0
M  V30 292 O 22.7457 2.02115 -5.66951 0
M  V30 293 H 26.5717 0.0195879 -3.03694 0
M  V30 294 H 24.1567 -0.0560868 -1.49295 0
M  V30 295 H 26.0387 2.43973 -3.43592 0
M  V30 296 H 24.7137 2.33209 -2.24488 0
M  V30 297 H 23.6207 0.531104 -3.70311 0
M  V30 298 H 24.9537 0.718252 -4.86931 0
M  V30 299 N 26.6058 1.57591 -0.0167156 0
M  V30 300 C 27.5158 2.1291 0.98521 0
M  V30 301 C 28.5318 1.07834 1.36557 0
M  V30 302 O 29.7078 1.39826 1.44951 0
M  V30 303 C 26.7728 2.63512 2.25305 0
M  V30 304 C 25.8338 3.83256 1.93426 0
M  V30 305 C 25.0668 4.31435 3.14165 0
M  V30 306 O 25.2898 3.78851 4.26413 0
M  V30 307 O 24.2238 5.23416 2.97186 0
M  V30 308 H 28.0498 2.98772 0.544888 0
M  V30 309 H 25.6348 1.48012 0.203141 0
M  V30 310 H 27.5168 2.96183 2.99756 0
M  V30 311 H 26.1918 1.8074 2.68542 0
M  V30 312 H 25.0988 3.55531 1.16398 0
M  V30 313 H 26.4318 4.67153 1.55013 0
M  V30 314 N 28.0839 -0.256276 1.55502 0
M  V30 315 C 29.3139 -1.00196 1.80677 0
M  V30 316 C 29.7219 -1.79805 0.588797 0
M  V30 317 O 29.0649 -1.78055 -0.451883 0
M  V30 318 C 29.1269 -1.99515 2.99055 0
M  V30 319 C 28.7909 -1.38688 4.35448 0
M  V30 320 C 29.7879 -0.794079 5.138 0
M  V30 321 C 27.4729 -1.40906 4.82132 0
M  V30 322 C 29.4669 -0.231562 6.36979 0
M  V30 323 C 27.1539 -0.842684 6.05262 0
M  V30 324 C 28.1519 -0.254953 6.82524 0
M  V30 325 O 27.8399 0.3027 8.0333 0
M  V30 326 H 27.5719 -0.300919 0.60533 0
M  V30 327 H 30.1259 -0.287307 2.03381 0
M  V30 328 H 28.3559 -2.74785 2.72084 0
M  V30 329 H 30.0449 -2.60349 3.11405 0
M  V30 330 H 30.8109 -0.769519 4.78856 0
M  V30 331 H 26.6899 -1.85591 4.21992 0
M  V30 332 H 30.2339 0.227816 6.97228 0
M  V30 333 H 26.1309 -0.86454 6.39684 0
M  V30 334 H 26.8989 0.193662 8.18271 0
M  V30 335 N 29.562 -1.4872 -0.521534 0
M  V30 336 C 30.492 -1.66771 -1.63431 0
M  V30 337 C 31.473 -0.516499 -1.62069 0
M  V30 338 O 32.658 -0.750013 -1.79132 0
M  V30 339 C 29.788 -1.71515 -3.01993 0
M  V30 340 C 28.742 -2.86222 -3.18216 0
M  V30 341 C 28.068 -2.76061 -4.57924 0
M  V30 342 C 29.368 -4.27419 -3.00184 0
M  V30 343 H 31.062 -2.59932 -1.48579 0
M  V30 344 H 28.608 -1.25089 -0.713358 0
M  V30 345 H 30.561 -1.82731 -3.7972 0
M  V30 346 H 29.285 -0.749393 -3.17886 0
M  V30 347 H 27.944 -2.74575 -2.42908 0
M  V30 348 H 27.592 -1.77437 -4.70665 0
M  V30 349 H 27.292 -3.53037 -4.69722 0
M  V30 350 H 28.816 -2.89256 -5.37739 0
M  V30 351 H 30.23 -4.39855 -3.67697 0
M  V30 352 H 28.627 -5.05458 -3.2347 0
M  V30 353 H 29.697 -4.43293 -1.96518 0
M  V30 354 N 31.0401 0.771051 -1.3745 0
M  V30 355 C 32.4561 1.07171 -1.18265 0
M  V30 356 C 32.6561 2.01491 -0.019287 0
M  V30 357 O 31.7121 2.44244 0.640408 0
M  V30 358 C 33.0251 1.66854 -2.50161 0
M  V30 359 C 34.5731 1.79109 -2.56689 0
M  V30 360 C 35.0481 2.42205 -3.88717 0
M  V30 361 N 36.5391 2.49655 -3.90162 0
M  V30 362 C 37.2741 2.9933 -4.8907 0
M  V30 363 N 36.7701 3.49172 -5.98374 0
M  V30 364 N 38.5631 2.9821 -4.76474 0
M  V30 365 H 30.7141 0.144796 -2.11906 0
M  V30 366 H 32.9771 0.126863 -0.939473 0
M  V30 367 H 32.6831 1.05017 -3.35655 0
M  V30 368 H 32.5571 2.6614 -2.673 0
M  V30 369 H 34.9441 2.40077 -1.71601 0
M  V30 370 H 35.0251 0.785757 -2.43433 0
M  V30 371 H 34.6691 1.81875 -4.74219 0
M  V30 372 H 34.5991 3.43345 -3.99276 0
M  V30 373 H 37.0901 2.14383 -3.11205 0
M  V30 374 H 37.4031 3.8548 -6.69795 0
M  V30 375 H 35.7481 3.47275 -6.02018 0
M  V30 376 H 38.9391 2.58572 -3.90203 0
M  V30 377 H 39.1121 3.36613 -5.53711 0
M  V30 378 N 32.5182 1.22032 0.997298 0
M  V30 379 C 33.4812 0.987909 2.06816 0
M  V30 380 C 34.4812 -0.0440084 1.6074 0
M  V30 381 O 35.6712 0.194053 1.73116 0
M  V30 382 C 32.8032 0.49132 3.37341 0
M  V30 383 H 33.9962 1.93803 2.28868 0
M  V30 384 H 31.5492 1.03838 1.16822 0
M  V30 385 H 32.2842 -0.463364 3.20973 0
M  V30 386 H 32.0692 1.23575 3.72118 0
M  V30 387 H 33.5592 0.348824 4.16141 0
M  V30 388 N 33.9963 -1.19345 1.0293 0
M  V30 389 C 34.9263 -2.2481 0.631105 0
M  V30 390 C 35.9073 -1.66245 -0.360104 0
M  V30 391 O 37.0923 -1.92677 -0.242726 0
M  V30 392 C 34.2223 -3.47295 -0.0184607 0
M  V30 393 C 33.1763 -4.18536 0.895073 0
M  V30 394 C 32.5023 -5.34586 0.110592 0
M  V30 395 C 33.8023 -4.73287 2.209 0
M  V30 396 H 35.4963 -2.58372 1.51275 0
M  V30 397 H 33.0423 -1.24194 0.728818 0
M  V30 398 H 34.9953 -4.20268 -0.308675 0
M  V30 399 H 33.7193 -3.12933 -0.934907 0
M  V30 400 H 32.3783 -3.47446 1.16949 0
M  V30 401 H 32.0263 -4.96469 -0.807902 0
M  V30 402 H 31.7263 -5.83183 0.719087 0
M  V30 403 H 33.2503 -6.10355 -0.172871 0
M  V30 404 H 34.6643 -5.38013 1.98028 0
M  V30 405 H 33.0613 -5.32373 2.76946 0
M  V30 406 H 34.1313 -3.91331 2.86336 0
M  V30 407 N 35.4744 -0.807222 -1.35358 0
M  V30 408 C 36.7514 -0.311126 -1.9311 0
M  V30 409 C 37.1314 1.19937 -1.73719 0
M  V30 410 O 36.4794 1.99918 -1.10657 0
M  V30 411 C 36.6894 -0.723226 -3.41424 0
M  V30 412 C 38.0374 -0.713078 -4.18569 0
M  V30 413 O 39.0614 -0.664811 -3.49941 0
M  V30 414 O 37.9204 -0.772022 -5.41019 0
M  V30 415 H 35.0144 -0.081526 -0.822972 0
M  V30 416 H 37.5604 -0.890962 -1.4443 0
M  V30 417 H 36.3324 -1.76426 -3.4927 0
M  V30 418 H 35.9554 -0.118232 -3.97424 0
M  V30 419 N 36.9525 1.47285 -0.560781 0
M  V30 420 C 38.1985 2.02764 -0.0381184 0
M  V30 421 C 38.5315 1.43384 1.30976 0
M  V30 422 O 37.8065 0.590733 1.85312 0
M  V30 423 C 38.0895 3.60064 0.0511427 0
M  V30 424 C 37.9425 4.2987 -1.32408 0
M  V30 425 C 39.2615 4.33439 0.762795 0
M  V30 426 H 36.3805 0.736841 -0.0153264 0
M  V30 427 H 39.0225 1.75675 -0.723759 0
M  V30 428 H 37.1725 3.83274 0.635065 0
M  V30 429 H 38.8445 4.17989 -1.95148 0
M  V30 430 H 37.0875 3.90085 -1.8978 0
M  V30 431 H 37.7585 5.38478 -1.21431 0
M  V30 432 H 40.2345 4.15243 0.266965 0
M  V30 433 H 39.1105 5.43124 0.794221 0
M  V30 434 H 39.3715 4.02915 1.81966 0
M  V30 435 N 38.4306 0.297415 1.54768 0
M  V30 436 C 39.3786 -0.596051 2.24833 0
M  V30 437 C 40.3726 -1.13992 1.25308 0
M  V30 438 O 41.5786 -1.09098 1.4317 0
M  V30 439 H 37.9536 -0.210814 0.721846 0
M  V30 440 H 39.9246 0.0174667 2.98395 0
M  V30 441 C 38.6736 -1.75818 2.99972 0
M  V30 442 H 37.9966 -1.3489 3.76357 0
M  V30 443 H 39.4366 -2.35949 3.52284 0
M  V30 444 C 37.8956 -2.66014 2.06732 0
M  V30 445 O 38.4256 -3.67009 1.63302 0
M  V30 446 N 36.6316 -2.33669 1.72763 0
M  V30 447 H 36.1786 -1.51586 2.08277 0
M  V30 448 H 36.1366 -2.94285 1.10652 0
M  V30 449 N 39.9087 -1.5758 0.0250728 0
M  V30 450 C 41.1547 -1.91917 -0.655413 0
M  V30 451 C 41.4877 -0.901433 -1.72011 0
M  V30 452 O 40.7627 0.0764069 -1.9435 0
M  V30 453 C 41.0457 -3.36751 -1.27558 0
M  V30 454 C 40.8987 -4.49258 -0.220719 0
M  V30 455 C 42.2177 -3.81469 -2.19475 0
M  V30 456 H 39.3367 -0.697925 -0.23679 0
M  V30 457 H 41.9787 -1.89825 0.0815036 0
M  V30 458 H 40.1287 -3.38664 -1.90365 0
M  V30 459 H 41.8007 -4.59478 0.409601 0
M  V30 460 H 40.0437 -4.31415 0.454264 0
M  V30 461 H 40.7147 -5.47618 -0.694175 0
M  V30 462 H 43.1907 -3.81266 -1.66659 0
M  V30 463 H 42.0667 -4.83512 -2.59822 0
M  V30 464 H 42.3277 -3.16744 -3.08424 0
M  V30 465 N 41.3868 0.248026 -1.55636 0
M  V30 466 C 42.3498 1.29044 -1.89421 0
M  V30 467 C 43.3498 1.41134 -0.770581 0
M  V30 468 O 44.5398 1.39854 -1.03858 0
M  V30 469 C 41.6718 2.66831 -2.12165 0
M  V30 470 H 42.8648 1.00305 -2.82629 0
M  V30 471 H 40.4178 0.487265 -1.48511 0
M  V30 472 H 41.1528 3.00711 -1.21422 0
M  V30 473 H 40.9378 2.59438 -2.93997 0
M  V30 474 H 42.4278 3.42103 -2.3949 0
M  V30 475 N 42.8649 1.48995 0.513639 0
M  V30 476 C 43.7949 1.67636 1.62544 0
M  V30 477 C 44.7759 0.525087 1.61793 0
M  V30 478 O 45.9609 0.759502 1.78732 0
M  V30 479 C 43.0909 1.73114 3.01079 0
M  V30 480 C 42.0449 2.87905 3.16693 0
M  V30 481 C 41.3709 2.78486 4.56453 0
M  V30 482 C 42.6709 4.29005 2.97913 0
M  V30 483 H 44.3649 2.60716 1.47198 0
M  V30 484 H 41.9109 1.25465 0.706714 0
M  V30 485 H 43.8639 1.84742 3.78746 0
M  V30 486 H 42.5879 0.766241 3.17484 0
M  V30 487 H 41.2469 2.75859 2.41448 0
M  V30 488 H 40.8949 1.7993 4.69717 0
M  V30 489 H 40.5949 3.55523 4.67843 0
M  V30 490 H 42.1189 2.92104 5.36197 0
M  V30 491 H 43.5329 4.41798 3.65359 0
M  V30 492 H 41.9299 5.07166 3.20785 0
M  V30 493 H 42.9999 4.44329 1.94165 0
M  V30 494 N 44.343 -0.763751 1.37857 0
M  V30 495 C 45.759 -1.06542 1.18832 0
M  V30 496 C 45.959 -2.01478 0.0299722 0
M  V30 497 O 45.015 -2.4458 -0.627447 0
M  V30 498 C 46.328 -1.65525 2.51042 0
M  V30 499 C 47.876 -1.77745 2.57635 0
M  V30 500 C 48.351 -2.4014 3.89996 0
M  V30 501 N 49.842 -2.47582 3.91481 0
M  V30 502 C 50.577 -2.96732 4.9065 0
M  V30 503 N 50.073 -3.45993 6.00217 0
M  V30 504 N 51.866 -2.95679 4.78048 0
M  V30 505 H 44.017 -0.133556 2.1198 0
M  V30 506 H 46.28 -0.121879 0.940133 0
M  V30 507 H 45.986 -1.03236 3.36207 0
M  V30 508 H 45.86 -2.64719 2.68707 0
M  V30 509 H 48.247 -2.39164 1.72872 0
M  V30 510 H 48.328 -0.772836 2.43846 0
M  V30 511 H 47.972 -1.79358 4.75177 0
M  V30 512 H 47.902 -3.41223 4.01092 0
M  V30 513 H 50.393 -2.1273 3.12337 0
M  V30 514 H 50.706 -3.81922 6.7183 0
M  V30 515 H 49.051 -3.44077 6.03851 0
M  V30 516 H 52.242 -2.56499 3.91568 0
M  V30 517 H 52.415 -3.33672 5.55488 0
M  V30 518 N 45.8211 -1.22559 -0.990812 0
M  V30 519 C 46.7681 -0.997519 -2.0813 0
M  V30 520 C 47.7381 0.0814702 -1.659 0
M  V30 521 O 48.9231 -0.0685424 -1.90677 0
M  V30 522 C 46.0631 -0.583615 -3.40129 0
M  V30 523 C 45.1761 -1.7336 -3.9569 0
M  V30 524 C 44.3111 -1.26748 -5.15857 0
M  V30 525 C 43.3501 -2.38888 -5.63559 0
M  V30 526 N 42.4871 -1.93308 -6.74964 0
M  V30 527 H 47.3271 -1.93099 -2.26973 0
M  V30 528 H 44.8641 -0.962114 -1.11273 0
M  V30 529 H 46.8221 -0.324801 -4.15934 0
M  V30 530 H 45.4521 0.312845 -3.2128 0
M  V30 531 H 44.5041 -2.10669 -3.16738 0
M  V30 532 H 45.8161 -2.57704 -4.27071 0
M  V30 533 H 44.9701 -0.966173 -5.98957 0
M  V30 534 H 43.7091 -0.394272 -4.86104 0
M  V30 535 H 42.7141 -2.69805 -4.79046 0
M  V30 536 H 43.9391 -3.26728 -5.95336 0
M  V30 537 H 41.8851 -1.08352 -6.4699 0
M  V30 538 H 41.8021 -2.71217 -7.05675 0
M  V30 539 H 43.0701 -1.66252 -7.61564 0
M  V30 540 N 47.2992 1.18797 -1.03562 0
M  V30 541 C 48.5482 1.87978 -0.731235 0
M  V30 542 C 48.8612 1.80911 0.743671 0
M  V30 543 O 50.0672 2.45407 1.16137 0
M  V30 544 C 48.5232 3.3721 -1.25768 0
M  V30 545 C 48.1312 3.52818 -2.76085 0
M  V30 546 C 49.8752 4.11825 -1.0296 0
M  V30 547 C 47.7822 4.9598 -3.22114 0
M  V30 548 H 46.7122 0.704063 -0.269835 0
M  V30 549 H 49.3632 1.34266 -1.25079 0
M  V30 550 H 47.7452 3.90359 -0.666011 0
M  V30 551 H 48.9192 3.09965 -3.40966 0
M  V30 552 H 47.2342 2.91602 -2.97249 0
M  V30 553 H 49.8312 5.17411 -1.34869 0
M  V30 554 H 50.1742 4.16287 0.0333546 0
M  V30 555 H 50.7072 3.64833 -1.58562 0
M  V30 556 H 47.4462 4.96684 -4.27768 0
M  V30 557 H 46.9662 5.39569 -2.61965 0
M  V30 558 H 48.6452 5.6467 -3.15844 0
M  V30 559 N 48.7773 0.814389 1.34928 0
M  V30 560 C 49.7403 0.235759 2.27984 0
M  V30 561 C 50.7403 -0.581412 1.49921 0
M  V30 562 O 51.9303 -0.398758 1.69575 0
M  V30 563 C 49.0623 -0.670433 3.34242 0
M  V30 564 H 50.2553 1.05659 2.80671 0
M  V30 565 H 47.8083 0.585614 1.44915 0
M  V30 566 H 48.5433 -1.51466 2.86755 0
M  V30 567 H 48.3283 -0.0860822 3.92005 0
M  V30 568 H 49.8183 -1.06935 4.03676 0
M  V30 569 N 50.2554 -1.46986 0.568584 0
M  V30 570 C 51.2034 -2.31858 -0.185649 0
M  V30 571 C 52.1974 -1.43624 -0.898249 0
M  V30 572 O 53.4034 -1.60327 -0.818242 0
M  V30 573 H 49.7784 -0.747866 -0.0787399 0
M  V30 574 H 51.7494 -2.93303 0.549191 0
M  V30 575 C 50.4984 -3.26513 -1.19519 0
M  V30 576 H 49.8214 -3.94377 -0.656285 0
M  V30 577 H 51.2614 -3.88707 -1.6936 0
M  V30 578 C 49.7204 -2.50847 -2.24894 0
M  V30 579 O 50.2504 -2.26119 -3.32014 0
M  V30 580 N 48.4564 -2.11656 -1.99124 0
M  V30 581 H 48.0034 -2.31966 -1.12024 0
M  V30 582 H 47.9614 -1.61347 -2.69842 0
M  V30 583 N 51.7335 -0.305618 -1.54608 0
M  V30 584 C 52.6635 0.561482 -2.26649 0
M  V30 585 C 53.6445 1.13415 -1.26772 0
M  V30 586 O 54.8295 1.16262 -1.55553 0
M  V30 587 C 51.9595 1.73122 -3.01075 0
M  V30 588 C 50.9135 1.2887 -4.08138 0
M  V30 589 C 50.2395 2.54396 -4.70305 0
M  V30 590 C 51.5395 0.416578 -5.20636 0
M  V30 591 H 53.2335 -0.0393902 -2.99374 0
M  V30 592 H 50.7795 -0.020385 -1.43986 0
M  V30 593 H 52.7325 2.34396 -3.50195 0
M  V30 594 H 51.4565 2.3584 -2.25936 0
M  V30 595 H 50.1155 0.698991 -3.59875 0
M  V30 596 H 49.7635 3.15439 -3.918 0
M  V30 597 H 49.4635 2.25486 -5.42614 0
M  V30 598 H 50.9875 3.16464 -5.2219 0
M  V30 599 H 52.4015 0.935116 -5.65622 0
M  V30 600 H 50.7985 0.221046 -5.99693 0
M  V30 601 H 51.8685 -0.557162 -4.81688 0
M  V30 602 N 53.2116 1.57565 -0.0334293 0
M  V30 603 C 54.1416 2.13511 0.945265 0
M  V30 604 C 55.1226 1.05231 1.33643 0
M  V30 605 O 56.3076 1.33084 1.41429 0
M  V30 606 C 53.4376 2.6657 2.22616 0
M  V30 607 C 52.3916 3.79676 1.97561 0
M  V30 608 C 51.7176 4.1918 3.31952 0
M  V30 609 C 53.0176 5.0557 1.31135 0
M  V30 610 H 54.7116 2.95538 0.479325 0
M  V30 611 H 52.2576 1.42166 0.229115 0
M  V30 612 H 54.2106 3.04344 2.91466 0
M  V30 613 H 52.9346 1.8171 2.71384 0
M  V30 614 H 51.5936 3.42347 1.31127 0
M  V30 615 H 51.2416 3.31296 3.78487 0
M  V30 616 H 50.9416 4.95402 3.15992 0
M  V30 617 H 52.4656 4.59541 4.02063 0
M  V30 618 H 53.8796 5.40903 1.89992 0
M  V30 619 H 52.2766 5.86818 1.25559 0
M  V30 620 H 53.3466 4.84062 0.284894 0
M  V30 621 N 54.6897 -0.239769 1.55765 0
M  V30 622 C 55.6367 -1.29696 1.90913 0
M  V30 623 C 56.6067 -1.47478 0.764164 0
M  V30 624 O 57.7917 -1.61345 1.01845 0
M  V30 625 C 54.9317 -2.64598 2.21544 0
M  V30 626 C 54.0447 -2.54765 3.48882 0
M  V30 627 C 53.1797 -3.82069 3.69049 0
M  V30 628 C 52.2187 -3.66883 4.89963 0
M  V30 629 N 51.3557 -4.86094 5.06614 0
M  V30 630 H 56.1957 -0.990224 2.81067 0
M  V30 631 H 53.7327 -0.477684 1.39128 0
M  V30 632 H 55.6907 -3.43132 2.3731 0
M  V30 633 H 54.3207 -2.93405 1.34585 0
M  V30 634 H 53.3727 -1.67763 3.41409 0
M  V30 635 H 54.6847 -2.39457 4.37563 0
M  V30 636 H 53.8387 -4.69046 3.84812 0
M  V30 637 H 52.5777 -4.00282 2.78614 0
M  V30 638 H 51.5827 -2.78289 4.74168 0
M  V30 639 H 52.8077 -3.50157 5.81865 0
M  V30 640 H 50.7537 -5.04655 4.19117 0
M  V30 641 H 50.6707 -4.73443 5.89396 0
M  V30 642 H 51.9387 -5.74549 5.26795 0
M  V30 643 N 56.1678 -1.49265 -0.50573 0
M  V30 644 C 57.5788 -1.51769 -1.08734 0
M  V30 645 C 57.9298 -0.301192 -1.93874 0
M  V30 646 O 57.0548 0.589456 -2.08217 0
M  V30 647 C 57.6498 -2.75017 -1.97867 0
M  V30 648 C 56.2088 -2.80314 -2.51199 0
M  V30 649 C 55.3558 -2.4562 -1.28709 0
M  V30 650 H 58.3068 -1.56031 -0.289855 0
M  V30 651 H 58.3278 -2.5491 -2.82491 0
M  V30 652 H 57.8398 -3.63539 -1.35873 0
M  V30 653 H 55.9408 -1.96061 -3.16845 0
M  V30 654 H 56.0538 -3.82366 -2.88675 0
M  V30 655 H 54.4178 -1.97297 -1.61078 0
M  V30 656 H 55.2008 -3.36411 -0.6843 0
M  V30 657 N 57.6459 0.756429 -1.3826 0
M  V30 658 C 58.9229 1.50584 -1.24835 0
M  V30 659 C 59.3029 2.10556 0.151485 0
M  V30 660 O 58.6509 1.96825 1.1607 0
M  V30 661 C 58.8609 2.57448 -2.3563 0
M  V30 662 C 60.2089 3.24429 -2.73917 0
M  V30 663 O 61.2329 2.67751 -2.34921 0
M  V30 664 O 60.0919 4.26937 -3.41156 0
M  V30 665 H 57.1859 0.667664 -0.48801 0
M  V30 666 H 59.7319 0.792083 -1.5008 0
M  V30 667 H 58.5039 2.11362 -3.29305 0
M  V30 668 H 58.1269 3.36408 -2.11933 0
M  V30 669 N 59.124 1.23083 0.984299 0
M  V30 670 C 60.071 1.00854 2.07598 0
M  V30 671 C 61.041 -0.0726709 1.65941 0
M  V30 672 O 62.226 0.0786535 1.90638 0
M  V30 673 C 59.366 0.601645 3.39815 0
M  V30 674 C 58.479 1.75456 3.94765 0
M  V30 675 C 57.614 1.29482 5.15177 0
M  V30 676 C 56.653 2.41873 5.62284 0
M  V30 677 N 55.79 1.96885 6.73929 0
M  V30 678 H 60.63 1.943 2.25946 0
M  V30 679 H 58.167 0.968001 1.10762 0
M  V30 680 H 60.125 0.346854 4.15756 0
M  V30 681 H 58.755 -0.295803 3.21442 0
M  V30 682 H 57.807 2.12346 3.15616 0
M  V30 683 H 59.119 2.59965 4.25699 0
M  V30 684 H 58.273 0.997923 5.98437 0
M  V30 685 H 57.012 0.420046 4.85888 0
M  V30 686 H 56.017 2.72342 4.77608 0
M  V30 687 H 57.242 3.29881 5.93595 0
M  V30 688 H 55.188 1.11782 6.46406 0
M  V30 689 H 55.105 2.74956 7.04227 0
M  V30 690 H 56.373 1.70289 7.60672 0
M  V30 691 N 60.6021 -1.18246 1.0419 0
M  V30 692 C 61.5121 -2.25574 0.644476 0
M  V30 693 C 62.5281 -1.70845 -0.329826 0
M  V30 694 O 63.7041 -2.00554 -0.184443 0
M  V30 695 C 60.7691 -3.46697 0.014877 0
M  V30 696 C 59.8301 -4.16554 1.03834 0
M  V30 697 C 59.0631 -5.31894 0.438692 0
M  V30 698 O 59.2861 -5.65385 -0.754752 0
M  V30 699 O 58.2201 -5.90459 1.168 0
M  V30 700 H 62.0461 -2.61836 1.53869 0
M  V30 701 H 59.6311 -1.25352 0.812854 0
M  V30 702 H 61.5131 -4.20062 -0.335538 0
M  V30 703 H 60.1881 -3.12255 -0.853138 0
M  V30 704 H 59.0951 -3.45251 1.44057 0
M  V30 705 H 60.4281 -4.54998 1.87716 0
M  V30 706 N 62.0802 -0.821533 -1.34494 0
M  V30 707 C 63.3292 -0.405355 -1.97585 0
M  V30 708 C 63.6422 1.03677 -1.65863 0
M  V30 709 O 64.8482 1.55679 -2.22433 0
M  V30 710 C 63.3042 -0.673861 -3.53535 0
M  V30 711 C 62.9122 -2.12951 -3.94152 0
M  V30 712 C 64.6562 -0.32378 -4.23263 0
M  V30 713 C 62.5632 -2.34298 -5.43009 0
M  V30 714 H 61.4932 -0.147836 -0.739365 0
M  V30 715 H 64.1442 -1.00769 -1.53355 0
M  V30 716 H 62.5262 -0.00137554 -3.96 0
M  V30 717 H 63.7002 -2.84104 -3.62797 0
M  V30 718 H 62.0152 -2.44089 -3.37356 0
M  V30 719 H 64.6122 -0.461126 -5.32708 0
M  V30 720 H 64.9552 0.731586 -4.09821 0
M  V30 721 H 65.4882 -0.950786 -3.8627 0
M  V30 722 H 62.2272 -3.38335 -5.61435 0
M  V30 723 H 61.7472 -1.67687 -5.75883 0
M  V30 724 H 63.4262 -2.16588 -6.09671 0
M  V30 725 N 63.5583 1.46682 -0.576371 0
M  V30 726 C 64.8043 2.02712 -0.0596221 0
M  V30 727 C 65.1373 1.44765 1.29448 0
M  V30 728 O 64.4123 0.610355 1.84675 0
M  V30 729 C 64.6953 3.60098 0.0129503 0
M  V30 730 C 64.5483 4.28441 -1.3696 0
M  V30 731 C 65.8673 4.34224 0.71678 0
M  V30 732 H 62.9863 0.736637 -0.0231407 0
M  V30 733 H 65.6283 1.74898 -0.742351 0
M  V30 734 H 63.7783 3.83926 0.594378 0
M  V30 735 H 65.4503 4.15896 -1.9957 0
M  V30 736 H 63.6933 3.8805 -1.93907 0
M  V30 737 H 64.3643 5.3716 -1.27135 0
M  V30 738 H 66.8403 4.15503 0.222908 0
M  V30 739 H 65.7163 5.43936 0.73657 0
M  V30 740 H 65.9773 4.04823 1.77682 0
M  V30 741 N 65.0364 0.313813 1.54444 0
M  V30 742 C 65.9684 -0.590425 2.21465 0
M  V30 743 C 66.9814 -1.08753 1.21147 0
M  V30 744 O 68.1704 -1.00278 1.4767 0
M  V30 745 C 65.2704 -1.82179 2.85769 0
M  V30 746 C 64.4434 -1.46502 4.12136 0
M  V30 747 C 63.5024 -2.55288 4.60124 0
M  V30 748 O 62.5284 -2.19842 5.25032 0
M  V30 749 N 63.7304 -3.86053 4.33525 0
M  V30 750 H 66.4954 -0.0166033 2.99695 0
M  V30 751 H 64.0564 0.136578 1.61323 0
M  V30 752 H 66.0484 -2.54328 3.14801 0
M  V30 753 H 64.6184 -2.30369 2.11303 0
M  V30 754 H 63.8384 -0.575595 3.89975 0
M  V30 755 H 65.1264 -1.20221 4.94393 0
M  V30 756 H 64.5244 -4.17654 3.81552 0
M  V30 757 H 63.0814 -4.54461 4.67235 0
M  V30 758 N 66.5145 -1.57545 0.0417849 0
M  V30 759 C 67.7915 -1.83642 -0.673433 0
M  V30 760 C 68.1715 -0.928298 -1.89594 0
M  V30 761 O 67.5195 0.0129955 -2.28496 0
M  V30 762 C 67.7295 -3.33155 -1.03964 0
M  V30 763 C 69.0775 -3.99941 -1.42592 0
M  V30 764 O 70.1015 -3.37725 -1.13226 0
M  V30 765 O 68.9605 -5.09619 -1.9736 0
M  V30 766 H 66.0545 -0.757638 -0.331533 0
M  V30 767 H 68.6005 -1.69554 0.070433 0
M  V30 768 H 67.3725 -3.9093 -0.170098 0
M  V30 769 H 66.9955 -3.52396 -1.84126 0
M  V30 770 N 67.9926 0.231505 -1.5589 0
M  V30 771 C 69.2406 0.955461 -1.78088 0
M  V30 772 C 69.5616 1.85262 -0.608533 0
M  V30 773 O 68.8316 1.92277 0.375035 0
M  V30 774 H 67.4116 0.355787 -0.656829 0
M  V30 775 H 70.0736 0.245751 -1.93344 0
M  V30 776 H 69.1696 1.56814 -2.69844 0
M  V30 777 N 69.4707 1.49531 0.497807 0
M  V30 778 C 70.7477 1.49682 1.25915 0
M  V30 779 C 71.1277 0.226339 2.09883 0
M  V30 780 O 70.4757 -0.791189 2.14365 0
M  V30 781 C 70.6857 2.77755 2.11313 0
M  V30 782 C 72.0337 3.27371 2.70395 0
M  V30 783 O 73.0577 2.78894 2.21578 0
M  V30 784 O 71.9167 4.11808 3.59272 0
M  V30 785 H 69.0107 0.599228 0.56996 0
M  V30 786 H 71.5567 1.61798 0.511816 0
M  V30 787 H 70.3287 3.61713 1.49264 0
M  V30 788 H 69.9517 2.68515 2.93233 0
M  V30 789 N 70.9488 -0.749086 1.3866 0
M  V30 790 C 71.8988 -1.85368 1.32751 0
M  V30 791 C 72.8828 -1.59511 0.210945 0
M  V30 792 O 74.0748 -1.71255 0.447299 0
M  V30 793 C 71.2038 -3.23131 1.15935 0
M  V30 794 C 70.2898 -3.54864 2.32233 0
M  V30 795 N 70.6808 -3.57625 3.57684 0
M  V30 796 C 68.9788 -3.85154 2.24883 0
M  V30 797 C 69.6798 -3.86753 4.34508 0
M  V30 798 N 68.6558 -4.03812 3.63918 0
M  V30 799 H 72.4578 -1.85787 2.27729 0
M  V30 800 H 69.9718 -0.946658 1.31955 0
M  V30 801 H 71.9688 -4.02185 1.09786 0
M  V30 802 H 70.6288 -3.23961 0.218947 0
M  V30 803 H 71.6398 -3.39276 3.91295 0
M  V30 804 H 68.3168 -3.93672 1.39027 0
M  V30 805 H 69.7068 -3.95474 5.43185 0
M  V30 806 N 72.4269 -1.23603 -0.977757 0
M  V30 807 C 73.3599 -0.962772 -2.06896 0
M  V30 808 C 74.3379 0.0998743 -1.62293 0
M  V30 809 O 75.5219 -0.0349421 -1.88468 0
M  V30 810 C 72.6489 -0.45095 -3.35685 0
M  V30 811 C 71.6949 -1.50061 -3.99229 0
M  V30 812 S 72.5279 -3.07884 -4.38142 0
M  V30 813 C 73.6839 -2.58378 -5.7008 0
M  V30 814 H 73.9169 -1.88677 -2.29757 0
M  V30 815 H 71.4499 -1.06876 -1.11431 0
M  V30 816 H 73.4079 -0.162261 -4.10179 0
M  V30 817 H 72.0689 0.452179 -3.10828 0
M  V30 818 H 71.2619 -1.09269 -4.92013 0
M  V30 819 H 70.8639 -1.73878 -3.31123 0
M  V30 820 H 73.1559 -2.00563 -6.47133 0
M  V30 821 H 74.0989 -3.49711 -6.15717 0
M  V30 822 H 74.5069 -1.99143 -5.28207 0
M  V30 823 N 73.905 1.17692 -1.04816 0
M  V30 824 C 75.154 1.87192 -0.751132 0
M  V30 825 C 75.467 1.8169 0.724441 0
M  V30 826 O 76.673 2.46625 1.13527 0
M  V30 827 C 75.129 3.35857 -1.29338 0
M  V30 828 C 74.737 3.4987 -2.79812 0
M  V30 829 C 76.481 4.10709 -1.07322 0
M  V30 830 C 74.388 4.92536 -3.27356 0
M  V30 831 H 73.318 0.701162 -0.277288 0
M  V30 832 H 75.969 1.32932 -1.26496 0
M  V30 833 H 74.351 3.89631 -0.707376 0
M  V30 834 H 75.525 3.06332 -3.44235 0
M  V30 835 H 73.84 2.88433 -3.00325 0
M  V30 836 H 76.437 5.15952 -1.4035 0
M  V30 837 H 76.78 4.16299 -0.0108001 0
M  V30 838 H 77.313 3.6313 -1.62423 0
M  V30 839 H 74.052 4.92119 -4.33012 0
M  V30 840 H 73.572 5.3676 -2.67673 0
M  V30 841 H 75.251 5.61288 -3.21815 0
M  V30 842 N 75.3831 0.828654 1.34056 0
M  V30 843 C 76.6321 0.415828 1.97367 0
M  V30 844 C 76.9451 -1.02796 1.6641 0
M  V30 845 O 78.1511 -1.54497 2.23255 0
M  V30 846 C 76.6071 0.692601 3.53173 0
M  V30 847 C 76.2151 2.15038 3.93017 0
M  V30 848 C 77.9591 0.346222 4.23086 0
M  V30 849 C 75.8661 2.37174 5.41758 0
M  V30 850 H 74.7961 0.151755 0.738571 0
M  V30 851 H 77.4471 1.01581 1.52819 0
M  V30 852 H 75.8291 0.0223764 3.95994 0
M  V30 853 H 77.0031 2.86024 3.61285 0
M  V30 854 H 75.3181 2.45875 3.36057 0
M  V30 855 H 77.9151 0.48937 5.32456 0
M  V30 856 H 78.2581 -0.709842 4.10204 0
M  V30 857 H 78.7911 0.971258 3.85761 0
M  V30 858 H 75.5301 3.41308 5.59633 0
M  V30 859 H 75.0501 1.70738 5.74986 0
M  V30 860 H 76.7291 2.19818 6.08514 0
M  V30 861 N 76.8612 -1.46375 0.584142 0
M  V30 862 C 78.2772 -1.57694 0.245929 0
M  V30 863 C 78.4772 -1.57903 -1.25175 0
M  V30 864 O 77.5332 -1.49676 -2.03355 0
M  V30 865 C 78.8462 -2.87028 0.896402 0
M  V30 866 C 80.3942 -3.00662 0.870127 0
M  V30 867 C 80.8692 -4.32734 1.50017 0
M  V30 868 N 82.3602 -4.39436 1.46458 0
M  V30 869 C 83.0952 -5.40248 1.92144 0
M  V30 870 N 82.5912 -6.47726 2.4581 0
M  V30 871 N 84.3842 -5.31459 1.83052 0
M  V30 872 H 76.5352 -1.44483 1.55687 0
M  V30 873 H 78.7982 -0.689291 0.650831 0
M  V30 874 H 78.5042 -2.9269 1.95002 0
M  V30 875 H 78.3782 -3.75014 0.405486 0
M  V30 876 H 80.7652 -2.94581 -0.174871 0
M  V30 877 H 80.8462 -2.14148 1.39908 0
M  V30 878 H 80.4902 -4.39573 2.54437 0
M  V30 879 H 80.4202 -5.18025 0.946432 0
M  V30 880 H 82.9112 -3.62367 1.07231 0
M  V30 881 H 83.2242 -7.20863 2.78525 0
M  V30 882 H 81.5692 -6.48542 2.49836 0
M  V30 883 H 84.7602 -4.46396 1.40883 0
M  V30 884 H 84.9332 -6.09881 2.18973 0
M  V30 885 N 78.3393 -0.321999 -1.54275 0
M  V30 886 C 79.5673 0.283052 -2.04955 0
M  V30 887 C 79.9823 1.45904 -1.19823 0
M  V30 888 O 79.3393 1.81063 -0.228545 0
M  V30 889 C 79.3903 0.719028 -3.54277 0
M  V30 890 O 79.1113 -0.410175 -4.36176 0
M  V30 891 C 80.6123 1.38705 -4.21041 0
M  V30 892 H 77.8323 0.0584616 -0.668448 0
M  V30 893 H 80.3763 -0.467734 -1.99079 0
M  V30 894 H 78.5313 1.41979 -3.60445 0
M  V30 895 H 78.9453 -0.0669416 -5.24457 0
M  V30 896 H 80.4193 1.64306 -5.2698 0
M  V30 897 H 80.8963 2.33385 -3.72059 0
M  V30 898 H 81.5023 0.728906 -4.19007 0
M  V30 899 N 79.8174 1.5752 -0.0501392 0
M  V30 900 C 80.7474 2.14502 0.922566 0
M  V30 901 C 81.7284 1.06642 1.3252 0
M  V30 902 O 82.9134 1.34577 1.4001 0
M  V30 903 C 80.0434 2.68916 2.19776 0
M  V30 904 C 78.9974 3.8175 1.93523 0
M  V30 905 C 78.3234 4.22677 3.27487 0
M  V30 906 C 79.6234 5.06932 1.25765 0
M  V30 907 H 81.3174 2.9603 0.447952 0
M  V30 908 H 78.8634 1.42401 0.214024 0
M  V30 909 H 80.8164 3.07419 2.88222 0
M  V30 910 H 79.5404 1.84578 2.69441 0
M  V30 911 H 78.1994 3.43718 1.27489 0
M  V30 912 H 77.8474 3.35291 3.74952 0
M  V30 913 H 77.5474 4.98725 3.1072 0
M  V30 914 H 79.0714 4.63779 3.97166 0
M  V30 915 H 80.4854 5.42888 1.84244 0
M  V30 916 H 78.8824 5.88116 1.19328 0
M  V30 917 H 79.9524 4.84337 0.233536 0
M  V30 918 N 81.2955 -0.223234 1.56011 0
M  V30 919 C 82.5205 -0.968978 1.83373 0
M  V30 920 C 82.9455 -1.77227 0.630254 0
M  V30 921 O 82.3035 -1.76345 -0.420959 0
M  V30 922 C 82.3515 -1.86363 3.08709 0
M  V30 923 O 81.4555 -2.95873 2.87285 0
M  V30 924 H 80.7965 -0.274461 0.604622 0
M  V30 925 H 83.3265 -0.237056 2.03222 0
M  V30 926 H 83.3365 -2.27376 3.38768 0
M  V30 927 H 82.0115 -1.27319 3.95933 0
M  V30 928 H 80.5885 -2.58818 2.68454 0
M  V30 929 N 82.7736 -1.49793 -0.48987 0
M  V30 930 C 84.0016 -1.63568 -1.26701 0
M  V30 931 C 84.4166 -0.311465 -1.86213 0
M  V30 932 O 83.7736 0.704416 -1.68357 0
M  V30 933 C 83.8246 -2.71284 -2.38929 0
M  V30 934 O 83.5456 -3.9857 -1.81861 0
M  V30 935 C 85.0466 -2.95864 -3.3012 0
M  V30 936 H 82.2666 -0.550342 -0.383881 0
M  V30 937 H 84.8106 -1.95898 -0.586864 0
M  V30 938 H 82.9656 -2.417 -3.02753 0
M  V30 939 H 83.3796 -4.57993 -2.55622 0
M  V30 940 H 84.8536 -3.74941 -4.05121 0
M  V30 941 H 85.3306 -2.06206 -3.87783 0
M  V30 942 H 85.9366 -3.26907 -2.72051 0
M  V30 943 N 84.2517 0.741722 -1.39055 0
M  V30 944 C 85.4987 1.50114 -1.35912 0
M  V30 945 C 85.8267 1.94443 0.0470937 0
M  V30 946 O 85.0817 1.66612 1.02659 0
M  V30 947 C 85.3807 2.7592 -2.27163 0
M  V30 948 C 85.0467 2.50493 -3.74919 0
M  V30 949 C 83.7087 2.43267 -4.1518 0
M  V30 950 C 86.0607 2.28585 -4.684 0
M  V30 951 C 83.3887 2.12166 -5.46994 0
M  V30 952 C 85.7407 1.99002 -6.00484 0
M  V30 953 C 84.4047 1.90241 -6.39816 0
M  V30 954 H 83.6747 0.549306 -0.497336 0
M  V30 955 H 86.3217 0.851896 -1.71508 0
M  V30 956 H 84.6267 3.45553 -1.84663 0
M  V30 957 H 86.3237 3.33923 -2.22028 0
M  V30 958 H 82.9137 2.56992 -3.43006 0
M  V30 959 H 87.0977 2.33139 -4.38132 0
M  V30 960 H 82.3537 2.03901 -5.76398 0
M  V30 961 H 86.5277 1.81057 -6.72452 0
M  V30 962 H 84.1547 1.65907 -7.41875 0
M  V30 963 N 85.7298 1.2412 0.971189 0
M  V30 964 C 87.1458 1.00584 1.23916 0
M  V30 965 C 87.3458 -0.287481 1.99439 0
M  V30 966 O 86.4018 -1.00454 2.31658 0
M  V30 967 C 87.7148 2.21864 2.0297 0
M  V30 968 C 89.2628 2.26452 2.16076 0
M  V30 969 C 89.7378 3.47343 2.98524 0
M  V30 970 N 91.2288 3.47639 3.06107 0
M  V30 971 C 91.9638 4.37837 3.70251 0
M  V30 972 N 91.4598 5.38286 4.36142 0
M  V30 973 N 93.2528 4.25558 3.67228 0
M  V30 974 H 85.4038 2.07236 0.465499 0
M  V30 975 H 87.6668 0.909236 0.268315 0
M  V30 976 H 87.3728 3.15771 1.54861 0
M  V30 977 H 87.2468 2.23698 3.03709 0
M  V30 978 H 89.6338 1.33078 2.6339 0
M  V30 979 H 89.7148 2.28645 1.14696 0
M  V30 980 H 89.3588 4.41029 2.51905 0
M  V30 981 H 89.2888 3.42393 4.00093 0
M  V30 982 H 91.7798 2.74966 2.59233 0
M  V30 983 H 92.0928 6.03352 4.82894 0
M  V30 984 H 90.4378 5.42176 4.34822 0
M  V30 985 H 93.6288 3.46322 3.14927 0
M  V30 986 H 93.8018 4.96054 4.16935 0
M  V30 987 N 87.2079 -1.17134 1.05439 0
M  V30 988 C 88.1559 -2.23289 0.651511 0
M  V30 989 C 89.1499 -1.66186 -0.328411 0
M  V30 990 O 90.3559 -1.78949 -0.194206 0
M  V30 991 H 86.7309 -0.726938 0.192523 0
M  V30 992 H 88.7019 -2.54565 1.55689 0
M  V30 993 C 87.4509 -3.47671 0.0448436 0
M  V30 994 H 86.7739 -3.91918 0.78996 0
M  V30 995 H 88.2139 -4.2353 -0.19964 0
M  V30 996 C 86.6729 -3.14453 -1.20918 0
M  V30 997 O 87.2029 -3.29459 -2.29825 0
M  V30 998 N 85.4089 -2.68657 -1.10779 0
M  V30 999 H 84.9559 -2.56646 -0.221526 0
M  V30 1000 H 84.9139 -2.46804 -1.9477 0
M  V30 1001 N 88.686 -0.835752 -1.33615 0
M  V30 1002 C 89.916 -0.442701 -2.01801 0
M  V30 1003 C 90.324 0.959807 -1.63047 0
M  V30 1004 O 89.667 1.63468 -0.838088 0
M  V30 1005 C 89.729 -0.480125 -3.56279 0
M  V30 1006 C 89.393 -1.8382 -4.18401 0
M  V30 1007 C 90.39 -2.80097 -4.37998 0
M  V30 1008 C 88.075 -2.13019 -4.54894 0
M  V30 1009 C 90.069 -4.03736 -4.9323 0
M  V30 1010 C 87.756 -3.36916 -5.09834 0
M  V30 1011 C 88.754 -4.32091 -5.28948 0
M  V30 1012 O 88.442 -5.53797 -5.82721 0
M  V30 1013 H 88.174 -0.17441 -0.653114 0
M  V30 1014 H 90.728 -1.129 -1.71589 0
M  V30 1015 H 88.958 0.262931 -3.85805 0
M  V30 1016 H 90.647 -0.105335 -4.05763 0
M  V30 1017 H 91.413 -2.58838 -4.10156 0
M  V30 1018 H 87.292 -1.39733 -4.39313 0
M  V30 1019 H 90.836 -4.78034 -5.08064 0
M  V30 1020 H 86.733 -3.58033 -5.37106 0
M  V30 1021 H 87.501 -5.55494 -6.0114 0
M  V30 1022 N 90.1641 1.46063 -0.591896 0
M  V30 1023 C 91.4131 2.01547 -0.0786637 0
M  V30 1024 C 91.7261 1.46796 1.29268 0
M  V30 1025 O 92.9321 1.94157 1.89777 0
M  V30 1026 C 91.3881 3.59787 -0.0900024 0
M  V30 1027 C 90.9961 4.23534 -1.46023 0
M  V30 1028 C 92.7401 4.22895 0.368806 0
M  V30 1029 C 90.6471 5.73881 -1.4288 0
M  V30 1030 H 89.5771 0.753564 -0.0256388 0
M  V30 1031 H 92.2281 1.677 -0.744905 0
M  V30 1032 H 90.6101 3.90752 0.642586 0
M  V30 1033 H 91.7841 4.04167 -2.21328 0
M  V30 1034 H 90.0991 3.72558 -1.85982 0
M  V30 1035 H 92.6961 5.33116 0.411258 0
M  V30 1036 H 93.0391 3.9247 1.38827 0
M  V30 1037 H 93.5721 3.9659 -0.31001 0
M  V30 1038 H 90.3111 6.0898 -2.42536 0
M  V30 1039 H 89.8311 5.95486 -0.718095 0
M  V30 1040 H 91.5101 6.36776 -1.14565 0
M  V30 1041 N 91.6422 0.330177 1.54103 0
M  V30 1042 C 92.5752 -0.575477 2.20825 0
M  V30 1043 C 93.5532 -1.11064 1.18758 0
M  V30 1044 O 94.7372 -1.17341 1.47524 0
M  V30 1045 C 91.8642 -1.79032 2.87516 0
M  V30 1046 C 90.9102 -1.38581 4.03358 0
M  V30 1047 S 91.7432 -0.416911 5.33875 0
M  V30 1048 C 92.8992 -1.63889 6.04062 0
M  V30 1049 H 93.1322 -0.00872114 2.97299 0
M  V30 1050 H 90.6652 0.114254 1.53977 0
M  V30 1051 H 92.6232 -2.48734 3.2656 0
M  V30 1052 H 91.2842 -2.32827 2.10832 0
M  V30 1053 H 90.4772 -2.29123 4.48908 0
M  V30 1054 H 90.0792 -0.768419 3.66021 0
M  V30 1055 H 92.3712 -2.57536 6.26643 0
M  V30 1056 H 93.3142 -1.22542 6.97416 0
M  V30 1057 H 93.7222 -1.82887 5.34053 0
M  V30 1058 N 93.1203 -1.57491 0.0584922 0
M  V30 1059 C 94.3973 -1.84346 -0.653918 0
M  V30 1060 C 94.7773 -0.948355 -1.88599 0
M  V30 1061 O 94.1253 -0.0112403 -2.28497 0
M  V30 1062 C 94.3353 -3.34239 -1.00425 0
M  V30 1063 C 95.6833 -4.01431 -1.38342 0
M  V30 1064 O 96.7073 -3.38907 -1.09637 0
M  V30 1065 O 95.5663 -5.11683 -1.91943 0
M  V30 1066 H 92.6603 -0.761112 -0.323478 0
M  V30 1067 H 95.2063 -1.6947 0.0884125 0
M  V30 1068 H 93.9783 -3.91089 -0.128625 0
M  V30 1069 H 93.6013 -3.54329 -1.80378 0
M  V30 1070 N 94.5984 0.214957 -1.56127 0
M  V30 1071 C 95.8454 0.938372 -1.79446 0
M  V30 1072 C 96.1734 1.8407 -0.628378 0
M  V30 1073 O 95.4284 1.91837 0.386925 0
M  V30 1074 C 95.7274 1.80314 -3.0858 0
M  V30 1075 C 95.3934 1.05349 -4.3842 0
M  V30 1076 C 94.0554 0.846435 -4.73697 0
M  V30 1077 C 96.4074 0.524588 -5.18553 0
M  V30 1078 C 93.7354 0.098683 -5.86617 0
M  V30 1079 C 96.0874 -0.209853 -6.32252 0
M  V30 1080 C 94.7514 -0.428102 -6.66126 0
M  V30 1081 H 94.0214 0.343375 -0.656639 0
M  V30 1082 H 96.6684 0.206077 -1.90388 0
M  V30 1083 H 94.9734 2.6035 -2.92789 0
M  V30 1084 H 96.6704 2.36513 -3.23825 0
M  V30 1085 H 93.2604 1.22486 -4.10725 0
M  V30 1086 H 97.4444 0.672008 -4.91729 0
M  V30 1087 H 92.7004 -0.0805753 -6.11347 0
M  V30 1088 H 96.8744 -0.627157 -6.9357 0
M  V30 1089 H 94.5014 -1.00944 -7.53468 0
M  V30 1090 N 96.0765 1.50051 0.48192 0
M  V30 1091 C 97.0085 1.64263 1.59844 0
M  V30 1092 C 98.0215 0.52451 1.54119 0
M  V30 1093 O 99.2105 0.797293 1.59704 0
M  V30 1094 C 96.3105 1.60102 2.98698 0
M  V30 1095 C 95.4835 2.87767 3.29407 0
M  V30 1096 C 94.5425 2.76397 4.47762 0
M  V30 1097 O 93.5685 3.50348 4.48603 0
M  V30 1098 N 94.7705 1.89222 5.48794 0
M  V30 1099 H 97.5355 2.60566 1.48073 0
M  V30 1100 H 95.0965 1.47379 0.670149 0
M  V30 1101 H 97.0885 1.50123 3.75826 0
M  V30 1102 H 95.6585 0.715798 3.04294 0
M  V30 1103 H 94.8785 3.11954 2.40994 0
M  V30 1104 H 96.1665 3.72365 3.4673 0
M  V30 1105 H 95.5645 1.28434 5.50928 0
M  V30 1106 H 94.1215 1.85154 6.24949 0
M  V30 1107 N 97.5546 -0.734337 1.39446 0
M  V30 1108 C 98.8006 -1.49613 1.36908 0
M  V30 1109 C 99.1336 -1.94169 -0.0347829 0
M  V30 1110 O 98.4086 -1.66833 -0.999847 0
M  V30 1111 C 98.6916 -2.73534 2.34203 0
M  V30 1112 C 98.5446 -2.34993 3.83534 0
M  V30 1113 C 99.8636 -3.75635 2.29317 0
M  V30 1114 H 96.9826 -0.542714 0.498629 0
M  V30 1115 H 99.6246 -0.839597 1.70443 0
M  V30 1116 H 97.7746 -3.29553 2.05736 0
M  V30 1117 H 99.4466 -1.84601 4.22753 0
M  V30 1118 H 97.6896 -1.67213 4.00278 0
M  V30 1119 H 98.3606 -3.23738 4.47099 0
M  V30 1120 H 100.837 -3.29203 2.54489 0
M  V30 1121 H 99.7126 -4.60008 2.99472 0
M  V30 1122 H 99.9736 -4.22603 1.29842 0
M  V30 1123 N 99.0327 -1.24633 -0.964593 0
M  V30 1124 C 100.281 -1.08573 -1.70459 0
M  V30 1125 C 100.602 0.375655 -1.91347 0
M  V30 1126 O 99.8717 1.26779 -1.49345 0
M  V30 1127 H 98.4517 -0.398784 -0.631649 0
M  V30 1128 H 101.114 -1.56601 -1.16026 0
M  V30 1129 H 100.21 -1.58623 -2.68785 0
M  V30 1130 N 100.511 1.16574 -1.06058 0
M  V30 1131 C 101.458 2.20883 -0.669263 0
M  V30 1132 C 102.428 1.62729 0.332918 0
M  V30 1133 O 103.613 1.895 0.222346 0
M  V30 1134 C 100.753 3.45049 -0.0593572 0
M  V30 1135 C 99.8658 4.17458 -1.11143 0
M  V30 1136 C 99.0008 5.29135 -0.467916 0
M  V30 1137 C 98.0398 5.93343 -1.50369 0
M  V30 1138 N 97.1768 6.96516 -0.883706 0
M  V30 1139 H 102.017 2.53709 -1.5632 0
M  V30 1140 H 99.5538 1.24616 -0.781625 0
M  V30 1141 H 101.512 4.16033 0.311771 0
M  V30 1142 H 100.142 3.12781 0.797992 0
M  V30 1143 H 99.1938 3.45101 -1.60029 0
M  V30 1144 H 100.506 4.61307 -1.89731 0
M  V30 1145 H 99.6598 6.06684 -0.0436871 0
M  V30 1146 H 98.3988 4.86443 0.349864 0
M  V30 1147 H 97.4038 5.14517 -1.93784 0
M  V30 1148 H 98.6288 6.38114 -2.32352 0
M  V30 1149 H 96.5748 6.55943 -0.086595 0
M  V30 1150 H 96.4918 7.38723 -1.607 0
M  V30 1151 H 97.7598 7.77993 -0.484543 0
M  V30 1152 N 101.989 0.842826 1.3317 0
M  V30 1153 C 102.899 0.281444 2.32906 0
M  V30 1154 C 103.915 -0.594587 1.63526 0
M  V30 1155 O 105.091 -0.49777 1.95152 0
M  V30 1156 C 102.156 -0.530929 3.42611 0
M  V30 1157 C 101.217 0.369843 4.27704 0
M  V30 1158 C 100.45 -0.403853 5.3217 0
M  V30 1159 O 100.673 -1.63513 5.46461 0
M  V30 1160 O 99.6069 0.224199 6.01482 0
M  V30 1161 H 103.433 1.10744 2.82789 0
M  V30 1162 H 101.018 0.60545 1.36582 0
M  V30 1163 H 102.9 -0.992437 4.09547 0
M  V30 1164 H 101.575 -1.33392 2.94938 0
M  V30 1165 H 100.482 0.879275 3.6362 0
M  V30 1166 H 101.815 1.13771 4.78871 0
M  V30 1167 N 103.467 -1.45747 0.599634 0
M  V30 1168 C 104.714 -2.02292 0.0917284 0
M  V30 1169 C 105.042 -1.46906 -1.27472 0
M  V30 1170 O 104.297 -0.630652 -1.8526 0
M  V30 1171 C 104.596 -3.57399 -0.00602758 0
M  V30 1172 C 104.262 -4.31902 1.29503 0
M  V30 1173 C 102.924 -4.51974 1.65144 0
M  V30 1174 C 105.276 -4.74551 2.15525 0
M  V30 1175 C 102.604 -5.11949 2.86574 0
M  V30 1176 C 104.956 -5.35868 3.36196 0
M  V30 1177 C 103.62 -5.54165 3.72099 0
M  V30 1178 H 102.89 -0.740239 0.0335658 0
M  V30 1179 H 105.537 -1.7491 0.779661 0
M  V30 1180 H 103.842 -3.84014 -0.777183 0
M  V30 1181 H 105.539 -3.98846 -0.415038 0
M  V30 1182 H 102.129 -4.16588 1.00761 0
M  V30 1183 H 106.313 -4.58784 1.8929 0
M  V30 1184 H 101.569 -5.24305 3.14507 0
M  V30 1185 H 105.743 -5.6787 4.03109 0
M  V30 1186 H 103.37 -6.00406 4.6628 0
M  V30 1187 N 104.945 -0.338344 -1.53925 0
M  V30 1188 C 105.855 0.529421 -2.28548 0
M  V30 1189 C 106.871 1.11645 -1.3346 0
M  V30 1190 O 108.047 1.13325 -1.66492 0
M  V30 1191 C 105.112 1.66713 -3.03987 0
M  V30 1192 C 104.173 1.11041 -4.14691 0
M  V30 1193 C 103.406 2.19389 -4.86522 0
M  V30 1194 O 103.629 3.40013 -4.57982 0
M  V30 1195 O 102.563 1.83976 -5.73094 0
M  V30 1196 H 106.389 -0.0770399 -3.03602 0
M  V30 1197 H 103.974 -0.103555 -1.49041 0
M  V30 1198 H 105.856 2.32918 -3.5118 0
M  V30 1199 H 104.531 2.25949 -2.31794 0
M  V30 1200 H 103.438 0.413024 -3.71813 0
M  V30 1201 H 104.771 0.562975 -4.8897 0
M  V30 1202 N 106.423 1.57458 -0.0668435 0
M  V30 1203 C 107.333 2.15937 0.916975 0
M  V30 1204 C 108.349 1.12123 1.33058 0
M  V30 1205 O 109.525 1.44366 1.40429 0
M  V30 1206 C 106.59 2.70547 2.16807 0
M  V30 1207 C 105.651 3.89215 1.81135 0
M  V30 1208 C 104.884 4.41211 3.0028 0
M  V30 1209 O 105.107 3.92225 4.14144 0
M  V30 1210 O 104.041 5.32605 2.80384 0
M  V30 1211 H 107.867 3.00354 0.449561 0
M  V30 1212 H 105.452 1.48584 0.155949 0
M  V30 1213 H 107.334 3.0557 2.90181 0
M  V30 1214 H 106.009 1.89192 2.62656 0
M  V30 1215 H 104.916 3.59054 1.05028 0
M  V30 1216 H 106.249 4.71848 1.40073 0
M  V30 1217 N 107.901 -0.206675 1.56239 0
M  V30 1218 C 109.178 -0.954051 1.70755 0
M  V30 1219 C 109.558 -2.01841 0.618353 0
M  V30 1220 O 108.906 -2.25444 -0.372434 0
M  V30 1221 C 109.116 -1.551 3.12642 0
M  V30 1222 C 110.464 -2.03757 3.72516 0
M  V30 1223 O 111.488 -1.64965 3.15698 0
M  V30 1224 O 110.347 -2.75103 4.72208 0
M  V30 1225 H 107.441 -0.446636 0.696021 0
M  V30 1226 H 109.987 -0.197283 1.68549 0
M  V30 1227 H 108.759 -0.783212 3.83382 0
M  V30 1228 H 108.382 -2.37291 3.19028 0
M  V30 1229 N 109.379 -1.50304 -0.473955 0
M  V30 1230 C 110.309 -1.71886 -1.58042 0
M  V30 1231 C 111.29 -0.567799 -1.60344 0
M  V30 1232 O 112.475 -0.806623 -1.76656 0
M  V30 1233 C 109.605 -1.81036 -2.96384 0
M  V30 1234 C 108.559 -2.962 -3.08949 0
M  V30 1235 C 107.885 -2.9049 -4.48909 0
M  V30 1236 C 109.185 -4.36752 -2.86434 0
M  V30 1237 H 110.879 -2.64527 -1.40234 0
M  V30 1238 H 108.425 -1.27295 -0.673201 0
M  V30 1239 H 110.378 -1.94719 -3.73714 0
M  V30 1240 H 109.102 -0.850147 -3.15341 0
M  V30 1241 H 107.761 -2.82164 -2.3405 0
M  V30 1242 H 107.409 -1.92321 -4.64781 0
M  V30 1243 H 107.109 -3.67802 -4.58253 0
M  V30 1244 H 108.633 -3.06218 -5.28264 0
M  V30 1245 H 110.047 -4.5133 -3.53517 0
M  V30 1246 H 108.444 -5.15493 -3.07225 0
M  V30 1247 H 109.514 -4.49321 -1.82316 0
M  V30 1248 N 110.857 0.726932 -1.39834 0
M  V30 1249 C 112.085 1.51613 -1.40787 0
M  V30 1250 C 112.5 1.88799 -0.00451505 0
M  V30 1251 O 111.857 1.54662 0.968809 0
M  V30 1252 C 111.908 2.79863 -2.28821 0
M  V30 1253 O 111.629 2.44253 -3.63692 0
M  V30 1254 C 113.13 3.73837 -2.38245 0
M  V30 1255 H 110.35 0.468264 -0.480593 0
M  V30 1256 H 112.894 0.897607 -1.83748 0
M  V30 1257 H 111.049 3.38027 -1.89252 0
M  V30 1258 H 111.463 3.26695 -4.1033 0
M  V30 1259 H 112.937 4.60699 -3.04073 0
M  V30 1260 H 113.414 4.16153 -1.40403 0
M  V30 1261 H 114.02 3.21589 -2.78317 0
M  V30 1262 N 112.336 1.25143 0.95797 0
M  V30 1263 C 113.584 1.09476 1.69881 0
M  V30 1264 C 113.905 -0.365502 1.91544 0
M  V30 1265 O 113.175 -1.25985 1.50015 0
M  V30 1266 H 111.755 0.402128 0.629525 0
M  V30 1267 H 114.417 1.57214 1.15194 0
M  V30 1268 H 113.513 1.60046 2.6794 0
M  V30 1269 N 113.814 -1.1601 1.06675 0
M  V30 1270 C 115.063 -1.85973 0.780818 0
M  V30 1271 C 115.376 -1.82819 -0.695444 0
M  V30 1272 O 116.582 -2.484 -1.09589 0
M  V30 1273 C 115.038 -3.33757 1.34665 0
M  V30 1274 C 114.646 -3.45374 2.85343 0
M  V30 1275 C 116.39 -4.0895 1.13843 0
M  V30 1276 C 114.297 -4.87266 3.35151 0
M  V30 1277 H 113.227 -0.696661 0.288407 0
M  V30 1278 H 115.878 -1.30903 1.28595 0
M  V30 1279 H 114.26 -3.88456 0.769274 0
M  V30 1280 H 115.434 -3.00816 3.49065 0
M  V30 1281 H 113.749 -2.83619 3.04876 0
M  V30 1282 H 116.346 -5.13654 1.4854 0
M  V30 1283 H 116.689 -4.16229 0.0770282 0
M  V30 1284 H 117.222 -3.605 1.68179 0
M  V30 1285 H 113.961 -4.85168 4.40786 0
M  V30 1286 H 113.481 -5.32433 2.76179 0
M  V30 1287 H 115.16 -5.56097 3.30704 0
M  V30 1288 N 115.292 -0.849877 -1.32721 0
M  V30 1289 C 116.569 -0.372405 -1.92022 0
M  V30 1290 C 116.949 1.1435 -1.77447 0
M  V30 1291 O 116.297 1.96296 -1.16962 0
M  V30 1292 C 116.507 -0.831482 -3.3895 0
M  V30 1293 C 117.855 -0.845882 -4.16089 0
M  V30 1294 O 118.879 -0.775806 -3.47649 0
M  V30 1295 O 117.738 -0.943753 -5.38289 0
M  V30 1296 H 114.832 -0.107667 -0.819961 0
M  V30 1297 H 117.378 -0.93646 -1.41522 0
M  V30 1298 H 116.15 -1.87448 -3.4348 0
M  V30 1299 H 115.773 -0.24461 -3.96847 0
M  V30 1300 N 116.77 1.45427 -0.607355 0
M  V30 1301 C 118.047 1.9557 -0.0344566 0
M  V30 1302 C 118.427 1.54979 1.43334 0
M  V30 1303 O 117.775 0.812241 2.13576 0
M  V30 1304 C 117.985 3.48226 -0.232321 0
M  V30 1305 C 119.333 4.2445 -0.113001 0
M  V30 1306 O 120.357 3.55829 -0.162431 0
M  V30 1307 O 119.216 5.465 0.00209442 0
M  V30 1308 H 116.31 0.826222 0.0358667 0
M  V30 1309 H 118.856 1.55594 -0.6774 0
M  V30 1310 H 117.628 3.70739 -1.25174 0
M  V30 1311 H 117.251 3.95092 0.445896 0
M  V30 1312 N 118.248 0.346503 1.53744 0
M  V30 1313 C 119.664 -0.00530975 1.59599 0
M  V30 1314 C 119.864 -1.48465 1.36236 0
M  V30 1315 O 118.92 -2.24376 1.15808 0
M  V30 1316 C 120.233 0.433516 2.97559 0
M  V30 1317 C 121.781 0.386111 3.10609 0
M  V30 1318 C 122.256 0.800451 4.50951 0
M  V30 1319 N 123.747 0.754753 4.5701 0
M  V30 1320 C 124.482 1.04727 5.63755 0
M  V30 1321 N 123.978 1.4081 6.7834 0
M  V30 1322 N 125.771 0.971316 5.53644 0
M  V30 1323 H 117.922 1.31009 1.67184 0
M  V30 1324 H 120.185 0.534242 0.783128 0
M  V30 1325 H 119.891 1.46509 3.19731 0
M  V30 1326 H 119.765 -0.189753 3.76722 0
M  V30 1327 H 122.152 -0.636295 2.88158 0
M  V30 1328 H 122.233 1.04462 2.33498 0
M  V30 1329 H 121.877 1.82088 4.74137 0
M  V30 1330 H 121.807 0.119386 5.26465 0
M  V30 1331 H 124.298 0.488662 3.74727 0
M  V30 1332 H 124.611 1.61607 7.55714 0
M  V30 1333 H 122.956 1.44657 6.79779 0
M  V30 1334 H 126.147 0.688748 4.63005 0
M  V30 1335 H 126.32 1.20263 6.36742 0
M  V30 1336 N 119.726 -1.57421 0.075193 0
M  V30 1337 C 120.673 -2.12915 -0.890843 0
M  V30 1338 C 121.643 -1.04252 -1.29309 0
M  V30 1339 O 122.828 -1.31933 -1.37834 0
M  V30 1340 C 119.968 -2.69795 -2.15186 0
M  V30 1341 C 119.081 -3.92624 -1.80194 0
M  V30 1342 C 118.216 -4.37736 -3.00933 0
M  V30 1343 C 117.255 -5.53205 -2.61974 0
M  V30 1344 N 116.392 -5.9326 -3.75483 0
M  V30 1345 H 121.232 -2.95156 -0.410735 0
M  V30 1346 H 118.769 -1.45854 -0.191086 0
M  V30 1347 H 120.727 -3.00883 -2.89008 0
M  V30 1348 H 119.357 -1.90313 -2.60731 0
M  V30 1349 H 118.409 -3.67977 -0.964218 0
M  V30 1350 H 119.721 -4.76482 -1.47534 0
M  V30 1351 H 118.875 -4.70503 -3.8303 0
M  V30 1352 H 117.614 -3.52739 -3.36789 0
M  V30 1353 H 116.619 -5.20086 -1.783 0
M  V30 1354 H 117.844 -6.39936 -2.27284 0
M  V30 1355 H 115.79 -5.11212 -4.11094 0
M  V30 1356 H 115.707 -6.71865 -3.46602 0
M  V30 1357 H 116.975 -6.30651 -4.58148 0
M  V30 1358 N 121.204 0.198386 -1.56346 0
M  V30 1359 C 122.444 0.92609 -1.82217 0
M  V30 1360 C 122.808 1.80584 -0.652195 0
M  V30 1361 O 124.009 2.56907 -0.790716 0
M  V30 1362 C 122.28 1.72354 -3.13096 0
M  V30 1363 S 123.839 2.50371 -3.6036 0
M  V30 1364 H 120.657 0.310677 -0.639532 0
M  V30 1365 H 123.259 0.189755 -1.94577 0
M  V30 1366 H 121.963 1.0678 -3.96265 0
M  V30 1367 H 121.494 2.50175 -3.03605 0
M  V30 1368 H 123.509 3.74488 -3.25535 0
M  V30 1369 N 122.682 1.50554 0.465978 0
M  V30 1370 C 123.615 1.64436 1.58227 0
M  V30 1371 C 124.593 0.492367 1.54966 0
M  V30 1372 O 125.777 0.712536 1.74514 0
M  V30 1373 C 122.904 1.63165 2.96808 0
M  V30 1374 C 121.95 2.83987 3.18204 0
M  V30 1375 S 122.783 4.45219 2.97557 0
M  V30 1376 C 123.939 4.46649 4.3847 0
M  V30 1377 H 124.172 2.58861 1.46213 0
M  V30 1378 H 121.705 1.3988 0.653678 0
M  V30 1379 H 123.663 1.63116 3.76701 0
M  V30 1380 H 122.324 0.69967 3.06208 0
M  V30 1381 H 121.517 2.79416 4.19455 0
M  V30 1382 H 121.119 2.81629 2.46092 0
M  V30 1383 H 123.411 4.20526 5.31191 0
M  V30 1384 H 124.354 5.48295 4.48082 0
M  V30 1385 H 124.762 3.76296 4.20787 0
M  V30 1386 N 124.16 -0.719506 1.40217 0
M  V30 1387 C 125.388 -1.50864 1.41589 0
M  V30 1388 C 125.803 -1.88794 0.0145275 0
M  V30 1389 O 125.16 -1.55174 -0.960594 0
M  V30 1390 C 125.211 -2.78646 2.30302 0
M  V30 1391 O 124.932 -2.42321 3.64983 0
M  V30 1392 C 126.433 -3.72569 2.40224 0
M  V30 1393 H 123.653 -0.465709 0.48307 0
M  V30 1394 H 126.197 -0.88785 1.84221 0
M  V30 1395 H 124.352 -3.37019 1.91042 0
M  V30 1396 H 124.766 -3.24514 4.12057 0
M  V30 1397 H 126.24 -4.5908 3.06512 0
M  V30 1398 H 126.717 -4.15403 1.42608 0
M  V30 1399 H 127.323 -3.20109 2.80019 0
M  V30 1400 N 125.638 -1.25649 -0.95132 0
M  V30 1401 C 126.866 -1.13343 -1.73092 0
M  V30 1402 C 127.281 0.312434 -1.86197 0
M  V30 1403 O 126.638 1.21465 -1.36207 0
M  V30 1404 C 126.689 -1.78602 -3.14299 0
M  V30 1405 O 126.41 -3.17537 -3.01831 0
M  V30 1406 C 127.911 -1.72119 -4.08522 0
M  V30 1407 H 125.131 -0.395181 -0.542285 0
M  V30 1408 H 127.675 -1.66076 -1.19328 0
M  V30 1409 H 125.83 -1.29832 -3.64996 0
M  V30 1410 H 126.244 -3.49676 -3.90931 0
M  V30 1411 H 127.718 -2.22435 -5.052 0
M  V30 1412 H 128.195 -0.685635 -4.33815 0
M  V30 1413 H 128.801 -2.20393 -3.63741 0
M  V30 1414 N 127.117 1.15442 -1.07289 0
M  V30 1415 C 128.363 1.86489 -0.796846 0
M  V30 1416 C 128.696 1.82078 0.675371 0
M  V30 1417 O 127.971 1.24346 1.4956 0
M  V30 1418 C 128.254 3.35626 -1.30489 0
M  V30 1419 C 128.107 3.48673 -2.84161 0
M  V30 1420 C 129.426 4.30357 -0.920907 0
M  V30 1421 H 126.545 0.677144 -0.290939 0
M  V30 1422 H 129.187 1.35633 -1.33056 0
M  V30 1423 H 127.337 3.79068 -0.850883 0
M  V30 1424 H 129.009 3.14099 -3.37846 0
M  V30 1425 H 127.252 2.90253 -3.22391 0
M  V30 1426 H 127.923 4.53453 -3.14777 0
M  V30 1427 H 130.399 3.94871 -1.3121 0
M  V30 1428 H 129.275 5.33193 -1.30372 0
M  V30 1429 H 129.536 4.4176 0.173226 0
M  V30 1430 N 128.595 0.856903 1.32268 0
M  V30 1431 C 129.82 0.474569 2.01897 0
M  V30 1432 C 130.245 -0.921766 1.63967 0
M  V30 1433 O 129.603 -1.60589 0.84148 0
M  V30 1434 C 129.651 0.623799 3.55164 0
M  V30 1435 O 128.755 -0.342459 4.10976 0
M  V30 1436 H 128.096 0.190422 0.63611 0
M  V30 1437 H 130.626 1.15672 1.68764 0
M  V30 1438 H 130.636 0.512169 4.04773 0
M  V30 1439 H 129.311 1.64202 3.82113 0
M  V30 1440 H 127.888 -0.18688 3.72431 0
M  V30 1441 N 130.073 -1.45103 0.615059 0
M  V30 1442 C 131.319 -2.03035 0.121804 0
M  V30 1443 C 131.674 -1.47393 -1.23665 0
M  V30 1444 O 130.967 -0.642061 -1.80522 0
M  V30 1445 C 131.161 -3.57386 0.0318797 0
M  V30 1446 C 130.99 -4.28 1.38007 0
M  V30 1447 C 129.76 -4.65624 1.9627 0
M  V30 1448 C 131.958 -4.5948 2.31047 0
M  V30 1449 N 129.94 -5.21132 3.24492 0
M  V30 1450 C 131.311 -5.159 3.43872 0
M  V30 1451 C 133.366 -4.41423 2.30326 0
M  V30 1452 C 132.069 -5.56165 4.5615 0
M  V30 1453 C 134.095 -4.82726 3.41658 0
M  V30 1454 C 133.457 -5.39245 4.53205 0
M  V30 1455 H 129.556 -0.77702 0.0881159 0
M  V30 1456 H 132.14 -1.76819 0.815044 0
M  V30 1457 H 130.311 -3.83247 -0.630599 0
M  V30 1458 H 132.043 -4.01976 -0.468721 0
M  V30 1459 H 128.798 -4.49421 1.49392 0
M  V30 1460 H 129.222 -5.53377 3.90004 0
M  V30 1461 H 133.864 -3.97033 1.45343 0
M  V30 1462 H 131.582 -5.99517 5.41854 0
M  V30 1463 H 135.168 -4.7048 3.42257 0
M  V30 1464 H 134.048 -5.70616 5.37929 0
M  V30 1465 N 131.551 -0.354651 -1.53558 0
M  V30 1466 C 132.828 0.294281 -1.93374 0
M  V30 1467 C 133.208 1.67313 -1.28723 0
M  V30 1468 O 132.556 2.24179 -0.442247 0
M  V30 1469 C 132.766 0.355445 -3.47185 0
M  V30 1470 C 134.114 0.601007 -4.20325 0
M  V30 1471 O 135.138 0.437106 -3.53508 0
M  V30 1472 O 133.997 0.919322 -5.38712 0
M  V30 1473 H 131.091 0.174033 -0.808481 0
M  V30 1474 H 133.637 -0.406638 -1.64756 0
M  V30 1475 H 132.409 -0.611729 -3.86489 0
M  V30 1476 H 132.032 1.1027 -3.82003 0
M  V30 1477 N 133.029 1.57378 -0.0835403 0
M  V30 1478 C 134.277 1.93547 0.581718 0
M  V30 1479 C 134.598 0.96524 1.69435 0
M  V30 1480 O 133.868 0.0153369 1.95894 0
M  V30 1481 H 132.448 0.714521 0.217874 0
M  V30 1482 H 135.11 1.94366 -0.144158 0
M  V30 1483 H 134.206 2.95665 0.999423 0
M  V30 1484 N 134.507 -0.190092 1.56449 0
M  V30 1485 C 135.784 -0.935886 1.71757 0
M  V30 1486 C 136.164 -2.01173 0.639726 0
M  V30 1487 O 135.512 -2.25827 -0.348502 0
M  V30 1488 C 135.722 -1.51775 3.1427 0
M  V30 1489 C 137.07 -1.99794 3.74656 0
M  V30 1490 O 138.094 -1.61607 3.1743 0
M  V30 1491 O 136.953 -2.70079 4.751 0
M  V30 1492 H 134.047 -0.439229 0.700719 0
M  V30 1493 H 136.593 -0.179395 1.68749 0
M  V30 1494 H 135.365 -0.742505 3.84191 0
M  V30 1495 H 134.988 -2.33894 3.21527 0
M  V30 1496 N 135.985 -1.50799 -0.457987 0
M  V30 1497 C 136.932 -1.70617 -1.5543 0
M  V30 1498 C 137.902 -0.547562 -1.56815 0
M  V30 1499 O 139.087 -0.779647 -1.74144 0
M  V30 1500 C 136.227 -1.81831 -2.93311 0
M  V30 1501 C 135.34 -3.09278 -3.01615 0
M  V30 1502 C 134.475 -3.11209 -4.30491 0
M  V30 1503 C 133.514 -4.33055 -4.32585 0
M  V30 1504 N 132.651 -4.32652 -5.52952 0
M  V30 1505 H 137.491 -2.64207 -1.37836 0
M  V30 1506 H 135.028 -1.30959 -0.669937 0
M  V30 1507 H 136.986 -1.86314 -3.73287 0
M  V30 1508 H 135.616 -0.916685 -3.0951 0
M  V30 1509 H 134.668 -3.14203 -2.1443 0
M  V30 1510 H 135.98 -3.99233 -2.99022 0
M  V30 1511 H 135.134 -3.14494 -5.18824 0
M  V30 1512 H 133.873 -2.19106 -4.35711 0
M  V30 1513 H 132.878 -4.29969 -3.42647 0
M  V30 1514 H 134.103 -5.264 -4.29046 0
M  V30 1515 H 132.049 -3.43409 -5.58933 0
M  V30 1516 H 131.966 -5.16392 -5.52155 0
M  V30 1517 H 133.234 -4.40101 -6.43375 0
M  V30 1518 N 137.463 0.71206 -1.40597 0
M  V30 1519 C 138.393 1.83889 -1.43899 0
M  V30 1520 C 139.374 1.67442 -0.299504 0
M  V30 1521 O 140.559 1.87421 -0.508624 0
M  V30 1522 C 137.689 3.21877 -1.30431 0
M  V30 1523 C 136.643 3.53002 -2.42019 0
M  V30 1524 C 135.969 4.90172 -2.13626 0
M  V30 1525 C 137.269 3.53643 -3.84362 0
M  V30 1526 H 138.963 1.81383 -2.38203 0
M  V30 1527 H 136.509 0.871237 -1.14654 0
M  V30 1528 H 138.462 4.00404 -1.31357 0
M  V30 1529 H 137.186 3.24968 -0.326049 0
M  V30 1530 H 135.845 2.76818 -2.40349 0
M  V30 1531 H 135.493 4.89869 -1.14182 0
M  V30 1532 H 135.193 5.11962 -2.88389 0
M  V30 1533 H 136.717 5.71028 -2.1624 0
M  V30 1534 H 138.131 4.22203 -3.87837 0
M  V30 1535 H 136.528 3.86961 -4.58673 0
M  V30 1536 H 137.598 2.52954 -4.13693 0
M  V30 1537 N 138.941 1.26152 0.944643 0
M  V30 1538 C 139.873 1.03199 2.04652 0
M  V30 1539 C 140.886 -0.00642356 1.62799 0
M  V30 1540 O 142.075 0.233263 1.76969 0
M  V30 1541 C 139.175 0.540111 3.34568 0
M  V30 1542 C 138.348 1.64697 4.05208 0
M  V30 1543 C 137.407 1.15374 5.13396 0
M  V30 1544 O 136.433 1.85013 5.38293 0
M  V30 1545 N 137.635 0.00031529 5.805 0
M  V30 1546 H 140.4 1.9808 2.2491 0
M  V30 1547 H 137.961 1.17491 1.11389 0
M  V30 1548 H 139.953 0.194401 4.04233 0
M  V30 1549 H 138.523 -0.315021 3.11009 0
M  V30 1550 H 137.743 2.16379 3.29506 0
M  V30 1551 H 139.031 2.3903 4.49157 0
M  V30 1552 H 138.429 -0.581336 5.62705 0
M  V30 1553 H 136.986 -0.286346 6.51171 0
M  V30 1554 N 140.419 -1.14872 1.07899 0
M  V30 1555 C 141.659 -1.8745 0.814965 0
M  V30 1556 C 142.023 -1.80758 -0.64733 0
M  V30 1557 O 143.224 -2.48422 -1.02664 0
M  V30 1558 C 141.495 -3.32286 1.31607 0
M  V30 1559 S 143.054 -4.22537 1.18357 0
M  V30 1560 H 139.872 -0.646833 0.295174 0
M  V30 1561 H 142.474 -1.38555 1.37923 0
M  V30 1562 H 141.178 -3.34703 2.37491 0
M  V30 1563 H 140.709 -3.86238 0.747261 0
M  V30 1564 H 142.724 -4.96044 0.124586 0
M  V30 1565 N 141.898 -0.863906 -1.31812 0
M  V30 1566 C 143.144 -0.472535 -1.97218 0
M  V30 1567 C 143.477 0.971394 -1.68159 0
M  V30 1568 O 142.752 1.68309 -0.974798 0
M  V30 1569 C 143.035 -0.723054 -3.52766 0
M  V30 1570 C 142.888 -2.21608 -3.91421 0
M  V30 1571 C 144.207 -0.185522 -4.39709 0
M  V30 1572 H 141.326 -0.173158 -0.71637 0
M  V30 1573 H 143.968 -1.08403 -1.56041 0
M  V30 1574 H 142.118 -0.202577 -3.87971 0
M  V30 1575 H 143.79 -2.80334 -3.66347 0
M  V30 1576 H 142.033 -2.691 -3.40246 0
M  V30 1577 H 142.704 -2.34203 -4.99853 0
M  V30 1578 H 145.18 -0.630726 -4.11292 0
M  V30 1579 H 144.056 -0.390306 -5.47511 0
M  V30 1580 H 144.317 0.912229 -4.32586 0
M  V30 1581 N 143.376 1.44774 -0.622745 0
M  V30 1582 C 144.308 2.28856 0.125485 0
M  V30 1583 C 145.321 1.40811 0.817069 0
M  V30 1584 O 146.51 1.65044 0.679918 0
M  V30 1585 C 143.61 3.16963 1.19949 0
M  V30 1586 C 142.783 4.33374 0.592064 0
M  V30 1587 C 141.842 5.02577 1.55893 0
M  V30 1588 O 140.868 5.58873 1.07933 0
M  V30 1589 N 142.07 5.03256 2.89334 0
M  V30 1590 H 144.835 2.93713 -0.596068 0
M  V30 1591 H 142.396 1.55129 -0.463303 0
M  V30 1592 H 144.388 3.60123 1.84644 0
M  V30 1593 H 142.958 2.53913 1.82337 0
M  V30 1594 H 142.178 3.93509 -0.233322 0
M  V30 1595 H 143.466 5.08527 0.166738 0
M  V30 1596 H 142.864 4.58836 3.30887 0
M  V30 1597 H 141.421 5.50232 3.49412 0
M  V30 1598 N 144.854 0.36279 1.53368 0
M  V30 1599 C 145.801 -0.485008 2.25646 0
M  V30 1600 C 146.771 -1.07982 1.2621 0
M  V30 1601 O 147.956 -1.11284 1.54986 0
M  V30 1602 C 145.096 -1.62023 3.04701 0
M  V30 1603 C 144.209 -1.05086 4.19024 0
M  V30 1604 C 143.344 -2.15496 4.85525 0
M  V30 1605 C 142.383 -1.5601 5.91884 0
M  V30 1606 N 141.52 -2.60241 6.52088 0
M  V30 1607 H 146.36 0.137864 2.97681 0
M  V30 1608 H 143.897 0.0798061 1.46883 0
M  V30 1609 H 145.855 -2.28887 3.48807 0
M  V30 1610 H 144.485 -2.2138 2.34927 0
M  V30 1611 H 143.537 -0.27259 3.79422 0
M  V30 1612 H 144.849 -0.575926 4.95464 0
M  V30 1613 H 144.003 -2.90186 5.32801 0
M  V30 1614 H 142.742 -2.66341 4.08551 0
M  V30 1615 H 141.747 -0.798338 5.43973 0
M  V30 1616 H 142.972 -1.05994 6.70777 0
M  V30 1617 H 140.918 -3.10304 5.77968 0
M  V30 1618 H 140.835 -2.17426 7.24059 0
M  V30 1619 H 142.103 -3.34641 7.04014 0
M  V30 1620 N 146.332 -1.57332 0.0918853 0
M  V30 1621 C 147.58 -1.93853 -0.571446 0
M  V30 1622 C 147.901 -0.974212 -1.6892 0
M  V30 1623 O 147.171 -0.0257254 -1.95883 0
M  V30 1624 H 145.751 -0.715666 -0.214082 0
M  V30 1625 H 148.413 -1.94287 0.154464 0
M  V30 1626 H 147.509 -2.96191 -0.983729 0
M  V30 1627 N 147.81 0.181792 -1.56548 0
M  V30 1628 C 148.72 1.24538 -1.98815 0
M  V30 1629 C 149.736 1.49045 -0.897861 0
M  V30 1630 O 150.912 1.61399 -1.20467 0
M  V30 1631 C 147.977 2.56683 -2.33055 0
M  V30 1632 C 147.038 2.40131 -3.55859 0
M  V30 1633 C 146.271 3.65975 -3.88456 0
M  V30 1634 O 146.494 4.70711 -3.22161 0
M  V30 1635 O 145.428 3.6071 -4.81842 0
M  V30 1636 H 149.254 0.916647 -2.89536 0
M  V30 1637 H 146.839 0.387842 -1.44278 0
M  V30 1638 H 148.721 3.34655 -2.56094 0
M  V30 1639 H 147.396 2.89157 -1.45498 0
M  V30 1640 H 146.303 1.60226 -3.38051 0
M  V30 1641 H 147.636 2.12585 -4.43924 0
M  V30 1642 N 149.288 1.51039 0.449983 0
M  V30 1643 C 150.235 1.71439 1.54523 0
M  V30 1644 C 151.205 0.555871 1.56522 0
M  V30 1645 O 152.39 0.788871 1.73728 0
M  V30 1646 C 149.53 1.83384 2.92343 0
M  V30 1647 C 148.643 3.10873 2.9997 0
M  V30 1648 C 147.778 3.13488 4.28834 0
M  V30 1649 C 146.817 4.35343 4.30282 0
M  V30 1650 N 145.954 4.35579 5.5065 0
M  V30 1651 H 150.794 2.64934 1.36433 0
M  V30 1652 H 148.331 1.31312 0.662982 0
M  V30 1653 H 150.289 1.88291 3.72293 0
M  V30 1654 H 148.919 0.933086 3.0902 0
M  V30 1655 H 147.971 3.15336 2.12761 0
M  V30 1656 H 149.283 4.00814 2.96901 0
M  V30 1657 H 148.437 3.17241 5.17149 0
M  V30 1658 H 147.176 2.21414 4.34543 0
M  V30 1659 H 146.181 4.3178 3.40362 0
M  V30 1660 H 147.406 5.28668 4.26248 0
M  V30 1661 H 145.352 3.46369 5.57104 0
M  V30 1662 H 145.269 5.19313 5.49409 0
M  V30 1663 H 146.537 4.43507 6.41032 0
M  V30 1664 N 150.766 -0.704594 1.40972 0
M  V30 1665 C 151.676 -1.84856 1.44448 0
M  V30 1666 C 152.692 -1.70726 0.335961 0
M  V30 1667 O 153.868 -1.92799 0.582276 0
M  V30 1668 C 150.933 -3.20758 1.31587 0
M  V30 1669 C 149.994 -3.47063 2.52677 0
M  V30 1670 C 149.227 -4.76481 2.4042 0
M  V30 1671 O 149.45 -5.52341 1.42391 0
M  V30 1672 O 148.384 -5.03367 3.30007 0
M  V30 1673 H 152.21 -1.8488 2.40942 0
M  V30 1674 H 149.795 -0.85647 1.22413 0
M  V30 1675 H 151.677 -4.01913 1.26665 0
M  V30 1676 H 150.352 -3.21438 0.382049 0
M  V30 1677 H 149.259 -2.65873 2.63177 0
M  V30 1678 H 150.592 -3.5119 3.44858 0
M  V30 1679 N 152.244 -1.26651 -0.937939 0
M  V30 1680 C 153.492 -1.12165 -1.68118 0
M  V30 1681 C 153.813 0.334983 -1.92101 0
M  V30 1682 O 153.083 1.23583 -1.52 0
M  V30 1683 H 151.663 -0.412093 -0.623048 0
M  V30 1684 H 154.325 -1.59027 -1.12678 0
M  V30 1685 H 153.421 -1.64289 -2.6536 0
M  V30 1686 N 153.722 1.14298 -1.08507 0
M  V30 1687 C 155.138 1.37347 -0.812901 0
M  V30 1688 C 155.338 1.93052 0.577325 0
M  V30 1689 O 154.394 2.14389 1.33393 0
M  V30 1690 C 155.707 2.33359 -1.89642 0
M  V30 1691 C 157.255 2.46996 -1.92255 0
M  V30 1692 C 157.73 3.46309 -2.99724 0
M  V30 1693 N 159.221 3.53853 -2.98902 0
M  V30 1694 C 159.956 4.3055 -3.787 0
M  V30 1695 N 159.452 5.10482 -4.6838 0
M  V30 1696 N 161.245 4.25757 -3.66998 0
M  V30 1697 H 153.396 0.764867 -1.9815 0
M  V30 1698 H 155.659 0.398966 -0.859959 0
M  V30 1699 H 155.365 1.99565 -2.89597 0
M  V30 1700 H 155.239 3.33274 -1.76659 0
M  V30 1701 H 157.626 2.80081 -0.929445 0
M  V30 1702 H 157.707 1.47039 -2.09316 0
M  V30 1703 H 157.351 3.13957 -3.99241 0
M  V30 1704 H 157.281 4.46049 -2.79907 0
M  V30 1705 H 159.772 2.96812 -2.33904 0
M  V30 1706 H 160.085 5.66284 -5.25873 0
M  V30 1707 H 158.43 5.09747 -4.72422 0
M  V30 1708 H 161.621 3.62383 -2.96304 0
M  V30 1709 H 161.794 4.85279 -4.29427 0
M  V30 1710 N 155.201 0.870884 1.31352 0
M  V30 1711 C 156.449 0.48132 1.96285 0
M  V30 1712 C 156.77 -0.969813 1.69173 0
M  V30 1713 O 156.04 -1.67998 1.00764 0
M  V30 1714 H 154.62 0.175002 0.726212 0
M  V30 1715 H 157.282 1.11087 1.60143 0
M  V30 1716 H 156.378 0.639825 3.05471 0
M  V30 1717 N 156.679 -1.44442 0.630414 0
M  V30 1718 C 157.925 -2.02894 0.143332 0
M  V30 1719 C 158.28 -1.48697 -1.22094 0
M  V30 1720 O 157.573 -0.661171 -1.79831 0
M  V30 1721 C 157.767 -3.57332 0.0697835 0
M  V30 1722 C 157.596 -4.26512 1.42539 0
M  V30 1723 C 156.366 -4.63516 2.01198 0
M  V30 1724 C 158.564 -4.57004 2.35907 0
M  V30 1725 N 156.546 -5.17661 3.30001 0
M  V30 1726 C 157.917 -5.12223 3.49324 0
M  V30 1727 C 159.972 -4.38955 2.34995 0
M  V30 1728 C 158.675 -5.51295 4.62024 0
M  V30 1729 C 160.701 -4.79075 3.46758 0
M  V30 1730 C 160.063 -5.34407 4.58899 0
M  V30 1731 H 156.162 -0.776041 0.0963523 0
M  V30 1732 H 158.746 -1.75945 0.833752 0
M  V30 1733 H 156.917 -3.83894 -0.589915 0
M  V30 1734 H 158.649 -4.02451 -0.42606 0
M  V30 1735 H 155.404 -4.47811 1.54151 0
M  V30 1736 H 155.828 -5.4921 3.95851 0
M  V30 1737 H 160.47 -3.95469 1.49545 0
M  V30 1738 H 158.188 -5.93736 5.48182 0
M  V30 1739 H 161.774 -4.66824 3.47227 0
M  V30 1740 H 160.654 -5.64878 5.4395 0
M  V30 1741 N 158.157 -0.370918 -1.53173 0
M  V30 1742 C 159.385 0.217704 -2.05751 0
M  V30 1743 C 159.8 1.42018 -1.24404 0
M  V30 1744 O 159.157 1.80245 -0.286033 0
M  V30 1745 C 159.208 0.605954 -3.56385 0
M  V30 1746 O 158.929 -0.548734 -4.3465 0
M  V30 1747 C 160.43 1.2524 -4.25241 0
M  V30 1748 H 157.65 0.0371659 -0.66997 0
M  V30 1749 H 160.194 -0.530832 -1.9749 0
M  V30 1750 H 158.349 1.3044 -3.6478 0
M  V30 1751 H 158.763 -0.23376 -5.23979 0
M  V30 1752 H 160.237 1.47458 -5.3194 0
M  V30 1753 H 160.714 2.2143 -3.79296 0
M  V30 1754 H 161.32 0.595233 -4.21114 0
M  V30 1755 N 159.635 1.57281 -0.100228 0
M  V30 1756 C 160.567 2.11342 0.886972 0
M  V30 1757 C 161.58 1.05182 1.24261 0
M  V30 1758 O 162.769 1.32613 1.19483 0
M  V30 1759 C 159.869 2.5825 2.19454 0
M  V30 1760 C 159.042 3.88302 2.01346 0
M  V30 1761 C 158.101 4.21004 3.15661 0
M  V30 1762 O 157.127 4.9014 2.89398 0
M  V30 1763 N 158.329 3.76818 4.41575 0
M  V30 1764 H 161.094 2.96668 0.425216 0
M  V30 1765 H 158.655 1.61678 0.0847334 0
M  V30 1766 H 160.647 2.7717 2.94888 0
M  V30 1767 H 159.217 1.77907 2.57037 0
M  V30 1768 H 158.437 3.7848 1.10212 0
M  V30 1769 H 159.725 4.73375 1.8653 0
M  V30 1770 H 159.123 3.2102 4.65792 0
M  V30 1771 H 157.68 4.00882 5.13942 0
M  V30 1772 N 161.113 -0.173488 1.56642 0
M  V30 1773 C 162.359 -0.887108 1.83035 0
M  V30 1774 C 162.714 -1.79965 0.680461 0
M  V30 1775 O 162.007 -1.88854 -0.323225 0
M  V30 1776 C 162.201 -1.72069 3.13252 0
M  V30 1777 C 162.03 -0.89035 4.40798 0
M  V30 1778 C 160.8 -0.566282 5.02117 0
M  V30 1779 C 162.998 -0.232921 5.13772 0
M  V30 1780 N 160.98 0.280427 6.13259 0
M  V30 1781 C 162.351 0.475046 6.18177 0
M  V30 1782 C 164.406 -0.150863 4.97671 0
M  V30 1783 C 163.109 1.25729 7.08227 0
M  V30 1784 C 165.135 0.618039 5.88162 0
M  V30 1785 C 164.497 1.31438 6.92029 0
M  V30 1786 H 160.596 -0.303303 0.720785 0
M  V30 1787 H 163.18 -0.154244 1.94088 0
M  V30 1788 H 161.351 -2.42499 3.03395 0
M  V30 1789 H 163.083 -2.37545 3.2765 0
M  V30 1790 H 159.838 -0.895852 4.6505 0
M  V30 1791 H 160.262 0.694027 6.73433 0
M  V30 1792 H 164.904 -0.674868 4.17379 0
M  V30 1793 H 162.622 1.79265 7.87966 0
M  V30 1794 H 166.208 0.683173 5.77775 0
M  V30 1795 H 165.088 1.89981 7.6084 0
M  V30 1796 N 162.591 -1.51276 -0.441967 0
M  V30 1797 C 163.84 -1.6295 -1.18871 0
M  V30 1798 C 164.153 -0.349312 -1.92456 0
M  V30 1799 O 165.359 -0.345355 -2.69295 0
M  V30 1800 C 163.815 -2.87759 -2.16155 0
M  V30 1801 C 163.423 -4.22764 -1.48239 0
M  V30 1802 C 165.167 -3.08788 -2.91291 0
M  V30 1803 C 163.074 -5.38728 -2.4398 0
M  V30 1804 H 162.004 -0.606913 -0.447406 0
M  V30 1805 H 164.655 -1.77739 -0.456205 0
M  V30 1806 H 163.037 -2.66593 -2.92821 0
M  V30 1807 H 164.211 -4.54293 -0.771635 0
M  V30 1808 H 162.526 -4.07575 -0.852741 0
M  V30 1809 H 165.123 -3.92599 -3.63002 0
M  V30 1810 H 165.466 -2.21679 -3.5237 0
M  V30 1811 H 165.999 -3.30272 -2.21733 0
M  V30 1812 H 162.738 -6.28082 -1.87598 0
M  V30 1813 H 162.258 -5.1158 -3.13123 0
M  V30 1814 H 163.937 -5.70489 -3.05207 0
M  V30 1815 N 164.069 0.697108 -1.41344 0
M  V30 1816 C 164.979 1.84088 -1.45427 0
M  V30 1817 C 165.995 1.70545 -0.34501 0
M  V30 1818 O 167.171 1.92488 -0.592492 0
M  V30 1819 C 164.236 3.20056 -1.33286 0
M  V30 1820 C 163.297 3.45718 -2.54514 0
M  V30 1821 C 162.53 4.75199 -2.42944 0
M  V30 1822 O 162.753 5.51579 -1.45318 0
M  V30 1823 O 161.687 5.0161 -3.32672 0
M  V30 1824 H 165.513 1.836 -2.41919 0
M  V30 1825 H 163.098 0.849966 -1.22866 0
M  V30 1826 H 164.98 4.01236 -1.28794 0
M  V30 1827 H 163.655 3.2123 -0.39909 0
M  V30 1828 H 162.562 2.64474 -2.64583 0
M  V30 1829 H 163.895 3.49356 -3.46715 0
M  V30 1830 N 165.547 1.27147 0.931209 0
M  V30 1831 C 166.795 1.13055 1.6752 0
M  V30 1832 C 167.116 -0.324791 1.92276 0
M  V30 1833 O 166.386 -1.22775 1.52654 0
M  V30 1834 H 164.966 0.415391 0.620854 0
M  V30 1835 H 167.628 1.59623 1.11833 0
M  V30 1836 H 166.724 1.65694 2.64485 0
M  V30 1837 N 167.025 -1.13721 1.09112 0
M  V30 1838 C 168.302 -1.81155 0.737706 0
M  V30 1839 C 168.682 -1.96253 -0.777683 0
M  V30 1840 O 168.03 -1.52807 -1.69889 0
M  V30 1841 C 168.24 -3.16392 1.47299 0
M  V30 1842 C 169.588 -3.91787 1.63671 0
M  V30 1843 O 170.612 -3.26005 1.43524 0
M  V30 1844 O 169.471 -5.0977 1.96969 0
M  V30 1845 H 166.565 -0.783518 0.26463 0
M  V30 1846 H 169.111 -1.20676 1.19312 0
M  V30 1847 H 167.883 -3.0061 2.50498 0
M  V30 1848 H 167.506 -3.8457 1.00953 0
M  V30 1849 N 168.503 -0.877838 -1.30888 0
M  V30 1850 C 169.413 -0.343096 -2.32078 0
M  V30 1851 C 170.429 0.551022 -1.65045 0
M  V30 1852 O 171.605 0.445854 -1.96403 0
M  V30 1853 C 168.67 0.439905 -3.43898 0
M  V30 1854 C 167.731 -0.483111 -4.26573 0
M  V30 1855 C 166.964 0.262616 -5.33053 0
M  V30 1856 O 167.187 1.48967 -5.50604 0
M  V30 1857 O 166.121 -0.383593 -6.00676 0
M  V30 1858 H 169.947 -1.18203 -2.79753 0
M  V30 1859 H 167.532 -0.64145 -1.34929 0
M  V30 1860 H 169.414 0.883504 -4.12034 0
M  V30 1861 H 168.089 1.25526 -2.98371 0
M  V30 1862 H 166.996 -0.975374 -3.61161 0
M  V30 1863 H 168.329 -1.26427 -4.75686 0
M  V30 1864 N 169.982 1.44106 -0.638065 0
M  V30 1865 C 170.912 2.33448 0.0494287 0
M  V30 1866 C 171.893 1.48606 0.827672 0
M  V30 1867 O 173.078 1.77308 0.792173 0
M  V30 1868 C 170.208 3.31771 1.02691 0
M  V30 1869 C 169.162 4.26485 0.359823 0
M  V30 1870 C 168.488 5.14729 1.44769 0
M  V30 1871 C 169.788 5.17056 -0.738296 0
M  V30 1872 H 171.482 2.91183 -0.696636 0
M  V30 1873 H 169.028 1.40014 -0.336456 0
M  V30 1874 H 170.981 3.93161 1.51666 0
M  V30 1875 H 169.705 2.7226 1.80395 0
M  V30 1876 H 168.364 3.66437 -0.10934 0
M  V30 1877 H 168.012 4.51566 2.21578 0
M  V30 1878 H 167.712 5.78913 1.00668 0
M  V30 1879 H 169.236 5.78991 1.93911 0
M  V30 1880 H 170.65 5.72342 -0.331354 0
M  V30 1881 H 169.047 5.89879 -1.10286 0
M  V30 1882 H 170.117 4.57652 -1.60258 0
M  V30 1883 N 171.46 0.379036 1.52974 0
M  V30 1884 C 172.41 -0.477772 2.22938 0
M  V30 1885 C 173.394 -1.03792 1.22948 0
M  V30 1886 O 174.586 -0.965725 1.48333 0
M  V30 1887 C 171.715 -1.60994 3.03209 0
M  V30 1888 C 170.801 -1.06203 4.10587 0
M  V30 1889 N 171.192 -0.238214 5.05239 0
M  V30 1890 C 169.49 -1.33554 4.25534 0
M  V30 1891 C 170.191 0.0633235 5.81666 0
M  V30 1892 N 169.167 -0.537901 5.40932 0
M  V30 1893 H 172.969 0.158295 2.93473 0
M  V30 1894 H 170.483 0.187778 1.61311 0
M  V30 1895 H 172.48 -2.23607 3.5186 0
M  V30 1896 H 171.14 -2.24893 2.34207 0
M  V30 1897 H 172.151 0.123695 5.17752 0
M  V30 1898 H 168.828 -1.97632 3.6776 0
M  V30 1899 H 170.218 0.730161 6.67921 0
M  V30 1900 N 172.938 -1.57226 0.108567 0
M  V30 1901 C 173.868 -2.17778 -0.84232 0
M  V30 1902 C 174.849 -1.11487 -1.2847 0
M  V30 1903 O 176.034 -1.39681 -1.34918 0
M  V30 1904 C 173.164 -2.76888 -2.09644 0
M  V30 1905 C 172.118 -3.88669 -1.79221 0
M  V30 1906 C 171.444 -4.34541 -3.11574 0
M  V30 1907 C 172.744 -5.11251 -1.06864 0
M  V30 1908 H 174.438 -2.97489 -0.337774 0
M  V30 1909 H 171.984 -1.43097 -0.161025 0
M  V30 1910 H 173.937 -3.17904 -2.76614 0
M  V30 1911 H 172.661 -1.94451 -2.62405 0
M  V30 1912 H 171.32 -3.48213 -1.14644 0
M  V30 1913 H 170.968 -3.48977 -3.62249 0
M  V30 1914 H 170.668 -5.09914 -2.91996 0
M  V30 1915 H 172.192 -4.782 -3.7968 0
M  V30 1916 H 173.606 -5.49352 -1.63968 0
M  V30 1917 H 172.003 -5.9214 -0.974178 0
M  V30 1918 H 173.073 -4.8487 -0.0536168 0
M  V30 1919 N 174.416 0.165178 -1.56732 0
M  V30 1920 C 175.326 1.22423 -2.00125 0
M  V30 1921 C 176.342 1.48084 -0.913619 0
M  V30 1922 O 177.518 1.60112 -1.22172 0
M  V30 1923 C 174.583 2.54197 -2.35764 0
M  V30 1924 C 173.644 2.36343 -3.58386 0
M  V30 1925 C 172.877 3.61834 -3.92316 0
M  V30 1926 O 173.1 4.67267 -3.27135 0
M  V30 1927 O 172.034 3.55579 -4.85641 0
M  V30 1928 H 175.86 0.885886 -2.90492 0
M  V30 1929 H 173.445 0.372518 -1.44681 0
M  V30 1930 H 175.327 3.3192 -2.59629 0
M  V30 1931 H 174.002 2.87598 -1.48557 0
M  V30 1932 H 172.909 1.56632 -3.39731 0
M  V30 1933 H 174.242 2.07865 -4.46154 0
M  V30 1934 N 175.894 1.51508 0.433938 0
M  V30 1935 C 176.827 1.67756 1.54704 0
M  V30 1936 C 177.805 0.525127 1.53887 0
M  V30 1937 O 178.989 0.749393 1.72963 0
M  V30 1938 C 176.116 1.69424 2.9328 0
M  V30 1939 C 175.162 2.90673 3.12108 0
M  V30 1940 S 175.995 4.51431 2.88046 0
M  V30 1941 C 177.151 4.55849 4.28897 0
M  V30 1942 H 177.384 2.61904 1.40689 0
M  V30 1943 H 174.917 1.41235 0.62386 0
M  V30 1944 H 176.875 1.7107 3.73156 0
M  V30 1945 H 175.536 0.764464 3.04655 0
M  V30 1946 H 174.729 2.88251 4.13434 0
M  V30 1947 H 174.331 2.86786 2.40062 0
M  V30 1948 H 176.623 4.31699 5.22152 0
M  V30 1949 H 177.566 5.57676 4.36351 0
M  V30 1950 H 177.974 3.85137 4.12711 0
M  V30 1951 N 177.372 -0.689602 1.41712 0
M  V30 1952 C 178.788 -1.00093 1.24312 0
M  V30 1953 C 178.988 -2.01036 0.136729 0
M  V30 1954 O 178.044 -2.47562 -0.496918 0
M  V30 1955 C 179.357 -1.51985 2.59463 0
M  V30 1956 C 180.905 -1.63838 2.66695 0
M  V30 1957 C 181.38 -2.1913 4.02177 0
M  V30 1958 N 182.871 -2.26483 4.04054 0
M  V30 1959 C 183.606 -2.70306 5.0569 0
M  V30 1960 N 183.102 -3.13691 6.17713 0
M  V30 1961 N 184.895 -2.69923 4.9305 0
M  V30 1962 H 177.046 -0.0210029 2.1239 0
M  V30 1963 H 179.309 -0.0718733 0.945272 0
M  V30 1964 H 179.015 -0.85269 3.41207 0
M  V30 1965 H 178.889 -2.50103 2.82362 0
M  V30 1966 H 181.276 -2.29664 1.85306 0
M  V30 1967 H 181.357 -0.642492 2.476 0
M  V30 1968 H 181.001 -1.53918 4.84016 0
M  V30 1969 H 180.931 -3.19482 4.18615 0
M  V30 1970 H 183.422 -1.95874 3.23174 0
M  V30 1971 H 183.735 -3.45773 6.9113 0
M  V30 1972 H 182.08 -3.11585 6.21241 0
M  V30 1973 H 185.271 -2.35382 4.04614 0
M  V30 1974 H 185.444 -3.03758 5.72394 0
M  V30 1975 N 178.85 -1.27639 -0.924453 0
M  V30 1976 C 180.096 -1.14336 -1.67497 0
M  V30 1977 C 180.429 0.309465 -1.91718 0
M  V30 1978 O 179.704 1.22608 -1.50989 0
M  V30 1979 C 179.987 -1.93096 -3.0395 0
M  V30 1980 C 179.84 -3.46381 -2.8695 0
M  V30 1981 C 181.159 -1.73798 -4.0433 0
M  V30 1982 H 178.278 -0.416728 -0.607871 0
M  V30 1983 H 180.92 -1.56832 -1.07256 0
M  V30 1984 H 179.07 -1.56982 -3.55372 0
M  V30 1985 H 180.742 -3.92343 -2.42621 0
M  V30 1986 H 178.985 -3.72557 -2.22225 0
M  V30 1987 H 179.656 -3.96735 -3.83804 0
M  V30 1988 H 182.132 -2.05293 -3.61931 0
M  V30 1989 H 181.008 -2.31294 -4.97789 0
M  V30 1990 H 181.269 -0.686725 -4.36734 0
M  V30 1991 N 180.328 1.1314 -1.09713 0
M  V30 1992 C 181.238 2.22242 -0.751367 0
M  V30 1993 C 182.254 1.72224 0.247938 0
M  V30 1994 O 183.43 2.01205 0.0885463 0
M  V30 1995 C 180.495 3.46231 -0.180274 0
M  V30 1996 C 179.556 4.11125 -1.2359 0
M  V30 1997 C 178.789 5.29195 -0.691966 0
M  V30 1998 O 179.012 5.68342 0.48414 0
M  V30 1999 O 177.946 5.84214 -1.44838 0
M  V30 2000 H 181.772 2.54197 -1.66186 0
M  V30 2001 H 179.357 1.21331 -0.871735 0
M  V30 2002 H 181.239 4.21185 0.134739 0
M  V30 2003 H 179.914 3.1597 0.703185 0
M  V30 2004 H 178.821 3.37985 -1.60366 0
M  V30 2005 H 180.154 4.45524 -2.09211 0
M  V30 2006 N 181.806 0.884767 1.30421 0
M  V30 2007 C 183.054 0.502112 1.95763 0
M  V30 2008 C 183.375 -0.951815 1.70192 0
M  V30 2009 O 182.645 -1.6692 1.0254 0
M  V30 2010 H 181.225 0.182694 0.724315 0
M  V30 2011 H 183.887 1.1278 1.58955 0
M  V30 2012 H 182.983 0.672188 3.04775 0
M  V30 2013 N 183.284 -1.43765 0.645699 0
M  V30 2014 C 184.53 -2.02197 0.156271 0
M  V30 2015 C 184.863 -1.50776 -1.22393 0
M  V30 2016 O 184.138 -0.697771 -1.81553 0
M  V30 2017 C 184.421 -3.59749 0.158872 0
M  V30 2018 C 184.274 -4.21419 1.57245 0
M  V30 2019 C 185.593 -4.37149 -0.50879 0
M  V30 2020 H 182.712 -0.734694 0.0582602 0
M  V30 2021 H 185.354 -1.71157 0.824951 0
M  V30 2022 H 183.504 -3.86325 -0.410525 0
M  V30 2023 H 185.176 -4.059 2.19186 0
M  V30 2024 H 183.419 -3.78356 2.122 0
M  V30 2025 H 184.09 -5.30482 1.52619 0
M  V30 2026 H 186.566 -4.16093 -0.024412 0
M  V30 2027 H 185.442 -5.4683 -0.476213 0
M  V30 2028 H 185.703 -4.12839 -1.58165 0
M  V30 2029 N 184.763 -0.387143 -1.52771 0
M  V30 2030 C 186.009 0.196025 -2.0185 0
M  V30 2031 C 186.342 1.46641 -1.27319 0
M  V30 2032 O 185.617 1.90889 -0.373032 0
M  V30 2033 C 185.9 0.466136 -3.5707 0
M  V30 2034 C 185.753 -0.819385 -4.42274 0
M  V30 2035 C 187.072 1.25768 -4.21747 0
M  V30 2036 H 184.191 0.0697708 -0.73369 0
M  V30 2037 H 186.833 -0.516286 -1.82851 0
M  V30 2038 H 184.983 1.07293 -3.7339 0
M  V30 2039 H 186.655 -1.4563 -4.37709 0
M  V30 2040 H 184.898 -1.43517 -4.09372 0
M  V30 2041 H 185.569 -0.585065 -5.48891 0
M  V30 2042 H 188.045 0.744167 -4.09391 0
M  V30 2043 H 186.921 1.41541 -5.30337 0
M  V30 2044 H 187.182 2.27228 -3.79236 0
M  V30 2045 N 186.241 1.57166 -0.116904 0
M  V30 2046 C 187.481 1.97008 0.544715 0
M  V30 2047 C 187.845 0.998713 1.63981 0
M  V30 2048 O 189.046 1.28644 2.36018 0
M  V30 2049 C 187.317 3.41145 1.06559 0
M  V30 2050 S 188.876 4.02998 1.73603 0
M  V30 2051 H 185.694 0.688587 0.177112 0
M  V30 2052 H 188.296 1.94459 -0.201487 0
M  V30 2053 H 187 4.09592 0.257374 0
M  V30 2054 H 186.531 3.4734 1.84712 0
M  V30 2055 H 188.546 3.93585 3.02168 0
M  V30 2056 N 187.719 -0.156864 1.56817 0
M  V30 2057 C 188.666 -1.19394 1.97519 0
M  V30 2058 C 189.636 -1.4322 0.841265 0
M  V30 2059 O 190.821 -1.55719 1.10255 0
M  V30 2060 C 187.961 -2.52483 2.35258 0
M  V30 2061 C 187.074 -2.35914 3.61896 0
M  V30 2062 C 186.209 -3.61969 3.88782 0
M  V30 2063 C 185.248 -3.40395 5.08722 0
M  V30 2064 N 184.385 -4.58556 5.31668 0
M  V30 2065 H 189.225 -0.839845 2.85921 0
M  V30 2066 H 186.762 -0.403264 1.41464 0
M  V30 2067 H 188.72 -3.30071 2.55165 0
M  V30 2068 H 187.35 -2.85859 1.49949 0
M  V30 2069 H 186.402 -1.49429 3.49821 0
M  V30 2070 H 187.714 -2.15926 4.49641 0
M  V30 2071 H 186.868 -4.47989 4.09135 0
M  V30 2072 H 185.607 -3.84951 2.9944 0
M  V30 2073 H 184.612 -2.52763 4.88253 0
M  V30 2074 H 185.837 -3.18822 5.99608 0
M  V30 2075 H 183.783 -4.81729 4.45279 0
M  V30 2076 H 183.7 -4.41535 6.13664 0
M  V30 2077 H 184.968 -5.45817 5.5651 0
M  V30 2078 N 189.197 -1.51736 -0.425897 0
M  V30 2079 C 190.129 -1.70083 -1.53638 0
M  V30 2080 C 191.142 -0.581349 -1.52066 0
M  V30 2081 O 192.331 -0.856017 -1.56635 0
M  V30 2082 C 189.431 -1.71078 -2.9255 0
M  V30 2083 C 188.604 -2.99795 -3.185 0
M  V30 2084 C 187.663 -2.92825 -4.37196 0
M  V30 2085 O 186.689 -3.66756 -4.35291 0
M  V30 2086 N 187.891 -2.0946 -5.41393 0
M  V30 2087 H 190.656 -2.65882 -1.383 0
M  V30 2088 H 188.217 -1.49765 -0.614988 0
M  V30 2089 H 190.209 -1.63969 -3.69995 0
M  V30 2090 H 188.779 -0.828242 -3.01428 0
M  V30 2091 H 187.999 -3.20684 -2.2925 0
M  V30 2092 H 189.287 -3.84977 -3.32671 0
M  V30 2093 H 188.685 -1.48792 -5.45781 0
M  V30 2094 H 187.242 -2.08221 -6.17647 0
M  V30 2095 N 190.675 0.682077 -1.42076 0
M  V30 2096 C 191.921 1.44428 -1.42367 0
M  V30 2097 C 192.254 1.94164 -0.0373056 0
M  V30 2098 O 191.529 1.70429 0.937239 0
M  V30 2099 C 191.812 2.64654 -2.44194 0
M  V30 2100 C 191.665 2.20596 -3.91991 0
M  V30 2101 C 192.984 3.66865 -2.431 0
M  V30 2102 H 190.103 0.523834 -0.518428 0
M  V30 2103 H 192.745 0.77576 -1.73442 0
M  V30 2104 H 190.895 3.2169 -2.17826 0
M  V30 2105 H 192.567 1.68783 -4.29313 0
M  V30 2106 H 190.81 1.52242 -4.06208 0
M  V30 2107 H 191.481 3.06921 -4.58807 0
M  V30 2108 H 193.957 3.19531 -2.66532 0
M  V30 2109 H 192.833 4.48577 -3.16339 0
M  V30 2110 H 193.094 4.17493 -1.45437 0
M  V30 2111 N 192.153 1.28127 0.917671 0
M  V30 2112 C 193.4 1.15052 1.66641 0
M  V30 2113 C 193.728 -0.301677 1.92146 0
M  V30 2114 O 192.983 -1.23622 1.51711 0
M  V30 2115 C 193.282 1.89018 3.03327 0
M  V30 2116 C 192.948 3.38832 2.97496 0
M  V30 2117 C 191.61 3.79693 2.95613 0
M  V30 2118 C 193.962 4.34378 2.88036 0
M  V30 2119 C 191.29 5.14447 2.82066 0
M  V30 2120 C 193.642 5.69201 2.7603 0
M  V30 2121 C 192.306 6.09343 2.72502 0
M  V30 2122 H 191.576 0.421006 0.609783 0
M  V30 2123 H 194.223 1.58855 1.06945 0
M  V30 2124 H 192.528 1.37752 3.66785 0
M  V30 2125 H 194.225 1.76321 3.60156 0
M  V30 2126 H 190.815 3.06342 2.99754 0
M  V30 2127 H 194.999 4.03775 2.88581 0
M  V30 2128 H 190.255 5.44681 2.77728 0
M  V30 2129 H 194.429 6.42901 2.67678 0
M  V30 2130 H 192.056 7.13712 2.61762 0
M  V30 2131 N 193.631 -1.12557 1.10312 0
M  V30 2132 C 194.578 -2.18247 0.750781 0
M  V30 2133 C 195.548 -1.63853 -0.272293 0
M  V30 2134 O 196.733 -1.90195 -0.151862 0
M  V30 2135 C 193.873 -3.44591 0.187379 0
M  V30 2136 C 192.986 -4.13046 1.2656 0
M  V30 2137 C 192.121 -5.27034 0.663978 0
M  V30 2138 C 191.16 -5.87353 1.72287 0
M  V30 2139 N 190.297 -6.92757 1.1416 0
M  V30 2140 H 195.137 -2.47732 1.65628 0
M  V30 2141 H 192.674 -1.21629 0.827337 0
M  V30 2142 H 194.632 -4.16904 -0.157148 0
M  V30 2143 H 193.262 -3.15527 -0.681355 0
M  V30 2144 H 192.314 -3.38924 1.72727 0
M  V30 2145 H 193.626 -4.53947 2.06721 0
M  V30 2146 H 192.78 -6.06104 0.268824 0
M  V30 2147 H 191.519 -4.87407 -0.169082 0
M  V30 2148 H 190.524 -5.06971 2.12746 0
M  V30 2149 H 191.749 -6.29051 2.55875 0
M  V30 2150 H 189.695 -6.5517 0.329984 0
M  V30 2151 H 189.612 -7.3225 1.88007 0
M  V30 2152 H 190.88 -7.75658 0.772956 0
M  V30 2153 N 195.109 -0.891671 -1.2995 0
M  V30 2154 C 196.056 -0.361736 -2.27948 0
M  V30 2155 C 197.026 0.551761 -1.56668 0
M  V30 2156 O 198.211 0.478736 -1.84696 0
M  V30 2157 C 195.351 0.411825 -3.42634 0
M  V30 2158 C 194.464 -0.531651 -4.28716 0
M  V30 2159 C 193.599 0.258167 -5.30572 0
M  V30 2160 C 192.638 -0.680349 -6.08307 0
M  V30 2161 N 191.775 0.0745613 -7.0206 0
M  V30 2162 H 196.615 -1.20254 -2.72659 0
M  V30 2163 H 194.152 -0.604352 -1.34112 0
M  V30 2164 H 196.11 0.876304 -4.07893 0
M  V30 2165 H 194.74 1.21715 -2.98974 0
M  V30 2166 H 193.792 -1.11463 -3.63703 0
M  V30 2167 H 195.104 -1.25038 -4.82874 0
M  V30 2168 H 194.258 0.784204 -6.0161 0
M  V30 2169 H 192.997 1.01008 -4.77126 0
M  V30 2170 H 192.002 -1.21796 -5.3614 0
M  V30 2171 H 193.227 -1.43145 -6.63842 0
M  V30 2172 H 191.173 0.808883 -6.50994 0
M  V30 2173 H 191.09 -0.584409 -7.53738 0
M  V30 2174 H 192.358 0.581123 -7.77331 0
M  V30 2175 N 196.587 1.43421 -0.653314 0
M  V30 2176 C 197.833 2.02111 -0.166992 0
M  V30 2177 C 198.166 1.51423 1.21592 0
M  V30 2178 O 197.441 0.707389 1.8118 0
M  V30 2179 C 197.724 3.5966 -0.177948 0
M  V30 2180 C 197.577 4.20579 -1.59478 0
M  V30 2181 C 198.896 4.37413 0.4856 0
M  V30 2182 H 196.015 0.734374 -0.0621557 0
M  V30 2183 H 198.657 1.70717 -0.834016 0
M  V30 2184 H 196.807 3.86537 0.390032 0
M  V30 2185 H 198.479 4.04732 -2.21336 0
M  V30 2186 H 196.722 3.77226 -2.14204 0
M  V30 2187 H 197.393 5.29665 -1.5543 0
M  V30 2188 H 199.869 4.161 0.00234528 0
M  V30 2189 H 198.745 5.47075 0.447207 0
M  V30 2190 H 199.006 4.13672 1.55974 0
M  V30 2191 N 198.065 0.39524 1.52563 0
M  V30 2192 C 198.997 -0.472201 2.24283 0
M  V30 2193 C 200.01 -1.02178 1.26742 0
M  V30 2194 O 201.199 -0.923097 1.52778 0
M  V30 2195 C 198.299 -1.66775 2.95024 0
M  V30 2196 C 197.472 -1.2445 4.19322 0
M  V30 2197 C 196.531 -2.30539 4.7301 0
M  V30 2198 O 195.557 -1.91702 5.35947 0
M  V30 2199 N 196.759 -3.6253 4.53379 0
M  V30 2200 H 199.524 0.142282 2.99362 0
M  V30 2201 H 197.085 0.2219 1.60372 0
M  V30 2202 H 199.077 -2.37283 3.27839 0
M  V30 2203 H 197.647 -2.18845 2.23217 0
M  V30 2204 H 196.867 -0.368069 3.92478 0
M  V30 2205 H 198.155 -0.938457 5.0007 0
M  V30 2206 H 197.553 -3.96841 4.03154 0
M  V30 2207 H 196.11 -4.29055 4.90668 0
M  V30 2208 O 199.582 -1.59299 0.265728 0
M  V30 2209 H 200.273 -1.91266 -0.306134 0
M  V30 END ATOM
M  V30 BEGIN BOND
M  V30 END BOND
M  V30 END CTAB
M  END
$$$$
