drugbank_target|P09429 High mobility group protein B1 (DB00608; DB05869)
 OpenBabel12092120323D

  0  0  0     0  0            999 V3000
M  V30 BEGIN CTAB
M  V30 COUNTS 3444 3479 0 0 0
M  V30 BEGIN ATOM
M  V30 1 H -0.908 1.98254 -0.117106 0
M  V30 2 N 0 1.576 0 0
M  V30 3 C 0.933 2.03868 1.02534 0
M  V30 4 C 1.911 0.928543 1.3348 0
M  V30 5 O 3.095 1.19667 1.45644 0
M  V30 6 C 0.222 2.43627 2.35294 0
M  V30 7 C -0.732 3.65373 2.2001 0
M  V30 8 S 0.101 5.13292 1.52614 0
M  V30 9 C 1.257 5.56322 2.86805 0
M  V30 10 H 1.49 2.90518 0.631377 0
M  V30 11 H -0.977 1.52953 0.210867 0
M  V30 12 H 0.981 2.67203 3.11629 0
M  V30 13 H -0.358 1.57376 2.7183 0
M  V30 14 H -1.165 3.90944 3.18086 0
M  V30 15 H -1.563 3.418 1.51819 0
M  V30 16 H 0.729 5.58782 3.83104 0
M  V30 17 H 1.672 6.56266 2.65933 0
M  V30 18 H 2.08 4.83886 2.90714 0
M  V30 19 N 1.4781 -0.272755 1.55222 0
M  V30 20 C 2.7261 -1.00234 1.75492 0
M  V30 21 C 3.0471 -1.8681 0.5592 0
M  V30 22 O 2.3171 -1.91215 -0.425882 0
M  V30 23 H 0.8971 -0.373076 0.647166 0
M  V30 24 H 3.5591 -0.296926 1.92625 0
M  V30 25 H 2.6551 -1.63913 2.65592 0
M  V30 26 N 2.9562 -1.48159 -0.537278 0
M  V30 27 C 3.9032 -1.62138 -1.64256 0
M  V30 28 C 4.8732 -0.463668 -1.59497 0
M  V30 29 O 6.0582 -0.686241 -1.78032 0
M  V30 30 C 3.1982 -1.66028 -3.02537 0
M  V30 31 C 2.3112 -2.92855 -3.17585 0
M  V30 32 C 1.4462 -2.87952 -4.46382 0
M  V30 33 C 0.4852 -4.09516 -4.54932 0
M  V30 34 N -0.3778 -4.02733 -5.75109 0
M  V30 35 H 4.4622 -2.56529 -1.51647 0
M  V30 36 H 1.9992 -1.27224 -0.738414 0
M  V30 37 H 3.9572 -1.66265 -3.82638 0
M  V30 38 H 2.5872 -0.751331 -3.13934 0
M  V30 39 H 1.6392 -3.02395 -2.30784 0
M  V30 40 H 2.9512 -3.82822 -3.19764 0
M  V30 41 H 2.1052 -2.8655 -5.34765 0
M  V30 42 H 0.8442 -1.95702 -4.46712 0
M  V30 43 H -0.1508 -4.11201 -3.64957 0
M  V30 44 H 1.0742 -5.02917 -4.56346 0
M  V30 45 H -0.9798 -3.13299 -5.76351 0
M  V30 46 H -1.0628 -4.86397 -5.78752 0
M  V30 47 H 0.2052 -4.05379 -6.65799 0
M  V30 48 N 4.4343 0.785586 -1.36625 0
M  V30 49 C 5.6823 1.54057 -1.30808 0
M  V30 50 C 6.0033 1.94683 0.111157 0
M  V30 51 O 5.2733 1.65241 1.05224 0
M  V30 52 H 3.8533 0.571354 -0.481211 0
M  V30 53 H 6.5153 0.935821 -1.70963 0
M  V30 54 H 5.6113 2.44637 -1.93801 0
M  V30 55 N 5.9124 1.20967 1.01018 0
M  V30 56 C 7.1894 0.93264 1.71934 0
M  V30 57 C 7.5694 -0.55692 2.03621 0
M  V30 58 O 6.9174 -1.52035 1.7058 0
M  V30 59 C 7.1274 1.81233 2.98254 0
M  V30 60 C 8.4754 2.05804 3.71389 0
M  V30 61 O 9.4994 1.78539 3.08225 0
M  V30 62 O 8.3584 2.51888 4.84989 0
M  V30 63 H 5.4524 0.349272 0.749625 0
M  V30 64 H 7.9984 1.31871 1.06808 0
M  V30 65 H 6.7704 2.82067 2.71208 0
M  V30 66 H 6.3934 1.42674 3.7112 0
M  V30 67 N 7.3905 -1.2043 1.01659 0
M  V30 68 C 8.8015 -1.71517 0.737482 0
M  V30 69 C 9.1525 -1.81547 -0.743973 0
M  V30 70 O 8.2775 -1.47803 -1.58061 0
M  V30 71 C 8.8725 -3.11515 1.33206 0
M  V30 72 C 7.4315 -3.59912 1.10183 0
M  V30 73 C 6.5785 -2.37116 1.43776 0
M  V30 74 H 9.5295 -1.05444 1.18606 0
M  V30 75 H 9.5505 -3.73575 0.722636 0
M  V30 76 H 9.0625 -3.04182 2.41028 0
M  V30 77 H 7.1635 -3.72577 0.0412756 0
M  V30 78 H 7.2765 -4.44731 1.78188 0
M  V30 79 H 5.6405 -2.39857 0.856778 0
M  V30 80 H 6.4235 -2.32424 2.52654 0
M  V30 81 N 8.8686 -0.792821 -1.36206 0
M  V30 82 C 9.8156 -0.191653 -2.30003 0
M  V30 83 C 10.7856 0.666453 -1.52143 0
M  V30 84 O 11.9706 0.61442 -1.80636 0
M  V30 85 C 9.1106 0.664848 -3.38635 0
M  V30 86 C 8.2236 -0.212175 -4.31479 0
M  V30 87 C 7.3586 0.651022 -5.27196 0
M  V30 88 C 6.3976 -0.227247 -6.11678 0
M  V30 89 N 5.5346 0.595127 -6.99573 0
M  V30 90 H 10.3746 -0.996978 -2.80828 0
M  V30 91 H 7.9116 -0.503206 -1.38225 0
M  V30 92 H 9.8696 1.17645 -4.00269 0
M  V30 93 H 8.4996 1.43557 -2.89122 0
M  V30 94 H 7.5516 -0.841777 -3.70969 0
M  V30 95 H 8.8636 -0.888751 -4.90818 0
M  V30 96 H 8.0176 1.2283 -5.94136 0
M  V30 97 H 6.7566 1.36121 -4.68319 0
M  V30 98 H 5.7616 -0.816904 -5.43697 0
M  V30 99 H 6.9866 -0.93509 -6.72631 0
M  V30 100 H 4.9326 1.28955 -6.432 0
M  V30 101 H 4.8496 -0.0236952 -7.55996 0
M  V30 102 H 6.1176 1.15613 -7.70879 0
M  V30 103 N 10.3467 1.47872 -0.545128 0
M  V30 104 C 11.2937 2.29849 0.2093 0
M  V30 105 C 12.2637 1.38313 0.919707 0
M  V30 106 O 13.4487 1.67277 0.917772 0
M  V30 107 C 10.5887 3.22019 1.24088 0
M  V30 108 C 9.7017 4.2864 0.537778 0
M  V30 109 C 8.8367 5.07973 1.5536 0
M  V30 110 C 7.8757 6.06381 0.8348 0
M  V30 111 N 7.0127 6.78717 1.79688 0
M  V30 112 H 11.8527 2.93845 -0.49591 0
M  V30 113 H 9.3897 1.44848 -0.256389 0
M  V30 114 H 11.3477 3.73868 1.85144 0
M  V30 115 H 9.9777 2.59914 1.91428 0
M  V30 116 H 9.0297 3.7994 -0.187046 0
M  V30 117 H 10.3417 4.98793 -0.0258907 0
M  V30 118 H 9.4957 5.63912 2.23803 0
M  V30 119 H 8.2347 4.37693 2.15118 0
M  V30 120 H 7.2397 5.49631 0.136388 0
M  V30 121 H 8.4647 6.78665 0.24313 0
M  V30 122 H 6.4107 6.11177 2.38326 0
M  V30 123 H 6.3277 7.44998 1.28505 0
M  V30 124 H 7.5957 7.39237 2.47282 0
M  V30 125 N 11.8248 0.280983 1.55075 0
M  V30 126 C 13.2358 -0.215629 1.85451 0
M  V30 127 C 13.5868 -1.54991 1.203 0
M  V30 128 O 12.7118 -2.10699 0.493435 0
M  V30 129 C 13.3068 -0.398026 3.36454 0
M  V30 130 C 11.8658 -0.838866 3.66933 0
M  V30 131 C 11.0128 0.064458 2.77225 0
M  V30 132 H 13.9638 0.502601 1.50531 0
M  V30 133 H 13.9848 -1.23569 3.59876 0
M  V30 134 H 13.4968 0.573241 3.83843 0
M  V30 135 H 11.5978 -1.8214 3.25048 0
M  V30 136 H 11.7108 -0.672123 4.74362 0
M  V30 137 H 10.0748 -0.452863 2.50642 0
M  V30 138 H 10.8578 1.03172 3.2743 0
M  V30 139 N 13.3029 -1.57598 0.00835791 0
M  V30 140 C 14.7189 -1.55764 -0.347822 0
M  V30 141 C 14.9189 -1.01186 -1.74252 0
M  V30 142 O 13.9749 -0.649371 -2.44007 0
M  V30 143 C 15.2879 -2.99927 -0.215407 0
M  V30 144 C 16.8359 -3.11656 -0.289725 0
M  V30 145 C 17.3109 -4.57621 -0.18634 0
M  V30 146 N 18.8019 -4.62557 -0.243978 0
M  V30 147 C 19.5369 -5.73094 -0.18745 0
M  V30 148 N 19.0329 -6.92753 -0.0810331 0
M  V30 149 N 20.8259 -5.61588 -0.239925 0
M  V30 150 H 12.9769 -1.91411 0.92062 0
M  V30 151 H 15.2399 -0.879562 0.353659 0
M  V30 152 H 14.9459 -3.43729 0.744512 0
M  V30 153 H 14.8199 -3.63865 -0.994097 0
M  V30 154 H 17.2069 -2.67779 -1.24009 0
M  V30 155 H 17.2879 -2.5048 0.51898 0
M  V30 156 H 16.9319 -5.02174 0.760519 0
M  V30 157 H 16.8619 -5.16752 -1.01364 0
M  V30 158 H 19.3529 -3.76481 -0.327217 0
M  V30 159 H 19.6659 -7.72787 -0.0440241 0
M  V30 160 H 18.0109 -6.94984 -0.0465419 0
M  V30 161 H 21.2019 -4.66996 -0.321317 0
M  V30 162 H 21.3749 -6.47714 -0.192407 0
M  V30 163 N 14.781 0.264519 -1.55364 0
M  V30 164 C 16.029 0.993021 -1.76021 0
M  V30 165 C 16.35 1.86511 -0.569099 0
M  V30 166 O 15.62 1.91438 0.415735 0
M  V30 167 H 14.2 0.369639 -0.649135 0
M  V30 168 H 16.862 0.286707 -1.9278 0
M  V30 169 H 15.958 1.62502 -2.66457 0
M  V30 170 N 16.2591 1.48442 0.529413 0
M  V30 171 C 17.2061 1.63007 1.63394 0
M  V30 172 C 18.1761 0.47212 1.59249 0
M  V30 173 O 19.3611 0.695673 1.77666 0
M  V30 174 C 16.5011 1.6763 3.01653 0
M  V30 175 C 15.6141 2.94535 3.16027 0
M  V30 176 C 14.7491 2.90316 4.44849 0
M  V30 177 C 13.7881 4.11923 4.52754 0
M  V30 178 N 12.9251 4.05777 5.72965 0
M  V30 179 H 17.7651 2.5733 1.50285 0
M  V30 180 H 15.3021 1.27613 0.731656 0
M  V30 181 H 17.2601 1.68292 3.81751 0
M  V30 182 H 15.8901 0.76797 3.13532 0
M  V30 183 H 14.9421 3.03615 2.29177 0
M  V30 184 H 16.2541 3.84512 3.17729 0
M  V30 185 H 15.4081 2.89382 5.33238 0
M  V30 186 H 14.1471 1.98068 4.45668 0
M  V30 187 H 13.1521 4.13131 3.62771 0
M  V30 188 H 14.3771 5.0533 4.53672 0
M  V30 189 H 12.3231 3.16351 5.74681 0
M  V30 190 H 12.2401 4.8946 5.76164 0
M  V30 191 H 13.5081 4.08904 6.6364 0
M  V30 192 N 17.7372 -0.778329 1.37039 0
M  V30 193 C 18.6702 -1.8984 1.26633 0
M  V30 194 C 19.6482 -1.61923 0.148197 0
M  V30 195 O 20.8322 -1.85742 0.321265 0
M  V30 196 C 17.9592 -3.24916 0.956403 0
M  V30 197 C 17.0052 -3.71752 2.09051 0
M  V30 198 S 17.8382 -3.86201 3.70957 0
M  V30 199 C 18.9942 -5.24135 3.42101 0
M  V30 200 H 19.2272 -1.98377 2.21436 0
M  V30 201 H 16.7602 -0.938738 1.22585 0
M  V30 202 H 18.7182 -4.02936 0.784409 0
M  V30 203 H 17.3792 -3.14089 0.0259713 0
M  V30 204 H 16.5722 -4.69661 1.8285 0
M  V30 205 H 16.1742 -3.00815 2.2223 0
M  V30 206 H 18.4662 -6.09086 2.96682 0
M  V30 207 H 19.4092 -5.55346 4.39314 0
M  V30 208 H 19.8172 -4.91761 2.77185 0
M  V30 209 N 19.2153 -1.21501 -1.00376 0
M  V30 210 C 20.4403 -1.05977 -1.78279 0
M  V30 211 C 20.8653 0.385994 -1.84097 0
M  V30 212 O 20.2233 1.27849 -1.28547 0
M  V30 213 C 20.2713 -1.66302 -3.19963 0
M  V30 214 O 19.3753 -0.909333 -4.0225 0
M  V30 215 H 18.7163 -0.372906 -0.549397 0
M  V30 216 H 21.2463 -1.6107 -1.26165 0
M  V30 217 H 21.2563 -1.70574 -3.70632 0
M  V30 218 H 19.9313 -2.71515 -3.15043 0
M  V30 219 H 18.5083 -0.941795 -3.60811 0
M  V30 220 N 20.6934 1.19889 -1.02296 0
M  V30 221 C 21.9184 1.9393 -0.735237 0
M  V30 222 C 22.3434 1.74639 0.698782 0
M  V30 223 O 21.7014 1.04481 1.48167 0
M  V30 224 C 21.7494 3.43916 -1.08417 0
M  V30 225 O 20.8534 4.11917 -0.199446 0
M  V30 226 H 20.1944 0.605645 -0.272196 0
M  V30 227 H 22.7244 1.52137 -1.36804 0
M  V30 228 H 22.7344 3.9456 -1.03856 0
M  V30 229 H 21.4094 3.5728 -2.12894 0
M  V30 230 H 19.9864 3.71666 -0.303136 0
M  V30 231 N 22.1715 0.800033 1.35784 0
M  V30 232 C 23.4015 0.389041 2.02904 0
M  V30 233 C 23.8095 -1.0027 1.60445 0
M  V30 234 O 23.1525 -1.65633 0.794453 0
M  V30 235 C 23.2145 0.385495 3.57427 0
M  V30 236 C 22.8785 1.72662 4.23127 0
M  V30 237 C 23.8755 2.68385 4.4527 0
M  V30 238 C 21.5605 2.00883 4.60381 0
M  V30 239 C 23.5545 3.90517 5.03761 0
M  V30 240 C 21.2415 3.2328 5.18588 0
M  V30 241 C 22.2395 4.17915 5.40218 0
M  V30 242 O 21.9275 5.38153 5.97199 0
M  V30 243 H 21.6595 0.157032 0.657508 0
M  V30 244 H 24.2135 1.08311 1.74522 0
M  V30 245 H 22.4435 -0.365128 3.84972 0
M  V30 246 H 24.1325 -0.00228296 4.059 0
M  V30 247 H 24.8985 2.47872 4.16874 0
M  V30 248 H 20.7775 1.28037 4.42863 0
M  V30 249 H 24.3215 4.64395 5.2056 0
M  V30 250 H 20.2185 3.43667 5.4641 0
M  V30 251 H 20.9865 5.3936 6.15656 0
M  V30 252 N 23.6496 -1.47581 0.552962 0
M  V30 253 C 24.6126 -2.28439 -0.186605 0
M  V30 254 C 25.6126 -1.36706 -0.84665 0
M  V30 255 O 26.8026 -1.59378 -0.703164 0
M  V30 256 C 23.9346 -3.16264 -1.2724 0
M  V30 257 H 25.1276 -2.95294 0.523609 0
M  V30 258 H 22.6806 -1.532 0.309745 0
M  V30 259 H 23.4156 -2.54091 -2.01514 0
M  V30 260 H 23.2006 -3.83769 -0.803968 0
M  V30 261 H 24.6906 -3.77198 -1.79196 0
M  V30 262 N 25.1277 -0.289203 -1.54924 0
M  V30 263 C 26.3747 0.323519 -1.99899 0
M  V30 264 C 26.7027 1.54797 -1.17762 0
M  V30 265 O 25.9577 1.94237 -0.238835 0
M  V30 266 C 26.2567 0.736119 -3.49737 0
M  V30 267 C 25.9227 -0.385276 -4.49251 0
M  V30 268 C 24.5847 -0.693156 -4.76181 0
M  V30 269 C 26.9367 -1.14021 -5.08575 0
M  V30 270 C 24.2647 -1.7593 -5.59701 0
M  V30 271 C 26.6167 -2.19619 -5.93254 0
M  V30 272 C 25.2807 -2.51026 -6.185 0
M  V30 273 H 24.5507 0.118384 -0.731482 0
M  V30 274 H 27.1977 -0.405847 -1.8715 0
M  V30 275 H 25.5027 1.54539 -3.60035 0
M  V30 276 H 27.1997 1.22118 -3.81953 0
M  V30 277 H 23.7897 -0.135202 -4.28387 0
M  V30 278 H 27.9737 -0.915611 -4.87781 0
M  V30 279 H 23.2297 -2.0075 -5.77503 0
M  V30 280 H 27.4037 -2.78581 -6.38252 0
M  V30 281 H 25.0307 -3.33772 -6.83008 0
M  V30 282 N 26.6058 1.57591 -0.0167156 0
M  V30 283 C 27.8528 1.91283 0.664597 0
M  V30 284 C 28.1808 0.891949 1.72842 0
M  V30 285 O 27.4358 -0.100931 1.9544 0
M  V30 286 C 27.7348 3.3172 1.33029 0
M  V30 287 C 27.4008 4.4914 0.398047 0
M  V30 288 C 26.0628 4.80992 0.141421 0
M  V30 289 C 28.4148 5.20634 -0.242825 0
M  V30 290 C 25.7428 5.81703 -0.764092 0
M  V30 291 C 28.0948 6.22311 -1.13632 0
M  V30 292 C 26.7588 6.52611 -1.40196 0
M  V30 293 H 26.0288 0.699956 0.243193 0
M  V30 294 H 28.6758 1.9135 -0.0758267 0
M  V30 295 H 26.9808 3.27856 2.14517 0
M  V30 296 H 28.6778 3.55055 1.86379 0
M  V30 297 H 25.2678 4.24262 0.608238 0
M  V30 298 H 29.4518 4.96267 -0.0576019 0
M  V30 299 H 24.7078 6.03532 -0.977732 0
M  V30 300 H 28.8818 6.76834 -1.63917 0
M  V30 301 H 26.5088 7.30467 -2.10529 0
M  V30 302 N 28.0839 -0.256276 1.55502 0
M  V30 303 C 29.3299 -0.987079 1.77157 0
M  V30 304 C 29.6629 -1.85327 0.580315 0
M  V30 305 O 28.9379 -1.89874 -0.421686 0
M  V30 306 C 29.2209 -1.85553 3.08613 0
M  V30 307 C 29.0739 -1.01816 4.38125 0
M  V30 308 C 30.3929 -2.8397 3.36228 0
M  V30 309 H 27.5119 -0.357428 0.644526 0
M  V30 310 H 30.1539 -0.258239 1.88237 0
M  V30 311 H 28.3039 -2.47695 2.99298 0
M  V30 312 H 29.9759 -0.416159 4.59419 0
M  V30 313 H 28.2189 -0.322178 4.32602 0
M  V30 314 H 28.8899 -1.65939 5.26468 0
M  V30 315 H 31.3659 -2.31964 3.45445 0
M  V30 316 H 30.2419 -3.41864 4.29442 0
M  V30 317 H 30.5029 -3.59955 2.56681 0
M  V30 318 N 29.562 -1.4872 -0.521534 0
M  V30 319 C 30.494 -1.59968 -1.64143 0
M  V30 320 C 31.507 -0.483463 -1.55456 0
M  V30 321 O 32.696 -0.75467 -1.61762 0
M  V30 322 C 29.796 -1.52127 -3.02838 0
M  V30 323 C 28.969 -2.78932 -3.36921 0
M  V30 324 C 28.028 -2.64428 -4.54933 0
M  V30 325 O 27.054 -3.38331 -4.57735 0
M  V30 326 N 28.256 -1.74606 -5.53618 0
M  V30 327 H 31.021 -2.56548 -1.54929 0
M  V30 328 H 28.582 -1.45551 -0.708988 0
M  V30 329 H 30.574 -1.40106 -3.79674 0
M  V30 330 H 29.144 -0.634868 -3.06085 0
M  V30 331 H 28.364 -3.05455 -2.4918 0
M  V30 332 H 29.652 -3.63041 -3.56481 0
M  V30 333 H 29.05 -1.13782 -5.54139 0
M  V30 334 H 27.607 -1.6852 -6.29638 0
M  V30 335 N 31.0401 0.771051 -1.3745 0
M  V30 336 C 32.2681 1.56015 -1.35893 0
M  V30 337 C 32.6831 1.88718 0.0555523 0
M  V30 338 O 32.0401 1.51502 1.01752 0
M  V30 339 C 32.0911 2.87001 -2.19801 0
M  V30 340 O 31.8121 2.557 -3.55738 0
M  V30 341 C 33.3131 3.81228 -2.26231 0
M  V30 342 H 30.5331 0.483317 -0.465453 0
M  V30 343 H 33.0771 0.955611 -1.80799 0
M  V30 344 H 31.2321 3.43877 -1.78402 0
M  V30 345 H 31.6461 3.39584 -3.99729 0
M  V30 346 H 33.1201 4.70139 -2.89263 0
M  V30 347 H 33.5971 4.20409 -1.27093 0
M  V30 348 H 34.2031 3.30281 -2.67945 0
M  V30 349 N 32.5182 1.22032 0.997298 0
M  V30 350 C 33.7582 1.05375 1.75144 0
M  V30 351 C 34.1222 -0.404696 1.87686 0
M  V30 352 O 35.3232 -0.691998 2.5974 0
M  V30 353 C 33.5942 1.74046 3.12158 0
M  V30 354 S 35.1532 1.72745 4.03366 0
M  V30 355 H 31.9712 0.377449 0.602539 0
M  V30 356 H 34.5732 1.54902 1.19272 0
M  V30 357 H 33.2772 2.79332 3.00669 0
M  V30 358 H 32.8082 1.24731 3.73103 0
M  V30 359 H 34.8232 0.774015 4.90126 0
M  V30 360 N 33.9963 -1.19345 1.0293 0
M  V30 361 C 35.4123 -1.41069 0.746446 0
M  V30 362 C 35.6123 -1.90078 -0.668776 0
M  V30 363 O 34.6683 -2.0778 -1.4347 0
M  V30 364 C 35.9813 -2.42141 1.78292 0
M  V30 365 C 37.5293 -2.55887 1.80252 0
M  V30 366 C 38.0043 -3.60214 2.8286 0
M  V30 367 N 39.4953 -3.67711 2.81679 0
M  V30 368 C 40.2303 -4.48128 3.57727 0
M  V30 369 N 39.7263 -5.32248 4.43491 0
M  V30 370 N 41.5193 -4.42782 3.46267 0
M  V30 371 H 33.6703 -0.858536 1.94275 0
M  V30 372 H 35.9333 -0.439541 0.839945 0
M  V30 373 H 35.6393 -2.13155 2.79746 0
M  V30 374 H 35.5133 -3.41323 1.60557 0
M  V30 375 H 37.9003 -2.84196 0.794757 0
M  V30 376 H 37.9813 -1.56858 2.02062 0
M  V30 377 H 37.6253 -3.32647 3.83807 0
M  V30 378 H 37.5553 -4.58895 2.58307 0
M  V30 379 H 40.0463 -3.07634 2.19476 0
M  V30 380 H 40.3593 -5.90729 4.98256 0
M  V30 381 H 38.7043 -5.31707 4.47564 0
M  V30 382 H 41.8953 -3.76107 2.78677 0
M  V30 383 H 42.0683 -5.05215 4.05785 0
M  V30 384 N 35.4744 -0.807222 -1.35358 0
M  V30 385 C 36.3844 -0.219594 -2.3357 0
M  V30 386 C 37.4004 0.637734 -1.61892 0
M  V30 387 O 38.5764 0.549336 -1.93763 0
M  V30 388 C 35.6414 0.62158 -3.41083 0
M  V30 389 C 34.7024 -0.256315 -4.28534 0
M  V30 390 C 33.9354 0.544807 -5.30912 0
M  V30 391 O 34.1584 1.77944 -5.41934 0
M  V30 392 O 33.0924 -0.0646478 -6.01865 0
M  V30 393 H 36.9184 -1.03208 -2.85625 0
M  V30 394 H 34.5034 -0.569025 -1.38139 0
M  V30 395 H 36.3854 1.10067 -4.06772 0
M  V30 396 H 35.0604 1.41165 -2.91297 0
M  V30 397 H 33.9674 -0.782559 -3.65823 0
M  V30 398 H 35.3004 -1.01034 -4.81719 0
M  V30 399 N 36.9525 1.47285 -0.560781 0
M  V30 400 C 37.8625 2.33846 0.187954 0
M  V30 401 C 38.8785 1.48412 0.908293 0
M  V30 402 O 40.0545 1.81332 0.876388 0
M  V30 403 C 37.1195 3.25178 1.2025 0
M  V30 404 C 36.1805 4.26504 0.489208 0
M  V30 405 C 35.4135 5.13472 1.45542 0
M  V30 406 O 35.6365 5.02959 2.6905 0
M  V30 407 O 34.5705 5.93902 0.977963 0
M  V30 408 H 38.3965 2.99177 -0.522177 0
M  V30 409 H 35.9815 1.45903 -0.321364 0
M  V30 410 H 37.8635 3.81584 1.78805 0
M  V30 411 H 36.5385 2.6247 1.89449 0
M  V30 412 H 35.4455 3.73847 -0.137627 0
M  V30 413 H 36.7785 4.91935 -0.161399 0
M  V30 414 N 38.4306 0.297415 1.54768 0
M  V30 415 C 39.3806 -0.595275 2.20092 0
M  V30 416 C 40.3646 -1.10163 1.17273 0
M  V30 417 O 41.5566 -1.043 1.43006 0
M  V30 418 C 38.6856 -1.7684 2.94249 0
M  V30 419 C 37.7716 -1.27818 4.0438 0
M  V30 420 N 38.1626 -0.505695 5.03266 0
M  V30 421 C 36.4606 -1.55923 4.17857 0
M  V30 422 C 37.1616 -0.245094 5.81183 0
M  V30 423 N 36.1376 -0.823881 5.3732 0
M  V30 424 H 39.9396 0.00250837 2.939 0
M  V30 425 H 37.4536 0.102007 1.62079 0
M  V30 426 H 39.4506 -2.41944 3.39513 0
M  V30 427 H 38.1106 -2.36992 2.21957 0
M  V30 428 H 39.1216 -0.150928 5.1768 0
M  V30 429 H 35.7986 -2.16849 3.56767 0
M  V30 430 H 37.1886 0.375084 6.70852 0
M  V30 431 N 39.9087 -1.5758 0.0250728 0
M  V30 432 C 40.8557 -2.09973 -0.958129 0
M  V30 433 C 41.8257 -1.00085 -1.3256 0
M  V30 434 O 43.0107 -1.27481 -1.41962 0
M  V30 435 C 40.1507 -2.62812 -2.2366 0
M  V30 436 C 39.2637 -3.86693 -1.92594 0
M  V30 437 C 38.3987 -4.27941 -3.14707 0
M  V30 438 C 37.4377 -5.44591 -2.79442 0
M  V30 439 N 36.5747 -5.81014 -3.94167 0
M  V30 440 H 41.4147 -2.937 -0.504428 0
M  V30 441 H 38.9517 -1.45172 -0.237392 0
M  V30 442 H 40.9097 -2.91536 -2.98434 0
M  V30 443 H 39.5397 -1.81922 -2.66654 0
M  V30 444 H 38.5917 -3.64723 -1.0808 0
M  V30 445 H 39.9037 -4.71547 -1.62619 0
M  V30 446 H 39.0577 -4.58079 -3.97804 0
M  V30 447 H 37.7967 -3.41845 -3.4784 0
M  V30 448 H 36.8017 -5.1415 -1.94755 0
M  V30 449 H 38.0267 -6.32382 -2.47528 0
M  V30 450 H 35.9727 -4.97874 -4.2715 0
M  V30 451 H 35.8897 -6.60498 -3.67801 0
M  V30 452 H 37.1577 -6.15756 -4.7798 0
M  V30 453 N 41.3868 0.248026 -1.55636 0
M  V30 454 C 42.3338 1.30707 -1.90222 0
M  V30 455 C 43.3038 1.47881 -0.756332 0
M  V30 456 O 44.4888 1.61883 -1.00988 0
M  V30 457 C 41.6288 2.65769 -2.20138 0
M  V30 458 C 40.7418 2.56612 -3.47526 0
M  V30 459 C 39.8768 3.8402 -3.67017 0
M  V30 460 C 38.9158 3.69476 -4.8801 0
M  V30 461 N 38.0528 4.88774 -5.04029 0
M  V30 462 H 42.8928 1.00512 -2.80538 0
M  V30 463 H 40.4298 0.485055 -1.38873 0
M  V30 464 H 42.3878 3.44386 -2.35487 0
M  V30 465 H 41.0178 2.94115 -1.33027 0
M  V30 466 H 40.0698 1.69571 -3.40514 0
M  V30 467 H 41.3818 2.41774 -4.36287 0
M  V30 468 H 40.5358 4.7108 -3.8232 0
M  V30 469 H 39.2748 4.01754 -2.76487 0
M  V30 470 H 38.2798 2.80799 -4.72686 0
M  V30 471 H 39.5048 3.53238 -5.8 0
M  V30 472 H 37.4508 5.0687 -4.16435 0
M  V30 473 H 37.3678 4.76562 -5.86877 0
M  V30 474 H 38.6358 5.77335 -5.23741 0
M  V30 475 N 42.8649 1.48995 0.513639 0
M  V30 476 C 43.8119 1.6473 1.61656 0
M  V30 477 C 44.7819 0.488984 1.58739 0
M  V30 478 O 45.9669 0.714478 1.76918 0
M  V30 479 C 43.1069 1.7082 2.99858 0
M  V30 480 C 42.2199 2.9787 3.12885 0
M  V30 481 C 41.3549 2.95017 4.41744 0
M  V30 482 C 40.3939 4.16702 4.48359 0
M  V30 483 N 39.5309 4.11832 5.68629 0
M  V30 484 H 44.3709 2.58909 1.47547 0
M  V30 485 H 41.9079 1.28382 0.71808 0
M  V30 486 H 43.8659 1.72331 3.79944 0
M  V30 487 H 42.4959 0.801181 3.12699 0
M  V30 488 H 41.5479 3.06029 2.25944 0
M  V30 489 H 42.8599 3.8786 3.13633 0
M  V30 490 H 42.0139 2.95021 5.30139 0
M  V30 491 H 40.7529 2.02784 4.43542 0
M  V30 492 H 39.7579 4.16955 3.58369 0
M  V30 493 H 40.9829 5.10113 4.48287 0
M  V30 494 H 38.9289 3.22428 5.71293 0
M  V30 495 H 38.8459 4.95543 5.7094 0
M  V30 496 H 40.1139 4.1592 6.59266 0
M  V30 497 N 44.343 -0.763751 1.37857 0
M  V30 498 C 45.293 -1.86765 1.30777 0
M  V30 499 C 46.277 -1.59726 0.194015 0
M  V30 500 O 47.469 -1.7172 0.42911 0
M  V30 501 C 44.598 -3.24343 1.12502 0
M  V30 502 C 43.684 -3.57307 2.28456 0
M  V30 503 N 44.075 -3.61398 3.53871 0
M  V30 504 C 42.373 -3.87517 2.20786 0
M  V30 505 C 43.074 -3.91339 4.30382 0
M  V30 506 N 42.05 -4.07649 3.59615 0
M  V30 507 H 45.852 -1.88191 2.25746 0
M  V30 508 H 43.366 -0.9606 1.30944 0
M  V30 509 H 45.363 -4.03327 1.05514 0
M  V30 510 H 44.023 -3.24175 0.184574 0
M  V30 511 H 45.034 -3.43407 3.87675 0
M  V30 512 H 41.711 -3.95125 1.34844 0
M  V30 513 H 43.101 -4.01213 5.3896 0
M  V30 514 N 45.8211 -1.22559 -0.990812 0
M  V30 515 C 47.2321 -1.04791 -1.54518 0
M  V30 516 C 47.5831 0.387998 -1.92325 0
M  V30 517 O 46.7081 1.27328 -1.74976 0
M  V30 518 C 47.3031 -1.896 -2.80779 0
M  V30 519 C 45.8621 -1.76124 -3.32652 0
M  V30 520 C 45.0091 -1.8594 -2.05722 0
M  V30 521 H 47.9601 -1.36374 -0.811662 0
M  V30 522 H 47.9811 -1.41464 -3.53225 0
M  V30 523 H 47.4931 -2.94101 -2.53231 0
M  V30 524 H 45.5941 -0.743643 -3.65104 0
M  V30 525 H 45.7071 -2.58913 -4.03114 0
M  V30 526 H 44.0711 -1.29403 -2.19379 0
M  V30 527 H 44.8541 -2.91976 -1.80568 0
M  V30 528 N 47.2992 1.18797 -1.03562 0
M  V30 529 C 48.5762 1.84469 -0.650434 0
M  V30 530 C 48.9562 1.92319 0.870433 0
M  V30 531 O 48.3042 1.44528 1.76986 0
M  V30 532 C 48.5142 3.2306 -1.32036 0
M  V30 533 C 49.8622 3.9915 -1.44792 0
M  V30 534 O 50.8862 3.32481 -1.27806 0
M  V30 535 O 49.7452 5.18587 -1.72423 0
M  V30 536 H 46.8392 0.795251 -0.226946 0
M  V30 537 H 49.3852 1.26231 -1.13419 0
M  V30 538 H 48.1572 3.1222 -2.3587 0
M  V30 539 H 47.7802 3.88949 -0.8249 0
M  V30 540 N 48.7773 0.814389 1.34928 0
M  V30 541 C 49.7403 0.235759 2.27984 0
M  V30 542 C 50.7403 -0.581412 1.49921 0
M  V30 543 O 51.9303 -0.398758 1.69575 0
M  V30 544 C 49.0623 -0.670433 3.34242 0
M  V30 545 H 50.2553 1.05659 2.80671 0
M  V30 546 H 47.8083 0.585614 1.44915 0
M  V30 547 H 48.5433 -1.51466 2.86755 0
M  V30 548 H 48.3283 -0.0860822 3.92005 0
M  V30 549 H 49.8183 -1.06935 4.03676 0
M  V30 550 N 50.2554 -1.46986 0.568584 0
M  V30 551 C 51.4804 -2.07335 0.0520528 0
M  V30 552 C 51.9054 -1.41675 -1.23733 0
M  V30 553 O 51.2634 -0.495623 -1.74394 0
M  V30 554 C 51.3114 -3.60417 -0.11501 0
M  V30 555 O 50.4154 -3.95309 -1.17492 0
M  V30 556 H 49.7564 -0.661597 0.0564385 0
M  V30 557 H 52.2864 -1.88837 0.787507 0
M  V30 558 H 52.2964 -4.06698 -0.325644 0
M  V30 559 H 50.9714 -4.07601 0.826675 0
M  V30 560 H 49.5484 -3.60757 -0.943869 0
M  V30 561 N 51.7335 -0.305618 -1.54608 0
M  V30 562 C 52.9795 0.302746 -2.00528 0
M  V30 563 C 53.3125 1.53184 -1.19367 0
M  V30 564 O 52.5875 1.92598 -0.271321 0
M  V30 565 C 52.8705 0.654756 -3.54097 0
M  V30 566 C 52.7235 -0.583793 -4.45995 0
M  V30 567 C 54.0425 1.47947 -4.14487 0
M  V30 568 H 51.1615 0.108564 -0.72896 0
M  V30 569 H 53.8035 -0.418634 -1.85331 0
M  V30 570 H 51.9535 1.26935 -3.67178 0
M  V30 571 H 53.6255 -1.22224 -4.44814 0
M  V30 572 H 51.8685 -1.21615 -4.16404 0
M  V30 573 H 52.5395 -0.293287 -5.5122 0
M  V30 574 H 55.0155 0.96013 -4.04871 0
M  V30 575 H 53.8915 1.69454 -5.22088 0
M  V30 576 H 54.1525 2.47011 -3.66658 0
M  V30 577 N 53.2116 1.57565 -0.0334293 0
M  V30 578 C 54.1596 2.1164 0.96496 0
M  V30 579 C 55.1536 1.04398 1.33407 0
M  V30 580 O 56.3596 1.22828 1.3158 0
M  V30 581 H 52.7346 0.676222 0.32898 0
M  V30 582 H 54.7056 2.94455 0.483614 0
M  V30 583 C 53.4546 2.66207 2.23672 0
M  V30 584 H 52.7776 3.48378 1.96145 0
M  V30 585 H 54.2176 3.07685 2.9173 0
M  V30 586 C 52.6766 1.59151 2.96939 0
M  V30 587 O 53.2066 0.993858 3.89211 0
M  V30 588 N 51.4126 1.31093 2.59351 0
M  V30 589 H 50.9596 1.7988 1.84393 0
M  V30 590 H 50.9176 0.596889 3.08682 0
M  V30 591 N 54.6897 -0.239769 1.55765 0
M  V30 592 C 55.9367 -0.966801 1.7793 0
M  V30 593 C 56.2647 -1.85046 0.599015 0
M  V30 594 O 55.5197 -1.91197 -0.417395 0
M  V30 595 C 55.8187 -1.852 3.05672 0
M  V30 596 C 55.4847 -1.1231 4.36689 0
M  V30 597 C 54.1467 -0.921689 4.72291 0
M  V30 598 C 56.4987 -0.607019 5.17653 0
M  V30 599 C 53.8267 -0.191996 5.86386 0
M  V30 600 C 56.1787 0.109241 6.32506 0
M  V30 601 C 54.8427 0.322073 6.66723 0
M  V30 602 H 54.1127 -0.353778 0.651093 0
M  V30 603 H 56.7597 -0.23634 1.90036 0
M  V30 604 H 55.0647 -2.64975 2.8861 0
M  V30 605 H 56.7617 -2.41635 3.20021 0
M  V30 606 H 53.3517 -1.29004 4.08725 0
M  V30 607 H 57.5357 -0.750153 4.90598 0
M  V30 608 H 52.7917 -0.0166949 6.11398 0
M  V30 609 H 56.9657 0.516737 6.9448 0
M  V30 610 H 54.5927 0.88944 7.54979 0
M  V30 611 N 56.1678 -1.49265 -0.50573 0
M  V30 612 C 57.3928 -1.62478 -1.28902 0
M  V30 613 C 57.8178 -0.294332 -1.85783 0
M  V30 614 O 57.1758 0.737412 -1.65626 0
M  V30 615 C 57.2238 -2.69268 -2.39848 0
M  V30 616 O 56.3278 -2.28113 -3.43567 0
M  V30 617 H 55.6688 -0.54399 -0.380751 0
M  V30 618 H 58.1988 -1.95421 -0.605952 0
M  V30 619 H 58.2088 -2.91291 -2.85681 0
M  V30 620 H 56.8838 -3.65846 -1.97812 0
M  V30 621 H 55.4608 -2.16401 -3.03685 0
M  V30 622 N 57.6459 0.756429 -1.3826 0
M  V30 623 C 58.5559 1.9009 -1.37488 0
M  V30 624 C 59.5719 1.71855 -0.272366 0
M  V30 625 O 60.7479 1.94827 -0.510318 0
M  V30 626 C 57.8129 3.25421 -1.19592 0
M  V30 627 C 56.8739 3.56202 -2.39622 0
M  V30 628 C 56.1069 4.85075 -2.2257 0
M  V30 629 O 56.3299 5.57246 -1.21793 0
M  V30 630 O 55.2639 5.15269 -3.11098 0
M  V30 631 H 59.0899 1.93695 -2.33914 0
M  V30 632 H 56.6749 0.901313 -1.1915 0
M  V30 633 H 58.5569 4.06337 -1.11661 0
M  V30 634 H 57.2319 3.22634 -0.262486 0
M  V30 635 H 56.1389 2.75458 -2.53128 0
M  V30 636 H 57.4719 3.63747 -3.31586 0
M  V30 637 N 59.124 1.23083 0.984299 0
M  V30 638 C 60.371 1.06057 1.72505 0
M  V30 639 C 60.699 -0.403105 1.90277 0
M  V30 640 O 59.954 -1.3149 1.44944 0
M  V30 641 C 60.253 1.72673 3.1292 0
M  V30 642 C 59.919 3.22586 3.15038 0
M  V30 643 C 58.581 3.63489 3.15324 0
M  V30 644 C 60.933 4.185 3.10657 0
M  V30 645 C 58.261 4.98772 3.08939 0
M  V30 646 C 60.613 5.53769 3.05814 0
M  V30 647 C 59.277 5.94041 3.04419 0
M  V30 648 H 58.547 0.388091 0.631242 0
M  V30 649 H 61.194 1.52963 1.15215 0
M  V30 650 H 59.499 1.18116 3.73572 0
M  V30 651 H 61.196 1.56982 3.68996 0
M  V30 652 H 57.786 2.90022 3.15571 0
M  V30 653 H 61.97 3.87911 3.09579 0
M  V30 654 H 57.226 5.29193 3.0621 0
M  V30 655 H 61.4 6.27808 3.0138 0
M  V30 656 H 59.027 6.98833 2.99227 0
M  V30 657 N 60.6021 -1.18246 1.0419 0
M  V30 658 C 61.8271 -1.92736 0.765996 0
M  V30 659 C 62.2521 -1.75728 -0.67091 0
M  V30 660 O 61.6101 -1.06825 -1.46486 0
M  V30 661 C 61.6581 -3.42148 1.13875 0
M  V30 662 O 60.7621 -4.11548 0.264954 0
M  V30 663 H 60.1031 -0.601238 0.281797 0
M  V30 664 H 62.6331 -1.49942 1.39207 0
M  V30 665 H 62.6431 -3.92858 1.1012 0
M  V30 666 H 61.3181 -3.53848 2.18551 0
M  V30 667 H 59.8951 -3.71137 0.362226 0
M  V30 668 N 62.0802 -0.821533 -1.34494 0
M  V30 669 C 63.0272 -0.240397 -2.29545 0
M  V30 670 C 63.9972 0.634031 -1.53523 0
M  V30 671 O 65.1822 0.575966 -1.81899 0
M  V30 672 C 62.3222 0.592869 -3.39969 0
M  V30 673 C 61.4352 -0.30365 -4.30932 0
M  V30 674 C 60.5702 0.539049 -5.28458 0
M  V30 675 C 59.6092 -0.356942 -6.11058 0
M  V30 676 N 58.7462 0.446603 -7.00678 0
M  V30 677 H 63.5862 -1.05632 -2.7865 0
M  V30 678 H 61.1232 -0.532413 -1.37127 0
M  V30 679 H 63.0812 1.09129 -4.02675 0
M  V30 680 H 61.7112 1.37392 -2.92102 0
M  V30 681 H 60.7632 -0.920276 -3.691 0
M  V30 682 H 62.0752 -0.992661 -4.88823 0
M  V30 683 H 61.2292 1.102 -5.96608 0
M  V30 684 H 59.9682 1.26157 -4.71101 0
M  V30 685 H 58.9732 -0.932047 -5.41842 0
M  V30 686 H 60.1982 -1.07755 -6.70497 0
M  V30 687 H 58.1442 1.15282 -6.45791 0
M  V30 688 H 58.0612 -0.184048 -7.55776 0
M  V30 689 H 59.3292 0.992352 -7.73158 0
M  V30 690 N 63.5583 1.46682 -0.576371 0
M  V30 691 C 64.5053 2.30241 0.160499 0
M  V30 692 C 65.4753 1.40233 0.890162 0
M  V30 693 O 66.6603 1.69186 0.882084 0
M  V30 694 C 63.8003 3.24578 1.1723 0
M  V30 695 C 62.9133 4.29684 0.446736 0
M  V30 696 C 62.0483 5.11154 1.44551 0
M  V30 697 C 61.0873 6.08015 0.70599 0
M  V30 698 N 60.2243 6.82376 1.65251 0
M  V30 699 H 65.0643 2.92727 -0.558127 0
M  V30 700 H 62.6013 1.44272 -0.287056 0
M  V30 701 H 64.5593 3.77711 1.77172 0
M  V30 702 H 63.1893 2.63916 1.85872 0
M  V30 703 H 62.2413 3.79458 -0.267594 0
M  V30 704 H 63.5533 4.98626 -0.131686 0
M  V30 705 H 62.7073 5.68533 2.11791 0
M  V30 706 H 61.4463 4.42158 2.05786 0
M  V30 707 H 60.4513 5.49796 0.0197725 0
M  V30 708 H 61.6763 6.79028 0.09912 0
M  V30 709 H 59.6223 6.16094 2.25308 0
M  V30 710 H 59.5393 7.47556 1.12673 0
M  V30 711 H 60.8073 7.44316 2.31546 0
M  V30 712 N 65.0364 0.313813 1.54444 0
M  V30 713 C 66.2764 -0.292389 2.02298 0
M  V30 714 C 66.6404 -1.50105 1.19719 0
M  V30 715 O 67.8414 -2.17947 1.5733 0
M  V30 716 C 66.1124 -0.627682 3.51845 0
M  V30 717 S 67.6714 -1.21493 4.21646 0
M  V30 718 H 64.4894 -0.0890247 0.705405 0
M  V30 719 H 67.0914 0.444668 1.90376 0
M  V30 720 H 65.7954 0.260265 4.09574 0
M  V30 721 H 65.3264 -1.39519 3.67829 0
M  V30 722 H 67.3414 -2.5022 4.28491 0
M  V30 723 N 66.5145 -1.57545 0.0417849 0
M  V30 724 C 67.7395 -1.97035 -0.647455 0
M  V30 725 C 68.1645 -0.918775 -1.64135 0
M  V30 726 O 67.5225 0.119006 -1.80909 0
M  V30 727 C 67.5705 -3.35609 -1.31905 0
M  V30 728 O 66.6745 -3.3287 -2.43457 0
M  V30 729 H 66.0155 -0.64211 -0.169086 0
M  V30 730 H 68.5455 -2.04318 0.107399 0
M  V30 731 H 68.5555 -3.72126 -1.67291 0
M  V30 732 H 67.2305 -4.11685 -0.590586 0
M  V30 733 H 65.8075 -3.08087 -2.10088 0
M  V30 734 N 67.9926 0.231505 -1.5589 0
M  V30 735 C 68.9026 1.308 -1.94752 0
M  V30 736 C 69.9186 1.51826 -0.849989 0
M  V30 737 O 71.0946 1.6515 -1.15271 0
M  V30 738 C 68.1596 2.63968 -2.24771 0
M  V30 739 C 67.2206 2.51331 -3.48039 0
M  V30 740 C 66.4536 3.78148 -3.76616 0
M  V30 741 O 66.6766 4.80722 -3.07022 0
M  V30 742 O 65.6106 3.75857 -4.70123 0
M  V30 743 H 69.4366 1.0083 -2.86474 0
M  V30 744 H 67.0216 0.433547 -1.42971 0
M  V30 745 H 68.9036 3.42633 -2.45318 0
M  V30 746 H 67.5786 2.9364 -1.36225 0
M  V30 747 H 66.4856 1.709 -3.32782 0
M  V30 748 H 67.8186 2.26601 -4.36936 0
M  V30 749 N 69.4707 1.49531 0.497807 0
M  V30 750 C 70.8867 1.36365 0.829266 0
M  V30 751 C 71.0867 0.399184 1.97506 0
M  V30 752 O 70.1427 -0.167977 2.51941 0
M  V30 753 C 71.4557 2.77153 1.16647 0
M  V30 754 C 73.0037 2.85877 1.27449 0
M  V30 755 C 73.4787 4.2744 1.64497 0
M  V30 756 N 74.9697 4.30265 1.7154 0
M  V30 757 C 75.7047 5.3677 2.01656 0
M  V30 758 N 75.2007 6.53516 2.29976 0
M  V30 759 N 76.9937 5.24189 2.02934 0
M  V30 760 H 69.1447 2.10831 -0.257703 0
M  V30 761 H 71.4077 0.946534 -0.0527091 0
M  V30 762 H 71.1137 3.49442 0.397872 0
M  V30 763 H 70.9877 3.12722 2.10915 0
M  V30 764 H 73.3747 2.13824 2.0338 0
M  V30 765 H 73.4557 2.53887 0.312244 0
M  V30 766 H 73.0997 5.00021 0.891151 0
M  V30 767 H 73.0297 4.56896 2.61827 0
M  V30 768 H 75.5207 3.4607 1.51802 0
M  V30 769 H 75.8337 7.30506 2.52153 0
M  V30 770 H 74.1787 6.56737 2.27425 0
M  V30 771 H 77.3697 4.31988 1.80289 0
M  V30 772 H 77.5427 6.07286 2.26071 0
M  V30 773 N 70.9488 -0.749086 1.3866 0
M  V30 774 C 72.1948 -1.50959 1.36319 0
M  V30 775 C 72.5498 -1.92347 -0.0452451 0
M  V30 776 O 71.8428 -1.6289 -1.00884 0
M  V30 777 C 72.0368 -2.7712 2.25697 0
M  V30 778 C 71.8658 -2.48067 3.7509 0
M  V30 779 C 70.6358 -2.41062 4.44091 0
M  V30 780 C 72.8338 -2.14544 4.67414 0
M  V30 781 N 70.8158 -2.04331 5.78897 0
M  V30 782 C 72.1868 -1.88141 5.90765 0
M  V30 783 C 74.2418 -2.00892 4.55573 0
M  V30 784 C 72.9448 -1.49463 7.036 0
M  V30 785 C 74.9708 -1.63616 5.68317 0
M  V30 786 C 74.3328 -1.38088 6.90732 0
M  V30 787 H 70.4318 -0.551804 0.554108 0
M  V30 788 H 73.0158 -0.871886 1.74087 0
M  V30 789 H 71.1868 -3.38693 1.9011 0
M  V30 790 H 72.9188 -3.4321 2.1445 0
M  V30 791 H 69.6738 -2.57685 3.9736 0
M  V30 792 H 70.0978 -1.88598 6.502 0
M  V30 793 H 74.7398 -2.19301 3.61479 0
M  V30 794 H 72.4578 -1.29794 7.97608 0
M  V30 795 H 76.0438 -1.53678 5.61137 0
M  V30 796 H 74.9238 -1.09674 7.76493 0
M  V30 797 N 72.4269 -1.23603 -0.977757 0
M  V30 798 C 73.3739 -1.01954 -2.07061 0
M  V30 799 C 74.3439 0.0638697 -1.65977 0
M  V30 800 O 75.5289 -0.0887624 -1.90593 0
M  V30 801 C 72.6689 -0.619658 -3.39491 0
M  V30 802 C 71.7819 -1.77547 -3.93829 0
M  V30 803 C 70.9169 -1.32212 -5.14484 0
M  V30 804 C 69.9559 -2.44852 -5.60994 0
M  V30 805 N 69.0929 -2.00456 -6.72876 0
M  V30 806 H 73.9329 -1.95495 -2.24913 0
M  V30 807 H 71.4699 -0.973861 -1.10247 0
M  V30 808 H 73.4279 -0.368898 -4.15566 0
M  V30 809 H 72.0579 0.278752 -3.21594 0
M  V30 810 H 71.1099 -2.14016 -3.14486 0
M  V30 811 H 72.4219 -2.62219 -4.24314 0
M  V30 812 H 71.5759 -1.02965 -5.97899 0
M  V30 813 H 70.3149 -0.445808 -4.85658 0
M  V30 814 H 69.3199 -2.74871 -4.76157 0
M  V30 815 H 70.5449 -3.33024 -5.91837 0
M  V30 816 H 68.4909 -1.15208 -6.45804 0
M  V30 817 H 68.4079 -2.78687 -7.02759 0
M  V30 818 H 69.6759 -1.7432 -7.59758 0
M  V30 819 N 73.905 1.17692 -1.04816 0
M  V30 820 C 75.133 1.91786 -0.776254 0
M  V30 821 C 75.548 1.76604 0.667577 0
M  V30 822 O 74.905 1.10067 1.45573 0
M  V30 823 C 74.956 3.42967 -1.14263 0
M  V30 824 O 74.677 3.57678 -2.52978 0
M  V30 825 C 76.178 4.34144 -0.896311 0
M  V30 826 H 73.398 0.608624 -0.282519 0
M  V30 827 H 75.942 1.49268 -1.39783 0
M  V30 828 H 74.097 3.83245 -0.565874 0
M  V30 829 H 74.511 4.51319 -2.67229 0
M  V30 830 H 75.985 5.38744 -1.20244 0
M  V30 831 H 76.462 4.38876 0.168636 0
M  V30 832 H 77.068 3.99574 -1.45672 0
M  V30 833 N 75.3831 0.828654 1.34056 0
M  V30 834 C 76.3161 0.199763 2.27324 0
M  V30 835 C 77.2941 -0.647168 1.49166 0
M  V30 836 O 78.4781 -0.609661 1.78369 0
M  V30 837 C 75.6051 -0.720455 3.30949 0
M  V30 838 C 74.6511 0.0496888 4.26471 0
M  V30 839 S 75.4841 1.40072 5.16856 0
M  V30 840 C 76.6401 0.485527 6.24014 0
M  V30 841 H 76.8731 0.990478 2.80316 0
M  V30 842 H 74.4061 0.624857 1.41191 0
M  V30 843 H 76.3641 -1.24581 3.91139 0
M  V30 844 H 75.0251 -1.48474 2.76793 0
M  V30 845 H 74.2181 -0.650104 4.9979 0
M  V30 846 H 73.8201 0.505779 3.70564 0
M  V30 847 H 76.1121 -0.320672 6.76741 0
M  V30 848 H 77.0551 1.18856 6.98054 0
M  V30 849 H 77.4631 0.0714109 5.64455 0
M  V30 850 N 76.8612 -1.46375 0.584142 0
M  V30 851 C 78.0862 -2.07268 0.0740405 0
M  V30 852 C 78.5112 -1.42979 -1.22223 0
M  V30 853 O 77.8692 -0.514092 -1.73859 0
M  V30 854 C 77.9172 -3.60518 -0.0767769 0
M  V30 855 O 77.0212 -3.96533 -1.13292 0
M  V30 856 H 76.3622 -0.660961 0.0634524 0
M  V30 857 H 78.8922 -1.87991 0.807492 0
M  V30 858 H 78.9022 -4.07021 -0.282489 0
M  V30 859 H 77.5772 -4.06702 0.86986 0
M  V30 860 H 76.1542 -3.61738 -0.905553 0
M  V30 861 N 78.3393 -0.321999 -1.54275 0
M  V30 862 C 79.3023 0.531975 -2.22941 0
M  V30 863 C 80.3023 1.04478 -1.22234 0
M  V30 864 O 81.4923 0.937452 -1.46825 0
M  V30 865 C 78.6243 1.73874 -2.93224 0
M  V30 866 H 79.8173 -0.0682612 -2.99822 0
M  V30 867 H 77.3703 -0.0730644 -1.56129 0
M  V30 868 H 78.1053 2.37825 -2.20476 0
M  V30 869 H 77.8903 1.37847 -3.6707 0
M  V30 870 H 79.3803 2.34496 -3.45545 0
M  V30 871 N 79.8174 1.5752 -0.0501392 0
M  V30 872 C 80.7644 2.1147 0.924603 0
M  V30 873 C 81.7344 1.02182 1.30951 0
M  V30 874 O 82.9194 1.29723 1.39916 0
M  V30 875 C 80.0594 2.66337 2.19451 0
M  V30 876 C 79.1724 3.89708 1.86418 0
M  V30 877 C 78.3074 4.32893 3.07859 0
M  V30 878 C 77.3464 5.48967 2.70742 0
M  V30 879 N 76.4834 5.87211 3.84874 0
M  V30 880 H 81.3234 2.94465 0.457639 0
M  V30 881 H 78.8604 1.45531 0.214266 0
M  V30 882 H 80.8184 2.96247 2.93758 0
M  V30 883 H 79.4484 1.86141 2.63726 0
M  V30 884 H 78.5004 3.66396 1.02264 0
M  V30 885 H 79.8124 4.74074 1.55096 0
M  V30 886 H 78.9664 4.6435 3.90466 0
M  V30 887 H 77.7054 3.47336 3.42358 0
M  V30 888 H 76.7104 5.17183 1.86551 0
M  V30 889 H 77.9354 6.3624 2.37436 0
M  V30 890 H 75.8814 5.04607 4.19175 0
M  V30 891 H 75.7984 6.66266 3.57247 0
M  V30 892 H 77.0664 6.23282 4.68123 0
M  V30 893 N 81.2955 -0.223234 1.56011 0
M  V30 894 C 82.2055 -1.29766 1.95443 0
M  V30 895 C 83.2215 -1.51373 0.858028 0
M  V30 896 O 84.3975 -1.64536 1.16146 0
M  V30 897 C 81.4625 -2.62772 2.26167 0
M  V30 898 C 80.5235 -2.49482 3.49367 0
M  V30 899 C 79.7565 -3.76145 3.78616 0
M  V30 900 O 79.9795 -4.79087 3.09568 0
M  V30 901 O 78.9135 -3.73358 4.72109 0
M  V30 902 H 82.7395 -0.99309 2.87004 0
M  V30 903 H 80.3245 -0.425958 1.43199 0
M  V30 904 H 82.2065 -3.41327 2.47131 0
M  V30 905 H 80.8815 -2.92913 1.37781 0
M  V30 906 H 79.7885 -1.69133 3.33684 0
M  V30 907 H 81.1215 -2.2428 4.38131 0
M  V30 908 N 82.7736 -1.49793 -0.48987 0
M  V30 909 C 83.7206 -1.67281 -1.59014 0
M  V30 910 C 84.6906 -0.514177 -1.57941 0
M  V30 911 O 85.8756 -0.742533 -1.75759 0
M  V30 912 C 83.0156 -1.75569 -2.97102 0
M  V30 913 C 82.1286 -3.0281 -3.08107 0
M  V30 914 C 81.2636 -3.02008 -4.36995 0
M  V30 915 C 80.3026 -4.23782 -4.41673 0
M  V30 916 N 79.4396 -4.20826 -5.62005 0
M  V30 917 H 84.2796 -2.61224 -1.43409 0
M  V30 918 H 81.8166 -1.29508 -0.697565 0
M  V30 919 H 83.7746 -1.78354 -3.77155 0
M  V30 920 H 82.4046 -0.850827 -3.11385 0
M  V30 921 H 81.4566 -3.09584 -2.21047 0
M  V30 922 H 82.7686 -3.92801 -3.07423 0
M  V30 923 H 81.9226 -3.03418 -5.25378 0
M  V30 924 H 80.6616 -2.09815 -4.4026 0
M  V30 925 H 79.6666 -4.22604 -3.5169 0
M  V30 926 H 80.8916 -5.17181 -4.40115 0
M  V30 927 H 78.8376 -3.31476 -5.66091 0
M  V30 928 H 78.7546 -5.04564 -5.62984 0
M  V30 929 H 80.0226 -4.26355 -6.52565 0
M  V30 930 N 84.2517 0.741722 -1.39055 0
M  V30 931 C 85.4997 1.49818 -1.35643 0
M  V30 932 C 85.8207 1.94938 0.0491642 0
M  V30 933 O 85.0907 1.68505 0.999141 0
M  V30 934 H 83.6707 0.555755 -0.499144 0
M  V30 935 H 86.3327 0.880957 -1.73854 0
M  V30 936 H 85.4287 2.38348 -2.01486 0
M  V30 937 N 85.7298 1.2412 0.971189 0
M  V30 938 C 86.6768 1.0305 2.06517 0
M  V30 939 C 87.6468 -0.0550666 1.66009 0
M  V30 940 O 88.8318 0.0988688 1.90544 0
M  V30 941 C 85.9718 0.637653 3.39158 0
M  V30 942 C 85.0848 1.79633 3.92882 0
M  V30 943 C 84.2198 1.34939 5.13775 0
M  V30 944 C 83.2588 2.47823 5.59687 0
M  V30 945 N 82.3958 2.04022 6.71803 0
M  V30 946 H 87.2358 1.96685 2.23873 0
M  V30 947 H 84.7728 0.979694 1.09729 0
M  V30 948 H 86.7308 0.390931 4.15364 0
M  V30 949 H 85.3608 -0.261693 3.21737 0
M  V30 950 H 84.4128 2.15681 3.13346 0
M  V30 951 H 85.7248 2.64466 4.22918 0
M  V30 952 H 84.8788 1.06134 5.97345 0
M  V30 953 H 83.6178 0.471557 4.85415 0
M  V30 954 H 82.6228 2.77392 4.74693 0
M  V30 955 H 83.8478 3.36158 5.90063 0
M  V30 956 H 81.7938 1.18632 6.45184 0
M  V30 957 H 81.7108 2.82409 7.01271 0
M  V30 958 H 82.9788 1.78347 7.58823 0
M  V30 959 N 87.2079 -1.17134 1.05439 0
M  V30 960 C 88.4549 -1.87456 0.765942 0
M  V30 961 C 88.7829 -1.81189 -0.707153 0
M  V30 962 O 88.0379 -1.21633 -1.5331 0
M  V30 963 C 88.3369 -3.36833 1.19491 0
M  V30 964 C 88.0029 -3.63301 2.67063 0
M  V30 965 C 86.6649 -3.70234 3.07376 0
M  V30 966 C 89.0169 -3.74575 3.62413 0
M  V30 967 C 86.3449 -3.85933 4.41896 0
M  V30 968 C 88.6969 -3.91793 4.9667 0
M  V30 969 C 87.3609 -3.96966 5.36633 0
M  V30 970 H 86.6309 -0.685948 0.280278 0
M  V30 971 H 89.2779 -1.38556 1.32192 0
M  V30 972 H 87.5829 -3.87807 0.557969 0
M  V30 973 H 89.2799 -3.89611 0.948893 0
M  V30 974 H 85.8699 -3.58532 2.34846 0
M  V30 975 H 90.0539 -3.68537 3.32406 0
M  V30 976 H 85.3099 -3.88187 4.72357 0
M  V30 977 H 89.4839 -3.99458 5.70444 0
M  V30 978 H 87.1109 -4.08883 6.40874 0
M  V30 979 N 88.686 -0.835752 -1.33615 0
M  V30 980 C 89.596 -0.269088 -2.33052 0
M  V30 981 C 90.612 0.603251 -1.63208 0
M  V30 982 O 91.788 0.508112 -1.94885 0
M  V30 983 C 88.853 0.549091 -3.42324 0
M  V30 984 C 87.914 -0.347156 -4.27894 0
M  V30 985 C 87.147 0.43207 -5.31948 0
M  V30 986 O 87.37 1.66409 -5.45586 0
M  V30 987 O 86.304 -0.192298 -6.01593 0
M  V30 988 H 90.13 -1.09243 -2.83372 0
M  V30 989 H 87.715 -0.598198 -1.36901 0
M  V30 990 H 89.597 1.01414 -4.09015 0
M  V30 991 H 88.272 1.34955 -2.94226 0
M  V30 992 H 87.179 -0.859979 -3.64081 0
M  V30 993 H 88.512 -1.1123 -4.79467 0
M  V30 994 N 90.1641 1.46063 -0.591896 0
M  V30 995 C 91.4411 1.95595 -0.0137119 0
M  V30 996 C 91.8211 1.5345 1.4497 0
M  V30 997 O 91.1691 0.789543 2.14426 0
M  V30 998 C 91.3791 3.48453 -0.195373 0
M  V30 999 C 92.7271 4.24546 -0.0679765 0
M  V30 1000 O 93.7511 3.55982 -0.124681 0
M  V30 1001 O 92.6101 5.46467 0.0600579 0
M  V30 1002 H 89.7041 0.825795 0.0446279 0
M  V30 1003 H 92.2501 1.56303 -0.660859 0
M  V30 1004 H 91.0221 3.72045 -1.21235 0
M  V30 1005 H 90.6451 3.94597 0.487775 0
M  V30 1006 N 91.6422 0.330177 1.54103 0
M  V30 1007 C 92.5752 -0.575477 2.20825 0
M  V30 1008 C 93.5532 -1.11064 1.18758 0
M  V30 1009 O 94.7372 -1.17341 1.47524 0
M  V30 1010 C 91.8642 -1.79032 2.87516 0
M  V30 1011 C 90.9102 -1.38581 4.03358 0
M  V30 1012 S 91.7432 -0.416911 5.33875 0
M  V30 1013 C 92.8992 -1.63889 6.04062 0
M  V30 1014 H 93.1322 -0.00872114 2.97299 0
M  V30 1015 H 90.6652 0.114254 1.53977 0
M  V30 1016 H 92.6232 -2.48734 3.2656 0
M  V30 1017 H 91.2842 -2.32827 2.10832 0
M  V30 1018 H 90.4772 -2.29123 4.48908 0
M  V30 1019 H 90.0792 -0.768419 3.66021 0
M  V30 1020 H 92.3712 -2.57536 6.26643 0
M  V30 1021 H 93.3142 -1.22542 6.97416 0
M  V30 1022 H 93.7222 -1.82887 5.34053 0
M  V30 1023 N 93.1203 -1.57491 0.0584922 0
M  V30 1024 C 94.0833 -2.1085 -0.898617 0
M  V30 1025 C 95.0833 -1.02964 -1.23511 0
M  V30 1026 O 96.2733 -1.29007 -1.17059 0
M  V30 1027 C 93.4053 -2.59881 -2.20623 0
M  V30 1028 H 94.5983 -2.96715 -0.435936 0
M  V30 1029 H 92.1513 -1.55141 -0.190023 0
M  V30 1030 H 92.8863 -1.77431 -2.71457 0
M  V30 1031 H 92.6713 -3.38727 -1.97501 0
M  V30 1032 H 94.1613 -3.01285 -2.89166 0
M  V30 1033 N 94.5984 0.214957 -1.56127 0
M  V30 1034 C 95.5454 1.26642 -1.92952 0
M  V30 1035 C 96.5154 1.46244 -0.78753 0
M  V30 1036 O 97.7004 1.59704 -1.04399 0
M  V30 1037 C 94.8404 2.6104 -2.25726 0
M  V30 1038 C 93.9534 2.49183 -3.52891 0
M  V30 1039 C 93.0884 3.76149 -3.7508 0
M  V30 1040 C 92.1274 3.59041 -4.95738 0
M  V30 1041 N 91.2644 4.77972 -5.14283 0
M  V30 1042 H 96.1044 0.945384 -2.82607 0
M  V30 1043 H 93.6414 0.455489 -1.3987 0
M  V30 1044 H 95.5994 3.39313 -2.42739 0
M  V30 1045 H 94.2294 2.91227 -1.39236 0
M  V30 1046 H 93.2814 1.6231 -3.44034 0
M  V30 1047 H 94.5934 2.32466 -4.41318 0
M  V30 1048 H 93.7474 4.62865 -3.92226 0
M  V30 1049 H 92.4864 3.95799 -2.84947 0
M  V30 1050 H 91.4914 2.7071 -4.78535 0
M  V30 1051 H 92.7164 3.40856 -5.87362 0
M  V30 1052 H 90.6624 4.97923 -4.27093 0
M  V30 1053 H 90.5794 4.64006 -5.96853 0
M  V30 1054 H 91.8474 5.66096 -5.35869 0
M  V30 1055 N 96.0765 1.50051 0.48192 0
M  V30 1056 C 97.0395 1.67584 1.5636 0
M  V30 1057 C 98.0395 0.546894 1.51214 0
M  V30 1058 O 99.2295 0.813725 1.54026 0
M  V30 1059 C 96.3615 1.691 2.96003 0
M  V30 1060 H 97.5545 2.64078 1.42136 0
M  V30 1061 H 95.1075 1.39369 0.707533 0
M  V30 1062 H 95.8425 0.742589 3.15684 0
M  V30 1063 H 95.6275 2.51105 3.01146 0
M  V30 1064 H 97.1175 1.84656 3.74556 0
M  V30 1065 N 97.5546 -0.734337 1.39446 0
M  V30 1066 C 98.8316 -1.48579 1.27215 0
M  V30 1067 C 99.2116 -2.1077 -0.117968 0
M  V30 1068 O 98.5596 -1.98646 -1.12924 0
M  V30 1069 C 98.7696 -2.53667 2.39696 0
M  V30 1070 C 100.118 -3.20031 2.79044 0
M  V30 1071 O 101.142 -2.6398 2.39151 0
M  V30 1072 O 100.001 -4.21455 3.47905 0
M  V30 1073 H 97.0946 -0.659816 0.49857 0
M  V30 1074 H 99.6406 -0.768106 1.51322 0
M  V30 1075 H 98.4126 -2.06096 3.32626 0
M  V30 1076 H 98.0356 -3.32994 2.17258 0
M  V30 1077 N 99.0327 -1.24633 -0.964593 0
M  V30 1078 C 99.9797 -1.04144 -2.05968 0
M  V30 1079 C 100.95 0.046262 -1.66036 0
M  V30 1080 O 102.135 -0.108972 -1.90489 0
M  V30 1081 C 99.2747 -0.65563 -3.38815 0
M  V30 1082 C 98.3877 -1.81714 -3.91923 0
M  V30 1083 C 97.5227 -1.37662 -5.13052 0
M  V30 1084 C 96.5617 -2.50788 -5.58365 0
M  V30 1085 N 95.6987 -2.07582 -6.70712 0
M  V30 1086 H 100.539 -1.9787 -2.22827 0
M  V30 1087 H 98.0757 -0.9855 -1.09208 0
M  V30 1088 H 100.034 -0.412954 -4.15151 0
M  V30 1089 H 98.6637 0.244627 -3.21872 0
M  V30 1090 H 97.7157 -2.1734 -3.12198 0
M  V30 1091 H 99.0277 -2.66705 -4.21509 0
M  V30 1092 H 98.1817 -1.093 -5.96773 0
M  V30 1093 H 96.9207 -0.497293 -4.85158 0
M  V30 1094 H 95.9257 -2.79906 -4.73215 0
M  V30 1095 H 97.1507 -3.39283 -5.88272 0
M  V30 1096 H 95.0967 -1.22051 -6.44546 0
M  V30 1097 H 95.0137 -2.86125 -6.99763 0
M  V30 1098 H 96.2817 -1.82369 -7.57867 0
M  V30 1099 N 100.511 1.16574 -1.06058 0
M  V30 1100 C 101.474 2.19085 -0.673392 0
M  V30 1101 C 102.474 1.5835 0.279648 0
M  V30 1102 O 103.664 1.74088 0.0623488 0
M  V30 1103 C 100.796 3.40899 0.00954234 0
M  V30 1104 H 101.989 2.54853 -1.58081 0
M  V30 1105 H 99.5418 1.30808 -0.855516 0
M  V30 1106 H 100.277 3.10684 0.929826 0
M  V30 1107 H 100.062 3.86233 -0.67573 0
M  V30 1108 H 101.552 4.1675 0.266245 0
M  V30 1109 N 101.989 0.842826 1.3317 0
M  V30 1110 C 103.405 0.531128 1.50503 0
M  V30 1111 C 103.605 -0.940734 1.78192 0
M  V30 1112 O 102.661 -1.72436 1.84451 0
M  V30 1113 C 103.974 1.40789 2.65705 0
M  V30 1114 C 105.522 1.40708 2.79589 0
M  V30 1115 C 105.997 2.26878 3.97857 0
M  V30 1116 N 107.488 2.24609 4.05099 0
M  V30 1117 C 108.223 2.88019 4.95815 0
M  V30 1118 N 107.719 3.60496 5.9162 0
M  V30 1119 N 109.512 2.77469 4.88843 0
M  V30 1120 H 101.663 1.79557 1.1346 0
M  V30 1121 H 103.926 0.766267 0.558156 0
M  V30 1122 H 103.632 2.454 2.51936 0
M  V30 1123 H 103.506 1.08677 3.61205 0
M  V30 1124 H 105.893 0.368668 2.92788 0
M  V30 1125 H 105.974 1.76829 1.84838 0
M  V30 1126 H 105.618 3.3078 3.85418 0
M  V30 1127 H 105.548 1.88096 4.91861 0
M  V30 1128 H 108.039 1.71906 3.36536 0
M  V30 1129 H 108.352 4.06076 6.57512 0
M  V30 1130 H 106.697 3.64604 5.91683 0
M  V30 1131 H 109.888 2.20406 4.12963 0
M  V30 1132 H 110.061 3.2717 5.59342 0
M  V30 1133 N 103.467 -1.45747 0.599634 0
M  V30 1134 C 104.697 -2.06369 0.0977132 0
M  V30 1135 C 105.105 -1.44624 -1.21985 0
M  V30 1136 O 104.448 -0.551831 -1.75216 0
M  V30 1137 C 104.51 -3.59284 -0.124673 0
M  V30 1138 C 104.174 -4.43318 1.10987 0
M  V30 1139 C 105.171 -4.78796 2.02609 0
M  V30 1140 C 102.856 -4.84194 1.33647 0
M  V30 1141 C 104.85 -5.53997 3.15224 0
M  V30 1142 C 102.537 -5.5915 2.46565 0
M  V30 1143 C 103.535 -5.93968 3.37182 0
M  V30 1144 O 103.223 -6.67405 4.48136 0
M  V30 1145 H 102.955 -0.673122 0.0623153 0
M  V30 1146 H 105.509 -1.88104 0.824981 0
M  V30 1147 H 103.739 -3.75919 -0.906745 0
M  V30 1148 H 105.428 -4.01775 -0.577201 0
M  V30 1149 H 106.194 -4.47781 1.86325 0
M  V30 1150 H 102.073 -4.56534 0.64016 0
M  V30 1151 H 105.617 -5.81091 3.85978 0
M  V30 1152 H 101.514 -5.89579 2.62805 0
M  V30 1153 H 102.282 -6.85847 4.46717 0
M  V30 1154 N 104.945 -0.338344 -1.53925 0
M  V30 1155 C 105.855 0.529421 -2.28548 0
M  V30 1156 C 106.871 1.11645 -1.3346 0
M  V30 1157 O 108.047 1.13325 -1.66492 0
M  V30 1158 C 105.112 1.66713 -3.03987 0
M  V30 1159 C 104.173 1.11041 -4.14691 0
M  V30 1160 C 103.406 2.19389 -4.86522 0
M  V30 1161 O 103.629 3.40013 -4.57982 0
M  V30 1162 O 102.563 1.83976 -5.73094 0
M  V30 1163 H 106.389 -0.0770399 -3.03602 0
M  V30 1164 H 103.974 -0.103555 -1.49041 0
M  V30 1165 H 105.856 2.32918 -3.5118 0
M  V30 1166 H 104.531 2.25949 -2.31794 0
M  V30 1167 H 103.438 0.413024 -3.71813 0
M  V30 1168 H 104.771 0.562975 -4.8897 0
M  V30 1169 N 106.423 1.57458 -0.0668435 0
M  V30 1170 C 107.839 1.56947 0.289772 0
M  V30 1171 C 108.039 1.07584 1.70376 0
M  V30 1172 O 107.095 0.739486 2.41429 0
M  V30 1173 C 108.408 3.0052 0.103943 0
M  V30 1174 C 109.956 3.12517 0.173857 0
M  V30 1175 C 110.431 4.57997 0.0163682 0
M  V30 1176 N 111.922 4.63144 0.0721352 0
M  V30 1177 C 112.657 5.73394 -0.0253794 0
M  V30 1178 N 112.153 6.92576 -0.176133 0
M  V30 1179 N 113.946 5.62091 0.0313305 0
M  V30 1180 H 106.097 1.87863 -0.991027 0
M  V30 1181 H 108.36 0.86583 -0.38606 0
M  V30 1182 H 108.066 3.40729 -0.871572 0
M  V30 1183 H 107.94 3.67304 0.858366 0
M  V30 1184 H 110.327 2.72197 1.13985 0
M  V30 1185 H 110.408 2.48381 -0.611586 0
M  V30 1186 H 110.052 4.99005 -0.946374 0
M  V30 1187 H 109.982 5.20158 0.821153 0
M  V30 1188 H 112.473 3.77436 0.187263 0
M  V30 1189 H 112.786 7.72418 -0.242821 0
M  V30 1190 H 111.131 6.94678 -0.211429 0
M  V30 1191 H 114.322 4.67867 0.147773 0
M  V30 1192 H 114.495 6.47982 -0.048121 0
M  V30 1193 N 107.901 -0.206675 1.56239 0
M  V30 1194 C 108.811 -1.27686 1.96808 0
M  V30 1195 C 109.827 -1.50455 0.874035 0
M  V30 1196 O 111.003 -1.63295 1.17884 0
M  V30 1197 C 108.068 -2.60358 2.28942 0
M  V30 1198 C 107.129 -2.45762 3.51994 0
M  V30 1199 C 106.362 -3.72108 3.82585 0
M  V30 1200 O 106.585 -4.75776 3.14631 0
M  V30 1201 O 105.519 -3.6833 4.76043 0
M  V30 1202 H 109.345 -0.962593 2.88041 0
M  V30 1203 H 106.93 -0.410746 1.43643 0
M  V30 1204 H 108.812 -3.38687 2.50737 0
M  V30 1205 H 107.487 -2.91435 1.4088 0
M  V30 1206 H 106.394 -1.65584 3.35459 0
M  V30 1207 H 107.727 -2.19621 4.40486 0
M  V30 1208 N 109.379 -1.50304 -0.473955 0
M  V30 1209 C 110.312 -1.63595 -1.59097 0
M  V30 1210 C 111.29 -0.484142 -1.55225 0
M  V30 1211 O 112.474 -0.703271 -1.7489 0
M  V30 1212 C 109.601 -1.61589 -2.97669 0
M  V30 1213 C 108.647 -2.82295 -3.19705 0
M  V30 1214 S 109.48 -4.43635 -2.99913 0
M  V30 1215 C 110.636 -4.44317 -4.40832 0
M  V30 1216 H 110.869 -2.58082 -1.47583 0
M  V30 1217 H 108.402 -1.39531 -0.661087 0
M  V30 1218 H 110.36 -1.61116 -3.7756 0
M  V30 1219 H 109.021 -0.683421 -3.06575 0
M  V30 1220 H 108.214 -2.77188 -4.20931 0
M  V30 1221 H 107.816 -2.8032 -2.47582 0
M  V30 1222 H 110.108 -4.17703 -5.33414 0
M  V30 1223 H 111.051 -5.45911 -4.50984 0
M  V30 1224 H 111.459 -3.74059 -4.22777 0
M  V30 1225 N 110.857 0.726932 -1.39834 0
M  V30 1226 C 111.804 1.841 -1.39197 0
M  V30 1227 C 112.774 1.642 -0.250502 0
M  V30 1228 O 113.959 1.85494 -0.446846 0
M  V30 1229 C 111.099 3.21697 -1.24919 0
M  V30 1230 C 110.212 3.53247 -2.48678 0
M  V30 1231 C 109.347 4.80289 -2.26928 0
M  V30 1232 C 108.386 5.04707 -3.4632 0
M  V30 1233 N 107.523 6.22956 -3.23836 0
M  V30 1234 H 112.363 1.83979 -2.34427 0
M  V30 1235 H 109.9 0.898876 -1.16442 0
M  V30 1236 H 111.858 4.01137 -1.1465 0
M  V30 1237 H 110.488 3.21076 -0.333153 0
M  V30 1238 H 109.54 2.68447 -2.69519 0
M  V30 1239 H 110.852 3.67205 -3.37582 0
M  V30 1240 H 110.006 5.67725 -2.13947 0
M  V30 1241 H 108.745 4.68519 -1.35431 0
M  V30 1242 H 107.75 4.1573 -3.5979 0
M  V30 1243 H 108.975 5.18357 -4.38729 0
M  V30 1244 H 106.921 6.12459 -2.35011 0
M  V30 1245 H 106.838 6.37539 -4.063 0
M  V30 1246 H 108.106 7.1321 -3.14566 0
M  V30 1247 N 112.336 1.25143 0.95797 0
M  V30 1248 C 113.564 1.12424 1.73691 0
M  V30 1249 C 113.979 -0.322304 1.86029 0
M  V30 1250 O 113.336 -1.22186 1.35561 0
M  V30 1251 C 113.387 1.76933 3.15241 0
M  V30 1252 O 113.108 3.15932 3.03511 0
M  V30 1253 C 114.609 1.6995 4.09429 0
M  V30 1254 H 111.829 0.3923 0.544373 0
M  V30 1255 H 114.373 1.6544 1.20207 0
M  V30 1256 H 112.528 1.27895 3.6568 0
M  V30 1257 H 112.942 3.47598 3.9278 0
M  V30 1258 H 114.416 2.19753 5.06372 0
M  V30 1259 H 114.893 0.662619 4.34173 0
M  V30 1260 H 115.499 2.18461 3.64904 0
M  V30 1261 N 113.814 -1.1601 1.06675 0
M  V30 1262 C 115.044 -1.90251 0.805497 0
M  V30 1263 C 115.452 -1.77891 -0.64431 0
M  V30 1264 O 114.795 -1.12383 -1.45313 0
M  V30 1265 C 114.857 -3.41419 1.12576 0
M  V30 1266 C 114.521 -3.77564 2.57477 0
M  V30 1267 C 115.518 -3.79161 3.55715 0
M  V30 1268 C 113.203 -4.08079 2.92877 0
M  V30 1269 C 115.197 -4.10767 4.8739 0
M  V30 1270 C 112.884 -4.39351 4.24751 0
M  V30 1271 C 113.882 -4.40675 5.21818 0
M  V30 1272 O 113.57 -4.71202 6.51325 0
M  V30 1273 H 113.302 -0.610018 0.291297 0
M  V30 1274 H 115.856 -1.47958 1.4247 0
M  V30 1275 H 114.086 -3.84079 0.449503 0
M  V30 1276 H 115.775 -3.9694 0.84814 0
M  V30 1277 H 116.541 -3.55693 3.29708 0
M  V30 1278 H 112.42 -4.06211 2.17976 0
M  V30 1279 H 115.964 -4.11715 5.63148 0
M  V30 1280 H 111.861 -4.62285 4.50514 0
M  V30 1281 H 112.629 -4.88996 6.56373 0
M  V30 1282 N 115.292 -0.849877 -1.32721 0
M  V30 1283 C 116.541 -0.447175 -1.96681 0
M  V30 1284 C 116.854 1.00135 -1.68025 0
M  V30 1285 O 118.06 1.50926 -2.25685 0
M  V30 1286 C 116.516 -0.7487 -3.52026 0
M  V30 1287 C 116.124 -2.21264 -3.89546 0
M  V30 1288 C 117.868 -0.413487 -4.22481 0
M  V30 1289 C 115.775 -2.45763 -5.37917 0
M  V30 1290 H 114.705 -0.163486 -0.736063 0
M  V30 1291 H 117.356 -1.03999 -1.51183 0
M  V30 1292 H 115.738 -0.0853727 -3.95908 0
M  V30 1293 H 116.912 -2.91736 -3.56689 0
M  V30 1294 H 115.227 -2.5119 -3.32103 0
M  V30 1295 H 117.824 -0.574017 -5.3161 0
M  V30 1296 H 118.167 0.644492 -4.11281 0
M  V30 1297 H 118.7 -1.03251 -3.84167 0
M  V30 1298 H 115.439 -3.50168 -5.54132 0
M  V30 1299 H 114.959 -1.79864 -5.72197 0
M  V30 1300 H 116.638 -2.29471 -6.0494 0
M  V30 1301 N 116.77 1.45427 -0.607355 0
M  V30 1302 C 118.181 1.85756 -0.187535 0
M  V30 1303 C 118.532 1.5077 1.25551 0
M  V30 1304 O 117.657 0.93427 1.95193 0
M  V30 1305 C 118.252 3.37154 -0.333572 0
M  V30 1306 C 116.811 3.76387 0.0315542 0
M  V30 1307 C 115.958 2.69377 -0.658117 0
M  V30 1308 H 118.909 1.36231 -0.81405 0
M  V30 1309 H 118.93 3.78014 0.43428 0
M  V30 1310 H 118.442 3.62586 -1.38393 0
M  V30 1311 H 116.543 3.56571 1.0811 0
M  V30 1312 H 116.656 4.77731 -0.361935 0
M  V30 1313 H 115.02 2.5452 -0.0957873 0
M  V30 1314 H 115.803 2.97646 -1.7106 0
M  V30 1315 N 118.248 0.346503 1.53744 0
M  V30 1316 C 119.659 -0.136779 1.86198 0
M  V30 1317 C 120.01 -1.49749 1.26766 0
M  V30 1318 O 119.135 -2.08417 0.582355 0
M  V30 1319 C 119.73 -0.254966 3.37839 0
M  V30 1320 C 118.289 -0.682482 3.70161 0
M  V30 1321 C 117.436 0.181981 2.76702 0
M  V30 1322 H 120.387 0.565994 1.48264 0
M  V30 1323 H 120.408 -1.08195 3.64793 0
M  V30 1324 H 119.92 0.735526 3.81066 0
M  V30 1325 H 118.021 -1.68189 3.3248 0
M  V30 1326 H 118.134 -0.470326 4.76786 0
M  V30 1327 H 116.498 -0.34615 2.52337 0
M  V30 1328 H 117.281 1.16966 3.2276 0
M  V30 1329 N 119.726 -1.57421 0.075193 0
M  V30 1330 C 120.673 -2.12915 -0.890843 0
M  V30 1331 C 121.643 -1.04252 -1.29309 0
M  V30 1332 O 122.828 -1.31933 -1.37834 0
M  V30 1333 C 119.968 -2.69795 -2.15186 0
M  V30 1334 C 119.081 -3.92624 -1.80194 0
M  V30 1335 C 118.216 -4.37736 -3.00933 0
M  V30 1336 C 117.255 -5.53205 -2.61974 0
M  V30 1337 N 116.392 -5.9326 -3.75483 0
M  V30 1338 H 121.232 -2.95156 -0.410735 0
M  V30 1339 H 118.769 -1.45854 -0.191086 0
M  V30 1340 H 120.727 -3.00883 -2.89008 0
M  V30 1341 H 119.357 -1.90313 -2.60731 0
M  V30 1342 H 118.409 -3.67977 -0.964218 0
M  V30 1343 H 119.721 -4.76482 -1.47534 0
M  V30 1344 H 118.875 -4.70503 -3.8303 0
M  V30 1345 H 117.614 -3.52739 -3.36789 0
M  V30 1346 H 116.619 -5.20086 -1.783 0
M  V30 1347 H 117.844 -6.39936 -2.27284 0
M  V30 1348 H 115.79 -5.11212 -4.11094 0
M  V30 1349 H 115.707 -6.71865 -3.46602 0
M  V30 1350 H 116.975 -6.30651 -4.58148 0
M  V30 1351 N 121.204 0.198386 -1.56346 0
M  V30 1352 C 122.452 0.91747 -1.80075 0
M  V30 1353 C 122.773 1.83929 -0.647692 0
M  V30 1354 O 122.043 1.93029 0.334166 0
M  V30 1355 H 120.623 0.341774 -0.664228 0
M  V30 1356 H 123.285 0.204684 -1.93822 0
M  V30 1357 H 122.381 1.51055 -2.7311 0
M  V30 1358 N 122.682 1.50554 0.465978 0
M  V30 1359 C 123.592 1.72585 1.58907 0
M  V30 1360 C 124.608 0.60911 1.6299 0
M  V30 1361 O 125.784 0.88804 1.80765 0
M  V30 1362 C 122.849 1.81995 2.95091 0
M  V30 1363 C 121.91 3.05751 3.01355 0
M  V30 1364 C 121.143 3.14702 4.31043 0
M  V30 1365 O 121.366 2.30313 5.21835 0
M  V30 1366 O 120.3 4.07468 4.43005 0
M  V30 1367 H 124.126 2.67799 1.43239 0
M  V30 1368 H 121.711 1.34711 0.646013 0
M  V30 1369 H 123.593 1.90335 3.75966 0
M  V30 1370 H 122.268 0.899659 3.10947 0
M  V30 1371 H 121.175 3.02908 2.19539 0
M  V30 1372 H 122.508 3.97375 2.90437 0
M  V30 1373 N 124.16 -0.719506 1.40217 0
M  V30 1374 C 125.388 -1.50864 1.41589 0
M  V30 1375 C 125.803 -1.88794 0.0145275 0
M  V30 1376 O 125.16 -1.55174 -0.960594 0
M  V30 1377 C 125.211 -2.78646 2.30302 0
M  V30 1378 O 124.932 -2.42321 3.64983 0
M  V30 1379 C 126.433 -3.72569 2.40224 0
M  V30 1380 H 123.653 -0.465709 0.48307 0
M  V30 1381 H 126.197 -0.88785 1.84221 0
M  V30 1382 H 124.352 -3.37019 1.91042 0
M  V30 1383 H 124.766 -3.24514 4.12057 0
M  V30 1384 H 126.24 -4.5908 3.06512 0
M  V30 1385 H 126.717 -4.15403 1.42608 0
M  V30 1386 H 127.323 -3.20109 2.80019 0
M  V30 1387 N 125.638 -1.25649 -0.95132 0
M  V30 1388 C 126.585 -1.06323 -2.04851 0
M  V30 1389 C 127.555 0.0286491 -1.66075 0
M  V30 1390 O 128.74 -0.12917 -1.90362 0
M  V30 1391 C 125.88 -0.691529 -3.381 0
M  V30 1392 C 124.993 -1.85861 -3.89974 0
M  V30 1393 C 124.128 -1.43096 -5.11563 0
M  V30 1394 C 123.167 -2.56696 -5.55674 0
M  V30 1395 N 122.304 -2.14684 -6.68472 0
M  V30 1396 H 127.144 -2.00222 -2.20715 0
M  V30 1397 H 124.681 -0.997027 -1.08156 0
M  V30 1398 H 126.639 -0.456963 -4.1469 0
M  V30 1399 H 125.269 0.210474 -3.22113 0
M  V30 1400 H 124.321 -2.20639 -3.09875 0
M  V30 1401 H 125.633 -2.71161 -4.18657 0
M  V30 1402 H 124.787 -1.15624 -5.9558 0
M  V30 1403 H 123.526 -0.548722 -4.84603 0
M  V30 1404 H 122.531 -2.84909 -4.7022 0
M  V30 1405 H 123.756 -3.45503 -5.8464 0
M  V30 1406 H 121.702 -1.28881 -6.43215 0
M  V30 1407 H 121.619 -2.9353 -6.96689 0
M  V30 1408 H 122.887 -1.90397 -7.5589 0
M  V30 1409 N 127.117 1.15442 -1.07289 0
M  V30 1410 C 128.064 2.20161 -0.692653 0
M  V30 1411 C 129.034 1.63073 0.31564 0
M  V30 1412 O 130.219 1.89725 0.202235 0
M  V30 1413 C 127.359 3.44967 -0.0959509 0
M  V30 1414 C 126.472 4.16256 -1.15564 0
M  V30 1415 C 125.607 5.28609 -0.524011 0
M  V30 1416 C 124.646 5.91715 -1.56653 0
M  V30 1417 N 123.783 6.9554 -0.957531 0
M  V30 1418 H 128.623 2.52037 -1.59002 0
M  V30 1419 H 126.16 1.2378 -0.794798 0
M  V30 1420 H 128.118 4.16341 0.267628 0
M  V30 1421 H 126.748 3.1361 0.764772 0
M  V30 1422 H 125.8 3.43385 -1.6368 0
M  V30 1423 H 127.112 4.59268 -1.94613 0
M  V30 1424 H 126.266 6.06604 -0.108032 0
M  V30 1425 H 125.005 4.86787 0.29825 0
M  V30 1426 H 124.01 5.12433 -1.9923 0
M  V30 1427 H 125.235 6.35614 -2.39107 0
M  V30 1428 H 123.181 6.55814 -0.156162 0
M  V30 1429 H 123.098 7.36977 -1.68526 0
M  V30 1430 H 124.366 7.77435 -0.567032 0
M  V30 1431 N 128.595 0.856903 1.32268 0
M  V30 1432 C 129.542 0.301172 2.28827 0
M  V30 1433 C 130.512 -0.593104 1.5515 0
M  V30 1434 O 131.697 -0.527537 1.83362 0
M  V30 1435 C 128.837 -0.502523 3.41422 0
M  V30 1436 C 127.95 0.417797 4.29975 0
M  V30 1437 C 127.085 -0.398749 5.29701 0
M  V30 1438 C 126.124 0.518827 6.09897 0
M  V30 1439 N 125.261 -0.260674 7.01616 0
M  V30 1440 H 130.101 1.12983 2.75751 0
M  V30 1441 H 127.638 0.568582 1.35667 0
M  V30 1442 H 129.596 -0.984141 4.05426 0
M  V30 1443 H 128.226 -1.29599 2.95642 0
M  V30 1444 H 127.278 1.01781 3.66531 0
M  V30 1445 H 128.59 1.12191 4.86019 0
M  V30 1446 H 127.744 -0.943435 5.9932 0
M  V30 1447 H 126.483 -1.13622 4.7428 0
M  V30 1448 H 125.488 1.07538 5.39181 0
M  V30 1449 H 126.713 1.25495 6.67404 0
M  V30 1450 H 124.659 -0.981198 6.4862 0
M  V30 1451 H 124.576 0.384364 7.55022 0
M  V30 1452 H 125.844 -0.787014 7.75517 0
M  V30 1453 N 130.073 -1.45103 0.615059 0
M  V30 1454 C 131.32 -2.02183 0.113179 0
M  V30 1455 C 131.648 -1.48249 -1.25906 0
M  V30 1456 O 130.903 -0.650265 -1.84581 0
M  V30 1457 C 131.202 -3.57386 0.0318797 0
M  V30 1458 C 130.868 -4.30505 1.34077 0
M  V30 1459 C 129.53 -4.50197 1.69929 0
M  V30 1460 C 131.882 -4.72238 2.20546 0
M  V30 1461 C 129.21 -5.08881 2.91988 0
M  V30 1462 C 131.562 -5.32272 3.41861 0
M  V30 1463 C 130.226 -5.50187 3.77956 0
M  V30 1464 H 129.496 -0.739842 0.0414151 0
M  V30 1465 H 132.143 -1.74073 0.798168 0
M  V30 1466 H 130.448 -3.84817 -0.736409 0
M  V30 1467 H 132.145 -3.99264 -0.372712 0
M  V30 1468 H 128.735 -4.15496 1.05173 0
M  V30 1469 H 132.919 -4.56751 1.94146 0
M  V30 1470 H 128.175 -5.20939 3.2005 0
M  V30 1471 H 132.349 -5.63563 4.09109 0
M  V30 1472 H 129.976 -5.95427 4.72622 0
M  V30 1473 N 131.551 -0.354651 -1.53558 0
M  V30 1474 C 132.498 0.496968 -2.25386 0
M  V30 1475 C 133.468 1.0865 -1.25636 0
M  V30 1476 O 134.653 1.12104 -1.54394 0
M  V30 1477 C 131.793 1.63637 -3.03837 0
M  V30 1478 C 130.906 1.07307 -4.18461 0
M  V30 1479 C 130.041 2.18068 -4.84376 0
M  V30 1480 C 129.08 1.59147 -5.91049 0
M  V30 1481 N 128.217 2.63695 -6.50699 0
M  V30 1482 H 133.057 -0.122075 -2.9775 0
M  V30 1483 H 130.594 -0.0720154 -1.46924 0
M  V30 1484 H 132.552 2.30734 -3.47589 0
M  V30 1485 H 131.182 2.22623 -2.33749 0
M  V30 1486 H 130.234 0.292708 -3.79272 0
M  V30 1487 H 131.546 0.602193 -4.95152 0
M  V30 1488 H 130.7 2.93007 -5.31255 0
M  V30 1489 H 129.439 2.68504 -4.07133 0
M  V30 1490 H 128.444 0.827175 -5.43542 0
M  V30 1491 H 129.669 1.09549 -6.70206 0
M  V30 1492 H 127.615 3.13365 -5.76315 0
M  V30 1493 H 127.532 2.21263 -7.22896 0
M  V30 1494 H 128.8 3.3837 -7.02229 0
M  V30 1495 N 133.029 1.57378 -0.0835403 0
M  V30 1496 C 134.306 1.85363 0.624507 0
M  V30 1497 C 134.686 0.978239 1.87066 0
M  V30 1498 O 134.034 0.0475908 2.2845 0
M  V30 1499 C 134.244 3.35795 0.950947 0
M  V30 1500 C 135.592 4.03581 1.31939 0
M  V30 1501 O 136.616 3.40609 1.04232 0
M  V30 1502 O 135.475 5.14672 1.83779 0
M  V30 1503 H 132.569 0.766162 0.311329 0
M  V30 1504 H 135.115 1.69307 -0.115362 0
M  V30 1505 H 133.887 3.91244 0.0663899 0
M  V30 1506 H 133.51 3.57154 1.74719 0
M  V30 1507 N 134.507 -0.190092 1.56449 0
M  V30 1508 C 135.918 -0.754312 1.70784 0
M  V30 1509 C 136.269 -1.83631 0.690951 0
M  V30 1510 O 135.394 -2.15868 -0.151604 0
M  V30 1511 C 135.989 -1.37503 3.09642 0
M  V30 1512 C 134.548 -1.88628 3.25725 0
M  V30 1513 C 133.695 -0.758098 2.66736 0
M  V30 1514 H 136.646 0.0350524 1.58661 0
M  V30 1515 H 136.667 -2.2445 3.0725 0
M  V30 1516 H 136.179 -0.587302 3.83631 0
M  V30 1517 H 134.28 -2.70103 2.56661 0
M  V30 1518 H 134.393 -2.04462 4.3328 0
M  V30 1519 H 132.757 -1.17369 2.26046 0
M  V30 1520 H 133.54 0.0174705 3.43296 0
M  V30 1521 N 135.985 -1.50799 -0.457987 0
M  V30 1522 C 136.933 -1.71162 -1.575 0
M  V30 1523 C 137.927 -0.577592 -1.59249 0
M  V30 1524 O 139.133 -0.758443 -1.63241 0
M  V30 1525 H 135.508 -0.540468 -0.522875 0
M  V30 1526 H 137.479 -2.64837 -1.37492 0
M  V30 1527 C 136.228 -1.83496 -2.95338 0
M  V30 1528 H 135.551 -2.70153 -2.94716 0
M  V30 1529 H 136.991 -2.01765 -3.72917 0
M  V30 1530 C 135.45 -0.589694 -3.31699 0
M  V30 1531 O 135.98 0.265163 -4.00824 0
M  V30 1532 N 134.186 -0.439845 -2.87252 0
M  V30 1533 H 133.733 -1.13655 -2.31172 0
M  V30 1534 H 133.691 0.392159 -3.11945 0
M  V30 1535 N 137.463 0.71206 -1.40597 0
M  V30 1536 C 138.426 1.80785 -1.40888 0
M  V30 1537 C 139.426 1.57937 -0.302103 0
M  V30 1538 O 140.616 1.64913 -0.561182 0
M  V30 1539 C 137.748 3.18927 -1.20409 0
M  V30 1540 H 138.941 1.81924 -2.38419 0
M  V30 1541 H 136.494 0.91805 -1.26497 0
M  V30 1542 H 137.229 3.23436 -0.236522 0
M  V30 1543 H 137.014 3.36911 -2.00582 0
M  V30 1544 H 138.504 3.98949 -1.23408 0
M  V30 1545 N 138.941 1.26152 0.944643 0
M  V30 1546 C 140.352 1.10454 1.50522 0
M  V30 1547 C 140.703 -0.31635 1.93633 0
M  V30 1548 O 139.828 -1.20746 1.79581 0
M  V30 1549 C 140.423 1.99891 2.73549 0
M  V30 1550 C 138.982 1.88348 3.25886 0
M  V30 1551 C 138.129 1.93447 1.9868 0
M  V30 1552 H 141.08 1.39292 0.760489 0
M  V30 1553 H 141.101 1.54477 3.47732 0
M  V30 1554 H 140.613 3.03297 2.42141 0
M  V30 1555 H 138.714 0.878636 3.62092 0
M  V30 1556 H 138.827 2.73696 3.93227 0
M  V30 1557 H 137.191 1.37456 2.14425 0
M  V30 1558 H 137.974 2.98476 1.69607 0
M  V30 1559 N 140.419 -1.14872 1.07899 0
M  V30 1560 C 141.366 -2.19791 0.704319 0
M  V30 1561 C 142.336 -1.63238 -0.306987 0
M  V30 1562 O 143.521 -1.8983 -0.192171 0
M  V30 1563 C 140.661 -3.44911 0.114244 0
M  V30 1564 C 139.774 -4.15637 1.1777 0
M  V30 1565 C 138.909 -5.28324 0.552037 0
M  V30 1566 C 137.948 -5.90875 1.59789 0
M  V30 1567 N 137.085 -6.95022 0.994404 0
M  V30 1568 H 141.925 -2.5119 1.60336 0
M  V30 1569 H 139.462 -1.23356 0.801352 0
M  V30 1570 H 141.42 -4.16477 -0.245544 0
M  V30 1571 H 140.05 -3.14011 -0.74813 0
M  V30 1572 H 139.102 -3.42512 1.65499 0
M  V30 1573 H 140.414 -4.5823 1.97046 0
M  V30 1574 H 139.568 -6.06538 0.1402 0
M  V30 1575 H 138.307 -4.86939 -0.272431 0
M  V30 1576 H 137.312 -5.11369 2.01945 0
M  V30 1577 H 138.537 -6.34337 2.42474 0
M  V30 1578 H 136.483 -6.55722 0.190939 0
M  V30 1579 H 136.4 -7.36073 1.72432 0
M  V30 1580 H 137.668 -7.77123 0.608253 0
M  V30 1581 N 141.898 -0.863906 -1.31812 0
M  V30 1582 C 143.314 -0.555004 -1.49639 0
M  V30 1583 C 143.514 0.912266 -1.79666 0
M  V30 1584 O 142.57 1.69479 -1.87171 0
M  V30 1585 C 143.883 -1.44998 -2.63431 0
M  V30 1586 C 145.431 -1.45138 -2.77316 0
M  V30 1587 C 145.906 -2.33179 -3.94197 0
M  V30 1588 N 147.397 -2.31025 -4.01474 0
M  V30 1589 C 148.132 -2.95871 -4.9117 0
M  V30 1590 N 147.628 -3.69863 -5.8581 0
M  V30 1591 N 149.421 -2.85211 -4.84367 0
M  V30 1592 H 141.572 -1.81339 -1.10589 0
M  V30 1593 H 143.835 -0.77505 -0.545895 0
M  V30 1594 H 143.541 -2.49377 -2.48 0
M  V30 1595 H 143.415 -1.14409 -3.59431 0
M  V30 1596 H 145.802 -0.415201 -2.92164 0
M  V30 1597 H 145.883 -1.79747 -1.82001 0
M  V30 1598 H 145.527 -3.3687 -3.80107 0
M  V30 1599 H 145.457 -1.95897 -4.88807 0
M  V30 1600 H 147.948 -1.77238 -3.33759 0
M  V30 1601 H 148.261 -4.16486 -6.50968 0
M  V30 1602 H 146.606 -3.73971 -5.85808 0
M  V30 1603 H 149.797 -2.26948 -4.09405 0
M  V30 1604 H 149.97 -3.36027 -5.54066 0
M  V30 1605 N 143.376 1.44774 -0.622745 0
M  V30 1606 C 144.787 1.85546 -0.207226 0
M  V30 1607 C 145.138 1.52093 1.23944 0
M  V30 1608 O 144.263 0.95492 1.94191 0
M  V30 1609 C 144.858 3.36781 -0.369313 0
M  V30 1610 C 143.417 3.76399 -0.00836847 0
M  V30 1611 C 142.564 2.68664 -0.686651 0
M  V30 1612 H 145.515 1.3536 -0.828454 0
M  V30 1613 H 145.536 3.78453 0.394162 0
M  V30 1614 H 145.048 3.61098 -1.42231 0
M  V30 1615 H 143.149 3.57698 1.04322 0
M  V30 1616 H 143.262 4.7732 -0.412584 0
M  V30 1617 H 141.626 2.54404 -0.122777 0
M  V30 1618 H 142.409 2.95815 -1.74208 0
M  V30 1619 N 144.854 0.36279 1.53368 0
M  V30 1620 C 146.265 -0.117022 1.86333 0
M  V30 1621 C 146.616 -1.48397 1.28347 0
M  V30 1622 O 145.741 -2.07787 0.604428 0
M  V30 1623 C 146.336 -0.21912 3.38091 0
M  V30 1624 C 144.895 -0.643184 3.70864 0
M  V30 1625 C 144.042 0.211318 2.76494 0
M  V30 1626 H 146.993 0.581687 1.47655 0
M  V30 1627 H 147.014 -1.04319 3.6592 0
M  V30 1628 H 146.526 0.775902 3.80265 0
M  V30 1629 H 144.627 -1.64654 3.34245 0
M  V30 1630 H 144.74 -0.41973 4.77258 0
M  V30 1631 H 143.104 -0.319367 2.5269 0
M  V30 1632 H 143.887 1.20383 3.21501 0
M  V30 1633 N 146.332 -1.57332 0.0918853 0
M  V30 1634 C 147.557 -1.98995 -0.584442 0
M  V30 1635 C 147.982 -0.970528 -1.61128 0
M  V30 1636 O 147.34 0.0613904 -1.81196 0
M  V30 1637 C 147.388 -3.39636 -1.21161 0
M  V30 1638 O 146.492 -3.40447 -2.32744 0
M  V30 1639 H 145.833 -0.647165 -0.148572 0
M  V30 1640 H 148.363 -2.03873 0.172347 0
M  V30 1641 H 148.373 -3.7726 -1.55367 0
M  V30 1642 H 147.048 -4.13356 -0.459313 0
M  V30 1643 H 145.625 -3.14614 -2.0018 0
M  V30 1644 N 147.81 0.181792 -1.56548 0
M  V30 1645 C 148.773 1.20894 -1.94724 0
M  V30 1646 C 149.773 1.37738 -0.829747 0
M  V30 1647 O 150.963 1.35323 -1.09697 0
M  V30 1648 C 148.095 2.57593 -2.23291 0
M  V30 1649 H 149.288 0.882275 -2.86629 0
M  V30 1650 H 146.841 0.423838 -1.50444 0
M  V30 1651 H 147.576 2.95291 -1.34067 0
M  V30 1652 H 147.361 2.46735 -3.04736 0
M  V30 1653 H 148.851 3.31637 -2.53785 0
M  V30 1654 N 149.288 1.51039 0.449983 0
M  V30 1655 C 150.535 1.63081 1.20045 0
M  V30 1656 C 150.863 0.341024 1.91487 0
M  V30 1657 O 150.118 -0.674276 1.83717 0
M  V30 1658 C 150.417 2.77556 2.25161 0
M  V30 1659 C 150.083 4.17289 1.70823 0
M  V30 1660 C 148.745 4.55305 1.55725 0
M  V30 1661 C 151.097 5.04536 1.3074 0
M  V30 1662 C 148.425 5.78287 0.989999 0
M  V30 1663 C 150.777 6.28085 0.754482 0
M  V30 1664 C 149.441 6.64885 0.590308 0
M  V30 1665 H 148.711 0.596755 0.439277 0
M  V30 1666 H 151.358 1.85037 0.49333 0
M  V30 1667 H 149.663 2.49771 3.01863 0
M  V30 1668 H 151.36 2.84073 2.83026 0
M  V30 1669 H 147.95 3.8731 1.83546 0
M  V30 1670 H 152.134 4.75782 1.41229 0
M  V30 1671 H 147.39 6.05456 0.850451 0
M  V30 1672 H 151.564 6.95038 0.435324 0
M  V30 1673 H 149.191 7.60055 0.14862 0
M  V30 1674 N 150.766 -0.704594 1.40972 0
M  V30 1675 C 152.013 -1.46458 1.39844 0
M  V30 1676 C 152.341 -1.94499 0.00447594 0
M  V30 1677 O 151.596 -1.69275 -0.982057 0
M  V30 1678 C 151.895 -2.698 2.34399 0
M  V30 1679 C 151.561 -2.40464 3.81429 0
M  V30 1680 C 150.223 -2.32174 4.21484 0
M  V30 1681 C 152.575 -2.16086 4.74296 0
M  V30 1682 C 149.903 -1.97589 5.52427 0
M  V30 1683 C 152.255 -1.83011 6.05549 0
M  V30 1684 C 150.919 -1.7321 6.44635 0
M  V30 1685 H 150.189 -0.535927 0.511725 0
M  V30 1686 H 152.836 -0.806124 1.73706 0
M  V30 1687 H 151.141 -3.40536 1.93759 0
M  V30 1688 H 152.838 -3.27919 2.30804 0
M  V30 1689 H 149.428 -2.47808 3.49699 0
M  V30 1690 H 153.612 -2.2144 4.4416 0
M  V30 1691 H 148.868 -1.88547 5.81601 0
M  V30 1692 H 153.042 -1.63164 6.77016 0
M  V30 1693 H 150.669 -1.46179 7.46013 0
M  V30 1694 N 152.244 -1.26651 -0.937939 0
M  V30 1695 C 153.174 -1.10993 -2.05433 0
M  V30 1696 C 154.155 -0.0142161 -1.70094 0
M  V30 1697 O 155.34 -0.186837 -1.93299 0
M  V30 1698 C 152.47 -0.745561 -3.39203 0
M  V30 1699 C 151.424 -1.79337 -3.88616 0
M  V30 1700 C 150.75 -1.28324 -5.19073 0
M  V30 1701 C 152.05 -3.19553 -4.13138 0
M  V30 1702 H 153.744 -2.0438 -2.1879 0
M  V30 1703 H 151.29 -0.984041 -1.05131 0
M  V30 1704 H 153.243 -0.622888 -4.16771 0
M  V30 1705 H 151.967 0.22401 -3.25831 0
M  V30 1706 H 150.626 -1.90477 -3.13231 0
M  V30 1707 H 150.274 -0.303414 -5.02084 0
M  V30 1708 H 149.974 -1.98369 -5.53103 0
M  V30 1709 H 151.498 -1.1733 -5.99221 0
M  V30 1710 H 152.912 -3.11471 -4.81309 0
M  V30 1711 H 151.309 -3.87218 -4.58457 0
M  V30 1712 H 152.379 -3.65368 -3.18801 0
M  V30 1713 N 153.722 1.14298 -1.08507 0
M  V30 1714 C 154.969 1.85359 -0.815373 0
M  V30 1715 C 155.297 1.83001 0.658865 0
M  V30 1716 O 154.552 1.25655 1.50031 0
M  V30 1717 C 154.851 3.33547 -1.28379 0
M  V30 1718 C 154.517 3.56093 -2.76602 0
M  V30 1719 C 153.179 3.61955 -3.17084 0
M  V30 1720 C 155.531 3.64834 -3.72217 0
M  V30 1721 C 152.859 3.74082 -4.51973 0
M  V30 1722 C 155.211 3.78487 -5.06883 0
M  V30 1723 C 153.875 3.82598 -5.46969 0
M  V30 1724 H 153.145 0.678276 -0.298366 0
M  V30 1725 H 155.792 1.35002 -1.35819 0
M  V30 1726 H 154.097 3.86191 -0.660593 0
M  V30 1727 H 155.794 3.86959 -1.05186 0
M  V30 1728 H 152.384 3.52179 -2.4427 0
M  V30 1729 H 156.568 3.59595 -3.42061 0
M  V30 1730 H 151.824 3.75527 -4.82483 0
M  V30 1731 H 155.998 3.84193 -5.80834 0
M  V30 1732 H 153.625 3.91747 -6.51489 0
M  V30 1733 N 155.201 0.870884 1.31352 0
M  V30 1734 C 156.441 0.488783 1.9847 0
M  V30 1735 C 156.805 -0.941536 1.67329 0
M  V30 1736 O 158.006 -1.42903 2.27667 0
M  V30 1737 C 156.277 0.739688 3.49662 0
M  V30 1738 S 157.836 0.457582 4.36408 0
M  V30 1739 H 154.654 0.18242 0.6872 0
M  V30 1740 H 157.256 1.12711 1.59739 0
M  V30 1741 H 155.96 1.77944 3.69816 0
M  V30 1742 H 155.491 0.0883905 3.93301 0
M  V30 1743 H 157.506 -0.709752 4.91098 0
M  V30 1744 N 156.679 -1.44442 0.630414 0
M  V30 1745 C 157.904 -2.06927 0.139944 0
M  V30 1746 C 158.329 -1.46795 -1.17613 0
M  V30 1747 O 157.687 -0.569144 -1.72135 0
M  V30 1748 C 157.735 -3.6058 0.0379581 0
M  V30 1749 O 156.839 -3.99937 -1.0062 0
M  V30 1750 H 156.18 -0.658608 0.0844483 0
M  V30 1751 H 158.71 -1.85327 0.866891 0
M  V30 1752 H 158.72 -4.07714 -0.152856 0
M  V30 1753 H 157.395 -4.03728 0.998809 0
M  V30 1754 H 155.972 -3.64436 -0.79001 0
M  V30 1755 N 158.157 -0.370918 -1.53173 0
M  V30 1756 C 159.067 0.480823 -2.2962 0
M  V30 1757 C 160.083 1.08789 -1.35798 0
M  V30 1758 O 161.259 1.09768 -1.68858 0
M  V30 1759 C 158.324 1.60227 -3.07454 0
M  V30 1760 C 157.385 1.0222 -4.16953 0
M  V30 1761 C 156.618 2.0902 -4.91066 0
M  V30 1762 O 156.841 3.30222 -4.65091 0
M  V30 1763 O 155.775 1.71778 -5.76867 0
M  V30 1764 H 159.601 -0.141421 -3.03371 0
M  V30 1765 H 157.186 -0.135146 -1.48787 0
M  V30 1766 H 159.068 2.25417 -3.56041 0
M  V30 1767 H 157.743 2.20982 -2.36535 0
M  V30 1768 H 156.65 0.334064 -3.72605 0
M  V30 1769 H 157.983 0.459131 -4.90054 0
M  V30 1770 N 159.635 1.57281 -0.100228 0
M  V30 1771 C 160.865 1.98591 0.569681 0
M  V30 1772 C 161.273 0.978315 1.61943 0
M  V30 1773 O 160.616 -0.0396108 1.83657 0
M  V30 1774 C 160.678 3.36282 1.271 0
M  V30 1775 C 160.342 4.55488 0.371409 0
M  V30 1776 C 161.339 5.18491 -0.382504 0
M  V30 1777 C 159.024 5.01474 0.287965 0
M  V30 1778 C 161.018 6.25852 -1.20779 0
M  V30 1779 C 158.705 6.08701 -0.540965 0
M  V30 1780 C 159.703 6.70755 -1.28749 0
M  V30 1781 O 159.391 7.75914 -2.10269 0
M  V30 1782 H 159.123 0.65752 0.156982 0
M  V30 1783 H 161.677 2.0463 -0.177734 0
M  V30 1784 H 159.907 3.26941 2.0651 0
M  V30 1785 H 161.596 3.62005 1.83595 0
M  V30 1786 H 162.362 4.83891 -0.3278 0
M  V30 1787 H 158.241 4.52932 0.858689 0
M  V30 1788 H 161.785 6.74218 -1.79096 0
M  V30 1789 H 157.682 6.42732 -0.597131 0
M  V30 1790 H 158.45 7.92925 -2.03007 0
M  V30 1791 N 161.113 -0.173488 1.56642 0
M  V30 1792 C 162.529 -0.525174 1.50712 0
M  V30 1793 C 162.729 -1.8476 0.804107 0
M  V30 1794 O 161.785 -2.49869 0.363574 0
M  V30 1795 C 163.098 -0.559937 2.95441 0
M  V30 1796 C 164.646 -0.647288 3.06234 0
M  V30 1797 C 165.121 -0.712963 4.52417 0
M  V30 1798 N 166.612 -0.775911 4.56655 0
M  V30 1799 C 167.347 -0.847264 5.67106 0
M  V30 1800 N 166.843 -0.879585 6.87194 0
M  V30 1801 N 168.636 -0.886117 5.55071 0
M  V30 1802 H 160.787 0.693681 2.00753 0
M  V30 1803 H 163.05 0.249841 0.914485 0
M  V30 1804 H 162.756 0.343049 3.50023 0
M  V30 1805 H 162.63 -1.40718 3.49969 0
M  V30 1806 H 165.017 -1.5407 2.51687 0
M  V30 1807 H 165.098 0.226586 2.54794 0
M  V30 1808 H 164.742 0.176183 5.07594 0
M  V30 1809 H 164.672 -1.60295 5.0161 0
M  V30 1810 H 167.163 -0.759304 3.70193 0
M  V30 1811 H 167.476 -0.935144 7.67121 0
M  V30 1812 H 165.821 -0.847898 6.89808 0
M  V30 1813 H 169.012 -0.857853 4.60172 0
M  V30 1814 H 169.185 -0.938263 6.41171 0
M  V30 1815 N 162.591 -1.51276 -0.441967 0
M  V30 1816 C 164.002 -1.56244 -1.02199 0
M  V30 1817 C 164.353 -0.383149 -1.92422 0
M  V30 1818 O 163.478 0.500613 -2.1053 0
M  V30 1819 C 164.073 -2.83162 -1.86024 0
M  V30 1820 C 162.632 -2.90716 -2.39084 0
M  V30 1821 C 161.779 -2.50858 -1.18175 0
M  V30 1822 H 164.73 -1.5712 -0.223416 0
M  V30 1823 H 164.751 -2.66663 -2.71425 0
M  V30 1824 H 164.263 -3.68974 -1.20331 0
M  V30 1825 H 162.364 -2.09323 -3.08244 0
M  V30 1826 H 162.477 -3.94266 -2.72198 0
M  V30 1827 H 160.841 -2.03951 -1.52565 0
M  V30 1828 H 161.624 -3.3901 -0.541001 0
M  V30 1829 N 164.069 0.697108 -1.41344 0
M  V30 1830 C 165.016 1.81106 -1.43071 0
M  V30 1831 C 165.986 1.63632 -0.285275 0
M  V30 1832 O 167.171 1.84504 -0.486091 0
M  V30 1833 C 164.311 3.18975 -1.31715 0
M  V30 1834 C 163.424 3.47892 -2.56115 0
M  V30 1835 C 162.559 4.75367 -2.37064 0
M  V30 1836 C 161.598 4.97247 -3.56948 0
M  V30 1837 N 160.735 6.15947 -3.36977 0
M  V30 1838 H 165.575 1.78965 -2.38276 0
M  V30 1839 H 163.112 0.873975 -1.18322 0
M  V30 1840 H 165.07 3.98615 -1.23133 0
M  V30 1841 H 163.7 3.20297 -0.401183 0
M  V30 1842 H 162.752 2.62669 -2.75153 0
M  V30 1843 H 164.064 3.59962 -3.45295 0
M  V30 1844 H 163.218 5.63059 -2.25941 0
M  V30 1845 H 161.957 4.65541 -1.45338 0
M  V30 1846 H 160.962 4.08004 -3.68527 0
M  V30 1847 H 162.187 5.08934 -4.49626 0
M  V30 1848 H 160.133 6.07336 -2.47949 0
M  V30 1849 H 160.05 6.28777 -4.19732 0
M  V30 1850 H 161.318 7.06377 -3.29623 0
M  V30 1851 N 165.547 1.27147 0.931209 0
M  V30 1852 C 166.796 1.12664 1.67302 0
M  V30 1853 C 167.109 -0.327718 1.92835 0
M  V30 1854 O 168.315 -0.593392 2.64936 0
M  V30 1855 C 166.771 1.9683 3.01307 0
M  V30 1856 C 166.379 3.46901 2.83485 0
M  V30 1857 C 168.123 1.90985 3.79111 0
M  V30 1858 C 166.03 4.23279 4.13024 0
M  V30 1859 H 164.96 0.41803 0.627509 0
M  V30 1860 H 167.611 1.51539 1.03481 0
M  V30 1861 H 165.993 1.50797 3.66164 0
M  V30 1862 H 167.167 4.00773 2.27415 0
M  V30 1863 H 165.482 3.54088 2.19113 0
M  V30 1864 H 168.079 2.45328 4.75098 0
M  V30 1865 H 168.422 0.882718 4.06834 0
M  V30 1866 H 168.955 2.34895 3.21044 0
M  V30 1867 H 165.694 5.26503 3.90481 0
M  V30 1868 H 165.214 3.74186 4.6877 0
M  V30 1869 H 166.893 4.32265 4.81411 0
M  V30 1870 N 167.025 -1.13721 1.09112 0
M  V30 1871 C 167.972 -2.19031 0.727591 0
M  V30 1872 C 168.942 -1.63555 -0.289656 0
M  V30 1873 O 170.127 -1.90023 -0.172026 0
M  V30 1874 C 167.267 -3.4477 0.15082 0
M  V30 1875 C 166.38 -4.14365 1.22172 0
M  V30 1876 C 165.515 -5.27709 0.608042 0
M  V30 1877 C 164.554 -5.89147 1.66047 0
M  V30 1878 N 163.691 -6.93929 1.06806 0
M  V30 1879 H 168.531 -2.49475 1.62991 0
M  V30 1880 H 166.068 -1.22499 0.81439 0
M  V30 1881 H 168.026 -4.16714 -0.201358 0
M  V30 1882 H 166.656 -3.14787 -0.714783 0
M  V30 1883 H 165.708 -3.40737 1.69122 0
M  V30 1884 H 167.02 -4.56114 2.01895 0
M  V30 1885 H 166.174 -6.06355 0.204523 0
M  V30 1886 H 164.913 -4.872 -0.220769 0
M  V30 1887 H 163.918 -5.09198 2.07357 0
M  V30 1888 H 165.143 -6.31729 2.49189 0
M  V30 1889 H 163.089 -6.55483 0.260476 0
M  V30 1890 H 163.006 -7.34202 1.8023 0
M  V30 1891 H 164.274 -7.76434 0.690644 0
M  V30 1892 N 168.503 -0.877838 -1.30888 0
M  V30 1893 C 169.751 -0.491723 -1.96027 0
M  V30 1894 C 170.072 0.960827 -1.69685 0
M  V30 1895 O 169.342 1.67462 -1.01654 0
M  V30 1896 H 167.922 -0.17885 -0.725273 0
M  V30 1897 H 170.584 -1.11935 -1.59551 0
M  V30 1898 H 169.68 -0.656016 -3.05128 0
M  V30 1899 N 169.982 1.44106 -0.638065 0
M  V30 1900 C 170.892 2.34513 0.0637334 0
M  V30 1901 C 171.908 1.53018 0.828346 0
M  V30 1902 O 173.084 1.85723 0.779036 0
M  V30 1903 C 170.149 3.31095 1.02844 0
M  V30 1904 C 169.21 4.28497 0.26244 0
M  V30 1905 C 168.443 5.20465 1.1812 0
M  V30 1906 O 168.666 5.16514 2.42011 0
M  V30 1907 O 167.6 5.98251 0.661774 0
M  V30 1908 H 171.426 2.95989 -0.68003 0
M  V30 1909 H 169.011 1.43994 -0.398252 0
M  V30 1910 H 170.893 3.90526 1.58327 0
M  V30 1911 H 169.568 2.72144 1.7527 0
M  V30 1912 H 168.475 3.72592 -0.335602 0
M  V30 1913 H 169.808 4.90388 -0.421936 0
M  V30 1914 N 171.46 0.379036 1.52974 0
M  V30 1915 C 172.41 -0.477772 2.22938 0
M  V30 1916 C 173.394 -1.03792 1.22948 0
M  V30 1917 O 174.586 -0.965725 1.48333 0
M  V30 1918 C 171.715 -1.60994 3.03209 0
M  V30 1919 C 170.801 -1.06203 4.10587 0
M  V30 1920 N 171.192 -0.238214 5.05239 0
M  V30 1921 C 169.49 -1.33554 4.25534 0
M  V30 1922 C 170.191 0.0633235 5.81666 0
M  V30 1923 N 169.167 -0.537901 5.40932 0
M  V30 1924 H 172.969 0.158295 2.93473 0
M  V30 1925 H 170.483 0.187778 1.61311 0
M  V30 1926 H 172.48 -2.23607 3.5186 0
M  V30 1927 H 171.14 -2.24893 2.34207 0
M  V30 1928 H 172.151 0.123695 5.17752 0
M  V30 1929 H 168.828 -1.97632 3.6776 0
M  V30 1930 H 170.218 0.730161 6.67921 0
M  V30 1931 N 172.938 -1.57226 0.108567 0
M  V30 1932 C 174.349 -1.8195 -0.418464 0
M  V30 1933 C 174.7 -1.02508 -1.67292 0
M  V30 1934 O 173.825 -0.258496 -2.14851 0
M  V30 1935 C 174.42 -3.30028 -0.765979 0
M  V30 1936 C 172.979 -3.55469 -1.23769 0
M  V30 1937 C 172.126 -2.7625 -0.241106 0
M  V30 1938 H 175.077 -1.55149 0.33384 0
M  V30 1939 H 175.098 -3.44086 -1.62434 0
M  V30 1940 H 174.61 -3.87821 0.147219 0
M  V30 1941 H 172.711 -3.03022 -2.16814 0
M  V30 1942 H 172.824 -4.6408 -1.19022 0
M  V30 1943 H 171.188 -2.44133 -0.72602 0
M  V30 1944 H 171.971 -3.36797 0.665007 0
M  V30 1945 N 174.416 0.165178 -1.56732 0
M  V30 1946 C 175.664 0.879068 -1.8198 0
M  V30 1947 C 175.985 1.82514 -0.686561 0
M  V30 1948 O 175.255 1.93694 0.293146 0
M  V30 1949 H 173.835 0.327608 -0.671329 0
M  V30 1950 H 176.497 0.163526 -1.94213 0
M  V30 1951 H 175.593 1.45228 -2.76252 0
M  V30 1952 N 175.894 1.51508 0.433938 0
M  V30 1953 C 176.824 1.76016 1.53429 0
M  V30 1954 C 177.805 0.610112 1.58782 0
M  V30 1955 O 178.99 0.853177 1.74455 0
M  V30 1956 C 176.12 1.88831 2.9148 0
M  V30 1957 C 175.074 3.04288 3.00987 0
M  V30 1958 C 174.4 3.0229 4.4105 0
M  V30 1959 C 175.7 4.44193 2.74754 0
M  V30 1960 H 177.394 2.68152 1.33171 0
M  V30 1961 H 174.94 1.29035 0.639214 0
M  V30 1962 H 176.893 2.04559 3.6842 0
M  V30 1963 H 175.617 0.933455 3.12976 0
M  V30 1964 H 174.276 2.8827 2.26486 0
M  V30 1965 H 173.924 2.04576 4.59519 0
M  V30 1966 H 173.624 3.79822 4.4834 0
M  V30 1967 H 175.148 3.20116 5.1996 0
M  V30 1968 H 176.562 4.60544 3.41426 0
M  V30 1969 H 174.959 5.23457 2.9345 0
M  V30 1970 H 176.029 4.53996 1.70339 0
M  V30 1971 N 177.372 -0.689602 1.41712 0
M  V30 1972 C 178.597 -1.48329 1.44959 0
M  V30 1973 C 179.022 -1.8801 0.0581283 0
M  V30 1974 O 178.38 -1.55026 -0.940035 0
M  V30 1975 C 178.428 -2.71835 2.36935 0
M  V30 1976 O 177.532 -3.69549 1.8305 0
M  V30 1977 H 176.873 -0.446199 0.491734 0
M  V30 1978 H 179.403 -0.847127 1.86239 0
M  V30 1979 H 179.413 -3.20076 2.53013 0
M  V30 1980 H 178.088 -2.42291 3.38035 0
M  V30 1981 H 176.665 -3.2851 1.76452 0
M  V30 1982 N 178.85 -1.27639 -0.924453 0
M  V30 1983 C 180.099 -1.13549 -1.66702 0
M  V30 1984 C 180.412 0.317487 -1.93006 0
M  V30 1985 O 181.618 0.579333 -2.65247 0
M  V30 1986 C 180.074 -1.98426 -3.00259 0
M  V30 1987 C 179.682 -3.484 -2.81641 0
M  V30 1988 C 181.426 -1.92993 -3.78092 0
M  V30 1989 C 179.333 -4.25464 -4.10773 0
M  V30 1990 H 178.263 -0.421351 -0.625283 0
M  V30 1991 H 180.914 -1.52085 -1.02676 0
M  V30 1992 H 179.296 -1.52736 -3.6536 0
M  V30 1993 H 180.47 -4.01973 -2.25287 0
M  V30 1994 H 178.785 -3.55245 -2.17232 0
M  V30 1995 H 181.382 -2.47844 -4.7379 0
M  V30 1996 H 181.725 -0.904281 -4.0636 0
M  V30 1997 H 182.258 -2.36595 -3.19793 0
M  V30 1998 H 178.997 -5.28566 -3.87683 0
M  V30 1999 H 178.517 -3.76667 -4.66779 0
M  V30 2000 H 180.196 -4.34812 -4.79111 0
M  V30 2001 N 180.328 1.1314 -1.09713 0
M  V30 2002 C 181.576 1.84119 -0.833338 0
M  V30 2003 C 181.897 1.84097 0.642904 0
M  V30 2004 O 181.167 1.29881 1.46655 0
M  V30 2005 H 179.747 0.681766 -0.305293 0
M  V30 2006 H 182.409 1.37038 -1.38588 0
M  V30 2007 H 181.505 2.88543 -1.18951 0
M  V30 2008 N 181.806 0.884767 1.30421 0
M  V30 2009 C 183.083 0.423185 1.90967 0
M  V30 2010 C 183.463 -1.09605 1.80416 0
M  V30 2011 O 182.811 -1.93126 1.22125 0
M  V30 2012 C 183.021 0.921056 3.36627 0
M  V30 2013 C 184.369 0.955903 4.137 0
M  V30 2014 O 185.393 0.867706 3.4547 0
M  V30 2015 O 184.252 1.08614 5.35598 0
M  V30 2016 H 181.346 0.129369 0.816819 0
M  V30 2017 H 183.892 0.973653 1.3899 0
M  V30 2018 H 182.664 1.96489 3.3839 0
M  V30 2019 H 182.287 0.349741 3.96059 0
M  V30 2020 N 183.284 -1.43765 0.645699 0
M  V30 2021 C 184.53 -2.02197 0.156271 0
M  V30 2022 C 184.863 -1.50776 -1.22393 0
M  V30 2023 O 184.138 -0.697771 -1.81553 0
M  V30 2024 C 184.421 -3.59749 0.158872 0
M  V30 2025 C 184.274 -4.21419 1.57245 0
M  V30 2026 C 185.593 -4.37149 -0.50879 0
M  V30 2027 H 182.712 -0.734694 0.0582602 0
M  V30 2028 H 185.354 -1.71157 0.824951 0
M  V30 2029 H 183.504 -3.86325 -0.410525 0
M  V30 2030 H 185.176 -4.059 2.19186 0
M  V30 2031 H 183.419 -3.78356 2.122 0
M  V30 2032 H 184.09 -5.30482 1.52619 0
M  V30 2033 H 186.566 -4.16093 -0.024412 0
M  V30 2034 H 185.442 -5.4683 -0.476213 0
M  V30 2035 H 185.703 -4.12839 -1.58165 0
M  V30 2036 N 184.763 -0.387143 -1.52771 0
M  V30 2037 C 185.726 0.436939 -2.24997 0
M  V30 2038 C 186.726 0.991991 -1.26555 0
M  V30 2039 O 187.916 0.874335 -1.50669 0
M  V30 2040 C 185.048 1.61281 -3.00335 0
M  V30 2041 H 186.241 -0.195365 -2.99263 0
M  V30 2042 H 183.794 -0.139218 -1.55679 0
M  V30 2043 H 184.529 2.2826 -2.30364 0
M  V30 2044 H 184.314 1.22154 -3.72587 0
M  V30 2045 H 185.804 2.19629 -3.5518 0
M  V30 2046 N 186.241 1.57166 -0.116904 0
M  V30 2047 C 187.188 2.15202 0.83408 0
M  V30 2048 C 188.158 1.07644 1.26499 0
M  V30 2049 O 189.343 1.35541 1.34288 0
M  V30 2050 C 186.483 2.75405 2.07957 0
M  V30 2051 C 185.596 3.97264 1.69721 0
M  V30 2052 C 184.731 4.45561 2.89221 0
M  V30 2053 C 183.77 5.59956 2.47215 0
M  V30 2054 N 182.907 6.03006 3.59622 0
M  V30 2055 H 187.747 2.96141 0.332335 0
M  V30 2056 H 185.284 1.46309 0.152349 0
M  V30 2057 H 187.242 3.08439 2.80929 0
M  V30 2058 H 185.872 1.97159 2.55594 0
M  V30 2059 H 184.924 3.70404 0.866316 0
M  V30 2060 H 186.236 4.80226 1.34849 0
M  V30 2061 H 185.39 4.80493 3.7042 0
M  V30 2062 H 184.129 3.61544 3.27318 0
M  V30 2063 H 183.134 5.2463 1.64448 0
M  V30 2064 H 184.359 6.45738 2.10238 0
M  V30 2065 H 182.305 5.21931 3.97396 0
M  V30 2066 H 182.222 6.80819 3.28667 0
M  V30 2067 H 183.49 6.42576 4.41267 0
M  V30 2068 N 187.719 -0.156864 1.56817 0
M  V30 2069 C 188.666 -1.19394 1.97519 0
M  V30 2070 C 189.636 -1.4322 0.841265 0
M  V30 2071 O 190.821 -1.55719 1.10255 0
M  V30 2072 C 187.961 -2.52483 2.35258 0
M  V30 2073 C 187.074 -2.35914 3.61896 0
M  V30 2074 C 186.209 -3.61969 3.88782 0
M  V30 2075 C 185.248 -3.40395 5.08722 0
M  V30 2076 N 184.385 -4.58556 5.31668 0
M  V30 2077 H 189.225 -0.839845 2.85921 0
M  V30 2078 H 186.762 -0.403264 1.41464 0
M  V30 2079 H 188.72 -3.30071 2.55165 0
M  V30 2080 H 187.35 -2.85859 1.49949 0
M  V30 2081 H 186.402 -1.49429 3.49821 0
M  V30 2082 H 187.714 -2.15926 4.49641 0
M  V30 2083 H 186.868 -4.47989 4.09135 0
M  V30 2084 H 185.607 -3.84951 2.9944 0
M  V30 2085 H 184.612 -2.52763 4.88253 0
M  V30 2086 H 185.837 -3.18822 5.99608 0
M  V30 2087 H 183.783 -4.81729 4.45279 0
M  V30 2088 H 183.7 -4.41535 6.13664 0
M  V30 2089 H 184.968 -5.45817 5.5651 0
M  V30 2090 N 189.197 -1.51736 -0.425897 0
M  V30 2091 C 190.127 -1.76827 -1.52494 0
M  V30 2092 C 191.108 -0.618524 -1.58456 0
M  V30 2093 O 192.293 -0.862416 -1.74 0
M  V30 2094 C 189.423 -1.90374 -2.90474 0
M  V30 2095 C 188.377 -3.0588 -2.99369 0
M  V30 2096 C 187.703 -3.04625 -4.3944 0
M  V30 2097 C 189.003 -4.45644 -2.72394 0
M  V30 2098 H 190.697 -2.68855 -1.31748 0
M  V30 2099 H 188.243 -1.29372 -0.632362 0
M  V30 2100 H 190.196 -2.0651 -3.6733 0
M  V30 2101 H 188.92 -0.95004 -3.12477 0
M  V30 2102 H 187.579 -2.89467 -2.24954 0
M  V30 2103 H 187.227 -2.0701 -4.58428 0
M  V30 2104 H 186.927 -3.82195 -4.46319 0
M  V30 2105 H 188.451 -3.22869 -5.18255 0
M  V30 2106 H 189.865 -4.62348 -3.38979 0
M  V30 2107 H 188.262 -5.25006 -2.9067 0
M  V30 2108 H 189.332 -4.54893 -1.67929 0
M  V30 2109 N 190.675 0.682077 -1.42076 0
M  V30 2110 C 191.923 1.4393 -1.41876 0
M  V30 2111 C 192.244 1.94971 -0.0335599 0
M  V30 2112 O 191.514 1.72591 0.926773 0
M  V30 2113 H 190.094 0.534085 -0.522267 0
M  V30 2114 H 192.756 0.806427 -1.77434 0
M  V30 2115 H 191.852 2.29588 -2.11414 0
M  V30 2116 N 192.153 1.28127 0.917671 0
M  V30 2117 C 193.063 1.13556 2.05286 0
M  V30 2118 C 194.079 0.0630914 1.73886 0
M  V30 2119 O 195.255 0.271598 1.9956 0
M  V30 2120 C 192.32 0.794676 3.3747 0
M  V30 2121 C 191.381 1.94909 3.82504 0
M  V30 2122 C 190.614 1.62437 5.0838 0
M  V30 2123 O 190.837 0.536905 5.67867 0
M  V30 2124 O 189.771 2.46677 5.4903 0
M  V30 2125 H 193.597 2.08844 2.20495 0
M  V30 2126 H 191.182 1.07409 1.03845 0
M  V30 2127 H 193.064 0.618344 4.16839 0
M  V30 2128 H 191.739 -0.128581 3.23445 0
M  V30 2129 H 190.646 2.18055 3.03978 0
M  V30 2130 H 191.979 2.85291 4.01086 0
M  V30 2131 N 193.631 -1.12557 1.10312 0
M  V30 2132 C 194.564 -2.1737 0.694674 0
M  V30 2133 C 195.542 -1.59745 -0.303373 0
M  V30 2134 O 196.726 -1.87408 -0.202578 0
M  V30 2135 C 193.853 -3.38691 0.0248052 0
M  V30 2136 C 192.899 -4.14943 0.986121 0
M  V30 2137 S 193.732 -4.73413 2.50281 0
M  V30 2138 C 194.888 -5.9807 1.84562 0
M  V30 2139 H 195.121 -2.5168 1.58255 0
M  V30 2140 H 192.654 -1.23998 0.919992 0
M  V30 2141 H 194.612 -4.08959 -0.355361 0
M  V30 2142 H 193.273 -3.02664 -0.839851 0
M  V30 2143 H 192.466 -5.01854 0.464651 0
M  V30 2144 H 192.068 -3.50377 1.30813 0
M  V30 2145 H 194.36 -6.67232 1.17507 0
M  V30 2146 H 195.303 -6.54841 2.69423 0
M  V30 2147 H 195.711 -5.49073 1.31069 0
M  V30 2148 N 195.109 -0.891671 -1.2995 0
M  V30 2149 C 196.355 -0.523649 -1.96544 0
M  V30 2150 C 196.71 0.918394 -1.69066 0
M  V30 2151 O 196.003 1.64122 -0.988659 0
M  V30 2152 C 196.197 -0.742868 -3.49594 0
M  V30 2153 C 196.026 -2.20467 -3.9195 0
M  V30 2154 C 194.796 -2.85055 -4.17219 0
M  V30 2155 C 196.994 -3.17912 -4.04273 0
M  V30 2156 N 194.976 -4.21762 -4.46083 0
M  V30 2157 C 196.347 -4.39712 -4.37097 0
M  V30 2158 C 198.402 -3.1361 -3.86721 0
M  V30 2159 C 197.105 -5.5776 -4.54199 0
M  V30 2160 C 199.131 -4.30936 -4.05028 0
M  V30 2161 C 198.493 -5.51504 -4.38204 0
M  V30 2162 H 194.592 -0.241072 -0.743914 0
M  V30 2163 H 197.176 -1.15081 -1.5705 0
M  V30 2164 H 195.347 -0.14515 -3.88129 0
M  V30 2165 H 197.079 -0.341081 -4.0326 0
M  V30 2166 H 193.834 -2.35889 -4.10674 0
M  V30 2167 H 194.258 -4.92382 -4.64638 0
M  V30 2168 H 198.9 -2.21489 -3.60142 0
M  V30 2169 H 196.618 -6.50379 -4.79618 0
M  V30 2170 H 200.204 -4.29085 -3.92909 0
M  V30 2171 H 199.084 -6.40778 -4.52077 0
M  V30 2172 N 196.587 1.43421 -0.653314 0
M  V30 2173 C 197.535 2.32546 0.0501531 0
M  V30 2174 C 198.529 1.48617 0.812985 0
M  V30 2175 O 199.735 1.64825 0.723375 0
M  V30 2176 H 196.11 0.751185 0.0350032 0
M  V30 2177 H 198.081 2.89602 -0.719261 0
M  V30 2178 C 196.83 3.32925 1.00279 0
M  V30 2179 H 196.153 3.97532 0.425236 0
M  V30 2180 H 197.593 3.9792 1.46409 0
M  V30 2181 C 196.052 2.63532 2.09886 0
M  V30 2182 O 196.582 2.45092 3.18265 0
M  V30 2183 N 194.788 2.22905 1.86445 0
M  V30 2184 H 194.335 2.38103 0.98309 0
M  V30 2185 H 194.293 1.76805 2.59976 0
M  V30 2186 N 198.065 0.39524 1.52563 0
M  V30 2187 C 199.013 -0.451859 2.28169 0
M  V30 2188 C 200.007 -1.05792 1.32304 0
M  V30 2189 O 201.213 -0.997718 1.49818 0
M  V30 2190 H 197.588 -0.164481 0.733792 0
M  V30 2191 H 199.559 0.207199 2.9768 0
M  V30 2192 C 198.308 -1.56385 3.10546 0
M  V30 2193 H 197.631 -1.10682 3.84174 0
M  V30 2194 H 199.071 -2.13067 3.66577 0
M  V30 2195 C 197.53 -2.52328 2.23231 0
M  V30 2196 O 198.06 -3.5588 1.86312 0
M  V30 2197 N 196.266 -2.22209 1.87274 0
M  V30 2198 H 195.813 -1.38033 2.17496 0
M  V30 2199 H 195.771 -2.86652 1.29143 0
M  V30 2200 N 199.544 -1.57102 0.125237 0
M  V30 2201 C 200.772 -1.99761 -0.538797 0
M  V30 2202 C 201.187 -1.00503 -1.59827 0
M  V30 2203 O 200.544 0.00119474 -1.825 0
M  V30 2204 C 200.595 -3.42408 -1.15927 0
M  V30 2205 O 200.316 -4.37869 -0.142143 0
M  V30 2206 C 201.817 -4.00232 -1.90602 0
M  V30 2207 H 199.037 -0.655772 -0.14214 0
M  V30 2208 H 201.581 -2.03383 0.213413 0
M  V30 2209 H 199.736 -3.39706 -1.86223 0
M  V30 2210 H 200.15 -5.21128 -0.593775 0
M  V30 2211 H 201.624 -5.02105 -2.29335 0
M  V30 2212 H 202.101 -3.39721 -2.78363 0
M  V30 2213 H 202.707 -4.06499 -1.25055 0
M  V30 2214 N 201.022 0.148545 -1.56898 0
M  V30 2215 C 201.985 1.16736 -1.97244 0
M  V30 2216 C 202.985 1.35947 -0.858777 0
M  V30 2217 O 204.175 1.32966 -1.12542 0
M  V30 2218 C 201.307 2.52798 -2.28705 0
M  V30 2219 H 202.5 0.821279 -2.88435 0
M  V30 2220 H 200.053 0.391831 -1.51309 0
M  V30 2221 H 200.788 2.92381 -1.403 0
M  V30 2222 H 200.573 2.40216 -3.09901 0
M  V30 2223 H 202.063 3.26179 -2.60762 0
M  V30 2224 N 202.5 1.5196 0.417844 0
M  V30 2225 C 203.463 1.74065 1.49111 0
M  V30 2226 C 204.463 0.610537 1.48758 0
M  V30 2227 O 205.653 0.87832 1.50437 0
M  V30 2228 C 202.785 1.81502 2.88565 0
M  V30 2229 H 203.978 2.69869 1.30807 0
M  V30 2230 H 201.531 1.42244 0.647785 0
M  V30 2231 H 202.266 0.875813 3.1225 0
M  V30 2232 H 202.051 2.63651 2.90225 0
M  V30 2233 H 203.541 2.00376 3.66387 0
M  V30 2234 N 203.978 -0.674533 1.42435 0
M  V30 2235 C 205.255 -1.4305 1.33402 0
M  V30 2236 C 205.635 -2.11081 -0.0284674 0
M  V30 2237 O 204.983 -2.03257 -1.04397 0
M  V30 2238 C 205.193 -2.43272 2.50239 0
M  V30 2239 C 206.541 -3.07907 2.92367 0
M  V30 2240 O 207.565 -2.53599 2.50132 0
M  V30 2241 O 206.424 -4.0632 3.65467 0
M  V30 2242 H 203.518 -0.638076 0.526106 0
M  V30 2243 H 206.064 -0.703235 1.54443 0
M  V30 2244 H 204.836 -1.91803 3.41068 0
M  V30 2245 H 204.459 -3.23479 2.31186 0
M  V30 2246 N 205.456 -1.28612 -0.910864 0
M  V30 2247 C 206.733 -1.06632 -1.63979 0
M  V30 2248 C 207.113 0.393351 -2.07403 0
M  V30 2249 O 206.461 1.37999 -1.82122 0
M  V30 2250 C 206.671 -2.0436 -2.8291 0
M  V30 2251 C 208.019 -2.34666 -3.5386 0
M  V30 2252 O 209.043 -2.02467 -2.93062 0
M  V30 2253 O 207.902 -2.89631 -4.63439 0
M  V30 2254 H 204.996 -0.407737 -0.7195 0
M  V30 2255 H 207.542 -1.39942 -0.959914 0
M  V30 2256 H 206.314 -3.02727 -2.47936 0
M  V30 2257 H 205.937 -1.71714 -3.58609 0
M  V30 2258 N 206.934 1.1197 -1.10907 0
M  V30 2259 C 207.881 2.17846 -0.762345 0
M  V30 2260 C 208.851 1.63995 0.263599 0
M  V30 2261 O 210.036 1.90273 0.141773 0
M  V30 2262 C 207.176 3.44487 -0.205651 0
M  V30 2263 C 206.289 4.12369 -1.28748 0
M  V30 2264 C 205.424 5.26674 -0.691919 0
M  V30 2265 C 204.463 5.86431 -1.75399 0
M  V30 2266 N 203.6 6.92142 -1.17833 0
M  V30 2267 H 208.44 2.46851 -1.6694 0
M  V30 2268 H 205.977 1.21188 -0.833776 0
M  V30 2269 H 207.935 4.16981 0.135037 0
M  V30 2270 H 206.565 3.15884 0.664613 0
M  V30 2271 H 205.617 3.38003 -1.74522 0
M  V30 2272 H 206.929 4.52844 -2.09125 0
M  V30 2273 H 206.083 6.05953 -0.300963 0
M  V30 2274 H 204.822 4.8749 0.143232 0
M  V30 2275 H 203.827 5.05835 -2.15432 0
M  V30 2276 H 205.052 6.27685 -2.59208 0
M  V30 2277 H 202.998 6.54985 -0.364725 0
M  V30 2278 H 202.915 7.31242 -1.91887 0
M  V30 2279 H 204.183 7.75237 -0.81408 0
M  V30 2280 N 208.412 0.89855 1.29475 0
M  V30 2281 C 209.344 0.332726 2.26772 0
M  V30 2282 C 210.357 -0.520323 1.54261 0
M  V30 2283 O 211.546 -0.337668 1.75277 0
M  V30 2284 C 208.646 -0.544334 3.345 0
M  V30 2285 C 207.819 0.282728 4.36485 0
M  V30 2286 C 206.878 -0.526982 5.23555 0
M  V30 2287 O 205.904 0.0551165 5.69173 0
M  V30 2288 N 207.106 -1.83331 5.5079 0
M  V30 2289 H 209.871 1.16897 2.75962 0
M  V30 2290 H 207.432 0.762919 1.42798 0
M  V30 2291 H 209.424 -1.09239 3.89678 0
M  V30 2292 H 207.994 -1.28127 2.85136 0
M  V30 2293 H 207.214 1.01221 3.80983 0
M  V30 2294 H 208.502 0.84918 5.01664 0
M  V30 2295 H 207.9 -2.32898 5.15534 0
M  V30 2296 H 206.457 -2.32852 6.08788 0
M  V30 2297 N 209.89 -1.43072 0.660911 0
M  V30 2298 C 211.301 -1.84932 0.256348 0
M  V30 2299 C 211.652 -1.55325 -1.19868 0
M  V30 2300 O 210.777 -1.00607 -1.91591 0
M  V30 2301 C 211.372 -3.35684 0.458475 0
M  V30 2302 C 209.931 -3.76245 0.108161 0
M  V30 2303 C 209.078 -2.66749 0.757641 0
M  V30 2304 H 212.029 -1.33116 0.864051 0
M  V30 2305 H 212.05 -3.79365 -0.293683 0
M  V30 2306 H 211.562 -3.572 1.51755 0
M  V30 2307 H 209.663 -3.60338 -0.948014 0
M  V30 2308 H 209.776 -4.76058 0.538992 0
M  V30 2309 H 208.14 -2.53989 0.190185 0
M  V30 2310 H 208.923 -2.91092 1.81989 0
M  V30 2311 N 211.368 -0.403325 -1.52352 0
M  V30 2312 C 212.598 0.17376 -2.05868 0
M  V30 2313 C 213.006 1.39898 -1.27378 0
M  V30 2314 O 212.349 1.80939 -0.31729 0
M  V30 2315 C 212.411 0.594756 -3.54546 0
M  V30 2316 C 212.075 -0.518926 -4.54044 0
M  V30 2317 C 213.072 -1.3807 -5.01231 0
M  V30 2318 C 210.757 -0.689961 -4.97539 0
M  V30 2319 C 212.751 -2.39852 -5.90551 0
M  V30 2320 C 210.438 -1.71109 -5.86656 0
M  V30 2321 C 211.436 -2.56378 -6.33056 0
M  V30 2322 O 211.124 -3.56743 -7.20409 0
M  V30 2323 H 210.856 0.0264951 -0.675481 0
M  V30 2324 H 213.41 -0.571179 -1.97299 0
M  V30 2325 H 211.64 1.39189 -3.60782 0
M  V30 2326 H 213.329 1.0991 -3.90736 0
M  V30 2327 H 214.095 -1.25994 -4.68349 0
M  V30 2328 H 209.974 -0.035939 -4.60986 0
M  V30 2329 H 213.518 -3.06441 -6.26689 0
M  V30 2330 H 209.415 -1.83218 -6.18952 0
M  V30 2331 H 210.183 -3.52918 -7.38506 0
M  V30 2332 N 212.846 1.57033 -0.133567 0
M  V30 2333 C 213.756 2.19632 0.824564 0
M  V30 2334 C 214.772 1.17666 1.28182 0
M  V30 2335 O 215.948 1.50193 1.3418 0
M  V30 2336 C 213.013 2.79499 2.05137 0
M  V30 2337 C 212.074 3.96548 1.64464 0
M  V30 2338 C 211.307 4.5355 2.81297 0
M  V30 2339 O 211.53 4.09438 3.97136 0
M  V30 2340 O 210.464 5.44018 2.57542 0
M  V30 2341 H 214.29 3.01991 0.321766 0
M  V30 2342 H 211.875 1.49112 0.0927889 0
M  V30 2343 H 213.757 3.17602 2.7696 0
M  V30 2344 H 212.432 2.00162 2.54395 0
M  V30 2345 H 211.339 3.63186 0.897048 0
M  V30 2346 H 212.672 4.77364 1.19934 0
M  V30 2347 N 214.325 -0.140222 1.56975 0
M  V30 2348 C 215.272 -1.17292 1.98774 0
M  V30 2349 C 216.242 -1.4232 0.856408 0
M  V30 2350 O 217.427 -1.54541 1.119 0
M  V30 2351 C 214.567 -2.49973 2.37923 0
M  V30 2352 C 213.68 -2.32062 3.64378 0
M  V30 2353 C 212.815 -3.57825 3.926 0
M  V30 2354 C 211.854 -3.3498 5.12303 0
M  V30 2355 N 210.991 -4.52891 5.36502 0
M  V30 2356 H 215.831 -0.809472 2.86795 0
M  V30 2357 H 213.368 -0.388237 1.41884 0
M  V30 2358 H 215.326 -3.27346 2.58652 0
M  V30 2359 H 213.956 -2.84252 1.52972 0
M  V30 2360 H 213.008 -1.45711 3.51387 0
M  V30 2361 H 214.32 -2.11145 4.51906 0
M  V30 2362 H 213.474 -4.43624 4.13863 0
M  V30 2363 H 212.213 -3.81753 3.03506 0
M  V30 2364 H 211.218 -2.4757 4.90906 0
M  V30 2365 H 212.443 -3.12444 6.02956 0
M  V30 2366 H 210.389 -4.76979 4.50363 0
M  V30 2367 H 210.306 -4.35001 6.18312 0
M  V30 2368 H 211.574 -5.39884 5.62268 0
M  V30 2369 N 215.803 -1.52179 -0.40978 0
M  V30 2370 C 216.75 -1.75475 -1.49924 0
M  V30 2371 C 217.72 -0.597175 -1.54994 0
M  V30 2372 O 218.905 -0.834655 -1.71575 0
M  V30 2373 C 216.045 -1.9107 -2.87378 0
M  V30 2374 C 215.158 -3.18717 -2.91622 0
M  V30 2375 C 214.293 -3.24747 -4.20372 0
M  V30 2376 C 213.332 -4.46598 -4.18588 0
M  V30 2377 N 212.469 -4.50025 -5.38908 0
M  V30 2378 H 217.309 -2.68458 -1.29361 0
M  V30 2379 H 214.846 -1.33024 -0.627934 0
M  V30 2380 H 216.804 -1.98096 -3.6717 0
M  V30 2381 H 215.434 -1.01469 -3.06437 0
M  V30 2382 H 214.486 -3.20866 -2.04326 0
M  V30 2383 H 215.798 -4.08544 -2.86169 0
M  V30 2384 H 214.952 -3.30841 -5.08556 0
M  V30 2385 H 213.691 -2.32857 -4.28519 0
M  V30 2386 H 212.696 -4.40652 -3.28794 0
M  V30 2387 H 213.921 -5.39783 -4.12081 0
M  V30 2388 H 211.867 -3.61017 -5.47725 0
M  V30 2389 H 211.784 -5.33697 -5.35447 0
M  V30 2390 H 213.052 -4.60347 -6.29048 0
M  V30 2391 N 217.281 0.66697 -1.42791 0
M  V30 2392 C 218.244 1.76211 -1.46568 0
M  V30 2393 C 219.244 1.56896 -0.352196 0
M  V30 2394 O 220.434 1.63044 -0.613364 0
M  V30 2395 C 217.566 3.14935 -1.30494 0
M  V30 2396 H 218.759 1.74247 -2.44086 0
M  V30 2397 H 216.312 0.877342 -1.29354 0
M  V30 2398 H 217.047 3.2252 -0.339301 0
M  V30 2399 H 216.832 3.30359 -2.11199 0
M  V30 2400 H 218.322 3.94821 -1.36038 0
M  V30 2401 N 218.759 1.29093 0.90403 0
M  V30 2402 C 219.722 1.1386 1.98919 0
M  V30 2403 C 220.722 0.0753457 1.60623 0
M  V30 2404 O 221.912 0.321931 1.71199 0
M  V30 2405 C 219.044 0.740198 3.32767 0
M  V30 2406 H 220.237 2.10246 2.13861 0
M  V30 2407 H 217.79 1.12218 1.08797 0
M  V30 2408 H 218.525 -0.223997 3.23525 0
M  V30 2409 H 218.31 1.50838 3.61926 0
M  V30 2410 H 219.8 0.656546 4.12407 0
M  V30 2411 N 220.237 -1.11381 1.11499 0
M  V30 2412 C 221.184 -2.17439 0.773887 0
M  V30 2413 C 222.154 -1.64132 -0.254899 0
M  V30 2414 O 223.339 -1.90345 -0.13168 0
M  V30 2415 C 220.479 -3.44373 0.223917 0
M  V30 2416 C 219.592 -4.1168 1.30934 0
M  V30 2417 C 218.727 -5.263 0.71984 0
M  V30 2418 C 217.766 -5.85493 1.78507 0
M  V30 2419 N 216.903 -6.91507 1.21502 0
M  V30 2420 H 221.743 -2.45962 1.68246 0
M  V30 2421 H 219.28 -1.20744 0.840191 0
M  V30 2422 H 221.238 -4.17047 -0.112921 0
M  V30 2423 H 219.868 -3.16232 -0.647851 0
M  V30 2424 H 218.92 -3.37073 1.76312 0
M  V30 2425 H 220.232 -4.51729 2.11524 0
M  V30 2426 H 219.386 -6.05785 0.333094 0
M  V30 2427 H 218.125 -4.87559 -0.117377 0
M  V30 2428 H 217.13 -5.04686 2.18111 0
M  V30 2429 H 218.355 -6.26301 2.62533 0
M  V30 2430 H 216.301 -6.54783 0.399455 0
M  V30 2431 H 216.218 -7.30214 1.95763 0
M  V30 2432 H 217.486 -7.74795 0.855181 0
M  V30 2433 N 221.715 -0.905404 -1.28997 0
M  V30 2434 C 222.645 -0.404212 -2.29975 0
M  V30 2435 C 223.626 0.523784 -1.61835 0
M  V30 2436 O 224.811 0.433298 -1.89304 0
M  V30 2437 C 221.941 0.364042 -3.45387 0
M  V30 2438 C 220.895 -0.474048 -4.25367 0
M  V30 2439 C 220.221 0.422045 -5.33032 0
M  V30 2440 C 221.521 -1.72696 -4.92923 0
M  V30 2441 H 223.215 -1.24807 -2.72146 0
M  V30 2442 H 220.761 -0.601585 -1.30832 0
M  V30 2443 H 222.714 0.725447 -4.15109 0
M  V30 2444 H 221.438 1.24174 -3.02074 0
M  V30 2445 H 220.097 -0.81786 -3.57361 0
M  V30 2446 H 219.745 1.29804 -4.85963 0
M  V30 2447 H 219.445 -0.135057 -5.87445 0
M  V30 2448 H 220.969 0.779517 -6.05604 0
M  V30 2449 H 222.383 -1.43495 -5.55051 0
M  V30 2450 H 220.78 -2.22582 -5.57295 0
M  V30 2451 H 221.85 -2.45964 -4.17887 0
M  V30 2452 N 223.193 1.4272 -0.668489 0
M  V30 2453 C 224.14 2.30796 0.0137489 0
M  V30 2454 C 225.11 1.4561 0.799177 0
M  V30 2455 O 226.295 1.74453 0.772702 0
M  V30 2456 C 223.435 3.31377 0.963507 0
M  V30 2457 C 222.548 4.31655 0.172569 0
M  V30 2458 C 221.683 5.19312 1.1175 0
M  V30 2459 C 220.722 6.11274 0.317886 0
M  V30 2460 N 219.859 6.91504 1.2152 0
M  V30 2461 H 224.699 2.88585 -0.743161 0
M  V30 2462 H 222.236 1.42154 -0.378226 0
M  V30 2463 H 224.194 3.88214 1.52792 0
M  V30 2464 H 222.824 2.75202 1.68712 0
M  V30 2465 H 221.876 3.76988 -0.508374 0
M  V30 2466 H 223.188 4.96779 -0.448527 0
M  V30 2467 H 222.342 5.80851 1.75206 0
M  V30 2468 H 221.081 4.5435 1.77249 0
M  V30 2469 H 220.086 5.48809 -0.329918 0
M  V30 2470 H 221.311 6.78283 -0.332917 0
M  V30 2471 H 219.257 6.29176 1.85671 0
M  V30 2472 H 219.174 7.53209 0.649036 0
M  V30 2473 H 220.442 7.57535 1.83742 0
M  V30 2474 N 224.671 0.411399 1.52136 0
M  V30 2475 C 225.581 -0.419774 2.30814 0
M  V30 2476 C 226.597 -1.0515 1.38634 0
M  V30 2477 O 227.773 -1.05252 1.71709 0
M  V30 2478 C 224.838 -1.52019 3.11594 0
M  V30 2479 C 223.899 -0.91129 4.19516 0
M  V30 2480 C 223.132 -1.95927 4.96436 0
M  V30 2481 O 223.355 -3.17775 4.73683 0
M  V30 2482 O 222.289 -1.56423 5.81219 0
M  V30 2483 H 226.115 0.221805 3.02889 0
M  V30 2484 H 223.7 0.174547 1.48377 0
M  V30 2485 H 225.582 -2.15898 3.61892 0
M  V30 2486 H 224.257 -2.14633 2.42311 0
M  V30 2487 H 223.164 -0.235157 3.7336 0
M  V30 2488 H 224.497 -0.32904 4.91099 0
M  V30 2489 N 226.149 -1.5696 0.141893 0
M  V30 2490 C 227.096 -2.16501 -0.799737 0
M  V30 2491 C 228.066 -1.09643 -1.24771 0
M  V30 2492 O 229.251 -1.3766 -1.32115 0
M  V30 2493 C 226.391 -2.78679 -2.03549 0
M  V30 2494 C 225.504 -3.99914 -1.6338 0
M  V30 2495 C 224.639 -4.50106 -2.82096 0
M  V30 2496 C 223.678 -5.63819 -2.38275 0
M  V30 2497 N 222.815 -6.08651 -3.49983 0
M  V30 2498 H 227.655 -2.96632 -0.285179 0
M  V30 2499 H 225.192 -1.46533 -0.129053 0
M  V30 2500 H 227.15 -3.1287 -2.75986 0
M  V30 2501 H 225.78 -2.012 -2.52425 0
M  V30 2502 H 224.832 -3.71735 -0.807279 0
M  V30 2503 H 226.144 -4.82311 -1.27192 0
M  V30 2504 H 225.298 -4.86325 -3.62729 0
M  V30 2505 H 224.037 -3.66706 -3.21525 0
M  V30 2506 H 223.042 -5.2718 -1.56081 0
M  V30 2507 H 224.267 -6.49 -1.99938 0
M  V30 2508 H 222.213 -5.28188 -3.89042 0
M  V30 2509 H 222.13 -6.85961 -3.17794 0
M  V30 2510 H 223.398 -6.49515 -4.30988 0
M  V30 2511 N 227.627 0.131896 -1.57047 0
M  V30 2512 C 228.857 0.855219 -1.88068 0
M  V30 2513 C 229.265 1.74557 -0.729817 0
M  V30 2514 O 228.608 1.81083 0.308962 0
M  V30 2515 C 228.67 1.75119 -3.13964 0
M  V30 2516 C 228.334 1.03646 -4.45091 0
M  V30 2517 C 229.331 0.383276 -5.18485 0
M  V30 2518 C 227.016 1.02148 -4.91804 0
M  V30 2519 C 229.01 -0.275347 -6.36805 0
M  V30 2520 C 226.697 0.359047 -6.10044 0
M  V30 2521 C 227.695 -0.288222 -6.82392 0
M  V30 2522 O 227.383 -0.94011 -7.98384 0
M  V30 2523 H 227.115 0.251864 -0.627328 0
M  V30 2524 H 229.669 0.124782 -2.05021 0
M  V30 2525 H 227.899 2.52295 -2.9306 0
M  V30 2526 H 229.588 2.3478 -3.31109 0
M  V30 2527 H 230.354 0.386562 -4.83457 0
M  V30 2528 H 226.233 1.5147 -4.35405 0
M  V30 2529 H 229.777 -0.781148 -6.93213 0
M  V30 2530 H 225.674 0.35348 -6.44531 0
M  V30 2531 H 226.442 -0.84329 -8.14144 0
M  V30 2532 N 229.106 1.52395 0.401703 0
M  V30 2533 C 230.016 1.7917 1.51444 0
M  V30 2534 C 231.032 0.677691 1.6026 0
M  V30 2535 O 232.208 0.963909 1.76835 0
M  V30 2536 C 229.273 1.94347 2.87107 0
M  V30 2537 C 228.334 3.18257 2.88116 0
M  V30 2538 C 227.567 3.32701 4.17308 0
M  V30 2539 O 227.79 2.52238 5.11598 0
M  V30 2540 O 226.724 4.25891 4.25324 0
M  V30 2541 H 230.55 2.73633 1.31752 0
M  V30 2542 H 228.135 1.3733 0.588296 0
M  V30 2543 H 230.017 2.06109 3.67555 0
M  V30 2544 H 228.692 1.03073 3.06851 0
M  V30 2545 H 227.599 3.11947 2.06494 0
M  V30 2546 H 228.932 4.09336 2.73322 0
M  V30 2547 N 230.584 -0.659388 1.43143 0
M  V30 2548 C 231.531 -1.77249 1.47822 0
M  V30 2549 C 232.501 -1.62818 0.328558 0
M  V30 2550 O 233.686 -1.83151 0.534838 0
M  V30 2551 C 230.826 -3.15371 1.40126 0
M  V30 2552 C 229.939 -3.4098 2.65249 0
M  V30 2553 C 229.074 -4.68915 2.49584 0
M  V30 2554 C 228.113 -4.87608 3.70006 0
M  V30 2555 N 227.25 -6.06796 3.53189 0
M  V30 2556 H 232.09 -1.72584 2.42938 0
M  V30 2557 H 229.627 -0.842297 1.20598 0
M  V30 2558 H 231.585 -3.9521 1.33659 0
M  V30 2559 H 230.215 -3.19121 0.485964 0
M  V30 2560 H 229.267 -2.55282 2.8202 0
M  V30 2561 H 230.579 -3.50681 3.54717 0
M  V30 2562 H 229.733 -5.56871 2.4079 0
M  V30 2563 H 228.472 -4.61524 1.5763 0
M  V30 2564 H 227.477 -3.9809 3.79215 0
M  V30 2565 H 228.702 -4.96834 4.62961 0
M  V30 2566 H 226.648 -6.00549 2.63965 0
M  V30 2567 H 226.565 -6.17428 4.36255 0
M  V30 2568 H 227.833 -6.9739 3.48236 0
M  V30 2569 N 232.062 -1.29571 -0.897171 0
M  V30 2570 C 233.339 -1.08365 -1.62839 0
M  V30 2571 C 233.719 0.371331 -2.07808 0
M  V30 2572 O 233.067 1.3606 -1.83576 0
M  V30 2573 C 233.277 -2.0735 -2.80726 0
M  V30 2574 C 234.625 -2.38406 -3.51351 0
M  V30 2575 O 235.649 -2.05564 -2.90898 0
M  V30 2576 O 234.508 -2.9453 -4.60341 0
M  V30 2577 H 231.602 -0.415345 -0.715134 0
M  V30 2578 H 234.148 -1.40952 -0.945018 0
M  V30 2579 H 232.92 -3.05339 -2.44711 0
M  V30 2580 H 232.543 -1.75507 -3.56767 0
M  V30 2581 N 233.54 1.10788 -1.12088 0
M  V30 2582 C 234.789 1.82036 -0.868659 0
M  V30 2583 C 235.102 1.85929 0.607426 0
M  V30 2584 O 236.308 2.53346 0.97613 0
M  V30 2585 C 234.764 3.26951 -1.50435 0
M  V30 2586 C 234.372 3.31367 -3.01496 0
M  V30 2587 C 236.116 4.03053 -1.33225 0
M  V30 2588 C 234.023 4.7072 -3.58017 0
M  V30 2589 H 232.953 0.682108 -0.321318 0
M  V30 2590 H 235.604 1.24618 -1.34694 0
M  V30 2591 H 233.986 3.84343 -0.953735 0
M  V30 2592 H 235.16 2.83819 -3.6302 0
M  V30 2593 H 233.475 2.6875 -3.18061 0
M  V30 2594 H 236.072 5.05981 -1.72878 0
M  V30 2595 H 236.415 4.15387 -0.275529 0
M  V30 2596 H 236.948 3.52066 -1.85188 0
M  V30 2597 H 233.687 4.63585 -4.63432 0
M  V30 2598 H 233.207 5.1865 -3.01268 0
M  V30 2599 H 234.886 5.39685 -3.56859 0
M  V30 2600 N 235.018 0.912232 1.28515 0
M  V30 2601 C 235.981 0.404223 2.25607 0
M  V30 2602 C 236.981 -0.468602 1.53821 0
M  V30 2603 O 238.171 -0.271873 1.72065 0
M  V30 2604 C 235.303 -0.420653 3.38295 0
M  V30 2605 H 236.496 1.26188 2.7206 0
M  V30 2606 H 234.049 0.691495 1.40171 0
M  V30 2607 H 234.784 -1.29777 2.97201 0
M  V30 2608 H 234.569 0.204935 3.91564 0
M  V30 2609 H 236.059 -0.766971 4.10496 0
M  V30 2610 N 236.496 -1.42363 0.676048 0
M  V30 2611 C 237.459 -2.29199 0.00766941 0
M  V30 2612 C 238.459 -1.43389 -0.727745 0
M  V30 2613 O 239.649 -1.64764 -0.56556 0
M  V30 2614 C 236.781 -3.2591 -0.999785 0
M  V30 2615 H 237.974 -2.89794 0.771988 0
M  V30 2616 H 235.527 -1.50024 0.438468 0
M  V30 2617 H 236.262 -2.70256 -1.79255 0
M  V30 2618 H 236.047 -3.89202 -0.475829 0
M  V30 2619 H 237.537 -3.91028 -1.46583 0
M  V30 2620 N 237.974 -0.419461 -1.51915 0
M  V30 2621 C 239.204 0.151915 -2.06041 0
M  V30 2622 C 239.612 1.38539 -1.28855 0
M  V30 2623 O 238.955 1.80592 -0.336463 0
M  V30 2624 C 239.017 0.557119 -3.55157 0
M  V30 2625 C 238.681 -0.567054 -4.53468 0
M  V30 2626 C 239.678 -1.43379 -4.99738 0
M  V30 2627 C 237.363 -0.742693 -4.96779 0
M  V30 2628 C 239.357 -2.46102 -5.87973 0
M  V30 2629 C 237.044 -1.77322 -5.84808 0
M  V30 2630 C 238.042 -2.63078 -6.30301 0
M  V30 2631 O 237.73 -3.64364 -7.16585 0
M  V30 2632 H 237.462 0.0193293 -0.675724 0
M  V30 2633 H 240.016 -0.592073 -1.96682 0
M  V30 2634 H 238.246 1.35355 -3.62238 0
M  V30 2635 H 239.935 1.05759 -3.9188 0
M  V30 2636 H 240.701 -1.30954 -4.66986 0
M  V30 2637 H 236.58 -0.0848307 -4.60922 0
M  V30 2638 H 240.124 -3.13071 -6.23404 0
M  V30 2639 H 236.021 -1.89773 -6.16974 0
M  V30 2640 H 236.789 -3.60731 -7.34721 0
M  V30 2641 N 239.452 1.56882 -0.150215 0
M  V30 2642 C 240.868 1.58263 0.20617 0
M  V30 2643 C 241.068 1.16464 1.64434 0
M  V30 2644 O 240.124 0.866422 2.3717 0
M  V30 2645 C 241.437 3.00649 -0.0555025 0
M  V30 2646 C 242.985 3.12999 0.00795388 0
M  V30 2647 C 243.46 4.5744 -0.226429 0
M  V30 2648 N 244.951 4.62875 -0.173469 0
M  V30 2649 C 245.686 5.72454 -0.329288 0
M  V30 2650 N 245.182 6.90669 -0.543005 0
M  V30 2651 N 246.975 5.61467 -0.266666 0
M  V30 2652 H 239.126 1.82345 -1.08922 0
M  V30 2653 H 241.389 0.844149 -0.431413 0
M  V30 2654 H 241.095 3.3563 -1.05096 0
M  V30 2655 H 240.969 3.71337 0.66246 0
M  V30 2656 H 243.356 2.77857 0.993966 0
M  V30 2657 H 243.437 2.4479 -0.742388 0
M  V30 2658 H 243.081 4.93287 -1.20956 0
M  V30 2659 H 243.011 5.2378 0.544274 0
M  V30 2660 H 245.502 3.77898 -0.0130709 0
M  V30 2661 H 245.815 7.70045 -0.651922 0
M  V30 2662 H 244.16 6.92581 -0.579366 0
M  V30 2663 H 247.351 4.67992 -0.100441 0
M  V30 2664 H 247.524 6.46816 -0.391535 0
M  V30 2665 N 240.93 -0.123565 1.57115 0
M  V30 2666 C 241.893 -1.13583 1.99076 0
M  V30 2667 C 242.893 -1.34564 0.880296 0
M  V30 2668 O 244.083 -1.31158 1.14644 0
M  V30 2669 C 241.215 -2.49128 2.32698 0
M  V30 2670 H 242.408 -0.775287 2.89706 0
M  V30 2671 H 239.961 -0.36771 1.51913 0
M  V30 2672 H 240.696 -2.90111 1.44934 0
M  V30 2673 H 240.481 -2.35255 3.13684 0
M  V30 2674 H 241.971 -3.2199 2.65918 0
M  V30 2675 N 242.408 -1.52605 -0.393616 0
M  V30 2676 C 243.355 -1.77055 -1.48054 0
M  V30 2677 C 244.325 -0.61358 -1.54352 0
M  V30 2678 O 245.51 -0.852806 -1.70681 0
M  V30 2679 C 242.65 -1.94108 -2.85335 0
M  V30 2680 C 241.763 -3.21792 -2.88226 0
M  V30 2681 C 240.898 -3.29188 -4.16904 0
M  V30 2682 C 239.937 -4.51013 -4.13828 0
M  V30 2683 N 239.074 -4.55716 -5.34105 0
M  V30 2684 H 243.914 -2.69815 -1.26506 0
M  V30 2685 H 241.451 -1.33683 -0.61379 0
M  V30 2686 H 243.409 -2.01979 -3.65049 0
M  V30 2687 H 242.039 -1.04713 -3.05344 0
M  V30 2688 H 241.091 -3.23015 -2.00911 0
M  V30 2689 H 242.403 -4.11557 -2.8182 0
M  V30 2690 H 241.557 -3.36216 -5.05018 0
M  V30 2691 H 240.296 -2.37389 -4.26026 0
M  V30 2692 H 239.301 -4.44115 -3.24102 0
M  V30 2693 H 240.526 -5.44123 -4.06333 0
M  V30 2694 H 238.472 -3.66807 -5.43865 0
M  V30 2695 H 238.389 -5.39346 -5.29756 0
M  V30 2696 H 239.657 -4.66993 -6.2413 0
M  V30 2697 N 243.887 0.651787 -1.4349 0
M  V30 2698 C 245.135 1.40888 -1.44897 0
M  V30 2699 C 245.456 1.94856 -0.0749086 0
M  V30 2700 O 244.726 1.74518 0.889956 0
M  V30 2701 H 243.306 0.522887 -0.533478 0
M  V30 2702 H 245.968 0.768609 -1.79104 0
M  V30 2703 H 245.064 2.25052 -2.16236 0
M  V30 2704 N 245.365 1.30045 0.890287 0
M  V30 2705 C 246.312 1.15976 1.99545 0
M  V30 2706 C 247.282 0.0506202 1.66023 0
M  V30 2707 O 248.467 0.219847 1.89529 0
M  V30 2708 C 245.607 0.852054 3.34416 0
M  V30 2709 C 244.72 2.04255 3.80662 0
M  V30 2710 C 243.855 1.6734 5.04154 0
M  V30 2711 C 242.894 2.82916 5.42794 0
M  V30 2712 N 242.031 2.46333 6.57468 0
M  V30 2713 H 246.871 2.10524 2.10911 0
M  V30 2714 H 244.408 1.04749 1.03276 0
M  V30 2715 H 246.366 0.654296 4.12037 0
M  V30 2716 H 244.996 -0.0565502 3.2275 0
M  V30 2717 H 244.048 2.35172 2.98995 0
M  V30 2718 H 245.36 2.90826 4.05242 0
M  V30 2719 H 244.514 1.43908 5.89386 0
M  V30 2720 H 243.253 0.779308 4.81433 0
M  V30 2721 H 242.258 3.0702 4.56091 0
M  V30 2722 H 243.483 3.73004 5.6749 0
M  V30 2723 H 241.429 1.59423 6.36334 0
M  V30 2724 H 241.346 3.26436 6.81891 0
M  V30 2725 H 242.614 2.26244 7.45945 0
M  V30 2726 N 246.843 -1.10192 1.12674 0
M  V30 2727 C 248.254 -1.63707 0.897604 0
M  V30 2728 C 248.605 -1.87812 -0.567546 0
M  V30 2729 O 247.73 -1.62196 -1.43253 0
M  V30 2730 C 248.325 -2.974 1.62292 0
M  V30 2731 C 246.884 -3.47772 1.43986 0
M  V30 2732 C 246.031 -2.22332 1.65722 0
M  V30 2733 H 248.982 -0.936587 1.28116 0
M  V30 2734 H 249.003 -3.64986 1.07541 0
M  V30 2735 H 248.515 -2.79824 2.68924 0
M  V30 2736 H 246.616 -3.70487 0.396206 0
M  V30 2737 H 246.729 -4.25723 2.19765 0
M  V30 2738 H 245.093 -2.30599 1.08149 0
M  V30 2739 H 245.876 -2.07285 2.73657 0
M  V30 2740 N 248.321 -0.919034 -1.28029 0
M  V30 2741 C 249.598 -0.473668 -1.89778 0
M  V30 2742 C 249.978 1.04783 -1.83259 0
M  V30 2743 O 249.326 1.8982 -1.27202 0
M  V30 2744 C 249.536 -1.00998 -3.34066 0
M  V30 2745 C 250.884 -1.06525 -4.1102 0
M  V30 2746 O 251.908 -0.958996 -3.43048 0
M  V30 2747 O 250.767 -1.22776 -5.3253 0
M  V30 2748 H 247.861 -0.15098 -0.813101 0
M  V30 2749 H 250.407 -1.01016 -1.36359 0
M  V30 2750 H 249.179 -2.05392 -3.33061 0
M  V30 2751 H 248.802 -0.454626 -3.94992 0
M  V30 2752 N 249.799 1.42003 -0.683588 0
M  V30 2753 C 250.762 2.29191 -0.0198243 0
M  V30 2754 C 251.762 1.43773 0.72013 0
M  V30 2755 O 252.952 1.65061 0.556815 0
M  V30 2756 C 250.084 3.26435 0.982487 0
M  V30 2757 H 251.277 2.8938 -0.787345 0
M  V30 2758 H 248.83 1.49789 -0.446418 0
M  V30 2759 H 249.565 2.71203 1.77819 0
M  V30 2760 H 249.35 3.89449 0.455182 0
M  V30 2761 H 250.84 3.918 1.44508 0
M  V30 2762 N 251.277 0.427512 1.51691 0
M  V30 2763 C 252.24 -0.377132 2.26076 0
M  V30 2764 C 253.24 -0.958089 1.29141 0
M  V30 2765 O 254.43 -0.83408 1.52934 0
M  V30 2766 C 251.562 -1.53262 3.04506 0
M  V30 2767 H 252.755 0.27464 2.9864 0
M  V30 2768 H 250.308 0.180445 1.55255 0
M  V30 2769 H 251.043 -2.22072 2.36335 0
M  V30 2770 H 250.828 -1.12232 3.75694 0
M  V30 2771 H 252.318 -2.10135 3.60878 0
M  V30 2772 N 252.755 -1.56801 0.158532 0
M  V30 2773 C 253.702 -2.17337 -0.776729 0
M  V30 2774 C 254.672 -1.1096 -1.23601 0
M  V30 2775 O 255.857 -1.39054 -1.30647 0
M  V30 2776 C 252.997 -2.80822 -2.00582 0
M  V30 2777 C 252.11 -4.01624 -1.59129 0
M  V30 2778 C 251.245 -4.53072 -2.77306 0
M  V30 2779 C 250.284 -5.66314 -2.32282 0
M  V30 2780 N 249.421 -6.12329 -3.43508 0
M  V30 2781 H 254.261 -2.96918 -0.253701 0
M  V30 2782 H 251.798 -1.46661 -0.113504 0
M  V30 2783 H 253.756 -3.15779 -2.72652 0
M  V30 2784 H 252.386 -2.03866 -2.50277 0
M  V30 2785 H 251.438 -3.72571 -0.767806 0
M  V30 2786 H 252.75 -4.83633 -1.2207 0
M  V30 2787 H 251.904 -4.90145 -3.57551 0
M  V30 2788 H 250.643 -3.70095 -3.17617 0
M  V30 2789 H 249.648 -5.28806 -1.5048 0
M  V30 2790 H 250.873 -6.51085 -1.93043 0
M  V30 2791 H 248.819 -5.32284 -3.83418 0
M  V30 2792 H 248.736 -6.89293 -3.105 0
M  V30 2793 H 250.004 -6.5405 -4.24075 0
M  V30 2794 N 254.233 0.115231 -1.57178 0
M  V30 2795 C 255.18 1.14115 -2.00615 0
M  V30 2796 C 256.15 1.40939 -0.878941 0
M  V30 2797 O 257.335 1.52741 -1.14345 0
M  V30 2798 C 254.475 2.46156 -2.4187 0
M  V30 2799 C 253.588 2.26236 -3.68024 0
M  V30 2800 C 252.723 3.51534 -3.98243 0
M  V30 2801 C 251.762 3.26787 -5.17568 0
M  V30 2802 N 250.899 4.44298 -5.43639 0
M  V30 2803 H 255.739 0.763743 -2.88047 0
M  V30 2804 H 253.276 0.365615 -1.42484 0
M  V30 2805 H 255.234 3.23189 -2.63827 0
M  V30 2806 H 253.864 2.81783 -1.57475 0
M  V30 2807 H 252.916 1.40102 -3.5366 0
M  V30 2808 H 254.228 2.03929 -4.55208 0
M  V30 2809 H 253.382 4.36984 -4.20868 0
M  V30 2810 H 252.121 3.76876 -3.09541 0
M  V30 2811 H 251.126 2.39729 -4.94783 0
M  V30 2812 H 252.351 3.02812 -6.0785 0
M  V30 2813 H 250.297 4.69754 -4.57895 0
M  V30 2814 H 250.214 4.25109 -6.25154 0
M  V30 2815 H 251.482 5.3087 -5.70786 0
M  V30 2816 N 255.711 1.52812 0.385517 0
M  V30 2817 C 256.959 1.67694 1.12797 0
M  V30 2818 C 257.28 0.421115 1.90399 0
M  V30 2819 O 256.55 -0.564551 1.87589 0
M  V30 2820 H 255.13 0.618155 0.419396 0
M  V30 2821 H 257.792 1.89938 0.436972 0
M  V30 2822 H 256.888 2.52896 1.82894 0
M  V30 2823 N 257.189 -0.644168 1.43834 0
M  V30 2824 C 258.435 -1.40603 1.46146 0
M  V30 2825 C 258.768 -1.93997 0.0887717 0
M  V30 2826 O 258.043 -1.72854 -0.891724 0
M  V30 2827 C 258.326 -2.58086 2.51124 0
M  V30 2828 C 258.179 -2.10126 3.97702 0
M  V30 2829 C 259.498 -3.60291 2.52742 0
M  V30 2830 H 256.617 -0.509905 0.532134 0
M  V30 2831 H 259.259 -0.729502 1.75437 0
M  V30 2832 H 257.409 -3.15801 2.26278 0
M  V30 2833 H 259.081 -1.57342 4.33637 0
M  V30 2834 H 257.324 -1.41419 4.10101 0
M  V30 2835 H 257.995 -2.94649 4.66783 0
M  V30 2836 H 260.471 -3.12352 2.7491 0
M  V30 2837 H 259.347 -4.40032 3.28121 0
M  V30 2838 H 259.608 -4.1349 1.56455 0
M  V30 2839 N 258.668 -1.30515 -0.883378 0
M  V30 2840 C 259.914 -1.19607 -1.63774 0
M  V30 2841 C 260.247 0.248314 -1.92606 0
M  V30 2842 O 259.522 1.17742 -1.54813 0
M  V30 2843 C 259.805 -2.02669 -2.97653 0
M  V30 2844 C 259.658 -3.55335 -2.75784 0
M  V30 2845 C 260.977 -1.86573 -3.98596 0
M  V30 2846 H 258.096 -0.435856 -0.594305 0
M  V30 2847 H 260.738 -1.60165 -1.02212 0
M  V30 2848 H 258.888 -1.68208 -3.50197 0
M  V30 2849 H 260.56 -3.99863 -2.30016 0
M  V30 2850 H 258.803 -3.79438 -2.1026 0
M  V30 2851 H 259.474 -4.08745 -3.70988 0
M  V30 2852 H 261.95 -2.16703 -3.55217 0
M  V30 2853 H 260.826 -2.47014 -4.90179 0
M  V30 2854 H 261.087 -0.825321 -4.34328 0
M  V30 2855 N 260.146 1.09593 -1.13257 0
M  V30 2856 C 261.093 2.1618 -0.808381 0
M  V30 2857 C 262.063 1.64517 0.228754 0
M  V30 2858 O 263.248 1.9053 0.101381 0
M  V30 2859 C 260.388 3.43973 -0.278675 0
M  V30 2860 C 259.501 4.09545 -1.37466 0
M  V30 2861 C 258.636 5.25088 -0.803479 0
M  V30 2862 C 257.675 5.82579 -1.87799 0
M  V30 2863 N 256.812 6.89486 -1.32488 0
M  V30 2864 H 261.652 2.43254 -1.72138 0
M  V30 2865 H 259.189 1.19392 -0.859294 0
M  V30 2866 H 261.147 4.17174 0.0465583 0
M  V30 2867 H 259.777 3.17223 0.597459 0
M  V30 2868 H 258.829 3.34226 -1.81652 0
M  V30 2869 H 260.141 4.48307 -2.18684 0
M  V30 2870 H 259.295 6.05178 -0.429427 0
M  V30 2871 H 258.034 4.87684 0.0397956 0
M  V30 2872 H 257.039 5.01152 -2.26113 0
M  V30 2873 H 258.264 6.22045 -2.72463 0
M  V30 2874 H 256.21 6.54064 -0.503575 0
M  V30 2875 H 256.127 7.27007 -2.07355 0
M  V30 2876 H 257.395 7.73336 -0.978336 0
M  V30 2877 N 261.624 0.925811 1.2754 0
M  V30 2878 C 262.587 0.428129 2.25166 0
M  V30 2879 C 263.587 -0.452261 1.54309 0
M  V30 2880 O 264.777 -0.253608 1.72344 0
M  V30 2881 C 261.909 -0.384749 3.38722 0
M  V30 2882 H 263.102 1.29066 2.70706 0
M  V30 2883 H 260.655 0.706323 1.3943 0
M  V30 2884 H 261.39 -1.26618 2.98561 0
M  V30 2885 H 261.175 0.246454 3.91325 0
M  V30 2886 H 262.665 -0.723389 4.11287 0
M  V30 2887 N 263.102 -1.41638 0.69111 0
M  V30 2888 C 264.012 -2.34588 0.0233487 0
M  V30 2889 C 265.028 -1.55987 -0.770984 0
M  V30 2890 O 266.204 -1.88486 -0.709569 0
M  V30 2891 C 263.269 -3.34684 -0.904851 0
M  V30 2892 C 262.33 -4.29176 -0.103225 0
M  V30 2893 C 261.563 -5.2449 -0.987216 0
M  V30 2894 O 261.786 -5.2514 -2.22674 0
M  V30 2895 O 260.72 -6.00295 -0.439281 0
M  V30 2896 H 264.546 -2.93261 0.789416 0
M  V30 2897 H 262.131 -1.42417 0.45142 0
M  V30 2898 H 264.013 -3.96133 -1.43724 0
M  V30 2899 H 262.688 -2.78461 -1.65049 0
M  V30 2900 H 261.595 -3.71089 0.473655 0
M  V30 2901 H 262.928 -4.88484 0.60365 0
M  V30 2902 N 264.58 -0.43555 -1.51462 0
M  V30 2903 C 265.527 0.376797 -2.27703 0
M  V30 2904 C 266.497 1.01838 -1.31219 0
M  V30 2905 O 267.682 1.03762 -1.60119 0
M  V30 2906 C 264.822 1.47301 -3.12084 0
M  V30 2907 C 263.935 0.849744 -4.2356 0
M  V30 2908 C 263.07 1.92086 -4.95254 0
M  V30 2909 C 262.109 1.27593 -5.98654 0
M  V30 2910 N 261.246 2.28833 -6.63762 0
M  V30 2911 H 266.086 -0.279734 -2.96684 0
M  V30 2912 H 263.623 -0.149795 -1.46335 0
M  V30 2913 H 265.581 2.11984 -3.59331 0
M  V30 2914 H 264.211 2.0992 -2.45221 0
M  V30 2915 H 263.263 0.0912529 -3.80291 0
M  V30 2916 H 264.575 0.338878 -4.97648 0
M  V30 2917 H 263.729 2.64435 -5.46039 0
M  V30 2918 H 262.468 2.46545 -4.20793 0
M  V30 2919 H 261.473 0.537893 -5.47162 0
M  V30 2920 H 262.698 0.738693 -6.7507 0
M  V30 2921 H 260.644 2.82375 -5.92115 0
M  V30 2922 H 260.561 1.82632 -7.33608 0
M  V30 2923 H 261.829 3.00671 -7.19178 0
M  V30 2924 N 266.058 1.56714 -0.166846 0
M  V30 2925 C 267.283 2.01557 0.488833 0
M  V30 2926 C 267.708 1.0463 1.56314 0
M  V30 2927 O 267.066 0.0251304 1.81283 0
M  V30 2928 C 267.114 3.4503 1.04818 0
M  V30 2929 O 266.218 3.51163 2.16236 0
M  V30 2930 H 265.559 0.653516 0.117526 0
M  V30 2931 H 268.089 2.02818 -0.269421 0
M  V30 2932 H 268.099 3.84243 1.37191 0
M  V30 2933 H 266.774 4.15077 0.261572 0
M  V30 2934 H 265.351 3.23807 1.84942 0
M  V30 2935 N 267.536 -0.106894 1.57237 0
M  V30 2936 C 268.483 -1.13049 2.01217 0
M  V30 2937 C 269.453 -1.40471 0.886403 0
M  V30 2938 O 270.638 -1.52133 1.15153 0
M  V30 2939 C 267.778 -2.4487 2.43172 0
M  V30 2940 C 266.891 -2.24281 3.69218 0
M  V30 2941 C 266.026 -3.49417 4.00101 0
M  V30 2942 C 265.065 -3.24038 5.19294 0
M  V30 2943 N 264.202 -4.41409 5.45988 0
M  V30 2944 H 269.042 -0.748456 2.88448 0
M  V30 2945 H 266.579 -0.358054 1.42676 0
M  V30 2946 H 268.537 -3.21786 2.65537 0
M  V30 2947 H 267.167 -2.80944 1.58967 0
M  V30 2948 H 266.219 -1.38224 3.54398 0
M  V30 2949 H 267.531 -2.01512 4.56283 0
M  V30 2950 H 266.685 -4.34746 4.2318 0
M  V30 2951 H 265.424 -3.75229 3.11535 0
M  V30 2952 H 264.429 -2.37102 4.96047 0
M  V30 2953 H 265.654 -2.99584 6.09447 0
M  V30 2954 H 263.6 -4.67319 4.60379 0
M  V30 2955 H 263.517 -4.21788 6.274 0
M  V30 2956 H 264.785 -5.27836 5.73593 0
M  V30 2957 N 269.014 -1.53014 -0.377408 0
M  V30 2958 C 269.961 -1.78616 -1.46168 0
M  V30 2959 C 270.931 -0.629917 -1.53692 0
M  V30 2960 O 272.116 -0.870861 -1.69766 0
M  V30 2961 C 269.256 -1.97123 -2.8326 0
M  V30 2962 C 268.369 -3.24831 -2.84796 0
M  V30 2963 C 267.504 -3.33591 -4.13389 0
M  V30 2964 C 266.543 -4.55377 -4.09021 0
M  V30 2965 N 265.68 -4.61355 -5.29241 0
M  V30 2966 H 270.52 -2.71142 -1.23637 0
M  V30 2967 H 268.057 -1.34326 -0.599577 0
M  V30 2968 H 270.015 -2.05839 -3.62886 0
M  V30 2969 H 268.645 -1.07946 -3.04216 0
M  V30 2970 H 267.697 -3.25128 -1.97474 0
M  V30 2971 H 269.009 -4.14523 -2.77439 0
M  V30 2972 H 268.163 -3.41554 -5.01424 0
M  V30 2973 H 266.902 -2.41894 -4.23484 0
M  V30 2974 H 265.907 -4.47527 -3.19373 0
M  V30 2975 H 267.132 -5.48402 -4.00539 0
M  V30 2976 H 265.078 -3.72554 -5.39944 0
M  V30 2977 H 264.995 -5.44935 -5.24006 0
M  V30 2978 H 266.263 -4.73586 -6.19141 0
M  V30 2979 N 270.492 0.636531 -1.44174 0
M  V30 2980 C 271.439 1.74875 -1.50624 0
M  V30 2981 C 272.409 1.62275 -0.35442 0
M  V30 2982 O 273.594 1.82276 -0.563908 0
M  V30 2983 C 270.734 3.13102 -1.45125 0
M  V30 2984 C 269.847 3.36717 -2.7064 0
M  V30 2985 C 268.982 4.64885 -2.57013 0
M  V30 2986 C 268.021 4.8166 -3.77717 0
M  V30 2987 N 267.158 6.01101 -3.62798 0
M  V30 2988 H 271.998 1.68697 -2.45653 0
M  V30 2989 H 269.535 0.823004 -1.21922 0
M  V30 2990 H 271.493 3.93034 -1.39929 0
M  V30 2991 H 270.123 3.18308 -0.536671 0
M  V30 2992 H 269.175 2.50763 -2.86046 0
M  V30 2993 H 270.487 3.44993 -3.60252 0
M  V30 2994 H 269.641 5.52969 -2.49619 0
M  V30 2995 H 268.38 4.58957 -1.64953 0
M  V30 2996 H 267.385 3.92007 -3.85501 0
M  V30 2997 H 268.61 4.89406 -4.70807 0
M  V30 2998 H 266.556 5.96273 -2.73486 0
M  V30 2999 H 266.473 6.10409 -4.46023 0
M  V30 3000 H 267.741 6.91761 -3.59286 0
M  V30 3001 N 271.97 1.30982 0.876444 0
M  V30 3002 C 272.917 1.18085 1.98304 0
M  V30 3003 C 273.887 0.0682263 1.6596 0
M  V30 3004 O 275.072 0.239937 1.89285 0
M  V30 3005 C 272.212 0.887475 3.33493 0
M  V30 3006 C 271.325 2.08281 3.78475 0
M  V30 3007 C 270.46 1.72678 5.0235 0
M  V30 3008 C 269.499 2.88657 5.39762 0
M  V30 3009 N 268.636 2.53292 6.54819 0
M  V30 3010 H 273.476 2.1275 2.08666 0
M  V30 3011 H 271.013 1.05839 1.02159 0
M  V30 3012 H 272.971 0.697961 4.1132 0
M  V30 3013 H 271.601 -0.022315 3.22792 0
M  V30 3014 H 270.653 2.3833 2.96484 0
M  V30 3015 H 271.965 2.95108 4.02135 0
M  V30 3016 H 271.119 1.50151 5.87826 0
M  V30 3017 H 269.858 0.830327 4.8058 0
M  V30 3018 H 268.863 3.1184 4.52809 0
M  V30 3019 H 270.088 3.79002 5.63502 0
M  V30 3020 H 268.034 1.66163 6.34607 0
M  V30 3021 H 267.951 3.3365 6.7839 0
M  V30 3022 H 269.219 2.34143 7.43503 0
M  V30 3023 N 273.449 -1.08991 1.13837 0
M  V30 3024 C 274.359 -2.19301 0.833333 0
M  V30 3025 C 275.375 -1.73026 -0.183847 0
M  V30 3026 O 276.551 -2.01395 -0.0138092 0
M  V30 3027 C 273.616 -3.45323 0.308651 0
M  V30 3028 C 272.677 -4.06255 1.38764 0
M  V30 3029 C 271.91 -5.26262 0.887896 0
M  V30 3030 O 272.133 -5.69747 -0.27287 0
M  V30 3031 O 271.067 -5.78435 1.66421 0
M  V30 3032 H 274.893 -2.47854 1.75506 0
M  V30 3033 H 272.478 -1.18012 0.916166 0
M  V30 3034 H 274.36 -4.21394 0.0216739 0
M  V30 3035 H 273.035 -3.18362 -0.585431 0
M  V30 3036 H 271.942 -3.318 1.72799 0
M  V30 3037 H 273.275 -4.37452 2.25602 0
M  V30 3038 N 274.927 -0.932562 -1.27047 0
M  V30 3039 C 275.837 -0.441219 -2.30414 0
M  V30 3040 C 276.853 0.480525 -1.67233 0
M  V30 3041 O 278.029 0.362151 -1.98117 0
M  V30 3042 C 275.094 0.293651 -3.45454 0
M  V30 3043 C 274.155 -0.663601 -4.2414 0
M  V30 3044 C 273.388 0.0362932 -5.33688 0
M  V30 3045 O 273.611 1.2548 -5.56427 0
M  V30 3046 O 272.545 -0.638015 -5.98509 0
M  V30 3047 H 276.371 -1.29962 -2.74488 0
M  V30 3048 H 273.956 -0.6981 -1.32087 0
M  V30 3049 H 275.838 0.707951 -4.15411 0
M  V30 3050 H 274.513 1.12758 -3.03426 0
M  V30 3051 H 273.42 -1.12768 -3.56699 0
M  V30 3052 H 274.753 -1.46489 -4.69896 0
M  V30 3053 N 276.405 1.4127 -0.698611 0
M  V30 3054 C 277.315 2.34573 -0.0357891 0
M  V30 3055 C 278.331 1.56393 0.762701 0
M  V30 3056 O 279.507 1.8886 0.699564 0
M  V30 3057 C 276.572 3.35159 0.887089 0
M  V30 3058 C 275.633 4.29225 0.0804634 0
M  V30 3059 C 274.866 5.25006 0.959387 0
M  V30 3060 O 275.089 5.26314 2.19886 0
M  V30 3061 O 274.023 6.00519 0.407439 0
M  V30 3062 H 277.849 2.92838 -0.804957 0
M  V30 3063 H 275.434 1.42175 -0.458966 0
M  V30 3064 H 277.316 3.9689 1.41621 0
M  V30 3065 H 275.991 2.79333 1.6357 0
M  V30 3066 H 274.898 3.70833 -0.493328 0
M  V30 3067 H 276.231 4.88157 -0.629547 0
M  V30 3068 N 277.883 0.443576 1.51229 0
M  V30 3069 C 278.793 -0.370721 2.31652 0
M  V30 3070 C 279.809 -1.02186 1.40833 0
M  V30 3071 O 280.985 -1.01586 1.73903 0
M  V30 3072 C 278.05 -1.45376 3.14749 0
M  V30 3073 C 277.111 -0.822099 4.21355 0
M  V30 3074 C 276.344 -1.85353 5.0048 0
M  V30 3075 O 276.567 -3.07656 4.80316 0
M  V30 3076 O 275.501 -1.4406 5.84406 0
M  V30 3077 H 279.327 0.286002 3.0235 0
M  V30 3078 H 276.912 0.20598 1.47973 0
M  V30 3079 H 278.794 -2.08173 3.66391 0
M  V30 3080 H 277.469 -2.09445 2.46809 0
M  V30 3081 H 276.376 -0.155909 3.73775 0
M  V30 3082 H 277.709 -0.224797 4.91686 0
M  V30 3083 N 279.361 -1.56624 0.175154 0
M  V30 3084 C 280.638 -1.88688 -0.515373 0
M  V30 3085 C 281.018 -1.08564 -1.81044 0
M  V30 3086 O 280.366 -0.180703 -2.27784 0
M  V30 3087 C 280.576 -3.40768 -0.753552 0
M  V30 3088 C 281.924 -4.10587 -1.08184 0
M  V30 3089 O 282.948 -3.46106 -0.841961 0
M  V30 3090 O 281.807 -5.24512 -1.53459 0
M  V30 3091 H 278.901 -0.78301 -0.26613 0
M  V30 3092 H 281.447 -1.68347 0.213877 0
M  V30 3093 H 280.219 -3.90965 0.161829 0
M  V30 3094 H 279.842 -3.66733 -1.53598 0
M  V30 3095 N 280.839 0.0985539 -1.57292 0
M  V30 3096 C 281.749 1.13824 -2.05137 0
M  V30 3097 C 282.765 1.44076 -0.975604 0
M  V30 3098 O 283.941 1.54786 -1.28853 0
M  V30 3099 C 281.006 2.43969 -2.46333 0
M  V30 3100 C 280.067 2.2093 -3.68087 0
M  V30 3101 C 279.3 3.44869 -4.0731 0
M  V30 3102 O 279.523 4.52972 -3.46659 0
M  V30 3103 O 278.457 3.34661 -5.00285 0
M  V30 3104 H 282.283 0.761881 -2.93988 0
M  V30 3105 H 279.868 0.310818 -1.46131 0
M  V30 3106 H 281.75 3.20609 -2.73473 0
M  V30 3107 H 280.425 2.81038 -1.60621 0
M  V30 3108 H 279.332 1.42081 -3.46069 0
M  V30 3109 H 280.665 1.88755 -4.54568 0
M  V30 3110 N 282.317 1.53212 0.369288 0
M  V30 3111 C 283.227 1.82342 1.47609 0
M  V30 3112 C 284.243 0.711532 1.58787 0
M  V30 3113 O 285.419 1.0012 1.74751 0
M  V30 3114 C 282.484 2.00393 2.8292 0
M  V30 3115 C 281.545 3.24297 2.81301 0
M  V30 3116 C 280.778 3.41478 4.10157 0
M  V30 3117 O 281.001 2.63033 5.06132 0
M  V30 3118 O 279.935 4.34817 4.16194 0
M  V30 3119 H 283.761 2.76366 1.25918 0
M  V30 3120 H 281.346 1.38547 0.559034 0
M  V30 3121 H 283.228 2.13859 3.63101 0
M  V30 3122 H 281.903 1.09559 3.04596 0
M  V30 3123 H 280.81 3.16257 1.99831 0
M  V30 3124 H 282.143 4.15041 2.64578 0
M  V30 3125 N 283.795 -0.628877 1.44509 0
M  V30 3126 C 285.072 -1.38733 1.37886 0
M  V30 3127 C 285.452 -2.11065 0.0387008 0
M  V30 3128 O 284.8 -2.06476 -0.97878 0
M  V30 3129 C 285.01 -2.35188 2.57852 0
M  V30 3130 C 286.358 -2.9845 3.02014 0
M  V30 3131 O 287.382 -2.45513 2.58073 0
M  V30 3132 O 286.241 -3.94487 3.78209 0
M  V30 3133 H 283.335 -0.621015 0.54614 0
M  V30 3134 H 285.881 -0.653744 1.56602 0
M  V30 3135 H 284.653 -1.80855 3.46998 0
M  V30 3136 H 284.276 -3.1596 2.4136 0
M  V30 3137 N 285.273 -1.31445 -0.869486 0
M  V30 3138 C 286.183 -1.21097 -2.0093 0
M  V30 3139 C 287.199 -0.127584 -1.73532 0
M  V30 3140 O 288.375 -0.345477 -1.98415 0
M  V30 3141 C 285.44 -0.919378 -3.34288 0
M  V30 3142 C 284.501 -2.08971 -3.75006 0
M  V30 3143 C 283.734 -1.81194 -5.02001 0
M  V30 3144 O 283.957 -0.747296 -5.65484 0
M  V30 3145 O 282.891 -2.66883 -5.39497 0
M  V30 3146 H 286.717 -2.16883 -2.12592 0
M  V30 3147 H 284.302 -1.11189 -0.997868 0
M  V30 3148 H 286.184 -0.772625 -4.14257 0
M  V30 3149 H 284.859 0.00844772 -3.23699 0
M  V30 3150 H 283.766 -2.29187 -2.95676 0
M  V30 3151 H 285.099 -2.9998 -3.90221 0
M  V30 3152 N 286.751 1.08385 -1.14413 0
M  V30 3153 C 287.661 2.18856 -0.844951 0
M  V30 3154 C 288.677 1.73121 0.174668 0
M  V30 3155 O 289.853 2.014 0.00312857 0
M  V30 3156 C 286.918 3.45155 -0.32696 0
M  V30 3157 C 285.979 4.05513 -1.40916 0
M  V30 3158 C 285.212 5.25784 -0.915793 0
M  V30 3159 O 285.435 5.69884 0.242651 0
M  V30 3160 O 284.369 5.77545 -1.69487 0
M  V30 3161 H 288.195 2.46919 -1.76818 0
M  V30 3162 H 285.78 1.17524 -0.922411 0
M  V30 3163 H 287.662 4.21377 -0.0440211 0
M  V30 3164 H 286.337 3.18668 0.568539 0
M  V30 3165 H 285.244 3.30879 -1.74556 0
M  V30 3166 H 286.577 4.3625 -2.27919 0
M  V30 3167 N 288.23 0.939286 1.26551 0
M  V30 3168 C 289.507 0.5038 1.89001 0
M  V30 3169 C 289.887 -1.01854 1.84903 0
M  V30 3170 O 289.235 -1.87773 1.30206 0
M  V30 3171 C 289.445 1.063 3.32417 0
M  V30 3172 C 290.793 1.13051 4.09273 0
M  V30 3173 O 291.817 1.01345 3.41479 0
M  V30 3174 O 290.676 1.31233 5.30509 0
M  V30 3175 H 287.77 0.163897 0.810597 0
M  V30 3176 H 290.316 1.03173 1.34735 0
M  V30 3177 H 289.088 2.10665 3.29752 0
M  V30 3178 H 288.711 0.517408 3.94219 0
M  V30 3179 N 289.708 -1.40897 0.706093 0
M  V30 3180 C 290.618 -2.3455 0.0482286 0
M  V30 3181 C 291.634 -1.56796 -0.754396 0
M  V30 3182 O 292.81 -1.89228 -0.689538 0
M  V30 3183 C 289.875 -3.35625 -0.869303 0
M  V30 3184 C 288.936 -4.29261 -0.0576994 0
M  V30 3185 C 288.169 -5.25508 -0.931531 0
M  V30 3186 O 288.392 -5.27472 -2.17092 0
M  V30 3187 O 287.326 -6.00727 -0.375587 0
M  V30 3188 H 291.152 -2.92407 0.820476 0
M  V30 3189 H 288.737 -1.4193 0.4665 0
M  V30 3190 H 290.619 -3.97635 -1.39514 0
M  V30 3191 H 289.294 -2.80196 -1.62086 0
M  V30 3192 H 288.201 -3.70566 0.512988 0
M  V30 3193 H 289.534 -4.87817 0.655426 0
M  V30 3194 N 291.186 -0.45159 -1.50991 0
M  V30 3195 C 292.096 0.358431 -2.31846 0
M  V30 3196 C 293.112 1.01438 -1.41373 0
M  V30 3197 O 294.288 1.00663 -1.74439 0
M  V30 3198 C 291.353 1.43704 -3.15515 0
M  V30 3199 C 290.414 0.799742 -4.21785 0
M  V30 3200 C 289.647 1.82696 -5.01456 0
M  V30 3201 O 289.87 3.05105 -4.81941 0
M  V30 3202 O 288.804 1.40958 -5.85162 0
M  V30 3203 H 292.63 -0.302032 -3.02194 0
M  V30 3204 H 290.215 -0.213825 -1.47862 0
M  V30 3205 H 292.097 2.06227 -3.67489 0
M  V30 3206 H 290.772 2.08133 -2.47916 0
M  V30 3207 H 289.679 0.136084 -3.73852 0
M  V30 3208 H 291.012 0.198718 -4.91799 0
M  V30 3209 N 292.664 1.56529 -0.183458 0
M  V30 3210 C 293.574 2.22144 0.754272 0
M  V30 3211 C 294.59 1.21684 1.24374 0
M  V30 3212 O 295.766 1.54385 1.29333 0
M  V30 3213 C 292.831 2.85884 1.96141 0
M  V30 3214 C 291.892 4.01579 1.51765 0
M  V30 3215 C 291.125 4.6227 2.66725 0
M  V30 3216 O 291.348 4.21865 3.83909 0
M  V30 3217 O 290.282 5.51936 2.40104 0
M  V30 3218 H 294.108 3.02861 0.225527 0
M  V30 3219 H 291.693 1.49331 0.0453032 0
M  V30 3220 H 293.575 3.26253 2.66715 0
M  V30 3221 H 292.25 2.08154 2.47899 0
M  V30 3222 H 291.157 3.65856 0.781049 0
M  V30 3223 H 292.49 4.80938 1.04686 0
M  V30 3224 N 294.142 -0.090211 1.57342 0
M  V30 3225 C 295.052 -1.12735 2.05738 0
M  V30 3226 C 296.068 -1.43557 0.983231 0
M  V30 3227 O 297.244 -1.54101 1.29672 0
M  V30 3228 C 294.309 -2.42659 2.47624 0
M  V30 3229 C 293.37 -2.18975 3.69254 0
M  V30 3230 C 292.603 -3.42704 4.09133 0
M  V30 3231 O 292.826 -4.51127 3.49057 0
M  V30 3232 O 291.76 -3.32003 5.02053 0
M  V30 3233 H 295.586 -0.746279 2.94388 0
M  V30 3234 H 293.171 -0.303064 1.46294 0
M  V30 3235 H 295.053 -3.19155 2.7517 0
M  V30 3236 H 293.728 -2.80182 1.62109 0
M  V30 3237 H 292.635 -1.40244 3.46818 0
M  V30 3238 H 293.968 -1.86342 4.55563 0
M  V30 3239 N 295.62 -1.53406 -0.361157 0
M  V30 3240 C 296.53 -1.83122 -1.4664 0
M  V30 3241 C 297.546 -0.719943 -1.58407 0
M  V30 3242 O 298.722 -1.01046 -1.74218 0
M  V30 3243 C 295.787 -2.01891 -2.81853 0
M  V30 3244 C 294.848 -3.25784 -2.79577 0
M  V30 3245 C 294.081 -3.43648 -4.0834 0
M  V30 3246 O 294.304 -2.65714 -5.0473 0
M  V30 3247 O 293.238 -4.37018 -4.13883 0
M  V30 3248 H 297.064 -2.7703 -1.24451 0
M  V30 3249 H 294.649 -1.38841 -0.551678 0
M  V30 3250 H 296.531 -2.15782 -3.61962 0
M  V30 3251 H 295.206 -1.11173 -3.0401 0
M  V30 3252 H 294.113 -3.17312 -1.98151 0
M  V30 3253 H 295.446 -4.16439 -2.62373 0
M  V30 3254 N 297.098 0.621204 -1.44841 0
M  V30 3255 C 298.375 1.38 -1.38619 0
M  V30 3256 C 298.755 2.11041 -0.0498935 0
M  V30 3257 O 298.103 2.06992 0.967816 0
M  V30 3258 C 298.313 2.33817 -2.59096 0
M  V30 3259 C 299.661 2.96844 -3.03593 0
M  V30 3260 O 300.685 2.44141 -2.59371 0
M  V30 3261 O 299.544 3.92476 -3.80296 0
M  V30 3262 H 296.638 0.61811 -0.549426 0
M  V30 3263 H 299.184 0.645429 -1.56947 0
M  V30 3264 H 297.956 1.79012 -3.47952 0
M  V30 3265 H 297.579 3.14676 -2.43032 0
M  V30 3266 N 298.576 1.31904 0.862503 0
M  V30 3267 C 299.486 1.22161 2.00285 0
M  V30 3268 C 300.502 0.136785 1.73462 0
M  V30 3269 O 301.678 0.355994 1.98229 0
M  V30 3270 C 298.743 0.937093 3.33796 0
M  V30 3271 C 297.804 2.10957 3.73893 0
M  V30 3272 C 297.037 1.83853 5.01033 0
M  V30 3273 O 297.26 0.777274 5.65079 0
M  V30 3274 O 296.194 2.69741 5.38074 0
M  V30 3275 H 300.02 2.18008 2.11439 0
M  V30 3276 H 297.605 1.11716 0.991957 0
M  V30 3277 H 299.487 0.794583 4.13841 0
M  V30 3278 H 298.162 0.00871894 3.23699 0
M  V30 3279 H 297.069 2.30752 2.94456 0
M  V30 3280 H 298.402 3.02046 3.88625 0
M  V30 3281 N 300.054 -1.07777 1.14986 0
M  V30 3282 C 300.964 -2.18404 0.856546 0
M  V30 3283 C 301.98 -1.73211 -0.165485 0
M  V30 3284 O 303.156 -2.01399 0.00755219 0
M  V30 3285 C 300.221 -3.44977 0.34526 0
M  V30 3286 C 299.282 -4.0476 1.43065 0
M  V30 3287 C 298.515 -5.25291 0.943663 0
M  V30 3288 O 298.738 -5.70004 -0.212426 0
M  V30 3289 O 297.672 -5.76638 1.72547 0
M  V30 3290 H 301.498 -2.45978 1.78125 0
M  V30 3291 H 299.083 -1.17033 0.928631 0
M  V30 3292 H 300.965 -4.21348 0.0663671 0
M  V30 3293 H 299.64 -3.18965 -0.551631 0
M  V30 3294 H 298.547 -3.29949 1.76309 0
M  V30 3295 H 299.88 -4.35035 2.30229 0
M  V30 3296 N 301.532 -0.945985 -1.26051 0
M  V30 3297 C 302.809 -0.513816 -1.88731 0
M  V30 3298 C 303.189 1.00872 -1.8544 0
M  V30 3299 O 302.537 1.8708 -1.312 0
M  V30 3300 C 302.747 -1.08062 -3.31849 0
M  V30 3301 C 304.095 -1.1522 -4.08668 0
M  V30 3302 O 305.119 -1.03155 -3.40936 0
M  V30 3303 O 303.978 -1.34044 -5.29806 0
M  V30 3304 H 301.072 -0.168193 -0.809716 0
M  V30 3305 H 303.618 -1.03886 -1.34186 0
M  V30 3306 H 302.39 -2.1241 -3.2863 0
M  V30 3307 H 302.013 -0.538307 -3.93939 0
M  V30 3308 N 303.011 1.40521 -0.713556 0
M  V30 3309 C 303.921 2.34522 -0.0606667 0
M  V30 3310 C 304.937 1.57193 0.74607 0
M  V30 3311 O 306.113 1.89591 0.679493 0
M  V30 3312 C 303.178 3.36081 0.851491 0
M  V30 3313 C 302.239 4.29286 0.0349339 0
M  V30 3314 C 301.472 5.25994 0.903649 0
M  V30 3315 O 301.695 5.28616 2.14292 0
M  V30 3316 O 300.629 6.00918 0.343723 0
M  V30 3317 H 304.455 2.91968 -0.835972 0
M  V30 3318 H 302.04 1.41681 -0.47402 0
M  V30 3319 H 303.922 3.98369 1.37404 0
M  V30 3320 H 302.597 2.81052 1.60598 0
M  V30 3321 H 301.504 3.70289 -0.532633 0
M  V30 3322 H 302.837 4.87462 -0.681287 0
M  V30 3323 N 304.489 0.459591 1.5075 0
M  V30 3324 C 305.766 -0.160371 1.94941 0
M  V30 3325 C 306.146 -1.58048 1.39943 0
M  V30 3326 O 305.494 -2.206 0.595629 0
M  V30 3327 C 305.704 -0.115432 3.48809 0
M  V30 3328 C 307.052 -0.310026 4.23467 0
M  V30 3329 O 308.076 -0.192543 3.55679 0
M  V30 3330 O 306.935 -0.546031 5.43765 0
M  V30 3331 H 304.029 -0.117925 0.818549 0
M  V30 3332 H 306.575 0.519169 1.61563 0
M  V30 3333 H 305.347 0.87652 3.81357 0
M  V30 3334 H 304.97 -0.836928 3.88692 0
M  V30 3335 N 305.967 -1.56429 0.191757 0
M  V30 3336 C 306.877 -2.22541 -0.742481 0
M  V30 3337 C 307.893 -1.22342 -1.23727 0
M  V30 3338 O 309.069 -1.55069 -1.28513 0
M  V30 3339 C 306.134 -2.8692 -1.94623 0
M  V30 3340 C 305.195 -4.02378 -1.49633 0
M  V30 3341 C 304.428 -4.63678 -2.6427 0
M  V30 3342 O 304.651 -4.23895 -3.81666 0
M  V30 3343 O 303.585 -5.53202 -2.37174 0
M  V30 3344 H 307.411 -3.02977 -0.209462 0
M  V30 3345 H 304.996 -1.49353 -0.0373832 0
M  V30 3346 H 306.878 -3.27663 -2.64982 0
M  V30 3347 H 305.553 -2.09466 -2.46791 0
M  V30 3348 H 304.46 -3.66265 -0.761636 0
M  V30 3349 H 305.793 -4.81487 -1.02134 0
M  V30 3350 N 307.445 0.0818655 -1.57387 0
M  V30 3351 C 308.355 1.11642 -2.06333 0
M  V30 3352 C 309.371 1.43033 -0.99083 0
M  V30 3353 O 310.547 1.53411 -1.30488 0
M  V30 3354 C 307.612 2.41342 -2.48907 0
M  V30 3355 C 306.673 2.17014 -3.7041 0
M  V30 3356 C 305.906 3.4053 -4.10944 0
M  V30 3357 O 306.129 4.4927 -3.51444 0
M  V30 3358 O 305.063 3.29336 -5.03807 0
M  V30 3359 H 308.889 0.730657 -2.9478 0
M  V30 3360 H 306.474 0.295301 -1.46452 0
M  V30 3361 H 308.356 3.17691 -2.76858 0
M  V30 3362 H 307.031 2.79319 -1.63593 0
M  V30 3363 H 305.938 1.38403 -3.47556 0
M  V30 3364 H 307.271 1.83923 -4.56545 0
M  V30 3365 N 308.923 1.53595 0.353017 0
M  V30 3366 C 309.833 1.83897 1.45667 0
M  V30 3367 C 310.849 0.728334 1.58023 0
M  V30 3368 O 312.025 1.01968 1.73679 0
M  V30 3369 C 309.09 2.03383 2.80778 0
M  V30 3370 C 308.151 3.27262 2.77845 0
M  V30 3371 C 307.384 3.45809 4.06512 0
M  V30 3372 O 307.607 2.68387 5.03314 0
M  V30 3373 O 306.541 4.39207 4.11559 0
M  V30 3374 H 310.367 2.77686 1.2298 0
M  V30 3375 H 307.952 1.39132 0.544308 0
M  V30 3376 H 309.834 2.17698 3.60812 0
M  V30 3377 H 308.509 1.12783 3.03417 0
M  V30 3378 H 307.416 3.18359 1.96465 0
M  V30 3379 H 308.749 4.17824 2.60161 0
M  V30 3380 N 310.401 -0.613514 1.45168 0
M  V30 3381 C 311.678 -1.37263 1.39349 0
M  V30 3382 C 312.058 -2.11012 0.0610848 0
M  V30 3383 O 311.406 -2.07502 -0.956825 0
M  V30 3384 C 311.616 -2.3244 2.60332 0
M  V30 3385 C 312.964 -2.9523 3.05163 0
M  V30 3386 O 313.988 -2.42762 2.60663 0
M  V30 3387 O 312.847 -3.90454 3.82372 0
M  V30 3388 H 309.941 -0.615188 0.552696 0
M  V30 3389 H 312.487 -0.637097 1.57287 0
M  V30 3390 H 311.259 -1.77164 3.48896 0
M  V30 3391 H 310.882 -3.13383 2.44698 0
M  V30 3392 N 311.879 -1.3236 -0.855495 0
M  V30 3393 C 313.156 -1.13491 -1.59309 0
M  V30 3394 C 313.536 0.30503 -2.08885 0
M  V30 3395 O 312.884 1.30151 -1.87811 0
M  V30 3396 C 313.094 -2.16176 -2.73987 0
M  V30 3397 C 314.442 -2.49463 -3.43589 0
M  V30 3398 O 315.466 -2.14715 -2.84211 0
M  V30 3399 O 314.325 -3.09027 -4.50738 0
M  V30 3400 H 311.419 -0.437887 -0.701559 0
M  V30 3401 H 313.965 -1.43887 -0.899696 0
M  V30 3402 H 312.737 -3.1297 -2.34873 0
M  V30 3403 H 312.36 -1.86769 -3.51003 0
M  V30 3404 N 313.357 1.07166 -1.15556 0
M  V30 3405 C 314.634 1.76546 -0.842069 0
M  V30 3406 C 315.014 2.00453 0.661939 0
M  V30 3407 O 314.362 1.62452 1.60691 0
M  V30 3408 C 314.572 3.07266 -1.65495 0
M  V30 3409 C 315.92 3.81578 -1.86234 0
M  V30 3410 O 316.944 3.17083 -1.62287 0
M  V30 3411 O 315.803 4.97419 -2.26355 0
M  V30 3412 H 312.897 0.766756 -0.309862 0
M  V30 3413 H 315.443 1.13514 -1.26145 0
M  V30 3414 H 314.215 2.85494 -2.67598 0
M  V30 3415 H 313.838 3.7803 -1.23203 0
M  V30 3416 N 314.835 0.952656 1.25548 0
M  V30 3417 C 316.112 0.523818 1.88456 0
M  V30 3418 C 316.492 -0.998871 1.85973 0
M  V30 3419 O 315.84 -1.86381 1.3219 0
M  V30 3420 C 316.05 1.0982 3.31271 0
M  V30 3421 C 317.398 1.17385 4.08051 0
M  V30 3422 O 318.422 1.04961 3.40384 0
M  V30 3423 O 317.281 1.36852 5.29088 0
M  V30 3424 H 314.375 0.172485 0.808813 0
M  V30 3425 H 316.921 1.04596 1.33633 0
M  V30 3426 H 315.693 2.1415 3.27499 0
M  V30 3427 H 315.316 0.559191 3.93648 0
M  V30 3428 N 316.313 -1.40141 0.720998 0
M  V30 3429 C 317.223 -2.34486 0.0731031 0
M  V30 3430 C 318.239 -1.57587 -0.737723 0
M  V30 3431 O 319.415 -1.89949 -0.669429 0
M  V30 3432 C 316.48 -3.36528 -0.833656 0
M  V30 3433 C 315.541 -4.29298 -0.0121673 0
M  V30 3434 C 314.774 -5.26466 -0.875742 0
M  V30 3435 O 314.997 -5.29745 -2.11485 0
M  V30 3436 O 313.931 -6.01092 -0.31185 0
M  V30 3437 H 317.757 -2.9152 0.851444 0
M  V30 3438 H 315.342 -1.41427 0.481527 0
M  V30 3439 H 317.224 -3.99093 -1.35289 0
M  V30 3440 H 315.899 -2.81899 -1.59105 0
M  V30 3441 H 314.806 -3.70001 0.552262 0
M  V30 3442 H 316.139 -4.87094 0.707129 0
M  V30 3443 O 317.83 -0.609464 -1.49559 0
M  V30 3444 H 318.521 -0.121877 -1.93316 0
M  V30 END ATOM
M  V30 BEGIN BOND
M  V30 END BOND
M  V30 END CTAB
M  END
$$$$
