drugbank_target|P09417 Dihydropteridine reductase (DB00157; DB03814)
 OpenBabel12092119343D

  0  0  0     0  0            999 V3000
M  V30 BEGIN CTAB
M  V30 COUNTS 3617 3653 0 0 0
M  V30 BEGIN ATOM
M  V30 1 H -0.908 1.98254 -0.117106 0
M  V30 2 N 0 1.576 0 0
M  V30 3 C 0.933 2.03868 1.02534 0
M  V30 4 C 1.911 0.928543 1.3348 0
M  V30 5 O 3.095 1.19667 1.45644 0
M  V30 6 C 0.222 2.43627 2.35294 0
M  V30 7 C -0.732 3.65373 2.2001 0
M  V30 8 S 0.101 5.13292 1.52614 0
M  V30 9 C 1.257 5.56322 2.86805 0
M  V30 10 H 1.49 2.90518 0.631377 0
M  V30 11 H -0.977 1.52953 0.210867 0
M  V30 12 H 0.981 2.67203 3.11629 0
M  V30 13 H -0.358 1.57376 2.7183 0
M  V30 14 H -1.165 3.90944 3.18086 0
M  V30 15 H -1.563 3.418 1.51819 0
M  V30 16 H 0.729 5.58782 3.83104 0
M  V30 17 H 1.672 6.56266 2.65933 0
M  V30 18 H 2.08 4.83886 2.90714 0
M  V30 19 N 1.4781 -0.272755 1.55222 0
M  V30 20 C 2.4411 -1.32041 1.87344 0
M  V30 21 C 3.4411 -1.42342 0.74803 0
M  V30 22 O 4.6311 -1.41488 1.0162 0
M  V30 23 C 1.7631 -2.70173 2.07893 0
M  V30 24 H 2.9561 -1.04789 2.80997 0
M  V30 25 H 0.5091 -0.51083 1.47717 0
M  V30 26 H 1.2441 -3.02605 1.16622 0
M  V30 27 H 1.0291 -2.64082 2.89833 0
M  V30 28 H 2.5191 -3.45869 2.34017 0
M  V30 29 N 2.9562 -1.48159 -0.537278 0
M  V30 30 C 3.9192 -1.61665 -1.62472 0
M  V30 31 C 4.9192 -0.490395 -1.5314 0
M  V30 32 O 6.1092 -0.755998 -1.5694 0
M  V30 33 C 3.2412 -1.57997 -3.02076 0
M  V30 34 H 4.4342 -2.58621 -1.51839 0
M  V30 35 H 1.9872 -1.36647 -0.758771 0
M  V30 36 H 2.7222 -0.624913 -3.18222 0
M  V30 37 H 2.5072 -2.39755 -3.10258 0
M  V30 38 H 3.9972 -1.70627 -3.81151 0
M  V30 39 N 4.4343 0.785586 -1.36625 0
M  V30 40 C 5.3973 1.87999 -1.31107 0
M  V30 41 C 6.3973 1.59316 -0.217959 0
M  V30 42 O 7.5873 1.67656 -0.472977 0
M  V30 43 C 4.7193 3.24861 -1.03334 0
M  V30 44 H 5.9123 1.94307 -2.2844 0
M  V30 45 H 3.4653 0.983813 -1.21453 0
M  V30 46 H 4.2003 3.24235 -0.0647432 0
M  V30 47 H 3.9853 3.4707 -1.82441 0
M  V30 48 H 5.4753 4.04929 -1.02088 0
M  V30 49 N 5.9124 1.20967 1.01018 0
M  V30 50 C 6.8754 0.965918 2.07853 0
M  V30 51 C 7.8754 -0.0610545 1.60684 0
M  V30 52 O 9.0654 0.175681 1.73312 0
M  V30 53 C 6.1974 0.455513 3.37843 0
M  V30 54 H 7.3904 1.91365 2.3091 0
M  V30 55 H 4.9434 1.02594 1.17916 0
M  V30 56 H 5.6784 -0.497381 3.20463 0
M  V30 57 H 5.4634 1.19622 3.73407 0
M  V30 58 H 6.9534 0.304667 4.16487 0
M  V30 59 N 7.3905 -1.2043 1.01659 0
M  V30 60 C 8.3535 -2.21433 0.591616 0
M  V30 61 C 9.3535 -1.57203 -0.338226 0
M  V30 62 O 10.5435 -1.73737 -0.126918 0
M  V30 63 C 7.6755 -3.40628 -0.136058 0
M  V30 64 H 8.8685 -2.60545 1.48514 0
M  V30 65 H 6.4215 -1.33893 0.806379 0
M  V30 66 H 7.1565 -3.07019 -1.04449 0
M  V30 67 H 6.9415 -3.88475 0.531917 0
M  V30 68 H 8.4315 -4.15475 -0.420735 0
M  V30 69 N 8.8686 -0.792821 -1.36206 0
M  V30 70 C 9.8316 -0.199459 -2.2833 0
M  V30 71 C 10.8316 0.605189 -1.48977 0
M  V30 72 O 12.0216 0.425685 -1.68919 0
M  V30 73 C 9.1536 0.723523 -3.33134 0
M  V30 74 H 10.3466 -1.01181 -2.82316 0
M  V30 75 H 7.8996 -0.562485 -1.45828 0
M  V30 76 H 8.6346 1.56008 -2.84309 0
M  V30 77 H 8.4196 0.148436 -3.91819 0
M  V30 78 H 9.9096 1.13344 -4.01924 0
M  V30 79 N 10.3467 1.47872 -0.545128 0
M  V30 80 C 11.5947 2.02093 -0.016553 0
M  V30 81 C 11.9157 1.42305 1.3332 0
M  V30 82 O 11.1857 0.593853 1.86682 0
M  V30 83 H 9.7657 0.746993 -0.00313038 0
M  V30 84 H 12.4277 1.81414 -0.712397 0
M  V30 85 H 11.5237 3.11996 0.0805422 0
M  V30 86 N 11.8248 0.280983 1.55075 0
M  V30 87 C 12.7348 -0.61388 2.26426 0
M  V30 88 C 13.7508 -1.16521 1.29224 0
M  V30 89 O 14.9268 -1.19426 1.62171 0
M  V30 90 C 11.9918 -1.7788 2.9759 0
M  V30 91 C 11.0528 -1.26355 4.10284 0
M  V30 92 C 10.2858 -2.37295 4.78045 0
M  V30 93 O 10.5088 -3.56777 4.45047 0
M  V30 94 O 9.4428 -2.05119 5.65871 0
M  V30 95 H 13.2688 -0.0356932 3.03679 0
M  V30 96 H 10.8538 0.0481686 1.49322 0
M  V30 97 H 12.7358 -2.45791 3.42293 0
M  V30 98 H 11.4108 -2.34397 2.23249 0
M  V30 99 H 10.3178 -0.550735 3.70024 0
M  V30 100 H 11.6508 -0.744065 4.86543 0
M  V30 101 N 13.3029 -1.57598 0.00835791 0
M  V30 102 C 14.2659 -2.07884 -0.965242 0
M  V30 103 C 15.2659 -0.989825 -1.26725 0
M  V30 104 O 16.4559 -1.25218 -1.21104 0
M  V30 105 C 13.5879 -2.52731 -2.28779 0
M  V30 106 H 14.7809 -2.95178 -0.530112 0
M  V30 107 H 12.3339 -1.54458 -0.239283 0
M  V30 108 H 13.0689 -1.68705 -2.76964 0
M  V30 109 H 12.8539 -3.32272 -2.08177 0
M  V30 110 H 14.3439 -2.91933 -2.98605 0
M  V30 111 N 14.781 0.264519 -1.55364 0
M  V30 112 C 16.197 0.61215 -1.47394 0
M  V30 113 C 16.397 1.89134 -0.695018 0
M  V30 114 O 15.453 2.51563 -0.217275 0
M  V30 115 C 16.766 0.731235 -2.91674 0
M  V30 116 C 18.314 0.82473 -3.01939 0
M  V30 117 C 18.789 0.975522 -4.4749 0
M  V30 118 N 20.28 1.04083 -4.51354 0
M  V30 119 C 21.015 1.17646 -5.61201 0
M  V30 120 N 20.511 1.27874 -6.80896 0
M  V30 121 N 22.304 1.20823 -5.48961 0
M  V30 122 H 14.455 -0.575456 -2.04456 0
M  V30 123 H 16.718 -0.196099 -0.927496 0
M  V30 124 H 16.424 -0.138392 -3.51428 0
M  V30 125 H 16.298 1.60883 -3.41169 0
M  V30 126 H 18.685 1.68482 -2.42276 0
M  V30 127 H 18.766 -0.0776479 -2.55682 0
M  V30 128 H 18.41 0.120058 -5.07758 0
M  V30 129 H 18.34 1.89268 -4.91412 0
M  V30 130 H 20.831 0.973846 -3.65136 0
M  V30 131 H 21.144 1.38081 -7.60364 0
M  V30 132 H 19.489 1.24863 -6.83692 0
M  V30 133 H 22.68 1.12469 -4.54388 0
M  V30 134 H 22.853 1.31049 -6.3461 0
M  V30 135 N 16.2591 1.48442 0.529413 0
M  V30 136 C 17.6751 1.34575 0.858004 0
M  V30 137 C 17.8751 0.3572 1.98309 0
M  V30 138 O 16.9311 -0.221379 2.51528 0
M  V30 139 C 18.2441 2.74617 1.22499 0
M  V30 140 C 19.7921 2.83109 1.33484 0
M  V30 141 C 20.2671 4.23854 1.73526 0
M  V30 142 N 21.7581 4.2653 1.80628 0
M  V30 143 C 22.4931 5.32372 2.12997 0
M  V30 144 N 21.9891 6.48491 2.43786 0
M  V30 145 N 23.7821 5.19766 2.14008 0
M  V30 146 H 15.9331 2.1133 -0.212925 0
M  V30 147 H 18.1961 0.947439 -0.0326199 0
M  V30 148 H 17.9021 3.4852 0.471905 0
M  V30 149 H 17.7761 3.08177 2.17501 0
M  V30 150 H 20.1631 2.09462 2.0787 0
M  V30 151 H 20.2441 2.53168 0.366027 0
M  V30 152 H 19.8881 4.98018 0.997013 0
M  V30 153 H 19.8181 4.5124 2.71459 0
M  V30 154 H 22.3091 3.42772 1.59108 0
M  V30 155 H 22.6221 7.24993 2.67592 0
M  V30 156 H 20.9671 6.51765 2.41304 0
M  V30 157 H 24.1581 4.28066 1.89412 0
M  V30 158 H 24.3311 6.02354 2.38902 0
M  V30 159 N 17.7372 -0.778329 1.37039 0
M  V30 160 C 18.9832 -1.53892 1.32079 0
M  V30 161 C 19.3162 -1.9396 -0.0965386 0
M  V30 162 O 18.5912 -1.63568 -1.05242 0
M  V30 163 C 18.8742 -2.80847 2.25382 0
M  V30 164 C 18.7272 -2.47076 3.75864 0
M  V30 165 C 20.0462 -3.82741 2.1725 0
M  V30 166 H 17.1652 -0.558303 0.48111 0
M  V30 167 H 19.8072 -0.893397 1.67685 0
M  V30 168 H 17.9572 -3.35931 1.95148 0
M  V30 169 H 19.6292 -1.97957 4.16666 0
M  V30 170 H 17.8722 -1.79863 3.94755 0
M  V30 171 H 18.5432 -3.37798 4.36574 0
M  V30 172 H 21.0192 -3.37133 2.43887 0
M  V30 173 H 19.8952 -4.69303 2.84686 0
M  V30 174 H 20.1562 -4.2652 1.16331 0
M  V30 175 N 19.2153 -1.21501 -1.00376 0
M  V30 176 C 20.1453 -0.999478 -2.11028 0
M  V30 177 C 21.1263 0.0759671 -1.6993 0
M  V30 178 O 22.3113 -0.0841106 -1.94018 0
M  V30 179 C 19.4413 -0.564709 -3.42678 0
M  V30 180 C 18.3953 -1.58486 -3.97576 0
M  V30 181 C 17.7213 -1.00628 -5.25146 0
M  V30 182 C 19.0213 -2.97204 -4.29496 0
M  V30 183 H 20.7153 -1.92495 -2.29317 0
M  V30 184 H 18.2613 -0.92693 -1.102 0
M  V30 185 H 20.2143 -0.401091 -4.19487 0
M  V30 186 H 18.9383 0.396411 -3.24185 0
M  V30 187 H 17.5973 -1.73606 -3.22888 0
M  V30 188 H 17.2453 -0.0368439 -5.02987 0
M  V30 189 H 16.9453 -1.68771 -5.62841 0
M  V30 190 H 18.4693 -0.854015 -6.04598 0
M  V30 191 H 19.8833 -2.8552 -4.97143 0
M  V30 192 H 18.2803 -3.62372 -4.78338 0
M  V30 193 H 19.3503 -3.47956 -3.3772 0
M  V30 194 N 20.6934 1.19889 -1.02296 0
M  V30 195 C 21.9394 1.89701 -0.717033 0
M  V30 196 C 22.2724 1.7905 0.751989 0
M  V30 197 O 21.5474 1.17891 1.547 0
M  V30 198 C 21.8304 3.40858 -1.16136 0
M  V30 199 C 21.6834 3.60411 -2.69117 0
M  V30 200 C 23.0024 4.33876 -0.737549 0
M  V30 201 H 20.1214 0.688874 -0.261957 0
M  V30 202 H 22.7634 1.41154 -1.27183 0
M  V30 203 H 20.9134 3.82335 -0.689342 0
M  V30 204 H 22.5854 3.28145 -3.2422 0
M  V30 205 H 20.8284 3.03665 -3.0979 0
M  V30 206 H 21.4994 4.66396 -2.95261 0
M  V30 207 H 23.9754 4.00081 -1.14344 0
M  V30 208 H 22.8514 5.38242 -1.0764 0
M  V30 209 H 23.1124 4.40628 0.360436 0
M  V30 210 N 22.1715 0.800033 1.35784 0
M  V30 211 C 23.4015 0.389041 2.02904 0
M  V30 212 C 23.8095 -1.0027 1.60445 0
M  V30 213 O 23.1525 -1.65633 0.794453 0
M  V30 214 C 23.2145 0.385495 3.57427 0
M  V30 215 C 22.8785 1.72662 4.23127 0
M  V30 216 C 23.8755 2.68385 4.4527 0
M  V30 217 C 21.5605 2.00883 4.60381 0
M  V30 218 C 23.5545 3.90517 5.03761 0
M  V30 219 C 21.2415 3.2328 5.18588 0
M  V30 220 C 22.2395 4.17915 5.40218 0
M  V30 221 O 21.9275 5.38153 5.97199 0
M  V30 222 H 21.6595 0.157032 0.657508 0
M  V30 223 H 24.2135 1.08311 1.74522 0
M  V30 224 H 22.4435 -0.365128 3.84972 0
M  V30 225 H 24.1325 -0.00228296 4.059 0
M  V30 226 H 24.8985 2.47872 4.16874 0
M  V30 227 H 20.7775 1.28037 4.42863 0
M  V30 228 H 24.3215 4.64395 5.2056 0
M  V30 229 H 20.2185 3.43667 5.4641 0
M  V30 230 H 20.9865 5.3936 6.15656 0
M  V30 231 N 23.6496 -1.47581 0.552962 0
M  V30 232 C 24.8976 -2.02082 0.0272703 0
M  V30 233 C 25.2186 -1.4301 -1.32563 0
M  V30 234 O 24.4886 -0.603745 -1.86365 0
M  V30 235 H 23.0686 -0.746966 0.00709182 0
M  V30 236 H 25.7306 -1.81033 0.722008 0
M  V30 237 H 24.8266 -3.12034 -0.0639951 0
M  V30 238 N 25.1277 -0.289203 -1.54924 0
M  V30 239 C 26.3757 0.322879 -1.99504 0
M  V30 240 C 26.6967 1.55313 -1.1791 0
M  V30 241 O 25.9667 1.94001 -0.272097 0
M  V30 242 H 24.5467 0.122291 -0.736922 0
M  V30 243 H 27.2087 -0.397802 -1.90797 0
M  V30 244 H 26.3047 0.603061 -3.06218 0
M  V30 245 N 26.6058 1.57591 -0.0167156 0
M  V30 246 C 28.0218 1.55946 0.339557 0
M  V30 247 C 28.2218 1.02109 1.73713 0
M  V30 248 O 27.2778 0.662303 2.43659 0
M  V30 249 C 28.5908 3.00037 0.199499 0
M  V30 250 C 30.1388 3.11805 0.273193 0
M  V30 251 C 30.6138 4.57713 0.162068 0
M  V30 252 N 32.1048 4.6268 0.219444 0
M  V30 253 C 32.8398 5.73185 0.157054 0
M  V30 254 N 32.3358 6.92786 0.0442936 0
M  V30 255 N 34.1288 5.61707 0.21014 0
M  V30 256 H 26.2798 1.90921 -0.930758 0
M  V30 257 H 28.5428 0.877674 -0.358319 0
M  V30 258 H 28.2488 3.4333 -0.76273 0
M  V30 259 H 28.1228 3.64387 0.974786 0
M  V30 260 H 30.5098 2.68433 1.22587 0
M  V30 261 H 30.5908 2.50201 -0.532256 0
M  V30 262 H 30.2348 5.01763 -0.78714 0
M  V30 263 H 30.1648 5.17283 0.986222 0
M  V30 264 H 32.6558 3.76649 0.307246 0
M  V30 265 H 32.9688 7.728 0.00304069 0
M  V30 266 H 31.3138 6.94999 0.00968457 0
M  V30 267 H 34.5048 4.6716 0.296546 0
M  V30 268 H 34.6778 6.47807 0.158054 0
M  V30 269 N 28.0839 -0.256276 1.55502 0
M  V30 270 C 29.3319 -0.983672 1.76545 0
M  V30 271 C 29.6529 -1.86206 0.578982 0
M  V30 272 O 28.9229 -1.91656 -0.405577 0
M  V30 273 H 27.5029 -0.366191 0.651086 0
M  V30 274 H 30.1649 -0.276479 1.92929 0
M  V30 275 H 29.2609 -1.61087 2.67315 0
M  V30 276 N 29.562 -1.4872 -0.521534 0
M  V30 277 C 30.525 -1.63379 -1.60748 0
M  V30 278 C 31.525 -0.50661 -1.52611 0
M  V30 279 O 32.715 -0.772601 -1.5613 0
M  V30 280 C 29.847 -1.61192 -3.00383 0
M  V30 281 H 31.04 -2.60217 -1.49087 0
M  V30 282 H 28.593 -1.37444 -0.744235 0
M  V30 283 H 29.328 -0.65863 -3.17541 0
M  V30 284 H 29.113 -2.43032 -3.07698 0
M  V30 285 H 30.603 -1.7466 -3.7932 0
M  V30 286 N 31.0401 0.771051 -1.3745 0
M  V30 287 C 31.9701 1.89827 -1.3597 0
M  V30 288 C 32.9511 1.68562 -0.228216 0
M  V30 289 O 34.1361 1.8941 -0.428675 0
M  V30 290 C 31.2661 3.2712 -1.16662 0
M  V30 291 C 30.2201 3.6295 -2.2683 0
M  V30 292 C 29.5461 4.98791 -1.92644 0
M  V30 293 C 30.8461 3.69627 -3.69017 0
M  V30 294 H 32.5401 1.91323 -2.30295 0
M  V30 295 H 30.0861 0.919082 -1.10855 0
M  V30 296 H 32.0391 4.05615 -1.14256 0
M  V30 297 H 30.7631 3.26059 -0.187926 0
M  V30 298 H 29.4221 2.86763 -2.28392 0
M  V30 299 H 29.0701 4.94271 -0.933021 0
M  V30 300 H 28.7701 5.23733 -2.66416 0
M  V30 301 H 30.2941 5.79685 -1.91826 0
M  V30 302 H 31.7081 4.38273 -3.69581 0
M  V30 303 H 30.1051 4.06067 -4.41848 0
M  V30 304 H 31.1751 2.70273 -4.02592 0
M  V30 305 N 32.5182 1.22032 0.997298 0
M  V30 306 C 33.7662 1.04016 1.73278 0
M  V30 307 C 34.0872 -0.426255 1.90284 0
M  V30 308 O 33.3572 -1.30694 1.45931 0
M  V30 309 H 31.9372 0.381897 0.642 0
M  V30 310 H 34.5992 1.5347 1.20137 0
M  V30 311 H 33.6952 1.51441 2.72896 0
M  V30 312 N 33.9963 -1.19345 1.0293 0
M  V30 313 C 35.2213 -1.93538 0.745511 0
M  V30 314 C 35.6463 -1.75007 -0.689511 0
M  V30 315 O 35.0043 -1.05265 -1.47611 0
M  V30 316 C 35.0523 -3.43336 1.10239 0
M  V30 317 O 34.1563 -4.11806 0.221289 0
M  V30 318 H 33.4973 -0.604193 0.275404 0
M  V30 319 H 36.0273 -1.5141 1.37609 0
M  V30 320 H 36.0373 -3.94004 1.05947 0
M  V30 321 H 34.7123 -3.56146 2.14786 0
M  V30 322 H 33.2893 -3.715 0.322842 0
M  V30 323 N 35.4744 -0.807222 -1.35358 0
M  V30 324 C 36.8904 -0.491038 -1.51858 0
M  V30 325 C 37.0904 0.987648 -1.75635 0
M  V30 326 O 36.1464 1.77265 -1.79815 0
M  V30 327 C 37.4594 -1.33695 -2.69344 0
M  V30 328 C 39.0074 -1.33246 -2.83222 0
M  V30 329 C 39.4824 -2.1625 -4.03733 0
M  V30 330 N 40.9734 -2.1379 -4.10911 0
M  V30 331 C 41.7084 -2.74772 -5.03277 0
M  V30 332 N 41.2044 -3.44684 -6.0097 0
M  V30 333 N 42.9974 -2.6441 -4.96028 0
M  V30 334 H 35.1484 -1.76485 -1.18181 0
M  V30 335 H 37.4114 -0.751199 -0.578276 0
M  V30 336 H 37.1174 -2.38634 -2.58354 0
M  V30 337 H 36.9914 -0.990618 -3.6396 0
M  V30 338 H 39.3784 -0.290911 -2.93663 0
M  V30 339 H 39.4594 -1.71866 -1.89461 0
M  V30 340 H 39.1034 -3.20445 -3.94052 0
M  V30 341 H 39.0334 -1.74989 -4.96675 0
M  V30 342 H 41.5244 -1.62923 -3.40976 0
M  V30 343 H 41.8374 -3.88501 -6.68047 0
M  V30 344 H 40.1824 -3.48788 -6.01142 0
M  V30 345 H 43.3734 -2.0938 -4.18662 0
M  V30 346 H 43.5464 -3.12225 -5.6782 0
M  V30 347 N 36.9525 1.47285 -0.560781 0
M  V30 348 C 38.1925 2.0436 -0.0404627 0
M  V30 349 C 38.5565 1.42534 1.28639 0
M  V30 350 O 39.7575 1.90677 1.89462 0
M  V30 351 C 38.0285 3.57369 0.0471856 0
M  V30 352 S 39.5875 4.3579 0.513109 0
M  V30 353 H 36.4055 0.710492 -0.0268674 0
M  V30 354 H 39.0075 1.80611 -0.748323 0
M  V30 355 H 37.7115 3.9989 -0.922817 0
M  V30 356 H 37.2425 3.8562 0.778491 0
M  V30 357 H 39.2575 4.63476 1.77212 0
M  V30 358 N 38.4306 0.297415 1.54768 0
M  V30 359 C 39.6766 -0.313376 2.00364 0
M  V30 360 C 40.0096 -1.53815 1.18553 0
M  V30 361 O 39.2846 -1.92739 0.261103 0
M  V30 362 C 39.5676 -0.673525 3.53745 0
M  V30 363 C 39.4206 0.560133 4.46299 0
M  V30 364 C 40.7396 -1.50143 4.13697 0
M  V30 365 H 37.8586 -0.112428 0.728374 0
M  V30 366 H 40.5006 0.4088 1.8555 0
M  V30 367 H 38.6506 -1.28881 3.665 0
M  V30 368 H 40.3226 1.19863 4.45455 0
M  V30 369 H 38.5656 1.19405 4.17043 0
M  V30 370 H 39.2366 0.26405 5.51368 0
M  V30 371 H 41.7126 -0.981588 4.04356 0
M  V30 372 H 40.5886 -1.72221 5.21182 0
M  V30 373 H 40.8496 -2.48952 3.65343 0
M  V30 374 N 39.9087 -1.5758 0.0250728 0
M  V30 375 C 40.8407 -2.06869 -0.986796 0
M  V30 376 C 41.8537 -0.991332 -1.29137 0
M  V30 377 O 43.0427 -1.26761 -1.25674 0
M  V30 378 C 40.1427 -2.47486 -2.31525 0
M  V30 379 C 39.3157 -3.78253 -2.19643 0
M  V30 380 C 38.3747 -4.05464 -3.35388 0
M  V30 381 O 37.4007 -4.75774 -3.12454 0
M  V30 382 N 38.6027 -3.55321 -4.59051 0
M  V30 383 H 41.3677 -2.94302 -0.566276 0
M  V30 384 H 38.9287 -1.6109 -0.161776 0
M  V30 385 H 40.9207 -2.62785 -3.07776 0
M  V30 386 H 39.4907 -1.65441 -2.65232 0
M  V30 387 H 38.7107 -3.7279 -1.28144 0
M  V30 388 H 39.9987 -4.63936 -2.08903 0
M  V30 389 H 39.3967 -2.98431 -4.80578 0
M  V30 390 H 37.9537 -3.75905 -5.32483 0
M  V30 391 N 41.3868 0.248026 -1.55636 0
M  V30 392 C 42.3498 1.29044 -1.89421 0
M  V30 393 C 43.3498 1.41134 -0.770581 0
M  V30 394 O 44.5398 1.39854 -1.03858 0
M  V30 395 C 41.6718 2.66831 -2.12165 0
M  V30 396 H 42.8648 1.00305 -2.82629 0
M  V30 397 H 40.4178 0.487265 -1.48511 0
M  V30 398 H 41.1528 3.00711 -1.21422 0
M  V30 399 H 40.9378 2.59438 -2.93997 0
M  V30 400 H 42.4278 3.42103 -2.3949 0
M  V30 401 N 42.8649 1.48995 0.513639 0
M  V30 402 C 44.1119 1.57843 1.26854 0
M  V30 403 C 44.4399 0.259501 1.92761 0
M  V30 404 O 43.6949 -0.75159 1.80692 0
M  V30 405 C 43.9939 2.67756 2.36731 0
M  V30 406 C 43.6599 4.09669 1.88368 0
M  V30 407 C 42.3219 4.48291 1.74896 0
M  V30 408 C 44.6739 4.98537 1.52021 0
M  V30 409 C 42.0019 5.73568 1.23438 0
M  V30 410 C 44.3539 6.24319 1.0202 0
M  V30 411 C 43.0179 6.61783 0.871778 0
M  V30 412 H 42.2879 0.577587 0.464192 0
M  V30 413 H 44.9349 1.82778 0.571366 0
M  V30 414 H 43.2399 2.36743 3.12185 0
M  V30 415 H 44.9369 2.71813 2.9482 0
M  V30 416 H 41.5269 3.79176 1.99808 0
M  V30 417 H 45.7109 4.69363 1.61281 0
M  V30 418 H 40.9669 6.01304 1.10648 0
M  V30 419 H 45.1409 6.92566 0.729722 0
M  V30 420 H 42.7679 7.5874 0.470852 0
M  V30 421 N 44.343 -0.763751 1.37857 0
M  V30 422 C 45.759 -1.06542 1.18832 0
M  V30 423 C 45.959 -2.01478 0.0299722 0
M  V30 424 O 45.015 -2.4458 -0.627447 0
M  V30 425 C 46.328 -1.65525 2.51042 0
M  V30 426 C 47.876 -1.77745 2.57635 0
M  V30 427 C 48.351 -2.4014 3.89996 0
M  V30 428 N 49.842 -2.47582 3.91481 0
M  V30 429 C 50.577 -2.96732 4.9065 0
M  V30 430 N 50.073 -3.45993 6.00217 0
M  V30 431 N 51.866 -2.95679 4.78048 0
M  V30 432 H 44.017 -0.133556 2.1198 0
M  V30 433 H 46.28 -0.121879 0.940133 0
M  V30 434 H 45.986 -1.03236 3.36207 0
M  V30 435 H 45.86 -2.64719 2.68707 0
M  V30 436 H 48.247 -2.39164 1.72872 0
M  V30 437 H 48.328 -0.772836 2.43846 0
M  V30 438 H 47.972 -1.79358 4.75177 0
M  V30 439 H 47.902 -3.41223 4.01092 0
M  V30 440 H 50.393 -2.1273 3.12337 0
M  V30 441 H 50.706 -3.81922 6.7183 0
M  V30 442 H 49.051 -3.44077 6.03851 0
M  V30 443 H 52.242 -2.56499 3.91568 0
M  V30 444 H 52.415 -3.33672 5.55488 0
M  V30 445 N 45.8211 -1.22559 -0.990812 0
M  V30 446 C 46.7841 -0.998863 -2.0629 0
M  V30 447 C 47.7841 0.0354834 -1.60761 0
M  V30 448 O 48.9741 -0.203231 -1.7301 0
M  V30 449 C 46.1061 -0.509203 -3.37076 0
M  V30 450 H 47.2991 -1.95014 -2.27837 0
M  V30 451 H 44.8521 -1.04456 -1.16269 0
M  V30 452 H 45.5871 0.446335 -3.21214 0
M  V30 453 H 45.3721 -1.25547 -3.71457 0
M  V30 454 H 46.8621 -0.370888 -4.1595 0
M  V30 455 N 47.2992 1.18797 -1.03562 0
M  V30 456 C 48.7152 1.40671 -0.753917 0
M  V30 457 C 48.9152 1.9043 0.658686 0
M  V30 458 O 47.9712 2.08538 1.42366 0
M  V30 459 C 49.2842 2.41192 -1.79574 0
M  V30 460 C 50.8322 2.54928 -1.81606 0
M  V30 461 C 51.3072 3.58709 -2.84766 0
M  V30 462 N 52.7982 3.66212 -2.83625 0
M  V30 463 C 53.5332 4.46225 -3.60098 0
M  V30 464 N 53.0292 5.29888 -4.46308 0
M  V30 465 N 54.8222 4.40939 -3.4861 0
M  V30 466 H 46.9732 0.848221 -1.94728 0
M  V30 467 H 49.2362 0.435081 -0.842264 0
M  V30 468 H 48.9422 2.11669 -2.80872 0
M  V30 469 H 48.8162 3.40467 -1.62365 0
M  V30 470 H 51.2032 2.83771 -0.809817 0
M  V30 471 H 51.2842 1.55784 -2.02891 0
M  V30 472 H 50.9282 3.30607 -3.85566 0
M  V30 473 H 50.8582 4.57519 -2.60737 0
M  V30 474 H 53.3492 3.06466 -2.21105 0
M  V30 475 H 53.6622 5.88078 -5.01382 0
M  V30 476 H 52.0072 5.29326 -4.50377 0
M  V30 477 H 55.1982 3.74624 -2.80668 0
M  V30 478 H 55.3712 5.03056 -4.08459 0
M  V30 479 N 48.7773 0.814389 1.34928 0
M  V30 480 C 49.7253 0.218424 2.31572 0
M  V30 481 C 50.7193 -0.636128 1.57002 0
M  V30 482 O 51.9253 -0.52842 1.72069 0
M  V30 483 H 48.3003 0.0518799 0.750208 0
M  V30 484 H 50.2713 1.04852 2.79372 0
M  V30 485 C 49.0203 -0.61207 3.4227 0
M  V30 486 H 48.3433 0.0361578 3.99784 0
M  V30 487 H 49.7833 -0.995317 4.12152 0
M  V30 488 C 48.2423 -1.78087 2.85984 0
M  V30 489 O 48.7723 -2.8787 2.80168 0
M  V30 490 N 46.9783 -1.59488 2.42924 0
M  V30 491 H 46.5253 -0.701874 2.47854 0
M  V30 492 H 46.4833 -2.37846 2.05613 0
M  V30 493 N 50.2554 -1.46986 0.568584 0
M  V30 494 C 51.5014 -2.0332 0.0571487 0
M  V30 495 C 51.8564 -1.43384 -1.28291 0
M  V30 496 O 51.1494 -0.584304 -1.82473 0
M  V30 497 C 51.3434 -3.57306 -0.081836 0
M  V30 498 C 51.1724 -4.32174 1.24321 0
M  V30 499 C 49.9424 -4.71633 1.81358 0
M  V30 500 C 52.1404 -4.66598 2.16312 0
M  V30 501 N 50.1224 -5.31191 3.07748 0
M  V30 502 C 51.4934 -5.26578 3.27285 0
M  V30 503 C 53.5484 -4.48527 2.16166 0
M  V30 504 C 52.2514 -5.70395 4.38226 0
M  V30 505 C 54.2774 -4.93351 3.26127 0
M  V30 506 C 53.6394 -5.5339 4.3582 0
M  V30 507 H 49.7384 -0.77943 0.063351 0
M  V30 508 H 52.3224 -1.79323 0.758378 0
M  V30 509 H 50.4934 -3.81046 -0.752207 0
M  V30 510 H 52.2254 -4.00282 -0.59637 0
M  V30 511 H 48.9804 -4.53946 1.35019 0
M  V30 512 H 49.4044 -5.65505 3.72201 0
M  V30 513 H 54.0464 -4.01456 1.32638 0
M  V30 514 H 51.7644 -6.16452 5.22506 0
M  V30 515 H 55.3504 -4.81131 3.27115 0
M  V30 516 H 54.2304 -5.87441 5.19503 0
M  V30 517 N 51.7335 -0.305618 -1.54608 0
M  V30 518 C 52.9795 0.295595 -2.01241 0
M  V30 519 C 53.3345 1.51171 -1.19018 0
M  V30 520 O 52.6275 1.89832 -0.259684 0
M  V30 521 C 52.8215 0.698983 -3.50498 0
M  V30 522 C 52.6505 -0.476491 -4.47168 0
M  V30 523 C 51.4205 -0.969963 -4.95903 0
M  V30 524 C 53.6185 -1.32294 -4.96994 0
M  V30 525 N 51.6005 -2.11172 -5.76437 0
M  V30 526 C 52.9715 -2.31212 -5.75275 0
M  V30 527 C 55.0265 -1.35278 -4.7917 0
M  V30 528 C 53.7295 -3.32896 -6.37631 0
M  V30 529 C 55.7555 -2.35823 -5.42348 0
M  V30 530 C 55.1175 -3.33469 -6.20466 0
M  V30 531 H 51.2165 0.0724992 -0.778632 0
M  V30 532 H 53.8005 -0.436583 -1.89742 0
M  V30 533 H 51.9715 1.40032 -3.62278 0
M  V30 534 H 53.7035 1.28013 -3.8392 0
M  V30 535 H 50.4585 -0.544178 -4.70463 0
M  V30 536 H 50.8825 -2.68714 -6.21387 0
M  V30 537 H 55.5245 -0.61157 -4.18354 0
M  V30 538 H 53.2425 -4.07933 -6.97579 0
M  V30 539 H 56.8285 -2.38911 -5.30484 0
M  V30 540 H 55.7085 -4.09996 -6.68485 0
M  V30 541 N 53.2116 1.57565 -0.0334293 0
M  V30 542 C 54.4576 1.92262 0.645226 0
M  V30 543 C 54.7906 0.910543 1.71531 0
M  V30 544 O 54.0656 -0.066099 1.94388 0
M  V30 545 C 54.3486 3.37422 1.2577 0
M  V30 546 C 54.2016 4.49369 0.196891 0
M  V30 547 C 55.5206 3.82628 2.17449 0
M  V30 548 H 52.6396 0.699171 0.233085 0
M  V30 549 H 55.2816 1.89779 -0.0915694 0
M  V30 550 H 53.4316 3.39669 1.88566 0
M  V30 551 H 55.1036 4.59254 -0.433962 0
M  V30 552 H 53.3466 4.31168 -0.477137 0
M  V30 553 H 54.0176 5.47978 0.665124 0
M  V30 554 H 56.4936 3.82145 1.64634 0
M  V30 555 H 55.3696 4.84883 2.57254 0
M  V30 556 H 55.6306 3.18376 3.0674 0
M  V30 557 N 54.6897 -0.239769 1.55765 0
M  V30 558 C 55.6527 -1.28038 1.90103 0
M  V30 559 C 56.6527 -1.40723 0.778055 0
M  V30 560 O 57.8427 -1.39301 1.04599 0
M  V30 561 C 54.9747 -2.65702 2.13577 0
M  V30 562 H 56.1677 -0.988048 2.83157 0
M  V30 563 H 53.7207 -0.479382 1.48767 0
M  V30 564 H 54.4557 -3.00063 1.23015 0
M  V30 565 H 54.2407 -2.57875 2.95369 0
M  V30 566 H 55.7307 -3.40828 2.41301 0
M  V30 567 N 56.1678 -1.49265 -0.50573 0
M  V30 568 C 57.3928 -1.62478 -1.28902 0
M  V30 569 C 57.8178 -0.294332 -1.85783 0
M  V30 570 O 57.1758 0.737412 -1.65626 0
M  V30 571 C 57.2238 -2.69268 -2.39848 0
M  V30 572 O 56.3278 -2.28113 -3.43567 0
M  V30 573 H 55.6688 -0.54399 -0.380751 0
M  V30 574 H 58.1988 -1.95421 -0.605952 0
M  V30 575 H 58.2088 -2.91291 -2.85681 0
M  V30 576 H 56.8838 -3.65846 -1.97812 0
M  V30 577 H 55.4608 -2.16401 -3.03685 0
M  V30 578 N 57.6459 0.756429 -1.3826 0
M  V30 579 C 58.8919 1.51772 -1.34511 0
M  V30 580 C 59.2249 1.94089 0.0656691 0
M  V30 581 O 58.4999 1.65221 1.02626 0
M  V30 582 C 58.7829 2.77226 -2.29821 0
M  V30 583 C 58.6359 2.41065 -3.79747 0
M  V30 584 C 59.9549 3.79236 -2.23312 0
M  V30 585 H 57.0739 0.550578 -0.489931 0
M  V30 586 H 59.7159 0.866607 -1.69086 0
M  V30 587 H 57.8659 3.32784 -2.00467 0
M  V30 588 H 59.5379 1.91303 -4.19763 0
M  V30 589 H 57.7809 1.7356 -3.97567 0
M  V30 590 H 58.4519 3.3081 -4.41892 0
M  V30 591 H 60.9279 3.3321 -2.49219 0
M  V30 592 H 59.8039 4.64714 -2.92116 0
M  V30 593 H 60.0649 4.24615 -1.23102 0
M  V30 594 N 59.124 1.23083 0.984299 0
M  V30 595 C 60.401 0.9689 1.69917 0
M  V30 596 C 60.781 -0.513604 2.04757 0
M  V30 597 O 60.129 -1.48383 1.73767 0
M  V30 598 C 60.339 1.87518 2.94343 0
M  V30 599 C 61.687 2.13636 3.6694 0
M  V30 600 O 62.711 1.85036 3.04368 0
M  V30 601 O 61.57 2.62119 4.79537 0
M  V30 602 H 58.664 0.365095 0.742048 0
M  V30 603 H 61.21 1.34107 1.03987 0
M  V30 604 H 59.982 2.87756 2.65164 0
M  V30 605 H 59.605 1.50514 3.6801 0
M  V30 606 N 60.6021 -1.18246 1.0419 0
M  V30 607 C 61.8481 -1.88536 0.747122 0
M  V30 608 C 62.1811 -1.80223 -0.723409 0
M  V30 609 O 61.4561 -1.20337 -1.52804 0
M  V30 610 C 61.7391 -3.38968 1.21544 0
M  V30 611 C 61.5921 -3.56084 2.74816 0
M  V30 612 C 62.9111 -4.32648 0.806482 0
M  V30 613 H 60.0301 -0.684619 0.272883 0
M  V30 614 H 62.6721 -1.39113 1.29413 0
M  V30 615 H 60.8221 -3.8119 0.750081 0
M  V30 616 H 62.4941 -3.22946 3.29399 0
M  V30 617 H 60.7371 -2.98699 3.14582 0
M  V30 618 H 61.4081 -4.61639 3.02644 0
M  V30 619 H 63.8841 -3.98211 1.20695 0
M  V30 620 H 62.7601 -5.36462 1.1619 0
M  V30 621 H 63.0211 -4.41146 -0.29029 0
M  V30 622 N 62.0802 -0.821533 -1.34494 0
M  V30 623 C 63.3262 -0.409552 -1.98622 0
M  V30 624 C 63.6592 1.0244 -1.64984 0
M  V30 625 O 62.9342 1.71325 -0.920758 0
M  V30 626 C 63.2172 -0.610458 -3.54888 0
M  V30 627 C 63.0702 -2.09043 -3.98273 0
M  V30 628 C 64.3892 -0.0455379 -4.40076 0
M  V30 629 H 61.5082 -0.15028 -0.721516 0
M  V30 630 H 64.1502 -1.03384 -1.59411 0
M  V30 631 H 62.3002 -0.079044 -3.8842 0
M  V30 632 H 63.9722 -2.68537 -3.75081 0
M  V30 633 H 62.2152 -2.58139 -3.48635 0
M  V30 634 H 62.8862 -2.18182 -5.07051 0
M  V30 635 H 65.3622 -0.499557 -4.1309 0
M  V30 636 H 64.2382 -0.215922 -5.48475 0
M  V30 637 H 64.4992 1.04939 -4.29465 0
M  V30 638 N 63.5583 1.46682 -0.576371 0
M  V30 639 C 64.4683 2.34032 0.163141 0
M  V30 640 C 65.4843 1.49367 0.892501 0
M  V30 641 O 66.6603 1.82252 0.857106 0
M  V30 642 C 63.7253 3.26435 1.16795 0
M  V30 643 C 62.7863 4.26998 0.443944 0
M  V30 644 C 62.0193 5.14986 1.40088 0
M  V30 645 O 62.2423 5.05785 2.637 0
M  V30 646 O 61.1763 5.94906 0.914917 0
M  V30 647 H 65.0023 2.98607 -0.55388 0
M  V30 648 H 62.5873 1.45554 -0.336821 0
M  V30 649 H 64.4693 3.83459 1.74748 0
M  V30 650 H 63.1443 2.64465 1.86655 0
M  V30 651 H 62.0513 3.7368 -0.177271 0
M  V30 652 H 63.3843 4.91736 -0.213566 0
M  V30 653 N 65.0364 0.313813 1.54444 0
M  V30 654 C 65.9844 -0.572171 2.25453 0
M  V30 655 C 66.9784 -1.12657 1.2651 0
M  V30 656 O 68.1844 -1.07573 1.44319 0
M  V30 657 H 64.5594 -0.203146 0.724041 0
M  V30 658 H 66.5304 0.0491145 2.9836 0
M  V30 659 C 65.2794 -1.72626 3.0182 0
M  V30 660 H 64.6024 -1.30891 3.77767 0
M  V30 661 H 66.0424 -2.32199 3.54767 0
M  V30 662 C 64.5014 -2.63806 2.09542 0
M  V30 663 O 65.0314 -3.65256 1.67185 0
M  V30 664 N 63.2374 -2.31824 1.75232 0
M  V30 665 H 62.7844 -1.49368 2.09873 0
M  V30 666 H 62.7424 -2.93095 1.13767 0
M  V30 667 N 66.5145 -1.57545 0.0417849 0
M  V30 668 C 67.4245 -2.14451 -0.951213 0
M  V30 669 C 68.4405 -1.09992 -1.34825 0
M  V30 670 O 69.6165 -1.42114 -1.42708 0
M  V30 671 C 66.6815 -2.67063 -2.21084 0
M  V30 672 C 65.7425 -3.86284 -1.87304 0
M  V30 673 C 64.9755 -4.36378 -3.07261 0
M  V30 674 O 65.1985 -3.85587 -4.20332 0
M  V30 675 O 64.1325 -5.28077 -2.88822 0
M  V30 676 H 67.9585 -2.99601 -0.497287 0
M  V30 677 H 65.5435 -1.48317 -0.179567 0
M  V30 678 H 67.4255 -3.00914 -2.95006 0
M  V30 679 H 66.1005 -1.84989 -2.65633 0
M  V30 680 H 65.0075 -3.57338 -1.10727 0
M  V30 681 H 66.3405 -4.6956 -1.47562 0
M  V30 682 N 67.9926 0.231505 -1.5589 0
M  V30 683 C 68.9026 1.308 -1.94752 0
M  V30 684 C 69.9186 1.51826 -0.849989 0
M  V30 685 O 71.0946 1.6515 -1.15271 0
M  V30 686 C 68.1596 2.63968 -2.24771 0
M  V30 687 C 67.2206 2.51331 -3.48039 0
M  V30 688 C 66.4536 3.78148 -3.76616 0
M  V30 689 O 66.6766 4.80722 -3.07022 0
M  V30 690 O 65.6106 3.75857 -4.70123 0
M  V30 691 H 69.4366 1.0083 -2.86474 0
M  V30 692 H 67.0216 0.433547 -1.42971 0
M  V30 693 H 68.9036 3.42633 -2.45318 0
M  V30 694 H 67.5786 2.9364 -1.36225 0
M  V30 695 H 66.4856 1.709 -3.32782 0
M  V30 696 H 67.8186 2.26601 -4.36936 0
M  V30 697 N 69.4707 1.49531 0.497807 0
M  V30 698 C 70.4337 1.65916 1.58128 0
M  V30 699 C 71.4337 0.530825 1.51786 0
M  V30 700 O 72.6237 0.797342 1.54881 0
M  V30 701 C 69.7557 1.65951 2.9778 0
M  V30 702 H 70.9487 2.62556 1.44929 0
M  V30 703 H 68.5017 1.38611 0.722275 0
M  V30 704 H 69.2367 0.709065 3.16453 0
M  V30 705 H 69.0217 2.47897 3.03792 0
M  V30 706 H 70.5117 1.80673 3.76493 0
M  V30 707 N 70.9488 -0.749086 1.3866 0
M  V30 708 C 72.1738 -1.54344 1.38538 0
M  V30 709 C 72.5988 -1.88088 -0.0216655 0
M  V30 710 O 71.9568 -1.50899 -1.00494 0
M  V30 711 C 72.0048 -2.8164 2.25192 0
M  V30 712 O 71.1088 -3.7698 1.67212 0
M  V30 713 H 70.4498 -0.466654 0.472367 0
M  V30 714 H 72.9798 -0.925355 1.82478 0
M  V30 715 H 72.9898 -3.30519 2.3921 0
M  V30 716 H 71.6648 -2.56411 3.27454 0
M  V30 717 H 70.2418 -3.35699 1.6236 0
M  V30 718 N 72.4269 -1.23603 -0.977757 0
M  V30 719 C 73.3899 -1.02069 -2.05218 0
M  V30 720 C 74.3899 0.0184305 -1.60789 0
M  V30 721 O 75.5799 -0.221569 -1.72785 0
M  V30 722 C 72.7119 -0.544926 -3.36517 0
M  V30 723 H 73.9049 -1.9742 -2.25755 0
M  V30 724 H 71.4579 -1.05684 -1.15155 0
M  V30 725 H 72.1929 0.412241 -3.21669 0
M  V30 726 H 71.9779 -1.2948 -3.70105 0
M  V30 727 H 73.4679 -0.414985 -4.15533 0
M  V30 728 N 73.905 1.17692 -1.04816 0
M  V30 729 C 75.13 1.92327 -0.776207 0
M  V30 730 C 75.555 1.76082 0.661581 0
M  V30 731 O 74.913 1.076 1.45917 0
M  V30 732 C 74.961 3.41539 -1.15687 0
M  V30 733 O 74.065 4.11402 -0.286775 0
M  V30 734 H 73.406 0.599735 -0.284981 0
M  V30 735 H 75.936 1.49201 -1.4 0
M  V30 736 H 75.946 3.92269 -1.12202 0
M  V30 737 H 74.621 3.52684 -2.20425 0
M  V30 738 H 73.198 3.70939 -0.381903 0
M  V30 739 N 75.3831 0.828654 1.34056 0
M  V30 740 C 76.6321 0.415828 1.97367 0
M  V30 741 C 76.9451 -1.02796 1.6641 0
M  V30 742 O 78.1511 -1.54497 2.23255 0
M  V30 743 C 76.6071 0.692601 3.53173 0
M  V30 744 C 76.2151 2.15038 3.93017 0
M  V30 745 C 77.9591 0.346222 4.23086 0
M  V30 746 C 75.8661 2.37174 5.41758 0
M  V30 747 H 74.7961 0.151755 0.738571 0
M  V30 748 H 77.4471 1.01581 1.52819 0
M  V30 749 H 75.8291 0.0223764 3.95994 0
M  V30 750 H 77.0031 2.86024 3.61285 0
M  V30 751 H 75.3181 2.45875 3.36057 0
M  V30 752 H 77.9151 0.48937 5.32456 0
M  V30 753 H 78.2581 -0.709842 4.10204 0
M  V30 754 H 78.7911 0.971258 3.85761 0
M  V30 755 H 75.5301 3.41308 5.59633 0
M  V30 756 H 75.0501 1.70738 5.74986 0
M  V30 757 H 76.7291 2.19818 6.08514 0
M  V30 758 N 76.8612 -1.46375 0.584142 0
M  V30 759 C 78.1102 -2.01585 0.0679741 0
M  V30 760 C 78.4232 -1.46109 -1.30045 0
M  V30 761 O 79.6292 -1.93148 -1.90804 0
M  V30 762 C 78.0852 -3.5983 0.0709207 0
M  V30 763 C 77.6932 -4.24303 1.43775 0
M  V30 764 C 79.4372 -4.22693 -0.391228 0
M  V30 765 C 77.3442 -5.74631 1.39834 0
M  V30 766 H 76.2742 -0.753689 0.0216421 0
M  V30 767 H 78.9252 -1.68093 0.736001 0
M  V30 768 H 77.3072 -3.90405 -0.663299 0
M  V30 769 H 78.4812 -4.05335 2.19181 0
M  V30 770 H 76.7962 -3.73539 1.84004 0
M  V30 771 H 79.3932 -5.3289 -0.439524 0
M  V30 772 H 79.7362 -3.91728 -1.40906 0
M  V30 773 H 80.2692 -3.96749 0.288974 0
M  V30 774 H 77.0082 -6.10258 2.39303 0
M  V30 775 H 76.5282 -5.95858 0.686505 0
M  V30 776 H 78.2072 -6.37375 1.11187 0
M  V30 777 N 78.3393 -0.321999 -1.54275 0
M  V30 778 C 79.5853 0.281461 -2.00837 0
M  V30 779 C 79.9183 1.51909 -1.20985 0
M  V30 780 O 79.1933 1.923 -0.291733 0
M  V30 781 C 79.4763 0.617162 -3.54772 0
M  V30 782 C 79.3293 -0.631064 -4.45351 0
M  V30 783 C 80.6483 1.43542 -4.16033 0
M  V30 784 H 77.7673 0.100826 -0.730071 0
M  V30 785 H 80.4093 -0.438268 -1.84876 0
M  V30 786 H 78.5593 1.23034 -3.68504 0
M  V30 787 H 80.2313 -1.26934 -4.43492 0
M  V30 788 H 78.4743 -1.26025 -4.15091 0
M  V30 789 H 79.1453 -0.351735 -5.50878 0
M  V30 790 H 81.6213 0.917134 -4.05867 0
M  V30 791 H 80.4973 1.63907 -5.23856 0
M  V30 792 H 80.7583 2.43108 -3.69257 0
M  V30 793 N 79.8174 1.5752 -0.0501392 0
M  V30 794 C 80.7644 2.1147 0.924603 0
M  V30 795 C 81.7344 1.02182 1.30951 0
M  V30 796 O 82.9194 1.29723 1.39916 0
M  V30 797 C 80.0594 2.66337 2.19451 0
M  V30 798 C 79.1724 3.89708 1.86418 0
M  V30 799 C 78.3074 4.32893 3.07859 0
M  V30 800 C 77.3464 5.48967 2.70742 0
M  V30 801 N 76.4834 5.87211 3.84874 0
M  V30 802 H 81.3234 2.94465 0.457639 0
M  V30 803 H 78.8604 1.45531 0.214266 0
M  V30 804 H 80.8184 2.96247 2.93758 0
M  V30 805 H 79.4484 1.86141 2.63726 0
M  V30 806 H 78.5004 3.66396 1.02264 0
M  V30 807 H 79.8124 4.74074 1.55096 0
M  V30 808 H 78.9664 4.6435 3.90466 0
M  V30 809 H 77.7054 3.47336 3.42358 0
M  V30 810 H 76.7104 5.17183 1.86551 0
M  V30 811 H 77.9354 6.3624 2.37436 0
M  V30 812 H 75.8814 5.04607 4.19175 0
M  V30 813 H 75.7984 6.66266 3.57247 0
M  V30 814 H 77.0664 6.23282 4.68123 0
M  V30 815 N 81.2955 -0.223234 1.56011 0
M  V30 816 C 82.2285 -1.30377 1.87289 0
M  V30 817 C 83.2065 -1.45286 0.730112 0
M  V30 818 O 84.3905 -1.61126 0.978302 0
M  V30 819 C 81.5175 -2.67431 2.07843 0
M  V30 820 C 80.5635 -2.69546 3.30526 0
M  V30 821 S 81.3965 -2.23781 4.865 0
M  V30 822 C 82.5525 -3.62714 5.10088 0
M  V30 823 H 82.7855 -1.03652 2.78646 0
M  V30 824 H 80.3185 -0.425393 1.48424 0
M  V30 825 H 82.2765 -3.46336 2.20368 0
M  V30 826 H 80.9375 -2.91381 1.17285 0
M  V30 827 H 80.1305 -3.70255 3.41947 0
M  V30 828 H 79.7325 -1.98703 3.16849 0
M  V30 829 H 82.0245 -4.58391 4.98883 0
M  V30 830 H 82.9675 -3.5621 6.11981 0
M  V30 831 H 83.3755 -3.56323 4.37829 0
M  V30 832 N 82.7736 -1.49793 -0.48987 0
M  V30 833 C 84.0016 -1.63568 -1.26701 0
M  V30 834 C 84.4166 -0.311465 -1.86213 0
M  V30 835 O 83.7736 0.704416 -1.68357 0
M  V30 836 C 83.8246 -2.71284 -2.38929 0
M  V30 837 O 83.5456 -3.9857 -1.81861 0
M  V30 838 C 85.0466 -2.95864 -3.3012 0
M  V30 839 H 82.2666 -0.550342 -0.383881 0
M  V30 840 H 84.8106 -1.95898 -0.586864 0
M  V30 841 H 82.9656 -2.417 -3.02753 0
M  V30 842 H 83.3796 -4.57993 -2.55622 0
M  V30 843 H 84.8536 -3.74941 -4.05121 0
M  V30 844 H 85.3306 -2.06206 -3.87783 0
M  V30 845 H 85.9366 -3.26907 -2.72051 0
M  V30 846 N 84.2517 0.741722 -1.39055 0
M  V30 847 C 85.5287 1.49252 -1.26425 0
M  V30 848 C 85.9087 2.10705 0.129144 0
M  V30 849 O 85.2567 1.98045 1.13976 0
M  V30 850 C 85.4667 2.54934 -2.38347 0
M  V30 851 C 86.8147 3.21506 -2.77343 0
M  V30 852 O 87.8387 2.65245 -2.37747 0
M  V30 853 O 86.6977 4.23294 -3.45665 0
M  V30 854 H 83.7917 0.662451 -0.495064 0
M  V30 855 H 86.3377 0.776121 -1.50912 0
M  V30 856 H 85.1097 2.07857 -3.31529 0
M  V30 857 H 84.7327 3.34141 -2.15489 0
M  V30 858 N 85.7298 1.2412 0.971189 0
M  V30 859 C 86.9548 1.10667 1.75407 0
M  V30 860 C 87.3798 -0.337048 1.85056 0
M  V30 861 O 86.7378 -1.24396 1.31892 0
M  V30 862 C 86.7858 1.74726 3.15441 0
M  V30 863 O 85.8898 1.01566 3.99697 0
M  V30 864 H 85.2308 0.387341 0.539317 0
M  V30 865 H 87.7608 1.64358 1.2185 0
M  V30 866 H 87.7708 1.80341 3.6598 0
M  V30 867 H 86.4458 2.79773 3.07734 0
M  V30 868 H 85.0228 1.03713 3.58187 0
M  V30 869 N 87.2079 -1.17134 1.05439 0
M  V30 870 C 88.4549 -1.87456 0.765942 0
M  V30 871 C 88.7829 -1.81189 -0.707153 0
M  V30 872 O 88.0379 -1.21633 -1.5331 0
M  V30 873 C 88.3369 -3.36833 1.19491 0
M  V30 874 C 88.0029 -3.63301 2.67063 0
M  V30 875 C 86.6649 -3.70234 3.07376 0
M  V30 876 C 89.0169 -3.74575 3.62413 0
M  V30 877 C 86.3449 -3.85933 4.41896 0
M  V30 878 C 88.6969 -3.91793 4.9667 0
M  V30 879 C 87.3609 -3.96966 5.36633 0
M  V30 880 H 86.6309 -0.685948 0.280278 0
M  V30 881 H 89.2779 -1.38556 1.32192 0
M  V30 882 H 87.5829 -3.87807 0.557969 0
M  V30 883 H 89.2799 -3.89611 0.948893 0
M  V30 884 H 85.8699 -3.58532 2.34846 0
M  V30 885 H 90.0539 -3.68537 3.32406 0
M  V30 886 H 85.3099 -3.88187 4.72357 0
M  V30 887 H 89.4839 -3.99458 5.70444 0
M  V30 888 H 87.1109 -4.08883 6.40874 0
M  V30 889 N 88.686 -0.835752 -1.33615 0
M  V30 890 C 89.914 -0.443344 -2.02094 0
M  V30 891 C 90.329 0.954522 -1.62894 0
M  V30 892 O 89.686 1.61982 -0.840723 0
M  V30 893 C 89.737 -0.550775 -3.5728 0
M  V30 894 O 89.458 -1.89356 -3.95065 0
M  V30 895 C 90.959 -0.154919 -4.43029 0
M  V30 896 H 88.179 -0.176359 -0.647409 0
M  V30 897 H 90.723 -1.12746 -1.70612 0
M  V30 898 H 88.878 0.0853997 -3.87306 0
M  V30 899 H 89.292 -1.87687 -4.89769 0
M  V30 900 H 90.766 -0.281144 -5.51284 0
M  V30 901 H 91.243 0.902863 -4.2982 0
M  V30 902 H 91.849 -0.765404 -4.18356 0
M  V30 903 N 90.1641 1.46063 -0.591896 0
M  V30 904 C 91.0741 2.34192 0.13831 0
M  V30 905 C 92.0901 1.50305 0.876608 0
M  V30 906 O 93.2661 1.8315 0.837728 0
M  V30 907 C 90.3311 3.27656 1.13326 0
M  V30 908 C 89.3921 4.27445 0.39863 0
M  V30 909 C 88.6251 5.16443 1.34618 0
M  V30 910 O 88.8481 5.08553 2.58321 0
M  V30 911 O 87.7821 5.95843 0.851768 0
M  V30 912 H 91.6081 2.98002 -0.58552 0
M  V30 913 H 89.1931 1.45188 -0.352239 0
M  V30 914 H 91.0751 3.85291 1.70671 0
M  V30 915 H 89.7501 2.6643 1.83839 0
M  V30 916 H 88.6571 3.73471 -0.216895 0
M  V30 917 H 89.9901 4.91482 -0.265709 0
M  V30 918 N 91.6422 0.330177 1.54103 0
M  V30 919 C 92.5742 -0.566902 2.22079 0
M  V30 920 C 93.5872 -1.07462 1.22294 0
M  V30 921 O 94.7762 -0.987065 1.48726 0
M  V30 922 C 91.8762 -1.79138 2.87685 0
M  V30 923 C 91.0492 -1.42123 4.13666 0
M  V30 924 C 90.1082 -2.50394 4.62806 0
M  V30 925 O 89.1342 -2.14261 5.27334 0
M  V30 926 N 90.3362 -3.81433 4.37595 0
M  V30 927 H 93.1012 0.0151844 2.99696 0
M  V30 928 H 90.6622 0.153681 1.61169 0
M  V30 929 H 92.6542 -2.50975 3.1748 0
M  V30 930 H 91.2242 -2.28115 2.13734 0
M  V30 931 H 90.4442 -0.534201 3.90564 0
M  V30 932 H 91.7322 -1.14971 4.9564 0
M  V30 933 H 91.1302 -4.13584 3.8596 0
M  V30 934 H 89.6872 -4.4948 4.72029 0
M  V30 935 N 93.1203 -1.57491 0.0584922 0
M  V30 936 C 94.0833 -2.1085 -0.898617 0
M  V30 937 C 95.0833 -1.02964 -1.23511 0
M  V30 938 O 96.2733 -1.29007 -1.17059 0
M  V30 939 C 93.4053 -2.59881 -2.20623 0
M  V30 940 H 94.5983 -2.96715 -0.435936 0
M  V30 941 H 92.1513 -1.55141 -0.190023 0
M  V30 942 H 92.8863 -1.77431 -2.71457 0
M  V30 943 H 92.6713 -3.38727 -1.97501 0
M  V30 944 H 94.1613 -3.01285 -2.89166 0
M  V30 945 N 94.5984 0.214957 -1.56127 0
M  V30 946 C 95.8754 0.963093 -1.70247 0
M  V30 947 C 96.2554 2.02166 -0.60764 0
M  V30 948 O 95.6034 2.25244 0.384385 0
M  V30 949 C 95.8134 1.56756 -3.11815 0
M  V30 950 C 97.1614 2.0573 -3.7143 0
M  V30 951 O 98.1854 1.66637 -3.14818 0
M  V30 952 O 97.0444 2.77603 -4.70743 0
M  V30 953 H 94.1384 0.450321 -0.693643 0
M  V30 954 H 96.6844 0.206219 -1.68442 0
M  V30 955 H 95.4564 0.803533 -3.82961 0
M  V30 956 H 95.0794 2.3898 -3.17765 0
M  V30 957 N 96.0765 1.50051 0.48192 0
M  V30 958 C 97.0085 1.64263 1.59844 0
M  V30 959 C 98.0215 0.52451 1.54119 0
M  V30 960 O 99.2105 0.797293 1.59704 0
M  V30 961 C 96.3105 1.60102 2.98698 0
M  V30 962 C 95.4835 2.87767 3.29407 0
M  V30 963 C 94.5425 2.76397 4.47762 0
M  V30 964 O 93.5685 3.50348 4.48603 0
M  V30 965 N 94.7705 1.89222 5.48794 0
M  V30 966 H 97.5355 2.60566 1.48073 0
M  V30 967 H 95.0965 1.47379 0.670149 0
M  V30 968 H 97.0885 1.50123 3.75826 0
M  V30 969 H 95.6585 0.715798 3.04294 0
M  V30 970 H 94.8785 3.11954 2.40994 0
M  V30 971 H 96.1665 3.72365 3.4673 0
M  V30 972 H 95.5645 1.28434 5.50928 0
M  V30 973 H 94.1215 1.85154 6.24949 0
M  V30 974 N 97.5546 -0.734337 1.39446 0
M  V30 975 C 98.8006 -1.49613 1.36908 0
M  V30 976 C 99.1336 -1.94169 -0.0347829 0
M  V30 977 O 98.4086 -1.66833 -0.999847 0
M  V30 978 C 98.6916 -2.73534 2.34203 0
M  V30 979 C 98.5446 -2.34993 3.83534 0
M  V30 980 C 99.8636 -3.75635 2.29317 0
M  V30 981 H 96.9826 -0.542714 0.498629 0
M  V30 982 H 99.6246 -0.839597 1.70443 0
M  V30 983 H 97.7746 -3.29553 2.05736 0
M  V30 984 H 99.4466 -1.84601 4.22753 0
M  V30 985 H 97.6896 -1.67213 4.00278 0
M  V30 986 H 98.3606 -3.23738 4.47099 0
M  V30 987 H 100.837 -3.29203 2.54489 0
M  V30 988 H 99.7126 -4.60008 2.99472 0
M  V30 989 H 99.9736 -4.22603 1.29842 0
M  V30 990 N 99.0327 -1.24633 -0.964593 0
M  V30 991 C 100.261 -1.11501 -1.74285 0
M  V30 992 C 100.676 0.332165 -1.85855 0
M  V30 993 O 100.033 1.22903 -1.34911 0
M  V30 994 C 100.084 -1.75258 -3.16175 0
M  V30 995 O 99.8047 -3.14318 -3.05182 0
M  V30 996 C 101.306 -1.67776 -4.10324 0
M  V30 997 H 98.5257 -0.389407 -0.546446 0
M  V30 998 H 101.07 -1.64801 -1.21083 0
M  V30 999 H 99.2247 -1.25954 -3.66353 0
M  V30 1000 H 99.6387 -3.4551 -3.94618 0
M  V30 1001 H 101.113 -2.17064 -5.0753 0
M  V30 1002 H 101.59 -0.639584 -4.34518 0
M  V30 1003 H 102.196 -2.16522 -3.66058 0
M  V30 1004 N 100.511 1.16574 -1.06058 0
M  V30 1005 C 101.474 2.19085 -0.673392 0
M  V30 1006 C 102.474 1.5835 0.279648 0
M  V30 1007 O 103.664 1.74088 0.0623488 0
M  V30 1008 C 100.796 3.40899 0.00954234 0
M  V30 1009 H 101.989 2.54853 -1.58081 0
M  V30 1010 H 99.5418 1.30808 -0.855516 0
M  V30 1011 H 100.277 3.10684 0.929826 0
M  V30 1012 H 100.062 3.86233 -0.67573 0
M  V30 1013 H 101.552 4.1675 0.266245 0
M  V30 1014 N 101.989 0.842826 1.3317 0
M  V30 1015 C 102.899 0.281444 2.32906 0
M  V30 1016 C 103.915 -0.594587 1.63526 0
M  V30 1017 O 105.091 -0.49777 1.95152 0
M  V30 1018 C 102.156 -0.530929 3.42611 0
M  V30 1019 C 101.217 0.369843 4.27704 0
M  V30 1020 C 100.45 -0.403853 5.3217 0
M  V30 1021 O 100.673 -1.63513 5.46461 0
M  V30 1022 O 99.6069 0.224199 6.01482 0
M  V30 1023 H 103.433 1.10744 2.82789 0
M  V30 1024 H 101.018 0.60545 1.36582 0
M  V30 1025 H 102.9 -0.992437 4.09547 0
M  V30 1026 H 101.575 -1.33392 2.94938 0
M  V30 1027 H 100.482 0.879275 3.6362 0
M  V30 1028 H 101.815 1.13771 4.78871 0
M  V30 1029 N 103.467 -1.45747 0.599634 0
M  V30 1030 C 104.713 -2.02592 0.0918643 0
M  V30 1031 C 105.046 -1.46806 -1.27128 0
M  V30 1032 O 104.321 -0.639658 -1.83681 0
M  V30 1033 C 104.604 -3.60073 0.0443398 0
M  V30 1034 C 104.457 -4.26208 1.43759 0
M  V30 1035 C 105.776 -4.35309 -0.647608 0
M  V30 1036 H 102.895 -0.736175 0.034857 0
M  V30 1037 H 105.537 -1.73694 0.770081 0
M  V30 1038 H 103.687 -3.84823 -0.533224 0
M  V30 1039 H 105.359 -4.12668 2.06162 0
M  V30 1040 H 103.602 -3.84916 2.00056 0
M  V30 1041 H 104.273 -5.35069 1.35665 0
M  V30 1042 H 106.749 -4.15805 -0.156776 0
M  V30 1043 H 105.625 -5.45038 -0.649942 0
M  V30 1044 H 105.886 -4.07598 -1.71219 0
M  V30 1045 N 104.945 -0.338344 -1.53925 0
M  V30 1046 C 106.193 0.259245 -2.0043 0
M  V30 1047 C 106.514 1.51484 -1.22791 0
M  V30 1048 O 105.784 1.93037 -0.33368 0
M  V30 1049 H 104.364 0.0987845 -0.740439 0
M  V30 1050 H 107.026 -0.458302 -1.89435 0
M  V30 1051 H 106.122 0.505334 -3.07982 0
M  V30 1052 N 106.423 1.57458 -0.0668435 0
M  V30 1053 C 107.37 2.12439 0.902122 0
M  V30 1054 C 108.34 1.03565 1.2986 0
M  V30 1055 O 109.525 1.312 1.38532 0
M  V30 1056 C 106.665 2.6865 2.16614 0
M  V30 1057 C 105.778 3.91663 1.82274 0
M  V30 1058 C 104.913 4.36134 3.0325 0
M  V30 1059 C 103.952 5.51808 2.64904 0
M  V30 1060 N 103.089 5.9126 3.78624 0
M  V30 1061 H 107.929 2.94934 0.426382 0
M  V30 1062 H 105.466 1.4575 0.198819 0
M  V30 1063 H 107.424 2.99346 2.90599 0
M  V30 1064 H 106.054 1.88928 2.61737 0
M  V30 1065 H 105.106 3.6746 0.983719 0
M  V30 1066 H 106.418 4.75693 1.50059 0
M  V30 1067 H 105.572 4.68465 3.85519 0
M  V30 1068 H 104.311 3.50948 3.38655 0
M  V30 1069 H 103.316 5.19133 1.81055 0
M  V30 1070 H 104.541 6.38722 2.30675 0
M  V30 1071 H 102.487 5.09024 4.138 0
M  V30 1072 H 102.404 6.70018 3.5016 0
M  V30 1073 H 103.672 6.28212 4.61486 0
M  V30 1074 N 107.901 -0.206675 1.56239 0
M  V30 1075 C 108.831 -1.25909 1.96645 0
M  V30 1076 C 109.812 -1.48097 0.836734 0
M  V30 1077 O 110.997 -1.6003 1.10019 0
M  V30 1078 C 108.127 -2.6058 2.29599 0
M  V30 1079 C 107.081 -2.53024 3.452 0
M  V30 1080 C 106.407 -3.91861 3.63798 0
M  V30 1081 C 107.707 -2.06524 4.79734 0
M  V30 1082 H 109.401 -0.923369 2.84806 0
M  V30 1083 H 106.947 -0.442735 1.37025 0
M  V30 1084 H 108.9 -3.34375 2.56459 0
M  V30 1085 H 107.624 -2.95869 1.38307 0
M  V30 1086 H 106.283 -1.81684 3.18412 0
M  V30 1087 H 105.931 -4.24483 2.69857 0
M  V30 1088 H 105.631 -3.87683 4.4156 0
M  V30 1089 H 107.155 -4.67296 3.93022 0
M  V30 1090 H 108.569 -2.70072 5.05702 0
M  V30 1091 H 106.966 -2.13374 5.60885 0
M  V30 1092 H 108.036 -1.01802 4.74093 0
M  V30 1093 N 109.379 -1.50304 -0.473955 0
M  V30 1094 C 110.309 -1.71886 -1.58042 0
M  V30 1095 C 111.29 -0.567799 -1.60344 0
M  V30 1096 O 112.475 -0.806623 -1.76656 0
M  V30 1097 C 109.605 -1.81036 -2.96384 0
M  V30 1098 C 108.559 -2.962 -3.08949 0
M  V30 1099 C 107.885 -2.9049 -4.48909 0
M  V30 1100 C 109.185 -4.36752 -2.86434 0
M  V30 1101 H 110.879 -2.64527 -1.40234 0
M  V30 1102 H 108.425 -1.27295 -0.673201 0
M  V30 1103 H 110.378 -1.94719 -3.73714 0
M  V30 1104 H 109.102 -0.850147 -3.15341 0
M  V30 1105 H 107.761 -2.82164 -2.3405 0
M  V30 1106 H 107.409 -1.92321 -4.64781 0
M  V30 1107 H 107.109 -3.67802 -4.58253 0
M  V30 1108 H 108.633 -3.06218 -5.28264 0
M  V30 1109 H 110.047 -4.5133 -3.53517 0
M  V30 1110 H 108.444 -5.15493 -3.07225 0
M  V30 1111 H 109.514 -4.49321 -1.82316 0
M  V30 1112 N 110.857 0.726932 -1.39834 0
M  V30 1113 C 112.105 1.4837 -1.37225 0
M  V30 1114 C 112.426 1.94979 0.0284857 0
M  V30 1115 O 111.696 1.69555 0.981213 0
M  V30 1116 H 110.276 0.55043 -0.505011 0
M  V30 1117 H 112.938 0.862468 -1.74778 0
M  V30 1118 H 112.034 2.36198 -2.04003 0
M  V30 1119 N 112.336 1.25143 0.95797 0
M  V30 1120 C 113.246 1.06968 2.08794 0
M  V30 1121 C 114.262 0.00773911 1.73998 0
M  V30 1122 O 115.438 0.207972 2.00323 0
M  V30 1123 C 112.503 0.68691 3.39827 0
M  V30 1124 C 111.564 1.82641 3.88511 0
M  V30 1125 C 110.797 1.46181 5.1329 0
M  V30 1126 O 111.02 0.355971 5.69288 0
M  V30 1127 O 109.954 2.29085 5.566 0
M  V30 1128 H 113.78 2.01723 2.27027 0
M  V30 1129 H 111.365 1.04051 1.07209 0
M  V30 1130 H 113.247 0.485417 4.18595 0
M  V30 1131 H 111.922 -0.231417 3.22872 0
M  V30 1132 H 110.829 2.08274 3.10762 0
M  V30 1133 H 112.162 2.72386 4.09959 0
M  V30 1134 N 113.814 -1.1601 1.06675 0
M  V30 1135 C 114.724 -2.24156 0.692179 0
M  V30 1136 C 115.74 -1.71507 -0.293513 0
M  V30 1137 O 116.916 -2.009 -0.141861 0
M  V30 1138 C 113.981 -3.46587 0.0884131 0
M  V30 1139 C 113.042 -4.14257 1.12646 0
M  V30 1140 C 112.275 -5.30844 0.551416 0
M  V30 1141 O 112.498 -5.66858 -0.634656 0
M  V30 1142 O 111.432 -5.87848 1.29298 0
M  V30 1143 H 115.258 -2.58513 1.59388 0
M  V30 1144 H 112.843 -1.23599 0.83926 0
M  V30 1145 H 114.725 -4.20679 -0.246361 0
M  V30 1146 H 113.4 -3.13994 -0.786712 0
M  V30 1147 H 112.307 -3.42118 1.51348 0
M  V30 1148 H 113.64 -4.50914 1.97325 0
M  V30 1149 N 115.292 -0.849877 -1.32721 0
M  V30 1150 C 116.239 -0.289033 -2.28983 0
M  V30 1151 C 117.209 0.601324 -1.54833 0
M  V30 1152 O 118.394 0.537253 -1.8308 0
M  V30 1153 C 115.534 0.520623 -3.4115 0
M  V30 1154 C 114.647 -0.394989 -4.3019 0
M  V30 1155 C 113.782 0.426834 -5.29482 0
M  V30 1156 C 112.821 -0.486476 -6.10164 0
M  V30 1157 N 111.958 0.297879 -7.01468 0
M  V30 1158 H 116.798 -1.11519 -2.76347 0
M  V30 1159 H 114.335 -0.56138 -1.35967 0
M  V30 1160 H 116.293 1.00563 -4.04899 0
M  V30 1161 H 114.923 1.31165 -2.9495 0
M  V30 1162 H 113.975 -0.99836 -3.67065 0
M  V30 1163 H 115.287 -1.09612 -4.86607 0
M  V30 1164 H 114.441 0.975205 -5.98811 0
M  V30 1165 H 113.18 1.16136 -4.73671 0
M  V30 1166 H 112.185 -1.04677 -5.39743 0
M  V30 1167 H 113.41 -1.21953 -6.6806 0
M  V30 1168 H 111.356 1.01558 -6.48091 0
M  V30 1169 H 111.273 -0.344318 -7.55216 0
M  V30 1170 H 112.541 0.828131 -7.75089 0
M  V30 1171 N 116.77 1.45427 -0.607355 0
M  V30 1172 C 118.016 2.0254 -0.102607 0
M  V30 1173 C 118.349 1.47478 1.26348 0
M  V30 1174 O 117.624 0.64939 1.83339 0
M  V30 1175 C 117.907 3.60044 -0.0634347 0
M  V30 1176 C 117.76 4.2544 -1.46017 0
M  V30 1177 C 119.079 4.35646 0.624514 0
M  V30 1178 H 116.198 0.73598 -0.0387607 0
M  V30 1179 H 118.84 1.73284 -0.779282 0
M  V30 1180 H 116.99 3.85101 0.512808 0
M  V30 1181 H 118.662 4.11569 -2.08347 0
M  V30 1182 H 116.905 3.83849 -2.02094 0
M  V30 1183 H 117.576 5.34342 -1.385 0
M  V30 1184 H 120.052 4.15882 0.134723 0
M  V30 1185 H 118.928 5.45376 0.621028 0
M  V30 1186 H 119.189 4.08501 1.69055 0
M  V30 1187 N 118.248 0.346503 1.53744 0
M  V30 1188 C 119.525 -0.304532 1.93215 0
M  V30 1189 C 119.905 -1.67993 1.27834 0
M  V30 1190 O 119.253 -2.24411 0.430352 0
M  V30 1191 C 119.463 -0.373852 3.46992 0
M  V30 1192 C 120.811 -0.62329 4.2 0
M  V30 1193 O 121.835 -0.455847 3.53271 0
M  V30 1194 O 120.694 -0.947879 5.38217 0
M  V30 1195 H 117.788 -0.178318 0.807547 0
M  V30 1196 H 120.334 0.397895 1.64969 0
M  V30 1197 H 119.106 0.591224 3.86808 0
M  V30 1198 H 118.729 -1.12294 3.81413 0
M  V30 1199 N 119.726 -1.57421 0.075193 0
M  V30 1200 C 120.689 -2.11791 -0.876203 0
M  V30 1201 C 121.689 -1.04268 -1.22412 0
M  V30 1202 O 122.879 -1.30242 -1.15684 0
M  V30 1203 C 120.011 -2.62207 -2.17854 0
M  V30 1204 H 121.204 -2.9716 -0.40444 0
M  V30 1205 H 118.757 -1.55333 -0.173557 0
M  V30 1206 H 119.492 -1.803 -2.6956 0
M  V30 1207 H 119.277 -3.40802 -1.93897 0
M  V30 1208 H 120.767 -3.04335 -2.85955 0
M  V30 1209 N 121.204 0.198386 -1.56346 0
M  V30 1210 C 122.453 0.917451 -1.79627 0
M  V30 1211 C 122.766 1.8456 -0.64784 0
M  V30 1212 O 123.972 2.60504 -0.764859 0
M  V30 1213 C 122.428 1.68175 -3.18191 0
M  V30 1214 C 122.036 0.798589 -4.40825 0
M  V30 1215 C 123.78 2.39065 -3.50782 0
M  V30 1216 C 121.687 1.56157 -5.70411 0
M  V30 1217 H 120.617 0.346317 -0.669762 0
M  V30 1218 H 123.268 0.170801 -1.82703 0
M  V30 1219 H 121.65 2.47216 -3.09354 0
M  V30 1220 H 122.824 0.0470665 -4.60776 0
M  V30 1221 H 121.139 0.200686 -4.15916 0
M  V30 1222 H 123.736 2.96692 -4.44835 0
M  V30 1223 H 124.079 3.13091 -2.74371 0
M  V30 1224 H 124.612 1.66993 -3.61052 0
M  V30 1225 H 121.351 0.864142 -6.49779 0
M  V30 1226 H 120.871 2.2871 -5.54483 0
M  V30 1227 H 122.55 2.11622 -6.11412 0
M  V30 1228 N 122.682 1.50554 0.465978 0
M  V30 1229 C 123.612 1.72722 1.57128 0
M  V30 1230 C 124.593 0.576294 1.6004 0
M  V30 1231 O 125.778 0.81598 1.76225 0
M  V30 1232 C 122.908 1.82605 2.95419 0
M  V30 1233 C 121.862 2.97835 3.07373 0
M  V30 1234 C 121.188 2.92867 4.47363 0
M  V30 1235 C 122.488 4.38265 2.84114 0
M  V30 1236 H 124.182 2.65267 1.38829 0
M  V30 1237 H 121.728 1.2765 0.666441 0
M  V30 1238 H 123.681 1.96698 3.72677 0
M  V30 1239 H 122.405 0.866858 3.14886 0
M  V30 1240 H 121.064 2.83401 2.3255 0
M  V30 1241 H 120.712 1.94783 4.63755 0
M  V30 1242 H 120.412 3.70227 4.56296 0
M  V30 1243 H 121.936 3.09015 5.26633 0
M  V30 1244 H 123.35 4.53198 3.51118 0
M  V30 1245 H 121.747 5.17115 3.04487 0
M  V30 1246 H 122.817 4.50281 1.7993 0
M  V30 1247 N 124.16 -0.719506 1.40217 0
M  V30 1248 C 125.4 -1.49181 1.39729 0
M  V30 1249 C 125.764 -1.92 -0.00250614 0
M  V30 1250 O 126.965 -2.68473 -0.132479 0
M  V30 1251 C 125.236 -2.68767 2.35582 0
M  V30 1252 S 126.795 -3.58224 2.53418 0
M  V30 1253 H 123.613 -0.510091 0.495307 0
M  V30 1254 H 126.215 -0.841724 1.76452 0
M  V30 1255 H 124.919 -2.35475 3.36124 0
M  V30 1256 H 124.45 -3.38691 2.0013 0
M  V30 1257 H 126.465 -4.63033 1.78367 0
M  V30 1258 N 125.638 -1.25649 -0.95132 0
M  V30 1259 C 126.884 -1.10757 -1.69884 0
M  V30 1260 C 127.217 0.350061 -1.91019 0
M  V30 1261 O 126.492 1.25783 -1.48354 0
M  V30 1262 C 126.775 -1.86606 -3.07978 0
M  V30 1263 C 126.628 -3.40217 -2.94232 0
M  V30 1264 C 127.947 -1.65182 -4.07925 0
M  V30 1265 H 125.066 -0.40374 -0.616574 0
M  V30 1266 H 127.708 -1.54521 -1.10558 0
M  V30 1267 H 125.858 -1.49409 -3.58621 0
M  V30 1268 H 127.53 -3.87108 -2.50889 0
M  V30 1269 H 125.773 -3.67759 -2.30078 0
M  V30 1270 H 126.444 -3.88505 -3.92133 0
M  V30 1271 H 128.92 -1.9757 -3.66204 0
M  V30 1272 H 127.796 -2.20683 -5.02583 0
M  V30 1273 H 128.057 -0.593933 -4.38092 0
M  V30 1274 N 127.117 1.15442 -1.07289 0
M  V30 1275 C 128.08 2.18358 -0.696591 0
M  V30 1276 C 129.08 1.58637 0.262837 0
M  V30 1277 O 130.27 1.74145 0.0438809 0
M  V30 1278 C 127.402 3.4089 -0.0266151 0
M  V30 1279 H 128.595 2.53162 -1.60776 0
M  V30 1280 H 126.148 1.29893 -0.869342 0
M  V30 1281 H 126.883 3.11653 0.896822 0
M  V30 1282 H 126.668 3.85495 -0.716657 0
M  V30 1283 H 128.158 4.17009 0.222028 0
M  V30 1284 N 128.595 0.856903 1.32268 0
M  V30 1285 C 129.843 0.460474 1.96784 0
M  V30 1286 C 130.164 -0.987701 1.68135 0
M  V30 1287 O 129.434 -1.69058 0.989765 0
M  V30 1288 H 128.014 0.167289 0.728027 0
M  V30 1289 H 130.676 1.09383 1.61312 0
M  V30 1290 H 129.772 0.60739 3.06133 0
M  V30 1291 N 130.073 -1.45103 0.615059 0
M  V30 1292 C 131.321 -2.01784 0.112955 0
M  V30 1293 C 131.642 -1.48504 -1.26378 0
M  V30 1294 O 130.912 -0.682245 -1.83636 0
M  V30 1295 H 129.492 -0.745993 0.0387668 0
M  V30 1296 H 132.154 -1.77808 0.798141 0
M  V30 1297 H 131.25 -3.12025 0.0684069 0
M  V30 1298 N 131.551 -0.354651 -1.53558 0
M  V30 1299 C 132.797 0.231422 -2.02079 0
M  V30 1300 C 133.152 1.47308 -1.23767 0
M  V30 1301 O 132.445 1.8891 -0.319947 0
M  V30 1302 C 132.639 0.587121 -3.52545 0
M  V30 1303 C 132.468 -0.618513 -4.45426 0
M  V30 1304 C 131.238 -1.12724 -4.92566 0
M  V30 1305 C 133.436 -1.48039 -4.92533 0
M  V30 1306 N 131.418 -2.29404 -5.69427 0
M  V30 1307 C 132.789 -2.49397 -5.67628 0
M  V30 1308 C 134.844 -1.50454 -4.74624 0
M  V30 1309 C 133.547 -3.53013 -6.26717 0
M  V30 1310 C 135.573 -2.52958 -5.34571 0
M  V30 1311 C 134.935 -3.5304 -6.09543 0
M  V30 1312 H 131.034 0.0476909 -0.780544 0
M  V30 1313 H 133.618 -0.496727 -1.88257 0
M  V30 1314 H 131.789 1.28436 -3.6655 0
M  V30 1315 H 133.521 1.15734 -3.87799 0
M  V30 1316 H 130.276 -0.693577 -4.68494 0
M  V30 1317 H 130.7 -2.88347 -6.12524 0
M  V30 1318 H 135.342 -0.744356 -4.16196 0
M  V30 1319 H 133.06 -4.2992 -6.84247 0
M  V30 1320 H 136.646 -2.55667 -5.22614 0
M  V30 1321 H 135.526 -4.31056 -6.55103 0
M  V30 1322 N 133.029 1.57378 -0.0835403 0
M  V30 1323 C 133.992 2.12252 0.864959 0
M  V30 1324 C 134.992 1.04916 1.21858 0
M  V30 1325 O 136.182 1.30853 1.14991 0
M  V30 1326 C 133.314 2.63358 2.16461 0
M  V30 1327 H 134.507 2.97371 0.388676 0
M  V30 1328 H 132.06 1.55423 0.165317 0
M  V30 1329 H 132.795 1.81727 2.686 0
M  V30 1330 H 132.58 3.41826 1.92087 0
M  V30 1331 H 134.07 3.05847 2.84337 0
M  V30 1332 N 134.507 -0.190092 1.56449 0
M  V30 1333 C 135.755 -0.907908 1.80559 0
M  V30 1334 C 136.076 -1.83583 0.657438 0
M  V30 1335 O 135.346 -1.93203 -0.323924 0
M  V30 1336 H 133.926 -0.338247 0.666032 0
M  V30 1337 H 136.588 -0.194403 1.93928 0
M  V30 1338 H 135.684 -1.49604 2.73907 0
M  V30 1339 N 135.985 -1.50799 -0.457987 0
M  V30 1340 C 137.233 -1.62121 -1.2067 0
M  V30 1341 C 137.554 -0.329793 -1.92191 0
M  V30 1342 O 136.824 0.653409 -1.84682 0
M  V30 1343 H 135.404 -0.597441 -0.448411 0
M  V30 1344 H 138.066 -1.87637 -0.527096 0
M  V30 1345 H 137.162 -2.43882 -1.94751 0
M  V30 1346 N 137.463 0.71206 -1.40597 0
M  V30 1347 C 138.411 1.84746 -1.41321 0
M  V30 1348 C 139.405 1.66842 -0.293268 0
M  V30 1349 O 140.611 1.73904 -0.464481 0
M  V30 1350 H 136.986 0.608522 -0.441819 0
M  V30 1351 H 138.957 1.81252 -2.37045 0
M  V30 1352 C 137.706 3.22638 -1.29614 0
M  V30 1353 H 137.029 3.37023 -2.15071 0
M  V30 1354 H 138.469 4.02209 -1.3418 0
M  V30 1355 C 136.928 3.36899 -0.00673121 0
M  V30 1356 O 137.458 3.90186 0.954859 0
M  V30 1357 N 135.664 2.9053 0.0639327 0
M  V30 1358 H 135.211 2.47353 -0.719311 0
M  V30 1359 H 135.169 3.0045 0.926118 0
M  V30 1360 N 138.941 1.26152 0.944643 0
M  V30 1361 C 139.904 1.07474 2.0244 0
M  V30 1362 C 140.904 0.0242064 1.60782 0
M  V30 1363 O 142.094 0.267302 1.72137 0
M  V30 1364 C 139.226 0.633956 3.34953 0
M  V30 1365 H 140.419 2.03336 2.20442 0
M  V30 1366 H 137.972 1.087 1.12312 0
M  V30 1367 H 138.707 -0.326811 3.22649 0
M  V30 1368 H 138.492 1.39247 3.66542 0
M  V30 1369 H 139.982 0.52501 4.14287 0
M  V30 1370 N 140.419 -1.14872 1.07899 0
M  V30 1371 C 141.366 -2.19791 0.704319 0
M  V30 1372 C 142.336 -1.63238 -0.306987 0
M  V30 1373 O 143.521 -1.8983 -0.192171 0
M  V30 1374 C 140.661 -3.44911 0.114244 0
M  V30 1375 C 139.774 -4.15637 1.1777 0
M  V30 1376 C 138.909 -5.28324 0.552037 0
M  V30 1377 C 137.948 -5.90875 1.59789 0
M  V30 1378 N 137.085 -6.95022 0.994404 0
M  V30 1379 H 141.925 -2.5119 1.60336 0
M  V30 1380 H 139.462 -1.23356 0.801352 0
M  V30 1381 H 141.42 -4.16477 -0.245544 0
M  V30 1382 H 140.05 -3.14011 -0.74813 0
M  V30 1383 H 139.102 -3.42512 1.65499 0
M  V30 1384 H 140.414 -4.5823 1.97046 0
M  V30 1385 H 139.568 -6.06538 0.1402 0
M  V30 1386 H 138.307 -4.86939 -0.272431 0
M  V30 1387 H 137.312 -5.11369 2.01945 0
M  V30 1388 H 138.537 -6.34337 2.42474 0
M  V30 1389 H 136.483 -6.55722 0.190939 0
M  V30 1390 H 136.4 -7.36073 1.72432 0
M  V30 1391 H 137.668 -7.77123 0.608253 0
M  V30 1392 N 141.898 -0.863906 -1.31812 0
M  V30 1393 C 143.123 -0.48527 -2.01643 0
M  V30 1394 C 143.548 0.913058 -1.64453 0
M  V30 1395 O 142.906 1.6014 -0.849985 0
M  V30 1396 C 142.954 -0.642625 -3.54828 0
M  V30 1397 O 142.058 0.320659 -4.11151 0
M  V30 1398 H 141.399 -0.193793 -0.635091 0
M  V30 1399 H 143.929 -1.16565 -1.68148 0
M  V30 1400 H 143.939 -0.533628 -4.04495 0
M  V30 1401 H 142.614 -1.66227 -3.81237 0
M  V30 1402 H 141.191 0.167126 -3.72525 0
M  V30 1403 N 143.376 1.44774 -0.622745 0
M  V30 1404 C 144.323 2.30635 0.0871679 0
M  V30 1405 C 145.293 1.42994 0.845097 0
M  V30 1406 O 146.478 1.71907 0.827812 0
M  V30 1407 C 143.618 3.28144 1.06844 0
M  V30 1408 C 142.731 4.30888 0.309809 0
M  V30 1409 C 141.866 5.15494 1.28215 0
M  V30 1410 C 140.905 6.09953 0.512198 0
M  V30 1411 N 140.042 6.87287 1.43458 0
M  V30 1412 H 144.882 2.90803 -0.650974 0
M  V30 1413 H 142.419 1.43286 -0.33281 0
M  V30 1414 H 144.377 3.83157 1.65066 0
M  V30 1415 H 143.007 2.69695 1.77382 0
M  V30 1416 H 142.059 3.78414 -0.388181 0
M  V30 1417 H 143.371 4.97955 -0.290254 0
M  V30 1418 H 142.525 5.74983 1.93596 0
M  V30 1419 H 141.264 4.48481 1.91614 0
M  V30 1420 H 140.269 5.49581 -0.155151 0
M  V30 1421 H 141.494 6.78999 -0.116958 0
M  V30 1422 H 139.44 6.2295 2.05594 0
M  V30 1423 H 139.357 7.50763 0.888335 0
M  V30 1424 H 140.625 7.51306 2.07749 0
M  V30 1425 N 144.854 0.36279 1.53368 0
M  V30 1426 C 146.079 -0.231226 2.06107 0
M  V30 1427 C 146.504 -1.419 1.23474 0
M  V30 1428 O 145.862 -1.79524 0.253128 0
M  V30 1429 C 145.91 -0.605523 3.5548 0
M  V30 1430 O 145.014 -1.70312 3.7559 0
M  V30 1431 H 144.355 -0.034327 0.663112 0
M  V30 1432 H 146.885 0.522584 1.97814 0
M  V30 1433 H 146.895 -0.877314 3.98456 0
M  V30 1434 H 145.57 0.263004 4.15068 0
M  V30 1435 H 144.147 -1.4271 3.44512 0
M  V30 1436 N 146.332 -1.57332 0.0918853 0
M  V30 1437 C 147.262 -2.16872 -0.865371 0
M  V30 1438 C 148.243 -1.10118 -1.29646 0
M  V30 1439 O 149.428 -1.38242 -1.36392 0
M  V30 1440 C 146.558 -2.74649 -2.12569 0
M  V30 1441 C 145.512 -3.86747 -1.83333 0
M  V30 1442 C 144.838 -4.31212 -3.16166 0
M  V30 1443 C 146.138 -5.10089 -1.1228 0
M  V30 1444 H 147.832 -2.97114 -0.369307 0
M  V30 1445 H 145.378 -1.42918 -0.176194 0
M  V30 1446 H 147.331 -3.14952 -2.7997 0
M  V30 1447 H 146.055 -1.91657 -2.64452 0
M  V30 1448 H 144.714 -3.46978 -1.18331 0
M  V30 1449 H 144.362 -3.45115 -3.6593 0
M  V30 1450 H 144.062 -5.06788 -2.97388 0
M  V30 1451 H 145.586 -4.74146 -3.84731 0
M  V30 1452 H 147 -5.47582 -1.69785 0
M  V30 1453 H 145.397 -5.91073 -1.03693 0
M  V30 1454 H 146.467 -4.84786 -0.105041 0
M  V30 1455 N 147.81 0.181792 -1.56548 0
M  V30 1456 C 149.057 0.900097 -1.81396 0
M  V30 1457 C 149.385 1.82695 -0.667281 0
M  V30 1458 O 148.64 1.92614 0.346146 0
M  V30 1459 C 148.939 1.73728 -3.12335 0
M  V30 1460 C 148.605 0.960255 -4.40556 0
M  V30 1461 C 147.267 0.745766 -4.75386 0
M  V30 1462 C 149.619 0.414477 -5.19549 0
M  V30 1463 C 146.947 -0.0257694 -5.86694 0
M  V30 1464 C 149.299 -0.343916 -6.31664 0
M  V30 1465 C 147.963 -0.569301 -6.65068 0
M  V30 1466 H 147.233 0.329369 -0.663775 0
M  V30 1467 H 149.88 0.165647 -1.90782 0
M  V30 1468 H 148.185 2.54081 -2.98245 0
M  V30 1469 H 149.882 2.29591 -3.28769 0
M  V30 1470 H 146.472 1.13746 -4.13231 0
M  V30 1471 H 150.656 0.567554 -4.93044 0
M  V30 1472 H 145.912 -0.210233 -6.11038 0
M  V30 1473 H 150.086 -0.774133 -6.92084 0
M  V30 1474 H 147.713 -1.16903 -7.51158 0
M  V30 1475 N 149.288 1.51039 0.449983 0
M  V30 1476 C 150.235 1.71439 1.54523 0
M  V30 1477 C 151.205 0.555871 1.56522 0
M  V30 1478 O 152.39 0.788871 1.73728 0
M  V30 1479 C 149.53 1.83384 2.92343 0
M  V30 1480 C 148.643 3.10873 2.9997 0
M  V30 1481 C 147.778 3.13488 4.28834 0
M  V30 1482 C 146.817 4.35343 4.30282 0
M  V30 1483 N 145.954 4.35579 5.5065 0
M  V30 1484 H 150.794 2.64934 1.36433 0
M  V30 1485 H 148.331 1.31312 0.662982 0
M  V30 1486 H 150.289 1.88291 3.72293 0
M  V30 1487 H 148.919 0.933086 3.0902 0
M  V30 1488 H 147.971 3.15336 2.12761 0
M  V30 1489 H 149.283 4.00814 2.96901 0
M  V30 1490 H 148.437 3.17241 5.17149 0
M  V30 1491 H 147.176 2.21414 4.34543 0
M  V30 1492 H 146.181 4.3178 3.40362 0
M  V30 1493 H 147.406 5.28668 4.26248 0
M  V30 1494 H 145.352 3.46369 5.57104 0
M  V30 1495 H 145.269 5.19313 5.49409 0
M  V30 1496 H 146.537 4.43507 6.41032 0
M  V30 1497 N 150.766 -0.704594 1.40972 0
M  V30 1498 C 151.714 -1.83994 1.42299 0
M  V30 1499 C 152.708 -1.66684 0.302111 0
M  V30 1500 O 153.914 -1.73655 0.473697 0
M  V30 1501 H 150.289 -0.606171 0.44504 0
M  V30 1502 H 152.26 -1.79992 2.38003 0
M  V30 1503 C 151.009 -3.21946 1.31323 0
M  V30 1504 H 150.332 -3.35878 2.16855 0
M  V30 1505 H 151.772 -4.01491 1.36311 0
M  V30 1506 C 150.231 -3.36891 0.0245977 0
M  V30 1507 O 150.761 -3.90687 -0.934153 0
M  V30 1508 N 148.967 -2.90559 -0.0485243 0
M  V30 1509 H 148.514 -2.46968 0.732419 0
M  V30 1510 H 148.472 -3.00937 -0.910171 0
M  V30 1511 N 152.244 -1.26651 -0.937939 0
M  V30 1512 C 153.484 -1.13611 -1.69917 0
M  V30 1513 C 153.848 0.314687 -1.89404 0
M  V30 1514 O 155.049 0.567285 -2.62746 0
M  V30 1515 C 153.32 -1.88742 -3.03498 0
M  V30 1516 S 154.879 -1.91794 -3.94665 0
M  V30 1517 H 151.697 -0.405767 -0.583844 0
M  V30 1518 H 154.299 -1.60416 -1.11745 0
M  V30 1519 H 153.003 -2.9336 -2.86999 0
M  V30 1520 H 152.534 -1.42391 -3.66727 0
M  V30 1521 H 154.549 -1.00698 -4.85875 0
M  V30 1522 N 153.722 1.14298 -1.08507 0
M  V30 1523 C 154.999 1.81544 -0.728088 0
M  V30 1524 C 155.379 1.95838 0.78808 0
M  V30 1525 O 154.727 1.51904 1.70697 0
M  V30 1526 C 154.937 3.17169 -1.45619 0
M  V30 1527 C 156.285 3.9265 -1.61591 0
M  V30 1528 O 157.309 3.26762 -1.41793 0
M  V30 1529 O 156.168 5.10807 -1.94263 0
M  V30 1530 H 153.262 0.78491 -0.260471 0
M  V30 1531 H 155.808 1.21307 -1.18671 0
M  V30 1532 H 154.58 3.01934 -2.489 0
M  V30 1533 H 154.203 3.851 -0.989124 0
M  V30 1534 N 155.201 0.870884 1.31352 0
M  V30 1535 C 156.131 0.343096 2.30966 0
M  V30 1536 C 157.112 -0.566507 1.60389 0
M  V30 1537 O 158.297 -0.483336 1.88089 0
M  V30 1538 C 155.427 -0.455487 3.443 0
M  V30 1539 C 154.381 0.361103 4.26474 0
M  V30 1540 C 153.707 -0.563221 5.31725 0
M  V30 1541 C 155.007 1.59566 4.97329 0
M  V30 1542 H 156.701 1.17548 2.75359 0
M  V30 1543 H 154.247 0.566686 1.32381 0
M  V30 1544 H 156.2 -0.83525 4.13039 0
M  V30 1545 H 154.924 -1.32139 2.98675 0
M  V30 1546 H 153.583 0.722825 3.59403 0
M  V30 1547 H 153.231 -1.42643 4.82351 0
M  V30 1548 H 152.931 -0.0207409 5.87596 0
M  V30 1549 H 154.455 -0.939808 6.03324 0
M  V30 1550 H 155.869 1.28728 5.58661 0
M  V30 1551 H 154.266 2.07728 5.63 0
M  V30 1552 H 155.336 2.34798 4.24262 0
M  V30 1553 N 156.679 -1.44442 0.630414 0
M  V30 1554 C 157.612 -2.27862 -0.124247 0
M  V30 1555 C 158.59 -1.38495 -0.851931 0
M  V30 1556 O 159.774 -1.67935 -0.856166 0
M  V30 1557 C 156.901 -3.17407 -1.18197 0
M  V30 1558 C 155.947 -4.22875 -0.554892 0
M  V30 1559 S 156.78 -5.31485 0.654489 0
M  V30 1560 C 157.936 -6.246 -0.40326 0
M  V30 1561 H 158.169 -2.91519 0.583435 0
M  V30 1562 H 155.702 -1.48618 0.418565 0
M  V30 1563 H 157.66 -3.69549 -1.78728 0
M  V30 1564 H 156.321 -2.52971 -1.86184 0
M  V30 1565 H 155.514 -4.85542 -1.35148 0
M  V30 1566 H 155.116 -3.73992 -0.0242105 0
M  V30 1567 H 157.408 -6.65375 -1.27602 0
M  V30 1568 H 158.351 -7.07851 0.187813 0
M  V30 1569 H 158.759 -5.59775 -0.728837 0
M  V30 1570 N 158.157 -0.370918 -1.53173 0
M  V30 1571 C 159.403 0.209976 -2.02313 0
M  V30 1572 C 159.758 1.45987 -1.25322 0
M  V30 1573 O 159.051 1.8856 -0.339965 0
M  V30 1574 C 159.245 0.549696 -3.53147 0
M  V30 1575 C 159.074 -0.665721 -4.44745 0
M  V30 1576 C 157.844 -1.17942 -4.91343 0
M  V30 1577 C 160.042 -1.53255 -4.90935 0
M  V30 1578 N 158.024 -2.35431 -5.66962 0
M  V30 1579 C 159.395 -2.55403 -5.64951 0
M  V30 1580 C 161.45 -1.5548 -4.73002 0
M  V30 1581 C 160.153 -3.5964 -6.22938 0
M  V30 1582 C 162.179 -2.58613 -5.31858 0
M  V30 1583 C 161.541 -3.59485 -6.05764 0
M  V30 1584 H 157.64 0.0394095 -0.781006 0
M  V30 1585 H 160.224 -0.516666 -1.8772 0
M  V30 1586 H 158.395 1.24541 -3.67891 0
M  V30 1587 H 160.127 1.11614 -3.89004 0
M  V30 1588 H 156.882 -0.743228 -4.67732 0
M  V30 1589 H 157.306 -2.94827 -6.09431 0
M  V30 1590 H 161.948 -0.788457 -4.15383 0
M  V30 1591 H 159.666 -4.37153 -6.79649 0
M  V30 1592 H 163.252 -2.61195 -5.19873 0
M  V30 1593 H 162.132 -4.3798 -6.50495 0
M  V30 1594 N 159.635 1.57281 -0.100228 0
M  V30 1595 C 160.582 2.14305 0.856858 0
M  V30 1596 C 161.552 1.06296 1.27634 0
M  V30 1597 O 162.737 1.34109 1.35718 0
M  V30 1598 C 159.877 2.73184 2.10866 0
M  V30 1599 C 158.99 3.95442 1.73925 0
M  V30 1600 C 158.125 4.42468 2.93931 0
M  V30 1601 C 157.164 5.57303 2.5314 0
M  V30 1602 N 156.301 5.99158 3.65997 0
M  V30 1603 H 161.141 2.95772 0.363726 0
M  V30 1604 H 158.678 1.46139 0.167858 0
M  V30 1605 H 160.636 3.05442 2.84185 0
M  V30 1606 H 159.266 1.94437 2.57671 0
M  V30 1607 H 158.318 3.69464 0.905554 0
M  V30 1608 H 159.63 4.78769 1.39935 0
M  V30 1609 H 158.784 4.76537 3.75496 0
M  V30 1610 H 157.523 3.58052 3.31134 0
M  V30 1611 H 156.528 5.22857 1.70003 0
M  V30 1612 H 157.753 6.43471 2.17075 0
M  V30 1613 H 155.699 5.17687 4.02909 0
M  V30 1614 H 155.616 6.77295 3.35869 0
M  V30 1615 H 156.884 6.3786 4.48057 0
M  V30 1616 N 161.113 -0.173488 1.56642 0
M  V30 1617 C 162.045 -1.23935 1.92802 0
M  V30 1618 C 163.058 -1.40589 0.820889 0
M  V30 1619 O 164.247 -1.40631 1.09933 0
M  V30 1620 C 161.347 -2.60837 2.16373 0
M  V30 1621 C 160.52 -2.6551 3.47596 0
M  V30 1622 C 159.579 -3.8376 3.60021 0
M  V30 1623 O 158.605 -3.69859 4.32658 0
M  V30 1624 N 159.807 -5.00127 2.94709 0
M  V30 1625 H 162.572 -0.932236 2.84832 0
M  V30 1626 H 160.133 -0.363268 1.57772 0
M  V30 1627 H 162.125 -3.38407 2.21952 0
M  V30 1628 H 160.695 -2.83948 1.30738 0
M  V30 1629 H 159.915 -1.74052 3.53694 0
M  V30 1630 H 161.203 -2.65641 4.33949 0
M  V30 1631 H 160.601 -5.14322 2.35563 0
M  V30 1632 H 159.158 -5.75567 3.05886 0
M  V30 1633 N 162.591 -1.51276 -0.441967 0
M  V30 1634 C 163.816 -1.67799 -1.21895 0
M  V30 1635 C 164.241 -0.372864 -1.84367 0
M  V30 1636 O 163.599 0.666501 -1.68604 0
M  V30 1637 C 163.647 -2.79199 -2.28211 0
M  V30 1638 O 162.751 -2.42479 -3.33583 0
M  V30 1639 H 162.092 -0.559649 -0.357336 0
M  V30 1640 H 164.622 -1.97815 -0.522522 0
M  V30 1641 H 164.632 -3.03146 -2.73069 0
M  V30 1642 H 163.307 -3.73906 -1.82118 0
M  V30 1643 H 161.884 -2.29087 -2.94234 0
M  V30 1644 N 164.069 0.697108 -1.41344 0
M  V30 1645 C 165.318 1.45279 -1.39918 0
M  V30 1646 C 165.631 1.95597 -0.0109624 0
M  V30 1647 O 166.837 2.71208 0.125919 0
M  V30 1648 C 165.293 2.62695 -2.46007 0
M  V30 1649 C 164.901 2.19169 -3.90729 0
M  V30 1650 C 166.645 3.40336 -2.53715 0
M  V30 1651 C 164.552 3.33535 -4.88373 0
M  V30 1652 H 163.482 0.545692 -0.520323 0
M  V30 1653 H 166.133 0.756929 -1.67161 0
M  V30 1654 H 164.515 3.34541 -2.11892 0
M  V30 1655 H 165.689 1.54623 -4.34083 0
M  V30 1656 H 164.004 1.54525 -3.86666 0
M  V30 1657 H 166.601 4.2547 -3.2385 0
M  V30 1658 H 166.944 3.85418 -1.5735 0
M  V30 1659 H 167.477 2.75546 -2.86913 0
M  V30 1660 H 164.216 2.93468 -5.86137 0
M  V30 1661 H 163.736 3.96936 -4.49668 0
M  V30 1662 H 165.415 3.99335 -5.09059 0
M  V30 1663 N 165.547 1.27147 0.931209 0
M  V30 1664 C 166.793 1.14455 1.68141 0
M  V30 1665 C 167.148 -0.307172 1.89932 0
M  V30 1666 O 166.441 -1.22158 1.47607 0
M  V30 1667 C 166.635 1.8579 3.05314 0
M  V30 1668 C 166.464 3.3775 2.96909 0
M  V30 1669 C 165.234 4.07062 2.99381 0
M  V30 1670 C 167.432 4.33783 2.76291 0
M  V30 1671 N 165.414 5.45618 2.8138 0
M  V30 1672 C 166.785 5.59582 2.6696 0
M  V30 1673 C 168.84 4.23915 2.61152 0
M  V30 1674 C 167.543 6.76639 2.44033 0
M  V30 1675 C 169.569 5.40689 2.39602 0
M  V30 1676 C 168.931 6.65443 2.3101 0
M  V30 1677 H 165.03 0.473667 0.622225 0
M  V30 1678 H 167.614 1.60568 1.10118 0
M  V30 1679 H 165.785 1.42138 3.61457 0
M  V30 1680 H 167.517 1.65634 3.69253 0
M  V30 1681 H 164.272 3.585 3.09475 0
M  V30 1682 H 164.696 6.184 2.75519 0
M  V30 1683 H 169.338 3.28189 2.66555 0
M  V30 1684 H 167.056 7.72451 2.3737 0
M  V30 1685 H 170.642 5.34932 2.28778 0
M  V30 1686 H 169.522 7.54277 2.14558 0
M  V30 1687 N 167.025 -1.13721 1.09112 0
M  V30 1688 C 168.253 -1.88773 0.846899 0
M  V30 1689 C 168.668 -1.7896 -0.601572 0
M  V30 1690 O 168.025 -1.15394 -1.41388 0
M  V30 1691 C 168.076 -3.3849 1.26913 0
M  V30 1692 O 167.797 -3.48043 2.66079 0
M  V30 1693 C 169.298 -4.30518 1.05682 0
M  V30 1694 H 166.518 -0.59772 0.304914 0
M  V30 1695 H 169.062 -1.43977 1.45227 0
M  V30 1696 H 167.217 -3.80881 0.707723 0
M  V30 1697 H 167.631 -4.4109 2.83795 0
M  V30 1698 H 169.105 -5.3391 1.40156 0
M  V30 1699 H 169.582 -4.392 -0.00563416 0
M  V30 1700 H 170.188 -3.93893 1.60402 0
M  V30 1701 N 168.503 -0.877838 -1.30888 0
M  V30 1702 C 169.728 -0.506629 -2.01117 0
M  V30 1703 C 170.153 0.895564 -1.65412 0
M  V30 1704 O 169.511 1.5923 -0.866922 0
M  V30 1705 C 169.559 -0.680223 -3.54126 0
M  V30 1706 O 168.663 0.277033 -4.11468 0
M  V30 1707 H 168.004 -0.200518 -0.633 0
M  V30 1708 H 170.534 -1.18342 -1.66902 0
M  V30 1709 H 170.544 -0.5765 -4.03907 0
M  V30 1710 H 169.219 -1.70261 -3.79452 0
M  V30 1711 H 167.796 0.127606 -3.72682 0
M  V30 1712 N 169.982 1.44106 -0.638065 0
M  V30 1713 C 171.21 2.06336 -0.152615 0
M  V30 1714 C 171.625 1.47731 1.17563 0
M  V30 1715 O 170.982 0.602806 1.72257 0
M  V30 1716 C 171.033 3.61479 -0.0391491 0
M  V30 1717 O 170.754 4.17903 -1.31487 0
M  V30 1718 C 172.255 4.40757 0.474176 0
M  V30 1719 H 169.475 0.665862 -0.0828776 0
M  V30 1720 H 172.019 1.84862 -0.87443 0
M  V30 1721 H 170.174 3.82191 0.633142 0
M  V30 1722 H 170.588 5.11416 -1.16421 0
M  V30 1723 H 172.062 5.49707 0.502562 0
M  V30 1724 H 172.539 4.12697 1.50258 0
M  V30 1725 H 173.145 4.24979 -0.165102 0
M  V30 1726 N 171.46 0.379036 1.52974 0
M  V30 1727 C 172.709 -0.207612 2.00629 0
M  V30 1728 C 173.022 -1.48758 1.27006 0
M  V30 1729 O 174.228 -2.15365 1.65318 0
M  V30 1730 C 172.684 -0.42053 3.57435 0
M  V30 1731 C 172.292 0.845587 4.39948 0
M  V30 1732 C 174.036 -0.964102 4.13407 0
M  V30 1733 C 171.943 0.601513 5.88333 0
M  V30 1734 H 170.873 -0.0813591 0.749598 0
M  V30 1735 H 173.524 0.499853 1.76561 0
M  V30 1736 H 171.906 -1.18959 3.7771 0
M  V30 1737 H 173.08 1.61848 4.31442 0
M  V30 1738 H 171.395 1.31336 3.95145 0
M  V30 1739 H 173.992 -1.16225 5.21916 0
M  V30 1740 H 174.335 -1.93019 3.68849 0
M  V30 1741 H 174.868 -0.25487 3.96983 0
M  V30 1742 H 171.607 1.53831 6.37194 0
M  V30 1743 H 171.127 -0.132628 5.99653 0
M  V30 1744 H 172.806 0.232134 6.46583 0
M  V30 1745 N 172.938 -1.57226 0.108567 0
M  V30 1746 C 174.163 -1.99604 -0.563303 0
M  V30 1747 C 174.588 -0.987563 -1.6009 0
M  V30 1748 O 173.946 0.0421687 -1.81251 0
M  V30 1749 C 173.994 -3.40902 -1.17552 0
M  V30 1750 O 173.098 -3.42896 -2.2912 0
M  V30 1751 H 172.439 -0.648704 -0.1417 0
M  V30 1752 H 174.969 -2.03679 0.193961 0
M  V30 1753 H 174.979 -3.78886 -1.51357 0
M  V30 1754 H 173.654 -4.1382 -0.415445 0
M  V30 1755 H 172.231 -3.1672 -1.96832 0
M  V30 1756 N 174.416 0.165178 -1.56732 0
M  V30 1757 C 175.641 0.900253 -1.86843 0
M  V30 1758 C 176.066 1.74766 -0.695596 0
M  V30 1759 O 175.424 1.77786 0.35522 0
M  V30 1760 C 175.472 1.74777 -3.15413 0
M  V30 1761 O 174.576 2.85007 -2.98068 0
M  V30 1762 H 173.917 0.251832 -0.614391 0
M  V30 1763 H 176.447 0.161468 -2.03962 0
M  V30 1764 H 176.457 2.14646 -3.46974 0
M  V30 1765 H 175.132 1.12537 -4.00385 0
M  V30 1766 H 173.709 2.48676 -2.77875 0
M  V30 1767 N 175.894 1.51508 0.433938 0
M  V30 1768 C 176.844 1.69451 1.52546 0
M  V30 1769 C 177.828 0.548474 1.51263 0
M  V30 1770 O 179.02 0.804529 1.57659 0
M  V30 1771 C 176.149 1.82604 2.90707 0
M  V30 1772 C 175.235 3.03002 2.96733 0
M  V30 1773 N 175.626 4.26121 2.72496 0
M  V30 1774 C 173.924 3.02327 3.27894 0
M  V30 1775 C 174.625 5.07407 2.84452 0
M  V30 1776 N 173.601 4.42126 3.16269 0
M  V30 1777 H 177.403 2.62305 1.32564 0
M  V30 1778 H 174.917 1.49202 0.641297 0
M  V30 1779 H 176.914 1.93569 3.69238 0
M  V30 1780 H 175.574 0.909339 3.11707 0
M  V30 1781 H 176.585 4.55009 2.4736 0
M  V30 1782 H 173.262 2.20301 3.54646 0
M  V30 1783 H 174.652 6.15422 2.69639 0
M  V30 1784 N 177.372 -0.689602 1.41712 0
M  V30 1785 C 178.302 -1.81577 1.46806 0
M  V30 1786 C 179.283 -1.66945 0.326105 0
M  V30 1787 O 180.468 -1.86588 0.538377 0
M  V30 1788 C 177.598 -3.19762 1.35535 0
M  V30 1789 C 176.552 -3.49107 2.47605 0
M  V30 1790 C 175.878 -4.86711 2.21397 0
M  V30 1791 C 177.178 -3.47483 3.89939 0
M  V30 1792 H 178.872 -1.7757 2.41058 0
M  V30 1793 H 176.418 -0.852887 1.16025 0
M  V30 1794 H 178.371 -3.98263 1.3771 0
M  V30 1795 H 177.095 -3.24409 0.377708 0
M  V30 1796 H 175.754 -2.72959 2.44722 0
M  V30 1797 H 175.402 -4.8799 1.21961 0
M  V30 1798 H 175.102 -5.0731 2.96497 0
M  V30 1799 H 176.626 -5.67515 2.25297 0
M  V30 1800 H 178.04 -4.1598 3.94505 0
M  V30 1801 H 176.437 -3.79615 4.64771 0
M  V30 1802 H 177.507 -2.46341 4.17665 0
M  V30 1803 N 178.85 -1.27639 -0.924453 0
M  V30 1804 C 179.813 -1.10681 -2.00705 0
M  V30 1805 C 180.813 -0.0497823 -1.60723 0
M  V30 1806 O 182.003 -0.294654 -1.7169 0
M  V30 1807 C 179.135 -0.687164 -3.33902 0
M  V30 1808 H 180.328 -2.06817 -2.17179 0
M  V30 1809 H 177.881 -1.10473 -1.10569 0
M  V30 1810 H 178.616 0.275439 -3.23128 0
M  V30 1811 H 178.401 -1.45061 -3.6428 0
M  V30 1812 H 179.891 -0.590853 -4.13399 0
M  V30 1813 N 180.328 1.1314 -1.09713 0
M  V30 1814 C 181.556 1.88321 -0.856898 0
M  V30 1815 C 181.971 1.79276 0.592073 0
M  V30 1816 O 181.328 1.16142 1.40774 0
M  V30 1817 C 181.379 3.37812 -1.28706 0
M  V30 1818 O 181.1 3.46627 -2.67921 0
M  V30 1819 C 182.601 4.29952 -1.07964 0
M  V30 1820 H 179.821 0.596094 -0.308079 0
M  V30 1821 H 182.365 1.43205 -1.45988 0
M  V30 1822 H 180.52 3.805 -0.727912 0
M  V30 1823 H 180.934 4.39579 -2.8613 0
M  V30 1824 H 182.408 5.33159 -1.42986 0
M  V30 1825 H 182.885 4.39196 -0.0176577 0
M  V30 1826 H 183.491 3.93036 -1.62489 0
M  V30 1827 N 181.806 0.884767 1.30421 0
M  V30 1828 C 182.753 0.349642 2.28136 0
M  V30 1829 C 183.723 -0.560061 1.56373 0
M  V30 1830 O 184.908 -0.488524 1.8444 0
M  V30 1831 C 182.048 -0.42999 3.42411 0
M  V30 1832 C 181.161 0.508907 4.28992 0
M  V30 1833 C 180.296 -0.286301 5.30428 0
M  V30 1834 C 179.335 0.648079 6.08659 0
M  V30 1835 N 178.472 -0.111792 7.02011 0
M  V30 1836 H 183.312 1.18807 2.73293 0
M  V30 1837 H 180.849 0.597231 1.3443 0
M  V30 1838 H 182.807 -0.897923 4.07423 0
M  V30 1839 H 181.437 -1.23299 2.98324 0
M  V30 1840 H 180.489 1.09533 3.64289 0
M  V30 1841 H 181.801 1.22475 4.8353 0
M  V30 1842 H 180.955 -0.816098 6.01186 0
M  V30 1843 H 179.694 -1.03536 4.76583 0
M  V30 1844 H 178.699 1.18951 5.36778 0
M  V30 1845 H 179.924 1.39623 6.64592 0
M  V30 1846 H 177.87 -0.843395 6.50556 0
M  V30 1847 H 177.787 0.544429 7.54037 0
M  V30 1848 H 179.055 -0.622339 7.77012 0
M  V30 1849 N 183.284 -1.43765 0.645699 0
M  V30 1850 C 184.234 -2.27884 -0.0726442 0
M  V30 1851 C 185.218 -1.39483 -0.802086 0
M  V30 1852 O 186.41 -1.63174 -0.685791 0
M  V30 1853 C 183.539 -3.27055 -1.04356 0
M  V30 1854 C 182.625 -4.22944 -0.312985 0
M  V30 1855 N 183.016 -5.01391 0.666386 0
M  V30 1856 C 181.314 -4.42528 -0.55546 0
M  V30 1857 C 182.015 -5.71217 1.09935 0
M  V30 1858 N 180.991 -5.41856 0.435137 0
M  V30 1859 H 184.793 -2.85949 0.678988 0
M  V30 1860 H 182.307 -1.55378 0.472368 0
M  V30 1861 H 184.304 -3.86089 -1.57292 0
M  V30 1862 H 182.964 -2.70551 -1.79534 0
M  V30 1863 H 183.975 -5.07252 1.04481 0
M  V30 1864 H 180.652 -3.97104 -1.28899 0
M  V30 1865 H 182.042 -6.44202 1.90929 0
M  V30 1866 N 184.763 -0.387143 -1.52771 0
M  V30 1867 C 185.693 0.440551 -2.29306 0
M  V30 1868 C 186.674 1.06535 -1.32606 0
M  V30 1869 O 187.859 1.07853 -1.61497 0
M  V30 1870 C 184.989 1.56919 -3.09829 0
M  V30 1871 C 183.943 1.07054 -4.14395 0
M  V30 1872 C 183.269 2.29109 -4.83129 0
M  V30 1873 C 184.569 0.140015 -5.22112 0
M  V30 1874 H 186.263 -0.198026 -2.98744 0
M  V30 1875 H 183.809 -0.09668 -1.43675 0
M  V30 1876 H 185.762 2.15503 -3.62128 0
M  V30 1877 H 184.486 2.23532 -2.3812 0
M  V30 1878 H 183.145 0.507247 -3.63074 0
M  V30 1879 H 182.793 2.94227 -4.0797 0
M  V30 1880 H 182.493 1.96406 -5.53804 0
M  V30 1881 H 184.017 2.88339 -5.38231 0
M  V30 1882 H 185.431 0.633978 -5.69784 0
M  V30 1883 H 183.828 -0.0971485 -6.00021 0
M  V30 1884 H 184.898 -0.811711 -4.78058 0
M  V30 1885 N 186.241 1.57166 -0.116904 0
M  V30 1886 C 187.188 2.15202 0.83408 0
M  V30 1887 C 188.158 1.07644 1.26499 0
M  V30 1888 O 189.343 1.35541 1.34288 0
M  V30 1889 C 186.483 2.75405 2.07957 0
M  V30 1890 C 185.596 3.97264 1.69721 0
M  V30 1891 C 184.731 4.45561 2.89221 0
M  V30 1892 C 183.77 5.59956 2.47215 0
M  V30 1893 N 182.907 6.03006 3.59622 0
M  V30 1894 H 187.747 2.96141 0.332335 0
M  V30 1895 H 185.284 1.46309 0.152349 0
M  V30 1896 H 187.242 3.08439 2.80929 0
M  V30 1897 H 185.872 1.97159 2.55594 0
M  V30 1898 H 184.924 3.70404 0.866316 0
M  V30 1899 H 186.236 4.80226 1.34849 0
M  V30 1900 H 185.39 4.80493 3.7042 0
M  V30 1901 H 184.129 3.61544 3.27318 0
M  V30 1902 H 183.134 5.2463 1.64448 0
M  V30 1903 H 184.359 6.45738 2.10238 0
M  V30 1904 H 182.305 5.21931 3.97396 0
M  V30 1905 H 182.222 6.80819 3.28667 0
M  V30 1906 H 183.49 6.42576 4.41267 0
M  V30 1907 N 187.719 -0.156864 1.56817 0
M  V30 1908 C 188.629 -1.2136 2.00771 0
M  V30 1909 C 189.645 -1.47598 0.921459 0
M  V30 1910 O 190.821 -1.59462 1.2302 0
M  V30 1911 C 187.886 -2.52943 2.37109 0
M  V30 1912 C 186.947 -2.34439 3.59634 0
M  V30 1913 C 186.18 -3.59748 3.94229 0
M  V30 1914 O 186.403 -4.65526 3.29609 0
M  V30 1915 O 185.337 -3.52998 4.8752 0
M  V30 1916 H 189.163 -0.870468 2.90958 0
M  V30 1917 H 186.748 -0.36484 1.44877 0
M  V30 1918 H 188.63 -3.30538 2.61386 0
M  V30 1919 H 187.305 -2.86806 1.5008 0
M  V30 1920 H 186.212 -1.54828 3.40557 0
M  V30 1921 H 187.545 -2.05496 4.4725 0
M  V30 1922 N 189.197 -1.51736 -0.425897 0
M  V30 1923 C 190.445 -1.64644 -1.17204 0
M  V30 1924 C 190.766 -0.370486 -1.91448 0
M  V30 1925 O 190.036 0.614088 -1.86026 0
M  V30 1926 H 188.616 -0.606819 -0.435638 0
M  V30 1927 H 191.278 -1.88713 -0.487177 0
M  V30 1928 H 190.374 -2.47958 -1.89534 0
M  V30 1929 N 190.675 0.682077 -1.42076 0
M  V30 1930 C 191.923 1.4393 -1.41876 0
M  V30 1931 C 192.244 1.94971 -0.0335599 0
M  V30 1932 O 191.514 1.72591 0.926773 0
M  V30 1933 H 190.094 0.534085 -0.522267 0
M  V30 1934 H 192.756 0.806427 -1.77434 0
M  V30 1935 H 191.852 2.29588 -2.11414 0
M  V30 1936 N 192.153 1.28127 0.917671 0
M  V30 1937 C 193.083 1.14248 2.03641 0
M  V30 1938 C 194.064 0.0412748 1.7005 0
M  V30 1939 O 195.249 0.217566 1.92977 0
M  V30 1940 C 192.379 0.799431 3.37974 0
M  V30 1941 C 191.333 1.85497 3.85713 0
M  V30 1942 C 190.659 1.36565 5.16966 0
M  V30 1943 C 191.959 3.26085 4.08002 0
M  V30 1944 H 193.653 2.07835 2.15511 0
M  V30 1945 H 191.199 1.00064 1.03553 0
M  V30 1946 H 193.152 0.689114 4.15727 0
M  V30 1947 H 191.876 -0.172145 3.26146 0
M  V30 1948 H 190.535 1.95437 3.10161 0
M  V30 1949 H 190.183 0.383253 5.01538 0
M  V30 1950 H 189.883 2.07143 5.49878 0
M  V30 1951 H 191.407 1.26848 5.97279 0
M  V30 1952 H 192.821 3.19089 4.76293 0
M  V30 1953 H 191.218 3.94462 4.52238 0
M  V30 1954 H 192.288 3.70394 3.12948 0
M  V30 1955 N 193.631 -1.12557 1.10312 0
M  V30 1956 C 194.561 -2.20341 0.772798 0
M  V30 1957 C 195.542 -1.68198 -0.25365 0
M  V30 1958 O 196.727 -1.93831 -0.119699 0
M  V30 1959 C 193.857 -3.46709 0.202443 0
M  V30 1960 C 192.811 -4.11996 1.15943 0
M  V30 1961 C 192.137 -5.328 0.450345 0
M  V30 1962 C 193.437 -4.5828 2.50552 0
M  V30 1963 H 195.131 -2.48229 1.674 0
M  V30 1964 H 192.677 -1.19308 0.806326 0
M  V30 1965 H 194.63 -4.2138 -0.0407752 0
M  V30 1966 H 193.354 -3.18245 -0.734001 0
M  V30 1967 H 192.013 -3.39305 1.38808 0
M  V30 1968 H 191.661 -5.00602 -0.490531 0
M  V30 1969 H 191.361 -5.7743 1.08851 0
M  V30 1970 H 192.885 -6.10219 0.215642 0
M  V30 1971 H 194.299 -5.2433 2.31843 0
M  V30 1972 H 192.696 -5.13683 3.10242 0
M  V30 1973 H 193.766 -3.72329 3.10643 0
M  V30 1974 N 195.109 -0.891671 -1.2995 0
M  V30 1975 C 196.337 -0.52866 -2.00032 0
M  V30 1976 C 196.752 0.884574 -1.66795 0
M  V30 1977 O 196.109 1.5827 -0.908669 0
M  V30 1978 C 196.16 -0.701814 -3.54622 0
M  V30 1979 O 195.881 -2.05942 -3.86678 0
M  V30 1980 C 197.382 -0.342683 -4.41973 0
M  V30 1981 H 194.602 -0.203659 -0.639347 0
M  V30 1982 H 197.146 -1.19881 -1.65677 0
M  V30 1983 H 195.301 -0.0789468 -3.8732 0
M  V30 1984 H 195.715 -2.08291 -4.81368 0
M  V30 1985 H 197.189 -0.514709 -5.49595 0
M  V30 1986 H 197.666 0.71975 -4.33262 0
M  V30 1987 H 198.272 -0.942154 -4.14733 0
M  V30 1988 N 196.587 1.43421 -0.653314 0
M  V30 1989 C 197.517 2.33487 0.0246656 0
M  V30 1990 C 198.498 1.49475 0.811863 0
M  V30 1991 O 199.683 1.78139 0.773322 0
M  V30 1992 C 196.813 3.32841 0.99166 0
M  V30 1993 C 195.767 4.26842 0.314568 0
M  V30 1994 C 195.093 5.16236 1.39302 0
M  V30 1995 C 196.393 5.16243 -0.793095 0
M  V30 1996 H 198.087 2.90427 -0.727481 0
M  V30 1997 H 195.633 1.39649 -0.351287 0
M  V30 1998 H 197.586 3.94747 1.47487 0
M  V30 1999 H 196.31 2.74158 1.77497 0
M  V30 2000 H 194.969 3.663 -0.148199 0
M  V30 2001 H 194.617 4.53891 2.16776 0
M  V30 2002 H 194.317 5.79948 0.945223 0
M  V30 2003 H 195.841 5.81015 1.87759 0
M  V30 2004 H 197.255 5.71958 -0.392039 0
M  V30 2005 H 195.652 5.88676 -1.16536 0
M  V30 2006 H 196.722 4.55927 -1.65103 0
M  V30 2007 N 198.065 0.39524 1.52563 0
M  V30 2008 C 199.028 -0.425001 2.25225 0
M  V30 2009 C 200.028 -0.985266 1.27079 0
M  V30 2010 O 201.218 -0.866332 1.5113 0
M  V30 2011 C 198.35 -1.59686 3.01186 0
M  V30 2012 H 199.543 0.211233 2.99155 0
M  V30 2013 H 197.096 0.147472 1.55603 0
M  V30 2014 H 197.831 -2.27035 2.31572 0
M  V30 2015 H 197.616 -1.20176 3.73229 0
M  V30 2016 H 199.106 -2.17743 3.5634 0
M  V30 2017 N 199.544 -1.57102 0.125237 0
M  V30 2018 C 200.792 -1.95021 -0.530198 0
M  V30 2019 C 201.113 -1.00982 -1.66816 0
M  V30 2020 O 200.383 -0.0672693 -1.95784 0
M  V30 2021 H 198.963 -0.720046 -0.198853 0
M  V30 2022 H 201.625 -1.93916 0.19564 0
M  V30 2023 H 200.721 -2.98211 -0.920681 0
M  V30 2024 N 201.022 0.148545 -1.56898 0
M  V30 2025 C 201.985 1.16736 -1.97244 0
M  V30 2026 C 202.985 1.35947 -0.858777 0
M  V30 2027 O 204.175 1.32966 -1.12542 0
M  V30 2028 C 201.307 2.52798 -2.28705 0
M  V30 2029 H 202.5 0.821279 -2.88435 0
M  V30 2030 H 200.053 0.391831 -1.51309 0
M  V30 2031 H 200.788 2.92381 -1.403 0
M  V30 2032 H 200.573 2.40216 -3.09901 0
M  V30 2033 H 202.063 3.26179 -2.60762 0
M  V30 2034 N 202.5 1.5196 0.417844 0
M  V30 2035 C 203.447 1.74678 1.50852 0
M  V30 2036 C 204.417 0.588947 1.55308 0
M  V30 2037 O 205.602 0.825544 1.72016 0
M  V30 2038 C 202.742 1.89544 2.88387 0
M  V30 2039 C 201.855 3.17166 2.93309 0
M  V30 2040 C 200.99 3.22513 4.22088 0
M  V30 2041 C 200.029 4.44372 4.20951 0
M  V30 2042 N 199.166 4.47161 5.41287 0
M  V30 2043 H 204.006 2.67768 1.30783 0
M  V30 2044 H 201.543 1.32689 0.63498 0
M  V30 2045 H 203.501 1.96146 3.68216 0
M  V30 2046 H 202.131 0.998424 3.06971 0
M  V30 2047 H 201.183 3.19778 2.06024 0
M  V30 2048 H 202.495 4.07021 2.88332 0
M  V30 2049 H 201.649 3.28139 5.10303 0
M  V30 2050 H 200.388 2.30581 4.29748 0
M  V30 2051 H 199.393 4.38902 3.31127 0
M  V30 2052 H 200.618 5.3759 4.14938 0
M  V30 2053 H 198.564 3.58108 5.49632 0
M  V30 2054 H 198.481 5.3085 5.3827 0
M  V30 2055 H 199.749 4.57005 6.3148 0
M  V30 2056 N 203.978 -0.674533 1.42435 0
M  V30 2057 C 204.941 -1.76986 1.45632 0
M  V30 2058 C 205.941 -1.5708 0.343871 0
M  V30 2059 O 207.131 -1.63367 0.604709 0
M  V30 2060 C 204.263 -3.15623 1.28822 0
M  V30 2061 H 205.456 -1.75539 2.43158 0
M  V30 2062 H 203.009 -0.884189 1.28887 0
M  V30 2063 H 203.744 -3.22696 0.322193 0
M  V30 2064 H 203.529 -3.31475 2.09444 0
M  V30 2065 H 205.019 -3.95537 1.33942 0
M  V30 2066 N 205.456 -1.28612 -0.910864 0
M  V30 2067 C 206.419 -1.12803 -1.9952 0
M  V30 2068 C 207.419 -0.0668264 -1.60661 0
M  V30 2069 O 208.609 -0.312847 -1.71368 0
M  V30 2070 C 205.741 -0.72254 -3.33155 0
M  V30 2071 H 206.934 -2.09109 -2.14973 0
M  V30 2072 H 204.487 -1.11639 -1.09391 0
M  V30 2073 H 205.222 0.241152 -3.23402 0
M  V30 2074 H 205.007 -1.48916 -3.62721 0
M  V30 2075 H 206.497 -0.634666 -4.12749 0
M  V30 2076 N 206.934 1.1197 -1.10907 0
M  V30 2077 C 207.864 2.19928 -0.784473 0
M  V30 2078 C 208.845 1.6833 0.244726 0
M  V30 2079 O 210.03 1.93892 0.109418 0
M  V30 2080 C 207.16 3.46597 -0.220827 0
M  V30 2081 C 206.114 4.11376 -1.18127 0
M  V30 2082 C 205.44 5.32554 -0.478594 0
M  V30 2083 C 206.74 4.56945 -2.52979 0
M  V30 2084 H 208.434 2.47337 -1.68715 0
M  V30 2085 H 205.98 1.18879 -0.812642 0
M  V30 2086 H 207.933 4.21396 0.0184278 0
M  V30 2087 H 206.657 3.1863 0.717113 0
M  V30 2088 H 205.316 3.38564 -1.40606 0
M  V30 2089 H 204.964 5.00856 0.463976 0
M  V30 2090 H 204.664 5.76844 -1.11912 0
M  V30 2091 H 206.188 6.10096 -0.248 0
M  V30 2092 H 207.602 5.23093 -2.3462 0
M  V30 2093 H 205.999 5.1203 -3.12962 0
M  V30 2094 H 207.069 3.70676 -3.12614 0
M  V30 2095 N 208.412 0.89855 1.29475 0
M  V30 2096 C 209.689 0.443416 1.90508 0
M  V30 2097 C 210.069 -1.07685 1.81569 0
M  V30 2098 O 209.417 -1.9182 1.24166 0
M  V30 2099 C 209.627 0.956708 3.35631 0
M  V30 2100 C 210.975 0.999728 4.12663 0
M  V30 2101 O 211.999 0.904299 3.4453 0
M  V30 2102 O 210.858 1.14289 5.34416 0
M  V30 2103 H 207.952 0.138025 0.815401 0
M  V30 2104 H 210.498 0.98834 1.37949 0
M  V30 2105 H 209.27 2.00067 3.36287 0
M  V30 2106 H 208.893 0.391728 3.95666 0
M  V30 2107 N 209.89 -1.43072 0.660911 0
M  V30 2108 C 211.138 -2.01323 0.177094 0
M  V30 2109 C 211.459 -1.5245 -1.2159 0
M  V30 2110 O 210.729 -0.740322 -1.81373 0
M  V30 2111 H 209.309 -0.744382 0.0624804 0
M  V30 2112 H 211.971 -1.75179 0.854305 0
M  V30 2113 H 211.067 -3.11649 0.167641 0
M  V30 2114 N 211.368 -0.403325 -1.52352 0
M  V30 2115 C 212.596 0.174012 -2.06167 0
M  V30 2116 C 213.011 1.39347 -1.27388 0
M  V30 2117 O 212.368 1.79597 -0.324201 0
M  V30 2118 C 212.419 0.530223 -3.5759 0
M  V30 2119 O 212.14 -0.640806 -4.33388 0
M  V30 2120 C 213.641 1.16192 -4.27802 0
M  V30 2121 H 210.861 0.0229464 -0.670608 0
M  V30 2122 H 213.405 -0.572604 -1.9632 0
M  V30 2123 H 211.56 1.22673 -3.67464 0
M  V30 2124 H 211.974 -0.344851 -5.23365 0
M  V30 2125 H 213.448 1.36141 -5.34948 0
M  V30 2126 H 213.925 2.13335 -3.83907 0
M  V30 2127 H 214.531 0.505775 -4.22282 0
M  V30 2128 N 212.846 1.57033 -0.133567 0
M  V30 2129 C 214.257 1.82593 0.389464 0
M  V30 2130 C 214.608 1.05156 1.6564 0
M  V30 2131 O 213.733 0.292644 2.14412 0
M  V30 2132 C 214.328 3.31204 0.713377 0
M  V30 2133 C 212.887 3.57393 1.18098 0
M  V30 2134 C 212.034 2.76598 0.197126 0
M  V30 2135 H 214.985 1.54598 -0.358481 0
M  V30 2136 H 215.006 3.46627 1.56939 0
M  V30 2137 H 214.518 3.87537 -0.2089 0
M  V30 2138 H 212.619 3.06433 2.11966 0
M  V30 2139 H 212.732 4.65915 1.11624 0
M  V30 2140 H 211.096 2.45257 0.687088 0
M  V30 2141 H 211.879 3.35697 -0.718504 0
M  V30 2142 N 214.325 -0.140222 1.56975 0
M  V30 2143 C 215.573 -0.850005 1.83356 0
M  V30 2144 C 215.894 -1.81399 0.71551 0
M  V30 2145 O 215.164 -1.94136 -0.262294 0
M  V30 2146 H 213.744 -0.316886 0.676456 0
M  V30 2147 H 216.406 -0.132608 1.94448 0
M  V30 2148 H 215.502 -1.40814 2.78528 0
M  V30 2149 N 215.803 -1.52179 -0.40978 0
M  V30 2150 C 216.736 -1.70196 -1.52015 0
M  V30 2151 C 217.714 -0.549542 -1.53032 0
M  V30 2152 O 218.898 -0.776815 -1.71749 0
M  V30 2153 C 216.025 -1.74069 -2.90547 0
M  V30 2154 C 215.071 -2.95601 -3.07445 0
M  V30 2155 S 215.904 -4.55956 -2.80827 0
M  V30 2156 C 217.06 -4.62614 -4.21591 0
M  V30 2157 H 217.293 -2.64109 -1.36504 0
M  V30 2158 H 214.826 -1.4221 -0.601312 0
M  V30 2159 H 216.784 -1.76985 -3.70387 0
M  V30 2160 H 215.445 -0.812835 -3.034 0
M  V30 2161 H 214.638 -2.94791 -4.08796 0
M  V30 2162 H 214.24 -2.90569 -2.35469 0
M  V30 2163 H 216.532 -4.39951 -5.15218 0
M  V30 2164 H 217.475 -5.64548 -4.27424 0
M  V30 2165 H 217.883 -3.91654 -4.06531 0
M  V30 2166 N 217.281 0.66697 -1.42791 0
M  V30 2167 C 218.53 1.42278 -1.42968 0
M  V30 2168 C 218.843 1.9553 -0.0524489 0
M  V30 2169 O 220.049 2.71414 0.068363 0
M  V30 2170 C 218.505 2.57418 -2.51524 0
M  V30 2171 C 218.113 2.10832 -3.9529 0
M  V30 2172 C 219.857 3.34878 -2.60877 0
M  V30 2173 C 217.764 3.23101 -4.95338 0
M  V30 2174 H 216.694 0.534533 -0.531781 0
M  V30 2175 H 219.345 0.721302 -1.68729 0
M  V30 2176 H 217.727 3.29971 -2.18941 0
M  V30 2177 H 218.901 1.4538 -4.37266 0
M  V30 2178 H 217.216 1.46289 -3.89857 0
M  V30 2179 H 219.813 4.18505 -3.32802 0
M  V30 2180 H 220.156 3.81993 -1.6549 0
M  V30 2181 H 220.689 2.69398 -2.92693 0
M  V30 2182 H 217.428 2.80969 -5.9223 0
M  V30 2183 H 216.948 3.87309 -4.57987 0
M  V30 2184 H 218.627 3.88447 -5.17415 0
M  V30 2185 N 218.759 1.29093 0.90403 0
M  V30 2186 C 220.007 1.16583 1.65085 0
M  V30 2187 C 220.328 -0.283933 1.92922 0
M  V30 2188 O 219.598 -1.19509 1.55224 0
M  V30 2189 H 218.178 0.428467 0.611903 0
M  V30 2190 H 220.84 1.61959 1.08422 0
M  V30 2191 H 219.936 1.71266 2.6091 0
M  V30 2192 N 220.237 -1.11381 1.11499 0
M  V30 2193 C 221.467 -1.86663 0.885464 0
M  V30 2194 C 221.875 -1.80464 -0.568281 0
M  V30 2195 O 221.218 -1.18445 -1.40415 0
M  V30 2196 C 221.28 -3.36337 1.26956 0
M  V30 2197 C 220.944 -3.66304 2.73259 0
M  V30 2198 C 221.941 -3.63733 3.71476 0
M  V30 2199 C 219.626 -3.9529 3.09921 0
M  V30 2200 C 221.62 -3.89725 5.04374 0
M  V30 2201 C 219.307 -4.20941 4.43004 0
M  V30 2202 C 220.305 -4.18147 5.40039 0
M  V30 2203 O 219.993 -4.43153 6.70724 0
M  V30 2204 H 219.725 -0.597114 0.316908 0
M  V30 2205 H 222.279 -1.41782 1.48617 0
M  V30 2206 H 220.509 -3.81826 0.611999 0
M  V30 2207 H 222.198 -3.92986 1.01573 0
M  V30 2208 H 222.964 -3.41389 3.44498 0
M  V30 2209 H 218.843 -3.966 2.35009 0
M  V30 2210 H 222.387 -3.8746 5.80104 0
M  V30 2211 H 218.284 -4.42761 4.69716 0
M  V30 2212 H 219.052 -4.60717 6.76522 0
M  V30 2213 N 221.715 -0.905404 -1.28997 0
M  V30 2214 C 222.963 -0.533192 -1.9494 0
M  V30 2215 C 223.284 0.924618 -1.71685 0
M  V30 2216 O 222.554 1.65268 -1.05183 0
M  V30 2217 H 221.134 -0.194194 -0.721317 0
M  V30 2218 H 223.796 -1.15294 -1.57141 0
M  V30 2219 H 222.892 -0.72059 -3.03667 0
M  V30 2220 N 223.193 1.4272 -0.668489 0
M  V30 2221 C 224.126 2.28111 0.0637898 0
M  V30 2222 C 225.104 1.40705 0.814912 0
M  V30 2223 O 226.288 1.70146 0.81134 0
M  V30 2224 C 223.415 3.20429 1.0974 0
M  V30 2225 C 222.461 4.24197 0.442579 0
M  V30 2226 S 223.294 5.29563 -0.795173 0
M  V30 2227 C 224.45 6.25449 0.237516 0
M  V30 2228 H 224.683 2.8987 -0.660521 0
M  V30 2229 H 222.216 1.47456 -0.457821 0
M  V30 2230 H 224.174 3.74158 1.68868 0
M  V30 2231 H 222.835 2.57818 1.79411 0
M  V30 2232 H 222.028 4.88954 1.22227 0
M  V30 2233 H 221.63 3.73925 -0.0749554 0
M  V30 2234 H 223.922 6.68524 1.09915 0
M  V30 2235 H 224.865 7.07104 -0.375421 0
M  V30 2236 H 225.273 5.61511 0.580167 0
M  V30 2237 N 224.671 0.411399 1.52136 0
M  V30 2238 C 225.634 -0.401089 2.25663 0
M  V30 2239 C 226.634 -0.971732 1.28117 0
M  V30 2240 O 227.824 -0.850254 1.52041 0
M  V30 2241 C 224.956 -1.56483 3.02863 0
M  V30 2242 H 226.149 0.24295 2.98914 0
M  V30 2243 H 223.702 0.163968 1.55438 0
M  V30 2244 H 224.437 -2.24567 2.33967 0
M  V30 2245 H 224.222 -1.16211 3.74483 0
M  V30 2246 H 225.712 -2.13951 3.58629 0
M  V30 2247 N 226.149 -1.5696 0.141893 0
M  V30 2248 C 227.096 -2.16501 -0.799737 0
M  V30 2249 C 228.066 -1.09643 -1.24771 0
M  V30 2250 O 229.251 -1.3766 -1.32115 0
M  V30 2251 C 226.391 -2.78679 -2.03549 0
M  V30 2252 C 225.504 -3.99914 -1.6338 0
M  V30 2253 C 224.639 -4.50106 -2.82096 0
M  V30 2254 C 223.678 -5.63819 -2.38275 0
M  V30 2255 N 222.815 -6.08651 -3.49983 0
M  V30 2256 H 227.655 -2.96632 -0.285179 0
M  V30 2257 H 225.192 -1.46533 -0.129053 0
M  V30 2258 H 227.15 -3.1287 -2.75986 0
M  V30 2259 H 225.78 -2.012 -2.52425 0
M  V30 2260 H 224.832 -3.71735 -0.807279 0
M  V30 2261 H 226.144 -4.82311 -1.27192 0
M  V30 2262 H 225.298 -4.86325 -3.62729 0
M  V30 2263 H 224.037 -3.66706 -3.21525 0
M  V30 2264 H 223.042 -5.2718 -1.56081 0
M  V30 2265 H 224.267 -6.49 -1.99938 0
M  V30 2266 H 222.213 -5.28188 -3.89042 0
M  V30 2267 H 222.13 -6.85961 -3.17794 0
M  V30 2268 H 223.398 -6.49515 -4.30988 0
M  V30 2269 N 227.627 0.131896 -1.57047 0
M  V30 2270 C 228.875 0.840269 -1.83804 0
M  V30 2271 C 229.196 1.81017 -0.72512 0
M  V30 2272 O 228.466 1.94272 0.251995 0
M  V30 2273 H 227.046 0.313294 -0.678127 0
M  V30 2274 H 229.708 0.122294 -1.94516 0
M  V30 2275 H 228.804 1.39335 -2.79271 0
M  V30 2276 N 229.106 1.52395 0.401703 0
M  V30 2277 C 230.069 1.75636 1.47257 0
M  V30 2278 C 231.069 0.62628 1.48103 0
M  V30 2279 O 232.259 0.894227 1.49497 0
M  V30 2280 C 229.391 1.84553 2.86624 0
M  V30 2281 H 230.584 2.71241 1.27938 0
M  V30 2282 H 228.137 1.42923 0.632662 0
M  V30 2283 H 228.872 0.908882 3.11303 0
M  V30 2284 H 228.657 2.66715 2.87412 0
M  V30 2285 H 230.147 2.04251 3.64241 0
M  V30 2286 N 230.584 -0.659388 1.43143 0
M  V30 2287 C 231.83 -1.42145 1.44647 0
M  V30 2288 C 232.163 -1.9408 0.0681907 0
M  V30 2289 O 231.438 -1.71899 -0.910007 0
M  V30 2290 C 231.721 -2.60735 2.48373 0
M  V30 2291 C 231.574 -2.14332 3.95451 0
M  V30 2292 C 232.893 -3.62951 2.48906 0
M  V30 2293 H 230.012 -0.51552 0.526696 0
M  V30 2294 H 232.654 -0.748069 1.74654 0
M  V30 2295 H 230.804 -3.18184 2.22916 0
M  V30 2296 H 232.476 -1.61932 4.31944 0
M  V30 2297 H 230.719 -1.4576 4.08578 0
M  V30 2298 H 231.39 -2.99583 4.63631 0
M  V30 2299 H 233.866 -3.1525 2.71582 0
M  V30 2300 H 232.742 -4.43487 3.23435 0
M  V30 2301 H 233.003 -4.15126 1.52061 0
M  V30 2302 N 232.062 -1.29571 -0.897171 0
M  V30 2303 C 233.012 -1.11539 -1.98855 0
M  V30 2304 C 233.996 -0.0340716 -1.60864 0
M  V30 2305 O 235.188 -0.256062 -1.75138 0
M  V30 2306 C 232.317 -0.796603 -3.3393 0
M  V30 2307 C 231.403 -1.91758 -3.78272 0
M  V30 2308 N 231.794 -3.16143 -3.94826 0
M  V30 2309 C 230.092 -1.81119 -4.07568 0
M  V30 2310 C 230.793 -3.89293 -4.32233 0
M  V30 2311 N 229.769 -3.17255 -4.41419 0
M  V30 2312 H 233.571 -2.05894 -2.09726 0
M  V30 2313 H 231.085 -1.20732 -1.08616 0
M  V30 2314 H 233.082 -0.648459 -4.11826 0
M  V30 2315 H 231.742 0.139003 -3.24402 0
M  V30 2316 H 232.753 -3.5157 -3.80288 0
M  V30 2317 H 229.43 -0.948461 -4.06584 0
M  V30 2318 H 230.82 -4.9635 -4.52865 0
M  V30 2319 N 233.54 1.10788 -1.12088 0
M  V30 2320 C 234.472 2.16816 -0.743213 0
M  V30 2321 C 235.485 1.6119 0.228412 0
M  V30 2322 O 236.674 1.78497 0.0102931 0
M  V30 2323 C 233.774 3.38809 -0.0787313 0
M  V30 2324 C 232.947 4.23885 -1.0789 0
M  V30 2325 C 232.006 5.24334 -0.442713 0
M  V30 2326 O 231.032 5.58497 -1.09864 0
M  V30 2327 N 232.234 5.75079 0.791457 0
M  V30 2328 H 234.999 2.49825 -1.65552 0
M  V30 2329 H 232.56 1.26373 -1.012 0
M  V30 2330 H 234.552 4.03107 0.358766 0
M  V30 2331 H 233.122 3.03805 0.736275 0
M  V30 2332 H 232.342 3.55939 -1.69414 0
M  V30 2333 H 233.63 4.77562 -1.75533 0
M  V30 2334 H 233.028 5.49517 1.3434 0
M  V30 2335 H 231.585 6.4118 1.17183 0
M  V30 2336 N 235.018 0.912232 1.28515 0
M  V30 2337 C 235.948 0.416403 2.29757 0
M  V30 2338 C 236.929 -0.515194 1.6211 0
M  V30 2339 O 238.114 -0.423253 1.89532 0
M  V30 2340 C 235.244 -0.34572 3.45575 0
M  V30 2341 C 234.198 0.496599 4.25109 0
M  V30 2342 C 233.524 -0.393771 5.33248 0
M  V30 2343 C 234.824 1.75307 4.92001 0
M  V30 2344 H 236.518 1.26249 2.7148 0
M  V30 2345 H 234.064 0.608515 1.30511 0
M  V30 2346 H 236.017 -0.703422 4.15488 0
M  V30 2347 H 234.741 -1.2257 3.02728 0
M  V30 2348 H 233.4 0.8368 3.56922 0
M  V30 2349 H 233.048 -1.27225 4.86644 0
M  V30 2350 H 232.748 0.166209 5.87365 0
M  V30 2351 H 234.272 -0.747389 6.06009 0
M  V30 2352 H 235.686 1.46437 5.54283 0
M  V30 2353 H 234.083 2.25534 5.56106 0
M  V30 2354 H 235.153 2.48176 4.16577 0
M  V30 2355 N 236.496 -1.42363 0.676048 0
M  V30 2356 C 237.736 -2.03392 0.20273 0
M  V30 2357 C 238.1 -1.52306 -1.16906 0
M  V30 2358 O 239.301 -2.05129 -1.73711 0
M  V30 2359 C 237.572 -3.56614 0.236947 0
M  V30 2360 S 239.131 -4.38489 -0.165186 0
M  V30 2361 H 235.949 -0.70611 0.0832418 0
M  V30 2362 H 238.551 -1.74093 0.88948 0
M  V30 2363 H 237.255 -3.91293 1.23767 0
M  V30 2364 H 236.786 -3.90587 -0.469596 0
M  V30 2365 H 238.801 -4.76093 -1.39822 0
M  V30 2366 N 237.974 -0.419461 -1.51915 0
M  V30 2367 C 238.906 0.43646 -2.25006 0
M  V30 2368 C 239.919 1.00149 -1.28351 0
M  V30 2369 O 241.108 0.898674 -1.54227 0
M  V30 2370 C 238.208 1.6206 -2.9764 0
M  V30 2371 C 237.381 1.17763 -4.21249 0
M  V30 2372 C 236.44 2.22985 -4.76617 0
M  V30 2373 O 235.466 1.83151 -5.38929 0
M  V30 2374 N 236.668 3.55271 -4.59089 0
M  V30 2375 H 239.433 -0.18989 -2.99098 0
M  V30 2376 H 236.994 -0.247386 -1.59999 0
M  V30 2377 H 238.986 2.32038 -3.31573 0
M  V30 2378 H 237.556 2.15266 -2.2667 0
M  V30 2379 H 236.776 0.305582 -3.93014 0
M  V30 2380 H 238.064 0.858781 -5.015 0
M  V30 2381 H 237.462 3.90377 -4.09417 0
M  V30 2382 H 236.019 4.21195 -4.97432 0
M  V30 2383 N 239.452 1.56882 -0.150215 0
M  V30 2384 C 240.677 2.01027 0.510184 0
M  V30 2385 C 241.102 1.02966 1.57415 0
M  V30 2386 O 240.46 0.00590158 1.81299 0
M  V30 2387 C 240.508 3.43899 1.08472 0
M  V30 2388 O 239.612 3.4885 2.19948 0
M  V30 2389 H 238.953 0.652233 0.124451 0
M  V30 2390 H 241.483 2.03093 -0.247894 0
M  V30 2391 H 241.493 3.82766 1.41259 0
M  V30 2392 H 240.168 4.14776 0.305582 0
M  V30 2393 H 238.745 3.21827 1.88366 0
M  V30 2394 N 240.93 -0.123565 1.57115 0
M  V30 2395 C 241.86 -1.15309 2.03042 0
M  V30 2396 C 242.841 -1.43454 0.914061 0
M  V30 2397 O 244.026 -1.53973 1.18347 0
M  V30 2398 C 241.156 -2.48043 2.43089 0
M  V30 2399 C 240.11 -2.3437 3.58127 0
M  V30 2400 C 239.436 -3.72026 3.84059 0
M  V30 2401 C 240.736 -1.80804 4.90007 0
M  V30 2402 H 242.43 -0.771102 2.893 0
M  V30 2403 H 239.976 -0.369479 1.39179 0
M  V30 2404 H 241.929 -3.20311 2.73823 0
M  V30 2405 H 240.653 -2.88122 1.53796 0
M  V30 2406 H 239.312 -1.64551 3.27595 0
M  V30 2407 H 238.96 -4.09582 2.91979 0
M  V30 2408 H 238.66 -3.63732 4.6149 0
M  V30 2409 H 240.184 -4.45806 4.1724 0
M  V30 2410 H 241.598 -2.42886 5.19307 0
M  V30 2411 H 239.995 -1.83343 5.71407 0
M  V30 2412 H 241.065 -0.76528 4.78823 0
M  V30 2413 N 242.408 -1.52605 -0.393616 0
M  V30 2414 C 243.371 -1.76415 -1.46323 0
M  V30 2415 C 244.371 -0.634126 -1.47768 0
M  V30 2416 O 245.561 -0.902142 -1.4902 0
M  V30 2417 C 242.693 -1.8607 -2.85641 0
M  V30 2418 H 243.886 -2.71916 -1.26498 0
M  V30 2419 H 241.439 -1.43257 -0.625073 0
M  V30 2420 H 242.174 -0.925378 -3.10817 0
M  V30 2421 H 241.959 -2.68235 -2.85993 0
M  V30 2422 H 243.449 -2.06179 -3.63153 0
M  V30 2423 N 243.887 0.651787 -1.4349 0
M  V30 2424 C 245.135 1.40888 -1.44897 0
M  V30 2425 C 245.456 1.94856 -0.0749086 0
M  V30 2426 O 244.726 1.74518 0.889956 0
M  V30 2427 H 243.306 0.522887 -0.533478 0
M  V30 2428 H 245.968 0.768609 -1.79104 0
M  V30 2429 H 245.064 2.25052 -2.16236 0
M  V30 2430 N 245.365 1.30045 0.890287 0
M  V30 2431 C 246.312 1.15976 1.99545 0
M  V30 2432 C 247.282 0.0506202 1.66023 0
M  V30 2433 O 248.467 0.219847 1.89529 0
M  V30 2434 C 245.607 0.852054 3.34416 0
M  V30 2435 C 244.72 2.04255 3.80662 0
M  V30 2436 C 243.855 1.6734 5.04154 0
M  V30 2437 C 242.894 2.82916 5.42794 0
M  V30 2438 N 242.031 2.46333 6.57468 0
M  V30 2439 H 246.871 2.10524 2.10911 0
M  V30 2440 H 244.408 1.04749 1.03276 0
M  V30 2441 H 246.366 0.654296 4.12037 0
M  V30 2442 H 244.996 -0.0565502 3.2275 0
M  V30 2443 H 244.048 2.35172 2.98995 0
M  V30 2444 H 245.36 2.90826 4.05242 0
M  V30 2445 H 244.514 1.43908 5.89386 0
M  V30 2446 H 243.253 0.779308 4.81433 0
M  V30 2447 H 242.258 3.0702 4.56091 0
M  V30 2448 H 243.483 3.73004 5.6749 0
M  V30 2449 H 241.429 1.59423 6.36334 0
M  V30 2450 H 241.346 3.26436 6.81891 0
M  V30 2451 H 242.614 2.26244 7.45945 0
M  V30 2452 N 246.843 -1.10192 1.12674 0
M  V30 2453 C 247.791 -2.18694 0.792196 0
M  V30 2454 C 248.785 -1.67938 -0.222058 0
M  V30 2455 O 249.991 -1.79822 -0.0800074 0
M  V30 2456 H 246.366 -0.713223 0.238364 0
M  V30 2457 H 248.337 -2.44149 1.71564 0
M  V30 2458 C 247.086 -3.46682 0.265859 0
M  V30 2459 H 246.409 -3.86101 1.03761 0
M  V30 2460 H 247.849 -4.23942 0.0701128 0
M  V30 2461 C 246.308 -3.21506 -1.00675 0
M  V30 2462 O 246.838 -3.43408 -2.08408 0
M  V30 2463 N 245.044 -2.75158 -0.934692 0
M  V30 2464 H 244.591 -2.57535 -0.0578604 0
M  V30 2465 H 244.549 -2.58691 -1.7868 0
M  V30 2466 N 248.321 -0.919034 -1.28029 0
M  V30 2467 C 249.546 -0.570357 -1.99403 0
M  V30 2468 C 249.971 0.842486 -1.68178 0
M  V30 2469 O 249.329 1.56391 -0.917141 0
M  V30 2470 C 249.377 -0.792541 -3.51783 0
M  V30 2471 O 248.481 0.145988 -4.12142 0
M  V30 2472 H 247.822 -0.220555 -0.6263 0
M  V30 2473 H 250.352 -1.23592 -1.63053 0
M  V30 2474 H 250.362 -0.704708 -4.01868 0
M  V30 2475 H 249.037 -1.82247 -3.73844 0
M  V30 2476 H 247.614 0.00897528 -3.72899 0
M  V30 2477 N 249.799 1.42003 -0.683588 0
M  V30 2478 C 251.047 2.01015 -0.209101 0
M  V30 2479 C 251.368 1.54365 1.19149 0
M  V30 2480 O 250.638 0.769083 1.80172 0
M  V30 2481 H 249.218 0.743294 -0.074315 0
M  V30 2482 H 251.88 1.73798 -0.882066 0
M  V30 2483 H 250.976 3.11343 -0.2172 0
M  V30 2484 N 251.277 0.427512 1.51691 0
M  V30 2485 C 252.21 -0.433876 2.24037 0
M  V30 2486 C 253.188 -1.03287 1.25581 0
M  V30 2487 O 254.372 -1.07722 1.54688 0
M  V30 2488 C 251.499 -1.60385 2.98319 0
M  V30 2489 C 250.545 -1.12648 4.11355 0
M  V30 2490 S 251.378 -0.076543 5.35445 0
M  V30 2491 C 252.534 -1.25141 6.13262 0
M  V30 2492 H 252.767 0.180367 2.96752 0
M  V30 2493 H 250.3 0.211946 1.52938 0
M  V30 2494 H 252.258 -2.27462 3.41718 0
M  V30 2495 H 250.919 -2.18948 2.25213 0
M  V30 2496 H 250.112 -2.0011 4.62571 0
M  V30 2497 H 249.714 -0.534088 3.70167 0
M  V30 2498 H 252.006 -2.17162 6.41753 0
M  V30 2499 H 252.949 -0.779411 7.03797 0
M  V30 2500 H 253.357 -1.48553 5.44603 0
M  V30 2501 N 252.755 -1.56801 0.158532 0
M  V30 2502 C 254.166 -1.83189 -0.360366 0
M  V30 2503 C 254.517 -1.07778 -1.63946 0
M  V30 2504 O 253.642 -0.326718 -2.13919 0
M  V30 2505 C 254.237 -3.32297 -0.660595 0
M  V30 2506 C 252.796 -3.59227 -1.12398 0
M  V30 2507 C 251.943 -2.76877 -0.153097 0
M  V30 2508 H 254.894 -1.54008 0.383031 0
M  V30 2509 H 254.915 -3.4908 -1.51405 0
M  V30 2510 H 254.427 -3.87156 0.270527 0
M  V30 2511 H 252.528 -3.09766 -2.07064 0
M  V30 2512 H 252.641 -4.67632 -1.04197 0
M  V30 2513 H 251.005 -2.46319 -0.647983 0
M  V30 2514 H 251.788 -3.34511 0.77182 0
M  V30 2515 N 254.233 0.115231 -1.57178 0
M  V30 2516 C 255.644 0.67197 -1.74188 0
M  V30 2517 C 255.995 1.80125 -0.777777 0
M  V30 2518 O 255.12 2.16346 0.0484376 0
M  V30 2519 C 255.715 1.22573 -3.1585 0
M  V30 2520 C 254.274 1.72872 -3.34353 0
M  V30 2521 C 253.421 0.629972 -2.70049 0
M  V30 2522 H 256.372 -0.110712 -1.58313 0
M  V30 2523 H 256.393 2.09535 -3.17609 0
M  V30 2524 H 255.905 0.403598 -3.85996 0
M  V30 2525 H 254.006 2.5755 -2.69256 0
M  V30 2526 H 254.119 1.83557 -4.42542 0
M  V30 2527 H 252.483 1.0645 -2.31388 0
M  V30 2528 H 253.266 -0.181241 -3.42821 0
M  V30 2529 N 255.711 1.52812 0.385517 0
M  V30 2530 C 256.959 1.67694 1.12797 0
M  V30 2531 C 257.28 0.421115 1.90399 0
M  V30 2532 O 256.55 -0.564551 1.87589 0
M  V30 2533 H 255.13 0.618155 0.419396 0
M  V30 2534 H 257.792 1.89938 0.436972 0
M  V30 2535 H 256.888 2.52896 1.82894 0
M  V30 2536 N 257.189 -0.644168 1.43834 0
M  V30 2537 C 258.152 -1.73857 1.49353 0
M  V30 2538 C 259.152 -1.56315 0.377112 0
M  V30 2539 O 260.342 -1.62048 0.639226 0
M  V30 2540 C 257.474 -3.12819 1.35488 0
M  V30 2541 H 258.667 -1.70342 2.46827 0
M  V30 2542 H 256.22 -0.856652 1.30733 0
M  V30 2543 H 256.955 -3.2194 0.390569 0
M  V30 2544 H 256.74 -3.26958 2.16428 0
M  V30 2545 H 258.23 -3.92606 1.42302 0
M  V30 2546 N 258.668 -1.30515 -0.883378 0
M  V30 2547 C 259.631 -1.1701 -1.97082 0
M  V30 2548 C 260.631 -0.10089 -1.60483 0
M  V30 2549 O 261.821 -0.349127 -1.70666 0
M  V30 2550 C 258.953 -0.793045 -3.31547 0
M  V30 2551 H 260.146 -2.13622 -2.10489 0
M  V30 2552 H 257.699 -1.13935 -1.06998 0
M  V30 2553 H 258.434 0.172499 -3.23841 0
M  V30 2554 H 258.219 -1.56576 -3.5948 0
M  V30 2555 H 259.709 -0.722073 -4.1131 0
M  V30 2556 N 260.146 1.09593 -1.13257 0
M  V30 2557 C 261.109 2.14359 -0.811358 0
M  V30 2558 C 262.109 1.59808 0.178377 0
M  V30 2559 O 263.299 1.74132 -0.0484911 0
M  V30 2560 C 260.431 3.40269 -0.207276 0
M  V30 2561 H 261.624 2.44284 -1.73969 0
M  V30 2562 H 259.177 1.25102 -0.936973 0
M  V30 2563 H 259.912 3.15969 0.73036 0
M  V30 2564 H 259.697 3.81154 -0.919992 0
M  V30 2565 H 261.187 4.176 0.000667944 0
M  V30 2566 N 261.624 0.925811 1.2754 0
M  V30 2567 C 262.873 0.561084 1.93739 0
M  V30 2568 C 263.186 -0.901685 1.73577 0
M  V30 2569 O 264.392 -1.37511 2.34101 0
M  V30 2570 C 262.848 0.952668 3.47062 0
M  V30 2571 C 262.456 2.43599 3.75983 0
M  V30 2572 C 264.2 0.659103 4.19352 0
M  V30 2573 C 262.107 2.76707 5.22673 0
M  V30 2574 H 261.037 0.206122 0.725279 0
M  V30 2575 H 263.688 1.12637 1.44863 0
M  V30 2576 H 262.07 0.316053 3.94737 0
M  V30 2577 H 263.244 3.12035 3.39073 0
M  V30 2578 H 261.559 2.70125 3.16893 0
M  V30 2579 H 264.156 0.882985 5.27359 0
M  V30 2580 H 264.499 -0.403607 4.14339 0
M  V30 2581 H 265.032 1.25473 3.77494 0
M  V30 2582 H 261.771 3.8188 5.32774 0
M  V30 2583 H 261.291 2.12919 5.60737 0
M  V30 2584 H 262.97 2.6435 5.90532 0
M  V30 2585 N 263.102 -1.41638 0.69111 0
M  V30 2586 C 264.065 -2.29178 0.0319786 0
M  V30 2587 C 265.065 -1.44153 -0.712496 0
M  V30 2588 O 266.255 -1.65354 -0.548053 0
M  V30 2589 C 263.387 -3.26952 -0.965161 0
M  V30 2590 H 264.58 -2.88959 0.802681 0
M  V30 2591 H 262.133 -1.4955 0.454356 0
M  V30 2592 H 262.868 -2.72142 -1.76378 0
M  V30 2593 H 262.653 -3.89685 -0.434522 0
M  V30 2594 H 264.143 -3.92561 -1.42428 0
M  V30 2595 N 264.58 -0.43555 -1.51462 0
M  V30 2596 C 265.826 0.131709 -2.02372 0
M  V30 2597 C 266.159 1.42516 -1.3192 0
M  V30 2598 O 265.434 1.89606 -0.433573 0
M  V30 2599 C 265.717 0.352301 -3.58373 0
M  V30 2600 C 265.57 -0.959676 -4.39443 0
M  V30 2601 C 266.889 1.12286 -4.25535 0
M  V30 2602 H 264.008 0.0463936 -0.735538 0
M  V30 2603 H 266.65 -0.574197 -1.81116 0
M  V30 2604 H 264.8 0.9536 -3.76615 0
M  V30 2605 H 266.472 -1.59482 -4.32855 0
M  V30 2606 H 264.715 -1.56468 -4.04599 0
M  V30 2607 H 265.386 -0.759394 -5.46752 0
M  V30 2608 H 267.862 0.613545 -4.11552 0
M  V30 2609 H 266.738 1.24598 -5.34571 0
M  V30 2610 H 266.999 2.15048 -3.86273 0
M  V30 2611 N 266.058 1.56714 -0.166846 0
M  V30 2612 C 266.988 2.20754 0.760913 0
M  V30 2613 C 267.969 1.16178 1.24244 0
M  V30 2614 O 269.154 1.44592 1.29641 0
M  V30 2615 C 266.284 2.84478 1.99223 0
M  V30 2616 C 265.238 3.95053 1.64672 0
M  V30 2617 C 264.564 4.45805 2.95232 0
M  V30 2618 C 265.864 5.14865 0.878155 0
M  V30 2619 H 267.558 2.98537 0.22713 0
M  V30 2620 H 265.104 1.43596 0.107805 0
M  V30 2621 H 267.057 3.27951 2.64624 0
M  V30 2622 H 265.781 2.04056 2.55007 0
M  V30 2623 H 264.44 3.52228 1.01641 0
M  V30 2624 H 264.088 3.62181 3.49047 0
M  V30 2625 H 263.788 5.204 2.7287 0
M  V30 2626 H 265.312 4.91962 3.6167 0
M  V30 2627 H 266.726 5.55059 1.43466 0
M  V30 2628 H 265.123 5.95348 0.753738 0
M  V30 2629 H 266.193 4.84735 -0.126377 0
M  V30 2630 N 267.536 -0.106894 1.57237 0
M  V30 2631 C 268.947 -0.662723 1.74542 0
M  V30 2632 C 269.298 -1.7971 0.787319 0
M  V30 2633 O 268.423 -2.16368 -0.0369636 0
M  V30 2634 C 269.018 -1.20896 3.16496 0
M  V30 2635 C 267.577 -1.71096 3.35266 0
M  V30 2636 C 266.724 -0.615642 2.7038 0
M  V30 2637 H 269.675 0.119106 1.58252 0
M  V30 2638 H 269.696 -2.07847 3.18716 0
M  V30 2639 H 269.208 -0.383122 3.86204 0
M  V30 2640 H 267.309 -2.56119 2.70618 0
M  V30 2641 H 267.422 -1.81208 4.43509 0
M  V30 2642 H 265.786 -1.05222 2.31949 0
M  V30 2643 H 266.569 0.199419 3.4272 0
M  V30 2644 N 269.014 -1.53014 -0.377408 0
M  V30 2645 C 270.26 -1.68872 -1.12294 0
M  V30 2646 C 270.593 -0.433224 -1.89306 0
M  V30 2647 O 269.868 0.569258 -1.85983 0
M  V30 2648 C 270.151 -2.93115 -2.09179 0
M  V30 2649 C 270.004 -4.28794 -1.35853 0
M  V30 2650 C 271.323 -3.12928 -3.09458 0
M  V30 2651 H 268.442 -0.614518 -0.406862 0
M  V30 2652 H 271.084 -1.85633 -0.40503 0
M  V30 2653 H 269.234 -2.78956 -2.70399 0
M  V30 2654 H 270.906 -4.54742 -0.775082 0
M  V30 2655 H 269.149 -4.28744 -0.660364 0
M  V30 2656 H 269.82 -5.11837 -2.06706 0
M  V30 2657 H 272.296 -3.26194 -2.58334 0
M  V30 2658 H 271.172 -4.01316 -3.74482 0
M  V30 2659 H 271.433 -2.27669 -3.78971 0
M  V30 2660 N 270.492 0.636531 -1.44174 0
M  V30 2661 C 271.72 1.42353 -1.50144 0
M  V30 2662 C 272.135 1.88389 -0.124575 0
M  V30 2663 O 271.492 1.6051 0.868489 0
M  V30 2664 C 271.543 2.64744 -2.46156 0
M  V30 2665 O 271.264 2.20629 -3.7849 0
M  V30 2666 C 272.765 3.57929 -2.61537 0
M  V30 2667 H 269.985 0.436752 -0.5094 0
M  V30 2668 H 272.529 0.778933 -1.89084 0
M  V30 2669 H 270.684 3.25307 -2.10366 0
M  V30 2670 H 271.098 2.99938 -4.30276 0
M  V30 2671 H 272.572 4.40428 -3.32757 0
M  V30 2672 H 273.049 4.06382 -1.66585 0
M  V30 2673 H 273.655 3.03238 -2.98206 0
M  V30 2674 N 271.97 1.30982 0.876444 0
M  V30 2675 C 272.9 1.20668 1.99903 0
M  V30 2676 C 273.881 0.095354 1.69833 0
M  V30 2677 O 275.066 0.27885 1.92188 0
M  V30 2678 C 272.196 0.90655 3.3526 0
M  V30 2679 C 271.15 1.97675 3.79617 0
M  V30 2680 C 270.476 1.52943 5.1236 0
M  V30 2681 C 271.776 3.389 3.97422 0
M  V30 2682 H 273.47 2.14586 2.0879 0
M  V30 2683 H 271.016 1.03308 1.00317 0
M  V30 2684 H 272.969 0.821025 4.13324 0
M  V30 2685 H 271.693 -0.0682969 3.26529 0
M  V30 2686 H 270.352 2.05205 3.03787 0
M  V30 2687 H 270 0.54262 5.00065 0
M  V30 2688 H 269.7 2.24532 5.43009 0
M  V30 2689 H 271.224 1.45786 5.92941 0
M  V30 2690 H 272.638 3.34081 4.659 0
M  V30 2691 H 271.035 4.0865 4.3946 0
M  V30 2692 H 272.105 3.80163 3.01006 0
M  V30 2693 N 273.449 -1.08991 1.13837 0
M  V30 2694 C 274.726 -1.77863 0.813876 0
M  V30 2695 C 275.106 -1.99375 -0.693746 0
M  V30 2696 O 274.454 -1.59875 -1.63255 0
M  V30 2697 C 274.664 -3.0986 1.60586 0
M  V30 2698 C 276.012 -3.84493 1.8014 0
M  V30 2699 O 277.036 -3.19624 1.57222 0
M  V30 2700 O 275.895 -5.00957 2.18413 0
M  V30 2701 H 272.989 -0.771589 0.297624 0
M  V30 2702 H 275.535 -1.15507 1.24323 0
M  V30 2703 H 274.307 -2.89715 2.63022 0
M  V30 2704 H 273.93 -3.79942 1.17173 0
M  V30 2705 N 274.927 -0.932562 -1.27047 0
M  V30 2706 C 276.155 -0.592031 -1.98249 0
M  V30 2707 C 276.57 0.831062 -1.69525 0
M  V30 2708 O 275.927 1.55299 -0.958561 0
M  V30 2709 C 275.978 -0.814279 -3.5221 0
M  V30 2710 O 275.699 -2.18139 -3.7993 0
M  V30 2711 C 277.2 -0.483121 -4.4066 0
M  V30 2712 H 274.42 -0.223896 -0.632544 0
M  V30 2713 H 276.964 -1.25091 -1.61779 0
M  V30 2714 H 275.119 -0.20213 -3.86872 0
M  V30 2715 H 275.533 -2.235 -4.74498 0
M  V30 2716 H 277.007 -0.689298 -5.47679 0
M  V30 2717 H 277.484 0.581546 -4.35333 0
M  V30 2718 H 278.09 -1.07362 -4.11526 0
M  V30 2719 N 276.405 1.4127 -0.698611 0
M  V30 2720 C 277.816 1.84187 -0.305289 0
M  V30 2721 C 278.167 1.58449 1.15708 0
M  V30 2722 O 277.292 1.05651 1.88856 0
M  V30 2723 C 277.887 3.3435 -0.547314 0
M  V30 2724 C 276.446 3.75826 -0.207878 0
M  V30 2725 C 275.593 2.64647 -0.828099 0
M  V30 2726 H 278.544 1.30778 -0.89904 0
M  V30 2727 H 278.565 3.8001 0.192998 0
M  V30 2728 H 278.077 3.53051 -1.61172 0
M  V30 2729 H 276.178 3.62725 0.852143 0
M  V30 2730 H 276.291 4.74462 -0.665021 0
M  V30 2731 H 274.655 2.53395 -0.257458 0
M  V30 2732 H 275.438 2.86165 -1.89643 0
M  V30 2733 N 277.883 0.443576 1.51229 0
M  V30 2734 C 278.816 -0.410089 2.24485 0
M  V30 2735 C 279.794 -1.01949 1.26669 0
M  V30 2736 O 280.978 -1.06075 1.55821 0
M  V30 2737 C 278.105 -1.57211 3.00004 0
M  V30 2738 C 277.151 -1.08279 4.12526 0
M  V30 2739 S 277.984 -0.0197476 5.35496 0
M  V30 2740 C 279.14 -1.18629 6.14555 0
M  V30 2741 H 279.373 0.211832 2.96544 0
M  V30 2742 H 276.906 0.228156 1.52705 0
M  V30 2743 H 278.864 -2.23825 3.44111 0
M  V30 2744 H 277.525 -2.16547 2.27522 0
M  V30 2745 H 276.718 -1.95193 4.64667 0
M  V30 2746 H 276.32 -0.494797 3.70713 0
M  V30 2747 H 278.612 -2.10344 6.4402 0
M  V30 2748 H 279.555 -0.70472 7.04584 0
M  V30 2749 H 279.963 -1.42768 5.46148 0
M  V30 2750 N 279.361 -1.56624 0.175154 0
M  V30 2751 C 280.309 -2.19468 -0.770495 0
M  V30 2752 C 281.303 -1.15985 -1.23466 0
M  V30 2753 O 282.509 -1.34176 -1.19987 0
M  V30 2754 H 278.884 -0.703095 -0.266761 0
M  V30 2755 H 280.855 -2.97613 -0.216542 0
M  V30 2756 C 279.604 -2.85264 -1.98796 0
M  V30 2757 H 278.927 -3.64623 -1.63983 0
M  V30 2758 H 280.367 -3.327 -2.62843 0
M  V30 2759 C 278.826 -1.85239 -2.81404 0
M  V30 2760 O 279.356 -1.34024 -3.78682 0
M  V30 2761 N 277.562 -1.53911 -2.46495 0
M  V30 2762 H 277.109 -1.95751 -1.67449 0
M  V30 2763 H 277.067 -0.872382 -3.02054 0
M  V30 2764 N 280.839 0.0985539 -1.57292 0
M  V30 2765 C 282.255 0.45267 -1.53046 0
M  V30 2766 C 282.455 1.80713 -0.891342 0
M  V30 2767 O 281.511 2.4785 -0.482375 0
M  V30 2768 C 282.824 0.418341 -2.97776 0
M  V30 2769 C 284.372 0.500443 -3.08973 0
M  V30 2770 C 284.847 0.496297 -4.55303 0
M  V30 2771 N 286.338 0.557151 -4.59837 0
M  V30 2772 C 287.073 0.575726 -5.70502 0
M  V30 2773 N 286.569 0.550714 -6.90608 0
M  V30 2774 N 288.362 0.620277 -5.58667 0
M  V30 2775 H 280.513 -0.788673 -1.97215 0
M  V30 2776 H 282.776 -0.293188 -0.901524 0
M  V30 2777 H 282.482 -0.509659 -3.47988 0
M  V30 2778 H 282.356 1.2386 -3.56284 0
M  V30 2779 H 284.743 1.41886 -2.58751 0
M  V30 2780 H 284.824 -0.347894 -2.53423 0
M  V30 2781 H 284.468 -0.418162 -5.06176 0
M  V30 2782 H 284.398 1.3618 -5.08687 0
M  V30 2783 H 286.889 0.581816 -3.73394 0
M  V30 2784 H 287.202 0.568075 -7.70709 0
M  V30 2785 H 285.547 0.517816 -6.93068 0
M  V30 2786 H 288.738 0.637322 -4.63741 0
M  V30 2787 H 288.911 0.631283 -6.44918 0
M  V30 2788 N 282.317 1.53212 0.369288 0
M  V30 2789 C 283.264 1.79388 1.45219 0
M  V30 2790 C 284.234 0.638059 1.53356 0
M  V30 2791 O 285.419 0.879852 1.69302 0
M  V30 2792 C 282.559 1.98623 2.82211 0
M  V30 2793 C 281.672 3.26337 2.8307 0
M  V30 2794 C 280.807 3.35779 4.11614 0
M  V30 2795 C 279.846 4.5754 4.06601 0
M  V30 2796 N 278.983 4.64155 5.26787 0
M  V30 2797 H 283.823 2.71794 1.22198 0
M  V30 2798 H 281.36 1.34642 0.592444 0
M  V30 2799 H 283.318 2.07761 3.61789 0
M  V30 2800 H 281.948 1.09558 3.03639 0
M  V30 2801 H 281 3.26171 1.95747 0
M  V30 2802 H 282.312 4.15988 2.75237 0
M  V30 2803 H 281.466 3.44208 4.99606 0
M  V30 2804 H 280.205 2.44137 4.22195 0
M  V30 2805 H 279.21 4.49215 3.16996 0
M  V30 2806 H 280.435 5.50519 3.97625 0
M  V30 2807 H 278.381 3.75413 5.3796 0
M  V30 2808 H 278.298 5.47706 5.21109 0
M  V30 2809 H 279.566 4.76863 6.16621 0
M  V30 2810 N 283.795 -0.628877 1.44509 0
M  V30 2811 C 285.02 -1.42048 1.5112 0
M  V30 2812 C 285.445 -1.87594 0.137818 0
M  V30 2813 O 284.803 -1.58873 -0.873437 0
M  V30 2814 C 284.851 -2.61541 2.48251 0
M  V30 2815 O 283.955 -3.61453 1.98559 0
M  V30 2816 H 283.296 -0.424942 0.510216 0
M  V30 2817 H 285.826 -0.767374 1.89664 0
M  V30 2818 H 285.836 -3.09057 2.66361 0
M  V30 2819 H 284.511 -2.27736 3.48007 0
M  V30 2820 H 283.088 -3.20731 1.90227 0
M  V30 2821 N 285.273 -1.31445 -0.869486 0
M  V30 2822 C 286.206 -1.13465 -1.97992 0
M  V30 2823 C 287.184 -0.0380291 -1.62556 0
M  V30 2824 O 288.368 -0.194544 -1.87493 0
M  V30 2825 C 285.495 -0.733822 -3.30655 0
M  V30 2826 C 284.541 -1.83356 -3.85075 0
M  V30 2827 S 285.374 -3.43909 -4.10472 0
M  V30 2828 C 286.53 -3.05763 -5.46132 0
M  V30 2829 H 286.763 -2.07471 -2.1294 0
M  V30 2830 H 284.296 -1.15936 -1.01972 0
M  V30 2831 H 286.254 -0.509306 -4.07328 0
M  V30 2832 H 284.915 0.187123 -3.13542 0
M  V30 2833 H 284.108 -1.50574 -4.80982 0
M  V30 2834 H 283.71 -2.01315 -3.15195 0
M  V30 2835 H 286.002 -2.54686 -6.27807 0
M  V30 2836 H 286.945 -4.00635 -5.83864 0
M  V30 2837 H 287.353 -2.43192 -5.09429 0
M  V30 2838 N 286.751 1.08385 -1.14413 0
M  V30 2839 C 288.162 1.62258 -0.923535 0
M  V30 2840 C 288.513 1.88691 0.537595 0
M  V30 2841 O 287.638 1.64454 1.40655 0
M  V30 2842 C 288.233 2.94781 -1.67002 0
M  V30 2843 C 286.792 3.45437 -1.495 0
M  V30 2844 C 285.939 2.19668 -1.69238 0
M  V30 2845 H 288.89 0.916086 -1.2959 0
M  V30 2846 H 288.911 3.63229 -1.13334 0
M  V30 2847 H 288.423 2.7551 -2.73342 0
M  V30 2848 H 286.524 3.6981 -0.455097 0
M  V30 2849 H 286.637 4.22173 -2.2651 0
M  V30 2850 H 285.001 2.28849 -1.11804 0
M  V30 2851 H 285.784 2.02905 -2.7692 0
M  V30 2852 N 288.23 0.939286 1.26551 0
M  V30 2853 C 289.14 0.453432 2.30176 0
M  V30 2854 C 290.156 -0.471649 1.67486 0
M  V30 2855 O 291.332 -0.35164 1.98306 0
M  V30 2856 C 288.397 -0.275326 3.45605 0
M  V30 2857 C 287.458 0.686084 4.23782 0
M  V30 2858 C 286.691 -0.00798994 5.33699 0
M  V30 2859 O 286.914 -1.22528 5.57085 0
M  V30 2860 O 285.848 0.669746 5.98162 0
M  V30 2861 H 289.674 1.31416 2.73795 0
M  V30 2862 H 287.259 0.705095 1.31715 0
M  V30 2863 H 289.141 -0.685911 4.1578 0
M  V30 2864 H 287.816 -1.11147 3.0402 0
M  V30 2865 H 286.723 1.14658 3.56096 0
M  V30 2866 H 288.056 1.48979 4.69112 0
M  V30 2867 N 289.708 -1.40897 0.706093 0
M  V30 2868 C 290.671 -2.29131 0.0562841 0
M  V30 2869 C 291.671 -1.44901 -0.697166 0
M  V30 2870 O 292.861 -1.65926 -0.530484 0
M  V30 2871 C 289.993 -3.27957 -0.93043 0
M  V30 2872 H 291.186 -2.88091 0.833284 0
M  V30 2873 H 288.739 -1.4906 0.470192 0
M  V30 2874 H 289.474 -2.73997 -1.73482 0
M  V30 2875 H 289.259 -3.90124 -0.393166 0
M  V30 2876 H 290.749 -3.94049 -1.38256 0
M  V30 2877 N 291.186 -0.45159 -1.50991 0
M  V30 2878 C 292.463 0.170707 -1.94854 0
M  V30 2879 C 292.843 1.58788 -1.39103 0
M  V30 2880 O 292.191 2.20913 -0.583921 0
M  V30 2881 C 292.401 0.133929 -3.48743 0
M  V30 2882 C 293.749 0.33248 -4.23296 0
M  V30 2883 O 294.773 0.211403 -3.55572 0
M  V30 2884 O 293.632 0.57486 -5.43468 0
M  V30 2885 H 290.726 0.122264 -0.817912 0
M  V30 2886 H 293.272 -0.510594 -1.61836 0
M  V30 2887 H 292.044 -0.856283 -3.81816 0
M  V30 2888 H 291.667 0.857529 -3.88242 0
M  V30 2889 N 292.664 1.56529 -0.183458 0
M  V30 2890 C 293.911 1.97244 0.458357 0
M  V30 2891 C 294.239 1.06992 1.62428 0
M  V30 2892 O 293.494 0.106542 1.9541 0
M  V30 2893 C 293.793 3.43939 0.971637 0
M  V30 2894 C 293.459 4.5083 -0.0796784 0
M  V30 2895 C 292.121 4.79786 -0.368584 0
M  V30 2896 C 294.473 5.15138 -0.792638 0
M  V30 2897 C 291.801 5.70345 -1.37563 0
M  V30 2898 C 294.153 6.06784 -1.78875 0
M  V30 2899 C 292.817 6.34102 -2.08497 0
M  V30 2900 H 292.087 0.721768 0.167725 0
M  V30 2901 H 294.734 1.89472 -0.277976 0
M  V30 2902 H 293.039 3.48724 1.78602 0
M  V30 2903 H 294.736 3.72791 1.47744 0
M  V30 2904 H 291.326 4.28317 0.155668 0
M  V30 2905 H 295.51 4.92868 -0.582659 0
M  V30 2906 H 290.766 5.89789 -1.61118 0
M  V30 2907 H 294.94 6.55677 -2.3465 0
M  V30 2908 H 292.567 7.04074 -2.86678 0
M  V30 2909 N 294.142 -0.090211 1.57342 0
M  V30 2910 C 295.367 -0.810082 1.90925 0
M  V30 2911 C 295.792 -1.71248 0.778187 0
M  V30 2912 O 295.15 -1.79278 -0.269991 0
M  V30 2913 C 295.198 -1.59529 3.23393 0
M  V30 2914 O 294.302 -2.70461 3.11327 0
M  V30 2915 H 293.643 -0.222231 0.625707 0
M  V30 2916 H 296.173 -0.0639716 2.045 0
M  V30 2917 H 296.183 -1.97847 3.5682 0
M  V30 2918 H 294.858 -0.933055 4.05299 0
M  V30 2919 H 293.435 -2.35135 2.89423 0
M  V30 2920 N 295.62 -1.53406 -0.361157 0
M  V30 2921 C 296.845 -1.74024 -1.12829 0
M  V30 2922 C 297.27 -0.470069 -1.82132 0
M  V30 2923 O 296.628 0.57619 -1.719 0
M  V30 2924 C 296.676 -2.90903 -2.13091 0
M  V30 2925 O 295.78 -2.59821 -3.20261 0
M  V30 2926 H 295.121 -0.577804 -0.327168 0
M  V30 2927 H 297.651 -2.00307 -0.41693 0
M  V30 2928 H 297.661 -3.17194 -2.56616 0
M  V30 2929 H 296.336 -3.83034 -1.62042 0
M  V30 2930 H 294.913 -2.44362 -2.81677 0
M  V30 2931 N 297.098 0.621204 -1.44841 0
M  V30 2932 C 298.344 1.38073 -1.49357 0
M  V30 2933 C 298.699 1.91973 -0.128115 0
M  V30 2934 O 297.992 1.71311 0.858087 0
M  V30 2935 C 298.186 2.55675 -2.4973 0
M  V30 2936 C 298.015 2.13289 -3.95901 0
M  V30 2937 C 296.785 2.001 -4.63991 0
M  V30 2938 C 298.983 1.7159 -4.84831 0
M  V30 2939 N 296.965 1.51381 -5.94943 0
M  V30 2940 C 298.336 1.34188 -6.05304 0
M  V30 2941 C 300.391 1.59059 -4.7181 0
M  V30 2942 C 299.094 0.855085 -7.14199 0
M  V30 2943 C 301.12 1.11784 -5.8074 0
M  V30 2944 C 300.482 0.753385 -7.0036 0
M  V30 2945 H 296.581 0.499675 -0.601539 0
M  V30 2946 H 299.165 0.711609 -1.8123 0
M  V30 2947 H 297.336 3.20201 -2.19832 0
M  V30 2948 H 299.068 3.22509 -2.4448 0
M  V30 2949 H 295.823 2.20863 -4.18947 0
M  V30 2950 H 296.247 1.29293 -6.64539 0
M  V30 2951 H 300.889 1.85865 -3.79755 0
M  V30 2952 H 298.607 0.574552 -8.06055 0
M  V30 2953 H 302.193 1.02533 -5.72694 0
M  V30 2954 H 301.073 0.393183 -7.83214 0
M  V30 2955 N 298.576 1.31904 0.862503 0
M  V30 2956 C 299.804 1.24998 1.64873 0
M  V30 2957 C 300.219 -0.183425 1.87907 0
M  V30 2958 O 299.576 -1.11794 1.44251 0
M  V30 2959 C 299.627 1.99829 3.01248 0
M  V30 2960 O 299.348 3.37575 2.79239 0
M  V30 2961 C 300.849 1.99852 3.95694 0
M  V30 2962 H 298.069 0.431599 0.513773 0
M  V30 2963 H 300.613 1.73901 1.07604 0
M  V30 2964 H 298.768 1.54668 3.55185 0
M  V30 2965 H 299.182 3.75776 3.65914 0
M  V30 2966 H 300.656 2.56709 4.88676 0
M  V30 2967 H 301.133 0.982852 4.28062 0
M  V30 2968 H 301.739 2.44926 3.47694 0
M  V30 2969 N 300.054 -1.07777 1.14986 0
M  V30 2970 C 301.465 -1.61766 0.932127 0
M  V30 2971 C 301.816 -1.88974 -0.527581 0
M  V30 2972 O 300.941 -1.65198 -1.39781 0
M  V30 2973 C 301.536 -2.93891 1.68563 0
M  V30 2974 C 300.095 -3.44639 1.5133 0
M  V30 2975 C 299.242 -2.18767 1.704 0
M  V30 2976 H 302.193 -0.909201 1.30074 0
M  V30 2977 H 302.214 -3.62623 1.15259 0
M  V30 2978 H 301.726 -2.74057 2.74799 0
M  V30 2979 H 299.827 -3.69564 0.474702 0
M  V30 2980 H 299.94 -4.20966 2.28746 0
M  V30 2981 H 298.304 -2.28253 1.13016 0
M  V30 2982 H 299.087 -2.01433 2.77992 0
M  V30 2983 N 301.532 -0.945985 -1.26051 0
M  V30 2984 C 302.462 -0.477172 -2.28572 0
M  V30 2985 C 303.443 0.472032 -1.63419 0
M  V30 2986 O 304.628 0.372853 -1.90587 0
M  V30 2987 C 301.758 0.253975 -3.4637 0
M  V30 2988 C 300.712 -0.609135 -4.23643 0
M  V30 2989 C 300.038 0.252252 -5.34105 0
M  V30 2990 C 301.338 -1.8829 -4.8718 0
M  V30 2991 H 303.032 -1.33402 -2.68038 0
M  V30 2992 H 300.578 -0.642904 -1.28852 0
M  V30 2993 H 302.531 0.593016 -4.17207 0
M  V30 2994 H 301.255 1.145 -3.05871 0
M  V30 2995 H 299.914 -0.931138 -3.54578 0
M  V30 2996 H 299.562 1.14278 -4.89846 0
M  V30 2997 H 299.262 -0.32188 -5.86718 0
M  V30 2998 H 300.786 0.586454 -6.07777 0
M  V30 2999 H 302.2 -1.61081 -5.50205 0
M  V30 3000 H 300.597 -2.40199 -5.49931 0
M  V30 3001 H 301.667 -2.59134 -4.09851 0
M  V30 3002 N 303.011 1.40521 -0.713556 0
M  V30 3003 C 303.921 2.34522 -0.0606667 0
M  V30 3004 C 304.937 1.57193 0.74607 0
M  V30 3005 O 306.113 1.89591 0.679493 0
M  V30 3006 C 303.178 3.36081 0.851491 0
M  V30 3007 C 302.239 4.29286 0.0349339 0
M  V30 3008 C 301.472 5.25994 0.903649 0
M  V30 3009 O 301.695 5.28616 2.14292 0
M  V30 3010 O 300.629 6.00918 0.343723 0
M  V30 3011 H 304.455 2.91968 -0.835972 0
M  V30 3012 H 302.04 1.41681 -0.47402 0
M  V30 3013 H 303.922 3.98369 1.37404 0
M  V30 3014 H 302.597 2.81052 1.60598 0
M  V30 3015 H 301.504 3.70289 -0.532633 0
M  V30 3016 H 302.837 4.87462 -0.681287 0
M  V30 3017 N 304.489 0.459591 1.5075 0
M  V30 3018 C 305.736 -0.0993495 2.02256 0
M  V30 3019 C 306.064 -1.40751 1.34237 0
M  V30 3020 O 305.319 -1.90379 0.453228 0
M  V30 3021 C 305.618 -0.342866 3.55752 0
M  V30 3022 C 305.284 0.88218 4.42186 0
M  V30 3023 C 303.946 1.21808 4.65528 0
M  V30 3024 C 306.298 1.69837 4.92752 0
M  V30 3025 C 303.626 2.37045 5.36681 0
M  V30 3026 C 305.978 2.84192 5.65171 0
M  V30 3027 C 304.642 3.1821 5.8677 0
M  V30 3028 H 303.912 -0.0363545 0.740108 0
M  V30 3029 H 306.559 0.611329 1.8148 0
M  V30 3030 H 304.864 -1.13567 3.7498 0
M  V30 3031 H 306.561 -0.789121 3.93159 0
M  V30 3032 H 303.151 0.610467 4.2423 0
M  V30 3033 H 307.335 1.45205 4.74583 0
M  V30 3034 H 302.591 2.63689 5.51614 0
M  V30 3035 H 306.765 3.4779 6.03337 0
M  V30 3036 H 304.392 4.07613 6.41682 0
M  V30 3037 N 305.967 -1.56429 0.191757 0
M  V30 3038 C 306.897 -2.21937 -0.725696 0
M  V30 3039 C 307.878 -1.1814 -1.2238 0
M  V30 3040 O 309.063 -1.46636 -1.27325 0
M  V30 3041 C 306.193 -2.87611 -1.94672 0
M  V30 3042 C 305.147 -3.97623 -1.58366 0
M  V30 3043 C 304.473 -4.50446 -2.88102 0
M  V30 3044 C 305.773 -5.16197 -0.796133 0
M  V30 3045 H 307.467 -2.98861 -0.179606 0
M  V30 3046 H 305.013 -1.43749 -0.0849464 0
M  V30 3047 H 306.966 -3.3212 -2.59373 0
M  V30 3048 H 305.69 -2.08087 -2.51728 0
M  V30 3049 H 304.349 -3.53801 -0.960247 0
M  V30 3050 H 303.997 -3.67688 -3.43241 0
M  V30 3051 H 303.697 -5.24675 -2.64556 0
M  V30 3052 H 305.221 -4.97654 -3.53798 0
M  V30 3053 H 306.635 -5.57271 -1.34618 0
M  V30 3054 H 305.032 -5.96471 -0.658928 0
M  V30 3055 H 306.102 -4.84473 0.203478 0
M  V30 3056 N 307.445 0.0818655 -1.57387 0
M  V30 3057 C 308.691 0.784074 -1.8703 0
M  V30 3058 C 309.024 1.77729 -0.782689 0
M  V30 3059 O 308.299 1.93384 0.208051 0
M  V30 3060 C 308.582 1.50105 -3.27323 0
M  V30 3061 C 308.435 0.524925 -4.46727 0
M  V30 3062 C 309.754 2.44843 -3.65705 0
M  V30 3063 H 306.873 0.283582 -0.680257 0
M  V30 3064 H 309.515 0.0474352 -1.89941 0
M  V30 3065 H 307.665 2.12897 -3.24972 0
M  V30 3066 H 309.337 -0.0970111 -4.61198 0
M  V30 3067 H 307.58 -0.160606 -4.33503 0
M  V30 3068 H 308.251 1.064 -5.41648 0
M  V30 3069 H 310.727 1.92135 -3.69085 0
M  V30 3070 H 309.603 2.92018 -4.64776 0
M  V30 3071 H 309.864 3.29197 -2.95096 0
M  V30 3072 N 308.923 1.53595 0.353017 0
M  V30 3073 C 309.833 1.83897 1.45667 0
M  V30 3074 C 310.849 0.728334 1.58023 0
M  V30 3075 O 312.025 1.01968 1.73679 0
M  V30 3076 C 309.09 2.03383 2.80778 0
M  V30 3077 C 308.151 3.27262 2.77845 0
M  V30 3078 C 307.384 3.45809 4.06512 0
M  V30 3079 O 307.607 2.68387 5.03314 0
M  V30 3080 O 306.541 4.39207 4.11559 0
M  V30 3081 H 310.367 2.77686 1.2298 0
M  V30 3082 H 307.952 1.39132 0.544308 0
M  V30 3083 H 309.834 2.17698 3.60812 0
M  V30 3084 H 308.509 1.12783 3.03417 0
M  V30 3085 H 307.416 3.18359 1.96465 0
M  V30 3086 H 308.749 4.17824 2.60161 0
M  V30 3087 N 310.401 -0.613514 1.45168 0
M  V30 3088 C 311.629 -1.39946 1.5239 0
M  V30 3089 C 312.044 -1.88167 0.154531 0
M  V30 3090 O 311.401 -1.61872 -0.842843 0
M  V30 3091 C 311.452 -2.60795 2.50337 0
M  V30 3092 O 311.173 -2.1458 3.81952 0
M  V30 3093 C 312.674 -3.53723 2.67198 0
M  V30 3094 H 309.894 -0.428593 0.516284 0
M  V30 3095 H 312.438 -0.748753 1.903 0
M  V30 3096 H 310.593 -3.21919 2.15515 0
M  V30 3097 H 311.007 -2.93055 4.34993 0
M  V30 3098 H 312.481 -4.35079 3.39721 0
M  V30 3099 H 312.958 -4.0368 1.73029 0
M  V30 3100 H 313.564 -2.98456 3.02992 0
M  V30 3101 N 311.879 -1.3236 -0.855495 0
M  V30 3102 C 313.126 -1.22872 -1.60962 0
M  V30 3103 C 313.454 0.209658 -1.93367 0
M  V30 3104 O 312.709 1.16243 -1.57436 0
M  V30 3105 C 313.008 -2.03275 -2.93963 0
M  V30 3106 C 312.674 -3.5264 -2.80991 0
M  V30 3107 C 311.336 -3.93364 -2.7716 0
M  V30 3108 C 313.688 -4.47626 -2.66983 0
M  V30 3109 C 311.016 -5.27319 -2.572 0
M  V30 3110 C 313.368 -5.81723 -2.48558 0
M  V30 3111 C 312.032 -6.2165 -2.4312 0
M  V30 3112 H 311.302 -0.44962 -0.589001 0
M  V30 3113 H 313.949 -1.63777 -0.992442 0
M  V30 3114 H 312.254 -1.55095 -3.59795 0
M  V30 3115 H 313.951 -1.93303 -3.51333 0
M  V30 3116 H 310.541 -3.20295 -2.84797 0
M  V30 3117 H 314.725 -4.17084 -2.68988 0
M  V30 3118 H 309.981 -5.57311 -2.51424 0
M  V30 3119 H 314.155 -6.5494 -2.36699 0
M  V30 3120 H 311.782 -7.25388 -2.27412 0
M  V30 3121 N 313.357 1.07166 -1.15556 0
M  V30 3122 C 314.307 2.12649 -0.82247 0
M  V30 3123 C 315.291 1.59725 0.194129 0
M  V30 3124 O 316.483 1.76999 -0.00540402 0
M  V30 3125 C 313.612 3.41847 -0.315572 0
M  V30 3126 C 312.698 4.0162 -1.36244 0
M  V30 3127 N 313.089 4.35625 -2.5703 0
M  V30 3128 C 311.387 4.29114 -1.21562 0
M  V30 3129 C 312.088 4.83017 -3.24144 0
M  V30 3130 N 311.064 4.81906 -2.51531 0
M  V30 3131 H 314.866 2.36776 -1.74111 0
M  V30 3132 H 312.38 1.24622 -1.0413 0
M  V30 3133 H 314.377 4.16859 -0.0585855 0
M  V30 3134 H 313.037 3.19163 0.597105 0
M  V30 3135 H 314.048 4.26253 -2.94158 0
M  V30 3136 H 310.725 4.15919 -0.362988 0
M  V30 3137 H 312.115 5.18605 -4.27198 0
M  V30 3138 N 314.835 0.952656 1.25548 0
M  V30 3139 C 316.112 0.523818 1.88456 0
M  V30 3140 C 316.492 -0.998871 1.85973 0
M  V30 3141 O 315.84 -1.86381 1.3219 0
M  V30 3142 C 316.05 1.0982 3.31271 0
M  V30 3143 C 317.398 1.17385 4.08051 0
M  V30 3144 O 318.422 1.04961 3.40384 0
M  V30 3145 O 317.281 1.36852 5.29088 0
M  V30 3146 H 314.375 0.172485 0.808813 0
M  V30 3147 H 316.921 1.04596 1.33633 0
M  V30 3148 H 315.693 2.1415 3.27499 0
M  V30 3149 H 315.316 0.559191 3.93648 0
M  V30 3150 N 316.313 -1.40141 0.720998 0
M  V30 3151 C 317.559 -2.01572 0.272075 0
M  V30 3152 C 317.914 -1.5616 -1.12391 0
M  V30 3153 O 317.207 -0.774198 -1.75262 0
M  V30 3154 C 317.401 -3.56165 0.296892 0
M  V30 3155 C 317.23 -4.16584 1.69375 0
M  V30 3156 C 316 -4.49783 2.30269 0
M  V30 3157 C 318.198 -4.41076 2.64493 0
M  V30 3158 N 316.18 -4.95626 3.62254 0
M  V30 3159 C 317.551 -4.88971 3.81192 0
M  V30 3160 C 319.606 -4.23122 2.62435 0
M  V30 3161 C 318.309 -5.20796 4.96149 0
M  V30 3162 C 320.335 -4.56052 3.76524 0
M  V30 3163 C 319.697 -5.04141 4.91956 0
M  V30 3164 H 315.796 -0.768343 0.145511 0
M  V30 3165 H 318.38 -1.70287 0.943959 0
M  V30 3166 H 316.551 -3.86868 -0.344578 0
M  V30 3167 H 318.283 -4.04346 -0.169254 0
M  V30 3168 H 315.038 -4.37101 1.82318 0
M  V30 3169 H 315.462 -5.22923 4.29977 0
M  V30 3170 H 320.104 -3.85158 1.74393 0
M  V30 3171 H 317.822 -5.57672 5.84831 0
M  V30 3172 H 321.408 -4.43796 3.76213 0
M  V30 3173 H 320.288 -5.29142 5.78774 0
M  V30 3174 N 317.792 -0.46758 -1.50504 0
M  V30 3175 C 319.041 0.0902868 -2.01498 0
M  V30 3176 C 319.354 1.411 -1.35463 0
M  V30 3177 O 320.56 2.0536 -1.77594 0
M  V30 3178 C 319.016 0.21142 -3.59278 0
M  V30 3179 C 318.624 -1.10065 -4.34269 0
M  V30 3180 C 320.368 0.721433 -4.18325 0
M  V30 3181 C 318.275 -0.943505 -5.83825 0
M  V30 3182 H 317.205 0.037517 -0.753066 0
M  V30 3183 H 319.856 -0.601943 -1.73346 0
M  V30 3184 H 318.238 0.967352 -3.84003 0
M  V30 3185 H 319.412 -1.86726 -4.21272 0
M  V30 3186 H 317.727 -1.5415 -3.86816 0
M  V30 3187 H 320.324 0.85598 -5.27804 0
M  V30 3188 H 320.667 1.71186 -3.79475 0
M  V30 3189 H 321.2 0.0229843 -3.97793 0
M  V30 3190 H 317.939 -1.90719 -6.27141 0
M  V30 3191 H 317.459 -0.217213 -5.99407 0
M  V30 3192 H 319.138 -0.608715 -6.4413 0
M  V30 3193 N 319.27 1.56325 -0.20005 0
M  V30 3194 C 320.498 2.02105 0.442874 0
M  V30 3195 C 320.913 1.08014 1.5485 0
M  V30 3196 O 320.27 0.0858797 1.82298 0
M  V30 3197 C 320.321 3.47549 0.994583 0
M  V30 3198 O 320.042 4.38049 -0.0669322 0
M  V30 3199 C 321.543 4.0887 1.7129 0
M  V30 3200 H 318.763 0.661807 0.110691 0
M  V30 3201 H 321.307 2.02134 -0.310207 0
M  V30 3202 H 319.462 3.48204 1.69803 0
M  V30 3203 H 319.876 5.23368 0.344462 0
M  V30 3204 H 321.35 5.12475 2.05118 0
M  V30 3205 H 321.827 3.52615 2.61838 0
M  V30 3206 H 322.433 4.12002 1.05518 0
M  V30 3207 N 320.748 -0.0735177 1.57428 0
M  V30 3208 C 321.996 -0.771472 1.86796 0
M  V30 3209 C 322.317 -1.78201 0.791804 0
M  V30 3210 O 321.587 -1.95074 -0.179718 0
M  V30 3211 H 320.167 -0.28791 0.689287 0
M  V30 3212 H 322.829 -0.0500161 1.94836 0
M  V30 3213 H 321.925 -1.28874 2.8425 0
M  V30 3214 N 322.226 -1.5378 -0.344866 0
M  V30 3215 C 323.173 -1.81676 -1.42346 0
M  V30 3216 C 324.143 -0.662376 -1.52321 0
M  V30 3217 O 325.328 -0.906675 -1.67881 0
M  V30 3218 C 322.468 -2.03087 -2.79015 0
M  V30 3219 C 321.581 -3.30799 -2.77842 0
M  V30 3220 C 320.716 -3.42285 -4.0622 0
M  V30 3221 C 319.755 -4.6395 -3.9927 0
M  V30 3222 N 318.892 -4.72477 -5.19336 0
M  V30 3223 H 323.732 -2.73703 -1.17858 0
M  V30 3224 H 321.269 -1.35568 -0.570949 0
M  V30 3225 H 323.227 -2.1349 -3.58438 0
M  V30 3226 H 321.857 -1.14375 -3.01858 0
M  V30 3227 H 320.909 -3.29244 -1.90533 0
M  V30 3228 H 322.221 -4.20314 -2.68584 0
M  V30 3229 H 321.375 -3.52113 -4.94066 0
M  V30 3230 H 320.114 -2.50823 -4.18258 0
M  V30 3231 H 319.119 -4.54201 -3.09809 0
M  V30 3232 H 320.344 -5.56775 -3.88817 0
M  V30 3233 H 318.29 -3.83924 -5.3192 0
M  V30 3234 H 318.207 -5.55927 -5.12329 0
M  V30 3235 H 319.475 -4.86613 -6.08957 0
M  V30 3236 N 323.704 0.605807 -1.45491 0
M  V30 3237 C 324.652 1.73754 -1.54636 0
M  V30 3238 C 325.646 1.64207 -0.416219 0
M  V30 3239 O 326.852 1.69979 -0.592199 0
M  V30 3240 H 323.227 0.574073 -0.485741 0
M  V30 3241 H 325.198 1.63169 -2.49837 0
M  V30 3242 C 323.947 3.12135 -1.53189 0
M  V30 3243 H 323.27 3.20141 -2.39478 0
M  V30 3244 H 324.71 3.91147 -1.63645 0
M  V30 3245 C 323.169 3.35921 -0.256616 0
M  V30 3246 O 323.699 3.96194 0.662798 0
M  V30 3247 N 321.905 2.90204 -0.151751 0
M  V30 3248 H 321.452 2.41336 -0.90081 0
M  V30 3249 H 321.41 3.06492 0.700699 0
M  V30 3250 N 325.182 1.32811 0.848464 0
M  V30 3251 C 326.598 1.11937 1.13764 0
M  V30 3252 C 326.798 -0.0960789 2.01271 0
M  V30 3253 O 325.854 -0.779165 2.40178 0
M  V30 3254 C 327.167 2.402 1.809 0
M  V30 3255 C 328.715 2.46016 1.93508 0
M  V30 3256 C 329.19 3.74215 2.64059 0
M  V30 3257 N 330.681 3.75232 2.71579 0
M  V30 3258 C 331.416 4.71134 3.26833 0
M  V30 3259 N 330.912 5.77406 3.8285 0
M  V30 3260 N 332.705 4.58623 3.24995 0
M  V30 3261 H 324.856 2.1073 0.265855 0
M  V30 3262 H 327.119 0.930671 0.180431 0
M  V30 3263 H 326.825 3.29093 1.24058 0
M  V30 3264 H 326.699 2.51628 2.81004 0
M  V30 3265 H 329.086 1.57577 2.49506 0
M  V30 3266 H 329.167 2.38536 0.923811 0
M  V30 3267 H 328.811 4.63031 2.08722 0
M  V30 3268 H 328.741 3.78968 3.65637 0
M  V30 3269 H 331.232 2.98423 2.31845 0
M  V30 3270 H 331.545 6.46632 4.23187 0
M  V30 3271 H 329.89 5.81152 3.81165 0
M  V30 3272 H 333.081 3.74762 2.80484 0
M  V30 3273 H 333.254 5.33535 3.67756 0
M  V30 3274 N 326.66 -1.06551 1.16123 0
M  V30 3275 C 328.071 -1.60768 0.949232 0
M  V30 3276 C 328.422 -1.89523 -0.507508 0
M  V30 3277 O 327.547 -1.66671 -1.38021 0
M  V30 3278 C 328.142 -2.92086 1.71671 0
M  V30 3279 C 326.701 -3.43015 1.54977 0
M  V30 3280 C 325.848 -2.16947 1.72711 0
M  V30 3281 H 328.799 -0.895354 1.31031 0
M  V30 3282 H 328.82 -3.6138 1.19099 0
M  V30 3283 H 328.332 -2.71127 2.7769 0
M  V30 3284 H 326.433 -3.69039 0.513873 0
M  V30 3285 H 326.546 -4.18516 2.33198 0
M  V30 3286 H 324.91 -2.27041 1.15431 0
M  V30 3287 H 325.693 -1.98473 2.80113 0
M  V30 3288 N 328.138 -0.959301 -1.25041 0
M  V30 3289 C 329.363 -0.633507 -1.97488 0
M  V30 3290 C 329.788 0.788555 -1.70773 0
M  V30 3291 O 329.146 1.53394 -0.966431 0
M  V30 3292 C 329.194 -0.904057 -3.49083 0
M  V30 3293 O 328.298 0.0147939 -4.12397 0
M  V30 3294 H 327.639 -0.240368 -0.618966 0
M  V30 3295 H 330.169 -1.28717 -1.59038 0
M  V30 3296 H 330.179 -0.832203 -3.99423 0
M  V30 3297 H 328.854 -1.94048 -3.67856 0
M  V30 3298 H 327.431 -0.109664 -3.72739 0
M  V30 3299 N 329.616 1.39756 -0.72842 0
M  V30 3300 C 330.841 2.05472 -0.282159 0
M  V30 3301 C 331.266 1.54549 1.07221 0
M  V30 3302 O 330.624 0.686372 1.67805 0
M  V30 3303 C 330.672 3.59462 -0.286264 0
M  V30 3304 O 329.776 4.05918 0.728298 0
M  V30 3305 H 329.117 0.651226 -0.129618 0
M  V30 3306 H 331.647 1.78915 -0.992499 0
M  V30 3307 H 331.657 4.07798 -0.128373 0
M  V30 3308 H 330.332 3.95889 -1.27456 0
M  V30 3309 H 328.909 3.69012 0.537081 0
M  V30 3310 N 331.094 0.475555 1.50254 0
M  V30 3311 C 332.342 -0.077738 2.0195 0
M  V30 3312 C 332.663 -1.39813 1.35931 0
M  V30 3313 O 331.933 -1.89249 0.506123 0
M  V30 3314 H 330.513 -0.031719 0.746326 0
M  V30 3315 H 333.175 0.626995 1.84539 0
M  V30 3316 H 332.271 -0.225995 3.11281 0
M  V30 3317 N 332.573 -1.56217 0.208337 0
M  V30 3318 C 333.798 -2.02782 -0.435222 0
M  V30 3319 C 334.223 -1.08738 -1.53485 0
M  V30 3320 O 333.581 -0.0731855 -1.81152 0
M  V30 3321 C 333.629 -3.47687 -0.956335 0
M  V30 3322 O 332.733 -3.56773 -2.06849 0
M  V30 3323 H 332.074 -0.656403 -0.100158 0
M  V30 3324 H 334.604 -2.02033 0.3231 0
M  V30 3325 H 334.614 -3.87745 -1.26955 0
M  V30 3326 H 333.289 -4.15624 -0.15143 0
M  V30 3327 H 331.866 -3.28597 -1.76292 0
M  V30 3328 N 334.051 0.0651679 -1.57465 0
M  V30 3329 C 334.981 1.07693 -2.07182 0
M  V30 3330 C 335.962 1.39962 -0.966673 0
M  V30 3331 O 337.147 1.49475 -1.2398 0
M  V30 3332 C 334.277 2.3885 -2.52127 0
M  V30 3333 C 333.231 2.20917 -3.66579 0
M  V30 3334 C 332.557 3.57515 -3.97601 0
M  V30 3335 C 333.857 1.62493 -4.9638 0
M  V30 3336 H 335.551 0.663199 -2.91962 0
M  V30 3337 H 333.097 0.317569 -1.40455 0
M  V30 3338 H 335.05 3.09928 -2.85522 0
M  V30 3339 H 333.774 2.82215 -1.64384 0
M  V30 3340 H 332.433 1.52279 -3.33477 0
M  V30 3341 H 332.081 3.98463 -3.06979 0
M  V30 3342 H 331.781 3.46353 -4.74672 0
M  V30 3343 H 333.305 4.30013 -4.33499 0
M  V30 3344 H 334.719 2.23445 -5.27963 0
M  V30 3345 H 333.116 1.62009 -5.77818 0
M  V30 3346 H 334.186 0.587041 -4.81333 0
M  V30 3347 N 335.529 1.53961 0.336706 0
M  V30 3348 C 336.778 1.70751 1.07363 0
M  V30 3349 C 337.091 0.481061 1.89592 0
M  V30 3350 O 338.297 0.530046 2.66276 0
M  V30 3351 C 336.753 3.01965 1.95818 0
M  V30 3352 C 336.361 4.31971 1.18764 0
M  V30 3353 C 338.105 3.28121 2.69327 0
M  V30 3354 C 336.012 5.54255 2.06289 0
M  V30 3355 H 334.942 0.636292 0.404535 0
M  V30 3356 H 337.593 1.80459 0.332681 0
M  V30 3357 H 335.975 2.86132 2.7376 0
M  V30 3358 H 337.149 4.5853 0.456849 0
M  V30 3359 H 335.464 4.12481 0.569946 0
M  V30 3360 H 338.061 4.16673 3.35094 0
M  V30 3361 H 338.404 2.45426 3.36261 0
M  V30 3362 H 338.937 3.44762 1.98454 0
M  V30 3363 H 335.676 6.39513 1.43885 0
M  V30 3364 H 335.196 5.31935 2.77138 0
M  V30 3365 H 336.875 5.90159 2.65182 0
M  V30 3366 N 337.007 -0.598083 1.45811 0
M  V30 3367 C 337.939 -1.72231 1.51225 0
M  V30 3368 C 338.952 -1.57757 0.402059 0
M  V30 3369 O 340.141 -1.65464 0.669624 0
M  V30 3370 C 337.241 -3.10331 1.3619 0
M  V30 3371 C 336.414 -3.50955 2.61054 0
M  V30 3372 C 335.473 -4.68055 2.40439 0
M  V30 3373 O 334.499 -4.74691 3.14097 0
M  V30 3374 N 335.701 -5.61941 1.45612 0
M  V30 3375 H 338.466 -1.68046 2.48154 0
M  V30 3376 H 336.027 -0.783637 1.41671 0
M  V30 3377 H 338.019 -3.86439 1.20195 0
M  V30 3378 H 336.589 -3.0897 0.475015 0
M  V30 3379 H 335.809 -2.64711 2.92099 0
M  V30 3380 H 337.097 -3.74858 3.44034 0
M  V30 3381 H 336.495 -5.59301 0.848431 0
M  V30 3382 H 335.052 -6.37542 1.35585 0
M  V30 3383 N 338.485 -1.33259 -0.841409 0
M  V30 3384 C 339.731 -1.24757 -1.59886 0
M  V30 3385 C 340.064 0.186913 -1.93298 0
M  V30 3386 O 339.339 1.12757 -1.5848 0
M  V30 3387 C 339.622 -2.12036 -2.91055 0
M  V30 3388 C 339.475 -3.63929 -2.6434 0
M  V30 3389 C 340.794 -1.9916 -3.92458 0
M  V30 3390 H 337.913 -0.454542 -0.580138 0
M  V30 3391 H 340.555 -1.63335 -0.970647 0
M  V30 3392 H 338.705 -1.79265 -3.44669 0
M  V30 3393 H 340.377 -4.06978 -2.17178 0
M  V30 3394 H 338.62 -3.85935 -1.98082 0
M  V30 3395 H 339.291 -4.20341 -3.57796 0
M  V30 3396 H 341.767 -2.27895 -3.48143 0
M  V30 3397 H 340.643 -2.62484 -4.82072 0
M  V30 3398 H 340.904 -0.963082 -4.31482 0
M  V30 3399 N 339.963 1.05934 -1.16686 0
M  V30 3400 C 341.209 1.79065 -0.95203 0
M  V30 3401 C 341.542 1.87147 0.518629 0
M  V30 3402 O 340.817 1.36574 1.38484 0
M  V30 3403 C 341.1 3.23359 -1.58464 0
M  V30 3404 C 340.953 3.23336 -3.12689 0
M  V30 3405 C 342.272 4.21004 -1.28232 0
M  V30 3406 H 339.391 0.65005 -0.34728 0
M  V30 3407 H 342.033 1.23868 -1.44072 0
M  V30 3408 H 340.183 3.70493 -1.16908 0
M  V30 3409 H 341.855 2.84336 -3.6325 0
M  V30 3410 H 340.098 2.61886 -3.4583 0
M  V30 3411 H 340.769 4.25144 -3.52075 0
M  V30 3412 H 343.245 3.8233 -1.64203 0
M  V30 3413 H 342.121 5.20225 -1.75092 0
M  V30 3414 H 342.382 4.41639 -0.201791 0
M  V30 3415 N 341.441 0.965919 1.2453 0
M  V30 3416 C 342.669 0.644385 1.96609 0
M  V30 3417 C 343.084 -0.785823 1.71669 0
M  V30 3418 O 342.441 -1.52703 0.999399 0
M  V30 3419 C 342.492 0.907375 3.49927 0
M  V30 3420 O 342.213 2.28136 3.74013 0
M  V30 3421 C 343.714 0.599784 4.39224 0
M  V30 3422 H 340.934 0.240588 0.626385 0
M  V30 3423 H 343.478 1.29337 1.58405 0
M  V30 3424 H 341.633 0.304631 3.862 0
M  V30 3425 H 342.047 2.36002 4.68405 0
M  V30 3426 H 343.521 0.834263 5.45659 0
M  V30 3427 H 343.998 -0.465921 4.36722 0
M  V30 3428 H 344.604 1.18235 4.08535 0
M  V30 3429 N 342.919 -1.39368 0.735821 0
M  V30 3430 C 344.147 -2.04795 0.294393 0
M  V30 3431 C 344.562 -1.55478 -1.07107 0
M  V30 3432 O 343.919 -0.720038 -1.67695 0
M  V30 3433 C 343.97 -3.6035 0.288071 0
M  V30 3434 O 343.691 -4.07852 1.59963 0
M  V30 3435 C 345.192 -4.42976 -0.169422 0
M  V30 3436 H 342.412 -0.658571 0.128551 0
M  V30 3437 H 344.956 -1.78399 0.999701 0
M  V30 3438 H 343.111 -3.85645 -0.368355 0
M  V30 3439 H 343.525 -5.02181 1.51375 0
M  V30 3440 H 344.999 -5.51864 -0.122687 0
M  V30 3441 H 345.476 -4.22068 -1.21472 0
M  V30 3442 H 346.082 -4.22832 0.457469 0
M  V30 3443 N 344.397 -0.483516 -1.5 0
M  V30 3444 C 345.307 0.309172 -2.32554 0
M  V30 3445 C 346.323 0.984159 -1.43493 0
M  V30 3446 O 347.499 0.969399 -1.76535 0
M  V30 3447 C 344.564 1.36979 -3.18493 0
M  V30 3448 C 343.625 0.710095 -4.23387 0
M  V30 3449 C 342.858 1.72018 -5.05218 0
M  V30 3450 O 343.081 2.94813 -4.88305 0
M  V30 3451 O 342.015 1.28515 -5.8802 0
M  V30 3452 H 345.841 -0.366064 -3.01486 0
M  V30 3453 H 343.426 -0.24514 -1.47375 0
M  V30 3454 H 345.308 1.98385 -3.71781 0
M  V30 3455 H 343.983 2.02828 -2.52275 0
M  V30 3456 H 342.89 0.0567539 -3.74057 0
M  V30 3457 H 344.223 0.0943557 -4.9211 0
M  V30 3458 N 345.875 1.56104 -0.216619 0
M  V30 3459 C 347.123 1.97781 0.415593 0
M  V30 3460 C 347.444 1.10536 1.60645 0
M  V30 3461 O 346.714 0.181303 1.95059 0
M  V30 3462 H 345.294 0.730415 0.156534 0
M  V30 3463 H 347.956 1.92445 -0.308366 0
M  V30 3464 H 347.052 3.03072 0.74525 0
M  V30 3465 N 347.353 -0.0568162 1.57498 0
M  V30 3466 C 348.769 -0.411933 1.54192 0
M  V30 3467 C 348.969 -1.78287 0.938942 0
M  V30 3468 O 348.025 -2.46483 0.547919 0
M  V30 3469 C 349.338 -0.339244 2.9878 0
M  V30 3470 C 350.886 -0.418348 3.10192 0
M  V30 3471 C 351.361 -0.375407 4.56459 0
M  V30 3472 N 352.852 -0.435038 4.61153 0
M  V30 3473 C 353.587 -0.424265 5.71828 0
M  V30 3474 N 353.083 -0.367418 6.91825 0
M  V30 3475 N 354.876 -0.471938 5.60115 0
M  V30 3476 H 347.027 0.840684 1.95055 0
M  V30 3477 H 349.29 0.316987 0.893433 0
M  V30 3478 H 348.996 0.601742 3.46514 0
M  V30 3479 H 348.87 -1.14371 3.59443 0
M  V30 3480 H 351.257 -1.34976 2.62422 0
M  V30 3481 H 351.338 0.414962 2.52412 0
M  V30 3482 H 350.982 0.552219 5.04889 0
M  V30 3483 H 350.912 -1.22645 5.12119 0
M  V30 3484 H 353.403 -0.482612 3.74806 0
M  V30 3485 H 353.716 -0.363535 7.71944 0
M  V30 3486 H 352.061 -0.333879 6.94198 0
M  V30 3487 H 355.252 -0.514145 4.65268 0
M  V30 3488 H 355.425 -0.460073 6.46365 0
M  V30 3489 N 348.832 -1.54138 -0.328536 0
M  V30 3490 C 350.06 -1.76062 -1.08673 0
M  V30 3491 C 350.475 -0.506852 -1.81869 0
M  V30 3492 O 349.832 0.522223 -1.74869 0
M  V30 3493 C 349.883 -2.95054 -2.08866 0
M  V30 3494 O 349.604 -4.15583 -1.38644 0
M  V30 3495 C 351.105 -3.2915 -2.96943 0
M  V30 3496 H 348.325 -0.587889 -0.323461 0
M  V30 3497 H 350.869 -2.0101 -0.376175 0
M  V30 3498 H 349.024 -2.72394 -2.75464 0
M  V30 3499 H 349.438 -4.82481 -2.05699 0
M  V30 3500 H 350.912 -4.15723 -3.63151 0
M  V30 3501 H 351.389 -2.461 -3.63774 0
M  V30 3502 H 351.995 -3.53871 -2.35914 0
M  V30 3503 N 350.31 0.590341 -1.46126 0
M  V30 3504 C 351.22 1.72793 -1.58681 0
M  V30 3505 C 352.236 1.67516 -0.470566 0
M  V30 3506 O 353.412 1.87562 -0.733642 0
M  V30 3507 C 350.477 3.09287 -1.5666 0
M  V30 3508 C 349.538 3.25886 -2.79458 0
M  V30 3509 C 348.771 4.55869 -2.77524 0
M  V30 3510 O 348.994 5.3928 -1.85832 0
M  V30 3511 O 347.928 4.75552 -3.68964 0
M  V30 3512 H 351.754 1.65149 -2.54872 0
M  V30 3513 H 349.339 0.756486 -1.28832 0
M  V30 3514 H 351.221 3.90577 -1.58202 0
M  V30 3515 H 349.896 3.17385 -0.636271 0
M  V30 3516 H 348.803 2.44119 -2.83472 0
M  V30 3517 H 350.136 3.22675 -3.71674 0
M  V30 3518 N 351.788 1.33704 0.83433 0
M  V30 3519 C 352.718 1.26967 1.95963 0
M  V30 3520 C 353.699 0.149337 1.69443 0
M  V30 3521 O 354.884 0.339852 1.91203 0
M  V30 3522 C 352.014 1.01275 3.32206 0
M  V30 3523 C 350.968 2.09652 3.73136 0
M  V30 3524 C 350.294 1.69166 5.07235 0
M  V30 3525 C 351.594 3.51372 3.86439 0
M  V30 3526 H 353.288 2.2112 2.01857 0
M  V30 3527 H 350.834 1.06447 0.969793 0
M  V30 3528 H 352.787 0.952106 4.10503 0
M  V30 3529 H 351.511 0.0356203 3.26581 0
M  V30 3530 H 350.17 2.14766 2.97104 0
M  V30 3531 H 349.818 0.701437 4.98085 0
M  V30 3532 H 349.518 2.41694 5.35591 0
M  V30 3533 H 351.042 1.64576 5.88003 0
M  V30 3534 H 352.456 3.48734 4.55036 0
M  V30 3535 H 350.853 4.22425 4.26236 0
M  V30 3536 H 351.923 3.89546 2.88759 0
M  V30 3537 N 353.266 -1.05314 1.17247 0
M  V30 3538 C 354.494 -1.81971 0.984593 0
M  V30 3539 C 354.909 -1.82929 -0.467166 0
M  V30 3540 O 354.266 -1.25564 -1.32438 0
M  V30 3541 C 354.317 -3.28143 1.51672 0
M  V30 3542 O 354.038 -3.27347 2.91163 0
M  V30 3543 C 355.539 -4.21493 1.37326 0
M  V30 3544 H 352.759 -0.573455 0.348411 0
M  V30 3545 H 355.303 -1.32808 1.55506 0
M  V30 3546 H 353.458 -3.74582 0.988302 0
M  V30 3547 H 353.872 -4.18824 3.15732 0
M  V30 3548 H 355.346 -5.22043 1.79375 0
M  V30 3549 H 355.823 -4.38031 0.320169 0
M  V30 3550 H 356.429 -3.80909 1.89178 0
M  V30 3551 N 354.744 -0.972509 -1.24016 0
M  V30 3552 C 356.155 -0.67517 -1.74064 0
M  V30 3553 C 356.506 0.808939 -1.78747 0
M  V30 3554 O 355.631 1.63286 -1.42009 0
M  V30 3555 C 356.226 -1.21889 -3.16115 0
M  V30 3556 C 354.785 -0.971358 -3.6365 0
M  V30 3557 C 353.932 -1.35134 -2.42145 0
M  V30 3558 H 356.883 -1.14727 -1.09651 0
M  V30 3559 H 356.904 -0.587489 -3.75937 0
M  V30 3560 H 356.416 -2.29906 -3.12674 0
M  V30 3561 H 354.517 0.0930686 -3.72484 0
M  V30 3562 H 354.63 -1.62039 -4.50866 0
M  V30 3563 H 352.994 -0.769751 -2.4279 0
M  V30 3564 H 353.777 -2.4411 -2.41381 0
M  V30 3565 N 356.222 1.38976 -0.743202 0
M  V30 3566 C 357.185 2.28901 -0.117014 0
M  V30 3567 C 358.185 1.46698 0.658503 0
M  V30 3568 O 359.375 1.67274 0.486305 0
M  V30 3569 C 356.507 3.30309 0.84315 0
M  V30 3570 H 357.7 2.8578 -0.909373 0
M  V30 3571 H 355.253 1.47761 -0.509547 0
M  V30 3572 H 355.988 2.785 1.66157 0
M  V30 3573 H 355.773 3.91029 0.289594 0
M  V30 3574 H 357.263 3.97577 1.2776 0
M  V30 3575 N 357.7 0.491464 1.49741 0
M  V30 3576 C 358.93 -0.0534375 2.06531 0
M  V30 3577 C 359.338 -1.32233 1.35318 0
M  V30 3578 O 358.681 -1.78781 0.422243 0
M  V30 3579 C 358.743 -0.387034 3.57411 0
M  V30 3580 C 358.407 0.782764 4.50246 0
M  V30 3581 C 359.404 1.67059 4.92329 0
M  V30 3582 C 357.089 0.978866 4.9267 0
M  V30 3583 C 359.083 2.73874 5.75562 0
M  V30 3584 C 356.77 2.05022 5.75682 0
M  V30 3585 C 357.768 2.92851 6.17031 0
M  V30 3586 O 357.456 3.98138 6.98385 0
M  V30 3587 H 357.188 0.0129324 0.675876 0
M  V30 3588 H 359.742 0.685238 1.93633 0
M  V30 3589 H 357.972 -1.17918 3.68283 0
M  V30 3590 H 359.661 -0.869419 3.96479 0
M  V30 3591 H 360.427 1.53086 4.60206 0
M  V30 3592 H 356.306 0.304646 4.59992 0
M  V30 3593 H 359.85 3.42458 6.07757 0
M  V30 3594 H 355.747 2.18993 6.07217 0
M  V30 3595 H 356.515 3.95374 7.16674 0
M  V30 3596 N 359.178 -1.55987 0.224894 0
M  V30 3597 C 360.425 -1.9839 -0.4059 0
M  V30 3598 C 360.753 -1.11261 -1.59535 0
M  V30 3599 O 360.008 -0.158314 -1.95059 0
M  V30 3600 C 360.307 -3.46394 -0.880106 0
M  V30 3601 C 359.973 -4.5046 0.19918 0
M  V30 3602 C 358.635 -4.7864 0.495661 0
M  V30 3603 C 360.987 -5.12855 0.928939 0
M  V30 3604 C 358.315 -5.66497 1.52636 0
M  V30 3605 C 360.667 -6.01828 1.949 0
M  V30 3606 C 359.331 -6.28351 2.25236 0
M  V30 3607 H 358.601 -0.725961 -0.148529 0
M  V30 3608 H 361.248 -1.88668 0.328113 0
M  V30 3609 H 359.553 -3.53337 -1.69294 0
M  V30 3610 H 361.25 -3.76577 -1.37808 0
M  V30 3611 H 357.84 -4.28579 -0.0420526 0
M  V30 3612 H 362.024 -4.9115 0.713129 0
M  V30 3613 H 357.28 -5.8531 1.76698 0
M  V30 3614 H 361.454 -6.49225 2.51951 0
M  V30 3615 H 359.081 -6.96226 3.05244 0
M  V30 3616 O 360.695 -0.0887553 -1.61256 0
M  V30 3617 H 361.386 0.514821 -1.86733 0
M  V30 END ATOM
M  V30 BEGIN BOND
M  V30 END BOND
M  V30 END CTAB
M  END
$$$$
