drugbank_target|P09493 Tropomyosin alpha-1 chain (DB11638; DB12695)
 OpenBabel12092121073D

  0  0  0     0  0            999 V3000
M  V30 BEGIN CTAB
M  V30 COUNTS 4585 4593 0 0 0
M  V30 BEGIN ATOM
M  V30 1 H -0.908 1.98254 -0.117106 0
M  V30 2 N 0 1.576 0 0
M  V30 3 C 0.933 2.03868 1.02534 0
M  V30 4 C 1.911 0.928543 1.3348 0
M  V30 5 O 3.095 1.19667 1.45644 0
M  V30 6 C 0.222 2.43627 2.35294 0
M  V30 7 C -0.732 3.65373 2.2001 0
M  V30 8 S 0.101 5.13292 1.52614 0
M  V30 9 C 1.257 5.56322 2.86805 0
M  V30 10 H 1.49 2.90518 0.631377 0
M  V30 11 H -0.977 1.52953 0.210867 0
M  V30 12 H 0.981 2.67203 3.11629 0
M  V30 13 H -0.358 1.57376 2.7183 0
M  V30 14 H -1.165 3.90944 3.18086 0
M  V30 15 H -1.563 3.418 1.51819 0
M  V30 16 H 0.729 5.58782 3.83104 0
M  V30 17 H 1.672 6.56266 2.65933 0
M  V30 18 H 2.08 4.83886 2.90714 0
M  V30 19 N 1.4781 -0.272755 1.55222 0
M  V30 20 C 2.7551 -1.02562 1.66555 0
M  V30 21 C 3.1351 -2.04282 0.532189 0
M  V30 22 O 2.4831 -2.23662 -0.467717 0
M  V30 23 C 2.6931 -1.6822 3.05782 0
M  V30 24 C 4.0411 -2.19373 3.63539 0
M  V30 25 O 5.0651 -1.78206 3.08417 0
M  V30 26 O 3.9241 -2.94883 4.60115 0
M  V30 27 H 1.0181 -0.475755 0.676451 0
M  V30 28 H 3.5641 -0.268593 1.67561 0
M  V30 29 H 2.3361 -0.945112 3.79715 0
M  V30 30 H 1.9591 -2.50609 3.08676 0
M  V30 31 N 2.9562 -1.48159 -0.537278 0
M  V30 32 C 3.9192 -1.61665 -1.62472 0
M  V30 33 C 4.9192 -0.490395 -1.5314 0
M  V30 34 O 6.1092 -0.755998 -1.5694 0
M  V30 35 C 3.2412 -1.57997 -3.02076 0
M  V30 36 H 4.4342 -2.58621 -1.51839 0
M  V30 37 H 1.9872 -1.36647 -0.758771 0
M  V30 38 H 2.7222 -0.624913 -3.18222 0
M  V30 39 H 2.5072 -2.39755 -3.10258 0
M  V30 40 H 3.9972 -1.70627 -3.81151 0
M  V30 41 N 4.4343 0.785586 -1.36625 0
M  V30 42 C 5.6833 1.53883 -1.30396 0
M  V30 43 C 5.9963 1.95271 0.113452 0
M  V30 44 O 7.2023 2.69858 0.298142 0
M  V30 45 C 5.6583 2.77808 -2.28802 0
M  V30 46 C 5.2663 2.43574 -3.75999 0
M  V30 47 C 7.0103 3.55783 -2.31558 0
M  V30 48 C 4.9173 3.63919 -4.66173 0
M  V30 49 H 3.8473 0.577678 -0.484566 0
M  V30 50 H 6.4983 0.861705 -1.62009 0
M  V30 51 H 4.8803 3.47339 -1.90188 0
M  V30 52 H 6.0543 1.81916 -4.23371 0
M  V30 53 H 4.3693 1.78803 -3.76056 0
M  V30 54 H 6.9663 4.45205 -2.96137 0
M  V30 55 H 7.3093 3.94644 -1.3252 0
M  V30 56 H 7.8423 2.93235 -2.68809 0
M  V30 57 H 4.5813 3.3015 -5.66287 0
M  V30 58 H 4.1013 4.2473 -4.23515 0
M  V30 59 H 5.7803 4.30901 -4.82632 0
M  V30 60 N 5.9124 1.20967 1.01018 0
M  V30 61 C 6.8594 0.964281 2.09691 0
M  V30 62 C 7.8294 -0.107853 1.65749 0
M  V30 63 O 9.0144 0.0381987 1.90762 0
M  V30 64 C 6.1544 0.52943 3.41015 0
M  V30 65 C 5.2674 1.67043 3.98398 0
M  V30 66 C 4.4024 1.18525 5.17808 0
M  V30 67 C 3.4414 2.29892 5.67288 0
M  V30 68 N 2.5784 1.82546 6.77954 0
M  V30 69 H 7.4184 1.89463 2.30017 0
M  V30 70 H 4.9554 0.944289 1.1279 0
M  V30 71 H 6.9134 0.258588 4.16398 0
M  V30 72 H 5.5434 -0.363919 3.20742 0
M  V30 73 H 4.5954 2.05603 3.20049 0
M  V30 74 H 5.9074 2.50877 4.31117 0
M  V30 75 H 5.0614 0.870762 6.00419 0
M  V30 76 H 3.8004 0.316887 4.86669 0
M  V30 77 H 2.8054 2.6215 4.83278 0
M  V30 78 H 4.0304 3.17216 6.00459 0
M  V30 79 H 1.9764 0.980454 6.48632 0
M  V30 80 H 1.8934 2.59956 7.09901 0
M  V30 81 H 3.1614 1.54115 7.64113 0
M  V30 82 N 7.3905 -1.2043 1.01659 0
M  V30 83 C 8.3375 -2.23215 0.586822 0
M  V30 84 C 9.3075 -1.61382 -0.393085 0
M  V30 85 O 10.4925 -1.88544 -0.292525 0
M  V30 86 C 7.6325 -3.45032 -0.0687464 0
M  V30 87 C 6.7455 -4.21296 0.955724 0
M  V30 88 C 5.8805 -5.30507 0.271208 0
M  V30 89 C 4.9195 -5.98515 1.28244 0
M  V30 90 N 4.0565 -6.99316 0.62459 0
M  V30 91 H 8.8965 -2.59336 1.46796 0
M  V30 92 H 6.4335 -1.27431 0.734836 0
M  V30 93 H 8.3915 -4.1459 -0.465965 0
M  V30 94 H 7.0215 -3.09604 -0.913529 0
M  V30 95 H 6.0735 -3.50803 1.4711 0
M  V30 96 H 7.3855 -4.6803 1.72479 0
M  V30 97 H 6.5395 -6.06428 -0.18151 0
M  V30 98 H 5.2785 -4.8481 -0.530163 0
M  V30 99 H 4.2835 -5.21355 1.74554 0
M  V30 100 H 5.5085 -6.46298 2.08509 0
M  V30 101 H 3.4545 -6.55812 -0.156914 0
M  V30 102 H 3.3715 -7.44178 1.33172 0
M  V30 103 H 4.6395 -7.79255 0.195462 0
M  V30 104 N 8.8686 -0.792821 -1.36206 0
M  V30 105 C 9.8156 -0.191653 -2.30003 0
M  V30 106 C 10.7856 0.666453 -1.52143 0
M  V30 107 O 11.9706 0.61442 -1.80636 0
M  V30 108 C 9.1106 0.664848 -3.38635 0
M  V30 109 C 8.2236 -0.212175 -4.31479 0
M  V30 110 C 7.3586 0.651022 -5.27196 0
M  V30 111 C 6.3976 -0.227247 -6.11678 0
M  V30 112 N 5.5346 0.595127 -6.99573 0
M  V30 113 H 10.3746 -0.996978 -2.80828 0
M  V30 114 H 7.9116 -0.503206 -1.38225 0
M  V30 115 H 9.8696 1.17645 -4.00269 0
M  V30 116 H 8.4996 1.43557 -2.89122 0
M  V30 117 H 7.5516 -0.841777 -3.70969 0
M  V30 118 H 8.8636 -0.888751 -4.90818 0
M  V30 119 H 8.0176 1.2283 -5.94136 0
M  V30 120 H 6.7566 1.36121 -4.68319 0
M  V30 121 H 5.7616 -0.816904 -5.43697 0
M  V30 122 H 6.9866 -0.93509 -6.72631 0
M  V30 123 H 4.9326 1.28955 -6.432 0
M  V30 124 H 4.8496 -0.0236952 -7.55996 0
M  V30 125 H 6.1176 1.15613 -7.70879 0
M  V30 126 N 10.3467 1.47872 -0.545128 0
M  V30 127 C 11.2797 2.2675 0.256885 0
M  V30 128 C 12.2577 1.33293 0.931228 0
M  V30 129 O 13.4417 1.62657 0.95262 0
M  V30 130 C 10.5687 3.09976 1.36501 0
M  V30 131 C 9.6147 4.1892 0.800496 0
M  V30 132 S 10.4477 5.34397 -0.343505 0
M  V30 133 C 11.6037 6.21186 0.766733 0
M  V30 134 H 11.8367 2.94425 -0.412479 0
M  V30 135 H 9.3697 1.50806 -0.331204 0
M  V30 136 H 11.3277 3.585 1.9997 0
M  V30 137 H 9.9887 2.41686 2.00616 0
M  V30 138 H 9.1817 4.76836 1.63227 0
M  V30 139 H 8.7837 3.73215 0.242217 0
M  V30 140 H 11.0757 6.56804 1.66178 0
M  V30 141 H 12.0187 7.07742 0.225204 0
M  V30 142 H 12.4267 5.54574 1.05396 0
M  V30 143 N 11.8248 0.280983 1.55075 0
M  V30 144 C 12.7568 -0.637268 2.20163 0
M  V30 145 C 13.7698 -1.11298 1.18813 0
M  V30 146 O 14.9588 -1.03388 1.4551 0
M  V30 147 C 12.0588 -1.88199 2.81841 0
M  V30 148 C 11.2318 -1.55211 4.08936 0
M  V30 149 C 10.2908 -2.64991 4.54606 0
M  V30 150 O 9.3168 -2.30929 5.2025 0
M  V30 151 N 10.5188 -3.95161 4.25238 0
M  V30 152 H 13.2838 -0.0801694 2.99593 0
M  V30 153 H 10.8448 0.102329 1.61576 0
M  V30 154 H 12.8368 -2.60948 3.09335 0
M  V30 155 H 11.4068 -2.34799 2.06369 0
M  V30 156 H 10.6268 -0.658185 3.88666 0
M  V30 157 H 11.9148 -1.30681 4.91732 0
M  V30 158 H 11.3128 -4.25653 3.72607 0
M  V30 159 H 9.8698 -4.6427 4.5749 0
M  V30 160 N 13.3029 -1.57598 0.00835791 0
M  V30 161 C 14.2359 -2.04409 -1.01451 0
M  V30 162 C 15.2139 -0.935609 -1.32985 0
M  V30 163 O 16.3979 -1.20437 -1.45007 0
M  V30 164 C 13.5249 -2.44872 -2.33999 0
M  V30 165 C 12.5709 -3.66535 -2.18069 0
M  V30 166 S 13.4039 -5.14095 -1.4989 0
M  V30 167 C 14.5599 -5.57835 -2.8385 0
M  V30 168 H 14.7929 -2.90849 -0.615961 0
M  V30 169 H 12.3259 -1.53063 -0.202752 0
M  V30 170 H 14.2839 -2.68852 -3.10208 0
M  V30 171 H 12.9449 -1.58815 -2.70992 0
M  V30 172 H 12.1379 -3.92626 -3.16008 0
M  V30 173 H 11.7399 -3.426 -1.50004 0
M  V30 174 H 14.0319 -5.60806 -3.80136 0
M  V30 175 H 14.9749 -6.57667 -2.62449 0
M  V30 176 H 15.3829 -4.85421 -2.88144 0
M  V30 177 N 14.781 0.264519 -1.55364 0
M  V30 178 C 15.711 1.33121 -1.91836 0
M  V30 179 C 16.692 1.51101 -0.781192 0
M  V30 180 O 17.877 1.64003 -1.04003 0
M  V30 181 C 15.007 2.68921 -2.19769 0
M  V30 182 C 13.961 2.65661 -3.35571 0
M  V30 183 C 13.287 4.05093 -3.49004 0
M  V30 184 C 14.587 2.24187 -4.71739 0
M  V30 185 H 16.281 1.02844 -2.81182 0
M  V30 186 H 13.827 0.493286 -1.35287 0
M  V30 187 H 15.78 3.43663 -2.43872 0
M  V30 188 H 14.504 3.00799 -1.27231 0
M  V30 189 H 13.163 1.93377 -3.1145 0
M  V30 190 H 12.811 4.34206 -2.53917 0
M  V30 191 H 12.511 4.03804 -4.26868 0
M  V30 192 H 14.035 4.81561 -3.75408 0
M  V30 193 H 15.449 2.88654 -4.9533 0
M  V30 194 H 13.846 2.34044 -5.52579 0
M  V30 195 H 14.916 1.19327 -4.69988 0
M  V30 196 N 16.2591 1.48442 0.529413 0
M  V30 197 C 17.2061 1.63007 1.63394 0
M  V30 198 C 18.1761 0.47212 1.59249 0
M  V30 199 O 19.3611 0.695673 1.77666 0
M  V30 200 C 16.5011 1.6763 3.01653 0
M  V30 201 C 15.6141 2.94535 3.16027 0
M  V30 202 C 14.7491 2.90316 4.44849 0
M  V30 203 C 13.7881 4.11923 4.52754 0
M  V30 204 N 12.9251 4.05777 5.72965 0
M  V30 205 H 17.7651 2.5733 1.50285 0
M  V30 206 H 15.3021 1.27613 0.731656 0
M  V30 207 H 17.2601 1.68292 3.81751 0
M  V30 208 H 15.8901 0.76797 3.13532 0
M  V30 209 H 14.9421 3.03615 2.29177 0
M  V30 210 H 16.2541 3.84512 3.17729 0
M  V30 211 H 15.4081 2.89382 5.33238 0
M  V30 212 H 14.1471 1.98068 4.45668 0
M  V30 213 H 13.1521 4.13131 3.62771 0
M  V30 214 H 14.3771 5.0533 4.53672 0
M  V30 215 H 12.3231 3.16351 5.74681 0
M  V30 216 H 12.2401 4.8946 5.76164 0
M  V30 217 H 13.5081 4.08904 6.6364 0
M  V30 218 N 17.7372 -0.778329 1.37039 0
M  V30 219 C 18.6672 -1.90546 1.34962 0
M  V30 220 C 19.6482 -1.68681 0.219274 0
M  V30 221 O 20.8332 -1.89634 0.418624 0
M  V30 222 C 17.9632 -3.27734 1.14925 0
M  V30 223 C 16.9172 -3.64147 2.24902 0
M  V30 224 C 16.2432 -4.99806 1.89996 0
M  V30 225 C 17.5432 -3.71579 3.67051 0
M  V30 226 H 19.2372 -1.92541 2.29277 0
M  V30 227 H 16.7832 -0.924948 1.10366 0
M  V30 228 H 18.7362 -4.06215 1.12104 0
M  V30 229 H 17.4602 -3.26154 0.170631 0
M  V30 230 H 16.1192 -2.8797 2.26868 0
M  V30 231 H 15.7672 -4.94759 0.906796 0
M  V30 232 H 15.4672 -5.25139 2.63634 0
M  V30 233 H 16.9912 -5.80694 1.88749 0
M  V30 234 H 18.4052 -4.40227 3.67251 0
M  V30 235 H 16.8022 -4.08405 4.39688 0
M  V30 236 H 17.8722 -2.72404 4.01154 0
M  V30 237 N 19.2153 -1.21501 -1.00376 0
M  V30 238 C 20.4923 -0.941745 -1.71437 0
M  V30 239 C 20.8723 0.546114 -2.03914 0
M  V30 240 O 20.2203 1.51128 -1.71384 0
M  V30 241 C 20.4303 -1.82812 -2.97289 0
M  V30 242 C 21.7783 -2.07771 -3.70292 0
M  V30 243 O 22.8023 -1.80171 -3.07273 0
M  V30 244 O 21.6613 -2.54456 -4.83647 0
M  V30 245 H 18.7553 -0.353243 -0.747762 0
M  V30 246 H 21.3013 -1.32436 -1.06108 0
M  V30 247 H 20.0733 -2.83501 -2.69709 0
M  V30 248 H 19.6963 -1.4464 -3.70358 0
M  V30 249 N 20.6934 1.19889 -1.02296 0
M  V30 250 C 21.6404 2.22901 -0.598651 0
M  V30 251 C 22.6104 1.61588 0.384521 0
M  V30 252 O 23.7954 1.88697 0.282522 0
M  V30 253 C 20.9354 3.45063 0.0504476 0
M  V30 254 C 20.0484 4.20783 -0.978053 0
M  V30 255 C 19.1834 5.30356 -0.299338 0
M  V30 256 C 18.2224 5.97826 -1.31416 0
M  V30 257 N 17.3594 6.98975 -0.661667 0
M  V30 258 H 22.1994 2.58554 -1.48169 0
M  V30 259 H 19.7364 1.27039 -0.741584 0
M  V30 260 H 21.6944 4.14831 0.443971 0
M  V30 261 H 20.3244 3.10084 0.897097 0
M  V30 262 H 19.3764 3.50018 -1.48969 0
M  V30 263 H 20.6884 4.67109 -1.74958 0
M  V30 264 H 19.8424 6.06516 0.149347 0
M  V30 265 H 18.5814 4.85084 0.504445 0
M  V30 266 H 17.5864 5.20422 -1.77317 0
M  V30 267 H 18.8114 6.45183 -2.11933 0
M  V30 268 H 16.7574 6.55886 0.122132 0
M  V30 269 H 16.6744 7.43461 -1.37117 0
M  V30 270 H 17.9424 7.7914 -0.236785 0
M  V30 271 N 22.1715 0.800033 1.35784 0
M  V30 272 C 23.0815 0.207204 2.33683 0
M  V30 273 C 24.0975 -0.64631 1.61551 0
M  V30 274 O 25.2735 -0.559604 1.93469 0
M  V30 275 C 22.3385 -0.639659 3.40748 0
M  V30 276 C 21.3995 0.233585 4.28664 0
M  V30 277 C 20.6325 -0.572954 5.30616 0
M  V30 278 O 20.8555 -1.80816 5.40982 0
M  V30 279 O 19.7895 0.0327285 6.01891 0
M  V30 280 H 23.6155 1.01692 2.86169 0
M  V30 281 H 21.2005 0.561691 1.38439 0
M  V30 282 H 23.0825 -1.12223 4.06182 0
M  V30 283 H 21.7575 -1.42708 2.90544 0
M  V30 284 H 20.6645 0.763147 3.66233 0
M  V30 285 H 21.9975 0.984784 4.82248 0
M  V30 286 N 23.6496 -1.47581 0.552962 0
M  V30 287 C 24.5976 -2.31648 -0.21023 0
M  V30 288 C 25.5916 -1.42663 -0.913432 0
M  V30 289 O 26.7976 -1.5945 -0.835201 0
M  V30 290 H 23.1726 -0.746989 -0.0866676 0
M  V30 291 H 25.1436 -2.93869 0.518051 0
M  V30 292 C 23.8926 -3.25226 -1.22976 0
M  V30 293 H 23.2156 -3.93658 -0.698077 0
M  V30 294 H 24.6556 -3.86889 -1.73473 0
M  V30 295 C 23.1146 -2.48448 -2.27542 0
M  V30 296 O 23.6446 -2.22585 -3.34393 0
M  V30 297 N 21.8506 -2.09532 -2.01357 0
M  V30 298 H 21.3976 -2.30765 -1.14478 0
M  V30 299 H 21.3556 -1.58476 -2.71538 0
M  V30 300 N 25.1277 -0.289203 -1.54924 0
M  V30 301 C 26.0907 0.579144 -2.21762 0
M  V30 302 C 27.0907 1.07047 -1.1999 0
M  V30 303 O 28.2807 0.968384 -1.44803 0
M  V30 304 C 25.4127 1.80055 -2.8947 0
M  V30 305 H 26.6057 -0.00464908 -2.999 0
M  V30 306 H 24.1587 -0.0399306 -1.56249 0
M  V30 307 H 24.8937 2.42449 -2.15381 0
M  V30 308 H 24.6787 1.45602 -3.64064 0
M  V30 309 H 26.1687 2.41773 -3.40493 0
M  V30 310 N 26.6058 1.57591 -0.0167156 0
M  V30 311 C 27.5358 2.12496 0.967858 0
M  V30 312 C 28.5168 1.03807 1.34752 0
M  V30 313 O 29.7018 1.31577 1.42833 0
M  V30 314 C 26.8318 2.64194 2.25431 0
M  V30 315 C 25.7858 3.77559 2.01576 0
M  V30 316 C 25.1118 4.15636 3.36379 0
M  V30 317 C 26.4118 5.04151 1.36489 0
M  V30 318 H 28.1058 2.95013 0.510643 0
M  V30 319 H 25.6518 1.41915 0.244181 0
M  V30 320 H 27.6048 3.01236 2.94678 0
M  V30 321 H 26.3288 1.78821 2.73296 0
M  V30 322 H 24.9878 3.40937 1.34751 0
M  V30 323 H 24.6358 3.27263 3.81979 0
M  V30 324 H 24.3358 4.92022 3.21229 0
M  V30 325 H 25.8598 4.5525 4.06915 0
M  V30 326 H 27.2738 5.38857 1.95718 0
M  V30 327 H 25.6708 5.85453 1.31776 0
M  V30 328 H 26.7408 4.83733 0.336219 0
M  V30 329 N 28.0839 -0.256276 1.55502 0
M  V30 330 C 29.3609 -1.00789 1.67633 0
M  V30 331 C 29.7409 -2.03706 0.553826 0
M  V30 332 O 29.0889 -2.24145 -0.443969 0
M  V30 333 C 29.2989 -1.64968 3.07549 0
M  V30 334 C 30.6469 -2.15505 3.65845 0
M  V30 335 O 31.6709 -1.74925 3.1029 0
M  V30 336 O 30.5299 -2.89986 4.63217 0
M  V30 337 H 27.6239 -0.468553 0.681459 0
M  V30 338 H 30.1699 -0.250806 1.67836 0
M  V30 339 H 28.9419 -0.904785 3.80696 0
M  V30 340 H 28.5649 -2.47321 3.11317 0
M  V30 341 N 29.562 -1.4872 -0.521534 0
M  V30 342 C 30.978 -1.35028 -0.850855 0
M  V30 343 C 31.178 -0.367712 -1.98116 0
M  V30 344 O 30.234 0.208037 -2.51642 0
M  V30 345 C 31.547 -2.75263 -1.21041 0
M  V30 346 C 33.095 -2.83813 -1.31981 0
M  V30 347 C 33.57 -4.24769 -1.71276 0
M  V30 348 N 35.061 -4.27482 -1.78363 0
M  V30 349 C 35.796 -5.33494 -2.1017 0
M  V30 350 N 35.292 -6.49775 -2.40343 0
M  V30 351 N 37.085 -5.20894 -2.11248 0
M  V30 352 H 29.236 -2.11214 0.22413 0
M  V30 353 H 31.499 -0.947252 0.0376439 0
M  V30 354 H 31.205 -3.48765 -0.453415 0
M  V30 355 H 31.079 -3.09327 -2.15863 0
M  V30 356 H 33.466 -2.10561 -2.06756 0
M  V30 357 H 33.547 -2.53358 -0.352596 0
M  V30 358 H 33.191 -4.9854 -0.970588 0
M  V30 359 H 33.121 -4.52673 -2.69062 0
M  V30 360 H 35.612 -3.43611 -1.57288 0
M  V30 361 H 35.925 -7.26402 -2.63743 0
M  V30 362 H 34.27 -6.53035 -2.37844 0
M  V30 363 H 37.461 -4.29065 -1.87139 0
M  V30 364 H 37.634 -6.03612 -2.35704 0
M  V30 365 N 31.0401 0.771051 -1.3745 0
M  V30 366 C 32.0031 1.86598 -1.33093 0
M  V30 367 C 33.0031 1.59076 -0.234845 0
M  V30 368 O 34.1931 1.67145 -0.490732 0
M  V30 369 C 31.3251 3.23747 -1.06773 0
M  V30 370 H 32.5181 1.91873 -2.30488 0
M  V30 371 H 30.0711 0.970876 -1.2249 0
M  V30 372 H 30.8061 3.24148 -0.099129 0
M  V30 373 H 30.5911 3.45115 -1.86112 0
M  V30 374 H 32.0811 4.03824 -1.06377 0
M  V30 375 N 32.5182 1.22032 0.997298 0
M  V30 376 C 33.4282 1.00271 2.12092 0
M  V30 377 C 34.4442 -0.047621 1.73935 0
M  V30 378 O 35.6202 0.144136 2.00884 0
M  V30 379 C 32.6852 0.578449 3.4184 0
M  V30 380 C 31.7462 1.70189 3.94125 0
M  V30 381 C 30.9792 1.29778 5.17681 0
M  V30 382 O 31.2022 0.174676 5.70132 0
M  V30 383 O 30.1362 2.11261 5.63607 0
M  V30 384 H 33.9622 1.94398 2.3333 0
M  V30 385 H 31.5472 1.00587 1.10465 0
M  V30 386 H 33.4292 0.351998 4.19927 0
M  V30 387 H 32.1042 -0.334019 3.21972 0
M  V30 388 H 31.0112 1.98282 3.1723 0
M  V30 389 H 32.3442 2.59206 4.18417 0
M  V30 390 N 33.9963 -1.19345 1.0293 0
M  V30 391 C 34.9283 -2.22036 0.56857 0
M  V30 392 C 35.9413 -1.58865 -0.355779 0
M  V30 393 O 37.1303 -1.77851 -0.152103 0
M  V30 394 C 34.2303 -3.38363 -0.190752 0
M  V30 395 C 33.4033 -4.31118 0.738643 0
M  V30 396 C 32.4623 -5.26194 0.0246497 0
M  V30 397 O 31.4883 -5.65461 0.651354 0
M  V30 398 N 32.6903 -5.66971 -1.24594 0
M  V30 399 H 35.4553 -2.6219 1.45177 0
M  V30 400 H 33.0163 -1.34015 0.908381 0
M  V30 401 H 35.0083 -3.98981 -0.677961 0
M  V30 402 H 33.5783 -2.96994 -0.975366 0
M  V30 403 H 32.7983 -3.68276 1.40593 0
M  V30 404 H 34.0863 -4.90001 1.37029 0
M  V30 405 H 33.4843 -5.37104 -1.77583 0
M  V30 406 H 32.0413 -6.2984 -1.67764 0
M  V30 407 N 35.4744 -0.807222 -1.35358 0
M  V30 408 C 36.4374 -0.223665 -2.28106 0
M  V30 409 C 37.4374 0.589354 -1.4961 0
M  V30 410 O 38.6274 0.407745 -1.69361 0
M  V30 411 C 35.7594 0.688149 -3.33882 0
M  V30 412 H 36.9524 -1.04169 -2.81227 0
M  V30 413 H 34.5054 -0.577921 -1.45223 0
M  V30 414 H 35.2404 1.52984 -2.85948 0
M  V30 415 H 35.0254 0.10687 -3.91954 0
M  V30 416 H 36.5154 1.09075 -4.03104 0
M  V30 417 N 36.9525 1.47285 -0.560781 0
M  V30 418 C 37.8625 2.33846 0.187954 0
M  V30 419 C 38.8785 1.48412 0.908293 0
M  V30 420 O 40.0545 1.81332 0.876388 0
M  V30 421 C 37.1195 3.25178 1.2025 0
M  V30 422 C 36.1805 4.26504 0.489208 0
M  V30 423 C 35.4135 5.13472 1.45542 0
M  V30 424 O 35.6365 5.02959 2.6905 0
M  V30 425 O 34.5705 5.93902 0.977963 0
M  V30 426 H 38.3965 2.99177 -0.522177 0
M  V30 427 H 35.9815 1.45903 -0.321364 0
M  V30 428 H 37.8635 3.81584 1.78805 0
M  V30 429 H 36.5385 2.6247 1.89449 0
M  V30 430 H 35.4455 3.73847 -0.137627 0
M  V30 431 H 36.7785 4.91935 -0.161399 0
M  V30 432 N 38.4306 0.297415 1.54768 0
M  V30 433 C 39.3936 -0.567375 2.22066 0
M  V30 434 C 40.3936 -1.06409 1.20556 0
M  V30 435 O 41.5836 -0.960691 1.45315 0
M  V30 436 C 38.7156 -1.78517 2.90421 0
M  V30 437 H 39.9086 0.0205534 2.99893 0
M  V30 438 H 37.4616 0.0482163 1.56226 0
M  V30 439 H 38.1966 -2.41303 2.16664 0
M  V30 440 H 37.9816 -1.43669 3.64831 0
M  V30 441 H 39.4716 -2.39964 3.41771 0
M  V30 442 N 39.9087 -1.5758 0.0250728 0
M  V30 443 C 41.1857 -1.82917 -0.692873 0
M  V30 444 C 41.5657 -0.908137 -1.90568 0
M  V30 445 O 40.9137 0.0372298 -2.2847 0
M  V30 446 C 41.1237 -3.32034 -1.07492 0
M  V30 447 C 42.4717 -3.98406 -1.46826 0
M  V30 448 O 43.4957 -3.36505 -1.16801 0
M  V30 449 O 42.3547 -5.07497 -2.02754 0
M  V30 450 H 39.4487 -0.754079 -0.33955 0
M  V30 451 H 41.9947 -1.69619 0.0524456 0
M  V30 452 H 40.7667 -3.90728 -0.211552 0
M  V30 453 H 40.3897 -3.50424 -1.87854 0
M  V30 454 N 41.3868 0.248026 -1.55636 0
M  V30 455 C 42.3338 1.30707 -1.90222 0
M  V30 456 C 43.3038 1.47881 -0.756332 0
M  V30 457 O 44.4888 1.61883 -1.00988 0
M  V30 458 C 41.6288 2.65769 -2.20138 0
M  V30 459 C 40.7418 2.56612 -3.47526 0
M  V30 460 C 39.8768 3.8402 -3.67017 0
M  V30 461 C 38.9158 3.69476 -4.8801 0
M  V30 462 N 38.0528 4.88774 -5.04029 0
M  V30 463 H 42.8928 1.00512 -2.80538 0
M  V30 464 H 40.4298 0.485055 -1.38873 0
M  V30 465 H 42.3878 3.44386 -2.35487 0
M  V30 466 H 41.0178 2.94115 -1.33027 0
M  V30 467 H 40.0698 1.69571 -3.40514 0
M  V30 468 H 41.3818 2.41774 -4.36287 0
M  V30 469 H 40.5358 4.7108 -3.8232 0
M  V30 470 H 39.2748 4.01754 -2.76487 0
M  V30 471 H 38.2798 2.80799 -4.72686 0
M  V30 472 H 39.5048 3.53238 -5.8 0
M  V30 473 H 37.4508 5.0687 -4.16435 0
M  V30 474 H 37.3678 4.76562 -5.86877 0
M  V30 475 H 38.6358 5.77335 -5.23741 0
M  V30 476 N 42.8649 1.48995 0.513639 0
M  V30 477 C 43.8119 1.6473 1.61656 0
M  V30 478 C 44.7819 0.488984 1.58739 0
M  V30 479 O 45.9669 0.714478 1.76918 0
M  V30 480 C 43.1069 1.7082 2.99858 0
M  V30 481 C 42.2199 2.9787 3.12885 0
M  V30 482 C 41.3549 2.95017 4.41744 0
M  V30 483 C 40.3939 4.16702 4.48359 0
M  V30 484 N 39.5309 4.11832 5.68629 0
M  V30 485 H 44.3709 2.58909 1.47547 0
M  V30 486 H 41.9079 1.28382 0.71808 0
M  V30 487 H 43.8659 1.72331 3.79944 0
M  V30 488 H 42.4959 0.801181 3.12699 0
M  V30 489 H 41.5479 3.06029 2.25944 0
M  V30 490 H 42.8599 3.8786 3.13633 0
M  V30 491 H 42.0139 2.95021 5.30139 0
M  V30 492 H 40.7529 2.02784 4.43542 0
M  V30 493 H 39.7579 4.16955 3.58369 0
M  V30 494 H 40.9829 5.10113 4.48287 0
M  V30 495 H 38.9289 3.22428 5.71293 0
M  V30 496 H 38.8459 4.95543 5.7094 0
M  V30 497 H 40.1139 4.1592 6.59266 0
M  V30 498 N 44.343 -0.763751 1.37857 0
M  V30 499 C 45.306 -1.85889 1.34081 0
M  V30 500 C 46.306 -1.58949 0.243277 0
M  V30 501 O 47.496 -1.66882 0.499589 0
M  V30 502 C 44.628 -3.23176 1.08489 0
M  V30 503 H 45.821 -1.90648 2.31502 0
M  V30 504 H 43.374 -0.964367 1.23003 0
M  V30 505 H 44.109 -3.24091 0.116318 0
M  V30 506 H 43.894 -3.44124 1.8794 0
M  V30 507 H 45.384 -4.03254 1.08517 0
M  V30 508 N 45.8211 -1.22559 -0.990812 0
M  V30 509 C 46.7841 -0.998863 -2.0629 0
M  V30 510 C 47.7841 0.0354834 -1.60761 0
M  V30 511 O 48.9741 -0.203231 -1.7301 0
M  V30 512 C 46.1061 -0.509203 -3.37076 0
M  V30 513 H 47.2991 -1.95014 -2.27837 0
M  V30 514 H 44.8521 -1.04456 -1.16269 0
M  V30 515 H 45.5871 0.446335 -3.21214 0
M  V30 516 H 45.3721 -1.25547 -3.71457 0
M  V30 517 H 46.8621 -0.370888 -4.1595 0
M  V30 518 N 47.2992 1.18797 -1.03562 0
M  V30 519 C 48.2092 2.25913 -0.632505 0
M  V30 520 C 49.2252 1.70668 0.338882 0
M  V30 521 O 50.4012 2.00453 0.195076 0
M  V30 522 C 47.4662 3.467 0.00350942 0
M  V30 523 C 46.5272 4.17098 -1.01624 0
M  V30 524 C 45.7602 5.32119 -0.410478 0
M  V30 525 O 45.9832 5.64976 0.784725 0
M  V30 526 O 44.9172 5.9107 -1.13667 0
M  V30 527 H 48.7432 2.62648 -1.52478 0
M  V30 528 H 46.3282 1.25781 -0.806195 0
M  V30 529 H 48.2102 4.19878 0.35781 0
M  V30 530 H 46.8852 3.11798 0.869686 0
M  V30 531 H 45.7922 3.4601 -1.42224 0
M  V30 532 H 47.1252 4.55987 -1.85301 0
M  V30 533 N 48.7773 0.814389 1.34928 0
M  V30 534 C 50.0543 0.321363 1.92942 0
M  V30 535 C 50.4343 -1.19014 1.74353 0
M  V30 536 O 49.7823 -1.99328 1.11716 0
M  V30 537 C 49.9923 0.741323 3.41036 0
M  V30 538 C 51.3403 0.735266 4.18185 0
M  V30 539 O 52.3643 0.68336 3.49584 0
M  V30 540 O 51.2233 0.800703 5.40602 0
M  V30 541 H 48.3173 0.0858893 0.822528 0
M  V30 542 H 50.8633 0.898609 1.43955 0
M  V30 543 H 49.6353 1.78276 3.4833 0
M  V30 544 H 49.2583 0.139307 3.97356 0
M  V30 545 N 50.2554 -1.46986 0.568584 0
M  V30 546 C 51.6714 -1.57946 0.229189 0
M  V30 547 C 51.8714 -1.56567 -1.26843 0
M  V30 548 O 50.9274 -1.47511 -2.04931 0
M  V30 549 C 52.2404 -2.87963 0.865909 0
M  V30 550 C 53.7884 -3.01568 0.838188 0
M  V30 551 C 54.2634 -4.34301 1.45419 0
M  V30 552 N 55.7544 -4.40965 1.41788 0
M  V30 553 C 56.4894 -5.42256 1.86403 0
M  V30 554 N 55.9854 -6.50297 2.38926 0
M  V30 555 N 57.7784 -5.3337 1.77405 0
M  V30 556 H 49.9294 -1.46126 1.54146 0
M  V30 557 H 52.1924 -0.696156 0.643484 0
M  V30 558 H 51.8984 -2.94742 1.91886 0
M  V30 559 H 51.7724 -3.75423 0.365687 0
M  V30 560 H 54.1594 -2.94379 -0.206106 0
M  V30 561 H 54.2404 -2.1562 1.37629 0
M  V30 562 H 53.8844 -4.42247 2.49761 0
M  V30 563 H 53.8144 -5.19 0.891435 0
M  V30 564 H 56.3054 -3.63484 1.03381 0
M  V30 565 H 56.6184 -7.23777 2.70863 0
M  V30 566 H 54.9634 -6.51155 2.42944 0
M  V30 567 H 58.1544 -4.47865 1.3614 0
M  V30 568 H 58.3274 -6.12169 2.12492 0
M  V30 569 N 51.7335 -0.305618 -1.54608 0
M  V30 570 C 52.9585 0.307562 -2.05107 0
M  V30 571 C 53.3835 1.46385 -1.18123 0
M  V30 572 O 52.7415 1.8034 -0.186324 0
M  V30 573 C 52.7895 0.73704 -3.52987 0
M  V30 574 O 51.8935 1.84134 -3.6901 0
M  V30 575 H 51.2345 0.0589143 -0.661381 0
M  V30 576 H 53.7645 -0.448807 -1.99617 0
M  V30 577 H 53.7745 1.02459 -3.94925 0
M  V30 578 H 52.4495 -0.108773 -4.15758 0
M  V30 579 H 51.0265 1.55398 -3.38978 0
M  V30 580 N 53.2116 1.57565 -0.0334293 0
M  V30 581 C 54.1586 2.10478 0.946981 0
M  V30 582 C 55.1286 1.00787 1.32027 0
M  V30 583 O 56.3136 1.28232 1.41284 0
M  V30 584 C 53.4536 2.63994 2.22263 0
M  V30 585 C 52.5666 3.87709 1.90541 0
M  V30 586 C 51.7016 4.29604 3.12433 0
M  V30 587 C 50.7406 5.46065 2.76549 0
M  V30 588 N 49.8776 5.83096 3.9108 0
M  V30 589 H 54.7176 2.93963 0.488846 0
M  V30 590 H 52.2546 1.45296 0.22969 0
M  V30 591 H 54.2126 2.93114 2.96884 0
M  V30 592 H 52.8426 1.83333 2.65685 0
M  V30 593 H 51.8946 3.65291 1.06144 0
M  V30 594 H 53.2066 4.72403 1.60116 0
M  V30 595 H 52.3606 4.60182 3.9537 0
M  V30 596 H 51.0996 3.43685 3.46023 0
M  V30 597 H 50.1046 5.15176 1.92026 0
M  V30 598 H 51.3296 6.33685 2.44171 0
M  V30 599 H 49.2756 5.00132 4.24504 0
M  V30 600 H 49.1926 6.6244 3.64293 0
M  V30 601 H 50.4606 6.18282 4.74708 0
M  V30 602 N 54.6897 -0.239769 1.55765 0
M  V30 603 C 55.6217 -1.32001 1.87372 0
M  V30 604 C 56.6347 -1.43944 0.760522 0
M  V30 605 O 57.8237 -1.45167 1.0387 0
M  V30 606 C 54.9237 -2.69779 2.05115 0
M  V30 607 C 54.0967 -2.80014 3.36022 0
M  V30 608 C 53.1557 -3.98684 3.4342 0
M  V30 609 O 52.1817 -3.87877 4.16582 0
M  V30 610 N 53.3837 -5.12176 2.73232 0
M  V30 611 H 56.1487 -1.0522 2.80622 0
M  V30 612 H 53.7097 -0.429857 1.56089 0
M  V30 613 H 55.7017 -3.47517 2.07399 0
M  V30 614 H 54.2717 -2.89237 1.18577 0
M  V30 615 H 53.4917 -1.88896 3.45994 0
M  V30 616 H 54.7797 -2.83808 4.22292 0
M  V30 617 H 54.1777 -5.2385 2.13536 0
M  V30 618 H 52.7347 -5.88022 2.81199 0
M  V30 619 N 56.1678 -1.49265 -0.50573 0
M  V30 620 C 57.0978 -1.68495 -1.61653 0
M  V30 621 C 58.0788 -0.53366 -1.61512 0
M  V30 622 O 59.2638 -0.76897 -1.78327 0
M  V30 623 C 56.3938 -1.74709 -3.00157 0
M  V30 624 C 55.3478 -2.89581 -3.15162 0
M  V30 625 C 54.6738 -2.80903 -4.5497 0
M  V30 626 C 55.9738 -4.30578 -2.95634 0
M  V30 627 H 57.6678 -2.61493 -1.45814 0
M  V30 628 H 55.2138 -1.25838 -0.70005 0
M  V30 629 H 57.1668 -1.86748 -3.77761 0
M  V30 630 H 55.8908 -0.783067 -3.17074 0
M  V30 631 H 54.5498 -2.77136 -2.39982 0
M  V30 632 H 54.1978 -1.82419 -4.68756 0
M  V30 633 H 53.8978 -3.57999 -4.65951 0
M  V30 634 H 55.4218 -2.94944 -5.34641 0
M  V30 635 H 56.8358 -4.4373 -3.63011 0
M  V30 636 H 55.2328 -5.0886 -3.18091 0
M  V30 637 H 56.3028 -4.45352 -1.91806 0
M  V30 638 N 57.6459 0.756429 -1.3826 0
M  V30 639 C 58.5559 1.9009 -1.37488 0
M  V30 640 C 59.5719 1.71855 -0.272366 0
M  V30 641 O 60.7479 1.94827 -0.510318 0
M  V30 642 C 57.8129 3.25421 -1.19592 0
M  V30 643 C 56.8739 3.56202 -2.39622 0
M  V30 644 C 56.1069 4.85075 -2.2257 0
M  V30 645 O 56.3299 5.57246 -1.21793 0
M  V30 646 O 55.2639 5.15269 -3.11098 0
M  V30 647 H 59.0899 1.93695 -2.33914 0
M  V30 648 H 56.6749 0.901313 -1.1915 0
M  V30 649 H 58.5569 4.06337 -1.11661 0
M  V30 650 H 57.2319 3.22634 -0.262486 0
M  V30 651 H 56.1389 2.75458 -2.53128 0
M  V30 652 H 57.4719 3.63747 -3.31586 0
M  V30 653 N 59.124 1.23083 0.984299 0
M  V30 654 C 60.401 0.9689 1.69917 0
M  V30 655 C 60.781 -0.513604 2.04757 0
M  V30 656 O 60.129 -1.48383 1.73767 0
M  V30 657 C 60.339 1.87518 2.94343 0
M  V30 658 C 61.687 2.13636 3.6694 0
M  V30 659 O 62.711 1.85036 3.04368 0
M  V30 660 O 61.57 2.62119 4.79537 0
M  V30 661 H 58.664 0.365095 0.742048 0
M  V30 662 H 61.21 1.34107 1.03987 0
M  V30 663 H 59.982 2.87756 2.65164 0
M  V30 664 H 59.605 1.50514 3.6801 0
M  V30 665 N 60.6021 -1.18246 1.0419 0
M  V30 666 C 61.5121 -2.25574 0.644476 0
M  V30 667 C 62.5281 -1.70845 -0.329826 0
M  V30 668 O 63.7041 -2.00554 -0.184443 0
M  V30 669 C 60.7691 -3.46697 0.014877 0
M  V30 670 C 59.8301 -4.16554 1.03834 0
M  V30 671 C 59.0631 -5.31894 0.438692 0
M  V30 672 O 59.2861 -5.65385 -0.754752 0
M  V30 673 O 58.2201 -5.90459 1.168 0
M  V30 674 H 62.0461 -2.61836 1.53869 0
M  V30 675 H 59.6311 -1.25352 0.812854 0
M  V30 676 H 61.5131 -4.20062 -0.335538 0
M  V30 677 H 60.1881 -3.12255 -0.853138 0
M  V30 678 H 59.0951 -3.45251 1.44057 0
M  V30 679 H 60.4281 -4.54998 1.87716 0
M  V30 680 N 62.0802 -0.821533 -1.34494 0
M  V30 681 C 63.0102 -0.257138 -2.3208 0
M  V30 682 C 63.9912 0.625645 -1.58176 0
M  V30 683 O 65.1762 0.552811 -1.86166 0
M  V30 684 C 62.3062 0.582958 -3.42372 0
M  V30 685 C 61.2602 -0.202571 -4.2752 0
M  V30 686 C 60.5862 0.760179 -5.29269 0
M  V30 687 C 61.8862 -1.40998 -5.02908 0
M  V30 688 H 63.5802 -1.07247 -2.79532 0
M  V30 689 H 61.1262 -0.517163 -1.34393 0
M  V30 690 H 63.0792 0.987972 -4.09655 0
M  V30 691 H 61.8032 1.43133 -2.93565 0
M  V30 692 H 60.4622 -0.588936 -3.61838 0
M  V30 693 H 60.1102 1.60447 -4.76724 0
M  V30 694 H 59.8102 0.238809 -5.87115 0
M  V30 695 H 61.3342 1.16308 -5.9942 0
M  V30 696 H 62.7482 -1.07905 -5.63054 0
M  V30 697 H 61.1452 -1.86689 -5.70322 0
M  V30 698 H 62.2152 -2.1889 -4.32684 0
M  V30 699 N 63.5583 1.46682 -0.576371 0
M  V30 700 C 64.8043 2.02712 -0.0596221 0
M  V30 701 C 65.1373 1.44765 1.29448 0
M  V30 702 O 64.4123 0.610355 1.84675 0
M  V30 703 C 64.6953 3.60098 0.0129503 0
M  V30 704 C 64.5483 4.28441 -1.3696 0
M  V30 705 C 65.8673 4.34224 0.71678 0
M  V30 706 H 62.9863 0.736637 -0.0231407 0
M  V30 707 H 65.6283 1.74898 -0.742351 0
M  V30 708 H 63.7783 3.83926 0.594378 0
M  V30 709 H 65.4503 4.15896 -1.9957 0
M  V30 710 H 63.6933 3.8805 -1.93907 0
M  V30 711 H 64.3643 5.3716 -1.27135 0
M  V30 712 H 66.8403 4.15503 0.222908 0
M  V30 713 H 65.7163 5.43936 0.73657 0
M  V30 714 H 65.9773 4.04823 1.77682 0
M  V30 715 N 65.0364 0.313813 1.54444 0
M  V30 716 C 66.2614 -0.296681 2.05267 0
M  V30 717 C 66.6864 -1.45757 1.18897 0
M  V30 718 O 66.0444 -1.80239 0.195886 0
M  V30 719 C 66.0924 -0.71831 3.53373 0
M  V30 720 O 65.1964 -1.82175 3.69981 0
M  V30 721 H 64.5374 -0.0554061 0.661684 0
M  V30 722 H 67.0674 0.459387 1.99376 0
M  V30 723 H 67.0774 -1.00364 3.95463 0
M  V30 724 H 65.7524 0.130821 4.15694 0
M  V30 725 H 64.3294 -1.53598 3.39797 0
M  V30 726 N 66.5145 -1.57545 0.0417849 0
M  V30 727 C 67.4445 -2.14009 -0.933929 0
M  V30 728 C 68.4255 -1.05938 -1.33083 0
M  V30 729 O 69.6105 -1.33833 -1.40721 0
M  V30 730 C 66.7405 -2.67747 -2.21199 0
M  V30 731 C 65.6945 -3.80718 -1.95544 0
M  V30 732 C 65.0205 -4.20935 -3.29724 0
M  V30 733 C 66.3205 -5.06258 -1.28452 0
M  V30 734 H 68.0145 -2.95788 -0.463645 0
M  V30 735 H 65.5605 -1.42285 -0.221573 0
M  V30 736 H 67.5135 -3.05886 -2.89848 0
M  V30 737 H 66.2375 -1.83147 -2.70416 0
M  V30 738 H 64.8965 -3.43037 -1.2931 0
M  V30 739 H 64.5445 -3.33298 -3.76724 0
M  V30 740 H 64.2445 -4.9707 -3.13361 0
M  V30 741 H 65.7685 -4.61666 -3.9962 0
M  V30 742 H 67.1825 -5.41903 -1.8712 0
M  V30 743 H 65.5795 -5.87475 -1.22445 0
M  V30 744 H 66.6495 -4.84207 -0.259219 0
M  V30 745 N 67.9926 0.231505 -1.5589 0
M  V30 746 C 68.9246 1.31006 -1.8807 0
M  V30 747 C 69.9376 1.43539 -0.768145 0
M  V30 748 O 71.1266 1.44614 -1.04638 0
M  V30 749 C 68.2266 2.68688 -2.06543 0
M  V30 750 C 67.3996 2.78228 -3.37502 0
M  V30 751 C 66.4586 3.96857 -3.4553 0
M  V30 752 O 65.4846 3.85662 -4.18633 0
M  V30 753 N 66.6866 5.1072 -2.75944 0
M  V30 754 H 69.4516 1.03731 -2.81176 0
M  V30 755 H 67.0126 0.421573 -1.56315 0
M  V30 756 H 69.0046 3.46412 -2.09239 0
M  V30 757 H 67.5746 2.88605 -1.20109 0
M  V30 758 H 66.7946 1.87059 -3.46991 0
M  V30 759 H 68.0826 2.81564 -4.23791 0
M  V30 760 H 67.4806 5.2271 -2.16311 0
M  V30 761 H 66.0376 5.86523 -2.84314 0
M  V30 762 N 69.4707 1.49531 0.497807 0
M  V30 763 C 70.4177 1.66436 1.59899 0
M  V30 764 C 71.3877 0.505793 1.58212 0
M  V30 765 O 72.5727 0.733202 1.7615 0
M  V30 766 C 69.7127 1.7399 2.98029 0
M  V30 767 C 68.8257 3.01172 3.09708 0
M  V30 768 C 67.9607 2.99686 4.38591 0
M  V30 769 C 66.9997 4.21434 4.43914 0
M  V30 770 N 66.1367 4.1784 5.64229 0
M  V30 771 H 70.9767 2.60459 1.44793 0
M  V30 772 H 68.5137 1.29137 0.704423 0
M  V30 773 H 70.4717 1.76352 3.78095 0
M  V30 774 H 69.1017 0.834301 3.11832 0
M  V30 775 H 68.1537 3.08408 2.22685 0
M  V30 776 H 69.4657 3.91165 3.09502 0
M  V30 777 H 68.6197 3.00628 5.2698 0
M  V30 778 H 67.3587 2.07477 4.41367 0
M  V30 779 H 66.3637 4.20733 3.53926 0
M  V30 780 H 67.5887 5.14839 4.42851 0
M  V30 781 H 65.5347 3.28469 5.67841 0
M  V30 782 H 65.4517 5.01571 5.65652 0
M  V30 783 H 66.7197 4.22889 6.54817 0
M  V30 784 N 70.9488 -0.749086 1.3866 0
M  V30 785 C 71.8958 -1.86291 1.36251 0
M  V30 786 C 72.8658 -1.64578 0.224347 0
M  V30 787 O 74.0508 -1.86181 0.417279 0
M  V30 788 C 71.1908 -3.23644 1.19786 0
M  V30 789 C 70.3038 -3.57158 2.43027 0
M  V30 790 C 69.4388 -4.83838 2.19258 0
M  V30 791 C 68.4778 -5.10152 3.38247 0
M  V30 792 N 67.6148 -6.28029 3.13884 0
M  V30 793 H 72.4548 -1.87685 2.3147 0
M  V30 794 H 69.9918 -0.917287 1.14997 0
M  V30 795 H 71.9498 -4.0291 1.08254 0
M  V30 796 H 70.5798 -3.21566 0.282031 0
M  V30 797 H 69.6318 -2.72701 2.65214 0
M  V30 798 H 70.9438 -3.7253 3.31697 0
M  V30 799 H 70.0978 -5.71057 2.04888 0
M  V30 800 H 68.8368 -4.70614 1.2796 0
M  V30 801 H 67.8418 -4.21401 3.53131 0
M  V30 802 H 69.0668 -5.25271 4.30427 0
M  V30 803 H 67.0128 -6.1612 2.25238 0
M  V30 804 H 66.9298 -6.43922 3.96106 0
M  V30 805 H 68.1978 -7.18124 3.03179 0
M  V30 806 N 72.4269 -1.23603 -0.977757 0
M  V30 807 C 73.3569 -1.04401 -2.0886 0
M  V30 808 C 74.3379 0.0399052 -1.70053 0
M  V30 809 O 75.5229 -0.125246 -1.93796 0
M  V30 810 C 72.6529 -0.637269 -3.41403 0
M  V30 811 C 71.6069 -1.66883 -3.94124 0
M  V30 812 C 70.9329 -1.11745 -5.22893 0
M  V30 813 C 72.2329 -3.06247 -4.23096 0
M  V30 814 H 73.9269 -1.97316 -2.25182 0
M  V30 815 H 71.4729 -0.950096 -1.08209 0
M  V30 816 H 73.4259 -0.48998 -4.18542 0
M  V30 817 H 72.1499 0.327557 -3.24953 0
M  V30 818 H 70.8089 -1.80416 -3.19133 0
M  V30 819 H 70.4569 -0.143527 -5.02795 0
M  V30 820 H 70.1569 -1.80672 -5.59134 0
M  V30 821 H 71.6809 -0.982067 -6.02651 0
M  V30 822 H 73.0949 -2.96001 -4.90975 0
M  V30 823 H 71.4919 -3.72436 -4.70544 0
M  V30 824 H 72.5619 -3.55041 -3.30263 0
M  V30 825 N 73.905 1.17692 -1.04816 0
M  V30 826 C 74.852 2.21581 -0.645797 0
M  V30 827 C 75.822 1.62367 0.350159 0
M  V30 828 O 77.007 1.89254 0.242433 0
M  V30 829 C 74.147 3.45092 -0.0227568 0
M  V30 830 C 73.26 4.18613 -1.06709 0
M  V30 831 C 72.395 5.29602 -0.411767 0
M  V30 832 C 71.434 5.94904 -1.44067 0
M  V30 833 N 70.571 6.97414 -0.809781 0
M  V30 834 H 75.411 2.55353 -1.5362 0
M  V30 835 H 72.948 1.25438 -0.768364 0
M  V30 836 H 74.906 4.15679 0.35588 0
M  V30 837 H 73.536 3.11917 0.831122 0
M  V30 838 H 72.588 3.46779 -1.5636 0
M  V30 839 H 73.9 4.63293 -1.84827 0
M  V30 840 H 73.054 6.06696 0.0206623 0
M  V30 841 H 71.793 4.86045 0.401438 0
M  V30 842 H 70.798 5.16544 -1.88316 0
M  V30 843 H 72.023 6.40542 -2.25571 0
M  V30 844 H 69.969 6.55998 -0.0170186 0
M  V30 845 H 69.886 7.40386 -1.52856 0
M  V30 846 H 71.154 7.78463 -0.401999 0
M  V30 847 N 75.3831 0.828654 1.34056 0
M  V30 848 C 76.6311 0.41863 1.97717 0
M  V30 849 C 76.9521 -1.02314 1.66002 0
M  V30 850 O 76.2221 -1.71119 0.953683 0
M  V30 851 H 74.8021 0.151809 0.731412 0
M  V30 852 H 77.4641 1.05936 1.63596 0
M  V30 853 H 76.5601 0.542318 3.07352 0
M  V30 854 N 76.8612 -1.46375 0.584142 0
M  V30 855 C 78.0892 -2.06761 0.0759296 0
M  V30 856 C 78.5042 -1.43266 -1.22965 0
M  V30 857 O 77.8612 -0.538458 -1.74376 0
M  V30 858 C 77.9122 -3.61375 -0.0950384 0
M  V30 859 O 77.6332 -4.22495 1.15887 0
M  V30 860 C 79.1342 -4.38693 -0.637434 0
M  V30 861 H 76.3542 -0.668479 0.0581075 0
M  V30 862 H 78.8982 -1.8798 0.805218 0
M  V30 863 H 77.0532 -3.79578 -0.774554 0
M  V30 864 H 77.4672 -5.15385 0.973598 0
M  V30 865 H 78.9412 -5.47464 -0.706237 0
M  V30 866 H 79.4182 -4.06836 -1.65472 0
M  V30 867 H 80.0242 -4.25299 0.00725967 0
M  V30 868 N 78.3393 -0.321999 -1.54275 0
M  V30 869 C 79.2493 0.553631 -2.27974 0
M  V30 870 C 80.2653 1.13054 -1.32268 0
M  V30 871 O 81.4413 1.15084 -1.6528 0
M  V30 872 C 78.5063 1.69927 -3.02201 0
M  V30 873 C 77.5673 1.15433 -4.1349 0
M  V30 874 C 76.8003 2.24537 -4.84168 0
M  V30 875 O 77.0233 3.44852 -4.5435 0
M  V30 876 O 75.9573 1.90044 -5.7111 0
M  V30 877 H 79.7833 -0.0448345 -3.03667 0
M  V30 878 H 77.3683 -0.0877418 -1.49142 0
M  V30 879 H 79.2503 2.3663 -3.48689 0
M  V30 880 H 77.9253 2.28395 -2.29385 0
M  V30 881 H 76.8323 0.452436 -3.71354 0
M  V30 882 H 78.1653 0.614805 -4.88345 0
M  V30 883 N 79.8174 1.5752 -0.0501392 0
M  V30 884 C 81.0944 1.83996 0.663685 0
M  V30 885 C 81.4744 0.938339 1.89099 0
M  V30 886 O 80.8224 -0.00087759 2.285 0
M  V30 887 C 81.0324 3.33702 1.02196 0
M  V30 888 C 82.3804 4.00691 1.40469 0
M  V30 889 O 83.4044 3.38321 1.11433 0
M  V30 890 O 82.2634 5.10658 1.94654 0
M  V30 891 H 79.3574 0.759385 0.32751 0
M  V30 892 H 81.9034 1.69514 -0.0794238 0
M  V30 893 H 80.6754 3.91015 0.149364 0
M  V30 894 H 80.2984 3.53368 1.82255 0
M  V30 895 N 81.2955 -0.223234 1.56011 0
M  V30 896 C 82.2055 -1.29766 1.95443 0
M  V30 897 C 83.2215 -1.51373 0.858028 0
M  V30 898 O 84.3975 -1.64536 1.16146 0
M  V30 899 C 81.4625 -2.62772 2.26167 0
M  V30 900 C 80.5235 -2.49482 3.49367 0
M  V30 901 C 79.7565 -3.76145 3.78616 0
M  V30 902 O 79.9795 -4.79087 3.09568 0
M  V30 903 O 78.9135 -3.73358 4.72109 0
M  V30 904 H 82.7395 -0.99309 2.87004 0
M  V30 905 H 80.3245 -0.425958 1.43199 0
M  V30 906 H 82.2065 -3.41327 2.47131 0
M  V30 907 H 80.8815 -2.92913 1.37781 0
M  V30 908 H 79.7885 -1.69133 3.33684 0
M  V30 909 H 81.1215 -2.2428 4.38131 0
M  V30 910 N 82.7736 -1.49793 -0.48987 0
M  V30 911 C 83.7036 -1.70201 -1.59856 0
M  V30 912 C 84.6846 -0.55076 -1.60937 0
M  V30 913 O 85.8696 -0.787841 -1.77501 0
M  V30 914 C 82.9996 -1.77882 -2.98287 0
M  V30 915 C 81.9536 -2.92907 -3.12073 0
M  V30 916 C 81.2796 -2.85712 -4.51965 0
M  V30 917 C 82.5796 -4.3369 -2.91051 0
M  V30 918 H 84.2736 -2.63025 -1.43032 0
M  V30 919 H 81.8196 -1.26574 -0.686664 0
M  V30 920 H 83.7726 -1.90744 -3.75759 0
M  V30 921 H 82.4966 -0.816653 -3.16225 0
M  V30 922 H 81.1556 -2.79665 -2.37029 0
M  V30 923 H 80.8036 -1.8738 -4.66795 0
M  V30 924 H 80.5036 -3.62921 -4.62128 0
M  V30 925 H 82.0276 -3.00598 -5.31482 0
M  V30 926 H 83.4416 -4.47555 -3.58284 0
M  V30 927 H 81.8386 -5.12205 -3.12675 0
M  V30 928 H 82.9086 -4.47362 -1.87071 0
M  V30 929 N 84.2517 0.741722 -1.39055 0
M  V30 930 C 85.5287 1.49252 -1.26425 0
M  V30 931 C 85.9087 2.10705 0.129144 0
M  V30 932 O 85.2567 1.98045 1.13976 0
M  V30 933 C 85.4667 2.54934 -2.38347 0
M  V30 934 C 86.8147 3.21506 -2.77343 0
M  V30 935 O 87.8387 2.65245 -2.37747 0
M  V30 936 O 86.6977 4.23294 -3.45665 0
M  V30 937 H 83.7917 0.662451 -0.495064 0
M  V30 938 H 86.3377 0.776121 -1.50912 0
M  V30 939 H 85.1097 2.07857 -3.31529 0
M  V30 940 H 84.7327 3.34141 -2.15489 0
M  V30 941 N 85.7298 1.2412 0.971189 0
M  V30 942 C 86.6768 1.0305 2.06517 0
M  V30 943 C 87.6468 -0.0550666 1.66009 0
M  V30 944 O 88.8318 0.0988688 1.90544 0
M  V30 945 C 85.9718 0.637653 3.39158 0
M  V30 946 C 85.0848 1.79633 3.92882 0
M  V30 947 C 84.2198 1.34939 5.13775 0
M  V30 948 C 83.2588 2.47823 5.59687 0
M  V30 949 N 82.3958 2.04022 6.71803 0
M  V30 950 H 87.2358 1.96685 2.23873 0
M  V30 951 H 84.7728 0.979694 1.09729 0
M  V30 952 H 86.7308 0.390931 4.15364 0
M  V30 953 H 85.3608 -0.261693 3.21737 0
M  V30 954 H 84.4128 2.15681 3.13346 0
M  V30 955 H 85.7248 2.64466 4.22918 0
M  V30 956 H 84.8788 1.06134 5.97345 0
M  V30 957 H 83.6178 0.471557 4.85415 0
M  V30 958 H 82.6228 2.77392 4.74693 0
M  V30 959 H 83.8478 3.36158 5.90063 0
M  V30 960 H 81.7938 1.18632 6.45184 0
M  V30 961 H 81.7108 2.82409 7.01271 0
M  V30 962 H 82.9788 1.78347 7.58823 0
M  V30 963 N 87.2079 -1.17134 1.05439 0
M  V30 964 C 88.4379 -1.91094 0.785274 0
M  V30 965 C 88.8459 -1.77198 -0.663142 0
M  V30 966 O 88.1889 -1.10835 -1.46497 0
M  V30 967 C 88.2509 -3.42594 1.08949 0
M  V30 968 C 87.9149 -3.80274 2.53458 0
M  V30 969 C 88.9119 -3.82912 3.51673 0
M  V30 970 C 86.5969 -4.11162 2.88532 0
M  V30 971 C 88.5909 -4.15913 4.83006 0
M  V30 972 C 86.2779 -4.43831 4.20068 0
M  V30 973 C 87.2759 -4.46185 5.17115 0
M  V30 974 O 86.9639 -4.78083 6.46291 0
M  V30 975 H 86.6959 -0.613073 0.284811 0
M  V30 976 H 89.2499 -1.49461 1.40893 0
M  V30 977 H 87.4799 -3.84534 0.408741 0
M  V30 978 H 89.1689 -3.97817 0.805991 0
M  V30 979 H 89.9349 -3.5917 3.25917 0
M  V30 980 H 85.8139 -4.085 2.13656 0
M  V30 981 H 89.3579 -4.17665 5.5875 0
M  V30 982 H 85.2549 -4.67037 4.45586 0
M  V30 983 H 86.0229 -4.9593 6.51149 0
M  V30 984 N 88.686 -0.835752 -1.33615 0
M  V30 985 C 89.911 -0.442389 -2.02627 0
M  V30 986 C 90.336 0.947735 -1.62479 0
M  V30 987 O 89.694 1.61907 -0.815826 0
M  V30 988 C 89.742 -0.567216 -3.56111 0
M  V30 989 O 88.846 0.407799 -4.10379 0
M  V30 990 H 88.187 -0.180278 -0.639059 0
M  V30 991 H 90.717 -1.12972 -1.70583 0
M  V30 992 H 90.727 -0.447708 -4.05536 0
M  V30 993 H 89.402 -1.58103 -3.84677 0
M  V30 994 H 87.979 0.246107 -3.72087 0
M  V30 995 N 90.1641 1.46063 -0.591896 0
M  V30 996 C 91.0741 2.34192 0.13831 0
M  V30 997 C 92.0901 1.50305 0.876608 0
M  V30 998 O 93.2661 1.8315 0.837728 0
M  V30 999 C 90.3311 3.27656 1.13326 0
M  V30 1000 C 89.3921 4.27445 0.39863 0
M  V30 1001 C 88.6251 5.16443 1.34618 0
M  V30 1002 O 88.8481 5.08553 2.58321 0
M  V30 1003 O 87.7821 5.95843 0.851768 0
M  V30 1004 H 91.6081 2.98002 -0.58552 0
M  V30 1005 H 89.1931 1.45188 -0.352239 0
M  V30 1006 H 91.0751 3.85291 1.70671 0
M  V30 1007 H 89.7501 2.6643 1.83839 0
M  V30 1008 H 88.6571 3.73471 -0.216895 0
M  V30 1009 H 89.9901 4.91482 -0.265709 0
M  V30 1010 N 91.6422 0.330177 1.54103 0
M  V30 1011 C 92.6052 -0.520144 2.2322 0
M  V30 1012 C 93.6052 -1.03828 1.22786 0
M  V30 1013 O 94.7952 -0.929652 1.4732 0
M  V30 1014 C 91.9272 -1.72317 2.94142 0
M  V30 1015 H 93.1202 0.0841605 2.99782 0
M  V30 1016 H 90.6732 0.0813433 1.56088 0
M  V30 1017 H 91.4082 -2.36653 2.21734 0
M  V30 1018 H 91.1932 -1.35898 3.67796 0
M  V30 1019 H 92.6832 -2.3266 3.46784 0
M  V30 1020 N 93.1203 -1.57491 0.0584922 0
M  V30 1021 C 94.0503 -2.14988 -0.911178 0
M  V30 1022 C 95.0313 -1.07343 -1.31952 0
M  V30 1023 O 96.2163 -1.35318 -1.39294 0
M  V30 1024 C 93.3463 -2.70078 -2.18347 0
M  V30 1025 C 92.3003 -3.82771 -1.91495 0
M  V30 1026 C 91.6263 -4.24408 -3.25241 0
M  V30 1027 C 92.9263 -5.07592 -1.23075 0
M  V30 1028 H 94.6203 -2.96263 -0.432246 0
M  V30 1029 H 92.1663 -1.42512 -0.206469 0
M  V30 1030 H 94.1193 -3.08943 -2.86587 0
M  V30 1031 H 92.8433 -1.86005 -2.68458 0
M  V30 1032 H 91.5023 -3.44389 -1.25664 0
M  V30 1033 H 91.1503 -3.37275 -3.73168 0
M  V30 1034 H 90.8503 -5.00366 -3.08071 0
M  V30 1035 H 92.3743 -4.65879 -3.94701 0
M  V30 1036 H 93.7883 -5.43857 -1.81362 0
M  V30 1037 H 92.1853 -5.88741 -1.16207 0
M  V30 1038 H 93.2553 -4.84454 -0.207847 0
M  V30 1039 N 94.5984 0.214957 -1.56127 0
M  V30 1040 C 95.5454 1.26642 -1.92952 0
M  V30 1041 C 96.5154 1.46244 -0.78753 0
M  V30 1042 O 97.7004 1.59704 -1.04399 0
M  V30 1043 C 94.8404 2.6104 -2.25726 0
M  V30 1044 C 93.9534 2.49183 -3.52891 0
M  V30 1045 C 93.0884 3.76149 -3.7508 0
M  V30 1046 C 92.1274 3.59041 -4.95738 0
M  V30 1047 N 91.2644 4.77972 -5.14283 0
M  V30 1048 H 96.1044 0.945384 -2.82607 0
M  V30 1049 H 93.6414 0.455489 -1.3987 0
M  V30 1050 H 95.5994 3.39313 -2.42739 0
M  V30 1051 H 94.2294 2.91227 -1.39236 0
M  V30 1052 H 93.2814 1.6231 -3.44034 0
M  V30 1053 H 94.5934 2.32466 -4.41318 0
M  V30 1054 H 93.7474 4.62865 -3.92226 0
M  V30 1055 H 92.4864 3.95799 -2.84947 0
M  V30 1056 H 91.4914 2.7071 -4.78535 0
M  V30 1057 H 92.7164 3.40856 -5.87362 0
M  V30 1058 H 90.6624 4.97923 -4.27093 0
M  V30 1059 H 90.5794 4.64006 -5.96853 0
M  V30 1060 H 91.8474 5.66096 -5.35869 0
M  V30 1061 N 96.0765 1.50051 0.48192 0
M  V30 1062 C 97.3535 1.51009 1.2432 0
M  V30 1063 C 97.7335 0.248587 2.09631 0
M  V30 1064 O 97.0815 -0.768409 2.15192 0
M  V30 1065 C 97.2915 2.79981 2.08355 0
M  V30 1066 C 98.6395 3.3022 2.66908 0
M  V30 1067 O 99.6635 2.81228 2.18607 0
M  V30 1068 O 98.5225 4.15595 3.54884 0
M  V30 1069 H 95.6165 0.605239 0.563573 0
M  V30 1070 H 98.1625 1.62332 0.494627 0
M  V30 1071 H 96.9345 3.63275 1.45419 0
M  V30 1072 H 96.5575 2.7161 2.90368 0
M  V30 1073 N 97.5546 -0.734337 1.39446 0
M  V30 1074 C 98.5176 -1.83004 1.37994 0
M  V30 1075 C 99.5176 -1.58397 0.276938 0
M  V30 1076 O 100.708 -1.65785 0.534875 0
M  V30 1077 C 97.8396 -3.20802 1.1532 0
M  V30 1078 H 99.0326 -1.85694 2.35494 0
M  V30 1079 H 96.5856 -0.938059 1.25021 0
M  V30 1080 H 97.3206 -3.23772 0.185036 0
M  V30 1081 H 97.1056 -3.4006 1.95197 0
M  V30 1082 H 98.5956 -4.00862 1.17046 0
M  V30 1083 N 99.0327 -1.24633 -0.964593 0
M  V30 1084 C 99.9647 -0.999302 -2.06268 0
M  V30 1085 C 100.978 0.0323226 -1.62768 0
M  V30 1086 O 102.167 -0.205079 -1.77318 0
M  V30 1087 C 99.2667 -0.486816 -3.35385 0
M  V30 1088 C 98.4397 -1.5823 -4.07777 0
M  V30 1089 C 97.4987 -1.07191 -5.15166 0
M  V30 1090 O 96.5247 -1.76426 -5.41168 0
M  V30 1091 N 97.7267 0.0920373 -5.80427 0
M  V30 1092 H 100.492 -1.94477 -2.28033 0
M  V30 1093 H 98.0527 -1.15704 -1.13244 0
M  V30 1094 H 100.045 -0.130066 -4.04491 0
M  V30 1095 H 98.6147 0.364459 -3.10468 0
M  V30 1096 H 97.8347 -2.11109 -3.32906 0
M  V30 1097 H 99.1227 -2.31854 -4.52903 0
M  V30 1098 H 98.5207 0.670784 -5.61709 0
M  V30 1099 H 97.0777 0.389905 -6.50633 0
M  V30 1100 N 100.511 1.16574 -1.06058 0
M  V30 1101 C 101.421 2.2452 -0.680282 0
M  V30 1102 C 102.437 1.71348 0.302604 0
M  V30 1103 O 103.613 2.00822 0.152513 0
M  V30 1104 C 100.678 3.46629 -0.0700315 0
M  V30 1105 C 99.7388 4.14849 -1.10448 0
M  V30 1106 C 98.9718 5.31129 -0.523256 0
M  V30 1107 O 99.1948 5.66514 0.664709 0
M  V30 1108 O 98.1288 5.88526 -1.26179 0
M  V30 1109 H 101.955 2.59355 -1.58015 0
M  V30 1110 H 99.5398 1.24043 -0.832694 0
M  V30 1111 H 101.422 4.20543 0.268667 0
M  V30 1112 H 100.097 3.13573 0.803353 0
M  V30 1113 H 99.0038 3.42916 -1.49532 0
M  V30 1114 H 100.337 4.51954 -1.94931 0
M  V30 1115 N 101.989 0.842826 1.3317 0
M  V30 1116 C 102.936 0.276885 2.29133 0
M  V30 1117 C 103.906 -0.609527 1.54512 0
M  V30 1118 O 105.091 -0.546955 1.82792 0
M  V30 1119 C 102.231 -0.538707 3.40869 0
M  V30 1120 C 101.344 0.372169 4.30394 0
M  V30 1121 C 100.479 -0.454908 5.29249 0
M  V30 1122 C 99.5179 0.45411 6.10413 0
M  V30 1123 N 98.6549 -0.335075 7.013 0
M  V30 1124 H 103.495 1.10052 2.76934 0
M  V30 1125 H 101.032 0.554161 1.36262 0
M  V30 1126 H 102.99 -1.02709 4.0436 0
M  V30 1127 H 101.62 -1.32727 2.9425 0
M  V30 1128 H 100.672 0.97888 3.6759 0
M  V30 1129 H 101.984 1.0703 4.87182 0
M  V30 1130 H 101.138 -1.00695 5.98285 0
M  V30 1131 H 99.8769 -1.18646 4.73048 0
M  V30 1132 H 98.8819 1.01813 5.40291 0
M  V30 1133 H 100.107 1.18409 6.68697 0
M  V30 1134 H 98.0529 -1.04994 6.47543 0
M  V30 1135 H 97.9699 0.304262 7.55387 0
M  V30 1136 H 99.2379 -0.869224 7.74638 0
M  V30 1137 N 103.467 -1.45747 0.599634 0
M  V30 1138 C 104.397 -2.33235 -0.111306 0
M  V30 1139 C 105.378 -1.46359 -0.866781 0
M  V30 1140 O 106.563 -1.75146 -0.838904 0
M  V30 1141 C 103.693 -3.28932 -1.11451 0
M  V30 1142 C 102.647 -4.25381 -0.472772 0
M  V30 1143 C 101.973 -5.1071 -1.58365 0
M  V30 1144 C 103.273 -5.18831 0.600948 0
M  V30 1145 H 104.967 -2.92927 0.61919 0
M  V30 1146 H 102.513 -1.40857 0.299215 0
M  V30 1147 H 104.466 -3.89002 -1.62036 0
M  V30 1148 H 103.19 -2.67381 -1.8755 0
M  V30 1149 H 101.849 -3.66598 0.0121472 0
M  V30 1150 H 101.497 -4.45533 -2.33473 0
M  V30 1151 H 101.197 -5.7604 -1.15982 0
M  V30 1152 H 102.721 -5.73647 -2.09194 0
M  V30 1153 H 104.135 -5.73019 0.179491 0
M  V30 1154 H 102.532 -5.92595 0.946076 0
M  V30 1155 H 103.602 -4.6174 1.48068 0
M  V30 1156 N 104.945 -0.338344 -1.53925 0
M  V30 1157 C 105.855 0.529421 -2.28548 0
M  V30 1158 C 106.871 1.11645 -1.3346 0
M  V30 1159 O 108.047 1.13325 -1.66492 0
M  V30 1160 C 105.112 1.66713 -3.03987 0
M  V30 1161 C 104.173 1.11041 -4.14691 0
M  V30 1162 C 103.406 2.19389 -4.86522 0
M  V30 1163 O 103.629 3.40013 -4.57982 0
M  V30 1164 O 102.563 1.83976 -5.73094 0
M  V30 1165 H 106.389 -0.0770399 -3.03602 0
M  V30 1166 H 103.974 -0.103555 -1.49041 0
M  V30 1167 H 105.856 2.32918 -3.5118 0
M  V30 1168 H 104.531 2.25949 -2.31794 0
M  V30 1169 H 103.438 0.413024 -3.71813 0
M  V30 1170 H 104.771 0.562975 -4.8897 0
M  V30 1171 N 106.423 1.57458 -0.0668435 0
M  V30 1172 C 107.353 2.15468 0.899764 0
M  V30 1173 C 108.334 1.08042 1.31381 0
M  V30 1174 O 109.519 1.36054 1.38574 0
M  V30 1175 C 106.649 2.71232 2.16911 0
M  V30 1176 C 105.603 3.83781 1.89463 0
M  V30 1177 C 104.929 4.26127 3.22986 0
M  V30 1178 C 106.229 5.08238 1.20381 0
M  V30 1179 H 107.923 2.96488 0.416529 0
M  V30 1180 H 105.469 1.4262 0.198908 0
M  V30 1181 H 107.422 3.10458 2.84945 0
M  V30 1182 H 106.146 1.87426 2.67468 0
M  V30 1183 H 104.805 3.45051 1.23836 0
M  V30 1184 H 104.453 3.39249 3.71374 0
M  V30 1185 H 104.153 5.01993 3.05413 0
M  V30 1186 H 105.677 4.67966 3.92225 0
M  V30 1187 H 107.091 5.44811 1.78475 0
M  V30 1188 H 105.488 5.89349 1.13083 0
M  V30 1189 H 106.558 4.84558 0.182153 0
M  V30 1190 N 107.901 -0.206675 1.56239 0
M  V30 1191 C 108.864 -1.23976 1.92776 0
M  V30 1192 C 109.864 -1.39041 0.807729 0
M  V30 1193 O 111.054 -1.37051 1.0753 0
M  V30 1194 C 108.186 -2.61112 2.19165 0
M  V30 1195 H 109.379 -0.927764 2.85189 0
M  V30 1196 H 106.932 -0.447718 1.4975 0
M  V30 1197 H 107.667 -2.97386 1.29352 0
M  V30 1198 H 107.452 -2.51552 3.00772 0
M  V30 1199 H 108.942 -3.35633 2.48476 0
M  V30 1200 N 109.379 -1.50304 -0.473955 0
M  V30 1201 C 110.289 -1.7174 -1.5982 0
M  V30 1202 C 111.305 -0.600457 -1.63311 0
M  V30 1203 O 112.481 -0.878441 -1.81233 0
M  V30 1204 C 109.546 -1.80427 -2.96052 0
M  V30 1205 C 108.607 -3.04148 -3.02972 0
M  V30 1206 C 107.84 -3.12411 -4.32706 0
M  V30 1207 O 108.063 -2.27542 -5.23049 0
M  V30 1208 O 106.997 -4.05113 -4.45159 0
M  V30 1209 H 110.823 -2.67035 -1.44657 0
M  V30 1210 H 108.408 -1.34366 -0.653148 0
M  V30 1211 H 110.29 -1.88338 -3.7697 0
M  V30 1212 H 108.965 -0.883156 -3.11419 0
M  V30 1213 H 107.872 -3.0174 -2.21142 0
M  V30 1214 H 109.205 -3.95829 -2.92541 0
M  V30 1215 N 110.857 0.726932 -1.39834 0
M  V30 1216 C 111.804 1.841 -1.39197 0
M  V30 1217 C 112.774 1.642 -0.250502 0
M  V30 1218 O 113.959 1.85494 -0.446846 0
M  V30 1219 C 111.099 3.21697 -1.24919 0
M  V30 1220 C 110.212 3.53247 -2.48678 0
M  V30 1221 C 109.347 4.80289 -2.26928 0
M  V30 1222 C 108.386 5.04707 -3.4632 0
M  V30 1223 N 107.523 6.22956 -3.23836 0
M  V30 1224 H 112.363 1.83979 -2.34427 0
M  V30 1225 H 109.9 0.898876 -1.16442 0
M  V30 1226 H 111.858 4.01137 -1.1465 0
M  V30 1227 H 110.488 3.21076 -0.333153 0
M  V30 1228 H 109.54 2.68447 -2.69519 0
M  V30 1229 H 110.852 3.67205 -3.37582 0
M  V30 1230 H 110.006 5.67725 -2.13947 0
M  V30 1231 H 108.745 4.68519 -1.35431 0
M  V30 1232 H 107.75 4.1573 -3.5979 0
M  V30 1233 H 108.975 5.18357 -4.38729 0
M  V30 1234 H 106.921 6.12459 -2.35011 0
M  V30 1235 H 106.838 6.37539 -4.063 0
M  V30 1236 H 108.106 7.1321 -3.14566 0
M  V30 1237 N 112.336 1.25143 0.95797 0
M  V30 1238 C 113.283 1.05235 2.05412 0
M  V30 1239 C 114.253 -0.0374561 1.66058 0
M  V30 1240 O 115.438 0.119073 1.90428 0
M  V30 1241 C 112.578 0.673589 3.38462 0
M  V30 1242 C 111.691 1.8379 3.90954 0
M  V30 1243 C 110.826 1.40381 5.12315 0
M  V30 1244 C 109.865 2.53746 5.57027 0
M  V30 1245 N 109.002 2.11136 6.69601 0
M  V30 1246 H 113.842 1.99048 2.21774 0
M  V30 1247 H 111.379 0.991277 1.08683 0
M  V30 1248 H 113.337 0.434964 4.14926 0
M  V30 1249 H 111.967 -0.227554 3.21997 0
M  V30 1250 H 111.019 2.18992 3.11041 0
M  V30 1251 H 112.331 2.68937 4.20089 0
M  V30 1252 H 111.485 1.12464 5.96185 0
M  V30 1253 H 110.224 0.523015 4.84887 0
M  V30 1254 H 109.229 2.82412 4.71724 0
M  V30 1255 H 110.454 3.42398 5.86464 0
M  V30 1256 H 108.4 1.25468 6.4389 0
M  V30 1257 H 108.317 2.89832 6.98236 0
M  V30 1258 H 109.585 1.86385 7.56889 0
M  V30 1259 N 113.814 -1.1601 1.06675 0
M  V30 1260 C 114.777 -2.18724 0.685001 0
M  V30 1261 C 115.777 -1.58496 -0.271246 0
M  V30 1262 O 116.967 -1.74119 -0.0531156 0
M  V30 1263 C 114.099 -3.40899 0.00853648 0
M  V30 1264 H 115.292 -2.54011 1.59431 0
M  V30 1265 H 112.845 -1.30352 0.862441 0
M  V30 1266 H 113.58 -3.11173 -0.913337 0
M  V30 1267 H 113.365 -3.8587 0.696204 0
M  V30 1268 H 114.855 -4.16886 -0.24414 0
M  V30 1269 N 115.292 -0.849877 -1.32721 0
M  V30 1270 C 116.52 -0.464754 -2.01613 0
M  V30 1271 C 116.935 0.937191 -1.63897 0
M  V30 1272 O 116.292 1.61081 -0.857856 0
M  V30 1273 C 116.343 -0.588638 -3.56675 0
M  V30 1274 O 116.064 -1.93535 -3.93034 0
M  V30 1275 C 117.565 -0.2019 -4.4284 0
M  V30 1276 H 114.785 -0.183215 -0.645502 0
M  V30 1277 H 117.329 -1.1455 -1.69407 0
M  V30 1278 H 115.484 0.0443159 -3.87375 0
M  V30 1279 H 115.898 -1.92871 -4.87751 0
M  V30 1280 H 117.372 -0.339599 -5.50954 0
M  V30 1281 H 117.849 0.857224 -4.30753 0
M  V30 1282 H 118.455 -0.809733 -4.17521 0
M  V30 1283 N 116.77 1.45427 -0.607355 0
M  V30 1284 C 118.047 1.9557 -0.0344566 0
M  V30 1285 C 118.427 1.54979 1.43334 0
M  V30 1286 O 117.775 0.812241 2.13576 0
M  V30 1287 C 117.985 3.48226 -0.232321 0
M  V30 1288 C 119.333 4.2445 -0.113001 0
M  V30 1289 O 120.357 3.55829 -0.162431 0
M  V30 1290 O 119.216 5.465 0.00209442 0
M  V30 1291 H 116.31 0.826222 0.0358667 0
M  V30 1292 H 118.856 1.55594 -0.6774 0
M  V30 1293 H 117.628 3.70739 -1.25174 0
M  V30 1294 H 117.251 3.95092 0.445896 0
M  V30 1295 N 118.248 0.346503 1.53744 0
M  V30 1296 C 119.211 -0.496439 2.23759 0
M  V30 1297 C 120.211 -1.0252 1.2388 0
M  V30 1298 O 121.401 -0.913974 1.48297 0
M  V30 1299 C 118.533 -1.69187 2.95954 0
M  V30 1300 H 119.726 0.115952 2.99676 0
M  V30 1301 H 117.279 0.0978939 1.55993 0
M  V30 1302 H 118.014 -2.34288 2.24231 0
M  V30 1303 H 117.799 -1.31989 3.69217 0
M  V30 1304 H 119.289 -2.28969 3.49232 0
M  V30 1305 N 119.726 -1.57421 0.075193 0
M  V30 1306 C 120.636 -2.1642 -0.905511 0
M  V30 1307 C 121.652 -1.12828 -1.32461 0
M  V30 1308 O 122.828 -1.45109 -1.39661 0
M  V30 1309 C 119.893 -2.71693 -2.15369 0
M  V30 1310 C 118.954 -3.90171 -1.79068 0
M  V30 1311 C 118.187 -4.42798 -2.97936 0
M  V30 1312 O 118.41 -3.94416 -4.12058 0
M  V30 1313 O 117.344 -5.34085 -2.77555 0
M  V30 1314 H 121.17 -3.00588 -0.433626 0
M  V30 1315 H 118.755 -1.48664 -0.148067 0
M  V30 1316 H 120.637 -3.07104 -2.88557 0
M  V30 1317 H 119.312 -1.90582 -2.61649 0
M  V30 1318 H 118.219 -3.59606 -1.03122 0
M  V30 1319 H 119.552 -4.72584 -1.37569 0
M  V30 1320 N 121.204 0.198386 -1.56346 0
M  V30 1321 C 122.167 1.22952 -1.93431 0
M  V30 1322 C 123.167 1.38611 -0.815092 0
M  V30 1323 O 124.357 1.36479 -1.08255 0
M  V30 1324 C 121.489 2.59946 -2.20546 0
M  V30 1325 H 122.682 0.912626 -2.85677 0
M  V30 1326 H 120.235 0.43977 -1.49986 0
M  V30 1327 H 120.97 2.96696 -1.30927 0
M  V30 1328 H 120.755 2.49953 -3.02102 0
M  V30 1329 H 122.245 3.3431 -2.50253 0
M  V30 1330 N 122.682 1.50554 0.465978 0
M  V30 1331 C 123.959 1.5232 1.22712 0
M  V30 1332 C 124.339 0.270807 2.09356 0
M  V30 1333 O 123.687 -0.745541 2.15995 0
M  V30 1334 C 123.897 2.82175 2.05374 0
M  V30 1335 C 125.245 3.33033 2.6339 0
M  V30 1336 O 126.269 2.83531 2.15612 0
M  V30 1337 O 125.128 4.19336 3.50456 0
M  V30 1338 H 122.222 0.611183 0.557122 0
M  V30 1339 H 124.768 1.62847 0.477381 0
M  V30 1340 H 123.54 3.64797 1.41558 0
M  V30 1341 H 123.163 2.74675 2.87471 0
M  V30 1342 N 124.16 -0.719506 1.40217 0
M  V30 1343 C 125.406 -1.48152 1.38488 0
M  V30 1344 C 125.739 -1.94195 -0.0141867 0
M  V30 1345 O 125.014 -1.67884 -0.982096 0
M  V30 1346 C 125.297 -2.71035 2.37091 0
M  V30 1347 C 125.15 -2.30912 3.86005 0
M  V30 1348 C 126.469 -3.73182 2.33288 0
M  V30 1349 H 123.588 -0.537395 0.504357 0
M  V30 1350 H 126.23 -0.821472 1.71324 0
M  V30 1351 H 124.38 -3.27352 2.0922 0
M  V30 1352 H 126.052 -1.80107 4.24687 0
M  V30 1353 H 124.295 -1.62958 4.02029 0
M  V30 1354 H 124.966 -3.18978 4.50508 0
M  V30 1355 H 127.442 -3.26485 2.57966 0
M  V30 1356 H 126.318 -4.56806 3.04334 0
M  V30 1357 H 126.579 -4.21202 1.34317 0
M  V30 1358 N 125.638 -1.25649 -0.95132 0
M  V30 1359 C 126.601 -1.06399 -2.03007 0
M  V30 1360 C 127.601 -0.0156794 -1.60792 0
M  V30 1361 O 128.791 -0.25817 -1.72276 0
M  V30 1362 C 125.923 -0.616184 -3.35285 0
M  V30 1363 H 127.116 -2.02164 -2.21517 0
M  V30 1364 H 124.669 -1.08103 -1.12887 0
M  V30 1365 H 125.404 0.343917 -3.22471 0
M  V30 1366 H 125.189 -1.37301 -3.67275 0
M  V30 1367 H 126.679 -0.503032 -4.14559 0
M  V30 1368 N 127.117 1.15442 -1.07289 0
M  V30 1369 C 128.342 1.90638 -0.816828 0
M  V30 1370 C 128.767 1.77445 0.624083 0
M  V30 1371 O 128.125 1.10671 1.43602 0
M  V30 1372 C 128.173 3.39008 -1.22906 0
M  V30 1373 O 127.277 4.10701 -0.373975 0
M  V30 1374 H 126.618 0.593555 -0.297638 0
M  V30 1375 H 129.148 1.46198 -1.43134 0
M  V30 1376 H 129.158 3.89801 -1.20497 0
M  V30 1377 H 127.833 3.47929 -2.27856 0
M  V30 1378 H 126.41 3.70046 -0.460499 0
M  V30 1379 N 128.595 0.856903 1.32268 0
M  V30 1380 C 129.525 0.31858 2.31316 0
M  V30 1381 C 130.506 -0.583487 1.59779 0
M  V30 1382 O 131.691 -0.503259 1.87566 0
M  V30 1383 C 128.821 -0.491979 3.43798 0
M  V30 1384 C 127.775 0.315849 4.26833 0
M  V30 1385 C 127.101 -0.619586 5.31098 0
M  V30 1386 C 128.401 1.54282 4.98993 0
M  V30 1387 H 130.095 1.14621 2.76591 0
M  V30 1388 H 127.641 0.552613 1.32974 0
M  V30 1389 H 129.594 -0.879012 4.1213 0
M  V30 1390 H 128.318 -1.35299 2.97257 0
M  V30 1391 H 126.977 0.684664 3.6015 0
M  V30 1392 H 126.625 -1.47751 4.8081 0
M  V30 1393 H 126.325 -0.0830621 5.87541 0
M  V30 1394 H 127.849 -1.00375 6.02293 0
M  V30 1395 H 129.263 1.22796 5.59995 0
M  V30 1396 H 127.66 2.01745 5.65172 0
M  V30 1397 H 128.73 2.30285 4.26728 0
M  V30 1398 N 130.073 -1.45103 0.615059 0
M  V30 1399 C 131.021 -2.32331 -0.111791 0
M  V30 1400 C 132.015 -1.46409 -0.852102 0
M  V30 1401 O 133.221 -1.62849 -0.766821 0
M  V30 1402 H 129.596 -0.749993 -0.0549072 0
M  V30 1403 H 131.567 -2.91407 0.642225 0
M  V30 1404 C 130.316 -3.3015 -1.09071 0
M  V30 1405 H 129.639 -3.96265 -0.530485 0
M  V30 1406 H 131.079 -3.93898 -1.56908 0
M  V30 1407 C 129.538 -2.57875 -2.168 0
M  V30 1408 O 130.068 -2.36567 -3.24652 0
M  V30 1409 N 128.274 -2.17884 -1.92289 0
M  V30 1410 H 127.821 -2.35413 -1.04587 0
M  V30 1411 H 127.779 -1.6985 -2.64572 0
M  V30 1412 N 131.551 -0.354651 -1.53558 0
M  V30 1413 C 132.967 -0.00315426 -1.596 0
M  V30 1414 C 133.167 1.47741 -1.37021 0
M  V30 1415 O 132.223 2.23759 -1.16996 0
M  V30 1416 C 133.536 -0.44929 -2.97325 0
M  V30 1417 C 135.084 -0.402578 -3.104 0
M  V30 1418 C 135.559 -0.824355 -4.5052 0
M  V30 1419 N 137.05 -0.778979 -4.56603 0
M  V30 1420 C 137.785 -1.07715 -5.63192 0
M  V30 1421 N 137.281 -1.44405 -6.77583 0
M  V30 1422 N 139.074 -1.00066 -5.53121 0
M  V30 1423 H 131.225 -1.31893 -1.66487 0
M  V30 1424 H 133.488 -0.538388 -0.780284 0
M  V30 1425 H 133.194 -1.48202 -3.1895 0
M  V30 1426 H 133.068 0.169772 -3.76818 0
M  V30 1427 H 135.455 0.621004 -2.88492 0
M  V30 1428 H 135.536 -1.05699 -2.32941 0
M  V30 1429 H 135.18 -1.846 -4.73165 0
M  V30 1430 H 135.11 -0.147304 -5.26394 0
M  V30 1431 H 137.601 -0.508528 -3.74463 0
M  V30 1432 H 137.914 -1.65612 -7.54846 0
M  V30 1433 H 136.259 -1.4826 -6.79002 0
M  V30 1434 H 139.45 -0.713293 -4.62633 0
M  V30 1435 H 139.623 -1.23638 -6.36096 0
M  V30 1436 N 133.029 1.57378 -0.0835403 0
M  V30 1437 C 134.445 1.57246 0.273109 0
M  V30 1438 C 134.645 1.09385 1.69225 0
M  V30 1439 O 133.701 0.765051 2.40631 0
M  V30 1440 C 135.014 3.00614 0.0720628 0
M  V30 1441 C 136.562 3.12684 0.1407 0
M  V30 1442 C 137.037 4.57989 -0.0322094 0
M  V30 1443 N 138.528 4.63194 0.0230085 0
M  V30 1444 C 139.263 5.73335 -0.0861941 0
M  V30 1445 N 138.759 6.9235 -0.24958 0
M  V30 1446 N 140.552 5.62093 -0.0282886 0
M  V30 1447 H 132.703 1.86801 -1.0109 0
M  V30 1448 H 134.966 0.861687 -0.395222 0
M  V30 1449 H 134.672 3.39786 -0.907662 0
M  V30 1450 H 134.546 3.68193 0.81936 0
M  V30 1451 H 136.933 2.73391 1.11092 0
M  V30 1452 H 137.014 2.47719 -0.637896 0
M  V30 1453 H 136.658 4.97973 -0.999247 0
M  V30 1454 H 136.588 5.21 0.765937 0
M  V30 1455 H 139.079 3.77613 0.14722 0
M  V30 1456 H 139.392 7.72117 -0.324733 0
M  V30 1457 H 137.737 6.94415 -0.285097 0
M  V30 1458 H 140.928 4.67997 0.0981408 0
M  V30 1459 H 141.101 6.47895 -0.116845 0
M  V30 1460 N 134.507 -0.190092 1.56449 0
M  V30 1461 C 135.756 -0.907912 1.80111 0
M  V30 1462 C 136.069 -1.84214 0.657619 0
M  V30 1463 O 137.275 -2.60094 0.778663 0
M  V30 1464 C 135.731 -1.66485 3.19078 0
M  V30 1465 C 135.339 -0.7752 4.41242 0
M  V30 1466 C 137.083 -2.37201 3.52045 0
M  V30 1467 C 134.99 -1.53129 5.71231 0
M  V30 1468 H 133.92 -0.34276 0.671589 0
M  V30 1469 H 136.571 -0.161109 1.82791 0
M  V30 1470 H 134.953 -2.45572 3.10661 0
M  V30 1471 H 136.127 -0.0226298 4.60794 0
M  V30 1472 H 134.442 -0.178627 4.16017 0
M  V30 1473 H 137.039 -2.94329 4.46402 0
M  V30 1474 H 137.382 -3.11632 2.76028 0
M  V30 1475 H 137.915 -1.65075 3.61932 0
M  V30 1476 H 134.654 -0.82967 6.50228 0
M  V30 1477 H 134.174 -2.25767 5.55688 0
M  V30 1478 H 135.853 -2.08377 6.12526 0
M  V30 1479 N 135.985 -1.50799 -0.457987 0
M  V30 1480 C 136.917 -1.66786 -1.57211 0
M  V30 1481 C 137.93 -0.548962 -1.53265 0
M  V30 1482 O 139.119 -0.8226 -1.58416 0
M  V30 1483 C 136.219 -1.64834 -2.96113 0
M  V30 1484 C 135.392 -2.92971 -3.24787 0
M  V30 1485 C 134.451 -2.83485 -4.43309 0
M  V30 1486 O 133.477 -3.5744 -4.42973 0
M  V30 1487 N 134.679 -1.97929 -5.45714 0
M  V30 1488 H 137.444 -2.62889 -1.43909 0
M  V30 1489 H 135.005 -1.48427 -0.646617 0
M  V30 1490 H 136.997 -1.56084 -3.7339 0
M  V30 1491 H 135.567 -0.764118 -3.03117 0
M  V30 1492 H 134.787 -3.15749 -2.36 0
M  V30 1493 H 136.075 -3.77834 -3.40762 0
M  V30 1494 H 135.473 -1.37182 -5.48815 0
M  V30 1495 H 134.03 -1.95073 -6.21924 0
M  V30 1496 N 137.463 0.71206 -1.40597 0
M  V30 1497 C 138.393 1.83889 -1.43899 0
M  V30 1498 C 139.374 1.67442 -0.299504 0
M  V30 1499 O 140.559 1.87421 -0.508624 0
M  V30 1500 C 137.689 3.21877 -1.30431 0
M  V30 1501 C 136.643 3.53002 -2.42019 0
M  V30 1502 C 135.969 4.90172 -2.13626 0
M  V30 1503 C 137.269 3.53643 -3.84362 0
M  V30 1504 H 138.963 1.81383 -2.38203 0
M  V30 1505 H 136.509 0.871237 -1.14654 0
M  V30 1506 H 138.462 4.00404 -1.31357 0
M  V30 1507 H 137.186 3.24968 -0.326049 0
M  V30 1508 H 135.845 2.76818 -2.40349 0
M  V30 1509 H 135.493 4.89869 -1.14182 0
M  V30 1510 H 135.193 5.11962 -2.88389 0
M  V30 1511 H 136.717 5.71028 -2.1624 0
M  V30 1512 H 138.131 4.22203 -3.87837 0
M  V30 1513 H 136.528 3.86961 -4.58673 0
M  V30 1514 H 137.598 2.52954 -4.13693 0
M  V30 1515 N 138.941 1.26152 0.944643 0
M  V30 1516 C 140.187 1.11657 1.69294 0
M  V30 1517 C 140.52 -0.339926 1.91202 0
M  V30 1518 O 139.795 -1.24994 1.49019 0
M  V30 1519 C 140.078 1.88236 3.06984 0
M  V30 1520 C 139.931 3.41772 2.92424 0
M  V30 1521 C 141.25 1.67343 4.07043 0
M  V30 1522 H 138.369 0.407004 0.614424 0
M  V30 1523 H 141.011 1.55106 1.09737 0
M  V30 1524 H 139.161 1.51308 3.57824 0
M  V30 1525 H 140.833 3.88433 2.48832 0
M  V30 1526 H 139.076 3.68974 2.28124 0
M  V30 1527 H 139.747 3.90579 3.90067 0
M  V30 1528 H 142.223 1.99509 3.65151 0
M  V30 1529 H 141.099 2.23346 5.01406 0
M  V30 1530 H 141.36 0.617158 4.37771 0
M  V30 1531 N 140.419 -1.14872 1.07899 0
M  V30 1532 C 141.329 -2.2341 0.715915 0
M  V30 1533 C 142.345 -1.71808 -0.275306 0
M  V30 1534 O 143.521 -2.01039 -0.120545 0
M  V30 1535 C 140.586 -3.46474 0.125168 0
M  V30 1536 C 139.647 -4.13039 1.17034 0
M  V30 1537 C 138.88 -5.30229 0.607688 0
M  V30 1538 O 139.103 -5.675 -0.574497 0
M  V30 1539 O 138.037 -5.86444 1.35526 0
M  V30 1540 H 141.863 -2.56808 1.62121 0
M  V30 1541 H 139.448 -1.22702 0.852322 0
M  V30 1542 H 141.33 -4.20917 -0.201729 0
M  V30 1543 H 140.005 -3.14811 -0.753364 0
M  V30 1544 H 138.912 -3.40493 1.54968 0
M  V30 1545 H 140.245 -4.48796 2.02097 0
M  V30 1546 N 141.898 -0.863906 -1.31812 0
M  V30 1547 C 142.808 -0.318461 -2.32428 0
M  V30 1548 C 143.824 0.568496 -1.64451 0
M  V30 1549 O 145 0.46666 -1.95919 0
M  V30 1550 C 142.065 0.476355 -3.43412 0
M  V30 1551 C 141.126 -0.43784 -4.27061 0
M  V30 1552 C 140.359 0.319138 -5.32745 0
M  V30 1553 O 140.582 1.54799 -5.48993 0
M  V30 1554 O 139.516 -0.319861 -6.01049 0
M  V30 1555 H 143.342 -1.15229 -2.80991 0
M  V30 1556 H 140.927 -0.627103 -1.35602 0
M  V30 1557 H 142.809 0.927156 -4.11074 0
M  V30 1558 H 141.484 1.28683 -2.97022 0
M  V30 1559 H 140.391 -0.937013 -3.62175 0
M  V30 1560 H 141.724 -1.21375 -4.77 0
M  V30 1561 N 143.376 1.44774 -0.622745 0
M  V30 1562 C 144.286 2.34433 0.0886031 0
M  V30 1563 C 145.302 1.52131 0.844529 0
M  V30 1564 O 146.478 1.84886 0.798691 0
M  V30 1565 C 143.543 3.29986 1.0635 0
M  V30 1566 C 142.604 4.28195 0.307873 0
M  V30 1567 C 141.837 5.19183 1.23633 0
M  V30 1568 O 142.06 5.13918 2.47476 0
M  V30 1569 O 140.994 5.97515 0.725189 0
M  V30 1570 H 144.82 2.96693 -0.648599 0
M  V30 1571 H 142.405 1.44408 -0.382957 0
M  V30 1572 H 144.287 3.88825 1.6246 0
M  V30 1573 H 142.962 2.70269 1.78146 0
M  V30 1574 H 141.869 3.72927 -0.296064 0
M  V30 1575 H 143.202 4.90808 -0.3699 0
M  V30 1576 N 144.854 0.36279 1.53368 0
M  V30 1577 C 145.784 -0.476976 2.28576 0
M  V30 1578 C 146.765 -1.08631 1.30894 0
M  V30 1579 O 147.95 -1.10409 1.59761 0
M  V30 1580 C 145.08 -1.61828 3.07293 0
M  V30 1581 C 144.034 -1.13633 4.1264 0
M  V30 1582 C 143.36 -2.36766 4.79423 0
M  V30 1583 C 144.66 -0.223061 5.21823 0
M  V30 1584 H 146.354 0.150474 2.99022 0
M  V30 1585 H 143.9 0.0738103 1.43811 0
M  V30 1586 H 145.853 -2.21237 3.58653 0
M  V30 1587 H 144.577 -2.27292 2.34533 0
M  V30 1588 H 143.236 -0.564945 3.62221 0
M  V30 1589 H 142.884 -3.0068 4.03238 0
M  V30 1590 H 142.584 -2.05192 5.50609 0
M  V30 1591 H 144.108 -2.96865 5.33576 0
M  V30 1592 H 145.522 -0.724545 5.68703 0
M  V30 1593 H 143.919 0.001678 6.001 0
M  V30 1594 H 144.989 0.735553 4.79289 0
M  V30 1595 N 146.332 -1.57332 0.0918853 0
M  V30 1596 C 147.609 -1.85691 -0.614668 0
M  V30 1597 C 147.989 -0.988146 -1.86545 0
M  V30 1598 O 147.337 -0.0597055 -2.28422 0
M  V30 1599 C 147.547 -3.36294 -0.933126 0
M  V30 1600 C 148.895 -4.04275 -1.29796 0
M  V30 1601 O 149.919 -3.41157 -1.02424 0
M  V30 1602 O 148.778 -5.1564 -1.81047 0
M  V30 1603 H 145.872 -0.767802 -0.307261 0
M  V30 1604 H 148.418 -1.69244 0.12434 0
M  V30 1605 H 147.19 -3.91273 -0.0456404 0
M  V30 1606 H 146.813 -3.58076 -1.72822 0
M  V30 1607 N 147.81 0.181792 -1.56548 0
M  V30 1608 C 149.226 0.53316 -1.50431 0
M  V30 1609 C 149.426 1.85184 -0.794297 0
M  V30 1610 O 148.482 2.50058 -0.350318 0
M  V30 1611 C 149.795 0.575597 -2.9514 0
M  V30 1612 C 151.343 0.663519 -3.05886 0
M  V30 1613 C 151.818 0.736946 -4.52032 0
M  V30 1614 N 153.309 0.800118 -4.56237 0
M  V30 1615 C 154.044 0.877327 -5.66649 0
M  V30 1616 N 153.54 0.916016 -6.86718 0
M  V30 1617 N 155.333 0.915542 -5.54594 0
M  V30 1618 H 147.484 -0.683025 -2.01118 0
M  V30 1619 H 149.747 -0.244988 -0.915797 0
M  V30 1620 H 149.453 -0.324482 -3.502 0
M  V30 1621 H 149.327 1.42572 -3.49218 0
M  V30 1622 H 151.714 1.55403 -2.50867 0
M  V30 1623 H 151.795 -0.21307 -2.54911 0
M  V30 1624 H 151.439 -0.149262 -5.07681 0
M  V30 1625 H 151.369 1.62953 -5.00753 0
M  V30 1626 H 153.86 0.778926 -3.69785 0
M  V30 1627 H 154.173 0.975813 -7.66614 0
M  V30 1628 H 152.518 0.884469 -6.89349 0
M  V30 1629 H 155.709 0.882245 -4.59711 0
M  V30 1630 H 155.882 0.972253 -6.40665 0
M  V30 1631 N 149.288 1.51039 0.449983 0
M  V30 1632 C 150.251 1.70863 1.5277 0
M  V30 1633 C 151.251 0.578846 1.5002 0
M  V30 1634 O 152.441 0.846213 1.52266 0
M  V30 1635 C 149.573 1.75341 2.9235 0
M  V30 1636 H 150.766 2.67034 1.36502 0
M  V30 1637 H 148.319 1.40838 0.677812 0
M  V30 1638 H 149.054 0.809383 3.14037 0
M  V30 1639 H 148.839 2.57436 2.95752 0
M  V30 1640 H 150.329 1.92559 3.70555 0
M  V30 1641 N 150.766 -0.704594 1.40972 0
M  V30 1642 C 151.698 -1.82974 1.38033 0
M  V30 1643 C 152.711 -1.60305 0.283931 0
M  V30 1644 O 153.9 -1.69975 0.545042 0
M  V30 1645 C 151 -3.19578 1.12795 0
M  V30 1646 C 150.173 -3.69352 2.34302 0
M  V30 1647 C 149.232 -4.84601 2.05058 0
M  V30 1648 O 148.258 -4.96682 2.7802 0
M  V30 1649 N 149.46 -5.71194 1.03528 0
M  V30 1650 H 152.225 -1.85991 2.35005 0
M  V30 1651 H 149.786 -0.886567 1.35468 0
M  V30 1652 H 151.778 -3.9429 0.911987 0
M  V30 1653 H 150.348 -3.11642 0.24452 0
M  V30 1654 H 149.568 -2.85649 2.71659 0
M  V30 1655 H 150.856 -3.99345 3.1528 0
M  V30 1656 H 150.254 -5.64054 0.431217 0
M  V30 1657 H 148.811 -6.45843 0.879205 0
M  V30 1658 N 152.244 -1.26651 -0.937939 0
M  V30 1659 C 153.154 -1.10276 -2.07066 0
M  V30 1660 C 154.17 -0.0354197 -1.73964 0
M  V30 1661 O 155.346 -0.239816 -1.99967 0
M  V30 1662 C 152.411 -0.740887 -3.38691 0
M  V30 1663 C 151.472 -1.88799 -3.85556 0
M  V30 1664 C 150.705 -1.54329 -5.10899 0
M  V30 1665 O 150.928 -0.446494 -5.6865 0
M  V30 1666 O 149.862 -2.37911 -5.52885 0
M  V30 1667 H 153.688 -2.05309 -2.23789 0
M  V30 1668 H 151.273 -1.05743 -1.0554 0
M  V30 1669 H 153.155 -0.55195 -4.1777 0
M  V30 1670 H 151.83 0.180022 -3.23199 0
M  V30 1671 H 150.737 -2.13191 -3.07409 0
M  V30 1672 H 152.07 -2.78874 -4.05574 0
M  V30 1673 N 153.722 1.14298 -1.08507 0
M  V30 1674 C 155.138 1.37347 -0.812901 0
M  V30 1675 C 155.338 1.93052 0.577325 0
M  V30 1676 O 154.394 2.14389 1.33393 0
M  V30 1677 C 155.707 2.33359 -1.89642 0
M  V30 1678 C 157.255 2.46996 -1.92255 0
M  V30 1679 C 157.73 3.46309 -2.99724 0
M  V30 1680 N 159.221 3.53853 -2.98902 0
M  V30 1681 C 159.956 4.3055 -3.787 0
M  V30 1682 N 159.452 5.10482 -4.6838 0
M  V30 1683 N 161.245 4.25757 -3.66998 0
M  V30 1684 H 153.396 0.764867 -1.9815 0
M  V30 1685 H 155.659 0.398966 -0.859959 0
M  V30 1686 H 155.365 1.99565 -2.89597 0
M  V30 1687 H 155.239 3.33274 -1.76659 0
M  V30 1688 H 157.626 2.80081 -0.929445 0
M  V30 1689 H 157.707 1.47039 -2.09316 0
M  V30 1690 H 157.351 3.13957 -3.99241 0
M  V30 1691 H 157.281 4.46049 -2.79907 0
M  V30 1692 H 159.772 2.96812 -2.33904 0
M  V30 1693 H 160.085 5.66284 -5.25873 0
M  V30 1694 H 158.43 5.09747 -4.72422 0
M  V30 1695 H 161.621 3.62383 -2.96304 0
M  V30 1696 H 161.794 4.85279 -4.29427 0
M  V30 1697 N 155.201 0.870884 1.31352 0
M  V30 1698 C 156.131 0.343096 2.30966 0
M  V30 1699 C 157.112 -0.566507 1.60389 0
M  V30 1700 O 158.297 -0.483336 1.88089 0
M  V30 1701 C 155.427 -0.455487 3.443 0
M  V30 1702 C 154.381 0.361103 4.26474 0
M  V30 1703 C 153.707 -0.563221 5.31725 0
M  V30 1704 C 155.007 1.59566 4.97329 0
M  V30 1705 H 156.701 1.17548 2.75359 0
M  V30 1706 H 154.247 0.566686 1.32381 0
M  V30 1707 H 156.2 -0.83525 4.13039 0
M  V30 1708 H 154.924 -1.32139 2.98675 0
M  V30 1709 H 153.583 0.722825 3.59403 0
M  V30 1710 H 153.231 -1.42643 4.82351 0
M  V30 1711 H 152.931 -0.0207409 5.87596 0
M  V30 1712 H 154.455 -0.939808 6.03324 0
M  V30 1713 H 155.869 1.28728 5.58661 0
M  V30 1714 H 154.266 2.07728 5.63 0
M  V30 1715 H 155.336 2.34798 4.24262 0
M  V30 1716 N 156.679 -1.44442 0.630414 0
M  V30 1717 C 157.642 -2.29107 -0.0652523 0
M  V30 1718 C 158.642 -1.41002 -0.772995 0
M  V30 1719 O 159.832 -1.62881 -0.617692 0
M  V30 1720 C 156.964 -3.22564 -1.10296 0
M  V30 1721 H 158.157 -2.92103 0.679401 0
M  V30 1722 H 155.71 -1.51343 0.390517 0
M  V30 1723 H 156.445 -2.64416 -1.87762 0
M  V30 1724 H 156.23 -3.87491 -0.59941 0
M  V30 1725 H 157.72 -3.86167 -1.5895 0
M  V30 1726 N 158.157 -0.370918 -1.53173 0
M  V30 1727 C 159.385 0.217704 -2.05751 0
M  V30 1728 C 159.8 1.42018 -1.24404 0
M  V30 1729 O 159.157 1.80245 -0.286033 0
M  V30 1730 C 159.208 0.605954 -3.56385 0
M  V30 1731 O 158.929 -0.548734 -4.3465 0
M  V30 1732 C 160.43 1.2524 -4.25241 0
M  V30 1733 H 157.65 0.0371659 -0.66997 0
M  V30 1734 H 160.194 -0.530832 -1.9749 0
M  V30 1735 H 158.349 1.3044 -3.6478 0
M  V30 1736 H 158.763 -0.23376 -5.23979 0
M  V30 1737 H 160.237 1.47458 -5.3194 0
M  V30 1738 H 160.714 2.2143 -3.79296 0
M  V30 1739 H 161.32 0.595233 -4.21114 0
M  V30 1740 N 159.635 1.57281 -0.100228 0
M  V30 1741 C 160.598 2.13158 0.842398 0
M  V30 1742 C 161.598 1.06202 1.20738 0
M  V30 1743 O 162.788 1.32066 1.13597 0
M  V30 1744 C 159.92 2.65639 2.13655 0
M  V30 1745 H 161.113 2.97766 0.357114 0
M  V30 1746 H 158.666 1.5559 0.148823 0
M  V30 1747 H 159.401 1.84566 2.66657 0
M  V30 1748 H 159.186 3.43844 1.88451 0
M  V30 1749 H 160.676 3.08846 2.81077 0
M  V30 1750 N 161.113 -0.173488 1.56642 0
M  V30 1751 C 162.043 -1.2171 1.99271 0
M  V30 1752 C 163.024 -1.46289 0.867959 0
M  V30 1753 O 164.209 -1.5766 1.13388 0
M  V30 1754 C 161.339 -2.55651 2.35074 0
M  V30 1755 C 160.293 -2.45645 3.50489 0
M  V30 1756 C 159.619 -3.84056 3.72028 0
M  V30 1757 C 160.919 -1.96302 4.84007 0
M  V30 1758 H 162.613 -0.86275 2.867 0
M  V30 1759 H 160.159 -0.413571 1.37933 0
M  V30 1760 H 162.112 -3.2886 2.63494 0
M  V30 1761 H 160.836 -2.92869 1.44552 0
M  V30 1762 H 159.495 -1.7489 3.22194 0
M  V30 1763 H 159.143 -4.18664 2.788 0
M  V30 1764 H 158.843 -3.7823 4.49684 0
M  V30 1765 H 160.367 -4.58854 4.02846 0
M  V30 1766 H 161.781 -2.59284 5.11317 0
M  V30 1767 H 160.178 -2.01429 5.65284 0
M  V30 1768 H 161.248 -0.917226 4.76146 0
M  V30 1769 N 162.591 -1.51276 -0.441967 0
M  V30 1770 C 163.523 -1.68444 -1.55433 0
M  V30 1771 C 164.536 -0.565187 -1.52674 0
M  V30 1772 O 165.725 -0.839356 -1.57534 0
M  V30 1773 C 162.825 -1.67966 -2.94348 0
M  V30 1774 C 161.998 -2.964 -3.21661 0
M  V30 1775 C 161.057 -2.88171 -4.40277 0
M  V30 1776 O 160.083 -3.62119 -4.39157 0
M  V30 1777 N 161.285 -2.03706 -5.43584 0
M  V30 1778 H 164.05 -2.644 -1.41112 0
M  V30 1779 H 161.611 -1.49104 -0.630838 0
M  V30 1780 H 163.603 -1.60035 -3.71713 0
M  V30 1781 H 162.173 -0.796225 -3.0229 0
M  V30 1782 H 161.393 -3.18234 -2.32638 0
M  V30 1783 H 162.681 -3.81427 -3.36736 0
M  V30 1784 H 162.079 -1.42995 -5.47329 0
M  V30 1785 H 160.636 -2.01658 -6.1982 0
M  V30 1786 N 164.069 0.697108 -1.41344 0
M  V30 1787 C 165.016 1.81106 -1.43071 0
M  V30 1788 C 165.986 1.63632 -0.285275 0
M  V30 1789 O 167.171 1.84504 -0.486091 0
M  V30 1790 C 164.311 3.18975 -1.31715 0
M  V30 1791 C 163.424 3.47892 -2.56115 0
M  V30 1792 C 162.559 4.75367 -2.37064 0
M  V30 1793 C 161.598 4.97247 -3.56948 0
M  V30 1794 N 160.735 6.15947 -3.36977 0
M  V30 1795 H 165.575 1.78965 -2.38276 0
M  V30 1796 H 163.112 0.873975 -1.18322 0
M  V30 1797 H 165.07 3.98615 -1.23133 0
M  V30 1798 H 163.7 3.20297 -0.401183 0
M  V30 1799 H 162.752 2.62669 -2.75153 0
M  V30 1800 H 164.064 3.59962 -3.45295 0
M  V30 1801 H 163.218 5.63059 -2.25941 0
M  V30 1802 H 161.957 4.65541 -1.45338 0
M  V30 1803 H 160.962 4.08004 -3.68527 0
M  V30 1804 H 162.187 5.08934 -4.49626 0
M  V30 1805 H 160.133 6.07336 -2.47949 0
M  V30 1806 H 160.05 6.28777 -4.19732 0
M  V30 1807 H 161.318 7.06377 -3.29623 0
M  V30 1808 N 165.547 1.27147 0.931209 0
M  V30 1809 C 166.477 1.12081 2.04842 0
M  V30 1810 C 167.458 0.0232364 1.70084 0
M  V30 1811 O 168.643 0.197085 1.93197 0
M  V30 1812 C 165.773 0.76354 3.38803 0
M  V30 1813 C 164.727 1.81396 3.87659 0
M  V30 1814 C 164.053 1.31075 5.18385 0
M  V30 1815 C 165.353 3.21739 4.11438 0
M  V30 1816 H 167.047 2.05537 2.17703 0
M  V30 1817 H 164.593 0.989603 1.04608 0
M  V30 1818 H 166.546 0.644982 4.16435 0
M  V30 1819 H 165.27 -0.206727 3.25945 0
M  V30 1820 H 163.929 1.92136 3.12217 0
M  V30 1821 H 163.577 0.330037 5.01916 0
M  V30 1822 H 163.277 2.013 5.52044 0
M  V30 1823 H 164.801 1.20506 5.98591 0
M  V30 1824 H 166.215 3.14019 4.79651 0
M  V30 1825 H 164.612 3.89644 4.56397 0
M  V30 1826 H 165.682 3.67054 3.16859 0
M  V30 1827 N 167.025 -1.13721 1.09112 0
M  V30 1828 C 167.935 -2.22638 0.73957 0
M  V30 1829 C 168.951 -1.72091 -0.257068 0
M  V30 1830 O 170.127 -2.01155 -0.0992154 0
M  V30 1831 C 167.192 -3.46322 0.16191 0
M  V30 1832 C 166.253 -4.11775 1.21408 0
M  V30 1833 C 165.486 -5.29555 0.663891 0
M  V30 1834 O 165.709 -5.68077 -0.514274 0
M  V30 1835 O 164.643 -5.84973 1.41738 0
M  V30 1836 H 168.469 -2.55074 1.64836 0
M  V30 1837 H 166.054 -1.21791 0.865289 0
M  V30 1838 H 167.936 -4.21107 -0.157073 0
M  V30 1839 H 166.611 -3.15593 -0.719932 0
M  V30 1840 H 165.518 -3.3883 1.58571 0
M  V30 1841 H 166.851 -4.46627 2.06845 0
M  V30 1842 N 168.503 -0.877838 -1.30888 0
M  V30 1843 C 169.413 -0.343096 -2.32078 0
M  V30 1844 C 170.429 0.551022 -1.65045 0
M  V30 1845 O 171.605 0.445854 -1.96403 0
M  V30 1846 C 168.67 0.439905 -3.43898 0
M  V30 1847 C 167.731 -0.483111 -4.26573 0
M  V30 1848 C 166.964 0.262616 -5.33053 0
M  V30 1849 O 167.187 1.48967 -5.50604 0
M  V30 1850 O 166.121 -0.383593 -6.00676 0
M  V30 1851 H 169.947 -1.18203 -2.79753 0
M  V30 1852 H 167.532 -0.64145 -1.34929 0
M  V30 1853 H 169.414 0.883504 -4.12034 0
M  V30 1854 H 168.089 1.25526 -2.98371 0
M  V30 1855 H 166.996 -0.975374 -3.61161 0
M  V30 1856 H 168.329 -1.26427 -4.75686 0
M  V30 1857 N 169.982 1.44106 -0.638065 0
M  V30 1858 C 170.945 2.29138 0.0531013 0
M  V30 1859 C 171.945 1.41409 0.765506 0
M  V30 1860 O 173.135 1.63206 0.609046 0
M  V30 1861 C 170.267 3.23144 1.08584 0
M  V30 1862 H 171.46 2.91739 -0.694883 0
M  V30 1863 H 169.013 1.51134 -0.398538 0
M  V30 1864 H 169.748 2.65408 1.86357 0
M  V30 1865 H 169.533 3.87804 0.578852 0
M  V30 1866 H 171.023 3.87004 1.56899 0
M  V30 1867 N 171.46 0.379036 1.52974 0
M  V30 1868 C 172.37 -0.468639 2.29872 0
M  V30 1869 C 173.386 -1.08067 1.36373 0
M  V30 1870 O 174.562 -1.08871 1.69438 0
M  V30 1871 C 171.627 -1.58594 3.083 0
M  V30 1872 C 170.688 -1.00007 4.17489 0
M  V30 1873 C 169.921 -2.06413 4.92168 0
M  V30 1874 O 170.144 -3.27751 4.66835 0
M  V30 1875 O 169.078 -1.68717 5.7777 0
M  V30 1876 H 172.904 0.157508 3.03291 0
M  V30 1877 H 170.489 0.143035 1.48714 0
M  V30 1878 H 172.371 -2.23525 3.57232 0
M  V30 1879 H 171.046 -2.19724 2.37703 0
M  V30 1880 H 169.953 -0.314299 3.72777 0
M  V30 1881 H 171.286 -0.433135 4.90291 0
M  V30 1882 N 172.938 -1.57226 0.108567 0
M  V30 1883 C 173.885 -2.14756 -0.845481 0
M  V30 1884 C 174.855 -1.06971 -1.27068 0
M  V30 1885 O 176.04 -1.34827 -1.35005 0
M  V30 1886 C 173.18 -2.74298 -2.09415 0
M  V30 1887 C 172.293 -3.96358 -1.71826 0
M  V30 1888 C 171.428 -4.44021 -2.9158 0
M  V30 1889 C 170.467 -5.58637 -2.50181 0
M  V30 1890 N 169.604 -6.01091 -3.62814 0
M  V30 1891 H 174.444 -2.95961 -0.348035 0
M  V30 1892 H 171.981 -1.46226 -0.160106 0
M  V30 1893 H 173.939 -3.06945 -2.82561 0
M  V30 1894 H 172.569 -1.95801 -2.56636 0
M  V30 1895 H 171.621 -3.69939 -0.885947 0
M  V30 1896 H 172.933 -4.79504 -1.37394 0
M  V30 1897 H 172.087 -4.78522 -3.72963 0
M  V30 1898 H 170.826 -3.59803 -3.29231 0
M  V30 1899 H 169.831 -5.23751 -1.67228 0
M  V30 1900 H 171.056 -6.44613 -2.13659 0
M  V30 1901 H 169.002 -5.19817 -4.00158 0
M  V30 1902 H 168.919 -6.79066 -3.32273 0
M  V30 1903 H 170.187 -6.40227 -4.44668 0
M  V30 1904 N 174.416 0.165178 -1.56732 0
M  V30 1905 C 175.379 1.18822 -1.95995 0
M  V30 1906 C 176.379 1.3685 -0.84431 0
M  V30 1907 O 177.569 1.34152 -1.11126 0
M  V30 1908 C 174.701 2.5521 -2.26011 0
M  V30 1909 H 175.894 0.851825 -2.87548 0
M  V30 1910 H 173.447 0.407857 -1.50885 0
M  V30 1911 H 174.182 2.93852 -1.37191 0
M  V30 1912 H 173.967 2.43489 -3.07336 0
M  V30 1913 H 175.457 3.28927 -2.57288 0
M  V30 1914 N 175.894 1.51508 0.433938 0
M  V30 1915 C 176.857 1.72473 1.50949 0
M  V30 1916 C 177.857 0.594725 1.49398 0
M  V30 1917 O 179.047 0.862315 1.5136 0
M  V30 1918 C 176.179 1.78431 2.90474 0
M  V30 1919 H 177.372 2.68467 1.33662 0
M  V30 1920 H 174.925 1.41549 0.662836 0
M  V30 1921 H 175.66 0.842645 3.13161 0
M  V30 1922 H 175.445 2.60558 2.93005 0
M  V30 1923 H 176.935 1.96479 3.68491 0
M  V30 1924 N 177.372 -0.689602 1.41712 0
M  V30 1925 C 178.649 -1.44457 1.31877 0
M  V30 1926 C 179.029 -2.11039 -0.0508537 0
M  V30 1927 O 178.377 -2.02138 -1.06547 0
M  V30 1928 C 178.587 -2.45913 2.47645 0
M  V30 1929 C 179.935 -3.10991 2.89084 0
M  V30 1930 O 180.959 -2.56238 2.47428 0
M  V30 1931 O 179.818 -4.10174 3.61137 0
M  V30 1932 H 176.912 -0.64362 0.519309 0
M  V30 1933 H 179.458 -0.719576 1.53689 0
M  V30 1934 H 178.23 -1.95409 3.39015 0
M  V30 1935 H 177.853 -3.25913 2.27742 0
M  V30 1936 N 178.85 -1.27639 -0.924453 0
M  V30 1937 C 179.76 -1.12466 -2.05885 0
M  V30 1938 C 180.776 -0.053869 -1.73917 0
M  V30 1939 O 181.952 -0.261012 -1.99702 0
M  V30 1940 C 179.017 -0.776768 -3.37886 0
M  V30 1941 C 178.078 -1.92878 -3.83532 0
M  V30 1942 C 177.311 -1.59739 -5.09234 0
M  V30 1943 O 177.534 -0.506782 -5.68144 0
M  V30 1944 O 176.468 -2.43761 -5.50331 0
M  V30 1945 H 180.294 -2.07671 -2.21599 0
M  V30 1946 H 177.879 -1.06857 -1.04413 0
M  V30 1947 H 179.761 -0.596229 -4.17161 0
M  V30 1948 H 178.436 0.145732 -3.23372 0
M  V30 1949 H 177.343 -2.1644 -3.0513 0
M  V30 1950 H 178.676 -2.8316 -4.02593 0
M  V30 1951 N 180.328 1.1314 -1.09713 0
M  V30 1952 C 181.553 1.88862 -0.857081 0
M  V30 1953 C 181.978 1.78729 0.586304 0
M  V30 1954 O 181.336 1.13692 1.41222 0
M  V30 1955 C 181.384 3.36325 -1.30069 0
M  V30 1956 O 180.488 4.09815 -0.461007 0
M  V30 1957 H 179.829 0.587108 -0.310162 0
M  V30 1958 H 182.359 1.43129 -1.46203 0
M  V30 1959 H 182.369 3.87157 -1.28738 0
M  V30 1960 H 181.044 3.43017 -2.35185 0
M  V30 1961 H 179.621 3.68986 -0.538888 0
M  V30 1962 N 181.806 0.884767 1.30421 0
M  V30 1963 C 182.716 0.355398 2.31892 0
M  V30 1964 C 183.732 -0.542261 1.65335 0
M  V30 1965 O 184.908 -0.435432 1.96637 0
M  V30 1966 C 181.973 -0.421661 3.44126 0
M  V30 1967 C 181.034 0.505727 4.26311 0
M  V30 1968 C 180.267 -0.234343 5.33185 0
M  V30 1969 O 180.49 -1.46045 5.51386 0
M  V30 1970 O 179.424 0.415443 6.00465 0
M  V30 1971 H 183.25 1.19685 2.79122 0
M  V30 1972 H 180.835 0.648596 1.34587 0
M  V30 1973 H 182.717 -0.861641 4.12497 0
M  V30 1974 H 181.392 -1.23942 2.99032 0
M  V30 1975 H 180.299 0.994513 3.60639 0
M  V30 1976 H 181.632 1.28948 4.75009 0
M  V30 1977 N 183.284 -1.43765 0.645699 0
M  V30 1978 C 184.7 -1.56509 0.312591 0
M  V30 1979 C 184.9 -1.6307 -1.18365 0
M  V30 1980 O 183.956 -1.58167 -1.96824 0
M  V30 1981 C 185.269 -2.82968 1.01733 0
M  V30 1982 C 186.817 -2.96701 0.996865 0
M  V30 1983 C 187.292 -4.25982 1.68236 0
M  V30 1984 N 188.783 -4.32829 1.64964 0
M  V30 1985 C 189.518 -5.31613 2.14885 0
M  V30 1986 N 189.014 -6.36718 2.73061 0
M  V30 1987 N 190.807 -5.23217 2.05428 0
M  V30 1988 H 182.958 -1.3775 1.61675 0
M  V30 1989 H 185.221 -0.661067 0.679481 0
M  V30 1990 H 184.927 -2.84156 2.0724 0
M  V30 1991 H 184.801 -3.72957 0.564177 0
M  V30 1992 H 187.188 -2.95058 -0.0497719 0
M  V30 1993 H 187.269 -2.08022 1.48865 0
M  V30 1994 H 186.913 -4.28386 2.72852 0
M  V30 1995 H 186.843 -5.13545 1.16529 0
M  V30 1996 H 189.334 -3.57493 1.22503 0
M  V30 1997 H 189.647 -7.08401 3.08848 0
M  V30 1998 H 187.992 -6.37362 2.77118 0
M  V30 1999 H 191.183 -4.40019 1.59689 0
M  V30 2000 H 191.356 -6.00045 2.44643 0
M  V30 2001 N 184.763 -0.387143 -1.52771 0
M  V30 2002 C 186.011 0.195349 -2.01154 0
M  V30 2003 C 186.332 1.475 -1.27549 0
M  V30 2004 O 185.602 1.91878 -0.394924 0
M  V30 2005 H 184.182 0.075178 -0.743207 0
M  V30 2006 H 186.844 -0.518337 -1.87881 0
M  V30 2007 H 185.94 0.407096 -3.09434 0
M  V30 2008 N 186.241 1.57166 -0.116904 0
M  V30 2009 C 187.174 2.10912 0.871291 0
M  V30 2010 C 188.152 1.025 1.26224 0
M  V30 2011 O 189.336 1.3014 1.36366 0
M  V30 2012 C 186.463 2.6041 2.16574 0
M  V30 2013 C 185.509 3.80687 1.92302 0
M  V30 2014 S 186.342 5.23199 1.14119 0
M  V30 2015 C 187.498 5.76064 2.44748 0
M  V30 2016 H 187.731 2.94401 0.414138 0
M  V30 2017 H 185.264 1.54096 0.096829 0
M  V30 2018 H 187.222 2.89583 2.9095 0
M  V30 2019 H 185.883 1.77106 2.59408 0
M  V30 2020 H 185.076 4.13462 2.8821 0
M  V30 2021 H 184.678 3.5212 1.26047 0
M  V30 2022 H 186.97 5.8566 3.406 0
M  V30 2023 H 187.913 6.74184 2.16521 0
M  V30 2024 H 188.321 5.04117 2.54019 0
M  V30 2025 N 187.719 -0.156864 1.56817 0
M  V30 2026 C 188.666 -1.19394 1.97519 0
M  V30 2027 C 189.636 -1.4322 0.841265 0
M  V30 2028 O 190.821 -1.55719 1.10255 0
M  V30 2029 C 187.961 -2.52483 2.35258 0
M  V30 2030 C 187.074 -2.35914 3.61896 0
M  V30 2031 C 186.209 -3.61969 3.88782 0
M  V30 2032 C 185.248 -3.40395 5.08722 0
M  V30 2033 N 184.385 -4.58556 5.31668 0
M  V30 2034 H 189.225 -0.839845 2.85921 0
M  V30 2035 H 186.762 -0.403264 1.41464 0
M  V30 2036 H 188.72 -3.30071 2.55165 0
M  V30 2037 H 187.35 -2.85859 1.49949 0
M  V30 2038 H 186.402 -1.49429 3.49821 0
M  V30 2039 H 187.714 -2.15926 4.49641 0
M  V30 2040 H 186.868 -4.47989 4.09135 0
M  V30 2041 H 185.607 -3.84951 2.9944 0
M  V30 2042 H 184.612 -2.52763 4.88253 0
M  V30 2043 H 185.837 -3.18822 5.99608 0
M  V30 2044 H 183.783 -4.81729 4.45279 0
M  V30 2045 H 183.7 -4.41535 6.13664 0
M  V30 2046 H 184.968 -5.45817 5.5651 0
M  V30 2047 N 189.197 -1.51736 -0.425897 0
M  V30 2048 C 190.443 -1.65214 -1.1761 0
M  V30 2049 C 190.776 -0.372778 -1.90589 0
M  V30 2050 O 190.051 0.628139 -1.84078 0
M  V30 2051 C 190.334 -2.86312 -2.18398 0
M  V30 2052 C 190.187 -4.24254 -1.49426 0
M  V30 2053 C 191.506 -3.02925 -3.19256 0
M  V30 2054 H 188.625 -0.601263 -0.426206 0
M  V30 2055 H 191.267 -1.8425 -0.463882 0
M  V30 2056 H 189.417 -2.70213 -2.79137 0
M  V30 2057 H 191.089 -4.52046 -0.919362 0
M  V30 2058 H 189.332 -4.26426 -0.796432 0
M  V30 2059 H 190.003 -5.05001 -2.22885 0
M  V30 2060 H 192.479 -3.1781 -2.68581 0
M  V30 2061 H 191.355 -3.89199 -3.8706 0
M  V30 2062 H 191.616 -2.15497 -3.86023 0
M  V30 2063 N 190.675 0.682077 -1.42076 0
M  V30 2064 C 191.924 1.43786 -1.41451 0
M  V30 2065 C 192.237 1.95574 -0.0317074 0
M  V30 2066 O 193.443 2.71326 0.0971462 0
M  V30 2067 C 191.899 2.60071 -2.48779 0
M  V30 2068 C 191.507 2.15013 -3.93031 0
M  V30 2069 C 193.251 3.37626 -2.57311 0
M  V30 2070 C 191.158 3.28336 -4.91883 0
M  V30 2071 H 190.088 0.540143 -0.526082 0
M  V30 2072 H 192.739 0.739157 -1.67955 0
M  V30 2073 H 191.121 3.32275 -2.15429 0
M  V30 2074 H 192.295 1.5001 -4.35699 0
M  V30 2075 H 190.61 1.50416 -3.88284 0
M  V30 2076 H 193.207 4.22012 -3.28345 0
M  V30 2077 H 193.55 3.83727 -1.61429 0
M  V30 2078 H 194.083 2.72488 -2.89819 0
M  V30 2079 H 190.822 2.87234 -5.89217 0
M  V30 2080 H 190.342 3.92145 -4.53853 0
M  V30 2081 H 192.021 3.93913 -5.13265 0
M  V30 2082 N 192.153 1.28127 0.917671 0
M  V30 2083 C 193.063 1.13556 2.05286 0
M  V30 2084 C 194.079 0.0630914 1.73886 0
M  V30 2085 O 195.255 0.271598 1.9956 0
M  V30 2086 C 192.32 0.794676 3.3747 0
M  V30 2087 C 191.381 1.94909 3.82504 0
M  V30 2088 C 190.614 1.62437 5.0838 0
M  V30 2089 O 190.837 0.536905 5.67867 0
M  V30 2090 O 189.771 2.46677 5.4903 0
M  V30 2091 H 193.597 2.08844 2.20495 0
M  V30 2092 H 191.182 1.07409 1.03845 0
M  V30 2093 H 193.064 0.618344 4.16839 0
M  V30 2094 H 191.739 -0.128581 3.23445 0
M  V30 2095 H 190.646 2.18055 3.03978 0
M  V30 2096 H 191.979 2.85291 4.01086 0
M  V30 2097 N 193.631 -1.12557 1.10312 0
M  V30 2098 C 194.856 -1.88405 0.867085 0
M  V30 2099 C 195.281 -1.79038 -0.576817 0
M  V30 2100 O 194.639 -1.14439 -1.40618 0
M  V30 2101 C 194.687 -3.3563 1.31851 0
M  V30 2102 O 193.791 -4.09565 0.482734 0
M  V30 2103 H 193.132 -0.585455 0.313271 0
M  V30 2104 H 195.662 -1.42352 1.4696 0
M  V30 2105 H 195.672 -3.86469 1.3079 0
M  V30 2106 H 194.347 -3.41765 2.37001 0
M  V30 2107 H 192.924 -3.68695 0.558448 0
M  V30 2108 N 195.109 -0.891671 -1.2995 0
M  V30 2109 C 196.525 -0.58662 -1.48428 0
M  V30 2110 C 196.725 0.873951 -1.81561 0
M  V30 2111 O 195.781 1.65471 -1.90724 0
M  V30 2112 C 197.094 -1.50553 -2.60296 0
M  V30 2113 C 198.642 -1.50988 -2.74175 0
M  V30 2114 C 199.117 -2.41488 -3.89163 0
M  V30 2115 N 200.608 -2.39489 -3.96483 0
M  V30 2116 C 201.343 -3.06223 -4.84784 0
M  V30 2117 N 200.839 -3.82206 -5.77833 0
M  V30 2118 N 202.632 -2.95421 -4.78208 0
M  V30 2119 H 194.783 -1.83644 -1.06718 0
M  V30 2120 H 197.046 -0.786455 -0.529332 0
M  V30 2121 H 196.752 -2.54581 -2.42654 0
M  V30 2122 H 196.626 -1.22008 -3.56923 0
M  V30 2123 H 199.013 -0.47708 -2.91218 0
M  V30 2124 H 199.094 -1.83567 -1.78148 0
M  V30 2125 H 198.738 -3.44857 -3.72876 0
M  V30 2126 H 198.668 -2.06222 -4.84541 0
M  V30 2127 H 201.159 -1.84278 -3.29924 0
M  V30 2128 H 201.472 -4.302 -6.41988 0
M  V30 2129 H 199.817 -3.86313 -5.77743 0
M  V30 2130 H 203.008 -2.35581 -4.04499 0
M  V30 2131 H 203.181 -3.47704 -5.46814 0
M  V30 2132 N 196.587 1.43421 -0.653314 0
M  V30 2133 C 197.55 2.29182 0.0287951 0
M  V30 2134 C 198.55 1.42213 0.750465 0
M  V30 2135 O 199.74 1.63843 0.591701 0
M  V30 2136 C 196.872 3.24278 1.05151 0
M  V30 2137 H 198.065 2.90985 -0.725786 0
M  V30 2138 H 195.618 1.50702 -0.414545 0
M  V30 2139 H 196.353 2.6737 1.83532 0
M  V30 2140 H 196.138 3.88396 0.537687 0
M  V30 2141 H 197.628 3.88647 1.52786 0
M  V30 2142 N 198.065 0.39524 1.52563 0
M  V30 2143 C 198.997 -0.472201 2.24283 0
M  V30 2144 C 200.01 -1.02178 1.26742 0
M  V30 2145 O 201.199 -0.923097 1.52778 0
M  V30 2146 C 198.299 -1.66775 2.95024 0
M  V30 2147 C 197.472 -1.2445 4.19322 0
M  V30 2148 C 196.531 -2.30539 4.7301 0
M  V30 2149 O 195.557 -1.91702 5.35947 0
M  V30 2150 N 196.759 -3.6253 4.53379 0
M  V30 2151 H 199.524 0.142282 2.99362 0
M  V30 2152 H 197.085 0.2219 1.60372 0
M  V30 2153 H 199.077 -2.37283 3.27839 0
M  V30 2154 H 197.647 -2.18845 2.23217 0
M  V30 2155 H 196.867 -0.368069 3.92478 0
M  V30 2156 H 198.155 -0.938457 5.0007 0
M  V30 2157 H 197.553 -3.96841 4.03154 0
M  V30 2158 H 196.11 -4.29055 4.90668 0
M  V30 2159 N 199.544 -1.57102 0.125237 0
M  V30 2160 C 200.491 -2.15641 -0.822655 0
M  V30 2161 C 201.461 -1.08313 -1.25927 0
M  V30 2162 O 202.646 -1.36251 -1.33567 0
M  V30 2163 C 199.786 -2.76504 -2.06494 0
M  V30 2164 C 198.899 -3.98158 -1.67612 0
M  V30 2165 C 198.034 -4.47088 -2.86854 0
M  V30 2166 C 197.073 -5.6126 -2.44242 0
M  V30 2167 N 196.21 -6.04905 -3.56419 0
M  V30 2168 H 201.05 -2.96313 -0.316625 0
M  V30 2169 H 198.587 -1.46388 -0.144588 0
M  V30 2170 H 200.545 -3.09925 -2.79289 0
M  V30 2171 H 199.175 -1.98512 -2.54545 0
M  V30 2172 H 198.227 -3.70858 -0.846661 0
M  V30 2173 H 199.539 -4.80934 -1.32301 0
M  V30 2174 H 198.693 -4.82451 -3.67867 0
M  V30 2175 H 197.432 -3.63275 -3.25396 0
M  V30 2176 H 196.437 -5.25495 -1.61663 0
M  V30 2177 H 197.662 -6.46843 -2.0681 0
M  V30 2178 H 195.608 -5.24032 -3.94623 0
M  V30 2179 H 195.525 -6.82552 -3.25051 0
M  V30 2180 H 196.793 -6.44907 -4.37853 0
M  V30 2181 N 201.022 0.148545 -1.56898 0
M  V30 2182 C 202.299 0.890019 -1.74178 0
M  V30 2183 C 202.679 1.99407 -0.692839 0
M  V30 2184 O 202.027 2.26671 0.288505 0
M  V30 2185 C 202.237 1.43389 -3.18183 0
M  V30 2186 C 203.585 1.89791 -3.79822 0
M  V30 2187 O 204.609 1.53134 -3.21603 0
M  V30 2188 O 203.468 2.57387 -4.82093 0
M  V30 2189 H 200.562 0.420496 -0.712118 0
M  V30 2190 H 203.108 0.134591 -1.69165 0
M  V30 2191 H 201.88 0.640383 -3.86024 0
M  V30 2192 H 201.503 2.25287 -3.27615 0
M  V30 2193 N 202.5 1.5196 0.417844 0
M  V30 2194 C 203.41 1.77554 1.53336 0
M  V30 2195 C 204.426 0.660655 1.6097 0
M  V30 2196 O 205.602 0.945099 1.77848 0
M  V30 2197 C 202.667 1.91291 2.89152 0
M  V30 2198 C 201.728 3.15183 2.91475 0
M  V30 2199 C 200.961 3.28256 4.20813 0
M  V30 2200 O 201.184 2.46798 5.14244 0
M  V30 2201 O 200.118 4.21356 4.29817 0
M  V30 2202 H 203.944 2.7222 1.34647 0
M  V30 2203 H 201.529 1.36698 0.602828 0
M  V30 2204 H 203.411 2.02199 3.69721 0
M  V30 2205 H 202.086 0.998129 3.07927 0
M  V30 2206 H 200.993 3.09739 2.09791 0
M  V30 2207 H 202.326 4.06414 2.77648 0
M  V30 2208 N 203.978 -0.674533 1.42435 0
M  V30 2209 C 204.888 -1.81751 1.48337 0
M  V30 2210 C 205.904 -1.69975 0.372099 0
M  V30 2211 O 207.08 -1.91521 0.62304 0
M  V30 2212 C 204.145 -3.17895 1.38361 0
M  V30 2213 C 203.206 -3.41625 2.59982 0
M  V30 2214 C 202.439 -4.71274 2.50473 0
M  V30 2215 O 202.662 -5.49197 1.54075 0
M  V30 2216 O 201.596 -4.96254 3.4061 0
M  V30 2217 H 205.422 -1.79728 2.44809 0
M  V30 2218 H 203.007 -0.830312 1.24202 0
M  V30 2219 H 204.889 -3.99136 1.35161 0
M  V30 2220 H 203.564 -3.20555 0.450144 0
M  V30 2221 H 202.471 -2.60231 2.68757 0
M  V30 2222 H 203.804 -3.43796 3.52229 0
M  V30 2223 N 205.456 -1.28612 -0.910864 0
M  V30 2224 C 206.403 -1.12786 -2.01365 0
M  V30 2225 C 207.373 -0.024201 -1.66082 0
M  V30 2226 O 208.558 -0.189667 -1.89855 0
M  V30 2227 C 205.698 -0.798743 -3.35729 0
M  V30 2228 C 204.811 -1.98173 -3.83864 0
M  V30 2229 C 203.946 -1.59298 -5.06752 0
M  V30 2230 C 202.985 -2.74245 -5.47226 0
M  V30 2231 N 202.122 -2.35842 -6.61304 0
M  V30 2232 H 206.962 -2.07142 -2.14234 0
M  V30 2233 H 204.499 -1.03093 -1.0493 0
M  V30 2234 H 206.457 -0.588662 -4.13026 0
M  V30 2235 H 205.087 0.10789 -3.2262 0
M  V30 2236 H 204.139 -2.30386 -3.02699 0
M  V30 2237 H 205.451 -2.84343 -4.09818 0
M  V30 2238 H 204.605 -1.34513 -5.916 0
M  V30 2239 H 203.344 -0.702618 -4.82612 0
M  V30 2240 H 202.349 -2.99725 -4.60918 0
M  V30 2241 H 203.574 -3.63928 -5.73353 0
M  V30 2242 H 201.52 -1.49279 -6.38789 0
M  V30 2243 H 201.437 -3.15546 -6.86998 0
M  V30 2244 H 202.705 -2.14348 -7.4945 0
M  V30 2245 N 206.934 1.1197 -1.10907 0
M  V30 2246 C 207.867 2.16998 -0.706192 0
M  V30 2247 C 208.845 1.59903 0.294897 0
M  V30 2248 O 210.029 1.87513 0.192636 0
M  V30 2249 C 207.156 3.38673 -0.0427664 0
M  V30 2250 C 206.202 4.14414 -1.00811 0
M  V30 2251 S 207.035 4.72079 -2.52789 0
M  V30 2252 C 208.191 5.97083 -1.87731 0
M  V30 2253 H 208.424 2.50837 -1.59587 0
M  V30 2254 H 205.957 1.23508 -0.926555 0
M  V30 2255 H 207.915 4.09142 0.333668 0
M  V30 2256 H 206.576 3.03105 0.823788 0
M  V30 2257 H 205.769 5.016 -0.491259 0
M  V30 2258 H 205.371 3.49678 -1.3267 0
M  V30 2259 H 207.663 6.66599 -1.21044 0
M  V30 2260 H 208.606 6.53403 -2.72892 0
M  V30 2261 H 209.014 5.4837 -1.33979 0
M  V30 2262 N 208.412 0.89855 1.29475 0
M  V30 2263 C 209.322 0.379974 2.31502 0
M  V30 2264 C 210.338 -0.524695 1.659 0
M  V30 2265 O 211.514 -0.414551 1.97087 0
M  V30 2266 C 208.579 -0.385138 3.44554 0
M  V30 2267 C 207.64 0.550914 4.2575 0
M  V30 2268 C 206.873 -0.177778 5.33404 0
M  V30 2269 O 207.096 -1.40189 5.52904 0
M  V30 2270 O 206.03 0.479106 5.9999 0
M  V30 2271 H 209.856 1.22639 2.77837 0
M  V30 2272 H 207.441 0.662834 1.33891 0
M  V30 2273 H 209.323 -0.817841 4.13388 0
M  V30 2274 H 207.998 -1.20763 3.0033 0
M  V30 2275 H 206.905 1.03271 3.59564 0
M  V30 2276 H 208.238 1.33979 4.73614 0
M  V30 2277 N 209.89 -1.43072 0.660911 0
M  V30 2278 C 211.139 -2.00942 0.174735 0
M  V30 2279 C 211.452 -1.52797 -1.22117 0
M  V30 2280 O 212.658 -2.02991 -1.80297 0
M  V30 2281 C 211.114 -3.58948 0.261559 0
M  V30 2282 C 210.722 -4.16085 1.66064 0
M  V30 2283 C 212.466 -4.24173 -0.166617 0
M  V30 2284 C 210.373 -5.6641 1.70098 0
M  V30 2285 H 209.303 -0.751483 0.0615631 0
M  V30 2286 H 211.954 -1.63955 0.824069 0
M  V30 2287 H 210.336 -3.93372 -0.455421 0
M  V30 2288 H 211.51 -3.93147 2.40359 0
M  V30 2289 H 209.825 -3.6326 2.03546 0
M  V30 2290 H 212.422 -5.34471 -0.156433 0
M  V30 2291 H 212.765 -3.98647 -1.19943 0
M  V30 2292 H 213.298 -3.94659 0.498875 0
M  V30 2293 H 210.037 -5.96715 2.71315 0
M  V30 2294 H 209.557 -5.91382 1.00139 0
M  V30 2295 H 211.236 -6.30585 1.44816 0
M  V30 2296 N 211.368 -0.403325 -1.52352 0
M  V30 2297 C 212.3 0.4603 -2.2453 0
M  V30 2298 C 213.313 1.01505 -1.27282 0
M  V30 2299 O 214.502 0.914982 -1.53266 0
M  V30 2300 C 211.602 1.65208 -2.95905 0
M  V30 2301 C 210.775 1.22224 -4.19976 0
M  V30 2302 C 209.834 2.28028 -4.74226 0
M  V30 2303 O 208.86 1.88857 -5.36956 0
M  V30 2304 N 210.062 3.6012 -4.55295 0
M  V30 2305 H 212.827 -0.158156 -2.99282 0
M  V30 2306 H 210.388 -0.230402 -1.60252 0
M  V30 2307 H 212.38 2.35541 -3.29093 0
M  V30 2308 H 210.95 2.17658 -2.24374 0
M  V30 2309 H 210.17 0.34725 -3.92668 0
M  V30 2310 H 211.458 0.911924 -5.00561 0
M  V30 2311 H 210.856 3.94698 -4.05253 0
M  V30 2312 H 209.413 4.26447 -4.92936 0
M  V30 2313 N 212.846 1.57033 -0.133567 0
M  V30 2314 C 213.756 2.19632 0.824564 0
M  V30 2315 C 214.772 1.17666 1.28182 0
M  V30 2316 O 215.948 1.50193 1.3418 0
M  V30 2317 C 213.013 2.79499 2.05137 0
M  V30 2318 C 212.074 3.96548 1.64464 0
M  V30 2319 C 211.307 4.5355 2.81297 0
M  V30 2320 O 211.53 4.09438 3.97136 0
M  V30 2321 O 210.464 5.44018 2.57542 0
M  V30 2322 H 214.29 3.01991 0.321766 0
M  V30 2323 H 211.875 1.49112 0.0927889 0
M  V30 2324 H 213.757 3.17602 2.7696 0
M  V30 2325 H 212.432 2.00162 2.54395 0
M  V30 2326 H 211.339 3.63186 0.897048 0
M  V30 2327 H 212.672 4.77364 1.19934 0
M  V30 2328 N 214.325 -0.140222 1.56975 0
M  V30 2329 C 215.574 -0.850152 1.82908 0
M  V30 2330 C 215.887 -1.82028 0.715892 0
M  V30 2331 O 217.093 -2.57485 0.861016 0
M  V30 2332 C 215.549 -1.5625 3.24213 0
M  V30 2333 C 215.157 -0.63443 4.43485 0
M  V30 2334 C 216.901 -2.25881 3.59413 0
M  V30 2335 C 214.808 -1.34879 5.75814 0
M  V30 2336 H 213.738 -0.321221 0.682153 0
M  V30 2337 H 216.389 -0.102874 1.83211 0
M  V30 2338 H 214.771 -2.35565 3.18316 0
M  V30 2339 H 215.945 0.12398 4.60633 0
M  V30 2340 H 214.26 -0.0461836 4.16374 0
M  V30 2341 H 216.857 -2.79978 4.5554 0
M  V30 2342 H 217.2 -3.02693 2.85802 0
M  V30 2343 H 217.733 -1.53477 3.67001 0
M  V30 2344 H 214.472 -0.622385 6.52539 0
M  V30 2345 H 213.992 -2.07974 5.6259 0
M  V30 2346 H 215.671 -1.88784 6.18845 0
M  V30 2347 N 215.803 -1.52179 -0.40978 0
M  V30 2348 C 216.735 -1.71703 -1.51825 0
M  V30 2349 C 217.748 -0.597445 -1.51441 0
M  V30 2350 O 218.937 -0.872582 -1.55719 0
M  V30 2351 C 216.037 -1.74171 -2.90719 0
M  V30 2352 C 215.21 -3.03156 -3.15302 0
M  V30 2353 C 214.269 -2.97445 -4.34065 0
M  V30 2354 O 213.295 -3.71352 -4.31377 0
M  V30 2355 N 214.497 -2.15191 -5.39141 0
M  V30 2356 H 217.262 -2.67334 -1.35472 0
M  V30 2357 H 214.823 -1.50409 -0.599069 0
M  V30 2358 H 216.815 -1.67884 -3.68235 0
M  V30 2359 H 215.385 -0.860166 -3.00533 0
M  V30 2360 H 214.605 -3.23097 -2.25836 0
M  V30 2361 H 215.893 -3.88484 -3.28569 0
M  V30 2362 H 215.291 -1.54573 -5.44173 0
M  V30 2363 H 213.848 -2.1476 -6.15403 0
M  V30 2364 N 217.281 0.66697 -1.42791 0
M  V30 2365 C 218.211 1.79218 -1.49677 0
M  V30 2366 C 219.192 1.66405 -0.352623 0
M  V30 2367 O 220.377 1.85708 -0.567993 0
M  V30 2368 C 217.507 3.17565 -1.40605 0
M  V30 2369 C 216.461 3.45124 -2.53127 0
M  V30 2370 C 215.787 4.83127 -2.29112 0
M  V30 2371 C 217.087 3.41236 -3.95418 0
M  V30 2372 H 218.781 1.73713 -2.43853 0
M  V30 2373 H 216.327 0.83432 -1.17367 0
M  V30 2374 H 218.28 3.96022 -1.44029 0
M  V30 2375 H 217.004 3.23767 -0.429271 0
M  V30 2376 H 215.663 2.69031 -2.49034 0
M  V30 2377 H 215.311 4.85988 -1.29709 0
M  V30 2378 H 215.011 5.02528 -3.04531 0
M  V30 2379 H 216.535 5.63859 -2.34297 0
M  V30 2380 H 217.949 4.09651 -4.01073 0
M  V30 2381 H 216.346 3.72173 -4.70752 0
M  V30 2382 H 217.416 2.39665 -4.21532 0
M  V30 2383 N 218.759 1.29093 0.90403 0
M  V30 2384 C 219.706 1.13853 2.00764 0
M  V30 2385 C 220.676 0.0330084 1.66067 0
M  V30 2386 O 221.861 0.199733 1.89752 0
M  V30 2387 C 219.001 0.816537 3.35301 0
M  V30 2388 C 218.114 2.00206 3.82807 0
M  V30 2389 C 217.249 1.61983 5.059 0
M  V30 2390 C 216.288 2.77143 5.45764 0
M  V30 2391 N 215.425 2.39346 6.60044 0
M  V30 2392 H 220.265 2.08276 2.13132 0
M  V30 2393 H 217.802 1.03648 1.04381 0
M  V30 2394 H 219.76 0.610557 4.12708 0
M  V30 2395 H 218.39 -0.090779 3.22672 0
M  V30 2396 H 217.442 2.31988 3.01473 0
M  V30 2397 H 218.754 2.86512 4.08304 0
M  V30 2398 H 217.908 1.37649 5.90879 0
M  V30 2399 H 216.647 0.728202 4.82233 0
M  V30 2400 H 215.652 3.02165 4.59322 0
M  V30 2401 H 216.877 3.66964 5.71414 0
M  V30 2402 H 214.823 1.52665 6.37989 0
M  V30 2403 H 214.74 3.19185 6.85315 0
M  V30 2404 H 216.008 2.1832 7.48303 0
M  V30 2405 N 220.237 -1.11381 1.11499 0
M  V30 2406 C 221.147 -2.21019 0.786628 0
M  V30 2407 C 222.163 -1.72597 -0.220507 0
M  V30 2408 O 223.339 -2.01321 -0.0565251 0
M  V30 2409 C 220.404 -3.459 0.235333 0
M  V30 2410 C 219.465 -4.09107 1.30115 0
M  V30 2411 C 218.698 -5.28027 0.776068 0
M  V30 2412 O 218.921 -5.6904 -0.393661 0
M  V30 2413 O 217.855 -5.81835 1.54114 0
M  V30 2414 H 221.681 -2.51521 1.70209 0
M  V30 2415 H 219.266 -1.19928 0.890928 0
M  V30 2416 H 221.148 -4.21346 -0.067715 0
M  V30 2417 H 219.823 -3.17049 -0.652828 0
M  V30 2418 H 218.73 -3.35391 1.65722 0
M  V30 2419 H 220.063 -4.42139 2.16273 0
M  V30 2420 N 221.715 -0.905404 -1.28997 0
M  V30 2421 C 222.678 -0.392253 -2.25819 0
M  V30 2422 C 223.678 0.476753 -1.5357 0
M  V30 2423 O 224.868 0.280994 -1.71919 0
M  V30 2424 C 222 0.438588 -3.38067 0
M  V30 2425 H 223.193 -1.24743 -2.72725 0
M  V30 2426 H 220.746 -0.684051 -1.40536 0
M  V30 2427 H 221.481 1.31352 -2.96508 0
M  V30 2428 H 221.266 -0.184167 -3.91667 0
M  V30 2429 H 222.756 0.78873 -4.10084 0
M  V30 2430 N 223.193 1.4272 -0.668489 0
M  V30 2431 C 224.14 2.30796 0.0137489 0
M  V30 2432 C 225.11 1.4561 0.799177 0
M  V30 2433 O 226.295 1.74453 0.772702 0
M  V30 2434 C 223.435 3.31377 0.963507 0
M  V30 2435 C 222.548 4.31655 0.172569 0
M  V30 2436 C 221.683 5.19312 1.1175 0
M  V30 2437 C 220.722 6.11274 0.317886 0
M  V30 2438 N 219.859 6.91504 1.2152 0
M  V30 2439 H 224.699 2.88585 -0.743161 0
M  V30 2440 H 222.236 1.42154 -0.378226 0
M  V30 2441 H 224.194 3.88214 1.52792 0
M  V30 2442 H 222.824 2.75202 1.68712 0
M  V30 2443 H 221.876 3.76988 -0.508374 0
M  V30 2444 H 223.188 4.96779 -0.448527 0
M  V30 2445 H 222.342 5.80851 1.75206 0
M  V30 2446 H 221.081 4.5435 1.77249 0
M  V30 2447 H 220.086 5.48809 -0.329918 0
M  V30 2448 H 221.311 6.78283 -0.332917 0
M  V30 2449 H 219.257 6.29176 1.85671 0
M  V30 2450 H 219.174 7.53209 0.649036 0
M  V30 2451 H 220.442 7.57535 1.83742 0
M  V30 2452 N 224.671 0.411399 1.52136 0
M  V30 2453 C 225.621 -0.430376 2.23901 0
M  V30 2454 C 226.605 -1.0116 1.25121 0
M  V30 2455 O 227.797 -0.934044 1.50348 0
M  V30 2456 C 224.926 -1.54527 3.06556 0
M  V30 2457 C 224.012 -0.9747 4.12747 0
M  V30 2458 N 224.403 -0.130991 5.0563 0
M  V30 2459 C 222.701 -1.24497 4.28271 0
M  V30 2460 C 223.402 0.186689 5.814 0
M  V30 2461 N 222.378 -0.42304 5.41951 0
M  V30 2462 H 226.18 0.220509 2.93072 0
M  V30 2463 H 223.694 0.221952 1.60876 0
M  V30 2464 H 225.691 -2.16093 3.56524 0
M  V30 2465 H 224.351 -2.19875 2.38925 0
M  V30 2466 H 225.362 0.23349 5.17373 0
M  V30 2467 H 222.039 -1.89787 3.7187 0
M  V30 2468 H 223.429 0.871673 6.66222 0
M  V30 2469 N 226.149 -1.5696 0.141893 0
M  V30 2470 C 227.398 -1.95135 -0.510427 0
M  V30 2471 C 227.711 -1.02896 -1.66348 0
M  V30 2472 O 228.917 -1.30629 -2.38009 0
M  V30 2473 C 227.373 -3.46876 -0.959427 0
M  V30 2474 C 226.981 -4.47691 0.166419 0
M  V30 2475 C 228.725 -3.93927 -1.58183 0
M  V30 2476 C 226.632 -5.90636 -0.300565 0
M  V30 2477 H 225.562 -0.728494 -0.194454 0
M  V30 2478 H 228.213 -1.8211 0.22542 0
M  V30 2479 H 226.595 -3.55215 -1.75038 0
M  V30 2480 H 227.769 -4.51043 0.94325 0
M  V30 2481 H 226.084 -4.10527 0.696905 0
M  V30 2482 H 228.681 -4.98158 -1.94275 0
M  V30 2483 H 229.024 -3.3519 -2.46888 0
M  V30 2484 H 229.557 -3.88484 -0.855863 0
M  V30 2485 H 226.296 -6.5318 0.550989 0
M  V30 2486 H 225.816 -5.90655 -1.04338 0
M  V30 2487 H 227.495 -6.42588 -0.754265 0
M  V30 2488 N 227.627 0.131896 -1.57047 0
M  V30 2489 C 228.59 1.14638 -1.98471 0
M  V30 2490 C 229.59 1.35029 -0.873148 0
M  V30 2491 O 230.78 1.31764 -1.13946 0
M  V30 2492 C 227.912 2.50358 -2.31373 0
M  V30 2493 H 229.105 0.79064 -2.8929 0
M  V30 2494 H 226.658 0.375761 -1.51716 0
M  V30 2495 H 227.393 2.90876 -1.43393 0
M  V30 2496 H 227.178 2.36915 -3.12432 0
M  V30 2497 H 228.668 3.23395 -2.64207 0
M  V30 2498 N 229.106 1.52395 0.401703 0
M  V30 2499 C 230.016 1.7917 1.51444 0
M  V30 2500 C 231.032 0.677691 1.6026 0
M  V30 2501 O 232.208 0.963909 1.76835 0
M  V30 2502 C 229.273 1.94347 2.87107 0
M  V30 2503 C 228.334 3.18257 2.88116 0
M  V30 2504 C 227.567 3.32701 4.17308 0
M  V30 2505 O 227.79 2.52238 5.11598 0
M  V30 2506 O 226.724 4.25891 4.25324 0
M  V30 2507 H 230.55 2.73633 1.31752 0
M  V30 2508 H 228.135 1.3733 0.588296 0
M  V30 2509 H 230.017 2.06109 3.67555 0
M  V30 2510 H 228.692 1.03073 3.06851 0
M  V30 2511 H 227.599 3.11947 2.06494 0
M  V30 2512 H 228.932 4.09336 2.73322 0
M  V30 2513 N 230.584 -0.659388 1.43143 0
M  V30 2514 C 231.861 -1.41627 1.34912 0
M  V30 2515 C 232.241 -2.11099 -0.00607785 0
M  V30 2516 O 231.589 -2.04353 -1.02236 0
M  V30 2517 C 231.799 -2.40604 2.52805 0
M  V30 2518 C 233.147 -3.04789 2.95616 0
M  V30 2519 O 234.171 -2.50932 2.52807 0
M  V30 2520 O 233.03 -4.02421 3.69756 0
M  V30 2521 H 230.124 -0.63246 0.532844 0
M  V30 2522 H 232.67 -0.686814 1.5518 0
M  V30 2523 H 231.442 -1.88174 3.43083 0
M  V30 2524 H 231.065 -3.21009 2.34604 0
M  V30 2525 N 232.062 -1.29571 -0.897171 0
M  V30 2526 C 233.025 -1.14913 -1.98312 0
M  V30 2527 C 234.025 -0.0838629 -1.60581 0
M  V30 2528 O 235.215 -0.331006 -1.71026 0
M  V30 2529 C 232.347 -0.757835 -3.3237 0
M  V30 2530 H 233.54 -2.11377 -2.12743 0
M  V30 2531 H 231.093 -1.12793 -1.08201 0
M  V30 2532 H 231.828 0.206837 -3.2364 0
M  V30 2533 H 231.613 -1.52755 -3.61121 0
M  V30 2534 H 233.103 -0.678408 -4.12053 0
M  V30 2535 N 233.54 1.10788 -1.12088 0
M  V30 2536 C 234.817 1.79136 -0.785476 0
M  V30 2537 C 235.197 1.98246 0.725377 0
M  V30 2538 O 234.545 1.57258 1.65778 0
M  V30 2539 C 234.755 3.12375 -1.55636 0
M  V30 2540 C 236.103 3.8731 -1.74001 0
M  V30 2541 O 237.127 3.22085 -1.52117 0
M  V30 2542 O 235.986 5.04369 -2.10415 0
M  V30 2543 H 233.08 0.776226 -0.285311 0
M  V30 2544 H 235.626 1.1747 -1.2247 0
M  V30 2545 H 234.398 2.93863 -2.5838 0
M  V30 2546 H 234.021 3.81758 -1.11114 0
M  V30 2547 N 235.018 0.912232 1.28515 0
M  V30 2548 C 236.434 0.610159 1.47476 0
M  V30 2549 C 236.634 -0.844955 1.82928 0
M  V30 2550 O 235.69 -1.62416 1.93332 0
M  V30 2551 C 237.003 1.54675 2.57868 0
M  V30 2552 C 238.551 1.55331 2.71738 0
M  V30 2553 C 239.026 2.47649 3.85272 0
M  V30 2554 N 240.517 2.45767 3.92623 0
M  V30 2555 C 241.252 3.13896 4.79851 0
M  V30 2556 N 240.748 3.9135 5.71679 0
M  V30 2557 N 242.541 3.02991 4.73448 0
M  V30 2558 H 234.692 1.85318 1.03783 0
M  V30 2559 H 236.955 0.794777 0.516753 0
M  V30 2560 H 236.661 2.5841 2.38574 0
M  V30 2561 H 236.535 1.27671 3.54937 0
M  V30 2562 H 238.922 0.52335 2.90422 0
M  V30 2563 H 239.003 1.86378 1.75205 0
M  V30 2564 H 238.647 3.50745 3.67342 0
M  V30 2565 H 238.577 2.13904 4.81199 0
M  V30 2566 H 241.068 1.89503 3.26951 0
M  V30 2567 H 241.381 4.40359 6.35062 0
M  V30 2568 H 239.726 3.95455 5.71524 0
M  V30 2569 H 242.917 2.41987 4.007 0
M  V30 2570 H 243.09 3.5636 5.41213 0
M  V30 2571 N 236.496 -1.42363 0.676048 0
M  V30 2572 C 237.443 -2.308 -0.00150904 0
M  V30 2573 C 238.413 -1.46032 -0.791444 0
M  V30 2574 O 239.598 -1.74861 -0.76344 0
M  V30 2575 C 236.738 -3.31883 -0.945919 0
M  V30 2576 C 235.851 -4.31741 -0.149675 0
M  V30 2577 C 234.986 -5.19898 -1.08995 0
M  V30 2578 C 234.025 -6.11434 -0.285465 0
M  V30 2579 N 233.162 -6.92138 -1.17851 0
M  V30 2580 H 238.002 -2.88187 0.758455 0
M  V30 2581 H 235.539 -1.41952 0.38576 0
M  V30 2582 H 237.497 -3.89019 -1.50731 0
M  V30 2583 H 236.127 -2.76093 -1.6725 0
M  V30 2584 H 235.179 -3.76713 0.528359 0
M  V30 2585 H 236.491 -4.96534 0.474866 0
M  V30 2586 H 235.645 -5.81772 -1.72123 0
M  V30 2587 H 234.384 -4.55284 -1.74837 0
M  V30 2588 H 233.389 -5.48627 0.359018 0
M  V30 2589 H 234.614 -6.78097 0.368883 0
M  V30 2590 H 232.56 -6.30152 -1.82332 0
M  V30 2591 H 232.477 -7.53542 -0.609082 0
M  V30 2592 H 233.745 -7.58499 -1.79722 0
M  V30 2593 N 237.974 -0.419461 -1.51915 0
M  V30 2594 C 239.204 0.151915 -2.06041 0
M  V30 2595 C 239.612 1.38539 -1.28855 0
M  V30 2596 O 238.955 1.80592 -0.336463 0
M  V30 2597 C 239.017 0.557119 -3.55157 0
M  V30 2598 C 238.681 -0.567054 -4.53468 0
M  V30 2599 C 239.678 -1.43379 -4.99738 0
M  V30 2600 C 237.363 -0.742693 -4.96779 0
M  V30 2601 C 239.357 -2.46102 -5.87973 0
M  V30 2602 C 237.044 -1.77322 -5.84808 0
M  V30 2603 C 238.042 -2.63078 -6.30301 0
M  V30 2604 O 237.73 -3.64364 -7.16585 0
M  V30 2605 H 237.462 0.0193293 -0.675724 0
M  V30 2606 H 240.016 -0.592073 -1.96682 0
M  V30 2607 H 238.246 1.35355 -3.62238 0
M  V30 2608 H 239.935 1.05759 -3.9188 0
M  V30 2609 H 240.701 -1.30954 -4.66986 0
M  V30 2610 H 236.58 -0.0848307 -4.60922 0
M  V30 2611 H 240.124 -3.13071 -6.23404 0
M  V30 2612 H 236.021 -1.89773 -6.16974 0
M  V30 2613 H 236.789 -3.60731 -7.34721 0
M  V30 2614 N 239.452 1.56882 -0.150215 0
M  V30 2615 C 240.362 2.20494 0.801222 0
M  V30 2616 C 241.378 1.19019 1.26927 0
M  V30 2617 O 242.554 1.51607 1.32579 0
M  V30 2618 C 239.619 2.81659 2.02161 0
M  V30 2619 C 238.68 3.9827 1.60249 0
M  V30 2620 C 237.913 4.56508 2.7647 0
M  V30 2621 O 238.136 4.13627 3.92771 0
M  V30 2622 O 237.07 5.46719 2.51757 0
M  V30 2623 H 240.896 3.02315 0.289717 0
M  V30 2624 H 238.481 1.49202 0.0769684 0
M  V30 2625 H 240.363 3.20522 2.73576 0
M  V30 2626 H 239.038 2.02849 2.52258 0
M  V30 2627 H 237.945 3.64117 0.858477 0
M  V30 2628 H 239.278 4.78609 1.14864 0
M  V30 2629 N 240.93 -0.123565 1.57115 0
M  V30 2630 C 241.84 -1.17074 2.033 0
M  V30 2631 C 242.856 -1.4561 0.952559 0
M  V30 2632 O 244.032 -1.56817 1.26374 0
M  V30 2633 C 241.097 -2.47857 2.42421 0
M  V30 2634 C 240.158 -2.26758 3.64526 0
M  V30 2635 C 239.391 -3.51305 4.01771 0
M  V30 2636 O 239.614 -4.5843 3.39409 0
M  V30 2637 O 238.548 -3.42578 4.94898 0
M  V30 2638 H 242.374 -0.808555 2.92739 0
M  V30 2639 H 239.959 -0.334027 1.45618 0
M  V30 2640 H 241.841 -3.2492 2.68338 0
M  V30 2641 H 240.516 -2.83558 1.5613 0
M  V30 2642 H 239.423 -1.47569 3.43765 0
M  V30 2643 H 240.756 -1.95963 4.51508 0
M  V30 2644 N 242.408 -1.52605 -0.393616 0
M  V30 2645 C 243.654 -1.67672 -1.14079 0
M  V30 2646 C 243.987 -0.413121 -1.89755 0
M  V30 2647 O 243.262 0.588952 -1.85369 0
M  V30 2648 C 243.545 -2.9088 -2.12276 0
M  V30 2649 C 243.398 -4.27329 -1.40394 0
M  V30 2650 C 244.717 -3.09628 -3.12759 0
M  V30 2651 H 241.836 -0.610168 -0.413356 0
M  V30 2652 H 244.478 -1.85193 -0.424696 0
M  V30 2653 H 242.628 -2.76073 -2.73342 0
M  V30 2654 H 244.3 -4.53894 -0.82327 0
M  V30 2655 H 242.543 -4.2802 -0.705801 0
M  V30 2656 H 243.214 -5.09615 -2.12123 0
M  V30 2657 H 245.69 -3.23436 -2.61779 0
M  V30 2658 H 244.566 -3.97322 -3.78717 0
M  V30 2659 H 244.827 -2.23637 -3.81365 0
M  V30 2660 N 243.887 0.651787 -1.4349 0
M  V30 2661 C 244.85 1.74647 -1.48429 0
M  V30 2662 C 245.85 1.56513 -0.368817 0
M  V30 2663 O 247.04 1.62385 -0.630623 0
M  V30 2664 C 244.172 3.13533 -1.33827 0
M  V30 2665 H 245.365 1.71649 -2.4592 0
M  V30 2666 H 242.918 0.863573 -1.30277 0
M  V30 2667 H 243.653 3.22142 -0.37349 0
M  V30 2668 H 243.438 3.28101 -2.14691 0
M  V30 2669 H 244.928 3.93356 -1.40218 0
M  V30 2670 N 245.365 1.30045 0.890287 0
M  V30 2671 C 246.781 1.08261 1.17268 0
M  V30 2672 C 246.981 -0.160063 2.00863 0
M  V30 2673 O 246.037 -0.855181 2.37577 0
M  V30 2674 C 247.35 2.34323 1.8845 0
M  V30 2675 C 248.898 2.39735 2.01237 0
M  V30 2676 C 249.373 3.65625 2.7583 0
M  V30 2677 N 250.864 3.66402 2.83379 0
M  V30 2678 C 251.599 4.60498 3.41657 0
M  V30 2679 N 251.095 5.64933 4.01026 0
M  V30 2680 N 252.888 4.48051 3.39421 0
M  V30 2681 H 245.039 2.09777 0.332762 0
M  V30 2682 H 247.302 0.92446 0.209948 0
M  V30 2683 H 247.008 3.2498 1.34465 0
M  V30 2684 H 246.882 2.4256 2.88867 0
M  V30 2685 H 249.269 1.4956 2.54393 0
M  V30 2686 H 249.35 2.35476 0.999232 0
M  V30 2687 H 248.994 4.56156 2.23347 0
M  V30 2688 H 248.924 3.67144 3.77509 0
M  V30 2689 H 251.415 2.90896 2.41222 0
M  V30 2690 H 251.728 6.32841 4.43545 0
M  V30 2691 H 250.073 5.68732 3.99461 0
M  V30 2692 H 253.264 3.65649 2.92264 0
M  V30 2693 H 253.437 5.21565 3.84544 0
M  V30 2694 N 246.843 -1.10192 1.12674 0
M  V30 2695 C 247.79 -2.16606 0.796906 0
M  V30 2696 C 248.76 -1.64394 -0.237476 0
M  V30 2697 O 249.945 -1.90474 -0.111484 0
M  V30 2698 C 247.085 -3.44116 0.26043 0
M  V30 2699 C 246.198 -4.10268 1.35293 0
M  V30 2700 C 245.333 -5.25507 0.775621 0
M  V30 2701 C 244.372 -5.83567 1.84706 0
M  V30 2702 N 243.509 -6.90179 1.28829 0
M  V30 2703 H 248.349 -2.44163 1.70846 0
M  V30 2704 H 245.886 -1.19846 0.85295 0
M  V30 2705 H 247.844 -4.17143 -0.0686814 0
M  V30 2706 H 246.474 -3.16901 -0.614274 0
M  V30 2707 H 245.526 -3.35184 1.79877 0
M  V30 2708 H 246.838 -4.4946 2.16303 0
M  V30 2709 H 245.992 -6.05398 0.397327 0
M  V30 2710 H 244.731 -4.87656 -0.0656581 0
M  V30 2711 H 243.736 -5.02344 2.23452 0
M  V30 2712 H 244.961 -6.23482 2.69161 0
M  V30 2713 H 242.907 -6.54322 0.468881 0
M  V30 2714 H 242.824 -7.28097 2.03497 0
M  V30 2715 H 244.092 -7.73844 0.937311 0
M  V30 2716 N 248.321 -0.919034 -1.28029 0
M  V30 2717 C 249.251 -0.428581 -2.29533 0
M  V30 2718 C 250.232 0.50659 -1.62381 0
M  V30 2719 O 251.417 0.413195 -1.89753 0
M  V30 2720 C 248.547 0.327388 -3.45753 0
M  V30 2721 C 247.501 -0.519137 -4.2484 0
M  V30 2722 C 246.827 0.365486 -5.33449 0
M  V30 2723 C 248.127 -1.77914 -4.91064 0
M  V30 2724 H 249.821 -1.27687 -2.70807 0
M  V30 2725 H 247.367 -0.615428 -1.30186 0
M  V30 2726 H 249.32 0.681378 -4.15855 0
M  V30 2727 H 248.044 1.20963 -3.03374 0
M  V30 2728 H 246.703 -0.855717 -3.56473 0
M  V30 2729 H 246.351 1.24642 -4.87312 0
M  V30 2730 H 246.051 -0.197356 -5.87268 0
M  V30 2731 H 247.575 0.715241 -6.06396 0
M  V30 2732 H 248.989 -1.49374 -5.53498 0
M  V30 2733 H 247.386 -2.2848 -5.54903 0
M  V30 2734 H 248.456 -2.50382 -4.15255 0
M  V30 2735 N 249.799 1.42003 -0.683588 0
M  V30 2736 C 251.045 2.01712 -0.209825 0
M  V30 2737 C 251.378 1.53968 1.18353 0
M  V30 2738 O 250.653 0.745661 1.79639 0
M  V30 2739 C 250.936 3.59202 -0.254197 0
M  V30 2740 C 250.789 4.17102 -1.68363 0
M  V30 2741 C 252.108 4.38344 0.392709 0
M  V30 2742 H 249.227 0.732891 -0.0777189 0
M  V30 2743 H 251.869 1.68909 -0.87004 0
M  V30 2744 H 250.019 3.87278 0.307954 0
M  V30 2745 H 251.691 3.99946 -2.29871 0
M  V30 2746 H 249.934 3.72597 -2.22157 0
M  V30 2747 H 250.605 5.26249 -1.6663 0
M  V30 2748 H 253.081 4.16011 -0.0859162 0
M  V30 2749 H 251.957 5.47901 0.331063 0
M  V30 2750 H 252.218 4.16887 1.47164 0
M  V30 2751 N 251.277 0.427512 1.51691 0
M  V30 2752 C 252.526 -0.143679 2.01188 0
M  V30 2753 C 252.839 -1.44642 1.31674 0
M  V30 2754 O 254.045 -2.09997 1.72086 0
M  V30 2755 C 252.501 -0.306602 3.58592 0
M  V30 2756 C 252.109 0.985125 4.37035 0
M  V30 2757 C 253.853 -0.832091 4.16265 0
M  V30 2758 C 251.76 0.788382 5.86122 0
M  V30 2759 H 250.69 -0.0574701 0.751807 0
M  V30 2760 H 253.341 0.555772 1.74881 0
M  V30 2761 H 251.723 -1.06882 3.81303 0
M  V30 2762 H 252.897 1.75492 4.26074 0
M  V30 2763 H 251.212 1.4384 3.90767 0
M  V30 2764 H 253.809 -0.995617 5.25349 0
M  V30 2765 H 254.152 -1.81186 3.74803 0
M  V30 2766 H 254.685 -0.128444 3.97593 0
M  V30 2767 H 251.424 1.74025 6.31978 0
M  V30 2768 H 250.944 0.0582143 5.99772 0
M  V30 2769 H 252.623 0.437722 6.45518 0
M  V30 2770 N 252.755 -1.56801 0.158532 0
M  V30 2771 C 254.004 -1.95665 -0.489702 0
M  V30 2772 C 254.317 -1.04654 -1.65248 0
M  V30 2773 O 255.523 -1.33146 -2.3661 0
M  V30 2774 C 253.979 -3.47874 -0.922582 0
M  V30 2775 C 253.587 -4.47489 0.213893 0
M  V30 2776 C 255.331 -3.95583 -1.53996 0
M  V30 2777 C 253.238 -5.90921 -0.237903 0
M  V30 2778 H 252.168 -0.730516 -0.186716 0
M  V30 2779 H 254.819 -1.81861 0.244722 0
M  V30 2780 H 253.201 -3.57051 -1.71261 0
M  V30 2781 H 254.375 -4.50017 0.991036 0
M  V30 2782 H 252.69 -4.09764 0.740407 0
M  V30 2783 H 255.287 -5.0019 -1.8898 0
M  V30 2784 H 255.63 -3.37789 -2.43319 0
M  V30 2785 H 256.163 -3.8937 -0.814611 0
M  V30 2786 H 252.902 -6.52559 0.620236 0
M  V30 2787 H 252.422 -5.91729 -0.980676 0
M  V30 2788 H 254.101 -6.43352 -0.686067 0
M  V30 2789 N 254.233 0.115231 -1.57178 0
M  V30 2790 C 255.143 1.15994 -2.03918 0
M  V30 2791 C 256.159 1.45103 -0.960268 0
M  V30 2792 O 257.335 1.56144 -1.27204 0
M  V30 2793 C 254.4 2.46568 -2.43732 0
M  V30 2794 C 253.461 2.24822 -3.65723 0
M  V30 2795 C 252.694 3.4917 -4.03629 0
M  V30 2796 O 252.917 4.56623 -3.41835 0
M  V30 2797 O 251.851 3.39949 -4.96708 0
M  V30 2798 H 255.677 0.793019 -2.93164 0
M  V30 2799 H 253.262 0.3263 -1.45793 0
M  V30 2800 H 255.144 3.23492 -2.70057 0
M  V30 2801 H 253.819 2.82726 -1.57631 0
M  V30 2802 H 252.726 1.45744 -3.44542 0
M  V30 2803 H 254.059 1.93566 -4.52541 0
M  V30 2804 N 255.711 1.52812 0.385517 0
M  V30 2805 C 256.936 1.72207 1.15583 0
M  V30 2806 C 257.361 0.441034 1.82857 0
M  V30 2807 O 256.719 -0.603465 1.70962 0
M  V30 2808 C 256.767 2.87476 2.17692 0
M  V30 2809 O 255.871 2.54693 3.24354 0
M  V30 2810 H 255.212 0.572526 0.336319 0
M  V30 2811 H 257.742 1.99618 0.448744 0
M  V30 2812 H 257.752 3.13072 2.6163 0
M  V30 2813 H 256.427 3.80408 1.68115 0
M  V30 2814 H 255.004 2.3985 2.85529 0
M  V30 2815 N 257.189 -0.644168 1.43834 0
M  V30 2816 C 258.466 -1.40188 1.36406 0
M  V30 2817 C 258.846 -2.11094 0.0163124 0
M  V30 2818 O 258.194 -2.05426 -1.00062 0
M  V30 2819 C 258.404 -2.3791 2.55343 0
M  V30 2820 C 259.752 -3.01637 2.98832 0
M  V30 2821 O 260.776 -2.48237 2.55455 0
M  V30 2822 O 259.635 -3.98477 3.74003 0
M  V30 2823 H 256.729 -0.626773 0.539523 0
M  V30 2824 H 259.275 -0.670317 1.559 0
M  V30 2825 H 258.047 -1.84525 3.4506 0
M  V30 2826 H 257.67 -3.18503 2.37995 0
M  V30 2827 N 258.668 -1.30515 -0.883378 0
M  V30 2828 C 259.598 -1.19607 -2.00541 0
M  V30 2829 C 260.579 -0.086346 -1.69881 0
M  V30 2830 O 261.764 -0.268654 -1.92333 0
M  V30 2831 C 258.894 -0.888758 -3.35736 0
M  V30 2832 C 257.848 -1.95659 -3.8066 0
M  V30 2833 C 257.174 -1.50224 -5.13164 0
M  V30 2834 C 258.474 -3.36788 -3.99213 0
M  V30 2835 H 260.168 -2.13476 -2.09925 0
M  V30 2836 H 257.714 -1.02775 -1.00863 0
M  V30 2837 H 259.667 -0.799094 -4.13754 0
M  V30 2838 H 258.391 0.0856125 -3.26488 0
M  V30 2839 H 257.05 -2.03591 -3.04871 0
M  V30 2840 H 256.698 -0.516092 -5.00345 0
M  V30 2841 H 256.398 -2.2165 -5.44192 0
M  V30 2842 H 257.922 -1.42639 -5.93706 0
M  V30 2843 H 259.336 -3.31605 -4.67665 0
M  V30 2844 H 257.733 -4.06314 -4.41621 0
M  V30 2845 H 258.803 -3.78561 -3.03017 0
M  V30 2846 N 260.146 1.09593 -1.13257 0
M  V30 2847 C 261.056 2.19739 -0.821691 0
M  V30 2848 C 262.072 1.72926 0.19302 0
M  V30 2849 O 263.248 2.01385 0.0244895 0
M  V30 2850 C 260.313 3.45482 -0.290333 0
M  V30 2851 C 259.374 4.06985 -1.36607 0
M  V30 2852 C 258.607 5.26726 -0.859975 0
M  V30 2853 O 258.83 5.69594 0.303082 0
M  V30 2854 O 257.764 5.7931 -1.63351 0
M  V30 2855 H 261.59 2.48781 -1.74189 0
M  V30 2856 H 259.175 1.18496 -0.909894 0
M  V30 2857 H 261.057 4.214 0.000674022 0
M  V30 2858 H 259.732 3.18047 0.602306 0
M  V30 2859 H 258.639 3.32712 -1.71037 0
M  V30 2860 H 259.972 4.38643 -2.23279 0
M  V30 2861 N 261.624 0.925811 1.2754 0
M  V30 2862 C 263.04 0.625767 1.46821 0
M  V30 2863 C 263.24 -0.825506 1.83814 0
M  V30 2864 O 262.296 -1.60356 1.95044 0
M  V30 2865 C 263.609 1.57402 2.56213 0
M  V30 2866 C 265.157 1.58204 2.70075 0
M  V30 2867 C 265.632 2.51721 3.82623 0
M  V30 2868 N 267.123 2.49917 3.89994 0
M  V30 2869 C 267.858 3.18968 4.76494 0
M  V30 2870 N 267.354 3.97391 5.67496 0
M  V30 2871 N 269.147 3.07996 4.70208 0
M  V30 2872 H 261.298 1.86409 1.01811 0
M  V30 2873 H 263.561 0.800213 0.508295 0
M  V30 2874 H 263.267 2.60925 2.35819 0
M  V30 2875 H 263.141 1.31428 3.53563 0
M  V30 2876 H 265.528 0.554124 2.89851 0
M  V30 2877 H 265.609 1.88226 1.73218 0
M  V30 2878 H 265.253 3.54622 3.63601 0
M  V30 2879 H 265.183 2.18996 4.78903 0
M  V30 2880 H 267.674 1.9296 3.24923 0
M  V30 2881 H 267.987 4.4707 6.30356 0
M  V30 2882 H 266.332 4.01495 5.67298 0
M  V30 2883 H 269.523 2.46223 3.9811 0
M  V30 2884 H 269.696 3.6208 5.37403 0
M  V30 2885 N 263.102 -1.41638 0.69111 0
M  V30 2886 C 264.065 -2.29178 0.0319786 0
M  V30 2887 C 265.065 -1.44153 -0.712496 0
M  V30 2888 O 266.255 -1.65354 -0.548053 0
M  V30 2889 C 263.387 -3.26952 -0.965161 0
M  V30 2890 H 264.58 -2.88959 0.802681 0
M  V30 2891 H 262.133 -1.4955 0.454356 0
M  V30 2892 H 262.868 -2.72142 -1.76378 0
M  V30 2893 H 262.653 -3.89685 -0.434522 0
M  V30 2894 H 264.143 -3.92561 -1.42428 0
M  V30 2895 N 264.58 -0.43555 -1.51462 0
M  V30 2896 C 265.49 0.383001 -2.31453 0
M  V30 2897 C 266.506 1.02931 -1.4029 0
M  V30 2898 O 267.682 1.02507 -1.73362 0
M  V30 2899 C 264.747 1.47043 -3.13973 0
M  V30 2900 C 263.808 0.844433 -4.20913 0
M  V30 2901 C 263.041 1.88004 -4.9949 0
M  V30 2902 O 263.264 3.10199 -4.78678 0
M  V30 2903 O 262.198 1.47157 -5.83634 0
M  V30 2904 H 266.024 -0.269964 -3.02498 0
M  V30 2905 H 263.609 -0.19813 -1.4808 0
M  V30 2906 H 265.491 2.10113 -3.65281 0
M  V30 2907 H 264.166 2.10751 -2.45695 0
M  V30 2908 H 263.073 0.175729 -3.73687 0
M  V30 2909 H 264.406 0.250869 -4.9156 0
M  V30 2910 N 266.058 1.56714 -0.166846 0
M  V30 2911 C 266.968 2.21331 0.777791 0
M  V30 2912 C 267.984 1.20358 1.25658 0
M  V30 2913 O 269.16 1.53005 1.30964 0
M  V30 2914 C 266.225 2.83787 1.99163 0
M  V30 2915 C 265.286 3.99947 1.56016 0
M  V30 2916 C 264.519 4.59415 2.71613 0
M  V30 2917 O 264.742 4.17769 3.88362 0
M  V30 2918 O 263.676 5.49359 2.45945 0
M  V30 2919 H 267.502 3.02605 0.257636 0
M  V30 2920 H 265.087 1.49275 0.0611393 0
M  V30 2921 H 266.969 3.23405 2.70161 0
M  V30 2922 H 265.644 2.05513 2.50092 0
M  V30 2923 H 264.551 3.65007 0.819809 0
M  V30 2924 H 265.884 4.79801 1.09782 0
M  V30 2925 N 267.536 -0.106894 1.57237 0
M  V30 2926 C 268.952 -0.46078 1.52804 0
M  V30 2927 C 269.152 -1.81184 0.881746 0
M  V30 2928 O 268.208 -2.48102 0.469224 0
M  V30 2929 C 269.521 -0.434127 2.9755 0
M  V30 2930 C 271.069 -0.516821 3.08704 0
M  V30 2931 C 271.544 -0.520436 4.55033 0
M  V30 2932 N 273.035 -0.58153 4.59535 0
M  V30 2933 C 273.77 -0.605973 5.70189 0
M  V30 2934 N 273.266 -0.587331 6.90306 0
M  V30 2935 N 275.059 -0.649895 5.5833 0
M  V30 2936 H 267.21 0.778203 1.9763 0
M  V30 2937 H 269.473 0.288403 0.903066 0
M  V30 2938 H 269.179 0.491197 3.48253 0
M  V30 2939 H 269.053 -1.25748 3.55622 0
M  V30 2940 H 271.44 -1.43256 2.57995 0
M  V30 2941 H 271.521 0.334449 2.53604 0
M  V30 2942 H 271.165 0.391313 5.0639 0
M  V30 2943 H 271.095 -1.38876 5.07958 0
M  V30 2944 H 273.586 -0.60161 3.73081 0
M  V30 2945 H 273.899 -0.60894 7.70397 0
M  V30 2946 H 272.244 -0.554564 6.92784 0
M  V30 2947 H 275.435 -0.661907 4.63397 0
M  V30 2948 H 275.608 -0.665476 6.44574 0
M  V30 2949 N 269.014 -1.53014 -0.377408 0
M  V30 2950 C 269.977 -1.77957 -1.44444 0
M  V30 2951 C 270.977 -0.649763 -1.47087 0
M  V30 2952 O 272.167 -0.917897 -1.48055 0
M  V30 2953 C 269.299 -1.89089 -2.83651 0
M  V30 2954 H 270.492 -2.73243 -1.23606 0
M  V30 2955 H 268.045 -1.43912 -0.609844 0
M  V30 2956 H 268.78 -0.958293 -3.09818 0
M  V30 2957 H 268.565 -2.71254 -2.83132 0
M  V30 2958 H 270.055 -2.1002 -3.60945 0
M  V30 2959 N 270.492 0.636531 -1.44174 0
M  V30 2960 C 271.402 1.77754 -1.53103 0
M  V30 2961 C 272.418 1.68928 -0.417034 0
M  V30 2962 O 273.594 1.89801 -0.6736 0
M  V30 2963 C 270.659 3.14115 -1.46741 0
M  V30 2964 C 269.72 3.34612 -2.68948 0
M  V30 2965 C 268.953 4.64467 -2.6288 0
M  V30 2966 O 269.176 5.44919 -1.68581 0
M  V30 2967 O 268.11 4.87049 -3.53648 0
M  V30 2968 H 271.936 1.73174 -2.49489 0
M  V30 2969 H 269.521 0.79709 -1.2636 0
M  V30 2970 H 271.403 3.95412 -1.45696 0
M  V30 2971 H 270.078 3.19249 -0.534975 0
M  V30 2972 H 268.985 2.53014 -2.75562 0
M  V30 2973 H 270.318 3.34336 -3.61221 0
M  V30 2974 N 271.97 1.30982 0.876444 0
M  V30 2975 C 272.9 1.20668 1.99903 0
M  V30 2976 C 273.881 0.095354 1.69833 0
M  V30 2977 O 275.066 0.27885 1.92188 0
M  V30 2978 C 272.196 0.90655 3.3526 0
M  V30 2979 C 271.15 1.97675 3.79617 0
M  V30 2980 C 270.476 1.52943 5.1236 0
M  V30 2981 C 271.776 3.389 3.97422 0
M  V30 2982 H 273.47 2.14586 2.0879 0
M  V30 2983 H 271.016 1.03308 1.00317 0
M  V30 2984 H 272.969 0.821025 4.13324 0
M  V30 2985 H 271.693 -0.0682969 3.26529 0
M  V30 2986 H 270.352 2.05205 3.03787 0
M  V30 2987 H 270 0.54262 5.00065 0
M  V30 2988 H 269.7 2.24532 5.43009 0
M  V30 2989 H 271.224 1.45786 5.92941 0
M  V30 2990 H 272.638 3.34081 4.659 0
M  V30 2991 H 271.035 4.0865 4.3946 0
M  V30 2992 H 272.105 3.80163 3.01006 0
M  V30 2993 N 273.449 -1.08991 1.13837 0
M  V30 2994 C 274.674 -1.85551 0.926585 0
M  V30 2995 C 275.099 -1.80782 -0.519566 0
M  V30 2996 O 274.457 -1.18855 -1.36906 0
M  V30 2997 C 274.505 -3.31266 1.42462 0
M  V30 2998 O 273.609 -4.07822 0.612789 0
M  V30 2999 H 272.95 -0.575192 0.331738 0
M  V30 3000 H 275.48 -1.37604 1.51414 0
M  V30 3001 H 275.49 -3.82112 1.43019 0
M  V30 3002 H 274.165 -3.34052 2.47754 0
M  V30 3003 H 272.742 -3.66731 0.675463 0
M  V30 3004 N 274.927 -0.932562 -1.27047 0
M  V30 3005 C 275.837 -0.441219 -2.30414 0
M  V30 3006 C 276.853 0.480525 -1.67233 0
M  V30 3007 O 278.029 0.362151 -1.98117 0
M  V30 3008 C 275.094 0.293651 -3.45454 0
M  V30 3009 C 274.155 -0.663601 -4.2414 0
M  V30 3010 C 273.388 0.0362932 -5.33688 0
M  V30 3011 O 273.611 1.2548 -5.56427 0
M  V30 3012 O 272.545 -0.638015 -5.98509 0
M  V30 3013 H 276.371 -1.29962 -2.74488 0
M  V30 3014 H 273.956 -0.6981 -1.32087 0
M  V30 3015 H 275.838 0.707951 -4.15411 0
M  V30 3016 H 274.513 1.12758 -3.03426 0
M  V30 3017 H 273.42 -1.12768 -3.56699 0
M  V30 3018 H 274.753 -1.46489 -4.69896 0
M  V30 3019 N 276.405 1.4127 -0.698611 0
M  V30 3020 C 277.653 2.00782 -0.230409 0
M  V30 3021 C 277.974 1.5562 1.17505 0
M  V30 3022 O 277.244 0.78815 1.79346 0
M  V30 3023 H 275.824 0.742464 -0.0821944 0
M  V30 3024 H 278.486 1.72852 -0.90045 0
M  V30 3025 H 277.582 3.11095 -0.25021 0
M  V30 3026 N 277.883 0.443576 1.51229 0
M  V30 3027 C 278.83 -0.364716 2.279 0
M  V30 3028 C 279.8 -1.0114 1.31757 0
M  V30 3029 O 280.985 -1.02912 1.60667 0
M  V30 3030 C 278.125 -1.45644 3.12861 0
M  V30 3031 C 277.238 -0.827269 4.24005 0
M  V30 3032 C 276.373 -1.89456 4.96266 0
M  V30 3033 C 275.412 -1.24416 5.99322 0
M  V30 3034 N 274.549 -2.25309 6.64966 0
M  V30 3035 H 279.389 0.295464 2.96532 0
M  V30 3036 H 276.926 0.157554 1.46254 0
M  V30 3037 H 278.884 -2.10076 3.6045 0
M  V30 3038 H 277.514 -2.08616 2.46331 0
M  V30 3039 H 276.566 -0.0710839 3.80334 0
M  V30 3040 H 277.878 -0.312481 4.9782 0
M  V30 3041 H 277.032 -2.61535 5.47434 0
M  V30 3042 H 275.771 -2.4431 4.22095 0
M  V30 3043 H 274.776 -0.508868 5.4744 0
M  V30 3044 H 276.001 -0.702882 6.75453 0
M  V30 3045 H 273.947 -2.79231 5.93604 0
M  V30 3046 H 273.864 -1.78739 7.34567 0
M  V30 3047 H 275.132 -2.96853 7.20763 0
M  V30 3048 N 279.361 -1.56624 0.175154 0
M  V30 3049 C 280.601 -1.98894 -0.471221 0
M  V30 3050 C 280.965 -1.05889 -1.60161 0
M  V30 3051 O 282.166 -1.37315 -2.3108 0
M  V30 3052 C 280.437 -3.44865 -0.938241 0
M  V30 3053 S 281.996 -4.09164 -1.58526 0
M  V30 3054 H 278.814 -0.694686 -0.151434 0
M  V30 3055 H 281.416 -1.93577 0.27352 0
M  V30 3056 H 280.12 -4.10265 -0.10518 0
M  V30 3057 H 279.651 -3.53956 -1.71693 0
M  V30 3058 H 281.666 -4.04528 -2.87352 0
M  V30 3059 N 280.839 0.0985539 -1.57292 0
M  V30 3060 C 281.802 1.10402 -2.00858 0
M  V30 3061 C 282.802 1.33146 -0.901593 0
M  V30 3062 O 283.992 1.29318 -1.16716 0
M  V30 3063 C 281.124 2.45394 -2.36632 0
M  V30 3064 H 282.317 0.729099 -2.90902 0
M  V30 3065 H 279.87 0.343495 -1.52479 0
M  V30 3066 H 280.605 2.87769 -1.49531 0
M  V30 3067 H 280.39 2.30235 -3.17387 0
M  V30 3068 H 281.88 3.17718 -2.71007 0
M  V30 3069 N 282.317 1.53212 0.369288 0
M  V30 3070 C 283.227 1.82342 1.47609 0
M  V30 3071 C 284.243 0.711532 1.58787 0
M  V30 3072 O 285.419 1.0012 1.74751 0
M  V30 3073 C 282.484 2.00393 2.8292 0
M  V30 3074 C 281.545 3.24297 2.81301 0
M  V30 3075 C 280.778 3.41478 4.10157 0
M  V30 3076 O 281.001 2.63033 5.06132 0
M  V30 3077 O 279.935 4.34817 4.16194 0
M  V30 3078 H 283.761 2.76366 1.25918 0
M  V30 3079 H 281.346 1.38547 0.559034 0
M  V30 3080 H 283.228 2.13859 3.63101 0
M  V30 3081 H 281.903 1.09559 3.04596 0
M  V30 3082 H 280.81 3.16257 1.99831 0
M  V30 3083 H 282.143 4.15041 2.64578 0
M  V30 3084 N 283.795 -0.628877 1.44509 0
M  V30 3085 C 284.725 -1.75187 1.54376 0
M  V30 3086 C 285.706 -1.65411 0.396618 0
M  V30 3087 O 286.891 -1.84137 0.617031 0
M  V30 3088 C 284.021 -3.13725 1.48976 0
M  V30 3089 C 282.975 -3.38291 2.62189 0
M  V30 3090 C 282.301 -4.76883 2.41841 0
M  V30 3091 C 283.601 -3.30632 4.04326 0
M  V30 3092 H 285.295 -1.67187 2.48373 0
M  V30 3093 H 282.841 -0.802909 1.19538 0
M  V30 3094 H 284.794 -3.92064 1.54478 0
M  V30 3095 H 283.518 -3.22515 0.514961 0
M  V30 3096 H 282.177 -2.62334 2.56079 0
M  V30 3097 H 281.825 -4.82378 1.42548 0
M  V30 3098 H 281.525 -4.94278 3.17747 0
M  V30 3099 H 283.049 -5.57449 2.49165 0
M  V30 3100 H 284.463 -3.98873 4.11793 0
M  V30 3101 H 282.86 -3.59561 4.80454 0
M  V30 3102 H 283.93 -2.28404 4.27738 0
M  V30 3103 N 285.273 -1.31445 -0.869486 0
M  V30 3104 C 286.183 -1.21097 -2.0093 0
M  V30 3105 C 287.199 -0.127584 -1.73532 0
M  V30 3106 O 288.375 -0.345477 -1.98415 0
M  V30 3107 C 285.44 -0.919378 -3.34288 0
M  V30 3108 C 284.501 -2.08971 -3.75006 0
M  V30 3109 C 283.734 -1.81194 -5.02001 0
M  V30 3110 O 283.957 -0.747296 -5.65484 0
M  V30 3111 O 282.891 -2.66883 -5.39497 0
M  V30 3112 H 286.717 -2.16883 -2.12592 0
M  V30 3113 H 284.302 -1.11189 -0.997868 0
M  V30 3114 H 286.184 -0.772625 -4.14257 0
M  V30 3115 H 284.859 0.00844772 -3.23699 0
M  V30 3116 H 283.766 -2.29187 -2.95676 0
M  V30 3117 H 285.099 -2.9998 -3.90221 0
M  V30 3118 N 286.751 1.08385 -1.14413 0
M  V30 3119 C 287.661 2.18856 -0.844951 0
M  V30 3120 C 288.677 1.73121 0.174668 0
M  V30 3121 O 289.853 2.014 0.00312857 0
M  V30 3122 C 286.918 3.45155 -0.32696 0
M  V30 3123 C 285.979 4.05513 -1.40916 0
M  V30 3124 C 285.212 5.25784 -0.915793 0
M  V30 3125 O 285.435 5.69884 0.242651 0
M  V30 3126 O 284.369 5.77545 -1.69487 0
M  V30 3127 H 288.195 2.46919 -1.76818 0
M  V30 3128 H 285.78 1.17524 -0.922411 0
M  V30 3129 H 287.662 4.21377 -0.0440211 0
M  V30 3130 H 286.337 3.18668 0.568539 0
M  V30 3131 H 285.244 3.30879 -1.74556 0
M  V30 3132 H 286.577 4.3625 -2.27919 0
M  V30 3133 N 288.23 0.939286 1.26551 0
M  V30 3134 C 289.14 0.453432 2.30176 0
M  V30 3135 C 290.156 -0.471649 1.67486 0
M  V30 3136 O 291.332 -0.35164 1.98306 0
M  V30 3137 C 288.397 -0.275326 3.45605 0
M  V30 3138 C 287.458 0.686084 4.23782 0
M  V30 3139 C 286.691 -0.00798994 5.33699 0
M  V30 3140 O 286.914 -1.22528 5.57085 0
M  V30 3141 O 285.848 0.669746 5.98162 0
M  V30 3142 H 289.674 1.31416 2.73795 0
M  V30 3143 H 287.259 0.705095 1.31715 0
M  V30 3144 H 289.141 -0.685911 4.1578 0
M  V30 3145 H 287.816 -1.11147 3.0402 0
M  V30 3146 H 286.723 1.14658 3.56096 0
M  V30 3147 H 288.056 1.48979 4.69112 0
M  V30 3148 N 289.708 -1.40897 0.706093 0
M  V30 3149 C 290.638 -2.33418 0.0620085 0
M  V30 3150 C 291.619 -1.52385 -0.755827 0
M  V30 3151 O 292.804 -1.80886 -0.706674 0
M  V30 3152 C 289.934 -3.36293 -0.867445 0
M  V30 3153 C 288.888 -4.27716 -0.155932 0
M  V30 3154 C 288.214 -5.2105 -1.20046 0
M  V30 3155 C 289.514 -5.12944 0.984149 0
M  V30 3156 H 291.208 -2.87527 0.83477 0
M  V30 3157 H 288.754 -1.38249 0.402875 0
M  V30 3158 H 290.707 -3.99949 -1.32735 0
M  V30 3159 H 289.431 -2.80556 -1.67199 0
M  V30 3160 H 288.09 -3.65498 0.284047 0
M  V30 3161 H 287.738 -4.61624 -1.99781 0
M  V30 3162 H 287.438 -5.83056 -0.729328 0
M  V30 3163 H 288.962 -5.87584 -1.66066 0
M  V30 3164 H 290.376 -5.70109 0.604048 0
M  V30 3165 H 288.773 -5.83945 1.38304 0
M  V30 3166 H 289.843 -4.49485 1.81911 0
M  V30 3167 N 291.186 -0.45159 -1.50991 0
M  V30 3168 C 292.133 0.352625 -2.2809 0
M  V30 3169 C 293.103 1.0044 -1.32291 0
M  V30 3170 O 294.288 1.02058 -1.6121 0
M  V30 3171 C 291.428 1.43983 -3.13629 0
M  V30 3172 C 290.541 0.804772 -4.24438 0
M  V30 3173 C 289.676 1.86822 -4.97263 0
M  V30 3174 C 288.715 1.21236 -5.99973 0
M  V30 3175 N 287.852 2.2178 -6.66152 0
M  V30 3176 H 292.692 -0.311186 -2.96371 0
M  V30 3177 H 290.229 -0.165308 -1.46168 0
M  V30 3178 H 292.187 2.08161 -3.61559 0
M  V30 3179 H 290.817 2.07307 -2.47434 0
M  V30 3180 H 289.869 0.0509129 -3.80366 0
M  V30 3181 H 291.181 0.286076 -4.97979 0
M  V30 3182 H 290.335 2.58628 -5.48813 0
M  V30 3183 H 289.074 2.42068 -4.23385 0
M  V30 3184 H 288.079 0.479828 -5.47702 0
M  V30 3185 H 289.304 0.667051 -6.75816 0
M  V30 3186 H 287.25 2.76079 -5.95077 0
M  V30 3187 H 287.167 1.74841 -7.35504 0
M  V30 3188 H 288.435 2.93026 -7.22327 0
M  V30 3189 N 292.664 1.56529 -0.183458 0
M  V30 3190 C 293.892 2.01623 0.464285 0
M  V30 3191 C 294.307 1.06366 1.55986 0
M  V30 3192 O 293.664 0.0665398 1.82379 0
M  V30 3193 C 293.715 3.46475 1.03139 0
M  V30 3194 O 293.436 4.38095 -0.0204675 0
M  V30 3195 C 294.937 4.0703 1.75617 0
M  V30 3196 H 292.157 0.660596 0.117704 0
M  V30 3197 H 294.701 2.02451 -0.288751 0
M  V30 3198 H 292.856 3.46383 1.73486 0
M  V30 3199 H 293.27 5.22973 0.399952 0
M  V30 3200 H 294.744 5.10271 2.10542 0
M  V30 3201 H 295.221 3.49819 2.65563 0
M  V30 3202 H 295.827 4.1086 1.09882 0
M  V30 3203 N 294.142 -0.090211 1.57342 0
M  V30 3204 C 295.388 -0.793982 1.86611 0
M  V30 3205 C 295.721 -1.78142 0.773252 0
M  V30 3206 O 294.996 -1.93271 -0.218304 0
M  V30 3207 C 295.279 -1.51839 3.26523 0
M  V30 3208 C 295.132 -0.548609 4.46442 0
M  V30 3209 C 296.451 -2.46779 3.64401 0
M  V30 3210 H 293.57 -0.287186 0.678744 0
M  V30 3211 H 296.212 -0.0575076 1.89913 0
M  V30 3212 H 294.362 -2.14617 3.23839 0
M  V30 3213 H 296.034 0.0725513 4.61243 0
M  V30 3214 H 294.277 0.137614 4.33582 0
M  V30 3215 H 294.948 -1.09271 5.41076 0
M  V30 3216 H 297.424 -1.94089 3.68061 0
M  V30 3217 H 296.3 -2.94479 4.63221 0
M  V30 3218 H 296.561 -3.30758 2.93346 0
M  V30 3219 N 295.62 -1.53406 -0.361157 0
M  V30 3220 C 296.848 -1.73717 -1.12383 0
M  V30 3221 C 297.263 -0.468161 -1.82904 0
M  V30 3222 O 296.62 0.559198 -1.73722 0
M  V30 3223 C 296.671 -2.90558 -2.15078 0
M  V30 3224 O 296.392 -4.12549 -1.47428 0
M  V30 3225 C 297.893 -3.22777 -3.03858 0
M  V30 3226 H 295.113 -0.580896 -0.335858 0
M  V30 3227 H 297.657 -2.00167 -0.418728 0
M  V30 3228 H 295.812 -2.66489 -2.8118 0
M  V30 3229 H 296.226 -4.78009 -2.15887 0
M  V30 3230 H 297.7 -4.07927 -3.71887 0
M  V30 3231 H 298.177 -2.38329 -3.68912 0
M  V30 3232 H 298.783 -3.48787 -2.43367 0
M  V30 3233 N 297.098 0.621204 -1.44841 0
M  V30 3234 C 298.046 1.75385 -1.52784 0
M  V30 3235 C 299.04 1.64639 -0.398779 0
M  V30 3236 O 300.246 1.70598 -0.574137 0
M  V30 3237 H 296.621 0.579193 -0.479625 0
M  V30 3238 H 298.592 1.6581 -2.48092 0
M  V30 3239 C 297.341 3.13742 -1.4987 0
M  V30 3240 H 296.664 3.22663 -2.36069 0
M  V30 3241 H 298.104 3.92861 -1.59487 0
M  V30 3242 C 296.563 3.36175 -0.220973 0
M  V30 3243 O 297.093 3.95469 0.704782 0
M  V30 3244 N 295.299 2.90348 -0.120963 0
M  V30 3245 H 294.846 2.42278 -0.875162 0
M  V30 3246 H 294.804 3.05732 0.733168 0
M  V30 3247 N 298.576 1.31904 0.862503 0
M  V30 3248 C 299.524 1.20125 1.9918 0
M  V30 3249 C 300.518 0.107824 1.69056 0
M  V30 3250 O 301.724 0.270223 1.7796 0
M  V30 3251 H 298.099 0.372148 0.65346 0
M  V30 3252 H 300.07 2.15652 2.06244 0
M  V30 3253 C 298.819 0.933099 3.34946 0
M  V30 3254 H 298.142 1.76664 3.5865 0
M  V30 3255 H 299.582 0.890892 4.14535 0
M  V30 3256 C 298.041 -0.364172 3.34926 0
M  V30 3257 O 298.571 -1.37858 3.77304 0
M  V30 3258 N 296.777 -0.383362 2.8806 0
M  V30 3259 H 296.324 0.442651 2.53768 0
M  V30 3260 H 296.282 -1.25123 2.8843 0
M  V30 3261 N 300.054 -1.07777 1.14986 0
M  V30 3262 C 300.984 -2.16865 0.865557 0
M  V30 3263 C 301.965 -1.69123 -0.182083 0
M  V30 3264 O 303.15 -1.94164 -0.0373815 0
M  V30 3265 C 300.28 -3.45539 0.349313 0
M  V30 3266 C 299.234 -4.06708 1.33313 0
M  V30 3267 C 298.56 -5.30411 0.675918 0
M  V30 3268 C 299.86 -4.47241 2.69764 0
M  V30 3269 H 301.554 -2.40905 1.77778 0
M  V30 3270 H 299.1 -1.15781 0.856203 0
M  V30 3271 H 301.053 -4.21174 0.137983 0
M  V30 3272 H 299.777 -3.21072 -0.598362 0
M  V30 3273 H 298.436 -3.33112 1.53075 0
M  V30 3274 H 298.084 -5.02232 -0.277767 0
M  V30 3275 H 297.784 -5.72293 1.33244 0
M  V30 3276 H 299.308 -6.08755 0.474262 0
M  V30 3277 H 300.722 -5.14025 2.53873 0
M  V30 3278 H 299.119 -5.00062 3.3175 0
M  V30 3279 H 300.189 -3.58818 3.26156 0
M  V30 3280 N 301.532 -0.945985 -1.26051 0
M  V30 3281 C 302.479 -0.45809 -2.26208 0
M  V30 3282 C 303.449 0.484816 -1.58867 0
M  V30 3283 O 304.634 0.399969 -1.86561 0
M  V30 3284 C 301.774 0.266131 -3.44072 0
M  V30 3285 C 300.887 -0.713005 -4.26075 0
M  V30 3286 C 300.022 0.0329013 -5.3119 0
M  V30 3287 C 299.061 -0.93774 -6.04874 0
M  V30 3288 N 298.198 -0.223274 -7.01745 0
M  V30 3289 H 303.038 -1.3171 -2.67313 0
M  V30 3290 H 300.575 -0.66069 -1.31428 0
M  V30 3291 H 302.533 0.702514 -4.11243 0
M  V30 3292 H 301.163 1.08925 -3.03867 0
M  V30 3293 H 300.215 -1.26789 -3.58648 0
M  V30 3294 H 301.527 -1.45406 -4.77136 0
M  V30 3295 H 300.681 0.528335 -6.04395 0
M  V30 3296 H 299.42 0.806801 -4.8098 0
M  V30 3297 H 298.425 -1.44425 -5.30492 0
M  V30 3298 H 299.65 -1.71172 -6.57173 0
M  V30 3299 H 297.596 0.532046 -6.53839 0
M  V30 3300 H 297.513 -0.90357 -7.50581 0
M  V30 3301 H 298.781 0.250907 -7.79096 0
M  V30 3302 N 303.011 1.40521 -0.713556 0
M  V30 3303 C 304.236 2.05759 -0.26035 0
M  V30 3304 C 304.661 1.53403 1.08854 0
M  V30 3305 O 304.019 0.668535 1.68524 0
M  V30 3306 C 304.067 3.59745 -0.248122 0
M  V30 3307 O 303.171 4.05123 0.77131 0
M  V30 3308 H 302.512 0.652564 -0.122703 0
M  V30 3309 H 305.042 1.79958 -0.973467 0
M  V30 3310 H 305.052 4.07911 -0.0851129 0
M  V30 3311 H 303.727 3.97218 -1.2325 0
M  V30 3312 H 302.304 3.68422 0.57619 0
M  V30 3313 N 304.489 0.459591 1.5075 0
M  V30 3314 C 305.419 -0.330644 2.31147 0
M  V30 3315 C 306.4 -1.00087 1.37538 0
M  V30 3316 O 307.585 -1.00025 1.66459 0
M  V30 3317 C 304.715 -1.41958 3.16962 0
M  V30 3318 C 303.669 -0.871608 4.19031 0
M  V30 3319 C 302.995 -2.05797 4.9351 0
M  V30 3320 C 304.295 0.109251 5.22186 0
M  V30 3321 H 305.989 0.340336 2.97459 0
M  V30 3322 H 303.535 0.165119 1.4305 0
M  V30 3323 H 305.488 -1.9798 3.71997 0
M  V30 3324 H 304.212 -2.11917 2.48513 0
M  V30 3325 H 302.871 -0.333442 3.6508 0
M  V30 3326 H 302.519 -2.74427 4.21544 0
M  V30 3327 H 302.219 -1.6976 5.62544 0
M  V30 3328 H 303.743 -2.62331 5.51375 0
M  V30 3329 H 305.157 -0.361405 5.7216 0
M  V30 3330 H 303.554 0.383316 5.98875 0
M  V30 3331 H 304.624 1.03887 4.73641 0
M  V30 3332 N 305.967 -1.56429 0.191757 0
M  V30 3333 C 306.877 -2.22541 -0.742481 0
M  V30 3334 C 307.893 -1.22342 -1.23727 0
M  V30 3335 O 309.069 -1.55069 -1.28513 0
M  V30 3336 C 306.134 -2.8692 -1.94623 0
M  V30 3337 C 305.195 -4.02378 -1.49633 0
M  V30 3338 C 304.428 -4.63678 -2.6427 0
M  V30 3339 O 304.651 -4.23895 -3.81666 0
M  V30 3340 O 303.585 -5.53202 -2.37174 0
M  V30 3341 H 307.411 -3.02977 -0.209462 0
M  V30 3342 H 304.996 -1.49353 -0.0373832 0
M  V30 3343 H 306.878 -3.27663 -2.64982 0
M  V30 3344 H 305.553 -2.09466 -2.46791 0
M  V30 3345 H 304.46 -3.66265 -0.761636 0
M  V30 3346 H 305.793 -4.81487 -1.02134 0
M  V30 3347 N 307.445 0.0818655 -1.57387 0
M  V30 3348 C 308.408 1.08265 -2.02018 0
M  V30 3349 C 309.408 1.32183 -0.915664 0
M  V30 3350 O 310.598 1.28073 -1.18081 0
M  V30 3351 C 307.73 2.42871 -2.39221 0
M  V30 3352 H 308.923 0.698204 -2.91659 0
M  V30 3353 H 306.476 0.327303 -1.52835 0
M  V30 3354 H 307.211 2.86167 -1.52575 0
M  V30 3355 H 306.996 2.26855 -3.19811 0
M  V30 3356 H 308.486 3.14826 -2.74362 0
M  V30 3357 N 308.923 1.53595 0.353017 0
M  V30 3358 C 309.855 1.77219 1.45348 0
M  V30 3359 C 310.868 0.65324 1.49119 0
M  V30 3360 O 312.057 0.929775 1.52373 0
M  V30 3361 C 309.157 1.84841 2.84055 0
M  V30 3362 C 308.33 3.14649 3.03833 0
M  V30 3363 C 307.389 3.13351 4.22727 0
M  V30 3364 O 306.415 3.87107 4.17297 0
M  V30 3365 N 307.617 2.35052 5.30783 0
M  V30 3366 H 310.382 2.72178 1.25457 0
M  V30 3367 H 307.943 1.52528 0.542833 0
M  V30 3368 H 309.935 1.81435 3.61751 0
M  V30 3369 H 308.505 0.971114 2.97133 0
M  V30 3370 H 307.725 3.31256 2.13689 0
M  V30 3371 H 309.013 4.00411 3.13925 0
M  V30 3372 H 308.411 1.74663 5.38061 0
M  V30 3373 H 306.968 2.37453 6.07009 0
M  V30 3374 N 310.401 -0.613514 1.45168 0
M  V30 3375 C 311.364 -1.7065 1.53007 0
M  V30 3376 C 312.364 -1.5548 0.410184 0
M  V30 3377 O 313.554 -1.60656 0.673455 0
M  V30 3378 C 310.686 -3.09875 1.42093 0
M  V30 3379 H 311.879 -1.65068 2.50385 0
M  V30 3380 H 309.432 -0.828728 1.32521 0
M  V30 3381 H 310.167 -3.21039 0.458769 0
M  V30 3382 H 309.952 -3.22293 2.23315 0
M  V30 3383 H 311.442 -3.895 1.50598 0
M  V30 3384 N 311.879 -1.3236 -0.855495 0
M  V30 3385 C 312.789 -1.23221 -1.99634 0
M  V30 3386 C 313.805 -0.145983 -1.73387 0
M  V30 3387 O 314.981 -0.366502 -1.98037 0
M  V30 3388 C 312.046 -0.954782 -3.33294 0
M  V30 3389 C 311.107 -2.12937 -3.72769 0
M  V30 3390 C 310.34 -1.86508 -5.00051 0
M  V30 3391 O 310.563 -0.807231 -5.64659 0
M  V30 3392 O 309.497 -2.72591 -5.36636 0
M  V30 3393 H 313.323 -2.19126 -2.1028 0
M  V30 3394 H 310.908 -1.12241 -0.986018 0
M  V30 3395 H 312.79 -0.816519 -4.13414 0
M  V30 3396 H 311.465 -0.0258854 -3.2369 0
M  V30 3397 H 310.372 -2.3231 -2.93228 0
M  V30 3398 H 311.705 -3.04102 -3.87018 0
M  V30 3399 N 313.357 1.07166 -1.15556 0
M  V30 3400 C 314.304 2.14417 -0.854055 0
M  V30 3401 C 315.274 1.64965 0.193806 0
M  V30 3402 O 316.459 1.90703 0.0609443 0
M  V30 3403 C 313.599 3.43304 -0.351574 0
M  V30 3404 C 312.712 4.06537 -1.46123 0
M  V30 3405 C 311.847 5.23266 -0.914677 0
M  V30 3406 C 310.886 5.78464 -2.00114 0
M  V30 3407 N 310.023 6.86521 -1.47083 0
M  V30 3408 H 314.863 2.39548 -1.77259 0
M  V30 3409 H 312.4 1.17543 -0.884425 0
M  V30 3410 H 314.358 4.17179 -0.0419409 0
M  V30 3411 H 312.988 3.18419 0.530037 0
M  V30 3412 H 312.04 3.30297 -1.88701 0
M  V30 3413 H 313.352 4.43567 -2.28144 0
M  V30 3414 H 312.506 6.04131 -0.557698 0
M  V30 3415 H 311.245 4.87658 -0.0636583 0
M  V30 3416 H 310.25 4.96243 -2.36692 0
M  V30 3417 H 311.475 6.16126 -2.85597 0
M  V30 3418 H 309.421 6.52849 -0.642198 0
M  V30 3419 H 309.338 7.22446 -2.22729 0
M  V30 3420 H 310.606 7.71087 -1.14215 0
M  V30 3421 N 314.835 0.952656 1.25548 0
M  V30 3422 C 316.065 0.622592 1.96996 0
M  V30 3423 C 316.473 -0.809112 1.71026 0
M  V30 3424 O 315.816 -1.55258 0.981861 0
M  V30 3425 C 315.878 0.798946 3.5051 0
M  V30 3426 C 315.542 2.20744 4.00151 0
M  V30 3427 C 316.539 3.18394 4.11001 0
M  V30 3428 C 314.224 2.5311 4.33867 0
M  V30 3429 C 316.218 4.46504 4.54877 0
M  V30 3430 C 313.905 3.8145 4.7743 0
M  V30 3431 C 314.903 4.77959 4.87897 0
M  V30 3432 O 314.591 6.04012 5.30494 0
M  V30 3433 H 314.323 0.232503 0.634758 0
M  V30 3434 H 316.877 1.2789 1.60728 0
M  V30 3435 H 315.107 0.0854903 3.86605 0
M  V30 3436 H 316.796 0.47023 4.03167 0
M  V30 3437 H 317.562 2.94715 3.85186 0
M  V30 3438 H 313.441 1.78719 4.24948 0
M  V30 3439 H 316.985 5.21835 4.62962 0
M  V30 3440 H 312.882 4.04936 5.0269 0
M  V30 3441 H 313.65 6.0736 5.48685 0
M  V30 3442 N 316.313 -1.40141 0.720998 0
M  V30 3443 C 317.538 -2.05618 0.271258 0
M  V30 3444 C 317.963 -1.53978 -1.08039 0
M  V30 3445 O 317.321 -0.677463 -1.68167 0
M  V30 3446 C 317.369 -3.59609 0.267197 0
M  V30 3447 O 316.473 -4.05526 -0.749814 0
M  V30 3448 H 315.814 -0.651904 0.126162 0
M  V30 3449 H 318.344 -1.79439 0.982997 0
M  V30 3450 H 318.354 -4.0786 0.106744 0
M  V30 3451 H 317.029 -3.96559 1.25354 0
M  V30 3452 H 315.606 -3.68722 -0.556644 0
M  V30 3453 N 317.792 -0.46758 -1.50504 0
M  V30 3454 C 318.724 0.364655 -2.26281 0
M  V30 3455 C 319.737 0.960151 -1.31472 0
M  V30 3456 O 320.926 0.849153 -1.57008 0
M  V30 3457 C 318.026 1.52509 -3.02645 0
M  V30 3458 C 317.199 1.04302 -4.24782 0
M  V30 3459 C 316.258 2.07709 -4.8347 0
M  V30 3460 O 315.284 1.65913 -5.44483 0
M  V30 3461 N 316.486 3.40485 -4.70159 0
M  V30 3462 H 319.251 -0.28495 -2.98342 0
M  V30 3463 H 316.812 -0.298163 -1.59131 0
M  V30 3464 H 318.804 2.21371 -3.38787 0
M  V30 3465 H 317.374 2.07945 -2.33404 0
M  V30 3466 H 316.594 0.180393 -3.93787 0
M  V30 3467 H 317.882 0.698798 -5.03978 0
M  V30 3468 H 317.28 3.77155 -4.21629 0
M  V30 3469 H 315.837 4.05156 -5.1058 0
M  V30 3470 N 319.27 1.56325 -0.20005 0
M  V30 3471 C 320.217 2.1932 0.718833 0
M  V30 3472 C 321.187 1.14198 1.20615 0
M  V30 3473 O 322.372 1.42469 1.26914 0
M  V30 3474 C 319.512 2.86041 1.93066 0
M  V30 3475 C 318.625 4.05702 1.48425 0
M  V30 3476 C 317.76 4.60266 2.65196 0
M  V30 3477 C 316.799 5.72273 2.17185 0
M  V30 3478 N 315.936 6.21221 3.27152 0
M  V30 3479 H 320.776 2.97486 0.17489 0
M  V30 3480 H 318.313 1.46911 0.0745794 0
M  V30 3481 H 320.271 3.22897 2.64184 0
M  V30 3482 H 318.901 2.1043 2.44783 0
M  V30 3483 H 317.953 3.74475 0.668755 0
M  V30 3484 H 319.265 4.86699 1.09204 0
M  V30 3485 H 318.419 4.99453 3.4443 0
M  V30 3486 H 317.158 3.78386 3.07693 0
M  V30 3487 H 316.163 5.3261 1.36407 0
M  V30 3488 H 317.388 6.55974 1.75713 0
M  V30 3489 H 315.334 5.42263 3.69171 0
M  V30 3490 H 315.251 6.97284 2.92116 0
M  V30 3491 H 316.519 6.65063 4.06585 0
M  V30 3492 N 320.748 -0.0735177 1.57428 0
M  V30 3493 C 321.658 -1.10547 2.06922 0
M  V30 3494 C 322.674 -1.42506 0.998402 0
M  V30 3495 O 323.85 -1.52717 1.31299 0
M  V30 3496 C 320.915 -2.40019 2.50184 0
M  V30 3497 C 319.976 -2.15046 3.71556 0
M  V30 3498 C 319.209 -3.38345 4.12745 0
M  V30 3499 O 319.432 -4.47399 3.53822 0
M  V30 3500 O 318.366 -3.2666 5.05546 0
M  V30 3501 H 322.192 -0.715013 2.95163 0
M  V30 3502 H 319.777 -0.287531 1.46607 0
M  V30 3503 H 321.659 -3.16218 2.78539 0
M  V30 3504 H 320.334 -2.78447 1.65072 0
M  V30 3505 H 319.241 -1.36558 3.48285 0
M  V30 3506 H 320.574 -1.81499 4.57514 0
M  V30 3507 N 322.226 -1.5378 -0.344866 0
M  V30 3508 C 323.503 -1.61589 -1.10219 0
M  V30 3509 C 323.883 -0.436316 -2.06542 0
M  V30 3510 O 323.231 0.571543 -2.21237 0
M  V30 3511 C 323.441 -2.97602 -1.82301 0
M  V30 3512 C 324.789 -3.5291 -2.36093 0
M  V30 3513 O 325.813 -2.99768 -1.924 0
M  V30 3514 O 324.672 -4.45859 -3.16026 0
M  V30 3515 H 321.766 -0.653522 -0.506792 0
M  V30 3516 H 324.312 -1.66126 -0.346465 0
M  V30 3517 H 323.084 -3.74893 -1.12121 0
M  V30 3518 H 322.707 -2.9665 -2.64735 0
M  V30 3519 N 323.704 0.605807 -1.45491 0
M  V30 3520 C 325.12 0.926751 -1.29936 0
M  V30 3521 C 325.32 1.99896 -0.253706 0
M  V30 3522 O 324.376 2.50038 0.351737 0
M  V30 3523 C 325.689 1.36599 -2.67883 0
M  V30 3524 C 327.237 1.4801 -2.75793 0
M  V30 3525 C 327.712 1.95309 -4.14268 0
M  V30 3526 N 329.203 2.0254 -4.16571 0
M  V30 3527 C 329.938 2.40363 -5.20589 0
M  V30 3528 N 329.434 2.77143 -6.34952 0
M  V30 3529 N 331.227 2.40718 -5.07948 0
M  V30 3530 H 323.378 -0.102862 -2.12151 0
M  V30 3531 H 325.641 0.016639 -0.947854 0
M  V30 3532 H 325.347 0.652306 -3.45598 0
M  V30 3533 H 325.221 2.33215 -2.96463 0
M  V30 3534 H 327.608 2.1847 -1.98381 0
M  V30 3535 H 327.689 0.497041 -2.50925 0
M  V30 3536 H 327.333 1.25436 -4.92167 0
M  V30 3537 H 327.263 2.94532 -4.3653 0
M  V30 3538 H 329.754 1.76699 -3.34045 0
M  V30 3539 H 330.067 3.0489 -7.10114 0
M  V30 3540 H 328.412 2.74834 -6.3835 0
M  V30 3541 H 331.603 2.11392 -4.1765 0
M  V30 3542 H 331.776 2.69869 -5.89131 0
M  V30 3543 N 325.182 1.32811 0.848464 0
M  V30 3544 C 326.412 1.26556 1.63301 0
M  V30 3545 C 326.82 -0.1676 1.88456 0
M  V30 3546 O 326.163 -1.11713 1.45828 0
M  V30 3547 C 326.225 1.96202 3.01239 0
M  V30 3548 C 325.889 3.45528 2.99098 0
M  V30 3549 C 326.886 4.40903 2.75501 0
M  V30 3550 C 324.571 3.87558 3.19537 0
M  V30 3551 C 326.565 5.76282 2.72356 0
M  V30 3552 C 324.252 5.23044 3.16019 0
M  V30 3553 C 325.25 6.17217 2.92458 0
M  V30 3554 O 324.938 7.50223 2.88825 0
M  V30 3555 H 324.67 0.43771 0.515156 0
M  V30 3556 H 327.224 1.7559 1.0657 0
M  V30 3557 H 325.454 1.41746 3.59785 0
M  V30 3558 H 327.143 1.83573 3.62016 0
M  V30 3559 H 327.909 4.09756 2.5947 0
M  V30 3560 H 323.788 3.14674 3.369 0
M  V30 3561 H 327.332 6.4976 2.53886 0
M  V30 3562 H 323.229 5.53818 3.31596 0
M  V30 3563 H 323.997 7.59657 3.04735 0
M  V30 3564 N 326.66 -1.06551 1.16123 0
M  V30 3565 C 327.57 -2.17484 0.879662 0
M  V30 3566 C 328.586 -1.73377 -0.147104 0
M  V30 3567 O 329.762 -2.01379 0.0289128 0
M  V30 3568 C 326.827 -3.44591 0.381829 0
M  V30 3569 C 325.888 -4.0322 1.4735 0
M  V30 3570 C 325.121 -5.24261 0.999324 0
M  V30 3571 O 325.344 -5.70198 -0.151957 0
M  V30 3572 O 324.278 -5.74775 1.78653 0
M  V30 3573 H 328.104 -2.44075 1.80724 0
M  V30 3574 H 325.689 -1.16042 0.940992 0
M  V30 3575 H 327.571 -4.21254 0.111053 0
M  V30 3576 H 326.246 -3.19532 -0.51777 0
M  V30 3577 H 325.153 -3.2806 1.79798 0
M  V30 3578 H 326.486 -4.32568 2.34831 0
M  V30 3579 N 328.138 -0.959301 -1.25041 0
M  V30 3580 C 329.048 -0.489994 -2.29426 0
M  V30 3581 C 330.064 0.444944 -1.68215 0
M  V30 3582 O 331.24 0.320046 -1.98841 0
M  V30 3583 C 328.305 0.220309 -3.45999 0
M  V30 3584 C 327.366 -0.753418 -4.22637 0
M  V30 3585 C 326.599 -0.076918 -5.33645 0
M  V30 3586 O 326.822 1.13649 -5.58963 0
M  V30 3587 O 325.756 -0.764824 -5.97021 0
M  V30 3588 H 329.582 -1.35755 -2.71669 0
M  V30 3589 H 327.167 -0.725961 -1.30576 0
M  V30 3590 H 329.049 0.619677 -4.16819 0
M  V30 3591 H 327.724 1.06296 -3.0575 0
M  V30 3592 H 326.631 -1.20308 -3.54227 0
M  V30 3593 H 327.964 -1.56423 -4.66683 0
M  V30 3594 N 329.616 1.39756 -0.72842 0
M  V30 3595 C 330.526 2.34444 -0.0855374 0
M  V30 3596 C 331.542 1.57976 0.729356 0
M  V30 3597 O 332.718 1.90301 0.659346 0
M  V30 3598 C 329.783 3.36965 0.815798 0
M  V30 3599 C 328.844 4.29299 -0.0105996 0
M  V30 3600 C 328.077 5.26923 0.84781 0
M  V30 3601 O 328.3 5.30859 2.08673 0
M  V30 3602 O 327.234 6.01249 0.279969 0
M  V30 3603 H 331.06 2.91065 -0.866892 0
M  V30 3604 H 328.645 1.4117 -0.48902 0
M  V30 3605 H 330.527 3.99804 1.33171 0
M  V30 3606 H 329.202 2.82739 1.57608 0
M  V30 3607 H 328.109 3.69703 -0.571877 0
M  V30 3608 H 329.442 4.86712 -0.73295 0
M  V30 3609 N 331.094 0.475555 1.50254 0
M  V30 3610 C 332.343 -0.0795996 2.01543 0
M  V30 3611 C 332.656 -1.4038 1.36209 0
M  V30 3612 O 333.862 -2.04415 1.7868 0
M  V30 3613 C 332.318 -0.192363 3.59386 0
M  V30 3614 C 331.926 1.12367 4.33679 0
M  V30 3615 C 333.67 -0.699238 4.18701 0
M  V30 3616 C 331.577 0.974453 5.83317 0
M  V30 3617 H 330.507 -0.0335228 0.753254 0
M  V30 3618 H 333.158 0.611128 1.73025 0
M  V30 3619 H 331.54 -0.946974 3.84511 0
M  V30 3620 H 332.714 1.88958 4.20276 0
M  V30 3621 H 331.029 1.562 3.85993 0
M  V30 3622 H 333.626 -0.827978 5.28251 0
M  V30 3623 H 333.969 -1.69171 3.80377 0
M  V30 3624 H 334.502 -0.00188807 3.978 0
M  V30 3625 H 331.241 1.94042 6.26121 0
M  V30 3626 H 330.761 0.248998 5.99283 0
M  V30 3627 H 332.44 0.642867 6.43798 0
M  V30 3628 N 332.573 -1.56217 0.208337 0
M  V30 3629 C 333.52 -2.19699 -0.707192 0
M  V30 3630 C 334.49 -1.14836 -1.20008 0
M  V30 3631 O 335.675 -1.4314 -1.26157 0
M  V30 3632 C 332.815 -2.87061 -1.91546 0
M  V30 3633 C 331.928 -4.06483 -1.46271 0
M  V30 3634 C 331.063 -4.61665 -2.62752 0
M  V30 3635 C 330.102 -5.73417 -2.14147 0
M  V30 3636 N 329.239 -6.22948 -3.23853 0
M  V30 3637 H 334.079 -2.97575 -0.159111 0
M  V30 3638 H 331.616 -1.46948 -0.0667874 0
M  V30 3639 H 333.574 -3.24294 -2.62468 0
M  V30 3640 H 332.204 -2.11725 -2.43664 0
M  V30 3641 H 331.256 -3.74825 -0.648886 0
M  V30 3642 H 332.568 -4.87271 -1.06622 0
M  V30 3643 H 331.722 -5.01272 -3.41776 0
M  V30 3644 H 330.461 -3.80013 -3.05682 0
M  V30 3645 H 329.466 -5.33326 -1.33581 0
M  V30 3646 H 330.691 -6.56897 -1.72232 0
M  V30 3647 H 328.637 -5.44213 -3.6629 0
M  V30 3648 H 328.554 -6.98823 -2.88414 0
M  V30 3649 H 329.822 -6.6721 -4.03052 0
M  V30 3650 N 334.051 0.0651679 -1.57465 0
M  V30 3651 C 335.297 0.764193 -1.87851 0
M  V30 3652 C 335.63 1.76889 -0.801495 0
M  V30 3653 O 334.905 1.93594 0.187528 0
M  V30 3654 C 335.188 1.46625 -3.28897 0
M  V30 3655 C 335.041 0.477515 -4.47258 0
M  V30 3656 C 336.36 2.4095 -3.68281 0
M  V30 3657 H 333.479 0.276351 -0.683227 0
M  V30 3658 H 336.121 0.0272868 -1.8998 0
M  V30 3659 H 334.271 2.09438 -3.27212 0
M  V30 3660 H 335.943 -0.145922 -4.61069 0
M  V30 3661 H 334.186 -0.206576 -4.33308 0
M  V30 3662 H 334.857 1.0065 -5.42746 0
M  V30 3663 H 337.333 1.88209 -3.71102 0
M  V30 3664 H 336.209 2.87072 -4.67847 0
M  V30 3665 H 336.47 3.26049 -2.98571 0
M  V30 3666 N 335.529 1.53961 0.336706 0
M  V30 3667 C 336.459 1.85417 1.41925 0
M  V30 3668 C 337.44 0.709856 1.5458 0
M  V30 3669 O 338.625 0.962396 1.68676 0
M  V30 3670 C 335.755 2.06985 2.78881 0
M  V30 3671 C 334.709 3.22813 2.81026 0
M  V30 3672 C 334.035 3.29727 4.20932 0
M  V30 3673 C 335.335 4.60767 2.45949 0
M  V30 3674 H 337.029 2.76079 1.15848 0
M  V30 3675 H 334.575 1.32839 0.555859 0
M  V30 3676 H 336.528 2.27575 3.54665 0
M  V30 3677 H 335.252 1.13061 3.06406 0
M  V30 3678 H 333.911 3.0209 2.07695 0
M  V30 3679 H 333.559 2.33385 4.45579 0
M  V30 3680 H 333.259 4.07566 4.23277 0
M  V30 3681 H 334.783 3.52536 4.98549 0
M  V30 3682 H 336.197 4.81325 3.11446 0
M  V30 3683 H 334.594 5.4106 2.59566 0
M  V30 3684 H 335.664 4.6391 1.41122 0
M  V30 3685 N 337.007 -0.598083 1.45811 0
M  V30 3686 C 338.232 -1.3881 1.54099 0
M  V30 3687 C 338.657 -1.8726 0.177578 0
M  V30 3688 O 338.015 -1.6069 -0.839541 0
M  V30 3689 C 338.063 -2.56217 2.53743 0
M  V30 3690 O 337.167 -3.5716 2.06182 0
M  V30 3691 H 336.508 -0.414024 0.519115 0
M  V30 3692 H 339.038 -0.726971 1.91249 0
M  V30 3693 H 339.048 -3.03337 2.72856 0
M  V30 3694 H 337.723 -2.20303 3.5276 0
M  V30 3695 H 336.3 -3.16624 1.96987 0
M  V30 3696 N 338.485 -1.33259 -0.841409 0
M  V30 3697 C 339.762 -1.15174 -1.58096 0
M  V30 3698 C 340.142 0.282858 -2.09196 0
M  V30 3699 O 339.49 1.28151 -1.89181 0
M  V30 3700 C 339.7 -2.1907 -2.71679 0
M  V30 3701 C 341.048 -2.53093 -3.40924 0
M  V30 3702 O 342.072 -2.17717 -2.81918 0
M  V30 3703 O 340.931 -3.1379 -4.47435 0
M  V30 3704 H 338.025 -0.445303 -0.696875 0
M  V30 3705 H 340.571 -1.44833 -0.884385 0
M  V30 3706 H 339.343 -3.15443 -2.31541 0
M  V30 3707 H 338.966 -1.90481 -3.49002 0
M  V30 3708 N 339.963 1.05934 -1.16686 0
M  V30 3709 C 340.91 2.13499 -0.876748 0
M  V30 3710 C 341.88 1.65162 0.176299 0
M  V30 3711 O 343.065 1.90757 0.0407143 0
M  V30 3712 C 340.205 3.42912 -0.387967 0
M  V30 3713 C 339.318 4.04964 -1.50426 0
M  V30 3714 C 338.453 5.22266 -0.970125 0
M  V30 3715 C 337.492 5.76309 -2.06238 0
M  V30 3716 N 336.629 6.84922 -1.54356 0
M  V30 3717 H 341.469 2.37654 -1.7979 0
M  V30 3718 H 339.006 1.16598 -0.896843 0
M  V30 3719 H 340.964 4.17111 -0.086186 0
M  V30 3720 H 339.594 3.18963 0.496235 0
M  V30 3721 H 338.646 3.28277 -1.92193 0
M  V30 3722 H 339.958 4.41122 -2.32836 0
M  V30 3723 H 339.112 6.03506 -0.621743 0
M  V30 3724 H 337.851 4.87564 -0.115377 0
M  V30 3725 H 336.856 4.93704 -2.41942 0
M  V30 3726 H 338.081 6.13062 -2.92115 0
M  V30 3727 H 336.027 6.52131 -0.711406 0
M  V30 3728 H 335.944 7.20043 -2.30379 0
M  V30 3729 H 337.212 7.69832 -1.22387 0
M  V30 3730 N 341.441 0.965919 1.2453 0
M  V30 3731 C 342.371 0.513476 2.27784 0
M  V30 3732 C 343.352 -0.445974 1.6415 0
M  V30 3733 O 344.537 -0.342485 1.91156 0
M  V30 3734 C 341.667 -0.198839 3.4673 0
M  V30 3735 C 340.621 0.676456 4.2262 0
M  V30 3736 C 339.947 -0.167248 5.34438 0
M  V30 3737 C 341.247 1.96017 4.84123 0
M  V30 3738 H 342.941 1.3765 2.65881 0
M  V30 3739 H 340.487 0.663321 1.27813 0
M  V30 3740 H 342.44 -0.526567 4.18097 0
M  V30 3741 H 341.164 -1.0962 3.07654 0
M  V30 3742 H 339.823 0.98743 3.53052 0
M  V30 3743 H 339.471 -1.0647 4.91603 0
M  V30 3744 H 339.171 0.415181 5.86131 0
M  V30 3745 H 340.695 -0.489688 6.08633 0
M  V30 3746 H 342.109 1.69814 5.47573 0
M  V30 3747 H 340.506 2.48918 5.4604 0
M  V30 3748 H 341.576 2.65622 4.05676 0
M  V30 3749 N 342.919 -1.39368 0.735821 0
M  V30 3750 C 343.866 -2.30599 0.0963825 0
M  V30 3751 C 344.836 -1.49257 -0.728794 0
M  V30 3752 O 346.021 -1.77941 -0.688588 0
M  V30 3753 C 343.161 -3.35596 -0.804305 0
M  V30 3754 C 342.274 -4.31987 0.0335761 0
M  V30 3755 C 341.409 -5.24053 -0.868461 0
M  V30 3756 C 340.448 -6.12095 -0.0258776 0
M  V30 3757 N 339.585 -6.96514 -0.883893 0
M  V30 3758 H 344.425 -2.8471 0.880002 0
M  V30 3759 H 341.962 -1.40188 0.445619 0
M  V30 3760 H 343.92 -3.95062 -1.34096 0
M  V30 3761 H 342.55 -2.82938 -1.55389 0
M  V30 3762 H 341.602 -3.74133 0.68766 0
M  V30 3763 H 342.914 -4.94074 0.685036 0
M  V30 3764 H 342.068 -5.88549 -1.47293 0
M  V30 3765 H 340.807 -4.62289 -1.5537 0
M  V30 3766 H 339.812 -5.4661 0.591386 0
M  V30 3767 H 341.037 -6.75923 0.656156 0
M  V30 3768 H 338.983 -6.37318 -1.55441 0
M  V30 3769 H 338.9 -7.55448 -0.288931 0
M  V30 3770 H 340.168 -7.65439 -1.4739 0
M  V30 3771 N 344.397 -0.483516 -1.5 0
M  V30 3772 C 345.307 0.309172 -2.32554 0
M  V30 3773 C 346.323 0.984159 -1.43493 0
M  V30 3774 O 347.499 0.969399 -1.76535 0
M  V30 3775 C 344.564 1.36979 -3.18493 0
M  V30 3776 C 343.625 0.710095 -4.23387 0
M  V30 3777 C 342.858 1.72018 -5.05218 0
M  V30 3778 O 343.081 2.94813 -4.88305 0
M  V30 3779 O 342.015 1.28515 -5.8802 0
M  V30 3780 H 345.841 -0.366064 -3.01486 0
M  V30 3781 H 343.426 -0.24514 -1.47375 0
M  V30 3782 H 345.308 1.98385 -3.71781 0
M  V30 3783 H 343.983 2.02828 -2.52275 0
M  V30 3784 H 342.89 0.0567539 -3.74057 0
M  V30 3785 H 344.223 0.0943557 -4.9211 0
M  V30 3786 N 345.875 1.56104 -0.216619 0
M  V30 3787 C 346.838 2.18819 0.681962 0
M  V30 3788 C 347.838 1.14866 1.12528 0
M  V30 3789 O 349.028 1.40128 1.03488 0
M  V30 3790 C 346.16 2.80756 1.93362 0
M  V30 3791 H 347.353 2.99595 0.135254 0
M  V30 3792 H 344.906 1.56265 0.0330003 0
M  V30 3793 H 345.641 2.03837 2.52232 0
M  V30 3794 H 345.426 3.56876 1.62426 0
M  V30 3795 H 346.916 3.28844 2.57393 0
M  V30 3796 N 347.353 -0.0568162 1.57498 0
M  V30 3797 C 348.263 -1.08346 2.08083 0
M  V30 3798 C 349.279 -1.41439 1.01346 0
M  V30 3799 O 350.455 -1.51316 1.32912 0
M  V30 3800 C 347.52 -2.37352 2.52715 0
M  V30 3801 C 346.581 -2.11093 3.73816 0
M  V30 3802 C 345.814 -3.33949 4.1631 0
M  V30 3803 O 346.037 -4.43622 3.58547 0
M  V30 3804 O 344.971 -3.21279 5.08983 0
M  V30 3805 H 348.797 -0.683667 2.95905 0
M  V30 3806 H 346.382 -0.271965 1.46904 0
M  V30 3807 H 348.264 -3.13246 2.81877 0
M  V30 3808 H 346.939 -2.76681 1.68016 0
M  V30 3809 H 345.846 -1.32856 3.49714 0
M  V30 3810 H 347.179 -1.76637 4.59413 0
M  V30 3811 N 348.832 -1.54138 -0.328536 0
M  V30 3812 C 350.06 -1.76062 -1.08673 0
M  V30 3813 C 350.475 -0.506852 -1.81869 0
M  V30 3814 O 349.832 0.522223 -1.74869 0
M  V30 3815 C 349.883 -2.95054 -2.08866 0
M  V30 3816 O 349.604 -4.15583 -1.38644 0
M  V30 3817 C 351.105 -3.2915 -2.96943 0
M  V30 3818 H 348.325 -0.587889 -0.323461 0
M  V30 3819 H 350.869 -2.0101 -0.376175 0
M  V30 3820 H 349.024 -2.72394 -2.75464 0
M  V30 3821 H 349.438 -4.82481 -2.05699 0
M  V30 3822 H 350.912 -4.15723 -3.63151 0
M  V30 3823 H 351.389 -2.461 -3.63774 0
M  V30 3824 H 351.995 -3.53871 -2.35914 0
M  V30 3825 N 350.31 0.590341 -1.46126 0
M  V30 3826 C 351.726 0.912917 -1.30912 0
M  V30 3827 C 351.926 1.99616 -0.274893 0
M  V30 3828 O 350.982 2.50397 0.325197 0
M  V30 3829 C 352.295 1.3375 -2.69317 0
M  V30 3830 C 353.843 1.45077 -2.77348 0
M  V30 3831 C 354.318 1.90904 -4.16317 0
M  V30 3832 N 355.809 1.9811 -4.18696 0
M  V30 3833 C 356.544 2.34828 -5.23109 0
M  V30 3834 N 356.04 2.70393 -6.37856 0
M  V30 3835 N 357.833 2.35317 -5.10473 0
M  V30 3836 H 349.984 -0.125358 -2.1203 0
M  V30 3837 H 352.247 0.00658481 -0.947977 0
M  V30 3838 H 351.953 0.615614 -3.4627 0
M  V30 3839 H 351.827 2.30058 -2.9892 0
M  V30 3840 H 354.214 2.16353 -2.00687 0
M  V30 3841 H 354.295 0.4704 -2.51438 0
M  V30 3842 H 353.939 1.20209 -4.9347 0
M  V30 3843 H 353.869 2.89886 -4.39629 0
M  V30 3844 H 356.36 1.73146 -3.359 0
M  V30 3845 H 356.673 2.97341 -7.13308 0
M  V30 3846 H 355.018 2.68048 -6.41229 0
M  V30 3847 H 358.209 2.0695 -4.19868 0
M  V30 3848 H 358.382 2.63605 -5.9196 0
M  V30 3849 N 351.788 1.33704 0.83433 0
M  V30 3850 C 352.751 1.24244 1.92603 0
M  V30 3851 C 353.751 0.160383 1.59998 0
M  V30 3852 O 354.941 0.412228 1.69252 0
M  V30 3853 C 352.073 0.91555 3.28376 0
M  V30 3854 H 353.266 2.21287 2.02416 0
M  V30 3855 H 350.819 1.17827 1.02696 0
M  V30 3856 H 351.554 -0.0521886 3.24258 0
M  V30 3857 H 351.339 1.69811 3.53422 0
M  V30 3858 H 352.829 0.874231 4.08347 0
M  V30 3859 N 353.266 -1.05314 1.17247 0
M  V30 3860 C 354.176 -2.16538 0.90268 0
M  V30 3861 C 355.192 -1.73523 -0.128707 0
M  V30 3862 O 356.368 -2.01337 0.0502701 0
M  V30 3863 C 353.433 -3.44167 0.418356 0
M  V30 3864 C 352.494 -4.01635 1.51618 0
M  V30 3865 C 351.727 -5.23171 1.05487 0
M  V30 3866 O 351.95 -5.70327 -0.0914715 0
M  V30 3867 O 350.884 -5.72848 1.8474 0
M  V30 3868 H 354.71 -2.42145 1.83302 0
M  V30 3869 H 352.295 -1.15037 0.953246 0
M  V30 3870 H 354.177 -4.21112 0.155726 0
M  V30 3871 H 352.852 -3.20063 -0.48385 0
M  V30 3872 H 351.759 -3.26135 1.83268 0
M  V30 3873 H 353.092 -4.30053 2.39405 0
M  V30 3874 N 354.744 -0.972509 -1.24016 0
M  V30 3875 C 355.991 -0.637034 -1.92219 0
M  V30 3876 C 356.319 0.828418 -1.75976 0
M  V30 3877 O 355.574 1.61206 -1.10955 0
M  V30 3878 C 355.873 -0.963694 -3.44162 0
M  V30 3879 C 355.539 -2.41807 -3.80579 0
M  V30 3880 C 354.201 -2.81556 -3.9023 0
M  V30 3881 C 356.553 -3.36172 -3.98293 0
M  V30 3882 C 353.881 -4.14702 -4.15017 0
M  V30 3883 C 356.233 -4.68952 -4.24578 0
M  V30 3884 C 354.897 -5.08472 -4.32449 0
M  V30 3885 H 354.167 -0.233107 -0.703379 0
M  V30 3886 H 356.814 -1.2249 -1.47202 0
M  V30 3887 H 355.119 -0.29365 -3.90698 0
M  V30 3888 H 356.816 -0.682449 -3.9515 0
M  V30 3889 H 353.406 -2.09988 -3.73635 0
M  V30 3890 H 357.59 -3.06644 -3.90234 0
M  V30 3891 H 352.846 -4.4494 -4.19331 0
M  V30 3892 H 357.02 -5.42037 -4.37229 0
M  V30 3893 H 354.647 -6.11665 -4.51409 0
M  V30 3894 N 356.222 1.38976 -0.743202 0
M  V30 3895 C 357.185 2.28901 -0.117014 0
M  V30 3896 C 358.185 1.46698 0.658503 0
M  V30 3897 O 359.375 1.67274 0.486305 0
M  V30 3898 C 356.507 3.30309 0.84315 0
M  V30 3899 H 357.7 2.8578 -0.909373 0
M  V30 3900 H 355.253 1.47761 -0.509547 0
M  V30 3901 H 355.988 2.785 1.66157 0
M  V30 3902 H 355.773 3.91029 0.289594 0
M  V30 3903 H 357.263 3.97577 1.2776 0
M  V30 3904 N 357.7 0.491464 1.49741 0
M  V30 3905 C 358.61 -0.296835 2.32715 0
M  V30 3906 C 359.626 -0.976536 1.44013 0
M  V30 3907 O 360.802 -0.960023 1.77047 0
M  V30 3908 C 357.867 -1.35288 3.19215 0
M  V30 3909 C 356.928 -0.687632 4.23757 0
M  V30 3910 C 356.161 -1.69336 5.06123 0
M  V30 3911 O 356.384 -2.92219 4.89861 0
M  V30 3912 O 355.318 -1.25394 5.88693 0
M  V30 3913 H 359.144 0.382048 3.01287 0
M  V30 3914 H 356.729 0.252953 1.47243 0
M  V30 3915 H 358.611 -1.96411 3.72828 0
M  V30 3916 H 357.286 -2.01487 2.53347 0
M  V30 3917 H 356.193 -0.0369159 3.74082 0
M  V30 3918 H 357.526 -0.0682566 4.92153 0
M  V30 3919 N 359.178 -1.55987 0.224894 0
M  V30 3920 C 360.594 -1.59066 -0.130426 0
M  V30 3921 C 360.794 -1.24176 -1.5869 0
M  V30 3922 O 359.85 -0.978592 -2.32766 0
M  V30 3923 C 361.163 -3.00042 0.198883 0
M  V30 3924 C 362.711 -3.1268 0.141391 0
M  V30 3925 C 363.186 -4.55839 0.444422 0
M  V30 3926 N 364.677 -4.6152 0.394115 0
M  V30 3927 C 365.412 -5.70231 0.602038 0
M  V30 3928 N 364.908 -6.87291 0.871914 0
M  V30 3929 N 366.701 -5.59555 0.534245 0
M  V30 3930 H 358.852 -1.76941 1.17497 0
M  V30 3931 H 361.115 -0.822604 0.471197 0
M  V30 3932 H 360.821 -3.30234 1.2099 0
M  V30 3933 H 360.695 -3.74075 -0.484535 0
M  V30 3934 H 363.082 -2.82283 -0.860265 0
M  V30 3935 H 363.163 -2.40969 0.858335 0
M  V30 3936 H 362.807 -4.86954 1.44353 0
M  V30 3937 H 362.737 -5.2578 -0.293752 0
M  V30 3938 H 365.228 -3.77405 0.193356 0
M  V30 3939 H 365.541 -7.66058 1.01858 0
M  V30 3940 H 363.886 -6.89028 0.909145 0
M  V30 3941 H 367.077 -4.6698 0.323612 0
M  V30 3942 H 367.25 -6.44211 0.699693 0
M  V30 3943 N 360.656 0.0484629 -1.57525 0
M  V30 3944 C 361.881 0.759177 -1.93006 0
M  V30 3945 C 362.306 1.69125 -0.823317 0
M  V30 3946 O 361.664 1.79931 0.222364 0
M  V30 3947 C 361.712 1.50899 -3.27509 0
M  V30 3948 O 360.816 2.62112 -3.18388 0
M  V30 3949 H 360.157 0.205564 -0.631379 0
M  V30 3950 H 362.687 0.00972959 -2.04598 0
M  V30 3951 H 362.697 1.88317 -3.6194 0
M  V30 3952 H 361.372 0.825269 -4.0763 0
M  V30 3953 H 359.949 2.27379 -2.95556 0
M  V30 3954 N 362.134 1.5431 0.320358 0
M  V30 3955 C 363.38 1.72924 1.05949 0
M  V30 3956 C 363.713 0.503185 1.87568 0
M  V30 3957 O 362.988 -0.499839 1.87968 0
M  V30 3958 C 363.271 3.00676 1.98156 0
M  V30 3959 C 363.124 4.3354 1.19845 0
M  V30 3960 C 364.443 3.24198 2.9763 0
M  V30 3961 H 361.562 0.629195 0.383774 0
M  V30 3962 H 364.204 1.87008 0.335854 0
M  V30 3963 H 362.354 2.888 2.59859 0
M  V30 3964 H 364.026 4.57305 0.605773 0
M  V30 3965 H 362.269 4.309 0.500784 0
M  V30 3966 H 362.94 5.19156 1.87567 0
M  V30 3967 H 365.416 3.35557 2.4605 0
M  V30 3968 H 364.292 4.14938 3.59329 0
M  V30 3969 H 364.553 2.41577 3.7026 0
M  V30 3970 N 363.613 -0.582584 1.46437 0
M  V30 3971 C 364.841 -1.36682 1.55324 0
M  V30 3972 C 365.256 -1.87796 0.194409 0
M  V30 3973 O 364.613 -1.63623 -0.808318 0
M  V30 3974 C 364.664 -2.55426 2.55812 0
M  V30 3975 O 364.385 -2.0643 3.86417 0
M  V30 3976 C 365.886 -3.47976 2.74641 0
M  V30 3977 H 363.106 -0.417545 0.525259 0
M  V30 3978 H 365.65 -0.708219 1.91845 0
M  V30 3979 H 363.805 -3.17275 2.22295 0
M  V30 3980 H 364.219 -2.83762 4.41111 0
M  V30 3981 H 365.693 -4.27775 3.48874 0
M  V30 3982 H 366.17 -3.99919 1.81553 0
M  V30 3983 H 366.776 -2.91962 3.09255 0
M  V30 3984 N 365.091 -1.34144 -0.827227 0
M  V30 3985 C 366.038 -1.25364 -1.93785 0
M  V30 3986 C 367.008 -0.129774 -1.65592 0
M  V30 3987 O 368.193 -0.310024 -1.88264 0
M  V30 3988 C 365.333 -1.01064 -3.2997 0
M  V30 3989 C 364.446 -2.22185 -3.70484 0
M  V30 3990 C 363.581 -1.91203 -4.95595 0
M  V30 3991 C 362.62 -3.08491 -5.28677 0
M  V30 3992 N 361.757 -2.77421 -6.44967 0
M  V30 3993 H 366.597 -2.20347 -2.00627 0
M  V30 3994 H 364.134 -1.09558 -0.981608 0
M  V30 3995 H 366.092 -0.850139 -4.08446 0
M  V30 3996 H 364.722 -0.0975026 -3.22653 0
M  V30 3997 H 363.774 -2.4917 -2.87434 0
M  V30 3998 H 365.086 -3.0983 -3.90905 0
M  V30 3999 H 364.24 -1.71864 -5.81848 0
M  V30 4000 H 362.979 -1.00812 -4.77167 0
M  V30 4001 H 361.984 -3.28431 -4.40923 0
M  V30 4002 H 363.209 -3.99655 -5.49047 0
M  V30 4003 H 361.155 -1.89601 -6.28003 0
M  V30 4004 H 361.072 -3.58598 -6.6554 0
M  V30 4005 H 362.34 -2.61577 -7.34301 0
M  V30 4006 N 366.569 1.04691 -1.17803 0
M  V30 4007 C 367.499 2.14494 -0.92275 0
M  V30 4008 C 368.48 1.69546 0.137179 0
M  V30 4009 O 369.665 1.94195 -0.0141108 0
M  V30 4010 C 366.795 3.44491 -0.440803 0
M  V30 4011 C 365.749 4.03031 -1.4405 0
M  V30 4012 C 365.075 5.28432 -0.81631 0
M  V30 4013 C 366.375 4.39932 -2.81527 0
M  V30 4014 H 368.069 2.36107 -1.84103 0
M  V30 4015 H 365.615 1.1347 -0.886599 0
M  V30 4016 H 367.568 4.2066 -0.249602 0
M  V30 4017 H 366.292 3.22546 0.513025 0
M  V30 4018 H 364.951 3.28937 -1.61853 0
M  V30 4019 H 364.599 5.02792 0.144511 0
M  V30 4020 H 364.299 5.68559 -1.48371 0
M  V30 4021 H 365.823 6.07284 -0.635496 0
M  V30 4022 H 367.237 5.07113 -2.67412 0
M  V30 4023 H 365.634 4.9109 -3.44892 0
M  V30 4024 H 366.704 3.50045 -3.35554 0
M  V30 4025 N 368.047 0.979072 1.23499 0
M  V30 4026 C 368.957 0.526431 2.28617 0
M  V30 4027 C 369.973 -0.418126 1.68901 0
M  V30 4028 O 371.149 -0.288372 1.99325 0
M  V30 4029 C 368.214 -0.165235 3.46306 0
M  V30 4030 C 367.275 0.82056 4.21385 0
M  V30 4031 C 366.508 0.161807 5.33455 0
M  V30 4032 O 366.731 -1.04742 5.60701 0
M  V30 4033 O 365.665 0.859708 5.95729 0
M  V30 4034 H 369.491 1.4006 2.69475 0
M  V30 4035 H 367.076 0.746643 1.29405 0
M  V30 4036 H 368.958 -0.553287 4.17752 0
M  V30 4037 H 367.633 -1.01419 3.07402 0
M  V30 4038 H 366.54 1.25929 3.52268 0
M  V30 4039 H 367.873 1.63828 4.64135 0
M  V30 4040 N 369.525 -1.3858 0.750561 0
M  V30 4041 C 370.472 -2.30483 0.120835 0
M  V30 4042 C 371.442 -1.50022 -0.712923 0
M  V30 4043 O 372.627 -1.78662 -0.669676 0
M  V30 4044 C 369.767 -3.36431 -0.768666 0
M  V30 4045 C 368.88 -4.31927 0.0793922 0
M  V30 4046 C 368.015 -5.24944 -0.81283 0
M  V30 4047 C 367.054 -6.12088 0.0390447 0
M  V30 4048 N 366.191 -6.97412 -0.809969 0
M  V30 4049 H 371.031 -2.83761 0.91015 0
M  V30 4050 H 368.568 -1.39707 0.460463 0
M  V30 4051 H 370.526 -3.96462 -1.29898 0
M  V30 4052 H 369.156 -2.8457 -1.5238 0
M  V30 4053 H 368.208 -3.73382 0.727303 0
M  V30 4054 H 369.52 -4.93319 0.737401 0
M  V30 4055 H 368.674 -5.90078 -1.41042 0
M  V30 4056 H 367.413 -4.63911 -1.50458 0
M  V30 4057 H 366.418 -5.45952 0.649328 0
M  V30 4058 H 367.643 -6.75189 0.727809 0
M  V30 4059 H 365.589 -6.38931 -1.48672 0
M  V30 4060 H 365.506 -7.55712 -0.208789 0
M  V30 4061 H 366.774 -7.66959 -1.39263 0
M  V30 4062 N 371.003 -0.499398 -1.49478 0
M  V30 4063 C 372.228 0.044722 -2.07352 0
M  V30 4064 C 372.653 1.30207 -1.35749 0
M  V30 4065 O 372.011 1.76516 -0.413732 0
M  V30 4066 C 372.059 0.283013 -3.59488 0
M  V30 4067 O 371.163 1.35804 -3.89398 0
M  V30 4068 H 370.504 -0.0255147 -0.66351 0
M  V30 4069 H 373.034 -0.698561 -1.92305 0
M  V30 4070 H 373.044 0.515007 -4.04737 0
M  V30 4071 H 371.719 -0.635636 -4.11014 0
M  V30 4072 H 370.296 1.11113 -3.55961 0
M  V30 4073 N 372.481 1.55866 -0.233164 0
M  V30 4074 C 373.73 1.97779 0.39579 0
M  V30 4075 C 374.043 1.12419 1.60066 0
M  V30 4076 O 375.249 1.44283 2.29988 0
M  V30 4077 C 373.705 3.5188 0.755556 0
M  V30 4078 C 373.313 4.45959 -0.427152 0
M  V30 4079 C 375.057 4.02479 1.34946 0
M  V30 4080 C 372.964 5.91383 -0.0443043 0
M  V30 4081 H 371.894 0.738592 0.15165 0
M  V30 4082 H 374.545 1.80486 -0.331212 0
M  V30 4083 H 372.927 3.64816 1.5403 0
M  V30 4084 H 374.101 4.44776 -1.20462 0
M  V30 4085 H 372.416 4.05765 -0.935068 0
M  V30 4086 H 375.013 5.08637 1.649 0
M  V30 4087 H 375.356 3.49014 2.26925 0
M  V30 4088 H 375.889 3.92813 0.62791 0
M  V30 4089 H 372.628 6.48857 -0.930874 0
M  V30 4090 H 372.148 5.95734 0.697238 0
M  V30 4091 H 373.827 6.45893 0.378334 0
M  V30 4092 N 373.959 -0.0401083 1.57549 0
M  V30 4093 C 375.236 -0.767917 1.79896 0
M  V30 4094 C 375.616 -1.9416 0.82856 0
M  V30 4095 O 374.964 -2.2812 -0.131671 0
M  V30 4096 C 375.174 -1.2113 3.27305 0
M  V30 4097 C 376.522 -1.63175 3.91994 0
M  V30 4098 O 377.546 -1.30616 3.31388 0
M  V30 4099 O 376.405 -2.23565 4.98679 0
M  V30 4100 H 373.499 -0.370441 0.739393 0
M  V30 4101 H 376.045 -0.017737 1.69691 0
M  V30 4102 H 374.817 -0.372937 3.89519 0
M  V30 4103 H 374.44 -2.02183 3.42356 0
M  V30 4104 N 375.437 -1.54477 -0.31217 0
M  V30 4105 C 376.714 -1.63891 -1.06767 0
M  V30 4106 C 377.094 -0.480028 -2.0557 0
M  V30 4107 O 376.442 0.524487 -2.22399 0
M  V30 4108 C 376.652 -3.01402 -1.75948 0
M  V30 4109 C 378 -3.57838 -2.28554 0
M  V30 4110 O 379.024 -3.03782 -1.85998 0
M  V30 4111 O 377.883 -4.52462 -3.06497 0
M  V30 4112 H 374.977 -0.664125 -0.492816 0
M  V30 4113 H 377.523 -1.66823 -0.311149 0
M  V30 4114 H 376.295 -3.77187 -1.04144 0
M  V30 4115 H 375.918 -3.02199 -2.58383 0
M  V30 4116 N 376.915 0.57481 -1.46744 0
M  V30 4117 C 377.845 1.69337 -1.60771 0
M  V30 4118 C 378.826 1.63825 -0.457736 0
M  V30 4119 O 380.011 1.8172 -0.684947 0
M  V30 4120 C 377.141 3.0798 -1.60517 0
M  V30 4121 C 376.095 3.28327 -2.74564 0
M  V30 4122 C 375.421 4.67578 -2.59373 0
M  V30 4123 C 376.721 3.15398 -4.16319 0
M  V30 4124 H 378.415 1.57853 -2.54407 0
M  V30 4125 H 375.961 0.75799 -1.22436 0
M  V30 4126 H 377.914 3.86061 -1.68923 0
M  V30 4127 H 376.638 3.20381 -0.634305 0
M  V30 4128 H 375.297 2.52649 -2.65639 0
M  V30 4129 H 374.945 4.76755 -1.60353 0
M  V30 4130 H 374.645 4.82144 -3.35873 0
M  V30 4131 H 376.169 5.47817 -2.69682 0
M  V30 4132 H 377.583 3.83315 -4.26313 0
M  V30 4133 H 375.98 3.41482 -4.93468 0
M  V30 4134 H 377.05 2.12372 -4.3592 0
M  V30 4135 N 378.394 1.34581 0.820102 0
M  V30 4136 C 379.304 1.28471 1.96297 0
M  V30 4137 C 380.32 0.191902 1.72939 0
M  V30 4138 O 381.496 0.418879 1.96996 0
M  V30 4139 C 378.561 1.04281 3.30645 0
M  V30 4140 C 377.622 2.22745 3.66992 0
M  V30 4141 C 376.855 1.997 4.9493 0
M  V30 4142 O 377.078 0.956656 5.6232 0
M  V30 4143 O 376.012 2.86723 5.2922 0
M  V30 4144 H 379.838 2.24624 2.04396 0
M  V30 4145 H 377.423 1.14816 0.955913 0
M  V30 4146 H 379.305 0.925841 4.11104 0
M  V30 4147 H 377.98 0.111697 3.23507 0
M  V30 4148 H 376.887 2.40003 2.86966 0
M  V30 4149 H 378.22 3.14257 3.78819 0
M  V30 4150 N 379.872 -1.04064 1.18357 0
M  V30 4151 C 381.149 -1.74252 0.888581 0
M  V30 4152 C 381.529 -2.02138 -0.60856 0
M  V30 4153 O 380.877 -1.66656 -1.56327 0
M  V30 4154 C 381.087 -3.0277 1.73584 0
M  V30 4155 C 382.435 -3.76506 1.96286 0
M  V30 4156 O 383.459 -3.12668 1.70637 0
M  V30 4157 O 382.318 -4.91243 2.39464 0
M  V30 4158 H 379.412 -0.758271 0.330082 0
M  V30 4159 H 381.958 -1.1013 1.2911 0
M  V30 4160 H 380.73 -2.78299 2.75073 0
M  V30 4161 H 380.353 -3.74631 1.33183 0
M  V30 4162 N 381.35 -0.985608 -1.22978 0
M  V30 4163 C 382.26 -0.538548 -2.28335 0
M  V30 4164 C 383.276 0.409163 -1.69121 0
M  V30 4165 O 384.452 0.277797 -1.99475 0
M  V30 4166 C 381.517 0.146867 -3.46389 0
M  V30 4167 C 380.578 -0.842896 -4.20944 0
M  V30 4168 C 379.811 -0.190095 -5.33361 0
M  V30 4169 O 380.034 1.01767 -5.61248 0
M  V30 4170 O 378.968 -0.891289 -5.95264 0
M  V30 4171 H 382.794 -1.41487 -2.68729 0
M  V30 4172 H 380.379 -0.753495 -1.29007 0
M  V30 4173 H 382.261 0.531125 -4.1804 0
M  V30 4174 H 380.936 0.997871 -3.07935 0
M  V30 4175 H 379.843 -1.27795 -3.51595 0
M  V30 4176 H 381.176 -1.66287 -4.6326 0
M  V30 4177 N 382.828 1.3818 -0.7579 0
M  V30 4178 C 383.758 2.33027 -0.148597 0
M  V30 4179 C 384.739 1.55085 0.69875 0
M  V30 4180 O 385.924 1.83384 0.639053 0
M  V30 4181 C 383.054 3.3928 0.742034 0
M  V30 4182 C 382.008 4.28 -0.00291946 0
M  V30 4183 C 381.334 5.25146 1.00625 0
M  V30 4184 C 382.634 5.08938 -1.17385 0
M  V30 4185 H 384.328 2.84231 -0.940909 0
M  V30 4186 H 381.874 1.36659 -0.453908 0
M  V30 4187 H 383.827 4.046 1.17799 0
M  V30 4188 H 382.551 2.86569 1.56671 0
M  V30 4189 H 381.21 3.64192 -0.419504 0
M  V30 4190 H 380.858 4.68721 1.8251 0
M  V30 4191 H 380.558 5.85361 0.512428 0
M  V30 4192 H 382.082 5.93342 1.44143 0
M  V30 4193 H 383.496 5.67474 -0.815224 0
M  V30 4194 H 381.893 5.7841 -1.59882 0
M  V30 4195 H 382.963 4.42424 -1.98468 0
M  V30 4196 N 384.306 0.507319 1.49211 0
M  V30 4197 C 385.536 -0.0315292 2.06576 0
M  V30 4198 C 385.944 -1.30791 1.36713 0
M  V30 4199 O 385.287 -1.78324 0.441181 0
M  V30 4200 C 385.349 -0.349104 3.57801 0
M  V30 4201 C 385.013 0.830475 4.49391 0
M  V30 4202 C 386.01 1.72271 4.90529 0
M  V30 4203 C 383.695 1.03107 4.91604 0
M  V30 4204 C 385.689 2.79964 5.72625 0
M  V30 4205 C 383.376 2.11116 5.73475 0
M  V30 4206 C 384.374 2.99379 6.1389 0
M  V30 4207 O 384.062 4.05523 6.94123 0
M  V30 4208 H 383.794 0.0201002 0.675701 0
M  V30 4209 H 386.348 0.705737 1.92895 0
M  V30 4210 H 384.578 -1.14005 3.69513 0
M  V30 4211 H 386.267 -0.827319 3.97379 0
M  V30 4212 H 387.033 1.57958 4.58557 0
M  V30 4213 H 382.912 0.353417 4.59643 0
M  V30 4214 H 386.456 3.48884 6.04091 0
M  V30 4215 H 382.353 2.25421 6.0486 0
M  V30 4216 H 383.121 4.02953 7.1244 0
M  V30 4217 N 385.784 -1.5574 0.241426 0
M  V30 4218 C 386.747 -2.19877 -0.647063 0
M  V30 4219 C 387.747 -1.16642 -1.10686 0
M  V30 4220 O 388.937 -1.41757 -1.01245 0
M  V30 4221 C 386.069 -2.83797 -1.88871 0
M  V30 4222 H 387.262 -2.99772 -0.087574 0
M  V30 4223 H 384.815 -1.56298 -0.00813574 0
M  V30 4224 H 385.55 -2.07824 -2.48957 0
M  V30 4225 H 385.335 -3.59414 -1.56728 0
M  V30 4226 H 386.825 -3.32898 -2.52129 0
M  V30 4227 N 387.262 0.0317525 -1.57568 0
M  V30 4228 C 388.194 1.06073 -2.03178 0
M  V30 4229 C 389.207 1.32627 -0.944132 0
M  V30 4230 O 390.396 1.30162 -1.22148 0
M  V30 4231 C 387.496 2.40297 -2.38978 0
M  V30 4232 C 386.669 2.33137 -3.70089 0
M  V30 4233 C 385.728 3.49787 -3.9311 0
M  V30 4234 O 384.754 3.29403 -4.64201 0
M  V30 4235 N 385.956 4.71562 -3.38541 0
M  V30 4236 H 388.721 0.672006 -2.92069 0
M  V30 4237 H 386.282 0.219745 -1.60402 0
M  V30 4238 H 388.274 3.1705 -2.51518 0
M  V30 4239 H 386.844 2.71024 -1.55771 0
M  V30 4240 H 386.064 1.415 -3.67928 0
M  V30 4241 H 387.352 2.25493 -4.56104 0
M  V30 4242 H 386.75 4.91024 -2.80912 0
M  V30 4243 H 385.307 5.45689 -3.56464 0
M  V30 4244 N 388.74 1.54641 0.303973 0
M  V30 4245 C 389.687 1.85386 1.37479 0
M  V30 4246 C 390.657 0.702528 1.50512 0
M  V30 4247 O 391.842 0.950867 1.65418 0
M  V30 4248 C 388.982 2.10413 2.73533 0
M  V30 4249 C 388.095 3.38049 2.68974 0
M  V30 4250 C 387.23 3.52934 3.97002 0
M  V30 4251 C 386.269 4.74373 3.86829 0
M  V30 4252 N 385.406 4.8608 5.06627 0
M  V30 4253 H 390.246 2.76732 1.1056 0
M  V30 4254 H 387.783 1.37034 0.534805 0
M  V30 4255 H 389.741 2.22919 3.52652 0
M  V30 4256 H 388.371 1.22338 2.98719 0
M  V30 4257 H 387.423 3.3418 1.81736 0
M  V30 4258 H 388.735 4.27288 2.57346 0
M  V30 4259 H 387.889 3.65088 4.84557 0
M  V30 4260 H 386.628 2.61824 4.1146 0
M  V30 4261 H 385.633 4.62255 2.97658 0
M  V30 4262 H 386.858 5.66888 3.73918 0
M  V30 4263 H 384.804 3.97891 5.21554 0
M  V30 4264 H 384.721 5.69315 4.9741 0
M  V30 4265 H 385.989 5.02587 5.95841 0
M  V30 4266 N 390.218 -0.567019 1.47046 0
M  V30 4267 C 391.148 -1.68482 1.61667 0
M  V30 4268 C 392.129 -1.6358 0.466418 0
M  V30 4269 O 393.314 -1.81354 0.694574 0
M  V30 4270 C 390.444 -3.07124 1.62148 0
M  V30 4271 C 389.398 -3.26867 2.76301 0
M  V30 4272 C 388.724 -4.66196 2.61849 0
M  V30 4273 C 390.024 -3.13186 4.17986 0
M  V30 4274 H 391.718 -1.56502 2.5524 0
M  V30 4275 H 389.264 -0.751486 1.22836 0
M  V30 4276 H 391.217 -3.8516 1.70968 0
M  V30 4277 H 389.941 -3.2004 0.651287 0
M  V30 4278 H 388.6 -2.51237 2.66975 0
M  V30 4279 H 388.248 -4.75898 1.62879 0
M  V30 4280 H 387.948 -4.80356 3.38425 0
M  V30 4281 H 389.472 -5.46379 2.72584 0
M  V30 4282 H 390.886 -3.81049 4.2834 0
M  V30 4283 H 389.283 -3.3886 4.95272 0
M  V30 4284 H 390.353 -2.10057 4.3704 0
M  V30 4285 N 391.696 -1.35014 -0.812953 0
M  V30 4286 C 392.643 -1.27412 -1.92444 0
M  V30 4287 C 393.613 -0.14733 -1.65445 0
M  V30 4288 O 394.798 -0.329974 -1.87925 0
M  V30 4289 C 391.938 -1.04558 -3.28879 0
M  V30 4290 C 391.051 -2.26101 -3.68106 0
M  V30 4291 C 390.186 -1.96449 -4.9354 0
M  V30 4292 C 389.225 -3.14081 -5.25376 0
M  V30 4293 N 388.362 -2.84246 -6.41988 0
M  V30 4294 H 393.202 -2.22463 -1.98278 0
M  V30 4295 H 390.739 -1.10593 -0.969933 0
M  V30 4296 H 392.697 -0.893413 -4.07522 0
M  V30 4297 H 391.327 -0.131719 -3.22531 0
M  V30 4298 H 390.379 -2.52204 -2.84775 0
M  V30 4299 H 391.691 -3.13959 -3.87597 0
M  V30 4300 H 390.845 -1.78026 -5.79993 0
M  V30 4301 H 389.584 -1.05867 -4.76071 0
M  V30 4302 H 388.589 -3.33089 -4.37415 0
M  V30 4303 H 389.814 -4.05455 -5.44778 0
M  V30 4304 H 387.76 -1.96252 -6.25956 0
M  V30 4305 H 387.677 -3.65637 -6.61699 0
M  V30 4306 H 388.945 -2.6935 -7.31485 0
M  V30 4307 N 393.175 1.03435 -1.18907 0
M  V30 4308 C 394.405 1.8012 -1.01195 0
M  V30 4309 C 394.813 1.8395 0.442613 0
M  V30 4310 O 394.156 1.27836 1.31923 0
M  V30 4311 C 394.218 3.26792 -1.49823 0
M  V30 4312 C 393.882 3.46609 -2.97844 0
M  V30 4313 C 394.879 3.37278 -3.95651 0
M  V30 4314 C 392.564 3.73001 -3.36416 0
M  V30 4315 C 394.558 3.54054 -5.30023 0
M  V30 4316 C 392.245 3.89423 -4.70949 0
M  V30 4317 C 393.243 3.79951 -5.67562 0
M  V30 4318 O 392.931 3.95895 -6.99659 0
M  V30 4319 H 392.663 0.573865 -0.357289 0
M  V30 4320 H 395.217 1.31207 -1.58031 0
M  V30 4321 H 393.447 3.76703 -0.873578 0
M  V30 4322 H 395.136 3.85055 -1.28404 0
M  V30 4323 H 395.902 3.16846 -3.67197 0
M  V30 4324 H 391.781 3.79469 -2.61772 0
M  V30 4325 H 395.325 3.46577 -6.05417 0
M  V30 4326 H 391.222 4.09351 -4.99101 0
M  V30 4327 H 391.99 4.13019 -7.06653 0
M  V30 4328 N 394.653 0.992116 1.22453 0
M  V30 4329 C 395.6 0.541731 2.24352 0
M  V30 4330 C 396.57 -0.425519 1.60557 0
M  V30 4331 O 397.755 -0.330453 1.87917 0
M  V30 4332 C 394.895 -0.138248 3.44823 0
M  V30 4333 C 394.008 0.870649 4.23136 0
M  V30 4334 C 393.143 0.164269 5.30946 0
M  V30 4335 C 392.182 1.16159 6.00977 0
M  V30 4336 N 391.319 0.483568 7.00433 0
M  V30 4337 H 396.159 1.41541 2.62241 0
M  V30 4338 H 393.696 0.709013 1.28885 0
M  V30 4339 H 395.654 -0.5494 4.13567 0
M  V30 4340 H 394.284 -0.975721 3.077 0
M  V30 4341 H 393.336 1.40013 3.53696 0
M  V30 4342 H 394.648 1.63014 4.7141 0
M  V30 4343 H 393.802 -0.303653 6.0594 0
M  V30 4344 H 392.541 -0.627733 4.83643 0
M  V30 4345 H 391.546 1.64015 5.24766 0
M  V30 4346 H 392.771 1.95445 6.50368 0
M  V30 4347 H 390.717 -0.289012 6.55363 0
M  V30 4348 H 390.634 1.18152 7.4671 0
M  V30 4349 H 391.902 0.0384219 7.79491 0
M  V30 4350 N 396.131 -1.37776 0.765217 0
M  V30 4351 C 397.094 -2.28686 0.153416 0
M  V30 4352 C 398.094 -1.47727 -0.635081 0
M  V30 4353 O 399.284 -1.68027 -0.459632 0
M  V30 4354 C 396.416 -3.31608 -0.790495 0
M  V30 4355 H 397.609 -2.84297 0.954723 0
M  V30 4356 H 395.162 -1.46932 0.53299 0
M  V30 4357 H 395.897 -2.81109 -1.61705 0
M  V30 4358 H 395.682 -3.9144 -0.227348 0
M  V30 4359 H 397.172 -3.99559 -1.21419 0
M  V30 4360 N 397.609 -0.515225 -1.4894 0
M  V30 4361 C 398.858 0.0261361 -2.01683 0
M  V30 4362 C 399.171 1.36719 -1.39883 0
M  V30 4363 O 400.377 1.99606 -1.84037 0
M  V30 4364 C 398.833 0.0970111 -3.59769 0
M  V30 4365 C 398.441 -1.23825 -4.30548 0
M  V30 4366 C 400.185 0.587981 -4.20408 0
M  V30 4367 C 398.092 -1.12877 -5.80528 0
M  V30 4368 H 397.022 0.0135398 -0.753878 0
M  V30 4369 H 399.673 -0.656787 -1.71343 0
M  V30 4370 H 398.055 0.844694 -3.86886 0
M  V30 4371 H 399.229 -2.00034 -4.15118 0
M  V30 4372 H 397.544 -1.66379 -3.81716 0
M  V30 4373 H 400.141 0.68763 -5.3026 0
M  V30 4374 H 400.484 1.59026 -3.84729 0
M  V30 4375 H 401.017 -0.103582 -3.97665 0
M  V30 4376 H 397.756 -2.10575 -6.20756 0
M  V30 4377 H 397.276 -0.407799 -5.98412 0
M  V30 4378 H 398.955 -0.813332 -6.41868 0
M  V30 4379 N 399.087 1.5561 -0.249682 0
M  V30 4380 C 400.312 2.03865 0.381305 0
M  V30 4381 C 400.737 1.12769 1.50548 0
M  V30 4382 O 400.095 0.121189 1.80895 0
M  V30 4383 C 400.143 3.50101 0.863816 0
M  V30 4384 O 399.247 3.62132 1.97318 0
M  V30 4385 H 398.588 0.658827 0.0827194 0
M  V30 4386 H 401.118 2.01105 -0.376552 0
M  V30 4387 H 401.128 3.90975 1.1663 0
M  V30 4388 H 399.803 4.1588 0.0411816 0
M  V30 4389 H 398.38 3.33155 1.67517 0
M  V30 4390 N 400.565 -0.0233959 1.57583 0
M  V30 4391 C 401.475 -1.03907 2.10334 0
M  V30 4392 C 402.491 -1.39257 1.04323 0
M  V30 4393 O 403.667 -1.48462 1.36091 0
M  V30 4394 C 400.732 -2.31938 2.57693 0
M  V30 4395 C 399.793 -2.03117 3.78209 0
M  V30 4396 C 399.026 -3.25043 4.233 0
M  V30 4397 O 399.249 -4.35916 3.67876 0
M  V30 4398 O 398.183 -3.10411 5.15683 0
M  V30 4399 H 402.009 -0.620748 2.97288 0
M  V30 4400 H 399.594 -0.240743 1.47448 0
M  V30 4401 H 401.476 -3.07196 2.88458 0
M  V30 4402 H 400.151 -2.73055 1.73847 0
M  V30 4403 H 399.058 -1.25408 3.52454 0
M  V30 4404 H 400.391 -1.66852 4.63056 0
M  V30 4405 N 402.043 -1.548 -0.295768 0
M  V30 4406 C 402.953 -1.89177 -1.38742 0
M  V30 4407 C 403.969 -0.786481 -1.55211 0
M  V30 4408 O 405.145 -1.08344 -1.69775 0
M  V30 4409 C 402.21 -2.13663 -2.73036 0
M  V30 4410 C 401.271 -3.37349 -2.65508 0
M  V30 4411 C 400.504 -3.60658 -3.93398 0
M  V30 4412 O 400.727 -2.86882 -4.93006 0
M  V30 4413 O 399.661 -4.54179 -3.94975 0
M  V30 4414 H 403.487 -2.82059 -1.12589 0
M  V30 4415 H 401.072 -1.41056 -0.492295 0
M  V30 4416 H 402.954 -2.3094 -3.52484 0
M  V30 4417 H 401.629 -1.23967 -2.99022 0
M  V30 4418 H 400.536 -3.25431 -1.84514 0
M  V30 4419 H 401.869 -4.27192 -2.44474 0
M  V30 4420 N 403.521 0.559213 -1.47345 0
M  V30 4421 C 404.451 1.67622 -1.62558 0
M  V30 4422 C 405.432 1.63331 -0.475087 0
M  V30 4423 O 406.617 1.80983 -0.704182 0
M  V30 4424 C 403.747 3.0626 -1.63774 0
M  V30 4425 C 402.701 3.25397 -2.7803 0
M  V30 4426 C 402.027 4.64801 -2.64318 0
M  V30 4427 C 403.327 3.10965 -4.19641 0
M  V30 4428 H 405.021 1.55146 -2.56067 0
M  V30 4429 H 402.567 0.744961 -1.23233 0
M  V30 4430 H 404.52 3.84247 -1.73008 0
M  V30 4431 H 403.244 3.1969 -0.66825 0
M  V30 4432 H 401.903 2.49817 -2.68304 0
M  V30 4433 H 401.551 4.75028 -1.65401 0
M  V30 4434 H 401.251 4.78555 -3.40968 0
M  V30 4435 H 402.775 5.44926 -2.75478 0
M  V30 4436 H 404.189 3.78772 -4.30354 0
M  V30 4437 H 402.586 3.36229 -4.97062 0
M  V30 4438 H 403.656 2.07736 -4.38148 0
M  V30 4439 N 404.999 1.35443 0.805782 0
M  V30 4440 C 406.276 1.19325 1.54987 0
M  V30 4441 C 406.656 -0.227294 2.09873 0
M  V30 4442 O 406.004 -1.2309 1.92512 0
M  V30 4443 C 406.214 2.26196 2.65775 0
M  V30 4444 C 407.562 2.62043 3.34094 0
M  V30 4445 O 408.586 2.25115 2.76046 0
M  V30 4446 O 407.445 3.25542 4.38958 0
M  V30 4447 H 404.539 0.463623 0.684823 0
M  V30 4448 H 407.085 1.47127 0.845674 0
M  V30 4449 H 405.857 3.21471 2.23096 0
M  V30 4450 H 405.48 1.99667 3.43829 0
M  V30 4451 N 406.477 -1.02803 1.19454 0
M  V30 4452 C 407.427 -2.0945 0.900827 0
M  V30 4453 C 408.411 -1.60335 -0.134715 0
M  V30 4454 O 409.603 -1.76857 0.0710924 0
M  V30 4455 C 406.732 -3.4044 0.442229 0
M  V30 4456 C 405.818 -3.96286 1.51056 0
M  V30 4457 N 406.209 -4.25785 2.73021 0
M  V30 4458 C 404.507 -4.24307 1.37404 0
M  V30 4459 C 405.208 -4.70654 3.41848 0
M  V30 4460 N 404.184 -4.72238 2.69243 0
M  V30 4461 H 407.986 -2.3015 1.82779 0
M  V30 4462 H 405.5 -1.20672 1.08683 0
M  V30 4463 H 407.497 -4.16354 0.21326 0
M  V30 4464 H 406.157 -3.21159 -0.478238 0
M  V30 4465 H 407.168 -4.15041 3.09776 0
M  V30 4466 H 403.845 -4.14285 0.517103 0
M  V30 4467 H 405.235 -5.02392 4.46152 0
M  V30 4468 N 407.956 -0.998596 -1.21925 0
M  V30 4469 C 408.919 -0.558679 -2.22287 0
M  V30 4470 C 409.919 0.361525 -1.56683 0
M  V30 4471 O 411.109 0.152695 -1.73529 0
M  V30 4472 C 408.241 0.18661 -3.40389 0
M  V30 4473 H 409.434 -1.4463 -2.62721 0
M  V30 4474 H 406.987 -0.786413 -1.35075 0
M  V30 4475 H 407.722 1.08996 -3.05435 0
M  V30 4476 H 407.507 -0.474188 -3.89222 0
M  V30 4477 H 408.997 0.482367 -4.14805 0
M  V30 4478 N 409.434 1.37368 -0.772513 0
M  V30 4479 C 410.364 2.32856 -0.173304 0
M  V30 4480 C 411.345 1.55818 0.682262 0
M  V30 4481 O 412.53 1.84052 0.619566 0
M  V30 4482 C 409.66 3.40048 0.706007 0
M  V30 4483 C 408.614 4.27973 -0.0483144 0
M  V30 4484 C 407.94 5.26184 0.950491 0
M  V30 4485 C 409.24 5.07665 -1.22776 0
M  V30 4486 H 410.934 2.83217 -0.971002 0
M  V30 4487 H 408.48 1.3617 -0.468377 0
M  V30 4488 H 410.433 4.05827 1.13501 0
M  V30 4489 H 409.157 2.88214 1.53623 0
M  V30 4490 H 407.816 3.63726 -0.458107 0
M  V30 4491 H 407.464 4.7063 1.77529 0
M  V30 4492 H 407.164 5.85872 0.450314 0
M  V30 4493 H 408.688 5.94838 1.37842 0
M  V30 4494 H 410.102 5.66578 -0.875366 0
M  V30 4495 H 408.499 5.76681 -1.66007 0
M  V30 4496 H 409.569 4.40294 -2.03149 0
M  V30 4497 N 410.912 0.523116 1.48665 0
M  V30 4498 C 411.86 -0.256859 2.31177 0
M  V30 4499 C 412.854 -0.94199 1.40794 0
M  V30 4500 O 414.06 -0.867157 1.57735 0
M  V30 4501 H 410.435 -0.1017 0.745091 0
M  V30 4502 H 412.406 0.458739 2.94853 0
M  V30 4503 C 411.155 -1.29503 3.22683 0
M  V30 4504 H 410.478 -0.777248 3.92172 0
M  V30 4505 H 411.918 -1.81233 3.83315 0
M  V30 4506 C 410.377 -2.32501 2.43813 0
M  V30 4507 O 410.907 -3.3881 2.15803 0
M  V30 4508 N 409.113 -2.05538 2.05432 0
M  V30 4509 H 408.66 -1.19104 2.28412 0
M  V30 4510 H 408.618 -2.74676 1.52973 0
M  V30 4511 N 412.39 -1.55475 0.257931 0
M  V30 4512 C 413.667 -1.91155 -0.414629 0
M  V30 4513 C 414.047 -1.18008 -1.75035 0
M  V30 4514 O 413.395 -0.301193 -2.26506 0
M  V30 4515 C 413.605 -3.44283 -0.571859 0
M  V30 4516 C 414.953 -4.15744 -0.862678 0
M  V30 4517 O 415.977 -3.50083 -0.657314 0
M  V30 4518 O 414.836 -5.31909 -1.2544 0
M  V30 4519 H 411.93 -0.796016 -0.22425 0
M  V30 4520 H 414.476 -1.66976 0.302814 0
M  V30 4521 H 413.248 -3.89558 0.368844 0
M  V30 4522 H 412.871 -3.7436 -1.33943 0
M  V30 4523 N 413.868 0.0150385 -1.57593 0
M  V30 4524 C 414.801 1.04475 -2.0288 0
M  V30 4525 C 415.779 1.3436 -0.915764 0
M  V30 4526 O 416.963 1.46779 -1.18271 0
M  V30 4527 C 414.09 2.37608 -2.41371 0
M  V30 4528 C 413.136 2.23487 -3.63257 0
M  V30 4529 S 413.969 1.57505 -5.11813 0
M  V30 4530 C 415.125 2.921 -5.5356 0
M  V30 4531 H 415.358 0.65907 -2.89903 0
M  V30 4532 H 412.891 0.225452 -1.52745 0
M  V30 4533 H 414.849 3.14165 -2.64217 0
M  V30 4534 H 413.51 2.7332 -1.54775 0
M  V30 4535 H 412.703 3.21802 -3.87891 0
M  V30 4536 H 412.305 1.55074 -3.40335 0
M  V30 4537 H 414.597 3.88419 -5.55101 0
M  V30 4538 H 415.54 2.72184 -6.53698 0
M  V30 4539 H 415.948 2.95318 -4.8109 0
M  V30 4540 N 415.346 1.54954 0.287554 0
M  V30 4541 C 416.574 1.78881 1.03967 0
M  V30 4542 C 416.989 0.554894 1.80462 0
M  V30 4543 O 416.346 -0.475676 1.76192 0
M  V30 4544 C 416.397 3.00488 2.0097 0
M  V30 4545 O 416.118 4.19113 1.27577 0
M  V30 4546 C 417.619 3.36907 2.88112 0
M  V30 4547 H 414.839 0.596259 0.307761 0
M  V30 4548 H 417.383 2.01937 0.322749 0
M  V30 4549 H 415.538 2.79601 2.68145 0
M  V30 4550 H 415.952 4.87765 1.92835 0
M  V30 4551 H 417.426 4.25205 3.52001 0
M  V30 4552 H 417.903 2.55659 3.57121 0
M  V30 4553 H 418.509 3.60001 2.26449 0
M  V30 4554 N 416.824 -0.551391 1.4764 0
M  V30 4555 C 418.049 -1.33837 1.58437 0
M  V30 4556 C 418.474 -1.866 0.237063 0
M  V30 4557 O 417.832 -1.6328 -0.787994 0
M  V30 4558 C 417.88 -2.48014 2.61766 0
M  V30 4559 O 416.984 -3.50419 2.1744 0
M  V30 4560 H 416.325 -0.397299 0.532024 0
M  V30 4561 H 418.855 -0.665759 1.93465 0
M  V30 4562 H 418.865 -2.94503 2.82369 0
M  V30 4563 H 417.54 -2.08969 3.5959 0
M  V30 4564 H 416.117 -3.10196 2.06961 0
M  V30 4565 N 418.302 -1.35869 -0.798587 0
M  V30 4566 C 419.551 -1.28921 -1.5512 0
M  V30 4567 C 419.864 0.13208 -1.95154 0
M  V30 4568 O 421.07 0.323879 -2.69561 0
M  V30 4569 C 419.526 -2.26141 -2.79979 0
M  V30 4570 C 419.134 -3.73658 -2.47151 0
M  V30 4571 C 420.878 -2.28152 -3.57976 0
M  V30 4572 C 418.785 -4.62679 -3.6835 0
M  V30 4573 H 417.715 -0.479031 -0.582276 0
M  V30 4574 H 420.366 -1.61179 -0.877125 0
M  V30 4575 H 418.748 -1.86865 -3.49138 0
M  V30 4576 H 419.922 -4.21616 -1.85947 0
M  V30 4577 H 418.237 -3.74333 -1.82383 0
M  V30 4578 H 420.834 -2.91875 -4.4801 0
M  V30 4579 H 421.177 -1.28748 -3.95891 0
M  V30 4580 H 421.71 -2.65998 -2.95787 0
M  V30 4581 H 418.449 -5.63111 -3.35538 0
M  V30 4582 H 417.969 -4.19442 -4.28752 0
M  V30 4583 H 419.648 -4.78498 -4.35487 0
M  V30 4584 O 419.819 0.937816 -1.31481 0
M  V30 4585 H 420.51 1.56832 -1.13682 0
M  V30 END ATOM
M  V30 BEGIN BOND
M  V30 END BOND
M  V30 END CTAB
M  END
$$$$
