drugbank_target|P09488 Glutathione S-transferase Mu 1 (DB00143; DB00608; DB01834; DB02165; DB02458; DB03314; DB04187)
 OpenBabel12092119403D

  0  0  0     0  0            999 V3000
M  V30 BEGIN CTAB
M  V30 COUNTS 3616 3665 0 0 0
M  V30 BEGIN ATOM
M  V30 1 H -0.908 1.98254 -0.117106 0
M  V30 2 N 0 1.576 0 0
M  V30 3 C 0.933 2.03868 1.02534 0
M  V30 4 C 1.911 0.928543 1.3348 0
M  V30 5 O 3.095 1.19667 1.45644 0
M  V30 6 C 0.222 2.43627 2.35294 0
M  V30 7 C -0.732 3.65373 2.2001 0
M  V30 8 S 0.101 5.13292 1.52614 0
M  V30 9 C 1.257 5.56322 2.86805 0
M  V30 10 H 1.49 2.90518 0.631377 0
M  V30 11 H -0.977 1.52953 0.210867 0
M  V30 12 H 0.981 2.67203 3.11629 0
M  V30 13 H -0.358 1.57376 2.7183 0
M  V30 14 H -1.165 3.90944 3.18086 0
M  V30 15 H -1.563 3.418 1.51819 0
M  V30 16 H 0.729 5.58782 3.83104 0
M  V30 17 H 1.672 6.56266 2.65933 0
M  V30 18 H 2.08 4.83886 2.90714 0
M  V30 19 N 1.4781 -0.272755 1.55222 0
M  V30 20 C 2.8891 -0.84378 1.66545 0
M  V30 21 C 3.2401 -1.87035 0.592641 0
M  V30 22 O 2.3651 -2.14761 -0.265818 0
M  V30 23 C 2.9601 -1.53723 3.01918 0
M  V30 24 C 1.5191 -2.05628 3.15268 0
M  V30 25 C 0.6661 -0.898424 2.62343 0
M  V30 26 H 3.6171 -0.0490998 1.58624 0
M  V30 27 H 3.6381 -2.40421 2.94921 0
M  V30 28 H 3.1501 -0.78983 3.79978 0
M  V30 29 H 1.2511 -2.83329 2.41983 0
M  V30 30 H 1.3641 -2.27142 4.21833 0
M  V30 31 H -0.2719 -1.29186 2.19506 0
M  V30 32 H 0.5111 -0.164528 3.42906 0
M  V30 33 N 2.9562 -1.48159 -0.537278 0
M  V30 34 C 3.8892 -1.567 -1.65893 0
M  V30 35 C 4.8672 -0.41787 -1.57139 0
M  V30 36 O 6.0512 -0.628461 -1.77715 0
M  V30 37 C 3.1782 -1.48818 -3.04255 0
M  V30 38 C 2.2242 -2.68482 -3.31391 0
M  V30 39 S 3.0572 -4.30516 -3.1846 0
M  V30 40 C 4.2132 -4.2522 -4.59281 0
M  V30 41 H 4.4462 -2.5159 -1.58397 0
M  V30 42 H 1.9792 -1.36602 -0.719672 0
M  V30 43 H 3.9372 -1.44958 -3.84054 0
M  V30 44 H 2.5982 -0.552777 -3.09198 0
M  V30 45 H 1.7912 -2.59085 -4.32309 0
M  V30 46 H 1.3932 -2.69567 -2.59248 0
M  V30 47 H 3.6852 -3.94703 -5.5065 0
M  V30 48 H 4.6282 -5.26292 -4.73732 0
M  V30 49 H 5.0362 -3.55791 -4.38261 0
M  V30 50 N 4.4343 0.785586 -1.36625 0
M  V30 51 C 5.6833 1.53883 -1.30396 0
M  V30 52 C 5.9963 1.95271 0.113452 0
M  V30 53 O 7.2023 2.69858 0.298142 0
M  V30 54 C 5.6583 2.77808 -2.28802 0
M  V30 55 C 5.2663 2.43574 -3.75999 0
M  V30 56 C 7.0103 3.55783 -2.31558 0
M  V30 57 C 4.9173 3.63919 -4.66173 0
M  V30 58 H 3.8473 0.577678 -0.484566 0
M  V30 59 H 6.4983 0.861705 -1.62009 0
M  V30 60 H 4.8803 3.47339 -1.90188 0
M  V30 61 H 6.0543 1.81916 -4.23371 0
M  V30 62 H 4.3693 1.78803 -3.76056 0
M  V30 63 H 6.9663 4.45205 -2.96137 0
M  V30 64 H 7.3093 3.94644 -1.3252 0
M  V30 65 H 7.8423 2.93235 -2.68809 0
M  V30 66 H 4.5813 3.3015 -5.66287 0
M  V30 67 H 4.1013 4.2473 -4.23515 0
M  V30 68 H 5.7803 4.30901 -4.82632 0
M  V30 69 N 5.9124 1.20967 1.01018 0
M  V30 70 C 6.8424 0.988272 2.11555 0
M  V30 71 C 7.8234 -0.0849778 1.69888 0
M  V30 72 O 9.0084 0.0738202 1.9406 0
M  V30 73 C 6.1384 0.546528 3.42973 0
M  V30 74 C 5.0924 1.56375 3.9841 0
M  V30 75 C 4.4184 0.97842 5.25672 0
M  V30 76 C 5.7184 2.94922 4.31066 0
M  V30 77 H 7.4124 1.91276 2.30334 0
M  V30 78 H 4.9584 0.921073 1.1069 0
M  V30 79 H 6.9114 0.378839 4.19694 0
M  V30 80 H 5.6354 -0.413598 3.23971 0
M  V30 81 H 4.2944 1.71891 3.23804 0
M  V30 82 H 3.9424 0.0101688 5.02999 0
M  V30 83 H 3.6424 1.65784 5.63728 0
M  V30 84 H 5.1664 0.821939 6.05043 0
M  V30 85 H 6.5804 2.8288 4.9865 0
M  V30 86 H 4.9774 3.5983 4.80253 0
M  V30 87 H 6.0474 3.4616 3.39561 0
M  V30 88 N 7.3905 -1.2043 1.01659 0
M  V30 89 C 8.6385 -1.89423 0.704522 0
M  V30 90 C 8.9595 -1.79231 -0.768197 0
M  V30 91 O 8.2295 -1.1947 -1.55254 0
M  V30 92 H 6.8095 -0.701178 0.257602 0
M  V30 93 H 9.4715 -1.4626 1.28818 0
M  V30 94 H 8.5675 -2.96052 0.987916 0
M  V30 95 N 8.8686 -0.792821 -1.36206 0
M  V30 96 C 10.0986 -0.378275 -2.03107 0
M  V30 97 C 10.5066 1.01119 -1.59911 0
M  V30 98 O 9.8496 1.66052 -0.785658 0
M  V30 99 C 9.9116 -0.366535 -3.57627 0
M  V30 100 C 9.5756 -1.70416 -4.24037 0
M  V30 101 C 10.5726 -2.6602 -4.46687 0
M  V30 102 C 8.2576 -1.98439 -4.6144 0
M  V30 103 C 10.2516 -3.8784 -5.05825 0
M  V30 104 C 7.9386 -3.20525 -5.20295 0
M  V30 105 C 8.9366 -4.15044 -5.42427 0
M  V30 106 O 8.6246 -5.34978 -6.00045 0
M  V30 107 H 8.3566 -0.153543 -0.658332 0
M  V30 108 H 10.9106 -1.07383 -1.75094 0
M  V30 109 H 9.1406 0.385539 -3.84773 0
M  V30 110 H 10.8296 0.0238088 -4.05893 0
M  V30 111 H 11.5956 -2.45658 -4.18183 0
M  V30 112 H 7.4746 -1.25686 -4.43536 0
M  V30 113 H 11.0186 -4.61628 -5.23015 0
M  V30 114 H 6.9156 -3.40764 -5.48225 0
M  V30 115 H 7.6836 -5.36088 -6.18508 0
M  V30 116 N 10.3467 1.47872 -0.545128 0
M  V30 117 C 11.5927 2.03385 -0.0247951 0
M  V30 118 C 11.9477 1.41325 1.30556 0
M  V30 119 O 11.2407 0.5552 1.8338 0
M  V30 120 C 11.4347 3.57131 0.13867 0
M  V30 121 C 11.2637 4.34097 -1.17429 0
M  V30 122 C 10.0337 4.74458 -1.73831 0
M  V30 123 C 12.2317 4.6998 -2.08861 0
M  V30 124 N 10.2137 5.3602 -2.99258 0
M  V30 125 C 11.5847 5.31719 -3.18866 0
M  V30 126 C 13.6397 4.5191 -2.09003 0
M  V30 127 C 12.3427 5.77295 -4.29096 0
M  V30 128 C 14.3687 4.98477 -3.18237 0
M  V30 129 C 13.7307 5.60253 -4.26961 0
M  V30 130 H 9.8297 0.780339 -0.050943 0
M  V30 131 H 12.4137 1.80507 -0.729753 0
M  V30 132 H 10.5847 3.79802 0.812733 0
M  V30 133 H 12.3167 3.99282 0.659976 0
M  V30 134 H 9.0717 4.56037 -1.2778 0
M  V30 135 H 9.4957 5.71355 -3.63157 0
M  V30 136 H 14.1377 4.03516 -1.26234 0
M  V30 137 H 11.8557 6.24687 -5.12633 0
M  V30 138 H 15.4417 4.86274 -3.1942 0
M  V30 139 H 14.3217 5.95631 -5.10091 0
M  V30 140 N 11.8248 0.280983 1.55075 0
M  V30 141 C 13.1018 -0.386207 1.91749 0
M  V30 142 C 13.4818 -1.73264 1.20594 0
M  V30 143 O 12.8298 -2.26034 0.334784 0
M  V30 144 C 13.0398 -0.520687 3.45094 0
M  V30 145 C 14.3878 -0.800865 4.16979 0
M  V30 146 O 15.4118 -0.605271 3.5102 0
M  V30 147 O 14.2708 -1.1753 5.33712 0
M  V30 148 H 11.3648 -0.212408 0.799257 0
M  V30 149 H 13.9108 0.327568 1.66509 0
M  V30 150 H 12.6828 0.426633 3.88967 0
M  V30 151 H 12.3058 -1.2837 3.76307 0
M  V30 152 N 13.3029 -1.57598 0.00835791 0
M  V30 153 C 14.5519 -1.90107 -0.673968 0
M  V30 154 C 14.8649 -0.884275 -1.7447 0
M  V30 155 O 16.0709 -1.09987 -2.48224 0
M  V30 156 C 14.5269 -3.37497 -1.24995 0
M  V30 157 C 14.1349 -4.47491 -0.2136 0
M  V30 158 C 15.8789 -3.79104 -1.90999 0
M  V30 159 C 13.7859 -5.85963 -0.80005 0
M  V30 160 H 12.7159 -0.709393 -0.255495 0
M  V30 161 H 15.3669 -1.83365 0.0702693 0
M  V30 162 H 13.7489 -3.39102 -2.04513 0
M  V30 163 H 14.9229 -4.57414 0.557596 0
M  V30 164 H 13.2379 -4.14956 0.346474 0
M  V30 165 H 15.8349 -4.79901 -2.35795 0
M  V30 166 H 16.1779 -3.1306 -2.74407 0
M  V30 167 H 16.7109 -3.79833 -1.18203 0
M  V30 168 H 13.4499 -6.555 -0.00456708 0
M  V30 169 H 12.9699 -5.79687 -1.54021 0
M  V30 170 H 14.6489 -6.33884 -1.29615 0
M  V30 171 N 14.781 0.264519 -1.55364 0
M  V30 172 C 16.197 0.61215 -1.47394 0
M  V30 173 C 16.397 1.89134 -0.695018 0
M  V30 174 O 15.453 2.51563 -0.217275 0
M  V30 175 C 16.766 0.731235 -2.91674 0
M  V30 176 C 18.314 0.82473 -3.01939 0
M  V30 177 C 18.789 0.975522 -4.4749 0
M  V30 178 N 20.28 1.04083 -4.51354 0
M  V30 179 C 21.015 1.17646 -5.61201 0
M  V30 180 N 20.511 1.27874 -6.80896 0
M  V30 181 N 22.304 1.20823 -5.48961 0
M  V30 182 H 14.455 -0.575456 -2.04456 0
M  V30 183 H 16.718 -0.196099 -0.927496 0
M  V30 184 H 16.424 -0.138392 -3.51428 0
M  V30 185 H 16.298 1.60883 -3.41169 0
M  V30 186 H 18.685 1.68482 -2.42276 0
M  V30 187 H 18.766 -0.0776479 -2.55682 0
M  V30 188 H 18.41 0.120058 -5.07758 0
M  V30 189 H 18.34 1.89268 -4.91412 0
M  V30 190 H 20.831 0.973846 -3.65136 0
M  V30 191 H 21.144 1.38081 -7.60364 0
M  V30 192 H 19.489 1.24863 -6.83692 0
M  V30 193 H 22.68 1.12469 -4.54388 0
M  V30 194 H 22.853 1.31049 -6.3461 0
M  V30 195 N 16.2591 1.48442 0.529413 0
M  V30 196 C 17.5071 1.56179 1.28267 0
M  V30 197 C 17.8281 0.237721 1.93546 0
M  V30 198 O 17.0981 -0.740779 1.81354 0
M  V30 199 H 15.6781 0.575367 0.476405 0
M  V30 200 H 18.3401 1.84909 0.61602 0
M  V30 201 H 17.4361 2.34312 2.06165 0
M  V30 202 N 17.7372 -0.778329 1.37039 0
M  V30 203 C 18.6672 -1.90546 1.34962 0
M  V30 204 C 19.6482 -1.68681 0.219274 0
M  V30 205 O 20.8332 -1.89634 0.418624 0
M  V30 206 C 17.9632 -3.27734 1.14925 0
M  V30 207 C 16.9172 -3.64147 2.24902 0
M  V30 208 C 16.2432 -4.99806 1.89996 0
M  V30 209 C 17.5432 -3.71579 3.67051 0
M  V30 210 H 19.2372 -1.92541 2.29277 0
M  V30 211 H 16.7832 -0.924948 1.10366 0
M  V30 212 H 18.7362 -4.06215 1.12104 0
M  V30 213 H 17.4602 -3.26154 0.170631 0
M  V30 214 H 16.1192 -2.8797 2.26868 0
M  V30 215 H 15.7672 -4.94759 0.906796 0
M  V30 216 H 15.4672 -5.25139 2.63634 0
M  V30 217 H 16.9912 -5.80694 1.88749 0
M  V30 218 H 18.4052 -4.40227 3.67251 0
M  V30 219 H 16.8022 -4.08405 4.39688 0
M  V30 220 H 17.8722 -2.72404 4.01154 0
M  V30 221 N 19.2153 -1.21501 -1.00376 0
M  V30 222 C 20.1783 -0.976927 -2.07337 0
M  V30 223 C 21.1783 0.0525322 -1.60714 0
M  V30 224 O 22.3683 -0.184869 -1.73216 0
M  V30 225 C 19.5003 -0.473423 -3.37597 0
M  V30 226 H 20.6933 -1.92587 -2.29892 0
M  V30 227 H 18.2463 -1.03217 -1.17371 0
M  V30 228 H 18.9813 0.480379 -3.20722 0
M  V30 229 H 18.7663 -1.216 -3.72768 0
M  V30 230 H 20.2563 -0.32675 -4.1632 0
M  V30 231 N 20.6934 1.19889 -1.02296 0
M  V30 232 C 21.6434 2.20777 -0.56934 0
M  V30 233 C 22.6274 1.56379 0.378741 0
M  V30 234 O 23.8194 1.75859 0.200673 0
M  V30 235 C 20.9484 3.43196 0.0845077 0
M  V30 236 C 20.0344 4.14749 -0.88566 0
M  V30 237 N 20.4254 4.62584 -2.04573 0
M  V30 238 C 18.7234 4.40347 -0.707835 0
M  V30 239 C 19.4244 5.17466 -2.65714 0
M  V30 240 N 18.4004 5.0791 -1.93723 0
M  V30 241 H 22.2024 2.55434 -1.45365 0
M  V30 242 H 19.7164 1.35897 -0.88915 0
M  V30 243 H 21.7134 4.14707 0.427067 0
M  V30 244 H 20.3734 3.10042 0.964574 0
M  V30 245 H 21.3844 4.57597 -2.4254 0
M  V30 246 H 18.0614 4.17317 0.12364 0
M  V30 247 H 19.4514 5.64808 -3.63925 0
M  V30 248 N 22.1715 0.800033 1.35784 0
M  V30 249 C 23.1345 0.211565 2.28221 0
M  V30 250 C 24.1345 -0.59728 1.49296 0
M  V30 251 O 25.3245 -0.416721 1.69142 0
M  V30 252 C 22.4565 -0.705846 3.33513 0
M  V30 253 H 23.6495 1.02677 2.81776 0
M  V30 254 H 21.2025 0.570211 1.45528 0
M  V30 255 H 21.9375 -1.54498 2.85133 0
M  V30 256 H 21.7225 -0.127655 3.91892 0
M  V30 257 H 23.2125 -1.11211 4.02519 0
M  V30 258 N 23.6496 -1.47581 0.552962 0
M  V30 259 C 24.8986 -2.01684 0.0251995 0
M  V30 260 C 25.2116 -1.43317 -1.33115 0
M  V30 261 O 26.4176 -1.89057 -1.94858 0
M  V30 262 C 24.8736 -3.599 -0.00542052 0
M  V30 263 C 24.4816 -4.27257 1.34742 0
M  V30 264 C 26.2256 -4.21768 -0.4808 0
M  V30 265 C 24.1326 -5.77467 1.27614 0
M  V30 266 H 23.0626 -0.753979 0.00565033 0
M  V30 267 H 25.7136 -1.69616 0.70018 0
M  V30 268 H 24.0956 -3.88911 -0.745961 0
M  V30 269 H 25.2696 -4.09893 2.10534 0
M  V30 270 H 23.5846 -3.77358 1.76039 0
M  V30 271 H 26.1816 -5.31838 -0.55246 0
M  V30 272 H 26.5246 -3.88651 -1.49184 0
M  V30 273 H 27.0576 -3.97273 0.204752 0
M  V30 274 H 23.7966 -6.15196 2.26304 0
M  V30 275 H 23.3166 -5.9718 0.55996 0
M  V30 276 H 24.9956 -6.3959 0.976421 0
M  V30 277 N 25.1277 -0.289203 -1.54924 0
M  V30 278 C 26.5437 0.0645403 -1.59469 0
M  V30 279 C 26.7437 1.53419 -1.30632 0
M  V30 280 O 25.7997 2.2852 -1.074 0
M  V30 281 C 27.1127 -0.32278 -2.98963 0
M  V30 282 C 28.6607 -0.270564 -3.11828 0
M  V30 283 C 29.1357 -0.632532 -4.53611 0
M  V30 284 N 30.6267 -0.584617 -4.59496 0
M  V30 285 C 31.3617 -0.837314 -5.67254 0
M  V30 286 N 30.8577 -1.15536 -6.83098 0
M  V30 287 N 32.6507 -0.765166 -5.56868 0
M  V30 288 H 24.8017 -1.24714 -1.71931 0
M  V30 289 H 27.0647 -0.504809 -0.802416 0
M  V30 290 H 26.7707 -1.34541 -3.24948 0
M  V30 291 H 26.6447 0.32944 -3.75759 0
M  V30 292 H 29.0317 0.742805 -2.85598 0
M  V30 293 H 29.1127 -0.957242 -2.37214 0
M  V30 294 H 28.7567 -1.64365 -4.80569 0
M  V30 295 H 28.6867 0.07609 -5.26545 0
M  V30 296 H 31.1777 -0.349248 -3.76283 0
M  V30 297 H 31.4907 -1.33447 -7.61191 0
M  V30 298 H 29.8357 -1.19328 -6.84679 0
M  V30 299 H 33.0267 -0.516432 -4.65243 0
M  V30 300 H 33.1997 -0.965477 -6.40767 0
M  V30 301 N 26.6058 1.57591 -0.0167156 0
M  V30 302 C 27.5358 2.12496 0.967858 0
M  V30 303 C 28.5168 1.03807 1.34752 0
M  V30 304 O 29.7018 1.31577 1.42833 0
M  V30 305 C 26.8318 2.64194 2.25431 0
M  V30 306 C 25.7858 3.77559 2.01576 0
M  V30 307 C 25.1118 4.15636 3.36379 0
M  V30 308 C 26.4118 5.04151 1.36489 0
M  V30 309 H 28.1058 2.95013 0.510643 0
M  V30 310 H 25.6518 1.41915 0.244181 0
M  V30 311 H 27.6048 3.01236 2.94678 0
M  V30 312 H 26.3288 1.78821 2.73296 0
M  V30 313 H 24.9878 3.40937 1.34751 0
M  V30 314 H 24.6358 3.27263 3.81979 0
M  V30 315 H 24.3358 4.92022 3.21229 0
M  V30 316 H 25.8598 4.5525 4.06915 0
M  V30 317 H 27.2738 5.38857 1.95718 0
M  V30 318 H 25.6708 5.85453 1.31776 0
M  V30 319 H 26.7408 4.83733 0.336219 0
M  V30 320 N 28.0839 -0.256276 1.55502 0
M  V30 321 C 29.0139 -1.32102 1.92539 0
M  V30 322 C 29.9949 -1.50684 0.789194 0
M  V30 323 O 31.1799 -1.63449 1.04872 0
M  V30 324 C 28.3099 -2.67752 2.21192 0
M  V30 325 C 27.2639 -2.63878 3.36975 0
M  V30 326 C 26.5899 -4.03236 3.51147 0
M  V30 327 C 27.8899 -2.21682 4.72921 0
M  V30 328 H 29.5839 -1.01351 2.81724 0
M  V30 329 H 27.1299 -0.486105 1.35547 0
M  V30 330 H 29.0829 -3.42365 2.45691 0
M  V30 331 H 27.8069 -3.0012 1.28824 0
M  V30 332 H 26.4659 -1.91722 3.12471 0
M  V30 333 H 26.1139 -4.32854 2.56216 0
M  V30 334 H 25.8139 -4.01535 4.29003 0
M  V30 335 H 27.3379 -4.79563 3.77957 0
M  V30 336 H 28.7519 -2.86023 4.96854 0
M  V30 337 H 27.1489 -2.3111 5.53812 0
M  V30 338 H 28.2189 -1.16833 4.70615 0
M  V30 339 N 29.562 -1.4872 -0.521534 0
M  V30 340 C 30.492 -1.66771 -1.63431 0
M  V30 341 C 31.473 -0.516499 -1.62069 0
M  V30 342 O 32.658 -0.750013 -1.79132 0
M  V30 343 C 29.788 -1.71515 -3.01993 0
M  V30 344 C 28.742 -2.86222 -3.18216 0
M  V30 345 C 28.068 -2.76061 -4.57924 0
M  V30 346 C 29.368 -4.27419 -3.00184 0
M  V30 347 H 31.062 -2.59932 -1.48579 0
M  V30 348 H 28.608 -1.25089 -0.713358 0
M  V30 349 H 30.561 -1.82731 -3.7972 0
M  V30 350 H 29.285 -0.749393 -3.17886 0
M  V30 351 H 27.944 -2.74575 -2.42908 0
M  V30 352 H 27.592 -1.77437 -4.70665 0
M  V30 353 H 27.292 -3.53037 -4.69722 0
M  V30 354 H 28.816 -2.89256 -5.37739 0
M  V30 355 H 30.23 -4.39855 -3.67697 0
M  V30 356 H 28.627 -5.05458 -3.2347 0
M  V30 357 H 29.697 -4.43293 -1.96518 0
M  V30 358 N 31.0401 0.771051 -1.3745 0
M  V30 359 C 31.9501 1.91538 -1.35464 0
M  V30 360 C 32.9661 1.72134 -0.254123 0
M  V30 361 O 34.1421 1.95358 -0.489626 0
M  V30 362 C 31.2071 3.26671 -1.16134 0
M  V30 363 C 30.2681 3.58723 -2.35831 0
M  V30 364 C 29.5011 4.87409 -2.17413 0
M  V30 365 O 29.7241 5.58506 -1.15876 0
M  V30 366 O 28.6581 5.18539 -3.05615 0
M  V30 367 H 32.4841 1.96165 -2.31847 0
M  V30 368 H 30.0691 0.9139 -1.18187 0
M  V30 369 H 31.9511 4.07499 -1.07345 0
M  V30 370 H 30.6261 3.22894 -0.228251 0
M  V30 371 H 29.5331 2.78127 -2.50192 0
M  V30 372 H 30.8661 3.67243 -3.27709 0
M  V30 373 N 32.5182 1.22032 0.997298 0
M  V30 374 C 33.7482 1.06686 1.76923 0
M  V30 375 C 34.1562 -0.385838 1.85224 0
M  V30 376 O 33.4992 -1.27929 1.31833 0
M  V30 377 C 33.5612 1.59802 3.22031 0
M  V30 378 C 33.2252 3.08362 3.37286 0
M  V30 379 C 34.2222 4.05835 3.24952 0
M  V30 380 C 31.9072 3.47727 3.6248 0
M  V30 381 C 33.9012 5.4066 3.37588 0
M  V30 382 C 31.5882 4.82701 3.74757 0
M  V30 383 C 32.5862 5.78977 3.62319 0
M  V30 384 O 32.2742 7.11502 3.74193 0
M  V30 385 H 32.0062 0.374767 0.562606 0
M  V30 386 H 34.5602 1.61991 1.26286 0
M  V30 387 H 32.7902 0.989003 3.73839 0
M  V30 388 H 34.4792 1.40184 3.80924 0
M  V30 389 H 35.2452 3.76766 3.05405 0
M  V30 390 H 31.1242 2.73317 3.7124 0
M  V30 391 H 34.6682 6.15788 3.27796 0
M  V30 392 H 30.5652 5.11453 3.9381 0
M  V30 393 H 31.3332 7.19019 3.91093 0
M  V30 394 N 33.9963 -1.19345 1.0293 0
M  V30 395 C 35.2243 -1.92997 0.745644 0
M  V30 396 C 35.6393 -1.75519 -0.695589 0
M  V30 397 O 34.9963 -1.07737 -1.47306 0
M  V30 398 C 35.0473 -3.44741 1.08792 0
M  V30 399 O 34.7683 -3.61658 2.47256 0
M  V30 400 C 36.2693 -4.35515 0.827129 0
M  V30 401 H 33.4893 -0.613042 0.272801 0
M  V30 402 H 36.0333 -1.51473 1.3739 0
M  V30 403 H 34.1883 -3.84097 0.504832 0
M  V30 404 H 34.6023 -4.55514 2.60015 0
M  V30 405 H 36.0763 -5.40589 1.11658 0
M  V30 406 H 36.5533 -4.38552 -0.238436 0
M  V30 407 H 37.1593 -4.01841 1.39297 0
M  V30 408 N 35.4744 -0.807222 -1.35358 0
M  V30 409 C 36.7514 -0.311126 -1.9311 0
M  V30 410 C 37.1314 1.19937 -1.73719 0
M  V30 411 O 36.4794 1.99918 -1.10657 0
M  V30 412 C 36.6894 -0.723226 -3.41424 0
M  V30 413 C 38.0374 -0.713078 -4.18569 0
M  V30 414 O 39.0614 -0.664811 -3.49941 0
M  V30 415 O 37.9204 -0.772022 -5.41019 0
M  V30 416 H 35.0144 -0.081526 -0.822972 0
M  V30 417 H 37.5604 -0.890962 -1.4443 0
M  V30 418 H 36.3324 -1.76426 -3.4927 0
M  V30 419 H 35.9554 -0.118232 -3.97424 0
M  V30 420 N 36.9525 1.47285 -0.560781 0
M  V30 421 C 38.1775 2.07359 -0.0410566 0
M  V30 422 C 38.6025 1.41017 1.24483 0
M  V30 423 O 37.9605 0.486368 1.74654 0
M  V30 424 C 38.0085 3.6035 0.134123 0
M  V30 425 O 37.1125 3.94681 1.19587 0
M  V30 426 H 36.4535 0.661887 -0.0529291 0
M  V30 427 H 38.9835 1.89252 -0.777482 0
M  V30 428 H 38.9935 4.0652 0.347207 0
M  V30 429 H 37.6685 4.08034 -0.805047 0
M  V30 430 H 36.2455 3.60251 0.962987 0
M  V30 431 N 38.4306 0.297415 1.54768 0
M  V30 432 C 39.6556 -0.318435 2.04941 0
M  V30 433 C 40.0806 -1.4701 1.17345 0
M  V30 434 O 39.4386 -1.80436 0.176758 0
M  V30 435 C 39.4866 -0.755749 3.52592 0
M  V30 436 O 38.5906 -1.86088 3.68028 0
M  V30 437 H 37.9316 -0.062421 0.661059 0
M  V30 438 H 40.4616 0.438215 1.99852 0
M  V30 439 H 40.4716 -1.04552 3.94376 0
M  V30 440 H 39.1466 0.0867233 4.1581 0
M  V30 441 H 37.7236 -1.57193 3.38149 0
M  V30 442 N 39.9087 -1.5758 0.0250728 0
M  V30 443 C 41.1387 -1.95646 -0.663783 0
M  V30 444 C 41.5467 -0.899935 -1.66427 0
M  V30 445 O 40.8897 0.127191 -1.83259 0
M  V30 446 C 40.9517 -3.29835 -1.43 0
M  V30 447 C 40.6157 -4.53197 -0.588305 0
M  V30 448 C 41.6127 -5.19726 0.13469 0
M  V30 449 C 39.2977 -4.99529 -0.526897 0
M  V30 450 C 41.2917 -6.30902 0.90781 0
M  V30 451 C 38.9787 -6.10589 0.24993 0
M  V30 452 C 39.9767 -6.76134 0.965994 0
M  V30 453 O 39.6647 -7.85062 1.7301 0
M  V30 454 H 39.3967 -0.649282 -0.188174 0
M  V30 455 H 41.9507 -2.05245 0.0799006 0
M  V30 456 H 40.1807 -3.16716 -2.21873 0
M  V30 457 H 41.8697 -3.52833 -2.00658 0
M  V30 458 H 42.6357 -4.84904 0.0965562 0
M  V30 459 H 38.5147 -4.48319 -1.07381 0
M  V30 460 H 42.0587 -6.81995 1.46724 0
M  V30 461 H 37.9557 -6.44849 0.289795 0
M  V30 462 H 38.7237 -8.01708 1.64944 0
M  V30 463 N 41.3868 0.248026 -1.55636 0
M  V30 464 C 42.2968 1.32859 -1.93354 0
M  V30 465 C 43.3128 1.52719 -0.833838 0
M  V30 466 O 44.4888 1.66363 -1.13513 0
M  V30 467 C 41.5538 2.66337 -2.21958 0
M  V30 468 C 40.6148 2.55008 -3.45354 0
M  V30 469 C 39.8478 3.82121 -3.72584 0
M  V30 470 O 40.0708 4.83951 -3.01907 0
M  V30 471 O 39.0048 3.80822 -4.6611 0
M  V30 472 H 42.8308 1.03862 -2.85388 0
M  V30 473 H 40.4158 0.448686 -1.42503 0
M  V30 474 H 42.2978 3.45216 -2.4167 0
M  V30 475 H 40.9728 2.95068 -1.33103 0
M  V30 476 H 39.8798 1.7442 -3.30951 0
M  V30 477 H 41.2128 2.31222 -4.34508 0
M  V30 478 N 42.8649 1.48995 0.513639 0
M  V30 479 C 43.7749 1.67443 1.64317 0
M  V30 480 C 44.7909 0.556947 1.64846 0
M  V30 481 O 45.9669 0.830082 1.83498 0
M  V30 482 C 43.0319 1.72515 3.00732 0
M  V30 483 C 42.0929 2.96009 3.1093 0
M  V30 484 C 41.3259 3.00829 4.40837 0
M  V30 485 O 41.5489 2.13594 5.28898 0
M  V30 486 O 40.4829 3.93168 4.55744 0
M  V30 487 H 44.3089 2.63106 1.51687 0
M  V30 488 H 41.8939 1.32588 0.688543 0
M  V30 489 H 43.7759 1.78277 3.81831 0
M  V30 490 H 42.4509 0.800278 3.13651 0
M  V30 491 H 41.3579 2.9577 2.29065 0
M  V30 492 H 42.6909 3.87934 3.02933 0
M  V30 493 N 44.343 -0.763751 1.37857 0
M  V30 494 C 45.29 -1.87726 1.34267 0
M  V30 495 C 46.26 -1.64807 0.206879 0
M  V30 496 O 47.445 -1.86613 0.397508 0
M  V30 497 C 44.585 -3.24896 1.16346 0
M  V30 498 C 43.698 -3.59716 2.39225 0
M  V30 499 C 42.833 -4.86137 2.14114 0
M  V30 500 C 41.872 -5.13711 3.32817 0
M  V30 501 N 41.009 -6.31323 3.07206 0
M  V30 502 H 45.849 -1.90129 2.29466 0
M  V30 503 H 43.386 -0.929433 1.14017 0
M  V30 504 H 45.344 -4.04036 1.03975 0
M  V30 505 H 43.974 -3.21847 0.247909 0
M  V30 506 H 43.026 -2.75498 2.62307 0
M  V30 507 H 44.338 -3.76027 3.27728 0
M  V30 508 H 43.492 -5.73198 1.9882 0
M  V30 509 H 42.231 -4.71945 1.22961 0
M  V30 510 H 41.236 -4.25123 3.48641 0
M  V30 511 H 42.461 -5.29807 4.24832 0
M  V30 512 H 40.407 -6.18474 2.1869 0
M  V30 513 H 40.324 -6.48087 3.89254 0
M  V30 514 H 41.592 -7.213 2.95546 0
M  V30 515 N 45.8211 -1.22559 -0.990812 0
M  V30 516 C 46.7681 -0.997519 -2.0813 0
M  V30 517 C 47.7381 0.0814702 -1.659 0
M  V30 518 O 48.9231 -0.0685424 -1.90677 0
M  V30 519 C 46.0631 -0.583615 -3.40129 0
M  V30 520 C 45.1761 -1.7336 -3.9569 0
M  V30 521 C 44.3111 -1.26748 -5.15857 0
M  V30 522 C 43.3501 -2.38888 -5.63559 0
M  V30 523 N 42.4871 -1.93308 -6.74964 0
M  V30 524 H 47.3271 -1.93099 -2.26973 0
M  V30 525 H 44.8641 -0.962114 -1.11273 0
M  V30 526 H 46.8221 -0.324801 -4.15934 0
M  V30 527 H 45.4521 0.312845 -3.2128 0
M  V30 528 H 44.5041 -2.10669 -3.16738 0
M  V30 529 H 45.8161 -2.57704 -4.27071 0
M  V30 530 H 44.9701 -0.966173 -5.98957 0
M  V30 531 H 43.7091 -0.394272 -4.86104 0
M  V30 532 H 42.7141 -2.69805 -4.79046 0
M  V30 533 H 43.9391 -3.26728 -5.95336 0
M  V30 534 H 41.8851 -1.08352 -6.4699 0
M  V30 535 H 41.8021 -2.71217 -7.05675 0
M  V30 536 H 43.0701 -1.66252 -7.61564 0
M  V30 537 N 47.2992 1.18797 -1.03562 0
M  V30 538 C 48.5292 1.92319 -0.754773 0
M  V30 539 C 48.9372 1.7612 0.691248 0
M  V30 540 O 48.2802 1.08491 1.48241 0
M  V30 541 C 48.3422 3.44284 -1.03484 0
M  V30 542 C 48.0062 3.84258 -2.47376 0
M  V30 543 C 49.0032 3.88459 -3.45537 0
M  V30 544 C 46.6882 4.15701 -2.81954 0
M  V30 545 C 48.6822 4.23545 -4.76328 0
M  V30 546 C 46.3692 4.50458 -4.12954 0
M  V30 547 C 47.3672 4.54356 -5.09951 0
M  V30 548 O 47.0552 4.88305 -6.38603 0
M  V30 549 H 46.7872 0.617527 -0.275021 0
M  V30 550 H 49.3412 1.51683 -1.38497 0
M  V30 551 H 47.5712 3.85135 -0.347513 0
M  V30 552 H 49.2602 3.99049 -0.7426 0
M  V30 553 H 50.0262 3.6431 -3.20162 0
M  V30 554 H 45.9052 4.11847 -2.0713 0
M  V30 555 H 49.4492 4.26502 -5.52035 0
M  V30 556 H 45.3462 4.74067 -4.38099 0
M  V30 557 H 46.1142 5.06227 -6.43177 0
M  V30 558 N 48.7773 0.814389 1.34928 0
M  V30 559 C 50.0053 0.411136 2.02774 0
M  V30 560 C 50.4203 -0.980316 1.61354 0
M  V30 561 O 49.7773 -1.63299 0.814847 0
M  V30 562 C 49.8283 0.493865 3.58111 0
M  V30 563 O 49.5493 1.83047 3.98027 0
M  V30 564 C 51.0503 0.0844174 4.4322 0
M  V30 565 H 48.2703 0.166037 0.650133 0
M  V30 566 H 50.8143 1.10018 1.72384 0
M  V30 567 H 48.9693 -0.147006 3.87121 0
M  V30 568 H 49.3833 1.79872 4.92693 0
M  V30 569 H 50.8573 0.193404 5.51661 0
M  V30 570 H 51.3343 -0.97113 4.28329 0
M  V30 571 H 51.9403 0.69875 4.19521 0
M  V30 572 N 50.2554 -1.46986 0.568584 0
M  V30 573 C 51.1884 -2.27129 -0.220779 0
M  V30 574 C 52.1664 -1.34757 -0.909905 0
M  V30 575 O 53.3504 -1.64152 -0.926622 0
M  V30 576 C 50.4774 -3.12108 -1.31553 0
M  V30 577 C 49.5234 -4.20141 -0.733748 0
M  V30 578 S 50.3564 -5.33783 0.428479 0
M  V30 579 C 51.5124 -6.22327 -0.667811 0
M  V30 580 H 51.7454 -2.93731 0.459267 0
M  V30 581 H 49.2784 -1.5026 0.355154 0
M  V30 582 H 51.2364 -3.61636 -1.94241 0
M  V30 583 H 49.8974 -2.44847 -1.96746 0
M  V30 584 H 49.0904 -4.79373 -1.5562 0
M  V30 585 H 48.6924 -3.73553 -0.182812 0
M  V30 586 H 50.9844 -6.59364 -1.55708 0
M  V30 587 H 51.9274 -7.0801 -0.11258 0
M  V30 588 H 52.3354 -5.5618 -0.965601 0
M  V30 589 N 51.7335 -0.305618 -1.54608 0
M  V30 590 C 52.9815 0.301701 -1.99835 0
M  V30 591 C 53.3025 1.54054 -1.19551 0
M  V30 592 O 52.5725 1.93702 -0.292658 0
M  V30 593 H 51.1525 0.114468 -0.738178 0
M  V30 594 H 53.8145 -0.418016 -1.90364 0
M  V30 595 H 52.9105 0.570548 -3.06841 0
M  V30 596 N 53.2116 1.57565 -0.0334293 0
M  V30 597 C 54.4886 1.83282 0.683163 0
M  V30 598 C 54.8686 0.91823 1.90084 0
M  V30 599 O 54.2166 -0.025113 2.28486 0
M  V30 600 C 54.4266 3.32599 1.0573 0
M  V30 601 C 55.7746 3.99179 1.44711 0
M  V30 602 O 56.7986 3.3712 1.15015 0
M  V30 603 O 55.6576 5.08565 2.0006 0
M  V30 604 H 52.7516 0.755869 0.335546 0
M  V30 605 H 55.2976 1.69589 -0.0614402 0
M  V30 606 H 54.0696 3.90834 0.190828 0
M  V30 607 H 53.6926 3.51415 1.85993 0
M  V30 608 N 54.6897 -0.239769 1.55765 0
M  V30 609 C 55.6527 -1.28038 1.90103 0
M  V30 610 C 56.6527 -1.40723 0.778055 0
M  V30 611 O 57.8427 -1.39301 1.04599 0
M  V30 612 C 54.9747 -2.65702 2.13577 0
M  V30 613 H 56.1677 -0.988048 2.83157 0
M  V30 614 H 53.7207 -0.479382 1.48767 0
M  V30 615 H 54.4557 -3.00063 1.23015 0
M  V30 616 H 54.2407 -2.57875 2.95369 0
M  V30 617 H 55.7307 -3.40828 2.41301 0
M  V30 618 N 56.1678 -1.49265 -0.50573 0
M  V30 619 C 57.5788 -1.51769 -1.08734 0
M  V30 620 C 57.9298 -0.301192 -1.93874 0
M  V30 621 O 57.0548 0.589456 -2.08217 0
M  V30 622 C 57.6498 -2.75017 -1.97867 0
M  V30 623 C 56.2088 -2.80314 -2.51199 0
M  V30 624 C 55.3558 -2.4562 -1.28709 0
M  V30 625 H 58.3068 -1.56031 -0.289855 0
M  V30 626 H 58.3278 -2.5491 -2.82491 0
M  V30 627 H 57.8398 -3.63539 -1.35873 0
M  V30 628 H 55.9408 -1.96061 -3.16845 0
M  V30 629 H 56.0538 -3.82366 -2.88675 0
M  V30 630 H 54.4178 -1.97297 -1.61078 0
M  V30 631 H 55.2008 -3.36411 -0.6843 0
M  V30 632 N 57.6459 0.756429 -1.3826 0
M  V30 633 C 58.9229 1.50584 -1.24835 0
M  V30 634 C 59.3029 2.10556 0.151485 0
M  V30 635 O 58.6509 1.96825 1.1607 0
M  V30 636 C 58.8609 2.57448 -2.3563 0
M  V30 637 C 60.2089 3.24429 -2.73917 0
M  V30 638 O 61.2329 2.67751 -2.34921 0
M  V30 639 O 60.0919 4.26937 -3.41156 0
M  V30 640 H 57.1859 0.667664 -0.48801 0
M  V30 641 H 59.7319 0.792083 -1.5008 0
M  V30 642 H 58.5039 2.11362 -3.29305 0
M  V30 643 H 58.1269 3.36408 -2.11933 0
M  V30 644 N 59.124 1.23083 0.984299 0
M  V30 645 C 60.354 1.08556 1.75781 0
M  V30 646 C 60.762 -0.366171 1.85623 0
M  V30 647 O 60.105 -1.26524 1.33182 0
M  V30 648 C 60.167 1.63208 3.20318 0
M  V30 649 C 59.831 3.11922 3.33997 0
M  V30 650 C 60.828 4.09259 3.2063 0
M  V30 651 C 58.513 3.51552 3.58771 0
M  V30 652 C 60.507 5.4421 3.31835 0
M  V30 653 C 58.194 4.86649 3.69616 0
M  V30 654 C 59.192 5.82787 3.56157 0
M  V30 655 O 58.88 7.15431 3.66626 0
M  V30 656 H 58.612 0.380713 0.5586 0
M  V30 657 H 61.166 1.63321 1.2456 0
M  V30 658 H 59.396 1.0286 3.72769 0
M  V30 659 H 61.085 1.44216 3.79416 0
M  V30 660 H 61.851 3.79984 3.01392 0
M  V30 661 H 57.73 2.77239 3.6832 0
M  V30 662 H 61.274 6.1923 3.21247 0
M  V30 663 H 57.171 5.15601 3.88363 0
M  V30 664 H 57.939 7.23127 3.83445 0
M  V30 665 N 60.6021 -1.18246 1.0419 0
M  V30 666 C 61.8791 -1.84121 0.660208 0
M  V30 667 C 62.2591 -1.92778 -0.860221 0
M  V30 668 O 61.6071 -1.45464 -1.76217 0
M  V30 669 C 61.8171 -3.22355 1.33747 0
M  V30 670 C 63.1651 -3.98376 1.46906 0
M  V30 671 O 64.1891 -3.31799 1.29568 0
M  V30 672 O 63.0481 -5.17665 1.75171 0
M  V30 673 H 60.1421 -0.794036 0.231161 0
M  V30 674 H 62.6881 -1.25628 1.14087 0
M  V30 675 H 61.4601 -3.10964 2.37522 0
M  V30 676 H 61.0831 -3.88506 0.845515 0
M  V30 677 N 62.0802 -0.821533 -1.34494 0
M  V30 678 C 63.4962 -0.507117 -1.51329 0
M  V30 679 C 63.6962 0.968964 -1.76673 0
M  V30 680 O 62.7522 1.75348 -1.81685 0
M  V30 681 C 64.0652 -1.36544 -2.67911 0
M  V30 682 C 65.6132 -1.36242 -2.81793 0
M  V30 683 C 66.0882 -2.2052 -4.01416 0
M  V30 684 N 67.5792 -2.18136 -4.08621 0
M  V30 685 C 68.3142 -2.80095 -5.00334 0
M  V30 686 N 67.8102 -3.51039 -5.9728 0
M  V30 687 N 69.6032 -2.69656 -4.93196 0
M  V30 688 H 61.7542 -1.77729 -1.16302 0
M  V30 689 H 64.0172 -0.757291 -0.570276 0
M  V30 690 H 63.7232 -2.41361 -2.55808 0
M  V30 691 H 63.5972 -1.02917 -3.62888 0
M  V30 692 H 65.9842 -0.322041 -2.93338 0
M  V30 693 H 66.0652 -1.73866 -1.87628 0
M  V30 694 H 65.7092 -3.24607 -3.90631 0
M  V30 695 H 65.6392 -1.80247 -4.94791 0
M  V30 696 H 68.1302 -1.6653 -3.39229 0
M  V30 697 H 68.4432 -3.95565 -6.63889 0
M  V30 698 H 66.7882 -3.55145 -5.97409 0
M  V30 699 H 69.9792 -2.13808 -4.16418 0
M  V30 700 H 70.1522 -3.1823 -5.64476 0
M  V30 701 N 63.5583 1.46682 -0.576371 0
M  V30 702 C 64.7833 2.07304 -0.0630475 0
M  V30 703 C 65.2083 1.42329 1.2298 0
M  V30 704 O 64.5663 0.504865 1.74129 0
M  V30 705 C 64.6143 3.60472 0.095895 0
M  V30 706 O 63.7183 3.95927 1.15394 0
M  V30 707 H 63.0593 0.661288 -0.0599463 0
M  V30 708 H 65.5893 1.88417 -0.797511 0
M  V30 709 H 65.5993 4.06865 0.304071 0
M  V30 710 H 64.2743 4.07157 -0.84828 0
M  V30 711 H 62.8513 3.61252 0.924724 0
M  V30 712 N 65.0364 0.313813 1.54444 0
M  V30 713 C 65.9684 -0.590425 2.21465 0
M  V30 714 C 66.9814 -1.08753 1.21147 0
M  V30 715 O 68.1704 -1.00278 1.4767 0
M  V30 716 C 65.2704 -1.82179 2.85769 0
M  V30 717 C 64.4434 -1.46502 4.12136 0
M  V30 718 C 63.5024 -2.55288 4.60124 0
M  V30 719 O 62.5284 -2.19842 5.25032 0
M  V30 720 N 63.7304 -3.86053 4.33525 0
M  V30 721 H 66.4954 -0.0166033 2.99695 0
M  V30 722 H 64.0564 0.136578 1.61323 0
M  V30 723 H 66.0484 -2.54328 3.14801 0
M  V30 724 H 64.6184 -2.30369 2.11303 0
M  V30 725 H 63.8384 -0.575595 3.89975 0
M  V30 726 H 65.1264 -1.20221 4.94393 0
M  V30 727 H 64.5244 -4.17654 3.81552 0
M  V30 728 H 63.0814 -4.54461 4.67235 0
M  V30 729 N 66.5145 -1.57545 0.0417849 0
M  V30 730 C 67.7605 -1.93424 -0.629168 0
M  V30 731 C 68.1155 -0.919564 -1.69002 0
M  V30 732 O 67.4085 0.0626178 -1.91498 0
M  V30 733 C 67.6025 -3.33794 -1.27735 0
M  V30 734 C 67.4315 -4.48822 -0.280806 0
M  V30 735 C 66.2015 -5.05148 0.123869 0
M  V30 736 C 68.3995 -5.12148 0.470012 0
M  V30 737 N 66.3815 -6.03703 1.11426 0
M  V30 738 C 67.7525 -6.05921 1.31377 0
M  V30 739 C 69.8075 -4.95078 0.529343 0
M  V30 740 C 68.5105 -6.84459 2.21152 0
M  V30 741 C 70.5365 -5.74235 1.41448 0
M  V30 742 C 69.8985 -6.67634 2.24598 0
M  V30 743 H 65.9975 -0.755418 -0.202158 0
M  V30 744 H 68.5815 -1.94378 0.111923 0
M  V30 745 H 66.7525 -3.33635 -1.98852 0
M  V30 746 H 68.4845 -3.56988 -1.90635 0
M  V30 747 H 65.2395 -4.72923 -0.253178 0
M  V30 748 H 65.6635 -6.57674 1.60607 0
M  V30 749 H 70.3055 -4.22683 -0.0992798 0
M  V30 750 H 68.0235 -7.56151 2.85063 0
M  V30 751 H 71.6095 -5.63057 1.46484 0
M  V30 752 H 70.4895 -7.27817 2.9198 0
M  V30 753 N 67.9926 0.231505 -1.5589 0
M  V30 754 C 68.9226 1.29022 -1.94617 0
M  V30 755 C 69.9036 1.4941 -0.813067 0
M  V30 756 O 71.0886 1.6176 -1.07459 0
M  V30 757 C 68.2186 2.64199 -2.25424 0
M  V30 758 C 67.1726 2.58484 -3.41131 0
M  V30 759 C 66.4986 3.97599 -3.57518 0
M  V30 760 C 67.7986 2.1413 -4.76388 0
M  V30 761 H 69.4926 0.968563 -2.83301 0
M  V30 762 H 67.0386 0.464479 -1.36303 0
M  V30 763 H 68.9916 3.38413 -2.51107 0
M  V30 764 H 67.7156 2.98032 -1.33583 0
M  V30 765 H 66.3746 1.86727 -3.15481 0
M  V30 766 H 66.0226 4.28723 -2.6307 0
M  V30 767 H 65.7226 3.94659 -4.35337 0
M  V30 768 H 67.2466 4.7349 -3.85538 0
M  V30 769 H 68.6606 2.78083 -5.01341 0
M  V30 770 H 67.0576 2.2227 -5.57419 0
M  V30 771 H 68.1276 1.09331 -4.72414 0
M  V30 772 N 69.4707 1.49531 0.497807 0
M  V30 773 C 70.4187 1.66926 1.61983 0
M  V30 774 C 71.4127 0.535167 1.60724 0
M  V30 775 O 72.6187 0.714896 1.65195 0
M  V30 776 H 68.9937 0.526415 0.537021 0
M  V30 777 H 70.9647 2.61098 1.44465 0
M  V30 778 C 69.7137 1.75602 3.00099 0
M  V30 779 H 69.0367 2.62244 3.01775 0
M  V30 780 H 70.4767 1.91807 3.78135 0
M  V30 781 C 68.9357 0.501543 3.33146 0
M  V30 782 O 69.4657 -0.371342 3.9998 0
M  V30 783 N 67.6717 0.363531 2.88317 0
M  V30 784 H 67.2187 1.07485 2.34104 0
M  V30 785 H 67.1767 -0.474728 3.10795 0
M  V30 786 N 70.9488 -0.749086 1.3866 0
M  V30 787 C 71.8588 -1.89358 1.38494 0
M  V30 788 C 72.8748 -1.71708 0.281476 0
M  V30 789 O 74.0508 -1.94554 0.520643 0
M  V30 790 C 71.1158 -3.24782 1.21316 0
M  V30 791 C 70.1768 -3.54926 2.41508 0
M  V30 792 C 69.4098 -4.83888 2.2514 0
M  V30 793 O 69.6328 -5.56592 1.24746 0
M  V30 794 O 68.5668 -5.13612 3.13826 0
M  V30 795 H 72.3928 -1.92452 2.34938 0
M  V30 796 H 69.9778 -0.894981 1.19626 0
M  V30 797 H 71.8598 -4.05739 1.13814 0
M  V30 798 H 70.5348 -3.2249 0.279592 0
M  V30 799 H 69.4418 -2.74112 2.54585 0
M  V30 800 H 70.7748 -3.61983 3.3351 0
M  V30 801 N 72.4269 -1.23603 -0.977757 0
M  V30 802 C 73.3739 -1.01954 -2.07061 0
M  V30 803 C 74.3439 0.0638697 -1.65977 0
M  V30 804 O 75.5289 -0.0887624 -1.90593 0
M  V30 805 C 72.6689 -0.619658 -3.39491 0
M  V30 806 C 71.7819 -1.77547 -3.93829 0
M  V30 807 C 70.9169 -1.32212 -5.14484 0
M  V30 808 C 69.9559 -2.44852 -5.60994 0
M  V30 809 N 69.0929 -2.00456 -6.72876 0
M  V30 810 H 73.9329 -1.95495 -2.24913 0
M  V30 811 H 71.4699 -0.973861 -1.10247 0
M  V30 812 H 73.4279 -0.368898 -4.15566 0
M  V30 813 H 72.0579 0.278752 -3.21594 0
M  V30 814 H 71.1099 -2.14016 -3.14486 0
M  V30 815 H 72.4219 -2.62219 -4.24314 0
M  V30 816 H 71.5759 -1.02965 -5.97899 0
M  V30 817 H 70.3149 -0.445808 -4.85658 0
M  V30 818 H 69.3199 -2.74871 -4.76157 0
M  V30 819 H 70.5449 -3.33024 -5.91837 0
M  V30 820 H 68.4909 -1.15208 -6.45804 0
M  V30 821 H 68.4079 -2.78687 -7.02759 0
M  V30 822 H 69.6759 -1.7432 -7.59758 0
M  V30 823 N 73.905 1.17692 -1.04816 0
M  V30 824 C 75.152 1.87859 -0.75599 0
M  V30 825 C 75.48 1.80812 0.716752 0
M  V30 826 O 74.735 1.20819 1.53952 0
M  V30 827 C 75.034 3.37462 -1.17703 0
M  V30 828 C 74.7 3.64713 -2.65133 0
M  V30 829 C 73.362 3.71859 -3.05408 0
M  V30 830 C 75.714 3.76492 -3.60421 0
M  V30 831 C 73.042 3.88271 -4.39843 0
M  V30 832 C 75.394 3.94421 -4.94585 0
M  V30 833 C 74.058 3.99806 -5.3452 0
M  V30 834 H 73.328 0.687425 -0.276636 0
M  V30 835 H 75.975 1.39255 -1.31455 0
M  V30 836 H 74.28 3.88097 -0.537395 0
M  V30 837 H 75.977 3.90109 -0.928218 0
M  V30 838 H 72.567 3.59772 -2.32942 0
M  V30 839 H 76.751 3.70295 -3.30447 0
M  V30 840 H 72.007 3.90687 -4.70291 0
M  V30 841 H 76.181 4.02477 -5.68318 0
M  V30 842 H 73.808 4.12276 -6.38696 0
M  V30 843 N 75.3831 0.828654 1.34056 0
M  V30 844 C 76.3301 0.252567 2.29414 0
M  V30 845 C 77.3001 -0.62588 1.53857 0
M  V30 846 O 78.4851 -0.566312 1.82202 0
M  V30 847 C 75.6251 -0.574831 3.40279 0
M  V30 848 C 74.7381 0.326499 4.30764 0
M  V30 849 C 73.8731 -0.511016 5.28736 0
M  V30 850 C 72.9121 0.389342 6.1086 0
M  V30 851 N 72.0491 -0.409439 7.00905 0
M  V30 852 H 76.8891 1.07108 2.78086 0
M  V30 853 H 74.4261 0.539677 1.36843 0
M  V30 854 H 76.3841 -1.06992 4.03248 0
M  V30 855 H 75.0141 -1.35841 2.92826 0
M  V30 856 H 74.0661 0.939837 3.68607 0
M  V30 857 H 75.3781 1.01857 4.88289 0
M  V30 858 H 74.5321 -1.07035 5.97184 0
M  V30 859 H 73.2711 -1.23657 4.71763 0
M  V30 860 H 72.2761 0.960769 5.4134 0
M  V30 861 H 73.5011 1.1131 6.69916 0
M  V30 862 H 71.4471 -1.11856 6.46393 0
M  V30 863 H 71.3641 0.224126 7.55668 0
M  V30 864 H 72.6321 -0.951336 7.73673 0
M  V30 865 N 76.8612 -1.46375 0.584142 0
M  V30 866 C 77.7912 -2.33103 -0.136037 0
M  V30 867 C 78.7722 -1.45431 -0.882255 0
M  V30 868 O 79.9572 -1.74246 -0.857434 0
M  V30 869 C 77.0872 -3.27731 -1.14933 0
M  V30 870 C 76.0412 -4.24855 -0.517862 0
M  V30 871 C 75.3672 -5.09001 -1.63773 0
M  V30 872 C 76.6672 -5.19439 0.545886 0
M  V30 873 H 78.3612 -2.93568 0.588086 0
M  V30 874 H 75.9072 -1.41166 0.284259 0
M  V30 875 H 77.8602 -3.87261 -1.66153 0
M  V30 876 H 76.5842 -2.65377 -1.90375 0
M  V30 877 H 75.2432 -3.6659 -0.0267361 0
M  V30 878 H 74.8912 -4.43031 -2.38185 0
M  V30 879 H 74.5912 -5.74777 -1.22085 0
M  V30 880 H 76.1152 -5.71396 -2.15266 0
M  V30 881 H 77.5292 -5.73177 0.118704 0
M  V30 882 H 75.9262 -5.93566 0.88317 0
M  V30 883 H 76.9962 -4.63285 1.43162 0
M  V30 884 N 78.3393 -0.321999 -1.54275 0
M  V30 885 C 79.5873 0.280489 -2.00144 0
M  V30 886 C 79.9083 1.52777 -1.21178 0
M  V30 887 O 79.1783 1.9338 -0.313187 0
M  V30 888 H 77.7583 0.106632 -0.73935 0
M  V30 889 H 80.4203 -0.438184 -1.8991 0
M  V30 890 H 79.5163 0.537972 -3.07428 0
M  V30 891 N 79.8174 1.5752 -0.0501392 0
M  V30 892 C 80.7474 2.14502 0.922566 0
M  V30 893 C 81.7284 1.06642 1.3252 0
M  V30 894 O 82.9134 1.34577 1.4001 0
M  V30 895 C 80.0434 2.68916 2.19776 0
M  V30 896 C 78.9974 3.8175 1.93523 0
M  V30 897 C 78.3234 4.22677 3.27487 0
M  V30 898 C 79.6234 5.06932 1.25765 0
M  V30 899 H 81.3174 2.9603 0.447952 0
M  V30 900 H 78.8634 1.42401 0.214024 0
M  V30 901 H 80.8164 3.07419 2.88222 0
M  V30 902 H 79.5404 1.84578 2.69441 0
M  V30 903 H 78.1994 3.43718 1.27489 0
M  V30 904 H 77.8474 3.35291 3.74952 0
M  V30 905 H 77.5474 4.98725 3.1072 0
M  V30 906 H 79.0714 4.63779 3.97166 0
M  V30 907 H 80.4854 5.42888 1.84244 0
M  V30 908 H 78.8824 5.88116 1.19328 0
M  V30 909 H 79.9524 4.84337 0.233536 0
M  V30 910 N 81.2955 -0.223234 1.56011 0
M  V30 911 C 82.5725 -0.972108 1.69733 0
M  V30 912 C 82.9525 -2.02485 0.59691 0
M  V30 913 O 82.3005 -2.25037 -0.396324 0
M  V30 914 C 82.5105 -1.58407 3.10979 0
M  V30 915 C 83.8585 -2.07696 3.70334 0
M  V30 916 O 84.8825 -1.68304 3.1393 0
M  V30 917 O 83.7415 -2.80096 4.69264 0
M  V30 918 H 80.8355 -0.453993 0.691245 0
M  V30 919 H 83.3815 -0.215149 1.68331 0
M  V30 920 H 82.1535 -0.823831 3.82529 0
M  V30 921 H 81.7765 -2.40661 3.16493 0
M  V30 922 N 82.7736 -1.49793 -0.48987 0
M  V30 923 C 84.0206 -1.59841 -1.24327 0
M  V30 924 C 84.3486 -0.290135 -1.92324 0
M  V30 925 O 83.6036 0.722749 -1.81865 0
M  V30 926 C 83.9026 -2.71488 -2.32441 0
M  V30 927 C 83.5686 -4.12614 -1.81826 0
M  V30 928 C 82.2306 -4.51017 -1.67742 0
M  V30 929 C 84.5826 -5.00892 -1.4407 0
M  V30 930 C 81.9106 -5.75459 -1.14297 0
M  V30 931 C 84.2626 -6.25863 -0.920742 0
M  V30 932 C 82.9266 -6.63086 -0.766383 0
M  V30 933 H 82.1966 -0.584899 -0.454944 0
M  V30 934 H 84.8436 -1.83663 -0.542215 0
M  V30 935 H 83.1486 -2.4168 -3.0838 0
M  V30 936 H 84.8456 -2.76469 -2.90458 0
M  V30 937 H 81.4356 -3.82307 -1.93751 0
M  V30 938 H 85.6196 -4.7187 -1.53794 0
M  V30 939 H 80.8756 -6.02989 -1.01068 0
M  V30 940 H 85.0496 -6.9364 -0.619448 0
M  V30 941 H 82.6766 -7.59393 -0.350083 0
M  V30 942 N 84.2517 0.741722 -1.39055 0
M  V30 943 C 85.6627 1.31966 -1.32068 0
M  V30 944 C 86.0137 1.96192 0.0180797 0
M  V30 945 O 85.1387 1.95861 0.920196 0
M  V30 946 C 85.7337 2.39954 -2.39181 0
M  V30 947 C 84.2927 2.93438 -2.35735 0
M  V30 948 C 83.4397 1.66936 -2.21422 0
M  V30 949 H 86.3907 0.539721 -1.4924 0
M  V30 950 H 86.4117 3.20182 -2.05581 0
M  V30 951 H 85.9237 1.9318 -3.36605 0
M  V30 952 H 84.0247 3.4451 -1.41929 0
M  V30 953 H 84.1377 3.4701 -3.30335 0
M  V30 954 H 82.5017 1.91016 -1.68478 0
M  V30 955 H 83.2847 1.22224 -3.20806 0
M  V30 956 N 85.7298 1.2412 0.971189 0
M  V30 957 C 86.6778 1.02812 2.08644 0
M  V30 958 C 87.6718 -0.0358403 1.69362 0
M  V30 959 O 88.8778 0.118429 1.7961 0
M  V30 960 H 85.2528 0.315428 0.682649 0
M  V30 961 H 87.2238 1.97397 2.23779 0
M  V30 962 C 85.9728 0.645874 3.41649 0
M  V30 963 H 85.2958 1.45632 3.72332 0
M  V30 964 H 86.7358 0.536366 4.20594 0
M  V30 965 C 85.1948 -0.646713 3.30635 0
M  V30 966 O 85.7248 -1.69338 3.64263 0
M  V30 967 N 83.9308 -0.626115 2.83775 0
M  V30 968 H 83.4778 0.225988 2.56607 0
M  V30 969 H 83.4358 -1.49117 2.76788 0
M  V30 970 N 87.2079 -1.17134 1.05439 0
M  V30 971 C 88.1379 -2.2342 0.678649 0
M  V30 972 C 89.1189 -1.66971 -0.32476 0
M  V30 973 O 90.3039 -1.93149 -0.201802 0
M  V30 974 C 87.4339 -3.47256 0.0552099 0
M  V30 975 C 86.3879 -4.16543 0.98365 0
M  V30 976 C 85.7139 -5.34231 0.223961 0
M  V30 977 C 87.0139 -4.68495 2.3089 0
M  V30 978 H 88.7079 -2.55105 1.56722 0
M  V30 979 H 86.2539 -1.2262 0.754998 0
M  V30 980 H 88.2069 -4.20828 -0.21946 0
M  V30 981 H 86.9309 -3.14846 -0.868319 0
M  V30 982 H 85.5899 -3.44887 1.24293 0
M  V30 983 H 85.2379 -4.98071 -0.702412 0
M  V30 984 H 84.9379 -5.81527 0.842627 0
M  V30 985 H 86.4619 -6.10585 -0.0433671 0
M  V30 986 H 87.8759 -5.33691 2.09396 0
M  V30 987 H 86.2729 -5.26379 2.88176 0
M  V30 988 H 87.3429 -3.85169 2.94572 0
M  V30 989 N 88.686 -0.835752 -1.33615 0
M  V30 990 C 90.097 -0.487099 -1.80234 0
M  V30 991 C 90.448 0.993627 -1.69179 0
M  V30 992 O 89.573 1.77403 -1.23924 0
M  V30 993 C 90.168 -0.877385 -3.27242 0
M  V30 994 C 88.727 -0.580915 -3.7189 0
M  V30 995 C 87.874 -1.0874 -2.5509 0
M  V30 996 H 90.825 -1.02474 -1.2118 0
M  V30 997 H 90.846 -0.186195 -3.80044 0
M  V30 998 H 90.358 -1.95512 -3.35256 0
M  V30 999 H 88.459 0.486881 -3.69405 0
M  V30 1000 H 88.572 -1.13396 -4.65487 0
M  V30 1001 H 86.936 -0.508392 -2.49575 0
M  V30 1002 H 87.719 -2.17184 -2.65868 0
M  V30 1003 N 90.1641 1.46063 -0.591896 0
M  V30 1004 C 91.3941 2.06418 -0.0867676 0
M  V30 1005 C 91.8021 1.43975 1.22751 0
M  V30 1006 O 91.1451 0.542531 1.75506 0
M  V30 1007 C 91.2071 3.59213 0.143725 0
M  V30 1008 C 90.8711 4.439 -1.08635 0
M  V30 1009 C 91.8681 4.79864 -2.00067 0
M  V30 1010 C 89.5531 4.84896 -1.31077 0
M  V30 1011 C 91.5471 5.55661 -3.12282 0
M  V30 1012 C 89.2341 5.6045 -2.43596 0
M  V30 1013 C 90.2321 5.95747 -3.34027 0
M  V30 1014 O 89.9201 6.69772 -4.4459 0
M  V30 1015 H 89.6521 0.673443 -0.0587447 0
M  V30 1016 H 92.2061 1.88539 -0.814994 0
M  V30 1017 H 90.4361 3.75433 0.926668 0
M  V30 1018 H 92.1251 4.01463 0.5985 0
M  V30 1019 H 92.8911 4.48763 -1.83947 0
M  V30 1020 H 88.7701 4.56867 -0.61594 0
M  V30 1021 H 92.3141 5.8313 -3.82891 0
M  V30 1022 H 88.2111 5.90965 -2.59674 0
M  V30 1023 H 88.9791 6.88207 -4.43073 0
M  V30 1024 N 91.6422 0.330177 1.54103 0
M  V30 1025 C 92.5722 -0.525353 2.27513 0
M  V30 1026 C 93.5532 -1.11383 1.2856 0
M  V30 1027 O 94.7382 -1.13773 1.57383 0
M  V30 1028 C 91.8682 -1.6831 3.03791 0
M  V30 1029 C 90.8222 -1.2236 4.10137 0
M  V30 1030 C 90.1482 -2.46882 4.74293 0
M  V30 1031 C 91.4482 -0.333697 5.21233 0
M  V30 1032 H 93.1422 0.087013 2.99274 0
M  V30 1033 H 90.6882 0.0432893 1.43935 0
M  V30 1034 H 92.6412 -2.28795 3.5388 0
M  V30 1035 H 91.3652 -2.32216 2.29659 0
M  V30 1036 H 90.0242 -0.64165 3.60941 0
M  V30 1037 H 89.6722 -3.09165 3.96769 0
M  V30 1038 H 89.3722 -2.16825 5.46133 0
M  V30 1039 H 90.8962 -3.08117 5.27159 0
M  V30 1040 H 92.3102 -0.845013 5.67038 0
M  V30 1041 H 90.7072 -0.125612 5.99969 0
M  V30 1042 H 91.7772 0.633724 4.80741 0
M  V30 1043 N 93.1203 -1.57491 0.0584922 0
M  V30 1044 C 94.3693 -1.92155 -0.613146 0
M  V30 1045 C 94.6823 -0.939334 -1.71569 0
M  V30 1046 O 95.8883 -1.17829 -2.44599 0
M  V30 1047 C 94.3443 -3.41303 -1.14195 0
M  V30 1048 C 93.9523 -4.47944 -0.0711265 0
M  V30 1049 C 95.6963 -3.84988 -1.78841 0
M  V30 1050 C 93.6033 -5.88212 -0.613225 0
M  V30 1051 H 92.5333 -0.717162 -0.232796 0
M  V30 1052 H 95.1843 -1.83049 0.12857 0
M  V30 1053 H 93.5663 -3.45437 -1.93621 0
M  V30 1054 H 94.7403 -4.55408 0.702836 0
M  V30 1055 H 93.0553 -4.13644 0.478313 0
M  V30 1056 H 95.6523 -4.87159 -2.20408 0
M  V30 1057 H 95.9953 -3.21632 -2.64308 0
M  V30 1058 H 96.5283 -3.83401 -1.06059 0
M  V30 1059 H 93.2673 -6.55183 0.203978 0
M  V30 1060 H 92.7873 -5.84294 -1.35501 0
M  V30 1061 H 94.4663 -6.37687 -1.09383 0
M  V30 1062 N 94.5984 0.214957 -1.56127 0
M  V30 1063 C 95.8754 0.963093 -1.70247 0
M  V30 1064 C 96.2554 2.02166 -0.60764 0
M  V30 1065 O 95.6034 2.25244 0.384385 0
M  V30 1066 C 95.8134 1.56756 -3.11815 0
M  V30 1067 C 97.1614 2.0573 -3.7143 0
M  V30 1068 O 98.1854 1.66637 -3.14818 0
M  V30 1069 O 97.0444 2.77603 -4.70743 0
M  V30 1070 H 94.1384 0.450321 -0.693643 0
M  V30 1071 H 96.6844 0.206219 -1.68442 0
M  V30 1072 H 95.4564 0.803533 -3.82961 0
M  V30 1073 H 95.0794 2.3898 -3.17765 0
M  V30 1074 N 96.0765 1.50051 0.48192 0
M  V30 1075 C 97.3245 1.60181 1.23234 0
M  V30 1076 C 97.6455 0.299176 1.92691 0
M  V30 1077 O 96.9155 -0.682708 1.83619 0
M  V30 1078 H 95.4955 0.590232 0.457859 0
M  V30 1079 H 98.1575 1.86775 0.556881 0
M  V30 1080 H 97.2535 2.40753 1.98607 0
M  V30 1081 N 97.5546 -0.734337 1.39446 0
M  V30 1082 C 98.5176 -1.83004 1.37994 0
M  V30 1083 C 99.5176 -1.58397 0.276938 0
M  V30 1084 O 100.708 -1.65785 0.534875 0
M  V30 1085 C 97.8396 -3.20802 1.1532 0
M  V30 1086 H 99.0326 -1.85694 2.35494 0
M  V30 1087 H 96.5856 -0.938059 1.25021 0
M  V30 1088 H 97.3206 -3.23772 0.185036 0
M  V30 1089 H 97.1056 -3.4006 1.95197 0
M  V30 1090 H 98.5956 -4.00862 1.17046 0
M  V30 1091 N 99.0327 -1.24633 -0.964593 0
M  V30 1092 C 99.9827 -1.00841 -2.04487 0
M  V30 1093 C 100.967 0.0512468 -1.60818 0
M  V30 1094 O 102.159 -0.162865 -1.76249 0
M  V30 1095 C 99.2877 -0.618474 -3.37683 0
M  V30 1096 C 98.3737 -1.71437 -3.87905 0
M  V30 1097 N 98.7647 -2.9477 -4.11029 0
M  V30 1098 C 97.0627 -1.5926 -4.16596 0
M  V30 1099 C 97.7637 -3.65834 -4.52261 0
M  V30 1100 N 96.7397 -2.9341 -4.57615 0
M  V30 1101 H 100.542 -1.94487 -2.20345 0
M  V30 1102 H 98.0557 -1.14805 -1.14863 0
M  V30 1103 H 100.053 -0.429247 -4.14684 0
M  V30 1104 H 98.7127 0.310766 -3.23209 0
M  V30 1105 H 99.7237 -3.30917 -3.9839 0
M  V30 1106 H 96.4007 -0.731606 -4.1104 0
M  V30 1107 H 97.7907 -4.71646 -4.78539 0
M  V30 1108 N 100.511 1.16574 -1.06058 0
M  V30 1109 C 101.458 2.20883 -0.669263 0
M  V30 1110 C 102.428 1.62729 0.332918 0
M  V30 1111 O 103.613 1.895 0.222346 0
M  V30 1112 C 100.753 3.45049 -0.0593572 0
M  V30 1113 C 99.8658 4.17458 -1.11143 0
M  V30 1114 C 99.0008 5.29135 -0.467916 0
M  V30 1115 C 98.0398 5.93343 -1.50369 0
M  V30 1116 N 97.1768 6.96516 -0.883706 0
M  V30 1117 H 102.017 2.53709 -1.5632 0
M  V30 1118 H 99.5538 1.24616 -0.781625 0
M  V30 1119 H 101.512 4.16033 0.311771 0
M  V30 1120 H 100.142 3.12781 0.797992 0
M  V30 1121 H 99.1938 3.45101 -1.60029 0
M  V30 1122 H 100.506 4.61307 -1.89731 0
M  V30 1123 H 99.6598 6.06684 -0.0436871 0
M  V30 1124 H 98.3988 4.86443 0.349864 0
M  V30 1125 H 97.4038 5.14517 -1.93784 0
M  V30 1126 H 98.6288 6.38114 -2.32352 0
M  V30 1127 H 96.5748 6.55943 -0.086595 0
M  V30 1128 H 96.4918 7.38723 -1.607 0
M  V30 1129 H 97.7598 7.77993 -0.484543 0
M  V30 1130 N 101.989 0.842826 1.3317 0
M  V30 1131 C 103.238 0.436738 1.96915 0
M  V30 1132 C 103.551 -1.01025 1.67491 0
M  V30 1133 O 104.757 -1.5212 2.24881 0
M  V30 1134 C 103.213 0.730021 3.52418 0
M  V30 1135 C 102.821 2.19195 3.90714 0
M  V30 1136 C 104.565 0.391076 4.22695 0
M  V30 1137 C 102.472 2.42907 5.39212 0
M  V30 1138 H 101.402 0.15958 0.736919 0
M  V30 1139 H 104.053 1.03196 1.51733 0
M  V30 1140 H 102.435 0.0643755 3.95948 0
M  V30 1141 H 103.609 2.8984 3.58231 0
M  V30 1142 H 101.924 2.49425 3.33431 0
M  V30 1143 H 104.521 0.545817 5.31907 0
M  V30 1144 H 104.864 -0.666294 4.10933 0
M  V30 1145 H 105.397 1.01212 3.84709 0
M  V30 1146 H 102.136 3.47224 5.55982 0
M  V30 1147 H 101.656 1.76827 5.73142 0
M  V30 1148 H 103.335 2.2626 6.06148 0
M  V30 1149 N 103.467 -1.45747 0.599634 0
M  V30 1150 C 104.695 -2.06668 0.0978551 0
M  V30 1151 C 105.11 -1.44562 -1.21439 0
M  V30 1152 O 104.467 -0.556923 -1.73795 0
M  V30 1153 C 104.518 -3.61456 -0.0567044 0
M  V30 1154 O 104.239 -4.21242 1.20361 0
M  V30 1155 C 105.74 -4.39345 -0.590869 0
M  V30 1156 H 102.96 -0.667825 0.0651943 0
M  V30 1157 H 105.504 -1.87115 0.82511 0
M  V30 1158 H 103.659 -3.80378 -0.734251 0
M  V30 1159 H 104.073 -5.14323 1.02821 0
M  V30 1160 H 105.547 -5.48182 -0.648131 0
M  V30 1161 H 106.024 -4.08568 -1.61147 0
M  V30 1162 H 106.63 -4.25268 0.0523679 0
M  V30 1163 N 104.945 -0.338344 -1.53925 0
M  V30 1164 C 105.877 0.555117 -2.22376 0
M  V30 1165 C 106.89 1.06812 -1.22862 0
M  V30 1166 O 108.079 0.979163 -1.49247 0
M  V30 1167 C 105.179 1.77609 -2.88631 0
M  V30 1168 C 104.352 1.39927 -4.14414 0
M  V30 1169 C 103.411 2.47936 -4.64127 0
M  V30 1170 O 102.437 2.11461 -5.28463 0
M  V30 1171 N 103.639 3.79107 -4.39612 0
M  V30 1172 H 106.404 -0.0310778 -2.99684 0
M  V30 1173 H 103.965 -0.162226 -1.61085 0
M  V30 1174 H 105.957 2.49287 -3.18807 0
M  V30 1175 H 104.527 2.26978 -2.14941 0
M  V30 1176 H 103.747 0.513481 -3.90841 0
M  V30 1177 H 105.035 1.12341 -4.96243 0
M  V30 1178 H 104.433 4.11531 -3.88148 0
M  V30 1179 H 102.99 4.4697 -4.74406 0
M  V30 1180 N 106.423 1.57458 -0.0668435 0
M  V30 1181 C 107.648 1.9804 0.616027 0
M  V30 1182 C 108.073 0.944771 1.62652 0
M  V30 1183 O 107.431 -0.0902094 1.81075 0
M  V30 1184 C 107.479 3.37665 1.26549 0
M  V30 1185 O 106.583 3.36701 2.38131 0
M  V30 1186 H 105.924 0.644719 0.158849 0
M  V30 1187 H 108.454 2.04121 -0.139891 0
M  V30 1188 H 108.464 3.7474 1.6135 0
M  V30 1189 H 107.139 4.12573 0.525016 0
M  V30 1190 H 105.716 3.1139 2.0516 0
M  V30 1191 N 107.901 -0.206675 1.56239 0
M  V30 1192 C 108.849 -1.27571 1.94495 0
M  V30 1193 C 109.843 -1.47737 0.828862 0
M  V30 1194 O 111.049 -1.48735 1.0138 0
M  V30 1195 H 107.424 -0.428029 0.6183 0
M  V30 1196 H 109.395 -0.925961 2.8367 0
M  V30 1197 C 108.144 -2.61568 2.29079 0
M  V30 1198 H 107.467 -2.46863 3.14482 0
M  V30 1199 H 108.907 -3.35144 2.5972 0
M  V30 1200 C 107.366 -3.17695 1.12123 0
M  V30 1201 O 107.896 -3.99801 0.390153 0
M  V30 1202 N 106.102 -2.76276 0.901097 0
M  V30 1203 H 105.649 -2.09613 1.49733 0
M  V30 1204 H 105.607 -3.1417 0.120319 0
M  V30 1205 N 109.379 -1.50304 -0.473955 0
M  V30 1206 C 110.342 -1.6841 -1.55469 0
M  V30 1207 C 111.342 -0.554905 -1.50922 0
M  V30 1208 O 112.532 -0.821882 -1.53593 0
M  V30 1209 C 109.664 -1.70667 -2.95102 0
M  V30 1210 H 110.857 -2.64828 -1.40733 0
M  V30 1211 H 108.41 -1.39742 -0.700132 0
M  V30 1212 H 109.145 -0.75932 -3.15285 0
M  V30 1213 H 108.93 -2.52698 -2.9981 0
M  V30 1214 H 110.42 -1.8664 -3.73571 0
M  V30 1215 N 110.857 0.726932 -1.39834 0
M  V30 1216 C 112.106 1.48214 -1.36805 0
M  V30 1217 C 112.419 1.95576 0.0305291 0
M  V30 1218 O 113.625 2.7088 0.183417 0
M  V30 1219 C 112.081 2.67854 -2.40379 0
M  V30 1220 C 111.689 2.27408 -3.85992 0
M  V30 1221 C 113.433 3.45641 -2.46439 0
M  V30 1222 C 111.34 3.43819 -4.81189 0
M  V30 1223 H 110.27 0.556606 -0.508631 0
M  V30 1224 H 112.921 0.792216 -1.65518 0
M  V30 1225 H 111.303 3.3896 -2.04749 0
M  V30 1226 H 112.477 1.63795 -4.30706 0
M  V30 1227 H 110.792 1.62692 -3.83302 0
M  V30 1228 H 113.389 4.32244 -3.14753 0
M  V30 1229 H 113.732 3.88669 -1.49139 0
M  V30 1230 H 114.265 2.8157 -2.81004 0
M  V30 1231 H 111.004 3.05834 -5.79781 0
M  V30 1232 H 110.524 4.06385 -4.41148 0
M  V30 1233 H 112.203 4.10043 -5.00474 0
M  V30 1234 N 112.336 1.25143 0.95797 0
M  V30 1235 C 113.266 1.07711 2.07173 0
M  V30 1236 C 114.247 -0.0128462 1.70095 0
M  V30 1237 O 115.432 0.156061 1.93572 0
M  V30 1238 C 112.562 0.691503 3.40346 0
M  V30 1239 C 111.516 1.73132 3.9142 0
M  V30 1240 C 110.842 1.20049 5.21049 0
M  V30 1241 C 112.142 3.1294 4.1817 0
M  V30 1242 H 113.836 2.00873 2.22014 0
M  V30 1243 H 111.382 0.967191 1.06684 0
M  V30 1244 H 113.335 0.556505 4.17709 0
M  V30 1245 H 112.059 -0.275819 3.25433 0
M  V30 1246 H 110.718 1.8547 3.16222 0
M  V30 1247 H 110.366 0.223499 5.02503 0
M  V30 1248 H 110.066 1.89545 5.56189 0
M  V30 1249 H 111.59 1.07782 6.01012 0
M  V30 1250 H 113.004 3.03775 4.86203 0
M  V30 1251 H 111.401 3.79875 4.64559 0
M  V30 1252 H 112.471 3.6025 3.24573 0
M  V30 1253 N 113.814 -1.1601 1.06675 0
M  V30 1254 C 115.054 -1.88304 0.795037 0
M  V30 1255 C 115.418 -1.80062 -0.666466 0
M  V30 1256 O 116.619 -2.47319 -1.05293 0
M  V30 1257 C 114.89 -3.33664 1.28076 0
M  V30 1258 S 116.449 -4.23768 1.13868 0
M  V30 1259 H 113.267 -0.649928 0.288296 0
M  V30 1260 H 115.869 -1.4001 1.36445 0
M  V30 1261 H 114.573 -3.37203 2.33927 0
M  V30 1262 H 114.104 -3.87009 0.706253 0
M  V30 1263 H 116.119 -4.96148 0.0719668 0
M  V30 1264 N 115.292 -0.849877 -1.32721 0
M  V30 1265 C 116.522 -0.46408 -2.0132 0
M  V30 1266 C 116.93 0.94246 -1.64056 0
M  V30 1267 O 116.273 1.6257 -0.855379 0
M  V30 1268 C 116.335 -0.517887 -3.5575 0
M  V30 1269 C 115.999 -1.88248 -4.16427 0
M  V30 1270 C 116.996 -2.84726 -4.35002 0
M  V30 1271 C 114.681 -2.17832 -4.52609 0
M  V30 1272 C 116.675 -4.08945 -4.8892 0
M  V30 1273 C 114.362 -3.42304 -5.06232 0
M  V30 1274 C 115.36 -4.37677 -5.24335 0
M  V30 1275 O 115.048 -5.59946 -5.76815 0
M  V30 1276 H 114.78 -0.181327 -0.651227 0
M  V30 1277 H 117.334 -1.14713 -1.70382 0
M  V30 1278 H 115.564 0.221997 -3.86062 0
M  V30 1279 H 117.253 -0.148366 -4.05629 0
M  V30 1280 H 118.019 -2.63174 -4.07388 0
M  V30 1281 H 113.898 -1.44385 -4.37806 0
M  V30 1282 H 117.442 -4.83396 -5.02966 0
M  V30 1283 H 113.339 -3.63709 -5.33278 0
M  V30 1284 H 114.107 -5.61838 -5.95214 0
M  V30 1285 N 116.77 1.45427 -0.607355 0
M  V30 1286 C 118.019 2.01452 -0.100036 0
M  V30 1287 C 118.332 1.48159 1.27704 0
M  V30 1288 O 119.538 1.96159 1.87707 0
M  V30 1289 C 117.994 3.59672 -0.128158 0
M  V30 1290 C 117.602 4.21962 -1.50507 0
M  V30 1291 C 119.346 4.23262 0.323932 0
M  V30 1292 C 117.253 5.72333 -1.48959 0
M  V30 1293 H 116.183 0.75325 -0.0336299 0
M  V30 1294 H 118.834 1.66901 -0.76265 0
M  V30 1295 H 117.216 3.91411 0.601105 0
M  V30 1296 H 118.39 4.01796 -2.25602 0
M  V30 1297 H 116.705 3.70565 -1.89923 0
M  V30 1298 H 119.302 5.33522 0.354691 0
M  V30 1299 H 119.645 3.93921 1.34656 0
M  V30 1300 H 120.178 3.96239 -0.352056 0
M  V30 1301 H 116.917 6.06373 -2.48981 0
M  V30 1302 H 116.437 5.94691 -0.781214 0
M  V30 1303 H 118.116 6.35525 -1.21313 0
M  V30 1304 N 118.248 0.346503 1.53744 0
M  V30 1305 C 119.211 -0.496439 2.23759 0
M  V30 1306 C 120.211 -1.0252 1.2388 0
M  V30 1307 O 121.401 -0.913974 1.48297 0
M  V30 1308 C 118.533 -1.69187 2.95954 0
M  V30 1309 H 119.726 0.115952 2.99676 0
M  V30 1310 H 117.279 0.0978939 1.55993 0
M  V30 1311 H 118.014 -2.34288 2.24231 0
M  V30 1312 H 117.799 -1.31989 3.69217 0
M  V30 1313 H 119.289 -2.28969 3.49232 0
M  V30 1314 N 119.726 -1.57421 0.075193 0
M  V30 1315 C 121.142 -1.57099 -0.281444 0
M  V30 1316 C 121.342 -1.08486 -1.69803 0
M  V30 1317 O 120.398 -0.752279 -2.41033 0
M  V30 1318 C 121.711 -3.00571 -0.0880041 0
M  V30 1319 C 123.259 -3.12605 -0.157281 0
M  V30 1320 C 123.734 -4.57999 0.0079207 0
M  V30 1321 N 125.225 -4.63176 -0.0475725 0
M  V30 1322 C 125.96 -5.73373 0.0557876 0
M  V30 1323 N 125.456 -6.92473 0.21286 0
M  V30 1324 N 127.249 -5.621 -0.00152098 0
M  V30 1325 H 119.4 -1.87335 1.00098 0
M  V30 1326 H 121.663 -0.86377 0.390646 0
M  V30 1327 H 121.369 -3.40262 0.889629 0
M  V30 1328 H 121.243 -3.67754 -0.838875 0
M  V30 1329 H 123.63 -2.72798 -1.1254 0
M  V30 1330 H 123.711 -2.48053 0.62475 0
M  V30 1331 H 123.355 -4.98496 0.972824 0
M  V30 1332 H 123.285 -5.20586 -0.793556 0
M  V30 1333 H 125.776 -3.7753 -0.167244 0
M  V30 1334 H 126.089 -7.72279 0.283781 0
M  V30 1335 H 124.434 -6.94556 0.248267 0
M  V30 1336 H 127.625 -4.67938 -0.122958 0
M  V30 1337 H 127.798 -6.47948 0.0824844 0
M  V30 1338 N 121.204 0.198386 -1.56346 0
M  V30 1339 C 122.151 1.24589 -1.94284 0
M  V30 1340 C 123.121 1.454 -0.802997 0
M  V30 1341 O 124.306 1.58588 -1.06087 0
M  V30 1342 C 121.446 2.58631 -2.28482 0
M  V30 1343 C 120.559 2.45426 -3.55514 0
M  V30 1344 C 119.694 3.7215 -3.79049 0
M  V30 1345 C 118.733 3.53763 -4.99518 0
M  V30 1346 N 117.87 4.72491 -5.19323 0
M  V30 1347 H 122.71 0.915356 -2.83593 0
M  V30 1348 H 120.247 0.440629 -1.40346 0
M  V30 1349 H 122.205 3.3672 -2.46324 0
M  V30 1350 H 120.835 2.89734 -1.42317 0
M  V30 1351 H 119.887 1.58652 -3.45737 0
M  V30 1352 H 121.199 2.27772 -4.43758 0
M  V30 1353 H 120.353 4.58679 -3.97113 0
M  V30 1354 H 119.092 3.92754 -2.89129 0
M  V30 1355 H 118.097 2.65619 -4.8138 0
M  V30 1356 H 119.322 3.34607 -5.90944 0
M  V30 1357 H 117.268 4.93365 -4.3235 0
M  V30 1358 H 117.185 4.5765 -6.01741 0
M  V30 1359 H 118.453 5.6038 -5.41843 0
M  V30 1360 N 122.682 1.50554 0.465978 0
M  V30 1361 C 123.632 1.66177 1.56106 0
M  V30 1362 C 124.616 0.516265 1.52393 0
M  V30 1363 O 125.808 0.770906 1.5933 0
M  V30 1364 C 122.937 1.76396 2.94515 0
M  V30 1365 C 122.023 2.9664 3.03093 0
M  V30 1366 N 122.414 4.20245 2.81474 0
M  V30 1367 C 120.712 2.95304 3.34233 0
M  V30 1368 C 121.413 5.01259 2.95151 0
M  V30 1369 N 120.389 4.35318 3.25576 0
M  V30 1370 H 124.191 2.59434 1.38099 0
M  V30 1371 H 121.705 1.47808 0.6728 0
M  V30 1372 H 123.702 1.85694 3.73261 0
M  V30 1373 H 122.362 0.843017 3.13565 0
M  V30 1374 H 123.373 4.4966 2.56956 0
M  V30 1375 H 120.05 2.12729 3.59239 0
M  V30 1376 H 121.44 6.09564 2.82632 0
M  V30 1377 N 124.16 -0.719506 1.40217 0
M  V30 1378 C 125.108 -1.85493 1.40339 0
M  V30 1379 C 126.102 -1.66995 0.284415 0
M  V30 1380 O 127.308 -1.74148 0.455252 0
M  V30 1381 H 123.683 -0.610857 0.438586 0
M  V30 1382 H 125.654 -1.82506 2.36081 0
M  V30 1383 C 124.403 -3.23321 1.27901 0
M  V30 1384 H 123.726 -3.38159 2.1328 0
M  V30 1385 H 125.166 -4.02914 1.32045 0
M  V30 1386 C 123.625 -3.36898 -0.0111355 0
M  V30 1387 O 124.155 -3.89674 -0.975538 0
M  V30 1388 N 122.361 -2.90492 -0.0793393 0
M  V30 1389 H 121.908 -2.47731 0.706183 0
M  V30 1390 H 121.866 -2.99955 -0.942038 0
M  V30 1391 N 125.638 -1.25649 -0.95132 0
M  V30 1392 C 126.568 -1.08808 -2.06599 0
M  V30 1393 C 127.549 0.00382547 -1.701 0
M  V30 1394 O 128.734 -0.166325 -1.93486 0
M  V30 1395 C 125.864 -0.709542 -3.39975 0
M  V30 1396 C 124.818 -1.75206 -3.90496 0
M  V30 1397 C 124.144 -1.22811 -5.20405 0
M  V30 1398 C 125.444 -3.15153 -4.16504 0
M  V30 1399 H 127.138 -2.02048 -2.20946 0
M  V30 1400 H 124.684 -0.972835 -1.06169 0
M  V30 1401 H 126.637 -0.578649 -4.17408 0
M  V30 1402 H 125.361 0.258556 -3.25575 0
M  V30 1403 H 124.02 -1.87145 -3.15234 0
M  V30 1404 H 123.668 -0.250145 -5.02378 0
M  V30 1405 H 123.368 -1.92492 -5.55176 0
M  V30 1406 H 124.892 -1.10968 -6.00432 0
M  V30 1407 H 126.306 -3.06349 -4.84586 0
M  V30 1408 H 124.703 -3.82333 -4.62538 0
M  V30 1409 H 125.773 -3.61966 -3.22658 0
M  V30 1410 N 127.117 1.15442 -1.07289 0
M  V30 1411 C 128.357 1.8788 -0.805012 0
M  V30 1412 C 128.721 1.80413 0.656907 0
M  V30 1413 O 129.922 2.47874 1.0398 0
M  V30 1414 C 128.193 3.3298 -1.29843 0
M  V30 1415 S 129.752 4.23158 -1.16114 0
M  V30 1416 H 126.57 0.64839 -0.291739 0
M  V30 1417 H 129.172 1.39285 -1.37186 0
M  V30 1418 H 127.876 3.35958 -2.35712 0
M  V30 1419 H 127.407 3.86629 -0.726767 0
M  V30 1420 H 129.422 4.96103 -0.0982778 0
M  V30 1421 N 128.595 0.856903 1.32268 0
M  V30 1422 C 129.843 0.460474 1.96784 0
M  V30 1423 C 130.164 -0.987701 1.68135 0
M  V30 1424 O 129.434 -1.69058 0.989765 0
M  V30 1425 H 128.014 0.167289 0.728027 0
M  V30 1426 H 130.676 1.09383 1.61312 0
M  V30 1427 H 129.772 0.60739 3.06133 0
M  V30 1428 N 130.073 -1.45103 0.615059 0
M  V30 1429 C 130.983 -2.34382 -0.101034 0
M  V30 1430 C 131.999 -1.51681 -0.852585 0
M  V30 1431 O 133.175 -1.8446 -0.808484 0
M  V30 1432 C 130.24 -3.29417 -1.08099 0
M  V30 1433 C 129.301 -4.28025 -0.330577 0
M  V30 1434 C 128.534 -5.1852 -1.26385 0
M  V30 1435 O 128.757 -5.12598 -2.50198 0
M  V30 1436 O 127.691 -5.97122 -0.756866 0
M  V30 1437 H 131.517 -2.97033 0.632855 0
M  V30 1438 H 129.102 -1.4461 0.375293 0
M  V30 1439 H 130.984 -3.87958 -1.6452 0
M  V30 1440 H 129.659 -2.69321 -1.79577 0
M  V30 1441 H 128.566 -3.73078 0.276283 0
M  V30 1442 H 129.899 -4.90997 0.343866 0
M  V30 1443 N 131.551 -0.354651 -1.53558 0
M  V30 1444 C 132.779 0.239515 -2.05509 0
M  V30 1445 C 133.194 1.4333 -1.2289 0
M  V30 1446 O 132.551 1.80538 -0.266899 0
M  V30 1447 C 132.602 0.643719 -3.55723 0
M  V30 1448 O 132.323 -0.502602 -4.35207 0
M  V30 1449 C 133.824 1.29743 -4.23889 0
M  V30 1450 H 131.044 0.0442697 -0.669538 0
M  V30 1451 H 133.588 -0.509856 -1.98042 0
M  V30 1452 H 131.743 1.34302 -3.63376 0
M  V30 1453 H 132.157 -0.178172 -5.24197 0
M  V30 1454 H 133.631 1.53091 -5.30346 0
M  V30 1455 H 134.108 2.25441 -3.76926 0
M  V30 1456 H 134.714 0.639865 -4.20459 0
M  V30 1457 N 133.029 1.57378 -0.0835403 0
M  V30 1458 C 133.939 2.16897 0.894021 0
M  V30 1459 C 134.955 1.13528 1.31861 0
M  V30 1460 O 136.131 1.45848 1.3889 0
M  V30 1461 C 133.196 2.72831 2.13925 0
M  V30 1462 C 132.257 3.91115 1.76997 0
M  V30 1463 C 131.49 4.44371 2.95584 0
M  V30 1464 O 131.713 3.96596 4.09961 0
M  V30 1465 O 130.647 5.35549 2.74719 0
M  V30 1466 H 134.473 3.00814 0.417679 0
M  V30 1467 H 132.058 1.48741 0.140181 0
M  V30 1468 H 133.94 3.0863 2.86924 0
M  V30 1469 H 132.615 1.91967 2.60635 0
M  V30 1470 H 131.522 3.60148 1.01214 0
M  V30 1471 H 132.855 4.73307 1.3506 0
M  V30 1472 N 134.507 -0.190092 1.56449 0
M  V30 1473 C 135.417 -1.25591 1.98152 0
M  V30 1474 C 136.433 -1.49519 0.889944 0
M  V30 1475 O 137.609 -1.62036 1.19609 0
M  V30 1476 C 134.674 -2.57916 2.3169 0
M  V30 1477 C 133.735 -2.42015 3.5458 0
M  V30 1478 C 132.968 -3.6803 3.8651 0
M  V30 1479 O 133.191 -4.72413 3.1966 0
M  V30 1480 O 132.125 -3.6326 4.79923 0
M  V30 1481 H 135.951 -0.931988 2.89046 0
M  V30 1482 H 133.536 -0.395488 1.4407 0
M  V30 1483 H 135.418 -3.36008 2.54316 0
M  V30 1484 H 134.093 -2.89925 1.43963 0
M  V30 1485 H 133 -1.62017 3.37196 0
M  V30 1486 H 134.333 -2.14937 4.4279 0
M  V30 1487 N 135.985 -1.50799 -0.457987 0
M  V30 1488 C 136.895 -1.73426 -1.57989 0
M  V30 1489 C 137.911 -0.617745 -1.62665 0
M  V30 1490 O 139.087 -0.897614 -1.80291 0
M  V30 1491 C 136.152 -1.83557 -2.94122 0
M  V30 1492 C 135.213 -3.07345 -2.99729 0
M  V30 1493 C 134.446 -3.16983 -4.29368 0
M  V30 1494 O 134.669 -2.33077 -5.20607 0
M  V30 1495 O 133.603 -4.09812 -4.40837 0
M  V30 1496 H 137.429 -2.68555 -1.41817 0
M  V30 1497 H 135.014 -1.35052 -0.638859 0
M  V30 1498 H 136.896 -1.92326 -3.74952 0
M  V30 1499 H 135.571 -0.916137 -3.10465 0
M  V30 1500 H 134.478 -3.04068 -2.1793 0
M  V30 1501 H 135.811 -3.9891 -2.88326 0
M  V30 1502 N 137.463 0.71206 -1.40597 0
M  V30 1503 C 138.41 1.82613 -1.41142 0
M  V30 1504 C 139.38 1.63925 -0.267903 0
M  V30 1505 O 140.565 1.85009 -0.466495 0
M  V30 1506 C 137.705 3.20354 -1.28324 0
M  V30 1507 C 136.818 3.50589 -2.52411 0
M  V30 1508 C 135.953 4.77855 -2.32009 0
M  V30 1509 C 134.992 5.01005 -3.51654 0
M  V30 1510 N 134.129 6.19487 -3.30425 0
M  V30 1511 H 138.969 1.81482 -2.36365 0
M  V30 1512 H 136.506 0.886475 -1.17388 0
M  V30 1513 H 138.464 3.99899 -1.18899 0
M  V30 1514 H 137.094 3.20705 -0.367189 0
M  V30 1515 H 136.146 2.65573 -2.72351 0
M  V30 1516 H 137.458 3.63604 -3.41458 0
M  V30 1517 H 136.612 5.65424 -2.19956 0
M  V30 1518 H 135.351 4.67056 -1.40392 0
M  V30 1519 H 134.356 4.1189 -3.64179 0
M  V30 1520 H 135.581 5.13674 -4.44202 0
M  V30 1521 H 133.527 6.09932 -2.41494 0
M  V30 1522 H 133.444 6.33194 -4.13039 0
M  V30 1523 H 134.712 7.09834 -3.22113 0
M  V30 1524 N 138.941 1.26152 0.944643 0
M  V30 1525 C 140.19 1.10883 1.68487 0
M  V30 1526 C 140.503 -0.348153 1.92477 0
M  V30 1527 O 141.709 -0.621459 2.64292 0
M  V30 1528 C 140.165 1.93624 3.03377 0
M  V30 1529 C 139.773 3.43875 2.87148 0
M  V30 1530 C 141.517 1.86954 3.81115 0
M  V30 1531 C 139.424 4.18875 4.1749 0
M  V30 1532 H 138.354 0.41135 0.631907 0
M  V30 1533 H 141.005 1.50433 1.05082 0
M  V30 1534 H 139.387 1.46904 3.67743 0
M  V30 1535 H 140.561 3.98338 2.31653 0
M  V30 1536 H 138.876 3.51744 2.22856 0
M  V30 1537 H 141.473 2.40275 4.77673 0
M  V30 1538 H 141.816 0.839518 4.07747 0
M  V30 1539 H 142.349 2.31477 3.23517 0
M  V30 1540 H 139.088 5.22332 3.96043 0
M  V30 1541 H 138.608 3.69193 4.72712 0
M  V30 1542 H 140.287 4.27134 4.85968 0
M  V30 1543 N 140.419 -1.14872 1.07899 0
M  V30 1544 C 141.835 -1.37776 0.805606 0
M  V30 1545 C 142.035 -1.92743 -0.587555 0
M  V30 1546 O 141.091 -2.13678 -1.34528 0
M  V30 1547 C 142.404 -2.34361 1.88402 0
M  V30 1548 C 143.952 -2.48012 1.90942 0
M  V30 1549 C 144.427 -3.47893 2.97883 0
M  V30 1550 N 145.918 -3.55433 2.97021 0
M  V30 1551 C 146.653 -4.32553 3.76412 0
M  V30 1552 N 146.149 -5.12959 4.65666 0
M  V30 1553 N 147.942 -4.27697 3.64735 0
M  V30 1554 H 140.093 -0.775365 1.97742 0
M  V30 1555 H 142.356 -0.403521 0.857831 0
M  V30 1556 H 142.062 -2.01098 2.88535 0
M  V30 1557 H 141.936 -3.34206 1.74889 0
M  V30 1558 H 144.323 -2.8057 0.914579 0
M  V30 1559 H 144.404 -1.48147 2.08534 0
M  V30 1560 H 144.048 -3.16069 3.97571 0
M  V30 1561 H 143.978 -4.47527 2.77538 0
M  V30 1562 H 146.469 -2.98048 2.32326 0
M  V30 1563 H 146.782 -5.69065 5.22862 0
M  V30 1564 H 145.127 -5.12245 4.69712 0
M  V30 1565 H 148.318 -3.63949 2.94378 0
M  V30 1566 H 148.491 -4.8755 4.26848 0
M  V30 1567 N 141.898 -0.863906 -1.31812 0
M  V30 1568 C 143.144 -0.472535 -1.97218 0
M  V30 1569 C 143.477 0.971394 -1.68159 0
M  V30 1570 O 142.752 1.68309 -0.974798 0
M  V30 1571 C 143.035 -0.723054 -3.52766 0
M  V30 1572 C 142.888 -2.21608 -3.91421 0
M  V30 1573 C 144.207 -0.185522 -4.39709 0
M  V30 1574 H 141.326 -0.173158 -0.71637 0
M  V30 1575 H 143.968 -1.08403 -1.56041 0
M  V30 1576 H 142.118 -0.202577 -3.87971 0
M  V30 1577 H 143.79 -2.80334 -3.66347 0
M  V30 1578 H 142.033 -2.691 -3.40246 0
M  V30 1579 H 142.704 -2.34203 -4.99853 0
M  V30 1580 H 145.18 -0.630726 -4.11292 0
M  V30 1581 H 144.056 -0.390306 -5.47511 0
M  V30 1582 H 144.317 0.912229 -4.32586 0
M  V30 1583 N 143.376 1.44774 -0.622745 0
M  V30 1584 C 144.653 1.95522 -0.0551974 0
M  V30 1585 C 145.033 1.5649 1.41683 0
M  V30 1586 O 144.381 0.834848 2.12703 0
M  V30 1587 C 144.591 3.4796 -0.269242 0
M  V30 1588 C 145.939 4.24306 -0.158014 0
M  V30 1589 O 146.963 3.55637 -0.200162 0
M  V30 1590 O 145.822 5.46471 -0.0558693 0
M  V30 1591 H 142.916 0.826556 0.0271015 0
M  V30 1592 H 145.462 1.54866 -0.693864 0
M  V30 1593 H 144.234 3.6939 -1.29099 0
M  V30 1594 H 143.857 3.95543 0.403966 0
M  V30 1595 N 144.854 0.36279 1.53368 0
M  V30 1596 C 146.103 -0.22888 2.00397 0
M  V30 1597 C 146.416 -1.50096 1.25421 0
M  V30 1598 O 147.622 -2.17106 1.63025 0
M  V30 1599 C 146.078 -0.458417 3.56969 0
M  V30 1600 C 145.686 0.798877 4.4082 0
M  V30 1601 C 147.43 -1.00789 4.12361 0
M  V30 1602 C 145.337 0.539078 5.88938 0
M  V30 1603 H 144.267 -0.089305 0.748693 0
M  V30 1604 H 146.918 0.481099 1.77081 0
M  V30 1605 H 145.3 -1.22959 3.76427 0
M  V30 1606 H 146.474 1.57262 4.33134 0
M  V30 1607 H 144.789 1.27137 3.96516 0
M  V30 1608 H 147.386 -1.21754 5.20653 0
M  V30 1609 H 147.729 -1.9692 3.66781 0
M  V30 1610 H 148.262 -0.296961 3.9669 0
M  V30 1611 H 145.001 1.47064 6.3879 0
M  V30 1612 H 144.521 -0.196222 5.99479 0
M  V30 1613 H 146.2 0.163542 6.46793 0
M  V30 1614 N 146.332 -1.57332 0.0918853 0
M  V30 1615 C 147.262 -2.16872 -0.865371 0
M  V30 1616 C 148.243 -1.10118 -1.29646 0
M  V30 1617 O 149.428 -1.38242 -1.36392 0
M  V30 1618 C 146.558 -2.74649 -2.12569 0
M  V30 1619 C 145.512 -3.86747 -1.83333 0
M  V30 1620 C 144.838 -4.31212 -3.16166 0
M  V30 1621 C 146.138 -5.10089 -1.1228 0
M  V30 1622 H 147.832 -2.97114 -0.369307 0
M  V30 1623 H 145.378 -1.42918 -0.176194 0
M  V30 1624 H 147.331 -3.14952 -2.7997 0
M  V30 1625 H 146.055 -1.91657 -2.64452 0
M  V30 1626 H 144.714 -3.46978 -1.18331 0
M  V30 1627 H 144.362 -3.45115 -3.6593 0
M  V30 1628 H 144.062 -5.06788 -2.97388 0
M  V30 1629 H 145.586 -4.74146 -3.84731 0
M  V30 1630 H 147 -5.47582 -1.69785 0
M  V30 1631 H 145.397 -5.91073 -1.03693 0
M  V30 1632 H 146.467 -4.84786 -0.105041 0
M  V30 1633 N 147.81 0.181792 -1.56548 0
M  V30 1634 C 148.72 1.24538 -1.98815 0
M  V30 1635 C 149.736 1.49045 -0.897861 0
M  V30 1636 O 150.912 1.61399 -1.20467 0
M  V30 1637 C 147.977 2.56683 -2.33055 0
M  V30 1638 C 147.038 2.40131 -3.55859 0
M  V30 1639 C 146.271 3.65975 -3.88456 0
M  V30 1640 O 146.494 4.70711 -3.22161 0
M  V30 1641 O 145.428 3.6071 -4.81842 0
M  V30 1642 H 149.254 0.916647 -2.89536 0
M  V30 1643 H 146.839 0.387842 -1.44278 0
M  V30 1644 H 148.721 3.34655 -2.56094 0
M  V30 1645 H 147.396 2.89157 -1.45498 0
M  V30 1646 H 146.303 1.60226 -3.38051 0
M  V30 1647 H 147.636 2.12585 -4.43924 0
M  V30 1648 N 149.288 1.51039 0.449983 0
M  V30 1649 C 150.236 1.71995 1.5659 0
M  V30 1650 C 151.23 0.586029 1.5894 0
M  V30 1651 O 152.436 0.76709 1.62837 0
M  V30 1652 H 148.811 0.543233 0.520001 0
M  V30 1653 H 150.782 2.65562 1.36085 0
M  V30 1654 C 149.531 1.8506 2.9436 0
M  V30 1655 H 148.854 2.71712 2.93279 0
M  V30 1656 H 150.294 2.0374 3.71842 0
M  V30 1657 C 148.753 0.607277 3.31382 0
M  V30 1658 O 149.283 -0.243903 4.00959 0
M  V30 1659 N 147.489 0.455073 2.87015 0
M  V30 1660 H 147.036 1.14879 2.30566 0
M  V30 1661 H 146.994 -0.375611 3.12148 0
M  V30 1662 N 150.766 -0.704594 1.40972 0
M  V30 1663 C 151.698 -1.82974 1.38033 0
M  V30 1664 C 152.711 -1.60305 0.283931 0
M  V30 1665 O 153.9 -1.69975 0.545042 0
M  V30 1666 C 151 -3.19578 1.12795 0
M  V30 1667 C 150.173 -3.69352 2.34302 0
M  V30 1668 C 149.232 -4.84601 2.05058 0
M  V30 1669 O 148.258 -4.96682 2.7802 0
M  V30 1670 N 149.46 -5.71194 1.03528 0
M  V30 1671 H 152.225 -1.85991 2.35005 0
M  V30 1672 H 149.786 -0.886567 1.35468 0
M  V30 1673 H 151.778 -3.9429 0.911987 0
M  V30 1674 H 150.348 -3.11642 0.24452 0
M  V30 1675 H 149.568 -2.85649 2.71659 0
M  V30 1676 H 150.856 -3.99345 3.1528 0
M  V30 1677 H 150.254 -5.64054 0.431217 0
M  V30 1678 H 148.811 -6.45843 0.879205 0
M  V30 1679 N 152.244 -1.26651 -0.937939 0
M  V30 1680 C 153.472 -1.15173 -1.7188 0
M  V30 1681 C 153.887 0.292668 -1.86518 0
M  V30 1682 O 153.244 1.20014 -1.37488 0
M  V30 1683 C 153.295 -1.81925 -3.12387 0
M  V30 1684 O 153.016 -3.2072 -2.98446 0
M  V30 1685 C 154.517 -1.76442 -4.06673 0
M  V30 1686 H 151.737 -0.400911 -0.538063 0
M  V30 1687 H 154.281 -1.67332 -1.1756 0
M  V30 1688 H 152.436 -1.33696 -3.63599 0
M  V30 1689 H 152.85 -3.53802 -3.872 0
M  V30 1690 H 154.324 -2.27781 -5.02812 0
M  V30 1691 H 154.801 -0.731608 -4.33064 0
M  V30 1692 H 155.407 -2.24238 -3.61382 0
M  V30 1693 N 153.722 1.14298 -1.08507 0
M  V30 1694 C 154.655 2.18447 -0.660004 0
M  V30 1695 C 155.633 1.59242 0.328749 0
M  V30 1696 O 156.817 1.87062 0.232367 0
M  V30 1697 C 153.944 3.38688 0.0290807 0
M  V30 1698 C 152.99 4.1646 -0.919982 0
M  V30 1699 S 153.823 4.77334 -2.42718 0
M  V30 1700 C 154.979 6.00931 -1.75024 0
M  V30 1701 H 155.212 2.54166 -1.54231 0
M  V30 1702 H 152.745 1.25446 -0.900149 0
M  V30 1703 H 154.703 4.08342 0.420378 0
M  V30 1704 H 153.364 3.01289 0.887895 0
M  V30 1705 H 152.557 5.02529 -0.384751 0
M  V30 1706 H 152.159 3.52414 -1.25223 0
M  V30 1707 H 154.451 6.69017 -1.06877 0
M  V30 1708 H 155.394 6.59044 -2.58971 0
M  V30 1709 H 155.802 5.51089 -1.22317 0
M  V30 1710 N 155.201 0.870884 1.31352 0
M  V30 1711 C 156.478 0.402907 1.91405 0
M  V30 1712 C 156.858 -1.11512 1.79244 0
M  V30 1713 O 156.206 -1.94411 1.2007 0
M  V30 1714 C 156.416 0.885301 3.37585 0
M  V30 1715 C 157.764 0.911971 4.14691 0
M  V30 1716 O 158.788 0.831016 3.46371 0
M  V30 1717 O 157.647 1.02927 5.3672 0
M  V30 1718 H 154.741 0.120698 0.818145 0
M  V30 1719 H 157.287 0.958857 1.40014 0
M  V30 1720 H 156.059 1.92889 3.40455 0
M  V30 1721 H 155.682 0.307714 3.96407 0
M  V30 1722 N 156.679 -1.44442 0.630414 0
M  V30 1723 C 157.627 -2.32437 -0.0871428 0
M  V30 1724 C 158.621 -1.47304 -0.836525 0
M  V30 1725 O 159.827 -1.63653 -0.749506 0
M  V30 1726 H 156.202 -0.750533 -0.0469495 0
M  V30 1727 H 158.173 -2.90709 0.673096 0
M  V30 1728 C 156.922 -3.31288 -1.05563 0
M  V30 1729 H 156.245 -3.96805 -0.488426 0
M  V30 1730 H 157.685 -3.9554 -1.52721 0
M  V30 1731 C 156.144 -2.6016 -2.14052 0
M  V30 1732 O 156.674 -2.39997 -3.22124 0
M  V30 1733 N 154.88 -2.19911 -1.89967 0
M  V30 1734 H 154.427 -2.36509 -1.02085 0
M  V30 1735 H 154.385 -1.72646 -2.62756 0
M  V30 1736 N 158.157 -0.370918 -1.53173 0
M  V30 1737 C 159.107 0.489588 -2.22681 0
M  V30 1738 C 160.091 1.04442 -1.22395 0
M  V30 1739 O 161.283 0.973578 -1.47819 0
M  V30 1740 C 158.412 1.626 -3.02351 0
M  V30 1741 C 157.498 1.08379 -4.10018 0
M  V30 1742 N 157.889 0.265004 -5.05105 0
M  V30 1743 C 156.187 1.35809 -4.2482 0
M  V30 1744 C 156.888 -0.0324755 -5.81691 0
M  V30 1745 N 155.864 0.566581 -5.40639 0
M  V30 1746 H 159.666 -0.142729 -2.93553 0
M  V30 1747 H 157.18 -0.179221 -1.61408 0
M  V30 1748 H 159.177 2.2547 -3.50669 0
M  V30 1749 H 157.837 2.26132 -2.33011 0
M  V30 1750 H 158.848 -0.0962352 -5.17811 0
M  V30 1751 H 155.525 1.9958 -3.66707 0
M  V30 1752 H 156.915 -0.69473 -6.68299 0
M  V30 1753 N 159.635 1.57281 -0.100228 0
M  V30 1754 C 160.568 2.09976 0.893612 0
M  V30 1755 C 161.546 1.01155 1.27304 0
M  V30 1756 O 162.73 1.28687 1.37739 0
M  V30 1757 C 159.857 2.58098 2.19324 0
M  V30 1758 C 158.903 3.78626 1.96328 0
M  V30 1759 S 159.736 5.21959 1.19662 0
M  V30 1760 C 160.892 5.73435 2.50844 0
M  V30 1761 H 161.125 2.93946 0.44534 0
M  V30 1762 H 158.658 1.53985 0.113167 0
M  V30 1763 H 160.616 2.8648 2.94005 0
M  V30 1764 H 159.277 1.74344 2.61272 0
M  V30 1765 H 158.47 4.10382 2.92579 0
M  V30 1766 H 158.072 3.50763 1.29775 0
M  V30 1767 H 160.364 5.82015 3.46792 0
M  V30 1768 H 161.307 6.7185 2.23659 0
M  V30 1769 H 161.715 5.01395 2.59352 0
M  V30 1770 N 161.113 -0.173488 1.56642 0
M  V30 1771 C 162.045 -1.23935 1.92802 0
M  V30 1772 C 163.058 -1.40589 0.820889 0
M  V30 1773 O 164.247 -1.40631 1.09933 0
M  V30 1774 C 161.347 -2.60837 2.16373 0
M  V30 1775 C 160.52 -2.6551 3.47596 0
M  V30 1776 C 159.579 -3.8376 3.60021 0
M  V30 1777 O 158.605 -3.69859 4.32658 0
M  V30 1778 N 159.807 -5.00127 2.94709 0
M  V30 1779 H 162.572 -0.932236 2.84832 0
M  V30 1780 H 160.133 -0.363268 1.57772 0
M  V30 1781 H 162.125 -3.38407 2.21952 0
M  V30 1782 H 160.695 -2.83948 1.30738 0
M  V30 1783 H 159.915 -1.74052 3.53694 0
M  V30 1784 H 161.203 -2.65641 4.33949 0
M  V30 1785 H 160.601 -5.14322 2.35563 0
M  V30 1786 H 159.158 -5.75567 3.05886 0
M  V30 1787 N 162.591 -1.51276 -0.441967 0
M  V30 1788 C 163.521 -1.752 -1.54361 0
M  V30 1789 C 164.502 -0.601682 -1.59103 0
M  V30 1790 O 165.687 -0.843913 -1.74905 0
M  V30 1791 C 162.817 -1.87282 -2.92477 0
M  V30 1792 C 161.771 -3.02687 -3.02596 0
M  V30 1793 C 161.097 -2.99947 -4.42647 0
M  V30 1794 C 162.397 -4.4273 -2.77106 0
M  V30 1795 H 164.091 -2.67442 -1.34592 0
M  V30 1796 H 161.637 -1.28694 -0.646048 0
M  V30 1797 H 163.59 -2.02602 -3.695 0
M  V30 1798 H 162.314 -0.916844 -3.13467 0
M  V30 1799 H 160.973 -2.87065 -2.28012 0
M  V30 1800 H 160.621 -2.02136 -4.60597 0
M  V30 1801 H 160.321 -3.77439 -4.50348 0
M  V30 1802 H 161.845 -3.17354 -5.2165 0
M  V30 1803 H 163.259 -4.58727 -3.43864 0
M  V30 1804 H 161.656 -5.21893 -2.96222 0
M  V30 1805 H 162.726 -4.53087 -1.72744 0
M  V30 1806 N 164.069 0.697108 -1.41344 0
M  V30 1807 C 165.317 1.45426 -1.40341 0
M  V30 1808 C 165.638 1.94996 -0.0128787 0
M  V30 1809 O 164.908 1.71599 0.945027 0
M  V30 1810 H 163.488 0.539594 -0.516573 0
M  V30 1811 H 166.15 0.825201 -1.76569 0
M  V30 1812 H 165.246 2.31817 -2.08967 0
M  V30 1813 N 165.547 1.27147 0.931209 0
M  V30 1814 C 166.48 1.0389 2.0318 0
M  V30 1815 C 167.458 -0.0395716 1.62552 0
M  V30 1816 O 168.642 0.104867 1.88208 0
M  V30 1817 C 165.769 0.575227 3.3378 0
M  V30 1818 C 164.815 1.64774 3.93385 0
M  V30 1819 S 165.648 3.23933 4.26413 0
M  V30 1820 C 166.804 2.79358 5.60098 0
M  V30 1821 H 167.037 1.97075 2.22596 0
M  V30 1822 H 164.57 1.10938 1.07387 0
M  V30 1823 H 166.528 0.314385 4.09294 0
M  V30 1824 H 165.189 -0.336505 3.12292 0
M  V30 1825 H 164.382 1.27454 4.87618 0
M  V30 1826 H 163.984 1.86048 3.24441 0
M  V30 1827 H 166.276 2.24443 6.39243 0
M  V30 1828 H 167.219 3.72322 6.02314 0
M  V30 1829 H 167.627 2.1861 5.20452 0
M  V30 1830 N 167.025 -1.13721 1.09112 0
M  V30 1831 C 168.274 -1.84275 0.82009 0
M  V30 1832 C 168.587 -1.84253 -0.656509 0
M  V30 1833 O 169.793 -2.50668 -1.04296 0
M  V30 1834 C 168.249 -3.30825 1.41714 0
M  V30 1835 C 167.857 -3.39244 2.92605 0
M  V30 1836 C 169.601 -4.06443 1.22492 0
M  V30 1837 C 167.508 -4.80047 3.45411 0
M  V30 1838 H 166.438 -0.690387 0.30312 0
M  V30 1839 H 169.089 -1.28146 1.31343 0
M  V30 1840 H 167.471 -3.86737 0.851498 0
M  V30 1841 H 168.645 -2.93344 3.55367 0
M  V30 1842 H 166.96 -2.77088 3.10823 0
M  V30 1843 H 169.557 -5.10387 1.59402 0
M  V30 1844 H 169.9 -4.15972 0.165299 0
M  V30 1845 H 170.433 -3.56852 1.75788 0
M  V30 1846 H 167.172 -4.75709 4.50978 0
M  V30 1847 H 166.692 -5.26455 2.87411 0
M  V30 1848 H 168.371 -5.48957 3.42425 0
M  V30 1849 N 168.503 -0.877838 -1.30888 0
M  V30 1850 C 169.743 -0.499301 -1.98208 0
M  V30 1851 C 170.107 0.932649 -1.67826 0
M  V30 1852 O 171.308 1.41694 -2.28421 0
M  V30 1853 C 169.579 -0.758221 -3.49265 0
M  V30 1854 S 171.138 -0.480719 -4.36159 0
M  V30 1855 H 167.956 -0.186062 -0.686223 0
M  V30 1856 H 170.558 -1.13556 -1.59139 0
M  V30 1857 H 169.262 -1.79903 -3.68867 0
M  V30 1858 H 168.793 -0.109247 -3.93248 0
M  V30 1859 H 170.808 0.683698 -4.91467 0
M  V30 1860 N 169.982 1.44106 -0.638065 0
M  V30 1861 C 171.212 2.06037 -0.152394 0
M  V30 1862 C 171.62 1.47808 1.18108 0
M  V30 1863 O 170.963 0.598092 1.73691 0
M  V30 1864 C 171.025 3.59488 0.0293714 0
M  V30 1865 C 170.689 4.4022 -1.22702 0
M  V30 1866 C 171.686 4.73256 -2.15232 0
M  V30 1867 C 169.371 4.8048 -1.46437 0
M  V30 1868 C 171.365 5.45444 -3.29802 0
M  V30 1869 C 169.052 5.52417 -2.61303 0
M  V30 1870 C 170.05 5.84819 -3.52811 0
M  V30 1871 O 169.738 6.55289 -4.65673 0
M  V30 1872 H 169.47 0.671233 -0.0801401 0
M  V30 1873 H 172.024 1.85851 -0.874563 0
M  V30 1874 H 170.254 3.78191 0.806758 0
M  V30 1875 H 171.943 4.03164 0.470475 0
M  V30 1876 H 172.709 4.42684 -1.98131 0
M  V30 1877 H 168.588 4.54676 -0.760977 0
M  V30 1878 H 172.132 5.70653 -4.01249 0
M  V30 1879 H 168.029 5.82404 -2.78344 0
M  V30 1880 H 168.797 6.73762 -4.64744 0
M  V30 1881 N 171.46 0.379036 1.52974 0
M  V30 1882 C 172.408 -0.476033 2.27677 0
M  V30 1883 C 173.402 -1.0719 1.31174 0
M  V30 1884 O 174.608 -1.01355 1.48752 0
M  V30 1885 H 170.983 -0.172255 0.732006 0
M  V30 1886 H 172.954 0.175615 2.97883 0
M  V30 1887 C 171.703 -1.5967 3.0887 0
M  V30 1888 H 171.026 -1.1475 3.82978 0
M  V30 1889 H 172.466 -2.16943 3.64296 0
M  V30 1890 C 170.925 -2.54682 2.20542 0
M  V30 1891 O 171.455 -3.57836 1.82527 0
M  V30 1892 N 169.661 -2.24183 1.84907 0
M  V30 1893 H 169.208 -1.40333 2.1602 0
M  V30 1894 H 169.166 -2.88006 1.26096 0
M  V30 1895 N 172.938 -1.57226 0.108567 0
M  V30 1896 C 174.349 -1.8195 -0.418464 0
M  V30 1897 C 174.7 -1.02508 -1.67292 0
M  V30 1898 O 173.825 -0.258496 -2.14851 0
M  V30 1899 C 174.42 -3.30028 -0.765979 0
M  V30 1900 C 172.979 -3.55469 -1.23769 0
M  V30 1901 C 172.126 -2.7625 -0.241106 0
M  V30 1902 H 175.077 -1.55149 0.33384 0
M  V30 1903 H 175.098 -3.44086 -1.62434 0
M  V30 1904 H 174.61 -3.87821 0.147219 0
M  V30 1905 H 172.711 -3.03022 -2.16814 0
M  V30 1906 H 172.824 -4.6408 -1.19022 0
M  V30 1907 H 171.188 -2.44133 -0.72602 0
M  V30 1908 H 171.971 -3.36797 0.665007 0
M  V30 1909 N 174.416 0.165178 -1.56732 0
M  V30 1910 C 175.326 1.22423 -2.00125 0
M  V30 1911 C 176.342 1.48084 -0.913619 0
M  V30 1912 O 177.518 1.60112 -1.22172 0
M  V30 1913 C 174.583 2.54197 -2.35764 0
M  V30 1914 C 173.644 2.36343 -3.58386 0
M  V30 1915 C 172.877 3.61834 -3.92316 0
M  V30 1916 O 173.1 4.67267 -3.27135 0
M  V30 1917 O 172.034 3.55579 -4.85641 0
M  V30 1918 H 175.86 0.885886 -2.90492 0
M  V30 1919 H 173.445 0.372518 -1.44681 0
M  V30 1920 H 175.327 3.3192 -2.59629 0
M  V30 1921 H 174.002 2.87598 -1.48557 0
M  V30 1922 H 172.909 1.56632 -3.39731 0
M  V30 1923 H 174.242 2.07865 -4.46154 0
M  V30 1924 N 175.894 1.51508 0.433938 0
M  V30 1925 C 177.141 1.64345 1.18309 0
M  V30 1926 C 177.469 0.361315 1.91115 0
M  V30 1927 O 176.724 -0.654753 1.84422 0
M  V30 1928 C 177.023 2.79928 2.22205 0
M  V30 1929 C 176.689 4.19078 1.66387 0
M  V30 1930 C 175.351 4.56932 1.50887 0
M  V30 1931 C 177.703 5.05894 1.25381 0
M  V30 1932 C 175.031 5.79305 0.928608 0
M  V30 1933 C 177.383 6.2885 0.687823 0
M  V30 1934 C 176.047 6.65473 0.519755 0
M  V30 1935 H 175.317 0.601381 0.432923 0
M  V30 1936 H 177.964 1.85549 0.473676 0
M  V30 1937 H 176.269 2.52959 2.99197 0
M  V30 1938 H 177.966 2.87059 2.79997 0
M  V30 1939 H 174.556 3.89234 1.79428 0
M  V30 1940 H 178.74 4.77253 1.36175 0
M  V30 1941 H 173.996 6.06324 0.786186 0
M  V30 1942 H 178.17 6.95461 0.361581 0
M  V30 1943 H 175.797 7.6017 0.0679979 0
M  V30 1944 N 177.372 -0.689602 1.41712 0
M  V30 1945 C 178.282 -1.83314 1.46401 0
M  V30 1946 C 179.298 -1.7036 0.35405 0
M  V30 1947 O 180.474 -1.92171 0.602692 0
M  V30 1948 C 177.539 -3.19344 1.34982 0
M  V30 1949 C 176.6 -3.44363 2.56344 0
M  V30 1950 C 175.833 -4.73904 2.45461 0
M  V30 1951 O 176.056 -5.508 1.48241 0
M  V30 1952 O 174.99 -4.99839 3.35328 0
M  V30 1953 H 178.816 -1.82314 2.42889 0
M  V30 1954 H 176.401 -0.843438 1.23315 0
M  V30 1955 H 178.283 -4.00547 1.3092 0
M  V30 1956 H 176.958 -3.21014 0.41612 0
M  V30 1957 H 175.865 -2.63067 2.65982 0
M  V30 1958 H 177.198 -3.47512 3.48563 0
M  V30 1959 N 178.85 -1.27639 -0.924453 0
M  V30 1960 C 179.797 -1.10644 -2.0255 0
M  V30 1961 C 180.767 -0.00658438 -1.66099 0
M  V30 1962 O 181.952 -0.16952 -1.90045 0
M  V30 1963 C 179.092 -0.76309 -3.36557 0
M  V30 1964 C 178.205 -1.94091 -3.85944 0
M  V30 1965 C 177.34 -1.53914 -5.08413 0
M  V30 1966 C 176.379 -2.68425 -5.50104 0
M  V30 1967 N 175.516 -2.28815 -6.63768 0
M  V30 1968 H 180.356 -2.04858 -2.16419 0
M  V30 1969 H 177.893 -1.01974 -1.06017 0
M  V30 1970 H 179.851 -0.544822 -4.13627 0
M  V30 1971 H 178.481 0.142102 -3.22487 0
M  V30 1972 H 177.533 -2.27162 -3.05125 0
M  V30 1973 H 178.845 -2.7998 -4.12811 0
M  V30 1974 H 177.999 -1.28231 -5.92994 0
M  V30 1975 H 176.738 -0.651391 -4.8333 0
M  V30 1976 H 175.743 -2.94819 -4.64071 0
M  V30 1977 H 176.968 -3.57826 -5.7718 0
M  V30 1978 H 174.914 -1.42495 -6.40337 0
M  V30 1979 H 174.831 -3.08242 -6.90306 0
M  V30 1980 H 176.099 -2.06387 -7.51681 0
M  V30 1981 N 180.328 1.1314 -1.09713 0
M  V30 1982 C 181.258 2.20748 -0.761102 0
M  V30 1983 C 182.239 1.68061 0.262566 0
M  V30 1984 O 183.424 1.93765 0.129977 0
M  V30 1985 C 180.554 3.46812 -0.184054 0
M  V30 1986 C 179.508 4.12606 -1.13757 0
M  V30 1987 C 178.834 5.33031 -0.422083 0
M  V30 1988 C 180.134 4.59603 -2.48118 0
M  V30 1989 H 181.828 2.49113 -1.66082 0
M  V30 1990 H 179.374 1.19734 -0.799987 0
M  V30 1991 H 181.327 4.21353 0.0631215 0
M  V30 1992 H 180.051 3.17851 0.750868 0
M  V30 1993 H 178.71 3.40036 -1.37007 0
M  V30 1994 H 178.358 5.00335 0.517072 0
M  V30 1995 H 178.058 5.77999 -1.05788 0
M  V30 1996 H 179.582 6.10325 -0.183277 0
M  V30 1997 H 180.996 5.25552 -2.29059 0
M  V30 1998 H 179.393 5.15321 -3.07514 0
M  V30 1999 H 180.463 3.73971 -3.08665 0
M  V30 2000 N 181.806 0.884767 1.30421 0
M  V30 2001 C 182.753 0.349642 2.28136 0
M  V30 2002 C 183.723 -0.560061 1.56373 0
M  V30 2003 O 184.908 -0.488524 1.8444 0
M  V30 2004 C 182.048 -0.42999 3.42411 0
M  V30 2005 C 181.161 0.508907 4.28992 0
M  V30 2006 C 180.296 -0.286301 5.30428 0
M  V30 2007 C 179.335 0.648079 6.08659 0
M  V30 2008 N 178.472 -0.111792 7.02011 0
M  V30 2009 H 183.312 1.18807 2.73293 0
M  V30 2010 H 180.849 0.597231 1.3443 0
M  V30 2011 H 182.807 -0.897923 4.07423 0
M  V30 2012 H 181.437 -1.23299 2.98324 0
M  V30 2013 H 180.489 1.09533 3.64289 0
M  V30 2014 H 181.801 1.22475 4.8353 0
M  V30 2015 H 180.955 -0.816098 6.01186 0
M  V30 2016 H 179.694 -1.03536 4.76583 0
M  V30 2017 H 178.699 1.18951 5.36778 0
M  V30 2018 H 179.924 1.39623 6.64592 0
M  V30 2019 H 177.87 -0.843395 6.50556 0
M  V30 2020 H 177.787 0.544429 7.54037 0
M  V30 2021 H 179.055 -0.622339 7.77012 0
M  V30 2022 N 183.284 -1.43765 0.645699 0
M  V30 2023 C 184.695 -1.85193 0.236719 0
M  V30 2024 C 185.046 -1.54045 -1.21509 0
M  V30 2025 O 184.171 -0.985694 -1.92647 0
M  V30 2026 C 184.766 -3.36151 0.422845 0
M  V30 2027 C 183.325 -3.76338 0.0682492 0
M  V30 2028 C 182.472 -2.67538 0.729306 0
M  V30 2029 H 185.423 -1.34025 0.849883 0
M  V30 2030 H 185.444 -3.79032 -0.333904 0
M  V30 2031 H 184.956 -3.5879 1.47958 0
M  V30 2032 H 183.057 -3.59312 -0.986179 0
M  V30 2033 H 183.17 -4.76603 0.488469 0
M  V30 2034 H 181.534 -2.54176 0.163235 0
M  V30 2035 H 182.317 -2.93006 1.78892 0
M  V30 2036 N 184.763 -0.387143 -1.52771 0
M  V30 2037 C 185.71 0.449048 -2.26389 0
M  V30 2038 C 186.68 1.05961 -1.27912 0
M  V30 2039 O 187.865 1.08804 -1.56737 0
M  V30 2040 C 185.005 1.57155 -3.0724 0
M  V30 2041 C 184.118 0.984066 -4.20643 0
M  V30 2042 C 183.253 2.07745 -4.88892 0
M  V30 2043 C 182.292 1.46574 -5.94292 0
M  V30 2044 N 181.429 2.49834 -6.56146 0
M  V30 2045 H 186.269 -0.185205 -2.97424 0
M  V30 2046 H 183.806 -0.103164 -1.46738 0
M  V30 2047 H 185.764 2.23309 -3.52405 0
M  V30 2048 H 184.394 2.17615 -2.38419 0
M  V30 2049 H 183.446 0.212193 -3.79808 0
M  V30 2050 H 184.758 0.497029 -4.96318 0
M  V30 2051 H 183.912 2.81673 -5.3735 0
M  V30 2052 H 182.651 2.59807 -4.12737 0
M  V30 2053 H 181.656 0.711696 -5.45174 0
M  V30 2054 H 182.881 0.953088 -6.72379 0
M  V30 2055 H 180.827 3.0107 -5.82832 0
M  V30 2056 H 180.744 2.05879 -7.27427 0
M  V30 2057 H 182.012 3.23399 -7.09249 0
M  V30 2058 N 186.241 1.57166 -0.116904 0
M  V30 2059 C 187.471 1.99184 0.548586 0
M  V30 2060 C 187.879 0.995436 1.60897 0
M  V30 2061 O 187.222 -0.0201293 1.83689 0
M  V30 2062 C 187.284 3.37611 1.23526 0
M  V30 2063 C 186.948 4.55857 0.323077 0
M  V30 2064 C 187.945 5.18056 -0.437476 0
M  V30 2065 C 185.63 5.01751 0.234761 0
M  V30 2066 C 187.624 6.24536 -1.2741 0
M  V30 2067 C 185.311 6.08093 -0.605496 0
M  V30 2068 C 186.309 6.69352 -1.35856 0
M  V30 2069 O 185.997 7.7364 -2.18487 0
M  V30 2070 H 185.729 0.659148 0.149999 0
M  V30 2071 H 188.283 2.0443 -0.199428 0
M  V30 2072 H 186.513 3.29113 2.0303 0
M  V30 2073 H 188.202 3.63932 1.79745 0
M  V30 2074 H 188.968 4.83516 -0.379105 0
M  V30 2075 H 184.847 4.53817 0.810601 0
M  V30 2076 H 188.391 6.72281 -1.86237 0
M  V30 2077 H 184.288 6.42063 -0.665268 0
M  V30 2078 H 185.056 7.90727 -2.11406 0
M  V30 2079 N 187.719 -0.156864 1.56817 0
M  V30 2080 C 188.649 -1.19589 2.00551 0
M  V30 2081 C 189.63 -1.4536 0.883426 0
M  V30 2082 O 190.815 -1.56449 1.15054 0
M  V30 2083 C 187.945 -2.53143 2.37773 0
M  V30 2084 C 186.899 -2.41913 3.53075 0
M  V30 2085 C 186.225 -3.80088 3.76081 0
M  V30 2086 C 187.525 -1.91157 4.86062 0
M  V30 2087 H 189.219 -0.832293 2.87599 0
M  V30 2088 H 186.765 -0.398918 1.38364 0
M  V30 2089 H 188.718 -3.26047 2.66967 0
M  V30 2090 H 187.442 -2.91319 1.4765 0
M  V30 2091 H 186.101 -1.71462 3.24031 0
M  V30 2092 H 185.749 -4.15683 2.83225 0
M  V30 2093 H 185.449 -3.73439 4.53671 0
M  V30 2094 H 186.973 -4.54556 4.0769 0
M  V30 2095 H 188.387 -2.53846 5.14038 0
M  V30 2096 H 186.784 -1.95422 5.67389 0
M  V30 2097 H 187.854 -0.866673 4.77092 0
M  V30 2098 N 189.197 -1.51736 -0.425897 0
M  V30 2099 C 190.107 -1.76738 -1.54275 0
M  V30 2100 C 191.123 -0.65211 -1.61318 0
M  V30 2101 O 192.299 -0.935654 -1.78346 0
M  V30 2102 C 189.364 -1.89755 -2.90162 0
M  V30 2103 C 188.425 -3.13633 -2.93143 0
M  V30 2104 C 187.658 -3.2602 -4.22548 0
M  V30 2105 O 187.881 -2.44067 -5.15546 0
M  V30 2106 O 186.815 -4.19071 -4.32046 0
M  V30 2107 H 190.641 -2.71502 -1.36089 0
M  V30 2108 H 188.226 -1.36376 -0.610069 0
M  V30 2109 H 190.108 -2.00236 -3.70788 0
M  V30 2110 H 188.783 -0.981785 -3.08452 0
M  V30 2111 H 187.69 -3.08622 -2.11431 0
M  V30 2112 H 189.023 -4.04936 -2.798 0
M  V30 2113 N 190.675 0.682077 -1.42076 0
M  V30 2114 C 191.585 1.82535 -1.47371 0
M  V30 2115 C 192.601 1.7017 -0.363079 0
M  V30 2116 O 193.777 1.91848 -0.612875 0
M  V30 2117 C 190.842 3.18624 -1.36674 0
M  V30 2118 C 189.903 3.42999 -2.58167 0
M  V30 2119 C 189.136 4.72595 -2.4797 0
M  V30 2120 O 189.359 5.50006 -1.5116 0
M  V30 2121 O 188.293 4.98054 -3.37974 0
M  V30 2122 H 192.119 1.81023 -2.43853 0
M  V30 2123 H 189.704 0.836887 -1.2376 0
M  V30 2124 H 191.586 3.99847 -1.33043 0
M  V30 2125 H 190.261 3.20789 -0.433138 0
M  V30 2126 H 189.168 2.61653 -2.67373 0
M  V30 2127 H 190.501 3.45659 -3.50401 0
M  V30 2128 N 192.153 1.28127 0.917671 0
M  V30 2129 C 193.083 1.14248 2.03641 0
M  V30 2130 C 194.064 0.0412748 1.7005 0
M  V30 2131 O 195.249 0.217566 1.92977 0
M  V30 2132 C 192.379 0.799431 3.37974 0
M  V30 2133 C 191.333 1.85497 3.85713 0
M  V30 2134 C 190.659 1.36565 5.16966 0
M  V30 2135 C 191.959 3.26085 4.08002 0
M  V30 2136 H 193.653 2.07835 2.15511 0
M  V30 2137 H 191.199 1.00064 1.03553 0
M  V30 2138 H 193.152 0.689114 4.15727 0
M  V30 2139 H 191.876 -0.172145 3.26146 0
M  V30 2140 H 190.535 1.95437 3.10161 0
M  V30 2141 H 190.183 0.383253 5.01538 0
M  V30 2142 H 189.883 2.07143 5.49878 0
M  V30 2143 H 191.407 1.26848 5.97279 0
M  V30 2144 H 192.821 3.19089 4.76293 0
M  V30 2145 H 191.218 3.94462 4.52238 0
M  V30 2146 H 192.288 3.70394 3.12948 0
M  V30 2147 N 193.631 -1.12557 1.10312 0
M  V30 2148 C 195.042 -1.65574 0.862678 0
M  V30 2149 C 195.393 -1.86566 -0.607256 0
M  V30 2150 O 194.518 -1.59121 -1.46662 0
M  V30 2151 C 195.113 -3.00776 1.55947 0
M  V30 2152 C 193.672 -3.50748 1.36576 0
M  V30 2153 C 192.819 -2.25797 1.60968 0
M  V30 2154 H 195.77 -0.963552 1.26101 0
M  V30 2155 H 195.791 -3.67185 0.997753 0
M  V30 2156 H 195.303 -2.85465 2.62928 0
M  V30 2157 H 193.404 -3.71245 0.317531 0
M  V30 2158 H 193.517 -4.30289 2.10686 0
M  V30 2159 H 191.881 -2.32841 1.03234 0
M  V30 2160 H 192.664 -2.13043 2.69198 0
M  V30 2161 N 195.109 -0.891671 -1.2995 0
M  V30 2162 C 196.019 -0.367691 -2.31701 0
M  V30 2163 C 197.035 0.533486 -1.6562 0
M  V30 2164 O 198.211 0.424997 -1.96865 0
M  V30 2165 C 195.276 0.403406 -3.44345 0
M  V30 2166 C 194.337 -0.528328 -4.26037 0
M  V30 2167 C 193.57 0.206063 -5.33302 0
M  V30 2168 O 193.793 1.43119 -5.52153 0
M  V30 2169 O 192.727 -0.447281 -6.00236 0
M  V30 2170 H 196.553 -1.21163 -2.78484 0
M  V30 2171 H 194.138 -0.655725 -1.34241 0
M  V30 2172 H 196.02 0.839753 -4.12948 0
M  V30 2173 H 194.695 1.22354 -2.99685 0
M  V30 2174 H 193.602 -1.01362 -3.60106 0
M  V30 2175 H 194.935 -1.31465 -4.74318 0
M  V30 2176 N 196.587 1.43421 -0.653314 0
M  V30 2177 C 197.534 2.30768 0.0382271 0
M  V30 2178 C 198.504 1.44755 0.814576 0
M  V30 2179 O 199.689 1.73624 0.791162 0
M  V30 2180 C 196.829 3.30336 0.998599 0
M  V30 2181 C 195.942 4.31448 0.218342 0
M  V30 2182 C 195.077 5.18098 1.17252 0
M  V30 2183 C 194.116 6.10902 0.382702 0
M  V30 2184 N 193.253 6.90176 1.28848 0
M  V30 2185 H 198.093 2.89357 -0.712511 0
M  V30 2186 H 195.63 1.42548 -0.363128 0
M  V30 2187 H 197.588 3.86572 1.56901 0
M  V30 2188 H 196.218 2.73397 1.71621 0
M  V30 2189 H 195.27 3.77506 -0.46836 0
M  V30 2190 H 196.582 4.97227 -0.395812 0
M  V30 2191 H 195.736 5.7896 1.81356 0
M  V30 2192 H 194.475 4.52444 1.82058 0
M  V30 2193 H 193.48 5.49128 -0.27169 0
M  V30 2194 H 194.705 6.78598 -0.260957 0
M  V30 2195 H 192.651 6.27171 1.92334 0
M  V30 2196 H 192.568 7.52478 0.728887 0
M  V30 2197 H 193.836 7.55543 1.91766 0
M  V30 2198 N 198.065 0.39524 1.52563 0
M  V30 2199 C 198.995 -0.428384 2.29537 0
M  V30 2200 C 199.976 -1.05831 1.33169 0
M  V30 2201 O 201.161 -1.06995 1.62067 0
M  V30 2202 C 198.291 -1.55274 3.10656 0
M  V30 2203 C 197.245 -1.04855 4.14957 0
M  V30 2204 C 196.571 -2.26543 4.84337 0
M  V30 2205 C 197.871 -0.112324 5.22179 0
M  V30 2206 H 199.565 0.213867 2.98635 0
M  V30 2207 H 197.111 0.104298 1.43622 0
M  V30 2208 H 199.064 -2.1358 3.63265 0
M  V30 2209 H 197.788 -2.22266 2.39302 0
M  V30 2210 H 196.447 -0.487985 3.63338 0
M  V30 2211 H 196.095 -2.92059 4.09525 0
M  V30 2212 H 195.795 -1.93466 5.54837 0
M  V30 2213 H 197.319 -2.85481 5.39753 0
M  V30 2214 H 198.733 -0.603752 5.70112 0
M  V30 2215 H 197.13 0.128968 5.99961 0
M  V30 2216 H 198.2 0.837052 4.77621 0
M  V30 2217 N 199.544 -1.57102 0.125237 0
M  V30 2218 C 200.491 -2.15641 -0.822655 0
M  V30 2219 C 201.461 -1.08313 -1.25927 0
M  V30 2220 O 202.646 -1.36251 -1.33567 0
M  V30 2221 C 199.786 -2.76504 -2.06494 0
M  V30 2222 C 198.899 -3.98158 -1.67612 0
M  V30 2223 C 198.034 -4.47088 -2.86854 0
M  V30 2224 C 197.073 -5.6126 -2.44242 0
M  V30 2225 N 196.21 -6.04905 -3.56419 0
M  V30 2226 H 201.05 -2.96313 -0.316625 0
M  V30 2227 H 198.587 -1.46388 -0.144588 0
M  V30 2228 H 200.545 -3.09925 -2.79289 0
M  V30 2229 H 199.175 -1.98512 -2.54545 0
M  V30 2230 H 198.227 -3.70858 -0.846661 0
M  V30 2231 H 199.539 -4.80934 -1.32301 0
M  V30 2232 H 198.693 -4.82451 -3.67867 0
M  V30 2233 H 197.432 -3.63275 -3.25396 0
M  V30 2234 H 196.437 -5.25495 -1.61663 0
M  V30 2235 H 197.662 -6.46843 -2.0681 0
M  V30 2236 H 195.608 -5.24032 -3.94623 0
M  V30 2237 H 195.525 -6.82552 -3.25051 0
M  V30 2238 H 196.793 -6.44907 -4.37853 0
M  V30 2239 N 201.022 0.148545 -1.56898 0
M  V30 2240 C 201.952 1.18524 -2.01182 0
M  V30 2241 C 202.933 1.4489 -0.891123 0
M  V30 2242 O 204.118 1.55836 -1.15882 0
M  V30 2243 C 201.248 2.51879 -2.39112 0
M  V30 2244 C 200.202 2.40038 -3.54353 0
M  V30 2245 C 199.528 3.78089 -3.78091 0
M  V30 2246 C 200.828 1.88577 -4.87069 0
M  V30 2247 H 202.522 0.817029 -2.88036 0
M  V30 2248 H 200.068 0.391575 -1.38574 0
M  V30 2249 H 202.021 3.24627 -2.68692 0
M  V30 2250 H 200.745 2.90532 -1.49193 0
M  V30 2251 H 199.404 1.69742 -3.24936 0
M  V30 2252 H 199.052 4.14175 -2.85426 0
M  V30 2253 H 198.752 3.71028 -4.55645 0
M  V30 2254 H 200.276 4.52387 -4.10095 0
M  V30 2255 H 201.69 2.51117 -5.15377 0
M  V30 2256 H 200.087 1.9241 -5.68417 0
M  V30 2257 H 201.157 0.84136 -4.77545 0
M  V30 2258 N 202.5 1.5196 0.417844 0
M  V30 2259 C 203.73 1.69181 1.18581 0
M  V30 2260 C 204.138 0.397104 1.84986 0
M  V30 2261 O 203.481 -0.636011 1.72339 0
M  V30 2262 C 203.543 2.76497 2.29759 0
M  V30 2263 C 203.207 4.18514 1.83563 0
M  V30 2264 C 204.204 5.02648 1.32821 0
M  V30 2265 C 201.889 4.64708 1.90661 0
M  V30 2266 C 203.883 6.31044 0.897894 0
M  V30 2267 C 201.57 5.93096 1.47241 0
M  V30 2268 C 202.568 6.76093 0.968891 0
M  V30 2269 O 202.256 8.02078 0.540924 0
M  V30 2270 H 201.988 0.570457 0.362705 0
M  V30 2271 H 204.542 1.99249 0.498885 0
M  V30 2272 H 202.772 2.41786 3.01789 0
M  V30 2273 H 204.461 2.82403 2.91553 0
M  V30 2274 H 205.227 4.68154 1.26716 0
M  V30 2275 H 201.106 4.00216 2.28797 0
M  V30 2276 H 204.65 6.95776 0.504192 0
M  V30 2277 H 200.547 6.271 1.53022 0
M  V30 2278 H 201.315 8.15794 0.66502 0
M  V30 2279 N 203.978 -0.674533 1.42435 0
M  V30 2280 C 205.203 -1.46784 1.46524 0
M  V30 2281 C 205.628 -1.87938 0.078066 0
M  V30 2282 O 204.986 -1.56014 -0.92354 0
M  V30 2283 C 205.034 -2.69307 2.39805 0
M  V30 2284 O 204.138 -3.67587 1.86959 0
M  V30 2285 H 203.479 -0.440959 0.496439 0
M  V30 2286 H 206.009 -0.827326 1.87127 0
M  V30 2287 H 206.019 -3.17374 2.56393 0
M  V30 2288 H 204.694 -2.38692 3.40586 0
M  V30 2289 H 203.271 -3.2662 1.79927 0
M  V30 2290 N 205.456 -1.28612 -0.910864 0
M  V30 2291 C 206.366 -1.14643 -2.0468 0
M  V30 2292 C 207.382 -0.0723121 -1.7385 0
M  V30 2293 O 208.558 -0.282178 -1.99413 0
M  V30 2294 C 205.623 -0.812561 -3.37044 0
M  V30 2295 C 204.684 -1.96935 -3.81465 0
M  V30 2296 C 203.917 -1.65131 -5.07511 0
M  V30 2297 O 204.14 -0.567013 -5.67575 0
M  V30 2298 O 203.074 -2.49585 -5.47714 0
M  V30 2299 H 206.9 -2.1001 -2.19384 0
M  V30 2300 H 204.485 -1.07958 -1.03274 0
M  V30 2301 H 206.367 -0.640441 -4.16505 0
M  V30 2302 H 205.042 0.111426 -3.23508 0
M  V30 2303 H 203.949 -2.19664 -3.02818 0
M  V30 2304 H 205.282 -2.87414 -3.99567 0
M  V30 2305 N 206.934 1.1197 -1.10907 0
M  V30 2306 C 208.181 1.83588 -0.854507 0
M  V30 2307 C 208.509 1.84357 0.6199 0
M  V30 2308 O 207.764 1.28809 1.47332 0
M  V30 2309 C 208.063 3.30749 -1.35425 0
M  V30 2310 C 207.729 3.50146 -2.84093 0
M  V30 2311 C 206.391 3.55148 -3.2469 0
M  V30 2312 C 208.743 3.56857 -3.79872 0
M  V30 2313 C 206.071 3.6441 -4.59806 0
M  V30 2314 C 208.423 3.6765 -5.14797 0
M  V30 2315 C 207.087 3.7091 -5.54961 0
M  V30 2316 H 206.357 0.671795 -0.312686 0
M  V30 2317 H 209.004 1.32091 -1.38652 0
M  V30 2318 H 207.309 3.84703 -0.742361 0
M  V30 2319 H 209.006 3.8464 -1.1337 0
M  V30 2320 H 205.596 3.46919 -2.51685 0
M  V30 2321 H 209.78 3.52258 -3.49611 0
M  V30 2322 H 205.036 3.65208 -4.9034 0
M  V30 2323 H 209.21 3.71786 -5.88853 0
M  V30 2324 H 206.837 3.7784 -6.59652 0
M  V30 2325 N 208.412 0.89855 1.29475 0
M  V30 2326 C 209.342 0.39201 2.30186 0
M  V30 2327 C 210.323 -0.532359 1.61555 0
M  V30 2328 O 211.508 -0.443331 1.89072 0
M  V30 2329 C 208.638 -0.382353 3.45189 0
M  V30 2330 C 207.592 0.451483 4.25612 0
M  V30 2331 C 206.918 -0.450307 5.328 0
M  V30 2332 C 208.218 1.70079 4.93832 0
M  V30 2333 H 209.912 1.23362 2.72804 0
M  V30 2334 H 207.458 0.594638 1.31149 0
M  V30 2335 H 209.411 -0.747451 4.14718 0
M  V30 2336 H 208.135 -1.25774 3.01411 0
M  V30 2337 H 206.794 0.798897 3.57789 0
M  V30 2338 H 206.442 -1.32379 4.85268 0
M  V30 2339 H 206.142 0.103902 5.87508 0
M  V30 2340 H 207.666 -0.811623 6.05182 0
M  V30 2341 H 209.08 1.40549 5.55805 0
M  V30 2342 H 207.477 2.19623 5.58467 0
M  V30 2343 H 208.547 2.43744 4.19186 0
M  V30 2344 N 209.89 -1.43072 0.660911 0
M  V30 2345 C 211.138 -2.01323 0.177094 0
M  V30 2346 C 211.459 -1.5245 -1.2159 0
M  V30 2347 O 210.729 -0.740322 -1.81373 0
M  V30 2348 H 209.309 -0.744382 0.0624804 0
M  V30 2349 H 211.971 -1.75179 0.854305 0
M  V30 2350 H 211.067 -3.11649 0.167641 0
M  V30 2351 N 211.368 -0.403325 -1.52352 0
M  V30 2352 C 212.315 0.425011 -2.26853 0
M  V30 2353 C 213.285 1.04598 -1.29029 0
M  V30 2354 O 214.47 1.07135 -1.57882 0
M  V30 2355 C 211.61 1.53888 -3.08889 0
M  V30 2356 C 210.723 0.939396 -4.21663 0
M  V30 2357 C 209.858 2.02547 -4.91068 0
M  V30 2358 C 208.897 1.40263 -5.95813 0
M  V30 2359 N 208.034 2.4286 -6.58759 0
M  V30 2360 H 212.874 -0.21674 -2.97211 0
M  V30 2361 H 210.411 -0.118722 -1.4662 0
M  V30 2362 H 212.369 2.19558 -3.54753 0
M  V30 2363 H 210.999 2.15074 -2.40714 0
M  V30 2364 H 210.051 0.171898 -3.80011 0
M  V30 2365 H 211.363 0.44436 -4.96817 0
M  V30 2366 H 210.517 2.75958 -5.40308 0
M  V30 2367 H 209.256 2.55415 -4.15469 0
M  V30 2368 H 208.261 0.653833 -5.45898 0
M  V30 2369 H 209.486 0.881719 -6.73352 0
M  V30 2370 H 207.432 2.94871 -5.85992 0
M  V30 2371 H 207.349 1.98152 -7.2957 0
M  V30 2372 H 208.617 3.15858 -7.12639 0
M  V30 2373 N 212.846 1.57033 -0.133567 0
M  V30 2374 C 214.262 1.58035 0.222944 0
M  V30 2375 C 214.462 1.14713 1.6566 0
M  V30 2376 O 213.518 0.841218 2.38075 0
M  V30 2377 C 214.831 3.00691 -0.0236116 0
M  V30 2378 C 216.379 3.12973 0.0411512 0
M  V30 2379 C 216.854 4.57654 -0.177899 0
M  V30 2380 N 218.345 4.63033 -0.124365 0
M  V30 2381 C 219.08 5.72771 -0.268553 0
M  V30 2382 N 218.576 6.91206 -0.46972 0
M  V30 2383 N 220.369 5.61718 -0.2071 0
M  V30 2384 H 212.52 1.8349 -1.06981 0
M  V30 2385 H 214.783 0.848677 -0.422436 0
M  V30 2386 H 214.489 3.36726 -1.0153 0
M  V30 2387 H 214.363 3.70614 0.701808 0
M  V30 2388 H 216.75 2.76787 1.02338 0
M  V30 2389 H 216.831 2.45564 -0.716383 0
M  V30 2390 H 216.475 4.94542 -1.15717 0
M  V30 2391 H 216.405 5.23173 0.599797 0
M  V30 2392 H 218.896 3.7789 0.027011 0
M  V30 2393 H 219.209 7.70693 -0.570212 0
M  V30 2394 H 217.554 6.93156 -0.505876 0
M  V30 2395 H 220.745 4.68072 -0.0507986 0
M  V30 2396 H 220.918 6.47195 -0.322909 0
M  V30 2397 N 214.325 -0.140222 1.56975 0
M  V30 2398 C 215.736 -0.699596 1.73097 0
M  V30 2399 C 216.087 -1.8134 0.749022 0
M  V30 2400 O 215.212 -2.16241 -0.0828503 0
M  V30 2401 C 215.807 -1.27582 3.1386 0
M  V30 2402 C 214.366 -1.78169 3.31561 0
M  V30 2403 C 213.513 -0.672855 2.69013 0
M  V30 2404 H 216.464 0.0855115 1.58469 0
M  V30 2405 H 216.485 -2.14561 3.14235 0
M  V30 2406 H 215.997 -0.464955 3.85305 0
M  V30 2407 H 214.098 -2.61801 2.65124 0
M  V30 2408 H 214.211 -1.90574 4.39566 0
M  V30 2409 H 212.575 -1.10118 2.29665 0
M  V30 2410 H 213.358 0.126679 3.43066 0
M  V30 2411 N 215.803 -1.52179 -0.40978 0
M  V30 2412 C 217.049 -1.67408 -1.15525 0
M  V30 2413 C 217.404 -0.398746 -1.88223 0
M  V30 2414 O 216.697 0.60678 -1.81738 0
M  V30 2415 C 216.891 -2.83428 -2.17723 0
M  V30 2416 C 216.72 -4.22121 -1.55061 0
M  V30 2417 C 215.49 -4.87657 -1.3236 0
M  V30 2418 C 217.688 -5.04248 -1.01185 0
M  V30 2419 N 215.67 -6.10387 -0.655834 0
M  V30 2420 C 217.041 -6.18209 -0.470963 0
M  V30 2421 C 219.096 -4.89583 -0.906252 0
M  V30 2422 C 217.799 -7.1911 0.165172 0
M  V30 2423 C 219.825 -5.90718 -0.28397 0
M  V30 2424 C 219.187 -7.03969 0.246243 0
M  V30 2425 H 215.286 -0.666251 -0.409431 0
M  V30 2426 H 217.87 -1.89482 -0.447729 0
M  V30 2427 H 216.041 -2.6297 -2.85834 0
M  V30 2428 H 217.773 -2.87697 -2.84627 0
M  V30 2429 H 214.528 -4.46007 -1.59294 0
M  V30 2430 H 214.952 -6.76153 -0.338596 0
M  V30 2431 H 219.594 -4.02253 -1.302 0
M  V30 2432 H 217.312 -8.06066 0.572986 0
M  V30 2433 H 220.898 -5.81443 -0.203792 0
M  V30 2434 H 219.778 -7.80886 0.720173 0
M  V30 2435 N 217.281 0.66697 -1.42791 0
M  V30 2436 C 218.528 1.42699 -1.43678 0
M  V30 2437 C 218.856 1.94419 -0.0560425 0
M  V30 2438 O 218.111 1.7182 0.936831 0
M  V30 2439 C 218.41 2.6349 -2.4147 0
M  V30 2440 C 218.076 2.30267 -3.8767 0
M  V30 2441 C 216.738 2.20918 -4.27491 0
M  V30 2442 C 219.09 2.03435 -4.79858 0
M  V30 2443 C 216.418 1.82873 -5.57471 0
M  V30 2444 C 218.77 1.66892 -6.10188 0
M  V30 2445 C 217.434 1.56058 -6.49001 0
M  V30 2446 H 216.704 0.522171 -0.525755 0
M  V30 2447 H 219.351 0.759785 -1.75783 0
M  V30 2448 H 217.656 3.35279 -2.0272 0
M  V30 2449 H 219.353 3.21684 -2.39417 0
M  V30 2450 H 215.943 2.38449 -3.56146 0
M  V30 2451 H 220.127 2.09586 -4.49875 0
M  V30 2452 H 215.383 1.7306 -5.86396 0
M  V30 2453 H 219.557 1.45157 -6.81104 0
M  V30 2454 H 217.184 1.26348 -7.49627 0
M  V30 2455 N 218.759 1.29093 0.90403 0
M  V30 2456 C 219.722 1.1386 1.98919 0
M  V30 2457 C 220.722 0.0753457 1.60623 0
M  V30 2458 O 221.912 0.321931 1.71199 0
M  V30 2459 C 219.044 0.740198 3.32767 0
M  V30 2460 H 220.237 2.10246 2.13861 0
M  V30 2461 H 217.79 1.12218 1.08797 0
M  V30 2462 H 218.525 -0.223997 3.23525 0
M  V30 2463 H 218.31 1.50838 3.61926 0
M  V30 2464 H 219.8 0.656546 4.12407 0
M  V30 2465 N 220.237 -1.11381 1.11499 0
M  V30 2466 C 221.485 -1.8277 0.862524 0
M  V30 2467 C 221.806 -1.85097 -0.613534 0
M  V30 2468 O 221.076 -1.32198 -1.4457 0
M  V30 2469 H 219.656 -0.676823 0.316101 0
M  V30 2470 H 222.318 -1.34816 1.4075 0
M  V30 2471 H 221.414 -2.86614 1.23527 0
M  V30 2472 N 221.715 -0.905404 -1.28997 0
M  V30 2473 C 222.663 -0.377431 -2.29517 0
M  V30 2474 C 223.657 0.526461 -1.61012 0
M  V30 2475 O 224.863 0.40863 -1.753 0
M  V30 2476 H 221.238 -0.103437 -0.744852 0
M  V30 2477 H 223.209 -1.23848 -2.71485 0
M  V30 2478 C 221.958 0.374833 -3.45674 0
M  V30 2479 H 221.281 -0.311474 -3.98585 0
M  V30 2480 H 222.721 0.70903 -4.1803 0
M  V30 2481 C 221.18 1.57963 -2.97572 0
M  V30 2482 O 221.71 2.67886 -2.99333 0
M  V30 2483 N 219.916 1.42375 -2.53333 0
M  V30 2484 H 219.463 0.529466 -2.521 0
M  V30 2485 H 219.421 2.23117 -2.21509 0
M  V30 2486 N 223.193 1.4272 -0.668489 0
M  V30 2487 C 224.14 2.30796 0.0137489 0
M  V30 2488 C 225.11 1.4561 0.799177 0
M  V30 2489 O 226.295 1.74453 0.772702 0
M  V30 2490 C 223.435 3.31377 0.963507 0
M  V30 2491 C 222.548 4.31655 0.172569 0
M  V30 2492 C 221.683 5.19312 1.1175 0
M  V30 2493 C 220.722 6.11274 0.317886 0
M  V30 2494 N 219.859 6.91504 1.2152 0
M  V30 2495 H 224.699 2.88585 -0.743161 0
M  V30 2496 H 222.236 1.42154 -0.378226 0
M  V30 2497 H 224.194 3.88214 1.52792 0
M  V30 2498 H 222.824 2.75202 1.68712 0
M  V30 2499 H 221.876 3.76988 -0.508374 0
M  V30 2500 H 223.188 4.96779 -0.448527 0
M  V30 2501 H 222.342 5.80851 1.75206 0
M  V30 2502 H 221.081 4.5435 1.77249 0
M  V30 2503 H 220.086 5.48809 -0.329918 0
M  V30 2504 H 221.311 6.78283 -0.332917 0
M  V30 2505 H 219.257 6.29176 1.85671 0
M  V30 2506 H 219.174 7.53209 0.649036 0
M  V30 2507 H 220.442 7.57535 1.83742 0
M  V30 2508 N 224.671 0.411399 1.52136 0
M  V30 2509 C 225.92 -0.165009 2.01024 0
M  V30 2510 C 226.233 -1.4603 1.30133 0
M  V30 2511 O 227.439 -2.1181 1.69849 0
M  V30 2512 C 225.895 -0.344618 3.58246 0
M  V30 2513 C 225.503 0.938716 4.38055 0
M  V30 2514 C 227.247 -0.876195 4.15359 0
M  V30 2515 C 225.154 0.726172 5.86925 0
M  V30 2516 H 224.084 -0.0654407 0.751155 0
M  V30 2517 H 226.735 0.537192 1.75461 0
M  V30 2518 H 225.117 -1.10921 3.80148 0
M  V30 2519 H 226.291 1.70963 4.27912 0
M  V30 2520 H 224.606 1.39688 3.92271 0
M  V30 2521 H 227.203 -1.05128 5.24263 0
M  V30 2522 H 227.546 -1.85152 3.7286 0
M  V30 2523 H 228.079 -0.170607 3.97434 0
M  V30 2524 H 224.818 1.67312 6.33788 0
M  V30 2525 H 224.338 -0.00540283 5.998 0
M  V30 2526 H 226.017 0.369231 6.45946 0
M  V30 2527 N 226.149 -1.5696 0.141893 0
M  V30 2528 C 227.377 -2.00322 -0.517579 0
M  V30 2529 C 227.792 -1.02193 -1.58752 0
M  V30 2530 O 227.149 -0.0181619 -1.82491 0
M  V30 2531 C 227.2 -3.43618 -1.12289 0
M  V30 2532 O 226.921 -4.37995 -0.0956929 0
M  V30 2533 C 228.422 -4.02231 -1.86347 0
M  V30 2534 H 225.642 -0.657243 -0.135177 0
M  V30 2535 H 228.186 -2.03146 0.234973 0
M  V30 2536 H 226.341 -3.41662 -1.82609 0
M  V30 2537 H 226.755 -5.21729 -0.538469 0
M  V30 2538 H 228.229 -5.04509 -2.23997 0
M  V30 2539 H 228.706 -3.42655 -2.74744 0
M  V30 2540 H 229.312 -4.07802 -1.20737 0
M  V30 2541 N 227.627 0.131896 -1.57047 0
M  V30 2542 C 228.874 0.841932 -1.84168 0
M  V30 2543 C 229.202 1.8048 -0.725066 0
M  V30 2544 O 228.457 1.93618 0.284692 0
M  V30 2545 C 228.756 1.63703 -3.17704 0
M  V30 2546 C 228.422 0.81961 -4.43388 0
M  V30 2547 C 227.084 0.594148 -4.77518 0
M  V30 2548 C 229.436 0.248977 -5.20605 0
M  V30 2549 C 226.764 -0.212409 -5.86315 0
M  V30 2550 C 229.116 -0.544701 -6.30251 0
M  V30 2551 C 227.78 -0.780599 -6.6292 0
M  V30 2552 H 227.05 0.308085 -0.673917 0
M  V30 2553 H 229.697 0.104867 -1.91213 0
M  V30 2554 H 228.002 2.44464 -3.06177 0
M  V30 2555 H 229.699 2.19015 -3.35907 0
M  V30 2556 H 226.289 1.00542 -4.16641 0
M  V30 2557 H 230.473 0.410408 -4.946 0
M  V30 2558 H 225.729 -0.404524 -6.1006 0
M  V30 2559 H 229.903 -0.993922 -6.89271 0
M  V30 2560 H 227.53 -1.40742 -7.47058 0
M  V30 2561 N 229.106 1.52395 0.401703 0
M  V30 2562 C 230.352 1.67065 1.14966 0
M  V30 2563 C 230.685 0.403052 1.89971 0
M  V30 2564 O 229.96 -0.598774 1.85054 0
M  V30 2565 C 230.243 2.8975 2.13815 0
M  V30 2566 C 230.096 4.26578 1.42658 0
M  V30 2567 C 231.415 3.07965 3.14397 0
M  V30 2568 H 228.534 0.607968 0.416587 0
M  V30 2569 H 231.176 1.84965 0.434511 0
M  V30 2570 H 229.326 2.74619 2.74803 0
M  V30 2571 H 230.998 4.53451 0.847329 0
M  V30 2572 H 229.241 4.27639 0.72849 0
M  V30 2573 H 229.912 5.08483 2.14823 0
M  V30 2574 H 232.388 3.22043 2.63491 0
M  V30 2575 H 231.264 3.95308 3.80819 0
M  V30 2576 H 231.525 2.21611 3.82545 0
M  V30 2577 N 230.584 -0.659388 1.43143 0
M  V30 2578 C 231.861 -1.41627 1.34912 0
M  V30 2579 C 232.241 -2.11099 -0.00607785 0
M  V30 2580 O 231.589 -2.04353 -1.02236 0
M  V30 2581 C 231.799 -2.40604 2.52805 0
M  V30 2582 C 233.147 -3.04789 2.95616 0
M  V30 2583 O 234.171 -2.50932 2.52807 0
M  V30 2584 O 233.03 -4.02421 3.69756 0
M  V30 2585 H 230.124 -0.63246 0.532844 0
M  V30 2586 H 232.67 -0.686814 1.5518 0
M  V30 2587 H 231.442 -1.88174 3.43083 0
M  V30 2588 H 231.065 -3.21009 2.34604 0
M  V30 2589 N 232.062 -1.29571 -0.897171 0
M  V30 2590 C 233.309 -1.17689 -1.6479 0
M  V30 2591 C 233.637 0.27107 -1.92602 0
M  V30 2592 O 232.892 1.21193 -1.53658 0
M  V30 2593 C 233.191 -1.9382 -3.00281 0
M  V30 2594 C 232.857 -3.43522 -2.92068 0
M  V30 2595 C 231.519 -3.84348 -2.89535 0
M  V30 2596 C 233.871 -4.38906 -2.81089 0
M  V30 2597 C 231.199 -5.18869 -2.73846 0
M  V30 2598 C 233.551 -5.73521 -2.66939 0
M  V30 2599 C 232.215 -6.13601 -2.62774 0
M  V30 2600 H 231.485 -0.430654 -0.603008 0
M  V30 2601 H 234.132 -1.60536 -1.04404 0
M  V30 2602 H 232.437 -1.4357 -3.64547 0
M  V30 2603 H 234.134 -1.82028 -3.57305 0
M  V30 2604 H 230.724 -3.11072 -2.94842 0
M  V30 2605 H 234.908 -4.08315 -2.82121 0
M  V30 2606 H 230.164 -5.4903 -2.69027 0
M  V30 2607 H 234.338 -6.47078 -2.57416 0
M  V30 2608 H 231.965 -7.17786 -2.50375 0
M  V30 2609 N 233.54 1.10788 -1.12088 0
M  V30 2610 C 234.47 2.19083 -0.807755 0
M  V30 2611 C 235.451 1.6858 0.226859 0
M  V30 2612 O 236.636 1.93997 0.0888475 0
M  V30 2613 C 233.766 3.46344 -0.257576 0
M  V30 2614 C 232.72 4.101 -1.22483 0
M  V30 2615 C 232.046 5.32016 -0.535052 0
M  V30 2616 C 233.346 4.54236 -2.57811 0
M  V30 2617 H 235.04 2.45534 -1.71328 0
M  V30 2618 H 232.586 1.1801 -0.825205 0
M  V30 2619 H 234.539 4.21392 -0.0262679 0
M  V30 2620 H 233.263 3.19373 0.683278 0
M  V30 2621 H 231.922 3.37054 -1.44189 0
M  V30 2622 H 231.57 5.01319 0.410827 0
M  V30 2623 H 231.27 5.75625 -1.18024 0
M  V30 2624 H 232.794 6.09799 -0.312695 0
M  V30 2625 H 234.208 5.20575 -2.40155 0
M  V30 2626 H 232.605 5.08682 -3.18375 0
M  V30 2627 H 233.675 3.6734 -3.16528 0
M  V30 2628 N 235.018 0.912232 1.28515 0
M  V30 2629 C 236.264 0.545405 1.95328 0
M  V30 2630 C 236.597 -0.908313 1.71649 0
M  V30 2631 O 235.872 -1.64575 1.03659 0
M  V30 2632 C 236.155 0.853483 3.4984 0
M  V30 2633 C 236.008 2.35982 3.82926 0
M  V30 2634 C 237.327 0.348589 4.38717 0
M  V30 2635 H 234.446 0.199626 0.709449 0
M  V30 2636 H 237.088 1.1412 1.5191 0
M  V30 2637 H 235.238 0.34643 3.86952 0
M  V30 2638 H 236.91 2.93738 3.55691 0
M  V30 2639 H 235.153 2.81543 3.30024 0
M  V30 2640 H 235.824 2.52593 4.90816 0
M  V30 2641 H 238.3 0.78294 4.08668 0
M  V30 2642 H 237.176 0.593242 5.45685 0
M  V30 2643 H 237.437 -0.751049 4.35674 0
M  V30 2644 N 236.496 -1.42363 0.676048 0
M  V30 2645 C 237.726 -2.05561 0.206967 0
M  V30 2646 C 238.134 -1.50887 -1.14148 0
M  V30 2647 O 237.477 -0.643933 -1.72044 0
M  V30 2648 C 237.539 -3.5944 0.0659508 0
M  V30 2649 C 237.203 -4.36812 1.34331 0
M  V30 2650 C 238.2 -4.67383 2.27704 0
M  V30 2651 C 235.885 -4.76429 1.59125 0
M  V30 2652 C 237.879 -5.36509 3.44147 0
M  V30 2653 C 235.566 -5.45294 2.75857 0
M  V30 2654 C 236.564 -5.75259 3.68193 0
M  V30 2655 O 236.252 -6.42712 4.82883 0
M  V30 2656 H 235.984 -0.668872 0.0979084 0
M  V30 2657 H 238.538 -1.83467 0.923531 0
M  V30 2658 H 236.768 -3.80197 -0.706204 0
M  V30 2659 H 238.457 -4.0427 -0.363418 0
M  V30 2660 H 239.223 -4.37275 2.09799 0
M  V30 2661 H 235.102 -4.52498 0.881258 0
M  V30 2662 H 238.646 -5.59814 4.16238 0
M  V30 2663 H 234.543 -5.7482 2.93688 0
M  V30 2664 H 235.311 -6.61204 4.82444 0
M  V30 2665 N 237.974 -0.419461 -1.51915 0
M  V30 2666 C 239.251 0.211999 -1.94448 0
M  V30 2667 C 239.631 1.61703 -1.35703 0
M  V30 2668 O 238.979 2.22102 -0.536931 0
M  V30 2669 C 239.189 0.207872 -3.4838 0
M  V30 2670 C 240.537 0.422192 -4.22496 0
M  V30 2671 O 241.561 0.286778 -3.55044 0
M  V30 2672 O 240.42 0.690009 -5.42126 0
M  V30 2673 H 237.514 0.139586 -0.815135 0
M  V30 2674 H 240.06 -0.476151 -1.62883 0
M  V30 2675 H 238.832 -0.775102 -3.83546 0
M  V30 2676 H 238.455 0.939688 -3.86336 0
M  V30 2677 N 239.452 1.56882 -0.150215 0
M  V30 2678 C 240.698 1.96518 0.500834 0
M  V30 2679 C 241.031 1.03527 1.64304 0
M  V30 2680 O 240.306 0.0782751 1.94342 0
M  V30 2681 C 240.589 3.45822 1.00395 0
M  V30 2682 C 240.442 4.49591 -0.136983 0
M  V30 2683 C 241.761 3.97704 1.88467 0
M  V30 2684 H 238.88 0.714535 0.18058 0
M  V30 2685 H 241.522 1.88577 -0.232091 0
M  V30 2686 H 239.672 3.5272 1.62851 0
M  V30 2687 H 241.344 4.5477 -0.77343 0
M  V30 2688 H 239.587 4.26441 -0.795652 0
M  V30 2689 H 240.258 5.51402 0.256815 0
M  V30 2690 H 242.734 3.93304 1.35834 0
M  V30 2691 H 241.61 5.0263 2.20578 0
M  V30 2692 H 241.871 3.40252 2.82279 0
M  V30 2693 N 240.93 -0.123565 1.57115 0
M  V30 2694 C 241.86 -1.15309 2.03042 0
M  V30 2695 C 242.841 -1.43454 0.914061 0
M  V30 2696 O 244.026 -1.53973 1.18347 0
M  V30 2697 C 241.156 -2.48043 2.43089 0
M  V30 2698 C 240.11 -2.3437 3.58127 0
M  V30 2699 C 239.436 -3.72026 3.84059 0
M  V30 2700 C 240.736 -1.80804 4.90007 0
M  V30 2701 H 242.43 -0.771102 2.893 0
M  V30 2702 H 239.976 -0.369479 1.39179 0
M  V30 2703 H 241.929 -3.20311 2.73823 0
M  V30 2704 H 240.653 -2.88122 1.53796 0
M  V30 2705 H 239.312 -1.64551 3.27595 0
M  V30 2706 H 238.96 -4.09582 2.91979 0
M  V30 2707 H 238.66 -3.63732 4.6149 0
M  V30 2708 H 240.184 -4.45806 4.1724 0
M  V30 2709 H 241.598 -2.42886 5.19307 0
M  V30 2710 H 239.995 -1.83343 5.71407 0
M  V30 2711 H 241.065 -0.76528 4.78823 0
M  V30 2712 N 242.408 -1.52605 -0.393616 0
M  V30 2713 C 243.685 -1.58001 -1.15304 0
M  V30 2714 C 244.065 -0.370385 -2.07825 0
M  V30 2715 O 243.413 0.641638 -2.19306 0
M  V30 2716 C 243.623 -2.91652 -1.91677 0
M  V30 2717 C 244.971 -3.4522 -2.47201 0
M  V30 2718 O 245.995 -2.93495 -2.01839 0
M  V30 2719 O 244.854 -4.35579 -3.3005 0
M  V30 2720 H 241.948 -0.637068 -0.527327 0
M  V30 2721 H 244.494 -1.64939 -0.399141 0
M  V30 2722 H 243.266 -3.71136 -1.23992 0
M  V30 2723 H 242.889 -2.88077 -2.74039 0
M  V30 2724 N 243.887 0.651787 -1.4349 0
M  V30 2725 C 244.817 1.77621 -1.51569 0
M  V30 2726 C 245.798 1.66022 -0.370253 0
M  V30 2727 O 246.983 1.85095 -0.587658 0
M  V30 2728 C 244.113 3.16056 -1.43966 0
M  V30 2729 C 243.067 3.4242 -2.56774 0
M  V30 2730 C 242.393 4.8067 -2.34223 0
M  V30 2731 C 243.693 3.37023 -3.99015 0
M  V30 2732 H 245.387 1.71117 -2.45681 0
M  V30 2733 H 242.933 0.821825 -1.18246 0
M  V30 2734 H 244.886 3.94472 -1.48221 0
M  V30 2735 H 243.61 3.23293 -0.463586 0
M  V30 2736 H 242.269 2.66375 -2.51873 0
M  V30 2737 H 241.917 4.84585 -1.34856 0
M  V30 2738 H 241.617 4.9927 -3.09844 0
M  V30 2739 H 243.141 5.61342 -2.40265 0
M  V30 2740 H 244.555 4.05374 -4.05395 0
M  V30 2741 H 242.952 3.67159 -4.74673 0
M  V30 2742 H 244.022 2.3518 -4.2405 0
M  V30 2743 N 245.365 1.30045 0.890287 0
M  V30 2744 C 246.315 1.12592 1.9826 0
M  V30 2745 C 247.299 0.0426021 1.60844 0
M  V30 2746 O 248.491 0.265346 1.75 0
M  V30 2747 C 245.62 0.814301 3.33503 0
M  V30 2748 C 244.706 1.93761 3.7725 0
M  V30 2749 N 245.097 3.18232 3.93143 0
M  V30 2750 C 243.395 1.83277 4.06602 0
M  V30 2751 C 244.096 3.9158 4.30163 0
M  V30 2752 N 243.072 3.19591 4.3973 0
M  V30 2753 H 246.874 2.07003 2.08631 0
M  V30 2754 H 244.388 1.21307 1.07974 0
M  V30 2755 H 246.385 0.67029 4.11476 0
M  V30 2756 H 245.045 -0.121797 3.24471 0
M  V30 2757 H 246.056 3.53581 3.78419 0
M  V30 2758 H 242.733 0.97001 4.06075 0
M  V30 2759 H 244.123 4.98744 4.50226 0
M  V30 2760 N 246.843 -1.10192 1.12674 0
M  V30 2761 C 248.259 -1.34235 0.863317 0
M  V30 2762 C 248.459 -1.95062 -0.505277 0
M  V30 2763 O 247.515 -2.19192 -1.25345 0
M  V30 2764 C 248.828 -2.2616 1.98172 0
M  V30 2765 C 250.376 -2.3969 2.0129 0
M  V30 2766 C 250.851 -3.34946 3.1237 0
M  V30 2767 N 252.342 -3.42515 3.11829 0
M  V30 2768 C 253.077 -4.16199 3.94419 0
M  V30 2769 N 252.573 -4.92747 4.87004 0
M  V30 2770 N 254.366 -4.11843 3.82547 0
M  V30 2771 H 246.517 -0.690798 2.00853 0
M  V30 2772 H 248.78 -0.366774 0.874174 0
M  V30 2773 H 248.486 -1.8868 2.96804 0
M  V30 2774 H 248.36 -3.26488 1.88906 0
M  V30 2775 H 250.747 -2.76438 1.03276 0
M  V30 2776 H 250.828 -1.39169 2.14629 0
M  V30 2777 H 250.472 -2.98923 4.10619 0
M  V30 2778 H 250.402 -4.35353 2.96269 0
M  V30 2779 H 252.893 -2.87926 2.44759 0
M  V30 2780 H 253.206 -5.46376 5.46528 0
M  V30 2781 H 251.551 -4.91862 4.91016 0
M  V30 2782 H 254.742 -3.51136 3.0955 0
M  V30 2783 H 254.915 -4.69007 4.47142 0
M  V30 2784 N 248.321 -0.919034 -1.28029 0
M  V30 2785 C 249.57 -0.550802 -1.94034 0
M  V30 2786 C 249.883 0.910877 -1.73096 0
M  V30 2787 O 251.089 1.3875 -2.33368 0
M  V30 2788 C 249.545 -0.934249 -3.47563 0
M  V30 2789 C 249.153 -2.41602 -3.7727 0
M  V30 2790 C 250.897 -0.636854 -4.19696 0
M  V30 2791 C 248.804 -2.73932 -5.24133 0
M  V30 2792 H 247.734 -0.202273 -0.726362 0
M  V30 2793 H 250.385 -1.11867 -1.45458 0
M  V30 2794 H 248.767 -0.295115 -3.94899 0
M  V30 2795 H 249.941 -3.10233 -3.40723 0
M  V30 2796 H 248.256 -2.68441 -3.18321 0
M  V30 2797 H 250.853 -0.855005 -5.2782 0
M  V30 2798 H 251.196 0.425575 -4.14119 0
M  V30 2799 H 251.729 -1.23469 -3.78154 0
M  V30 2800 H 248.468 -3.79049 -5.34792 0
M  V30 2801 H 247.988 -2.09942 -5.61858 0
M  V30 2802 H 249.667 -2.61215 -5.91925 0
M  V30 2803 N 249.799 1.42003 -0.683588 0
M  V30 2804 C 251.046 2.01413 -0.209514 0
M  V30 2805 C 251.374 1.54088 1.1869 0
M  V30 2806 O 250.629 0.737591 1.81268 0
M  V30 2807 C 250.928 3.56827 -0.202357 0
M  V30 2808 C 250.594 4.23617 -1.54464 0
M  V30 2809 C 249.256 4.41577 -1.91215 0
M  V30 2810 C 251.608 4.61178 -2.42826 0
M  V30 2811 C 248.936 4.9437 -3.15935 0
M  V30 2812 C 251.288 5.15355 -3.66867 0
M  V30 2813 C 249.952 5.31528 -4.03776 0
M  V30 2814 H 249.222 0.737023 -0.0766668 0
M  V30 2815 H 251.869 1.70067 -0.880312 0
M  V30 2816 H 250.174 3.87892 0.551969 0
M  V30 2817 H 251.871 4.00588 0.181793 0
M  V30 2818 H 248.461 4.10004 -1.24877 0
M  V30 2819 H 252.645 4.46968 -2.15717 0
M  V30 2820 H 247.901 5.05076 -3.44541 0
M  V30 2821 H 252.075 5.43402 -4.35531 0
M  V30 2822 H 249.702 5.72199 -5.00492 0
M  V30 2823 N 251.277 0.427512 1.51691 0
M  V30 2824 C 252.187 -0.39527 2.31246 0
M  V30 2825 C 253.203 -1.03674 1.39742 0
M  V30 2826 O 254.379 -1.03425 1.72816 0
M  V30 2827 C 251.444 -1.48706 3.13189 0
M  V30 2828 C 250.505 -0.866743 4.20459 0
M  V30 2829 C 249.738 -1.90651 4.98486 0
M  V30 2830 O 249.961 -3.12733 4.77026 0
M  V30 2831 O 248.895 -1.5025 5.82845 0
M  V30 2832 H 252.721 0.253918 3.02637 0
M  V30 2833 H 250.306 0.190274 1.48183 0
M  V30 2834 H 252.188 -2.12047 3.64162 0
M  V30 2835 H 250.863 -2.12051 2.44573 0
M  V30 2836 H 249.77 -0.195544 3.73589 0
M  V30 2837 H 251.103 -0.276934 4.9142 0
M  V30 2838 N 252.755 -1.56801 0.158532 0
M  V30 2839 C 254.166 -1.83189 -0.360366 0
M  V30 2840 C 254.517 -1.07778 -1.63946 0
M  V30 2841 O 253.642 -0.326718 -2.13919 0
M  V30 2842 C 254.237 -3.32297 -0.660595 0
M  V30 2843 C 252.796 -3.59227 -1.12398 0
M  V30 2844 C 251.943 -2.76877 -0.153097 0
M  V30 2845 H 254.894 -1.54008 0.383031 0
M  V30 2846 H 254.915 -3.4908 -1.51405 0
M  V30 2847 H 254.427 -3.87156 0.270527 0
M  V30 2848 H 252.528 -3.09766 -2.07064 0
M  V30 2849 H 252.641 -4.67632 -1.04197 0
M  V30 2850 H 251.005 -2.46319 -0.647983 0
M  V30 2851 H 251.788 -3.34511 0.77182 0
M  V30 2852 N 254.233 0.115231 -1.57178 0
M  V30 2853 C 255.18 1.14115 -2.00615 0
M  V30 2854 C 256.15 1.40939 -0.878941 0
M  V30 2855 O 257.335 1.52741 -1.14345 0
M  V30 2856 C 254.475 2.46156 -2.4187 0
M  V30 2857 C 253.588 2.26236 -3.68024 0
M  V30 2858 C 252.723 3.51534 -3.98243 0
M  V30 2859 C 251.762 3.26787 -5.17568 0
M  V30 2860 N 250.899 4.44298 -5.43639 0
M  V30 2861 H 255.739 0.763743 -2.88047 0
M  V30 2862 H 253.276 0.365615 -1.42484 0
M  V30 2863 H 255.234 3.23189 -2.63827 0
M  V30 2864 H 253.864 2.81783 -1.57475 0
M  V30 2865 H 252.916 1.40102 -3.5366 0
M  V30 2866 H 254.228 2.03929 -4.55208 0
M  V30 2867 H 253.382 4.36984 -4.20868 0
M  V30 2868 H 252.121 3.76876 -3.09541 0
M  V30 2869 H 251.126 2.39729 -4.94783 0
M  V30 2870 H 252.351 3.02812 -6.0785 0
M  V30 2871 H 250.297 4.69754 -4.57895 0
M  V30 2872 H 250.214 4.25109 -6.25154 0
M  V30 2873 H 251.482 5.3087 -5.70786 0
M  V30 2874 N 255.711 1.52812 0.385517 0
M  V30 2875 C 256.951 1.69716 1.13911 0
M  V30 2876 C 257.315 0.42962 1.87132 0
M  V30 2877 O 258.516 0.475071 2.64569 0
M  V30 2878 C 256.787 2.90021 2.0886 0
M  V30 2879 S 258.346 3.27531 2.92009 0
M  V30 2880 H 255.164 0.59739 0.385547 0
M  V30 2881 H 257.766 1.90868 0.423061 0
M  V30 2882 H 256.47 3.80493 1.53797 0
M  V30 2883 H 256.001 2.71213 2.84969 0
M  V30 2884 H 258.016 2.77989 4.11019 0
M  V30 2885 N 257.189 -0.644168 1.43834 0
M  V30 2886 C 258.119 -1.76814 1.52509 0
M  V30 2887 C 259.1 -1.65823 0.379052 0
M  V30 2888 O 260.285 -1.84781 0.597466 0
M  V30 2889 C 257.415 -3.15288 1.4564 0
M  V30 2890 C 256.369 -3.41053 2.58586 0
M  V30 2891 C 255.695 -4.79421 2.36769 0
M  V30 2892 C 256.995 -3.34902 4.00797 0
M  V30 2893 H 258.689 -1.69812 2.46586 0
M  V30 2894 H 256.235 -0.815542 1.1868 0
M  V30 2895 H 258.188 -3.93681 1.50311 0
M  V30 2896 H 256.912 -3.23043 0.480725 0
M  V30 2897 H 255.571 -2.65035 2.53282 0
M  V30 2898 H 255.219 -4.83863 1.37424 0
M  V30 2899 H 254.919 -4.9762 3.12487 0
M  V30 2900 H 256.443 -5.6006 2.43238 0
M  V30 2901 H 257.857 -4.03218 4.07539 0
M  V30 2902 H 256.254 -3.64637 4.76613 0
M  V30 2903 H 257.324 -2.32928 4.25291 0
M  V30 2904 N 258.668 -1.30515 -0.883378 0
M  V30 2905 C 259.945 -1.10086 -1.6168 0
M  V30 2906 C 260.325 0.349269 -2.08191 0
M  V30 2907 O 259.673 1.34105 -1.85008 0
M  V30 2908 C 259.883 -2.10315 -2.78511 0
M  V30 2909 C 261.231 -2.42119 -3.48803 0
M  V30 2910 O 262.255 -2.08638 -2.88702 0
M  V30 2911 O 261.114 -2.99396 -4.57192 0
M  V30 2912 H 258.208 -0.422907 -0.710689 0
M  V30 2913 H 260.754 -1.41947 -0.930015 0
M  V30 2914 H 259.526 -3.07917 -2.41459 0
M  V30 2915 H 259.149 -1.79282 -3.54886 0
M  V30 2916 N 260.146 1.09593 -1.13257 0
M  V30 2917 C 261.109 2.14359 -0.811358 0
M  V30 2918 C 262.109 1.59808 0.178377 0
M  V30 2919 O 263.299 1.74132 -0.0484911 0
M  V30 2920 C 260.431 3.40269 -0.207276 0
M  V30 2921 H 261.624 2.44284 -1.73969 0
M  V30 2922 H 259.177 1.25102 -0.936973 0
M  V30 2923 H 259.912 3.15969 0.73036 0
M  V30 2924 H 259.697 3.81154 -0.919992 0
M  V30 2925 H 261.187 4.176 0.000667944 0
M  V30 2926 N 261.624 0.925811 1.2754 0
M  V30 2927 C 262.871 0.565255 1.94451 0
M  V30 2928 C 263.199 -0.89316 1.7278 0
M  V30 2929 O 262.454 -1.65213 1.04895 0
M  V30 2930 C 262.753 0.835296 3.47502 0
M  V30 2931 C 262.419 2.27515 3.89291 0
M  V30 2932 C 261.081 2.66879 4.00411 0
M  V30 2933 C 263.433 3.21158 4.10496 0
M  V30 2934 C 260.761 3.99014 4.30122 0
M  V30 2935 C 263.113 4.52871 4.4169 0
M  V30 2936 C 261.777 4.92072 4.51023 0
M  V30 2937 H 261.047 0.206841 0.711546 0
M  V30 2938 H 263.694 1.16942 1.51647 0
M  V30 2939 H 261.999 0.148442 3.91519 0
M  V30 2940 H 263.696 0.535322 3.97411 0
M  V30 2941 H 260.286 1.95976 3.81171 0
M  V30 2942 H 264.47 2.9195 4.01346 0
M  V30 2943 H 259.726 4.2907 4.35556 0
M  V30 2944 H 263.9 5.25436 4.57045 0
M  V30 2945 H 261.527 5.9449 4.738 0
M  V30 2946 N 263.102 -1.41638 0.69111 0
M  V30 2947 C 264.513 -1.84346 0.295517 0
M  V30 2948 C 264.864 -1.57833 -1.16547 0
M  V30 2949 O 263.989 -1.04648 -1.89414 0
M  V30 2950 C 264.584 -3.34636 0.529575 0
M  V30 2951 C 263.143 -3.7593 0.187944 0
M  V30 2952 C 262.29 -2.65082 0.814052 0
M  V30 2953 H 265.241 -1.31253 0.892092 0
M  V30 2954 H 265.262 -3.79903 -0.213148 0
M  V30 2955 H 264.774 -3.53901 1.59297 0
M  V30 2956 H 262.875 -3.62268 -0.871367 0
M  V30 2957 H 262.988 -4.74808 0.63985 0
M  V30 2958 H 261.352 -2.53528 0.244017 0
M  V30 2959 H 262.135 -2.87167 1.88123 0
M  V30 2960 N 264.58 -0.43555 -1.51462 0
M  V30 2961 C 265.528 0.391205 -2.29287 0
M  V30 2962 C 266.522 1.02247 -1.35062 0
M  V30 2963 O 267.728 0.957646 -1.52411 0
M  V30 2964 H 264.103 0.144968 -0.737895 0
M  V30 2965 H 266.074 -0.286051 -2.97026 0
M  V30 2966 C 264.823 1.48096 -3.14583 0
M  V30 2967 H 264.146 1.00457 -3.86973 0
M  V30 2968 H 265.586 2.03273 -3.72097 0
M  V30 2969 C 264.045 2.46321 -2.29843 0
M  V30 2970 O 264.575 3.50815 -1.95682 0
M  V30 2971 N 262.781 2.17166 -1.931 0
M  V30 2972 H 262.328 1.32218 -2.21079 0
M  V30 2973 H 262.286 2.83127 -1.36698 0
M  V30 2974 N 266.058 1.56714 -0.166846 0
M  V30 2975 C 266.988 2.20754 0.760913 0
M  V30 2976 C 267.969 1.16178 1.24244 0
M  V30 2977 O 269.154 1.44592 1.29641 0
M  V30 2978 C 266.284 2.84478 1.99223 0
M  V30 2979 C 265.238 3.95053 1.64672 0
M  V30 2980 C 264.564 4.45805 2.95232 0
M  V30 2981 C 265.864 5.14865 0.878155 0
M  V30 2982 H 267.558 2.98537 0.22713 0
M  V30 2983 H 265.104 1.43596 0.107805 0
M  V30 2984 H 267.057 3.27951 2.64624 0
M  V30 2985 H 265.781 2.04056 2.55007 0
M  V30 2986 H 264.44 3.52228 1.01641 0
M  V30 2987 H 264.088 3.62181 3.49047 0
M  V30 2988 H 263.788 5.204 2.7287 0
M  V30 2989 H 265.312 4.91962 3.6167 0
M  V30 2990 H 266.726 5.55059 1.43466 0
M  V30 2991 H 265.123 5.95348 0.753738 0
M  V30 2992 H 266.193 4.84735 -0.126377 0
M  V30 2993 N 267.536 -0.106894 1.57237 0
M  V30 2994 C 268.483 -1.13049 2.01217 0
M  V30 2995 C 269.453 -1.40471 0.886403 0
M  V30 2996 O 270.638 -1.52133 1.15153 0
M  V30 2997 C 267.778 -2.4487 2.43172 0
M  V30 2998 C 266.891 -2.24281 3.69218 0
M  V30 2999 C 266.026 -3.49417 4.00101 0
M  V30 3000 C 265.065 -3.24038 5.19294 0
M  V30 3001 N 264.202 -4.41409 5.45988 0
M  V30 3002 H 269.042 -0.748456 2.88448 0
M  V30 3003 H 266.579 -0.358054 1.42676 0
M  V30 3004 H 268.537 -3.21786 2.65537 0
M  V30 3005 H 267.167 -2.80944 1.58967 0
M  V30 3006 H 266.219 -1.38224 3.54398 0
M  V30 3007 H 267.531 -2.01512 4.56283 0
M  V30 3008 H 266.685 -4.34746 4.2318 0
M  V30 3009 H 265.424 -3.75229 3.11535 0
M  V30 3010 H 264.429 -2.37102 4.96047 0
M  V30 3011 H 265.654 -2.99584 6.09447 0
M  V30 3012 H 263.6 -4.67319 4.60379 0
M  V30 3013 H 263.517 -4.21788 6.274 0
M  V30 3014 H 264.785 -5.27836 5.73593 0
M  V30 3015 N 269.014 -1.53014 -0.377408 0
M  V30 3016 C 270.291 -1.59215 -1.13622 0
M  V30 3017 C 270.671 -0.392407 -2.07421 0
M  V30 3018 O 270.019 0.618342 -2.19975 0
M  V30 3019 C 270.229 -2.93669 -1.88573 0
M  V30 3020 C 271.577 -3.47822 -2.43526 0
M  V30 3021 O 272.601 -2.9562 -1.98715 0
M  V30 3022 O 271.46 -4.39055 -3.25412 0
M  V30 3023 H 268.554 -0.642625 -0.52054 0
M  V30 3024 H 271.1 -1.65353 -0.381625 0
M  V30 3025 H 269.872 -3.7243 -1.20048 0
M  V30 3026 H 269.495 -2.90968 -2.70968 0
M  V30 3027 N 270.492 0.636531 -1.44174 0
M  V30 3028 C 271.739 1.39619 -1.46672 0
M  V30 3029 C 272.067 1.94257 -0.0972691 0
M  V30 3030 O 271.322 1.73768 0.900175 0
M  V30 3031 C 271.621 2.58309 -2.47005 0
M  V30 3032 C 271.287 2.21992 -3.92467 0
M  V30 3033 C 269.949 2.118 -4.32081 0
M  V30 3034 C 272.301 1.9321 -4.84065 0
M  V30 3035 C 269.629 1.71007 -5.61225 0
M  V30 3036 C 271.981 1.53911 -6.13591 0
M  V30 3037 C 270.645 1.42257 -6.52165 0
M  V30 3038 H 269.915 0.510902 -0.536712 0
M  V30 3039 H 272.562 0.722328 -1.77355 0
M  V30 3040 H 270.867 3.30903 -2.09786 0
M  V30 3041 H 272.564 3.16533 -2.46186 0
M  V30 3042 H 269.154 2.30841 -3.61124 0
M  V30 3043 H 273.338 1.99997 -4.54219 0
M  V30 3044 H 268.594 1.60583 -5.89935 0
M  V30 3045 H 272.768 1.30677 -6.8403 0
M  V30 3046 H 270.395 1.10419 -7.52138 0
M  V30 3047 N 271.97 1.30982 0.876444 0
M  V30 3048 C 273.219 1.19658 1.62373 0
M  V30 3049 C 273.532 -0.245636 1.94052 0
M  V30 3050 O 274.738 -0.48049 2.67214 0
M  V30 3051 C 273.194 2.09433 2.92687 0
M  V30 3052 C 272.802 3.58613 2.68516 0
M  V30 3053 C 274.546 2.06893 3.70669 0
M  V30 3054 C 272.453 4.40416 3.94699 0
M  V30 3055 H 271.383 0.444268 0.609214 0
M  V30 3056 H 274.034 1.55791 0.969605 0
M  V30 3057 H 272.416 1.66191 3.59439 0
M  V30 3058 H 273.59 4.10058 2.10212 0
M  V30 3059 H 271.905 3.63063 2.03898 0
M  V30 3060 H 274.502 2.65258 4.64265 0
M  V30 3061 H 274.845 1.05448 4.02724 0
M  V30 3062 H 275.378 2.48301 3.10792 0
M  V30 3063 H 272.117 5.42591 3.67798 0
M  V30 3064 H 271.637 3.93731 4.52477 0
M  V30 3065 H 273.316 4.52294 4.62644 0
M  V30 3066 N 273.449 -1.08991 1.13837 0
M  V30 3067 C 274.674 -1.85551 0.926585 0
M  V30 3068 C 275.099 -1.80782 -0.519566 0
M  V30 3069 O 274.457 -1.18855 -1.36906 0
M  V30 3070 C 274.505 -3.31266 1.42462 0
M  V30 3071 O 273.609 -4.07822 0.612789 0
M  V30 3072 H 272.95 -0.575192 0.331738 0
M  V30 3073 H 275.48 -1.37604 1.51414 0
M  V30 3074 H 275.49 -3.82112 1.43019 0
M  V30 3075 H 274.165 -3.34052 2.47754 0
M  V30 3076 H 272.742 -3.66731 0.675463 0
M  V30 3077 N 274.927 -0.932562 -1.27047 0
M  V30 3078 C 276.343 -0.633544 -1.46487 0
M  V30 3079 C 276.543 0.815746 -1.84249 0
M  V30 3080 O 275.599 1.59319 -1.95892 0
M  V30 3081 C 276.912 -1.58758 -2.55375 0
M  V30 3082 C 278.46 -1.59634 -2.69232 0
M  V30 3083 C 278.935 -2.53747 -3.81283 0
M  V30 3084 N 280.426 -2.51982 -3.88664 0
M  V30 3085 C 281.161 -3.21491 -4.74796 0
M  V30 3086 N 280.657 -4.00395 -5.65381 0
M  V30 3087 N 282.45 -3.10485 -4.68568 0
M  V30 3088 H 274.601 -1.86946 -1.00821 0
M  V30 3089 H 276.864 -0.802897 -0.504044 0
M  V30 3090 H 276.57 -2.62172 -2.34432 0
M  V30 3091 H 276.444 -1.33301 -3.52861 0
M  V30 3092 H 278.831 -0.569488 -2.89553 0
M  V30 3093 H 278.912 -1.89142 -1.72218 0
M  V30 3094 H 278.556 -3.56545 -3.61715 0
M  V30 3095 H 278.486 -2.21532 -4.77735 0
M  V30 3096 H 280.977 -1.94681 -3.23895 0
M  V30 3097 H 281.29 -4.50406 -6.27976 0
M  V30 3098 H 279.635 -4.04498 -5.65161 0
M  V30 3099 H 282.826 -2.48331 -3.96799 0
M  V30 3100 H 282.999 -3.64925 -5.35475 0
M  V30 3101 N 276.405 1.4127 -0.698611 0
M  V30 3102 C 277.652 2.0118 -0.230865 0
M  V30 3103 C 277.98 1.55338 1.17049 0
M  V30 3104 O 277.235 0.756775 1.80475 0
M  V30 3105 C 277.534 3.56592 -0.240192 0
M  V30 3106 C 277.2 4.21955 -1.58948 0
M  V30 3107 C 275.862 4.39524 -1.95887 0
M  V30 3108 C 278.214 4.58576 -2.47704 0
M  V30 3109 C 275.542 4.90992 -3.2116 0
M  V30 3110 C 277.894 5.11435 -3.72313 0
M  V30 3111 C 276.558 5.27215 -4.0939 0
M  V30 3112 H 275.828 0.736169 -0.0844796 0
M  V30 3113 H 278.475 1.69124 -0.8983 0
M  V30 3114 H 276.78 3.88456 0.510797 0
M  V30 3115 H 278.477 4.00758 0.139296 0
M  V30 3116 H 275.067 4.08657 -1.29219 0
M  V30 3117 H 279.251 4.44654 -2.20445 0
M  V30 3118 H 274.507 5.01393 -3.49878 0
M  V30 3119 H 278.681 5.38752 -4.4127 0
M  V30 3120 H 276.308 5.66859 -5.06533 0
M  V30 3121 N 277.883 0.443576 1.51229 0
M  V30 3122 C 278.793 -0.370721 2.31652 0
M  V30 3123 C 279.809 -1.02186 1.40833 0
M  V30 3124 O 280.985 -1.01586 1.73903 0
M  V30 3125 C 278.05 -1.45376 3.14749 0
M  V30 3126 C 277.111 -0.822099 4.21355 0
M  V30 3127 C 276.344 -1.85353 5.0048 0
M  V30 3128 O 276.567 -3.07656 4.80316 0
M  V30 3129 O 275.501 -1.4406 5.84406 0
M  V30 3130 H 279.327 0.286002 3.0235 0
M  V30 3131 H 276.912 0.20598 1.47973 0
M  V30 3132 H 278.794 -2.08173 3.66391 0
M  V30 3133 H 277.469 -2.09445 2.46809 0
M  V30 3134 H 276.376 -0.155909 3.73775 0
M  V30 3135 H 277.709 -0.224797 4.91686 0
M  V30 3136 N 279.361 -1.56624 0.175154 0
M  V30 3137 C 280.609 -1.96609 -0.467885 0
M  V30 3138 C 280.93 -1.06238 -1.63519 0
M  V30 3139 O 280.2 -0.129523 -1.95471 0
M  V30 3140 H 278.78 -0.726008 -0.175845 0
M  V30 3141 H 281.442 -1.93195 0.257234 0
M  V30 3142 H 280.538 -3.00989 -0.825342 0
M  V30 3143 N 280.839 0.0985539 -1.57292 0
M  V30 3144 C 281.769 1.12064 -2.04851 0
M  V30 3145 C 282.75 1.41981 -0.936767 0
M  V30 3146 O 283.935 1.52071 -1.20781 0
M  V30 3147 C 281.065 2.44144 -2.47004 0
M  V30 3148 C 280.019 2.28643 -3.6181 0
M  V30 3149 C 279.345 3.65869 -3.89929 0
M  V30 3150 C 280.645 1.72986 -4.92822 0
M  V30 3151 H 282.339 0.724979 -2.9049 0
M  V30 3152 H 279.885 0.34729 -1.39749 0
M  V30 3153 H 281.838 3.15914 -2.78884 0
M  V30 3154 H 280.562 2.85639 -1.5836 0
M  V30 3155 H 279.221 1.59318 -3.30172 0
M  V30 3156 H 278.869 4.04885 -2.98458 0
M  V30 3157 H 278.569 3.56344 -4.67218 0
M  V30 3158 H 280.093 4.39112 -4.2428 0
M  V30 3159 H 281.507 2.34593 -5.23105 0
M  V30 3160 H 279.904 1.74229 -5.74251 0
M  V30 3161 H 280.974 0.689007 -4.7998 0
M  V30 3162 N 282.317 1.53212 0.369288 0
M  V30 3163 C 283.227 1.82342 1.47609 0
M  V30 3164 C 284.243 0.711532 1.58787 0
M  V30 3165 O 285.419 1.0012 1.74751 0
M  V30 3166 C 282.484 2.00393 2.8292 0
M  V30 3167 C 281.545 3.24297 2.81301 0
M  V30 3168 C 280.778 3.41478 4.10157 0
M  V30 3169 O 281.001 2.63033 5.06132 0
M  V30 3170 O 279.935 4.34817 4.16194 0
M  V30 3171 H 283.761 2.76366 1.25918 0
M  V30 3172 H 281.346 1.38547 0.559034 0
M  V30 3173 H 283.228 2.13859 3.63101 0
M  V30 3174 H 281.903 1.09559 3.04596 0
M  V30 3175 H 280.81 3.16257 1.99831 0
M  V30 3176 H 282.143 4.15041 2.64578 0
M  V30 3177 N 283.795 -0.628877 1.44509 0
M  V30 3178 C 284.742 -1.74074 1.51549 0
M  V30 3179 C 285.712 -1.62084 0.363021 0
M  V30 3180 O 286.897 -1.81975 0.573567 0
M  V30 3181 C 284.037 -3.12328 1.46784 0
M  V30 3182 C 283.15 -3.35277 2.72422 0
M  V30 3183 C 282.285 -4.63515 2.59475 0
M  V30 3184 C 281.324 -4.7965 3.80266 0
M  V30 3185 N 280.461 -5.99168 3.65981 0
M  V30 3186 H 285.301 -1.67392 2.46544 0
M  V30 3187 H 282.838 -0.816527 1.22357 0
M  V30 3188 H 284.796 -3.92286 1.42012 0
M  V30 3189 H 283.426 -3.18018 0.553544 0
M  V30 3190 H 282.478 -2.49242 2.87372 0
M  V30 3191 H 283.79 -3.43078 3.62076 0
M  V30 3192 H 282.944 -5.51638 2.52548 0
M  V30 3193 H 281.683 -4.58076 1.67384 0
M  V30 3194 H 280.688 -3.89957 3.87574 0
M  V30 3195 H 281.913 -4.86902 4.73395 0
M  V30 3196 H 279.859 -5.94814 2.76644 0
M  V30 3197 H 279.776 -6.08035 4.49254 0
M  V30 3198 H 281.044 -6.89846 3.6295 0
M  V30 3199 N 285.273 -1.31445 -0.869486 0
M  V30 3200 C 286.522 -1.20517 -1.61736 0
M  V30 3201 C 286.835 0.235341 -1.94179 0
M  V30 3202 O 288.041 0.466312 -2.67465 0
M  V30 3203 C 286.497 -2.10982 -2.91573 0
M  V30 3204 C 286.105 -3.60032 -2.66611 0
M  V30 3205 C 287.849 -2.08856 -3.69567 0
M  V30 3206 C 285.756 -4.42503 -3.92358 0
M  V30 3207 H 284.686 -0.447493 -0.606849 0
M  V30 3208 H 287.337 -1.56303 -0.96133 0
M  V30 3209 H 285.719 -1.68095 -3.58553 0
M  V30 3210 H 286.893 -4.11167 -2.08035 0
M  V30 3211 H 285.208 -3.64139 -2.0197 0
M  V30 3212 H 287.805 -2.67716 -4.62852 0
M  V30 3213 H 288.148 -1.07582 -4.02159 0
M  V30 3214 H 288.681 -2.49945 -3.09471 0
M  V30 3215 H 285.42 -5.44533 -3.64916 0
M  V30 3216 H 284.94 -3.96125 -4.50383 0
M  V30 3217 H 286.619 -4.54741 -4.60238 0
M  V30 3218 N 286.751 1.08385 -1.14413 0
M  V30 3219 C 287.976 1.85057 -0.936413 0
M  V30 3220 C 288.401 1.81055 0.509971 0
M  V30 3221 O 287.759 1.1958 1.36273 0
M  V30 3222 C 287.807 3.30505 -1.44217 0
M  V30 3223 O 286.911 4.07491 -0.634409 0
M  V30 3224 H 286.252 0.573425 -0.334784 0
M  V30 3225 H 288.782 1.36799 -1.52142 0
M  V30 3226 H 288.792 3.81348 -1.45043 0
M  V30 3227 H 287.467 3.32734 -2.49522 0
M  V30 3228 H 286.044 3.66368 -0.694902 0
M  V30 3229 N 288.23 0.939286 1.26551 0
M  V30 3230 C 289.193 0.451987 2.24699 0
M  V30 3231 C 290.193 -0.435869 1.5478 0
M  V30 3232 O 291.383 -0.235314 1.72603 0
M  V30 3233 C 288.515 -0.348801 3.39111 0
M  V30 3234 H 289.708 1.3193 2.69322 0
M  V30 3235 H 287.261 0.721072 1.38673 0
M  V30 3236 H 287.996 -1.23444 2.99887 0
M  V30 3237 H 287.781 0.287945 3.91041 0
M  V30 3238 H 289.271 -0.679726 4.12031 0
M  V30 3239 N 289.708 -1.40897 0.706093 0
M  V30 3240 C 290.938 -2.05075 0.250523 0
M  V30 3241 C 291.346 -1.53275 -1.10921 0
M  V30 3242 O 290.689 -0.680281 -1.7064 0
M  V30 3243 C 290.751 -3.59219 0.142178 0
M  V30 3244 C 290.415 -4.33864 1.43566 0
M  V30 3245 C 291.412 -4.62448 2.37566 0
M  V30 3246 C 289.097 -4.72946 1.69195 0
M  V30 3247 C 291.091 -5.29088 3.5545 0
M  V30 3248 C 288.778 -5.3932 2.87362 0
M  V30 3249 C 289.776 -5.6732 3.80312 0
M  V30 3250 O 289.464 -6.32325 4.96408 0
M  V30 3251 H 289.196 -0.666645 0.112074 0
M  V30 3252 H 291.75 -1.81467 0.962239 0
M  V30 3253 H 289.98 -3.81609 -0.6254 0
M  V30 3254 H 291.669 -4.0495 -0.277584 0
M  V30 3255 H 292.435 -4.32727 2.19027 0
M  V30 3256 H 288.314 -4.50527 0.977042 0
M  V30 3257 H 291.858 -5.50859 4.28018 0
M  V30 3258 H 287.755 -5.68461 3.05814 0
M  V30 3259 H 288.523 -6.50821 4.9636 0
M  V30 3260 N 291.186 -0.45159 -1.50991 0
M  V30 3261 C 292.119 0.398179 -2.24699 0
M  V30 3262 C 293.097 1.01276 -1.27208 0
M  V30 3263 O 294.281 1.05247 -1.56382 0
M  V30 3264 C 291.408 1.55618 -3.00833 0
M  V30 3265 C 290.454 1.0609 -4.13095 0
M  V30 3266 S 291.287 -0.00865136 -5.35499 0
M  V30 3267 C 292.443 1.15369 -6.15175 0
M  V30 3268 H 292.676 -0.227555 -2.96428 0
M  V30 3269 H 290.209 -0.236251 -1.52582 0
M  V30 3270 H 292.167 2.21997 -3.45293 0
M  V30 3271 H 290.828 2.15337 -2.28667 0
M  V30 3272 H 290.021 1.92726 -4.65696 0
M  V30 3273 H 289.623 0.47513 -3.7097 0
M  V30 3274 H 291.915 2.06925 -6.45126 0
M  V30 3275 H 292.858 0.667344 -7.04948 0
M  V30 3276 H 293.266 1.3987 -5.46897 0
M  V30 3277 N 292.664 1.56529 -0.183458 0
M  V30 3278 C 293.611 2.18546 0.742055 0
M  V30 3279 C 294.581 1.12912 1.2182 0
M  V30 3280 O 295.766 1.41115 1.28418 0
M  V30 3281 C 292.906 2.83977 1.96089 0
M  V30 3282 C 292.019 4.04105 1.52719 0
M  V30 3283 C 291.154 4.57427 2.70063 0
M  V30 3284 C 290.193 5.69938 2.23243 0
M  V30 3285 N 289.33 6.17717 3.33722 0
M  V30 3286 H 294.17 2.97284 0.206432 0
M  V30 3287 H 291.707 1.46823 0.0901571 0
M  V30 3288 H 293.665 3.20077 2.67594 0
M  V30 3289 H 292.295 2.07822 2.47002 0
M  V30 3290 H 291.347 3.73745 0.708436 0
M  V30 3291 H 292.659 4.85513 1.1436 0
M  V30 3292 H 291.813 4.95772 3.49708 0
M  V30 3293 H 290.552 3.75101 3.11689 0
M  V30 3294 H 289.557 5.31133 1.42048 0
M  V30 3295 H 290.782 6.54073 1.82661 0
M  V30 3296 H 288.728 5.38317 3.74902 0
M  V30 3297 H 288.645 6.94146 2.99495 0
M  V30 3298 H 289.913 6.60713 4.13616 0
M  V30 3299 N 294.142 -0.090211 1.57342 0
M  V30 3300 C 295.367 -0.810082 1.90925 0
M  V30 3301 C 295.792 -1.71248 0.778187 0
M  V30 3302 O 295.15 -1.79278 -0.269991 0
M  V30 3303 C 295.198 -1.59529 3.23393 0
M  V30 3304 O 294.302 -2.70461 3.11327 0
M  V30 3305 H 293.643 -0.222231 0.625707 0
M  V30 3306 H 296.173 -0.0639716 2.045 0
M  V30 3307 H 296.183 -1.97847 3.5682 0
M  V30 3308 H 294.858 -0.933055 4.05299 0
M  V30 3309 H 293.435 -2.35135 2.89423 0
M  V30 3310 N 295.62 -1.53406 -0.361157 0
M  V30 3311 C 296.845 -1.74024 -1.12829 0
M  V30 3312 C 297.27 -0.470069 -1.82132 0
M  V30 3313 O 296.628 0.57619 -1.719 0
M  V30 3314 C 296.676 -2.90903 -2.13091 0
M  V30 3315 O 295.78 -2.59821 -3.20261 0
M  V30 3316 H 295.121 -0.577804 -0.327168 0
M  V30 3317 H 297.651 -2.00307 -0.41693 0
M  V30 3318 H 297.661 -3.17194 -2.56616 0
M  V30 3319 H 296.336 -3.83034 -1.62042 0
M  V30 3320 H 294.913 -2.44362 -2.81677 0
M  V30 3321 N 297.098 0.621204 -1.44841 0
M  V30 3322 C 298.514 0.94048 -1.28946 0
M  V30 3323 C 298.714 2.00154 -0.23249 0
M  V30 3324 O 297.77 2.49651 0.378237 0
M  V30 3325 C 299.083 1.39433 -2.66419 0
M  V30 3326 C 300.631 1.50927 -2.74208 0
M  V30 3327 C 301.106 1.99692 -4.12174 0
M  V30 3328 N 302.597 2.06947 -4.144 0
M  V30 3329 C 303.332 2.45871 -5.1801 0
M  V30 3330 N 302.828 2.83862 -6.31977 0
M  V30 3331 N 304.621 2.46092 -5.05366 0
M  V30 3332 H 296.772 -0.0803548 -2.12248 0
M  V30 3333 H 299.035 0.0266913 -0.947624 0
M  V30 3334 H 298.741 0.688925 -3.44887 0
M  V30 3335 H 298.615 2.36347 -2.93973 0
M  V30 3336 H 301.002 2.20561 -1.96053 0
M  V30 3337 H 301.083 0.523627 -2.50383 0
M  V30 3338 H 300.727 1.30649 -4.90809 0
M  V30 3339 H 300.657 2.99146 -4.33381 0
M  V30 3340 H 303.148 1.80232 -3.32152 0
M  V30 3341 H 303.461 3.12405 -7.0684 0
M  V30 3342 H 301.806 2.8159 -6.35399 0
M  V30 3343 H 304.997 2.1581 -4.15384 0
M  V30 3344 H 305.17 2.76102 -5.86235 0
M  V30 3345 N 298.576 1.31904 0.862503 0
M  V30 3346 C 299.823 1.22017 1.61611 0
M  V30 3347 C 300.151 -0.21991 1.93253 0
M  V30 3348 O 299.406 -1.17076 1.56817 0
M  V30 3349 C 299.705 2.01713 2.95037 0
M  V30 3350 C 299.371 3.51145 2.82857 0
M  V30 3351 C 298.033 3.91889 2.79243 0
M  V30 3352 C 300.385 4.46204 2.69353 0
M  V30 3353 C 297.713 5.25947 2.59993 0
M  V30 3354 C 300.065 5.80397 2.5164 0
M  V30 3355 C 298.729 6.20352 2.46413 0
M  V30 3356 H 297.999 0.44649 0.591378 0
M  V30 3357 H 300.646 1.63248 1.00111 0
M  V30 3358 H 298.951 1.53185 3.60613 0
M  V30 3359 H 300.648 1.91437 3.52353 0
M  V30 3360 H 297.238 3.1878 2.86491 0
M  V30 3361 H 301.422 4.15652 2.71196 0
M  V30 3362 H 296.678 5.5597 2.54376 0
M  V30 3363 H 300.852 6.53676 2.40169 0
M  V30 3364 H 298.479 7.24172 2.31256 0
M  V30 3365 N 300.054 -1.07777 1.14986 0
M  V30 3366 C 300.984 -2.16865 0.865557 0
M  V30 3367 C 301.965 -1.69123 -0.182083 0
M  V30 3368 O 303.15 -1.94164 -0.0373815 0
M  V30 3369 C 300.28 -3.45539 0.349313 0
M  V30 3370 C 299.234 -4.06708 1.33313 0
M  V30 3371 C 298.56 -5.30411 0.675918 0
M  V30 3372 C 299.86 -4.47241 2.69764 0
M  V30 3373 H 301.554 -2.40905 1.77778 0
M  V30 3374 H 299.1 -1.15781 0.856203 0
M  V30 3375 H 301.053 -4.21174 0.137983 0
M  V30 3376 H 299.777 -3.21072 -0.598362 0
M  V30 3377 H 298.436 -3.33112 1.53075 0
M  V30 3378 H 298.084 -5.02232 -0.277767 0
M  V30 3379 H 297.784 -5.72293 1.33244 0
M  V30 3380 H 299.308 -6.08755 0.474262 0
M  V30 3381 H 300.722 -5.14025 2.53873 0
M  V30 3382 H 299.119 -5.00062 3.3175 0
M  V30 3383 H 300.189 -3.58818 3.26156 0
M  V30 3384 N 301.532 -0.945985 -1.26051 0
M  V30 3385 C 302.943 -0.638096 -1.75457 0
M  V30 3386 C 303.294 0.846672 -1.76991 0
M  V30 3387 O 302.419 1.66262 -1.38513 0
M  V30 3388 C 303.014 -1.15157 -3.18629 0
M  V30 3389 C 301.573 -0.894004 -3.65629 0
M  V30 3390 C 300.72 -1.29967 -2.44957 0
M  V30 3391 H 303.671 -1.12376 -1.1206 0
M  V30 3392 H 303.692 -0.507615 -3.77099 0
M  V30 3393 H 303.204 -2.23222 -3.1748 0
M  V30 3394 H 301.305 0.172057 -3.72203 0
M  V30 3395 H 301.418 -1.52439 -4.54202 0
M  V30 3396 H 299.782 -0.718078 -2.44368 0
M  V30 3397 H 300.565 -2.38935 -2.46505 0
M  V30 3398 N 303.011 1.40521 -0.713556 0
M  V30 3399 C 304.427 1.54839 -0.386907 0
M  V30 3400 C 304.627 1.68532 1.1045 0
M  V30 3401 O 303.683 1.67377 1.89053 0
M  V30 3402 C 304.996 2.77792 -1.15118 0
M  V30 3403 C 306.544 2.91607 -1.13729 0
M  V30 3404 C 307.019 4.1747 -1.88368 0
M  V30 3405 N 308.51 4.24466 -1.85427 0
M  V30 3406 C 309.245 5.20755 -2.40004 0
M  V30 3407 N 308.741 6.22965 -3.03129 0
M  V30 3408 N 310.534 5.1282 -2.30158 0
M  V30 3409 H 302.685 1.29879 -1.68063 0
M  V30 3410 H 304.948 0.627896 -0.710247 0
M  V30 3411 H 304.654 2.73944 -2.20561 0
M  V30 3412 H 304.528 3.6984 -0.741477 0
M  V30 3413 H 306.915 2.94959 -0.0910608 0
M  V30 3414 H 306.996 2.00682 -1.5862 0
M  V30 3415 H 306.64 4.1488 -2.9298 0
M  V30 3416 H 306.57 5.074 -1.40898 0
M  V30 3417 H 309.061 3.51241 -1.3942 0
M  V30 3418 H 309.374 6.92859 -3.42295 0
M  V30 3419 H 307.719 6.23415 -3.07212 0
M  V30 3420 H 310.91 4.31899 -1.80501 0
M  V30 3421 H 311.083 5.87689 -2.72993 0
M  V30 3422 N 304.489 0.459591 1.5075 0
M  V30 3423 C 305.9 0.00171547 1.867 0
M  V30 3424 C 306.251 -1.39934 1.37525 0
M  V30 3425 O 305.376 -2.03523 0.735349 0
M  V30 3426 C 305.971 -0.00366298 3.388 0
M  V30 3427 C 304.53 -0.406026 3.74204 0
M  V30 3428 C 303.677 0.38673 2.7459 0
M  V30 3429 H 306.628 0.674413 1.43657 0
M  V30 3430 H 306.649 -0.808371 3.71814 0
M  V30 3431 H 306.161 1.01617 3.74561 0
M  V30 3432 H 304.262 -1.43063 3.4404 0
M  V30 3433 H 304.375 -0.115362 4.78961 0
M  V30 3434 H 302.739 -0.158019 2.54209 0
M  V30 3435 H 303.522 1.40585 3.13194 0
M  V30 3436 N 305.967 -1.56429 0.191757 0
M  V30 3437 C 307.213 -1.97777 -0.448554 0
M  V30 3438 C 307.546 -1.07847 -1.61501 0
M  V30 3439 O 306.821 -0.129774 -1.94067 0
M  V30 3440 C 307.104 -3.48362 -0.911906 0
M  V30 3441 C 306.957 -4.4907 0.256136 0
M  V30 3442 C 308.276 -4.02561 -1.77857 0
M  V30 3443 H 305.395 -0.719071 -0.161572 0
M  V30 3444 H 308.037 -1.87896 0.282007 0
M  V30 3445 H 306.187 -3.56914 -1.53442 0
M  V30 3446 H 307.859 -4.5256 0.893733 0
M  V30 3447 H 306.102 -4.24181 0.908436 0
M  V30 3448 H 306.773 -5.51889 -0.11053 0
M  V30 3449 H 309.249 -3.96767 -1.25359 0
M  V30 3450 H 308.125 -5.08301 -2.07174 0
M  V30 3451 H 308.386 -3.47616 -2.73158 0
M  V30 3452 N 307.445 0.0818655 -1.57387 0
M  V30 3453 C 308.692 0.782914 -1.86753 0
M  V30 3454 C 309.02 1.78082 -0.782118 0
M  V30 3455 O 308.275 1.94426 0.22295 0
M  V30 3456 C 308.574 1.53513 -3.22752 0
M  V30 3457 C 308.24 0.678134 -4.45771 0
M  V30 3458 C 306.902 0.441929 -4.79166 0
M  V30 3459 C 309.254 0.0832243 -5.21134 0
M  V30 3460 C 306.582 -0.398833 -5.85343 0
M  V30 3461 C 308.934 -0.744935 -6.28199 0
M  V30 3462 C 307.598 -0.991107 -6.60101 0
M  V30 3463 H 306.868 0.286489 -0.683378 0
M  V30 3464 H 309.515 0.0439808 -1.91449 0
M  V30 3465 H 307.82 2.34599 -3.138 0
M  V30 3466 H 309.517 2.08218 -3.42705 0
M  V30 3467 H 306.107 0.872357 -4.19628 0
M  V30 3468 H 310.291 0.252847 -4.95655 0
M  V30 3469 H 305.547 -0.598405 -6.08465 0
M  V30 3470 H 309.721 -1.21271 -6.8576 0
M  V30 3471 H 307.348 -1.64437 -7.42202 0
M  V30 3472 N 308.923 1.53595 0.353017 0
M  V30 3473 C 310.148 1.7462 1.11904 0
M  V30 3474 C 310.573 0.479721 1.8188 0
M  V30 3475 O 309.931 -0.567066 1.72204 0
M  V30 3476 C 309.979 2.92029 2.11545 0
M  V30 3477 O 309.083 2.61516 3.18878 0
M  V30 3478 H 308.424 0.579531 0.324099 0
M  V30 3479 H 310.954 2.00525 0.406301 0
M  V30 3480 H 310.964 3.18551 2.5493 0
M  V30 3481 H 309.639 3.83888 1.60008 0
M  V30 3482 H 308.216 2.45852 2.80377 0
M  V30 3483 N 310.401 -0.613514 1.45168 0
M  V30 3484 C 311.348 -1.72456 1.53387 0
M  V30 3485 C 312.318 -1.6169 0.380191 0
M  V30 3486 O 313.503 -1.81356 0.592836 0
M  V30 3487 C 310.643 -3.10753 1.50088 0
M  V30 3488 C 309.756 -3.32368 2.75963 0
M  V30 3489 C 308.891 -4.60737 2.64376 0
M  V30 3490 C 307.93 -4.7559 3.85332 0
M  V30 3491 N 307.067 -5.95253 3.72315 0
M  V30 3492 H 311.907 -1.64768 2.48305 0
M  V30 3493 H 309.444 -0.803503 1.23216 0
M  V30 3494 H 311.402 -3.90758 1.46164 0
M  V30 3495 H 310.032 -3.17413 0.587243 0
M  V30 3496 H 309.084 -2.4618 2.89999 0
M  V30 3497 H 310.396 -3.39218 3.65695 0
M  V30 3498 H 309.55 -5.48928 2.58385 0
M  V30 3499 H 308.289 -4.56275 1.72233 0
M  V30 3500 H 307.294 -3.85824 3.91688 0
M  V30 3501 H 308.519 -4.81854 4.78533 0
M  V30 3502 H 306.465 -5.91847 2.82937 0
M  V30 3503 H 306.382 -6.03236 4.55677 0
M  V30 3504 H 307.65 -6.85958 3.70246 0
M  V30 3505 N 311.879 -1.3236 -0.855495 0
M  V30 3506 C 312.812 -1.15559 -1.96777 0
M  V30 3507 C 313.79 -0.0552681 -1.62506 0
M  V30 3508 O 314.974 -0.214419 -1.87277 0
M  V30 3509 C 312.101 -0.768851 -3.29858 0
M  V30 3510 C 311.147 -1.87429 -3.83109 0
M  V30 3511 S 311.98 -3.48243 -4.06801 0
M  V30 3512 C 313.136 -3.11539 -5.42858 0
M  V30 3513 H 313.369 -2.09717 -2.10727 0
M  V30 3514 H 310.902 -1.17011 -1.00737 0
M  V30 3515 H 312.86 -0.55248 -4.06765 0
M  V30 3516 H 311.521 0.153857 -3.13723 0
M  V30 3517 H 310.714 -1.55667 -4.79358 0
M  V30 3518 H 310.316 -2.04647 -3.13042 0
M  V30 3519 H 312.608 -2.61331 -6.2507 0
M  V30 3520 H 313.551 -4.06806 -5.79582 0
M  V30 3521 H 313.959 -2.48582 -5.06821 0
M  V30 3522 N 313.357 1.07166 -1.15556 0
M  V30 3523 C 314.32 2.12589 -0.856644 0
M  V30 3524 C 315.32 1.6015 0.14444 0
M  V30 3525 O 316.51 1.7399 -0.0854163 0
M  V30 3526 C 313.642 3.39753 -0.279405 0
M  V30 3527 H 314.835 2.40539 -1.79112 0
M  V30 3528 H 312.388 1.23086 -0.963298 0
M  V30 3529 H 313.123 3.17447 0.663174 0
M  V30 3530 H 312.908 3.79117 -1.00063 0
M  V30 3531 H 314.398 4.17507 -0.0879113 0
M  V30 3532 N 314.835 0.952656 1.25548 0
M  V30 3533 C 316.081 0.607272 1.93494 0
M  V30 3534 C 316.414 -0.853245 1.74452 0
M  V30 3535 O 315.689 -1.61194 1.08843 0
M  V30 3536 C 315.972 0.96435 3.46947 0
M  V30 3537 C 315.825 2.48045 3.75225 0
M  V30 3538 C 317.144 0.487987 4.37386 0
M  V30 3539 H 314.263 0.222096 0.702739 0
M  V30 3540 H 316.905 1.18895 1.48203 0
M  V30 3541 H 315.055 0.469361 3.85654 0
M  V30 3542 H 316.727 3.04905 3.46166 0
M  V30 3543 H 314.97 2.919 3.209 0
M  V30 3544 H 315.641 2.6808 4.82532 0
M  V30 3545 H 318.117 0.912558 4.0597 0
M  V30 3546 H 316.993 0.766547 5.43521 0
M  V30 3547 H 317.254 -0.612063 4.37843 0
M  V30 3548 N 316.313 -1.40141 0.720998 0
M  V30 3549 C 317.559 -2.01572 0.272075 0
M  V30 3550 C 317.914 -1.5616 -1.12391 0
M  V30 3551 O 317.207 -0.774198 -1.75262 0
M  V30 3552 C 317.401 -3.56165 0.296892 0
M  V30 3553 C 317.23 -4.16584 1.69375 0
M  V30 3554 C 316 -4.49783 2.30269 0
M  V30 3555 C 318.198 -4.41076 2.64493 0
M  V30 3556 N 316.18 -4.95626 3.62254 0
M  V30 3557 C 317.551 -4.88971 3.81192 0
M  V30 3558 C 319.606 -4.23122 2.62435 0
M  V30 3559 C 318.309 -5.20796 4.96149 0
M  V30 3560 C 320.335 -4.56052 3.76524 0
M  V30 3561 C 319.697 -5.04141 4.91956 0
M  V30 3562 H 315.796 -0.768343 0.145511 0
M  V30 3563 H 318.38 -1.70287 0.943959 0
M  V30 3564 H 316.551 -3.86868 -0.344578 0
M  V30 3565 H 318.283 -4.04346 -0.169254 0
M  V30 3566 H 315.038 -4.37101 1.82318 0
M  V30 3567 H 315.462 -5.22923 4.29977 0
M  V30 3568 H 320.104 -3.85158 1.74393 0
M  V30 3569 H 317.822 -5.57672 5.84831 0
M  V30 3570 H 321.408 -4.43796 3.76213 0
M  V30 3571 H 320.288 -5.29142 5.78774 0
M  V30 3572 N 317.792 -0.46758 -1.50504 0
M  V30 3573 C 319.04 0.0884469 -2.01906 0
M  V30 3574 C 319.361 1.40532 -1.35188 0
M  V30 3575 O 318.631 1.89515 -0.496079 0
M  V30 3576 H 317.211 0.0356765 -0.746148 0
M  V30 3577 H 319.873 -0.6172 -1.84869 0
M  V30 3578 H 318.969 0.2425 -3.11156 0
M  V30 3579 N 319.27 1.56325 -0.20005 0
M  V30 3580 C 320.218 2.20666 0.735482 0
M  V30 3581 C 321.212 1.17934 1.21605 0
M  V30 3582 O 322.418 1.36068 1.17837 0
M  V30 3583 H 318.793 0.70725 0.255542 0
M  V30 3584 H 320.764 2.9792 0.169166 0
M  V30 3585 C 319.513 2.88391 1.94232 0
M  V30 3586 H 318.836 3.67185 1.58161 0
M  V30 3587 H 320.276 3.3684 2.57517 0
M  V30 3588 C 318.735 1.89692 2.78421 0
M  V30 3589 O 319.265 1.40032 3.76502 0
M  V30 3590 N 317.471 1.57813 2.44015 0
M  V30 3591 H 317.018 1.9839 1.64314 0
M  V30 3592 H 316.976 0.920325 3.00628 0
M  V30 3593 N 320.748 -0.0735177 1.57428 0
M  V30 3594 C 321.695 -1.08756 2.0357 0
M  V30 3595 C 322.665 -1.38559 0.916 0
M  V30 3596 O 323.85 -1.49656 1.18354 0
M  V30 3597 C 320.99 -2.39657 2.48311 0
M  V30 3598 C 320.103 -2.16399 3.73892 0
M  V30 3599 C 319.238 -3.40852 4.07423 0
M  V30 3600 C 318.277 -3.1295 5.2605 0
M  V30 3601 N 317.414 -4.29729 5.55228 0
M  V30 3602 H 322.254 -0.687104 2.8997 0
M  V30 3603 H 319.791 -0.327709 1.43403 0
M  V30 3604 H 321.749 -3.16081 2.72303 0
M  V30 3605 H 320.379 -2.77508 1.64891 0
M  V30 3606 H 319.431 -1.30676 3.57251 0
M  V30 3607 H 320.743 -1.91788 4.60455 0
M  V30 3608 H 319.897 -4.25671 4.32306 0
M  V30 3609 H 318.636 -3.68537 3.19425 0
M  V30 3610 H 317.641 -2.26526 5.00965 0
M  V30 3611 H 318.866 -2.86589 6.15665 0
M  V30 3612 H 316.812 -4.57448 4.70188 0
M  V30 3613 H 316.729 -4.08385 6.36206 0
M  V30 3614 H 317.997 -5.1555 5.84661 0
M  V30 3615 O 322.265 -1.60033 -0.217154 0
M  V30 3616 H 322.956 -1.73663 -0.857964 0
M  V30 END ATOM
M  V30 BEGIN BOND
M  V30 END BOND
M  V30 END CTAB
M  END
$$$$
