drugbank_target|P09525 Annexin A4 (DB00591; DB09130)
 OpenBabel12092121053D

  0  0  0     0  0            999 V3000
M  V30 BEGIN CTAB
M  V30 COUNTS 5028 5057 0 0 0
M  V30 BEGIN ATOM
M  V30 1 H -0.908 1.98254 -0.117106 0
M  V30 2 N 0 1.576 0 0
M  V30 3 C 0.933 2.03868 1.02534 0
M  V30 4 C 1.911 0.928543 1.3348 0
M  V30 5 O 3.095 1.19667 1.45644 0
M  V30 6 C 0.222 2.43627 2.35294 0
M  V30 7 C -0.732 3.65373 2.2001 0
M  V30 8 S 0.101 5.13292 1.52614 0
M  V30 9 C 1.257 5.56322 2.86805 0
M  V30 10 H 1.49 2.90518 0.631377 0
M  V30 11 H -0.977 1.52953 0.210867 0
M  V30 12 H 0.981 2.67203 3.11629 0
M  V30 13 H -0.358 1.57376 2.7183 0
M  V30 14 H -1.165 3.90944 3.18086 0
M  V30 15 H -1.563 3.418 1.51819 0
M  V30 16 H 0.729 5.58782 3.83104 0
M  V30 17 H 1.672 6.56266 2.65933 0
M  V30 18 H 2.08 4.83886 2.90714 0
M  V30 19 N 1.4781 -0.272755 1.55222 0
M  V30 20 C 2.4411 -1.32041 1.87344 0
M  V30 21 C 3.4411 -1.42342 0.74803 0
M  V30 22 O 4.6311 -1.41488 1.0162 0
M  V30 23 C 1.7631 -2.70173 2.07893 0
M  V30 24 H 2.9561 -1.04789 2.80997 0
M  V30 25 H 0.5091 -0.51083 1.47717 0
M  V30 26 H 1.2441 -3.02605 1.16622 0
M  V30 27 H 1.0291 -2.64082 2.89833 0
M  V30 28 H 2.5191 -3.45869 2.34017 0
M  V30 29 N 2.9562 -1.48159 -0.537278 0
M  V30 30 C 4.1842 -1.59454 -1.31841 0
M  V30 31 C 4.5992 -0.252065 -1.8711 0
M  V30 32 O 3.9562 0.757621 -1.66031 0
M  V30 33 C 4.0072 -2.63546 -2.47439 0
M  V30 34 O 3.7282 -3.92583 -1.94449 0
M  V30 35 C 5.2292 -2.85212 -3.39366 0
M  V30 36 H 2.4492 -0.53785 -0.401196 0
M  V30 37 H 4.9932 -1.93932 -0.648891 0
M  V30 38 H 3.1482 -2.31946 -3.1029 0
M  V30 39 H 3.5622 -4.49629 -2.70063 0
M  V30 40 H 5.0362 -3.61863 -4.16844 0
M  V30 41 H 5.5132 -1.93765 -3.94147 0
M  V30 42 H 6.1192 -3.18086 -2.82314 0
M  V30 43 N 4.4343 0.785586 -1.36625 0
M  V30 44 C 5.3813 1.89838 -1.31264 0
M  V30 45 C 6.3513 1.65115 -0.180633 0
M  V30 46 O 7.5363 1.87222 -0.36777 0
M  V30 47 C 4.6763 3.26706 -1.11163 0
M  V30 48 C 3.7893 3.63476 -2.33472 0
M  V30 49 C 2.9243 4.89481 -2.06353 0
M  V30 50 C 1.9633 5.18941 -3.24602 0
M  V30 51 N 1.1003 6.36131 -2.97123 0
M  V30 52 H 5.9403 1.93756 -2.26413 0
M  V30 53 H 3.4773 0.947454 -1.12524 0
M  V30 54 H 5.4353 4.05639 -0.975337 0
M  V30 55 H 4.0653 3.222 -0.196674 0
M  V30 56 H 3.1173 2.79636 -2.57891 0
M  V30 57 H 4.4293 3.81193 -3.21704 0
M  V30 58 H 3.5833 5.76288 -1.89675 0
M  V30 59 H 2.3223 4.73841 -1.15437 0
M  V30 60 H 1.3273 4.30615 -3.41834 0
M  V30 61 H 2.5523 5.36498 -4.16349 0
M  V30 62 H 0.4983 6.21875 -2.08823 0
M  V30 63 H 0.4153 6.54198 -3.78894 0
M  V30 64 H 1.6833 7.2591 -2.84033 0
M  V30 65 N 5.9124 1.20967 1.01018 0
M  V30 66 C 7.1604 1.02172 1.74371 0
M  V30 67 C 7.4814 -0.446414 1.89821 0
M  V30 68 O 6.7514 -1.32234 1.44537 0
M  V30 69 H 5.3314 0.375066 0.646014 0
M  V30 70 H 7.9934 1.52187 1.21758 0
M  V30 71 H 7.0894 1.48538 2.74487 0
M  V30 72 N 7.3905 -1.2043 1.01659 0
M  V30 73 C 8.6385 -1.89423 0.704522 0
M  V30 74 C 8.9595 -1.79231 -0.768197 0
M  V30 75 O 8.2295 -1.1947 -1.55254 0
M  V30 76 H 6.8095 -0.701178 0.257602 0
M  V30 77 H 9.4715 -1.4626 1.28818 0
M  V30 78 H 8.5675 -2.96052 0.987916 0
M  V30 79 N 8.8686 -0.792821 -1.36206 0
M  V30 80 C 10.0966 -0.378825 -2.03402 0
M  V30 81 C 10.5116 1.00586 -1.59774 0
M  V30 82 O 9.8686 1.64574 -0.788764 0
M  V30 83 C 9.9196 -0.43683 -3.58851 0
M  V30 84 O 9.6406 -1.76691 -4.00889 0
M  V30 85 C 11.1416 -0.0138943 -4.43298 0
M  V30 86 H 8.3616 -0.155673 -0.652692 0
M  V30 87 H 10.9056 -1.07261 -1.74113 0
M  V30 88 H 9.0606 0.208575 -3.86838 0
M  V30 89 H 9.4746 -1.72011 -4.95492 0
M  V30 90 H 10.9486 -0.105615 -5.51899 0
M  V30 91 H 11.4256 1.03915 -4.2673 0
M  V30 92 H 12.0316 -0.63192 -4.20579 0
M  V30 93 N 10.3467 1.47872 -0.545128 0
M  V30 94 C 11.5927 2.02793 -0.0166104 0
M  V30 95 C 11.9257 1.41987 1.32489 0
M  V30 96 O 11.2007 0.571045 1.85928 0
M  V30 97 C 11.4837 3.59989 0.0893294 0
M  V30 98 C 11.3367 4.3125 -1.27841 0
M  V30 99 C 12.6557 4.32606 0.808724 0
M  V30 100 H 9.7747 0.736962 -0.00751035 0
M  V30 101 H 12.4167 1.76433 -0.705085 0
M  V30 102 H 10.5667 3.82579 0.675681 0
M  V30 103 H 12.2387 4.20035 -1.90704 0
M  V30 104 H 10.4817 3.92076 -1.85632 0
M  V30 105 H 11.1527 5.39736 -1.15713 0
M  V30 106 H 13.6287 4.14936 0.310992 0
M  V30 107 H 12.5047 5.42251 0.851782 0
M  V30 108 H 12.7657 4.00963 1.86229 0
M  V30 109 N 11.8248 0.280983 1.55075 0
M  V30 110 C 12.7718 -0.603937 2.22758 0
M  V30 111 C 13.7418 -1.1452 1.20309 0
M  V30 112 O 14.9268 -1.19343 1.48869 0
M  V30 113 C 12.0668 -1.77947 2.95684 0
M  V30 114 C 11.1798 -1.2715 4.12864 0
M  V30 115 C 10.3148 -2.4093 4.7342 0
M  V30 116 C 9.3538 -1.87165 5.82783 0
M  V30 117 N 8.4908 -2.94441 6.37377 0
M  V30 118 H 13.3308 -0.020124 2.97993 0
M  V30 119 H 10.8678 0.00183425 1.471 0
M  V30 120 H 12.8258 -2.47055 3.36184 0
M  V30 121 H 11.4558 -2.33522 2.22861 0
M  V30 122 H 10.5078 -0.473331 3.77444 0
M  V30 123 H 11.8198 -0.837751 4.91715 0
M  V30 124 H 10.9738 -3.18021 5.1667 0
M  V30 125 H 9.7128 -2.87623 3.93859 0
M  V30 126 H 8.7178 -1.08556 5.38976 0
M  V30 127 H 9.9428 -1.41401 6.64216 0
M  V30 128 H 7.8888 -3.40505 5.60707 0
M  V30 129 H 7.8058 -2.55501 7.11516 0
M  V30 130 H 9.0738 -3.71489 6.85285 0
M  V30 131 N 13.3029 -1.57598 0.00835791 0
M  V30 132 C 14.2659 -2.07884 -0.965242 0
M  V30 133 C 15.2659 -0.989825 -1.26725 0
M  V30 134 O 16.4559 -1.25218 -1.21104 0
M  V30 135 C 13.5879 -2.52731 -2.28779 0
M  V30 136 H 14.7809 -2.95178 -0.530112 0
M  V30 137 H 12.3339 -1.54458 -0.239283 0
M  V30 138 H 13.0689 -1.68705 -2.76964 0
M  V30 139 H 12.8539 -3.32272 -2.08177 0
M  V30 140 H 14.3439 -2.91933 -2.98605 0
M  V30 141 N 14.781 0.264519 -1.55364 0
M  V30 142 C 15.744 1.31046 -1.88042 0
M  V30 143 C 16.744 1.41943 -0.755569 0
M  V30 144 O 17.934 1.40947 -1.02369 0
M  V30 145 C 15.066 2.69067 -2.09323 0
M  V30 146 H 16.259 1.03297 -2.81549 0
M  V30 147 H 13.812 0.502989 -1.47986 0
M  V30 148 H 14.547 3.01982 -1.18226 0
M  V30 149 H 14.332 2.62542 -2.91229 0
M  V30 150 H 15.822 3.44623 -2.35848 0
M  V30 151 N 16.2591 1.48442 0.529413 0
M  V30 152 C 17.4841 1.60406 1.31471 0
M  V30 153 C 17.9091 0.264738 1.86228 0
M  V30 154 O 17.2671 -0.763668 1.64432 0
M  V30 155 C 17.3151 2.65419 2.44101 0
M  V30 156 O 16.4191 2.22618 3.47153 0
M  V30 157 H 15.7601 0.537863 0.389357 0
M  V30 158 H 18.2901 1.94432 0.636965 0
M  V30 159 H 18.3001 2.86709 2.90279 0
M  V30 160 H 16.9751 3.62652 2.03608 0
M  V30 161 H 15.5521 2.11543 3.0709 0
M  V30 162 N 17.7372 -0.778329 1.37039 0
M  V30 163 C 18.9852 -1.53361 1.31623 0
M  V30 164 C 19.3062 -1.94739 -0.100831 0
M  V30 165 O 18.5762 -1.65797 -1.04347 0
M  V30 166 H 17.1562 -0.568794 0.484234 0
M  V30 167 H 19.8182 -0.926742 1.71457 0
M  V30 168 H 18.9142 -2.43606 1.95096 0
M  V30 169 N 19.2153 -1.21501 -1.00376 0
M  V30 170 C 20.4623 -1.03299 -1.74171 0
M  V30 171 C 20.7903 0.433326 -1.89612 0
M  V30 172 O 20.0453 1.33779 -1.42834 0
M  V30 173 C 20.3443 -1.67673 -3.15627 0
M  V30 174 C 20.0103 -3.17533 -3.2013 0
M  V30 175 C 18.6723 -3.58427 -3.21067 0
M  V30 176 C 21.0243 -4.13504 -3.17275 0
M  V30 177 C 18.3523 -4.93794 -3.16835 0
M  V30 178 C 20.7043 -5.48834 -3.14585 0
M  V30 179 C 19.3683 -5.89123 -3.13831 0
M  V30 180 H 18.6383 -0.377999 -0.637336 0
M  V30 181 H 21.2853 -1.51111 -1.17634 0
M  V30 182 H 19.5903 -1.12158 -3.75404 0
M  V30 183 H 21.2873 -1.51091 -3.71446 0
M  V30 184 H 17.8773 -2.84965 -3.20145 0
M  V30 185 H 22.0613 -3.82936 -3.15711 0
M  V30 186 H 17.3173 -5.24255 -3.1459 0
M  V30 187 H 21.4913 -6.22934 -3.1133 0
M  V30 188 H 19.1183 -6.93984 -3.10307 0
M  V30 189 N 20.6934 1.19889 -1.02296 0
M  V30 190 C 21.6414 2.24938 -0.592081 0
M  V30 191 C 22.6354 1.65257 0.372357 0
M  V30 192 O 23.8414 1.78371 0.241583 0
M  V30 193 H 20.2164 0.731787 -0.173182 0
M  V30 194 H 22.1874 2.58603 -1.48885 0
M  V30 195 C 20.9364 3.47668 0.047351 0
M  V30 196 H 20.2594 3.93875 -0.685772 0
M  V30 197 H 21.6994 4.22852 0.311862 0
M  V30 198 C 20.1584 3.11136 1.29212 0
M  V30 199 O 20.6884 3.2325 2.38479 0
M  V30 200 N 18.8944 2.65625 1.17863 0
M  V30 201 H 18.4414 2.55968 0.289493 0
M  V30 202 H 18.3994 2.41553 2.01245 0
M  V30 203 N 22.1715 0.800033 1.35784 0
M  V30 204 C 23.1345 0.211565 2.28221 0
M  V30 205 C 24.1345 -0.59728 1.49296 0
M  V30 206 O 25.3245 -0.416721 1.69142 0
M  V30 207 C 22.4565 -0.705846 3.33513 0
M  V30 208 H 23.6495 1.02677 2.81776 0
M  V30 209 H 21.2025 0.570211 1.45528 0
M  V30 210 H 21.9375 -1.54498 2.85133 0
M  V30 211 H 21.7225 -0.127655 3.91892 0
M  V30 212 H 23.2125 -1.11211 4.02519 0
M  V30 213 N 23.6496 -1.47581 0.552962 0
M  V30 214 C 24.5826 -2.26883 -0.244857 0
M  V30 215 C 25.5606 -1.33784 -0.924147 0
M  V30 216 O 26.7446 -1.6316 -0.943981 0
M  V30 217 C 23.8716 -3.10695 -1.34856 0
M  V30 218 C 22.9176 -4.19339 -0.778268 0
M  V30 219 S 23.7506 -5.34207 0.37184 0
M  V30 220 C 24.9066 -6.21584 -0.733779 0
M  V30 221 H 25.1396 -2.94202 0.428087 0
M  V30 222 H 22.6726 -1.50628 0.339197 0
M  V30 223 H 24.6306 -3.59555 -1.98066 0
M  V30 224 H 23.2916 -2.42746 -1.99332 0
M  V30 225 H 22.4846 -4.77695 -1.60696 0
M  V30 226 H 22.0866 -3.73338 -0.222422 0
M  V30 227 H 24.3786 -6.57676 -1.62692 0
M  V30 228 H 25.3216 -7.07851 -0.187668 0
M  V30 229 H 25.7296 -5.55125 -1.02454 0
M  V30 230 N 25.1277 -0.289203 -1.54924 0
M  V30 231 C 26.0377 0.601863 -2.26748 0
M  V30 232 C 27.0537 1.15834 -1.2984 0
M  V30 233 O 28.2297 1.18564 -1.62802 0
M  V30 234 C 25.2947 1.76299 -2.98529 0
M  V30 235 C 24.3557 1.24178 -4.10948 0
M  V30 236 C 23.5887 2.34757 -4.79296 0
M  V30 237 O 23.8117 3.54411 -4.46933 0
M  V30 238 O 22.7457 2.02115 -5.66951 0
M  V30 239 H 26.5717 0.0195879 -3.03694 0
M  V30 240 H 24.1567 -0.0560868 -1.49295 0
M  V30 241 H 26.0387 2.43973 -3.43592 0
M  V30 242 H 24.7137 2.33209 -2.24488 0
M  V30 243 H 23.6207 0.531104 -3.70311 0
M  V30 244 H 24.9537 0.718252 -4.86931 0
M  V30 245 N 26.6058 1.57591 -0.0167156 0
M  V30 246 C 27.8828 1.82547 0.702564 0
M  V30 247 C 28.2628 0.898018 1.91047 0
M  V30 248 O 27.6108 -0.0493456 2.28447 0
M  V30 249 C 27.8208 3.31459 1.09251 0
M  V30 250 C 29.1688 3.97622 1.48937 0
M  V30 251 O 30.1928 3.35881 1.18584 0
M  V30 252 O 29.0518 5.06415 2.05442 0
M  V30 253 H 26.1458 0.752268 0.343544 0
M  V30 254 H 28.6918 1.69644 -0.0434495 0
M  V30 255 H 27.4638 3.9061 0.23227 0
M  V30 256 H 27.0868 3.49422 1.89709 0
M  V30 257 N 28.0839 -0.256276 1.55502 0
M  V30 258 C 29.0469 -1.30047 1.88734 0
M  V30 259 C 30.0469 -1.4154 0.763086 0
M  V30 260 O 31.2369 -1.40403 1.03115 0
M  V30 261 C 28.3689 -2.67953 2.10747 0
M  V30 262 H 29.5619 -1.01802 2.82093 0
M  V30 263 H 27.1149 -0.495134 1.4825 0
M  V30 264 H 27.8499 -3.01351 1.19825 0
M  V30 265 H 27.6349 -2.60993 2.92617 0
M  V30 266 H 29.1249 -3.43368 2.37673 0
M  V30 267 N 29.562 -1.4872 -0.521534 0
M  V30 268 C 30.494 -1.59968 -1.64143 0
M  V30 269 C 31.507 -0.483463 -1.55456 0
M  V30 270 O 32.696 -0.75467 -1.61762 0
M  V30 271 C 29.796 -1.52127 -3.02838 0
M  V30 272 C 28.969 -2.78932 -3.36921 0
M  V30 273 C 28.028 -2.64428 -4.54933 0
M  V30 274 O 27.054 -3.38331 -4.57735 0
M  V30 275 N 28.256 -1.74606 -5.53618 0
M  V30 276 H 31.021 -2.56548 -1.54929 0
M  V30 277 H 28.582 -1.45551 -0.708988 0
M  V30 278 H 30.574 -1.40106 -3.79674 0
M  V30 279 H 29.144 -0.634868 -3.06085 0
M  V30 280 H 28.364 -3.05455 -2.4918 0
M  V30 281 H 29.652 -3.63041 -3.56481 0
M  V30 282 H 29.05 -1.13782 -5.54139 0
M  V30 283 H 27.607 -1.6852 -6.29638 0
M  V30 284 N 31.0401 0.771051 -1.3745 0
M  V30 285 C 32.2681 1.56015 -1.35893 0
M  V30 286 C 32.6831 1.88718 0.0555523 0
M  V30 287 O 32.0401 1.51502 1.01752 0
M  V30 288 C 32.0911 2.87001 -2.19801 0
M  V30 289 O 31.8121 2.557 -3.55738 0
M  V30 290 C 33.3131 3.81228 -2.26231 0
M  V30 291 H 30.5331 0.483317 -0.465453 0
M  V30 292 H 33.0771 0.955611 -1.80799 0
M  V30 293 H 31.2321 3.43877 -1.78402 0
M  V30 294 H 31.6461 3.39584 -3.99729 0
M  V30 295 H 33.1201 4.70139 -2.89263 0
M  V30 296 H 33.5971 4.20409 -1.27093 0
M  V30 297 H 34.2031 3.30281 -2.67945 0
M  V30 298 N 32.5182 1.22032 0.997298 0
M  V30 299 C 33.4482 1.01065 2.10495 0
M  V30 300 C 34.4292 -0.0669542 1.69968 0
M  V30 301 O 35.6142 0.0943987 1.9397 0
M  V30 302 C 32.7442 0.582874 3.42374 0
M  V30 303 C 31.6982 1.60592 3.96729 0
M  V30 304 C 31.0242 1.03412 5.24605 0
M  V30 305 C 32.3242 2.99478 4.27914 0
M  V30 306 H 34.0182 1.93708 2.28292 0
M  V30 307 H 31.5642 0.932761 1.09707 0
M  V30 308 H 33.5172 0.423332 4.19268 0
M  V30 309 H 32.2412 -0.379213 3.24391 0
M  V30 310 H 30.9002 1.75316 3.21963 0
M  V30 311 H 30.5482 0.063518 5.0296 0
M  V30 312 H 30.2482 1.71754 5.61938 0
M  V30 313 H 31.7722 0.886066 6.04137 0
M  V30 314 H 33.1862 2.88153 4.95622 0
M  V30 315 H 31.5832 3.64903 4.76409 0
M  V30 316 H 32.6532 3.49742 3.3587 0
M  V30 317 N 33.9963 -1.19345 1.0293 0
M  V30 318 C 35.4123 -1.41069 0.746446 0
M  V30 319 C 35.6123 -1.90078 -0.668776 0
M  V30 320 O 34.6683 -2.0778 -1.4347 0
M  V30 321 C 35.9813 -2.42141 1.78292 0
M  V30 322 C 37.5293 -2.55887 1.80252 0
M  V30 323 C 38.0043 -3.60214 2.8286 0
M  V30 324 N 39.4953 -3.67711 2.81679 0
M  V30 325 C 40.2303 -4.48128 3.57727 0
M  V30 326 N 39.7263 -5.32248 4.43491 0
M  V30 327 N 41.5193 -4.42782 3.46267 0
M  V30 328 H 33.6703 -0.858536 1.94275 0
M  V30 329 H 35.9333 -0.439541 0.839945 0
M  V30 330 H 35.6393 -2.13155 2.79746 0
M  V30 331 H 35.5133 -3.41323 1.60557 0
M  V30 332 H 37.9003 -2.84196 0.794757 0
M  V30 333 H 37.9813 -1.56858 2.02062 0
M  V30 334 H 37.6253 -3.32647 3.83807 0
M  V30 335 H 37.5553 -4.58895 2.58307 0
M  V30 336 H 40.0463 -3.07634 2.19476 0
M  V30 337 H 40.3593 -5.90729 4.98256 0
M  V30 338 H 38.7043 -5.31707 4.47564 0
M  V30 339 H 41.8953 -3.76107 2.78677 0
M  V30 340 H 42.0683 -5.05215 4.05785 0
M  V30 341 N 35.4744 -0.807222 -1.35358 0
M  V30 342 C 36.4214 -0.216037 -2.29787 0
M  V30 343 C 37.3914 0.650278 -1.52842 0
M  V30 344 O 38.5764 0.595227 -1.81278 0
M  V30 345 C 35.7164 0.628893 -3.39321 0
M  V30 346 C 34.8294 -0.257927 -4.31229 0
M  V30 347 C 33.9644 0.595069 -5.27856 0
M  V30 348 C 33.0034 -0.292111 -6.11403 0
M  V30 349 N 32.1404 0.520895 -7.00165 0
M  V30 350 H 36.9804 -1.02671 -2.79755 0
M  V30 351 H 34.5174 -0.517839 -1.37684 0
M  V30 352 H 36.4754 1.13393 -4.01494 0
M  V30 353 H 35.1054 1.40482 -2.90628 0
M  V30 354 H 34.1574 -0.881076 -3.70056 0
M  V30 355 H 35.4694 -0.940759 -4.89848 0
M  V30 356 H 34.6234 1.16522 -5.95405 0
M  V30 357 H 33.3624 1.31146 -4.69736 0
M  V30 358 H 32.3674 -0.874525 -5.428 0
M  V30 359 H 33.5924 -1.00638 -6.71602 0
M  V30 360 H 31.5384 1.22125 -6.44532 0
M  V30 361 H 31.4554 -0.103877 -7.55929 0
M  V30 362 H 32.7234 1.0743 -7.72062 0
M  V30 363 N 36.9525 1.47285 -0.560781 0
M  V30 364 C 37.9155 2.28535 0.174488 0
M  V30 365 C 38.9155 1.37153 0.839388 0
M  V30 366 O 40.1055 1.59748 0.694702 0
M  V30 367 C 37.2375 3.16934 1.25561 0
M  V30 368 H 38.4305 2.95012 -0.539262 0
M  V30 369 H 35.9835 1.53034 -0.317865 0
M  V30 370 H 36.7185 2.55157 2.00164 0
M  V30 371 H 36.5035 3.8419 0.783604 0
M  V30 372 H 37.9935 3.78143 1.77193 0
M  V30 373 N 38.4306 0.297415 1.54768 0
M  V30 374 C 39.3636 -0.622188 2.19554 0
M  V30 375 C 40.3416 -1.13558 1.16376 0
M  V30 376 O 41.5256 -1.20444 1.45002 0
M  V30 377 C 38.6526 -1.8509 2.83653 0
M  V30 378 C 37.6986 -1.47106 4.00328 0
M  V30 379 S 38.5316 -0.53006 5.3287 0
M  V30 380 C 39.6876 -1.76665 6.0045 0
M  V30 381 H 39.9206 -0.0717806 2.97213 0
M  V30 382 H 37.4536 0.0815678 1.54184 0
M  V30 383 H 39.4116 -2.55605 3.21211 0
M  V30 384 H 38.0726 -2.37247 2.05846 0
M  V30 385 H 37.2656 -2.38594 4.43947 0
M  V30 386 H 36.8676 -0.845885 3.64309 0
M  V30 387 H 39.1596 -2.7077 6.21039 0
M  V30 388 H 40.1026 -1.37308 6.9466 0
M  V30 389 H 40.5106 -1.94174 5.30054 0
M  V30 390 N 39.9087 -1.5758 0.0250728 0
M  V30 391 C 40.8557 -2.09973 -0.958129 0
M  V30 392 C 41.8257 -1.00085 -1.3256 0
M  V30 393 O 43.0107 -1.27481 -1.41962 0
M  V30 394 C 40.1507 -2.62812 -2.2366 0
M  V30 395 C 39.2637 -3.86693 -1.92594 0
M  V30 396 C 38.3987 -4.27941 -3.14707 0
M  V30 397 C 37.4377 -5.44591 -2.79442 0
M  V30 398 N 36.5747 -5.81014 -3.94167 0
M  V30 399 H 41.4147 -2.937 -0.504428 0
M  V30 400 H 38.9517 -1.45172 -0.237392 0
M  V30 401 H 40.9097 -2.91536 -2.98434 0
M  V30 402 H 39.5397 -1.81922 -2.66654 0
M  V30 403 H 38.5917 -3.64723 -1.0808 0
M  V30 404 H 39.9037 -4.71547 -1.62619 0
M  V30 405 H 39.0577 -4.58079 -3.97804 0
M  V30 406 H 37.7967 -3.41845 -3.4784 0
M  V30 407 H 36.8017 -5.1415 -1.94755 0
M  V30 408 H 38.0267 -6.32382 -2.47528 0
M  V30 409 H 35.9727 -4.97874 -4.2715 0
M  V30 410 H 35.8897 -6.60498 -3.67801 0
M  V30 411 H 37.1577 -6.15756 -4.7798 0
M  V30 412 N 41.3868 0.248026 -1.55636 0
M  V30 413 C 42.6348 0.974295 -1.77065 0
M  V30 414 C 42.9558 1.85897 -0.588849 0
M  V30 415 O 42.2258 1.91868 0.395407 0
M  V30 416 H 40.8058 0.362733 -0.653019 0
M  V30 417 H 43.4678 0.266244 -1.93073 0
M  V30 418 H 42.5638 1.59667 -2.68166 0
M  V30 419 N 42.8649 1.48995 0.513639 0
M  V30 420 C 43.7949 1.67636 1.62544 0
M  V30 421 C 44.7759 0.525087 1.61793 0
M  V30 422 O 45.9609 0.759502 1.78732 0
M  V30 423 C 43.0909 1.73114 3.01079 0
M  V30 424 C 42.0449 2.87905 3.16693 0
M  V30 425 C 41.3709 2.78486 4.56453 0
M  V30 426 C 42.6709 4.29005 2.97913 0
M  V30 427 H 44.3649 2.60716 1.47198 0
M  V30 428 H 41.9109 1.25465 0.706714 0
M  V30 429 H 43.8639 1.84742 3.78746 0
M  V30 430 H 42.5879 0.766241 3.17484 0
M  V30 431 H 41.2469 2.75859 2.41448 0
M  V30 432 H 40.8949 1.7993 4.69717 0
M  V30 433 H 40.5949 3.55523 4.67843 0
M  V30 434 H 42.1189 2.92104 5.36197 0
M  V30 435 H 43.5329 4.41798 3.65359 0
M  V30 436 H 41.9299 5.07166 3.20785 0
M  V30 437 H 42.9999 4.44329 1.94165 0
M  V30 438 N 44.343 -0.763751 1.37857 0
M  V30 439 C 45.591 -1.51957 1.33243 0
M  V30 440 C 45.912 -1.94835 -0.0801709 0
M  V30 441 O 45.182 -1.66894 -1.02582 0
M  V30 442 H 43.762 -0.563626 0.49024 0
M  V30 443 H 46.424 -0.908504 1.7243 0
M  V30 444 H 45.52 -2.41523 1.97669 0
M  V30 445 N 45.8211 -1.22559 -0.990812 0
M  V30 446 C 47.0491 -1.07779 -1.76611 0
M  V30 447 C 47.4641 0.371513 -1.85109 0
M  V30 448 O 46.8211 1.25737 -1.32274 0
M  V30 449 C 46.8721 -1.68512 -3.19822 0
M  V30 450 O 46.5931 -3.07774 -3.1178 0
M  V30 451 C 48.0941 -1.59035 -4.13791 0
M  V30 452 H 45.3141 -0.377729 -0.554583 0
M  V30 453 H 47.8581 -1.62195 -1.24551 0
M  V30 454 H 46.0131 -1.18154 -3.68942 0
M  V30 455 H 46.4271 -3.37062 -4.01858 0
M  V30 456 H 47.9011 -2.0625 -5.1202 0
M  V30 457 H 48.3781 -0.547273 -4.35777 0
M  V30 458 H 48.9841 -2.08709 -3.70568 0
M  V30 459 N 47.2992 1.18797 -1.03562 0
M  V30 460 C 48.5762 1.84469 -0.650434 0
M  V30 461 C 48.9562 1.92319 0.870433 0
M  V30 462 O 48.3042 1.44528 1.76986 0
M  V30 463 C 48.5142 3.2306 -1.32036 0
M  V30 464 C 49.8622 3.9915 -1.44792 0
M  V30 465 O 50.8862 3.32481 -1.27806 0
M  V30 466 O 49.7452 5.18587 -1.72423 0
M  V30 467 H 46.8392 0.795251 -0.226946 0
M  V30 468 H 49.3852 1.26231 -1.13419 0
M  V30 469 H 48.1572 3.1222 -2.3587 0
M  V30 470 H 47.7802 3.88949 -0.8249 0
M  V30 471 N 48.7773 0.814389 1.34928 0
M  V30 472 C 49.6873 0.231978 2.3345 0
M  V30 473 C 50.7033 -0.629139 1.62228 0
M  V30 474 O 51.8793 -0.539052 1.94052 0
M  V30 475 C 48.9443 -0.603482 3.41407 0
M  V30 476 C 48.0053 0.279037 4.28392 0
M  V30 477 C 47.2383 -0.516643 5.31193 0
M  V30 478 O 47.4613 -1.75068 5.4287 0
M  V30 479 O 46.3953 0.0965652 6.01823 0
M  V30 480 H 50.2213 1.04721 2.85074 0
M  V30 481 H 47.8063 0.576343 1.37836 0
M  V30 482 H 49.6883 -1.07908 4.0735 0
M  V30 483 H 48.3633 -1.39618 2.92042 0
M  V30 484 H 47.2703 0.801948 3.65403 0
M  V30 485 H 48.6033 1.03588 4.81176 0
M  V30 486 N 50.2554 -1.46986 0.568584 0
M  V30 487 C 51.5324 -1.95592 -0.0174074 0
M  V30 488 C 51.9124 -1.51124 -1.47393 0
M  V30 489 O 51.2604 -0.755329 -2.15655 0
M  V30 490 C 51.4704 -3.48719 0.139913 0
M  V30 491 C 52.8184 -4.246 0.000426376 0
M  V30 492 O 53.8424 -3.56135 0.0680316 0
M  V30 493 O 52.7014 -5.46302 -0.146988 0
M  V30 494 H 49.7954 -0.82498 -0.0577599 0
M  V30 495 H 52.3414 -1.57335 0.635909 0
M  V30 496 H 51.1134 -3.73927 1.15301 0
M  V30 497 H 50.7364 -3.93771 -0.550491 0
M  V30 498 N 51.7335 -0.305618 -1.54608 0
M  V30 499 C 52.6965 0.555591 -2.22364 0
M  V30 500 C 53.6965 1.05768 -1.21119 0
M  V30 501 O 54.8865 0.952972 -1.45822 0
M  V30 502 C 52.0185 1.76974 -2.91364 0
M  V30 503 H 53.2115 -0.0364572 -2.99878 0
M  V30 504 H 50.7645 -0.0565007 -1.56198 0
M  V30 505 H 51.4995 2.40151 -2.17941 0
M  V30 506 H 51.2845 1.41732 -3.65588 0
M  V30 507 H 52.7745 2.38148 -3.43038 0
M  V30 508 N 53.2116 1.57565 -0.0334293 0
M  V30 509 C 54.4606 1.91155 0.643639 0
M  V30 510 C 54.7736 0.91192 1.73042 0
M  V30 511 O 55.9796 1.13923 2.46442 0
M  V30 512 C 54.4356 3.39443 1.1961 0
M  V30 513 C 54.0436 4.47774 0.142381 0
M  V30 514 C 55.7876 3.82094 1.84944 0
M  V30 515 C 53.6946 5.87162 0.706727 0
M  V30 516 H 52.6246 0.713368 0.244176 0
M  V30 517 H 55.2756 1.8323 -0.0994323 0
M  V30 518 H 53.6576 3.42313 1.99092 0
M  V30 519 H 54.8316 4.56469 -0.630296 0
M  V30 520 H 53.1466 4.14352 -0.412446 0
M  V30 521 H 55.7436 4.83591 2.2813 0
M  V30 522 H 56.0866 3.17386 2.69392 0
M  V30 523 H 56.6196 3.81665 1.12145 0
M  V30 524 H 53.3586 6.55424 -0.0997178 0
M  V30 525 H 52.8786 5.82064 1.44779 0
M  V30 526 H 54.5576 6.35866 1.19514 0
M  V30 527 N 54.6897 -0.239769 1.55765 0
M  V30 528 C 55.9387 -0.964754 1.77131 0
M  V30 529 C 56.2517 -1.86213 0.59868 0
M  V30 530 O 57.4577 -2.6244 0.695522 0
M  V30 531 C 55.9137 -1.76552 3.1362 0
M  V30 532 C 55.5217 -0.915185 4.38553 0
M  V30 533 C 57.2657 -2.48281 3.44321 0
M  V30 534 C 55.1727 -1.71225 5.66071 0
M  V30 535 H 54.1027 -0.363953 0.660344 0
M  V30 536 H 56.7537 -0.219181 1.82186 0
M  V30 537 H 55.1357 -2.55331 3.02691 0
M  V30 538 H 56.3097 -0.169217 4.60489 0
M  V30 539 H 54.6247 -0.310889 4.15238 0
M  V30 540 H 57.2217 -3.08382 4.36812 0
M  V30 541 H 57.5647 -3.20256 2.65973 0
M  V30 542 H 58.0977 -1.76507 3.56497 0
M  V30 543 H 54.8367 -1.03612 6.4726 0
M  V30 544 H 54.3567 -2.43331 5.48224 0
M  V30 545 H 56.0357 -2.27758 6.05587 0
M  V30 546 N 56.1678 -1.49265 -0.50573 0
M  V30 547 C 57.3928 -1.62478 -1.28902 0
M  V30 548 C 57.8178 -0.294332 -1.85783 0
M  V30 549 O 57.1758 0.737412 -1.65626 0
M  V30 550 C 57.2238 -2.69268 -2.39848 0
M  V30 551 O 56.3278 -2.28113 -3.43567 0
M  V30 552 H 55.6688 -0.54399 -0.380751 0
M  V30 553 H 58.1988 -1.95421 -0.605952 0
M  V30 554 H 58.2088 -2.91291 -2.85681 0
M  V30 555 H 56.8838 -3.65846 -1.97812 0
M  V30 556 H 55.4608 -2.16401 -3.03685 0
M  V30 557 N 57.6459 0.756429 -1.3826 0
M  V30 558 C 58.8919 1.51772 -1.34511 0
M  V30 559 C 59.2249 1.94089 0.0656691 0
M  V30 560 O 58.4999 1.65221 1.02626 0
M  V30 561 C 58.7829 2.77226 -2.29821 0
M  V30 562 C 58.6359 2.41065 -3.79747 0
M  V30 563 C 59.9549 3.79236 -2.23312 0
M  V30 564 H 57.0739 0.550578 -0.489931 0
M  V30 565 H 59.7159 0.866607 -1.69086 0
M  V30 566 H 57.8659 3.32784 -2.00467 0
M  V30 567 H 59.5379 1.91303 -4.19763 0
M  V30 568 H 57.7809 1.7356 -3.97567 0
M  V30 569 H 58.4519 3.3081 -4.41892 0
M  V30 570 H 60.9279 3.3321 -2.49219 0
M  V30 571 H 59.8039 4.64714 -2.92116 0
M  V30 572 H 60.0649 4.24615 -1.23102 0
M  V30 573 N 59.124 1.23083 0.984299 0
M  V30 574 C 60.054 1.03292 2.09411 0
M  V30 575 C 61.035 -0.048923 1.7003 0
M  V30 576 O 62.22 0.114967 1.93859 0
M  V30 577 C 59.35 0.619155 3.41736 0
M  V30 578 C 58.304 1.64791 3.95004 0
M  V30 579 C 57.63 1.0897 5.23478 0
M  V30 580 C 58.93 3.03999 4.24714 0
M  V30 581 H 60.624 1.96119 2.26225 0
M  V30 582 H 58.17 0.944344 1.08711 0
M  V30 583 H 60.123 0.467777 4.18796 0
M  V30 584 H 58.847 -0.344786 3.24775 0
M  V30 585 H 57.506 1.78721 3.20085 0
M  V30 586 H 57.154 0.11686 5.02864 0
M  V30 587 H 56.854 1.77704 5.60085 0
M  V30 588 H 58.378 0.950093 6.03163 0
M  V30 589 H 59.792 2.93393 4.92538 0
M  V30 590 H 58.189 3.69936 4.72512 0
M  V30 591 H 59.259 3.53285 3.32142 0
M  V30 592 N 60.6021 -1.18246 1.0419 0
M  V30 593 C 61.5651 -2.20128 0.638452 0
M  V30 594 C 62.5651 -1.57885 -0.304805 0
M  V30 595 O 63.7551 -1.73967 -0.0900369 0
M  V30 596 C 60.8871 -3.4084 -0.0637751 0
M  V30 597 H 62.0801 -2.57336 1.54007 0
M  V30 598 H 59.6331 -1.32152 0.834598 0
M  V30 599 H 60.3681 -3.09166 -0.979136 0
M  V30 600 H 60.1531 -3.8726 0.614198 0
M  V30 601 H 61.6431 -4.16274 -0.332512 0
M  V30 602 N 62.0802 -0.821533 -1.34494 0
M  V30 603 C 63.3102 -0.421272 -2.02259 0
M  V30 604 C 63.7182 0.977047 -1.6202 0
M  V30 605 O 63.0612 1.64348 -0.820703 0
M  V30 606 C 63.1232 -0.44231 -3.56769 0
M  V30 607 C 62.7872 -1.79372 -4.20327 0
M  V30 608 C 63.7842 -2.75435 -4.40944 0
M  V30 609 C 61.4692 -2.08182 -4.57127 0
M  V30 610 C 63.4632 -3.98482 -4.97484 0
M  V30 611 C 61.1502 -3.31489 -5.13379 0
M  V30 612 C 62.1482 -4.26457 -5.33501 0
M  V30 613 O 61.8362 -5.47585 -5.88562 0
M  V30 614 H 61.5682 -0.167473 -0.654927 0
M  V30 615 H 64.1222 -1.11073 -1.72777 0
M  V30 616 H 62.3522 0.303836 -3.85505 0
M  V30 617 H 64.0412 -0.0622925 -4.05852 0
M  V30 618 H 64.8072 -2.54473 -4.12878 0
M  V30 619 H 60.6862 -1.35066 -4.4077 0
M  V30 620 H 64.2302 -4.72618 -5.13106 0
M  V30 621 H 60.1272 -3.52316 -5.40873 0
M  V30 622 H 60.8952 -5.49086 -6.06998 0
M  V30 623 N 63.5583 1.46682 -0.576371 0
M  V30 624 C 64.9743 1.57822 -0.237562 0
M  V30 625 C 65.1743 1.57237 1.26011 0
M  V30 626 O 64.2303 1.48596 2.04146 0
M  V30 627 C 65.5433 2.87499 -0.881168 0
M  V30 628 C 67.0913 3.01119 -0.85417 0
M  V30 629 C 67.5663 4.33524 -1.4772 0
M  V30 630 N 69.0573 4.40207 -1.44125 0
M  V30 631 C 69.7923 5.4126 -1.89276 0
M  V30 632 N 69.2883 6.49021 -2.42371 0
M  V30 633 N 71.0813 5.32422 -1.80231 0
M  V30 634 H 63.2323 1.45306 -1.54919 0
M  V30 635 H 65.4953 0.692733 -0.647167 0
M  V30 636 H 65.2013 2.9372 -1.93447 0
M  V30 637 H 65.0753 3.75224 -0.385592 0
M  V30 638 H 67.4623 2.94485 0.190491 0
M  V30 639 H 67.5433 2.14887 -1.3877 0
M  V30 640 H 67.1873 4.40916 -2.52103 0
M  V30 641 H 67.1173 5.1852 -0.918947 0
M  V30 642 H 69.6083 3.62931 -1.05307 0
M  V30 643 H 69.9213 7.2233 -2.74698 0
M  V30 644 H 68.2663 6.49858 -2.46393 0
M  V30 645 H 71.4573 4.47137 -1.38514 0
M  V30 646 H 71.6303 6.11034 -2.15735 0
M  V30 647 N 65.0364 0.313813 1.54444 0
M  V30 648 C 65.9844 -0.572171 2.25453 0
M  V30 649 C 66.9784 -1.12657 1.2651 0
M  V30 650 O 68.1844 -1.07573 1.44319 0
M  V30 651 H 64.5594 -0.203146 0.724041 0
M  V30 652 H 66.5304 0.0491145 2.9836 0
M  V30 653 C 65.2794 -1.72626 3.0182 0
M  V30 654 H 64.6024 -1.30891 3.77767 0
M  V30 655 H 66.0424 -2.32199 3.54767 0
M  V30 656 C 64.5014 -2.63806 2.09542 0
M  V30 657 O 65.0314 -3.65256 1.67185 0
M  V30 658 N 63.2374 -2.31824 1.75232 0
M  V30 659 H 62.7844 -1.49368 2.09873 0
M  V30 660 H 62.7424 -2.93095 1.13767 0
M  V30 661 N 66.5145 -1.57545 0.0417849 0
M  V30 662 C 67.7425 -1.96624 -0.643928 0
M  V30 663 C 68.1575 -0.918897 -1.64929 0
M  V30 664 O 67.5145 0.0979323 -1.82237 0
M  V30 665 C 67.5655 -3.35781 -1.33914 0
M  V30 666 O 67.2865 -4.365 -0.374048 0
M  V30 667 C 68.7875 -3.89566 -2.1155 0
M  V30 668 H 66.0075 -0.647316 -0.176702 0
M  V30 669 H 68.5515 -2.04229 0.105304 0
M  V30 670 H 66.7065 -3.29357 -2.03968 0
M  V30 671 H 67.1205 -5.17248 -0.869179 0
M  V30 672 H 68.5945 -4.89242 -2.55628 0
M  V30 673 H 69.0715 -3.24488 -2.9598 0
M  V30 674 H 69.6775 -3.99298 -1.46427 0
M  V30 675 N 67.9926 0.231505 -1.5589 0
M  V30 676 C 68.9556 1.27028 -1.90779 0
M  V30 677 C 69.9556 1.40308 -0.785507 0
M  V30 678 O 71.1456 1.38744 -1.05336 0
M  V30 679 C 68.2776 2.64566 -2.14983 0
M  V30 680 H 69.4706 0.973017 -2.83677 0
M  V30 681 H 67.0236 0.471486 -1.49019 0
M  V30 682 H 67.7586 2.99406 -1.24604 0
M  V30 683 H 67.5436 2.56305 -2.96732 0
M  V30 684 H 69.0336 3.39543 -2.43105 0
M  V30 685 N 69.4707 1.49531 0.497807 0
M  V30 686 C 70.4027 1.62559 1.61578 0
M  V30 687 C 71.4157 0.508134 1.54667 0
M  V30 688 O 72.6047 0.780309 1.60541 0
M  V30 689 C 69.7047 1.56925 3.00379 0
M  V30 690 C 68.8777 2.84257 3.3244 0
M  V30 691 C 67.9367 2.71632 4.50669 0
M  V30 692 O 66.9627 3.4557 4.52294 0
M  V30 693 N 68.1647 1.83391 5.5077 0
M  V30 694 H 70.9297 2.58981 1.50828 0
M  V30 695 H 68.4907 1.4666 0.685743 0
M  V30 696 H 70.4827 1.46129 3.77397 0
M  V30 697 H 69.0527 0.683483 3.05037 0
M  V30 698 H 68.2727 3.09381 2.44289 0
M  V30 699 H 69.5607 3.68666 3.5066 0
M  V30 700 H 68.9587 1.22583 5.52259 0
M  V30 701 H 67.5157 1.78515 6.26878 0
M  V30 702 N 70.9488 -0.749086 1.3866 0
M  V30 703 C 72.3648 -1.05276 1.19955 0
M  V30 704 C 72.5648 -2.01435 0.05134 0
M  V30 705 O 71.6208 -2.45232 -0.60147 0
M  V30 706 C 72.9338 -1.62853 2.52783 0
M  V30 707 C 74.4818 -1.75002 2.59506 0
M  V30 708 C 74.9568 -2.35991 3.92521 0
M  V30 709 N 76.4478 -2.43416 3.94085 0
M  V30 710 C 77.1828 -2.91511 4.9377 0
M  V30 711 N 76.6788 -3.39608 6.03853 0
M  V30 712 N 78.4718 -2.90592 4.81157 0
M  V30 713 H 70.6228 -0.111066 2.12109 0
M  V30 714 H 72.8858 -0.111901 0.941373 0
M  V30 715 H 72.5918 -0.99664 3.37283 0
M  V30 716 H 72.4658 -2.61854 2.715 0
M  V30 717 H 74.8528 -2.37317 1.75398 0
M  V30 718 H 74.9338 -0.74693 2.44652 0
M  V30 719 H 74.5778 -1.74308 4.77053 0
M  V30 720 H 74.5078 -3.3695 4.04688 0
M  V30 721 H 76.9988 -2.09405 3.14576 0
M  V30 722 H 77.3118 -3.74775 6.75843 0
M  V30 723 H 75.6568 -3.37653 6.07466 0
M  V30 724 H 78.8478 -2.52332 3.94267 0
M  V30 725 H 79.0208 -3.27762 5.58996 0
M  V30 726 N 72.4269 -1.23603 -0.977757 0
M  V30 727 C 73.3589 -0.977369 -2.07317 0
M  V30 728 C 74.3719 0.0495845 -1.62724 0
M  V30 729 O 75.5609 -0.186261 -1.77526 0
M  V30 730 C 72.6609 -0.451216 -3.35883 0
M  V30 731 C 71.8339 -1.53896 -4.09432 0
M  V30 732 C 70.8929 -1.01721 -5.16274 0
M  V30 733 O 69.9189 -1.70676 -5.43009 0
M  V30 734 N 71.1209 0.153594 -5.80297 0
M  V30 735 H 73.8859 -1.92047 -2.30082 0
M  V30 736 H 71.4469 -1.14497 -1.14465 0
M  V30 737 H 73.4389 -0.0871574 -4.04606 0
M  V30 738 H 72.0089 0.397368 -3.10064 0
M  V30 739 H 71.2289 -2.07566 -3.35127 0
M  V30 740 H 72.5169 -2.27037 -4.55337 0
M  V30 741 H 71.9149 0.730323 -5.60966 0
M  V30 742 H 70.4719 0.458892 -6.50183 0
M  V30 743 N 73.905 1.17692 -1.04816 0
M  V30 744 C 74.815 2.25229 -0.65643 0
M  V30 745 C 75.831 1.71018 0.320761 0
M  V30 746 O 77.007 2.00649 0.173805 0
M  V30 747 C 74.072 3.46684 -0.0332629 0
M  V30 748 C 73.133 4.15997 -1.06042 0
M  V30 749 C 72.366 5.31654 -0.466893 0
M  V30 750 O 72.589 5.65777 0.724758 0
M  V30 751 O 71.523 5.89831 -1.1993 0
M  V30 752 H 75.349 2.61016 -1.55255 0
M  V30 753 H 72.934 1.24919 -0.81949 0
M  V30 754 H 74.816 4.20234 0.313256 0
M  V30 755 H 73.491 3.12703 0.836566 0
M  V30 756 H 72.398 3.44482 -1.45886 0
M  V30 757 H 73.731 4.53996 -1.90127 0
M  V30 758 N 75.3831 0.828654 1.34056 0
M  V30 759 C 76.6321 0.415828 1.97367 0
M  V30 760 C 76.9451 -1.02796 1.6641 0
M  V30 761 O 78.1511 -1.54497 2.23255 0
M  V30 762 C 76.6071 0.692601 3.53173 0
M  V30 763 C 76.2151 2.15038 3.93017 0
M  V30 764 C 77.9591 0.346222 4.23086 0
M  V30 765 C 75.8661 2.37174 5.41758 0
M  V30 766 H 74.7961 0.151755 0.738571 0
M  V30 767 H 77.4471 1.01581 1.52819 0
M  V30 768 H 75.8291 0.0223764 3.95994 0
M  V30 769 H 77.0031 2.86024 3.61285 0
M  V30 770 H 75.3181 2.45875 3.36057 0
M  V30 771 H 77.9151 0.48937 5.32456 0
M  V30 772 H 78.2581 -0.709842 4.10204 0
M  V30 773 H 78.7911 0.971258 3.85761 0
M  V30 774 H 75.5301 3.41308 5.59633 0
M  V30 775 H 75.0501 1.70738 5.74986 0
M  V30 776 H 76.7291 2.19818 6.08514 0
M  V30 777 N 76.8612 -1.46375 0.584142 0
M  V30 778 C 78.2772 -1.57694 0.245929 0
M  V30 779 C 78.4772 -1.57903 -1.25175 0
M  V30 780 O 77.5332 -1.49676 -2.03355 0
M  V30 781 C 78.8462 -2.87028 0.896402 0
M  V30 782 C 80.3942 -3.00662 0.870127 0
M  V30 783 C 80.8692 -4.32734 1.50017 0
M  V30 784 N 82.3602 -4.39436 1.46458 0
M  V30 785 C 83.0952 -5.40248 1.92144 0
M  V30 786 N 82.5912 -6.47726 2.4581 0
M  V30 787 N 84.3842 -5.31459 1.83052 0
M  V30 788 H 76.5352 -1.44483 1.55687 0
M  V30 789 H 78.7982 -0.689291 0.650831 0
M  V30 790 H 78.5042 -2.9269 1.95002 0
M  V30 791 H 78.3782 -3.75014 0.405486 0
M  V30 792 H 80.7652 -2.94581 -0.174871 0
M  V30 793 H 80.8462 -2.14148 1.39908 0
M  V30 794 H 80.4902 -4.39573 2.54437 0
M  V30 795 H 80.4202 -5.18025 0.946432 0
M  V30 796 H 82.9112 -3.62367 1.07231 0
M  V30 797 H 83.2242 -7.20863 2.78525 0
M  V30 798 H 81.5692 -6.48542 2.49836 0
M  V30 799 H 84.7602 -4.46396 1.40883 0
M  V30 800 H 84.9332 -6.09881 2.18973 0
M  V30 801 N 78.3393 -0.321999 -1.54275 0
M  V30 802 C 79.5673 0.283052 -2.04955 0
M  V30 803 C 79.9823 1.45904 -1.19823 0
M  V30 804 O 79.3393 1.81063 -0.228545 0
M  V30 805 C 79.3903 0.719028 -3.54277 0
M  V30 806 O 79.1113 -0.410175 -4.36176 0
M  V30 807 C 80.6123 1.38705 -4.21041 0
M  V30 808 H 77.8323 0.0584616 -0.668448 0
M  V30 809 H 80.3763 -0.467734 -1.99079 0
M  V30 810 H 78.5313 1.41979 -3.60445 0
M  V30 811 H 78.9453 -0.0669416 -5.24457 0
M  V30 812 H 80.4193 1.64306 -5.2698 0
M  V30 813 H 80.8963 2.33385 -3.72059 0
M  V30 814 H 81.5023 0.728906 -4.19007 0
M  V30 815 N 79.8174 1.5752 -0.0501392 0
M  V30 816 C 80.7804 2.1037 0.909786 0
M  V30 817 C 81.7804 1.02308 1.24056 0
M  V30 818 O 82.9704 1.28385 1.17741 0
M  V30 819 C 80.1024 2.58708 2.21998 0
M  V30 820 H 81.2954 2.96479 0.451665 0
M  V30 821 H 78.8484 1.55038 0.198248 0
M  V30 822 H 79.5834 1.75989 2.72394 0
M  V30 823 H 79.3684 3.37675 1.99295 0
M  V30 824 H 80.8584 2.99747 2.9076 0
M  V30 825 N 81.2955 -0.223234 1.56011 0
M  V30 826 C 82.5255 -0.963413 1.82762 0
M  V30 827 C 82.9335 -1.78516 0.626804 0
M  V30 828 O 82.2765 -1.78974 -0.414014 0
M  V30 829 C 82.3385 -1.93126 3.0322 0
M  V30 830 C 82.0025 -1.2942 4.38291 0
M  V30 831 C 82.9995 -0.684916 5.15369 0
M  V30 832 C 80.6845 -1.30647 4.85012 0
M  V30 833 C 82.6785 -0.0963971 6.37327 0
M  V30 834 C 80.3655 -0.71411 6.06913 0
M  V30 835 C 81.3635 -0.110123 6.82911 0
M  V30 836 O 81.0515 0.47303 8.02507 0
M  V30 837 H 80.7835 -0.288011 0.611576 0
M  V30 838 H 83.3375 -0.244103 2.03944 0
M  V30 839 H 81.5675 -2.68952 2.77852 0
M  V30 840 H 83.2565 -2.53685 3.16857 0
M  V30 841 H 84.0225 -0.667774 4.80381 0
M  V30 842 H 79.9015 -1.76598 4.25833 0
M  V30 843 H 83.4455 0.375657 6.96588 0
M  V30 844 H 79.3425 -0.728659 6.41374 0
M  V30 845 H 80.1105 0.367186 8.17676 0
M  V30 846 N 82.7736 -1.49793 -0.48987 0
M  V30 847 C 83.7206 -1.67281 -1.59014 0
M  V30 848 C 84.6906 -0.514177 -1.57941 0
M  V30 849 O 85.8756 -0.742533 -1.75759 0
M  V30 850 C 83.0156 -1.75569 -2.97102 0
M  V30 851 C 82.1286 -3.0281 -3.08107 0
M  V30 852 C 81.2636 -3.02008 -4.36995 0
M  V30 853 C 80.3026 -4.23782 -4.41673 0
M  V30 854 N 79.4396 -4.20826 -5.62005 0
M  V30 855 H 84.2796 -2.61224 -1.43409 0
M  V30 856 H 81.8166 -1.29508 -0.697565 0
M  V30 857 H 83.7746 -1.78354 -3.77155 0
M  V30 858 H 82.4046 -0.850827 -3.11385 0
M  V30 859 H 81.4566 -3.09584 -2.21047 0
M  V30 860 H 82.7686 -3.92801 -3.07423 0
M  V30 861 H 81.9226 -3.03418 -5.25378 0
M  V30 862 H 80.6616 -2.09815 -4.4026 0
M  V30 863 H 79.6666 -4.22604 -3.5169 0
M  V30 864 H 80.8916 -5.17181 -4.40115 0
M  V30 865 H 78.8376 -3.31476 -5.66091 0
M  V30 866 H 78.7546 -5.04564 -5.62984 0
M  V30 867 H 80.0226 -4.26355 -6.52565 0
M  V30 868 N 84.2517 0.741722 -1.39055 0
M  V30 869 C 85.4767 1.53607 -1.39354 0
M  V30 870 C 85.9017 1.88096 0.0116905 0
M  V30 871 O 85.2597 1.5143 0.996924 0
M  V30 872 C 85.3077 2.80441 -2.26682 0
M  V30 873 O 84.4117 3.76088 -1.69208 0
M  V30 874 H 83.7527 0.464142 -0.474835 0
M  V30 875 H 86.2827 0.915665 -1.82967 0
M  V30 876 H 86.2927 3.29246 -2.40959 0
M  V30 877 H 84.9677 2.5467 -3.2881 0
M  V30 878 H 83.5447 3.34833 -1.64138 0
M  V30 879 N 85.7298 1.2412 0.971189 0
M  V30 880 C 86.9578 1.10575 1.74874 0
M  V30 881 C 87.3728 -0.342017 1.85676 0
M  V30 882 O 86.7298 -1.23617 1.34258 0
M  V30 883 C 86.7808 1.73579 3.171 0
M  V30 884 O 86.5018 3.12695 3.06844 0
M  V30 885 C 88.0028 1.65598 4.11208 0
M  V30 886 H 85.2228 0.386504 0.548503 0
M  V30 887 H 87.7668 1.64156 1.21955 0
M  V30 888 H 85.9218 1.24009 3.67016 0
M  V30 889 H 86.3358 3.43412 3.96445 0
M  V30 890 H 87.8098 2.1437 5.08674 0
M  V30 891 H 88.2868 0.616532 4.34851 0
M  V30 892 H 88.8928 2.14578 3.67201 0
M  V30 893 N 87.2079 -1.17134 1.05439 0
M  V30 894 C 88.4569 -1.86791 0.761049 0
M  V30 895 C 88.7699 -1.82072 -0.714795 0
M  V30 896 O 89.9759 -2.47223 -1.12218 0
M  V30 897 C 88.4319 -3.35166 1.31117 0
M  V30 898 C 88.0399 -3.48381 2.81664 0
M  V30 899 C 89.7839 -4.10134 1.09499 0
M  V30 900 C 87.6909 -4.90793 3.29964 0
M  V30 901 H 86.6209 -0.699681 0.281002 0
M  V30 902 H 89.2719 -1.3226 1.27199 0
M  V30 903 H 87.6539 -3.8925 0.72803 0
M  V30 904 H 88.8279 -3.04502 3.45855 0
M  V30 905 H 87.1429 -2.86836 3.01851 0
M  V30 906 H 89.7399 -5.152 1.43084 0
M  V30 907 H 90.0829 -4.16287 0.0328772 0
M  V30 908 H 90.6159 -3.62264 1.64346 0
M  V30 909 H 87.3549 -4.89816 4.35616 0
M  V30 910 H 86.8749 -5.35333 2.70516 0
M  V30 911 H 88.5539 -5.59573 3.24787 0
M  V30 912 N 88.686 -0.835752 -1.33615 0
M  V30 913 C 89.934 -0.429109 -1.97492 0
M  V30 914 C 90.255 1.01433 -1.66543 0
M  V30 915 O 89.525 1.70611 -0.962744 0
M  V30 916 H 88.105 -0.155686 -0.730596 0
M  V30 917 H 90.767 -1.06802 -1.63031 0
M  V30 918 H 89.863 -0.55861 -3.0706 0
M  V30 919 N 90.1641 1.46063 -0.591896 0
M  V30 920 C 91.5801 1.57561 -0.254288 0
M  V30 921 C 91.7801 1.58565 1.24336 0
M  V30 922 O 90.8361 1.50753 2.02558 0
M  V30 923 C 92.1491 2.86549 -0.911611 0
M  V30 924 C 93.6971 3.00197 -0.886059 0
M  V30 925 C 94.1721 4.31933 -1.5231 0
M  V30 926 N 95.6631 4.38654 -1.48786 0
M  V30 927 C 96.3981 5.39222 -1.95006 0
M  V30 928 N 95.8941 6.46414 -2.49241 0
M  V30 929 N 97.6871 5.3048 -1.85868 0
M  V30 930 H 89.8381 1.43655 -1.56451 0
M  V30 931 H 92.1011 0.68583 -0.654478 0
M  V30 932 H 91.8071 2.91651 -1.96551 0
M  V30 933 H 91.6811 3.74794 -0.425368 0
M  V30 934 H 94.0681 2.9467 0.159246 0
M  V30 935 H 94.1491 2.13403 -1.41041 0
M  V30 936 H 93.7931 4.38217 -2.56765 0
M  V30 937 H 93.7231 5.17516 -0.973891 0
M  V30 938 H 96.2141 3.61793 -1.09151 0
M  V30 939 H 96.5271 7.19376 -2.82344 0
M  V30 940 H 94.8721 6.47208 -2.53272 0
M  V30 941 H 98.0631 4.45643 -1.43248 0
M  V30 942 H 98.2361 6.08711 -2.22204 0
M  V30 943 N 91.6422 0.330177 1.54103 0
M  V30 944 C 92.9192 -0.325007 1.92881 0
M  V30 945 C 93.2992 -1.6934 1.26045 0
M  V30 946 O 92.6472 -2.24855 0.406526 0
M  V30 947 C 92.8572 -0.410634 3.46576 0
M  V30 948 C 94.2052 -0.667801 4.19316 0
M  V30 949 O 95.2292 -0.49329 3.52768 0
M  V30 950 O 94.0882 -1.00491 5.37181 0
M  V30 951 H 91.1822 -0.186873 0.80561 0
M  V30 952 H 93.7282 0.380376 1.65382 0
M  V30 953 H 92.5002 0.550164 3.87413 0
M  V30 954 H 92.1232 -1.16333 3.802 0
M  V30 955 N 93.1203 -1.57491 0.0584922 0
M  V30 956 C 94.0503 -2.14988 -0.911178 0
M  V30 957 C 95.0313 -1.07343 -1.31952 0
M  V30 958 O 96.2163 -1.35318 -1.39294 0
M  V30 959 C 93.3463 -2.70078 -2.18347 0
M  V30 960 C 92.3003 -3.82771 -1.91495 0
M  V30 961 C 91.6263 -4.24408 -3.25241 0
M  V30 962 C 92.9263 -5.07592 -1.23075 0
M  V30 963 H 94.6203 -2.96263 -0.432246 0
M  V30 964 H 92.1663 -1.42512 -0.206469 0
M  V30 965 H 94.1193 -3.08943 -2.86587 0
M  V30 966 H 92.8433 -1.86005 -2.68458 0
M  V30 967 H 91.5023 -3.44389 -1.25664 0
M  V30 968 H 91.1503 -3.37275 -3.73168 0
M  V30 969 H 90.8503 -5.00366 -3.08071 0
M  V30 970 H 92.3743 -4.65879 -3.94701 0
M  V30 971 H 93.7883 -5.43857 -1.81362 0
M  V30 972 H 92.1853 -5.88741 -1.16207 0
M  V30 973 H 93.2553 -4.84454 -0.207847 0
M  V30 974 N 94.5984 0.214957 -1.56127 0
M  V30 975 C 95.8474 0.936451 -1.78643 0
M  V30 976 C 96.1604 1.85237 -0.628229 0
M  V30 977 O 97.3664 2.613 -0.737186 0
M  V30 978 C 95.8224 1.7154 -3.16389 0
M  V30 979 C 95.4304 0.845299 -4.39953 0
M  V30 980 C 97.1744 2.42772 -3.48227 0
M  V30 981 C 95.0814 1.62198 -5.68723 0
M  V30 982 H 94.0114 0.353401 -0.666051 0
M  V30 983 H 96.6624 0.190169 -1.82512 0
M  V30 984 H 95.0444 2.50484 -3.06715 0
M  V30 985 H 96.2184 0.0959353 -4.607 0
M  V30 986 H 94.5334 0.244789 -4.1568 0
M  V30 987 H 97.1304 3.01394 -4.41663 0
M  V30 988 H 97.4734 3.15984 -2.71035 0
M  V30 989 H 98.0064 1.70813 -3.5926 0
M  V30 990 H 94.7454 0.933011 -6.48826 0
M  V30 991 H 94.2654 2.34579 -5.52026 0
M  V30 992 H 95.9444 2.18095 -6.09133 0
M  V30 993 N 96.0765 1.50051 0.48192 0
M  V30 994 C 97.3535 1.51009 1.2432 0
M  V30 995 C 97.7335 0.248587 2.09631 0
M  V30 996 O 97.0815 -0.768409 2.15192 0
M  V30 997 C 97.2915 2.79981 2.08355 0
M  V30 998 C 98.6395 3.3022 2.66908 0
M  V30 999 O 99.6635 2.81228 2.18607 0
M  V30 1000 O 98.5225 4.15595 3.54884 0
M  V30 1001 H 95.6165 0.605239 0.563573 0
M  V30 1002 H 98.1625 1.62332 0.494627 0
M  V30 1003 H 96.9345 3.63275 1.45419 0
M  V30 1004 H 96.5575 2.7161 2.90368 0
M  V30 1005 N 97.5546 -0.734337 1.39446 0
M  V30 1006 C 98.8316 -1.48579 1.27215 0
M  V30 1007 C 99.2116 -2.1077 -0.117968 0
M  V30 1008 O 98.5596 -1.98646 -1.12924 0
M  V30 1009 C 98.7696 -2.53667 2.39696 0
M  V30 1010 C 100.118 -3.20031 2.79044 0
M  V30 1011 O 101.142 -2.6398 2.39151 0
M  V30 1012 O 100.001 -4.21455 3.47905 0
M  V30 1013 H 97.0946 -0.659816 0.49857 0
M  V30 1014 H 99.6406 -0.768106 1.51322 0
M  V30 1015 H 98.4126 -2.06096 3.32626 0
M  V30 1016 H 98.0356 -3.32994 2.17258 0
M  V30 1017 N 99.0327 -1.24633 -0.964593 0
M  V30 1018 C 99.9627 -1.06611 -2.07741 0
M  V30 1019 C 100.944 0.0218666 -1.70086 0
M  V30 1020 O 102.129 -0.145793 -1.93652 0
M  V30 1021 C 99.2587 -0.673444 -3.40708 0
M  V30 1022 C 98.2127 -1.71054 -3.92332 0
M  V30 1023 C 97.5387 -1.17285 -5.21678 0
M  V30 1024 C 98.8387 -3.10718 -4.19824 0
M  V30 1025 H 100.533 -1.99693 -2.23076 0
M  V30 1026 H 98.0787 -0.96152 -1.07195 0
M  V30 1027 H 100.032 -0.534345 -4.17998 0
M  V30 1028 H 98.7557 0.293073 -3.25282 0
M  V30 1029 H 97.4147 -1.83791 -3.17201 0
M  V30 1030 H 97.0627 -0.196847 -5.02615 0
M  V30 1031 H 96.7627 -1.86592 -5.57187 0
M  V30 1032 H 98.2867 -1.04593 -6.01575 0
M  V30 1033 H 99.7007 -3.01192 -4.87808 0
M  V30 1034 H 98.0977 -3.77406 -4.66567 0
M  V30 1035 H 99.1677 -3.58524 -3.26479 0
M  V30 1036 N 100.511 1.16574 -1.06058 0
M  V30 1037 C 101.458 2.20883 -0.669263 0
M  V30 1038 C 102.428 1.62729 0.332918 0
M  V30 1039 O 103.613 1.895 0.222346 0
M  V30 1040 C 100.753 3.45049 -0.0593572 0
M  V30 1041 C 99.8658 4.17458 -1.11143 0
M  V30 1042 C 99.0008 5.29135 -0.467916 0
M  V30 1043 C 98.0398 5.93343 -1.50369 0
M  V30 1044 N 97.1768 6.96516 -0.883706 0
M  V30 1045 H 102.017 2.53709 -1.5632 0
M  V30 1046 H 99.5538 1.24616 -0.781625 0
M  V30 1047 H 101.512 4.16033 0.311771 0
M  V30 1048 H 100.142 3.12781 0.797992 0
M  V30 1049 H 99.1938 3.45101 -1.60029 0
M  V30 1050 H 100.506 4.61307 -1.89731 0
M  V30 1051 H 99.6598 6.06684 -0.0436871 0
M  V30 1052 H 98.3988 4.86443 0.349864 0
M  V30 1053 H 97.4038 5.14517 -1.93784 0
M  V30 1054 H 98.6288 6.38114 -2.32352 0
M  V30 1055 H 96.5748 6.55943 -0.086595 0
M  V30 1056 H 96.4918 7.38723 -1.607 0
M  V30 1057 H 97.7598 7.77993 -0.484543 0
M  V30 1058 N 101.989 0.842826 1.3317 0
M  V30 1059 C 103.214 0.453129 2.02389 0
M  V30 1060 C 103.639 -0.939105 1.6298 0
M  V30 1061 O 102.997 -1.61472 0.8244 0
M  V30 1062 C 103.045 0.586094 3.55805 0
M  V30 1063 O 102.149 -0.386029 4.10589 0
M  V30 1064 H 101.49 0.183664 0.638094 0
M  V30 1065 H 104.02 1.13875 1.69981 0
M  V30 1066 H 104.03 0.469209 4.05293 0
M  V30 1067 H 102.705 1.6014 3.83833 0
M  V30 1068 H 101.282 -0.226371 3.72212 0
M  V30 1069 N 103.467 -1.45747 0.599634 0
M  V30 1070 C 104.377 -2.34262 -0.125888 0
M  V30 1071 C 105.393 -1.50768 -0.868625 0
M  V30 1072 O 106.569 -1.83592 -0.828003 0
M  V30 1073 C 103.634 -3.28252 -1.11587 0
M  V30 1074 C 102.695 -4.27651 -0.375956 0
M  V30 1075 C 101.928 -5.1715 -1.31877 0
M  V30 1076 O 102.151 -5.09916 -2.55621 0
M  V30 1077 O 101.085 -5.96286 -0.820157 0
M  V30 1078 H 104.911 -2.97688 0.601315 0
M  V30 1079 H 102.496 -1.44999 0.359934 0
M  V30 1080 H 104.378 -3.86191 -1.68626 0
M  V30 1081 H 103.053 -2.67401 -1.82424 0
M  V30 1082 H 101.96 -3.7335 0.236698 0
M  V30 1083 H 103.293 -4.91334 0.29177 0
M  V30 1084 N 104.945 -0.338344 -1.53925 0
M  V30 1085 C 105.875 0.51328 -2.27789 0
M  V30 1086 C 106.856 1.107 -1.29149 0
M  V30 1087 O 108.041 1.12937 -1.57984 0
M  V30 1088 C 105.171 1.66697 -3.04679 0
M  V30 1089 C 104.125 1.20183 -4.1078 0
M  V30 1090 C 103.451 2.44363 -4.75595 0
M  V30 1091 C 104.751 0.30605 -5.21403 0
M  V30 1092 H 106.445 -0.102883 -2.99223 0
M  V30 1093 H 103.991 -0.0509219 -1.4391 0
M  V30 1094 H 105.944 2.26915 -3.55088 0
M  V30 1095 H 104.668 2.30995 -2.30887 0
M  V30 1096 H 103.327 0.622499 -3.61276 0
M  V30 1097 H 102.975 3.07057 -3.98403 0
M  V30 1098 H 102.675 2.13925 -5.47275 0
M  V30 1099 H 104.199 3.05317 -5.28786 0
M  V30 1100 H 105.613 0.814929 -5.67478 0
M  V30 1101 H 104.01 0.0937929 -6.00027 0
M  V30 1102 H 105.08 -0.65921 -4.80398 0
M  V30 1103 N 106.423 1.57458 -0.0668435 0
M  V30 1104 C 107.648 1.9804 0.616027 0
M  V30 1105 C 108.073 0.944771 1.62652 0
M  V30 1106 O 107.431 -0.0902094 1.81075 0
M  V30 1107 C 107.479 3.37665 1.26549 0
M  V30 1108 O 106.583 3.36701 2.38131 0
M  V30 1109 H 105.924 0.644719 0.158849 0
M  V30 1110 H 108.454 2.04121 -0.139891 0
M  V30 1111 H 108.464 3.7474 1.6135 0
M  V30 1112 H 107.139 4.12573 0.525016 0
M  V30 1113 H 105.716 3.1139 2.0516 0
M  V30 1114 N 107.901 -0.206675 1.56239 0
M  V30 1115 C 109.149 -0.927007 1.79586 0
M  V30 1116 C 109.47 -1.8427 0.637929 0
M  V30 1117 O 108.74 -1.92849 -0.344398 0
M  V30 1118 H 107.32 -0.345292 0.662407 0
M  V30 1119 H 109.982 -0.21496 1.93711 0
M  V30 1120 H 109.078 -1.52501 2.72305 0
M  V30 1121 N 109.379 -1.50304 -0.473955 0
M  V30 1122 C 110.327 -1.69482 -1.59307 0
M  V30 1123 C 111.321 -0.560669 -1.59853 0
M  V30 1124 O 112.527 -0.741087 -1.64036 0
M  V30 1125 H 108.902 -0.534892 -0.528578 0
M  V30 1126 H 110.873 -2.63364 -1.40293 0
M  V30 1127 C 109.622 -1.80354 -2.97267 0
M  V30 1128 H 108.945 -2.67012 -2.97564 0
M  V30 1129 H 110.385 -1.97798 -3.75036 0
M  V30 1130 C 108.844 -0.55448 -3.32306 0
M  V30 1131 O 109.374 0.307661 -4.0052 0
M  V30 1132 N 107.58 -0.409354 -2.87702 0
M  V30 1133 H 107.127 -1.11196 -2.32364 0
M  V30 1134 H 107.085 0.425223 -3.11511 0
M  V30 1135 N 110.857 0.726932 -1.39834 0
M  V30 1136 C 112.104 1.48664 -1.37496 0
M  V30 1137 C 112.432 1.94482 0.0264678 0
M  V30 1138 O 111.687 1.67692 1.00886 0
M  V30 1139 C 111.986 2.73495 -2.30077 0
M  V30 1140 C 111.652 2.46502 -3.77555 0
M  V30 1141 C 110.314 2.3885 -4.17737 0
M  V30 1142 C 112.666 2.23604 -4.70798 0
M  V30 1143 C 109.994 2.06352 -5.49214 0
M  V30 1144 C 112.346 1.92622 -6.02561 0
M  V30 1145 C 111.01 1.83444 -6.41798 0
M  V30 1146 H 110.28 0.544001 -0.503135 0
M  V30 1147 H 112.927 0.833657 -1.72402 0
M  V30 1148 H 111.232 3.43575 -1.88317 0
M  V30 1149 H 112.929 3.31549 -2.25558 0
M  V30 1150 H 109.519 2.5334 -3.45712 0
M  V30 1151 H 113.703 2.28479 -4.40581 0
M  V30 1152 H 108.959 1.97776 -5.78528 0
M  V30 1153 H 113.133 1.73914 -6.74334 0
M  V30 1154 H 110.76 1.58029 -7.43593 0
M  V30 1155 N 112.336 1.25143 0.95797 0
M  V30 1156 C 113.246 1.06968 2.08794 0
M  V30 1157 C 114.262 0.00773911 1.73998 0
M  V30 1158 O 115.438 0.207972 2.00323 0
M  V30 1159 C 112.503 0.68691 3.39827 0
M  V30 1160 C 111.564 1.82641 3.88511 0
M  V30 1161 C 110.797 1.46181 5.1329 0
M  V30 1162 O 111.02 0.355971 5.69288 0
M  V30 1163 O 109.954 2.29085 5.566 0
M  V30 1164 H 113.78 2.01723 2.27027 0
M  V30 1165 H 111.365 1.04051 1.07209 0
M  V30 1166 H 113.247 0.485417 4.18595 0
M  V30 1167 H 111.922 -0.231417 3.22872 0
M  V30 1168 H 110.829 2.08274 3.10762 0
M  V30 1169 H 112.162 2.72386 4.09959 0
M  V30 1170 N 113.814 -1.1601 1.06675 0
M  V30 1171 C 114.746 -2.20115 0.638921 0
M  V30 1172 C 115.759 -1.59916 -0.305057 0
M  V30 1173 O 116.948 -1.78245 -0.0954446 0
M  V30 1174 C 114.048 -3.38798 -0.0830083 0
M  V30 1175 C 113.221 -4.2855 0.875426 0
M  V30 1176 C 112.28 -5.25849 0.192042 0
M  V30 1177 O 111.306 -5.63102 0.830921 0
M  V30 1178 N 112.508 -5.70648 -1.06493 0
M  V30 1179 H 115.273 -2.57439 1.53444 0
M  V30 1180 H 112.834 -1.31057 0.950557 0
M  V30 1181 H 114.826 -4.00936 -0.550685 0
M  V30 1182 H 113.396 -2.99947 -0.880386 0
M  V30 1183 H 112.616 -3.63617 1.52238 0
M  V30 1184 H 113.904 -4.85393 1.52548 0
M  V30 1185 H 113.302 -5.42482 -1.60405 0
M  V30 1186 H 111.859 -6.34859 -1.47641 0
M  V30 1187 N 115.292 -0.849877 -1.32721 0
M  V30 1188 C 116.538 -0.451591 -1.97708 0
M  V30 1189 C 116.871 0.989175 -1.6712 0
M  V30 1190 O 116.146 1.69334 -0.956891 0
M  V30 1191 C 116.429 -0.685598 -3.53513 0
M  V30 1192 C 116.282 -2.17444 -3.93749 0
M  V30 1193 C 117.601 -0.138874 -4.39881 0
M  V30 1194 H 114.72 -0.16555 -0.718166 0
M  V30 1195 H 117.362 -1.06742 -1.57182 0
M  V30 1196 H 115.512 -0.161416 -3.88165 0
M  V30 1197 H 117.184 -2.76433 -3.693 0
M  V30 1198 H 115.427 -2.65476 -3.43081 0
M  V30 1199 H 116.098 -2.28888 -5.02309 0
M  V30 1200 H 118.574 -0.587068 -4.11938 0
M  V30 1201 H 117.45 -0.332213 -5.47894 0
M  V30 1202 H 117.711 0.95806 -4.31594 0
M  V30 1203 N 116.77 1.45427 -0.607355 0
M  V30 1204 C 118.019 2.01452 -0.100036 0
M  V30 1205 C 118.332 1.48159 1.27704 0
M  V30 1206 O 119.538 1.96159 1.87707 0
M  V30 1207 C 117.994 3.59672 -0.128158 0
M  V30 1208 C 117.602 4.21962 -1.50507 0
M  V30 1209 C 119.346 4.23262 0.323932 0
M  V30 1210 C 117.253 5.72333 -1.48959 0
M  V30 1211 H 116.183 0.75325 -0.0336299 0
M  V30 1212 H 118.834 1.66901 -0.76265 0
M  V30 1213 H 117.216 3.91411 0.601105 0
M  V30 1214 H 118.39 4.01796 -2.25602 0
M  V30 1215 H 116.705 3.70565 -1.89923 0
M  V30 1216 H 119.302 5.33522 0.354691 0
M  V30 1217 H 119.645 3.93921 1.34656 0
M  V30 1218 H 120.178 3.96239 -0.352056 0
M  V30 1219 H 116.917 6.06373 -2.48981 0
M  V30 1220 H 116.437 5.94691 -0.781214 0
M  V30 1221 H 118.116 6.35525 -1.21313 0
M  V30 1222 N 118.248 0.346503 1.53744 0
M  V30 1223 C 119.494 -0.249473 2.0126 0
M  V30 1224 C 119.827 -1.49965 1.23386 0
M  V30 1225 O 119.102 -1.91811 0.32229 0
M  V30 1226 C 119.385 -0.560643 3.55709 0
M  V30 1227 C 119.238 0.701836 4.44291 0
M  V30 1228 C 120.557 -1.36905 4.18264 0
M  V30 1229 H 117.676 -0.0891987 0.731582 0
M  V30 1230 H 120.318 0.467624 1.84156 0
M  V30 1231 H 118.468 -1.17156 3.70414 0
M  V30 1232 H 120.14 1.33974 4.41417 0
M  V30 1233 H 118.383 1.32612 4.13033 0
M  V30 1234 H 119.054 0.43933 5.50249 0
M  V30 1235 H 121.53 -0.852448 4.07275 0
M  V30 1236 H 120.406 -1.55553 5.26398 0
M  V30 1237 H 120.667 -2.37203 3.73078 0
M  V30 1238 N 119.726 -1.57421 0.075193 0
M  V30 1239 C 120.974 -1.93236 -0.591974 0
M  V30 1240 C 121.295 -0.956241 -1.69944 0
M  V30 1241 O 120.565 -0.00494792 -1.95899 0
M  V30 1242 H 119.145 -0.713355 -0.22166 0
M  V30 1243 H 121.807 -1.9444 0.133848 0
M  V30 1244 H 120.903 -2.95131 -1.01509 0
M  V30 1245 N 121.204 0.198386 -1.56346 0
M  V30 1246 C 122.137 1.27381 -1.89339 0
M  V30 1247 C 123.115 1.44106 -0.753134 0
M  V30 1248 O 124.299 1.59549 -1.00381 0
M  V30 1249 C 121.426 2.6409 -2.12071 0
M  V30 1250 C 120.472 2.64253 -3.34772 0
M  V30 1251 S 121.305 2.16013 -4.89999 0
M  V30 1252 C 122.461 3.54553 -5.15794 0
M  V30 1253 H 122.694 0.992058 -2.8026 0
M  V30 1254 H 120.227 0.401726 -1.49082 0
M  V30 1255 H 122.185 3.42786 -2.2585 0
M  V30 1256 H 120.846 2.89478 -1.21906 0
M  V30 1257 H 120.039 3.64768 -3.47794 0
M  V30 1258 H 119.641 1.93637 -3.1997 0
M  V30 1259 H 121.933 4.50396 -5.06112 0
M  V30 1260 H 122.876 3.46428 -6.1757 0
M  V30 1261 H 123.284 3.49313 -4.43442 0
M  V30 1262 N 122.682 1.50554 0.465978 0
M  V30 1263 C 123.615 1.64436 1.58227 0
M  V30 1264 C 124.593 0.492367 1.54966 0
M  V30 1265 O 125.777 0.712536 1.74514 0
M  V30 1266 C 122.904 1.63165 2.96808 0
M  V30 1267 C 121.95 2.83987 3.18204 0
M  V30 1268 S 122.783 4.45219 2.97557 0
M  V30 1269 C 123.939 4.46649 4.3847 0
M  V30 1270 H 124.172 2.58861 1.46213 0
M  V30 1271 H 121.705 1.3988 0.653678 0
M  V30 1272 H 123.663 1.63116 3.76701 0
M  V30 1273 H 122.324 0.69967 3.06208 0
M  V30 1274 H 121.517 2.79416 4.19455 0
M  V30 1275 H 121.119 2.81629 2.46092 0
M  V30 1276 H 123.411 4.20526 5.31191 0
M  V30 1277 H 124.354 5.48295 4.48082 0
M  V30 1278 H 124.762 3.76296 4.20787 0
M  V30 1279 N 124.16 -0.719506 1.40217 0
M  V30 1280 C 125.388 -1.50864 1.41589 0
M  V30 1281 C 125.803 -1.88794 0.0145275 0
M  V30 1282 O 125.16 -1.55174 -0.960594 0
M  V30 1283 C 125.211 -2.78646 2.30302 0
M  V30 1284 O 124.932 -2.42321 3.64983 0
M  V30 1285 C 126.433 -3.72569 2.40224 0
M  V30 1286 H 123.653 -0.465709 0.48307 0
M  V30 1287 H 126.197 -0.88785 1.84221 0
M  V30 1288 H 124.352 -3.37019 1.91042 0
M  V30 1289 H 124.766 -3.24514 4.12057 0
M  V30 1290 H 126.24 -4.5908 3.06512 0
M  V30 1291 H 126.717 -4.15403 1.42608 0
M  V30 1292 H 127.323 -3.20109 2.80019 0
M  V30 1293 N 125.638 -1.25649 -0.95132 0
M  V30 1294 C 127.049 -1.09654 -1.51106 0
M  V30 1295 C 127.4 0.326615 -1.93462 0
M  V30 1296 O 126.525 1.21697 -1.78938 0
M  V30 1297 C 127.12 -1.98437 -2.74605 0
M  V30 1298 C 125.679 -1.86618 -3.2688 0
M  V30 1299 C 124.826 -1.9239 -1.99703 0
M  V30 1300 H 127.777 -1.38887 -0.767865 0
M  V30 1301 H 127.798 -1.5263 -3.48546 0
M  V30 1302 H 127.31 -3.02009 -2.43746 0
M  V30 1303 H 125.411 -0.859421 -3.62553 0
M  V30 1304 H 125.524 -2.71607 -3.94673 0
M  V30 1305 H 123.888 -1.36317 -2.15151 0
M  V30 1306 H 124.671 -2.97573 -1.71188 0
M  V30 1307 N 127.117 1.15442 -1.07289 0
M  V30 1308 C 128.345 1.90096 -0.81676 0
M  V30 1309 C 128.76 1.7798 0.629966 0
M  V30 1310 O 128.117 1.1313 1.43206 0
M  V30 1311 C 128.168 3.40466 -1.21512 0
M  V30 1312 O 127.889 3.52232 -2.60508 0
M  V30 1313 C 129.39 4.32145 -0.988198 0
M  V30 1314 H 126.61 0.602495 -0.295366 0
M  V30 1315 H 129.154 1.4627 -1.42918 0
M  V30 1316 H 127.309 3.81958 -0.647039 0
M  V30 1317 H 127.723 4.45549 -2.76742 0
M  V30 1318 H 129.197 5.36072 -1.31645 0
M  V30 1319 H 129.674 4.39135 0.0755063 0
M  V30 1320 H 130.28 3.96395 -1.54115 0
M  V30 1321 N 128.595 0.856903 1.32268 0
M  V30 1322 C 129.841 0.462069 1.97466 0
M  V30 1323 C 130.174 -0.980298 1.67642 0
M  V30 1324 O 129.449 -1.68824 0.965858 0
M  V30 1325 C 129.732 0.704336 3.53145 0
M  V30 1326 C 129.585 2.19529 3.9259 0
M  V30 1327 C 130.904 0.1622 4.39801 0
M  V30 1328 H 128.023 0.169357 0.717278 0
M  V30 1329 H 130.665 1.07574 1.56614 0
M  V30 1330 H 128.815 0.181999 3.88073 0
M  V30 1331 H 130.487 2.78387 3.67829 0
M  V30 1332 H 128.73 2.67292 3.41668 0
M  V30 1333 H 129.401 2.31549 5.01088 0
M  V30 1334 H 131.877 0.608905 4.11621 0
M  V30 1335 H 130.753 0.361265 5.4771 0
M  V30 1336 H 131.014 -0.935158 4.32096 0
M  V30 1337 N 130.073 -1.45103 0.615059 0
M  V30 1338 C 131.003 -2.33339 -0.0865619 0
M  V30 1339 C 131.984 -1.4727 -0.851209 0
M  V30 1340 O 133.169 -1.76026 -0.820281 0
M  V30 1341 C 130.299 -3.30095 -1.07956 0
M  V30 1342 C 129.253 -4.25858 -0.427628 0
M  V30 1343 C 128.579 -5.12361 -1.5294 0
M  V30 1344 C 129.879 -5.18165 0.655944 0
M  V30 1345 H 131.573 -2.92254 0.650224 0
M  V30 1346 H 129.119 -1.40532 0.314138 0
M  V30 1347 H 131.072 -3.90698 -1.57901 0
M  V30 1348 H 129.796 -2.69355 -1.84703 0
M  V30 1349 H 128.455 -3.66564 0.0510292 0
M  V30 1350 H 128.103 -4.47984 -2.28734 0
M  V30 1351 H 127.803 -5.77238 -1.09865 0
M  V30 1352 H 129.327 -5.75833 -2.03098 0
M  V30 1353 H 130.741 -5.72796 0.240257 0
M  V30 1354 H 129.138 -5.91559 1.00888 0
M  V30 1355 H 130.208 -4.60144 1.52957 0
M  V30 1356 N 131.551 -0.354651 -1.53558 0
M  V30 1357 C 132.781 0.239167 -2.05211 0
M  V30 1358 C 133.189 1.43879 -1.22863 0
M  V30 1359 O 132.532 1.81857 -0.259565 0
M  V30 1360 C 132.594 0.707251 -3.52474 0
M  V30 1361 C 132.258 -0.374212 -4.55465 0
M  V30 1362 C 133.255 -1.22054 -5.0537 0
M  V30 1363 C 130.94 -0.531323 -4.99482 0
M  V30 1364 C 132.934 -2.20942 -5.97882 0
M  V30 1365 C 130.621 -1.52358 -5.91802 0
M  V30 1366 C 131.619 -2.36108 -6.40892 0
M  V30 1367 O 131.307 -3.33643 -7.31394 0
M  V30 1368 H 131.039 0.0479716 -0.674296 0
M  V30 1369 H 133.593 -0.508121 -1.99016 0
M  V30 1370 H 131.823 1.50596 -3.56171 0
M  V30 1371 H 133.512 1.22285 -3.87042 0
M  V30 1372 H 134.278 -1.1103 -4.7212 0
M  V30 1373 H 130.157 0.110738 -4.60867 0
M  V30 1374 H 133.701 -2.86348 -6.36121 0
M  V30 1375 H 129.598 -1.63434 -6.24467 0
M  V30 1376 H 130.366 -3.29244 -7.4936 0
M  V30 1377 N 133.029 1.57378 -0.0835403 0
M  V30 1378 C 134.306 1.85363 0.624507 0
M  V30 1379 C 134.686 0.978239 1.87066 0
M  V30 1380 O 134.034 0.0475908 2.2845 0
M  V30 1381 C 134.244 3.35795 0.950947 0
M  V30 1382 C 135.592 4.03581 1.31939 0
M  V30 1383 O 136.616 3.40609 1.04232 0
M  V30 1384 O 135.475 5.14672 1.83779 0
M  V30 1385 H 132.569 0.766162 0.311329 0
M  V30 1386 H 135.115 1.69307 -0.115362 0
M  V30 1387 H 133.887 3.91244 0.0663899 0
M  V30 1388 H 133.51 3.57154 1.74719 0
M  V30 1389 N 134.507 -0.190092 1.56449 0
M  V30 1390 C 135.753 -0.911052 1.81184 0
M  V30 1391 C 136.086 -1.82699 0.658396 0
M  V30 1392 O 135.361 -1.91491 -0.340775 0
M  V30 1393 C 135.644 -1.72297 3.16205 0
M  V30 1394 C 135.497 -0.831419 4.42049 0
M  V30 1395 C 136.816 -2.69454 3.47969 0
M  V30 1396 H 133.935 -0.32977 0.659106 0
M  V30 1397 H 136.577 -0.178169 1.89163 0
M  V30 1398 H 134.727 -2.34778 3.09534 0
M  V30 1399 H 136.399 -0.220929 4.60771 0
M  V30 1400 H 134.642 -0.138406 4.33579 0
M  V30 1401 H 135.313 -1.43461 5.33032 0
M  V30 1402 H 137.789 -2.17104 3.54972 0
M  V30 1403 H 136.665 -3.23342 4.43555 0
M  V30 1404 H 136.926 -3.48744 2.71717 0
M  V30 1405 N 135.985 -1.50799 -0.457987 0
M  V30 1406 C 136.917 -1.66786 -1.57211 0
M  V30 1407 C 137.93 -0.548962 -1.53265 0
M  V30 1408 O 139.119 -0.8226 -1.58416 0
M  V30 1409 C 136.219 -1.64834 -2.96113 0
M  V30 1410 C 135.392 -2.92971 -3.24787 0
M  V30 1411 C 134.451 -2.83485 -4.43309 0
M  V30 1412 O 133.477 -3.5744 -4.42973 0
M  V30 1413 N 134.679 -1.97929 -5.45714 0
M  V30 1414 H 137.444 -2.62889 -1.43909 0
M  V30 1415 H 135.005 -1.48427 -0.646617 0
M  V30 1416 H 136.997 -1.56084 -3.7339 0
M  V30 1417 H 135.567 -0.764118 -3.03117 0
M  V30 1418 H 134.787 -3.15749 -2.36 0
M  V30 1419 H 136.075 -3.77834 -3.40762 0
M  V30 1420 H 135.473 -1.37182 -5.48815 0
M  V30 1421 H 134.03 -1.95073 -6.21924 0
M  V30 1422 N 137.463 0.71206 -1.40597 0
M  V30 1423 C 138.373 1.8562 -1.43466 0
M  V30 1424 C 139.389 1.70902 -0.326902 0
M  V30 1425 O 140.565 1.93105 -0.572043 0
M  V30 1426 C 137.63 3.21451 -1.29884 0
M  V30 1427 C 136.691 3.48398 -2.50833 0
M  V30 1428 C 135.924 4.77749 -2.3789 0
M  V30 1429 O 136.147 5.53089 -1.39459 0
M  V30 1430 O 135.081 5.05111 -3.27333 0
M  V30 1431 H 138.907 1.86155 -2.39958 0
M  V30 1432 H 136.492 0.86295 -1.21957 0
M  V30 1433 H 138.374 4.02579 -1.24531 0
M  V30 1434 H 137.049 3.21636 -0.364997 0
M  V30 1435 H 135.956 2.67265 -2.61763 0
M  V30 1436 H 137.289 3.53014 -3.4299 0
M  V30 1437 N 138.941 1.26152 0.944643 0
M  V30 1438 C 139.871 1.09902 2.06019 0
M  V30 1439 C 140.852 0.00519538 1.70099 0
M  V30 1440 O 142.037 0.176583 1.93396 0
M  V30 1441 C 139.167 0.727562 3.39594 0
M  V30 1442 C 138.121 1.77274 3.89561 0
M  V30 1443 C 137.447 1.25569 5.19747 0
M  V30 1444 C 138.747 3.17357 4.14827 0
M  V30 1445 H 140.441 2.03217 2.19871 0
M  V30 1446 H 137.987 0.978452 1.05652 0
M  V30 1447 H 139.94 0.600777 4.17095 0
M  V30 1448 H 138.664 -0.241287 3.25707 0
M  V30 1449 H 137.323 1.88814 3.14237 0
M  V30 1450 H 136.971 0.276783 5.02238 0
M  V30 1451 H 136.671 1.95433 5.54148 0
M  V30 1452 H 138.195 1.1415 5.99835 0
M  V30 1453 H 139.609 3.08914 4.82954 0
M  V30 1454 H 138.006 3.84781 4.60504 0
M  V30 1455 H 139.076 3.63673 3.20734 0
M  V30 1456 N 140.419 -1.14872 1.07899 0
M  V30 1457 C 141.835 -1.37776 0.805606 0
M  V30 1458 C 142.035 -1.92743 -0.587555 0
M  V30 1459 O 141.091 -2.13678 -1.34528 0
M  V30 1460 C 142.404 -2.34361 1.88402 0
M  V30 1461 C 143.952 -2.48012 1.90942 0
M  V30 1462 C 144.427 -3.47893 2.97883 0
M  V30 1463 N 145.918 -3.55433 2.97021 0
M  V30 1464 C 146.653 -4.32553 3.76412 0
M  V30 1465 N 146.149 -5.12959 4.65666 0
M  V30 1466 N 147.942 -4.27697 3.64735 0
M  V30 1467 H 140.093 -0.775365 1.97742 0
M  V30 1468 H 142.356 -0.403521 0.857831 0
M  V30 1469 H 142.062 -2.01098 2.88535 0
M  V30 1470 H 141.936 -3.34206 1.74889 0
M  V30 1471 H 144.323 -2.8057 0.914579 0
M  V30 1472 H 144.404 -1.48147 2.08534 0
M  V30 1473 H 144.048 -3.16069 3.97571 0
M  V30 1474 H 143.978 -4.47527 2.77538 0
M  V30 1475 H 146.469 -2.98048 2.32326 0
M  V30 1476 H 146.782 -5.69065 5.22862 0
M  V30 1477 H 145.127 -5.12245 4.69712 0
M  V30 1478 H 148.318 -3.63949 2.94378 0
M  V30 1479 H 148.491 -4.8755 4.26848 0
M  V30 1480 N 141.898 -0.863906 -1.31812 0
M  V30 1481 C 143.314 -0.555004 -1.49639 0
M  V30 1482 C 143.514 0.912266 -1.79666 0
M  V30 1483 O 142.57 1.69479 -1.87171 0
M  V30 1484 C 143.883 -1.44998 -2.63431 0
M  V30 1485 C 145.431 -1.45138 -2.77316 0
M  V30 1486 C 145.906 -2.33179 -3.94197 0
M  V30 1487 N 147.397 -2.31025 -4.01474 0
M  V30 1488 C 148.132 -2.95871 -4.9117 0
M  V30 1489 N 147.628 -3.69863 -5.8581 0
M  V30 1490 N 149.421 -2.85211 -4.84367 0
M  V30 1491 H 141.572 -1.81339 -1.10589 0
M  V30 1492 H 143.835 -0.77505 -0.545895 0
M  V30 1493 H 143.541 -2.49377 -2.48 0
M  V30 1494 H 143.415 -1.14409 -3.59431 0
M  V30 1495 H 145.802 -0.415201 -2.92164 0
M  V30 1496 H 145.883 -1.79747 -1.82001 0
M  V30 1497 H 145.527 -3.3687 -3.80107 0
M  V30 1498 H 145.457 -1.95897 -4.88807 0
M  V30 1499 H 147.948 -1.77238 -3.33759 0
M  V30 1500 H 148.261 -4.16486 -6.50968 0
M  V30 1501 H 146.606 -3.73971 -5.85808 0
M  V30 1502 H 149.797 -2.26948 -4.09405 0
M  V30 1503 H 149.97 -3.36027 -5.54066 0
M  V30 1504 N 143.376 1.44774 -0.622745 0
M  V30 1505 C 144.339 2.29069 0.0774015 0
M  V30 1506 C 145.339 1.4059 0.780461 0
M  V30 1507 O 146.529 1.62551 0.626322 0
M  V30 1508 C 143.661 3.21974 1.12006 0
M  V30 1509 H 144.854 2.92459 -0.663901 0
M  V30 1510 H 142.407 1.51548 -0.382486 0
M  V30 1511 H 143.142 2.63417 1.89162 0
M  V30 1512 H 142.927 3.87168 0.619951 0
M  V30 1513 H 144.417 3.85318 1.60995 0
M  V30 1514 N 144.854 0.36279 1.53368 0
M  V30 1515 C 145.787 -0.528507 2.21996 0
M  V30 1516 C 146.765 -1.0852 1.21087 0
M  V30 1517 O 147.949 -1.14186 1.4998 0
M  V30 1518 C 145.076 -1.72893 2.91249 0
M  V30 1519 C 144.122 -1.29994 4.06207 0
M  V30 1520 S 144.955 -0.303575 5.34639 0
M  V30 1521 C 146.111 -1.51039 6.07403 0
M  V30 1522 H 146.344 0.0543423 2.9725 0
M  V30 1523 H 143.877 0.146889 1.537 0
M  V30 1524 H 145.835 -2.41751 3.31763 0
M  V30 1525 H 144.496 -2.28303 2.15724 0
M  V30 1526 H 143.689 -2.19549 4.53667 0
M  V30 1527 H 143.291 -0.690608 3.67569 0
M  V30 1528 H 145.583 -2.44186 6.31965 0
M  V30 1529 H 146.526 -1.07721 6.99858 0
M  V30 1530 H 146.934 -1.71518 5.37812 0
M  V30 1531 N 146.332 -1.57332 0.0918853 0
M  V30 1532 C 147.279 -2.13847 -0.868211 0
M  V30 1533 C 148.249 -1.05618 -1.28196 0
M  V30 1534 O 149.434 -1.33387 -1.36427 0
M  V30 1535 C 146.574 -2.72062 -2.12312 0
M  V30 1536 C 145.687 -3.94514 -1.7602 0
M  V30 1537 C 144.822 -4.40903 -2.96273 0
M  V30 1538 C 143.861 -5.55953 -2.56092 0
M  V30 1539 N 142.998 -5.97209 -3.69169 0
M  V30 1540 H 147.838 -2.95575 -0.379406 0
M  V30 1541 H 145.375 -1.46048 -0.175606 0
M  V30 1542 H 147.333 -3.03931 -2.858 0
M  V30 1543 H 145.963 -1.93068 -2.58698 0
M  V30 1544 H 145.015 -3.68979 -0.925135 0
M  V30 1545 H 146.327 -4.7802 -1.42472 0
M  V30 1546 H 145.481 -4.74539 -3.78018 0
M  V30 1547 H 144.22 -3.56291 -3.33029 0
M  V30 1548 H 143.225 -5.21948 -1.72773 0
M  V30 1549 H 144.45 -6.42311 -2.20484 0
M  V30 1550 H 142.396 -5.15543 -4.05649 0
M  V30 1551 H 142.313 -6.75504 -3.39456 0
M  V30 1552 H 143.581 -6.35475 -4.51434 0
M  V30 1553 N 147.81 0.181792 -1.56548 0
M  V30 1554 C 149.058 0.89832 -1.81038 0
M  V30 1555 C 149.379 1.83232 -0.667164 0
M  V30 1556 O 148.649 1.93372 0.313673 0
M  V30 1557 H 147.229 0.33471 -0.667816 0
M  V30 1558 H 149.891 0.184116 -1.94028 0
M  V30 1559 H 148.987 1.4815 -2.74696 0
M  V30 1560 N 149.288 1.51039 0.449983 0
M  V30 1561 C 150.251 1.70863 1.5277 0
M  V30 1562 C 151.251 0.578846 1.5002 0
M  V30 1563 O 152.441 0.846213 1.52266 0
M  V30 1564 C 149.573 1.75341 2.9235 0
M  V30 1565 H 150.766 2.67034 1.36502 0
M  V30 1566 H 148.319 1.40838 0.677812 0
M  V30 1567 H 149.054 0.809383 3.14037 0
M  V30 1568 H 148.839 2.57436 2.95752 0
M  V30 1569 H 150.329 1.92559 3.70555 0
M  V30 1570 N 150.766 -0.704594 1.40972 0
M  V30 1571 C 152.014 -1.46169 1.39568 0
M  V30 1572 C 152.335 -1.95 0.00253745 0
M  V30 1573 O 151.605 -1.71095 -0.954114 0
M  V30 1574 H 150.185 -0.542326 0.513704 0
M  V30 1575 H 152.847 -0.834553 1.76128 0
M  V30 1576 H 151.943 -2.32922 2.07735 0
M  V30 1577 N 152.244 -1.26651 -0.937939 0
M  V30 1578 C 153.472 -1.15173 -1.7188 0
M  V30 1579 C 153.887 0.292668 -1.86518 0
M  V30 1580 O 153.244 1.20014 -1.37488 0
M  V30 1581 C 153.295 -1.81925 -3.12387 0
M  V30 1582 O 153.016 -3.2072 -2.98446 0
M  V30 1583 C 154.517 -1.76442 -4.06673 0
M  V30 1584 H 151.737 -0.400911 -0.538063 0
M  V30 1585 H 154.281 -1.67332 -1.1756 0
M  V30 1586 H 152.436 -1.33696 -3.63599 0
M  V30 1587 H 152.85 -3.53802 -3.872 0
M  V30 1588 H 154.324 -2.27781 -5.02812 0
M  V30 1589 H 154.801 -0.731608 -4.33064 0
M  V30 1590 H 155.407 -2.24238 -3.61382 0
M  V30 1591 N 153.722 1.14298 -1.08507 0
M  V30 1592 C 154.999 1.81544 -0.728088 0
M  V30 1593 C 155.379 1.95838 0.78808 0
M  V30 1594 O 154.727 1.51904 1.70697 0
M  V30 1595 C 154.937 3.17169 -1.45619 0
M  V30 1596 C 156.285 3.9265 -1.61591 0
M  V30 1597 O 157.309 3.26762 -1.41793 0
M  V30 1598 O 156.168 5.10807 -1.94263 0
M  V30 1599 H 153.262 0.78491 -0.260471 0
M  V30 1600 H 155.808 1.21307 -1.18671 0
M  V30 1601 H 154.58 3.01934 -2.489 0
M  V30 1602 H 154.203 3.851 -0.989124 0
M  V30 1603 N 155.201 0.870884 1.31352 0
M  V30 1604 C 156.111 0.330783 2.32256 0
M  V30 1605 C 157.127 -0.559767 1.6475 0
M  V30 1606 O 158.303 -0.456263 1.96164 0
M  V30 1607 C 155.368 -0.458137 3.4366 0
M  V30 1608 C 154.429 0.460482 4.26823 0
M  V30 1609 C 153.662 -0.290881 5.32907 0
M  V30 1610 O 153.885 -1.51885 5.49806 0
M  V30 1611 O 152.819 0.351732 6.00871 0
M  V30 1612 H 156.645 1.16718 2.80376 0
M  V30 1613 H 154.23 0.634285 1.35267 0
M  V30 1614 H 156.112 -0.905343 4.1156 0
M  V30 1615 H 154.787 -1.27106 2.97701 0
M  V30 1616 H 153.694 0.956207 3.61673 0
M  V30 1617 H 155.027 1.23903 4.7635 0
M  V30 1618 N 156.679 -1.44442 0.630414 0
M  V30 1619 C 157.927 -2.01653 0.134351 0
M  V30 1620 C 158.248 -1.49836 -1.24796 0
M  V30 1621 O 157.518 -0.701684 -1.82902 0
M  V30 1622 H 156.098 -0.74554 0.0466769 0
M  V30 1623 H 158.76 -1.76952 0.816955 0
M  V30 1624 H 157.856 -3.11935 0.101498 0
M  V30 1625 N 158.157 -0.370918 -1.53173 0
M  V30 1626 C 159.397 0.217106 -2.03244 0
M  V30 1627 C 159.761 1.45558 -1.25207 0
M  V30 1628 O 160.962 2.11957 -1.65311 0
M  V30 1629 C 159.233 0.496664 -3.53932 0
M  V30 1630 S 160.792 1.0576 -4.25864 0
M  V30 1631 H 157.61 0.0627827 -0.708223 0
M  V30 1632 H 160.212 -0.515019 -1.88594 0
M  V30 1633 H 158.916 -0.412096 -4.08326 0
M  V30 1634 H 158.447 1.25772 -3.72753 0
M  V30 1635 H 160.462 2.34145 -4.37482 0
M  V30 1636 N 159.635 1.57281 -0.100228 0
M  V30 1637 C 160.565 2.17328 0.853857 0
M  V30 1638 C 161.546 1.10804 1.2906 0
M  V30 1639 O 162.731 1.38963 1.35657 0
M  V30 1640 C 159.861 2.75772 2.11109 0
M  V30 1641 C 158.815 3.87713 1.81279 0
M  V30 1642 C 158.141 4.32882 3.13874 0
M  V30 1643 C 159.441 5.10677 1.09574 0
M  V30 1644 H 161.135 2.97305 0.353545 0
M  V30 1645 H 158.681 1.43009 0.168612 0
M  V30 1646 H 160.634 3.16433 2.78296 0
M  V30 1647 H 159.358 1.93057 2.63432 0
M  V30 1648 H 158.017 3.476 1.16489 0
M  V30 1649 H 157.665 3.47051 3.64095 0
M  V30 1650 H 157.365 5.08358 2.94696 0
M  V30 1651 H 158.889 4.7618 3.82211 0
M  V30 1652 H 160.303 5.48474 1.66879 0
M  V30 1653 H 158.7 5.91615 1.00557 0
M  V30 1654 H 159.77 4.84835 0.0793299 0
M  V30 1655 N 161.113 -0.173488 1.56642 0
M  V30 1656 C 162.362 -0.888758 1.81063 0
M  V30 1657 C 162.675 -1.83506 0.67712 0
M  V30 1658 O 163.881 -2.59254 0.806206 0
M  V30 1659 C 162.337 -1.63091 3.20826 0
M  V30 1660 C 161.945 -0.728357 4.4204 0
M  V30 1661 C 163.689 -2.33454 3.54541 0
M  V30 1662 C 161.596 -1.47062 5.72823 0
M  V30 1663 H 160.526 -0.335618 0.675186 0
M  V30 1664 H 163.177 -0.141712 1.82952 0
M  V30 1665 H 161.559 -2.42263 3.13248 0
M  V30 1666 H 162.733 0.0262449 4.60793 0
M  V30 1667 H 161.048 -0.134492 4.16183 0
M  V30 1668 H 163.645 -2.89578 4.49498 0
M  V30 1669 H 163.988 -3.08687 2.79317 0
M  V30 1670 H 164.521 -1.61227 3.63663 0
M  V30 1671 H 161.26 -0.760658 6.51072 0
M  V30 1672 H 160.78 -2.1986 5.58052 0
M  V30 1673 H 162.459 -2.01868 6.14702 0
M  V30 1674 N 162.591 -1.51276 -0.441967 0
M  V30 1675 C 163.501 -1.75092 -1.56141 0
M  V30 1676 C 164.517 -0.634963 -1.62001 0
M  V30 1677 O 165.693 -0.916686 -1.79329 0
M  V30 1678 C 162.758 -1.86666 -2.92158 0
M  V30 1679 C 161.819 -3.10506 -2.96453 0
M  V30 1680 C 161.052 -3.21519 -4.25982 0
M  V30 1681 O 161.275 -2.38586 -5.18105 0
M  V30 1682 O 160.209 -4.14465 -4.36466 0
M  V30 1683 H 164.035 -2.70044 -1.38961 0
M  V30 1684 H 161.62 -1.35722 -0.624499 0
M  V30 1685 H 163.502 -1.96292 -3.72891 0
M  V30 1686 H 162.177 -0.949014 -3.09476 0
M  V30 1687 H 161.084 -3.06363 -2.14692 0
M  V30 1688 H 162.417 -4.01945 -2.84079 0
M  V30 1689 N 164.069 0.697108 -1.41344 0
M  V30 1690 C 165.318 1.45279 -1.39918 0
M  V30 1691 C 165.631 1.95597 -0.0109624 0
M  V30 1692 O 166.837 2.71208 0.125919 0
M  V30 1693 C 165.293 2.62695 -2.46007 0
M  V30 1694 C 164.901 2.19169 -3.90729 0
M  V30 1695 C 166.645 3.40336 -2.53715 0
M  V30 1696 C 164.552 3.33535 -4.88373 0
M  V30 1697 H 163.482 0.545692 -0.520323 0
M  V30 1698 H 166.133 0.756929 -1.67161 0
M  V30 1699 H 164.515 3.34541 -2.11892 0
M  V30 1700 H 165.689 1.54623 -4.34083 0
M  V30 1701 H 164.004 1.54525 -3.86666 0
M  V30 1702 H 166.601 4.2547 -3.2385 0
M  V30 1703 H 166.944 3.85418 -1.5735 0
M  V30 1704 H 167.477 2.75546 -2.86913 0
M  V30 1705 H 164.216 2.93468 -5.86137 0
M  V30 1706 H 163.736 3.96936 -4.49668 0
M  V30 1707 H 165.415 3.99335 -5.09059 0
M  V30 1708 N 165.547 1.27147 0.931209 0
M  V30 1709 C 166.477 1.12081 2.04842 0
M  V30 1710 C 167.458 0.0232364 1.70084 0
M  V30 1711 O 168.643 0.197085 1.93197 0
M  V30 1712 C 165.773 0.76354 3.38803 0
M  V30 1713 C 164.727 1.81396 3.87659 0
M  V30 1714 C 164.053 1.31075 5.18385 0
M  V30 1715 C 165.353 3.21739 4.11438 0
M  V30 1716 H 167.047 2.05537 2.17703 0
M  V30 1717 H 164.593 0.989603 1.04608 0
M  V30 1718 H 166.546 0.644982 4.16435 0
M  V30 1719 H 165.27 -0.206727 3.25945 0
M  V30 1720 H 163.929 1.92136 3.12217 0
M  V30 1721 H 163.577 0.330037 5.01916 0
M  V30 1722 H 163.277 2.013 5.52044 0
M  V30 1723 H 164.801 1.20506 5.98591 0
M  V30 1724 H 166.215 3.14019 4.79651 0
M  V30 1725 H 164.612 3.89644 4.56397 0
M  V30 1726 H 165.682 3.67054 3.16859 0
M  V30 1727 N 167.025 -1.13721 1.09112 0
M  V30 1728 C 167.988 -2.17222 0.731241 0
M  V30 1729 C 168.988 -1.59035 -0.237566 0
M  V30 1730 O 170.178 -1.74192 -0.0161704 0
M  V30 1731 C 167.31 -3.40804 0.0808443 0
M  V30 1732 H 168.503 -2.50573 1.64783 0
M  V30 1733 H 166.056 -1.28493 0.889897 0
M  V30 1734 H 166.791 -3.1304 -0.847127 0
M  V30 1735 H 166.576 -3.84306 0.777896 0
M  V30 1736 H 168.066 -4.1731 -0.155657 0
M  V30 1737 N 168.503 -0.877838 -1.30888 0
M  V30 1738 C 169.728 -0.506629 -2.01117 0
M  V30 1739 C 170.153 0.895564 -1.65412 0
M  V30 1740 O 169.511 1.5923 -0.866922 0
M  V30 1741 C 169.559 -0.680223 -3.54126 0
M  V30 1742 O 168.663 0.277033 -4.11468 0
M  V30 1743 H 168.004 -0.200518 -0.633 0
M  V30 1744 H 170.534 -1.18342 -1.66902 0
M  V30 1745 H 170.544 -0.5765 -4.03907 0
M  V30 1746 H 169.219 -1.70261 -3.79452 0
M  V30 1747 H 167.796 0.127606 -3.72682 0
M  V30 1748 N 169.982 1.44106 -0.638065 0
M  V30 1749 C 171.398 1.56672 -0.304286 0
M  V30 1750 C 171.598 1.6244 1.19228 0
M  V30 1751 O 170.654 1.57121 1.9766 0
M  V30 1752 C 171.967 2.83503 -1.00231 0
M  V30 1753 C 173.515 2.97226 -0.981116 0
M  V30 1754 C 173.99 4.26868 -1.65974 0
M  V30 1755 N 175.481 4.33698 -1.62666 0
M  V30 1756 C 176.216 5.32745 -2.12063 0
M  V30 1757 N 175.712 6.38157 -2.6968 0
M  V30 1758 N 177.505 5.24299 -2.02651 0
M  V30 1759 H 169.656 1.38605 -1.60942 0
M  V30 1760 H 171.919 0.664661 -0.675965 0
M  V30 1761 H 171.625 2.85251 -2.0573 0
M  V30 1762 H 171.499 3.73251 -0.54439 0
M  V30 1763 H 173.886 2.95027 0.0654188 0
M  V30 1764 H 173.967 2.08808 -1.47759 0
M  V30 1765 H 173.611 4.29826 -2.70576 0
M  V30 1766 H 173.541 5.14156 -1.13804 0
M  V30 1767 H 176.032 3.58138 -1.20606 0
M  V30 1768 H 176.345 7.10029 -3.05087 0
M  V30 1769 H 174.69 6.38823 -2.73734 0
M  V30 1770 H 177.881 4.4086 -1.57353 0
M  V30 1771 H 178.054 6.01334 -2.41457 0
M  V30 1772 N 171.46 0.379036 1.52974 0
M  V30 1773 C 172.688 -0.20679 2.05864 0
M  V30 1774 C 173.103 -1.41356 1.25155 0
M  V30 1775 O 172.46 -1.8009 0.295588 0
M  V30 1776 C 172.511 -0.587045 3.56702 0
M  V30 1777 O 172.232 0.571776 4.34353 0
M  V30 1778 C 173.733 -1.22983 4.25899 0
M  V30 1779 H 170.953 -0.0336123 0.670158 0
M  V30 1780 H 173.497 0.541298 1.97206 0
M  V30 1781 H 171.652 -1.28504 3.65466 0
M  V30 1782 H 172.066 0.261544 5.23847 0
M  V30 1783 H 173.54 -1.44635 5.32715 0
M  V30 1784 H 174.017 -2.19416 3.80465 0
M  V30 1785 H 174.623 -0.572892 4.21424 0
M  V30 1786 N 172.938 -1.57226 0.108567 0
M  V30 1787 C 174.349 -1.8195 -0.418464 0
M  V30 1788 C 174.7 -1.02508 -1.67292 0
M  V30 1789 O 173.825 -0.258496 -2.14851 0
M  V30 1790 C 174.42 -3.30028 -0.765979 0
M  V30 1791 C 172.979 -3.55469 -1.23769 0
M  V30 1792 C 172.126 -2.7625 -0.241106 0
M  V30 1793 H 175.077 -1.55149 0.33384 0
M  V30 1794 H 175.098 -3.44086 -1.62434 0
M  V30 1795 H 174.61 -3.87821 0.147219 0
M  V30 1796 H 172.711 -3.03022 -2.16814 0
M  V30 1797 H 172.824 -4.6408 -1.19022 0
M  V30 1798 H 171.188 -2.44133 -0.72602 0
M  V30 1799 H 171.971 -3.36797 0.665007 0
M  V30 1800 N 174.416 0.165178 -1.56732 0
M  V30 1801 C 175.326 1.22423 -2.00125 0
M  V30 1802 C 176.342 1.48084 -0.913619 0
M  V30 1803 O 177.518 1.60112 -1.22172 0
M  V30 1804 C 174.583 2.54197 -2.35764 0
M  V30 1805 C 173.644 2.36343 -3.58386 0
M  V30 1806 C 172.877 3.61834 -3.92316 0
M  V30 1807 O 173.1 4.67267 -3.27135 0
M  V30 1808 O 172.034 3.55579 -4.85641 0
M  V30 1809 H 175.86 0.885886 -2.90492 0
M  V30 1810 H 173.445 0.372518 -1.44681 0
M  V30 1811 H 175.327 3.3192 -2.59629 0
M  V30 1812 H 174.002 2.87598 -1.48557 0
M  V30 1813 H 172.909 1.56632 -3.39731 0
M  V30 1814 H 174.242 2.07865 -4.46154 0
M  V30 1815 N 175.894 1.51508 0.433938 0
M  V30 1816 C 176.804 1.75917 1.5521 0
M  V30 1817 C 177.82 0.643545 1.61662 0
M  V30 1818 O 178.996 0.926183 1.7884 0
M  V30 1819 C 176.061 1.88213 2.91164 0
M  V30 1820 C 175.122 3.12074 2.94802 0
M  V30 1821 C 174.355 3.23774 4.24271 0
M  V30 1822 O 174.578 2.4133 5.16833 0
M  V30 1823 O 173.512 4.16774 4.34262 0
M  V30 1824 H 177.338 2.70777 1.37527 0
M  V30 1825 H 174.923 1.36051 0.617293 0
M  V30 1826 H 176.805 1.98267 3.71845 0
M  V30 1827 H 175.48 0.965413 3.08968 0
M  V30 1828 H 174.387 3.07497 2.13065 0
M  V30 1829 H 175.72 4.03446 2.81943 0
M  V30 1830 N 177.372 -0.689602 1.41712 0
M  V30 1831 C 178.621 -1.44534 1.40686 0
M  V30 1832 C 178.934 -1.95588 0.0213352 0
M  V30 1833 O 180.14 -2.71271 -0.111534 0
M  V30 1834 C 178.596 -2.61387 2.47396 0
M  V30 1835 C 178.204 -2.17094 3.91885 0
M  V30 1836 C 179.948 -3.38986 2.55517 0
M  V30 1837 C 177.855 -3.3094 4.90135 0
M  V30 1838 H 176.785 -0.542925 0.52321 0
M  V30 1839 H 179.436 -0.748054 1.6756 0
M  V30 1840 H 177.818 -3.33412 2.13664 0
M  V30 1841 H 178.992 -1.52318 4.34897 0
M  V30 1842 H 177.307 -1.52473 3.8748 0
M  V30 1843 H 179.904 -4.23747 3.26102 0
M  V30 1844 H 180.247 -3.84578 1.59391 0
M  V30 1845 H 180.78 -2.74021 2.8837 0
M  V30 1846 H 177.519 -2.90355 5.87685 0
M  V30 1847 H 177.039 -3.94546 4.51767 0
M  V30 1848 H 178.718 -3.9663 5.11169 0
M  V30 1849 N 178.85 -1.27639 -0.924453 0
M  V30 1850 C 180.266 -1.05113 -1.20097 0
M  V30 1851 C 180.466 0.213262 -2.00368 0
M  V30 1852 O 179.522 0.91787 -2.35226 0
M  V30 1853 C 180.835 -2.29244 -1.94596 0
M  V30 1854 C 182.383 -2.34315 -2.07522 0
M  V30 1855 C 182.858 -3.58183 -2.85427 0
M  V30 1856 N 184.349 -3.5876 -2.92994 0
M  V30 1857 C 185.084 -4.51277 -3.53746 0
M  V30 1858 N 184.58 -5.54102 -4.15863 0
M  V30 1859 N 186.373 -4.38894 -3.51181 0
M  V30 1860 H 178.524 -2.08821 -0.388264 0
M  V30 1861 H 180.787 -0.918568 -0.234385 0
M  V30 1862 H 180.493 -3.21301 -1.43034 0
M  V30 1863 H 180.367 -2.34816 -2.95197 0
M  V30 1864 H 182.754 -1.42762 -2.58269 0
M  V30 1865 H 182.835 -2.32744 -1.06131 0
M  V30 1866 H 182.479 -4.50074 -2.35363 0
M  V30 1867 H 182.409 -3.57006 -3.8711 0
M  V30 1868 H 184.9 -2.84398 -2.4885 0
M  V30 1869 H 185.213 -6.20859 -4.60168 0
M  V30 1870 H 183.558 -5.57941 -4.144 0
M  V30 1871 H 186.749 -3.57772 -3.01856 0
M  V30 1872 H 186.922 -5.11186 -3.98237 0
M  V30 1873 N 180.328 1.1314 -1.09713 0
M  V30 1874 C 181.744 1.36477 -0.827423 0
M  V30 1875 C 181.944 1.93654 0.556817 0
M  V30 1876 O 181 2.15791 1.31112 0
M  V30 1877 C 182.313 2.31334 -1.92106 0
M  V30 1878 C 183.861 2.44943 -1.94864 0
M  V30 1879 C 184.336 3.4311 -3.0338 0
M  V30 1880 N 185.827 3.50662 -3.02639 0
M  V30 1881 C 186.562 4.2651 -3.83246 0
M  V30 1882 N 186.058 5.05485 -4.73768 0
M  V30 1883 N 187.851 4.2184 -3.71493 0
M  V30 1884 H 180.002 0.743807 -1.9895 0
M  V30 1885 H 182.265 0.389823 -0.864143 0
M  V30 1886 H 181.971 1.96483 -2.91698 0
M  V30 1887 H 181.845 3.31381 -1.80184 0
M  V30 1888 H 184.232 2.79079 -0.959099 0
M  V30 1889 H 184.313 1.4481 -2.10864 0
M  V30 1890 H 183.957 3.09704 -4.02549 0
M  V30 1891 H 183.887 4.43055 -2.84622 0
M  V30 1892 H 186.378 2.94315 -2.37039 0
M  V30 1893 H 186.691 5.60675 -5.3185 0
M  V30 1894 H 185.036 5.04708 -4.77802 0
M  V30 1895 H 188.227 3.5922 -3.00131 0
M  V30 1896 H 188.4 4.80697 -4.3455 0
M  V30 1897 N 181.806 0.884767 1.30421 0
M  V30 1898 C 183.055 0.499164 1.95426 0
M  V30 1899 C 183.368 -0.95645 1.70621 0
M  V30 1900 O 184.574 -1.44889 2.29607 0
M  V30 1901 C 183.03 0.84177 3.49917 0
M  V30 1902 C 182.638 2.31514 3.83543 0
M  V30 1903 C 184.382 0.525355 4.21237 0
M  V30 1904 C 182.289 2.59939 5.31212 0
M  V30 1905 H 181.219 0.182944 0.73147 0
M  V30 1906 H 183.87 1.07971 1.48373 0
M  V30 1907 H 182.252 0.190311 3.95542 0
M  V30 1908 H 183.426 3.0109 3.48829 0
M  V30 1909 H 181.741 2.59907 3.25326 0
M  V30 1910 H 184.338 0.714762 5.29901 0
M  V30 1911 H 184.681 -0.535222 4.12845 0
M  V30 1912 H 185.214 1.134 3.81294 0
M  V30 1913 H 181.953 3.64736 5.44654 0
M  V30 1914 H 181.473 1.94972 5.67227 0
M  V30 1915 H 183.152 2.45429 5.98643 0
M  V30 1916 N 183.284 -1.43765 0.645699 0
M  V30 1917 C 184.509 -2.06767 0.161883 0
M  V30 1918 C 184.934 -1.48034 -1.16049 0
M  V30 1919 O 184.292 -0.587369 -1.71522 0
M  V30 1920 C 184.34 -3.60519 0.0762003 0
M  V30 1921 O 183.444 -4.00982 -0.963721 0
M  V30 1922 H 182.785 -0.657675 0.091429 0
M  V30 1923 H 185.315 -1.84397 0.886499 0
M  V30 1924 H 185.325 -4.07853 -0.109604 0
M  V30 1925 H 184 -4.02646 1.04157 0
M  V30 1926 H 182.577 -3.65253 -0.751312 0
M  V30 1927 N 184.763 -0.387143 -1.52771 0
M  V30 1928 C 185.695 0.484089 -2.2403 0
M  V30 1929 C 186.708 1.02849 -1.26198 0
M  V30 1930 O 187.897 0.931186 -1.52286 0
M  V30 1931 C 184.997 1.68337 -2.94136 0
M  V30 1932 C 184.17 1.26672 -4.18656 0
M  V30 1933 C 183.229 2.33045 -4.7178 0
M  V30 1934 O 182.255 1.94541 -5.34923 0
M  V30 1935 N 183.457 3.64929 -4.5145 0
M  V30 1936 H 186.222 -0.126404 -2.99433 0
M  V30 1937 H 183.783 -0.213392 -1.60488 0
M  V30 1938 H 185.775 2.39019 -3.26577 0
M  V30 1939 H 184.345 2.20025 -2.22053 0
M  V30 1940 H 183.565 0.388878 -3.92277 0
M  V30 1941 H 184.853 0.964964 -4.99566 0
M  V30 1942 H 184.251 3.98974 -4.01044 0
M  V30 1943 H 182.808 4.31651 -4.88386 0
M  V30 1944 N 186.241 1.57166 -0.116904 0
M  V30 1945 C 187.469 1.99473 0.549383 0
M  V30 1946 C 187.884 0.996541 1.60357 0
M  V30 1947 O 187.241 -0.0108731 1.82497 0
M  V30 1948 C 187.292 3.41788 1.17741 0
M  V30 1949 O 187.013 4.37788 0.165362 0
M  V30 1950 C 188.514 3.99216 1.92722 0
M  V30 1951 H 185.734 0.655009 0.145616 0
M  V30 1952 H 188.278 2.03494 -0.202625 0
M  V30 1953 H 186.433 3.38713 1.88021 0
M  V30 1954 H 186.847 5.20806 0.621403 0
M  V30 1955 H 188.321 5.00882 2.31995 0
M  V30 1956 H 188.798 3.3824 2.80161 0
M  V30 1957 H 189.404 4.0583 1.27209 0
M  V30 1958 N 187.719 -0.156864 1.56817 0
M  V30 1959 C 188.949 -0.885031 1.86684 0
M  V30 1960 C 189.357 -1.75696 0.701954 0
M  V30 1961 O 188.7 -1.80569 -0.337732 0
M  V30 1962 C 188.762 -1.80092 3.11138 0
M  V30 1963 C 188.426 -1.10714 4.43386 0
M  V30 1964 C 189.423 -0.465714 5.1781 0
M  V30 1965 C 187.108 -1.09959 4.90117 0
M  V30 1966 C 189.102 0.174002 6.37162 0
M  V30 1967 C 186.789 -0.456055 6.09396 0
M  V30 1968 C 187.787 0.179622 6.82764 0
M  V30 1969 O 187.475 0.812975 7.99779 0
M  V30 1970 H 187.207 -0.261813 0.623242 0
M  V30 1971 H 189.761 -0.157383 2.04796 0
M  V30 1972 H 187.991 -2.56926 2.89009 0
M  V30 1973 H 189.68 -2.40018 3.27332 0
M  V30 1974 H 190.446 -0.463427 4.82781 0
M  V30 1975 H 186.325 -1.58378 4.3294 0
M  V30 1976 H 189.869 0.670765 6.94368 0
M  V30 1977 H 185.766 -0.455975 6.43888 0
M  V30 1978 H 186.534 0.71366 8.15383 0
M  V30 1979 N 189.197 -1.51736 -0.425897 0
M  V30 1980 C 190.129 -1.70083 -1.53638 0
M  V30 1981 C 191.142 -0.581349 -1.52066 0
M  V30 1982 O 192.331 -0.856017 -1.56635 0
M  V30 1983 C 189.431 -1.71078 -2.9255 0
M  V30 1984 C 188.604 -2.99795 -3.185 0
M  V30 1985 C 187.663 -2.92825 -4.37196 0
M  V30 1986 O 186.689 -3.66756 -4.35291 0
M  V30 1987 N 187.891 -2.0946 -5.41393 0
M  V30 1988 H 190.656 -2.65882 -1.383 0
M  V30 1989 H 188.217 -1.49765 -0.614988 0
M  V30 1990 H 190.209 -1.63969 -3.69995 0
M  V30 1991 H 188.779 -0.828242 -3.01428 0
M  V30 1992 H 187.999 -3.20684 -2.2925 0
M  V30 1993 H 189.287 -3.84977 -3.32671 0
M  V30 1994 H 188.685 -1.48792 -5.45781 0
M  V30 1995 H 187.242 -2.08221 -6.17647 0
M  V30 1996 N 190.675 0.682077 -1.42076 0
M  V30 1997 C 191.607 1.80755 -1.40926 0
M  V30 1998 C 192.62 1.59833 -0.309398 0
M  V30 1999 O 193.809 1.69087 -0.572014 0
M  V30 2000 C 190.909 3.17744 -1.17865 0
M  V30 2001 C 190.082 3.65578 -2.40149 0
M  V30 2002 C 189.141 4.81277 -2.12742 0
M  V30 2003 O 188.167 4.92197 -2.85887 0
M  V30 2004 N 189.369 5.69474 -1.12602 0
M  V30 2005 H 192.134 1.82229 -2.37935 0
M  V30 2006 H 189.695 0.864903 -1.36861 0
M  V30 2007 H 191.687 3.9279 -0.9746 0
M  V30 2008 H 190.257 3.11214 -0.294068 0
M  V30 2009 H 189.477 2.81291 -2.76169 0
M  V30 2010 H 190.765 3.94278 -3.21593 0
M  V30 2011 H 190.163 5.63297 -0.520899 0
M  V30 2012 H 188.72 6.44363 -0.981842 0
M  V30 2013 N 192.153 1.28127 0.917671 0
M  V30 2014 C 193.085 1.07517 2.02417 0
M  V30 2015 C 194.098 0.0281099 1.62776 0
M  V30 2016 O 195.287 0.270748 1.76435 0
M  V30 2017 C 192.387 0.610957 3.33347 0
M  V30 2018 C 191.56 1.73255 4.01624 0
M  V30 2019 C 190.619 1.26238 5.10833 0
M  V30 2020 O 189.645 1.96389 5.34247 0
M  V30 2021 N 190.847 0.123448 5.80369 0
M  V30 2022 H 193.612 2.02806 2.20658 0
M  V30 2023 H 191.173 1.19827 1.08871 0
M  V30 2024 H 193.165 0.280101 4.0373 0
M  V30 2025 H 191.735 -0.24898 3.11607 0
M  V30 2026 H 190.955 2.23319 3.24842 0
M  V30 2027 H 192.243 2.48503 4.43986 0
M  V30 2028 H 191.641 -0.461847 5.63812 0
M  V30 2029 H 190.198 -0.148158 6.51632 0
M  V30 2030 N 193.631 -1.12557 1.10312 0
M  V30 2031 C 194.861 -1.87592 0.865617 0
M  V30 2032 C 195.269 -1.79851 -0.587389 0
M  V30 2033 O 194.612 -1.16949 -1.41664 0
M  V30 2034 C 194.674 -3.37665 1.23381 0
M  V30 2035 C 194.338 -3.69181 2.69359 0
M  V30 2036 C 195.335 -3.67652 3.67597 0
M  V30 2037 C 193.02 -3.98555 3.05711 0
M  V30 2038 C 195.014 -3.95053 5.00212 0
M  V30 2039 C 192.701 -4.25616 4.38514 0
M  V30 2040 C 193.699 -4.23851 5.35574 0
M  V30 2041 O 193.387 -4.50242 6.65986 0
M  V30 2042 H 193.119 -0.600442 0.310557 0
M  V30 2043 H 195.673 -1.4335 1.47105 0
M  V30 2044 H 193.903 -3.82454 0.571467 0
M  V30 2045 H 195.592 -3.94041 0.973994 0
M  V30 2046 H 196.358 -3.45024 3.40857 0
M  V30 2047 H 192.237 -3.99071 2.30789 0
M  V30 2048 H 195.781 -3.93591 5.75962 0
M  V30 2049 H 191.678 -4.47718 4.64994 0
M  V30 2050 H 192.446 -4.67867 6.71597 0
M  V30 2051 N 195.109 -0.891671 -1.2995 0
M  V30 2052 C 196.357 -0.512486 -1.95494 0
M  V30 2053 C 196.678 0.942776 -1.70695 0
M  V30 2054 O 195.948 1.66374 -1.03424 0
M  V30 2055 H 194.528 -0.186533 -0.723336 0
M  V30 2056 H 197.19 -1.13621 -1.58355 0
M  V30 2057 H 196.286 -0.688342 -3.04415 0
M  V30 2058 N 196.587 1.43421 -0.653314 0
M  V30 2059 C 198.003 1.56341 -0.320886 0
M  V30 2060 C 198.203 1.63696 1.17499 0
M  V30 2061 O 197.259 1.59208 1.95982 0
M  V30 2062 C 198.572 2.82424 -1.03233 0
M  V30 2063 C 200.12 2.96168 -1.01259 0
M  V30 2064 C 200.595 4.25084 -1.70492 0
M  V30 2065 N 202.086 4.31948 -1.67257 0
M  V30 2066 C 202.821 5.30466 -2.17701 0
M  V30 2067 N 202.317 6.35261 -2.76434 0
M  V30 2068 N 204.11 5.2212 -2.082 0
M  V30 2069 H 196.261 1.3689 -1.62403 0
M  V30 2070 H 198.524 0.657455 -0.682977 0
M  V30 2071 H 198.23 2.83053 -2.08744 0
M  V30 2072 H 198.104 3.72653 -0.583948 0
M  V30 2073 H 200.491 2.9508 0.0341235 0
M  V30 2074 H 200.572 2.07229 -1.49966 0
M  V30 2075 H 200.216 4.26932 -2.7512 0
M  V30 2076 H 200.146 5.1292 -1.19251 0
M  V30 2077 H 202.637 3.56838 -1.24398 0
M  V30 2078 H 202.95 7.06754 -3.12601 0
M  V30 2079 H 201.295 6.35884 -2.80495 0
M  V30 2080 H 204.486 4.39166 -1.62021 0
M  V30 2081 H 204.659 5.98739 -2.47822 0
M  V30 2082 N 198.065 0.39524 1.52563 0
M  V30 2083 C 199.29 -0.187456 2.06551 0
M  V30 2084 C 199.715 -1.39249 1.26457 0
M  V30 2085 O 199.073 -1.78947 0.291151 0
M  V30 2086 C 199.121 -0.529985 3.56684 0
M  V30 2087 O 198.225 -1.62307 3.79118 0
M  V30 2088 H 197.566 -0.0202537 0.663691 0
M  V30 2089 H 200.096 0.564426 1.96661 0
M  V30 2090 H 200.106 -0.792598 4.00227 0
M  V30 2091 H 198.781 0.350987 4.14416 0
M  V30 2092 H 197.358 -1.3537 3.47461 0
M  V30 2093 N 199.544 -1.57102 0.125237 0
M  V30 2094 C 200.474 -2.18659 -0.819174 0
M  V30 2095 C 201.455 -1.12843 -1.27281 0
M  V30 2096 O 202.64 -1.41104 -1.33429 0
M  V30 2097 C 199.77 -2.79096 -2.06695 0
M  V30 2098 C 198.724 -3.90548 -1.75088 0
M  V30 2099 C 198.05 -4.37821 -3.06948 0
M  V30 2100 C 199.35 -5.12356 -1.01435 0
M  V30 2101 H 201.044 -2.9783 -0.306202 0
M  V30 2102 H 198.59 -1.4326 -0.145839 0
M  V30 2103 H 200.543 -3.2082 -2.73226 0
M  V30 2104 H 199.267 -1.97223 -2.60328 0
M  V30 2105 H 197.926 -3.49409 -1.10944 0
M  V30 2106 H 197.574 -3.52799 -3.58527 0
M  V30 2107 H 197.274 -5.12982 -2.86571 0
M  V30 2108 H 198.798 -4.822 -3.74587 0
M  V30 2109 H 200.212 -5.5106 -1.58132 0
M  V30 2110 H 198.609 -5.9314 -0.911319 0
M  V30 2111 H 199.679 -4.849 -0.00218681 0
M  V30 2112 N 201.022 0.148545 -1.56898 0
M  V30 2113 C 201.932 1.20293 -2.01412 0
M  V30 2114 C 202.948 1.47107 -0.929273 0
M  V30 2115 O 204.124 1.58807 -1.23863 0
M  V30 2116 C 201.189 2.51682 -2.38447 0
M  V30 2117 C 200.25 2.32529 -3.60872 0
M  V30 2118 C 199.483 3.57653 -3.96132 0
M  V30 2119 O 199.706 4.63771 -3.32073 0
M  V30 2120 O 198.64 3.50408 -4.89385 0
M  V30 2121 H 202.466 0.855025 -2.91416 0
M  V30 2122 H 200.051 0.357151 -1.45068 0
M  V30 2123 H 201.933 3.29147 -2.63135 0
M  V30 2124 H 200.608 2.86006 -1.51599 0
M  V30 2125 H 199.515 1.53019 -3.41373 0
M  V30 2126 H 200.848 2.03121 -4.48333 0
M  V30 2127 N 202.5 1.5196 0.417844 0
M  V30 2128 C 203.777 1.56146 1.17803 0
M  V30 2129 C 204.157 0.337275 2.08388 0
M  V30 2130 O 203.505 -0.676447 2.18258 0
M  V30 2131 C 203.715 2.88566 1.96293 0
M  V30 2132 C 205.063 3.41244 2.52662 0
M  V30 2133 O 206.087 2.90247 2.06483 0
M  V30 2134 O 204.946 4.30273 3.36938 0
M  V30 2135 H 202.04 0.628598 0.537395 0
M  V30 2136 H 204.586 1.64283 0.425331 0
M  V30 2137 H 203.358 3.69116 1.2988 0
M  V30 2138 H 202.981 2.83681 2.78587 0
M  V30 2139 N 203.978 -0.674533 1.42435 0
M  V30 2140 C 205.255 -1.4305 1.33402 0
M  V30 2141 C 205.635 -2.11081 -0.0284674 0
M  V30 2142 O 204.983 -2.03257 -1.04397 0
M  V30 2143 C 205.193 -2.43272 2.50239 0
M  V30 2144 C 206.541 -3.07907 2.92367 0
M  V30 2145 O 207.565 -2.53599 2.50132 0
M  V30 2146 O 206.424 -4.0632 3.65467 0
M  V30 2147 H 203.518 -0.638076 0.526106 0
M  V30 2148 H 206.064 -0.703235 1.54443 0
M  V30 2149 H 204.836 -1.91803 3.41068 0
M  V30 2150 H 204.459 -3.23479 2.31186 0
M  V30 2151 N 205.456 -1.28612 -0.910864 0
M  V30 2152 C 206.705 -1.15311 -1.65488 0
M  V30 2153 C 207.018 0.296999 -1.93332 0
M  V30 2154 O 208.224 0.551168 -2.65847 0
M  V30 2155 C 206.68 -2.01599 -2.98137 0
M  V30 2156 C 206.288 -3.51367 -2.7793 0
M  V30 2157 C 208.032 -1.96993 -3.76024 0
M  V30 2158 C 205.939 -4.29797 -4.06237 0
M  V30 2159 H 204.869 -0.42796 -0.620779 0
M  V30 2160 H 207.52 -1.53166 -1.01057 0
M  V30 2161 H 205.902 -1.56603 -3.63719 0
M  V30 2162 H 207.076 -4.0434 -2.21011 0
M  V30 2163 H 205.391 -3.57529 -2.13452 0
M  V30 2164 H 207.988 -2.52856 -4.71135 0
M  V30 2165 H 208.331 -0.94733 -4.05378 0
M  V30 2166 H 208.864 -2.39973 -3.17266 0
M  V30 2167 H 205.603 -5.32648 -3.82055 0
M  V30 2168 H 205.123 -3.81596 -4.62757 0
M  V30 2169 H 206.802 -4.39869 -4.74473 0
M  V30 2170 N 206.934 1.1197 -1.10907 0
M  V30 2171 C 208.35 1.35591 -0.841852 0
M  V30 2172 C 208.55 1.94233 0.536246 0
M  V30 2173 O 207.606 2.1717 1.28816 0
M  V30 2174 C 208.919 2.29284 -1.94549 0
M  V30 2175 C 210.467 2.42862 -1.97451 0
M  V30 2176 C 210.942 3.39873 -3.07002 0
M  V30 2177 N 212.433 3.47433 -3.06341 0
M  V30 2178 C 213.168 4.22421 -3.87748 0
M  V30 2179 N 212.664 5.00432 -4.79103 0
M  V30 2180 N 214.457 4.17876 -3.75946 0
M  V30 2181 H 206.608 0.722664 -1.99728 0
M  V30 2182 H 208.871 0.380635 -0.868229 0
M  V30 2183 H 208.577 1.93378 -2.93765 0
M  V30 2184 H 208.451 3.29452 -1.83688 0
M  V30 2185 H 210.838 2.78046 -0.988645 0
M  V30 2186 H 210.919 1.42566 -2.12388 0
M  V30 2187 H 210.563 3.05417 -4.05811 0
M  V30 2188 H 210.493 4.40011 -2.89306 0
M  V30 2189 H 212.984 2.91784 -2.40147 0
M  V30 2190 H 213.297 5.55002 -5.37766 0
M  V30 2191 H 211.642 4.99612 -4.83128 0
M  V30 2192 H 214.833 3.56016 -3.03924 0
M  V30 2193 H 215.006 4.76061 -4.39624 0
M  V30 2194 N 208.412 0.89855 1.29475 0
M  V30 2195 C 209.637 0.538561 2.00285 0
M  V30 2196 C 210.062 -0.869135 1.66816 0
M  V30 2197 O 209.42 -1.57831 0.892145 0
M  V30 2198 C 209.468 0.736475 3.52999 0
M  V30 2199 O 208.572 -0.211537 4.11857 0
M  V30 2200 H 207.913 0.210563 0.62973 0
M  V30 2201 H 210.443 1.20982 1.64998 0
M  V30 2202 H 210.453 0.640685 4.02938 0
M  V30 2203 H 209.128 1.76276 3.76696 0
M  V30 2204 H 207.705 -0.0682991 3.72837 0
M  V30 2205 N 209.89 -1.43072 0.660911 0
M  V30 2206 C 211.167 -1.95307 0.107017 0
M  V30 2207 C 211.547 -1.60192 -1.37484 0
M  V30 2208 O 210.895 -0.890949 -2.10415 0
M  V30 2209 C 211.105 -3.47124 0.361402 0
M  V30 2210 C 212.453 -4.23738 0.270455 0
M  V30 2211 O 213.477 -3.54981 0.294382 0
M  V30 2212 O 212.336 -5.46131 0.200737 0
M  V30 2213 H 209.43 -0.826984 -0.00517729 0
M  V30 2214 H 211.976 -1.52972 0.734681 0
M  V30 2215 H 210.748 -3.65837 1.38848 0
M  V30 2216 H 210.371 -3.96475 -0.298953 0
M  V30 2217 N 211.368 -0.403325 -1.52352 0
M  V30 2218 C 212.596 0.174012 -2.06167 0
M  V30 2219 C 213.011 1.39347 -1.27388 0
M  V30 2220 O 212.368 1.79597 -0.324201 0
M  V30 2221 C 212.419 0.530223 -3.5759 0
M  V30 2222 O 212.14 -0.640806 -4.33388 0
M  V30 2223 C 213.641 1.16192 -4.27802 0
M  V30 2224 H 210.861 0.0229464 -0.670608 0
M  V30 2225 H 213.405 -0.572604 -1.9632 0
M  V30 2226 H 211.56 1.22673 -3.67464 0
M  V30 2227 H 211.974 -0.344851 -5.23365 0
M  V30 2228 H 213.448 1.36141 -5.34948 0
M  V30 2229 H 213.925 2.13335 -3.83907 0
M  V30 2230 H 214.531 0.505775 -4.22282 0
M  V30 2231 N 212.846 1.57033 -0.133567 0
M  V30 2232 C 214.071 2.00475 0.531477 0
M  V30 2233 C 214.496 1.01291 1.58499 0
M  V30 2234 O 213.854 -0.0133279 1.81295 0
M  V30 2235 C 213.902 3.42729 1.12113 0
M  V30 2236 O 213.006 3.46498 2.23636 0
M  V30 2237 H 212.347 0.650876 0.131362 0
M  V30 2238 H 214.877 2.03344 -0.22634 0
M  V30 2239 H 214.887 3.81246 1.4531 0
M  V30 2240 H 213.562 4.14428 0.349557 0
M  V30 2241 H 212.139 3.19811 1.91769 0
M  V30 2242 N 214.325 -0.140222 1.56975 0
M  V30 2243 C 215.572 -0.851687 1.83719 0
M  V30 2244 C 215.9 -1.80862 0.715485 0
M  V30 2245 O 215.155 -1.93464 -0.294956 0
M  V30 2246 C 215.454 -1.65386 3.16832 0
M  V30 2247 C 215.12 -0.843112 4.42947 0
M  V30 2248 C 213.782 -0.619464 4.77196 0
M  V30 2249 C 216.134 -0.276582 5.20466 0
M  V30 2250 C 213.462 0.181312 5.8642 0
M  V30 2251 C 215.814 0.51127 6.30531 0
M  V30 2252 C 214.478 0.745432 6.63325 0
M  V30 2253 H 213.748 -0.311654 0.672274 0
M  V30 2254 H 216.395 -0.115006 1.91154 0
M  V30 2255 H 214.7 -2.46084 3.04877 0
M  V30 2256 H 216.397 -2.20793 3.34741 0
M  V30 2257 H 212.987 -1.0275 4.16101 0
M  V30 2258 H 217.171 -0.436632 4.94376 0
M  V30 2259 H 212.427 0.372165 6.10266 0
M  V30 2260 H 216.601 0.957354 6.89788 0
M  V30 2261 H 214.228 1.36778 7.47794 0
M  V30 2262 N 215.803 -1.52179 -0.40978 0
M  V30 2263 C 216.736 -1.70196 -1.52015 0
M  V30 2264 C 217.714 -0.549542 -1.53032 0
M  V30 2265 O 218.898 -0.776815 -1.71749 0
M  V30 2266 C 216.025 -1.74069 -2.90547 0
M  V30 2267 C 215.071 -2.95601 -3.07445 0
M  V30 2268 S 215.904 -4.55956 -2.80827 0
M  V30 2269 C 217.06 -4.62614 -4.21591 0
M  V30 2270 H 217.293 -2.64109 -1.36504 0
M  V30 2271 H 214.826 -1.4221 -0.601312 0
M  V30 2272 H 216.784 -1.76985 -3.70387 0
M  V30 2273 H 215.445 -0.812835 -3.034 0
M  V30 2274 H 214.638 -2.94791 -4.08796 0
M  V30 2275 H 214.24 -2.90569 -2.35469 0
M  V30 2276 H 216.532 -4.39951 -5.15218 0
M  V30 2277 H 217.475 -5.64548 -4.27424 0
M  V30 2278 H 217.883 -3.91654 -4.06531 0
M  V30 2279 N 217.281 0.66697 -1.42791 0
M  V30 2280 C 218.528 1.42699 -1.43678 0
M  V30 2281 C 218.856 1.94419 -0.0560425 0
M  V30 2282 O 218.111 1.7182 0.936831 0
M  V30 2283 C 218.41 2.6349 -2.4147 0
M  V30 2284 C 218.076 2.30267 -3.8767 0
M  V30 2285 C 216.738 2.20918 -4.27491 0
M  V30 2286 C 219.09 2.03435 -4.79858 0
M  V30 2287 C 216.418 1.82873 -5.57471 0
M  V30 2288 C 218.77 1.66892 -6.10188 0
M  V30 2289 C 217.434 1.56058 -6.49001 0
M  V30 2290 H 216.704 0.522171 -0.525755 0
M  V30 2291 H 219.351 0.759785 -1.75783 0
M  V30 2292 H 217.656 3.35279 -2.0272 0
M  V30 2293 H 219.353 3.21684 -2.39417 0
M  V30 2294 H 215.943 2.38449 -3.56146 0
M  V30 2295 H 220.127 2.09586 -4.49875 0
M  V30 2296 H 215.383 1.7306 -5.86396 0
M  V30 2297 H 219.557 1.45157 -6.81104 0
M  V30 2298 H 217.184 1.26348 -7.49627 0
M  V30 2299 N 218.759 1.29093 0.90403 0
M  V30 2300 C 219.691 1.09658 2.01266 0
M  V30 2301 C 220.704 0.0453729 1.62737 0
M  V30 2302 O 221.893 0.289446 1.76138 0
M  V30 2303 C 218.993 0.646278 3.32681 0
M  V30 2304 C 218.166 1.77505 3.99763 0
M  V30 2305 C 217.225 1.31649 5.09465 0
M  V30 2306 O 216.251 2.02045 5.32134 0
M  V30 2307 N 217.453 0.184997 5.80205 0
M  V30 2308 H 220.218 2.05135 2.18494 0
M  V30 2309 H 217.779 1.20975 1.07594 0
M  V30 2310 H 219.771 0.322906 4.0341 0
M  V30 2311 H 218.341 -0.215916 3.11853 0
M  V30 2312 H 217.561 2.26752 3.22455 0
M  V30 2313 H 218.849 2.53198 4.41325 0
M  V30 2314 H 218.247 -0.402021 5.6427 0
M  V30 2315 H 216.804 -0.0790358 6.51752 0
M  V30 2316 N 220.237 -1.11381 1.11499 0
M  V30 2317 C 221.653 -1.35143 0.849031 0
M  V30 2318 C 221.853 -1.94515 -0.525938 0
M  V30 2319 O 220.909 -2.1785 -1.27662 0
M  V30 2320 C 222.222 -2.28249 1.95762 0
M  V30 2321 C 223.77 -2.41812 1.98736 0
M  V30 2322 C 224.245 -3.3824 3.088 0
M  V30 2323 N 225.736 -3.45803 3.08179 0
M  V30 2324 C 226.471 -4.20358 3.89982 0
M  V30 2325 N 225.967 -4.97884 4.8175 0
M  V30 2326 N 227.76 -4.15877 3.78157 0
M  V30 2327 H 219.911 -0.712062 2.00109 0
M  V30 2328 H 222.174 -0.376025 0.870235 0
M  V30 2329 H 221.88 -1.91817 2.94787 0
M  V30 2330 H 221.754 -3.28473 1.85433 0
M  V30 2331 H 224.141 -2.77518 1.00338 0
M  V30 2332 H 224.222 -1.41437 2.13141 0
M  V30 2333 H 223.866 -3.03261 4.07425 0
M  V30 2334 H 223.796 -4.38471 2.91635 0
M  V30 2335 H 226.287 -2.90506 2.41691 0
M  V30 2336 H 226.6 -5.52142 5.40702 0
M  V30 2337 H 224.945 -4.97043 4.85771 0
M  V30 2338 H 228.136 -3.544 3.05808 0
M  V30 2339 H 228.309 -4.73723 4.42143 0
M  V30 2340 N 221.715 -0.905404 -1.28997 0
M  V30 2341 C 222.961 -0.535039 -1.95615 0
M  V30 2342 C 223.294 0.917404 -1.71165 0
M  V30 2343 O 222.569 1.65123 -1.02785 0
M  V30 2344 C 222.852 -0.834918 -3.50287 0
M  V30 2345 C 222.705 -2.33948 -3.84172 0
M  V30 2346 C 224.024 -0.325318 -4.38896 0
M  V30 2347 H 221.143 -0.195861 -0.710498 0
M  V30 2348 H 223.785 -1.13313 -1.52513 0
M  V30 2349 H 221.935 -0.325904 -3.87131 0
M  V30 2350 H 223.607 -2.91847 -3.57243 0
M  V30 2351 H 221.85 -2.79789 -3.31513 0
M  V30 2352 H 222.521 -2.49987 -4.92149 0
M  V30 2353 H 224.997 -0.761256 -4.09077 0
M  V30 2354 H 223.873 -0.564295 -5.45992 0
M  V30 2355 H 224.134 0.774144 -4.35269 0
M  V30 2356 N 223.193 1.4272 -0.668489 0
M  V30 2357 C 224.123 2.335 -0.000100175 0
M  V30 2358 C 225.104 1.50328 0.795964 0
M  V30 2359 O 226.289 1.78949 0.754385 0
M  V30 2360 C 223.419 3.33874 0.956302 0
M  V30 2361 C 222.373 4.27152 0.269278 0
M  V30 2362 C 221.699 5.17684 1.33818 0
M  V30 2363 C 222.999 5.15373 -0.847805 0
M  V30 2364 H 224.693 2.89639 -0.758244 0
M  V30 2365 H 222.239 1.39269 -0.366079 0
M  V30 2366 H 224.192 3.9629 1.43292 0
M  V30 2367 H 222.916 2.76025 1.74579 0
M  V30 2368 H 221.575 3.66123 -0.187042 0
M  V30 2369 H 221.223 4.56165 2.1195 0
M  V30 2370 H 220.923 5.80918 0.883659 0
M  V30 2371 H 222.447 5.82974 1.81586 0
M  V30 2372 H 223.861 5.7151 -0.452681 0
M  V30 2373 H 222.258 5.87407 -1.22773 0
M  V30 2374 H 223.328 4.5415 -1.69929 0
M  V30 2375 N 224.671 0.411399 1.52136 0
M  V30 2376 C 225.917 -0.163888 2.02137 0
M  V30 2377 C 226.25 -1.44597 1.29636 0
M  V30 2378 O 225.525 -1.90272 0.403353 0
M  V30 2379 C 225.808 -0.40927 3.57767 0
M  V30 2380 C 225.661 0.889643 4.40914 0
M  V30 2381 C 226.98 -1.19042 4.23694 0
M  V30 2382 H 224.099 -0.0580896 0.734707 0
M  V30 2383 H 226.741 0.54531 1.82007 0
M  V30 2384 H 224.891 -1.0134 3.7505 0
M  V30 2385 H 226.563 1.52575 4.35337 0
M  V30 2386 H 224.806 1.50011 4.07037 0
M  V30 2387 H 225.477 0.672314 5.4789 0
M  V30 2388 H 227.953 -0.678942 4.10524 0
M  V30 2389 H 226.829 -1.33086 5.32522 0
M  V30 2390 H 227.09 -2.21166 3.82803 0
M  V30 2391 N 226.149 -1.5696 0.141893 0
M  V30 2392 C 227.374 -2.00754 -0.520838 0
M  V30 2393 C 227.799 -1.0213 -1.57959 0
M  V30 2394 O 227.157 0.00371324 -1.813 0
M  V30 2395 C 227.205 -3.43318 -1.10294 0
M  V30 2396 O 226.309 -3.47679 -2.21795 0
M  V30 2397 H 225.65 -0.651564 -0.127908 0
M  V30 2398 H 228.18 -2.03221 0.23712 0
M  V30 2399 H 228.19 -3.82012 -1.43287 0
M  V30 2400 H 226.865 -4.14608 -0.327574 0
M  V30 2401 H 225.442 -3.20824 -1.9007 0
M  V30 2402 N 227.627 0.131896 -1.57047 0
M  V30 2403 C 228.557 1.16384 -2.02428 0
M  V30 2404 C 229.538 1.43936 -0.90644 0
M  V30 2405 O 230.723 1.54599 -1.17528 0
M  V30 2406 C 227.853 2.49328 -2.4177 0
M  V30 2407 C 226.807 2.36266 -3.56879 0
M  V30 2408 C 226.133 3.74057 -3.8208 0
M  V30 2409 C 227.433 1.834 -4.89042 0
M  V30 2410 H 229.127 0.786433 -2.88887 0
M  V30 2411 H 226.673 0.376855 -1.38981 0
M  V30 2412 H 228.626 3.21759 -2.7212 0
M  V30 2413 H 227.35 2.88934 -1.52266 0
M  V30 2414 H 226.009 1.66286 -3.26718 0
M  V30 2415 H 225.657 4.11125 -2.89803 0
M  V30 2416 H 225.357 3.66174 -4.59554 0
M  V30 2417 H 226.881 4.48012 -4.1487 0
M  V30 2418 H 228.295 2.45636 -5.18011 0
M  V30 2419 H 226.692 1.8637 -5.70426 0
M  V30 2420 H 227.762 0.790662 -4.7841 0
M  V30 2421 N 229.106 1.52395 0.401703 0
M  V30 2422 C 230.331 1.70972 1.17403 0
M  V30 2423 C 230.756 0.421615 1.83314 0
M  V30 2424 O 230.114 -0.621564 1.70312 0
M  V30 2425 C 230.162 2.85151 2.20728 0
M  V30 2426 O 229.266 2.51238 3.27037 0
M  V30 2427 H 228.607 0.568927 0.342372 0
M  V30 2428 H 231.137 1.99131 0.469891 0
M  V30 2429 H 231.147 3.10279 2.64936 0
M  V30 2430 H 229.822 3.78603 1.7214 0
M  V30 2431 H 228.399 2.36808 2.88057 0
M  V30 2432 N 230.584 -0.659388 1.43143 0
M  V30 2433 C 231.547 -1.75432 1.47501 0
M  V30 2434 C 232.547 -1.56707 0.360512 0
M  V30 2435 O 233.737 -1.62717 0.622002 0
M  V30 2436 C 230.869 -3.14239 1.32162 0
M  V30 2437 H 232.062 -1.7295 2.45006 0
M  V30 2438 H 229.615 -0.870469 1.29817 0
M  V30 2439 H 230.35 -3.22336 0.356401 0
M  V30 2440 H 230.135 -3.29235 2.12948 0
M  V30 2441 H 231.625 -3.94094 1.3813 0
M  V30 2442 N 232.062 -1.29571 -0.897171 0
M  V30 2443 C 233.31 -1.17456 -1.64464 0
M  V30 2444 C 233.631 0.273698 -1.9307 0
M  V30 2445 O 232.901 1.18684 -1.55855 0
M  V30 2446 H 231.481 -0.431706 -0.609622 0
M  V30 2447 H 234.143 -1.62531 -1.07562 0
M  V30 2448 H 233.239 -1.72648 -2.59998 0
M  V30 2449 N 233.54 1.10788 -1.12088 0
M  V30 2450 C 234.788 1.8231 -0.872205 0
M  V30 2451 C 235.109 1.85419 0.603709 0
M  V30 2452 O 234.379 1.32963 1.43867 0
M  V30 2453 H 232.959 0.675137 -0.319686 0
M  V30 2454 H 235.621 1.34068 -1.41463 0
M  V30 2455 H 234.717 2.85955 -1.25045 0
M  V30 2456 N 235.018 0.912232 1.28515 0
M  V30 2457 C 236.434 0.610159 1.47476 0
M  V30 2458 C 236.634 -0.844955 1.82928 0
M  V30 2459 O 235.69 -1.62416 1.93332 0
M  V30 2460 C 237.003 1.54675 2.57868 0
M  V30 2461 C 238.551 1.55331 2.71738 0
M  V30 2462 C 239.026 2.47649 3.85272 0
M  V30 2463 N 240.517 2.45767 3.92623 0
M  V30 2464 C 241.252 3.13896 4.79851 0
M  V30 2465 N 240.748 3.9135 5.71679 0
M  V30 2466 N 242.541 3.02991 4.73448 0
M  V30 2467 H 234.692 1.85318 1.03783 0
M  V30 2468 H 236.955 0.794777 0.516753 0
M  V30 2469 H 236.661 2.5841 2.38574 0
M  V30 2470 H 236.535 1.27671 3.54937 0
M  V30 2471 H 238.922 0.52335 2.90422 0
M  V30 2472 H 239.003 1.86378 1.75205 0
M  V30 2473 H 238.647 3.50745 3.67342 0
M  V30 2474 H 238.577 2.13904 4.81199 0
M  V30 2475 H 241.068 1.89503 3.26951 0
M  V30 2476 H 241.381 4.40359 6.35062 0
M  V30 2477 H 239.726 3.95455 5.71524 0
M  V30 2478 H 242.917 2.41987 4.007 0
M  V30 2479 H 243.09 3.5636 5.41213 0
M  V30 2480 N 236.496 -1.42363 0.676048 0
M  V30 2481 C 237.773 -1.95183 0.127726 0
M  V30 2482 C 238.153 -1.61641 -1.35777 0
M  V30 2483 O 237.501 -0.913216 -2.09458 0
M  V30 2484 C 237.711 -3.46721 0.398199 0
M  V30 2485 C 239.059 -4.23427 0.315383 0
M  V30 2486 O 240.083 -3.54649 0.332016 0
M  V30 2487 O 238.942 -5.45888 0.25865 0
M  V30 2488 H 236.036 -0.826992 0.00359427 0
M  V30 2489 H 238.582 -1.52184 0.750864 0
M  V30 2490 H 237.354 -3.64344 1.4272 0
M  V30 2491 H 236.977 -3.96769 -0.256885 0
M  V30 2492 N 237.974 -0.419461 -1.51915 0
M  V30 2493 C 238.884 0.407528 -2.31033 0
M  V30 2494 C 239.9 1.04413 -1.3919 0
M  V30 2495 O 241.076 1.0434 -1.72265 0
M  V30 2496 C 238.141 1.50365 -3.12396 0
M  V30 2497 C 237.202 0.889029 -4.19994 0
M  V30 2498 C 236.435 1.93291 -4.97468 0
M  V30 2499 O 236.658 3.15259 -4.75361 0
M  V30 2500 O 235.592 1.53339 -5.8204 0
M  V30 2501 H 239.418 -0.237865 -3.02767 0
M  V30 2502 H 237.003 -0.182413 -1.48282 0
M  V30 2503 H 238.885 2.13975 -3.63032 0
M  V30 2504 H 237.56 2.13345 -2.43445 0
M  V30 2505 H 236.467 0.215353 -3.7348 0
M  V30 2506 H 237.8 0.302991 -4.91267 0
M  V30 2507 N 239.452 1.56882 -0.150215 0
M  V30 2508 C 240.7 1.9584 0.499105 0
M  V30 2509 C 241.021 1.03623 1.65188 0
M  V30 2510 O 240.291 0.0984084 1.95653 0
M  V30 2511 H 238.871 0.723119 0.187373 0
M  V30 2512 H 241.533 1.9358 -0.226466 0
M  V30 2513 H 240.629 2.99638 0.873122 0
M  V30 2514 N 240.93 -0.123565 1.57115 0
M  V30 2515 C 241.878 -1.17082 2.00984 0
M  V30 2516 C 242.872 -1.43136 0.906009 0
M  V30 2517 O 244.078 -1.43152 1.09121 0
M  V30 2518 H 240.453 -0.394653 0.64012 0
M  V30 2519 H 242.424 -0.774292 2.88179 0
M  V30 2520 C 241.173 -2.49057 2.42623 0
M  V30 2521 H 240.496 -2.29846 3.27125 0
M  V30 2522 H 241.936 -3.20906 2.7712 0
M  V30 2523 C 240.395 -3.11305 1.28805 0
M  V30 2524 O 240.925 -3.97171 0.60153 0
M  V30 2525 N 239.131 -2.71111 1.04628 0
M  V30 2526 H 238.678 -2.01382 1.60634 0
M  V30 2527 H 238.636 -3.1309 0.286685 0
M  V30 2528 N 242.408 -1.52605 -0.393616 0
M  V30 2529 C 243.638 -1.71046 -1.15874 0
M  V30 2530 C 244.046 -0.426483 -1.84331 0
M  V30 2531 O 243.389 0.608513 -1.73329 0
M  V30 2532 C 243.451 -2.80118 -2.25332 0
M  V30 2533 C 243.115 -4.21381 -1.76881 0
M  V30 2534 C 244.112 -5.04697 -1.24808 0
M  V30 2535 C 241.797 -4.67683 -1.83244 0
M  V30 2536 C 243.791 -6.32393 -0.797387 0
M  V30 2537 C 241.478 -5.95364 -1.37787 0
M  V30 2538 C 242.476 -6.77549 -0.861208 0
M  V30 2539 O 242.164 -8.02837 -0.413252 0
M  V30 2540 H 241.896 -0.576155 -0.353583 0
M  V30 2541 H 244.45 -2.00018 -0.467123 0
M  V30 2542 H 242.68 -2.46557 -2.97904 0
M  V30 2543 H 244.369 -2.87006 -2.87023 0
M  V30 2544 H 245.135 -4.70111 -1.19252 0
M  V30 2545 H 241.014 -4.03805 -2.22401 0
M  V30 2546 H 244.558 -6.9649 -0.393437 0
M  V30 2547 H 240.455 -6.29455 -1.43026 0
M  V30 2548 H 241.223 -8.16749 -0.53515 0
M  V30 2549 N 243.887 0.651787 -1.4349 0
M  V30 2550 C 244.817 1.77621 -1.51569 0
M  V30 2551 C 245.798 1.66022 -0.370253 0
M  V30 2552 O 246.983 1.85095 -0.587658 0
M  V30 2553 C 244.113 3.16056 -1.43966 0
M  V30 2554 C 243.067 3.4242 -2.56774 0
M  V30 2555 C 242.393 4.8067 -2.34223 0
M  V30 2556 C 243.693 3.37023 -3.99015 0
M  V30 2557 H 245.387 1.71117 -2.45681 0
M  V30 2558 H 242.933 0.821825 -1.18246 0
M  V30 2559 H 244.886 3.94472 -1.48221 0
M  V30 2560 H 243.61 3.23293 -0.463586 0
M  V30 2561 H 242.269 2.66375 -2.51873 0
M  V30 2562 H 241.917 4.84585 -1.34856 0
M  V30 2563 H 241.617 4.9927 -3.09844 0
M  V30 2564 H 243.141 5.61342 -2.40265 0
M  V30 2565 H 244.555 4.05374 -4.05395 0
M  V30 2566 H 242.952 3.67159 -4.74673 0
M  V30 2567 H 244.022 2.3518 -4.2405 0
M  V30 2568 N 245.365 1.30045 0.890287 0
M  V30 2569 C 246.642 1.09227 1.62262 0
M  V30 2570 C 247.022 -0.360305 2.08002 0
M  V30 2571 O 246.37 -1.35084 1.84295 0
M  V30 2572 C 246.58 2.08835 2.79623 0
M  V30 2573 C 247.928 2.40266 3.50082 0
M  V30 2574 O 248.952 2.07104 2.89804 0
M  V30 2575 O 247.811 2.96967 4.58773 0
M  V30 2576 H 244.905 0.419132 0.712922 0
M  V30 2577 H 247.451 1.41451 0.937529 0
M  V30 2578 H 246.223 3.06633 2.43089 0
M  V30 2579 H 245.846 1.77397 3.55832 0
M  V30 2580 N 246.843 -1.10192 1.12674 0
M  V30 2581 C 248.12 -1.78717 0.794965 0
M  V30 2582 C 248.5 -1.98628 -0.714853 0
M  V30 2583 O 247.848 -1.58135 -1.64941 0
M  V30 2584 C 248.058 -3.11546 1.5729 0
M  V30 2585 C 249.406 -3.86382 1.76052 0
M  V30 2586 O 250.43 -3.21274 1.53823 0
M  V30 2587 O 249.289 -5.03246 2.13087 0
M  V30 2588 H 246.383 -0.774702 0.289423 0
M  V30 2589 H 248.929 -1.16819 1.23091 0
M  V30 2590 H 247.701 -2.92489 2.59935 0
M  V30 2591 H 247.324 -3.81164 1.13137 0
M  V30 2592 N 248.321 -0.919034 -1.28029 0
M  V30 2593 C 249.284 -0.416182 -2.2539 0
M  V30 2594 C 250.284 0.460438 -1.54067 0
M  V30 2595 O 251.474 0.262744 -1.72207 0
M  V30 2596 C 248.606 0.402707 -3.38513 0
M  V30 2597 H 249.799 -1.27629 -2.71387 0
M  V30 2598 H 247.352 -0.698919 -1.39803 0
M  V30 2599 H 248.087 1.282 -2.97885 0
M  V30 2600 H 247.872 -0.225698 -3.9145 0
M  V30 2601 H 249.362 0.745191 -4.10897 0
M  V30 2602 N 249.799 1.42003 -0.683588 0
M  V30 2603 C 250.729 2.33487 -0.024866 0
M  V30 2604 C 251.71 1.51163 0.779975 0
M  V30 2605 O 252.895 1.79739 0.735362 0
M  V30 2606 C 250.025 3.3487 0.920836 0
M  V30 2607 C 248.979 4.27414 0.223958 0
M  V30 2608 C 248.305 5.19074 1.2832 0
M  V30 2609 C 249.605 5.14445 -0.90242 0
M  V30 2610 H 251.299 2.88819 -0.788921 0
M  V30 2611 H 248.845 1.38873 -0.38083 0
M  V30 2612 H 250.798 3.97787 1.39081 0
M  V30 2613 H 249.522 2.77861 1.71642 0
M  V30 2614 H 248.181 3.65904 -0.225864 0
M  V30 2615 H 247.829 4.58387 2.071 0
M  V30 2616 H 247.529 5.81822 0.821995 0
M  V30 2617 H 249.053 5.84867 1.75392 0
M  V30 2618 H 250.467 5.70998 -0.513272 0
M  V30 2619 H 248.864 5.86072 -1.28997 0
M  V30 2620 H 249.934 4.52322 -1.74737 0
M  V30 2621 N 251.277 0.427512 1.51691 0
M  V30 2622 C 252.523 -0.142439 2.02299 0
M  V30 2623 C 252.856 -1.43214 1.31162 0
M  V30 2624 O 252.131 -1.89833 0.423511 0
M  V30 2625 C 252.414 -0.371301 3.58181 0
M  V30 2626 C 252.267 0.936358 4.39946 0
M  V30 2627 C 253.586 -1.14542 4.24933 0
M  V30 2628 H 250.705 -0.0502937 0.735282 0
M  V30 2629 H 253.347 0.564584 1.81418 0
M  V30 2630 H 251.497 -0.973559 3.76104 0
M  V30 2631 H 253.169 1.57184 4.33694 0
M  V30 2632 H 251.412 1.5432 4.05423 0
M  V30 2633 H 252.083 0.730388 5.47147 0
M  V30 2634 H 254.559 -0.635362 4.11221 0
M  V30 2635 H 253.435 -1.27431 5.33903 0
M  V30 2636 H 253.696 -2.17093 3.85127 0
M  V30 2637 N 252.755 -1.56801 0.158532 0
M  V30 2638 C 254.171 -1.5837 -0.197774 0
M  V30 2639 C 254.371 -1.17334 -1.63814 0
M  V30 2640 O 253.427 -0.878988 -2.36707 0
M  V30 2641 C 254.74 -3.00615 0.0714459 0
M  V30 2642 C 256.288 -3.12999 0.00864533 0
M  V30 2643 C 256.763 -4.57313 0.250685 0
M  V30 2644 N 258.254 -4.62777 0.198014 0
M  V30 2645 C 258.989 -5.72271 0.359642 0
M  V30 2646 N 258.485 -6.90371 0.579625 0
M  V30 2647 N 260.278 -5.61318 0.296438 0
M  V30 2648 H 252.429 -1.81765 1.09887 0
M  V30 2649 H 254.692 -0.841849 0.435884 0
M  V30 2650 H 254.398 -3.35068 1.06874 0
M  V30 2651 H 254.272 -3.71683 -0.642757 0
M  V30 2652 H 256.659 -2.7838 -0.979217 0
M  V30 2653 H 256.74 -2.44393 0.755359 0
M  V30 2654 H 256.384 -4.92639 1.2357 0
M  V30 2655 H 256.314 -5.24061 -0.516489 0
M  V30 2656 H 258.805 -3.77885 0.0331115 0
M  V30 2657 H 259.118 -7.69689 0.69275 0
M  V30 2658 H 257.463 -6.92264 0.616087 0
M  V30 2659 H 260.654 -4.67932 0.125258 0
M  V30 2660 H 260.827 -6.46599 0.425831 0
M  V30 2661 N 254.233 0.115231 -1.57178 0
M  V30 2662 C 255.165 1.16694 -1.97269 0
M  V30 2663 C 256.178 1.37445 -0.872502 0
M  V30 2664 O 257.367 1.36454 -1.15077 0
M  V30 2665 C 254.467 2.52627 -2.25905 0
M  V30 2666 C 253.64 2.52427 -3.57211 0
M  V30 2667 C 252.699 3.70134 -3.74016 0
M  V30 2668 O 251.725 3.53546 -4.46087 0
M  V30 2669 N 252.927 4.88844 -3.13068 0
M  V30 2670 H 255.692 0.82588 -2.88096 0
M  V30 2671 H 253.253 0.304461 -1.59011 0
M  V30 2672 H 255.245 3.29937 -2.34359 0
M  V30 2673 H 253.815 2.789 -1.41186 0
M  V30 2674 H 253.035 1.60805 -3.5991 0
M  V30 2675 H 254.323 2.49353 -4.43509 0
M  V30 2676 H 253.721 5.05225 -2.54489 0
M  V30 2677 H 252.278 5.63817 -3.27037 0
M  V30 2678 N 255.711 1.52812 0.385517 0
M  V30 2679 C 256.988 1.5861 1.14465 0
M  V30 2680 C 257.368 0.381402 2.07626 0
M  V30 2681 O 256.716 -0.629999 2.19643 0
M  V30 2682 C 256.926 2.92664 1.90128 0
M  V30 2683 C 258.274 3.46526 2.45367 0
M  V30 2684 O 259.298 2.94562 2.0028 0
M  V30 2685 O 258.157 4.37323 3.27736 0
M  V30 2686 H 255.251 0.639855 0.523941 0
M  V30 2687 H 257.797 1.65149 0.390389 0
M  V30 2688 H 256.569 3.71788 1.22022 0
M  V30 2689 H 256.192 2.89527 2.72507 0
M  V30 2690 N 257.189 -0.644168 1.43834 0
M  V30 2691 C 258.152 -1.73857 1.49353 0
M  V30 2692 C 259.152 -1.56315 0.377112 0
M  V30 2693 O 260.342 -1.62048 0.639226 0
M  V30 2694 C 257.474 -3.12819 1.35488 0
M  V30 2695 H 258.667 -1.70342 2.46827 0
M  V30 2696 H 256.22 -0.856652 1.30733 0
M  V30 2697 H 256.955 -3.2194 0.390569 0
M  V30 2698 H 256.74 -3.26958 2.16428 0
M  V30 2699 H 258.23 -3.92606 1.42302 0
M  V30 2700 N 258.668 -1.30515 -0.883378 0
M  V30 2701 C 259.6 -1.12846 -1.99496 0
M  V30 2702 C 260.613 -0.0712571 -1.62644 0
M  V30 2703 O 261.802 -0.317432 -1.75655 0
M  V30 2704 C 258.902 -0.699123 -3.3161 0
M  V30 2705 C 258.075 -1.83842 -3.96889 0
M  V30 2706 C 257.134 -1.39737 -5.07307 0
M  V30 2707 O 256.16 -2.10485 -5.28852 0
M  V30 2708 N 257.362 -0.277279 -5.79837 0
M  V30 2709 H 260.127 -2.08585 -2.15203 0
M  V30 2710 H 257.688 -1.22672 -1.05656 0
M  V30 2711 H 259.68 -0.387044 -4.02845 0
M  V30 2712 H 258.25 0.166276 -3.12157 0
M  V30 2713 H 257.47 -2.31853 -3.18807 0
M  V30 2714 H 258.758 -2.60187 -4.37241 0
M  V30 2715 H 258.156 0.3122 -5.64838 0
M  V30 2716 H 256.713 -0.0246623 -6.51795 0
M  V30 2717 N 260.146 1.09593 -1.13257 0
M  V30 2718 C 261.423 1.78293 -0.804432 0
M  V30 2719 C 261.803 1.99004 0.70431 0
M  V30 2720 O 261.151 1.59007 1.641 0
M  V30 2721 C 261.361 3.10707 -1.5894 0
M  V30 2722 C 262.709 3.85443 -1.78099 0
M  V30 2723 O 263.733 3.20454 -1.55525 0
M  V30 2724 O 262.592 5.02108 -2.15753 0
M  V30 2725 H 259.686 0.773156 -0.293528 0
M  V30 2726 H 262.232 1.16164 -1.23709 0
M  V30 2727 H 261.004 2.91106 -2.61482 0
M  V30 2728 H 260.627 3.80558 -1.15157 0
M  V30 2729 N 261.624 0.925811 1.2754 0
M  V30 2730 C 262.554 0.440748 2.29303 0
M  V30 2731 C 263.535 -0.497971 1.62648 0
M  V30 2732 O 264.72 -0.403126 1.8997 0
M  V30 2733 C 261.85 -0.309048 3.45922 0
M  V30 2734 C 260.804 0.54166 4.24559 0
M  V30 2735 C 260.13 -0.337191 5.33636 0
M  V30 2736 C 261.43 1.80516 4.90114 0
M  V30 2737 H 263.124 1.29121 2.70126 0
M  V30 2738 H 260.67 0.622323 1.29858 0
M  V30 2739 H 262.623 -0.659315 4.1621 0
M  V30 2740 H 261.347 -1.19352 3.04011 0
M  V30 2741 H 260.006 0.874609 3.56014 0
M  V30 2742 H 259.654 -1.22056 4.87966 0
M  V30 2743 H 259.354 0.228497 5.87156 0
M  V30 2744 H 260.878 -0.683072 6.06767 0
M  V30 2745 H 262.292 1.52307 5.52698 0
M  V30 2746 H 260.689 2.3142 5.53683 0
M  V30 2747 H 261.759 2.52581 4.13921 0
M  V30 2748 N 263.102 -1.41638 0.69111 0
M  V30 2749 C 264.332 -2.0533 0.228758 0
M  V30 2750 C 264.74 -1.52089 -1.12541 0
M  V30 2751 O 264.083 -0.662145 -1.71351 0
M  V30 2752 C 264.145 -3.59349 0.10407 0
M  V30 2753 C 263.809 -4.35362 1.38956 0
M  V30 2754 C 264.806 -4.64942 2.32648 0
M  V30 2755 C 262.491 -4.74714 1.64169 0
M  V30 2756 C 264.485 -5.32828 3.49818 0
M  V30 2757 C 262.172 -5.42338 2.81625 0
M  V30 2758 C 263.17 -5.71322 3.74273 0
M  V30 2759 O 262.858 -6.37554 4.89673 0
M  V30 2760 H 262.59 -0.667796 0.104997 0
M  V30 2761 H 265.144 -1.82477 0.942938 0
M  V30 2762 H 263.374 -3.80924 -0.665839 0
M  V30 2763 H 265.063 -4.04633 -0.320519 0
M  V30 2764 H 265.829 -4.35025 2.14425 0
M  V30 2765 H 261.708 -4.51538 0.929202 0
M  V30 2766 H 265.252 -5.55368 4.22152 0
M  V30 2767 H 261.149 -5.71673 2.99768 0
M  V30 2768 H 261.917 -6.56049 4.8943 0
M  V30 2769 N 264.58 -0.43555 -1.51462 0
M  V30 2770 C 265.49 0.383001 -2.31453 0
M  V30 2771 C 266.506 1.02931 -1.4029 0
M  V30 2772 O 267.682 1.02507 -1.73362 0
M  V30 2773 C 264.747 1.47043 -3.13973 0
M  V30 2774 C 263.808 0.844433 -4.20913 0
M  V30 2775 C 263.041 1.88004 -4.9949 0
M  V30 2776 O 263.264 3.10199 -4.78678 0
M  V30 2777 O 262.198 1.47157 -5.83634 0
M  V30 2778 H 266.024 -0.269964 -3.02498 0
M  V30 2779 H 263.609 -0.19813 -1.4808 0
M  V30 2780 H 265.491 2.10113 -3.65281 0
M  V30 2781 H 264.166 2.10751 -2.45695 0
M  V30 2782 H 263.073 0.175729 -3.73687 0
M  V30 2783 H 264.406 0.250869 -4.9156 0
M  V30 2784 N 266.058 1.56714 -0.166846 0
M  V30 2785 C 267.021 2.16539 0.751232 0
M  V30 2786 C 268.021 1.11228 1.16125 0
M  V30 2787 O 269.211 1.36765 1.07894 0
M  V30 2788 C 266.343 2.74462 2.02196 0
M  V30 2789 H 267.536 2.99013 0.230499 0
M  V30 2790 H 265.089 1.56081 0.0826982 0
M  V30 2791 H 265.824 1.95709 2.58589 0
M  V30 2792 H 265.609 3.51527 1.73698 0
M  V30 2793 H 267.099 3.20489 2.67725 0
M  V30 2794 N 267.536 -0.106894 1.57237 0
M  V30 2795 C 268.784 -0.810921 1.85117 0
M  V30 2796 C 269.105 -1.7984 0.753827 0
M  V30 2797 O 268.375 -1.94649 -0.221056 0
M  V30 2798 H 266.955 -0.302466 0.683025 0
M  V30 2799 H 269.617 -0.0913324 1.94686 0
M  V30 2800 H 268.713 -1.34875 2.81452 0
M  V30 2801 N 269.014 -1.53014 -0.377408 0
M  V30 2802 C 269.924 -1.81557 -1.48574 0
M  V30 2803 C 270.94 -0.703102 -1.59162 0
M  V30 2804 O 272.116 -0.99192 -1.75279 0
M  V30 2805 C 269.181 -1.9889 -2.83978 0
M  V30 2806 C 268.242 -3.22801 -2.83016 0
M  V30 2807 C 267.475 -3.39298 -4.11962 0
M  V30 2808 O 267.698 -2.60345 -5.0752 0
M  V30 2809 O 266.632 -4.32604 -4.18494 0
M  V30 2810 H 270.458 -2.75695 -1.27382 0
M  V30 2811 H 268.043 -1.38248 -0.566373 0
M  V30 2812 H 269.925 -2.11931 -3.6423 0
M  V30 2813 H 268.6 -1.07942 -3.05172 0
M  V30 2814 H 267.507 -3.15193 -2.01505 0
M  V30 2815 H 268.84 -4.13632 -2.66775 0
M  V30 2816 N 270.492 0.636531 -1.44174 0
M  V30 2817 C 271.439 1.74875 -1.50624 0
M  V30 2818 C 272.409 1.62275 -0.35442 0
M  V30 2819 O 273.594 1.82276 -0.563908 0
M  V30 2820 C 270.734 3.13102 -1.45125 0
M  V30 2821 C 269.847 3.36717 -2.7064 0
M  V30 2822 C 268.982 4.64885 -2.57013 0
M  V30 2823 C 268.021 4.8166 -3.77717 0
M  V30 2824 N 267.158 6.01101 -3.62798 0
M  V30 2825 H 271.998 1.68697 -2.45653 0
M  V30 2826 H 269.535 0.823004 -1.21922 0
M  V30 2827 H 271.493 3.93034 -1.39929 0
M  V30 2828 H 270.123 3.18308 -0.536671 0
M  V30 2829 H 269.175 2.50763 -2.86046 0
M  V30 2830 H 270.487 3.44993 -3.60252 0
M  V30 2831 H 269.641 5.52969 -2.49619 0
M  V30 2832 H 268.38 4.58957 -1.64953 0
M  V30 2833 H 267.385 3.92007 -3.85501 0
M  V30 2834 H 268.61 4.89406 -4.70807 0
M  V30 2835 H 266.556 5.96273 -2.73486 0
M  V30 2836 H 266.473 6.10409 -4.46023 0
M  V30 2837 H 267.741 6.91761 -3.59286 0
M  V30 2838 N 271.97 1.30982 0.876444 0
M  V30 2839 C 272.917 1.18085 1.98304 0
M  V30 2840 C 273.887 0.0682263 1.6596 0
M  V30 2841 O 275.072 0.239937 1.89285 0
M  V30 2842 C 272.212 0.887475 3.33493 0
M  V30 2843 C 271.325 2.08281 3.78475 0
M  V30 2844 C 270.46 1.72678 5.0235 0
M  V30 2845 C 269.499 2.88657 5.39762 0
M  V30 2846 N 268.636 2.53292 6.54819 0
M  V30 2847 H 273.476 2.1275 2.08666 0
M  V30 2848 H 271.013 1.05839 1.02159 0
M  V30 2849 H 272.971 0.697961 4.1132 0
M  V30 2850 H 271.601 -0.022315 3.22792 0
M  V30 2851 H 270.653 2.3833 2.96484 0
M  V30 2852 H 271.965 2.95108 4.02135 0
M  V30 2853 H 271.119 1.50151 5.87826 0
M  V30 2854 H 269.858 0.830327 4.8058 0
M  V30 2855 H 268.863 3.1184 4.52809 0
M  V30 2856 H 270.088 3.79002 5.63502 0
M  V30 2857 H 268.034 1.66163 6.34607 0
M  V30 2858 H 267.951 3.3365 6.7839 0
M  V30 2859 H 269.219 2.34143 7.43503 0
M  V30 2860 N 273.449 -1.08991 1.13837 0
M  V30 2861 C 274.695 -1.81699 0.91417 0
M  V30 2862 C 275.05 -1.84264 -0.553594 0
M  V30 2863 O 274.343 -1.30313 -1.4046 0
M  V30 2864 C 274.537 -3.27042 1.44147 0
M  V30 2865 C 274.366 -3.38637 2.95897 0
M  V30 2866 C 273.136 -3.50177 3.64286 0
M  V30 2867 C 275.334 -3.30791 3.93804 0
M  V30 2868 N 273.316 -3.50501 5.04006 0
M  V30 2869 C 274.687 -3.38037 5.19741 0
M  V30 2870 C 276.742 -3.14488 3.86007 0
M  V30 2871 C 275.445 -3.30659 6.38793 0
M  V30 2872 C 277.471 -3.08438 5.04599 0
M  V30 2873 C 276.833 -3.1628 6.29402 0
M  V30 2874 H 272.932 -0.678967 0.387979 0
M  V30 2875 H 275.516 -1.30224 1.4474 0
M  V30 2876 H 273.687 -3.76976 0.935091 0
M  V30 2877 H 275.419 -3.87785 1.1578 0
M  V30 2878 H 272.174 -3.53815 3.1482 0
M  V30 2879 H 272.598 -3.54236 5.76928 0
M  V30 2880 H 277.24 -3.07291 2.90399 0
M  V30 2881 H 274.958 -3.36618 7.34652 0
M  V30 2882 H 278.544 -2.96952 5.0031 0
M  V30 2883 H 277.424 -3.1162 7.19627 0
M  V30 2884 N 274.927 -0.932562 -1.27047 0
M  V30 2885 C 276.175 -0.574422 -1.93765 0
M  V30 2886 C 276.496 0.887993 -1.73608 0
M  V30 2887 O 275.766 1.62999 -1.08665 0
M  V30 2888 H 274.346 -0.209451 -0.717035 0
M  V30 2889 H 277.008 -1.18601 -1.5466 0
M  V30 2890 H 276.104 -0.784841 -3.02071 0
M  V30 2891 N 276.405 1.4127 -0.698611 0
M  V30 2892 C 277.633 2.05503 -0.239992 0
M  V30 2893 C 278.048 1.52584 1.11191 0
M  V30 2894 O 277.405 0.675323 1.69545 0
M  V30 2895 C 277.456 3.60987 -0.192429 0
M  V30 2896 O 277.177 4.1195 -1.49094 0
M  V30 2897 C 278.678 4.42371 0.28681 0
M  V30 2898 H 275.898 0.661748 -0.111045 0
M  V30 2899 H 278.442 1.80987 -0.95205 0
M  V30 2900 H 276.597 3.84533 0.470472 0
M  V30 2901 H 277.011 5.06018 -1.38007 0
M  V30 2902 H 278.485 5.51344 0.26896 0
M  V30 2903 H 278.962 4.18699 1.32619 0
M  V30 2904 H 279.568 4.23897 -0.345201 0
M  V30 2905 N 277.883 0.443576 1.51229 0
M  V30 2906 C 279.16 -0.181038 1.9476 0
M  V30 2907 C 279.54 -1.59523 1.38259 0
M  V30 2908 O 278.888 -2.2122 0.572198 0
M  V30 2909 C 279.098 -0.152422 3.48667 0
M  V30 2910 C 280.446 -0.354923 4.23114 0
M  V30 2911 O 281.47 -0.230257 3.55455 0
M  V30 2912 O 280.329 -0.603674 5.43156 0
M  V30 2913 H 277.423 -0.1266 0.817252 0
M  V30 2914 H 279.969 0.502004 1.62105 0
M  V30 2915 H 278.741 0.836022 3.82265 0
M  V30 2916 H 278.364 -0.878107 3.87782 0
M  V30 2917 N 279.361 -1.56624 0.175154 0
M  V30 2918 C 280.271 -2.21741 -0.766042 0
M  V30 2919 C 281.287 -1.21023 -1.25018 0
M  V30 2920 O 282.463 -1.53697 -1.3015 0
M  V30 2921 C 279.528 -2.84839 -1.97655 0
M  V30 2922 C 278.589 -4.00769 -1.53892 0
M  V30 2923 C 277.822 -4.60849 -2.69173 0
M  V30 2924 O 278.045 -4.19823 -3.86141 0
M  V30 2925 O 276.979 -5.50655 -2.43028 0
M  V30 2926 H 280.805 -3.02738 -0.241585 0
M  V30 2927 H 278.39 -1.49305 -0.053222 0
M  V30 2928 H 280.272 -3.24834 -2.68442 0
M  V30 2929 H 278.947 -2.06836 -2.48999 0
M  V30 2930 H 277.854 -3.65436 -0.80044 0
M  V30 2931 H 279.187 -4.80376 -1.07236 0
M  V30 2932 N 280.839 0.0985539 -1.57292 0
M  V30 2933 C 282.085 0.803867 -1.86188 0
M  V30 2934 C 282.418 1.78549 -0.763794 0
M  V30 2935 O 281.693 1.93153 0.22855 0
M  V30 2936 C 281.976 1.53568 -3.25713 0
M  V30 2937 C 281.829 0.572277 -4.46145 0
M  V30 2938 C 283.148 2.48708 -3.63087 0
M  V30 2939 H 280.267 0.290781 -0.677211 0
M  V30 2940 H 282.909 0.0675783 -1.8988 0
M  V30 2941 H 281.059 2.16332 -3.22696 0
M  V30 2942 H 282.731 -0.0480894 -4.61275 0
M  V30 2943 H 280.974 -0.114618 -4.33649 0
M  V30 2944 H 281.645 1.12139 -5.40489 0
M  V30 2945 H 284.121 1.96039 -3.67026 0
M  V30 2946 H 282.997 2.96932 -4.61652 0
M  V30 2947 H 283.258 3.32309 -2.91588 0
M  V30 2948 N 282.317 1.53212 0.369288 0
M  V30 2949 C 283.264 1.79388 1.45219 0
M  V30 2950 C 284.234 0.638059 1.53356 0
M  V30 2951 O 285.419 0.879852 1.69302 0
M  V30 2952 C 282.559 1.98623 2.82211 0
M  V30 2953 C 281.672 3.26337 2.8307 0
M  V30 2954 C 280.807 3.35779 4.11614 0
M  V30 2955 C 279.846 4.5754 4.06601 0
M  V30 2956 N 278.983 4.64155 5.26787 0
M  V30 2957 H 283.823 2.71794 1.22198 0
M  V30 2958 H 281.36 1.34642 0.592444 0
M  V30 2959 H 283.318 2.07761 3.61789 0
M  V30 2960 H 281.948 1.09558 3.03639 0
M  V30 2961 H 281 3.26171 1.95747 0
M  V30 2962 H 282.312 4.15988 2.75237 0
M  V30 2963 H 281.466 3.44208 4.99606 0
M  V30 2964 H 280.205 2.44137 4.22195 0
M  V30 2965 H 279.21 4.49215 3.16996 0
M  V30 2966 H 280.435 5.50519 3.97625 0
M  V30 2967 H 278.381 3.75413 5.3796 0
M  V30 2968 H 278.298 5.47706 5.21109 0
M  V30 2969 H 279.566 4.76863 6.16621 0
M  V30 2970 N 283.795 -0.628877 1.44509 0
M  V30 2971 C 285.042 -1.38839 1.47411 0
M  V30 2972 C 285.37 -1.94202 0.10757 0
M  V30 2973 O 284.625 -1.74243 -0.890947 0
M  V30 2974 C 284.924 -2.56995 2.48371 0
M  V30 2975 C 284.59 -2.19908 3.93639 0
M  V30 2976 C 283.252 -2.09506 4.33198 0
M  V30 2977 C 285.604 -1.9064 4.85083 0
M  V30 2978 C 282.932 -1.68028 5.62124 0
M  V30 2979 C 285.284 -1.50655 6.14399 0
M  V30 2980 C 283.948 -1.38796 6.5291 0
M  V30 2981 H 283.218 -0.508048 0.539414 0
M  V30 2982 H 285.865 -0.712913 1.77735 0
M  V30 2983 H 284.17 -3.29786 2.11538 0
M  V30 2984 H 285.867 -3.15223 2.47861 0
M  V30 2985 H 282.457 -2.28922 3.62343 0
M  V30 2986 H 286.641 -1.97585 4.55273 0
M  V30 2987 H 281.897 -1.57452 5.90778 0
M  V30 2988 H 286.071 -1.27048 6.84713 0
M  V30 2989 H 283.698 -1.06429 7.52713 0
M  V30 2990 N 285.273 -1.31445 -0.869486 0
M  V30 2991 C 286.203 -1.21727 -1.99261 0
M  V30 2992 C 287.184 -0.104359 -1.6978 0
M  V30 2993 O 288.369 -0.289038 -1.92037 0
M  V30 2994 C 285.499 -0.924317 -3.34774 0
M  V30 2995 C 284.453 -1.99685 -3.78563 0
M  V30 2996 C 283.779 -1.55658 -5.11541 0
M  V30 2997 C 285.079 -3.41003 -3.95619 0
M  V30 2998 H 286.773 -2.1569 -2.07649 0
M  V30 2999 H 284.319 -1.03839 -0.997675 0
M  V30 3000 H 286.272 -0.842934 -4.12883 0
M  V30 3001 H 284.996 0.0509793 -3.2656 0
M  V30 3002 H 283.655 -2.06813 -3.02694 0
M  V30 3003 H 283.303 -0.569132 -4.9977 0
M  V30 3004 H 283.003 -2.27409 -5.41811 0
M  V30 3005 H 284.527 -1.48928 -5.92159 0
M  V30 3006 H 285.941 -3.36547 -4.64122 0
M  V30 3007 H 284.338 -4.10975 -4.37286 0
M  V30 3008 H 285.408 -3.81754 -2.98985 0
M  V30 3009 N 286.751 1.08385 -1.14413 0
M  V30 3010 C 287.979 1.84517 -0.936001 0
M  V30 3011 C 288.394 1.81626 0.515503 0
M  V30 3012 O 287.751 1.22008 1.35721 0
M  V30 3013 C 287.802 3.32049 -1.42918 0
M  V30 3014 O 287.523 3.34951 -2.82381 0
M  V30 3015 C 289.024 4.24986 -1.26103 0
M  V30 3016 H 286.244 0.582491 -0.333084 0
M  V30 3017 H 288.788 1.36885 -1.5193 0
M  V30 3018 H 286.943 3.7707 -0.888641 0
M  V30 3019 H 287.357 4.27048 -3.04517 0
M  V30 3020 H 288.831 5.26615 -1.6547 0
M  V30 3021 H 289.308 4.38726 -0.20392 0
M  V30 3022 H 289.914 3.85791 -1.79012 0
M  V30 3023 N 288.23 0.939286 1.26551 0
M  V30 3024 C 289.476 0.586715 1.94128 0
M  V30 3025 C 289.809 -0.8717 1.73537 0
M  V30 3026 O 289.084 -1.62339 1.07127 0
M  V30 3027 C 289.367 0.927497 3.4795 0
M  V30 3028 C 289.22 2.44052 3.77834 0
M  V30 3029 C 290.539 0.441569 4.37879 0
M  V30 3030 H 287.658 0.21463 0.705055 0
M  V30 3031 H 290.3 1.17316 1.49455 0
M  V30 3032 H 288.45 0.428431 3.8613 0
M  V30 3033 H 290.122 3.01216 3.4938 0
M  V30 3034 H 288.365 2.8848 3.23978 0
M  V30 3035 H 289.036 2.62947 4.85348 0
M  V30 3036 H 291.512 0.869448 4.06915 0
M  V30 3037 H 290.388 0.708856 5.44304 0
M  V30 3038 H 290.649 -0.658467 4.37169 0
M  V30 3039 N 289.708 -1.40897 0.706093 0
M  V30 3040 C 290.638 -2.33418 0.0620085 0
M  V30 3041 C 291.619 -1.52385 -0.755827 0
M  V30 3042 O 292.804 -1.80886 -0.706674 0
M  V30 3043 C 289.934 -3.36293 -0.867445 0
M  V30 3044 C 288.888 -4.27716 -0.155932 0
M  V30 3045 C 288.214 -5.2105 -1.20046 0
M  V30 3046 C 289.514 -5.12944 0.984149 0
M  V30 3047 H 291.208 -2.87527 0.83477 0
M  V30 3048 H 288.754 -1.38249 0.402875 0
M  V30 3049 H 290.707 -3.99949 -1.32735 0
M  V30 3050 H 289.431 -2.80556 -1.67199 0
M  V30 3051 H 288.09 -3.65498 0.284047 0
M  V30 3052 H 287.738 -4.61624 -1.99781 0
M  V30 3053 H 287.438 -5.83056 -0.729328 0
M  V30 3054 H 288.962 -5.87584 -1.66066 0
M  V30 3055 H 290.376 -5.70109 0.604048 0
M  V30 3056 H 288.773 -5.83945 1.38304 0
M  V30 3057 H 289.843 -4.49485 1.81911 0
M  V30 3058 N 291.186 -0.45159 -1.50991 0
M  V30 3059 C 292.426 0.109066 -2.04109 0
M  V30 3060 C 292.79 1.38716 -1.32747 0
M  V30 3061 O 293.991 2.02896 -1.76314 0
M  V30 3062 C 292.262 0.308354 -3.56067 0
M  V30 3063 S 293.821 0.830369 -4.30872 0
M  V30 3064 H 290.639 0.0251531 -0.710555 0
M  V30 3065 H 293.241 -0.614264 -1.85599 0
M  V30 3066 H 291.945 -0.627962 -4.05567 0
M  V30 3067 H 291.476 1.05836 -3.78896 0
M  V30 3068 H 293.491 2.10626 -4.49279 0
M  V30 3069 N 292.664 1.56529 -0.183458 0
M  V30 3070 C 293.889 2.02064 0.467428 0
M  V30 3071 C 294.314 1.06282 1.55196 0
M  V30 3072 O 293.672 0.0443565 1.81246 0
M  V30 3073 C 293.72 3.46122 1.01153 0
M  V30 3074 O 292.824 3.53437 2.12499 0
M  V30 3075 H 292.165 0.654726 0.110588 0
M  V30 3076 H 294.695 2.02521 -0.290917 0
M  V30 3077 H 294.705 3.85676 1.33108 0
M  V30 3078 H 293.38 4.15331 0.217533 0
M  V30 3079 H 291.957 3.2575 1.81497 0
M  V30 3080 N 294.142 -0.090211 1.57342 0
M  V30 3081 C 295.558 -0.444547 1.53284 0
M  V30 3082 C 295.758 -1.80238 0.900914 0
M  V30 3083 O 294.814 -2.4759 0.495513 0
M  V30 3084 C 296.127 -0.402543 2.97993 0
M  V30 3085 C 297.675 -0.48405 3.09234 0
M  V30 3086 C 298.15 -0.472144 4.5556 0
M  V30 3087 N 299.641 -0.532757 4.60126 0
M  V30 3088 C 300.376 -0.545462 5.708 0
M  V30 3089 N 299.872 -0.514082 6.9089 0
M  V30 3090 N 301.665 -0.59064 5.58988 0
M  V30 3091 H 293.816 0.799121 1.96794 0
M  V30 3092 H 296.079 0.297965 0.899956 0
M  V30 3093 H 295.785 0.528106 3.47712 0
M  V30 3094 H 295.659 -1.21969 3.56936 0
M  V30 3095 H 298.046 -1.40512 2.595 0
M  V30 3096 H 298.127 0.361328 2.53235 0
M  V30 3097 H 297.771 0.445 5.05947 0
M  V30 3098 H 297.701 -1.3348 5.09402 0
M  V30 3099 H 300.192 -0.562006 3.73698 0
M  V30 3100 H 300.505 -0.527195 7.71 0
M  V30 3101 H 298.85 -0.481054 6.93333 0
M  V30 3102 H 302.041 -0.61272 4.64073 0
M  V30 3103 H 302.214 -0.597073 6.45243 0
M  V30 3104 N 295.62 -1.53406 -0.361157 0
M  V30 3105 C 296.568 -1.80832 -1.46296 0
M  V30 3106 C 297.562 -0.677699 -1.55253 0
M  V30 3107 O 298.768 -0.860723 -1.58087 0
M  V30 3108 H 295.143 -0.572627 -0.487445 0
M  V30 3109 H 297.114 -2.73045 -1.20371 0
M  V30 3110 C 295.863 -2.01907 -2.8307 0
M  V30 3111 H 295.186 -2.88349 -2.76938 0
M  V30 3112 H 296.626 -2.25072 -3.59331 0
M  V30 3113 C 295.085 -0.799449 -3.27277 0
M  V30 3114 O 295.615 0.00971761 -4.01699 0
M  V30 3115 N 293.821 -0.621637 -2.83873 0
M  V30 3116 H 293.368 -1.28126 -2.23476 0
M  V30 3117 H 293.326 0.19298 -3.13807 0
M  V30 3118 N 297.098 0.621204 -1.44841 0
M  V30 3119 C 298.514 0.94048 -1.28946 0
M  V30 3120 C 298.714 2.00154 -0.23249 0
M  V30 3121 O 297.77 2.49651 0.378237 0
M  V30 3122 C 299.083 1.39433 -2.66419 0
M  V30 3123 C 300.631 1.50927 -2.74208 0
M  V30 3124 C 301.106 1.99692 -4.12174 0
M  V30 3125 N 302.597 2.06947 -4.144 0
M  V30 3126 C 303.332 2.45871 -5.1801 0
M  V30 3127 N 302.828 2.83862 -6.31977 0
M  V30 3128 N 304.621 2.46092 -5.05366 0
M  V30 3129 H 296.772 -0.0803548 -2.12248 0
M  V30 3130 H 299.035 0.0266913 -0.947624 0
M  V30 3131 H 298.741 0.688925 -3.44887 0
M  V30 3132 H 298.615 2.36347 -2.93973 0
M  V30 3133 H 301.002 2.20561 -1.96053 0
M  V30 3134 H 301.083 0.523627 -2.50383 0
M  V30 3135 H 300.727 1.30649 -4.90809 0
M  V30 3136 H 300.657 2.99146 -4.33381 0
M  V30 3137 H 303.148 1.80232 -3.32152 0
M  V30 3138 H 303.461 3.12405 -7.0684 0
M  V30 3139 H 301.806 2.8159 -6.35399 0
M  V30 3140 H 304.997 2.1581 -4.15384 0
M  V30 3141 H 305.17 2.76102 -5.86235 0
M  V30 3142 N 298.576 1.31904 0.862503 0
M  V30 3143 C 299.524 1.20125 1.9918 0
M  V30 3144 C 300.518 0.107824 1.69056 0
M  V30 3145 O 301.724 0.270223 1.7796 0
M  V30 3146 H 298.099 0.372148 0.65346 0
M  V30 3147 H 300.07 2.15652 2.06244 0
M  V30 3148 C 298.819 0.933099 3.34946 0
M  V30 3149 H 298.142 1.76664 3.5865 0
M  V30 3150 H 299.582 0.890892 4.14535 0
M  V30 3151 C 298.041 -0.364172 3.34926 0
M  V30 3152 O 298.571 -1.37858 3.77304 0
M  V30 3153 N 296.777 -0.383362 2.8806 0
M  V30 3154 H 296.324 0.442651 2.53768 0
M  V30 3155 H 296.282 -1.25123 2.8843 0
M  V30 3156 N 300.054 -1.07777 1.14986 0
M  V30 3157 C 301.004 -2.13082 0.811181 0
M  V30 3158 C 301.988 -1.59619 -0.202597 0
M  V30 3159 O 303.18 -1.77 -0.00398275 0
M  V30 3160 C 300.309 -3.42009 0.297439 0
M  V30 3161 C 299.395 -4.02337 1.34112 0
M  V30 3162 N 299.786 -4.36982 2.54716 0
M  V30 3163 C 298.084 -4.29752 1.19285 0
M  V30 3164 C 298.785 -4.84729 3.21578 0
M  V30 3165 N 297.761 -4.83233 2.48972 0
M  V30 3166 H 301.563 -2.37696 1.72853 0
M  V30 3167 H 299.077 -1.25173 1.03468 0
M  V30 3168 H 301.074 -4.16884 0.0364777 0
M  V30 3169 H 299.734 -3.18841 -0.614022 0
M  V30 3170 H 300.745 -4.27807 2.91894 0
M  V30 3171 H 297.422 -4.16106 0.340926 0
M  V30 3172 H 298.812 -5.20863 4.24442 0
M  V30 3173 N 301.532 -0.945985 -1.26051 0
M  V30 3174 C 302.462 -0.477172 -2.28572 0
M  V30 3175 C 303.443 0.472032 -1.63419 0
M  V30 3176 O 304.628 0.372853 -1.90587 0
M  V30 3177 C 301.758 0.253975 -3.4637 0
M  V30 3178 C 300.712 -0.609135 -4.23643 0
M  V30 3179 C 300.038 0.252252 -5.34105 0
M  V30 3180 C 301.338 -1.8829 -4.8718 0
M  V30 3181 H 303.032 -1.33402 -2.68038 0
M  V30 3182 H 300.578 -0.642904 -1.28852 0
M  V30 3183 H 302.531 0.593016 -4.17207 0
M  V30 3184 H 301.255 1.145 -3.05871 0
M  V30 3185 H 299.914 -0.931138 -3.54578 0
M  V30 3186 H 299.562 1.14278 -4.89846 0
M  V30 3187 H 299.262 -0.32188 -5.86718 0
M  V30 3188 H 300.786 0.586454 -6.07777 0
M  V30 3189 H 302.2 -1.61081 -5.50205 0
M  V30 3190 H 300.597 -2.40199 -5.49931 0
M  V30 3191 H 301.667 -2.59134 -4.09851 0
M  V30 3192 N 303.011 1.40521 -0.713556 0
M  V30 3193 C 303.941 2.33381 -0.0743864 0
M  V30 3194 C 304.922 1.52784 0.747735 0
M  V30 3195 O 306.107 1.81258 0.697071 0
M  V30 3196 C 303.237 3.36748 0.849598 0
M  V30 3197 C 302.191 4.27793 0.133247 0
M  V30 3198 C 301.517 5.21679 1.17281 0
M  V30 3199 C 302.817 5.12415 -1.01134 0
M  V30 3200 H 304.511 2.87081 -0.850007 0
M  V30 3201 H 302.057 1.38034 -0.410201 0
M  V30 3202 H 304.01 4.00648 1.30612 0
M  V30 3203 H 302.734 2.81439 1.65709 0
M  V30 3204 H 301.393 3.65342 -0.303426 0
M  V30 3205 H 301.041 4.62677 1.9733 0
M  V30 3206 H 300.741 5.83435 0.698397 0
M  V30 3207 H 302.265 5.88456 1.62947 0
M  V30 3208 H 303.679 5.69781 -0.634274 0
M  V30 3209 H 302.076 5.83203 -1.41399 0
M  V30 3210 H 303.146 4.48514 -1.84292 0
M  V30 3211 N 304.489 0.459591 1.5075 0
M  V30 3212 C 305.439 -0.358926 2.25157 0
M  V30 3213 C 306.423 -0.971285 1.28276 0
M  V30 3214 O 307.615 -0.885739 1.53244 0
M  V30 3215 C 304.744 -1.44695 3.11317 0
M  V30 3216 C 303.83 -0.842894 4.15639 0
M  V30 3217 N 304.221 0.0299373 5.05791 0
M  V30 3218 C 302.519 -1.10809 4.32015 0
M  V30 3219 C 303.22 0.371563 5.80512 0
M  V30 3220 N 302.196 -0.250409 5.43023 0
M  V30 3221 H 305.998 0.313636 2.92222 0
M  V30 3222 H 303.512 0.273021 1.60089 0
M  V30 3223 H 305.509 -2.04641 3.63218 0
M  V30 3224 H 304.169 -2.12162 2.45799 0
M  V30 3225 H 305.18 0.39797 5.16369 0
M  V30 3226 H 301.857 -1.7786 3.77719 0
M  V30 3227 H 303.247 1.08319 6.63111 0
M  V30 3228 N 305.967 -1.56429 0.191757 0
M  V30 3229 C 307.213 -1.97777 -0.448554 0
M  V30 3230 C 307.546 -1.07847 -1.61501 0
M  V30 3231 O 306.821 -0.129774 -1.94067 0
M  V30 3232 C 307.104 -3.48362 -0.911906 0
M  V30 3233 C 306.957 -4.4907 0.256136 0
M  V30 3234 C 308.276 -4.02561 -1.77857 0
M  V30 3235 H 305.395 -0.719071 -0.161572 0
M  V30 3236 H 308.037 -1.87896 0.282007 0
M  V30 3237 H 306.187 -3.56914 -1.53442 0
M  V30 3238 H 307.859 -4.5256 0.893733 0
M  V30 3239 H 306.102 -4.24181 0.908436 0
M  V30 3240 H 306.773 -5.51889 -0.11053 0
M  V30 3241 H 309.249 -3.96767 -1.25359 0
M  V30 3242 H 308.125 -5.08301 -2.07174 0
M  V30 3243 H 308.386 -3.47616 -2.73158 0
M  V30 3244 N 307.445 0.0818655 -1.57387 0
M  V30 3245 C 308.692 0.782914 -1.86753 0
M  V30 3246 C 309.02 1.78082 -0.782118 0
M  V30 3247 O 308.275 1.94426 0.22295 0
M  V30 3248 C 308.574 1.53513 -3.22752 0
M  V30 3249 C 308.24 0.678134 -4.45771 0
M  V30 3250 C 306.902 0.441929 -4.79166 0
M  V30 3251 C 309.254 0.0832243 -5.21134 0
M  V30 3252 C 306.582 -0.398833 -5.85343 0
M  V30 3253 C 308.934 -0.744935 -6.28199 0
M  V30 3254 C 307.598 -0.991107 -6.60101 0
M  V30 3255 H 306.868 0.286489 -0.683378 0
M  V30 3256 H 309.515 0.0439808 -1.91449 0
M  V30 3257 H 307.82 2.34599 -3.138 0
M  V30 3258 H 309.517 2.08218 -3.42705 0
M  V30 3259 H 306.107 0.872357 -4.19628 0
M  V30 3260 H 310.291 0.252847 -4.95655 0
M  V30 3261 H 305.547 -0.598405 -6.08465 0
M  V30 3262 H 309.721 -1.21271 -6.8576 0
M  V30 3263 H 307.348 -1.64437 -7.42202 0
M  V30 3264 N 308.923 1.53595 0.353017 0
M  V30 3265 C 310.2 1.61002 1.11075 0
M  V30 3266 C 310.58 0.425356 2.0677 0
M  V30 3267 O 309.928 -0.583267 2.2093 0
M  V30 3268 C 310.138 2.96631 1.83877 0
M  V30 3269 C 311.486 3.51653 2.37961 0
M  V30 3270 O 312.51 2.98743 1.93987 0
M  V30 3271 O 311.369 4.44177 3.18386 0
M  V30 3272 H 308.463 0.650825 0.510251 0
M  V30 3273 H 311.009 1.6594 0.35527 0
M  V30 3274 H 309.781 3.74293 1.14108 0
M  V30 3275 H 309.404 2.95242 2.66304 0
M  V30 3276 N 310.401 -0.613514 1.45168 0
M  V30 3277 C 311.311 -1.75296 1.55912 0
M  V30 3278 C 312.327 -1.68244 0.443856 0
M  V30 3279 O 313.503 -1.88706 0.70371 0
M  V30 3280 C 310.568 -3.1174 1.5172 0
M  V30 3281 C 309.629 -3.30291 2.74238 0
M  V30 3282 C 308.862 -4.60226 2.70236 0
M  V30 3283 O 309.085 -5.42168 1.77229 0
M  V30 3284 O 308.019 -4.81361 3.61352 0
M  V30 3285 H 311.845 -1.69183 2.52212 0
M  V30 3286 H 309.43 -0.776886 1.27612 0
M  V30 3287 H 311.312 -3.93044 1.51968 0
M  V30 3288 H 309.987 -3.18357 0.585697 0
M  V30 3289 H 308.894 -2.48598 2.79553 0
M  V30 3290 H 310.227 -3.28547 3.66494 0
M  V30 3291 N 311.879 -1.3236 -0.855495 0
M  V30 3292 C 313.109 -1.25688 -1.6397 0
M  V30 3293 C 313.517 0.177592 -1.88365 0
M  V30 3294 O 312.86 1.12485 -1.45234 0
M  V30 3295 C 312.922 -1.94602 -3.02275 0
M  V30 3296 C 312.586 -3.43937 -3.00926 0
M  V30 3297 C 313.583 -4.39435 -2.77835 0
M  V30 3298 C 311.268 -3.85858 -3.21588 0
M  V30 3299 C 313.262 -5.74829 -2.75409 0
M  V30 3300 C 310.949 -5.21361 -3.18789 0
M  V30 3301 C 311.947 -6.15658 -2.95727 0
M  V30 3302 O 311.635 -7.48681 -2.928 0
M  V30 3303 H 311.367 -0.434972 -0.51747 0
M  V30 3304 H 313.921 -1.75023 -1.075 0
M  V30 3305 H 312.151 -1.39836 -3.60531 0
M  V30 3306 H 313.84 -1.81651 -3.62985 0
M  V30 3307 H 314.606 -4.08374 -2.6164 0
M  V30 3308 H 310.485 -3.12883 -3.38564 0
M  V30 3309 H 314.029 -6.48404 -2.57328 0
M  V30 3310 H 309.926 -5.52052 -3.34528 0
M  V30 3311 H 310.694 -7.5803 -3.0876 0
M  V30 3312 N 313.357 1.07166 -1.15556 0
M  V30 3313 C 314.304 2.14417 -0.854055 0
M  V30 3314 C 315.274 1.64965 0.193806 0
M  V30 3315 O 316.459 1.90703 0.0609443 0
M  V30 3316 C 313.599 3.43304 -0.351574 0
M  V30 3317 C 312.712 4.06537 -1.46123 0
M  V30 3318 C 311.847 5.23266 -0.914677 0
M  V30 3319 C 310.886 5.78464 -2.00114 0
M  V30 3320 N 310.023 6.86521 -1.47083 0
M  V30 3321 H 314.863 2.39548 -1.77259 0
M  V30 3322 H 312.4 1.17543 -0.884425 0
M  V30 3323 H 314.358 4.17179 -0.0419409 0
M  V30 3324 H 312.988 3.18419 0.530037 0
M  V30 3325 H 312.04 3.30297 -1.88701 0
M  V30 3326 H 313.352 4.43567 -2.28144 0
M  V30 3327 H 312.506 6.04131 -0.557698 0
M  V30 3328 H 311.245 4.87658 -0.0636583 0
M  V30 3329 H 310.25 4.96243 -2.36692 0
M  V30 3330 H 311.475 6.16126 -2.85597 0
M  V30 3331 H 309.421 6.52849 -0.642198 0
M  V30 3332 H 309.338 7.22446 -2.22729 0
M  V30 3333 H 310.606 7.71087 -1.14215 0
M  V30 3334 N 314.835 0.952656 1.25548 0
M  V30 3335 C 316.251 0.656769 1.4546 0
M  V30 3336 C 316.451 -0.78633 1.85524 0
M  V30 3337 O 315.507 -1.56183 1.98402 0
M  V30 3338 C 316.82 1.62801 2.52817 0
M  V30 3339 C 318.368 1.63897 2.66659 0
M  V30 3340 C 318.843 2.5978 3.77198 0
M  V30 3341 N 320.334 2.58133 3.84606 0
M  V30 3342 C 321.069 3.29003 4.69621 0
M  V30 3343 N 320.565 4.09339 5.58939 0
M  V30 3344 N 322.358 3.179 4.63569 0
M  V30 3345 H 314.509 1.88526 0.978344 0
M  V30 3346 H 316.772 0.810815 0.491206 0
M  V30 3347 H 316.478 2.65869 2.30232 0
M  V30 3348 H 316.352 1.38898 3.50695 0
M  V30 3349 H 318.739 0.615481 2.8861 0
M  V30 3350 H 318.82 1.91858 1.69187 0
M  V30 3351 H 318.464 3.62254 3.55997 0
M  V30 3352 H 318.394 2.29105 4.7415 0
M  V30 3353 H 320.885 1.99809 3.20757 0
M  V30 3354 H 321.198 4.6034 6.20731 0
M  V30 3355 H 319.543 4.13438 5.58654 0
M  V30 3356 H 322.734 2.54612 3.92798 0
M  V30 3357 H 322.907 3.73398 5.29602 0
M  V30 3358 N 316.313 -1.40141 0.720998 0
M  V30 3359 C 317.562 -2.0002 0.259804 0
M  V30 3360 C 317.875 -1.57839 -1.15526 0
M  V30 3361 O 319.081 -2.10455 -1.71525 0
M  V30 3362 C 317.537 -3.57516 0.413566 0
M  V30 3363 C 317.145 -4.08667 1.83562 0
M  V30 3364 C 318.889 -4.24498 0.0134387 0
M  V30 3365 C 316.796 -5.58686 1.93968 0
M  V30 3366 H 315.726 -0.748195 0.0933806 0
M  V30 3367 H 318.377 -1.60313 0.892866 0
M  V30 3368 H 316.759 -3.9495 -0.288169 0
M  V30 3369 H 317.933 -3.82598 2.56817 0
M  V30 3370 H 316.248 -3.543 2.1877 0
M  V30 3371 H 318.845 -5.34654 0.0703954 0
M  V30 3372 H 319.188 -4.03375 -1.02927 0
M  V30 3373 H 319.721 -3.92188 0.665815 0
M  V30 3374 H 316.46 -5.8467 2.96379 0
M  V30 3375 H 315.98 -5.86602 1.25131 0
M  V30 3376 H 317.659 -6.23875 1.71431 0
M  V30 3377 N 317.792 -0.46758 -1.50504 0
M  V30 3378 C 319.017 0.0886943 -2.0721 0
M  V30 3379 C 319.442 1.33057 -1.32956 0
M  V30 3380 O 318.8 1.77354 -0.376197 0
M  V30 3381 C 318.848 0.359202 -3.58806 0
M  V30 3382 O 317.952 1.44034 -3.8643 0
M  V30 3383 H 317.293 -0.0114349 -0.663902 0
M  V30 3384 H 319.823 -0.657613 -1.93744 0
M  V30 3385 H 319.833 0.600742 -4.03553 0
M  V30 3386 H 318.508 -0.548311 -4.1227 0
M  V30 3387 H 317.085 1.18638 -3.53524 0
M  V30 3388 N 319.27 1.56325 -0.20005 0
M  V30 3389 C 320.202 2.16555 0.750771 0
M  V30 3390 C 321.215 1.12871 1.1732 0
M  V30 3391 O 322.404 1.39943 1.10807 0
M  V30 3392 C 319.504 2.71684 2.02586 0
M  V30 3393 C 318.677 4.00321 1.76244 0
M  V30 3394 C 317.736 4.40227 2.88248 0
M  V30 3395 O 316.762 5.07552 2.57642 0
M  V30 3396 N 317.964 4.04138 4.16717 0
M  V30 3397 H 320.729 2.98772 0.235685 0
M  V30 3398 H 318.29 1.6189 -0.0182594 0
M  V30 3399 H 320.282 2.95363 2.76664 0
M  V30 3400 H 318.852 1.93893 2.45202 0
M  V30 3401 H 318.072 3.84723 0.85919 0
M  V30 3402 H 319.36 4.84279 1.56048 0
M  V30 3403 H 318.758 3.49993 4.44434 0
M  V30 3404 H 317.315 4.32756 4.87407 0
M  V30 3405 N 320.748 -0.0735177 1.57428 0
M  V30 3406 C 321.695 -1.08756 2.0357 0
M  V30 3407 C 322.665 -1.38559 0.916 0
M  V30 3408 O 323.85 -1.49656 1.18354 0
M  V30 3409 C 320.99 -2.39657 2.48311 0
M  V30 3410 C 320.103 -2.16399 3.73892 0
M  V30 3411 C 319.238 -3.40852 4.07423 0
M  V30 3412 C 318.277 -3.1295 5.2605 0
M  V30 3413 N 317.414 -4.29729 5.55228 0
M  V30 3414 H 322.254 -0.687104 2.8997 0
M  V30 3415 H 319.791 -0.327709 1.43403 0
M  V30 3416 H 321.749 -3.16081 2.72303 0
M  V30 3417 H 320.379 -2.77508 1.64891 0
M  V30 3418 H 319.431 -1.30676 3.57251 0
M  V30 3419 H 320.743 -1.91788 4.60455 0
M  V30 3420 H 319.897 -4.25671 4.32306 0
M  V30 3421 H 318.636 -3.68537 3.19425 0
M  V30 3422 H 317.641 -2.26526 5.00965 0
M  V30 3423 H 318.866 -2.86589 6.15665 0
M  V30 3424 H 316.812 -4.57448 4.70188 0
M  V30 3425 H 316.729 -4.08385 6.36206 0
M  V30 3426 H 317.997 -5.1555 5.84661 0
M  V30 3427 N 322.226 -1.5378 -0.344866 0
M  V30 3428 C 323.503 -1.61589 -1.10219 0
M  V30 3429 C 323.883 -0.436316 -2.06542 0
M  V30 3430 O 323.231 0.571543 -2.21237 0
M  V30 3431 C 323.441 -2.97602 -1.82301 0
M  V30 3432 C 324.789 -3.5291 -2.36093 0
M  V30 3433 O 325.813 -2.99768 -1.924 0
M  V30 3434 O 324.672 -4.45859 -3.16026 0
M  V30 3435 H 321.766 -0.653522 -0.506792 0
M  V30 3436 H 324.312 -1.66126 -0.346465 0
M  V30 3437 H 323.084 -3.74893 -1.12121 0
M  V30 3438 H 322.707 -2.9665 -2.64735 0
M  V30 3439 N 323.704 0.605807 -1.45491 0
M  V30 3440 C 324.953 1.36086 -1.48874 0
M  V30 3441 C 325.266 1.95131 -0.135333 0
M  V30 3442 O 326.472 2.7146 -0.0468144 0
M  V30 3443 C 324.928 2.46518 -2.62215 0
M  V30 3444 C 324.536 1.93877 -4.03876 0
M  V30 3445 C 326.28 3.23512 -2.74846 0
M  V30 3446 C 324.187 3.01801 -5.08596 0
M  V30 3447 H 323.117 0.511497 -0.553974 0
M  V30 3448 H 325.768 0.649089 -1.71636 0
M  V30 3449 H 324.15 3.20388 -2.32739 0
M  V30 3450 H 325.324 1.26704 -4.43038 0
M  V30 3451 H 323.639 1.29622 -3.95711 0
M  V30 3452 H 326.236 4.04013 -3.50253 0
M  V30 3453 H 326.579 3.74631 -1.81542 0
M  V30 3454 H 327.112 2.56742 -3.03856 0
M  V30 3455 H 323.851 2.55597 -6.03614 0
M  V30 3456 H 323.371 3.67535 -4.74002 0
M  V30 3457 H 325.05 3.66152 -5.33424 0
M  V30 3458 N 325.182 1.32811 0.848464 0
M  V30 3459 C 326.092 1.24278 1.98978 0
M  V30 3460 C 327.108 0.155176 1.73307 0
M  V30 3461 O 328.284 0.376999 1.9784 0
M  V30 3462 C 325.349 0.972444 3.32783 0
M  V30 3463 C 324.41 2.14911 3.71634 0
M  V30 3464 C 323.643 1.89157 4.99054 0
M  V30 3465 O 323.866 0.837165 5.64223 0
M  V30 3466 O 322.8 2.75433 5.35183 0
M  V30 3467 H 326.626 2.20238 2.09115 0
M  V30 3468 H 324.211 1.12762 0.980052 0
M  V30 3469 H 326.093 0.838432 4.12975 0
M  V30 3470 H 324.768 0.043051 3.23671 0
M  V30 3471 H 323.675 2.33862 2.91992 0
M  V30 3472 H 325.008 3.06151 3.85399 0
M  V30 3473 N 326.66 -1.06551 1.16123 0
M  V30 3474 C 327.592 -2.13908 0.823171 0
M  V30 3475 C 328.605 -1.61926 -0.16843 0
M  V30 3476 O 329.794 -1.78412 0.055962 0
M  V30 3477 C 326.894 -3.38283 0.204424 0
M  V30 3478 C 326.067 -4.19589 1.23548 0
M  V30 3479 C 325.126 -5.2233 0.637011 0
M  V30 3480 O 324.152 -5.54034 1.30516 0
M  V30 3481 N 325.354 -5.77621 -0.577474 0
M  V30 3482 H 328.119 -2.43508 1.74711 0
M  V30 3483 H 325.68 -1.2253 1.05821 0
M  V30 3484 H 327.672 -4.0416 -0.208909 0
M  V30 3485 H 326.242 -3.06329 -0.623012 0
M  V30 3486 H 325.462 -3.49406 1.82507 0
M  V30 3487 H 326.75 -4.70718 1.93137 0
M  V30 3488 H 326.148 -5.54125 -1.13853 0
M  V30 3489 H 324.705 -6.45087 -0.933053 0
M  V30 3490 N 328.138 -0.959301 -1.25041 0
M  V30 3491 C 329.363 -0.633507 -1.97488 0
M  V30 3492 C 329.788 0.788555 -1.70773 0
M  V30 3493 O 329.146 1.53394 -0.966431 0
M  V30 3494 C 329.194 -0.904057 -3.49083 0
M  V30 3495 O 328.298 0.0147939 -4.12397 0
M  V30 3496 H 327.639 -0.240368 -0.618966 0
M  V30 3497 H 330.169 -1.28717 -1.59038 0
M  V30 3498 H 330.179 -0.832203 -3.99423 0
M  V30 3499 H 328.854 -1.94048 -3.67856 0
M  V30 3500 H 327.431 -0.109664 -3.72739 0
M  V30 3501 N 329.616 1.39756 -0.72842 0
M  V30 3502 C 330.865 1.99879 -0.270407 0
M  V30 3503 C 331.178 1.58449 1.14688 0
M  V30 3504 O 332.384 2.11362 1.70407 0
M  V30 3505 C 330.84 3.57292 -0.43252 0
M  V30 3506 C 330.448 4.07688 -1.85727 0
M  V30 3507 C 332.192 4.24485 -0.0359507 0
M  V30 3508 C 330.099 5.5765 -1.96928 0
M  V30 3509 H 329.029 0.747689 -0.0973472 0
M  V30 3510 H 331.68 1.59837 -0.901355 0
M  V30 3511 H 330.062 3.95097 0.267219 0
M  V30 3512 H 331.236 3.81231 -2.58843 0
M  V30 3513 H 329.551 3.53135 -2.20646 0
M  V30 3514 H 332.148 5.34609 -0.0987484 0
M  V30 3515 H 332.491 4.03915 1.00787 0
M  V30 3516 H 333.024 3.9183 -0.686604 0
M  V30 3517 H 329.763 5.8309 -2.99476 0
M  V30 3518 H 329.283 5.8593 -1.28241 0
M  V30 3519 H 330.962 6.22957 -1.74737 0
M  V30 3520 N 331.094 0.475555 1.50254 0
M  V30 3521 C 332.041 -0.316293 2.28622 0
M  V30 3522 C 333.011 -0.983227 1.33873 0
M  V30 3523 O 334.196 -0.994805 1.62814 0
M  V30 3524 C 331.336 -1.38975 3.1588 0
M  V30 3525 C 330.449 -0.737146 4.25664 0
M  V30 3526 C 329.584 -1.78887 5.00173 0
M  V30 3527 C 328.623 -1.11676 6.01826 0
M  V30 3528 N 327.76 -2.11154 6.69596 0
M  V30 3529 H 332.6 0.358297 2.95838 0
M  V30 3530 H 330.137 0.188541 1.45887 0
M  V30 3531 H 332.095 -2.02383 3.64825 0
M  V30 3532 H 330.725 -2.03344 2.50701 0
M  V30 3533 H 329.777 0.0096065 3.80399 0
M  V30 3534 H 331.089 -0.206816 4.98371 0
M  V30 3535 H 330.243 -2.49865 5.52859 0
M  V30 3536 H 328.982 -2.35302 4.27182 0
M  V30 3537 H 327.987 -0.392633 5.48396 0
M  V30 3538 H 329.212 -0.55945 6.76792 0
M  V30 3539 H 327.158 -2.66577 5.99394 0
M  V30 3540 H 327.075 -1.63118 7.38193 0
M  V30 3541 H 328.343 -2.81497 7.26897 0
M  V30 3542 N 332.573 -1.56217 0.208337 0
M  V30 3543 C 333.798 -2.02782 -0.435222 0
M  V30 3544 C 334.223 -1.08738 -1.53485 0
M  V30 3545 O 333.581 -0.0731855 -1.81152 0
M  V30 3546 C 333.629 -3.47687 -0.956335 0
M  V30 3547 O 332.733 -3.56773 -2.06849 0
M  V30 3548 H 332.074 -0.656403 -0.100158 0
M  V30 3549 H 334.604 -2.02033 0.3231 0
M  V30 3550 H 334.614 -3.87745 -1.26955 0
M  V30 3551 H 333.289 -4.15624 -0.15143 0
M  V30 3552 H 331.866 -3.28597 -1.76292 0
M  V30 3553 N 334.051 0.0651679 -1.57465 0
M  V30 3554 C 334.961 1.09448 -2.07505 0
M  V30 3555 C 335.977 1.41974 -1.00595 0
M  V30 3556 O 337.153 1.52018 -1.32107 0
M  V30 3557 C 334.218 2.38689 -2.51453 0
M  V30 3558 C 333.279 2.13073 -3.72691 0
M  V30 3559 C 332.512 3.36152 -4.14533 0
M  V30 3560 O 332.735 4.45517 -3.56189 0
M  V30 3561 O 331.669 3.23974 -5.07272 0
M  V30 3562 H 335.495 0.69935 -2.95538 0
M  V30 3563 H 333.08 0.279752 -1.46757 0
M  V30 3564 H 334.962 3.14736 -2.80212 0
M  V30 3565 H 333.637 2.77568 -1.66546 0
M  V30 3566 H 332.544 1.34709 -3.49005 0
M  V30 3567 H 333.877 1.79071 -4.5847 0
M  V30 3568 N 335.529 1.53961 0.336706 0
M  V30 3569 C 336.757 1.75483 1.09605 0
M  V30 3570 C 337.172 0.4972 1.82136 0
M  V30 3571 O 336.529 -0.53149 1.74589 0
M  V30 3572 C 336.58 2.93943 2.10428 0
M  V30 3573 O 336.301 4.14842 1.40846 0
M  V30 3574 C 337.802 3.27571 2.98684 0
M  V30 3575 H 335.022 0.586166 0.326574 0
M  V30 3576 H 337.566 2.00808 0.38683 0
M  V30 3577 H 335.721 2.70929 2.76905 0
M  V30 3578 H 336.135 4.81383 2.08255 0
M  V30 3579 H 337.609 4.13791 3.6535 0
M  V30 3580 H 338.086 2.44168 3.65074 0
M  V30 3581 H 338.692 3.52615 2.37787 0
M  V30 3582 N 337.007 -0.598083 1.45811 0
M  V30 3583 C 338.232 -1.3881 1.54099 0
M  V30 3584 C 338.657 -1.8726 0.177578 0
M  V30 3585 O 338.015 -1.6069 -0.839541 0
M  V30 3586 C 338.063 -2.56217 2.53743 0
M  V30 3587 O 337.167 -3.5716 2.06182 0
M  V30 3588 H 336.508 -0.414024 0.519115 0
M  V30 3589 H 339.038 -0.726971 1.91249 0
M  V30 3590 H 339.048 -3.03337 2.72856 0
M  V30 3591 H 337.723 -2.20303 3.5276 0
M  V30 3592 H 336.3 -3.16624 1.96987 0
M  V30 3593 N 338.485 -1.33259 -0.841409 0
M  V30 3594 C 339.733 -1.24326 -1.59334 0
M  V30 3595 C 340.054 0.191564 -1.94057 0
M  V30 3596 O 339.324 1.11967 -1.60749 0
M  V30 3597 H 337.904 -0.457174 -0.590763 0
M  V30 3598 H 340.566 -1.66947 -1.00571 0
M  V30 3599 H 339.662 -1.8352 -2.52442 0
M  V30 3600 N 339.963 1.05934 -1.16686 0
M  V30 3601 C 341.188 1.83029 -0.975455 0
M  V30 3602 C 341.613 1.82096 0.471452 0
M  V30 3603 O 340.971 1.22443 1.33706 0
M  V30 3604 C 341.019 3.27372 -1.51195 0
M  V30 3605 O 340.123 4.06054 -0.720701 0
M  V30 3606 H 339.464 0.566194 -0.346872 0
M  V30 3607 H 341.994 1.33541 -1.55009 0
M  V30 3608 H 342.004 3.78186 -1.53099 0
M  V30 3609 H 340.679 3.27366 -2.56523 0
M  V30 3610 H 339.256 3.64812 -0.772458 0
M  V30 3611 N 341.441 0.965919 1.2453 0
M  V30 3612 C 342.688 0.626831 1.92554 0
M  V30 3613 C 343.016 -0.837739 1.75534 0
M  V30 3614 O 342.271 -1.61793 1.10098 0
M  V30 3615 C 342.57 0.945428 3.44669 0
M  V30 3616 C 342.236 2.39785 3.81856 0
M  V30 3617 C 340.898 2.79483 3.91718 0
M  V30 3618 C 343.25 3.34055 4.00071 0
M  V30 3619 C 340.578 4.12496 4.1721 0
M  V30 3620 C 342.93 4.66694 4.27059 0
M  V30 3621 C 341.594 5.06172 4.3514 0
M  V30 3622 H 340.864 0.229374 0.704605 0
M  V30 3623 H 343.511 1.21707 1.4785 0
M  V30 3624 H 341.816 0.272926 3.90848 0
M  V30 3625 H 343.513 0.661484 3.95507 0
M  V30 3626 H 340.103 2.08003 3.74743 0
M  V30 3627 H 344.287 3.04571 3.91855 0
M  V30 3628 H 339.543 4.42709 4.21685 0
M  V30 3629 H 343.717 5.3971 4.40097 0
M  V30 3630 H 341.344 6.09262 4.54646 0
M  V30 3631 N 342.919 -1.39368 0.735821 0
M  V30 3632 C 343.829 -2.34395 0.0979693 0
M  V30 3633 C 344.845 -1.58361 -0.720968 0
M  V30 3634 O 346.021 -1.90648 -0.649245 0
M  V30 3635 C 343.086 -3.37393 -0.797916 0
M  V30 3636 C 342.147 -4.29287 0.0333662 0
M  V30 3637 C 341.38 -5.27365 -0.819854 0
M  V30 3638 O 341.603 -5.31959 -2.05855 0
M  V30 3639 O 340.537 -6.01389 -0.248079 0
M  V30 3640 H 344.363 -2.90601 0.882315 0
M  V30 3641 H 341.948 -1.40909 0.4965 0
M  V30 3642 H 343.83 -4.00505 -1.31048 0
M  V30 3643 H 342.505 -2.83571 -1.56106 0
M  V30 3644 H 341.412 -3.69395 0.591475 0
M  V30 3645 H 342.745 -4.86317 0.758752 0
M  V30 3646 N 344.397 -0.483516 -1.5 0
M  V30 3647 C 345.674 0.129337 -1.95172 0
M  V30 3648 C 346.054 1.55802 -1.4244 0
M  V30 3649 O 345.402 2.19625 -0.630649 0
M  V30 3650 C 345.612 0.0599251 -3.48949 0
M  V30 3651 C 346.96 0.242617 -4.23906 0
M  V30 3652 O 347.984 0.135933 -3.55941 0
M  V30 3653 O 346.843 0.459454 -5.44565 0
M  V30 3654 H 343.937 0.104887 -0.820322 0
M  V30 3655 H 346.483 -0.544807 -1.60717 0
M  V30 3656 H 345.255 -0.937079 -3.79914 0
M  V30 3657 H 344.878 0.774984 -3.89974 0
M  V30 3658 N 345.875 1.56104 -0.216619 0
M  V30 3659 C 346.838 2.18819 0.681962 0
M  V30 3660 C 347.838 1.14866 1.12528 0
M  V30 3661 O 349.028 1.40128 1.03488 0
M  V30 3662 C 346.16 2.80756 1.93362 0
M  V30 3663 H 347.353 2.99595 0.135254 0
M  V30 3664 H 344.906 1.56265 0.0330003 0
M  V30 3665 H 345.641 2.03837 2.52232 0
M  V30 3666 H 345.426 3.56876 1.62426 0
M  V30 3667 H 346.916 3.28844 2.57393 0
M  V30 3668 N 347.353 -0.0568162 1.57498 0
M  V30 3669 C 348.283 -1.06593 2.0775 0
M  V30 3670 C 349.264 -1.39448 0.974082 0
M  V30 3671 O 350.449 -1.48815 1.24771 0
M  V30 3672 C 347.579 -2.37509 2.5339 0
M  V30 3673 C 346.533 -2.1897 3.67745 0
M  V30 3674 C 345.859 -3.55402 3.99492 0
M  V30 3675 C 347.159 -1.59859 4.97235 0
M  V30 3676 H 348.853 -0.647706 2.9231 0
M  V30 3677 H 346.399 -0.310116 1.40621 0
M  V30 3678 H 348.352 -3.08409 2.87162 0
M  V30 3679 H 347.076 -2.8134 1.65878 0
M  V30 3680 H 345.735 -1.50508 3.3428 0
M  V30 3681 H 345.383 -3.9683 3.09088 0
M  V30 3682 H 345.083 -3.43831 4.76502 0
M  V30 3683 H 346.607 -4.27708 4.35773 0
M  V30 3684 H 348.021 -2.20642 5.29141 0
M  V30 3685 H 346.418 -1.58942 5.78669 0
M  V30 3686 H 347.488 -0.561506 4.81638 0
M  V30 3687 N 348.832 -1.54138 -0.328536 0
M  V30 3688 C 349.762 -1.86167 -1.40939 0
M  V30 3689 C 350.743 -0.718044 -1.54202 0
M  V30 3690 O 351.928 -0.971328 -1.68163 0
M  V30 3691 C 349.058 -2.08461 -2.77779 0
M  V30 3692 C 348.012 -3.24299 -2.7931 0
M  V30 3693 C 347.338 -3.31955 -4.19178 0
M  V30 3694 C 348.638 -4.62065 -2.43502 0
M  V30 3695 H 350.332 -2.76689 -1.14383 0
M  V30 3696 H 347.878 -1.33132 -0.548806 0
M  V30 3697 H 349.831 -2.29453 -3.53454 0
M  V30 3698 H 348.555 -1.14684 -3.05802 0
M  V30 3699 H 347.214 -3.03187 -2.0609 0
M  V30 3700 H 346.862 -2.35745 -4.44335 0
M  V30 3701 H 346.562 -4.09805 -4.2111 0
M  V30 3702 H 348.086 -3.55175 -4.96672 0
M  V30 3703 H 349.5 -4.8297 -3.08889 0
M  V30 3704 H 347.897 -5.42429 -2.56693 0
M  V30 3705 H 348.967 -4.64652 -1.38659 0
M  V30 3706 N 350.31 0.590341 -1.46126 0
M  V30 3707 C 351.273 1.68194 -1.55703 0
M  V30 3708 C 352.273 1.54808 -0.434868 0
M  V30 3709 O 353.463 1.59564 -0.698928 0
M  V30 3710 C 350.595 3.07575 -1.47005 0
M  V30 3711 H 351.788 1.61064 -2.52979 0
M  V30 3712 H 349.341 0.807541 -1.33823 0
M  V30 3713 H 350.076 3.20268 -0.509785 0
M  V30 3714 H 349.861 3.187 -2.28414 0
M  V30 3715 H 351.351 3.87055 -1.56776 0
M  V30 3716 N 351.788 1.33704 0.83433 0
M  V30 3717 C 353.037 1.24763 1.58484 0
M  V30 3718 C 353.35 -0.183775 1.94735 0
M  V30 3719 O 354.556 -0.395234 2.68608 0
M  V30 3720 C 353.012 2.18638 2.85876 0
M  V30 3721 C 352.62 3.66974 2.56971 0
M  V30 3722 C 354.364 2.18581 3.63899 0
M  V30 3723 C 352.271 4.5275 3.80488 0
M  V30 3724 H 351.201 0.463425 0.594772 0
M  V30 3725 H 353.852 1.58797 0.919551 0
M  V30 3726 H 352.234 1.77542 3.5397 0
M  V30 3727 H 353.408 4.16538 1.9706 0
M  V30 3728 H 351.723 3.69366 1.92244 0
M  V30 3729 H 354.32 2.79894 4.55591 0
M  V30 3730 H 354.663 1.18207 3.99165 0
M  V30 3731 H 355.196 2.58062 3.02735 0
M  V30 3732 H 351.935 5.54017 3.5035 0
M  V30 3733 H 351.455 4.07927 4.39722 0
M  V30 3734 H 353.134 4.66784 4.4802 0
M  V30 3735 N 353.266 -1.05314 1.17247 0
M  V30 3736 C 354.512 -1.78557 0.961513 0
M  V30 3737 C 354.845 -1.87419 -0.508697 0
M  V30 3738 O 354.12 -1.37307 -1.37757 0
M  V30 3739 C 354.403 -3.22514 1.60176 0
M  V30 3740 C 354.256 -3.21673 3.14399 0
M  V30 3741 C 355.575 -4.20318 1.30463 0
M  V30 3742 H 352.694 -0.6482 0.350723 0
M  V30 3743 H 355.336 -1.23102 1.44727 0
M  V30 3744 H 353.486 -3.69867 1.18871 0
M  V30 3745 H 355.158 -2.82405 3.64753 0
M  V30 3746 H 353.401 -2.60048 3.47214 0
M  V30 3747 H 354.072 -4.23271 3.54324 0
M  V30 3748 H 356.548 -3.81454 1.66229 0
M  V30 3749 H 355.424 -5.19289 1.77848 0
M  V30 3750 H 355.685 -4.41526 0.22521 0
M  V30 3751 N 354.744 -0.972509 -1.24016 0
M  V30 3752 C 355.691 -0.505969 -2.25186 0
M  V30 3753 C 356.661 0.451009 -1.5986 0
M  V30 3754 O 357.846 0.360307 -1.87367 0
M  V30 3755 C 354.986 0.193089 -3.44559 0
M  V30 3756 C 354.099 -0.803222 -4.24467 0
M  V30 3757 C 353.234 -0.0797793 -5.3114 0
M  V30 3758 C 352.273 -1.06583 -6.02749 0
M  V30 3759 N 351.41 -0.372074 -7.01113 0
M  V30 3760 H 356.25 -1.37351 -2.64459 0
M  V30 3761 H 353.787 -0.688419 -1.29997 0
M  V30 3762 H 355.745 0.615125 -4.1264 0
M  V30 3763 H 354.375 1.02455 -3.06109 0
M  V30 3764 H 353.427 -1.34368 -3.55878 0
M  V30 3765 H 354.739 -1.55494 -4.73944 0
M  V30 3766 H 353.893 0.400015 -6.0538 0
M  V30 3767 H 352.632 0.704597 -4.82583 0
M  V30 3768 H 351.637 -1.55645 -5.27309 0
M  V30 3769 H 352.862 -1.85074 -6.53395 0
M  V30 3770 H 350.808 0.393238 -6.5482 0
M  V30 3771 H 350.725 -1.06258 -7.48495 0
M  V30 3772 H 351.993 0.0855932 -7.79453 0
M  V30 3773 N 356.222 1.38976 -0.743202 0
M  V30 3774 C 357.462 2.02193 -0.29954 0
M  V30 3775 C 357.826 1.5771 1.09506 0
M  V30 3776 O 359.027 2.13184 1.63726 0
M  V30 3777 C 357.298 3.55077 -0.406822 0
M  V30 3778 S 358.857 4.38778 -0.0442109 0
M  V30 3779 H 355.675 0.701335 -0.116836 0
M  V30 3780 H 358.277 1.69651 -0.971529 0
M  V30 3781 H 356.981 3.84942 -1.42295 0
M  V30 3782 H 356.512 3.92383 0.282707 0
M  V30 3783 H 358.527 4.82222 1.16947 0
M  V30 3784 N 357.7 0.491464 1.49741 0
M  V30 3785 C 358.633 -0.338464 2.25676 0
M  V30 3786 C 359.611 -0.978676 1.29849 0
M  V30 3787 O 360.795 -1.01064 1.59117 0
M  V30 3788 C 357.922 -1.47588 3.04853 0
M  V30 3789 C 356.968 -0.951 4.15762 0
M  V30 3790 S 357.801 0.150626 5.35288 0
M  V30 3791 C 358.957 -0.990178 6.18018 0
M  V30 3792 H 359.19 0.306068 2.9572 0
M  V30 3793 H 356.723 0.276622 1.51902 0
M  V30 3794 H 358.681 -2.12764 3.51058 0
M  V30 3795 H 357.342 -2.09199 2.34296 0
M  V30 3796 H 356.535 -1.80311 4.70642 0
M  V30 3797 H 356.137 -0.376607 3.72099 0
M  V30 3798 H 358.429 -1.89748 6.50386 0
M  V30 3799 H 359.372 -0.480205 7.0647 0
M  V30 3800 H 359.78 -1.25321 5.50413 0
M  V30 3801 N 359.178 -1.55987 0.224894 0
M  V30 3802 C 360.594 -1.59066 -0.130426 0
M  V30 3803 C 360.794 -1.24176 -1.5869 0
M  V30 3804 O 359.85 -0.978592 -2.32766 0
M  V30 3805 C 361.163 -3.00042 0.198883 0
M  V30 3806 C 362.711 -3.1268 0.141391 0
M  V30 3807 C 363.186 -4.55839 0.444422 0
M  V30 3808 N 364.677 -4.6152 0.394115 0
M  V30 3809 C 365.412 -5.70231 0.602038 0
M  V30 3810 N 364.908 -6.87291 0.871914 0
M  V30 3811 N 366.701 -5.59555 0.534245 0
M  V30 3812 H 358.852 -1.76941 1.17497 0
M  V30 3813 H 361.115 -0.822604 0.471197 0
M  V30 3814 H 360.821 -3.30234 1.2099 0
M  V30 3815 H 360.695 -3.74075 -0.484535 0
M  V30 3816 H 363.082 -2.82283 -0.860265 0
M  V30 3817 H 363.163 -2.40969 0.858335 0
M  V30 3818 H 362.807 -4.86954 1.44353 0
M  V30 3819 H 362.737 -5.2578 -0.293752 0
M  V30 3820 H 365.228 -3.77405 0.193356 0
M  V30 3821 H 365.541 -7.66058 1.01858 0
M  V30 3822 H 363.886 -6.89028 0.909145 0
M  V30 3823 H 367.077 -4.6698 0.323612 0
M  V30 3824 H 367.25 -6.44211 0.699693 0
M  V30 3825 N 360.656 0.0484629 -1.57525 0
M  V30 3826 C 361.604 1.07359 -2.06341 0
M  V30 3827 C 362.598 1.3865 -0.973269 0
M  V30 3828 O 363.804 1.37783 -1.15827 0
M  V30 3829 H 360.179 0.363662 -0.65822 0
M  V30 3830 H 362.15 0.635916 -2.91545 0
M  V30 3831 C 360.899 2.37198 -2.54229 0
M  V30 3832 H 360.222 2.13977 -3.37719 0
M  V30 3833 H 361.662 3.07319 -2.92115 0
M  V30 3834 C 360.121 3.04805 -1.43511 0
M  V30 3835 O 360.651 3.93848 -0.79034 0
M  V30 3836 N 358.857 2.65811 -1.17444 0
M  V30 3837 H 358.404 1.93488 -1.70059 0
M  V30 3838 H 358.362 3.11366 -0.435737 0
M  V30 3839 N 362.134 1.5431 0.320358 0
M  V30 3840 C 363.081 1.83918 1.39438 0
M  V30 3841 C 364.051 0.686525 1.51248 0
M  V30 3842 O 365.236 0.933269 1.66417 0
M  V30 3843 C 362.376 2.075 2.75749 0
M  V30 3844 C 361.489 3.35177 2.72544 0
M  V30 3845 C 360.624 3.48704 4.00723 0
M  V30 3846 C 359.663 4.70244 3.91838 0
M  V30 3847 N 358.8 4.80679 5.11754 0
M  V30 3848 H 363.64 2.75544 1.13489 0
M  V30 3849 H 361.177 1.36459 0.549309 0
M  V30 3850 H 363.135 2.19166 3.54996 0
M  V30 3851 H 361.765 1.19163 3 0
M  V30 3852 H 360.817 3.32233 1.85271 0
M  V30 3853 H 362.129 4.24534 2.61863 0
M  V30 3854 H 361.283 3.59928 4.88402 0
M  V30 3855 H 360.022 2.57445 4.14214 0
M  V30 3856 H 359.027 4.59072 3.02544 0
M  V30 3857 H 360.252 5.6289 3.7991 0
M  V30 3858 H 358.198 3.92337 5.25745 0
M  V30 3859 H 358.115 5.64007 5.0342 0
M  V30 3860 H 359.383 4.96239 6.01138 0
M  V30 3861 N 363.613 -0.582584 1.46437 0
M  V30 3862 C 364.838 -1.37168 1.55563 0
M  V30 3863 C 365.263 -1.87061 0.19743 0
M  V30 3864 O 364.621 -1.61572 -0.822451 0
M  V30 3865 C 364.669 -2.53511 2.56446 0
M  V30 3866 O 363.773 -3.54953 2.09958 0
M  V30 3867 H 363.114 -0.408494 0.523477 0
M  V30 3868 H 365.644 -0.706646 1.9201 0
M  V30 3869 H 365.654 -3.00426 2.76058 0
M  V30 3870 H 364.329 -2.16549 3.55076 0
M  V30 3871 H 362.906 -3.14516 2.00334 0
M  V30 3872 N 365.091 -1.34144 -0.827227 0
M  V30 3873 C 366.054 -1.25264 -1.91942 0
M  V30 3874 C 367.054 -0.168866 -1.59911 0
M  V30 3875 O 368.244 -0.421198 -1.69031 0
M  V30 3876 C 365.376 -0.932952 -3.27885 0
M  V30 3877 H 366.569 -2.22357 -2.0124 0
M  V30 3878 H 364.122 -1.1837 -1.0207 0
M  V30 3879 H 364.857 0.0349917 -3.24281 0
M  V30 3880 H 364.642 -1.71682 -3.52516 0
M  V30 3881 H 366.132 -0.895874 -4.07877 0
M  V30 3882 N 366.569 1.04691 -1.17803 0
M  V30 3883 C 367.799 1.81183 -0.992788 0
M  V30 3884 C 368.207 1.8347 0.462098 0
M  V30 3885 O 367.55 1.2643 1.33271 0
M  V30 3886 C 367.612 3.28363 -1.46349 0
M  V30 3887 C 367.276 3.49749 -2.94151 0
M  V30 3888 C 368.273 3.41456 -3.92051 0
M  V30 3889 C 365.958 3.76548 -3.32441 0
M  V30 3890 C 367.952 3.59656 -5.26238 0
M  V30 3891 C 365.639 3.94396 -4.66792 0
M  V30 3892 C 366.637 3.8595 -5.635 0
M  V30 3893 O 366.325 4.03294 -6.9542 0
M  V30 3894 H 366.057 0.577622 -0.351182 0
M  V30 3895 H 368.611 1.32876 -1.5663 0
M  V30 3896 H 366.841 3.77609 -0.833574 0
M  V30 3897 H 368.53 3.86395 -1.24313 0
M  V30 3898 H 369.296 3.20723 -3.63815 0
M  V30 3899 H 365.175 3.82224 -2.57732 0
M  V30 3900 H 368.719 3.52979 -6.01707 0
M  V30 3901 H 364.616 4.14622 -4.94731 0
M  V30 3902 H 365.384 4.2049 -7.02232 0
M  V30 3903 N 368.047 0.979072 1.23499 0
M  V30 3904 C 369.294 0.647219 1.91878 0
M  V30 3905 C 369.622 -0.819074 1.76413 0
M  V30 3906 O 368.877 -1.60616 1.11808 0
M  V30 3907 C 369.176 0.981932 3.43646 0
M  V30 3908 C 368.842 2.43822 3.79291 0
M  V30 3909 C 367.504 2.83622 3.88731 0
M  V30 3910 C 369.856 3.3828 3.96505 0
M  V30 3911 C 367.184 4.16897 4.12812 0
M  V30 3912 C 369.536 4.71197 4.22085 0
M  V30 3913 C 368.2 5.10758 4.29747 0
M  V30 3914 H 367.47 0.236834 0.702133 0
M  V30 3915 H 370.117 1.23268 1.46551 0
M  V30 3916 H 368.422 0.314365 3.90537 0
M  V30 3917 H 370.119 0.703395 3.94783 0
M  V30 3918 H 366.709 2.11966 3.72516 0
M  V30 3919 H 370.893 3.0871 3.88603 0
M  V30 3920 H 366.149 4.47157 4.16966 0
M  V30 3921 H 370.323 5.44348 4.34348 0
M  V30 3922 H 367.95 6.1405 4.48159 0
M  V30 3923 N 369.525 -1.3858 0.750561 0
M  V30 3924 C 370.488 -2.28836 0.129152 0
M  V30 3925 C 371.488 -1.47045 -0.650714 0
M  V30 3926 O 372.678 -1.6753 -0.477428 0
M  V30 3927 C 369.81 -3.30751 -0.825622 0
M  V30 3928 H 371.003 -2.85294 0.924516 0
M  V30 3929 H 368.556 -1.47489 0.517376 0
M  V30 3930 H 369.291 -2.79378 -1.64677 0
M  V30 3931 H 369.076 -3.91177 -0.268852 0
M  V30 3932 H 370.566 -3.98249 -1.2565 0
M  V30 3933 N 371.003 -0.499398 -1.49478 0
M  V30 3934 C 371.913 0.284489 -2.32869 0
M  V30 3935 C 372.929 0.968885 -1.44529 0
M  V30 3936 O 374.105 0.95062 -1.77553 0
M  V30 3937 C 371.17 1.33594 -3.19928 0
M  V30 3938 C 370.231 0.665149 -4.24116 0
M  V30 3939 C 369.464 1.6665 -5.07014 0
M  V30 3940 O 369.687 2.89618 -4.91404 0
M  V30 3941 O 368.621 1.22271 -5.8935 0
M  V30 3942 H 372.447 -0.39802 -3.01081 0
M  V30 3943 H 370.032 -0.260758 -1.47107 0
M  V30 3944 H 371.914 1.94431 -3.73864 0
M  V30 3945 H 370.589 2.0014 -2.54412 0
M  V30 3946 H 369.496 0.0170769 -3.74096 0
M  V30 3947 H 370.829 0.0421555 -4.92182 0
M  V30 3948 N 372.481 1.55866 -0.233164 0
M  V30 3949 C 373.428 2.20796 0.67215 0
M  V30 3950 C 374.398 1.16731 1.18166 0
M  V30 3951 O 375.583 1.45129 1.23864 0
M  V30 3952 C 372.723 2.90072 1.86955 0
M  V30 3953 C 371.836 4.08759 1.39786 0
M  V30 3954 C 370.971 4.65787 2.55374 0
M  V30 3955 C 370.01 5.76752 2.04998 0
M  V30 3956 N 369.147 6.28021 3.13901 0
M  V30 3957 H 373.987 2.9779 0.111749 0
M  V30 3958 H 371.524 1.47036 0.0434007 0
M  V30 3959 H 373.482 3.28428 2.57276 0
M  V30 3960 H 372.112 2.15575 2.40265 0
M  V30 3961 H 371.164 3.7581 0.589173 0
M  V30 3962 H 372.476 4.88906 0.98856 0
M  V30 3963 H 371.63 5.06646 3.33758 0
M  V30 3964 H 370.369 3.84828 2.99598 0
M  V30 3965 H 369.374 5.35383 1.25079 0
M  V30 3966 H 370.599 6.59553 1.61759 0
M  V30 3967 H 368.545 5.49971 3.57586 0
M  V30 3968 H 368.462 7.03323 2.7726 0
M  V30 3969 H 369.73 6.73538 3.92386 0
M  V30 3970 N 373.959 -0.0401083 1.57549 0
M  V30 3971 C 374.889 -1.04384 2.08869 0
M  V30 3972 C 375.87 -1.38407 0.988817 0
M  V30 3973 O 377.055 -1.47483 1.26342 0
M  V30 3974 C 374.185 -2.34808 2.55895 0
M  V30 3975 C 373.139 -2.15057 3.70047 0
M  V30 3976 C 372.465 -3.51145 4.03239 0
M  V30 3977 C 373.765 -1.54576 4.98902 0
M  V30 3978 H 375.459 -0.616666 2.92981 0
M  V30 3979 H 373.005 -0.295184 1.40942 0
M  V30 3980 H 374.958 -3.05346 2.90417 0
M  V30 3981 H 373.682 -2.79565 1.68853 0
M  V30 3982 H 372.341 -1.46954 3.35857 0
M  V30 3983 H 371.989 -3.93529 3.13279 0
M  V30 3984 H 371.689 -3.38758 4.80122 0
M  V30 3985 H 373.213 -4.23062 4.40285 0
M  V30 3986 H 374.627 -2.15017 5.31451 0
M  V30 3987 H 373.024 -1.52796 5.80322 0
M  V30 3988 H 374.094 -0.51039 4.82206 0
M  V30 3989 N 375.437 -1.54477 -0.31217 0
M  V30 3990 C 376.667 -1.76948 -1.06645 0
M  V30 3991 C 377.075 -0.523593 -1.81811 0
M  V30 3992 O 376.418 0.51578 -1.76311 0
M  V30 3993 C 376.48 -2.91668 -2.10166 0
M  V30 3994 C 376.144 -4.30165 -1.54296 0
M  V30 3995 C 377.141 -5.10603 -0.978793 0
M  V30 3996 C 374.826 -4.76738 -1.58196 0
M  V30 3997 C 376.82 -6.3573 -0.461048 0
M  V30 3998 C 374.507 -6.01831 -1.06034 0
M  V30 3999 C 375.505 -6.81161 -0.500844 0
M  V30 4000 O 375.193 -8.03899 0.0128958 0
M  V30 4001 H 374.925 -0.594088 -0.322546 0
M  V30 4002 H 377.479 -2.02213 -0.360441 0
M  V30 4003 H 375.709 -2.62001 -2.84416 0
M  V30 4004 H 377.398 -3.01817 -2.71406 0
M  V30 4005 H 378.164 -4.75771 -0.941651 0
M  V30 4006 H 374.043 -4.15027 -2.00683 0
M  V30 4007 H 377.587 -6.97596 -0.0236894 0
M  V30 4008 H 373.484 -6.36152 -1.09459 0
M  V30 4009 H 374.252 -8.18437 -0.101457 0
M  V30 4010 N 376.915 0.57481 -1.46744 0
M  V30 4011 C 377.862 1.68329 -1.57905 0
M  V30 4012 C 378.832 1.60625 -0.422927 0
M  V30 4013 O 380.017 1.79721 -0.640711 0
M  V30 4014 C 377.157 3.06665 -1.58274 0
M  V30 4015 C 376.27 3.24935 -2.84678 0
M  V30 4016 C 375.405 4.53566 -2.76499 0
M  V30 4017 C 374.444 4.65207 -3.97806 0
M  V30 4018 N 373.581 5.85172 -3.87967 0
M  V30 4019 H 378.421 1.58127 -2.52587 0
M  V30 4020 H 375.958 0.770552 -1.25303 0
M  V30 4021 H 377.916 3.86745 -1.56473 0
M  V30 4022 H 376.546 3.15745 -0.671194 0
M  V30 4023 H 375.598 2.38405 -2.96424 0
M  V30 4024 H 376.91 3.29403 -3.7456 0
M  V30 4025 H 376.064 5.41885 -2.72848 0
M  V30 4026 H 374.803 4.51548 -1.8427 0
M  V30 4027 H 373.808 3.75304 -4.0178 0
M  V30 4028 H 375.033 4.68997 -4.9114 0
M  V30 4029 H 372.979 5.84137 -2.98529 0
M  V30 4030 H 372.896 5.90943 -4.71511 0
M  V30 4031 H 374.164 6.759 -3.88303 0
M  V30 4032 N 378.394 1.34581 0.820102 0
M  V30 4033 C 379.619 1.30333 1.61332 0
M  V30 4034 C 380.044 -0.119339 1.87721 0
M  V30 4035 O 379.402 -1.08197 1.45475 0
M  V30 4036 C 379.45 2.10258 2.92957 0
M  V30 4037 O 378.554 1.47404 3.85157 0
M  V30 4038 H 377.895 0.447488 0.490561 0
M  V30 4039 H 380.425 1.77425 1.01889 0
M  V30 4040 H 380.435 2.21718 3.42498 0
M  V30 4041 H 379.11 3.13693 2.73074 0
M  V30 4042 H 377.687 1.44703 3.43679 0
M  V30 4043 N 379.872 -1.04064 1.18357 0
M  V30 4044 C 380.805 -2.11618 0.854 0
M  V30 4045 C 381.783 -1.61555 -0.184043 0
M  V30 4046 O 382.967 -1.88395 -0.0630048 0
M  V30 4047 C 380.094 -3.37574 0.27597 0
M  V30 4048 C 379.14 -4.06485 1.2912 0
M  V30 4049 S 379.973 -4.53543 2.84709 0
M  V30 4050 C 381.129 -5.82732 2.28417 0
M  V30 4051 H 381.362 -2.39247 1.76488 0
M  V30 4052 H 378.895 -1.16832 1.00944 0
M  V30 4053 H 380.853 -4.10468 -0.051026 0
M  V30 4054 H 379.514 -3.0806 -0.613028 0
M  V30 4055 H 378.707 -4.97024 0.835633 0
M  V30 4056 H 378.309 -3.39708 1.56443 0
M  V30 4057 H 380.601 -6.56677 1.66677 0
M  V30 4058 H 381.544 -6.33052 3.17256 0
M  V30 4059 H 381.952 -5.37838 1.71436 0
M  V30 4060 N 381.35 -0.985608 -1.22978 0
M  V30 4061 C 382.297 -0.529825 -2.24636 0
M  V30 4062 C 383.267 0.434028 -1.60329 0
M  V30 4063 O 384.452 0.340414 -1.87739 0
M  V30 4064 C 381.592 0.156533 -3.44745 0
M  V30 4065 C 380.705 -0.848197 -4.23591 0
M  V30 4066 C 379.84 -0.136109 -5.31026 0
M  V30 4067 C 378.879 -1.1297 -6.01585 0
M  V30 4068 N 378.016 -0.446415 -7.00679 0
M  V30 4069 H 382.856 -1.40148 -2.62988 0
M  V30 4070 H 380.393 -0.702168 -1.29259 0
M  V30 4071 H 382.351 0.571324 -4.1327 0
M  V30 4072 H 380.981 0.992025 -3.07179 0
M  V30 4073 H 380.033 -1.38135 -3.54433 0
M  V30 4074 H 381.345 -1.60512 -4.72268 0
M  V30 4075 H 380.499 0.335784 -6.0577 0
M  V30 4076 H 379.238 0.653373 -4.83304 0
M  V30 4077 H 378.243 -1.6123 -5.25628 0
M  V30 4078 H 379.468 -1.91993 -6.51395 0
M  V30 4079 H 377.414 0.323763 -6.55201 0
M  V30 4080 H 377.331 -1.1419 -7.47326 0
M  V30 4081 H 378.599 0.00291697 -7.795 0
M  V30 4082 N 382.828 1.3818 -0.7579 0
M  V30 4083 C 384.076 1.99624 -0.315361 0
M  V30 4084 C 384.397 1.60464 1.10799 0
M  V30 4085 O 383.667 0.863507 1.75842 0
M  V30 4086 H 382.247 0.73831 -0.113611 0
M  V30 4087 H 384.909 1.68878 -0.972952 0
M  V30 4088 H 384.005 3.09754 -0.381931 0
M  V30 4089 N 384.306 0.507319 1.49211 0
M  V30 4090 C 385.236 -0.256939 2.32082 0
M  V30 4091 C 386.217 -0.956609 1.40652 0
M  V30 4092 O 387.402 -0.946788 1.69557 0
M  V30 4093 C 384.532 -1.31802 3.21318 0
M  V30 4094 C 383.486 -0.737855 4.21592 0
M  V30 4095 C 382.812 -1.89992 4.99807 0
M  V30 4096 C 384.112 0.275325 5.21574 0
M  V30 4097 H 385.806 0.434798 2.96226 0
M  V30 4098 H 383.352 0.210546 1.42452 0
M  V30 4099 H 385.305 -1.86045 3.78107 0
M  V30 4100 H 384.029 -2.03903 2.5513 0
M  V30 4101 H 382.688 -0.217126 3.65956 0
M  V30 4102 H 382.336 -2.60877 4.30061 0
M  V30 4103 H 382.036 -1.51777 5.6766 0
M  V30 4104 H 383.56 -2.44657 5.59442 0
M  V30 4105 H 384.974 -0.179193 5.7302 0
M  V30 4106 H 383.371 0.573649 5.97352 0
M  V30 4107 H 384.441 1.18903 4.70096 0
M  V30 4108 N 385.784 -1.5574 0.241426 0
M  V30 4109 C 387.032 -1.98417 -0.384075 0
M  V30 4110 C 387.353 -1.13078 -1.58866 0
M  V30 4111 O 386.623 -0.212312 -1.94746 0
M  V30 4112 H 385.203 -0.732813 -0.144894 0
M  V30 4113 H 387.865 -1.9193 0.338943 0
M  V30 4114 H 386.961 -3.04219 -0.696939 0
M  V30 4115 N 387.262 0.0317525 -1.57568 0
M  V30 4116 C 388.49 0.734949 -1.93407 0
M  V30 4117 C 388.905 1.69036 -0.84096 0
M  V30 4118 O 388.262 1.81582 0.182836 0
M  V30 4119 C 388.313 1.49432 -3.29169 0
M  V30 4120 O 388.034 0.577261 -4.3428 0
M  V30 4121 C 389.535 2.29492 -3.79273 0
M  V30 4122 H 386.755 0.206706 -0.638368 0
M  V30 4123 H 389.299 -0.00992046 -2.04498 0
M  V30 4124 H 387.454 2.1911 -3.19483 0
M  V30 4125 H 387.868 1.10952 -5.1263 0
M  V30 4126 H 389.342 2.78172 -4.76785 0
M  V30 4127 H 389.819 3.10794 -3.10328 0
M  V30 4128 H 390.425 1.64894 -3.92033 0
M  V30 4129 N 388.74 1.54641 0.303973 0
M  V30 4130 C 390.017 1.64455 1.05896 0
M  V30 4131 C 390.397 0.490923 2.05312 0
M  V30 4132 O 389.745 -0.512685 2.22674 0
M  V30 4133 C 389.955 3.02331 1.74347 0
M  V30 4134 C 391.303 3.59045 2.26653 0
M  V30 4135 O 392.327 3.04764 1.84384 0
M  V30 4136 O 391.186 4.54081 3.04093 0
M  V30 4137 H 388.28 0.666729 0.489287 0
M  V30 4138 H 390.826 1.66986 0.302298 0
M  V30 4139 H 389.598 3.77734 1.02142 0
M  V30 4140 H 389.221 3.03565 2.56777 0
M  V30 4141 N 390.218 -0.567019 1.47046 0
M  V30 4142 C 391.495 -1.3276 1.43646 0
M  V30 4143 C 391.875 -2.1071 0.128186 0
M  V30 4144 O 391.223 -2.10441 -0.890326 0
M  V30 4145 C 391.433 -2.2404 2.67595 0
M  V30 4146 C 392.781 -2.85372 3.14401 0
M  V30 4147 O 393.805 -2.34346 2.68254 0
M  V30 4148 O 392.664 -3.78091 3.946 0
M  V30 4149 H 389.758 -0.597293 0.571988 0
M  V30 4150 H 392.304 -0.586735 1.59234 0
M  V30 4151 H 391.076 -1.65975 3.54356 0
M  V30 4152 H 390.699 -3.05439 2.54544 0
M  V30 4153 N 391.696 -1.35014 -0.812953 0
M  V30 4154 C 392.644 -1.27435 -1.94585 0
M  V30 4155 C 393.638 -0.170494 -1.6854 0
M  V30 4156 O 394.844 -0.336085 -1.76835 0
M  V30 4157 H 391.219 -0.396144 -0.639198 0
M  V30 4158 H 393.19 -2.23158 -1.98098 0
M  V30 4159 C 391.939 -1.05677 -3.31252 0
M  V30 4160 H 391.262 -1.89853 -3.51846 0
M  V30 4161 H 392.702 -1.04413 -4.10943 0
M  V30 4162 C 391.161 0.239615 -3.36047 0
M  V30 4163 O 391.691 1.23759 -3.8216 0
M  V30 4164 N 389.897 0.276186 -2.89285 0
M  V30 4165 H 389.444 -0.53653 -2.51951 0
M  V30 4166 H 389.402 1.14332 -2.92875 0
M  V30 4167 N 393.175 1.03435 -1.18907 0
M  V30 4168 C 394.403 1.80381 -1.01342 0
M  V30 4169 C 394.818 1.83649 0.438005 0
M  V30 4170 O 394.175 1.27655 1.30424 0
M  V30 4171 C 394.226 3.25689 -1.56873 0
M  V30 4172 O 393.947 3.22673 -2.96334 0
M  V30 4173 C 395.448 4.19255 -1.44014 0
M  V30 4174 H 392.668 0.56784 -0.35749 0
M  V30 4175 H 395.212 1.30317 -1.576 0
M  V30 4176 H 393.367 3.72962 -1.04777 0
M  V30 4177 H 393.781 4.13748 -3.22355 0
M  V30 4178 H 395.255 5.19123 -1.87657 0
M  V30 4179 H 395.732 4.37467 -0.389815 0
M  V30 4180 H 396.338 3.77851 -1.95214 0
M  V30 4181 N 394.653 0.992116 1.22453 0
M  V30 4182 C 395.583 0.561677 2.26644 0
M  V30 4183 C 396.564 -0.411055 1.65059 0
M  V30 4184 O 397.749 -0.301861 1.9184 0
M  V30 4185 C 394.879 -0.125247 3.47074 0
M  V30 4186 C 393.833 0.765948 4.21091 0
M  V30 4187 C 393.159 -0.0538484 5.34673 0
M  V30 4188 C 394.459 2.06242 4.79856 0
M  V30 4189 H 396.153 1.43259 2.62902 0
M  V30 4190 H 393.699 0.690283 1.26377 0
M  V30 4191 H 395.652 -0.437764 4.1912 0
M  V30 4192 H 394.376 -1.03069 3.0991 0
M  V30 4193 H 393.035 1.0621 3.50878 0
M  V30 4194 H 392.683 -0.960188 4.9375 0
M  V30 4195 H 392.383 0.539415 5.85119 0
M  V30 4196 H 393.907 -0.360477 6.09535 0
M  V30 4197 H 395.321 1.8139 5.43848 0
M  V30 4198 H 393.718 2.60444 5.40638 0
M  V30 4199 H 394.788 2.74167 3.99951 0
M  V30 4200 N 396.131 -1.37776 0.765217 0
M  V30 4201 C 397.38 -1.99092 0.323307 0
M  V30 4202 C 397.693 -1.61434 -1.10446 0
M  V30 4203 O 398.899 -2.15805 -1.64743 0
M  V30 4204 C 397.355 -3.56019 0.527098 0
M  V30 4205 C 396.963 -4.0262 1.96471 0
M  V30 4206 C 398.707 -4.2424 0.148483 0
M  V30 4207 C 396.614 -5.52233 2.11644 0
M  V30 4208 H 395.544 -0.744846 0.117137 0
M  V30 4209 H 398.195 -1.57391 0.943417 0
M  V30 4210 H 396.577 -3.95667 -0.162372 0
M  V30 4211 H 397.751 -3.74234 2.68859 0
M  V30 4212 H 396.066 -3.47161 2.29931 0
M  V30 4213 H 398.663 -5.34159 0.240456 0
M  V30 4214 H 399.006 -4.06446 -0.900422 0
M  V30 4215 H 399.539 -3.89872 0.79025 0
M  V30 4216 H 396.278 -5.74945 3.1483 0
M  V30 4217 H 395.798 -5.82324 1.4373 0
M  V30 4218 H 397.477 -6.18106 1.91193 0
M  V30 4219 N 397.609 -0.515225 -1.4894 0
M  V30 4220 C 399.025 -0.172099 -1.58669 0
M  V30 4221 C 399.225 1.32405 -1.51892 0
M  V30 4222 O 398.281 2.10116 -1.40027 0
M  V30 4223 C 399.594 -0.761533 -2.90897 0
M  V30 4224 C 401.142 -0.728926 -3.04394 0
M  V30 4225 C 401.617 -1.29667 -4.39261 0
M  V30 4226 N 403.108 -1.25799 -4.4579 0
M  V30 4227 C 403.843 -1.66733 -5.48623 0
M  V30 4228 N 403.339 -2.15327 -6.58488 0
M  V30 4229 N 405.132 -1.58061 -5.39419 0
M  V30 4230 H 397.283 -1.48778 -1.51588 0
M  V30 4231 H 399.546 -0.617968 -0.718901 0
M  V30 4232 H 399.252 -1.81136 -3.01468 0
M  V30 4233 H 399.126 -0.230106 -3.76497 0
M  V30 4234 H 401.513 0.312098 -2.93445 0
M  V30 4235 H 401.594 -1.29766 -2.20442 0
M  V30 4236 H 401.238 -2.33655 -4.50963 0
M  V30 4237 H 401.168 -0.703752 -5.21876 0
M  V30 4238 H 403.659 -0.902102 -3.66975 0
M  V30 4239 H 403.972 -2.44594 -7.33071 0
M  V30 4240 H 402.317 -2.19311 -6.59491 0
M  V30 4241 H 405.508 -1.19906 -4.52482 0
M  V30 4242 H 405.681 -1.90284 -6.19432 0
M  V30 4243 N 399.087 1.5561 -0.249682 0
M  V30 4244 C 400.333 1.99306 0.374841 0
M  V30 4245 C 400.666 1.13767 1.57387 0
M  V30 4246 O 399.941 0.201711 1.93451 0
M  V30 4247 C 400.224 3.51507 0.781986 0
M  V30 4248 C 400.077 4.4781 -0.422629 0
M  V30 4249 C 401.396 4.08884 1.62793 0
M  V30 4250 H 398.515 0.724572 0.134773 0
M  V30 4251 H 401.157 1.86719 -0.351549 0
M  V30 4252 H 399.307 3.62363 1.4009 0
M  V30 4253 H 400.979 4.48931 -1.06108 0
M  V30 4254 H 399.222 4.20518 -1.06524 0
M  V30 4255 H 399.893 5.51919 -0.0943766 0
M  V30 4256 H 402.369 4.01147 1.10547 0
M  V30 4257 H 401.245 5.1564 1.88166 0
M  V30 4258 H 401.506 3.57515 2.60068 0
M  V30 4259 N 400.565 -0.0233959 1.57583 0
M  V30 4260 C 401.498 -1.05549 2.02323 0
M  V30 4261 C 402.476 -1.34843 0.908626 0
M  V30 4262 O 403.66 -1.47404 1.17491 0
M  V30 4263 C 400.787 -2.38885 2.40108 0
M  V30 4264 C 399.833 -2.2541 3.62067 0
M  V30 4265 S 400.666 -1.60217 5.1097 0
M  V30 4266 C 401.822 -2.95032 5.52003 0
M  V30 4267 H 402.055 -0.674435 2.89549 0
M  V30 4268 H 399.588 -0.23355 1.52623 0
M  V30 4269 H 401.546 -3.15562 2.62547 0
M  V30 4270 H 400.207 -2.74137 1.53323 0
M  V30 4271 H 399.4 -3.23854 3.86179 0
M  V30 4272 H 399.002 -1.56876 3.39508 0
M  V30 4273 H 401.294 -3.91357 5.53033 0
M  V30 4274 H 402.237 -2.75646 6.52246 0
M  V30 4275 H 402.645 -2.97865 4.79517 0
M  V30 4276 N 402.043 -1.548 -0.295768 0
M  V30 4277 C 403.289 -1.74588 -1.03184 0
M  V30 4278 C 403.622 -0.532962 -1.86744 0
M  V30 4279 O 402.897 0.469872 -1.88739 0
M  V30 4280 C 403.18 -3.03791 -1.93347 0
M  V30 4281 C 403.033 -4.35392 -1.12933 0
M  V30 4282 C 404.352 -3.28892 -2.92435 0
M  V30 4283 H 401.471 -0.635221 -0.373715 0
M  V30 4284 H 404.113 -1.87519 -0.30606 0
M  V30 4285 H 402.263 -2.92898 -2.55232 0
M  V30 4286 H 403.935 -4.58211 -0.532943 0
M  V30 4287 H 402.178 -4.31642 -0.432168 0
M  V30 4288 H 402.849 -5.22074 -1.79284 0
M  V30 4289 H 405.325 -3.39429 -2.4068 0
M  V30 4290 H 404.201 -4.20603 -3.52682 0
M  V30 4291 H 404.462 -2.47437 -3.6637 0
M  V30 4292 N 403.521 0.559213 -1.47345 0
M  V30 4293 C 404.746 1.34676 -1.57725 0
M  V30 4294 C 405.171 1.86723 -0.227164 0
M  V30 4295 O 404.529 1.6286 0.796642 0
M  V30 4296 C 404.577 2.49399 -2.60447 0
M  V30 4297 O 403.681 3.51567 -2.15578 0
M  V30 4298 H 403.022 0.400115 -0.52991 0
M  V30 4299 H 405.552 0.676009 -1.93109 0
M  V30 4300 H 405.562 2.95996 -2.80803 0
M  V30 4301 H 404.237 2.10873 -3.58477 0
M  V30 4302 H 402.814 3.11289 -2.05313 0
M  V30 4303 N 404.999 1.35443 0.805782 0
M  V30 4304 C 406.415 1.15499 1.10146 0
M  V30 4305 C 406.615 -0.0319975 2.01475 0
M  V30 4306 O 405.671 -0.70236 2.42535 0
M  V30 4307 C 406.984 2.45833 1.73166 0
M  V30 4308 C 408.532 2.52047 1.85583 0
M  V30 4309 C 409.007 3.82427 2.52019 0
M  V30 4310 N 410.498 3.83682 2.59504 0
M  V30 4311 C 411.233 4.81294 3.11679 0
M  V30 4312 N 410.729 5.89294 3.64287 0
M  V30 4313 N 412.522 4.6873 3.1024 0
M  V30 4314 H 404.673 2.11469 0.198678 0
M  V30 4315 H 406.936 0.93594 0.150731 0
M  V30 4316 H 406.642 3.32874 1.13526 0
M  V30 4317 H 406.516 2.6044 2.72857 0
M  V30 4318 H 408.903 1.65435 2.44367 0
M  V30 4319 H 408.984 2.41354 0.847455 0
M  V30 4320 H 408.628 4.69437 1.93885 0
M  V30 4321 H 408.558 3.90409 3.53395 0
M  V30 4322 H 411.049 3.05648 2.22234 0
M  V30 4323 H 411.362 6.59768 4.02401 0
M  V30 4324 H 409.707 5.92985 3.62483 0
M  V30 4325 H 412.898 3.83496 2.68419 0
M  V30 4326 H 413.071 5.44965 3.50596 0
M  V30 4327 N 406.477 -1.02803 1.19454 0
M  V30 4328 C 407.44 -2.09264 0.934955 0
M  V30 4329 C 408.44 -1.60576 -0.0849015 0
M  V30 4330 O 409.63 -1.73554 0.149933 0
M  V30 4331 C 406.762 -3.38482 0.40531 0
M  V30 4332 H 407.955 -2.33726 1.87916 0
M  V30 4333 H 405.508 -1.19426 1.00832 0
M  V30 4334 H 406.243 -3.19689 -0.544899 0
M  V30 4335 H 406.028 -3.75142 1.14065 0
M  V30 4336 H 407.518 -4.16894 0.242806 0
M  V30 4337 N 407.956 -0.998596 -1.21925 0
M  V30 4338 C 408.866 -0.562736 -2.27751 0
M  V30 4339 C 409.882 0.391203 -1.69545 0
M  V30 4340 O 411.058 0.256625 -1.99758 0
M  V30 4341 C 408.123 0.11012 -3.46525 0
M  V30 4342 C 407.184 -0.887495 -4.20026 0
M  V30 4343 C 406.417 -0.246654 -5.3313 0
M  V30 4344 O 406.64 0.958088 -5.62296 0
M  V30 4345 O 405.574 -0.954374 -5.94286 0
M  V30 4346 H 409.4 -1.44329 -2.67213 0
M  V30 4347 H 406.985 -0.767135 -1.28201 0
M  V30 4348 H 408.867 0.486756 -4.18579 0
M  V30 4349 H 407.542 0.965154 -3.08976 0
M  V30 4350 H 406.449 -1.31517 -3.5022 0
M  V30 4351 H 407.782 -1.71191 -4.6147 0
M  V30 4352 N 409.434 1.37368 -0.772513 0
M  V30 4353 C 410.683 1.98918 -0.333861 0
M  V30 4354 C 410.996 1.62017 1.09589 0
M  V30 4355 O 412.202 2.16676 1.63596 0
M  V30 4356 C 410.658 3.55735 -0.545971 0
M  V30 4357 C 410.266 4.01573 -1.98603 0
M  V30 4358 C 412.01 4.24156 -0.170979 0
M  V30 4359 C 409.917 5.51102 -2.1457 0
M  V30 4360 H 408.847 0.744214 -0.121085 0
M  V30 4361 H 411.498 1.56888 -0.95175 0
M  V30 4362 H 409.88 3.95748 0.141387 0
M  V30 4363 H 411.054 3.72803 -2.7084 0
M  V30 4364 H 409.369 3.45937 -2.31769 0
M  V30 4365 H 411.966 5.34024 -0.26878 0
M  V30 4366 H 412.309 4.06917 0.878855 0
M  V30 4367 H 412.842 3.89447 -0.810914 0
M  V30 4368 H 409.581 5.73268 -3.17875 0
M  V30 4369 H 409.101 5.81554 -1.46817 0
M  V30 4370 H 410.78 6.17083 -1.94468 0
M  V30 4371 N 410.912 0.523116 1.48665 0
M  V30 4372 C 412.189 -0.0775449 1.95446 0
M  V30 4373 C 412.569 -1.5197 1.4652 0
M  V30 4374 O 411.917 -2.17876 0.688657 0
M  V30 4375 C 412.127 0.0326135 3.48985 0
M  V30 4376 C 413.475 -0.130141 4.24401 0
M  V30 4377 O 414.499 -0.0415142 3.56176 0
M  V30 4378 O 413.358 -0.31491 5.45592 0
M  V30 4379 H 410.452 -0.0831012 0.822814 0
M  V30 4380 H 412.998 0.587227 1.59216 0
M  V30 4381 H 411.77 1.03748 3.77296 0
M  V30 4382 H 411.393 -0.671317 3.91892 0
M  V30 4383 N 412.39 -1.55475 0.257931 0
M  V30 4384 C 413.323 -2.179 -0.677862 0
M  V30 4385 C 414.301 -1.13448 -1.16483 0
M  V30 4386 O 415.485 -1.41889 -1.24095 0
M  V30 4387 C 412.612 -2.78851 -1.92249 0
M  V30 4388 C 411.658 -3.96454 -1.57246 0
M  V30 4389 S 412.491 -5.31349 -0.665501 0
M  V30 4390 C 413.647 -5.9576 -1.91889 0
M  V30 4391 H 413.88 -2.96934 -0.147396 0
M  V30 4392 H 411.413 -1.54342 0.0423023 0
M  V30 4393 H 413.371 -3.14602 -2.63697 0
M  V30 4394 H 412.032 -1.99742 -2.42409 0
M  V30 4395 H 411.225 -4.37731 -2.49814 0
M  V30 4396 H 410.827 -3.62038 -0.938325 0
M  V30 4397 H 413.119 -6.13947 -2.86487 0
M  V30 4398 H 414.062 -6.9094 -1.54942 0
M  V30 4399 H 414.47 -5.2494 -2.076 0
M  V30 4400 N 413.868 0.0150385 -1.57593 0
M  V30 4401 C 414.798 1.01047 -2.10503 0
M  V30 4402 C 415.779 1.36816 -1.01071 0
M  V30 4403 O 416.964 1.45455 -1.28672 0
M  V30 4404 C 414.094 2.30708 -2.59598 0
M  V30 4405 C 413.048 2.09142 -3.73421 0
M  V30 4406 C 412.374 3.44685 -4.08774 0
M  V30 4407 C 413.674 1.46619 -5.01298 0
M  V30 4408 H 415.368 0.569978 -2.93925 0
M  V30 4409 H 412.914 0.272724 -1.41394 0
M  V30 4410 H 414.867 3.00687 -2.95238 0
M  V30 4411 H 413.591 2.76843 -1.73279 0
M  V30 4412 H 412.25 1.41592 -3.38153 0
M  V30 4413 H 411.898 3.88495 -3.195 0
M  V30 4414 H 411.598 3.31077 -4.8545 0
M  V30 4415 H 413.122 4.16004 -4.4696 0
M  V30 4416 H 414.536 2.06535 -5.34805 0
M  V30 4417 H 412.933 1.43544 -5.82679 0
M  V30 4418 H 414.003 0.433611 -4.82957 0
M  V30 4419 N 415.346 1.54954 0.287554 0
M  V30 4420 C 416.623 1.65569 1.04146 0
M  V30 4421 C 417.003 0.512672 2.0478 0
M  V30 4422 O 416.351 -0.489038 2.23205 0
M  V30 4423 C 416.561 3.04163 1.71131 0
M  V30 4424 C 417.909 3.61429 2.22832 0
M  V30 4425 O 418.933 3.06702 1.81141 0
M  V30 4426 O 417.792 4.57281 2.9926 0
M  V30 4427 H 414.886 0.671881 0.482188 0
M  V30 4428 H 417.432 1.67297 0.28457 0
M  V30 4429 H 416.204 3.78796 0.981303 0
M  V30 4430 H 415.827 3.06271 2.53543 0
M  V30 4431 N 416.824 -0.551391 1.4764 0
M  V30 4432 C 418.073 -1.30467 1.53822 0
M  V30 4433 C 418.386 -1.94495 0.207661 0
M  V30 4434 O 419.592 -2.71099 0.147533 0
M  V30 4435 C 418.048 -2.36616 2.71184 0
M  V30 4436 C 417.656 -1.78754 4.10793 0
M  V30 4437 C 419.4 -3.13088 2.86663 0
M  V30 4438 C 417.307 -2.82717 5.19447 0
M  V30 4439 H 416.237 -0.490584 0.572576 0
M  V30 4440 H 418.888 -0.58494 1.73927 0
M  V30 4441 H 417.27 -3.11529 2.4447 0
M  V30 4442 H 418.444 -1.10173 4.47435 0
M  V30 4443 H 416.759 -1.14846 4.00249 0
M  V30 4444 H 419.356 -3.90736 3.65007 0
M  V30 4445 H 419.699 -3.67635 1.95321 0
M  V30 4446 H 420.232 -2.45288 3.13175 0
M  V30 4447 H 416.971 -2.33018 6.12685 0
M  V30 4448 H 416.491 -3.4969 4.87316 0
M  V30 4449 H 418.17 -3.46102 5.46646 0
M  V30 4450 N 418.302 -1.35869 -0.798587 0
M  V30 4451 C 419.718 -1.16082 -1.09532 0
M  V30 4452 C 419.918 0.0213124 -2.01489 0
M  V30 4453 O 418.974 0.689488 -2.42904 0
M  V30 4454 C 420.287 -2.46748 -1.7186 0
M  V30 4455 C 421.835 -2.53028 -1.84244 0
M  V30 4456 C 422.31 -3.83758 -2.49988 0
M  V30 4457 N 423.801 -3.85053 -2.57465 0
M  V30 4458 C 424.536 -4.8294 -3.09122 0
M  V30 4459 N 424.032 -5.91217 -3.61157 0
M  V30 4460 N 425.825 -4.70369 -3.0775 0
M  V30 4461 H 417.976 -2.11571 -0.187461 0
M  V30 4462 H 420.239 -0.936726 -0.145765 0
M  V30 4463 H 419.945 -3.33471 -1.11759 0
M  V30 4464 H 419.819 -2.61883 -2.71472 0
M  V30 4465 H 422.206 -1.66729 -2.43486 0
M  V30 4466 H 422.287 -2.418 -0.834643 0
M  V30 4467 H 421.931 -4.70459 -1.91393 0
M  V30 4468 H 421.861 -3.92278 -3.5132 0
M  V30 4469 H 424.352 -3.06822 -2.20609 0
M  V30 4470 H 424.665 -6.61892 -3.98896 0
M  V30 4471 H 423.01 -5.94899 -3.59333 0
M  V30 4472 H 426.201 -3.84914 -2.66381 0
M  V30 4473 H 426.374 -5.46816 -3.47701 0
M  V30 4474 N 419.78 1.02168 -1.19998 0
M  V30 4475 C 420.743 2.08765 -0.94604 0
M  V30 4476 C 421.743 1.60618 0.0763846 0
M  V30 4477 O 422.933 1.73472 -0.159135 0
M  V30 4478 C 420.065 3.38262 -0.423255 0
M  V30 4479 H 421.258 2.32726 -1.89153 0
M  V30 4480 H 418.811 1.1889 -1.01464 0
M  V30 4481 H 419.546 3.19974 0.527938 0
M  V30 4482 H 419.331 3.74532 -1.16053 0
M  V30 4483 H 420.821 4.16759 -0.264911 0
M  V30 4484 N 421.258 1.00505 1.21394 0
M  V30 4485 C 422.208 0.536503 2.21598 0
M  V30 4486 C 423.192 -0.401914 1.55799 0
M  V30 4487 O 424.384 -0.226757 1.75541 0
M  V30 4488 C 421.513 -0.135446 3.43033 0
M  V30 4489 C 420.599 0.823992 4.16018 0
M  V30 4490 N 420.99 1.97683 4.6557 0
M  V30 4491 C 419.288 0.642387 4.4135 0
M  V30 4492 C 419.989 2.58003 5.21354 0
M  V30 4493 N 418.965 1.86162 5.1073 0
M  V30 4494 H 422.767 1.41557 2.57563 0
M  V30 4495 H 420.281 0.868878 1.37202 0
M  V30 4496 H 422.278 -0.488584 4.14027 0
M  V30 4497 H 420.938 -1.01049 3.08576 0
M  V30 4498 H 421.949 2.3572 4.61147 0
M  V30 4499 H 418.626 -0.185578 4.17087 0
M  V30 4500 H 420.016 3.555 5.70149 0
M  V30 4501 N 422.737 -1.36956 0.779787 0
M  V30 4502 C 423.984 -1.99491 0.347766 0
M  V30 4503 C 424.312 -1.61898 -1.07793 0
M  V30 4504 O 423.567 -0.86071 -1.75756 0
M  V30 4505 C 423.866 -3.54585 0.447686 0
M  V30 4506 C 423.532 -4.1197 1.83279 0
M  V30 4507 C 422.194 -4.27356 2.2118 0
M  V30 4508 C 424.546 -4.43354 2.74019 0
M  V30 4509 C 421.874 -4.71432 3.4924 0
M  V30 4510 C 424.226 -4.88858 4.01497 0
M  V30 4511 C 422.89 -5.0245 4.39432 0
M  V30 4512 H 422.16 -0.729991 0.127257 0
M  V30 4513 H 424.807 -1.63599 0.995376 0
M  V30 4514 H 423.112 -3.90773 -0.283447 0
M  V30 4515 H 424.809 -4.00888 0.0945948 0
M  V30 4516 H 421.399 -4.00428 1.52825 0
M  V30 4517 H 425.583 -4.31045 2.45995 0
M  V30 4518 H 420.839 -4.80141 3.78516 0
M  V30 4519 H 425.013 -5.12108 4.71931 0
M  V30 4520 H 422.64 -5.36362 5.38721 0
M  V30 4521 N 424.215 -0.530993 -1.48385 0
M  V30 4522 C 425.162 0.231223 -2.29639 0
M  V30 4523 C 426.132 0.932864 -1.37429 0
M  V30 4524 O 427.317 0.933692 -1.66394 0
M  V30 4525 C 424.457 1.27155 -3.2082 0
M  V30 4526 C 423.57 0.578655 -4.28107 0
M  V30 4527 C 422.705 1.602 -5.06467 0
M  V30 4528 C 421.744 0.892625 -6.05556 0
M  V30 4529 N 420.881 1.86157 -6.76971 0
M  V30 4530 H 425.721 -0.467848 -2.94305 0
M  V30 4531 H 423.258 -0.242556 -1.45086 0
M  V30 4532 H 425.216 1.88703 -3.72085 0
M  V30 4533 H 423.846 1.939 -2.58075 0
M  V30 4534 H 422.898 -0.150782 -3.80101 0
M  V30 4535 H 424.21 0.0217065 -4.98795 0
M  V30 4536 H 423.364 2.29173 -5.61751 0
M  V30 4537 H 422.103 2.19285 -4.35621 0
M  V30 4538 H 421.108 0.188829 -5.49476 0
M  V30 4539 H 422.333 0.307878 -6.78402 0
M  V30 4540 H 420.279 2.44147 -6.08875 0
M  V30 4541 H 420.196 1.35608 -7.43738 0
M  V30 4542 H 421.464 2.54325 -7.36844 0
M  V30 4543 N 425.693 1.55336 -0.266172 0
M  V30 4544 C 427.109 1.59356 0.0882065 0
M  V30 4545 C 427.309 1.2834 1.55342 0
M  V30 4546 O 426.365 1.03996 2.30089 0
M  V30 4547 C 427.678 2.99409 -0.278364 0
M  V30 4548 C 429.226 3.12196 -0.224243 0
M  V30 4549 C 429.701 4.545 -0.565123 0
M  V30 4550 N 431.192 4.60313 -0.51634 0
M  V30 4551 C 431.927 5.68434 -0.753013 0
M  V30 4552 N 431.423 6.84738 -1.05383 0
M  V30 4553 N 433.216 5.57942 -0.682414 0
M  V30 4554 H 425.367 1.73764 -1.22147 0
M  V30 4555 H 427.63 0.809822 -0.492841 0
M  V30 4556 H 427.336 3.2691 -1.29703 0
M  V30 4557 H 427.21 3.75228 0.385186 0
M  V30 4558 H 429.597 2.84464 0.78512 0
M  V30 4559 H 429.678 2.38609 -0.921922 0
M  V30 4560 H 429.322 4.82956 -1.57213 0
M  V30 4561 H 429.252 5.26374 0.154248 0
M  V30 4562 H 431.743 3.7676 -0.29335 0
M  V30 4563 H 432.056 7.63088 -1.22133 0
M  V30 4564 H 430.401 6.86375 -1.09151 0
M  V30 4565 H 433.592 4.65958 -0.44731 0
M  V30 4566 H 433.765 6.4213 -0.870248 0
M  V30 4567 N 427.171 -0.0066808 1.57599 0
M  V30 4568 C 428.101 -0.999296 2.11036 0
M  V30 4569 C 429.082 -1.36278 1.01795 0
M  V30 4570 O 430.267 -1.4477 1.29442 0
M  V30 4571 C 427.397 -2.29328 2.60818 0
M  V30 4572 C 426.351 -2.07159 3.74525 0
M  V30 4573 C 425.677 -3.42512 4.10596 0
M  V30 4574 C 426.977 -1.43959 5.02069 0
M  V30 4575 H 428.671 -0.554382 2.94223 0
M  V30 4576 H 426.217 -0.265221 1.41536 0
M  V30 4577 H 428.17 -2.99117 2.96828 0
M  V30 4578 H 426.894 -2.7592 1.74745 0
M  V30 4579 H 425.553 -1.39797 3.38899 0
M  V30 4580 H 425.201 -3.86795 3.21556 0
M  V30 4581 H 424.901 -3.28498 4.87199 0
M  V30 4582 H 426.425 -4.13628 4.4916 0
M  V30 4583 H 427.839 -2.03696 5.35893 0
M  V30 4584 H 426.236 -1.40452 5.83432 0
M  V30 4585 H 427.306 -0.407992 4.83181 0
M  V30 4586 N 428.649 -1.55105 -0.279332 0
M  V30 4587 C 429.879 -1.7917 -1.02867 0
M  V30 4588 C 430.287 -0.56204 -1.80659 0
M  V30 4589 O 429.63 0.478266 -1.77365 0
M  V30 4590 C 429.692 -2.96061 -2.03932 0
M  V30 4591 C 429.356 -4.33341 -1.45137 0
M  V30 4592 C 430.353 -5.12565 -0.870266 0
M  V30 4593 C 428.038 -4.79987 -1.48048 0
M  V30 4594 C 430.032 -6.36565 -0.326097 0
M  V30 4595 C 427.719 -6.03944 -0.932443 0
M  V30 4596 C 428.717 -6.8207 -0.356247 0
M  V30 4597 O 428.405 -8.03691 0.183412 0
M  V30 4598 H 428.137 -0.600796 -0.309872 0
M  V30 4599 H 430.691 -2.02932 -0.317468 0
M  V30 4600 H 428.921 -2.67975 -2.78794 0
M  V30 4601 H 430.61 -3.07506 -2.64943 0
M  V30 4602 H 431.376 -4.77661 -0.840521 0
M  V30 4603 H 427.255 -4.1919 -1.91835 0
M  V30 4604 H 430.799 -6.97489 0.124286 0
M  V30 4605 H 426.696 -6.3833 -0.959407 0
M  V30 4606 H 427.464 -8.18468 0.0721681 0
M  V30 4607 N 430.127 0.543554 -1.4793 0
M  V30 4608 C 431.375 1.29752 -1.54948 0
M  V30 4609 C 431.696 1.93764 -0.219242 0
M  V30 4610 O 430.966 1.80639 0.75805 0
M  V30 4611 H 429.546 0.481874 -0.570795 0
M  V30 4612 H 432.208 0.633636 -1.84312 0
M  V30 4613 H 431.304 2.08392 -2.32334 0
M  V30 4614 N 431.605 1.3629 0.791371 0
M  V30 4615 C 432.552 1.30458 1.90393 0
M  V30 4616 C 433.522 0.173632 1.6519 0
M  V30 4617 O 434.707 0.35983 1.87376 0
M  V30 4618 C 431.847 1.09777 3.27174 0
M  V30 4619 C 430.96 2.31929 3.64462 0
M  V30 4620 C 430.095 2.04276 4.90352 0
M  V30 4621 C 429.134 3.224 5.20312 0
M  V30 4622 N 428.271 2.94424 6.37385 0
M  V30 4623 H 433.111 2.25589 1.94714 0
M  V30 4624 H 430.648 1.12122 0.952216 0
M  V30 4625 H 432.606 0.958133 4.06049 0
M  V30 4626 H 431.236 0.183014 3.22281 0
M  V30 4627 H 430.288 2.56703 2.80727 0
M  V30 4628 H 431.6 3.20085 3.82553 0
M  V30 4629 H 430.754 1.87231 5.77087 0
M  V30 4630 H 429.493 1.13428 4.74326 0
M  V30 4631 H 428.498 3.40005 4.32061 0
M  V30 4632 H 429.723 4.14071 5.38258 0
M  V30 4633 H 427.669 2.06185 6.22755 0
M  V30 4634 H 427.586 3.76118 6.55798 0
M  V30 4635 H 428.854 2.80953 7.27108 0
M  V30 4636 N 433.083 -1.0153 1.20538 0
M  V30 4637 C 434.308 -1.79283 1.04271 0
M  V30 4638 C 434.733 -1.8372 -0.403544 0
M  V30 4639 O 434.091 -1.27321 -1.2907 0
M  V30 4640 C 434.139 -3.21535 1.63241 0
M  V30 4641 O 433.243 -4.03099 0.870908 0
M  V30 4642 H 432.584 -0.55293 0.367647 0
M  V30 4643 H 435.114 -1.27696 1.59859 0
M  V30 4644 H 435.124 -3.72243 1.6703 0
M  V30 4645 H 433.799 -3.1762 2.68497 0
M  V30 4646 H 432.376 -3.61693 0.907323 0
M  V30 4647 N 434.561 -1.01147 -1.20859 0
M  V30 4648 C 435.491 -0.597663 -2.25722 0
M  V30 4649 C 436.472 0.384744 -1.65692 0
M  V30 4650 O 437.657 0.271303 -1.92296 0
M  V30 4651 C 434.787 0.0700149 -3.47229 0
M  V30 4652 C 433.741 -0.832843 -4.19819 0
M  V30 4653 C 433.067 -0.0312202 -5.34691 0
M  V30 4654 C 434.367 -2.1385 -4.76514 0
M  V30 4655 H 436.061 -1.47423 -2.60589 0
M  V30 4656 H 433.607 -0.710301 -1.25263 0
M  V30 4657 H 435.56 0.37103 -4.19763 0
M  V30 4658 H 434.284 0.981259 -3.11511 0
M  V30 4659 H 432.943 -1.11778 -3.49144 0
M  V30 4660 H 432.591 0.881515 -4.95215 0
M  V30 4661 H 432.291 -0.632434 -5.84187 0
M  V30 4662 H 433.815 0.26346 -6.10031 0
M  V30 4663 H 435.229 -1.9002 -5.40893 0
M  V30 4664 H 433.626 -2.69012 -5.36426 0
M  V30 4665 H 434.696 -2.80495 -3.95538 0
M  V30 4666 N 436.039 1.36541 -0.78704 0
M  V30 4667 C 437.269 2.03266 -0.369662 0
M  V30 4668 C 437.677 1.59481 1.01796 0
M  V30 4669 O 437.02 0.778612 1.66383 0
M  V30 4670 C 437.082 3.57779 -0.351371 0
M  V30 4671 C 436.746 4.24756 -1.68617 0
M  V30 4672 C 437.743 4.47811 -2.64124 0
M  V30 4673 C 435.428 4.62277 -1.96481 0
M  V30 4674 C 437.422 5.07464 -3.85693 0
M  V30 4675 C 435.109 5.21649 -3.18317 0
M  V30 4676 C 436.107 5.44182 -4.12741 0
M  V30 4677 O 435.795 6.02307 -5.32429 0
M  V30 4678 H 435.527 0.658977 -0.150751 0
M  V30 4679 H 438.081 1.75548 -1.0664 0
M  V30 4680 H 436.311 3.84606 0.401847 0
M  V30 4681 H 438 4.05879 0.0410147 0
M  V30 4682 H 438.766 4.19221 -2.43883 0
M  V30 4683 H 434.645 4.44065 -1.23805 0
M  V30 4684 H 438.189 5.24968 -4.59407 0
M  V30 4685 H 434.086 5.49664 -3.38437 0
M  V30 4686 H 434.854 6.20775 -5.33461 0
M  V30 4687 N 437.518 0.538854 1.48102 0
M  V30 4688 C 438.743 0.0102694 2.07397 0
M  V30 4689 C 439.168 -1.26562 1.39153 0
M  V30 4690 O 438.526 -1.75357 0.460387 0
M  V30 4691 C 438.574 -0.187602 3.60112 0
M  V30 4692 O 437.678 -1.25432 3.92862 0
M  V30 4693 H 437.019 0.0430975 0.6626 0
M  V30 4694 H 439.549 0.749301 1.90385 0
M  V30 4695 H 439.559 -0.407517 4.0596 0
M  V30 4696 H 438.234 0.744386 4.09184 0
M  V30 4697 H 436.811 -1.01636 3.58782 0
M  V30 4698 N 438.996 -1.55193 0.274407 0
M  V30 4699 C 440.243 -1.99581 -0.342579 0
M  V30 4700 C 440.571 -1.1628 -1.55914 0
M  V30 4701 O 439.826 -0.22029 -1.94456 0
M  V30 4702 C 440.125 -3.49019 -0.769458 0
M  V30 4703 C 439.791 -4.49598 0.342389 0
M  V30 4704 C 438.453 -4.76821 0.647686 0
M  V30 4705 C 440.805 -5.0964 1.09163 0
M  V30 4706 C 438.133 -5.61354 1.70581 0
M  V30 4707 C 440.485 -5.95323 2.13948 0
M  V30 4708 C 439.149 -6.20867 2.45113 0
M  V30 4709 H 438.419 -0.730319 -0.125358 0
M  V30 4710 H 441.066 -1.87529 0.387971 0
M  V30 4711 H 439.371 -3.58544 -1.57967 0
M  V30 4712 H 441.068 -3.8077 -1.25757 0
M  V30 4713 H 437.658 -4.28496 0.094318 0
M  V30 4714 H 441.842 -4.88632 0.869024 0
M  V30 4715 H 437.098 -5.79392 1.9523 0
M  V30 4716 H 441.272 -6.40881 2.72478 0
M  V30 4717 H 438.899 -6.86162 3.27239 0
M  V30 4718 N 440.474 -0.00167713 -1.576 0
M  V30 4719 C 441.723 0.682021 -1.89819 0
M  V30 4720 C 442.036 1.74844 -0.876871 0
M  V30 4721 O 443.242 2.48688 -1.08934 0
M  V30 4722 C 441.698 1.26425 -3.36964 0
M  V30 4723 C 441.306 0.232568 -4.47396 0
M  V30 4724 C 443.05 1.92604 -3.78291 0
M  V30 4725 C 440.957 0.824882 -5.85619 0
M  V30 4726 H 439.887 0.258499 -0.708304 0
M  V30 4727 H 442.538 -0.0624957 -1.83394 0
M  V30 4728 H 440.92 2.05949 -3.38232 0
M  V30 4729 H 442.094 -0.5382 -4.57646 0
M  V30 4730 H 440.409 -0.32888 -4.15099 0
M  V30 4731 H 443.006 2.37827 -4.78897 0
M  V30 4732 H 443.349 2.75732 -3.11894 0
M  V30 4733 H 443.882 1.19812 -3.79328 0
M  V30 4734 H 440.621 0.0323542 -6.55492 0
M  V30 4735 H 440.141 1.56477 -5.79029 0
M  V30 4736 H 441.82 1.32301 -6.33329 0
M  V30 4737 N 441.952 1.55251 0.271103 0
M  V30 4738 C 442.899 1.88261 1.33516 0
M  V30 4739 C 443.869 0.734296 1.48988 0
M  V30 4740 O 445.054 0.985741 1.63364 0
M  V30 4741 C 442.194 2.16168 2.69008 0
M  V30 4742 C 441.307 3.43678 2.61743 0
M  V30 4743 C 440.442 3.61276 3.89427 0
M  V30 4744 C 439.481 4.82472 3.7668 0
M  V30 4745 N 438.618 4.96717 4.96202 0
M  V30 4746 H 443.458 2.79015 1.04665 0
M  V30 4747 H 440.995 1.38137 0.505618 0
M  V30 4748 H 442.953 2.30349 3.47844 0
M  V30 4749 H 441.583 1.28646 2.96057 0
M  V30 4750 H 440.635 3.37959 1.74607 0
M  V30 4751 H 441.947 4.3265 2.48224 0
M  V30 4752 H 441.101 3.75284 4.76704 0
M  V30 4753 H 439.84 2.70492 4.05814 0
M  V30 4754 H 438.845 4.68465 2.87786 0
M  V30 4755 H 440.07 5.74692 3.61809 0
M  V30 4756 H 438.016 4.08865 5.12997 0
M  V30 4757 H 437.933 5.79738 4.85222 0
M  V30 4758 H 439.201 5.15113 5.85046 0
M  V30 4759 N 443.43 -0.535701 1.48216 0
M  V30 4760 C 444.678 -1.28928 1.55634 0
M  V30 4761 C 444.999 -1.93645 0.229514 0
M  V30 4762 O 444.269 -1.81038 -0.74846 0
M  V30 4763 H 442.849 -0.47884 0.573342 0
M  V30 4764 H 445.511 -0.623853 1.84646 0
M  V30 4765 H 444.607 -2.07157 2.33436 0
M  V30 4766 N 444.908 -1.36708 -0.784132 0
M  V30 4767 C 446.185 -1.21776 -1.53069 0
M  V30 4768 C 446.565 0.193876 -2.10208 0
M  V30 4769 O 445.913 1.20012 -1.94446 0
M  V30 4770 C 446.123 -2.30395 -2.62143 0
M  V30 4771 C 447.471 -2.67325 -3.29882 0
M  V30 4772 O 448.495 -2.29478 -2.7243 0
M  V30 4773 O 447.354 -3.32485 -4.33724 0
M  V30 4774 H 444.448 -0.474459 -0.677361 0
M  V30 4775 H 446.994 -1.48454 -0.82216 0
M  V30 4776 H 445.766 -3.2498 -2.17953 0
M  V30 4777 H 445.389 -2.05112 -3.40609 0
M  V30 4778 N 446.386 1.0089 -1.21074 0
M  V30 4779 C 447.614 1.78191 -1.05145 0
M  V30 4780 C 448.029 1.84537 0.398952 0
M  V30 4781 O 447.386 1.30393 1.27687 0
M  V30 4782 C 447.437 3.22288 -1.63746 0
M  V30 4783 O 447.158 3.16315 -3.03111 0
M  V30 4784 C 448.659 4.16106 -1.52875 0
M  V30 4785 H 445.879 0.560129 -0.369454 0
M  V30 4786 H 448.423 1.26945 -1.60328 0
M  V30 4787 H 446.578 3.70655 -1.12664 0
M  V30 4788 H 446.992 4.06817 -3.31059 0
M  V30 4789 H 448.466 5.15026 -1.98626 0
M  V30 4790 H 448.943 4.36541 -0.482521 0
M  V30 4791 H 449.549 3.73625 -2.03185 0
M  V30 4792 N 447.864 1.01787 1.20321 0
M  V30 4793 C 449.089 0.727009 1.9424 0
M  V30 4794 C 449.514 -0.706179 1.74341 0
M  V30 4795 O 448.872 -1.48609 1.03852 0
M  V30 4796 C 448.92 1.06958 3.44372 0
M  V30 4797 O 448.024 0.181983 4.11998 0
M  V30 4798 H 447.365 0.269626 0.606793 0
M  V30 4799 H 449.895 1.36158 1.52716 0
M  V30 4800 H 449.905 1.02182 3.94997 0
M  V30 4801 H 448.58 2.11378 3.58179 0
M  V30 4802 H 447.157 0.287378 3.71791 0
M  V30 4803 N 449.342 -1.36122 0.79427 0
M  V30 4804 C 450.59 -1.98718 0.368177 0
M  V30 4805 C 450.911 -1.63345 -1.06506 0
M  V30 4806 O 450.181 -0.909825 -1.73491 0
M  V30 4807 H 448.761 -0.735038 0.133146 0
M  V30 4808 H 451.423 -1.66239 1.01739 0
M  V30 4809 H 450.519 -3.08633 0.463923 0
M  V30 4810 N 450.82 -0.546701 -1.47814 0
M  V30 4811 C 452.097 0.0464413 -1.95545 0
M  V30 4812 C 452.477 1.4962 -1.48919 0
M  V30 4813 O 451.825 2.16752 -0.723232 0
M  V30 4814 C 452.035 -0.0881298 -3.48889 0
M  V30 4815 C 453.383 0.0626059 -4.24554 0
M  V30 4816 O 454.407 -0.0151555 -3.56197 0
M  V30 4817 O 453.266 0.228071 -5.46024 0
M  V30 4818 H 450.36 0.0700004 -0.824032 0
M  V30 4819 H 452.906 -0.612482 -1.58262 0
M  V30 4820 H 451.678 -1.09737 -3.75597 0
M  V30 4821 H 451.301 0.608886 -3.9291 0
M  V30 4822 N 452.299 1.55045 -0.282633 0
M  V30 4823 C 453.529 2.03872 0.334635 0
M  V30 4824 C 453.937 1.16018 1.49454 0
M  V30 4825 O 453.28 0.174449 1.8287 0
M  V30 4826 C 453.342 3.48791 0.870905 0
M  V30 4827 C 453.006 4.56715 -0.161338 0
M  V30 4828 C 454.003 5.10513 -0.983466 0
M  V30 4829 C 451.688 5.01417 -0.297745 0
M  V30 4830 C 453.682 6.07538 -1.92811 0
M  V30 4831 C 451.369 5.98265 -1.24586 0
M  V30 4832 C 452.367 6.51208 -2.05954 0
M  V30 4833 O 452.055 7.46162 -2.99162 0
M  V30 4834 H 451.787 0.671324 0.0793742 0
M  V30 4835 H 454.341 2.01169 -0.41473 0
M  V30 4836 H 452.571 3.48758 1.67047 0
M  V30 4837 H 454.26 3.80916 1.40207 0
M  V30 4838 H 455.026 4.76785 -0.888856 0
M  V30 4839 H 450.905 4.59849 0.325604 0
M  V30 4840 H 454.449 6.48787 -2.56363 0
M  V30 4841 H 450.346 6.31412 -1.34126 0
M  V30 4842 H 451.114 7.63903 -2.93929 0
M  V30 4843 N 453.777 0.010035 1.57597 0
M  V30 4844 C 455.193 -0.346164 1.55801 0
M  V30 4845 C 455.393 -1.74144 1.01371 0
M  V30 4846 O 454.449 -2.43938 0.651968 0
M  V30 4847 C 455.762 -0.212216 2.9995 0
M  V30 4848 C 457.31 -0.286409 3.11687 0
M  V30 4849 C 457.785 -0.18147 4.5764 0
M  V30 4850 N 459.276 -0.239056 4.62583 0
M  V30 4851 C 460.011 -0.181351 5.73113 0
M  V30 4852 N 459.507 -0.073661 6.92761 0
M  V30 4853 N 461.3 -0.233949 5.61613 0
M  V30 4854 H 453.451 0.922657 1.91313 0
M  V30 4855 H 455.714 0.354595 0.879185 0
M  V30 4856 H 455.42 0.748169 3.4365 0
M  V30 4857 H 455.294 -0.990224 3.6397 0
M  V30 4858 H 457.681 -1.23724 2.67911 0
M  V30 4859 H 457.762 0.521645 2.50425 0
M  V30 4860 H 457.406 0.765863 5.02093 0
M  V30 4861 H 457.336 -1.00814 5.1686 0
M  V30 4862 H 459.827 -0.32321 3.76515 0
M  V30 4863 H 460.14 -0.0358003 7.72792 0
M  V30 4864 H 458.485 -0.0391461 6.94989 0
M  V30 4865 H 461.676 -0.316347 4.6703 0
M  V30 4866 H 461.849 -0.185514 6.47734 0
M  V30 4867 N 455.255 -1.55392 -0.262866 0
M  V30 4868 C 456.202 -1.88966 -1.32516 0
M  V30 4869 C 457.172 -0.742187 -1.48596 0
M  V30 4870 O 458.357 -0.99439 -1.62839 0
M  V30 4871 C 455.497 -2.17592 -2.67858 0
M  V30 4872 C 454.61 -3.45061 -2.59917 0
M  V30 4873 C 453.745 -3.63336 -3.87505 0
M  V30 4874 C 452.784 -4.84462 -3.74116 0
M  V30 4875 N 451.921 -4.99342 -4.93561 0
M  V30 4876 H 456.761 -2.79566 -1.03184 0
M  V30 4877 H 454.298 -1.38404 -0.498285 0
M  V30 4878 H 456.256 -2.3219 -3.46617 0
M  V30 4879 H 454.886 -1.30215 -2.95371 0
M  V30 4880 H 453.938 -3.38881 -1.72812 0
M  V30 4881 H 455.25 -4.3396 -2.45926 0
M  V30 4882 H 454.404 -3.77807 -4.74707 0
M  V30 4883 H 453.143 -2.72641 -4.04374 0
M  V30 4884 H 452.148 -4.69985 -2.85297 0
M  V30 4885 H 453.373 -5.76603 -3.58757 0
M  V30 4886 H 451.319 -4.1158 -5.10821 0
M  V30 4887 H 451.236 -5.82303 -4.82141 0
M  V30 4888 H 452.504 -5.18208 -5.82306 0
M  V30 4889 N 456.733 0.527833 -1.48498 0
M  V30 4890 C 457.979 1.28545 -1.56857 0
M  V30 4891 C 458.312 1.92678 -0.242651 0
M  V30 4892 O 457.587 1.79394 0.751545 0
M  V30 4893 C 457.87 2.37314 -2.70839 0
M  V30 4894 C 457.723 1.77858 -4.13142 0
M  V30 4895 C 459.042 3.39068 -2.80573 0
M  V30 4896 H 456.161 0.466006 -0.570971 0
M  V30 4897 H 458.803 0.587784 -1.8068 0
M  V30 4898 H 456.953 2.96821 -2.50658 0
M  V30 4899 H 458.625 1.22385 -4.44769 0
M  V30 4900 H 456.868 1.08383 -4.20042 0
M  V30 4901 H 457.539 2.56624 -4.88721 0
M  V30 4902 H 460.015 2.89518 -2.98862 0
M  V30 4903 H 458.891 4.12566 -3.6205 0
M  V30 4904 H 459.152 3.9975 -1.88818 0
M  V30 4905 N 458.211 1.37122 0.776871 0
M  V30 4906 C 459.141 1.35164 1.90402 0
M  V30 4907 C 460.122 0.221069 1.68657 0
M  V30 4908 O 461.307 0.420642 1.8959 0
M  V30 4909 C 458.437 1.15274 3.27611 0
M  V30 4910 C 457.391 2.25289 3.63908 0
M  V30 4911 C 456.717 1.90527 4.99603 0
M  V30 4912 C 458.017 3.67446 3.71188 0
M  V30 4913 H 459.711 2.29482 1.92297 0
M  V30 4914 H 457.257 1.10465 0.923773 0
M  V30 4915 H 459.21 1.12536 4.06096 0
M  V30 4916 H 457.934 0.174102 3.26136 0
M  V30 4917 H 456.593 2.27174 2.87728 0
M  V30 4918 H 456.241 0.91206 4.94662 0
M  V30 4919 H 455.941 2.64193 5.24858 0
M  V30 4920 H 457.465 1.89367 5.80493 0
M  V30 4921 H 458.879 3.67719 4.39836 0
M  V30 4922 H 457.276 4.40123 4.07936 0
M  V30 4923 H 458.346 4.01443 2.71977 0
M  V30 4924 N 459.689 -1.00246 1.21608 0
M  V30 4925 C 460.619 -2.10921 1.00172 0
M  V30 4926 C 461.6 -1.69938 -0.0741587 0
M  V30 4927 O 462.785 -1.94009 0.0861753 0
M  V30 4928 C 459.915 -3.42618 0.568355 0
M  V30 4929 C 458.869 -3.97407 1.58909 0
M  V30 4930 C 458.195 -5.25038 1.01187 0
M  V30 4931 C 459.495 -4.2918 2.97661 0
M  V30 4932 H 461.189 -2.29112 1.92739 0
M  V30 4933 H 458.735 -1.10101 0.928102 0
M  V30 4934 H 460.688 -4.19444 0.405555 0
M  V30 4935 H 459.412 -3.24227 -0.392961 0
M  V30 4936 H 458.071 -3.22703 1.73949 0
M  V30 4937 H 457.719 -5.02982 0.0421965 0
M  V30 4938 H 457.419 -5.62661 1.6937 0
M  V30 4939 H 458.943 -6.04507 0.860448 0
M  V30 4940 H 460.357 -4.96839 2.86049 0
M  V30 4941 H 458.754 -4.77952 3.6288 0
M  V30 4942 H 459.824 -3.3735 3.48315 0
M  V30 4943 N 461.167 -1.02423 -1.1978 0
M  V30 4944 C 462.413 -0.719051 -1.89625 0
M  V30 4945 C 462.746 0.750083 -1.7913 0
M  V30 4946 O 462.021 1.54574 -1.18056 0
M  V30 4947 C 462.304 -1.16499 -3.40735 0
M  V30 4948 C 462.157 -2.695 -3.60125 0
M  V30 4949 C 463.476 -0.742166 -4.33797 0
M  V30 4950 H 460.595 -0.26269 -0.688595 0
M  V30 4951 H 463.237 -1.27333 -1.41018 0
M  V30 4952 H 461.387 -0.69341 -3.82262 0
M  V30 4953 H 463.059 -3.24569 -3.278 0
M  V30 4954 H 461.302 -3.10113 -3.03336 0
M  V30 4955 H 461.973 -2.95757 -4.66081 0
M  V30 4956 H 464.449 -1.1477 -3.99959 0
M  V30 4957 H 463.325 -1.08213 -5.38127 0
M  V30 4958 H 463.586 0.355747 -4.40666 0
M  V30 4959 N 462.645 1.35699 -0.801477 0
M  V30 4960 C 463.575 2.32436 -0.222658 0
M  V30 4961 C 464.556 1.5723 0.649057 0
M  V30 4962 O 465.741 1.85324 0.580387 0
M  V30 4963 C 462.871 3.41469 0.633719 0
M  V30 4964 C 461.825 4.27774 -0.139083 0
M  V30 4965 C 461.151 5.28082 0.838666 0
M  V30 4966 C 462.451 5.04946 -1.33517 0
M  V30 4967 H 464.145 2.81094 -1.03086 0
M  V30 4968 H 461.691 1.35146 -0.497155 0
M  V30 4969 H 463.644 4.08143 1.04868 0
M  V30 4970 H 462.368 2.91408 1.47475 0
M  V30 4971 H 461.027 3.62673 -0.535156 0
M  V30 4972 H 460.675 4.7429 1.67506 0
M  V30 4973 H 460.375 5.86695 0.32594 0
M  V30 4974 H 461.899 5.97628 1.25194 0
M  V30 4975 H 463.313 5.64593 -0.995349 0
M  V30 4976 H 461.71 5.7303 -1.78202 0
M  V30 4977 H 462.78 4.35886 -2.12442 0
M  V30 4978 N 464.123 0.554532 1.47522 0
M  V30 4979 C 465.363 0.0317994 2.04375 0
M  V30 4980 C 465.727 -1.29242 1.41988 0
M  V30 4981 O 466.928 -1.90269 1.89872 0
M  V30 4982 C 465.199 -0.0623344 3.57346 0
M  V30 4983 S 466.758 -0.531578 4.35568 0
M  V30 4984 H 463.576 0.0238553 0.7106 0
M  V30 4985 H 466.178 0.74066 1.80927 0
M  V30 4986 H 464.882 0.905857 4.00278 0
M  V30 4987 H 464.413 -0.794831 3.85287 0
M  V30 4988 H 466.428 -1.79175 4.62721 0
M  V30 4989 N 465.601 -1.54893 0.290851 0
M  V30 4990 C 466.849 -1.99538 -0.320756 0
M  V30 4991 C 467.17 -1.18075 -1.55188 0
M  V30 4992 O 466.44 -0.274162 -1.93972 0
M  V30 4993 H 465.02 -0.737052 -0.121507 0
M  V30 4994 H 467.682 -1.90755 0.399832 0
M  V30 4995 H 466.778 -3.06282 -0.599802 0
M  V30 4996 N 467.08 -0.0183926 -1.57589 0
M  V30 4997 C 468.328 0.661253 -1.90976 0
M  V30 4998 C 468.649 1.73281 -0.894353 0
M  V30 4999 O 467.919 1.9579 0.0656788 0
M  V30 5000 H 466.499 0.247233 -0.704901 0
M  V30 5001 H 469.161 -0.0636639 -1.94796 0
M  V30 5002 H 468.257 1.12083 -2.9128 0
M  V30 5003 N 468.558 1.5553 0.254621 0
M  V30 5004 C 469.835 1.6774 1.00611 0
M  V30 5005 C 470.215 0.555993 2.03647 0
M  V30 5006 O 469.563 -0.441583 2.24193 0
M  V30 5007 C 469.773 3.07725 1.6464 0
M  V30 5008 C 471.121 3.66074 2.15116 0
M  V30 5009 O 472.145 3.10476 1.74595 0
M  V30 5010 O 471.004 4.63526 2.89493 0
M  V30 5011 H 468.098 0.681958 0.467828 0
M  V30 5012 H 470.644 1.67863 0.24902 0
M  V30 5013 H 469.416 3.80792 0.900734 0
M  V30 5014 H 469.039 3.1158 2.46989 0
M  V30 5015 N 470.036 -0.519951 1.48776 0
M  V30 5016 C 471.313 -1.28123 1.47797 0
M  V30 5017 C 471.693 -2.10196 0.195157 0
M  V30 5018 O 471.041 -2.13167 -0.822925 0
M  V30 5019 C 471.251 -2.15413 2.74587 0
M  V30 5020 C 472.599 -2.75225 3.23321 0
M  V30 5021 O 473.623 -2.25694 2.75574 0
M  V30 5022 O 472.482 -3.65346 4.06429 0
M  V30 5023 H 469.576 -0.578793 0.590701 0
M  V30 5024 H 472.122 -0.535779 1.6102 0
M  V30 5025 H 470.894 -1.54617 3.59457 0
M  V30 5026 H 470.517 -2.97186 2.64132 0
M  V30 5027 O 471.553 -1.47171 -0.665045 0
M  V30 5028 H 472.244 -1.41937 -1.31809 0
M  V30 END ATOM
M  V30 BEGIN BOND
M  V30 END BOND
M  V30 END CTAB
M  END
$$$$
