drugbank_target|P09598 Phospholipase C (DB02225; DB03827)
 OpenBabel12092119563D

  0  0  0     0  0            999 V3000
M  V30 BEGIN CTAB
M  V30 COUNTS 4487 4551 0 0 0
M  V30 BEGIN ATOM
M  V30 1 H -0.908 1.98254 -0.117106 0
M  V30 2 N 0 1.576 0 0
M  V30 3 C 0.933 2.03868 1.02534 0
M  V30 4 C 1.911 0.928543 1.3348 0
M  V30 5 O 3.095 1.19667 1.45644 0
M  V30 6 C 0.222 2.43627 2.35294 0
M  V30 7 C -0.732 3.65373 2.2001 0
M  V30 8 S 0.101 5.13292 1.52614 0
M  V30 9 C 1.257 5.56322 2.86805 0
M  V30 10 H 1.49 2.90518 0.631377 0
M  V30 11 H -0.977 1.52953 0.210867 0
M  V30 12 H 0.981 2.67203 3.11629 0
M  V30 13 H -0.358 1.57376 2.7183 0
M  V30 14 H -1.165 3.90944 3.18086 0
M  V30 15 H -1.563 3.418 1.51819 0
M  V30 16 H 0.729 5.58782 3.83104 0
M  V30 17 H 1.672 6.56266 2.65933 0
M  V30 18 H 2.08 4.83886 2.90714 0
M  V30 19 N 1.4781 -0.272755 1.55222 0
M  V30 20 C 2.4251 -1.33716 1.88119 0
M  V30 21 C 3.3951 -1.49066 0.73271 0
M  V30 22 O 4.5801 -1.63469 0.984002 0
M  V30 23 C 1.7201 -2.69238 2.15882 0
M  V30 24 C 0.8331 -2.62108 3.43399 0
M  V30 25 C -0.0319 -3.89811 3.60861 0
M  V30 26 C -0.9929 -3.77193 4.8207 0
M  V30 27 N -1.8559 -4.9673 4.96189 0
M  V30 28 H 2.9841 -1.04962 2.78903 0
M  V30 29 H 0.5211 -0.507088 1.38083 0
M  V30 30 H 2.4791 -3.48089 2.29978 0
M  V30 31 H 1.1091 -2.96194 1.28331 0
M  V30 32 H 0.1611 -1.74967 3.37773 0
M  V30 33 H 1.4731 -2.48685 4.32386 0
M  V30 34 H 0.6271 -4.77103 3.74777 0
M  V30 35 H -0.6339 -4.06102 2.7006 0
M  V30 36 H -1.6289 -2.88284 4.68159 0
M  V30 37 H -0.4039 -3.62421 5.74307 0
M  V30 38 H -2.4579 -5.13431 4.08319 0
M  V30 39 H -2.5409 -4.85839 5.79221 0
M  V30 40 H -1.2729 -5.85594 5.1449 0
M  V30 41 N 2.9562 -1.48159 -0.537278 0
M  V30 42 C 3.9032 -1.62138 -1.64256 0
M  V30 43 C 4.8732 -0.463668 -1.59497 0
M  V30 44 O 6.0582 -0.686241 -1.78032 0
M  V30 45 C 3.1982 -1.66028 -3.02537 0
M  V30 46 C 2.3112 -2.92855 -3.17585 0
M  V30 47 C 1.4462 -2.87952 -4.46382 0
M  V30 48 C 0.4852 -4.09516 -4.54932 0
M  V30 49 N -0.3778 -4.02733 -5.75109 0
M  V30 50 H 4.4622 -2.56529 -1.51647 0
M  V30 51 H 1.9992 -1.27224 -0.738414 0
M  V30 52 H 3.9572 -1.66265 -3.82638 0
M  V30 53 H 2.5872 -0.751331 -3.13934 0
M  V30 54 H 1.6392 -3.02395 -2.30784 0
M  V30 55 H 2.9512 -3.82822 -3.19764 0
M  V30 56 H 2.1052 -2.8655 -5.34765 0
M  V30 57 H 0.8442 -1.95702 -4.46712 0
M  V30 58 H -0.1508 -4.11201 -3.64957 0
M  V30 59 H 1.0742 -5.02917 -4.56346 0
M  V30 60 H -0.9798 -3.13299 -5.76351 0
M  V30 61 H -1.0628 -4.86397 -5.78752 0
M  V30 62 H 0.2052 -4.05379 -6.65799 0
M  V30 63 N 4.4343 0.785586 -1.36625 0
M  V30 64 C 5.3813 1.89838 -1.31264 0
M  V30 65 C 6.3513 1.65115 -0.180633 0
M  V30 66 O 7.5363 1.87222 -0.36777 0
M  V30 67 C 4.6763 3.26706 -1.11163 0
M  V30 68 C 3.7893 3.63476 -2.33472 0
M  V30 69 C 2.9243 4.89481 -2.06353 0
M  V30 70 C 1.9633 5.18941 -3.24602 0
M  V30 71 N 1.1003 6.36131 -2.97123 0
M  V30 72 H 5.9403 1.93756 -2.26413 0
M  V30 73 H 3.4773 0.947454 -1.12524 0
M  V30 74 H 5.4353 4.05639 -0.975337 0
M  V30 75 H 4.0653 3.222 -0.196674 0
M  V30 76 H 3.1173 2.79636 -2.57891 0
M  V30 77 H 4.4293 3.81193 -3.21704 0
M  V30 78 H 3.5833 5.76288 -1.89675 0
M  V30 79 H 2.3223 4.73841 -1.15437 0
M  V30 80 H 1.3273 4.30615 -3.41834 0
M  V30 81 H 2.5523 5.36498 -4.16349 0
M  V30 82 H 0.4983 6.21875 -2.08823 0
M  V30 83 H 0.4153 6.54198 -3.78894 0
M  V30 84 H 1.6833 7.2591 -2.84033 0
M  V30 85 N 5.9124 1.20967 1.01018 0
M  V30 86 C 7.1584 1.02526 1.74975 0
M  V30 87 C 7.4914 -0.4408 1.89131 0
M  V30 88 O 6.7664 -1.32718 1.42184 0
M  V30 89 C 7.0494 1.71699 3.1653 0
M  V30 90 C 6.9024 3.25791 3.10129 0
M  V30 91 C 8.2214 1.45531 4.15342 0
M  V30 92 H 5.3404 0.373863 0.635134 0
M  V30 93 H 7.9824 1.49071 1.17805 0
M  V30 94 H 6.1324 1.32128 3.65341 0
M  V30 95 H 7.8044 3.74697 2.69072 0
M  V30 96 H 6.0474 3.56363 2.47362 0
M  V30 97 H 6.7184 3.69353 4.10222 0
M  V30 98 H 9.1944 1.79872 3.75213 0
M  V30 99 H 8.0704 1.96453 5.1254 0
M  V30 100 H 8.3314 0.384237 4.40427 0
M  V30 101 N 7.3905 -1.2043 1.01659 0
M  V30 102 C 8.3205 -2.25466 0.607226 0
M  V30 103 C 9.3015 -1.65853 -0.377716 0
M  V30 104 O 10.4865 -1.92409 -0.263149 0
M  V30 105 C 7.6165 -3.47256 -0.0552949 0
M  V30 106 C 6.5705 -4.19462 0.850632 0
M  V30 107 C 5.8965 -5.34673 0.0538859 0
M  V30 108 C 7.1965 -4.75603 2.15868 0
M  V30 109 H 8.8905 -2.59962 1.48526 0
M  V30 110 H 6.4365 -1.2496 0.715605 0
M  V30 111 H 8.3895 -4.19917 -0.353233 0
M  V30 112 H 7.1135 -3.11924 -0.968045 0
M  V30 113 H 5.7725 -3.48667 1.13257 0
M  V30 114 H 5.4205 -4.95585 -0.860514 0
M  V30 115 H 5.1205 -5.83913 0.657192 0
M  V30 116 H 6.6445 -6.10138 -0.237598 0
M  V30 117 H 8.0585 -5.40083 1.92311 0
M  V30 118 H 6.4555 -5.3528 2.71284 0
M  V30 119 H 7.5255 -3.94346 2.82169 0
M  V30 120 N 8.8686 -0.792821 -1.36206 0
M  V30 121 C 9.8316 -0.199459 -2.2833 0
M  V30 122 C 10.8316 0.605189 -1.48977 0
M  V30 123 O 12.0216 0.425685 -1.68919 0
M  V30 124 C 9.1536 0.723523 -3.33134 0
M  V30 125 H 10.3466 -1.01181 -2.82316 0
M  V30 126 H 7.8996 -0.562485 -1.45828 0
M  V30 127 H 8.6346 1.56008 -2.84309 0
M  V30 128 H 8.4196 0.148436 -3.91819 0
M  V30 129 H 9.9096 1.13344 -4.01924 0
M  V30 130 N 10.3467 1.47872 -0.545128 0
M  V30 131 C 11.2767 2.32661 0.197793 0
M  V30 132 C 12.2577 1.43041 0.920504 0
M  V30 133 O 13.4427 1.71912 0.90333 0
M  V30 134 C 10.5727 3.24569 1.23582 0
M  V30 135 C 9.5267 4.23333 0.630323 0
M  V30 136 C 8.8527 5.0448 1.77211 0
M  V30 137 C 10.1527 5.20704 -0.407974 0
M  V30 138 H 11.8467 2.95024 -0.510045 0
M  V30 139 H 9.3927 1.4187 -0.246731 0
M  V30 140 H 11.3457 3.8272 1.76362 0
M  V30 141 H 10.0697 2.60236 1.97344 0
M  V30 142 H 8.7287 3.6639 0.123922 0
M  V30 143 H 8.3767 4.36561 2.49847 0
M  V30 144 H 8.0767 5.71339 1.37281 0
M  V30 145 H 9.6007 5.65487 2.3034 0
M  V30 146 H 11.0147 5.7329 0.033305 0
M  V30 147 H 9.4117 5.95699 -0.725486 0
M  V30 148 H 10.4817 4.66917 -1.30828 0
M  V30 149 N 11.8248 0.280983 1.55075 0
M  V30 150 C 12.7878 -0.590896 2.21452 0
M  V30 151 C 13.7878 -1.07682 1.19421 0
M  V30 152 O 14.9778 -0.97605 1.44288 0
M  V30 153 C 12.1098 -1.81587 2.88511 0
M  V30 154 H 13.3028 -0.0112554 2.99898 0
M  V30 155 H 10.8558 0.0316438 1.56268 0
M  V30 156 H 11.5908 -2.43587 2.14093 0
M  V30 157 H 11.3758 -1.4753 3.63287 0
M  V30 158 H 12.8658 -2.43575 3.39206 0
M  V30 159 N 13.3029 -1.57598 0.00835791 0
M  V30 160 C 14.2659 -2.07884 -0.965242 0
M  V30 161 C 15.2659 -0.989825 -1.26725 0
M  V30 162 O 16.4559 -1.25218 -1.21104 0
M  V30 163 C 13.5879 -2.52731 -2.28779 0
M  V30 164 H 14.7809 -2.95178 -0.530112 0
M  V30 165 H 12.3339 -1.54458 -0.239283 0
M  V30 166 H 13.0689 -1.68705 -2.76964 0
M  V30 167 H 12.8539 -3.32272 -2.08177 0
M  V30 168 H 14.3439 -2.91933 -2.98605 0
M  V30 169 N 14.781 0.264519 -1.55364 0
M  V30 170 C 15.744 1.31046 -1.88042 0
M  V30 171 C 16.744 1.41943 -0.755569 0
M  V30 172 O 17.934 1.40947 -1.02369 0
M  V30 173 C 15.066 2.69067 -2.09323 0
M  V30 174 H 16.259 1.03297 -2.81549 0
M  V30 175 H 13.812 0.502989 -1.47986 0
M  V30 176 H 14.547 3.01982 -1.18226 0
M  V30 177 H 14.332 2.62542 -2.91229 0
M  V30 178 H 15.822 3.44623 -2.35848 0
M  V30 179 N 16.2591 1.48442 0.529413 0
M  V30 180 C 17.5081 1.55742 1.28169 0
M  V30 181 C 17.8211 0.236511 1.94165 0
M  V30 182 O 19.0271 0.187761 2.7085 0
M  V30 183 C 17.4831 2.74667 2.32564 0
M  V30 184 C 17.0911 4.13402 1.72636 0
M  V30 185 C 18.8351 2.9128 3.08798 0
M  V30 186 C 16.7421 5.23587 2.74975 0
M  V30 187 H 15.6721 0.579796 0.48203 0
M  V30 188 H 18.3231 1.74776 0.559056 0
M  V30 189 H 16.7051 2.49067 3.07866 0
M  V30 190 H 17.8791 4.49022 1.03519 0
M  V30 191 H 16.1941 4.0191 1.08892 0
M  V30 192 H 18.7911 3.70767 3.85274 0
M  V30 193 H 19.1341 2.00757 3.64695 0
M  V30 194 H 19.6671 3.16782 2.40611 0
M  V30 195 H 16.4061 6.16076 2.23897 0
M  V30 196 H 15.9261 4.92454 3.42417 0
M  V30 197 H 17.6051 5.51724 3.37949 0
M  V30 198 N 17.7372 -0.778329 1.37039 0
M  V30 199 C 18.9652 -1.56734 1.35063 0
M  V30 200 C 19.3802 -1.88686 -0.0655597 0
M  V30 201 O 18.7372 -1.5096 -1.02554 0
M  V30 202 C 18.7882 -2.88163 2.18276 0
M  V30 203 O 18.5092 -2.57583 3.54376 0
M  V30 204 C 20.0102 -3.82422 2.24206 0
M  V30 205 H 17.2302 -0.485778 0.462883 0
M  V30 206 H 19.7742 -0.965185 1.8029 0
M  V30 207 H 17.9292 -3.44818 1.76576 0
M  V30 208 H 18.3432 -3.41699 3.97922 0
M  V30 209 H 19.8172 -4.71667 2.86765 0
M  V30 210 H 20.2942 -4.21078 1.24861 0
M  V30 211 H 20.9002 -3.31697 2.6619 0
M  V30 212 N 19.2153 -1.21501 -1.00376 0
M  V30 213 C 20.4613 -1.03452 -1.74429 0
M  V30 214 C 20.7943 0.430764 -1.89362 0
M  V30 215 O 20.0693 1.31962 -1.42886 0
M  V30 216 C 20.3523 -1.73375 -3.15615 0
M  V30 217 C 20.2053 -3.27431 -3.08397 0
M  V30 218 C 21.5243 -1.47732 -4.14564 0
M  V30 219 H 18.6433 -0.377226 -0.633143 0
M  V30 220 H 21.2853 -1.49693 -1.17013 0
M  V30 221 H 19.4353 -1.34064 -3.64636 0
M  V30 222 H 21.1073 -3.76119 -2.67081 0
M  V30 223 H 19.3503 -3.5767 -2.45468 0
M  V30 224 H 20.0213 -3.71524 -4.08258 0
M  V30 225 H 22.4973 -1.8186 -3.74254 0
M  V30 226 H 21.3733 -1.99169 -5.11491 0
M  V30 227 H 21.6343 -0.407589 -4.40217 0
M  V30 228 N 20.6934 1.19889 -1.02296 0
M  V30 229 C 21.9394 1.89701 -0.717033 0
M  V30 230 C 22.2724 1.7905 0.751989 0
M  V30 231 O 21.5474 1.17891 1.547 0
M  V30 232 C 21.8304 3.40858 -1.16136 0
M  V30 233 C 21.6834 3.60411 -2.69117 0
M  V30 234 C 23.0024 4.33876 -0.737549 0
M  V30 235 H 20.1214 0.688874 -0.261957 0
M  V30 236 H 22.7634 1.41154 -1.27183 0
M  V30 237 H 20.9134 3.82335 -0.689342 0
M  V30 238 H 22.5854 3.28145 -3.2422 0
M  V30 239 H 20.8284 3.03665 -3.0979 0
M  V30 240 H 21.4994 4.66396 -2.95261 0
M  V30 241 H 23.9754 4.00081 -1.14344 0
M  V30 242 H 22.8514 5.38242 -1.0764 0
M  V30 243 H 23.1124 4.40628 0.360436 0
M  V30 244 N 22.1715 0.800033 1.35784 0
M  V30 245 C 23.1345 0.211565 2.28221 0
M  V30 246 C 24.1345 -0.59728 1.49296 0
M  V30 247 O 25.3245 -0.416721 1.69142 0
M  V30 248 C 22.4565 -0.705846 3.33513 0
M  V30 249 H 23.6495 1.02677 2.81776 0
M  V30 250 H 21.2025 0.570211 1.45528 0
M  V30 251 H 21.9375 -1.54498 2.85133 0
M  V30 252 H 21.7225 -0.127655 3.91892 0
M  V30 253 H 23.2125 -1.11211 4.02519 0
M  V30 254 N 23.6496 -1.47581 0.552962 0
M  V30 255 C 25.0606 -1.86324 0.118463 0
M  V30 256 C 25.4116 -1.46006 -1.3106 0
M  V30 257 O 24.5366 -0.861182 -1.98526 0
M  V30 258 C 25.1316 -3.3816 0.20821 0
M  V30 259 C 23.6906 -3.7601 -0.171226 0
M  V30 260 C 22.8376 -2.71634 0.557686 0
M  V30 261 H 25.7886 -1.39159 0.762928 0
M  V30 262 H 25.8096 -3.76141 -0.574278 0
M  V30 263 H 25.3216 -3.67473 1.24841 0
M  V30 264 H 23.4226 -3.52313 -1.21269 0
M  V30 265 H 23.5356 -4.78745 0.184379 0
M  V30 266 H 21.8996 -2.547 0.00125792 0
M  V30 267 H 22.6826 -3.0379 1.59896 0
M  V30 268 N 25.1277 -0.289203 -1.54924 0
M  V30 269 C 26.0577 0.58549 -2.2604 0
M  V30 270 C 27.0387 1.14753 -1.25562 0
M  V30 271 O 28.2237 1.17906 -1.54311 0
M  V30 272 C 25.3537 1.76305 -2.99222 0
M  V30 273 C 24.3077 1.33191 -4.06748 0
M  V30 274 C 23.6337 2.5937 -4.6758 0
M  V30 275 C 24.9337 0.471775 -5.20165 0
M  V30 276 H 26.6277 -0.00763532 -2.99399 0
M  V30 277 H 24.1737 -0.00511229 -1.43999 0
M  V30 278 H 26.1267 2.38097 -3.47689 0
M  V30 279 H 24.8507 2.38223 -2.23422 0
M  V30 280 H 23.5097 0.737121 -3.59113 0
M  V30 281 H 23.1577 3.19576 -3.88433 0
M  V30 282 H 22.8577 2.31228 -5.40192 0
M  V30 283 H 24.3817 3.21985 -5.18804 0
M  V30 284 H 25.7957 0.995056 -5.64599 0
M  V30 285 H 24.1927 0.284639 -5.99425 0
M  V30 286 H 25.2627 -0.506041 -4.82252 0
M  V30 287 N 26.6058 1.57591 -0.0167156 0
M  V30 288 C 27.5378 2.06343 0.997753 0
M  V30 289 C 28.5508 0.984469 1.29661 0
M  V30 290 O 29.7398 1.26093 1.26344 0
M  V30 291 C 26.8398 2.46255 2.32834 0
M  V30 292 C 26.0128 3.77083 2.21646 0
M  V30 293 C 25.0718 4.0368 3.37534 0
M  V30 294 O 24.0978 4.7411 3.14973 0
M  V30 295 N 25.2998 3.52881 4.60929 0
M  V30 296 H 28.0648 2.93997 0.581875 0
M  V30 297 H 25.6258 1.61002 0.170316 0
M  V30 298 H 27.6178 2.61149 3.09166 0
M  V30 299 H 26.1878 1.64032 2.66106 0
M  V30 300 H 25.4078 3.72106 1.30119 0
M  V30 301 H 26.6958 4.62822 2.11361 0
M  V30 302 H 26.0938 2.95878 4.82154 0
M  V30 303 H 24.6508 3.73076 5.34469 0
M  V30 304 N 28.0839 -0.256276 1.55502 0
M  V30 305 C 29.3089 -1.00766 1.81276 0
M  V30 306 C 29.7339 -1.78524 0.59252 0
M  V30 307 O 29.0919 -1.75413 -0.45827 0
M  V30 308 C 29.1399 -1.92869 3.04687 0
M  V30 309 O 28.2439 -3.019 2.80945 0
M  V30 310 H 27.5849 -0.287224 0.598664 0
M  V30 311 H 30.1149 -0.280109 2.02674 0
M  V30 312 H 30.1249 -2.34511 3.33869 0
M  V30 313 H 28.7999 -1.35689 3.93143 0
M  V30 314 H 27.3769 -2.64454 2.62904 0
M  V30 315 N 29.562 -1.4872 -0.521534 0
M  V30 316 C 30.808 -1.574 -1.27879 0
M  V30 317 C 31.141 -0.250817 -1.92573 0
M  V30 318 O 30.416 0.743934 -1.79711 0
M  V30 319 C 30.699 -2.71843 -2.36164 0
M  V30 320 C 30.552 -4.13893 -1.76105 0
M  V30 321 C 31.871 -2.82008 -3.37875 0
M  V30 322 H 28.99 -0.572941 -0.463581 0
M  V30 323 H 31.632 -1.80927 -0.580119 0
M  V30 324 H 29.782 -2.51914 -2.95756 0
M  V30 325 H 31.454 -4.45284 -1.20499 0
M  V30 326 H 29.697 -4.20498 -1.06601 0
M  V30 327 H 30.368 -4.89804 -2.5455 0
M  V30 328 H 32.844 -3.00086 -2.88249 0
M  V30 329 H 31.72 -3.63796 -4.11028 0
M  V30 330 H 31.981 -1.90511 -3.98946 0
M  V30 331 N 31.0401 0.771051 -1.3745 0
M  V30 332 C 32.0031 1.86598 -1.33093 0
M  V30 333 C 33.0031 1.59076 -0.234845 0
M  V30 334 O 34.1931 1.67145 -0.490732 0
M  V30 335 C 31.3251 3.23747 -1.06773 0
M  V30 336 H 32.5181 1.91873 -2.30488 0
M  V30 337 H 30.0711 0.970876 -1.2249 0
M  V30 338 H 30.8061 3.24148 -0.099129 0
M  V30 339 H 30.5911 3.45115 -1.86112 0
M  V30 340 H 32.0811 4.03824 -1.06377 0
M  V30 341 N 32.5182 1.22032 0.997298 0
M  V30 342 C 33.7652 1.04222 1.73621 0
M  V30 343 C 34.0932 -0.423264 1.89839 0
M  V30 344 O 33.3482 -1.3302 1.43542 0
M  V30 345 C 33.6472 1.69345 3.14733 0
M  V30 346 C 33.3132 3.19226 3.18442 0
M  V30 347 C 31.9752 3.60124 3.19161 0
M  V30 348 C 34.3272 4.15181 3.15078 0
M  V30 349 C 31.6552 4.95467 3.14212 0
M  V30 350 C 34.0072 5.50495 3.1167 0
M  V30 351 C 32.6712 5.90779 3.10703 0
M  V30 352 H 31.9412 0.381374 0.635323 0
M  V30 353 H 34.5882 1.51732 1.16831 0
M  V30 354 H 32.8932 1.14147 3.74803 0
M  V30 355 H 34.5902 1.53059 3.7064 0
M  V30 356 H 31.1802 2.86659 3.18629 0
M  V30 357 H 35.3642 3.84605 3.13676 0
M  V30 358 H 30.6202 5.25916 3.11805 0
M  V30 359 H 34.7942 6.24576 3.08022 0
M  V30 360 H 32.4212 6.9562 3.06622 0
M  V30 361 N 33.9963 -1.19345 1.0293 0
M  V30 362 C 34.9593 -2.20793 0.615069 0
M  V30 363 C 35.9593 -1.57553 -0.321533 0
M  V30 364 O 37.1493 -1.73862 -0.108483 0
M  V30 365 C 34.2813 -3.40754 -0.0999222 0
M  V30 366 H 35.4743 -2.58955 1.51269 0
M  V30 367 H 33.0273 -1.3303 0.820534 0
M  V30 368 H 33.7623 -3.0811 -1.01187 0
M  V30 369 H 33.5473 -3.87889 0.57309 0
M  V30 370 H 35.0373 -4.15898 -0.376645 0
M  V30 371 N 35.4744 -0.807222 -1.35358 0
M  V30 372 C 36.4244 -0.190706 -2.27201 0
M  V30 373 C 37.4084 0.635838 -1.47804 0
M  V30 374 O 38.6004 0.492991 -1.69996 0
M  V30 375 C 35.7294 0.659337 -3.36909 0
M  V30 376 C 34.8154 -0.176971 -4.23731 0
M  V30 377 N 35.2064 -1.24029 -4.90357 0
M  V30 378 C 33.5044 0.0412953 -4.45981 0
M  V30 379 C 34.2054 -1.75092 -5.54723 0
M  V30 380 N 33.1814 -1.05727 -5.33219 0
M  V30 381 H 36.9834 -1.0043 -2.76208 0
M  V30 382 H 34.4974 -0.648445 -1.48892 0
M  V30 383 H 36.4944 1.11706 -4.01656 0
M  V30 384 H 35.1544 1.47127 -2.89454 0
M  V30 385 H 36.1654 -1.62295 -4.91814 0
M  V30 386 H 32.8424 0.82232 -4.09322 0
M  V30 387 H 34.2324 -2.63963 -6.17878 0
M  V30 388 N 36.9525 1.47285 -0.560781 0
M  V30 389 C 37.8625 2.33846 0.187954 0
M  V30 390 C 38.8785 1.48412 0.908293 0
M  V30 391 O 40.0545 1.81332 0.876388 0
M  V30 392 C 37.1195 3.25178 1.2025 0
M  V30 393 C 36.1805 4.26504 0.489208 0
M  V30 394 C 35.4135 5.13472 1.45542 0
M  V30 395 O 35.6365 5.02959 2.6905 0
M  V30 396 O 34.5705 5.93902 0.977963 0
M  V30 397 H 38.3965 2.99177 -0.522177 0
M  V30 398 H 35.9815 1.45903 -0.321364 0
M  V30 399 H 37.8635 3.81584 1.78805 0
M  V30 400 H 36.5385 2.6247 1.89449 0
M  V30 401 H 35.4455 3.73847 -0.137627 0
M  V30 402 H 36.7785 4.91935 -0.161399 0
M  V30 403 N 38.4306 0.297415 1.54768 0
M  V30 404 C 39.3786 -0.596051 2.24833 0
M  V30 405 C 40.3726 -1.13992 1.25308 0
M  V30 406 O 41.5786 -1.09098 1.4317 0
M  V30 407 H 37.9536 -0.210814 0.721846 0
M  V30 408 H 39.9246 0.0174667 2.98395 0
M  V30 409 C 38.6736 -1.75818 2.99972 0
M  V30 410 H 37.9966 -1.3489 3.76357 0
M  V30 411 H 39.4366 -2.35949 3.52284 0
M  V30 412 C 37.8956 -2.66014 2.06732 0
M  V30 413 O 38.4256 -3.67009 1.63302 0
M  V30 414 N 36.6316 -2.33669 1.72763 0
M  V30 415 H 36.1786 -1.51586 2.08277 0
M  V30 416 H 36.1366 -2.94285 1.10652 0
M  V30 417 N 39.9087 -1.5758 0.0250728 0
M  V30 418 C 41.1857 -1.82917 -0.692873 0
M  V30 419 C 41.5657 -0.908137 -1.90568 0
M  V30 420 O 40.9137 0.0372298 -2.2847 0
M  V30 421 C 41.1237 -3.32034 -1.07492 0
M  V30 422 C 42.4717 -3.98406 -1.46826 0
M  V30 423 O 43.4957 -3.36505 -1.16801 0
M  V30 424 O 42.3547 -5.07497 -2.02754 0
M  V30 425 H 39.4487 -0.754079 -0.33955 0
M  V30 426 H 41.9947 -1.69619 0.0524456 0
M  V30 427 H 40.7667 -3.90728 -0.211552 0
M  V30 428 H 40.3897 -3.50424 -1.87854 0
M  V30 429 N 41.3868 0.248026 -1.55636 0
M  V30 430 C 42.6348 0.974295 -1.77065 0
M  V30 431 C 42.9558 1.85897 -0.588849 0
M  V30 432 O 42.2258 1.91868 0.395407 0
M  V30 433 H 40.8058 0.362733 -0.653019 0
M  V30 434 H 43.4678 0.266244 -1.93073 0
M  V30 435 H 42.5638 1.59667 -2.68166 0
M  V30 436 N 42.8649 1.48995 0.513639 0
M  V30 437 C 44.1129 1.57531 1.26604 0
M  V30 438 C 44.4339 0.258236 1.93283 0
M  V30 439 O 43.7039 -0.721502 1.8213 0
M  V30 440 H 42.2839 0.580387 0.470276 0
M  V30 441 H 44.9459 1.85552 0.596373 0
M  V30 442 H 44.0419 2.36486 2.03669 0
M  V30 443 N 44.343 -0.763751 1.37857 0
M  V30 444 C 45.568 -1.55805 1.36893 0
M  V30 445 C 45.993 -1.88054 -0.0416135 0
M  V30 446 O 45.351 -1.49825 -1.02089 0
M  V30 447 C 45.399 -2.84012 2.22192 0
M  V30 448 O 44.503 -3.78732 1.63204 0
M  V30 449 H 43.844 -0.471638 0.46739 0
M  V30 450 H 46.374 -0.944657 1.81487 0
M  V30 451 H 46.384 -3.33037 2.35691 0
M  V30 452 H 45.059 -2.59869 3.24716 0
M  V30 453 H 43.636 -3.37402 1.58791 0
M  V30 454 N 45.8211 -1.22559 -0.990812 0
M  V30 455 C 46.7681 -0.997519 -2.0813 0
M  V30 456 C 47.7381 0.0814702 -1.659 0
M  V30 457 O 48.9231 -0.0685424 -1.90677 0
M  V30 458 C 46.0631 -0.583615 -3.40129 0
M  V30 459 C 45.1761 -1.7336 -3.9569 0
M  V30 460 C 44.3111 -1.26748 -5.15857 0
M  V30 461 C 43.3501 -2.38888 -5.63559 0
M  V30 462 N 42.4871 -1.93308 -6.74964 0
M  V30 463 H 47.3271 -1.93099 -2.26973 0
M  V30 464 H 44.8641 -0.962114 -1.11273 0
M  V30 465 H 46.8221 -0.324801 -4.15934 0
M  V30 466 H 45.4521 0.312845 -3.2128 0
M  V30 467 H 44.5041 -2.10669 -3.16738 0
M  V30 468 H 45.8161 -2.57704 -4.27071 0
M  V30 469 H 44.9701 -0.966173 -5.98957 0
M  V30 470 H 43.7091 -0.394272 -4.86104 0
M  V30 471 H 42.7141 -2.69805 -4.79046 0
M  V30 472 H 43.9391 -3.26728 -5.95336 0
M  V30 473 H 41.8851 -1.08352 -6.4699 0
M  V30 474 H 41.8021 -2.71217 -7.05675 0
M  V30 475 H 43.0701 -1.66252 -7.61564 0
M  V30 476 N 47.2992 1.18797 -1.03562 0
M  V30 477 C 48.5482 1.87978 -0.731235 0
M  V30 478 C 48.8612 1.80911 0.743671 0
M  V30 479 O 50.0672 2.45407 1.16137 0
M  V30 480 C 48.5232 3.3721 -1.25768 0
M  V30 481 C 48.1312 3.52818 -2.76085 0
M  V30 482 C 49.8752 4.11825 -1.0296 0
M  V30 483 C 47.7822 4.9598 -3.22114 0
M  V30 484 H 46.7122 0.704063 -0.269835 0
M  V30 485 H 49.3632 1.34266 -1.25079 0
M  V30 486 H 47.7452 3.90359 -0.666011 0
M  V30 487 H 48.9192 3.09965 -3.40966 0
M  V30 488 H 47.2342 2.91602 -2.97249 0
M  V30 489 H 49.8312 5.17411 -1.34869 0
M  V30 490 H 50.1742 4.16287 0.0333546 0
M  V30 491 H 50.7072 3.64833 -1.58562 0
M  V30 492 H 47.4462 4.96684 -4.27768 0
M  V30 493 H 46.9662 5.39569 -2.61965 0
M  V30 494 H 48.6452 5.6467 -3.15844 0
M  V30 495 N 48.7773 0.814389 1.34928 0
M  V30 496 C 49.7243 0.22822 2.29669 0
M  V30 497 C 50.6943 -0.642164 1.53184 0
M  V30 498 O 51.8793 -0.585605 1.81591 0
M  V30 499 C 49.0193 -0.61089 3.3965 0
M  V30 500 C 48.1323 0.280792 4.31086 0
M  V30 501 C 47.2673 -0.567067 5.28165 0
M  V30 502 C 46.3063 0.324531 6.11239 0
M  V30 503 N 45.4433 -0.483756 7.00431 0
M  V30 504 H 50.2833 1.04153 2.79206 0
M  V30 505 H 47.8203 0.525133 1.37407 0
M  V30 506 H 49.7783 -1.11263 4.0209 0
M  V30 507 H 48.4083 -1.38939 2.91369 0
M  V30 508 H 47.4603 0.900688 3.69583 0
M  V30 509 H 48.7723 0.966723 4.89342 0
M  V30 510 H 47.9263 -1.13363 5.96015 0
M  V30 511 H 46.6653 -1.28654 4.70425 0
M  V30 512 H 45.6703 0.903298 5.42329 0
M  V30 513 H 46.8953 1.04198 6.71059 0
M  V30 514 H 44.8413 -1.18706 6.45171 0
M  V30 515 H 44.7583 0.143965 7.55863 0
M  V30 516 H 46.0263 -1.03334 7.7262 0
M  V30 517 N 50.2554 -1.46986 0.568584 0
M  V30 518 C 51.5044 -2.01646 0.0465894 0
M  V30 519 C 51.8174 -1.44721 -1.31587 0
M  V30 520 O 53.0234 -1.91113 -1.92842 0
M  V30 521 C 51.4794 -3.59885 0.032752 0
M  V30 522 C 51.0874 -4.25804 1.39266 0
M  V30 523 C 52.8314 -4.22255 -0.436038 0
M  V30 524 C 50.7384 -5.76081 1.33732 0
M  V30 525 H 49.6684 -0.753876 0.013647 0
M  V30 526 H 52.3194 -1.68864 0.718131 0
M  V30 527 H 50.7014 -3.8968 -0.704669 0
M  V30 528 H 51.8754 -4.07637 2.1487 0
M  V30 529 H 50.1904 -3.7547 1.80032 0
M  V30 530 H 52.7874 -5.32394 -0.49602 0
M  V30 531 H 53.1304 -3.90212 -1.45053 0
M  V30 532 H 53.6634 -3.97033 0.246877 0
M  V30 533 H 50.4024 -6.12761 2.32817 0
M  V30 534 H 49.9224 -5.96553 0.623267 0
M  V30 535 H 51.6014 -6.38518 1.0442 0
M  V30 536 N 51.7335 -0.305618 -1.54608 0
M  V30 537 C 52.9795 0.302746 -2.00528 0
M  V30 538 C 53.3125 1.53184 -1.19367 0
M  V30 539 O 52.5875 1.92598 -0.271321 0
M  V30 540 C 52.8705 0.654756 -3.54097 0
M  V30 541 C 52.7235 -0.583793 -4.45995 0
M  V30 542 C 54.0425 1.47947 -4.14487 0
M  V30 543 H 51.1615 0.108564 -0.72896 0
M  V30 544 H 53.8035 -0.418634 -1.85331 0
M  V30 545 H 51.9535 1.26935 -3.67178 0
M  V30 546 H 53.6255 -1.22224 -4.44814 0
M  V30 547 H 51.8685 -1.21615 -4.16404 0
M  V30 548 H 52.5395 -0.293287 -5.5122 0
M  V30 549 H 55.0155 0.96013 -4.04871 0
M  V30 550 H 53.8915 1.69454 -5.22088 0
M  V30 551 H 54.1525 2.47011 -3.66658 0
M  V30 552 N 53.2116 1.57565 -0.0334293 0
M  V30 553 C 54.1616 2.06978 0.956237 0
M  V30 554 C 55.1456 0.971193 1.28283 0
M  V30 555 O 56.3376 1.23471 1.26822 0
M  V30 556 C 53.4666 2.60393 2.23719 0
M  V30 557 C 52.5526 3.7719 1.93877 0
M  V30 558 N 52.9436 4.87639 1.34321 0
M  V30 559 C 51.2416 3.85758 2.23845 0
M  V30 560 C 51.9426 5.68825 1.21709 0
M  V30 561 N 50.9186 5.1587 1.71404 0
M  V30 562 H 54.7206 2.89773 0.490815 0
M  V30 563 H 52.2346 1.61492 0.171478 0
M  V30 564 H 54.2316 2.94088 2.95496 0
M  V30 565 H 52.8916 1.79031 2.70884 0
M  V30 566 H 53.9026 5.07803 1.01767 0
M  V30 567 H 50.5796 3.1531 2.73653 0
M  V30 568 H 51.9696 6.67631 0.75621 0
M  V30 569 N 54.6897 -0.239769 1.55765 0
M  V30 570 C 56.1057 -0.588624 1.48349 0
M  V30 571 C 56.3057 -1.88005 0.72502 0
M  V30 572 O 55.3617 -2.51186 0.257269 0
M  V30 573 C 56.6747 -0.68474 2.928 0
M  V30 574 C 58.2227 -0.77659 3.03213 0
M  V30 575 C 58.6977 -0.904207 4.48986 0
M  V30 576 N 60.1887 -0.968896 4.52953 0
M  V30 577 C 60.9237 -1.08703 5.63002 0
M  V30 578 N 60.4197 -1.17026 6.82845 0
M  V30 579 N 62.2127 -1.12074 5.50814 0
M  V30 580 H 54.3637 0.607911 2.03515 0
M  V30 581 H 56.6267 0.21083 0.924259 0
M  V30 582 H 56.3327 0.194284 3.51163 0
M  V30 583 H 56.2067 -1.55435 3.43686 0
M  V30 584 H 58.5937 -1.64606 2.44926 0
M  V30 585 H 58.6747 0.118315 2.55526 0
M  V30 586 H 58.3187 -0.0392633 5.07885 0
M  V30 587 H 58.2487 -1.81426 4.9436 0
M  V30 588 H 60.7397 -0.915633 3.6664 0
M  V30 589 H 61.0527 -1.25966 7.62465 0
M  V30 590 H 59.3977 -1.13971 6.85591 0
M  V30 591 H 62.5887 -1.05226 4.5612 0
M  V30 592 H 62.7617 -1.20936 6.36615 0
M  V30 593 N 56.1678 -1.49265 -0.50573 0
M  V30 594 C 57.4138 -1.59723 -1.25937 0
M  V30 595 C 57.7688 -0.278236 -1.90378 0
M  V30 596 O 57.0618 0.72113 -1.77511 0
M  V30 597 C 57.2558 -2.69008 -2.35308 0
M  V30 598 C 57.0848 -4.11405 -1.81592 0
M  V30 599 C 55.8548 -4.78252 -1.63105 0
M  V30 600 C 58.0528 -4.96792 -1.33048 0
M  V30 601 N 56.0348 -6.0498 -1.04269 0
M  V30 602 C 57.4058 -6.13962 -0.863168 0
M  V30 603 C 59.4608 -4.82828 -1.21577 0
M  V30 604 C 58.1638 -7.18705 -0.292489 0
M  V30 605 C 60.1898 -5.87716 -0.65907 0
M  V30 606 C 59.5518 -7.0411 -0.201954 0
M  V30 607 H 55.6508 -0.638864 -0.450973 0
M  V30 608 H 58.2348 -1.86251 -0.567326 0
M  V30 609 H 56.4058 -2.4426 -3.01979 0
M  V30 610 H 58.1378 -2.69013 -3.02348 0
M  V30 611 H 54.8928 -4.34974 -1.87336 0
M  V30 612 H 55.3168 -6.72631 -0.767919 0
M  V30 613 H 59.9588 -3.93159 -1.55518 0
M  V30 614 H 57.6768 -8.08078 0.0591987 0
M  V30 615 H 61.2628 -5.7897 -0.573156 0
M  V30 616 H 60.1428 -7.83885 0.222101 0
M  V30 617 N 57.6459 0.756429 -1.3826 0
M  V30 618 C 58.8709 1.55077 -1.37717 0
M  V30 619 C 59.2959 1.88073 0.03164 0
M  V30 620 O 58.6539 1.50364 1.01293 0
M  V30 621 C 58.7019 2.8283 -2.23695 0
M  V30 622 O 57.8059 3.77862 -1.6521 0
M  V30 623 H 57.1469 0.469152 -0.469885 0
M  V30 624 H 59.6769 0.935019 -1.81985 0
M  V30 625 H 59.6869 3.31783 -2.37453 0
M  V30 626 H 58.3619 2.58144 -3.2609 0
M  V30 627 H 56.9389 3.36555 -1.60578 0
M  V30 628 N 59.124 1.23083 0.984299 0
M  V30 629 C 60.087 1.00979 2.05757 0
M  V30 630 C 61.087 -0.0269573 1.60777 0
M  V30 631 O 62.277 0.212403 1.729 0
M  V30 632 C 59.409 0.527072 3.36801 0
M  V30 633 H 60.602 1.9622 2.26799 0
M  V30 634 H 58.155 1.05072 1.15714 0
M  V30 635 H 58.89 -0.429294 3.21446 0
M  V30 636 H 58.675 1.27515 3.70786 0
M  V30 637 H 60.165 0.392942 4.15747 0
M  V30 638 N 60.6021 -1.18246 1.0419 0
M  V30 639 C 61.5121 -2.25574 0.644476 0
M  V30 640 C 62.5281 -1.70845 -0.329826 0
M  V30 641 O 63.7041 -2.00554 -0.184443 0
M  V30 642 C 60.7691 -3.46697 0.014877 0
M  V30 643 C 59.8301 -4.16554 1.03834 0
M  V30 644 C 59.0631 -5.31894 0.438692 0
M  V30 645 O 59.2861 -5.65385 -0.754752 0
M  V30 646 O 58.2201 -5.90459 1.168 0
M  V30 647 H 62.0461 -2.61836 1.53869 0
M  V30 648 H 59.6311 -1.25352 0.812854 0
M  V30 649 H 61.5131 -4.20062 -0.335538 0
M  V30 650 H 60.1881 -3.12255 -0.853138 0
M  V30 651 H 59.0951 -3.45251 1.44057 0
M  V30 652 H 60.4281 -4.54998 1.87716 0
M  V30 653 N 62.0802 -0.821533 -1.34494 0
M  V30 654 C 63.3572 -0.33159 -1.92769 0
M  V30 655 C 63.7372 1.18088 -1.74981 0
M  V30 656 O 63.0852 1.98733 -1.12772 0
M  V30 657 C 63.2952 -0.759398 -3.40638 0
M  V30 658 C 64.6432 -0.757433 -4.1779 0
M  V30 659 O 65.6672 -0.70189 -3.49216 0
M  V30 660 O 64.5262 -0.829361 -5.4017 0
M  V30 661 H 61.6202 -0.0902502 -0.822061 0
M  V30 662 H 64.1662 -0.906231 -1.43477 0
M  V30 663 H 62.9382 -1.8012 -3.47379 0
M  V30 664 H 62.5612 -0.160378 -3.97276 0
M  V30 665 N 63.5583 1.46682 -0.576371 0
M  V30 666 C 64.5053 2.30241 0.160499 0
M  V30 667 C 65.4753 1.40233 0.890162 0
M  V30 668 O 66.6603 1.69186 0.882084 0
M  V30 669 C 63.8003 3.24578 1.1723 0
M  V30 670 C 62.9133 4.29684 0.446736 0
M  V30 671 C 62.0483 5.11154 1.44551 0
M  V30 672 C 61.0873 6.08015 0.70599 0
M  V30 673 N 60.2243 6.82376 1.65251 0
M  V30 674 H 65.0643 2.92727 -0.558127 0
M  V30 675 H 62.6013 1.44272 -0.287056 0
M  V30 676 H 64.5593 3.77711 1.77172 0
M  V30 677 H 63.1893 2.63916 1.85872 0
M  V30 678 H 62.2413 3.79458 -0.267594 0
M  V30 679 H 63.5533 4.98626 -0.131686 0
M  V30 680 H 62.7073 5.68533 2.11791 0
M  V30 681 H 61.4463 4.42158 2.05786 0
M  V30 682 H 60.4513 5.49796 0.0197725 0
M  V30 683 H 61.6763 6.79028 0.09912 0
M  V30 684 H 59.6223 6.16094 2.25308 0
M  V30 685 H 59.5393 7.47556 1.12673 0
M  V30 686 H 60.8073 7.44316 2.31546 0
M  V30 687 N 65.0364 0.313813 1.54444 0
M  V30 688 C 65.9864 -0.571898 2.20711 0
M  V30 689 C 66.9704 -1.08913 1.18435 0
M  V30 690 O 68.1624 -1.02777 1.44104 0
M  V30 691 C 65.2914 -1.7371 2.96108 0
M  V30 692 C 64.3774 -1.23522 4.05713 0
M  V30 693 N 64.7684 -0.452288 5.03774 0
M  V30 694 C 63.0664 -1.51482 4.19487 0
M  V30 695 C 63.7674 -0.183438 5.81411 0
M  V30 696 N 62.7434 -0.766845 5.38164 0
M  V30 697 H 66.5454 0.0336802 2.93881 0
M  V30 698 H 64.0594 0.119192 1.61962 0
M  V30 699 H 66.0564 -2.38329 3.4206 0
M  V30 700 H 64.7164 -2.34625 2.24458 0
M  V30 701 H 65.7274 -0.0960131 5.17811 0
M  V30 702 H 62.4044 -2.13053 3.59047 0
M  V30 703 H 63.7944 0.446216 6.70417 0
M  V30 704 N 66.5145 -1.57545 0.0417849 0
M  V30 705 C 67.4615 -2.10977 -0.935805 0
M  V30 706 C 68.4315 -1.01486 -1.31491 0
M  V30 707 O 69.6165 -1.2898 -1.40602 0
M  V30 708 C 66.7565 -2.65169 -2.2086 0
M  V30 709 C 65.8695 -3.88714 -1.88482 0
M  V30 710 C 65.0045 -4.31254 -3.1015 0
M  V30 711 C 64.0435 -5.47524 -2.7365 0
M  V30 712 N 63.1805 -5.85162 -3.87982 0
M  V30 713 H 68.0205 -2.94218 -0.473249 0
M  V30 714 H 65.5575 -1.45415 -0.221981 0
M  V30 715 H 67.5155 -2.94685 -2.95325 0
M  V30 716 H 66.1455 -1.8474 -2.64709 0
M  V30 717 H 65.1975 -3.65849 -1.04205 0
M  V30 718 H 66.5095 -4.73245 -1.57608 0
M  V30 719 H 65.6635 -4.62273 -3.92923 0
M  V30 720 H 64.4025 -3.45516 -3.44195 0
M  V30 721 H 63.4075 -5.16187 -1.89291 0
M  V30 722 H 64.6325 -6.34971 -2.40807 0
M  V30 723 H 62.5785 -5.02377 -4.21846 0
M  V30 724 H 62.4955 -6.64362 -3.60775 0
M  V30 725 H 63.7635 -6.20791 -4.71422 0
M  V30 726 N 67.9926 0.231505 -1.5589 0
M  V30 727 C 68.9026 1.308 -1.94752 0
M  V30 728 C 69.9186 1.51826 -0.849989 0
M  V30 729 O 71.0946 1.6515 -1.15271 0
M  V30 730 C 68.1596 2.63968 -2.24771 0
M  V30 731 C 67.2206 2.51331 -3.48039 0
M  V30 732 C 66.4536 3.78148 -3.76616 0
M  V30 733 O 66.6766 4.80722 -3.07022 0
M  V30 734 O 65.6106 3.75857 -4.70123 0
M  V30 735 H 69.4366 1.0083 -2.86474 0
M  V30 736 H 67.0216 0.433547 -1.42971 0
M  V30 737 H 68.9036 3.42633 -2.45318 0
M  V30 738 H 67.5786 2.9364 -1.36225 0
M  V30 739 H 66.4856 1.709 -3.32782 0
M  V30 740 H 67.8186 2.26601 -4.36936 0
M  V30 741 N 69.4707 1.49531 0.497807 0
M  V30 742 C 70.7187 1.58865 1.24926 0
M  V30 743 C 71.0397 0.278721 1.92998 0
M  V30 744 O 70.3097 -0.702144 1.82885 0
M  V30 745 H 68.8897 0.585343 0.464094 0
M  V30 746 H 71.5517 1.86174 0.57666 0
M  V30 747 H 70.6477 2.38633 2.01149 0
M  V30 748 N 70.9488 -0.749086 1.3866 0
M  V30 749 C 72.1948 -1.51056 1.35314 0
M  V30 750 C 72.5278 -1.94121 -0.0553751 0
M  V30 751 O 71.8028 -1.65763 -1.01749 0
M  V30 752 C 72.0858 -2.76003 2.31288 0
M  V30 753 C 71.9388 -2.39047 3.8102 0
M  V30 754 C 73.2578 -3.78046 2.2532 0
M  V30 755 H 70.3768 -0.547972 0.492844 0
M  V30 756 H 73.0188 -0.857628 1.69543 0
M  V30 757 H 71.1688 -3.31716 2.02229 0
M  V30 758 H 72.8408 -1.89074 4.20771 0
M  V30 759 H 71.0838 -1.71449 3.98482 0
M  V30 760 H 71.7548 -3.28462 4.4364 0
M  V30 761 H 74.2308 -3.31884 2.50983 0
M  V30 762 H 73.1068 -4.63159 2.94576 0
M  V30 763 H 73.3678 -4.23957 1.25352 0
M  V30 764 N 72.4269 -1.23603 -0.977757 0
M  V30 765 C 73.3749 -1.01704 -2.09187 0
M  V30 766 C 74.3689 0.0448214 -1.69341 0
M  V30 767 O 75.5749 -0.108902 -1.7967 0
M  V30 768 H 71.9499 -0.311803 -0.684312 0
M  V30 769 H 73.9209 -1.96207 -2.24823 0
M  V30 770 C 72.6699 -0.627746 -3.41986 0
M  V30 771 H 71.9929 -1.43656 -3.73099 0
M  V30 772 H 73.4329 -0.514053 -4.20872 0
M  V30 773 C 71.8919 0.664238 -3.30287 0
M  V30 774 O 72.4219 1.71268 -3.6336 0
M  V30 775 N 70.6279 0.641156 -2.83439 0
M  V30 776 H 70.1749 -0.212376 -2.56723 0
M  V30 777 H 70.1329 1.50583 -2.75993 0
M  V30 778 N 73.905 1.17692 -1.04816 0
M  V30 779 C 75.13 1.92327 -0.776207 0
M  V30 780 C 75.555 1.76082 0.661581 0
M  V30 781 O 74.913 1.076 1.45917 0
M  V30 782 C 74.961 3.41539 -1.15687 0
M  V30 783 O 74.065 4.11402 -0.286775 0
M  V30 784 H 73.406 0.599735 -0.284981 0
M  V30 785 H 75.936 1.49201 -1.4 0
M  V30 786 H 75.946 3.92269 -1.12202 0
M  V30 787 H 74.621 3.52684 -2.20425 0
M  V30 788 H 73.198 3.70939 -0.381903 0
M  V30 789 N 75.3831 0.828654 1.34056 0
M  V30 790 C 76.3331 0.226828 2.26869 0
M  V30 791 C 77.3171 -0.612243 1.48796 0
M  V30 792 O 78.5091 -0.465884 1.70759 0
M  V30 793 C 75.6381 -0.605654 3.37915 0
M  V30 794 C 74.7241 0.244361 4.23395 0
M  V30 795 N 75.1151 1.31815 4.88322 0
M  V30 796 C 73.4131 0.0296616 4.4599 0
M  V30 797 C 74.1141 1.83895 5.51867 0
M  V30 798 N 73.0901 1.14196 5.3147 0
M  V30 799 H 76.8921 1.04811 2.74576 0
M  V30 800 H 74.4061 0.67205 1.47842 0
M  V30 801 H 76.4031 -1.05302 4.03382 0
M  V30 802 H 75.0631 -1.42504 2.91758 0
M  V30 803 H 76.0741 1.70099 4.8917 0
M  V30 804 H 72.7511 -0.757097 4.10578 0
M  V30 805 H 74.1411 2.7376 6.136 0
M  V30 806 N 76.8612 -1.46375 0.584142 0
M  V30 807 C 77.7912 -2.33103 -0.136037 0
M  V30 808 C 78.7722 -1.45431 -0.882255 0
M  V30 809 O 79.9572 -1.74246 -0.857434 0
M  V30 810 C 77.0872 -3.27731 -1.14933 0
M  V30 811 C 76.0412 -4.24855 -0.517862 0
M  V30 812 C 75.3672 -5.09001 -1.63773 0
M  V30 813 C 76.6672 -5.19439 0.545886 0
M  V30 814 H 78.3612 -2.93568 0.588086 0
M  V30 815 H 75.9072 -1.41166 0.284259 0
M  V30 816 H 77.8602 -3.87261 -1.66153 0
M  V30 817 H 76.5842 -2.65377 -1.90375 0
M  V30 818 H 75.2432 -3.6659 -0.0267361 0
M  V30 819 H 74.8912 -4.43031 -2.38185 0
M  V30 820 H 74.5912 -5.74777 -1.22085 0
M  V30 821 H 76.1152 -5.71396 -2.15266 0
M  V30 822 H 77.5292 -5.73177 0.118704 0
M  V30 823 H 75.9262 -5.93566 0.88317 0
M  V30 824 H 76.9962 -4.63285 1.43162 0
M  V30 825 N 78.3393 -0.321999 -1.54275 0
M  V30 826 C 79.5853 0.274234 -2.01543 0
M  V30 827 C 79.9403 1.499 -1.20614 0
M  V30 828 O 79.2333 1.89546 -0.279804 0
M  V30 829 C 79.4273 0.661769 -3.5122 0
M  V30 830 C 79.2563 -0.523892 -4.46638 0
M  V30 831 C 78.0263 -1.02251 -4.94846 0
M  V30 832 C 80.2243 -1.37558 -4.95563 0
M  V30 833 N 78.2063 -2.17274 -5.74165 0
M  V30 834 C 79.5773 -2.37301 -5.7279 0
M  V30 835 C 81.6323 -1.40353 -4.77709 0
M  V30 836 C 80.3353 -3.3964 -6.34064 0
M  V30 837 C 82.3613 -2.41562 -5.39817 0
M  V30 838 C 81.7233 -3.40031 -6.16894 0
M  V30 839 H 77.8223 0.0642367 -0.779357 0
M  V30 840 H 80.4063 -0.456683 -1.89268 0
M  V30 841 H 78.5773 1.36182 -3.63743 0
M  V30 842 H 80.3093 1.23934 -3.85256 0
M  V30 843 H 77.0643 -0.594046 -4.6986 0
M  V30 844 H 77.4883 -2.75289 -6.18502 0
M  V30 845 H 82.1303 -0.655907 -4.17681 0
M  V30 846 H 79.8483 -4.15309 -6.93213 0
M  V30 847 H 83.4343 -2.44524 -5.2792 0
M  V30 848 H 82.3143 -4.17063 -6.64099 0
M  V30 849 N 79.8174 1.5752 -0.0501392 0
M  V30 850 C 81.0664 1.91827 0.623328 0
M  V30 851 C 81.3794 0.930222 1.72065 0
M  V30 852 O 82.5854 1.1653 2.4522 0
M  V30 853 C 81.0414 3.40692 1.16003 0
M  V30 854 C 80.6494 4.479 0.0948811 0
M  V30 855 C 82.3934 3.84034 1.80881 0
M  V30 856 C 80.3004 5.87879 0.644411 0
M  V30 857 H 79.2304 0.715918 0.236596 0
M  V30 858 H 81.8814 1.83115 -0.118861 0
M  V30 859 H 80.2634 3.44405 1.9545 0
M  V30 860 H 81.4374 4.55775 -0.678675 0
M  V30 861 H 79.7524 4.13892 -0.45637 0
M  V30 862 H 82.3494 4.85984 2.22988 0
M  V30 863 H 82.6924 3.20225 2.6601 0
M  V30 864 H 83.2254 3.82833 1.0809 0
M  V30 865 H 79.9644 6.55282 -0.169229 0
M  V30 866 H 79.4844 5.83567 1.38598 0
M  V30 867 H 81.1634 6.37098 1.12763 0
M  V30 868 N 81.2955 -0.223234 1.56011 0
M  V30 869 C 82.5415 -0.949279 1.79211 0
M  V30 870 C 82.8745 -1.84054 0.619494 0
M  V30 871 O 82.1495 -1.90726 -0.381317 0
M  V30 872 C 82.4325 -1.78965 3.12479 0
M  V30 873 C 82.2855 -0.924997 4.40186 0
M  V30 874 C 83.6045 -2.76774 3.42175 0
M  V30 875 H 80.7235 -0.343676 0.651963 0
M  V30 876 H 83.3655 -0.218253 1.88742 0
M  V30 877 H 81.5155 -2.41291 3.04485 0
M  V30 878 H 83.1875 -0.318615 4.60198 0
M  V30 879 H 81.4305 -0.230344 4.33188 0
M  V30 880 H 82.1015 -1.54735 5.29869 0
M  V30 881 H 84.5775 -2.24584 3.50287 0
M  V30 882 H 83.4535 -3.32678 4.36597 0
M  V30 883 H 83.7145 -3.54429 2.64258 0
M  V30 884 N 82.7736 -1.49793 -0.48987 0
M  V30 885 C 83.7216 -1.67783 -1.61095 0
M  V30 886 C 84.7156 -0.543683 -1.60438 0
M  V30 887 O 85.9216 -0.723647 -1.64813 0
M  V30 888 H 82.2966 -0.529255 -0.534222 0
M  V30 889 H 84.2676 -2.61861 -1.43078 0
M  V30 890 C 83.0166 -1.77191 -2.99164 0
M  V30 891 H 82.3396 -2.63841 -3.0038 0
M  V30 892 H 83.7796 -1.93809 -3.77113 0
M  V30 893 C 82.2386 -0.519203 -3.32875 0
M  V30 894 O 82.7686 0.350124 -4.00171 0
M  V30 895 N 80.9746 -0.378816 -2.8812 0
M  V30 896 H 80.5216 -1.08725 -2.33531 0
M  V30 897 H 80.4796 0.458239 -3.11043 0
M  V30 898 N 84.2517 0.741722 -1.39055 0
M  V30 899 C 85.6677 1.04638 -1.20512 0
M  V30 900 C 85.8677 2.01405 -0.0620218 0
M  V30 901 O 84.9237 2.45547 0.588457 0
M  V30 902 C 86.2367 1.6151 -2.53643 0
M  V30 903 C 87.7847 1.73623 -2.6043 0
M  V30 904 C 88.2597 2.33906 -3.93767 0
M  V30 905 N 89.7507 2.41323 -3.9537 0
M  V30 906 C 90.4857 2.88888 -4.95309 0
M  V30 907 N 89.9817 3.36401 -6.05645 0
M  V30 908 N 91.7747 2.88037 -4.82692 0
M  V30 909 H 83.9257 0.0998155 -2.12165 0
M  V30 910 H 86.1887 0.106907 -0.941953 0
M  V30 911 H 85.8947 0.978739 -3.37807 0
M  V30 912 H 85.7687 2.60411 -2.72885 0
M  V30 913 H 88.1557 2.36384 -1.76655 0
M  V30 914 H 88.2367 0.733945 -2.45045 0
M  V30 915 H 87.8807 1.71776 -4.7797 0
M  V30 916 H 87.8107 3.34799 -4.06469 0
M  V30 917 H 90.3017 2.07734 -3.15682 0
M  V30 918 H 90.6147 3.71186 -6.77821 0
M  V30 919 H 88.9597 3.34427 -6.09248 0
M  V30 920 H 92.1507 2.50237 -3.95599 0
M  V30 921 H 92.3237 3.24792 -5.60726 0
M  V30 922 N 85.7298 1.2412 0.971189 0
M  V30 923 C 86.6928 1.03156 2.04674 0
M  V30 924 C 87.6928 -0.00990322 1.60797 0
M  V30 925 O 88.8828 0.230729 1.72665 0
M  V30 926 C 86.0148 0.562765 3.36223 0
M  V30 927 H 87.2078 1.98614 2.24705 0
M  V30 928 H 84.7608 1.06293 1.14593 0
M  V30 929 H 85.4958 -0.395176 3.21883 0
M  V30 930 H 85.2808 1.31441 3.69413 0
M  V30 931 H 86.7708 0.437015 4.15307 0
M  V30 932 N 87.2079 -1.17134 1.05439 0
M  V30 933 C 88.4569 -1.86791 0.761049 0
M  V30 934 C 88.7699 -1.82072 -0.714795 0
M  V30 935 O 89.9759 -2.47223 -1.12218 0
M  V30 936 C 88.4319 -3.35166 1.31117 0
M  V30 937 C 88.0399 -3.48381 2.81664 0
M  V30 938 C 89.7839 -4.10134 1.09499 0
M  V30 939 C 87.6909 -4.90793 3.29964 0
M  V30 940 H 86.6209 -0.699681 0.281002 0
M  V30 941 H 89.2719 -1.3226 1.27199 0
M  V30 942 H 87.6539 -3.8925 0.72803 0
M  V30 943 H 88.8279 -3.04502 3.45855 0
M  V30 944 H 87.1429 -2.86836 3.01851 0
M  V30 945 H 89.7399 -5.152 1.43084 0
M  V30 946 H 90.0829 -4.16287 0.0328772 0
M  V30 947 H 90.6159 -3.62264 1.64346 0
M  V30 948 H 87.3549 -4.89816 4.35616 0
M  V30 949 H 86.8749 -5.35333 2.70516 0
M  V30 950 H 88.5539 -5.59573 3.24787 0
M  V30 951 N 88.686 -0.835752 -1.33615 0
M  V30 952 C 89.963 -0.352017 -1.92406 0
M  V30 953 C 90.343 1.16225 -1.76224 0
M  V30 954 O 89.691 1.97526 -1.14873 0
M  V30 955 C 89.901 -0.795485 -3.39813 0
M  V30 956 C 91.249 -0.801703 -4.16963 0
M  V30 957 O 92.273 -0.738889 -3.48452 0
M  V30 958 O 91.132 -0.886607 -5.3926 0
M  V30 959 H 88.226 -0.0989641 -0.821057 0
M  V30 960 H 90.772 -0.921397 -1.42507 0
M  V30 961 H 89.544 -1.83795 -3.45449 0
M  V30 962 H 89.167 -0.202505 -3.97084 0
M  V30 963 N 90.1641 1.46063 -0.591896 0
M  V30 964 C 91.4131 2.01547 -0.0786637 0
M  V30 965 C 91.7261 1.46796 1.29268 0
M  V30 966 O 92.9321 1.94157 1.89777 0
M  V30 967 C 91.3881 3.59787 -0.0900024 0
M  V30 968 C 90.9961 4.23534 -1.46023 0
M  V30 969 C 92.7401 4.22895 0.368806 0
M  V30 970 C 90.6471 5.73881 -1.4288 0
M  V30 971 H 89.5771 0.753564 -0.0256388 0
M  V30 972 H 92.2281 1.677 -0.744905 0
M  V30 973 H 90.6101 3.90752 0.642586 0
M  V30 974 H 91.7841 4.04167 -2.21328 0
M  V30 975 H 90.0991 3.72558 -1.85982 0
M  V30 976 H 92.6961 5.33116 0.411258 0
M  V30 977 H 93.0391 3.9247 1.38827 0
M  V30 978 H 93.5721 3.9659 -0.31001 0
M  V30 979 H 90.3111 6.0898 -2.42536 0
M  V30 980 H 89.8311 5.95486 -0.718095 0
M  V30 981 H 91.5101 6.36776 -1.14565 0
M  V30 982 N 91.6422 0.330177 1.54103 0
M  V30 983 C 92.5752 -0.575477 2.20825 0
M  V30 984 C 93.5532 -1.11064 1.18758 0
M  V30 985 O 94.7372 -1.17341 1.47524 0
M  V30 986 C 91.8642 -1.79032 2.87516 0
M  V30 987 C 90.9102 -1.38581 4.03358 0
M  V30 988 S 91.7432 -0.416911 5.33875 0
M  V30 989 C 92.8992 -1.63889 6.04062 0
M  V30 990 H 93.1322 -0.00872114 2.97299 0
M  V30 991 H 90.6652 0.114254 1.53977 0
M  V30 992 H 92.6232 -2.48734 3.2656 0
M  V30 993 H 91.2842 -2.32827 2.10832 0
M  V30 994 H 90.4772 -2.29123 4.48908 0
M  V30 995 H 90.0792 -0.768419 3.66021 0
M  V30 996 H 92.3712 -2.57536 6.26643 0
M  V30 997 H 93.3142 -1.22542 6.97416 0
M  V30 998 H 93.7222 -1.82887 5.34053 0
M  V30 999 N 93.1203 -1.57491 0.0584922 0
M  V30 1000 C 94.3453 -1.97711 -0.62652 0
M  V30 1001 C 94.7703 -0.936132 -1.63151 0
M  V30 1002 O 94.1283 0.099811 -1.81025 0
M  V30 1003 C 94.1763 -3.36989 -1.28338 0
M  V30 1004 O 93.2803 -3.35433 -2.39913 0
M  V30 1005 H 92.6213 -0.643868 -0.162266 0
M  V30 1006 H 95.1513 -2.04193 0.129064 0
M  V30 1007 H 95.1613 -3.73879 -1.63335 0
M  V30 1008 H 93.8363 -4.12289 -0.546889 0
M  V30 1009 H 92.4133 -3.10298 -2.06809 0
M  V30 1010 N 94.5984 0.214957 -1.56127 0
M  V30 1011 C 96.0144 0.564948 -1.49267 0
M  V30 1012 C 96.2144 1.86827 -0.754838 0
M  V30 1013 O 95.2704 2.50745 -0.297198 0
M  V30 1014 C 96.5834 0.638071 -2.93852 0
M  V30 1015 C 98.1314 0.728253 -3.0441 0
M  V30 1016 C 98.6064 0.832663 -4.50367 0
M  V30 1017 N 100.097 0.896712 -4.54437 0
M  V30 1018 C 100.832 0.997324 -5.6466 0
M  V30 1019 N 100.328 1.06147 -6.8462 0
M  V30 1020 N 102.121 1.03297 -5.52527 0
M  V30 1021 H 94.2724 -0.640211 -2.02522 0
M  V30 1022 H 96.5354 -0.225507 -0.920788 0
M  V30 1023 H 96.2414 -0.250126 -3.50809 0
M  V30 1024 H 96.1154 1.49947 -3.46115 0
M  V30 1025 H 98.5024 1.60689 -2.47514 0
M  V30 1026 H 98.5834 -0.158952 -2.55306 0
M  V30 1027 H 98.2274 -0.0415417 -5.07883 0
M  V30 1028 H 98.1574 1.73538 -4.97184 0
M  V30 1029 H 100.648 0.857188 -3.6805 0
M  V30 1030 H 100.961 1.1382 -7.64372 0
M  V30 1031 H 99.3064 1.03049 -6.87318 0
M  V30 1032 H 102.497 0.979558 -4.57736 0
M  V30 1033 H 102.67 1.10793 -6.38458 0
M  V30 1034 N 96.0765 1.50051 0.48192 0
M  V30 1035 C 97.0245 1.68635 1.60203 0
M  V30 1036 C 98.0185 0.552184 1.60148 0
M  V30 1037 O 99.2245 0.732377 1.64427 0
M  V30 1038 H 95.5995 0.532081 0.531407 0
M  V30 1039 H 97.5705 2.62616 1.41688 0
M  V30 1040 C 96.3195 1.78775 2.9822 0
M  V30 1041 H 95.6425 2.6543 2.98976 0
M  V30 1042 H 97.0825 1.95806 3.7608 0
M  V30 1043 C 95.5415 0.536849 3.32595 0
M  V30 1044 O 96.0715 -0.328897 4.00351 0
M  V30 1045 N 94.2775 0.394091 2.87915 0
M  V30 1046 H 93.8245 1.09962 2.32951 0
M  V30 1047 H 93.7825 -0.441737 3.11281 0
M  V30 1048 N 97.5546 -0.734337 1.39446 0
M  V30 1049 C 98.7826 -1.52358 1.39981 0
M  V30 1050 C 99.1976 -1.88799 -0.0054975 0
M  V30 1051 O 98.5546 -1.54146 -0.976998 0
M  V30 1052 C 98.6056 -2.81072 2.27333 0
M  V30 1053 O 98.3266 -2.46178 3.62392 0
M  V30 1054 C 99.8276 -3.75096 2.36259 0
M  V30 1055 H 97.0476 -0.470806 0.478103 0
M  V30 1056 H 99.5916 -0.907339 1.83269 0
M  V30 1057 H 97.7466 -3.39026 1.87457 0
M  V30 1058 H 98.1606 -3.28866 4.08592 0
M  V30 1059 H 99.6346 -4.62305 3.01626 0
M  V30 1060 H 100.112 -4.16892 1.38194 0
M  V30 1061 H 100.718 -3.23061 2.76608 0
M  V30 1062 N 99.0327 -1.24633 -0.964593 0
M  V30 1063 C 100.261 -1.11501 -1.74285 0
M  V30 1064 C 100.676 0.332165 -1.85855 0
M  V30 1065 O 100.033 1.22903 -1.34911 0
M  V30 1066 C 100.084 -1.75258 -3.16175 0
M  V30 1067 O 99.8047 -3.14318 -3.05182 0
M  V30 1068 C 101.306 -1.67776 -4.10324 0
M  V30 1069 H 98.5257 -0.389407 -0.546446 0
M  V30 1070 H 101.07 -1.64801 -1.21083 0
M  V30 1071 H 99.2247 -1.25954 -3.66353 0
M  V30 1072 H 99.6387 -3.4551 -3.94618 0
M  V30 1073 H 101.113 -2.17064 -5.0753 0
M  V30 1074 H 101.59 -0.639584 -4.34518 0
M  V30 1075 H 102.196 -2.16522 -3.66058 0
M  V30 1076 N 100.511 1.16574 -1.06058 0
M  V30 1077 C 101.441 2.23057 -0.690488 0
M  V30 1078 C 102.422 1.67141 0.315901 0
M  V30 1079 O 103.607 1.93253 0.191556 0
M  V30 1080 C 100.737 3.47222 -0.073625 0
M  V30 1081 C 99.6908 4.16016 -1.00573 0
M  V30 1082 C 99.0168 5.34104 -0.252289 0
M  V30 1083 C 100.317 4.67264 -2.33371 0
M  V30 1084 H 102.011 2.54271 -1.58072 0
M  V30 1085 H 99.5568 1.22218 -0.76149 0
M  V30 1086 H 101.51 4.20939 0.19714 0
M  V30 1087 H 100.234 3.15302 0.85161 0
M  V30 1088 H 98.8928 3.44223 -1.2612 0
M  V30 1089 H 98.5408 4.98437 0.675988 0
M  V30 1090 H 98.2408 5.81072 -0.873455 0
M  V30 1091 H 99.7648 6.10599 0.0109857 0
M  V30 1092 H 101.179 5.32573 -2.12223 0
M  V30 1093 H 99.5758 5.24843 -2.90963 0
M  V30 1094 H 100.646 3.83602 -2.96611 0
M  V30 1095 N 101.989 0.842826 1.3317 0
M  V30 1096 C 103.235 0.441099 1.97945 0
M  V30 1097 C 103.568 -0.998024 1.66593 0
M  V30 1098 O 102.843 -1.69839 0.947898 0
M  V30 1099 C 103.126 0.666841 3.53872 0
M  V30 1100 C 102.979 2.15352 3.94897 0
M  V30 1101 C 104.298 0.115544 4.39948 0
M  V30 1102 H 101.417 0.161739 0.719034 0
M  V30 1103 H 104.059 1.05907 1.57746 0
M  V30 1104 H 102.209 0.140828 3.88245 0
M  V30 1105 H 103.881 2.7447 3.70761 0
M  V30 1106 H 102.124 2.63653 3.44484 0
M  V30 1107 H 102.795 2.26221 5.03516 0
M  V30 1108 H 105.271 0.565213 4.12243 0
M  V30 1109 H 104.147 0.303152 5.48062 0
M  V30 1110 H 104.408 -0.980935 4.3108 0
M  V30 1111 N 103.467 -1.45747 0.599634 0
M  V30 1112 C 104.414 -2.30467 -0.123849 0
M  V30 1113 C 105.384 -1.41632 -0.86774 0
M  V30 1114 O 106.569 -1.70568 -0.855056 0
M  V30 1115 C 103.709 -3.26402 -1.12051 0
M  V30 1116 C 102.822 -4.3034 -0.37832 0
M  V30 1117 C 101.957 -5.13389 -1.364 0
M  V30 1118 C 100.996 -6.09061 -0.609171 0
M  V30 1119 N 100.133 -6.84918 -1.54374 0
M  V30 1120 H 104.973 -2.91802 0.604627 0
M  V30 1121 H 102.51 -1.43797 0.309972 0
M  V30 1122 H 104.468 -3.80482 -1.7114 0
M  V30 1123 H 103.098 -2.66839 -1.8165 0
M  V30 1124 H 102.15 -3.78984 0.327929 0
M  V30 1125 H 103.462 -4.98354 0.210997 0
M  V30 1126 H 102.616 -5.7183 -2.02719 0
M  V30 1127 H 101.355 -4.45376 -1.98725 0
M  V30 1128 H 100.36 -5.49758 0.0676979 0
M  V30 1129 H 101.585 -6.79099 0.00891991 0
M  V30 1130 H 99.531 -6.19601 -2.15478 0
M  V30 1131 H 99.448 -7.49254 -1.00766 0
M  V30 1132 H 100.716 -7.47906 -2.19676 0
M  V30 1133 N 104.945 -0.338344 -1.53925 0
M  V30 1134 C 105.877 0.555117 -2.22376 0
M  V30 1135 C 106.89 1.06812 -1.22862 0
M  V30 1136 O 108.079 0.979163 -1.49247 0
M  V30 1137 C 105.179 1.77609 -2.88631 0
M  V30 1138 C 104.352 1.39927 -4.14414 0
M  V30 1139 C 103.411 2.47936 -4.64127 0
M  V30 1140 O 102.437 2.11461 -5.28463 0
M  V30 1141 N 103.639 3.79107 -4.39612 0
M  V30 1142 H 106.404 -0.0310778 -2.99684 0
M  V30 1143 H 103.965 -0.162226 -1.61085 0
M  V30 1144 H 105.957 2.49287 -3.18807 0
M  V30 1145 H 104.527 2.26978 -2.14941 0
M  V30 1146 H 103.747 0.513481 -3.90841 0
M  V30 1147 H 105.035 1.12341 -4.96243 0
M  V30 1148 H 104.433 4.11531 -3.88148 0
M  V30 1149 H 102.99 4.4697 -4.74406 0
M  V30 1150 N 106.423 1.57458 -0.0668435 0
M  V30 1151 C 107.7 1.8469 0.644132 0
M  V30 1152 C 108.08 0.958343 1.88093 0
M  V30 1153 O 107.428 0.0233579 2.28488 0
M  V30 1154 C 107.638 3.34767 0.986509 0
M  V30 1155 C 108.986 4.02159 1.36212 0
M  V30 1156 O 110.01 3.39484 1.07839 0
M  V30 1157 O 108.869 5.12694 1.89227 0
M  V30 1158 H 105.963 0.762816 0.319437 0
M  V30 1159 H 108.509 1.6942 -0.0973986 0
M  V30 1160 H 107.281 3.91151 0.107883 0
M  V30 1161 H 106.904 3.55281 1.78497 0
M  V30 1162 N 107.901 -0.206675 1.56239 0
M  V30 1163 C 109.317 -0.557025 1.49564 0
M  V30 1164 C 109.517 -1.86424 0.764735 0
M  V30 1165 O 108.573 -2.50584 0.310491 0
M  V30 1166 C 109.886 -0.622478 2.94186 0
M  V30 1167 C 111.434 -0.712099 3.04792 0
M  V30 1168 C 111.909 -0.808767 4.50803 0
M  V30 1169 N 113.4 -0.8726 4.54907 0
M  V30 1170 C 114.135 -0.967365 5.65181 0
M  V30 1171 N 113.631 -1.02515 6.85173 0
M  V30 1172 N 115.424 -1.00366 5.53067 0
M  V30 1173 H 107.575 0.650943 2.02179 0
M  V30 1174 H 109.838 0.230387 0.919579 0
M  V30 1175 H 109.544 0.268727 3.50672 0
M  V30 1176 H 109.418 -1.4811 3.46905 0
M  V30 1177 H 111.805 -1.59374 2.48363 0
M  V30 1178 H 111.886 0.172489 2.55218 0
M  V30 1179 H 111.53 0.0684754 5.07854 0
M  V30 1180 H 111.46 -1.70899 4.98098 0
M  V30 1181 H 113.951 -0.837657 3.68499 0
M  V30 1182 H 114.264 -1.09765 7.64965 0
M  V30 1183 H 112.609 -0.994026 6.87855 0
M  V30 1184 H 115.8 -0.95527 4.58249 0
M  V30 1185 H 115.973 -1.07405 6.39037 0
M  V30 1186 N 109.379 -1.50304 -0.473955 0
M  V30 1187 C 110.625 -1.61389 -1.22806 0
M  V30 1188 C 110.958 -0.311955 -1.91678 0
M  V30 1189 O 110.233 0.686384 -1.81986 0
M  V30 1190 C 110.516 -2.79219 -2.27396 0
M  V30 1191 C 110.369 -4.19286 -1.62848 0
M  V30 1192 C 111.688 -2.92614 -3.28732 0
M  V30 1193 H 108.807 -0.587399 -0.445119 0
M  V30 1194 H 111.449 -1.82681 -0.522265 0
M  V30 1195 H 109.599 -2.61195 -2.87592 0
M  V30 1196 H 111.271 -4.48892 -1.06271 0
M  V30 1197 H 109.514 -4.23677 -0.931693 0
M  V30 1198 H 110.185 -4.97655 -2.38838 0
M  V30 1199 H 112.661 -3.09105 -2.78556 0
M  V30 1200 H 111.537 -3.76688 -3.99246 0
M  V30 1201 H 111.798 -2.03107 -3.92683 0
M  V30 1202 N 110.857 0.726932 -1.39834 0
M  V30 1203 C 111.82 1.82269 -1.38962 0
M  V30 1204 C 112.82 1.58248 -0.285334 0
M  V30 1205 O 114.01 1.65499 -0.54366 0
M  V30 1206 C 111.142 3.20186 -1.17019 0
M  V30 1207 H 112.335 1.84443 -2.36476 0
M  V30 1208 H 109.888 0.931416 -1.25516 0
M  V30 1209 H 110.623 3.23669 -0.202204 0
M  V30 1210 H 110.408 3.3902 -1.96998 0
M  V30 1211 H 111.898 4.00235 -1.1917 0
M  V30 1212 N 112.336 1.25143 0.95797 0
M  V30 1213 C 113.268 1.01023 2.05735 0
M  V30 1214 C 114.281 -0.0236902 1.62783 0
M  V30 1215 O 115.47 0.21448 1.77207 0
M  V30 1216 C 112.57 0.504595 3.35122 0
M  V30 1217 C 111.743 1.6039 4.06932 0
M  V30 1218 C 110.802 1.09922 5.14591 0
M  V30 1219 O 109.828 1.79293 5.40225 0
M  V30 1220 N 111.03 -0.0612545 5.80468 0
M  V30 1221 H 113.795 1.95683 2.26998 0
M  V30 1222 H 111.356 1.16303 1.12629 0
M  V30 1223 H 113.348 0.151516 4.04416 0
M  V30 1224 H 111.918 -0.347989 3.10657 0
M  V30 1225 H 111.138 2.12872 3.31782 0
M  V30 1226 H 112.426 2.34252 4.51667 0
M  V30 1227 H 111.824 -0.640985 5.62057 0
M  V30 1228 H 110.381 -0.355395 6.5083 0
M  V30 1229 N 113.814 -1.1601 1.06675 0
M  V30 1230 C 114.744 -2.22688 0.702307 0
M  V30 1231 C 115.725 -1.67306 -0.307032 0
M  V30 1232 O 116.91 -1.93352 -0.181305 0
M  V30 1233 C 114.04 -3.47178 0.092038 0
M  V30 1234 C 112.994 -4.15477 1.02777 0
M  V30 1235 C 112.32 -5.33963 0.28061 0
M  V30 1236 C 113.62 -4.66019 2.35846 0
M  V30 1237 H 115.314 -2.53429 1.59419 0
M  V30 1238 H 112.86 -1.21813 0.767961 0
M  V30 1239 H 114.813 -4.21037 -0.174814 0
M  V30 1240 H 113.537 -3.15749 -0.834877 0
M  V30 1241 H 112.196 -3.43549 1.27944 0
M  V30 1242 H 111.844 -4.98788 -0.649545 0
M  V30 1243 H 111.544 -5.806 0.904258 0
M  V30 1244 H 113.068 -6.10596 0.021396 0
M  V30 1245 H 114.482 -5.3144 2.15045 0
M  V30 1246 H 112.879 -5.23293 2.93743 0
M  V30 1247 H 113.949 -3.82023 2.98641 0
M  V30 1248 N 115.292 -0.849877 -1.32721 0
M  V30 1249 C 116.24 -0.279745 -2.30912 0
M  V30 1250 C 117.234 0.594278 -1.58634 0
M  V30 1251 O 118.44 0.482613 -1.73409 0
M  V30 1252 H 114.815 -0.0717521 -0.748569 0
M  V30 1253 H 116.786 -1.12222 -2.76494 0
M  V30 1254 C 115.535 0.521108 -3.43773 0
M  V30 1255 H 114.858 -0.142141 -3.99547 0
M  V30 1256 H 116.298 0.885693 -4.14646 0
M  V30 1257 C 114.757 1.70442 -2.90605 0
M  V30 1258 O 115.287 2.8034 -2.87702 0
M  V30 1259 N 113.493 1.52991 -2.47067 0
M  V30 1260 H 113.04 0.635914 -2.49628 0
M  V30 1261 H 112.998 2.32311 -2.11847 0
M  V30 1262 N 116.77 1.45427 -0.607355 0
M  V30 1263 C 117.68 2.34325 0.113463 0
M  V30 1264 C 118.696 1.51226 0.860617 0
M  V30 1265 O 119.872 1.84029 0.818255 0
M  V30 1266 C 116.937 3.28839 1.09844 0
M  V30 1267 C 115.998 4.27844 0.353271 0
M  V30 1268 C 115.231 5.17842 1.29133 0
M  V30 1269 O 115.454 5.11264 2.52913 0
M  V30 1270 O 114.388 5.96713 0.788523 0
M  V30 1271 H 118.214 2.97364 -0.617094 0
M  V30 1272 H 115.799 1.44807 -0.367619 0
M  V30 1273 H 117.681 3.8708 1.66575 0
M  V30 1274 H 116.356 2.68365 1.81003 0
M  V30 1275 H 115.263 3.7322 -0.256494 0
M  V30 1276 H 116.596 4.91173 -0.317822 0
M  V30 1277 N 118.248 0.346503 1.53744 0
M  V30 1278 C 119.494 -0.242135 2.01954 0
M  V30 1279 C 119.849 -1.47962 1.22984 0
M  V30 1280 O 119.142 -1.89077 0.309924 0
M  V30 1281 C 119.336 -0.605809 3.52228 0
M  V30 1282 C 119.165 0.594882 4.45748 0
M  V30 1283 C 117.935 1.1011 4.93157 0
M  V30 1284 C 120.133 1.45425 4.93311 0
M  V30 1285 N 118.115 2.26381 5.70636 0
M  V30 1286 C 119.486 2.46383 5.68942 0
M  V30 1287 C 121.541 1.47935 4.75415 0
M  V30 1288 C 120.244 3.49684 6.28581 0
M  V30 1289 C 122.27 2.50119 5.35905 0
M  V30 1290 C 121.632 3.49803 6.11406 0
M  V30 1291 H 117.731 -0.0518296 0.780281 0
M  V30 1292 H 120.315 0.486736 1.88518 0
M  V30 1293 H 118.486 -1.30378 3.65864 0
M  V30 1294 H 120.218 -1.17789 3.87179 0
M  V30 1295 H 116.973 0.668721 4.68855 0
M  V30 1296 H 117.397 2.85094 6.14044 0
M  V30 1297 H 122.039 0.722274 4.16585 0
M  V30 1298 H 119.757 4.26285 6.86518 0
M  V30 1299 H 123.343 2.52892 5.23963 0
M  V30 1300 H 122.223 4.27576 6.5738 0
M  V30 1301 N 119.726 -1.57421 0.075193 0
M  V30 1302 C 121.142 -1.57099 -0.281444 0
M  V30 1303 C 121.342 -1.08486 -1.69803 0
M  V30 1304 O 120.398 -0.752279 -2.41033 0
M  V30 1305 C 121.711 -3.00571 -0.0880041 0
M  V30 1306 C 123.259 -3.12605 -0.157281 0
M  V30 1307 C 123.734 -4.57999 0.0079207 0
M  V30 1308 N 125.225 -4.63176 -0.0475725 0
M  V30 1309 C 125.96 -5.73373 0.0557876 0
M  V30 1310 N 125.456 -6.92473 0.21286 0
M  V30 1311 N 127.249 -5.621 -0.00152098 0
M  V30 1312 H 119.4 -1.87335 1.00098 0
M  V30 1313 H 121.663 -0.86377 0.390646 0
M  V30 1314 H 121.369 -3.40262 0.889629 0
M  V30 1315 H 121.243 -3.67754 -0.838875 0
M  V30 1316 H 123.63 -2.72798 -1.1254 0
M  V30 1317 H 123.711 -2.48053 0.62475 0
M  V30 1318 H 123.355 -4.98496 0.972824 0
M  V30 1319 H 123.285 -5.20586 -0.793556 0
M  V30 1320 H 125.776 -3.7753 -0.167244 0
M  V30 1321 H 126.089 -7.72279 0.283781 0
M  V30 1322 H 124.434 -6.94556 0.248267 0
M  V30 1323 H 127.625 -4.67938 -0.122958 0
M  V30 1324 H 127.798 -6.47948 0.0824844 0
M  V30 1325 N 121.204 0.198386 -1.56346 0
M  V30 1326 C 122.432 0.935572 -1.84539 0
M  V30 1327 C 122.847 1.76989 -0.657281 0
M  V30 1328 O 122.204 1.78626 0.374043 0
M  V30 1329 C 122.255 1.8344 -3.11499 0
M  V30 1330 O 121.976 1.03377 -4.25728 0
M  V30 1331 C 123.477 2.68355 -3.52846 0
M  V30 1332 H 120.697 0.273126 -0.612897 0
M  V30 1333 H 123.241 0.20663 -2.03453 0
M  V30 1334 H 121.396 2.51701 -2.94492 0
M  V30 1335 H 121.81 1.64599 -4.98003 0
M  V30 1336 H 123.284 3.27085 -4.44657 0
M  V30 1337 H 123.761 3.41901 -2.75681 0
M  V30 1338 H 124.367 2.05471 -3.72373 0
M  V30 1339 N 122.682 1.50554 0.465978 0
M  V30 1340 C 123.592 1.72585 1.58907 0
M  V30 1341 C 124.608 0.60911 1.6299 0
M  V30 1342 O 125.784 0.88804 1.80765 0
M  V30 1343 C 122.849 1.81995 2.95091 0
M  V30 1344 C 121.91 3.05751 3.01355 0
M  V30 1345 C 121.143 3.14702 4.31043 0
M  V30 1346 O 121.366 2.30313 5.21835 0
M  V30 1347 O 120.3 4.07468 4.43005 0
M  V30 1348 H 124.126 2.67799 1.43239 0
M  V30 1349 H 121.711 1.34711 0.646013 0
M  V30 1350 H 123.593 1.90335 3.75966 0
M  V30 1351 H 122.268 0.899659 3.10947 0
M  V30 1352 H 121.175 3.02908 2.19539 0
M  V30 1353 H 122.508 3.97375 2.90437 0
M  V30 1354 N 124.16 -0.719506 1.40217 0
M  V30 1355 C 125.09 -1.8465 1.42922 0
M  V30 1356 C 126.071 -1.67599 0.29062 0
M  V30 1357 O 127.256 -1.87688 0.498677 0
M  V30 1358 C 124.386 -3.22565 1.28722 0
M  V30 1359 C 123.34 -3.54281 2.40144 0
M  V30 1360 C 122.666 -4.91298 2.11023 0
M  V30 1361 C 123.966 -3.55676 3.82481 0
M  V30 1362 H 125.66 -1.82644 2.37237 0
M  V30 1363 H 123.206 -0.877305 1.1419 0
M  V30 1364 H 125.159 -4.01095 1.29232 0
M  V30 1365 H 123.883 -3.25137 0.308811 0
M  V30 1366 H 122.542 -2.78088 2.38877 0
M  V30 1367 H 122.19 -4.90468 1.11582 0
M  V30 1368 H 121.89 -5.13485 2.8567 0
M  V30 1369 H 123.414 -5.72166 2.13209 0
M  V30 1370 H 124.828 -4.24254 3.85592 0
M  V30 1371 H 123.225 -3.89388 4.56614 0
M  V30 1372 H 124.295 -2.55144 4.12346 0
M  V30 1373 N 125.638 -1.25649 -0.95132 0
M  V30 1374 C 126.548 -1.08073 -2.08224 0
M  V30 1375 C 127.564 -0.0169666 -1.73992 0
M  V30 1376 O 128.74 -0.218593 -2.0021 0
M  V30 1377 C 125.805 -0.704922 -3.39458 0
M  V30 1378 C 124.866 -1.84699 -3.87537 0
M  V30 1379 C 124.099 -1.48902 -5.12508 0
M  V30 1380 O 124.322 -0.386156 -5.69091 0
M  V30 1381 O 123.256 -2.32033 -5.55378 0
M  V30 1382 H 127.082 -2.02924 -2.25954 0
M  V30 1383 H 124.667 -1.04618 -1.06656 0
M  V30 1384 H 126.549 -0.507609 -4.18332 0
M  V30 1385 H 125.224 0.214291 -3.2299 0
M  V30 1386 H 124.131 -2.09919 -3.09653 0
M  V30 1387 H 125.464 -2.74557 -4.08509 0
M  V30 1388 N 127.117 1.15442 -1.07289 0
M  V30 1389 C 128.065 2.22225 -0.686952 0
M  V30 1390 C 129.059 1.66688 0.30193 0
M  V30 1391 O 130.265 1.79236 0.165712 0
M  V30 1392 H 126.64 0.723783 -0.204064 0
M  V30 1393 H 128.611 2.52056 -1.5972 0
M  V30 1394 C 127.36 3.47556 -0.100149 0
M  V30 1395 H 126.683 3.90612 -0.852211 0
M  V30 1396 H 128.123 4.23794 0.132235 0
M  V30 1397 C 126.582 3.16337 1.159 0
M  V30 1398 O 127.112 3.33074 2.24555 0
M  V30 1399 N 125.318 2.70385 1.06491 0
M  V30 1400 H 124.865 2.56966 0.180668 0
M  V30 1401 H 124.823 2.49871 1.90819 0
M  V30 1402 N 128.595 0.856903 1.32268 0
M  V30 1403 C 129.843 0.460474 1.96784 0
M  V30 1404 C 130.164 -0.987701 1.68135 0
M  V30 1405 O 129.434 -1.69058 0.989765 0
M  V30 1406 H 128.014 0.167289 0.728027 0
M  V30 1407 H 130.676 1.09383 1.61312 0
M  V30 1408 H 129.772 0.60739 3.06133 0
M  V30 1409 N 130.073 -1.45103 0.615059 0
M  V30 1410 C 131.322 -2.01396 0.110718 0
M  V30 1411 C 131.635 -1.48834 -1.26916 0
M  V30 1412 O 132.841 -1.97152 -1.86664 0
M  V30 1413 C 131.297 -3.59599 0.14723 0
M  V30 1414 C 130.905 -4.21158 1.52743 0
M  V30 1415 C 132.649 -4.23428 -0.30148 0
M  V30 1416 C 130.556 -5.71535 1.51992 0
M  V30 1417 H 129.486 -0.753061 0.0376241 0
M  V30 1418 H 132.137 -1.66494 0.77149 0
M  V30 1419 H 130.519 -3.91724 -0.580339 0
M  V30 1420 H 131.693 -4.00594 2.2773 0
M  V30 1421 H 130.008 -3.69552 1.91886 0
M  V30 1422 H 132.605 -5.33703 -0.326392 0
M  V30 1423 H 132.948 -3.94629 -1.32565 0
M  V30 1424 H 133.481 -3.96047 0.373065 0
M  V30 1425 H 130.22 -6.05044 2.52193 0
M  V30 1426 H 129.74 -5.94268 0.81274 0
M  V30 1427 H 131.419 -6.34873 1.24681 0
M  V30 1428 N 131.551 -0.354651 -1.53558 0
M  V30 1429 C 132.781 0.239167 -2.05211 0
M  V30 1430 C 133.189 1.43879 -1.22863 0
M  V30 1431 O 132.532 1.81857 -0.259565 0
M  V30 1432 C 132.594 0.707251 -3.52474 0
M  V30 1433 C 132.258 -0.374212 -4.55465 0
M  V30 1434 C 133.255 -1.22054 -5.0537 0
M  V30 1435 C 130.94 -0.531323 -4.99482 0
M  V30 1436 C 132.934 -2.20942 -5.97882 0
M  V30 1437 C 130.621 -1.52358 -5.91802 0
M  V30 1438 C 131.619 -2.36108 -6.40892 0
M  V30 1439 O 131.307 -3.33643 -7.31394 0
M  V30 1440 H 131.039 0.0479716 -0.674296 0
M  V30 1441 H 133.593 -0.508121 -1.99016 0
M  V30 1442 H 131.823 1.50596 -3.56171 0
M  V30 1443 H 133.512 1.22285 -3.87042 0
M  V30 1444 H 134.278 -1.1103 -4.7212 0
M  V30 1445 H 130.157 0.110738 -4.60867 0
M  V30 1446 H 133.701 -2.86348 -6.36121 0
M  V30 1447 H 129.598 -1.63434 -6.24467 0
M  V30 1448 H 130.366 -3.29244 -7.4936 0
M  V30 1449 N 133.029 1.57378 -0.0835403 0
M  V30 1450 C 133.992 2.12252 0.864959 0
M  V30 1451 C 134.992 1.04916 1.21858 0
M  V30 1452 O 136.182 1.30853 1.14991 0
M  V30 1453 C 133.314 2.63358 2.16461 0
M  V30 1454 H 134.507 2.97371 0.388676 0
M  V30 1455 H 132.06 1.55423 0.165317 0
M  V30 1456 H 132.795 1.81727 2.686 0
M  V30 1457 H 132.58 3.41826 1.92087 0
M  V30 1458 H 134.07 3.05847 2.84337 0
M  V30 1459 N 134.507 -0.190092 1.56449 0
M  V30 1460 C 135.47 -1.21925 1.9408 0
M  V30 1461 C 136.47 -1.38176 0.822431 0
M  V30 1462 O 137.66 -1.35903 1.08977 0
M  V30 1463 C 134.792 -2.58773 2.21922 0
M  V30 1464 H 135.985 -0.897464 2.86157 0
M  V30 1465 H 133.538 -0.43181 1.50217 0
M  V30 1466 H 134.273 -2.95998 1.32499 0
M  V30 1467 H 134.058 -2.48348 3.03424 0
M  V30 1468 H 135.548 -3.32978 2.52022 0
M  V30 1469 N 135.985 -1.50799 -0.457987 0
M  V30 1470 C 137.262 -1.52968 -1.21902 0
M  V30 1471 C 137.642 -0.281906 -2.09209 0
M  V30 1472 O 136.99 0.734076 -2.16388 0
M  V30 1473 C 137.2 -2.8326 -2.03875 0
M  V30 1474 C 138.548 -3.34425 -2.6162 0
M  V30 1475 O 139.572 -2.8467 -2.14106 0
M  V30 1476 O 138.431 -4.21188 -3.48228 0
M  V30 1477 H 135.525 -0.614129 -0.553873 0
M  V30 1478 H 138.071 -1.63098 -0.468739 0
M  V30 1479 H 136.843 -3.65543 -1.39621 0
M  V30 1480 H 136.466 -2.76195 -2.8601 0
M  V30 1481 N 137.463 0.71206 -1.40597 0
M  V30 1482 C 138.693 1.49894 -1.42181 0
M  V30 1483 C 139.101 1.89189 -0.0208078 0
M  V30 1484 O 138.444 1.56223 0.966436 0
M  V30 1485 C 138.506 2.80215 -2.25211 0
M  V30 1486 C 138.17 2.63221 -3.73582 0
M  V30 1487 C 139.167 2.30249 -4.66135 0
M  V30 1488 C 136.852 2.79376 -4.17438 0
M  V30 1489 C 138.846 2.13645 -6.00529 0
M  V30 1490 C 136.533 2.6239 -5.51901 0
M  V30 1491 C 137.531 2.29573 -6.43262 0
M  V30 1492 O 137.219 2.12719 -7.75246 0
M  V30 1493 H 136.951 0.469031 -0.486812 0
M  V30 1494 H 139.505 0.88564 -1.85326 0
M  V30 1495 H 137.735 3.4389 -1.76852 0
M  V30 1496 H 139.424 3.41947 -2.18694 0
M  V30 1497 H 140.19 2.17398 -4.33547 0
M  V30 1498 H 136.069 3.03906 -3.46644 0
M  V30 1499 H 139.613 1.87953 -6.71803 0
M  V30 1500 H 135.51 2.74826 -5.84073 0
M  V30 1501 H 136.278 2.27611 -7.86216 0
M  V30 1502 N 138.941 1.26152 0.944643 0
M  V30 1503 C 139.851 1.09176 2.07648 0
M  V30 1504 C 140.867 0.0261935 1.7398 0
M  V30 1505 O 142.043 0.229208 2.00091 0
M  V30 1506 C 139.108 0.722915 3.39079 0
M  V30 1507 C 138.169 1.86752 3.86552 0
M  V30 1508 C 137.402 1.51617 5.11711 0
M  V30 1509 O 137.625 0.416331 5.68879 0
M  V30 1510 O 136.559 2.34975 5.54139 0
M  V30 1511 H 140.385 2.0412 2.24875 0
M  V30 1512 H 137.97 1.05182 1.061 0
M  V30 1513 H 139.852 0.529787 4.18056 0
M  V30 1514 H 138.527 -0.197159 3.23099 0
M  V30 1515 H 137.434 2.11558 3.08535 0
M  V30 1516 H 138.767 2.76719 4.07047 0
M  V30 1517 N 140.419 -1.14872 1.07899 0
M  V30 1518 C 141.367 -2.21857 0.698727 0
M  V30 1519 C 142.361 -1.66845 -0.293086 0
M  V30 1520 O 143.567 -1.79321 -0.156204 0
M  V30 1521 H 139.942 -0.722691 0.207899 0
M  V30 1522 H 141.913 -2.51205 1.61054 0
M  V30 1523 C 140.662 -3.47498 0.11858 0
M  V30 1524 H 139.985 -3.90154 0.872914 0
M  V30 1525 H 141.425 -4.23858 -0.109759 0
M  V30 1526 C 139.884 -3.16947 -1.1422 0
M  V30 1527 O 140.414 -3.3426 -2.22785 0
M  V30 1528 N 138.62 -2.70946 -1.05055 0
M  V30 1529 H 138.167 -2.57058 -0.167038 0
M  V30 1530 H 138.125 -2.50879 -1.89491 0
M  V30 1531 N 141.898 -0.863906 -1.31812 0
M  V30 1532 C 143.309 -0.52522 -1.7916 0
M  V30 1533 C 143.66 0.957518 -1.71248 0
M  V30 1534 O 142.785 1.74734 -1.27659 0
M  V30 1535 C 143.38 -0.9466 -3.25307 0
M  V30 1536 C 141.939 -0.659668 -3.70574 0
M  V30 1537 C 141.086 -1.14126 -2.52726 0
M  V30 1538 H 144.037 -1.05022 -1.1898 0
M  V30 1539 H 144.058 -0.266766 -3.79564 0
M  V30 1540 H 143.57 -2.02579 -3.31034 0
M  V30 1541 H 141.671 0.408416 -3.70355 0
M  V30 1542 H 141.784 -1.23245 -4.62977 0
M  V30 1543 H 140.148 -0.561216 -2.4844 0
M  V30 1544 H 140.931 -2.22775 -2.61201 0
M  V30 1545 N 143.376 1.44774 -0.622745 0
M  V30 1546 C 144.606 2.06187 -0.130532 0
M  V30 1547 C 145.014 1.46547 1.19669 0
M  V30 1548 O 144.357 0.579636 1.74316 0
M  V30 1549 C 144.419 3.59437 0.0674983 0
M  V30 1550 C 144.083 4.41496 -1.18026 0
M  V30 1551 C 145.08 4.75512 -2.102 0
M  V30 1552 C 142.765 4.82007 -1.41333 0
M  V30 1553 C 144.759 5.48912 -3.23998 0
M  V30 1554 C 142.446 5.55157 -2.55429 0
M  V30 1555 C 143.444 5.88528 -3.46589 0
M  V30 1556 O 143.132 6.60191 -4.58697 0
M  V30 1557 H 142.864 0.672045 -0.0730162 0
M  V30 1558 H 145.418 1.86768 -0.854802 0
M  V30 1559 H 143.648 3.77314 0.846825 0
M  V30 1560 H 145.337 4.02642 0.513209 0
M  V30 1561 H 146.103 4.4476 -1.93425 0
M  V30 1562 H 141.982 4.55457 -0.712709 0
M  V30 1563 H 145.526 5.74877 -3.95174 0
M  V30 1564 H 141.423 5.85324 -2.72151 0
M  V30 1565 H 142.191 6.78654 -4.57571 0
M  V30 1566 N 144.854 0.36279 1.53368 0
M  V30 1567 C 146.084 -0.228281 2.05335 0
M  V30 1568 C 146.492 -1.43226 1.23625 0
M  V30 1569 O 145.835 -1.81717 0.269206 0
M  V30 1570 C 145.897 -0.688549 3.52845 0
M  V30 1571 C 145.561 0.398362 4.5526 0
M  V30 1572 C 146.558 1.24732 5.04716 0
M  V30 1573 C 144.243 0.557805 4.99193 0
M  V30 1574 C 146.237 2.2411 5.96702 0
M  V30 1575 C 143.924 1.55495 5.90986 0
M  V30 1576 C 144.922 2.39503 6.39631 0
M  V30 1577 O 144.61 3.37517 7.29615 0
M  V30 1578 H 144.342 -0.044395 0.674541 0
M  V30 1579 H 146.896 0.518668 1.98744 0
M  V30 1580 H 145.126 -1.48706 3.56964 0
M  V30 1581 H 146.815 -1.20231 3.87685 0
M  V30 1582 H 147.581 1.13532 4.71525 0
M  V30 1583 H 143.46 -0.0862959 4.60919 0
M  V30 1584 H 147.004 2.89718 6.34594 0
M  V30 1585 H 142.901 1.66744 6.23592 0
M  V30 1586 H 143.669 3.33213 7.47604 0
M  V30 1587 N 146.332 -1.57332 0.0918853 0
M  V30 1588 C 147.609 -1.85691 -0.614668 0
M  V30 1589 C 147.989 -0.988146 -1.86545 0
M  V30 1590 O 147.337 -0.0597055 -2.28422 0
M  V30 1591 C 147.547 -3.36294 -0.933126 0
M  V30 1592 C 148.895 -4.04275 -1.29796 0
M  V30 1593 O 149.919 -3.41157 -1.02424 0
M  V30 1594 O 148.778 -5.1564 -1.81047 0
M  V30 1595 H 145.872 -0.767802 -0.307261 0
M  V30 1596 H 148.418 -1.69244 0.12434 0
M  V30 1597 H 147.19 -3.91273 -0.0456404 0
M  V30 1598 H 146.813 -3.58076 -1.72822 0
M  V30 1599 N 147.81 0.181792 -1.56548 0
M  V30 1600 C 148.758 1.24461 -1.965 0
M  V30 1601 C 149.752 1.464 -0.852261 0
M  V30 1602 O 150.958 1.47103 -1.03733 0
M  V30 1603 H 147.333 0.418138 -0.625031 0
M  V30 1604 H 149.304 0.880714 -2.85107 0
M  V30 1605 C 148.053 2.57891 -2.33212 0
M  V30 1606 H 147.376 2.41829 -3.18369 0
M  V30 1607 H 148.816 3.3097 -2.65019 0
M  V30 1608 C 147.275 3.15871 -1.17163 0
M  V30 1609 O 147.805 3.9913 -0.453708 0
M  V30 1610 N 146.011 2.74808 -0.944936 0
M  V30 1611 H 145.558 2.07205 -1.53049 0
M  V30 1612 H 145.516 3.13939 -0.170286 0
M  V30 1613 N 149.288 1.51039 0.449983 0
M  V30 1614 C 150.513 1.6715 1.22783 0
M  V30 1615 C 150.938 0.363081 1.84563 0
M  V30 1616 O 150.296 -0.675433 1.68249 0
M  V30 1617 C 150.344 2.77985 2.29689 0
M  V30 1618 O 149.448 2.40707 3.34864 0
M  V30 1619 H 148.789 0.557746 0.360299 0
M  V30 1620 H 151.319 1.97535 0.533005 0
M  V30 1621 H 151.329 3.01693 2.74673 0
M  V30 1622 H 150.004 3.72935 1.84098 0
M  V30 1623 H 148.581 2.27523 2.95445 0
M  V30 1624 N 150.766 -0.704594 1.40972 0
M  V30 1625 C 151.994 -1.49354 1.43182 0
M  V30 1626 C 152.409 -1.88768 0.0345508 0
M  V30 1627 O 151.766 -1.56184 -0.944081 0
M  V30 1628 C 151.817 -2.76187 2.33244 0
M  V30 1629 O 151.538 -2.38436 3.67532 0
M  V30 1630 C 153.039 -3.7 2.44162 0
M  V30 1631 H 150.259 -0.460559 0.487982 0
M  V30 1632 H 152.803 -0.868261 1.85153 0
M  V30 1633 H 150.958 -3.34974 1.94606 0
M  V30 1634 H 151.372 -3.20126 4.15475 0
M  V30 1635 H 152.846 -4.55803 3.11364 0
M  V30 1636 H 153.323 -4.13867 1.47006 0
M  V30 1637 H 153.929 -3.17121 2.83398 0
M  V30 1638 N 152.244 -1.26651 -0.937939 0
M  V30 1639 C 153.491 -1.12387 -1.6845 0
M  V30 1640 C 153.819 0.332208 -1.91642 0
M  V30 1641 O 153.074 1.2602 -1.49725 0
M  V30 1642 C 153.373 -1.84168 -3.06295 0
M  V30 1643 C 153.039 -3.34056 -3.02849 0
M  V30 1644 C 151.701 -3.74942 -3.01616 0
M  V30 1645 C 154.053 -4.29741 -2.9491 0
M  V30 1646 C 151.381 -5.09894 -2.90215 0
M  V30 1647 C 153.733 -5.64738 -2.8505 0
M  V30 1648 C 152.397 -6.0493 -2.82162 0
M  V30 1649 H 151.667 -0.411252 -0.616403 0
M  V30 1650 H 154.314 -1.57134 -1.09459 0
M  V30 1651 H 152.619 -1.319 -3.6893 0
M  V30 1652 H 154.316 -1.70569 -3.62915 0
M  V30 1653 H 150.906 -3.01534 -3.0459 0
M  V30 1654 H 155.09 -3.99133 -2.94969 0
M  V30 1655 H 150.346 -5.40194 -2.86358 0
M  V30 1656 H 154.52 -6.38561 -2.77872 0
M  V30 1657 H 152.147 -7.09457 -2.73084 0
M  V30 1658 N 153.722 1.14298 -1.08507 0
M  V30 1659 C 154.685 2.17607 -0.719711 0
M  V30 1660 C 155.685 1.58907 0.245997 0
M  V30 1661 O 156.875 1.74181 0.0254081 0
M  V30 1662 C 154.007 3.40842 -0.0627695 0
M  V30 1663 H 155.2 2.51443 -1.63452 0
M  V30 1664 H 152.753 1.28963 -0.88307 0
M  V30 1665 H 153.488 3.12587 0.863716 0
M  V30 1666 H 153.273 3.84713 -0.757504 0
M  V30 1667 H 154.763 4.17221 0.177786 0
M  V30 1668 N 155.201 0.870884 1.31352 0
M  V30 1669 C 156.426 0.495957 2.01383 0
M  V30 1670 C 156.851 -0.904324 1.64935 0
M  V30 1671 O 156.209 -1.59687 0.858466 0
M  V30 1672 C 156.257 0.661433 3.54482 0
M  V30 1673 O 155.361 -0.298851 4.11316 0
M  V30 1674 H 154.702 0.197158 0.634054 0
M  V30 1675 H 157.232 1.17455 1.67527 0
M  V30 1676 H 157.242 0.555072 4.04207 0
M  V30 1677 H 155.917 1.68246 3.8035 0
M  V30 1678 H 154.494 -0.147368 3.72609 0
M  V30 1679 N 156.679 -1.44442 0.630414 0
M  V30 1680 C 157.629 -2.27794 -0.0968103 0
M  V30 1681 C 158.613 -1.38624 -0.816834 0
M  V30 1682 O 159.805 -1.62438 -0.70306 0
M  V30 1683 C 156.934 -3.25929 -1.07819 0
M  V30 1684 C 156.02 -4.22588 -0.357826 0
M  V30 1685 N 156.411 -5.0207 0.613169 0
M  V30 1686 C 154.709 -4.41914 -0.602365 0
M  V30 1687 C 155.41 -5.72351 1.03871 0
M  V30 1688 N 154.386 -5.42287 0.377642 0
M  V30 1689 H 158.188 -2.86653 0.648621 0
M  V30 1690 H 155.702 -1.55871 0.455862 0
M  V30 1691 H 157.699 -3.84399 -1.61378 0
M  V30 1692 H 156.359 -2.68631 -1.82393 0
M  V30 1693 H 157.37 -5.08331 0.990947 0
M  V30 1694 H 154.047 -3.95714 -1.33103 0
M  V30 1695 H 155.437 -6.4619 1.84086 0
M  V30 1696 N 158.157 -0.370918 -1.53173 0
M  V30 1697 C 159.404 0.217102 -2.01333 0
M  V30 1698 C 159.732 1.48338 -1.25802 0
M  V30 1699 O 158.987 1.92698 -0.34146 0
M  V30 1700 C 159.286 0.549696 -3.53147 0
M  V30 1701 C 158.952 -0.622872 -4.46577 0
M  V30 1702 C 157.614 -0.944595 -4.71838 0
M  V30 1703 C 159.966 -1.40819 -5.01816 0
M  V30 1704 C 157.294 -2.05351 -5.49589 0
M  V30 1705 C 159.646 -2.50757 -5.80778 0
M  V30 1706 C 158.31 -2.83458 -6.04324 0
M  V30 1707 H 157.58 0.0794431 -0.736729 0
M  V30 1708 H 160.227 -0.504481 -1.84736 0
M  V30 1709 H 158.532 1.35237 -3.6772 0
M  V30 1710 H 160.229 1.017 -3.87889 0
M  V30 1711 H 156.819 -0.36209 -4.27068 0
M  V30 1712 H 161.003 -1.17289 -4.82242 0
M  V30 1713 H 156.259 -2.3108 -5.6605 0
M  V30 1714 H 160.433 -3.12022 -6.22588 0
M  V30 1715 H 158.06 -3.69508 -6.64355 0
M  V30 1716 N 159.635 1.57281 -0.100228 0
M  V30 1717 C 160.865 1.98591 0.569681 0
M  V30 1718 C 161.273 0.978315 1.61943 0
M  V30 1719 O 160.616 -0.0396108 1.83657 0
M  V30 1720 C 160.678 3.36282 1.271 0
M  V30 1721 C 160.342 4.55488 0.371409 0
M  V30 1722 C 161.339 5.18491 -0.382504 0
M  V30 1723 C 159.024 5.01474 0.287965 0
M  V30 1724 C 161.018 6.25852 -1.20779 0
M  V30 1725 C 158.705 6.08701 -0.540965 0
M  V30 1726 C 159.703 6.70755 -1.28749 0
M  V30 1727 O 159.391 7.75914 -2.10269 0
M  V30 1728 H 159.123 0.65752 0.156982 0
M  V30 1729 H 161.677 2.0463 -0.177734 0
M  V30 1730 H 159.907 3.26941 2.0651 0
M  V30 1731 H 161.596 3.62005 1.83595 0
M  V30 1732 H 162.362 4.83891 -0.3278 0
M  V30 1733 H 158.241 4.52932 0.858689 0
M  V30 1734 H 161.785 6.74218 -1.79096 0
M  V30 1735 H 157.682 6.42732 -0.597131 0
M  V30 1736 H 158.45 7.92925 -2.03007 0
M  V30 1737 N 161.113 -0.173488 1.56642 0
M  V30 1738 C 162.39 -0.917617 1.7274 0
M  V30 1739 C 162.77 -2.00484 0.661027 0
M  V30 1740 O 162.118 -2.26184 -0.32453 0
M  V30 1741 C 162.328 -1.48433 3.15862 0
M  V30 1742 C 163.676 -1.95809 3.76754 0
M  V30 1743 O 164.7 -1.58231 3.19126 0
M  V30 1744 O 163.559 -2.65024 4.77938 0
M  V30 1745 H 160.653 -0.431772 0.705338 0
M  V30 1746 H 163.199 -0.161487 1.6893 0
M  V30 1747 H 161.971 -0.701715 3.84957 0
M  V30 1748 H 161.594 -2.30471 3.23989 0
M  V30 1749 N 162.591 -1.51276 -0.441967 0
M  V30 1750 C 164.002 -1.56244 -1.02199 0
M  V30 1751 C 164.353 -0.383149 -1.92422 0
M  V30 1752 O 163.478 0.500613 -2.1053 0
M  V30 1753 C 164.073 -2.83162 -1.86024 0
M  V30 1754 C 162.632 -2.90716 -2.39084 0
M  V30 1755 C 161.779 -2.50858 -1.18175 0
M  V30 1756 H 164.73 -1.5712 -0.223416 0
M  V30 1757 H 164.751 -2.66663 -2.71425 0
M  V30 1758 H 164.263 -3.68974 -1.20331 0
M  V30 1759 H 162.364 -2.09323 -3.08244 0
M  V30 1760 H 162.477 -3.94266 -2.72198 0
M  V30 1761 H 160.841 -2.03951 -1.52565 0
M  V30 1762 H 161.624 -3.3901 -0.541001 0
M  V30 1763 N 164.069 0.697108 -1.41344 0
M  V30 1764 C 165.346 1.45154 -1.31109 0
M  V30 1765 C 165.726 2.11009 0.0620449 0
M  V30 1766 O 165.074 2.01571 1.07618 0
M  V30 1767 C 165.284 2.47223 -2.46337 0
M  V30 1768 C 166.632 3.1252 -2.87431 0
M  V30 1769 O 167.656 2.57547 -2.46065 0
M  V30 1770 O 166.515 4.12083 -3.58957 0
M  V30 1771 H 163.609 0.646365 -0.515889 0
M  V30 1772 H 166.155 0.727716 -1.53305 0
M  V30 1773 H 164.927 1.97204 -3.37974 0
M  V30 1774 H 164.55 3.27116 -2.2601 0
M  V30 1775 N 165.547 1.27147 0.931209 0
M  V30 1776 C 166.495 1.09398 2.05268 0
M  V30 1777 C 167.489 0.0180591 1.6939 0
M  V30 1778 O 168.695 0.17551 1.79142 0
M  V30 1779 H 165.07 0.336986 0.672268 0
M  V30 1780 H 167.041 2.04416 2.17386 0
M  V30 1781 C 165.79 0.75424 3.39421 0
M  V30 1782 H 165.113 1.57404 3.67511 0
M  V30 1783 H 166.553 0.669903 4.18674 0
M  V30 1784 C 165.012 -0.541197 3.32525 0
M  V30 1785 O 165.542 -1.57664 3.69466 0
M  V30 1786 N 163.748 -0.535517 2.85623 0
M  V30 1787 H 163.295 0.307511 2.55758 0
M  V30 1788 H 163.253 -1.40236 2.81392 0
M  V30 1789 N 167.025 -1.13721 1.09112 0
M  V30 1790 C 168.273 -1.84559 0.823562 0
M  V30 1791 C 168.594 -1.83754 -0.652658 0
M  V30 1792 O 167.864 -1.29102 -1.47342 0
M  V30 1793 H 166.444 -0.683376 0.301673 0
M  V30 1794 H 169.106 -1.37771 1.37859 0
M  V30 1795 H 168.202 -2.8917 1.17419 0
M  V30 1796 N 168.503 -0.877838 -1.30888 0
M  V30 1797 C 169.45 -0.337538 -2.28318 0
M  V30 1798 C 170.42 0.568346 -1.56074 0
M  V30 1799 O 171.605 0.498298 -1.84178 0
M  V30 1800 C 168.745 0.448142 -3.42178 0
M  V30 1801 C 167.858 -0.48615 -4.29256 0
M  V30 1802 C 166.993 0.314427 -5.30269 0
M  V30 1803 C 166.032 -0.615791 -6.08995 0
M  V30 1804 N 165.169 0.14902 -7.01942 0
M  V30 1805 H 170.009 -1.17356 -2.73919 0
M  V30 1806 H 167.546 -0.590094 -1.34745 0
M  V30 1807 H 169.504 0.919517 -4.06941 0
M  V30 1808 H 168.134 1.24879 -2.97666 0
M  V30 1809 H 167.186 -1.076 -3.64865 0
M  V30 1810 H 168.498 -1.19909 -4.84173 0
M  V30 1811 H 167.652 0.847969 -6.00745 0
M  V30 1812 H 166.391 1.06062 -4.76027 0
M  V30 1813 H 165.396 -1.16102 -5.37401 0
M  V30 1814 H 166.621 -1.36097 -6.65323 0
M  V30 1815 H 164.567 0.877884 -6.50099 0
M  V30 1816 H 164.484 -0.504433 -7.54315 0
M  V30 1817 H 165.752 0.663537 -7.76671 0
M  V30 1818 N 169.982 1.44106 -0.638065 0
M  V30 1819 C 171.21 2.06336 -0.152615 0
M  V30 1820 C 171.625 1.47731 1.17563 0
M  V30 1821 O 170.982 0.602806 1.72257 0
M  V30 1822 C 171.033 3.61479 -0.0391491 0
M  V30 1823 O 170.754 4.17903 -1.31487 0
M  V30 1824 C 172.255 4.40757 0.474176 0
M  V30 1825 H 169.475 0.665862 -0.0828776 0
M  V30 1826 H 172.019 1.84862 -0.87443 0
M  V30 1827 H 170.174 3.82191 0.633142 0
M  V30 1828 H 170.588 5.11416 -1.16421 0
M  V30 1829 H 172.062 5.49707 0.502562 0
M  V30 1830 H 172.539 4.12697 1.50258 0
M  V30 1831 H 173.145 4.24979 -0.165102 0
M  V30 1832 N 171.46 0.379036 1.52974 0
M  V30 1833 C 172.69 -0.20649 2.05566 0
M  V30 1834 C 173.098 -1.41906 1.25137 0
M  V30 1835 O 172.441 -1.81421 0.288464 0
M  V30 1836 C 172.503 -0.651086 3.53555 0
M  V30 1837 C 172.167 0.446626 4.54812 0
M  V30 1838 C 173.164 1.30079 5.03364 0
M  V30 1839 C 170.849 0.610719 4.98573 0
M  V30 1840 C 172.843 2.30426 5.94292 0
M  V30 1841 C 170.53 1.61754 5.89304 0
M  V30 1842 C 171.528 2.46274 6.37054 0
M  V30 1843 O 171.216 3.45237 7.25994 0
M  V30 1844 H 170.948 -0.0372381 0.674974 0
M  V30 1845 H 173.502 0.539718 1.98182 0
M  V30 1846 H 171.732 -1.44911 3.58522 0
M  V30 1847 H 173.421 -1.16112 3.88938 0
M  V30 1848 H 174.187 1.18527 4.70294 0
M  V30 1849 H 170.066 -0.0374044 4.60985 0
M  V30 1850 H 173.61 2.96432 6.31485 0
M  V30 1851 H 169.507 1.73348 6.21788 0
M  V30 1852 H 170.275 3.41124 7.44027 0
M  V30 1853 N 172.938 -1.57226 0.108567 0
M  V30 1854 C 174.187 -1.94008 -0.551703 0
M  V30 1855 C 174.5 -0.993442 -1.68494 0
M  V30 1856 O 175.706 -1.25551 -2.40726 0
M  V30 1857 C 174.162 -3.44763 -1.03279 0
M  V30 1858 C 173.77 -4.47943 0.0714193 0
M  V30 1859 C 175.514 -3.90483 -1.66503 0
M  V30 1860 C 173.421 -5.89865 -0.425779 0
M  V30 1861 H 172.351 -0.724206 -0.209863 0
M  V30 1862 H 175.002 -1.82547 0.186741 0
M  V30 1863 H 173.384 -3.51422 -1.82533 0
M  V30 1864 H 174.558 -4.52942 0.847365 0
M  V30 1865 H 172.873 -4.11913 0.609669 0
M  V30 1866 H 175.47 -4.93925 -2.04798 0
M  V30 1867 H 175.813 -3.29877 -2.53942 0
M  V30 1868 H 176.346 -3.86581 -0.938074 0
M  V30 1869 H 173.085 -6.54202 0.412316 0
M  V30 1870 H 172.605 -5.88309 -1.16843 0
M  V30 1871 H 174.284 -6.40844 -0.890397 0
M  V30 1872 N 174.416 0.165178 -1.56732 0
M  V30 1873 C 175.827 0.727046 -1.71962 0
M  V30 1874 C 176.178 1.82508 -0.720078 0
M  V30 1875 O 175.303 2.16082 0.117242 0
M  V30 1876 C 175.898 1.32559 -3.11791 0
M  V30 1877 C 174.457 1.83422 -3.28684 0
M  V30 1878 C 173.604 0.715567 -2.67908 0
M  V30 1879 H 176.555 -0.0602896 -1.58585 0
M  V30 1880 H 176.576 2.19533 -3.10782 0
M  V30 1881 H 176.088 0.526195 -3.84516 0
M  V30 1882 H 174.189 2.65986 -2.60926 0
M  V30 1883 H 174.302 1.97543 -4.36478 0
M  V30 1884 H 172.666 1.13758 -2.27884 0
M  V30 1885 H 173.449 -0.0720836 -3.43224 0
M  V30 1886 N 175.894 1.51508 0.433938 0
M  V30 1887 C 177.141 1.64345 1.18309 0
M  V30 1888 C 177.469 0.361315 1.91115 0
M  V30 1889 O 176.724 -0.654753 1.84422 0
M  V30 1890 C 177.023 2.79928 2.22205 0
M  V30 1891 C 176.689 4.19078 1.66387 0
M  V30 1892 C 175.351 4.56932 1.50887 0
M  V30 1893 C 177.703 5.05894 1.25381 0
M  V30 1894 C 175.031 5.79305 0.928608 0
M  V30 1895 C 177.383 6.2885 0.687823 0
M  V30 1896 C 176.047 6.65473 0.519755 0
M  V30 1897 H 175.317 0.601381 0.432923 0
M  V30 1898 H 177.964 1.85549 0.473676 0
M  V30 1899 H 176.269 2.52959 2.99197 0
M  V30 1900 H 177.966 2.87059 2.79997 0
M  V30 1901 H 174.556 3.89234 1.79428 0
M  V30 1902 H 178.74 4.77253 1.36175 0
M  V30 1903 H 173.996 6.06324 0.786186 0
M  V30 1904 H 178.17 6.95461 0.361581 0
M  V30 1905 H 175.797 7.6017 0.0679979 0
M  V30 1906 N 177.372 -0.689602 1.41712 0
M  V30 1907 C 178.335 -1.78521 1.43746 0
M  V30 1908 C 179.335 -1.57436 0.327191 0
M  V30 1909 O 180.525 -1.64 0.587348 0
M  V30 1910 C 177.657 -3.16971 1.25467 0
M  V30 1911 H 178.85 -1.78108 2.41283 0
M  V30 1912 H 176.403 -0.89781 1.27942 0
M  V30 1913 H 177.138 -3.23019 0.287948 0
M  V30 1914 H 176.923 -3.33678 2.05917 0
M  V30 1915 H 178.413 -3.96935 1.2974 0
M  V30 1916 N 178.85 -1.27639 -0.924453 0
M  V30 1917 C 179.797 -1.10644 -2.0255 0
M  V30 1918 C 180.767 -0.00658438 -1.66099 0
M  V30 1919 O 181.952 -0.16952 -1.90045 0
M  V30 1920 C 179.092 -0.76309 -3.36557 0
M  V30 1921 C 178.205 -1.94091 -3.85944 0
M  V30 1922 C 177.34 -1.53914 -5.08413 0
M  V30 1923 C 176.379 -2.68425 -5.50104 0
M  V30 1924 N 175.516 -2.28815 -6.63768 0
M  V30 1925 H 180.356 -2.04858 -2.16419 0
M  V30 1926 H 177.893 -1.01974 -1.06017 0
M  V30 1927 H 179.851 -0.544822 -4.13627 0
M  V30 1928 H 178.481 0.142102 -3.22487 0
M  V30 1929 H 177.533 -2.27162 -3.05125 0
M  V30 1930 H 178.845 -2.7998 -4.12811 0
M  V30 1931 H 177.999 -1.28231 -5.92994 0
M  V30 1932 H 176.738 -0.651391 -4.8333 0
M  V30 1933 H 175.743 -2.94819 -4.64071 0
M  V30 1934 H 176.968 -3.57826 -5.7718 0
M  V30 1935 H 174.914 -1.42495 -6.40337 0
M  V30 1936 H 174.831 -3.08242 -6.90306 0
M  V30 1937 H 176.099 -2.06387 -7.51681 0
M  V30 1938 N 180.328 1.1314 -1.09713 0
M  V30 1939 C 181.26 2.18343 -0.697056 0
M  V30 1940 C 182.273 1.60669 0.262551 0
M  V30 1941 O 183.462 1.78435 0.0481527 0
M  V30 1942 C 180.562 3.38899 -0.00684728 0
M  V30 1943 C 179.735 4.26078 -0.988741 0
M  V30 1944 C 178.794 5.25155 -0.331394 0
M  V30 1945 O 177.82 5.60701 -0.979926 0
M  V30 1946 N 179.022 5.73271 0.913261 0
M  V30 1947 H 181.787 2.5328 -1.60216 0
M  V30 1948 H 179.348 1.28491 -0.984971 0
M  V30 1949 H 181.34 4.02255 0.444191 0
M  V30 1950 H 179.91 3.02175 0.800551 0
M  V30 1951 H 179.13 3.59453 -1.61826 0
M  V30 1952 H 180.418 4.81178 -1.65364 0
M  V30 1953 H 179.816 5.46544 1.45966 0
M  V30 1954 H 178.373 6.3855 1.30757 0
M  V30 1955 N 181.806 0.884767 1.30421 0
M  V30 1956 C 182.769 0.356277 2.26414 0
M  V30 1957 C 183.769 -0.501124 1.52792 0
M  V30 1958 O 184.959 -0.30831 1.7145 0
M  V30 1959 C 182.091 -0.492316 3.37326 0
M  V30 1960 H 183.284 1.20389 2.74675 0
M  V30 1961 H 180.837 0.661607 1.41607 0
M  V30 1962 H 181.572 -1.36052 2.94381 0
M  V30 1963 H 181.357 0.121832 3.91911 0
M  V30 1964 H 182.847 -0.853871 4.08777 0
M  V30 1965 N 183.284 -1.43765 0.645699 0
M  V30 1966 C 184.231 -2.30745 -0.0504648 0
M  V30 1967 C 185.201 -1.4432 -0.822241 0
M  V30 1968 O 186.386 -1.73202 -0.800358 0
M  V30 1969 C 183.526 -3.29802 -1.0161 0
M  V30 1970 C 182.639 -4.31326 -0.241219 0
M  V30 1971 C 181.774 -5.17469 -1.19998 0
M  V30 1972 C 180.813 -6.10691 -0.415094 0
M  V30 1973 N 179.95 -6.89483 -1.32506 0
M  V30 1974 H 184.79 -2.8973 0.697155 0
M  V30 1975 H 182.327 -1.42738 0.355563 0
M  V30 1976 H 184.285 -3.85734 -1.58949 0
M  V30 1977 H 182.915 -2.72483 -1.73069 0
M  V30 1978 H 181.967 -3.77749 0.448334 0
M  V30 1979 H 183.279 -4.9743 0.369437 0
M  V30 1980 H 182.433 -5.7799 -1.84424 0
M  V30 1981 H 181.172 -4.51473 -1.84455 0
M  V30 1982 H 180.177 -5.49265 0.242565 0
M  V30 1983 H 181.402 -6.78727 0.224966 0
M  V30 1984 H 179.348 -6.26142 -1.95657 0
M  V30 1985 H 179.265 -7.52081 -0.768783 0
M  V30 1986 H 180.533 -7.54516 -1.9577 0
M  V30 1987 N 184.763 -0.387143 -1.52771 0
M  V30 1988 C 185.673 0.456442 -2.30117 0
M  V30 1989 C 186.689 1.07342 -1.36944 0
M  V30 1990 O 187.865 1.07971 -1.70013 0
M  V30 1991 C 184.93 1.56957 -3.09136 0
M  V30 1992 C 183.991 0.977916 -4.18014 0
M  V30 1993 C 183.224 2.038 -4.93256 0
M  V30 1994 O 183.447 3.25271 -4.68567 0
M  V30 1995 O 182.381 1.6565 -5.78657 0
M  V30 1996 H 186.207 -0.17359 -3.03203 0
M  V30 1997 H 183.792 -0.150919 -1.48636 0
M  V30 1998 H 185.674 2.21628 -3.58412 0
M  V30 1999 H 184.349 2.18461 -2.38865 0
M  V30 2000 H 183.256 0.294525 -3.72939 0
M  V30 2001 H 184.589 0.407128 -4.90513 0
M  V30 2002 N 186.241 1.57166 -0.116904 0
M  V30 2003 C 187.469 1.99473 0.549383 0
M  V30 2004 C 187.884 0.996541 1.60357 0
M  V30 2005 O 187.241 -0.0108731 1.82497 0
M  V30 2006 C 187.292 3.41788 1.17741 0
M  V30 2007 O 187.013 4.37788 0.165362 0
M  V30 2008 C 188.514 3.99216 1.92722 0
M  V30 2009 H 185.734 0.655009 0.145616 0
M  V30 2010 H 188.278 2.03494 -0.202625 0
M  V30 2011 H 186.433 3.38713 1.88021 0
M  V30 2012 H 186.847 5.20806 0.621403 0
M  V30 2013 H 188.321 5.00882 2.31995 0
M  V30 2014 H 188.798 3.3824 2.80161 0
M  V30 2015 H 189.404 4.0583 1.27209 0
M  V30 2016 N 187.719 -0.156864 1.56817 0
M  V30 2017 C 188.967 -0.869404 1.82444 0
M  V30 2018 C 189.288 -1.82147 0.69623 0
M  V30 2019 O 188.558 -1.93847 -0.28287 0
M  V30 2020 H 187.138 -0.324043 0.673056 0
M  V30 2021 H 189.8 -0.153224 1.94297 0
M  V30 2022 H 188.896 -1.43761 2.77019 0
M  V30 2023 N 189.197 -1.51736 -0.425897 0
M  V30 2024 C 190.16 -1.73271 -1.50032 0
M  V30 2025 C 191.16 -0.602639 -1.4908 0
M  V30 2026 O 192.35 -0.87033 -1.509 0
M  V30 2027 C 189.482 -1.79969 -2.89523 0
M  V30 2028 H 190.675 -2.69172 -1.32237 0
M  V30 2029 H 188.228 -1.41899 -0.65532 0
M  V30 2030 H 188.963 -0.859241 -3.1271 0
M  V30 2031 H 188.748 -2.62109 -2.91619 0
M  V30 2032 H 190.238 -1.9843 -3.67444 0
M  V30 2033 N 190.675 0.682077 -1.42076 0
M  V30 2034 C 191.622 1.79578 -1.44984 0
M  V30 2035 C 192.592 1.6332 -0.302614 0
M  V30 2036 O 193.777 1.83978 -0.505633 0
M  V30 2037 C 190.917 3.1756 -1.35091 0
M  V30 2038 C 190.03 3.45156 -2.59791 0
M  V30 2039 C 189.165 4.72826 -2.42093 0
M  V30 2040 C 188.204 4.93433 -3.62202 0
M  V30 2041 N 187.341 6.12338 -3.43491 0
M  V30 2042 H 192.181 1.76427 -2.40161 0
M  V30 2043 H 189.718 0.861376 -1.19242 0
M  V30 2044 H 191.676 3.97287 -1.27354 0
M  V30 2045 H 190.306 3.19854 -0.435133 0
M  V30 2046 H 189.358 2.59736 -2.77923 0
M  V30 2047 H 190.67 3.5628 -3.49094 0
M  V30 2048 H 189.824 5.60631 -2.319 0
M  V30 2049 H 188.563 4.63973 -1.50268 0
M  V30 2050 H 187.568 4.04073 -3.72834 0
M  V30 2051 H 188.793 5.04136 -4.54998 0
M  V30 2052 H 186.739 6.04672 -2.54377 0
M  V30 2053 H 186.656 6.2429 -4.26377 0
M  V30 2054 H 187.924 7.02841 -3.37097 0
M  V30 2055 N 192.153 1.28127 0.917671 0
M  V30 2056 C 193.383 1.17722 1.6978 0
M  V30 2057 C 193.791 -0.267261 1.87303 0
M  V30 2058 O 193.134 -1.19286 1.39702 0
M  V30 2059 C 193.196 1.79958 3.11216 0
M  V30 2060 C 192.86 3.29187 3.16993 0
M  V30 2061 C 193.857 4.25679 2.98485 0
M  V30 2062 C 191.542 3.70075 3.39632 0
M  V30 2063 C 193.536 5.61035 3.02521 0
M  V30 2064 C 191.223 5.05557 3.433 0
M  V30 2065 C 192.221 6.00847 3.24764 0
M  V30 2066 O 191.909 7.33859 3.28187 0
M  V30 2067 H 191.641 0.409788 0.537634 0
M  V30 2068 H 194.195 1.69694 1.15728 0
M  V30 2069 H 192.425 1.22475 3.66793 0
M  V30 2070 H 194.114 1.64125 3.71238 0
M  V30 2071 H 194.88 3.95426 2.80826 0
M  V30 2072 H 190.759 2.96373 3.53106 0
M  V30 2073 H 194.303 6.35388 2.87971 0
M  V30 2074 H 190.2 5.35462 3.60486 0
M  V30 2075 H 190.968 7.42436 3.44575 0
M  V30 2076 N 193.631 -1.12557 1.10312 0
M  V30 2077 C 194.878 -1.84038 0.844759 0
M  V30 2078 C 195.206 -1.84026 -0.629668 0
M  V30 2079 O 194.461 -1.28026 -1.48013 0
M  V30 2080 C 194.76 -3.31462 1.33669 0
M  V30 2081 C 194.426 -3.51647 2.82232 0
M  V30 2082 C 193.088 -3.56864 3.22802 0
M  V30 2083 C 195.44 -3.58867 3.77974 0
M  V30 2084 C 192.768 -3.66844 4.57867 0
M  V30 2085 C 195.12 -3.70375 5.1284 0
M  V30 2086 C 193.784 -3.73848 5.52986 0
M  V30 2087 H 193.054 -0.673444 0.309119 0
M  V30 2088 H 195.701 -1.32824 1.37949 0
M  V30 2089 H 194.006 -3.85091 0.721949 0
M  V30 2090 H 195.703 -3.85236 1.11329 0
M  V30 2091 H 192.293 -3.48249 2.49842 0
M  V30 2092 H 196.477 -3.54107 3.47738 0
M  V30 2093 H 191.733 -3.67804 4.88396 0
M  V30 2094 H 195.907 -3.74904 5.86873 0
M  V30 2095 H 193.534 -3.81333 6.57639 0
M  V30 2096 N 195.109 -0.891671 -1.2995 0
M  V30 2097 C 196.056 -0.361736 -2.27948 0
M  V30 2098 C 197.026 0.551761 -1.56668 0
M  V30 2099 O 198.211 0.478736 -1.84696 0
M  V30 2100 C 195.351 0.411825 -3.42634 0
M  V30 2101 C 194.464 -0.531651 -4.28716 0
M  V30 2102 C 193.599 0.258167 -5.30572 0
M  V30 2103 C 192.638 -0.680349 -6.08307 0
M  V30 2104 N 191.775 0.0745613 -7.0206 0
M  V30 2105 H 196.615 -1.20254 -2.72659 0
M  V30 2106 H 194.152 -0.604352 -1.34112 0
M  V30 2107 H 196.11 0.876304 -4.07893 0
M  V30 2108 H 194.74 1.21715 -2.98974 0
M  V30 2109 H 193.792 -1.11463 -3.63703 0
M  V30 2110 H 195.104 -1.25038 -4.82874 0
M  V30 2111 H 194.258 0.784204 -6.0161 0
M  V30 2112 H 192.997 1.01008 -4.77126 0
M  V30 2113 H 192.002 -1.21796 -5.3614 0
M  V30 2114 H 193.227 -1.43145 -6.63842 0
M  V30 2115 H 191.173 0.808883 -6.50994 0
M  V30 2116 H 191.09 -0.584409 -7.53738 0
M  V30 2117 H 192.358 0.581123 -7.77331 0
M  V30 2118 N 196.587 1.43421 -0.653314 0
M  V30 2119 C 197.517 2.33487 0.0246656 0
M  V30 2120 C 198.498 1.49475 0.811863 0
M  V30 2121 O 199.683 1.78139 0.773322 0
M  V30 2122 C 196.813 3.32841 0.99166 0
M  V30 2123 C 195.767 4.26842 0.314568 0
M  V30 2124 C 195.093 5.16236 1.39302 0
M  V30 2125 C 196.393 5.16243 -0.793095 0
M  V30 2126 H 198.087 2.90427 -0.727481 0
M  V30 2127 H 195.633 1.39649 -0.351287 0
M  V30 2128 H 197.586 3.94747 1.47487 0
M  V30 2129 H 196.31 2.74158 1.77497 0
M  V30 2130 H 194.969 3.663 -0.148199 0
M  V30 2131 H 194.617 4.53891 2.16776 0
M  V30 2132 H 194.317 5.79948 0.945223 0
M  V30 2133 H 195.841 5.81015 1.87759 0
M  V30 2134 H 197.255 5.71958 -0.392039 0
M  V30 2135 H 195.652 5.88676 -1.16536 0
M  V30 2136 H 196.722 4.55927 -1.65103 0
M  V30 2137 N 198.065 0.39524 1.52563 0
M  V30 2138 C 199.028 -0.425001 2.25225 0
M  V30 2139 C 200.028 -0.985266 1.27079 0
M  V30 2140 O 201.218 -0.866332 1.5113 0
M  V30 2141 C 198.35 -1.59686 3.01186 0
M  V30 2142 H 199.543 0.211233 2.99155 0
M  V30 2143 H 197.096 0.147472 1.55603 0
M  V30 2144 H 197.831 -2.27035 2.31572 0
M  V30 2145 H 197.616 -1.20176 3.73229 0
M  V30 2146 H 199.106 -2.17743 3.5634 0
M  V30 2147 N 199.544 -1.57102 0.125237 0
M  V30 2148 C 200.792 -1.95021 -0.530198 0
M  V30 2149 C 201.113 -1.00982 -1.66816 0
M  V30 2150 O 200.383 -0.0672693 -1.95784 0
M  V30 2151 H 198.963 -0.720046 -0.198853 0
M  V30 2152 H 201.625 -1.93916 0.19564 0
M  V30 2153 H 200.721 -2.98211 -0.920681 0
M  V30 2154 N 201.022 0.148545 -1.56898 0
M  V30 2155 C 201.932 1.20293 -2.01412 0
M  V30 2156 C 202.948 1.47107 -0.929273 0
M  V30 2157 O 204.124 1.58807 -1.23863 0
M  V30 2158 C 201.189 2.51682 -2.38447 0
M  V30 2159 C 200.25 2.32529 -3.60872 0
M  V30 2160 C 199.483 3.57653 -3.96132 0
M  V30 2161 O 199.706 4.63771 -3.32073 0
M  V30 2162 O 198.64 3.50408 -4.89385 0
M  V30 2163 H 202.466 0.855025 -2.91416 0
M  V30 2164 H 200.051 0.357151 -1.45068 0
M  V30 2165 H 201.933 3.29147 -2.63135 0
M  V30 2166 H 200.608 2.86006 -1.51599 0
M  V30 2167 H 199.515 1.53019 -3.41373 0
M  V30 2168 H 200.848 2.03121 -4.48333 0
M  V30 2169 N 202.5 1.5196 0.417844 0
M  V30 2170 C 203.725 1.69717 1.1921 0
M  V30 2171 C 204.15 0.402148 1.83751 0
M  V30 2172 O 203.508 -0.639593 1.69643 0
M  V30 2173 C 203.556 2.82794 2.2374 0
M  V30 2174 O 202.66 2.47756 3.29683 0
M  V30 2175 H 202.001 0.565263 0.348387 0
M  V30 2176 H 204.531 1.98621 0.490985 0
M  V30 2177 H 204.541 3.07452 2.68212 0
M  V30 2178 H 203.216 3.76756 1.76146 0
M  V30 2179 H 201.793 2.33739 2.90552 0
M  V30 2180 N 203.978 -0.674533 1.42435 0
M  V30 2181 C 205.208 -1.46071 1.46105 0
M  V30 2182 C 205.616 -1.89067 0.0709605 0
M  V30 2183 O 204.959 -1.58731 -0.924677 0
M  V30 2184 C 205.021 -2.74145 2.32561 0
M  V30 2185 C 204.685 -2.53224 3.8043 0
M  V30 2186 C 205.682 -2.17809 4.72075 0
M  V30 2187 C 203.367 -2.6821 4.24698 0
M  V30 2188 C 205.361 -1.97648 6.05982 0
M  V30 2189 C 203.048 -2.47665 5.58664 0
M  V30 2190 C 204.046 -2.12437 6.49122 0
M  V30 2191 O 203.734 -1.9209 7.80613 0
M  V30 2192 H 203.466 -0.455959 0.499076 0
M  V30 2193 H 206.02 -0.836193 1.87609 0
M  V30 2194 H 204.25 -3.3908 1.85908 0
M  V30 2195 H 205.939 -3.36028 2.27683 0
M  V30 2196 H 206.705 -2.05826 4.39159 0
M  V30 2197 H 202.584 -2.94609 3.54579 0
M  V30 2198 H 206.128 -1.70075 6.7655 0
M  V30 2199 H 202.025 -2.59244 5.91154 0
M  V30 2200 H 202.793 -2.06686 7.91974 0
M  V30 2201 N 205.456 -1.28612 -0.910864 0
M  V30 2202 C 206.403 -1.12786 -2.01365 0
M  V30 2203 C 207.373 -0.024201 -1.66082 0
M  V30 2204 O 208.558 -0.189667 -1.89855 0
M  V30 2205 C 205.698 -0.798743 -3.35729 0
M  V30 2206 C 204.811 -1.98173 -3.83864 0
M  V30 2207 C 203.946 -1.59298 -5.06752 0
M  V30 2208 C 202.985 -2.74245 -5.47226 0
M  V30 2209 N 202.122 -2.35842 -6.61304 0
M  V30 2210 H 206.962 -2.07142 -2.14234 0
M  V30 2211 H 204.499 -1.03093 -1.0493 0
M  V30 2212 H 206.457 -0.588662 -4.13026 0
M  V30 2213 H 205.087 0.10789 -3.2262 0
M  V30 2214 H 204.139 -2.30386 -3.02699 0
M  V30 2215 H 205.451 -2.84343 -4.09818 0
M  V30 2216 H 204.605 -1.34513 -5.916 0
M  V30 2217 H 203.344 -0.702618 -4.82612 0
M  V30 2218 H 202.349 -2.99725 -4.60918 0
M  V30 2219 H 203.574 -3.63928 -5.73353 0
M  V30 2220 H 201.52 -1.49279 -6.38789 0
M  V30 2221 H 201.437 -3.15546 -6.86998 0
M  V30 2222 H 202.705 -2.14348 -7.4945 0
M  V30 2223 N 206.934 1.1197 -1.10907 0
M  V30 2224 C 207.882 2.19927 -0.757303 0
M  V30 2225 C 208.876 1.67564 0.248747 0
M  V30 2226 O 210.082 1.79672 0.108605 0
M  V30 2227 H 206.457 0.716925 -0.226987 0
M  V30 2228 H 208.428 2.46847 -1.67658 0
M  V30 2229 C 207.177 3.47061 -0.210671 0
M  V30 2230 H 206.5 3.87703 -0.976049 0
M  V30 2231 H 207.94 4.24 -0.0026584 0
M  V30 2232 C 206.399 3.19864 1.05777 0
M  V30 2233 O 206.929 3.40049 2.13845 0
M  V30 2234 N 205.135 2.73636 0.978349 0
M  V30 2235 H 204.682 2.5741 0.0988246 0
M  V30 2236 H 204.64 2.55815 1.82773 0
M  V30 2237 N 208.412 0.89855 1.29475 0
M  V30 2238 C 209.359 0.373819 2.27753 0
M  V30 2239 C 210.329 -0.543444 1.56958 0
M  V30 2240 O 211.514 -0.468934 1.84948 0
M  V30 2241 C 208.654 -0.393648 3.42848 0
M  V30 2242 C 207.767 0.554379 4.28428 0
M  V30 2243 C 206.902 -0.230026 5.30702 0
M  V30 2244 C 205.941 0.712599 6.07938 0
M  V30 2245 N 205.078 -0.0373283 7.0209 0
M  V30 2246 H 209.918 1.21699 2.72017 0
M  V30 2247 H 207.455 0.611456 1.33789 0
M  V30 2248 H 209.413 -0.85466 4.08352 0
M  V30 2249 H 208.043 -1.20128 2.99615 0
M  V30 2250 H 207.095 1.13391 3.63107 0
M  V30 2251 H 208.407 1.27597 4.82204 0
M  V30 2252 H 207.561 -0.752288 6.02018 0
M  V30 2253 H 206.3 -0.984758 4.77654 0
M  V30 2254 H 205.305 1.24637 5.35486 0
M  V30 2255 H 206.53 1.46664 6.63074 0
M  V30 2256 H 204.476 -0.774348 6.51414 0
M  V30 2257 H 204.393 0.624374 7.53417 0
M  V30 2258 H 205.661 -0.539891 7.77628 0
M  V30 2259 N 209.89 -1.43072 0.660911 0
M  V30 2260 C 211.167 -1.95307 0.107017 0
M  V30 2261 C 211.547 -1.60192 -1.37484 0
M  V30 2262 O 210.895 -0.890949 -2.10415 0
M  V30 2263 C 211.105 -3.47124 0.361402 0
M  V30 2264 C 212.453 -4.23738 0.270455 0
M  V30 2265 O 213.477 -3.54981 0.294382 0
M  V30 2266 O 212.336 -5.46131 0.200737 0
M  V30 2267 H 209.43 -0.826984 -0.00517729 0
M  V30 2268 H 211.976 -1.52972 0.734681 0
M  V30 2269 H 210.748 -3.65837 1.38848 0
M  V30 2270 H 210.371 -3.96475 -0.298953 0
M  V30 2271 N 211.368 -0.403325 -1.52352 0
M  V30 2272 C 212.301 0.469463 -2.23319 0
M  V30 2273 C 213.279 1.05272 -1.23922 0
M  V30 2274 O 214.463 1.10169 -1.52954 0
M  V30 2275 C 211.59 1.6511 -2.9573 0
M  V30 2276 C 210.636 1.19178 -4.0951 0
M  V30 2277 S 211.469 0.161718 -5.35256 0
M  V30 2278 C 212.625 1.34882 -6.11194 0
M  V30 2279 H 212.858 -0.133134 -2.97002 0
M  V30 2280 H 210.391 -0.187588 -1.53256 0
M  V30 2281 H 212.349 2.3287 -3.38056 0
M  V30 2282 H 211.01 2.22503 -2.21701 0
M  V30 2283 H 210.203 2.07444 -4.59329 0
M  V30 2284 H 209.805 0.592911 -3.6927 0
M  V30 2285 H 212.097 2.27345 -6.38217 0
M  V30 2286 H 213.04 0.89128 -7.02468 0
M  V30 2287 H 213.448 1.57198 -5.42171 0
M  V30 2288 N 212.846 1.57033 -0.133567 0
M  V30 2289 C 213.793 2.16074 0.811208 0
M  V30 2290 C 214.763 1.08979 1.2535 0
M  V30 2291 O 215.948 1.36958 1.32843 0
M  V30 2292 C 213.088 2.77595 2.05024 0
M  V30 2293 C 212.201 3.99042 1.65498 0
M  V30 2294 C 211.336 4.48603 2.84479 0
M  V30 2295 C 210.375 5.62547 2.41262 0
M  V30 2296 N 209.512 6.06787 3.53206 0
M  V30 2297 H 214.352 2.96477 0.300906 0
M  V30 2298 H 211.889 1.46462 0.136822 0
M  V30 2299 H 213.847 3.11402 2.77642 0
M  V30 2300 H 212.477 1.99859 2.53488 0
M  V30 2301 H 211.529 3.71302 0.826981 0
M  V30 2302 H 212.841 4.81629 1.29748 0
M  V30 2303 H 211.995 4.84395 3.65303 0
M  V30 2304 H 210.734 3.64995 3.23465 0
M  V30 2305 H 209.739 5.26345 1.58874 0
M  V30 2306 H 210.964 6.47931 2.03377 0
M  V30 2307 H 208.91 5.26117 3.91838 0
M  V30 2308 H 208.827 6.84266 3.21427 0
M  V30 2309 H 210.095 6.4722 4.34427 0
M  V30 2310 N 214.325 -0.140222 1.56975 0
M  V30 2311 C 215.257 -1.19818 1.95388 0
M  V30 2312 C 216.27 -1.38816 0.850525 0
M  V30 2313 O 217.459 -1.38267 1.12891 0
M  V30 2314 C 214.559 -2.56189 2.21857 0
M  V30 2315 C 213.732 -2.58077 3.5315 0
M  V30 2316 C 212.791 -3.76037 3.6808 0
M  V30 2317 O 211.817 -3.60598 4.40406 0
M  V30 2318 N 213.019 -4.93763 3.05251 0
M  V30 2319 H 215.784 -0.871609 2.86746 0
M  V30 2320 H 213.345 -0.32972 1.58507 0
M  V30 2321 H 215.337 -3.33623 2.2908 0
M  V30 2322 H 213.907 -2.81111 1.36731 0
M  V30 2323 H 213.127 -1.6651 3.57307 0
M  V30 2324 H 214.415 -2.56377 4.39486 0
M  V30 2325 H 213.813 -5.09209 2.46419 0
M  V30 2326 H 212.37 -5.68949 3.18026 0
M  V30 2327 N 215.803 -1.52179 -0.40978 0
M  V30 2328 C 216.766 -1.74853 -1.48186 0
M  V30 2329 C 217.766 -0.618417 -1.48433 0
M  V30 2330 O 218.956 -0.886286 -1.49969 0
M  V30 2331 C 216.088 -1.8303 -2.87598 0
M  V30 2332 H 217.281 -2.70559 -1.29374 0
M  V30 2333 H 214.834 -1.42586 -0.640233 0
M  V30 2334 H 215.569 -0.89236 -3.11781 0
M  V30 2335 H 215.354 -2.65187 -2.88822 0
M  V30 2336 H 216.844 -2.02316 -3.65319 0
M  V30 2337 N 217.281 0.66697 -1.42791 0
M  V30 2338 C 218.528 1.42699 -1.43678 0
M  V30 2339 C 218.856 1.94419 -0.0560425 0
M  V30 2340 O 218.111 1.7182 0.936831 0
M  V30 2341 C 218.41 2.6349 -2.4147 0
M  V30 2342 C 218.076 2.30267 -3.8767 0
M  V30 2343 C 216.738 2.20918 -4.27491 0
M  V30 2344 C 219.09 2.03435 -4.79858 0
M  V30 2345 C 216.418 1.82873 -5.57471 0
M  V30 2346 C 218.77 1.66892 -6.10188 0
M  V30 2347 C 217.434 1.56058 -6.49001 0
M  V30 2348 H 216.704 0.522171 -0.525755 0
M  V30 2349 H 219.351 0.759785 -1.75783 0
M  V30 2350 H 217.656 3.35279 -2.0272 0
M  V30 2351 H 219.353 3.21684 -2.39417 0
M  V30 2352 H 215.943 2.38449 -3.56146 0
M  V30 2353 H 220.127 2.09586 -4.49875 0
M  V30 2354 H 215.383 1.7306 -5.86396 0
M  V30 2355 H 219.557 1.45157 -6.81104 0
M  V30 2356 H 217.184 1.26348 -7.49627 0
M  V30 2357 N 218.759 1.29093 0.90403 0
M  V30 2358 C 220.006 1.16813 1.65411 0
M  V30 2359 C 220.334 -0.28128 1.92455 0
M  V30 2360 O 219.589 -1.22006 1.53013 0
M  V30 2361 C 219.888 1.92224 3.01305 0
M  V30 2362 C 219.554 3.41968 2.93885 0
M  V30 2363 C 218.216 3.82807 2.91569 0
M  V30 2364 C 220.568 4.37409 2.83413 0
M  V30 2365 C 217.896 5.1741 2.76594 0
M  V30 2366 C 220.248 5.72097 2.69977 0
M  V30 2367 C 218.912 6.12199 2.66024 0
M  V30 2368 H 218.182 0.42745 0.605283 0
M  V30 2369 H 220.829 1.59981 1.05254 0
M  V30 2370 H 219.134 1.41635 3.65304 0
M  V30 2371 H 220.831 1.80131 3.58265 0
M  V30 2372 H 217.421 3.09504 2.96488 0
M  V30 2373 H 221.605 4.06813 2.84283 0
M  V30 2374 H 216.861 5.47596 2.71935 0
M  V30 2375 H 221.035 6.45704 2.60844 0
M  V30 2376 H 218.662 7.16448 2.54178 0
M  V30 2377 N 220.237 -1.11381 1.11499 0
M  V30 2378 C 221.467 -1.86663 0.885464 0
M  V30 2379 C 221.875 -1.80464 -0.568281 0
M  V30 2380 O 221.218 -1.18445 -1.40415 0
M  V30 2381 C 221.28 -3.36337 1.26956 0
M  V30 2382 C 220.944 -3.66304 2.73259 0
M  V30 2383 C 221.941 -3.63733 3.71476 0
M  V30 2384 C 219.626 -3.9529 3.09921 0
M  V30 2385 C 221.62 -3.89725 5.04374 0
M  V30 2386 C 219.307 -4.20941 4.43004 0
M  V30 2387 C 220.305 -4.18147 5.40039 0
M  V30 2388 O 219.993 -4.43153 6.70724 0
M  V30 2389 H 219.725 -0.597114 0.316908 0
M  V30 2390 H 222.279 -1.41782 1.48617 0
M  V30 2391 H 220.509 -3.81826 0.611999 0
M  V30 2392 H 222.198 -3.92986 1.01573 0
M  V30 2393 H 222.964 -3.41389 3.44498 0
M  V30 2394 H 218.843 -3.966 2.35009 0
M  V30 2395 H 222.387 -3.8746 5.80104 0
M  V30 2396 H 218.284 -4.42761 4.69716 0
M  V30 2397 H 219.052 -4.60717 6.76522 0
M  V30 2398 N 221.715 -0.905404 -1.28997 0
M  V30 2399 C 222.645 -0.404212 -2.29975 0
M  V30 2400 C 223.626 0.523784 -1.61835 0
M  V30 2401 O 224.811 0.433298 -1.89304 0
M  V30 2402 C 221.941 0.364042 -3.45387 0
M  V30 2403 C 220.895 -0.474048 -4.25367 0
M  V30 2404 C 220.221 0.422045 -5.33032 0
M  V30 2405 C 221.521 -1.72696 -4.92923 0
M  V30 2406 H 223.215 -1.24807 -2.72146 0
M  V30 2407 H 220.761 -0.601585 -1.30832 0
M  V30 2408 H 222.714 0.725447 -4.15109 0
M  V30 2409 H 221.438 1.24174 -3.02074 0
M  V30 2410 H 220.097 -0.81786 -3.57361 0
M  V30 2411 H 219.745 1.29804 -4.85963 0
M  V30 2412 H 219.445 -0.135057 -5.87445 0
M  V30 2413 H 220.969 0.779517 -6.05604 0
M  V30 2414 H 222.383 -1.43495 -5.55051 0
M  V30 2415 H 220.78 -2.22582 -5.57295 0
M  V30 2416 H 221.85 -2.45964 -4.17887 0
M  V30 2417 N 223.193 1.4272 -0.668489 0
M  V30 2418 C 224.441 2.01226 -0.187769 0
M  V30 2419 C 224.762 1.53092 1.2078 0
M  V30 2420 O 224.032 0.74993 1.80977 0
M  V30 2421 H 222.612 0.744041 -0.0664272 0
M  V30 2422 H 225.274 1.74723 -0.863583 0
M  V30 2423 H 224.37 3.11556 -0.184166 0
M  V30 2424 N 224.671 0.411399 1.52136 0
M  V30 2425 C 225.601 -0.404015 2.29978 0
M  V30 2426 C 226.582 -1.04412 1.34284 0
M  V30 2427 O 227.767 -1.0527 1.63192 0
M  V30 2428 C 224.897 -1.5197 3.12286 0
M  V30 2429 C 223.851 -1.00448 4.16046 0
M  V30 2430 C 223.177 -2.21393 4.86712 0
M  V30 2431 C 224.477 -0.0569336 5.22269 0
M  V30 2432 H 226.171 0.245529 2.98392 0
M  V30 2433 H 223.717 0.119525 1.43503 0
M  V30 2434 H 225.67 -2.09715 3.6551 0
M  V30 2435 H 224.394 -2.19716 2.41646 0
M  V30 2436 H 223.053 -0.449421 3.63835 0
M  V30 2437 H 222.701 -2.87699 4.12599 0
M  V30 2438 H 222.401 -1.87571 5.56858 0
M  V30 2439 H 223.925 -2.7974 5.4275 0
M  V30 2440 H 225.339 -0.54325 5.7072 0
M  V30 2441 H 223.736 0.192594 5.99791 0
M  V30 2442 H 224.806 0.887663 4.76706 0
M  V30 2443 N 226.149 -1.5696 0.141893 0
M  V30 2444 C 227.374 -2.00754 -0.520838 0
M  V30 2445 C 227.799 -1.0213 -1.57959 0
M  V30 2446 O 227.157 0.00371324 -1.813 0
M  V30 2447 C 227.205 -3.43318 -1.10294 0
M  V30 2448 O 226.309 -3.47679 -2.21795 0
M  V30 2449 H 225.65 -0.651564 -0.127908 0
M  V30 2450 H 228.18 -2.03221 0.23712 0
M  V30 2451 H 228.19 -3.82012 -1.43287 0
M  V30 2452 H 226.865 -4.14608 -0.327574 0
M  V30 2453 H 225.442 -3.20824 -1.9007 0
M  V30 2454 N 227.627 0.131896 -1.57047 0
M  V30 2455 C 228.557 1.16384 -2.02428 0
M  V30 2456 C 229.538 1.43936 -0.90644 0
M  V30 2457 O 230.723 1.54599 -1.17528 0
M  V30 2458 C 227.853 2.49328 -2.4177 0
M  V30 2459 C 226.807 2.36266 -3.56879 0
M  V30 2460 C 226.133 3.74057 -3.8208 0
M  V30 2461 C 227.433 1.834 -4.89042 0
M  V30 2462 H 229.127 0.786433 -2.88887 0
M  V30 2463 H 226.673 0.376855 -1.38981 0
M  V30 2464 H 228.626 3.21759 -2.7212 0
M  V30 2465 H 227.35 2.88934 -1.52266 0
M  V30 2466 H 226.009 1.66286 -3.26718 0
M  V30 2467 H 225.657 4.11125 -2.89803 0
M  V30 2468 H 225.357 3.66174 -4.59554 0
M  V30 2469 H 226.881 4.48012 -4.1487 0
M  V30 2470 H 228.295 2.45636 -5.18011 0
M  V30 2471 H 226.692 1.8637 -5.70426 0
M  V30 2472 H 227.762 0.790662 -4.7841 0
M  V30 2473 N 229.106 1.52395 0.401703 0
M  V30 2474 C 230.056 1.72649 1.48917 0
M  V30 2475 C 231.04 0.580436 1.50066 0
M  V30 2476 O 232.232 0.83779 1.55917 0
M  V30 2477 C 229.361 1.88729 2.86769 0
M  V30 2478 C 228.447 3.09228 2.90239 0
M  V30 2479 N 228.838 4.31805 2.63396 0
M  V30 2480 C 227.136 3.09214 3.21408 0
M  V30 2481 C 227.837 5.13326 2.73625 0
M  V30 2482 N 226.813 4.48735 3.06819 0
M  V30 2483 H 230.615 2.65058 1.26971 0
M  V30 2484 H 228.129 1.50528 0.609504 0
M  V30 2485 H 230.126 2.01358 3.65049 0
M  V30 2486 H 228.786 0.975252 3.09708 0
M  V30 2487 H 229.797 4.60154 2.37653 0
M  V30 2488 H 226.474 2.27774 3.49893 0
M  V30 2489 H 227.864 6.21003 2.56524 0
M  V30 2490 N 230.584 -0.659388 1.43143 0
M  V30 2491 C 231.814 -1.44513 1.47646 0
M  V30 2492 C 232.222 -1.88981 0.0910095 0
M  V30 2493 O 231.565 -1.59702 -0.907789 0
M  V30 2494 C 231.627 -2.71663 2.35456 0
M  V30 2495 C 231.291 -2.49175 3.83094 0
M  V30 2496 C 232.288 -2.1279 4.74359 0
M  V30 2497 C 229.973 -2.63691 4.27519 0
M  V30 2498 C 231.967 -1.9121 6.08044 0
M  V30 2499 C 229.654 -2.41726 5.61259 0
M  V30 2500 C 230.652 -2.0554 6.51339 0
M  V30 2501 O 230.34 -1.838 7.82606 0
M  V30 2502 H 230.072 -0.45064 0.503884 0
M  V30 2503 H 232.626 -0.816248 1.88485 0
M  V30 2504 H 230.856 -3.37089 1.89493 0
M  V30 2505 H 232.545 -3.33595 2.31235 0
M  V30 2506 H 233.311 -2.01157 4.41317 0
M  V30 2507 H 229.19 -2.90832 3.57684 0
M  V30 2508 H 232.734 -1.62889 6.78316 0
M  V30 2509 H 228.631 -2.52959 5.9387 0
M  V30 2510 H 229.399 -1.98275 7.94122 0
M  V30 2511 N 232.062 -1.29571 -0.897171 0
M  V30 2512 C 232.992 -1.17473 -2.01798 0
M  V30 2513 C 233.973 -0.068323 -1.69963 0
M  V30 2514 O 235.158 -0.248239 -1.92607 0
M  V30 2515 C 232.288 -0.853099 -3.36659 0
M  V30 2516 C 231.242 -1.9161 -3.82713 0
M  V30 2517 C 230.568 -1.44773 -5.14728 0
M  V30 2518 C 231.868 -3.32535 -4.02763 0
M  V30 2519 H 233.562 -2.11237 -2.12177 0
M  V30 2520 H 231.108 -1.01699 -1.01948 0
M  V30 2521 H 233.061 -0.755165 -4.14578 0
M  V30 2522 H 231.785 0.120236 -3.26379 0
M  V30 2523 H 230.444 -2.00346 -3.07013 0
M  V30 2524 H 230.092 -0.462995 -5.00865 0
M  V30 2525 H 229.792 -2.15865 -5.46513 0
M  V30 2526 H 231.316 -1.36334 -5.95185 0
M  V30 2527 H 232.73 -3.26626 -4.71156 0
M  V30 2528 H 231.127 -4.01607 -4.45905 0
M  V30 2529 H 232.197 -3.75326 -3.07016 0
M  V30 2530 N 233.54 1.10788 -1.12088 0
M  V30 2531 C 234.788 1.8231 -0.872205 0
M  V30 2532 C 235.109 1.85419 0.603709 0
M  V30 2533 O 234.379 1.32963 1.43867 0
M  V30 2534 H 232.959 0.675137 -0.319686 0
M  V30 2535 H 235.621 1.34068 -1.41463 0
M  V30 2536 H 234.717 2.85955 -1.25045 0
M  V30 2537 N 235.018 0.912232 1.28515 0
M  V30 2538 C 236.295 0.463597 1.90027 0
M  V30 2539 C 236.675 -1.05753 1.82701 0
M  V30 2540 O 236.023 -1.90492 1.26194 0
M  V30 2541 C 236.233 0.992253 3.34597 0
M  V30 2542 C 237.581 1.04344 4.11579 0
M  V30 2543 O 238.605 0.94079 3.43551 0
M  V30 2544 O 237.464 1.1995 5.33174 0
M  V30 2545 H 234.558 0.146666 0.813891 0
M  V30 2546 H 237.104 1.00292 1.36893 0
M  V30 2547 H 235.876 2.03623 3.34146 0
M  V30 2548 H 235.499 0.433672 3.95228 0
M  V30 2549 N 236.496 -1.42363 0.676048 0
M  V30 2550 C 237.742 -2.0182 0.199125 0
M  V30 2551 C 238.075 -1.53339 -1.19168 0
M  V30 2552 O 237.35 -0.736124 -1.80032 0
M  V30 2553 C 237.633 -3.59331 0.235144 0
M  V30 2554 C 237.486 -4.17989 1.66149 0
M  V30 2555 C 238.805 -4.3813 -0.41595 0
M  V30 2556 H 235.924 -0.733293 0.0738311 0
M  V30 2557 H 238.566 -1.69368 0.86107 0
M  V30 2558 H 236.716 -3.87109 -0.328487 0
M  V30 2559 H 238.388 -4.0116 2.27747 0
M  V30 2560 H 236.631 -3.7377 2.20178 0
M  V30 2561 H 237.302 -5.27126 1.63837 0
M  V30 2562 H 239.778 -4.16051 0.0638529 0
M  V30 2563 H 238.654 -5.47717 -0.360115 0
M  V30 2564 H 238.915 -4.16101 -1.49373 0
M  V30 2565 N 237.974 -0.419461 -1.51915 0
M  V30 2566 C 238.922 0.415502 -2.28859 0
M  V30 2567 C 239.916 1.03674 -1.3397 0
M  V30 2568 O 241.122 0.973757 -1.51387 0
M  V30 2569 H 237.497 0.152786 -0.736315 0
M  V30 2570 H 239.468 -0.254531 -2.97312 0
M  V30 2571 C 238.217 1.51425 -3.12995 0
M  V30 2572 H 237.54 1.04556 -3.85886 0
M  V30 2573 H 238.98 2.07208 -3.6992 0
M  V30 2574 C 237.439 2.48745 -2.27217 0
M  V30 2575 O 237.969 3.52871 -1.9195 0
M  V30 2576 N 236.175 2.19202 -1.90785 0
M  V30 2577 H 235.722 1.34556 -2.19664 0
M  V30 2578 H 235.68 2.84561 -1.33687 0
M  V30 2579 N 239.452 1.56882 -0.150215 0
M  V30 2580 C 240.384 2.14057 0.819286 0
M  V30 2581 C 241.397 1.09082 1.20851 0
M  V30 2582 O 242.586 1.36347 1.15203 0
M  V30 2583 C 239.686 2.65102 2.11127 0
M  V30 2584 C 238.859 3.94511 1.88891 0
M  V30 2585 C 237.918 4.30834 3.02107 0
M  V30 2586 O 236.944 4.99099 2.73659 0
M  V30 2587 N 238.146 3.90676 4.29363 0
M  V30 2588 H 240.911 2.97871 0.330618 0
M  V30 2589 H 238.472 1.61866 0.0332538 0
M  V30 2590 H 240.464 2.86411 2.85921 0
M  V30 2591 H 239.034 1.85994 2.51247 0
M  V30 2592 H 238.254 3.81795 0.981152 0
M  V30 2593 H 239.542 4.7907 1.71376 0
M  V30 2594 H 238.94 3.35677 4.55343 0
M  V30 2595 H 237.497 4.1703 5.00928 0
M  V30 2596 N 240.93 -0.123565 1.57115 0
M  V30 2597 C 242.341 -0.681198 1.73829 0
M  V30 2598 C 242.692 -1.80535 0.768214 0
M  V30 2599 O 241.817 -2.16317 -0.0599103 0
M  V30 2600 C 242.412 -1.24246 3.15196 0
M  V30 2601 C 240.971 -1.74643 3.33432 0
M  V30 2602 C 240.118 -0.644284 2.69711 0
M  V30 2603 H 243.069 0.102315 1.5837 0
M  V30 2604 H 243.09 -2.11216 3.16493 0
M  V30 2605 H 242.602 -0.424062 3.85776 0
M  V30 2606 H 240.703 -2.58974 2.67886 0
M  V30 2607 H 240.816 -1.85902 4.41562 0
M  V30 2608 H 239.18 -1.07676 2.3082 0
M  V30 2609 H 239.963 0.163058 3.42913 0
M  V30 2610 N 242.408 -1.52605 -0.393616 0
M  V30 2611 C 243.341 -1.71798 -1.50202 0
M  V30 2612 C 244.319 -0.565743 -1.52441 0
M  V30 2613 O 245.503 -0.794987 -1.70916 0
M  V30 2614 C 242.63 -1.7714 -2.88685 0
M  V30 2615 C 241.676 -2.98845 -3.04292 0
M  V30 2616 S 242.509 -4.58909 -2.75976 0
M  V30 2617 C 243.665 -4.6706 -4.1666 0
M  V30 2618 H 243.898 -2.65542 -1.33696 0
M  V30 2619 H 241.431 -1.42839 -0.586195 0
M  V30 2620 H 243.389 -1.80903 -3.68489 0
M  V30 2621 H 242.05 -0.844969 -3.02521 0
M  V30 2622 H 241.243 -2.99111 -4.05646 0
M  V30 2623 H 240.845 -2.9305 -2.32374 0
M  V30 2624 H 243.137 -4.45391 -5.10523 0
M  V30 2625 H 244.08 -5.6905 -4.21412 0
M  V30 2626 H 244.488 -3.95944 -4.02354 0
M  V30 2627 N 243.887 0.651787 -1.4349 0
M  V30 2628 C 244.837 1.75783 -1.45205 0
M  V30 2629 C 245.821 1.57679 -0.320328 0
M  V30 2630 O 247.013 1.67767 -0.564211 0
M  V30 2631 C 244.142 3.14377 -1.3792 0
M  V30 2632 C 243.228 3.38023 -2.56127 0
M  V30 2633 N 243.619 3.32135 -3.81471 0
M  V30 2634 C 241.917 3.68747 -2.50882 0
M  V30 2635 C 242.618 3.55902 -4.60118 0
M  V30 2636 N 241.594 3.77783 -3.90872 0
M  V30 2637 H 245.396 1.69657 -2.39987 0
M  V30 2638 H 242.91 0.853508 -1.38163 0
M  V30 2639 H 244.907 3.93666 -1.37231 0
M  V30 2640 H 243.567 3.21683 -0.441596 0
M  V30 2641 H 244.578 3.11515 -4.13738 0
M  V30 2642 H 241.255 3.8316 -1.65816 0
M  V30 2643 H 242.645 3.57116 -5.69138 0
M  V30 2644 N 245.365 1.30045 0.890287 0
M  V30 2645 C 246.328 1.15963 1.977 0
M  V30 2646 C 247.328 0.0923777 1.60534 0
M  V30 2647 O 248.518 0.340071 1.70848 0
M  V30 2648 C 245.65 0.775451 3.31963 0
M  V30 2649 H 246.843 2.12502 2.11619 0
M  V30 2650 H 244.396 1.13366 1.07601 0
M  V30 2651 H 245.131 -0.189671 3.23745 0
M  V30 2652 H 244.916 1.54668 3.60306 0
M  V30 2653 H 246.406 0.700251 4.11687 0
M  V30 2654 N 246.843 -1.10192 1.12674 0
M  V30 2655 C 247.806 -2.14786 0.799979 0
M  V30 2656 C 248.806 -1.59711 -0.18685 0
M  V30 2657 O 249.996 -1.74156 0.0392558 0
M  V30 2658 C 247.128 -3.40374 0.189228 0
M  V30 2659 H 248.321 -2.45203 1.72671 0
M  V30 2660 H 245.874 -1.25597 0.930326 0
M  V30 2661 H 246.609 -3.15577 -0.747107 0
M  V30 2662 H 246.394 -3.81637 0.899766 0
M  V30 2663 H 247.884 -4.17594 -0.0228143 0
M  V30 2664 N 248.321 -0.919034 -1.28029 0
M  V30 2665 C 249.269 -0.401753 -2.29104 0
M  V30 2666 C 250.263 0.509354 -1.61561 0
M  V30 2667 O 251.469 0.390014 -1.75724 0
M  V30 2668 H 247.844 -0.111331 -0.743713 0
M  V30 2669 H 249.815 -1.2672 -2.70156 0
M  V30 2670 C 248.564 0.338148 -3.46052 0
M  V30 2671 H 247.887 -0.353732 -3.98232 0
M  V30 2672 H 249.327 0.664653 -4.18758 0
M  V30 2673 C 247.786 1.54798 -2.99231 0
M  V30 2674 O 248.316 2.64696 -3.02157 0
M  V30 2675 N 246.522 1.3968 -2.54829 0
M  V30 2676 H 246.069 0.502698 -2.52647 0
M  V30 2677 H 246.027 2.20755 -2.23863 0
M  V30 2678 N 249.799 1.42003 -0.683588 0
M  V30 2679 C 251.046 2.01413 -0.209514 0
M  V30 2680 C 251.374 1.54088 1.1869 0
M  V30 2681 O 250.629 0.737591 1.81268 0
M  V30 2682 C 250.928 3.56827 -0.202357 0
M  V30 2683 C 250.594 4.23617 -1.54464 0
M  V30 2684 C 249.256 4.41577 -1.91215 0
M  V30 2685 C 251.608 4.61178 -2.42826 0
M  V30 2686 C 248.936 4.9437 -3.15935 0
M  V30 2687 C 251.288 5.15355 -3.66867 0
M  V30 2688 C 249.952 5.31528 -4.03776 0
M  V30 2689 H 249.222 0.737023 -0.0766668 0
M  V30 2690 H 251.869 1.70067 -0.880312 0
M  V30 2691 H 250.174 3.87892 0.551969 0
M  V30 2692 H 251.871 4.00588 0.181793 0
M  V30 2693 H 248.461 4.10004 -1.24877 0
M  V30 2694 H 252.645 4.46968 -2.15717 0
M  V30 2695 H 247.901 5.05076 -3.44541 0
M  V30 2696 H 252.075 5.43402 -4.35531 0
M  V30 2697 H 249.702 5.72199 -5.00492 0
M  V30 2698 N 251.277 0.427512 1.51691 0
M  V30 2699 C 252.505 -0.141191 2.06418 0
M  V30 2700 C 252.92 -1.37303 1.29589 0
M  V30 2701 O 252.277 -1.79059 0.352732 0
M  V30 2702 C 252.328 -0.473266 3.58389 0
M  V30 2703 O 252.049 0.709673 4.32314 0
M  V30 2704 C 253.55 -1.09371 4.29596 0
M  V30 2705 H 250.77 -0.0122747 0.670888 0
M  V30 2706 H 253.314 0.603764 1.95384 0
M  V30 2707 H 251.469 -1.16812 3.69369 0
M  V30 2708 H 251.883 0.42807 5.2275 0
M  V30 2709 H 253.357 -1.27613 5.37046 0
M  V30 2710 H 253.834 -2.072 3.87253 0
M  V30 2711 H 254.44 -0.43853 4.23033 0
M  V30 2712 N 252.755 -1.56801 0.158532 0
M  V30 2713 C 253.703 -2.18638 -0.793729 0
M  V30 2714 C 254.697 -1.14669 -1.24689 0
M  V30 2715 O 255.903 -1.32895 -1.21403 0
M  V30 2716 H 252.278 -0.700226 -0.274204 0
M  V30 2717 H 254.249 -2.97367 -0.248095 0
M  V30 2718 C 252.998 -2.83139 -2.0181 0
M  V30 2719 H 252.321 -3.62863 -1.67841 0
M  V30 2720 H 253.761 -3.29894 -2.66357 0
M  V30 2721 C 252.22 -1.82244 -2.83353 0
M  V30 2722 O 252.75 -1.3 -3.80083 0
M  V30 2723 N 250.956 -1.51288 -2.48114 0
M  V30 2724 H 250.503 -1.93964 -1.69516 0
M  V30 2725 H 250.461 -0.840296 -3.02963 0
M  V30 2726 N 254.233 0.115231 -1.57178 0
M  V30 2727 C 255.163 1.1423 -2.03651 0
M  V30 2728 C 256.144 1.42967 -0.921655 0
M  V30 2729 O 257.329 1.53343 -1.19162 0
M  V30 2730 C 254.459 2.4675 -2.44401 0
M  V30 2731 C 253.413 2.32467 -3.59365 0
M  V30 2732 C 252.739 3.69984 -3.86026 0
M  V30 2733 C 254.039 1.78203 -4.90959 0
M  V30 2734 H 255.733 0.755749 -2.89705 0
M  V30 2735 H 253.279 0.362093 -1.39373 0
M  V30 2736 H 255.232 3.18854 -2.75517 0
M  V30 2737 H 253.956 2.87302 -1.55322 0
M  V30 2738 H 252.615 1.62811 -3.28463 0
M  V30 2739 H 252.263 4.08028 -2.94147 0
M  V30 2740 H 251.963 3.61279 -4.63412 0
M  V30 2741 H 253.487 4.43587 -4.19599 0
M  V30 2742 H 254.901 2.40128 -5.20587 0
M  V30 2743 H 253.298 1.8031 -5.72371 0
M  V30 2744 H 254.368 0.739876 -4.79222 0
M  V30 2745 N 255.711 1.52812 0.385517 0
M  V30 2746 C 256.936 1.72207 1.15583 0
M  V30 2747 C 257.361 0.441034 1.82857 0
M  V30 2748 O 256.719 -0.603465 1.70962 0
M  V30 2749 C 256.767 2.87476 2.17692 0
M  V30 2750 O 255.871 2.54693 3.24354 0
M  V30 2751 H 255.212 0.572526 0.336319 0
M  V30 2752 H 257.742 1.99618 0.448744 0
M  V30 2753 H 257.752 3.13072 2.6163 0
M  V30 2754 H 256.427 3.80408 1.68115 0
M  V30 2755 H 255.004 2.3985 2.85529 0
M  V30 2756 N 257.189 -0.644168 1.43834 0
M  V30 2757 C 258.419 -1.42939 1.49171 0
M  V30 2758 C 258.827 -1.88874 0.111048 0
M  V30 2759 O 258.17 -1.60656 -0.8908 0
M  V30 2760 C 258.232 -2.69151 2.38324 0
M  V30 2761 C 257.896 -2.45097 3.85715 0
M  V30 2762 C 258.893 -2.07747 4.76589 0
M  V30 2763 C 256.578 -2.59141 4.30292 0
M  V30 2764 C 258.572 -1.8475 6.10038 0
M  V30 2765 C 256.259 -2.35759 5.63792 0
M  V30 2766 C 257.257 -1.9862 6.53482 0
M  V30 2767 O 256.945 -1.75489 7.84512 0
M  V30 2768 H 256.677 -0.445271 0.508635 0
M  V30 2769 H 259.231 -0.79621 1.8934 0
M  V30 2770 H 257.461 -3.3506 1.93058 0
M  V30 2771 H 259.15 -3.31123 2.3476 0
M  V30 2772 H 259.916 -1.96465 4.43426 0
M  V30 2773 H 255.795 -2.87022 3.60749 0
M  V30 2774 H 259.339 -1.55686 6.80006 0
M  V30 2775 H 255.236 -2.46646 5.9652 0
M  V30 2776 H 256.004 -1.89841 7.9618 0
M  V30 2777 N 258.668 -1.30515 -0.883378 0
M  V30 2778 C 260.079 -1.17509 -1.45081 0
M  V30 2779 C 260.43 0.223605 -1.94922 0
M  V30 2780 O 259.555 1.12041 -1.85137 0
M  V30 2781 C 260.15 -2.12715 -2.63701 0
M  V30 2782 C 258.709 -2.03682 -3.16529 0
M  V30 2783 C 257.856 -2.02706 -1.89224 0
M  V30 2784 H 260.807 -1.42762 -0.693165 0
M  V30 2785 H 260.828 -1.70891 -3.39965 0
M  V30 2786 H 260.34 -3.14505 -2.27395 0
M  V30 2787 H 258.441 -1.05039 -3.57488 0
M  V30 2788 H 258.554 -2.92146 -3.7972 0
M  V30 2789 H 256.918 -1.4753 -2.07622 0
M  V30 2790 H 257.701 -3.06229 -1.55174 0
M  V30 2791 N 260.146 1.09593 -1.13257 0
M  V30 2792 C 261.078 2.16015 -0.766167 0
M  V30 2793 C 262.091 1.61423 0.211303 0
M  V30 2794 O 263.28 1.78498 -0.00863946 0
M  V30 2795 C 260.38 3.38706 -0.114662 0
M  V30 2796 C 259.553 4.22717 -1.12379 0
M  V30 2797 C 258.612 5.23835 -0.498301 0
M  V30 2798 O 257.638 5.573 -1.15781 0
M  V30 2799 N 258.84 5.75886 0.730417 0
M  V30 2800 H 261.605 2.48055 -1.68193 0
M  V30 2801 H 259.166 1.25292 -1.02535 0
M  V30 2802 H 261.158 4.03464 0.315991 0
M  V30 2803 H 259.728 3.04569 0.704011 0
M  V30 2804 H 258.948 3.54122 -1.73179 0
M  V30 2805 H 260.236 4.75673 -1.80589 0
M  V30 2806 H 259.634 5.50911 1.28504 0
M  V30 2807 H 258.191 6.42387 1.10376 0
M  V30 2808 N 261.624 0.925811 1.2754 0
M  V30 2809 C 262.872 0.564138 1.94067 0
M  V30 2810 C 263.193 -0.897188 1.73134 0
M  V30 2811 O 262.463 -1.63573 1.07799 0
M  V30 2812 H 261.043 0.205645 0.718136 0
M  V30 2813 H 263.705 1.1778 1.55287 0
M  V30 2814 H 262.801 0.76881 3.02483 0
M  V30 2815 N 263.102 -1.41638 0.69111 0
M  V30 2816 C 264.349 -2.01299 0.220193 0
M  V30 2817 C 264.677 -1.54715 -1.17871 0
M  V30 2818 O 263.932 -0.747193 -1.80874 0
M  V30 2819 C 264.231 -3.56714 0.221277 0
M  V30 2820 C 263.897 -4.22792 1.56709 0
M  V30 2821 C 262.559 -4.40557 1.93554 0
M  V30 2822 C 264.911 -4.59883 2.45268 0
M  V30 2823 C 262.239 -4.92688 3.18552 0
M  V30 2824 C 264.591 -5.13403 3.69595 0
M  V30 2825 C 263.255 -5.29379 4.06589 0
M  V30 2826 H 262.525 -0.736606 0.0805743 0
M  V30 2827 H 265.172 -1.69598 0.889319 0
M  V30 2828 H 263.477 -3.8818 -0.531391 0
M  V30 2829 H 265.174 -4.00678 -0.160547 0
M  V30 2830 H 261.764 -4.09336 1.2705 0
M  V30 2831 H 265.948 -4.45817 2.18084 0
M  V30 2832 H 261.204 -5.03242 3.47214 0
M  V30 2833 H 265.378 -5.41084 4.38407 0
M  V30 2834 H 263.005 -5.69537 5.03519 0
M  V30 2835 N 264.58 -0.43555 -1.51462 0
M  V30 2836 C 265.53 0.394701 -2.24558 0
M  V30 2837 C 266.514 0.99157 -1.26715 0
M  V30 2838 O 267.706 0.910007 -1.51815 0
M  V30 2839 C 264.835 1.4963 -3.08975 0
M  V30 2840 C 263.921 0.908912 -4.14246 0
M  V30 2841 N 264.312 0.0505335 -5.05775 0
M  V30 2842 C 262.61 1.17668 -4.30198 0
M  V30 2843 C 263.311 -0.279161 -5.8103 0
M  V30 2844 N 262.287 0.336767 -5.42556 0
M  V30 2845 H 266.089 -0.267106 -2.92684 0
M  V30 2846 H 263.603 -0.247518 -1.60503 0
M  V30 2847 H 265.6 2.10394 -3.59917 0
M  V30 2848 H 264.26 2.16046 -2.42393 0
M  V30 2849 H 265.271 -0.31577 -5.16936 0
M  V30 2850 H 261.948 1.83847 -3.74842 0
M  V30 2851 H 263.338 -0.977553 -6.64751 0
M  V30 2852 N 266.058 1.56714 -0.166846 0
M  V30 2853 C 267.283 2.01557 0.488833 0
M  V30 2854 C 267.708 1.0463 1.56314 0
M  V30 2855 O 267.066 0.0251304 1.81283 0
M  V30 2856 C 267.114 3.4503 1.04818 0
M  V30 2857 O 266.218 3.51163 2.16236 0
M  V30 2858 H 265.559 0.653516 0.117526 0
M  V30 2859 H 268.089 2.02818 -0.269421 0
M  V30 2860 H 268.099 3.84243 1.37191 0
M  V30 2861 H 266.774 4.15077 0.261572 0
M  V30 2862 H 265.351 3.23807 1.84942 0
M  V30 2863 N 267.536 -0.106894 1.57237 0
M  V30 2864 C 268.483 -1.13049 2.01217 0
M  V30 2865 C 269.453 -1.40471 0.886403 0
M  V30 2866 O 270.638 -1.52133 1.15153 0
M  V30 2867 C 267.778 -2.4487 2.43172 0
M  V30 2868 C 266.891 -2.24281 3.69218 0
M  V30 2869 C 266.026 -3.49417 4.00101 0
M  V30 2870 C 265.065 -3.24038 5.19294 0
M  V30 2871 N 264.202 -4.41409 5.45988 0
M  V30 2872 H 269.042 -0.748456 2.88448 0
M  V30 2873 H 266.579 -0.358054 1.42676 0
M  V30 2874 H 268.537 -3.21786 2.65537 0
M  V30 2875 H 267.167 -2.80944 1.58967 0
M  V30 2876 H 266.219 -1.38224 3.54398 0
M  V30 2877 H 267.531 -2.01512 4.56283 0
M  V30 2878 H 266.685 -4.34746 4.2318 0
M  V30 2879 H 265.424 -3.75229 3.11535 0
M  V30 2880 H 264.429 -2.37102 4.96047 0
M  V30 2881 H 265.654 -2.99584 6.09447 0
M  V30 2882 H 263.6 -4.67319 4.60379 0
M  V30 2883 H 263.517 -4.21788 6.274 0
M  V30 2884 H 264.785 -5.27836 5.73593 0
M  V30 2885 N 269.014 -1.53014 -0.377408 0
M  V30 2886 C 270.244 -1.72265 -1.14054 0
M  V30 2887 C 270.652 -0.44601 -1.83868 0
M  V30 2888 O 269.995 0.590095 -1.73964 0
M  V30 2889 C 270.057 -2.82492 -2.22348 0
M  V30 2890 C 269.721 -4.23233 -1.72402 0
M  V30 2891 C 270.718 -5.05992 -1.19448 0
M  V30 2892 C 268.403 -4.696 -1.78273 0
M  V30 2893 C 270.397 -6.33203 -0.730268 0
M  V30 2894 C 268.084 -5.96792 -1.31464 0
M  V30 2895 C 269.082 -6.78424 -0.789297 0
M  V30 2896 O 268.77 -8.0323 -0.328077 0
M  V30 2897 H 268.502 -0.579873 -0.347453 0
M  V30 2898 H 271.056 -2.00502 -0.445882 0
M  V30 2899 H 269.286 -2.49702 -2.95272 0
M  V30 2900 H 270.975 -2.90034 -2.83963 0
M  V30 2901 H 271.741 -4.71349 -1.14259 0
M  V30 2902 H 267.62 -4.06142 -2.18106 0
M  V30 2903 H 271.164 -6.96868 -0.319542 0
M  V30 2904 H 267.061 -6.30937 -1.36342 0
M  V30 2905 H 267.829 -8.1727 -0.448493 0
M  V30 2906 N 270.492 0.636531 -1.44174 0
M  V30 2907 C 271.402 1.77754 -1.53103 0
M  V30 2908 C 272.418 1.68928 -0.417034 0
M  V30 2909 O 273.594 1.89801 -0.6736 0
M  V30 2910 C 270.659 3.14115 -1.46741 0
M  V30 2911 C 269.72 3.34612 -2.68948 0
M  V30 2912 C 268.953 4.64467 -2.6288 0
M  V30 2913 O 269.176 5.44919 -1.68581 0
M  V30 2914 O 268.11 4.87049 -3.53648 0
M  V30 2915 H 271.936 1.73174 -2.49489 0
M  V30 2916 H 269.521 0.79709 -1.2636 0
M  V30 2917 H 271.403 3.95412 -1.45696 0
M  V30 2918 H 270.078 3.19249 -0.534975 0
M  V30 2919 H 268.985 2.53014 -2.75562 0
M  V30 2920 H 270.318 3.34336 -3.61221 0
M  V30 2921 N 271.97 1.30982 0.876444 0
M  V30 2922 C 272.918 1.18006 2.00443 0
M  V30 2923 C 273.912 0.0898871 1.69161 0
M  V30 2924 O 275.118 0.251333 1.78237 0
M  V30 2925 H 271.493 0.365196 0.65737 0
M  V30 2926 H 273.464 2.13453 2.0852 0
M  V30 2927 C 272.213 0.897521 3.35916 0
M  V30 2928 H 271.536 1.7285 3.60504 0
M  V30 2929 H 272.976 0.846874 4.15456 0
M  V30 2930 C 271.435 -0.399674 3.34521 0
M  V30 2931 O 271.965 -1.41852 3.7582 0
M  V30 2932 N 270.171 -0.413893 2.87637 0
M  V30 2933 H 269.718 0.41571 2.54224 0
M  V30 2934 H 269.676 -1.28175 2.87086 0
M  V30 2935 N 273.449 -1.08991 1.13837 0
M  V30 2936 C 274.696 -1.81258 0.902882 0
M  V30 2937 C 275.024 -1.85936 -0.570803 0
M  V30 2938 O 274.279 -1.3267 -1.43865 0
M  V30 2939 C 274.578 -3.27042 1.44147 0
M  V30 2940 C 274.244 -3.4249 2.93276 0
M  V30 2941 C 272.906 -3.46414 3.33992 0
M  V30 2942 C 275.258 -3.4666 3.892 0
M  V30 2943 C 272.586 -3.52091 4.69307 0
M  V30 2944 C 274.938 -3.53872 5.24364 0
M  V30 2945 C 273.602 -3.56066 5.646 0
M  V30 2946 H 272.872 -0.663268 0.330388 0
M  V30 2947 H 275.519 -1.28368 1.42105 0
M  V30 2948 H 273.824 -3.82599 0.844097 0
M  V30 2949 H 275.521 -3.81499 1.23528 0
M  V30 2950 H 272.111 -3.40124 2.60794 0
M  V30 2951 H 276.295 -3.42865 3.58828 0
M  V30 2952 H 271.551 -3.52079 4.9985 0
M  V30 2953 H 275.725 -3.56043 5.98503 0
M  V30 2954 H 273.352 -3.60218 6.69438 0
M  V30 2955 N 274.927 -0.932562 -1.27047 0
M  V30 2956 C 276.173 -0.576412 -1.94436 0
M  V30 2957 C 276.506 0.880891 -1.73072 0
M  V30 2958 O 275.781 1.62905 -1.06264 0
M  V30 2959 C 276.064 -0.909031 -3.48437 0
M  V30 2960 C 275.917 -2.42044 -3.79123 0
M  V30 2961 C 277.236 -0.418341 -4.38107 0
M  V30 2962 H 274.355 -0.210888 -0.706184 0
M  V30 2963 H 276.997 -1.16522 -1.50075 0
M  V30 2964 H 275.147 -0.407947 -3.86352 0
M  V30 2965 H 276.819 -2.99359 -3.50973 0
M  V30 2966 H 275.062 -2.86758 -3.25503 0
M  V30 2967 H 275.733 -2.6037 -4.86736 0
M  V30 2968 H 278.209 -0.847856 -4.0737 0
M  V30 2969 H 277.085 -0.679981 -5.44672 0
M  V30 2970 H 277.346 0.681642 -4.36814 0
M  V30 2971 N 276.405 1.4127 -0.698611 0
M  V30 2972 C 277.682 1.94955 -0.158762 0
M  V30 2973 C 278.062 1.63781 1.33188 0
M  V30 2974 O 277.41 0.946423 2.07979 0
M  V30 2975 C 277.62 3.46044 -0.453309 0
M  V30 2976 C 278.968 4.22872 -0.382707 0
M  V30 2977 O 279.992 3.54076 -0.388396 0
M  V30 2978 O 278.851 5.45407 -0.345463 0
M  V30 2979 H 275.945 0.82683 -0.0167505 0
M  V30 2980 H 278.491 1.50971 -0.77498 0
M  V30 2981 H 277.263 3.62028 -1.48498 0
M  V30 2982 H 276.886 3.97128 0.19373 0
M  V30 2983 N 277.883 0.443576 1.51229 0
M  V30 2984 C 279.111 -0.11929 2.06556 0
M  V30 2985 C 279.526 -1.35921 1.31038 0
M  V30 2986 O 278.883 -1.78675 0.371704 0
M  V30 2987 C 278.934 -0.435228 3.5887 0
M  V30 2988 O 278.655 0.755486 4.31537 0
M  V30 2989 C 280.156 -1.04808 4.30732 0
M  V30 2990 H 277.376 -0.0051584 0.67098 0
M  V30 2991 H 279.92 0.624453 1.94733 0
M  V30 2992 H 278.075 -1.12887 3.70588 0
M  V30 2993 H 278.489 0.483491 5.22267 0
M  V30 2994 H 279.963 -1.2191 5.3837 0
M  V30 2995 H 280.44 -2.03081 3.89429 0
M  V30 2996 H 281.046 -0.393637 4.23474 0
M  V30 2997 N 279.361 -1.56624 0.175154 0
M  V30 2998 C 280.61 -1.96173 -0.468921 0
M  V30 2999 C 280.923 -1.06401 -1.64128 0
M  V30 3000 O 282.129 -1.35648 -2.35185 0
M  V30 3001 C 280.585 -3.48833 -0.885633 0
M  V30 3002 C 280.193 -4.47237 0.261343 0
M  V30 3003 C 281.937 -3.97194 -1.49791 0
M  V30 3004 C 279.844 -5.9114 -0.175214 0
M  V30 3005 H 278.774 -0.732455 -0.178958 0
M  V30 3006 H 281.425 -1.81591 0.263997 0
M  V30 3007 H 279.807 -3.58848 -1.67464 0
M  V30 3008 H 280.981 -4.4894 1.03871 0
M  V30 3009 H 279.296 -4.08956 0.783827 0
M  V30 3010 H 281.893 -5.02167 -1.83665 0
M  V30 3011 H 282.236 -3.40351 -2.39722 0
M  V30 3012 H 282.769 -3.90212 -0.773267 0
M  V30 3013 H 279.508 -6.51865 0.689414 0
M  V30 3014 H 279.028 -5.92735 -0.91786 0
M  V30 3015 H 280.707 -6.44044 -0.617792 0
M  V30 3016 N 280.839 0.0985539 -1.57292 0
M  V30 3017 C 281.786 1.11981 -2.01814 0
M  V30 3018 C 282.756 1.39999 -0.89384 0
M  V30 3019 O 283.941 1.5152 -1.15958 0
M  V30 3020 C 281.081 2.43577 -2.44467 0
M  V30 3021 C 280.194 2.2232 -3.70402 0
M  V30 3022 C 279.329 3.4729 -4.01949 0
M  V30 3023 C 278.368 3.2128 -5.21005 0
M  V30 3024 N 277.505 4.38507 -5.48321 0
M  V30 3025 H 282.345 0.733149 -2.88841 0
M  V30 3026 H 279.882 0.350482 -1.42864 0
M  V30 3027 H 281.84 3.20373 -2.6724 0
M  V30 3028 H 280.47 2.80097 -1.60455 0
M  V30 3029 H 279.522 1.36343 -3.55126 0
M  V30 3030 H 280.834 1.99089 -4.57345 0
M  V30 3031 H 279.988 4.32495 -4.25479 0
M  V30 3032 H 278.727 3.73572 -3.13521 0
M  V30 3033 H 277.732 2.34468 -4.97298 0
M  V30 3034 H 278.957 2.96348 -6.11028 0
M  V30 3035 H 276.903 4.64871 -4.62851 0
M  V30 3036 H 276.82 4.18455 -6.29628 0
M  V30 3037 H 278.088 5.24787 -5.76385 0
M  V30 3038 N 282.317 1.53212 0.369288 0
M  V30 3039 C 283.594 1.59815 1.12776 0
M  V30 3040 C 283.974 0.403402 2.0721 0
M  V30 3041 O 283.322 -0.606667 2.20299 0
M  V30 3042 C 283.532 2.94664 1.87013 0
M  V30 3043 C 284.88 3.49109 2.41677 0
M  V30 3044 O 285.904 2.96669 1.97144 0
M  V30 3045 O 284.763 4.40775 3.23079 0
M  V30 3046 H 281.857 0.645376 0.517125 0
M  V30 3047 H 284.403 1.65553 0.37285 0
M  V30 3048 H 283.175 3.73061 1.18071 0
M  V30 3049 H 282.798 2.92401 2.69421 0
M  V30 3050 N 283.795 -0.628877 1.44509 0
M  V30 3051 C 284.743 -1.76193 1.51852 0
M  V30 3052 C 285.737 -1.64849 0.390042 0
M  V30 3053 O 286.943 -1.709 0.565082 0
M  V30 3054 H 283.318 -0.581728 0.476547 0
M  V30 3055 H 285.289 -1.67123 2.47209 0
M  V30 3056 C 284.038 -3.14533 1.48204 0
M  V30 3057 H 283.361 -3.23911 2.34354 0
M  V30 3058 H 284.801 -3.93701 1.57402 0
M  V30 3059 C 283.26 -3.36287 0.203142 0
M  V30 3060 O 283.79 -3.9509 -0.725745 0
M  V30 3061 N 281.996 -2.90408 0.105563 0
M  V30 3062 H 281.543 -2.42739 0.862301 0
M  V30 3063 H 281.501 -3.05339 -0.749371 0
M  V30 3064 N 285.273 -1.31445 -0.869486 0
M  V30 3065 C 286.503 -1.23942 -1.65294 0
M  V30 3066 C 286.911 0.197561 -1.88166 0
M  V30 3067 O 286.254 1.14019 -1.44033 0
M  V30 3068 C 286.316 -1.91385 -3.04322 0
M  V30 3069 C 285.98 -3.40726 -3.04557 0
M  V30 3070 C 286.977 -4.36464 -2.82481 0
M  V30 3071 C 284.662 -3.82425 -3.25663 0
M  V30 3072 C 286.656 -5.71876 -2.8149 0
M  V30 3073 C 284.343 -5.1795 -3.243 0
M  V30 3074 C 285.341 -6.12486 -3.02241 0
M  V30 3075 O 285.029 -7.45534 -3.00724 0
M  V30 3076 H 284.761 -0.429459 -0.522054 0
M  V30 3077 H 287.315 -1.73873 -1.0935 0
M  V30 3078 H 285.545 -1.36004 -3.61994 0
M  V30 3079 H 287.234 -1.77791 -3.64891 0
M  V30 3080 H 288 -4.05576 -2.65956 0
M  V30 3081 H 283.879 -3.09274 -3.41863 0
M  V30 3082 H 287.423 -6.45638 -2.64191 0
M  V30 3083 H 283.32 -5.48473 -3.40365 0
M  V30 3084 H 284.088 -7.54713 -3.16782 0
M  V30 3085 N 286.751 1.08385 -1.14413 0
M  V30 3086 C 287.698 2.15311 -0.831265 0
M  V30 3087 C 288.668 1.64751 0.211292 0
M  V30 3088 O 289.853 1.90627 0.0811674 0
M  V30 3089 C 286.993 3.43658 -0.315143 0
M  V30 3090 C 286.106 4.08064 -1.41802 0
M  V30 3091 C 285.241 5.24207 -0.859126 0
M  V30 3092 C 284.28 5.80554 -1.93967 0
M  V30 3093 N 283.417 6.88042 -1.39793 0
M  V30 3094 H 288.257 2.41415 -1.74708 0
M  V30 3095 H 285.794 1.18474 -0.871909 0
M  V30 3096 H 287.752 4.172 0.00230884 0
M  V30 3097 H 286.382 3.17839 0.56378 0
M  V30 3098 H 285.434 3.3228 -1.85187 0
M  V30 3099 H 286.746 4.45962 -2.23427 0
M  V30 3100 H 285.9 6.04689 -0.49359 0
M  V30 3101 H 284.639 4.87699 -0.011932 0
M  V30 3102 H 283.644 4.98725 -2.31415 0
M  V30 3103 H 284.869 6.19121 -2.79046 0
M  V30 3104 H 282.815 6.53493 -0.572919 0
M  V30 3105 H 282.732 7.24767 -2.15054 0
M  V30 3106 H 284 7.72255 -1.0603 0
M  V30 3107 N 288.23 0.939286 1.26551 0
M  V30 3108 C 289.476 0.586715 1.94128 0
M  V30 3109 C 289.809 -0.8717 1.73537 0
M  V30 3110 O 289.084 -1.62339 1.07127 0
M  V30 3111 C 289.367 0.927497 3.4795 0
M  V30 3112 C 289.22 2.44052 3.77834 0
M  V30 3113 C 290.539 0.441569 4.37879 0
M  V30 3114 H 287.658 0.21463 0.705055 0
M  V30 3115 H 290.3 1.17316 1.49455 0
M  V30 3116 H 288.45 0.428431 3.8613 0
M  V30 3117 H 290.122 3.01216 3.4938 0
M  V30 3118 H 288.365 2.8848 3.23978 0
M  V30 3119 H 289.036 2.62947 4.85348 0
M  V30 3120 H 291.512 0.869448 4.06915 0
M  V30 3121 H 290.388 0.708856 5.44304 0
M  V30 3122 H 290.649 -0.658467 4.37169 0
M  V30 3123 N 289.708 -1.40897 0.706093 0
M  V30 3124 C 290.936 -2.05373 0.250887 0
M  V30 3125 C 291.351 -1.53172 -1.10381 0
M  V30 3126 O 290.708 -0.684305 -1.69185 0
M  V30 3127 C 290.759 -3.6088 0.211571 0
M  V30 3128 O 290.48 -4.11153 1.51276 0
M  V30 3129 C 291.981 -4.42517 -0.263346 0
M  V30 3130 H 289.201 -0.66115 0.114552 0
M  V30 3131 H 291.745 -1.80479 0.961635 0
M  V30 3132 H 289.9 -3.84777 -0.450073 0
M  V30 3133 H 290.314 -5.05279 1.40689 0
M  V30 3134 H 291.788 -5.51479 -0.239718 0
M  V30 3135 H 292.265 -4.19396 -1.30397 0
M  V30 3136 H 292.871 -4.23708 0.367677 0
M  V30 3137 N 291.186 -0.45159 -1.50991 0
M  V30 3138 C 292.463 0.170707 -1.94854 0
M  V30 3139 C 292.843 1.58788 -1.39103 0
M  V30 3140 O 292.191 2.20913 -0.583921 0
M  V30 3141 C 292.401 0.133929 -3.48743 0
M  V30 3142 C 293.749 0.33248 -4.23296 0
M  V30 3143 O 294.773 0.211403 -3.55572 0
M  V30 3144 O 293.632 0.57486 -5.43468 0
M  V30 3145 H 290.726 0.122264 -0.817912 0
M  V30 3146 H 293.272 -0.510594 -1.61836 0
M  V30 3147 H 292.044 -0.856283 -3.81816 0
M  V30 3148 H 291.667 0.857529 -3.88242 0
M  V30 3149 N 292.664 1.56529 -0.183458 0
M  V30 3150 C 293.912 1.96855 0.457452 0
M  V30 3151 C 294.233 1.07104 1.62953 0
M  V30 3152 O 293.503 0.139887 1.954 0
M  V30 3153 H 292.083 0.72693 0.171992 0
M  V30 3154 H 294.745 1.93056 -0.267476 0
M  V30 3155 H 293.841 3.01423 0.809368 0
M  V30 3156 N 294.142 -0.090211 1.57342 0
M  V30 3157 C 295.09 -1.12792 2.03422 0
M  V30 3158 C 296.084 -1.41182 0.936166 0
M  V30 3159 O 297.29 -1.40805 1.12133 0
M  V30 3160 H 293.665 -0.380986 0.648347 0
M  V30 3161 H 295.636 -0.71299 2.89757 0
M  V30 3162 C 294.385 -2.43855 2.47851 0
M  V30 3163 H 293.708 -2.22855 3.31927 0
M  V30 3164 H 295.148 -3.14955 2.83865 0
M  V30 3165 C 293.607 -3.08503 1.3538 0
M  V30 3166 O 294.137 -3.95805 0.685641 0
M  V30 3167 N 292.343 -2.68831 1.10355 0
M  V30 3168 H 291.89 -1.97929 1.64869 0
M  V30 3169 H 291.848 -3.12412 0.353031 0
M  V30 3170 N 295.62 -1.53406 -0.361157 0
M  V30 3171 C 296.868 -1.69467 -1.10115 0
M  V30 3172 C 297.189 -0.451352 -1.89705 0
M  V30 3173 O 296.459 0.534636 -1.88463 0
M  V30 3174 H 295.039 -0.624749 -0.409508 0
M  V30 3175 H 297.701 -1.90609 -0.406699 0
M  V30 3176 H 296.797 -2.55774 -1.78847 0
M  V30 3177 N 297.098 0.621204 -1.44841 0
M  V30 3178 C 298.328 1.40548 -1.51426 0
M  V30 3179 C 298.736 1.88673 -0.141083 0
M  V30 3180 O 298.079 1.62053 0.865128 0
M  V30 3181 C 298.141 2.65325 -2.42576 0
M  V30 3182 C 297.805 2.3893 -3.89566 0
M  V30 3183 C 298.802 2.00138 -4.79834 0
M  V30 3184 C 296.487 2.52263 -4.3436 0
M  V30 3185 C 298.481 1.75021 -6.129 0
M  V30 3186 C 296.168 2.2676 -5.67471 0
M  V30 3187 C 297.166 1.88199 -6.56559 0
M  V30 3188 O 296.854 1.62986 -7.87204 0
M  V30 3189 H 296.586 0.437122 -0.515655 0
M  V30 3190 H 299.14 0.765987 -1.90583 0
M  V30 3191 H 297.37 3.31947 -1.98364 0
M  V30 3192 H 299.059 3.27347 -2.39998 0
M  V30 3193 H 299.825 1.89386 -4.46495 0
M  V30 3194 H 295.704 2.81246 -3.65269 0
M  V30 3195 H 299.248 1.44848 -6.82396 0
M  V30 3196 H 295.145 2.37125 -6.00368 0
M  V30 3197 H 295.913 1.7715 -7.991 0
M  V30 3198 N 298.576 1.31904 0.862503 0
M  V30 3199 C 299.822 1.23207 1.61838 0
M  V30 3200 C 300.177 -0.206062 1.91293 0
M  V30 3201 O 299.47 -1.14162 1.53875 0
M  V30 3202 C 299.664 2.01713 2.95037 0
M  V30 3203 C 299.493 3.53014 2.78588 0
M  V30 3204 C 298.263 4.22359 2.77382 0
M  V30 3205 C 300.461 4.47819 2.52909 0
M  V30 3206 N 298.443 5.59766 2.52062 0
M  V30 3207 C 299.814 5.72947 2.36922 0
M  V30 3208 C 301.869 4.37162 2.38314 0
M  V30 3209 C 300.572 6.88623 2.07823 0
M  V30 3210 C 302.598 5.5263 2.10604 0
M  V30 3211 C 301.96 6.76752 1.95411 0
M  V30 3212 H 298.059 0.505984 0.596242 0
M  V30 3213 H 300.643 1.66179 1.01452 0
M  V30 3214 H 298.814 1.61098 3.53415 0
M  V30 3215 H 300.546 1.84975 3.59953 0
M  V30 3216 H 297.301 3.74401 2.90036 0
M  V30 3217 H 297.725 6.32135 2.42352 0
M  V30 3218 H 302.367 3.41857 2.48784 0
M  V30 3219 H 300.085 7.83948 1.9609 0
M  V30 3220 H 303.671 5.46307 2.00101 0
M  V30 3221 H 302.551 7.6459 1.74274 0
M  V30 3222 N 300.054 -1.07777 1.14986 0
M  V30 3223 C 301.002 -2.16964 0.838406 0
M  V30 3224 C 301.996 -1.68372 -0.186386 0
M  V30 3225 O 303.202 -1.79951 -0.0418465 0
M  V30 3226 H 299.577 -0.708006 0.253439 0
M  V30 3227 H 301.548 -2.40454 1.76704 0
M  V30 3228 C 300.297 -3.4604 0.339335 0
M  V30 3229 H 299.62 -3.83813 1.11927 0
M  V30 3230 H 301.06 -4.23698 0.160021 0
M  V30 3231 C 299.519 -3.23569 -0.938325 0
M  V30 3232 O 300.049 -3.47752 -2.01077 0
M  V30 3233 N 298.255 -2.77079 -0.876117 0
M  V30 3234 H 297.802 -2.576 -0.00322037 0
M  V30 3235 H 297.76 -2.62422 -1.73153 0
M  V30 3236 N 301.532 -0.945985 -1.26051 0
M  V30 3237 C 302.778 -0.606539 -1.94146 0
M  V30 3238 C 303.133 0.84586 -1.72809 0
M  V30 3239 O 302.426 1.59781 -1.05738 0
M  V30 3240 C 302.62 -0.890475 -3.46129 0
M  V30 3241 C 302.449 -2.36892 -3.82246 0
M  V30 3242 C 301.219 -3.02494 -4.04753 0
M  V30 3243 C 303.417 -3.34772 -3.90425 0
M  V30 3244 N 301.399 -4.40302 -4.27794 0
M  V30 3245 C 302.77 -4.57855 -4.18054 0
M  V30 3246 C 304.825 -3.2973 -3.73072 0
M  V30 3247 C 303.528 -5.76522 -4.30134 0
M  V30 3248 C 305.554 -4.47727 -3.86386 0
M  V30 3249 C 304.916 -5.69593 -4.14419 0
M  V30 3250 H 301.015 -0.272407 -0.73302 0
M  V30 3251 H 303.599 -1.21638 -1.52027 0
M  V30 3252 H 301.77 -0.309638 -3.87164 0
M  V30 3253 H 303.502 -0.51181 -4.01451 0
M  V30 3254 H 300.257 -2.53095 -4.003 0
M  V30 3255 H 300.681 -5.11646 -4.43337 0
M  V30 3256 H 305.323 -2.36565 -3.50424 0
M  V30 3257 H 303.041 -6.70136 -4.51601 0
M  V30 3258 H 306.627 -4.45363 -3.74356 0
M  V30 3259 H 305.507 -6.59375 -4.24493 0
M  V30 3260 N 303.011 1.40521 -0.713556 0
M  V30 3261 C 303.958 2.30723 -0.059684 0
M  V30 3262 C 304.928 1.48079 0.752448 0
M  V30 3263 O 306.113 1.76823 0.71681 0
M  V30 3264 C 303.253 3.34274 0.857594 0
M  V30 3265 C 302.366 4.31986 0.0351536 0
M  V30 3266 C 301.501 5.22605 0.951724 0
M  V30 3267 C 300.54 6.11976 0.123253 0
M  V30 3268 N 299.677 6.9502 0.99459 0
M  V30 3269 H 304.517 2.86074 -0.834596 0
M  V30 3270 H 302.054 1.40879 -0.42326 0
M  V30 3271 H 304.012 3.92879 1.40364 0
M  V30 3272 H 302.642 2.8043 1.59871 0
M  V30 3273 H 301.694 3.7518 -0.628052 0
M  V30 3274 H 303.006 4.95101 -0.606347 0
M  V30 3275 H 302.16 5.86131 1.56638 0
M  V30 3276 H 300.899 4.59759 1.62705 0
M  V30 3277 H 299.904 5.47482 -0.50435 0
M  V30 3278 H 301.129 6.76881 -0.548539 0
M  V30 3279 H 299.075 6.34764 1.6556 0
M  V30 3280 H 298.992 7.54892 0.40908 0
M  V30 3281 H 300.26 7.62997 1.59549 0
M  V30 3282 N 304.489 0.459591 1.5075 0
M  V30 3283 C 305.737 -0.0991532 2.01857 0
M  V30 3284 C 306.058 -1.41247 1.34441 0
M  V30 3285 O 305.328 -1.89775 0.486022 0
M  V30 3286 H 303.908 -0.039633 0.745948 0
M  V30 3287 H 306.57 0.607387 1.85194 0
M  V30 3288 H 305.666 -0.258998 3.11023 0
M  V30 3289 N 305.967 -1.56429 0.191757 0
M  V30 3290 C 307.195 -2.01867 -0.453586 0
M  V30 3291 C 307.61 -1.07191 -1.5542 0
M  V30 3292 O 306.967 -0.0762108 -1.82341 0
M  V30 3293 C 307.018 -3.47017 -1.013 0
M  V30 3294 O 306.739 -4.38078 0.0437005 0
M  V30 3295 C 308.24 -4.07956 -1.73456 0
M  V30 3296 H 305.46 -0.661211 -0.114199 0
M  V30 3297 H 308.004 -2.02295 0.299483 0
M  V30 3298 H 306.159 -3.47298 -1.71647 0
M  V30 3299 H 306.573 -5.23178 -0.372212 0
M  V30 3300 H 308.047 -5.1138 -2.07833 0
M  V30 3301 H 308.524 -3.51222 -2.63704 0
M  V30 3302 H 309.13 -4.11437 -1.07702 0
M  V30 3303 N 307.445 0.0818655 -1.57387 0
M  V30 3304 C 308.393 1.11712 -2.04018 0
M  V30 3305 C 309.387 1.40683 -0.94364 0
M  V30 3306 O 310.593 1.40209 -1.12878 0
M  V30 3307 H 306.968 0.377542 -0.650358 0
M  V30 3308 H 308.939 0.697614 -2.90131 0
M  V30 3309 C 307.688 2.42537 -2.49141 0
M  V30 3310 H 307.011 2.21092 -3.33104 0
M  V30 3311 H 308.451 3.13446 -2.85531 0
M  V30 3312 C 306.91 3.0778 -1.37014 0
M  V30 3313 O 307.44 3.95436 -0.706621 0
M  V30 3314 N 305.646 2.68242 -1.11779 0
M  V30 3315 H 305.193 1.97052 -1.65917 0
M  V30 3316 H 305.151 3.1222 -0.369594 0
M  V30 3317 N 308.923 1.53595 0.353017 0
M  V30 3318 C 310.334 1.61937 0.929153 0
M  V30 3319 C 310.685 0.494686 1.89861 0
M  V30 3320 O 309.81 -0.377017 2.1309 0
M  V30 3321 C 310.405 2.93526 1.69199 0
M  V30 3322 C 308.964 3.04161 2.21727 0
M  V30 3323 C 308.111 2.57322 1.03348 0
M  V30 3324 H 311.062 1.58155 0.131431 0
M  V30 3325 H 311.083 2.82034 2.55416 0
M  V30 3326 H 310.595 3.75362 0.986144 0
M  V30 3327 H 308.696 2.26938 2.95516 0
M  V30 3328 H 308.809 4.09465 2.48748 0
M  V30 3329 H 307.173 2.12499 1.40414 0
M  V30 3330 H 307.956 3.41588 0.342428 0
M  V30 3331 N 310.401 -0.613514 1.45168 0
M  V30 3332 C 311.311 -1.75296 1.55912 0
M  V30 3333 C 312.327 -1.68244 0.443856 0
M  V30 3334 O 313.503 -1.88706 0.70371 0
M  V30 3335 C 310.568 -3.1174 1.5172 0
M  V30 3336 C 309.629 -3.30291 2.74238 0
M  V30 3337 C 308.862 -4.60226 2.70236 0
M  V30 3338 O 309.085 -5.42168 1.77229 0
M  V30 3339 O 308.019 -4.81361 3.61352 0
M  V30 3340 H 311.845 -1.69183 2.52212 0
M  V30 3341 H 309.43 -0.776886 1.27612 0
M  V30 3342 H 311.312 -3.93044 1.51968 0
M  V30 3343 H 309.987 -3.18357 0.585697 0
M  V30 3344 H 308.894 -2.48598 2.79553 0
M  V30 3345 H 310.227 -3.28547 3.66494 0
M  V30 3346 N 311.879 -1.3236 -0.855495 0
M  V30 3347 C 312.789 -1.23221 -1.99634 0
M  V30 3348 C 313.805 -0.145983 -1.73387 0
M  V30 3349 O 314.981 -0.366502 -1.98037 0
M  V30 3350 C 312.046 -0.954782 -3.33294 0
M  V30 3351 C 311.107 -2.12937 -3.72769 0
M  V30 3352 C 310.34 -1.86508 -5.00051 0
M  V30 3353 O 310.563 -0.807231 -5.64659 0
M  V30 3354 O 309.497 -2.72591 -5.36636 0
M  V30 3355 H 313.323 -2.19126 -2.1028 0
M  V30 3356 H 310.908 -1.12241 -0.986018 0
M  V30 3357 H 312.79 -0.816519 -4.13414 0
M  V30 3358 H 311.465 -0.0258854 -3.2369 0
M  V30 3359 H 310.372 -2.3231 -2.93228 0
M  V30 3360 H 311.705 -3.04102 -3.87018 0
M  V30 3361 N 313.357 1.07166 -1.15556 0
M  V30 3362 C 314.603 1.80222 -0.942961 0
M  V30 3363 C 314.958 1.85121 0.524209 0
M  V30 3364 O 314.251 1.32531 1.38369 0
M  V30 3365 C 314.445 3.24707 -1.49332 0
M  V30 3366 C 314.274 3.33887 -3.01247 0
M  V30 3367 C 313.044 3.44337 -3.69811 0
M  V30 3368 C 315.242 3.24484 -3.99017 0
M  V30 3369 N 313.224 3.42439 -5.09518 0
M  V30 3370 C 314.595 3.29726 -5.25053 0
M  V30 3371 C 316.65 3.08307 -3.90962 0
M  V30 3372 C 315.353 3.20455 -6.43973 0
M  V30 3373 C 317.379 3.00371 -5.09442 0
M  V30 3374 C 316.741 3.06227 -6.34354 0
M  V30 3375 H 312.84 0.672709 -0.398731 0
M  V30 3376 H 315.424 1.27905 -1.46794 0
M  V30 3377 H 313.595 3.7544 -0.994946 0
M  V30 3378 H 315.327 3.85894 -1.21935 0
M  V30 3379 H 312.082 3.48762 -3.20409 0
M  V30 3380 H 312.506 3.45013 -5.8249 0
M  V30 3381 H 317.148 3.02633 -2.95251 0
M  V30 3382 H 314.866 3.24888 -7.39914 0
M  V30 3383 H 318.452 2.88955 -5.04971 0
M  V30 3384 H 317.332 3.00132 -7.24493 0
M  V30 3385 N 314.835 0.952656 1.25548 0
M  V30 3386 C 316.084 0.602053 1.92505 0
M  V30 3387 C 316.397 -0.864663 1.75451 0
M  V30 3388 O 317.603 -1.32514 2.36965 0
M  V30 3389 C 316.059 1.02607 3.44963 0
M  V30 3390 C 315.667 2.51519 3.70732 0
M  V30 3391 C 317.411 0.747905 4.1786 0
M  V30 3392 C 315.318 2.87732 5.16686 0
M  V30 3393 H 314.248 0.22146 0.720744 0
M  V30 3394 H 316.899 1.15684 1.42441 0
M  V30 3395 H 315.281 0.399712 3.93978 0
M  V30 3396 H 316.455 3.19157 3.32378 0
M  V30 3397 H 314.77 2.76786 3.11092 0
M  V30 3398 H 317.367 0.994647 5.25367 0
M  V30 3399 H 317.71 -0.315629 4.15102 0
M  V30 3400 H 318.243 1.33452 3.74747 0
M  V30 3401 H 314.982 3.93095 5.24554 0
M  V30 3402 H 314.502 2.24765 5.56094 0
M  V30 3403 H 316.181 2.76817 5.84792 0
M  V30 3404 N 316.313 -1.40141 0.720998 0
M  V30 3405 C 317.263 -2.27949 0.0482544 0
M  V30 3406 C 318.247 -1.43538 -0.727021 0
M  V30 3407 O 319.439 -1.6658 -0.598332 0
M  V30 3408 C 316.568 -3.32126 -0.868729 0
M  V30 3409 C 315.654 -4.24008 -0.0883515 0
M  V30 3410 N 316.045 -4.97154 0.931226 0
M  V30 3411 C 314.343 -4.4485 -0.320105 0
M  V30 3412 C 315.044 -5.64587 1.4006 0
M  V30 3413 N 314.02 -5.38787 0.721752 0
M  V30 3414 H 317.822 -2.81948 0.829609 0
M  V30 3415 H 315.336 -1.52656 0.554067 0
M  V30 3416 H 317.333 -3.93884 -1.36605 0
M  V30 3417 H 315.993 -2.79687 -1.6494 0
M  V30 3418 H 317.004 -5.01 1.31222 0
M  V30 3419 H 313.681 -4.03378 -1.07668 0
M  V30 3420 H 315.071 -6.33175 2.24808 0
M  V30 3421 N 317.792 -0.46758 -1.50504 0
M  V30 3422 C 319.04 0.0884469 -2.01906 0
M  V30 3423 C 319.361 1.40532 -1.35188 0
M  V30 3424 O 318.631 1.89515 -0.496079 0
M  V30 3425 H 317.211 0.0356765 -0.746148 0
M  V30 3426 H 319.873 -0.6172 -1.84869 0
M  V30 3427 H 318.969 0.2425 -3.11156 0
M  V30 3428 N 319.27 1.56325 -0.20005 0
M  V30 3429 C 320.233 2.18084 0.705132 0
M  V30 3430 C 321.233 1.13666 1.1374 0
M  V30 3431 O 322.423 1.39023 1.04968 0
M  V30 3432 C 319.555 2.78689 1.96329 0
M  V30 3433 H 320.748 2.99435 0.167023 0
M  V30 3434 H 318.301 1.56221 0.0495725 0
M  V30 3435 H 319.036 2.0115 2.5438 0
M  V30 3436 H 318.821 3.55133 1.66202 0
M  V30 3437 H 320.311 3.26096 2.60866 0
M  V30 3438 N 320.748 -0.0735177 1.57428 0
M  V30 3439 C 321.711 -1.07192 2.02589 0
M  V30 3440 C 322.711 -1.31695 0.922661 0
M  V30 3441 O 323.901 -1.27445 1.18758 0
M  V30 3442 C 321.033 -2.41599 2.40506 0
M  V30 3443 H 322.226 -0.682727 2.92025 0
M  V30 3444 H 319.779 -0.319193 1.53006 0
M  V30 3445 H 320.514 -2.85354 1.5409 0
M  V30 3446 H 320.299 -2.25156 3.21009 0
M  V30 3447 H 321.789 -3.13367 2.76027 0
M  V30 3448 N 322.226 -1.5378 -0.344866 0
M  V30 3449 C 323.472 -1.71216 -1.08687 0
M  V30 3450 C 323.805 -0.473281 -1.88345 0
M  V30 3451 O 323.08 0.52968 -1.87149 0
M  V30 3452 C 323.363 -2.97486 -2.02914 0
M  V30 3453 C 323.216 -4.31579 -1.26727 0
M  V30 3454 C 324.535 -3.19422 -3.0275 0
M  V30 3455 H 321.654 -0.62301 -0.393735 0
M  V30 3456 H 324.296 -1.8645 -0.365563 0
M  V30 3457 H 322.446 -2.84629 -2.64421 0
M  V30 3458 H 324.118 -4.56284 -0.67845 0
M  V30 3459 H 322.361 -4.30049 -0.569273 0
M  V30 3460 H 323.032 -5.16106 -1.95803 0
M  V30 3461 H 325.508 -3.316 -2.51357 0
M  V30 3462 H 324.384 -4.09169 -3.65885 0
M  V30 3463 H 324.645 -2.35656 -3.74057 0
M  V30 3464 N 323.704 0.605807 -1.45491 0
M  V30 3465 C 324.95 1.36679 -1.49823 0
M  V30 3466 C 325.283 1.93693 -0.140175 0
M  V30 3467 O 324.558 1.75158 0.845581 0
M  V30 3468 C 324.841 2.51337 -2.57879 0
M  V30 3469 C 324.694 1.99508 -4.03134 0
M  V30 3470 C 326.013 3.53463 -2.62205 0
M  V30 3471 H 323.132 0.495617 -0.545466 0
M  V30 3472 H 325.774 0.682732 -1.7731 0
M  V30 3473 H 323.924 3.09691 -2.34571 0
M  V30 3474 H 325.596 1.45789 -4.37656 0
M  V30 3475 H 323.839 1.30496 -4.13707 0
M  V30 3476 H 324.51 2.82169 -4.74431 0
M  V30 3477 H 326.986 3.04953 -2.83095 0
M  V30 3478 H 325.862 4.31178 -3.39672 0
M  V30 3479 H 326.123 4.09197 -1.67363 0
M  V30 3480 N 325.182 1.32811 0.848464 0
M  V30 3481 C 326.145 1.22194 1.9391 0
M  V30 3482 C 327.145 0.143404 1.60159 0
M  V30 3483 O 328.335 0.394253 1.6968 0
M  V30 3484 C 325.467 0.88067 3.29328 0
M  V30 3485 H 326.66 2.19127 2.04752 0
M  V30 3486 H 324.213 1.16731 1.0394 0
M  V30 3487 H 324.948 -0.0865776 3.24184 0
M  V30 3488 H 324.733 1.66052 3.55203 0
M  V30 3489 H 326.223 0.830871 4.09251 0
M  V30 3490 N 326.66 -1.06551 1.16123 0
M  V30 3491 C 327.607 -2.13961 0.865414 0
M  V30 3492 C 328.577 -1.65066 -0.185055 0
M  V30 3493 O 329.762 -1.90732 -0.05083 0
M  V30 3494 C 326.902 -3.43113 0.369776 0
M  V30 3495 C 326.015 -4.05756 1.48276 0
M  V30 3496 C 325.15 -5.22773 0.942414 0
M  V30 3497 C 324.189 -5.77395 2.03179 0
M  V30 3498 N 323.326 -6.85731 1.50721 0
M  V30 3499 H 328.166 -2.38605 1.78527 0
M  V30 3500 H 325.703 -1.17072 0.890646 0
M  V30 3501 H 327.661 -4.17151 0.0640643 0
M  V30 3502 H 326.291 -3.18695 -0.513143 0
M  V30 3503 H 325.343 -3.29292 1.9045 0
M  V30 3504 H 326.655 -4.42351 2.30493 0
M  V30 3505 H 325.809 -6.03827 0.589729 0
M  V30 3506 H 324.548 -4.87618 0.0895191 0
M  V30 3507 H 323.553 -4.94981 2.3932 0
M  V30 3508 H 324.778 -6.14603 2.8886 0
M  V30 3509 H 322.724 -6.52499 0.676811 0
M  V30 3510 H 322.641 -7.21254 2.26557 0
M  V30 3511 H 323.909 -7.7047 1.18303 0
M  V30 3512 N 328.138 -0.959301 -1.25041 0
M  V30 3513 C 329.07 -0.440543 -2.24926 0
M  V30 3514 C 330.083 0.446131 -1.56568 0
M  V30 3515 O 331.272 0.253657 -1.76689 0
M  V30 3516 C 328.372 0.38412 -3.36716 0
M  V30 3517 C 327.545 -0.490658 -4.34639 0
M  V30 3518 C 326.604 0.276587 -5.25473 0
M  V30 3519 O 325.63 -0.326614 -5.68262 0
M  V30 3520 N 326.832 1.56844 -5.5891 0
M  V30 3521 H 329.597 -1.29931 -2.70071 0
M  V30 3522 H 327.158 -0.830181 -1.38995 0
M  V30 3523 H 329.15 0.905228 -3.94446 0
M  V30 3524 H 327.72 1.14377 -2.90924 0
M  V30 3525 H 326.94 -1.19282 -3.7572 0
M  V30 3526 H 328.228 -1.08756 -4.97041 0
M  V30 3527 H 327.626 2.08036 -5.26059 0
M  V30 3528 H 326.183 2.03541 -6.19205 0
M  V30 3529 N 329.616 1.39756 -0.72842 0
M  V30 3530 C 330.893 1.94574 -0.200079 0
M  V30 3531 C 331.273 1.66569 1.29684 0
M  V30 3532 O 330.621 0.990326 2.05924 0
M  V30 3533 C 330.831 3.45004 -0.526608 0
M  V30 3534 C 332.179 4.21965 -0.472318 0
M  V30 3535 O 333.203 3.53173 -0.463413 0
M  V30 3536 O 332.062 5.44552 -0.461075 0
M  V30 3537 H 329.156 0.826289 -0.0342851 0
M  V30 3538 H 331.702 1.49293 -0.806829 0
M  V30 3539 H 330.474 3.58796 -1.56144 0
M  V30 3540 H 330.097 3.97449 0.109449 0
M  V30 3541 N 331.094 0.475555 1.50254 0
M  V30 3542 C 332.324 -0.0753399 2.06463 0
M  V30 3543 C 332.732 -1.33661 1.33908 0
M  V30 3544 O 332.075 -1.79219 0.403257 0
M  V30 3545 C 332.137 -0.424921 3.5698 0
M  V30 3546 C 331.801 0.734965 4.51051 0
M  V30 3547 C 332.798 1.61827 4.94073 0
M  V30 3548 C 330.483 0.926557 4.9368 0
M  V30 3549 C 332.477 2.67754 5.78434 0
M  V30 3550 C 330.164 1.98904 5.77824 0
M  V30 3551 C 331.162 2.8629 6.20103 0
M  V30 3552 O 330.85 3.90708 7.02568 0
M  V30 3553 H 330.582 0.00576308 0.675975 0
M  V30 3554 H 333.136 0.664662 1.94349 0
M  V30 3555 H 331.366 -1.21817 3.67012 0
M  V30 3556 H 333.055 -0.911422 3.95535 0
M  V30 3557 H 333.821 1.48196 4.61804 0
M  V30 3558 H 329.7 0.25584 4.6029 0
M  V30 3559 H 333.244 3.35992 6.11355 0
M  V30 3560 H 329.141 2.12541 6.09505 0
M  V30 3561 H 329.909 3.87751 7.20827 0
M  V30 3562 N 332.573 -1.56217 0.208337 0
M  V30 3563 C 333.798 -2.02782 -0.435222 0
M  V30 3564 C 334.223 -1.08738 -1.53485 0
M  V30 3565 O 333.581 -0.0731855 -1.81152 0
M  V30 3566 C 333.629 -3.47687 -0.956335 0
M  V30 3567 O 332.733 -3.56773 -2.06849 0
M  V30 3568 H 332.074 -0.656403 -0.100158 0
M  V30 3569 H 334.604 -2.02033 0.3231 0
M  V30 3570 H 334.614 -3.87745 -1.26955 0
M  V30 3571 H 333.289 -4.15624 -0.15143 0
M  V30 3572 H 331.866 -3.28597 -1.76292 0
M  V30 3573 N 334.051 0.0651679 -1.57465 0
M  V30 3574 C 335.299 0.761555 -1.87202 0
M  V30 3575 C 335.62 1.77778 -0.801243 0
M  V30 3576 O 334.89 1.95166 0.16937 0
M  V30 3577 H 333.47 0.284251 -0.690804 0
M  V30 3578 H 336.132 0.0396827 -1.9486 0
M  V30 3579 H 335.228 1.27365 -2.84929 0
M  V30 3580 N 335.529 1.53961 0.336706 0
M  V30 3581 C 336.778 1.70751 1.07363 0
M  V30 3582 C 337.091 0.481061 1.89592 0
M  V30 3583 O 338.297 0.530046 2.66276 0
M  V30 3584 C 336.753 3.01965 1.95818 0
M  V30 3585 C 336.361 4.31971 1.18764 0
M  V30 3586 C 338.105 3.28121 2.69327 0
M  V30 3587 C 336.012 5.54255 2.06289 0
M  V30 3588 H 334.942 0.636292 0.404535 0
M  V30 3589 H 337.593 1.80459 0.332681 0
M  V30 3590 H 335.975 2.86132 2.7376 0
M  V30 3591 H 337.149 4.5853 0.456849 0
M  V30 3592 H 335.464 4.12481 0.569946 0
M  V30 3593 H 338.061 4.16673 3.35094 0
M  V30 3594 H 338.404 2.45426 3.36261 0
M  V30 3595 H 338.937 3.44762 1.98454 0
M  V30 3596 H 335.676 6.39513 1.43885 0
M  V30 3597 H 335.196 5.31935 2.77138 0
M  V30 3598 H 336.875 5.90159 2.65182 0
M  V30 3599 N 337.007 -0.598083 1.45811 0
M  V30 3600 C 338.253 -1.35882 1.50545 0
M  V30 3601 C 338.586 -1.93616 0.150445 0
M  V30 3602 O 337.861 -1.75604 -0.83628 0
M  V30 3603 C 338.144 -2.49966 2.59208 0
M  V30 3604 C 337.997 -1.97367 4.04186 0
M  V30 3605 C 339.316 -3.52068 2.64076 0
M  V30 3606 H 336.435 -0.492717 0.548087 0
M  V30 3607 H 339.077 -0.673319 1.77669 0
M  V30 3608 H 337.227 -3.08443 2.3621 0
M  V30 3609 H 338.899 -1.43466 4.38423 0
M  V30 3610 H 337.142 -1.283 4.14393 0
M  V30 3611 H 337.813 -2.79649 4.75921 0
M  V30 3612 H 340.289 -3.03448 2.84708 0
M  V30 3613 H 339.165 -4.2937 3.41954 0
M  V30 3614 H 339.426 -4.08304 1.69531 0
M  V30 3615 N 338.485 -1.33259 -0.841409 0
M  V30 3616 C 339.433 -1.23279 -1.97244 0
M  V30 3617 C 340.427 -0.134706 -1.68864 0
M  V30 3618 O 341.633 -0.298501 -1.77508 0
M  V30 3619 H 338.008 -0.382497 -0.647457 0
M  V30 3620 H 339.979 -2.18906 -2.02787 0
M  V30 3621 C 338.728 -0.986268 -3.33419 0
M  V30 3622 H 338.051 -1.82347 -3.55794 0
M  V30 3623 H 339.491 -0.956728 -4.13065 0
M  V30 3624 C 337.95 0.310842 -3.35463 0
M  V30 3625 O 338.48 1.31838 -3.79449 0
M  V30 3626 N 336.686 0.337485 -2.88634 0
M  V30 3627 H 336.233 -0.482967 -2.53032 0
M  V30 3628 H 336.191 1.20518 -2.90384 0
M  V30 3629 N 339.963 1.05934 -1.16686 0
M  V30 3630 C 341.24 1.75643 -0.860747 0
M  V30 3631 C 341.62 2.01144 0.640641 0
M  V30 3632 O 340.968 1.64147 1.58959 0
M  V30 3633 C 341.178 3.05493 -1.68745 0
M  V30 3634 C 342.526 3.79581 -1.90271 0
M  V30 3635 O 343.55 3.15344 -1.65641 0
M  V30 3636 O 342.409 4.9499 -2.31618 0
M  V30 3637 H 339.503 0.763426 -0.317977 0
M  V30 3638 H 342.049 1.1217 -1.27342 0
M  V30 3639 H 340.821 2.8264 -2.70611 0
M  V30 3640 H 340.444 3.76702 -1.27206 0
M  V30 3641 N 341.441 0.965919 1.2453 0
M  V30 3642 C 342.389 0.486506 2.27455 0
M  V30 3643 C 343.383 -0.449041 1.6334 0
M  V30 3644 O 344.589 -0.324527 1.7705 0
M  V30 3645 H 340.964 0.138857 0.739069 0
M  V30 3646 H 342.935 1.3666 2.65267 0
M  V30 3647 C 341.684 -0.209481 3.47068 0
M  V30 3648 H 341.007 0.50129 3.96645 0
M  V30 3649 H 342.447 -0.508775 4.20936 0
M  V30 3650 C 340.906 -1.43586 3.0477 0
M  V30 3651 O 341.436 -2.53299 3.11773 0
M  V30 3652 N 339.642 -1.30126 2.59838 0
M  V30 3653 H 339.189 -0.408583 2.54339 0
M  V30 3654 H 339.147 -2.12294 2.31902 0
M  V30 3655 N 342.919 -1.39368 0.735821 0
M  V30 3656 C 344.147 -2.04795 0.294393 0
M  V30 3657 C 344.562 -1.55478 -1.07107 0
M  V30 3658 O 343.919 -0.720038 -1.67695 0
M  V30 3659 C 343.97 -3.6035 0.288071 0
M  V30 3660 O 343.691 -4.07852 1.59963 0
M  V30 3661 C 345.192 -4.42976 -0.169422 0
M  V30 3662 H 342.412 -0.658571 0.128551 0
M  V30 3663 H 344.956 -1.78399 0.999701 0
M  V30 3664 H 343.111 -3.85645 -0.368355 0
M  V30 3665 H 343.525 -5.02181 1.51375 0
M  V30 3666 H 344.999 -5.51864 -0.122687 0
M  V30 3667 H 345.476 -4.22068 -1.21472 0
M  V30 3668 H 346.082 -4.22832 0.457469 0
M  V30 3669 N 344.397 -0.483516 -1.5 0
M  V30 3670 C 345.344 0.304164 -2.28787 0
M  V30 3671 C 346.314 0.976114 -1.34392 0
M  V30 3672 O 347.499 0.986156 -1.63339 0
M  V30 3673 C 344.639 1.37298 -3.16612 0
M  V30 3674 C 343.752 0.714561 -4.26049 0
M  V30 3675 C 342.887 1.76232 -5.01114 0
M  V30 3676 C 341.926 1.08483 -6.0241 0
M  V30 3677 N 341.063 2.076 -6.70706 0
M  V30 3678 H 345.903 -0.373981 -2.95644 0
M  V30 3679 H 343.44 -0.196275 -1.45785 0
M  V30 3680 H 345.398 2.00445 -3.65893 0
M  V30 3681 H 344.028 2.02012 -2.51776 0
M  V30 3682 H 343.08 -0.0297798 -3.80388 0
M  V30 3683 H 344.392 0.180383 -4.98474 0
M  V30 3684 H 343.546 2.46929 -5.54176 0
M  V30 3685 H 342.285 2.33033 -4.28424 0
M  V30 3686 H 341.29 0.363545 -5.48597 0
M  V30 3687 H 342.515 0.523551 -6.77079 0
M  V30 3688 H 340.461 2.63394 -6.00799 0
M  V30 3689 H 340.378 1.59201 -7.39047 0
M  V30 3690 H 341.646 2.77639 -7.2838 0
M  V30 3691 N 345.875 1.56104 -0.216619 0
M  V30 3692 C 347.152 1.89988 0.465165 0
M  V30 3693 C 347.532 1.13326 1.78102 0
M  V30 3694 O 346.88 0.241033 2.27225 0
M  V30 3695 C 347.09 3.42646 0.662939 0
M  V30 3696 C 348.438 4.13311 0.972602 0
M  V30 3697 O 349.462 3.48217 0.749901 0
M  V30 3698 O 348.321 5.28396 1.39499 0
M  V30 3699 H 345.415 0.78979 0.245276 0
M  V30 3700 H 347.961 1.67721 -0.258436 0
M  V30 3701 H 346.733 3.90399 -0.26543 0
M  V30 3702 H 346.356 3.70677 1.43821 0
M  V30 3703 N 347.353 -0.0568162 1.57498 0
M  V30 3704 C 348.599 -0.748893 1.89111 0
M  V30 3705 C 348.954 -1.74422 0.81208 0
M  V30 3706 O 348.247 -1.90731 -0.182247 0
M  V30 3707 C 348.441 -1.48359 3.25153 0
M  V30 3708 C 348.27 -0.560924 4.46188 0
M  V30 3709 C 347.04 -0.192264 5.04934 0
M  V30 3710 C 349.238 0.148824 5.14085 0
M  V30 3711 N 347.22 0.734555 6.0949 0
M  V30 3712 C 348.591 0.932286 6.12951 0
M  V30 3713 C 350.646 0.218713 4.97419 0
M  V30 3714 C 349.349 1.77917 6.96949 0
M  V30 3715 C 351.375 1.05262 5.81957 0
M  V30 3716 C 350.737 1.82409 6.80372 0
M  V30 3717 H 346.836 -0.249002 0.741298 0
M  V30 3718 H 349.42 -0.00984926 1.94698 0
M  V30 3719 H 347.591 -2.19326 3.20547 0
M  V30 3720 H 349.323 -2.12586 3.44368 0
M  V30 3721 H 346.078 -0.548421 4.70414 0
M  V30 3722 H 346.502 1.19165 6.6643 0
M  V30 3723 H 351.144 -0.363407 4.21235 0
M  V30 3724 H 348.862 2.3722 7.72497 0
M  V30 3725 H 352.448 1.10987 5.71116 0
M  V30 3726 H 351.328 2.45895 7.44651 0
M  V30 3727 N 348.832 -1.54138 -0.328536 0
M  V30 3728 C 350.079 -1.72105 -1.06706 0
M  V30 3729 C 350.407 -0.492111 -1.88171 0
M  V30 3730 O 349.662 0.526153 -1.88494 0
M  V30 3731 C 349.961 -2.9457 -2.02393 0
M  V30 3732 C 349.627 -4.29544 -1.37122 0
M  V30 3733 C 348.289 -4.6624 -1.19052 0
M  V30 3734 C 350.641 -5.1333 -0.902331 0
M  V30 3735 C 347.969 -5.84325 -0.527331 0
M  V30 3736 C 350.321 -6.32094 -0.252988 0
M  V30 3737 C 348.985 -6.67473 -0.0600901 0
M  V30 3738 H 348.255 -0.629775 -0.390466 0
M  V30 3739 H 350.902 -1.88372 -0.34473 0
M  V30 3740 H 349.207 -2.72969 -2.81061 0
M  V30 3741 H 350.904 -3.05665 -2.59557 0
M  V30 3742 H 347.494 -4.0067 -1.52188 0
M  V30 3743 H 351.678 -4.855 -1.02974 0
M  V30 3744 H 346.934 -6.103 -0.366634 0
M  V30 3745 H 351.108 -6.96299 0.118366 0
M  V30 3746 H 348.735 -7.58832 0.455828 0
M  V30 3747 N 350.31 0.590341 -1.46126 0
M  V30 3748 C 351.556 1.35082 -1.51264 0
M  V30 3749 C 351.889 1.93534 -0.160711 0
M  V30 3750 O 351.164 1.76045 0.826956 0
M  V30 3751 C 351.447 2.48588 -2.6053 0
M  V30 3752 C 351.3 1.95221 -4.05227 0
M  V30 3753 C 352.619 3.50662 -2.6594 0
M  V30 3754 H 349.738 0.489803 -0.550692 0
M  V30 3755 H 352.38 0.663887 -1.78024 0
M  V30 3756 H 350.53 3.07186 -2.37843 0
M  V30 3757 H 352.202 1.41139 -4.39178 0
M  V30 3758 H 350.445 1.26101 -4.15068 0
M  V30 3759 H 351.116 2.77121 -4.77397 0
M  V30 3760 H 353.592 3.01934 -2.86313 0
M  V30 3761 H 352.468 4.27551 -3.44226 0
M  V30 3762 H 352.729 4.07399 -1.71694 0
M  V30 3763 N 351.788 1.33704 0.83433 0
M  V30 3764 C 352.735 1.24335 1.94447 0
M  V30 3765 C 353.705 0.120991 1.65659 0
M  V30 3766 O 354.89 0.300035 1.88426 0
M  V30 3767 C 352.03 0.993124 3.30501 0
M  V30 3768 C 351.143 2.20217 3.71657 0
M  V30 3769 C 350.278 1.88572 4.96602 0
M  V30 3770 C 349.317 3.05683 5.30306 0
M  V30 3771 N 348.454 2.73997 6.46429 0
M  V30 3772 H 353.294 2.1928 2.01792 0
M  V30 3773 H 350.831 1.09035 0.987404 0
M  V30 3774 H 352.789 0.828467 4.08892 0
M  V30 3775 H 351.419 0.0803902 3.227 0
M  V30 3776 H 350.471 2.47642 2.88752 0
M  V30 3777 H 351.783 3.07752 3.92543 0
M  V30 3778 H 350.937 1.68776 5.82752 0
M  V30 3779 H 349.676 0.982799 4.77695 0
M  V30 3780 H 348.681 3.26088 4.42659 0
M  V30 3781 H 349.906 3.96737 5.51159 0
M  V30 3782 H 347.852 1.86268 6.28999 0
M  V30 3783 H 347.769 3.55064 6.67432 0
M  V30 3784 H 349.037 2.57679 7.35678 0
M  V30 3785 N 353.266 -1.05314 1.17247 0
M  V30 3786 C 354.229 -2.112 0.890357 0
M  V30 3787 C 355.229 -1.60359 -0.118943 0
M  V30 3788 O 356.419 -1.73833 0.113086 0
M  V30 3789 C 353.551 -3.39266 0.333422 0
M  V30 3790 H 354.744 -2.37659 1.82916 0
M  V30 3791 H 352.297 -1.21538 0.982758 0
M  V30 3792 H 353.032 -3.18462 -0.612587 0
M  V30 3793 H 352.817 -3.77477 1.06082 0
M  V30 3794 H 354.307 -4.17315 0.154322 0
M  V30 3795 N 354.744 -0.972509 -1.24016 0
M  V30 3796 C 355.707 -0.511403 -2.23422 0
M  V30 3797 C 356.707 0.394679 -1.55881 0
M  V30 3798 O 357.897 0.189469 -1.73167 0
M  V30 3799 C 355.029 0.258769 -3.39916 0
M  V30 3800 H 356.222 -1.39024 -2.6573 0
M  V30 3801 H 353.775 -0.757585 -1.36713 0
M  V30 3802 H 354.51 1.1545 -3.03054 0
M  V30 3803 H 354.295 -0.391522 -3.9014 0
M  V30 3804 H 355.785 0.570244 -4.13688 0
M  V30 3805 N 356.222 1.38976 -0.743202 0
M  V30 3806 C 357.468 2.0064 -0.295189 0
M  V30 3807 C 357.801 1.5885 1.11716 0
M  V30 3808 O 357.076 0.821181 1.76315 0
M  V30 3809 C 357.359 3.578 -0.406318 0
M  V30 3810 C 357.212 4.09586 -1.85903 0
M  V30 3811 C 358.531 4.39616 0.206439 0
M  V30 3812 H 355.65 0.728935 -0.108733 0
M  V30 3813 H 358.292 1.65067 -0.940897 0
M  V30 3814 H 356.442 3.88235 0.143419 0
M  V30 3815 H 358.114 3.89837 -2.46627 0
M  V30 3816 H 356.357 3.6284 -2.3776 0
M  V30 3817 H 357.028 5.18708 -1.888 0
M  V30 3818 H 359.504 4.15273 -0.262283 0
M  V30 3819 H 358.38 5.48812 0.0983819 0
M  V30 3820 H 358.641 4.22754 1.2935 0
M  V30 3821 N 357.7 0.491464 1.49741 0
M  V30 3822 C 358.925 -0.0557177 2.07325 0
M  V30 3823 C 359.35 -1.30925 1.35056 0
M  V30 3824 O 358.708 -1.76733 0.404365 0
M  V30 3825 C 358.756 -0.302074 3.59333 0
M  V30 3826 O 357.86 -1.37868 3.88672 0
M  V30 3827 H 357.201 0.0219956 0.663636 0
M  V30 3828 H 359.731 0.688352 1.92673 0
M  V30 3829 H 359.741 -0.536464 4.04458 0
M  V30 3830 H 358.416 0.61383 4.11345 0
M  V30 3831 H 356.993 -1.12999 3.55367 0
M  V30 3832 N 359.178 -1.55987 0.224894 0
M  V30 3833 C 360.11 -2.17722 -0.716224 0
M  V30 3834 C 361.123 -1.14723 -1.15509 0
M  V30 3835 O 362.312 -1.41688 -1.08567 0
M  V30 3836 C 359.412 -2.74873 -1.98238 0
M  V30 3837 C 358.585 -4.03074 -1.69853 0
M  V30 3838 C 357.644 -4.44757 -2.81208 0
M  V30 3839 O 356.67 -5.11587 -2.49534 0
M  V30 3840 N 357.872 -4.10716 -4.10235 0
M  V30 3841 H 360.637 -2.99109 -0.188123 0
M  V30 3842 H 358.198 -1.6184 0.0440123 0
M  V30 3843 H 360.19 -2.99727 -2.7193 0
M  V30 3844 H 358.76 -1.9777 -2.42086 0
M  V30 3845 H 357.98 -3.86041 -0.797875 0
M  V30 3846 H 359.268 -4.86701 -1.48324 0
M  V30 3847 H 358.666 -3.57019 -4.38809 0
M  V30 3848 H 357.223 -4.40455 -4.80461 0
M  V30 3849 N 360.656 0.0484629 -1.57525 0
M  V30 3850 C 361.566 1.07241 -2.08654 0
M  V30 3851 C 362.582 1.409 -1.02095 0
M  V30 3852 O 363.758 1.50609 -1.33712 0
M  V30 3853 C 360.823 2.36008 -2.5397 0
M  V30 3854 C 359.884 2.09108 -3.7493 0
M  V30 3855 C 359.117 3.31736 -4.18075 0
M  V30 3856 O 359.34 4.41714 -3.60895 0
M  V30 3857 O 358.274 3.18576 -5.10679 0
M  V30 3858 H 362.1 0.667965 -2.96263 0
M  V30 3859 H 359.685 0.26417 -1.47046 0
M  V30 3860 H 361.567 3.11747 -2.83535 0
M  V30 3861 H 360.242 2.75786 -1.69481 0
M  V30 3862 H 359.149 1.31 -3.50414 0
M  V30 3863 H 360.482 1.74198 -4.60343 0
M  V30 3864 N 362.134 1.5431 0.320358 0
M  V30 3865 C 363.364 1.7638 1.07582 0
M  V30 3866 C 363.772 0.513944 1.82086 0
M  V30 3867 O 363.115 -0.525123 1.76035 0
M  V30 3868 C 363.177 2.9055 2.1171 0
M  V30 3869 C 362.841 4.2934 1.56575 0
M  V30 3870 C 363.838 5.10077 1.00586 0
M  V30 3871 C 361.523 4.75893 1.60722 0
M  V30 3872 C 363.517 6.35477 0.494756 0
M  V30 3873 C 361.204 6.0126 1.09224 0
M  V30 3874 C 362.202 6.80886 0.53696 0
M  V30 3875 O 361.89 8.03894 0.0297371 0
M  V30 3876 H 361.622 0.592369 0.325692 0
M  V30 3877 H 364.176 2.02019 0.37116 0
M  V30 3878 H 362.406 2.60489 2.85801 0
M  V30 3879 H 364.095 3.00373 2.73003 0
M  V30 3880 H 364.861 4.75265 0.966869 0
M  V30 3881 H 360.74 4.13957 2.02882 0
M  V30 3882 H 364.284 6.97574 0.0606842 0
M  V30 3883 H 360.181 6.35562 1.12831 0
M  V30 3884 H 360.949 8.18372 0.14486 0
M  V30 3885 N 363.613 -0.582584 1.46437 0
M  V30 3886 C 364.576 -1.67366 1.56592 0
M  V30 3887 C 365.576 -1.54575 0.443072 0
M  V30 3888 O 366.766 -1.59191 0.707381 0
M  V30 3889 C 363.898 -3.06791 1.48634 0
M  V30 3890 H 365.091 -1.5972 2.5383 0
M  V30 3891 H 362.644 -0.800432 1.34249 0
M  V30 3892 H 363.379 -3.19993 0.526763 0
M  V30 3893 H 363.164 -3.17484 2.30101 0
M  V30 3894 H 364.654 -3.86218 1.58826 0
M  V30 3895 N 365.091 -1.34144 -0.827227 0
M  V30 3896 C 366.368 -1.16844 -1.56865 0
M  V30 3897 C 366.748 0.260654 -2.09485 0
M  V30 3898 O 366.096 1.26138 -1.9053 0
M  V30 3899 C 366.306 -2.21939 -2.6934 0
M  V30 3900 C 367.654 -2.56695 -3.3822 0
M  V30 3901 O 368.678 -2.20695 -2.79593 0
M  V30 3902 O 367.537 -3.18518 -4.44082 0
M  V30 3903 H 364.631 -0.452669 -0.692112 0
M  V30 3904 H 367.177 -1.45763 -0.868973 0
M  V30 3905 H 365.949 -3.17882 -2.28182 0
M  V30 3906 H 365.572 -1.94172 -3.46962 0
M  V30 3907 N 366.569 1.04691 -1.17803 0
M  V30 3908 C 367.516 2.12557 -0.899343 0
M  V30 3909 C 368.486 1.65339 0.158771 0
M  V30 3910 O 369.671 1.90789 0.0204797 0
M  V30 3911 C 366.811 3.42481 -0.424315 0
M  V30 3912 C 365.924 4.03346 -1.54713 0
M  V30 3913 C 365.059 5.21208 -1.02546 0
M  V30 3914 C 364.098 5.74089 -2.12339 0
M  V30 3915 N 363.235 6.83247 -1.61612 0
M  V30 3916 H 368.075 2.35734 -1.823 0
M  V30 3917 H 365.612 1.1564 -0.909159 0
M  V30 3918 H 367.57 4.16996 -0.130421 0
M  V30 3919 H 366.2 3.19471 0.462377 0
M  V30 3920 H 365.252 3.2622 -1.95664 0
M  V30 3921 H 366.564 4.38628 -2.37501 0
M  V30 3922 H 365.718 6.02812 -0.685718 0
M  V30 3923 H 364.457 4.87414 -0.167084 0
M  V30 3924 H 363.462 4.91111 -2.47165 0
M  V30 3925 H 364.687 6.0993 -2.98601 0
M  V30 3926 H 362.633 6.5134 -0.780533 0
M  V30 3927 H 362.55 7.17559 -2.38003 0
M  V30 3928 H 363.818 7.68491 -1.30545 0
M  V30 3929 N 368.047 0.979072 1.23499 0
M  V30 3930 C 369.293 0.6578 1.9247 0
M  V30 3931 C 369.648 -0.799746 1.74991 0
M  V30 3932 O 368.941 -1.56922 1.09937 0
M  V30 3933 C 369.135 0.981932 3.43646 0
M  V30 3934 C 368.964 2.46944 3.75831 0
M  V30 3935 C 367.734 3.13119 3.96591 0
M  V30 3936 C 369.932 3.45006 3.81412 0
M  V30 3937 N 367.914 4.51489 4.15969 0
M  V30 3938 C 369.285 4.68778 4.05768 0
M  V30 3939 C 371.34 3.39505 3.64198 0
M  V30 3940 C 370.043 5.87723 4.14697 0
M  V30 3941 C 372.069 4.57814 3.7438 0
M  V30 3942 C 371.431 5.80381 3.99171 0
M  V30 3943 H 367.53 0.291746 0.72554 0
M  V30 3944 H 370.114 1.25626 1.48749 0
M  V30 3945 H 368.285 0.412179 3.86207 0
M  V30 3946 H 370.017 0.618068 3.99953 0
M  V30 3947 H 366.772 2.63619 3.93449 0
M  V30 3948 H 367.196 5.23221 4.29615 0
M  V30 3949 H 371.838 2.45773 3.44029 0
M  V30 3950 H 369.556 6.81874 4.33675 0
M  V30 3951 H 373.142 4.55132 3.62417 0
M  V30 3952 H 372.022 6.70398 4.06861 0
M  V30 3953 N 369.525 -1.3858 0.750561 0
M  V30 3954 C 370.941 -1.53759 0.427824 0
M  V30 3955 C 371.141 -1.71401 -1.05943 0
M  V30 3956 O 370.197 -1.72331 -1.84549 0
M  V30 3957 C 371.51 -2.74642 1.22443 0
M  V30 3958 C 373.058 -2.88489 1.2142 0
M  V30 3959 C 373.533 -4.12329 1.9937 0
M  V30 3960 N 375.024 -4.194 1.96616 0
M  V30 3961 C 375.759 -5.14209 2.53727 0
M  V30 3962 N 375.255 -6.14709 3.19539 0
M  V30 3963 N 377.048 -5.06537 2.43673 0
M  V30 3964 H 369.199 -1.25377 1.71447 0
M  V30 3965 H 371.462 -0.608844 0.726645 0
M  V30 3966 H 371.168 -2.68 2.27747 0
M  V30 3967 H 371.042 -3.67745 0.839273 0
M  V30 3968 H 373.429 -2.94614 0.169232 0
M  V30 3969 H 373.51 -1.96406 1.63885 0
M  V30 3970 H 373.154 -4.06966 3.03877 0
M  V30 3971 H 373.084 -5.03486 1.54302 0
M  V30 3972 H 375.575 -3.47421 1.48684 0
M  V30 3973 H 375.888 -6.8354 3.60545 0
M  V30 3974 H 374.233 -6.1505 3.23633 0
M  V30 3975 H 377.424 -4.26962 1.91889 0
M  V30 3976 H 377.597 -5.80245 2.88479 0
M  V30 3977 N 371.003 -0.499398 -1.49478 0
M  V30 3978 C 371.966 0.268838 -2.27618 0
M  V30 3979 C 372.966 0.895383 -1.33565 0
M  V30 3980 O 374.156 0.760164 -1.56739 0
M  V30 3981 C 371.288 1.38559 -3.11471 0
M  V30 3982 H 372.481 -0.416812 -2.96989 0
M  V30 3983 H 370.034 -0.254313 -1.54217 0
M  V30 3984 H 370.769 2.10544 -2.46661 0
M  V30 3985 H 370.554 0.941797 -3.80621 0
M  V30 3986 H 372.044 1.92678 -3.70493 0
M  V30 3987 N 372.481 1.55866 -0.233164 0
M  V30 3988 C 373.391 2.24431 0.683217 0
M  V30 3989 C 374.407 1.2558 1.2044 0
M  V30 3990 O 375.583 1.58422 1.24356 0
M  V30 3991 C 372.648 2.91979 1.86947 0
M  V30 3992 C 371.709 4.06204 1.38912 0
M  V30 3993 C 370.942 4.70522 2.51883 0
M  V30 3994 O 371.165 4.33865 3.70293 0
M  V30 3995 O 370.099 5.59296 2.22423 0
M  V30 3996 H 373.925 3.03426 0.129059 0
M  V30 3997 H 371.51 1.494 -0.0022283 0
M  V30 3998 H 373.392 3.34573 2.56201 0
M  V30 3999 H 372.067 2.15935 2.41151 0
M  V30 4000 H 370.974 3.68155 0.664259 0
M  V30 4001 H 372.307 4.84025 0.893328 0
M  V30 4002 N 373.959 -0.0401083 1.57549 0
M  V30 4003 C 375.205 -0.734211 1.89043 0
M  V30 4004 C 375.538 -1.75591 0.829535 0
M  V30 4005 O 374.813 -1.93868 -0.156706 0
M  V30 4006 C 375.096 -1.41374 3.31188 0
M  V30 4007 C 374.949 -0.406299 4.47961 0
M  V30 4008 C 376.268 -2.35061 3.72068 0
M  V30 4009 H 373.387 -0.265447 0.687537 0
M  V30 4010 H 376.029 0.00294087 1.9 0
M  V30 4011 H 374.179 -2.04206 3.30503 0
M  V30 4012 H 375.851 0.219255 4.60779 0
M  V30 4013 H 374.094 0.275485 4.32924 0
M  V30 4014 H 374.765 -0.920022 5.44279 0
M  V30 4015 H 377.241 -1.82282 3.74049 0
M  V30 4016 H 376.117 -2.79593 4.72355 0
M  V30 4017 H 376.378 -3.21258 3.0372 0
M  V30 4018 N 375.437 -1.54477 -0.31217 0
M  V30 4019 C 376.665 -1.77205 -1.068 0
M  V30 4020 C 377.08 -0.526114 -1.81321 0
M  V30 4021 O 376.437 0.503647 -1.75413 0
M  V30 4022 C 376.488 -2.97253 -2.05725 0
M  V30 4023 O 376.209 -4.1703 -1.34228 0
M  V30 4024 C 377.71 -3.32281 -2.93435 0
M  V30 4025 H 374.93 -0.591287 -0.317208 0
M  V30 4026 H 377.474 -2.01398 -0.354834 0
M  V30 4027 H 375.629 -2.753 -2.72559 0
M  V30 4028 H 376.043 -4.84636 -2.00571 0
M  V30 4029 H 377.517 -4.19551 -3.58721 0
M  V30 4030 H 377.994 -2.49945 -3.61143 0
M  V30 4031 H 378.6 -3.56353 -2.32147 0
M  V30 4032 N 376.915 0.57481 -1.46744 0
M  V30 4033 C 378.326 1.15695 -1.46532 0
M  V30 4034 C 378.677 1.95068 -0.210425 0
M  V30 4035 O 377.802 2.05241 0.685944 0
M  V30 4036 C 378.397 2.1048 -2.65487 0
M  V30 4037 C 376.956 2.64002 -2.68291 0
M  V30 4038 C 376.103 1.40026 -2.39349 0
M  V30 4039 H 379.054 0.362325 -1.54509 0
M  V30 4040 H 379.075 2.94074 -2.41455 0
M  V30 4041 H 378.587 1.52683 -3.56805 0
M  V30 4042 H 376.688 3.25646 -1.81067 0
M  V30 4043 H 376.801 3.06197 -3.68483 0
M  V30 4044 H 375.165 1.70106 -1.89568 0
M  V30 4045 H 375.948 0.840485 -3.32852 0
M  V30 4046 N 378.394 1.34581 0.820102 0
M  V30 4047 C 379.327 1.20735 1.93644 0
M  V30 4048 C 380.305 0.0983343 1.62302 0
M  V30 4049 O 381.489 0.263997 1.86642 0
M  V30 4050 C 378.616 0.856037 3.27704 0
M  V30 4051 C 377.662 1.97521 3.78005 0
M  V30 4052 S 378.495 3.58906 3.97425 0
M  V30 4053 C 379.651 3.25822 5.34407 0
M  V30 4054 H 379.884 2.15231 2.05093 0
M  V30 4055 H 377.417 1.1964 0.97599 0
M  V30 4056 H 379.375 0.660133 4.05157 0
M  V30 4057 H 378.036 -0.0706253 3.14021 0
M  V30 4058 H 377.229 1.68321 4.75062 0
M  V30 4059 H 376.831 2.12875 3.07507 0
M  V30 4060 H 379.123 2.77812 6.17922 0
M  V30 4061 H 380.066 4.22029 5.68592 0
M  V30 4062 H 380.474 2.61932 5.00052 0
M  V30 4063 N 379.872 -1.04064 1.18357 0
M  V30 4064 C 381.1 -1.80916 1.00384 0
M  V30 4065 C 381.515 -1.83414 -0.447738 0
M  V30 4066 O 380.872 -1.26962 -1.31099 0
M  V30 4067 C 380.923 -3.26516 1.55144 0
M  V30 4068 O 380.644 -3.2424 2.94618 0
M  V30 4069 C 382.145 -4.20013 1.41789 0
M  V30 4070 H 379.365 -0.569728 0.354474 0
M  V30 4071 H 381.909 -1.31151 1.56906 0
M  V30 4072 H 380.064 -3.73512 1.02798 0
M  V30 4073 H 380.478 -4.15452 3.20156 0
M  V30 4074 H 381.952 -5.20111 1.84901 0
M  V30 4075 H 382.429 -4.37667 0.36661 0
M  V30 4076 H 383.035 -3.78881 1.93207 0
M  V30 4077 N 381.35 -0.985608 -1.22978 0
M  V30 4078 C 382.598 -0.656087 -1.91154 0
M  V30 4079 C 382.919 0.813561 -1.77218 0
M  V30 4080 O 382.189 1.58244 -1.1548 0
M  V30 4081 H 380.769 -0.239674 -0.707506 0
M  V30 4082 H 383.431 -1.25054 -1.49491 0
M  V30 4083 H 382.527 -0.912253 -2.9847 0
M  V30 4084 N 382.828 1.3818 -0.7579 0
M  V30 4085 C 383.775 2.30416 -0.133057 0
M  V30 4086 C 384.745 1.50398 0.704957 0
M  V30 4087 O 385.93 1.79014 0.660192 0
M  V30 4088 C 383.07 3.36834 0.750813 0
M  V30 4089 C 382.183 4.31879 -0.102297 0
M  V30 4090 C 381.318 5.25368 0.784979 0
M  V30 4091 C 380.357 6.12058 -0.0715046 0
M  V30 4092 N 379.494 6.97832 0.772972 0
M  V30 4093 H 384.334 2.83274 -0.925186 0
M  V30 4094 H 381.871 1.39461 -0.467866 0
M  V30 4095 H 383.829 3.97145 1.27794 0
M  V30 4096 H 382.459 2.85374 1.50868 0
M  V30 4097 H 381.511 3.72991 -0.747095 0
M  V30 4098 H 382.823 4.92921 -0.763552 0
M  V30 4099 H 381.977 5.90818 1.37911 0
M  V30 4100 H 380.716 4.64703 1.47996 0
M  V30 4101 H 379.721 5.456 -0.678272 0
M  V30 4102 H 380.946 6.74793 -0.763606 0
M  V30 4103 H 378.892 6.3971 1.45282 0
M  V30 4104 H 378.809 7.55812 0.168709 0
M  V30 4105 H 380.077 7.67687 1.35194 0
M  V30 4106 N 384.306 0.507319 1.49211 0
M  V30 4107 C 385.722 0.163682 1.58758 0
M  V30 4108 C 385.922 -1.33208 1.51188 0
M  V30 4109 O 384.978 -2.10855 1.38911 0
M  V30 4110 C 386.291 0.746095 2.91297 0
M  V30 4111 C 387.839 0.712773 3.04776 0
M  V30 4112 C 388.314 1.27336 4.39943 0
M  V30 4113 N 389.805 1.23433 4.46451 0
M  V30 4114 C 390.54 1.63821 5.495 0
M  V30 4115 N 390.036 2.11832 6.5962 0
M  V30 4116 N 391.829 1.55198 5.4025 0
M  V30 4117 H 383.98 1.47972 1.52375 0
M  V30 4118 H 386.243 0.614147 0.722168 0
M  V30 4119 H 385.949 1.79534 3.02424 0
M  V30 4120 H 385.823 0.210137 3.76614 0
M  V30 4121 H 388.21 -0.327656 2.93275 0
M  V30 4122 H 388.291 1.28595 2.21127 0
M  V30 4123 H 387.935 2.3126 4.52196 0
M  V30 4124 H 387.865 0.676066 5.22242 0
M  V30 4125 H 390.356 0.882627 3.67448 0
M  V30 4126 H 390.669 2.40703 7.34358 0
M  V30 4127 H 389.014 2.1581 6.60644 0
M  V30 4128 H 392.205 1.17505 4.53112 0
M  V30 4129 H 392.378 1.86997 6.20432 0
M  V30 4130 N 385.784 -1.5574 0.241426 0
M  V30 4131 C 386.714 -2.24133 -0.654722 0
M  V30 4132 C 387.695 -1.21974 -1.1856 0
M  V30 4133 O 388.88 -1.50612 -1.22595 0
M  V30 4134 C 386.01 -2.93659 -1.85423 0
M  V30 4135 C 384.964 -4.0246 -1.45636 0
M  V30 4136 C 384.29 -4.59383 -2.73626 0
M  V30 4137 C 385.59 -5.18468 -0.631506 0
M  V30 4138 H 387.284 -2.99281 -0.0844353 0
M  V30 4139 H 384.83 -1.43947 -0.0391707 0
M  V30 4140 H 386.783 -3.40203 -2.48676 0
M  V30 4141 H 385.507 -2.15991 -2.44981 0
M  V30 4142 H 384.166 -3.56676 -0.847202 0
M  V30 4143 H 383.814 -3.78422 -3.3137 0
M  V30 4144 H 383.514 -5.32826 -2.4773 0
M  V30 4145 H 385.038 -5.08658 -3.37786 0
M  V30 4146 H 386.452 -5.61272 -1.1682 0
M  V30 4147 H 384.849 -5.98266 -0.468831 0
M  V30 4148 H 385.919 -4.8358 0.357506 0
M  V30 4149 N 387.262 0.0317525 -1.57568 0
M  V30 4150 C 388.195 1.06621 -2.0176 0
M  V30 4151 C 389.173 1.35323 -0.901462 0
M  V30 4152 O 390.357 1.48025 -1.16708 0
M  V30 4153 C 387.484 2.40155 -2.38837 0
M  V30 4154 C 386.53 2.27327 -3.60867 0
M  V30 4155 S 387.363 1.62925 -5.10113 0
M  V30 4156 C 388.519 2.97955 -5.5043 0
M  V30 4157 H 388.752 0.689781 -2.89187 0
M  V30 4158 H 386.285 0.24164 -1.52497 0
M  V30 4159 H 388.243 3.1695 -2.6087 0
M  V30 4160 H 386.904 2.74946 -1.51867 0
M  V30 4161 H 386.097 3.25898 -3.84456 0
M  V30 4162 H 385.699 1.58675 -3.38671 0
M  V30 4163 H 387.991 3.94285 -5.5095 0
M  V30 4164 H 388.934 2.79102 -6.50775 0
M  V30 4165 H 389.342 3.00404 -4.77931 0
M  V30 4166 N 388.74 1.54641 0.303973 0
M  V30 4167 C 390.017 1.64455 1.05896 0
M  V30 4168 C 390.397 0.490923 2.05312 0
M  V30 4169 O 389.745 -0.512685 2.22674 0
M  V30 4170 C 389.955 3.02331 1.74347 0
M  V30 4171 C 391.303 3.59045 2.26653 0
M  V30 4172 O 392.327 3.04764 1.84384 0
M  V30 4173 O 391.186 4.54081 3.04093 0
M  V30 4174 H 388.28 0.666729 0.489287 0
M  V30 4175 H 390.826 1.66986 0.302298 0
M  V30 4176 H 389.598 3.77734 1.02142 0
M  V30 4177 H 389.221 3.03565 2.56777 0
M  V30 4178 N 390.218 -0.567019 1.47046 0
M  V30 4179 C 391.181 -1.65696 1.58359 0
M  V30 4180 C 392.181 -1.54097 0.459441 0
M  V30 4181 O 393.371 -1.58432 0.724225 0
M  V30 4182 C 390.503 -3.05197 1.51879 0
M  V30 4183 H 391.696 -1.57019 2.5551 0
M  V30 4184 H 389.249 -0.786148 1.3509 0
M  V30 4185 H 389.984 -3.19417 0.560673 0
M  V30 4186 H 389.769 -3.15025 2.33455 0
M  V30 4187 H 391.259 -3.84511 1.62913 0
M  V30 4188 N 391.696 -1.35014 -0.812953 0
M  V30 4189 C 392.628 -1.23262 -1.93233 0
M  V30 4190 C 393.641 -0.157371 -1.62038 0
M  V30 4191 O 394.83 -0.410096 -1.73725 0
M  V30 4192 C 391.93 -0.87392 -3.27438 0
M  V30 4193 C 391.103 -2.04622 -3.86586 0
M  V30 4194 C 390.162 -1.66432 -4.99186 0
M  V30 4195 O 389.188 -2.38222 -5.16951 0
M  V30 4196 N 390.39 -0.584248 -5.77552 0
M  V30 4197 H 393.155 -2.19699 -2.03844 0
M  V30 4198 H 390.716 -1.281 -0.99005 0
M  V30 4199 H 392.708 -0.600039 -4.00227 0
M  V30 4200 H 391.278 0.00057392 -3.126 0
M  V30 4201 H 390.498 -2.48427 -3.06068 0
M  V30 4202 H 391.786 -2.82999 -4.22835 0
M  V30 4203 H 391.184 0.0123526 -5.65699 0
M  V30 4204 H 389.741 -0.37013 -6.50748 0
M  V30 4205 N 393.175 1.03435 -1.18907 0
M  V30 4206 C 394.591 1.28973 -0.940111 0
M  V30 4207 C 394.791 1.97676 0.390691 0
M  V30 4208 O 393.847 2.26127 1.12352 0
M  V30 4209 C 395.16 2.14221 -2.11021 0
M  V30 4210 C 396.708 2.27547 -2.14922 0
M  V30 4211 C 397.183 3.16164 -3.31367 0
M  V30 4212 N 398.674 3.23752 -3.31269 0
M  V30 4213 C 399.409 3.92495 -4.18014 0
M  V30 4214 N 398.905 4.63515 -5.14904 0
M  V30 4215 N 400.698 3.88838 -4.05908 0
M  V30 4216 H 392.849 0.57252 -2.04538 0
M  V30 4217 H 395.112 0.315184 -0.894071 0
M  V30 4218 H 394.818 1.71054 -3.073 0
M  V30 4219 H 394.692 3.14919 -2.0762 0
M  V30 4220 H 397.079 2.69947 -1.19217 0
M  V30 4221 H 397.16 1.26418 -2.22378 0
M  V30 4222 H 396.804 2.74474 -4.27348 0
M  V30 4223 H 396.734 4.17339 -3.21148 0
M  V30 4224 H 399.225 2.73167 -2.61129 0
M  V30 4225 H 399.538 5.13583 -5.77453 0
M  V30 4226 H 397.883 4.62398 -5.18857 0
M  V30 4227 H 401.074 3.32491 -3.29495 0
M  V30 4228 H 401.247 4.4214 -4.73726 0
M  V30 4229 N 394.653 0.992116 1.22453 0
M  V30 4230 C 395.899 0.668523 1.91464 0
M  V30 4231 C 396.232 -0.797313 1.77078 0
M  V30 4232 O 395.507 -1.5765 1.13916 0
M  V30 4233 C 395.79 1.07424 3.43703 0
M  V30 4234 C 395.643 2.59857 3.67143 0
M  V30 4235 C 396.962 0.626891 4.35612 0
M  V30 4236 H 394.081 0.244341 0.695318 0
M  V30 4237 H 396.723 1.2355 1.44345 0
M  V30 4238 H 394.873 0.591816 3.83966 0
M  V30 4239 H 396.545 3.15764 3.3629 0
M  V30 4240 H 394.788 3.01961 3.11451 0
M  V30 4241 H 395.459 2.83296 4.73759 0
M  V30 4242 H 397.935 1.04125 4.02861 0
M  V30 4243 H 396.811 0.939076 5.40807 0
M  V30 4244 H 397.072 -0.472457 4.39568 0
M  V30 4245 N 396.131 -1.37776 0.765217 0
M  V30 4246 C 397.359 -2.04124 0.337767 0
M  V30 4247 C 397.774 -1.57715 -1.03785 0
M  V30 4248 O 397.131 -0.755447 -1.6613 0
M  V30 4249 C 397.182 -3.59658 0.364442 0
M  V30 4250 O 396.903 -4.04367 1.68579 0
M  V30 4251 C 398.404 -4.43236 -0.0754221 0
M  V30 4252 H 395.624 -0.655696 0.142491 0
M  V30 4253 H 398.168 -1.76238 1.03732 0
M  V30 4254 H 396.323 -3.86339 -0.286471 0
M  V30 4255 H 396.737 -4.98857 1.61993 0
M  V30 4256 H 398.211 -5.52 -0.00560067 0
M  V30 4257 H 398.688 -4.2455 -1.12491 0
M  V30 4258 H 399.294 -4.21767 0.547055 0
M  V30 4259 N 397.609 -0.515225 -1.4894 0
M  V30 4260 C 398.572 0.244681 -2.2789 0
M  V30 4261 C 399.572 0.881166 -1.34507 0
M  V30 4262 O 400.762 0.743497 -1.57537 0
M  V30 4263 C 397.894 1.35247 -3.12923 0
M  V30 4264 H 399.087 -0.448289 -2.96531 0
M  V30 4265 H 396.64 -0.270656 -1.53939 0
M  V30 4266 H 397.375 2.07916 -2.48881 0
M  V30 4267 H 397.16 0.901374 -3.81599 0
M  V30 4268 H 398.65 1.88737 -3.72516 0
M  V30 4269 N 399.087 1.5561 -0.249682 0
M  V30 4270 C 400.335 1.98618 0.373548 0
M  V30 4271 C 400.656 1.13919 1.58264 0
M  V30 4272 O 399.926 0.222637 1.94631 0
M  V30 4273 H 398.506 0.733571 0.141006 0
M  V30 4274 H 401.168 1.91748 -0.349117 0
M  V30 4275 H 400.264 3.04584 0.680796 0
M  V30 4276 N 400.565 -0.0233959 1.57583 0
M  V30 4277 C 401.795 -0.723631 1.93513 0
M  V30 4278 C 402.203 -1.69115 0.848333 0
M  V30 4279 O 401.546 -1.82781 -0.183484 0
M  V30 4280 C 401.608 -1.53075 3.25282 0
M  V30 4281 C 401.272 -0.727388 4.51174 0
M  V30 4282 C 402.269 -0.0251924 5.19894 0
M  V30 4283 C 399.954 -0.680256 4.97672 0
M  V30 4284 C 401.948 0.713374 6.33395 0
M  V30 4285 C 399.635 0.0620523 6.11068 0
M  V30 4286 C 400.633 0.757622 6.78785 0
M  V30 4287 O 400.321 1.48787 7.90011 0
M  V30 4288 H 400.053 -0.208051 0.643188 0
M  V30 4289 H 402.607 0.0167489 2.05393 0
M  V30 4290 H 400.837 -2.31508 3.09744 0
M  V30 4291 H 402.526 -2.11413 3.46496 0
M  V30 4292 H 403.292 -0.0526003 4.84971 0
M  V30 4293 H 399.171 -1.21116 4.44805 0
M  V30 4294 H 402.715 1.25683 6.86185 0
M  V30 4295 H 398.612 0.0913634 6.45435 0
M  V30 4296 H 399.38 1.40213 8.06401 0
M  V30 4297 N 402.043 -1.548 -0.295768 0
M  V30 4298 C 403.292 -1.73538 -1.02798 0
M  V30 4299 C 403.605 -0.531159 -1.8825 0
M  V30 4300 O 404.811 -0.600458 -2.64777 0
M  V30 4301 C 403.267 -3.07051 -1.87744 0
M  V30 4302 C 402.875 -4.34968 -1.07269 0
M  V30 4303 C 404.619 -3.35146 -2.60533 0
M  V30 4304 C 402.526 -5.5953 -1.91521 0
M  V30 4305 H 401.456 -0.646794 -0.387522 0
M  V30 4306 H 404.107 -1.81278 -0.284718 0
M  V30 4307 H 402.489 -2.93289 -2.66078 0
M  V30 4308 H 403.663 -4.5958 -0.335117 0
M  V30 4309 H 401.978 -4.13847 -0.460384 0
M  V30 4310 H 404.575 -4.2541 -3.23929 0
M  V30 4311 H 404.918 -2.54255 -3.29636 0
M  V30 4312 H 405.451 -3.49902 -1.89244 0
M  V30 4313 H 402.19 -6.43103 -1.26878 0
M  V30 4314 H 401.71 -5.39096 -2.62937 0
M  V30 4315 H 403.389 -5.96982 -2.49442 0
M  V30 4316 N 403.521 0.559213 -1.47345 0
M  V30 4317 C 404.453 1.68161 -1.55738 0
M  V30 4318 C 405.466 1.56636 -0.443744 0
M  V30 4319 O 406.655 1.6363 -0.713258 0
M  V30 4320 C 403.755 3.06611 -1.4437 0
M  V30 4321 C 402.928 3.4391 -2.70268 0
M  V30 4322 C 401.987 4.61515 -2.52765 0
M  V30 4323 O 401.013 4.66197 -3.26572 0
M  V30 4324 N 402.215 5.57883 -1.6046 0
M  V30 4325 H 404.98 1.61408 -2.52522 0
M  V30 4326 H 402.541 0.7458 -1.43699 0
M  V30 4327 H 404.533 3.83117 -1.30398 0
M  V30 4328 H 403.103 3.07602 -0.556766 0
M  V30 4329 H 402.323 2.56873 -2.99015 0
M  V30 4330 H 403.611 3.65605 -3.53851 0
M  V30 4331 H 403.009 5.56855 -0.996422 0
M  V30 4332 H 401.566 6.33723 -1.52441 0
M  V30 4333 N 404.999 1.35443 0.805782 0
M  V30 4334 C 405.929 1.31095 1.93226 0
M  V30 4335 C 406.91 0.185244 1.69088 0
M  V30 4336 O 408.095 0.380332 1.90439 0
M  V30 4337 C 405.225 1.08299 3.29983 0
M  V30 4338 C 404.179 2.17519 3.68605 0
M  V30 4339 C 403.505 1.79887 5.03532 0
M  V30 4340 C 404.805 3.5949 3.78898 0
M  V30 4341 H 406.499 2.25352 1.97122 0
M  V30 4342 H 404.045 1.0848 0.946996 0
M  V30 4343 H 405.998 1.03897 4.08391 0
M  V30 4344 H 404.722 0.104885 3.26432 0
M  V30 4345 H 403.381 2.2102 2.92482 0
M  V30 4346 H 403.029 0.80693 4.96485 0
M  V30 4347 H 402.729 2.53001 5.30344 0
M  V30 4348 H 404.253 1.77011 5.84379 0
M  V30 4349 H 405.667 3.58307 4.47536 0
M  V30 4350 H 404.064 4.31371 4.1718 0
M  V30 4351 H 405.134 3.95584 2.80431 0
M  V30 4352 N 406.477 -1.02803 1.19454 0
M  V30 4353 C 407.723 -1.76598 1.0092 0
M  V30 4354 C 408.078 -1.86939 -0.455142 0
M  V30 4355 O 407.371 -1.37575 -1.33355 0
M  V30 4356 C 407.565 -3.18941 1.6128 0
M  V30 4357 C 407.394 -3.22476 3.13431 0
M  V30 4358 C 406.164 -3.30375 3.82336 0
M  V30 4359 C 408.362 -3.09451 4.10785 0
M  V30 4360 N 406.344 -3.23292 5.21877 0
M  V30 4361 C 407.715 -3.10012 5.36929 0
M  V30 4362 C 409.77 -2.93585 4.02135 0
M  V30 4363 C 408.473 -2.96334 6.55423 0
M  V30 4364 C 410.499 -2.81256 5.20239 0
M  V30 4365 C 409.861 -2.82472 6.45282 0
M  V30 4366 H 405.96 -0.657447 0.423424 0
M  V30 4367 H 408.544 -1.22369 1.5144 0
M  V30 4368 H 406.715 -3.71489 1.1336 0
M  V30 4369 H 408.447 -3.81102 1.36173 0
M  V30 4370 H 405.202 -3.3663 3.33132 0
M  V30 4371 H 405.626 -3.23156 5.94894 0
M  V30 4372 H 410.268 -2.91466 3.0628 0
M  V30 4373 H 407.986 -2.97203 7.51463 0
M  V30 4374 H 411.572 -2.70014 5.15348 0
M  V30 4375 H 410.452 -2.73036 7.35133 0
M  V30 4376 N 407.956 -0.998596 -1.21925 0
M  V30 4377 C 409.203 -0.677663 -1.90824 0
M  V30 4378 C 409.531 0.790905 -1.77693 0
M  V30 4379 O 408.786 1.58817 -1.14349 0
M  V30 4380 C 409.085 -1.03648 -3.42041 0
M  V30 4381 C 408.751 -2.49825 -3.75364 0
M  V30 4382 C 407.413 -2.8977 -3.8417 0
M  V30 4383 C 409.765 -3.44545 -3.91073 0
M  V30 4384 C 407.093 -4.23412 -4.06127 0
M  V30 4385 C 409.445 -4.77853 -4.14535 0
M  V30 4386 C 408.109 -5.17531 -4.21566 0
M  V30 4387 H 407.379 -0.247975 -0.698276 0
M  V30 4388 H 410.026 -1.25584 -1.44571 0
M  V30 4389 H 408.331 -0.376457 -3.89987 0
M  V30 4390 H 410.028 -0.766113 -3.93614 0
M  V30 4391 H 406.618 -2.17866 -3.69097 0
M  V30 4392 H 410.802 -3.14853 -3.83642 0
M  V30 4393 H 406.058 -4.53734 -4.09799 0
M  V30 4394 H 410.232 -5.51189 -4.25633 0
M  V30 4395 H 407.859 -6.21102 -4.38333 0
M  V30 4396 N 409.434 1.37368 -0.772513 0
M  V30 4397 C 410.711 1.93839 -0.26188 0
M  V30 4398 C 411.091 1.7061 1.24319 0
M  V30 4399 O 410.439 1.05534 2.02669 0
M  V30 4400 C 410.649 3.43154 -0.636102 0
M  V30 4401 C 411.997 4.20249 -0.606324 0
M  V30 4402 O 413.021 3.5152 -0.575538 0
M  V30 4403 O 411.88 5.42809 -0.634086 0
M  V30 4404 H 408.974 0.82478 -0.0605555 0
M  V30 4405 H 411.52 1.4665 -0.853917 0
M  V30 4406 H 410.292 3.53647 -1.6748 0
M  V30 4407 H 409.915 3.97596 -0.0170516 0
M  V30 4408 N 410.912 0.523116 1.48665 0
M  V30 4409 C 412.14 -0.0096312 2.06898 0
M  V30 4410 C 412.555 -1.28784 1.38059 0
M  V30 4411 O 411.912 -1.76453 0.465893 0
M  V30 4412 C 411.963 -0.244386 3.60673 0
M  V30 4413 O 411.684 0.983172 4.26925 0
M  V30 4414 C 413.185 -0.818289 4.35682 0
M  V30 4415 H 410.405 0.0304161 0.67031 0
M  V30 4416 H 412.949 0.726799 1.91149 0
M  V30 4417 H 411.104 -0.930847 3.76051 0
M  V30 4418 H 411.518 0.759653 5.1897 0
M  V30 4419 H 412.992 -0.93201 5.44075 0
M  V30 4420 H 413.469 -1.82153 3.99646 0
M  V30 4421 H 414.075 -0.168609 4.24966 0
M  V30 4422 N 412.39 -1.55475 0.257931 0
M  V30 4423 C 413.62 -2.03314 -0.367026 0
M  V30 4424 C 414.028 -1.13625 -1.51281 0
M  V30 4425 O 413.371 -0.145334 -1.83124 0
M  V30 4426 C 413.433 -3.47362 -0.926284 0
M  V30 4427 C 413.097 -4.56914 0.0886584 0
M  V30 4428 C 414.094 -5.12013 0.902123 0
M  V30 4429 C 411.779 -5.01827 0.217936 0
M  V30 4430 C 413.773 -6.10529 1.83122 0
M  V30 4431 C 411.46 -6.00172 1.15052 0
M  V30 4432 C 412.458 -6.54402 1.95568 0
M  V30 4433 O 412.146 -7.50827 2.87253 0
M  V30 4434 H 411.878 -0.669976 -0.0900443 0
M  V30 4435 H 414.432 -2.01804 0.382673 0
M  V30 4436 H 412.662 -3.46056 -1.72575 0
M  V30 4437 H 414.351 -3.78637 -1.46249 0
M  V30 4438 H 415.117 -4.78139 0.812891 0
M  V30 4439 H 410.996 -4.59272 -0.398721 0
M  V30 4440 H 414.54 -6.52783 2.46008 0
M  V30 4441 H 410.437 -6.33465 1.24064 0
M  V30 4442 H 411.205 -7.68483 2.81739 0
M  V30 4443 N 413.868 0.0150385 -1.57593 0
M  V30 4444 C 415.116 0.701613 -1.8953 0
M  V30 4445 C 415.437 1.75139 -0.857396 0
M  V30 4446 O 414.707 1.95607 0.107194 0
M  V30 4447 H 413.287 0.26213 -0.699498 0
M  V30 4448 H 415.949 -0.0223304 -1.94887 0
M  V30 4449 H 415.045 1.18236 -2.88837 0
M  V30 4450 N 415.346 1.54954 0.287554 0
M  V30 4451 C 416.623 1.65569 1.04146 0
M  V30 4452 C 417.003 0.512672 2.0478 0
M  V30 4453 O 416.351 -0.489038 2.23205 0
M  V30 4454 C 416.561 3.04163 1.71131 0
M  V30 4455 C 417.909 3.61429 2.22832 0
M  V30 4456 O 418.933 3.06702 1.81141 0
M  V30 4457 O 417.792 4.57281 2.9926 0
M  V30 4458 H 414.886 0.671881 0.482188 0
M  V30 4459 H 417.432 1.67297 0.28457 0
M  V30 4460 H 416.204 3.78796 0.981303 0
M  V30 4461 H 415.827 3.06271 2.53543 0
M  V30 4462 N 416.824 -0.551391 1.4764 0
M  V30 4463 C 418.24 -0.877887 1.33287 0
M  V30 4464 C 418.44 -1.98817 0.327721 0
M  V30 4465 O 417.496 -2.51171 -0.258695 0
M  V30 4466 C 418.809 -1.26563 2.72768 0
M  V30 4467 C 420.357 -1.37673 2.81097 0
M  V30 4468 C 420.832 -1.79799 4.21232 0
M  V30 4469 N 422.323 -1.8694 4.23802 0
M  V30 4470 C 423.058 -2.20876 5.29151 0
M  V30 4471 N 422.554 -2.53386 6.448 0
M  V30 4472 N 424.347 -2.217 5.16532 0
M  V30 4473 H 416.498 0.18153 2.11623 0
M  V30 4474 H 418.761 0.0185514 0.947818 0
M  V30 4475 H 418.467 -0.523591 3.47781 0
M  V30 4476 H 418.341 -2.22052 3.04915 0
M  V30 4477 H 420.728 -2.10956 2.06353 0
M  V30 4478 H 420.809 -0.40357 2.52596 0
M  V30 4479 H 420.453 -1.07083 4.96483 0
M  V30 4480 H 420.383 -2.78128 4.4716 0
M  V30 4481 H 422.874 -1.64179 3.40373 0
M  V30 4482 H 423.187 -2.78325 7.20941 0
M  V30 4483 H 421.532 -2.50953 6.48111 0
M  V30 4484 H 424.723 -1.95745 4.25207 0
M  V30 4485 H 424.896 -2.47818 5.98741 0
M  V30 4486 O 418.341 -1.45728 -0.696113 0
M  V30 4487 H 419.032 -1.39109 -1.3479 0
M  V30 END ATOM
M  V30 BEGIN BOND
M  V30 END BOND
M  V30 END CTAB
M  END
$$$$
