drugbank_target|P09788 4-cresol dehydrogenase [hydroxylating] flavoprotein subunit (DB03147)
 OpenBabel12092120263D

  0  0  0     0  0            999 V3000
M  V30 BEGIN CTAB
M  V30 COUNTS 8076 8174 0 0 0
M  V30 BEGIN ATOM
M  V30 1 H -0.908 1.98254 -0.117106 0
M  V30 2 N 0 1.576 0 0
M  V30 3 C 0.933 2.03868 1.02534 0
M  V30 4 C 1.911 0.928543 1.3348 0
M  V30 5 O 3.095 1.19667 1.45644 0
M  V30 6 C 0.222 2.43627 2.35294 0
M  V30 7 C -0.732 3.65373 2.2001 0
M  V30 8 S 0.101 5.13292 1.52614 0
M  V30 9 C 1.257 5.56322 2.86805 0
M  V30 10 H 1.49 2.90518 0.631377 0
M  V30 11 H -0.977 1.52953 0.210867 0
M  V30 12 H 0.981 2.67203 3.11629 0
M  V30 13 H -0.358 1.57376 2.7183 0
M  V30 14 H -1.165 3.90944 3.18086 0
M  V30 15 H -1.563 3.418 1.51819 0
M  V30 16 H 0.729 5.58782 3.83104 0
M  V30 17 H 1.672 6.56266 2.65933 0
M  V30 18 H 2.08 4.83886 2.90714 0
M  V30 19 N 1.4781 -0.272755 1.55222 0
M  V30 20 C 2.7031 -1.02683 1.80197 0
M  V30 21 C 3.1281 -1.79142 0.573551 0
M  V30 22 O 2.4861 -1.74917 -0.476849 0
M  V30 23 C 2.5341 -1.9609 3.02624 0
M  V30 24 O 1.6381 -3.04863 2.77727 0
M  V30 25 H 0.9791 -0.293557 0.595584 0
M  V30 26 H 3.5091 -0.30159 2.02365 0
M  V30 27 H 3.5191 -2.38039 3.31363 0
M  V30 28 H 2.1941 -1.39851 3.91682 0
M  V30 29 H 0.7711 -2.67228 2.60084 0
M  V30 30 N 2.9562 -1.48159 -0.537278 0
M  V30 31 C 3.8662 -1.64807 -1.6696 0
M  V30 32 C 4.8822 -0.530651 -1.65711 0
M  V30 33 O 6.0582 -0.800784 -1.84796 0
M  V30 34 C 3.1232 -1.67708 -3.03438 0
M  V30 35 C 2.1842 -2.91025 -3.156 0
M  V30 36 C 1.4172 -2.93778 -4.45567 0
M  V30 37 O 1.6402 -2.05153 -5.3223 0
M  V30 38 O 0.5742 -3.85868 -4.61941 0
M  V30 39 H 4.4002 -2.6066 -1.55853 0
M  V30 40 H 1.9852 -1.31475 -0.709549 0
M  V30 41 H 3.8672 -1.7218 -3.84619 0
M  V30 42 H 2.5422 -0.750278 -3.14885 0
M  V30 43 H 1.4492 -2.92089 -2.33741 0
M  V30 44 H 2.7822 -3.83065 -3.09066 0
M  V30 45 N 4.4343 0.785586 -1.36625 0
M  V30 46 C 5.3663 1.90711 -1.2713 0
M  V30 47 C 6.3793 1.61688 -0.189986 0
M  V30 48 O 7.5683 1.72864 -0.445014 0
M  V30 49 C 4.6683 3.25611 -0.939713 0
M  V30 50 C 3.8413 3.82385 -2.12369 0
M  V30 51 C 2.9003 4.95732 -1.76456 0
M  V30 52 O 1.9263 5.12047 -2.48589 0
M  V30 53 N 3.1283 5.76258 -0.700492 0
M  V30 54 H 5.8933 1.99376 -2.23762 0
M  V30 55 H 3.4543 0.964041 -1.30069 0
M  V30 56 H 5.4463 3.98937 -0.680554 0
M  V30 57 H 4.0163 3.12538 -0.0624074 0
M  V30 58 H 3.2363 3.01001 -2.54543 0
M  V30 59 H 4.5243 4.17047 -2.9146 0
M  V30 60 H 3.9223 5.65609 -0.101624 0
M  V30 61 H 2.4793 6.4987 -0.501165 0
M  V30 62 N 5.9124 1.20967 1.01018 0
M  V30 63 C 6.8604 0.961223 2.1181 0
M  V30 64 C 7.8544 -0.0897034 1.69162 0
M  V30 65 O 9.0604 0.0612271 1.79896 0
M  V30 66 H 5.4354 0.29355 0.692338 0
M  V30 67 H 7.4064 1.90178 2.29946 0
M  V30 68 C 6.1554 0.536854 3.4353 0
M  V30 69 H 5.4784 1.33713 3.76777 0
M  V30 70 H 6.9184 0.402286 4.22087 0
M  V30 71 C 5.3774 -0.751574 3.2841 0
M  V30 72 O 5.9074 -1.80841 3.58691 0
M  V30 73 N 4.1134 -0.716079 2.81639 0
M  V30 74 H 3.6604 0.144236 2.57196 0
M  V30 75 H 3.6184 -1.57847 2.71904 0
M  V30 76 N 7.3905 -1.2043 1.01659 0
M  V30 77 C 8.3385 -2.25249 0.580143 0
M  V30 78 C 9.3325 -1.65057 -0.381115 0
M  V30 79 O 10.5385 -1.78241 -0.251039 0
M  V30 80 H 6.9135 -0.732695 0.169299 0
M  V30 81 H 8.8845 -2.59389 1.47512 0
M  V30 82 C 7.6335 -3.47638 -0.065788 0
M  V30 83 H 6.9565 -3.94233 0.664874 0
M  V30 84 H 8.3965 -4.2268 -0.334282 0
M  V30 85 C 6.8555 -3.10447 -1.3086 0
M  V30 86 O 7.3855 -3.21981 -2.4019 0
M  V30 87 N 5.5915 -2.64996 -1.1927 0
M  V30 88 H 5.1385 -2.55811 -0.303064 0
M  V30 89 H 5.0965 -2.40482 -2.02523 0
M  V30 90 N 8.8686 -0.792821 -1.36206 0
M  V30 91 C 9.8316 -0.199459 -2.2833 0
M  V30 92 C 10.8316 0.605189 -1.48977 0
M  V30 93 O 12.0216 0.425685 -1.68919 0
M  V30 94 C 9.1536 0.723523 -3.33134 0
M  V30 95 H 10.3466 -1.01181 -2.82316 0
M  V30 96 H 7.8996 -0.562485 -1.45828 0
M  V30 97 H 8.6346 1.56008 -2.84309 0
M  V30 98 H 8.4196 0.148436 -3.91819 0
M  V30 99 H 9.9096 1.13344 -4.01924 0
M  V30 100 N 10.3467 1.47872 -0.545128 0
M  V30 101 C 11.5927 2.02793 -0.0166104 0
M  V30 102 C 11.9257 1.41987 1.32489 0
M  V30 103 O 11.2007 0.571045 1.85928 0
M  V30 104 C 11.4837 3.59989 0.0893294 0
M  V30 105 C 11.3367 4.3125 -1.27841 0
M  V30 106 C 12.6557 4.32606 0.808724 0
M  V30 107 H 9.7747 0.736962 -0.00751035 0
M  V30 108 H 12.4167 1.76433 -0.705085 0
M  V30 109 H 10.5667 3.82579 0.675681 0
M  V30 110 H 12.2387 4.20035 -1.90704 0
M  V30 111 H 10.4817 3.92076 -1.85632 0
M  V30 112 H 11.1527 5.39736 -1.15713 0
M  V30 113 H 13.6287 4.14936 0.310992 0
M  V30 114 H 12.5047 5.42251 0.851782 0
M  V30 115 H 12.7657 4.00963 1.86229 0
M  V30 116 N 11.8248 0.280983 1.55075 0
M  V30 117 C 12.7548 -0.597469 2.25727 0
M  V30 118 C 13.7358 -1.15417 1.24952 0
M  V30 119 O 14.9208 -1.18722 1.53684 0
M  V30 120 C 12.0508 -1.7789 2.98283 0
M  V30 121 C 11.0048 -1.35347 4.06036 0
M  V30 122 C 10.3308 -2.61846 4.66198 0
M  V30 123 C 11.6308 -0.499354 5.19907 0
M  V30 124 H 13.3248 -0.00824265 2.99399 0
M  V30 125 H 10.8708 -0.0025244 1.44 0
M  V30 126 H 12.8238 -2.39937 3.46422 0
M  V30 127 H 11.5478 -2.39405 2.22155 0
M  V30 128 H 10.2068 -0.756156 3.58717 0
M  V30 129 H 9.8548 -3.21632 3.86732 0
M  V30 130 H 9.5548 -2.3409 5.38958 0
M  V30 131 H 11.0788 -3.24732 5.1709 0
M  V30 132 H 12.4928 -1.02498 5.64063 0
M  V30 133 H 10.8898 -0.316424 5.99265 0
M  V30 134 H 11.9598 0.480459 4.82514 0
M  V30 135 N 13.3029 -1.57598 0.00835791 0
M  V30 136 C 14.7139 -1.7892 -0.53333 0
M  V30 137 C 15.0649 -0.916609 -1.73473 0
M  V30 138 O 14.1899 -0.121336 -2.1606 0
M  V30 139 C 14.7849 -3.24488 -0.974313 0
M  V30 140 C 13.3439 -3.46878 -1.46125 0
M  V30 141 C 12.4909 -2.74157 -0.416302 0
M  V30 142 H 15.4419 -1.56958 0.234495 0
M  V30 143 H 15.4629 -3.3306 -1.83988 0
M  V30 144 H 14.9749 -3.87972 -0.099718 0
M  V30 145 H 13.0759 -2.8862 -2.35646 0
M  V30 146 H 13.1889 -4.55572 -1.48295 0
M  V30 147 H 11.5529 -2.39022 -0.87981 0
M  V30 148 H 12.3359 -3.40345 0.44947 0
M  V30 149 N 14.781 0.264519 -1.55364 0
M  V30 150 C 15.728 1.32717 -1.88825 0
M  V30 151 C 16.698 1.48675 -0.740605 0
M  V30 152 O 17.883 1.62945 -0.992657 0
M  V30 153 C 15.023 2.68089 -2.17307 0
M  V30 154 C 14.136 2.60284 -3.44785 0
M  V30 155 C 13.271 3.87892 -3.62924 0
M  V30 156 C 12.31 3.74631 -4.84064 0
M  V30 157 N 11.447 4.94092 -4.98816 0
M  V30 158 H 16.287 1.03481 -2.79456 0
M  V30 159 H 13.824 0.499757 -1.3835 0
M  V30 160 H 15.782 3.46864 -2.31821 0
M  V30 161 H 14.412 2.95509 -1.299 0
M  V30 162 H 13.464 1.73173 -3.38697 0
M  V30 163 H 14.776 2.46388 -4.33698 0
M  V30 164 H 13.93 4.75109 -3.77302 0
M  V30 165 H 12.669 4.04664 -2.7221 0
M  V30 166 H 11.674 2.85797 -4.69681 0
M  V30 167 H 12.899 3.5937 -5.76221 0
M  V30 168 H 10.845 5.11259 -4.11036 0
M  V30 169 H 10.762 4.8276 -5.81789 0
M  V30 170 H 12.03 5.82857 -5.17588 0
M  V30 171 N 16.2591 1.48442 0.529413 0
M  V30 172 C 17.5071 1.56179 1.28267 0
M  V30 173 C 17.8281 0.237721 1.93546 0
M  V30 174 O 17.0981 -0.740779 1.81354 0
M  V30 175 H 15.6781 0.575367 0.476405 0
M  V30 176 H 18.3401 1.84909 0.61602 0
M  V30 177 H 17.4361 2.34312 2.06165 0
M  V30 178 N 17.7372 -0.778329 1.37039 0
M  V30 179 C 18.9832 -1.53892 1.32079 0
M  V30 180 C 19.3162 -1.9396 -0.0965386 0
M  V30 181 O 18.5912 -1.63568 -1.05242 0
M  V30 182 C 18.8742 -2.80847 2.25382 0
M  V30 183 C 18.7272 -2.47076 3.75864 0
M  V30 184 C 20.0462 -3.82741 2.1725 0
M  V30 185 H 17.1652 -0.558303 0.48111 0
M  V30 186 H 19.8072 -0.893397 1.67685 0
M  V30 187 H 17.9572 -3.35931 1.95148 0
M  V30 188 H 19.6292 -1.97957 4.16666 0
M  V30 189 H 17.8722 -1.79863 3.94755 0
M  V30 190 H 18.5432 -3.37798 4.36574 0
M  V30 191 H 21.0192 -3.37133 2.43887 0
M  V30 192 H 19.8952 -4.69303 2.84686 0
M  V30 193 H 20.1562 -4.2652 1.16331 0
M  V30 194 N 19.2153 -1.21501 -1.00376 0
M  V30 195 C 20.4433 -1.059 -1.77744 0
M  V30 196 C 20.8583 0.391125 -1.84704 0
M  V30 197 O 20.2153 1.27133 -1.30933 0
M  V30 198 C 20.2663 -1.65111 -3.21591 0
M  V30 199 O 19.9873 -3.0445 -3.15027 0
M  V30 200 C 21.4883 -1.54637 -4.15454 0
M  V30 201 H 18.7083 -0.371825 -0.558558 0
M  V30 202 H 21.2523 -1.60865 -1.26264 0
M  V30 203 H 19.4073 -1.14235 -3.70175 0
M  V30 204 H 19.8213 -3.3278 -4.0541 0
M  V30 205 H 21.2953 -2.00808 -5.14179 0
M  V30 206 H 21.7723 -0.501022 -4.36333 0
M  V30 207 H 22.3783 -2.04767 -3.72761 0
M  V30 208 N 20.6934 1.19889 -1.02296 0
M  V30 209 C 21.6254 2.22334 -0.556787 0
M  V30 210 C 22.6384 1.58674 0.364199 0
M  V30 211 O 23.8274 1.77768 0.161533 0
M  V30 212 C 20.9274 3.38257 0.208694 0
M  V30 213 C 20.1004 4.31504 -0.71577 0
M  V30 214 C 19.1594 5.262 0.00325597 0
M  V30 215 O 18.1854 5.65798 -0.621357 0
M  V30 216 N 19.3874 5.66303 1.27599 0
M  V30 217 H 22.1524 2.62957 -1.43784 0
M  V30 218 H 19.7134 1.34495 -0.901261 0
M  V30 219 H 21.7054 3.98616 0.699111 0
M  V30 220 H 20.2754 2.96472 0.991102 0
M  V30 221 H 19.4954 3.69016 -1.38638 0
M  V30 222 H 20.7834 4.9072 -1.34428 0
M  V30 223 H 20.1814 5.36155 1.80429 0
M  V30 224 H 18.7384 6.28942 1.71102 0
M  V30 225 N 22.1715 0.800033 1.35784 0
M  V30 226 C 23.4195 0.376597 1.9856 0
M  V30 227 C 23.7405 -1.05812 1.63795 0
M  V30 228 O 23.0105 -1.73103 0.917171 0
M  V30 229 H 21.5905 0.136261 0.734467 0
M  V30 230 H 24.2525 1.02442 1.65806 0
M  V30 231 H 23.3485 0.477002 3.08433 0
M  V30 232 N 23.6496 -1.47581 0.552962 0
M  V30 233 C 24.5596 -2.33743 -0.200353 0
M  V30 234 C 25.5756 -1.47928 -0.916151 0
M  V30 235 O 26.7516 -1.80865 -0.885993 0
M  V30 236 C 23.8166 -3.24536 -1.21973 0
M  V30 237 C 22.8776 -4.26238 -0.511819 0
M  V30 238 C 22.1106 -5.12693 -1.48263 0
M  V30 239 O 22.3336 -5.01525 -2.71714 0
M  V30 240 O 21.2676 -5.93375 -1.00945 0
M  V30 241 H 25.0936 -2.9945 0.506304 0
M  V30 242 H 22.6786 -1.46071 0.313622 0
M  V30 243 H 24.5606 -3.80631 -1.80827 0
M  V30 244 H 23.2356 -2.61462 -1.90839 0
M  V30 245 H 22.1426 -3.73914 0.117799 0
M  V30 246 H 23.4756 -4.92014 0.135308 0
M  V30 247 N 25.1277 -0.289203 -1.54924 0
M  V30 248 C 26.3747 0.323519 -1.99899 0
M  V30 249 C 26.7027 1.54797 -1.17762 0
M  V30 250 O 25.9577 1.94237 -0.238835 0
M  V30 251 C 26.2567 0.736119 -3.49737 0
M  V30 252 C 25.9227 -0.385276 -4.49251 0
M  V30 253 C 24.5847 -0.693156 -4.76181 0
M  V30 254 C 26.9367 -1.14021 -5.08575 0
M  V30 255 C 24.2647 -1.7593 -5.59701 0
M  V30 256 C 26.6167 -2.19619 -5.93254 0
M  V30 257 C 25.2807 -2.51026 -6.185 0
M  V30 258 H 24.5507 0.118384 -0.731482 0
M  V30 259 H 27.1977 -0.405847 -1.8715 0
M  V30 260 H 25.5027 1.54539 -3.60035 0
M  V30 261 H 27.1997 1.22118 -3.81953 0
M  V30 262 H 23.7897 -0.135202 -4.28387 0
M  V30 263 H 27.9737 -0.915611 -4.87781 0
M  V30 264 H 23.2297 -2.0075 -5.77503 0
M  V30 265 H 27.4037 -2.78581 -6.38252 0
M  V30 266 H 25.0307 -3.33772 -6.83008 0
M  V30 267 N 26.6058 1.57591 -0.0167156 0
M  V30 268 C 27.5538 2.10604 0.987353 0
M  V30 269 C 28.5478 1.02977 1.34507 0
M  V30 270 O 29.7538 1.21425 1.32875 0
M  V30 271 H 26.1288 0.672695 0.336134 0
M  V30 272 H 28.0998 2.93925 0.514817 0
M  V30 273 C 26.8488 2.6382 2.26483 0
M  V30 274 H 26.1718 3.46278 1.99829 0
M  V30 275 H 27.6118 3.04573 2.94977 0
M  V30 276 C 26.0708 1.55992 2.9861 0
M  V30 277 O 26.6008 0.952521 3.90243 0
M  V30 278 N 24.8068 1.28335 2.60727 0
M  V30 279 H 24.3538 1.77914 1.86291 0
M  V30 280 H 24.3118 0.564115 3.09298 0
M  V30 281 N 28.0839 -0.256276 1.55502 0
M  V30 282 C 29.0309 -1.31714 1.89526 0
M  V30 283 C 30.0009 -1.4828 0.748479 0
M  V30 284 O 31.1859 -1.62416 1.00128 0
M  V30 285 C 28.3259 -2.66933 2.18725 0
M  V30 286 C 27.4389 -2.58452 3.4616 0
M  V30 287 C 26.5739 -3.85961 3.64976 0
M  V30 288 C 25.6129 -3.72059 4.86044 0
M  V30 289 N 24.7499 -4.9144 5.01429 0
M  V30 290 H 29.5899 -1.01998 2.80001 0
M  V30 291 H 27.1269 -0.492413 1.38613 0
M  V30 292 H 29.0849 -3.4563 2.33657 0
M  V30 293 H 27.7149 -2.94816 1.31466 0
M  V30 294 H 26.7669 -1.71374 3.3961 0
M  V30 295 H 28.0789 -2.44085 4.34999 0
M  V30 296 H 27.2329 -4.73101 3.79816 0
M  V30 297 H 25.9719 -4.03215 2.74353 0
M  V30 298 H 24.9769 -2.83302 4.7119 0
M  V30 299 H 26.2019 -3.56309 5.78118 0
M  V30 300 H 24.1479 -5.09072 4.13741 0
M  V30 301 H 24.0649 -4.79668 5.84341 0
M  V30 302 H 25.3329 -5.80104 5.20672 0
M  V30 303 N 29.562 -1.4872 -0.521534 0
M  V30 304 C 30.525 -1.63379 -1.60748 0
M  V30 305 C 31.525 -0.50661 -1.52611 0
M  V30 306 O 32.715 -0.772601 -1.5613 0
M  V30 307 C 29.847 -1.61192 -3.00383 0
M  V30 308 H 31.04 -2.60217 -1.49087 0
M  V30 309 H 28.593 -1.37444 -0.744235 0
M  V30 310 H 29.328 -0.65863 -3.17541 0
M  V30 311 H 29.113 -2.43032 -3.07698 0
M  V30 312 H 30.603 -1.7466 -3.7932 0
M  V30 313 N 31.0401 0.771051 -1.3745 0
M  V30 314 C 32.2861 1.5319 -1.32894 0
M  V30 315 C 32.6191 1.94008 0.0862511 0
M  V30 316 O 31.8941 1.64124 1.04373 0
M  V30 317 C 32.1771 2.79648 -2.26868 0
M  V30 318 C 32.0301 2.45079 -3.77169 0
M  V30 319 C 33.3491 3.81583 -2.19277 0
M  V30 320 H 30.4681 0.555744 -0.484064 0
M  V30 321 H 33.1101 0.884492 -1.68157 0
M  V30 322 H 31.2601 3.34891 -1.96926 0
M  V30 323 H 32.9321 1.95745 -4.1771 0
M  V30 324 H 31.1751 1.77767 -3.95704 0
M  V30 325 H 31.8461 3.35478 -4.38359 0
M  V30 326 H 34.3221 3.35835 -2.45671 0
M  V30 327 H 33.1981 4.67787 -2.87171 0
M  V30 328 H 33.4591 4.25897 -1.18592 0
M  V30 329 N 32.5182 1.22032 0.997298 0
M  V30 330 C 33.4502 0.944263 2.08845 0
M  V30 331 C 34.4632 -0.0754663 1.62625 0
M  V30 332 O 35.6522 0.157994 1.77799 0
M  V30 333 C 32.7522 0.397723 3.36558 0
M  V30 334 C 31.9252 1.47362 4.11829 0
M  V30 335 C 30.9842 0.934951 5.17827 0
M  V30 336 O 30.0102 1.62016 5.45655 0
M  V30 337 N 31.2122 -0.245895 5.79979 0
M  V30 338 H 33.9772 1.88363 2.33109 0
M  V30 339 H 31.5382 1.12661 1.16272 0
M  V30 340 H 33.5302 0.0227771 4.04694 0
M  V30 341 H 32.1002 -0.446646 3.09393 0
M  V30 342 H 31.3202 2.02208 3.38386 0
M  V30 343 H 32.6082 2.19764 4.58891 0
M  V30 344 H 32.0062 -0.819475 5.59733 0
M  V30 345 H 30.5632 -0.562272 6.4937 0
M  V30 346 N 33.9963 -1.19345 1.0293 0
M  V30 347 C 34.9433 -2.2258 0.610464 0
M  V30 348 C 35.9133 -1.6179 -0.375946 0
M  V30 349 O 37.0983 -1.88844 -0.272511 0
M  V30 350 C 34.2383 -3.45085 -0.0321473 0
M  V30 351 C 33.3513 -4.20258 1.00035 0
M  V30 352 C 32.4863 -5.3019 0.32746 0
M  V30 353 C 31.5253 -5.97121 1.34584 0
M  V30 354 N 30.6623 -6.98615 0.698726 0
M  V30 355 H 35.5023 -2.57764 1.49538 0
M  V30 356 H 33.0393 -1.26644 0.748311 0
M  V30 357 H 34.9973 -4.15061 -0.421966 0
M  V30 358 H 33.6273 -3.10555 -0.88064 0
M  V30 359 H 32.6793 -3.49223 1.50823 0
M  V30 360 H 33.9913 -4.66175 1.77433 0
M  V30 361 H 33.1453 -6.06587 -0.11718 0
M  V30 362 H 31.8843 -4.85345 -0.478713 0
M  V30 363 H 30.8893 -5.19474 1.80074 0
M  V30 364 H 32.1143 -6.4405 2.15352 0
M  V30 365 H 30.0603 -6.55942 -0.0873471 0
M  V30 366 H 29.9773 -7.42724 1.41058 0
M  V30 367 H 31.2453 -7.79004 0.278102 0
M  V30 368 N 35.4744 -0.807222 -1.35358 0
M  V30 369 C 36.7214 -0.387888 -1.9875 0
M  V30 370 C 37.0494 1.04509 -1.64037 0
M  V30 371 O 36.3044 1.73986 -0.895946 0
M  V30 372 C 36.6034 -0.519036 -3.53611 0
M  V30 373 C 36.2694 -1.91542 -4.08194 0
M  V30 374 C 34.9314 -2.29745 -4.22813 0
M  V30 375 C 37.2834 -2.82896 -4.37744 0
M  V30 376 C 34.6114 -3.58668 -4.643 0
M  V30 377 C 36.9634 -4.11265 -4.8067 0
M  V30 378 C 35.6274 -4.49466 -4.93494 0
M  V30 379 H 34.8974 -0.141938 -0.727279 0
M  V30 380 H 37.5444 -1.02814 -1.6156 0
M  V30 381 H 35.8494 0.204658 -3.91265 0
M  V30 382 H 37.5464 -0.175345 -4.00616 0
M  V30 383 H 34.1364 -1.60862 -3.97268 0
M  V30 384 H 38.3204 -2.54629 -4.26002 0
M  V30 385 H 33.5764 -3.88113 -4.72418 0
M  V30 386 H 37.7504 -4.82153 -5.02496 0
M  V30 387 H 35.3774 -5.49418 -5.25399 0
M  V30 388 N 36.9525 1.47285 -0.560781 0
M  V30 389 C 38.3685 1.58065 -0.22081 0
M  V30 390 C 38.5685 1.55892 1.27671 0
M  V30 391 O 37.6245 1.46422 2.0571 0
M  V30 392 C 38.9375 2.88418 -0.850625 0
M  V30 393 C 40.4855 3.02009 -0.822184 0
M  V30 394 C 40.9605 4.35066 -1.43113 0
M  V30 395 N 42.4515 4.41711 -1.39448 0
M  V30 396 C 43.1865 5.43237 -1.83525 0
M  V30 397 N 42.6825 6.51555 -2.35474 0
M  V30 398 N 44.4755 5.34304 -1.74574 0
M  V30 399 H 36.6265 1.46941 -1.53369 0
M  V30 400 H 38.8895 0.699558 -0.639783 0
M  V30 401 H 38.5955 2.95755 -1.9032 0
M  V30 402 H 38.4695 3.75612 -0.345773 0
M  V30 403 H 40.8565 2.94266 0.221714 0
M  V30 404 H 40.9375 2.16347 -1.36483 0
M  V30 405 H 40.5815 4.43565 -2.47412 0
M  V30 406 H 40.5115 5.19465 -0.863899 0
M  V30 407 H 43.0025 3.64027 -1.01452 0
M  V30 408 H 43.3155 7.25203 -2.67021 0
M  V30 409 H 41.6605 6.52435 -2.39487 0
M  V30 410 H 44.8515 4.48581 -1.33763 0
M  V30 411 H 45.0245 6.13288 -2.09242 0
M  V30 412 N 38.4306 0.297415 1.54768 0
M  V30 413 C 39.3936 -0.567375 2.22066 0
M  V30 414 C 40.3936 -1.06409 1.20556 0
M  V30 415 O 41.5836 -0.960691 1.45315 0
M  V30 416 C 38.7156 -1.78517 2.90421 0
M  V30 417 H 39.9086 0.0205534 2.99893 0
M  V30 418 H 37.4616 0.0482163 1.56226 0
M  V30 419 H 38.1966 -2.41303 2.16664 0
M  V30 420 H 37.9816 -1.43669 3.64831 0
M  V30 421 H 39.4716 -2.39964 3.41771 0
M  V30 422 N 39.9087 -1.5758 0.0250728 0
M  V30 423 C 40.8387 -2.13007 -0.956575 0
M  V30 424 C 41.8197 -1.0452 -1.342 0
M  V30 425 O 43.0047 -1.32332 -1.42133 0
M  V30 426 C 40.1347 -2.65386 -2.24026 0
M  V30 427 C 39.0887 -3.78623 -1.99571 0
M  V30 428 C 38.4147 -4.17414 -3.3417 0
M  V30 429 C 39.7147 -5.04867 -1.33814 0
M  V30 430 H 41.4087 -2.9528 -0.494991 0
M  V30 431 H 38.9547 -1.42042 -0.236651 0
M  V30 432 H 40.9077 -3.02794 -2.93076 0
M  V30 433 H 39.6317 -1.80268 -2.72343 0
M  V30 434 H 38.2907 -3.41646 -1.32941 0
M  V30 435 H 37.9387 -3.29284 -3.80238 0
M  V30 436 H 37.6387 -4.93719 -3.18615 0
M  V30 437 H 39.1627 -4.57402 -4.04495 0
M  V30 438 H 40.5767 -5.39888 -1.92857 0
M  V30 439 H 38.9737 -5.86144 -1.28669 0
M  V30 440 H 40.0437 -4.83904 -0.310561 0
M  V30 441 N 41.3868 0.248026 -1.55636 0
M  V30 442 C 42.3168 1.31079 -1.93237 0
M  V30 443 C 43.2978 1.50264 -0.797174 0
M  V30 444 O 44.4828 1.62891 -1.05737 0
M  V30 445 C 41.6128 2.66575 -2.22609 0
M  V30 446 C 40.5668 2.62087 -3.3837 0
M  V30 447 C 39.8928 4.01369 -3.53281 0
M  V30 448 C 41.1928 2.19171 -4.7409 0
M  V30 449 H 42.8868 0.998556 -2.82257 0
M  V30 450 H 40.4328 0.47891 -1.35803 0
M  V30 451 H 42.3858 3.41057 -2.47503 0
M  V30 452 H 41.1098 2.99432 -1.30414 0
M  V30 453 H 39.7688 1.90063 -3.13483 0
M  V30 454 H 39.4168 4.31489 -2.58508 0
M  V30 455 H 39.1168 3.99254 -4.31127 0
M  V30 456 H 40.6408 4.77552 -3.80495 0
M  V30 457 H 42.0548 2.83384 -4.98363 0
M  V30 458 H 40.4518 2.2817 -5.5503 0
M  V30 459 H 41.5218 1.14336 -4.71227 0
M  V30 460 N 42.8649 1.48995 0.513639 0
M  V30 461 C 44.1129 1.57531 1.26604 0
M  V30 462 C 44.4339 0.258236 1.93283 0
M  V30 463 O 43.7039 -0.721502 1.8213 0
M  V30 464 H 42.2839 0.580387 0.470276 0
M  V30 465 H 44.9459 1.85552 0.596373 0
M  V30 466 H 44.0419 2.36486 2.03669 0
M  V30 467 N 44.343 -0.763751 1.37857 0
M  V30 468 C 45.62 -1.51244 1.24035 0
M  V30 469 C 46 -2.10472 -0.162649 0
M  V30 470 O 45.348 -1.96206 -1.17112 0
M  V30 471 C 45.558 -2.58694 2.34261 0
M  V30 472 C 46.906 -3.25878 2.72193 0
M  V30 473 O 47.93 -2.68993 2.33497 0
M  V30 474 O 46.789 -4.2874 3.38887 0
M  V30 475 H 43.883 -0.670243 0.484462 0
M  V30 476 H 46.429 -0.800031 1.49658 0
M  V30 477 H 45.201 -2.13105 3.2818 0
M  V30 478 H 44.824 -3.37527 2.10146 0
M  V30 479 N 45.8211 -1.22559 -0.990812 0
M  V30 480 C 47.0981 -0.959875 -1.70428 0
M  V30 481 C 47.4781 0.524455 -2.04481 0
M  V30 482 O 46.8261 1.49302 -1.72977 0
M  V30 483 C 47.0361 -1.85955 -2.95333 0
M  V30 484 C 48.3841 -2.11687 -3.68068 0
M  V30 485 O 49.4081 -1.8342 -3.05345 0
M  V30 486 O 48.2671 -2.59572 -4.80921 0
M  V30 487 H 45.3611 -0.361154 -0.743974 0
M  V30 488 H 47.9071 -1.33554 -1.04697 0
M  V30 489 H 46.6791 -2.86346 -2.66687 0
M  V30 490 H 46.3021 -1.4856 -3.68803 0
M  V30 491 N 47.2992 1.18797 -1.03562 0
M  V30 492 C 48.2472 2.24297 -0.615905 0
M  V30 493 C 49.2412 1.65643 0.354808 0
M  V30 494 O 50.4472 1.78618 0.22265 0
M  V30 495 H 46.8222 0.729909 -0.180934 0
M  V30 496 H 48.7932 2.5701 -1.5162 0
M  V30 497 C 47.5422 3.47698 0.0104735 0
M  V30 498 H 46.8652 3.93125 -0.727509 0
M  V30 499 H 48.3052 4.23159 0.266995 0
M  V30 500 C 46.7642 3.12489 1.25905 0
M  V30 501 O 47.2942 3.25761 2.35038 0
M  V30 502 N 45.5002 2.6686 1.15039 0
M  V30 503 H 45.0472 2.56261 0.262328 0
M  V30 504 H 45.0052 2.43674 1.98672 0
M  V30 505 N 48.7773 0.814389 1.34928 0
M  V30 506 C 50.0233 0.399013 1.98836 0
M  V30 507 C 50.3563 -1.03314 1.64438 0
M  V30 508 O 49.6313 -1.71811 0.911659 0
M  V30 509 C 49.9143 0.591629 3.55207 0
M  V30 510 C 49.7673 2.06928 3.99376 0
M  V30 511 C 51.0863 0.022199 4.40094 0
M  V30 512 H 48.2053 0.146451 0.722303 0
M  V30 513 H 50.8473 1.02537 1.59957 0
M  V30 514 H 48.9973 0.0584441 3.88456 0
M  V30 515 H 50.6693 2.66544 3.76499 0
M  V30 516 H 48.9123 2.56287 3.49999 0
M  V30 517 H 49.5833 2.1549 5.08201 0
M  V30 518 H 52.0593 0.477643 4.13349 0
M  V30 519 H 50.9353 0.186832 5.48582 0
M  V30 520 H 51.1963 -1.07215 4.28902 0
M  V30 521 N 50.2554 -1.46986 0.568584 0
M  V30 522 C 51.1854 -2.32946 -0.160753 0
M  V30 523 C 52.1664 -1.44487 -0.897631 0
M  V30 524 O 53.3514 -1.73327 -0.875867 0
M  V30 525 C 50.4814 -3.26494 -1.18403 0
M  V30 526 C 49.4354 -4.24282 -0.562895 0
M  V30 527 C 48.7614 -5.07236 -1.69163 0
M  V30 528 C 50.0614 -5.19989 0.490761 0
M  V30 529 H 51.7554 -2.94175 0.556916 0
M  V30 530 H 49.3014 -1.4146 0.26927 0
M  V30 531 H 51.2544 -3.85477 -1.70251 0
M  V30 532 H 49.9784 -2.63343 -1.93179 0
M  V30 533 H 48.6374 -3.66541 -0.0656164 0
M  V30 534 H 48.2854 -4.4048 -2.42871 0
M  V30 535 H 47.9854 -5.7345 -1.28174 0
M  V30 536 H 49.5094 -5.6908 -2.21314 0
M  V30 537 H 50.9234 -5.73271 0.0579047 0
M  V30 538 H 49.3204 -5.94469 0.820165 0
M  V30 539 H 50.3904 -4.64777 1.3824 0
M  V30 540 N 51.7335 -0.305618 -1.54608 0
M  V30 541 C 52.9795 0.302746 -2.00528 0
M  V30 542 C 53.3125 1.53184 -1.19367 0
M  V30 543 O 52.5875 1.92598 -0.271321 0
M  V30 544 C 52.8705 0.654756 -3.54097 0
M  V30 545 C 52.7235 -0.583793 -4.45995 0
M  V30 546 C 54.0425 1.47947 -4.14487 0
M  V30 547 H 51.1615 0.108564 -0.72896 0
M  V30 548 H 53.8035 -0.418634 -1.85331 0
M  V30 549 H 51.9535 1.26935 -3.67178 0
M  V30 550 H 53.6255 -1.22224 -4.44814 0
M  V30 551 H 51.8685 -1.21615 -4.16404 0
M  V30 552 H 52.5395 -0.293287 -5.5122 0
M  V30 553 H 55.0155 0.96013 -4.04871 0
M  V30 554 H 53.8915 1.69454 -5.22088 0
M  V30 555 H 54.1525 2.47011 -3.66658 0
M  V30 556 N 53.2116 1.57565 -0.0334293 0
M  V30 557 C 54.1216 2.13943 0.962572 0
M  V30 558 C 55.1376 1.09276 1.35406 0
M  V30 559 O 56.3136 1.41355 1.4346 0
M  V30 560 C 53.3786 2.65887 2.22497 0
M  V30 561 C 52.4396 3.85286 1.8935 0
M  V30 562 C 51.6726 4.34743 3.09571 0
M  V30 563 O 51.8956 3.83352 4.22371 0
M  V30 564 O 50.8296 5.26538 2.91618 0
M  V30 565 H 54.6556 2.99333 0.513169 0
M  V30 566 H 52.2406 1.4822 0.18743 0
M  V30 567 H 54.1226 2.99346 2.96598 0
M  V30 568 H 52.7976 1.83578 2.6661 0
M  V30 569 H 51.7046 3.56746 1.1262 0
M  V30 570 H 53.0376 4.68771 1.5005 0
M  V30 571 N 54.6897 -0.239769 1.55765 0
M  V30 572 C 55.9147 -0.988373 1.82335 0
M  V30 573 C 56.3397 -1.77886 0.611421 0
M  V30 574 O 55.6977 -1.75889 -0.439639 0
M  V30 575 C 55.7457 -1.89627 3.06715 0
M  V30 576 O 54.8497 -2.98904 2.84131 0
M  V30 577 H 54.1907 -0.280858 0.601677 0
M  V30 578 H 56.7207 -0.258597 2.02959 0
M  V30 579 H 56.7307 -2.30957 3.36338 0
M  V30 580 H 55.4057 -1.31511 3.9456 0
M  V30 581 H 53.9827 -2.61651 2.65694 0
M  V30 582 N 56.1678 -1.49265 -0.50573 0
M  V30 583 C 57.4448 -1.49012 -1.26707 0
M  V30 584 C 57.8248 -0.215205 -2.1 0
M  V30 585 O 57.1728 0.802547 -2.13943 0
M  V30 586 C 57.3828 -2.7663 -2.12783 0
M  V30 587 C 58.7308 -3.25932 -2.72127 0
M  V30 588 O 59.7548 -2.77715 -2.23054 0
M  V30 589 O 58.6138 -4.09897 -3.61451 0
M  V30 590 H 55.7078 -0.596197 -0.57313 0
M  V30 591 H 58.2538 -1.61524 -0.52039 0
M  V30 592 H 57.0258 -3.60916 -1.5118 0
M  V30 593 H 56.6488 -2.66956 -2.94653 0
M  V30 594 N 57.6459 0.756429 -1.3826 0
M  V30 595 C 58.5779 1.87971 -1.31147 0
M  V30 596 C 59.5909 1.61248 -0.224239 0
M  V30 597 O 60.7799 1.71881 -0.481581 0
M  V30 598 C 57.8799 3.23545 -1.00857 0
M  V30 599 C 57.0529 3.77794 -2.20432 0
M  V30 600 C 56.1119 4.91877 -1.86931 0
M  V30 601 O 55.1379 5.06659 -2.59395 0
M  V30 602 N 56.3399 5.74643 -0.822568 0
M  V30 603 H 59.1049 1.94585 -2.2794 0
M  V30 604 H 56.6659 0.936234 -1.32084 0
M  V30 605 H 58.6579 3.97403 -0.765021 0
M  V30 606 H 57.2279 3.12335 -0.128687 0
M  V30 607 H 56.4479 2.95534 -2.6087 0
M  V30 608 H 57.7359 4.10771 -3.00241 0
M  V30 609 H 57.1339 5.65266 -0.221575 0
M  V30 610 H 55.6909 6.48661 -0.638899 0
M  V30 611 N 59.124 1.23083 0.984299 0
M  V30 612 C 60.054 1.03292 2.09411 0
M  V30 613 C 61.035 -0.048923 1.7003 0
M  V30 614 O 62.22 0.114967 1.93859 0
M  V30 615 C 59.35 0.619155 3.41736 0
M  V30 616 C 58.304 1.64791 3.95004 0
M  V30 617 C 57.63 1.0897 5.23478 0
M  V30 618 C 58.93 3.03999 4.24714 0
M  V30 619 H 60.624 1.96119 2.26225 0
M  V30 620 H 58.17 0.944344 1.08711 0
M  V30 621 H 60.123 0.467777 4.18796 0
M  V30 622 H 58.847 -0.344786 3.24775 0
M  V30 623 H 57.506 1.78721 3.20085 0
M  V30 624 H 57.154 0.11686 5.02864 0
M  V30 625 H 56.854 1.77704 5.60085 0
M  V30 626 H 58.378 0.950093 6.03163 0
M  V30 627 H 59.792 2.93393 4.92538 0
M  V30 628 H 58.189 3.69936 4.72512 0
M  V30 629 H 59.259 3.53285 3.32142 0
M  V30 630 N 60.6021 -1.18246 1.0419 0
M  V30 631 C 61.8481 -1.88536 0.747122 0
M  V30 632 C 62.1811 -1.80223 -0.723409 0
M  V30 633 O 61.4561 -1.20337 -1.52804 0
M  V30 634 C 61.7391 -3.38968 1.21544 0
M  V30 635 C 61.5921 -3.56084 2.74816 0
M  V30 636 C 62.9111 -4.32648 0.806482 0
M  V30 637 H 60.0301 -0.684619 0.272883 0
M  V30 638 H 62.6721 -1.39113 1.29413 0
M  V30 639 H 60.8221 -3.8119 0.750081 0
M  V30 640 H 62.4941 -3.22946 3.29399 0
M  V30 641 H 60.7371 -2.98699 3.14582 0
M  V30 642 H 61.4081 -4.61639 3.02644 0
M  V30 643 H 63.8841 -3.98211 1.20695 0
M  V30 644 H 62.7601 -5.36462 1.1619 0
M  V30 645 H 63.0211 -4.41146 -0.29029 0
M  V30 646 N 62.0802 -0.821533 -1.34494 0
M  V30 647 C 63.4912 -0.467956 -1.8074 0
M  V30 648 C 63.8422 1.01151 -1.68116 0
M  V30 649 O 62.9672 1.78707 -1.22036 0
M  V30 650 C 63.5622 -0.842627 -3.28154 0
M  V30 651 C 62.1212 -0.541439 -3.72485 0
M  V30 652 C 61.2682 -1.06028 -2.56229 0
M  V30 653 H 64.2192 -1.01183 -1.22261 0
M  V30 654 H 64.2402 -0.145876 -3.8022 0
M  V30 655 H 63.7522 -1.91945 -3.37311 0
M  V30 656 H 61.8532 0.526034 -3.68868 0
M  V30 657 H 61.9662 -1.08453 -4.66663 0
M  V30 658 H 60.3302 -0.481892 -2.501 0
M  V30 659 H 61.1132 -2.14352 -2.68157 0
M  V30 660 N 63.5583 1.46682 -0.576371 0
M  V30 661 C 64.7883 2.06498 -0.0648694 0
M  V30 662 C 65.1963 1.42665 1.24271 0
M  V30 663 O 64.5393 0.523886 1.76071 0
M  V30 664 C 64.6013 3.5904 0.181816 0
M  V30 665 C 64.2653 4.45028 -1.0392 0
M  V30 666 C 65.2623 4.81959 -1.94966 0
M  V30 667 C 62.9473 4.86259 -1.25927 0
M  V30 668 C 64.9413 5.58942 -3.06371 0
M  V30 669 C 62.6283 5.63002 -2.37638 0
M  V30 670 C 63.6263 5.99257 -3.2769 0
M  V30 671 O 63.3143 6.7445 -4.37461 0
M  V30 672 H 63.0463 0.674028 -0.0515987 0
M  V30 673 H 65.6003 1.89393 -0.794951 0
M  V30 674 H 63.8303 3.74429 0.966436 0
M  V30 675 H 65.5193 4.00806 0.641047 0
M  V30 676 H 66.2853 4.50689 -1.79177 0
M  V30 677 H 62.1643 4.57494 -0.567448 0
M  V30 678 H 65.7083 5.87158 -3.76684 0
M  V30 679 H 61.6053 5.93686 -2.53392 0
M  V30 680 H 62.3733 6.92867 -4.35749 0
M  V30 681 N 65.0364 0.313813 1.54444 0
M  V30 682 C 65.9844 -0.572171 2.25453 0
M  V30 683 C 66.9784 -1.12657 1.2651 0
M  V30 684 O 68.1844 -1.07573 1.44319 0
M  V30 685 H 64.5594 -0.203146 0.724041 0
M  V30 686 H 66.5304 0.0491145 2.9836 0
M  V30 687 C 65.2794 -1.72626 3.0182 0
M  V30 688 H 64.6024 -1.30891 3.77767 0
M  V30 689 H 66.0424 -2.32199 3.54767 0
M  V30 690 C 64.5014 -2.63806 2.09542 0
M  V30 691 O 65.0314 -3.65256 1.67185 0
M  V30 692 N 63.2374 -2.31824 1.75232 0
M  V30 693 H 62.7844 -1.49368 2.09873 0
M  V30 694 H 62.7424 -2.93095 1.13767 0
M  V30 695 N 66.5145 -1.57545 0.0417849 0
M  V30 696 C 67.4615 -2.10977 -0.935805 0
M  V30 697 C 68.4315 -1.01486 -1.31491 0
M  V30 698 O 69.6165 -1.2898 -1.40602 0
M  V30 699 C 66.7565 -2.65169 -2.2086 0
M  V30 700 C 65.8695 -3.88714 -1.88482 0
M  V30 701 C 65.0045 -4.31254 -3.1015 0
M  V30 702 C 64.0435 -5.47524 -2.7365 0
M  V30 703 N 63.1805 -5.85162 -3.87982 0
M  V30 704 H 68.0205 -2.94218 -0.473249 0
M  V30 705 H 65.5575 -1.45415 -0.221981 0
M  V30 706 H 67.5155 -2.94685 -2.95325 0
M  V30 707 H 66.1455 -1.8474 -2.64709 0
M  V30 708 H 65.1975 -3.65849 -1.04205 0
M  V30 709 H 66.5095 -4.73245 -1.57608 0
M  V30 710 H 65.6635 -4.62273 -3.92923 0
M  V30 711 H 64.4025 -3.45516 -3.44195 0
M  V30 712 H 63.4075 -5.16187 -1.89291 0
M  V30 713 H 64.6325 -6.34971 -2.40807 0
M  V30 714 H 62.5785 -5.02377 -4.21846 0
M  V30 715 H 62.4955 -6.64362 -3.60775 0
M  V30 716 H 63.7635 -6.20791 -4.71422 0
M  V30 717 N 67.9926 0.231505 -1.5589 0
M  V30 718 C 69.2416 0.955346 -1.7764 0
M  V30 719 C 69.5546 1.85893 -0.608546 0
M  V30 720 O 70.7606 2.62067 -0.70943 0
M  V30 721 C 69.2166 1.74886 -3.14552 0
M  V30 722 C 68.8246 0.891915 -4.39032 0
M  V30 723 C 70.5686 2.46452 -3.45633 0
M  V30 724 C 68.4756 1.68221 -5.66971 0
M  V30 725 H 67.4056 0.360446 -0.662265 0
M  V30 726 H 70.0566 0.209516 -1.823 0
M  V30 727 H 68.4386 2.53723 -3.04041 0
M  V30 728 H 69.6126 0.144793 -4.60572 0
M  V30 729 H 67.9276 0.288863 -4.15397 0
M  V30 730 H 70.5246 3.06061 -4.38441 0
M  V30 731 H 70.8676 3.18841 -2.67668 0
M  V30 732 H 71.4006 1.74613 -3.57428 0
M  V30 733 H 68.1396 1.00178 -6.478 0
M  V30 734 H 67.6596 2.4042 -5.49507 0
M  V30 735 H 69.3386 2.24544 -6.06786 0
M  V30 736 N 69.4707 1.49531 0.497807 0
M  V30 737 C 70.4037 1.61043 1.6168 0
M  V30 738 C 71.3817 0.459386 1.55976 0
M  V30 739 O 72.5657 0.675358 1.75986 0
M  V30 740 C 69.6927 1.56833 3.00202 0
M  V30 741 C 68.7387 2.77173 3.24156 0
M  V30 742 S 69.5717 4.38808 3.06933 0
M  V30 743 C 70.7277 4.37248 4.47845 0
M  V30 744 H 70.9607 2.55702 1.51671 0
M  V30 745 H 68.4937 1.38462 0.683201 0
M  V30 746 H 70.4517 1.55089 3.80076 0
M  V30 747 H 69.1127 0.634561 3.07623 0
M  V30 748 H 68.3057 2.70456 4.25288 0
M  V30 749 H 67.9077 2.76346 2.5201 0
M  V30 750 H 70.1997 4.09164 5.39992 0
M  V30 751 H 71.1427 5.38668 4.59612 0
M  V30 752 H 71.5507 3.67286 4.28674 0
M  V30 753 N 70.9488 -0.749086 1.3866 0
M  V30 754 C 71.8818 -1.87111 1.30631 0
M  V30 755 C 72.8598 -1.61572 0.18251 0
M  V30 756 O 74.0438 -1.85019 0.360592 0
M  V30 757 C 71.1708 -3.22815 1.02511 0
M  V30 758 C 70.2168 -3.67234 2.1689 0
M  V30 759 S 71.0498 -3.78245 3.79066 0
M  V30 760 C 72.2058 -5.16761 3.53142 0
M  V30 761 H 72.4388 -1.93636 2.25594 0
M  V30 762 H 69.9718 -0.912525 1.24549 0
M  V30 763 H 71.9298 -4.01181 0.869701 0
M  V30 764 H 70.5908 -3.13964 0.0925884 0
M  V30 765 H 69.7838 -4.65677 1.92771 0
M  V30 766 H 69.3858 -2.96034 2.28561 0
M  V30 767 H 71.6778 -6.02656 3.09534 0
M  V30 768 H 72.6208 -5.45902 4.50995 0
M  V30 769 H 73.0288 -4.85771 2.87554 0
M  V30 770 N 72.4269 -1.23603 -0.977757 0
M  V30 771 C 73.8379 -1.06424 -1.53398 0
M  V30 772 C 74.1889 0.367578 -1.92726 0
M  V30 773 O 73.3139 1.25465 -1.76316 0
M  V30 774 C 73.9089 -1.92568 -2.78753 0
M  V30 775 C 72.4679 -1.79642 -3.30765 0
M  V30 776 C 71.6149 -1.88111 -2.03739 0
M  V30 777 H 74.5659 -1.37227 -0.797152 0
M  V30 778 H 74.5869 -1.45203 -3.51705 0
M  V30 779 H 74.0989 -2.96771 -2.50098 0
M  V30 780 H 72.1999 -0.782325 -3.64294 0
M  V30 781 H 72.3129 -2.63174 -4.00345 0
M  V30 782 H 70.6769 -1.31723 -2.17994 0
M  V30 783 H 71.4599 -2.93875 -1.77461 0
M  V30 784 N 73.905 1.17692 -1.04816 0
M  V30 785 C 75.151 1.88137 -0.75711 0
M  V30 786 C 75.484 1.80604 0.713841 0
M  V30 787 O 74.759 1.21146 1.52164 0
M  V30 788 C 75.042 3.38318 -1.2334 0
M  V30 789 C 74.895 3.54622 -2.76701 0
M  V30 790 C 76.214 4.32214 -0.829415 0
M  V30 791 H 73.333 0.683163 -0.27651 0
M  V30 792 H 75.975 1.38424 -1.30149 0
M  V30 793 H 74.125 3.80787 -0.770286 0
M  V30 794 H 75.797 3.21194 -3.31107 0
M  V30 795 H 74.04 2.97026 -3.16161 0
M  V30 796 H 74.711 4.60028 -3.05088 0
M  V30 797 H 77.187 3.97565 -1.22805 0
M  V30 798 H 76.063 5.35838 -1.19033 0
M  V30 799 H 76.324 4.41294 0.266891 0
M  V30 800 N 75.3831 0.828654 1.34056 0
M  V30 801 C 76.2931 0.256725 2.33191 0
M  V30 802 C 77.3091 -0.611898 1.62886 0
M  V30 803 O 78.4851 -0.51844 1.94613 0
M  V30 804 C 75.5501 -0.567238 3.42028 0
M  V30 805 C 74.6111 0.324458 4.28072 0
M  V30 806 C 73.8441 -0.460274 5.31712 0
M  V30 807 O 74.0671 -1.693 5.44696 0
M  V30 808 O 73.0011 0.160391 6.01686 0
M  V30 809 H 76.8271 1.07739 2.83947 0
M  V30 810 H 74.4121 0.59093 1.37217 0
M  V30 811 H 76.2941 -1.03582 4.08471 0
M  V30 812 H 74.9691 -1.36513 2.93506 0
M  V30 813 H 73.8761 0.840659 3.64532 0
M  V30 814 H 75.2091 1.08685 4.8005 0
M  V30 815 N 76.8612 -1.46375 0.584142 0
M  V30 816 C 77.8092 -2.32042 -0.161047 0
M  V30 817 C 78.8032 -1.44569 -0.882966 0
M  V30 818 O 80.0092 -1.61186 -0.801191 0
M  V30 819 H 76.3842 -0.748659 -0.0708033 0
M  V30 820 H 78.3552 -2.92704 0.580269 0
M  V30 821 C 77.1042 -3.27762 -1.1605 0
M  V30 822 H 76.4272 -3.95051 -0.614419 0
M  V30 823 H 77.8672 -3.90481 -1.65228 0
M  V30 824 C 76.3262 -2.53218 -2.22221 0
M  V30 825 O 76.8562 -2.29628 -3.29597 0
M  V30 826 N 75.0622 -2.13756 -1.96868 0
M  V30 827 H 74.6092 -2.33142 -1.09557 0
M  V30 828 H 74.5672 -1.642 -2.68115 0
M  V30 829 N 78.3393 -0.321999 -1.54275 0
M  V30 830 C 79.3023 0.531975 -2.22941 0
M  V30 831 C 80.3023 1.04478 -1.22234 0
M  V30 832 O 81.4923 0.937452 -1.46825 0
M  V30 833 C 78.6243 1.73874 -2.93224 0
M  V30 834 H 79.8173 -0.0682612 -2.99822 0
M  V30 835 H 77.3703 -0.0730644 -1.56129 0
M  V30 836 H 78.1053 2.37825 -2.20476 0
M  V30 837 H 77.8903 1.37847 -3.6707 0
M  V30 838 H 79.3803 2.34496 -3.45545 0
M  V30 839 N 79.8174 1.5752 -0.0501392 0
M  V30 840 C 80.7804 2.1037 0.909786 0
M  V30 841 C 81.7804 1.02308 1.24056 0
M  V30 842 O 82.9704 1.28385 1.17741 0
M  V30 843 C 80.1024 2.58708 2.21998 0
M  V30 844 H 81.2954 2.96479 0.451665 0
M  V30 845 H 78.8484 1.55038 0.198248 0
M  V30 846 H 79.5834 1.75989 2.72394 0
M  V30 847 H 79.3684 3.37675 1.99295 0
M  V30 848 H 80.8584 2.99747 2.9076 0
M  V30 849 N 81.2955 -0.223234 1.56011 0
M  V30 850 C 82.2455 -1.28008 1.88674 0
M  V30 851 C 83.2295 -1.42369 0.749663 0
M  V30 852 O 84.4215 -1.45212 1.01205 0
M  V30 853 C 81.5505 -2.63084 2.20548 0
M  V30 854 C 80.6365 -2.52632 3.40643 0
M  V30 855 N 81.0275 -2.11829 4.59306 0
M  V30 856 C 79.3255 -2.83594 3.44224 0
M  V30 857 C 80.0265 -2.12587 5.41463 0
M  V30 858 N 79.0025 -2.5301 4.81131 0
M  V30 859 H 82.8045 -0.955487 2.77935 0
M  V30 860 H 80.3185 -0.431801 1.56554 0
M  V30 861 H 82.3155 -3.39385 2.42122 0
M  V30 862 H 80.9755 -2.96391 1.32599 0
M  V30 863 H 81.9865 -1.82988 4.84496 0
M  V30 864 H 78.6635 -3.21284 2.66614 0
M  V30 865 H 80.0535 -1.83179 6.46448 0
M  V30 866 N 82.7736 -1.49793 -0.48987 0
M  V30 867 C 83.7366 -1.66752 -1.57246 0
M  V30 868 C 84.7366 -0.538867 -1.51502 0
M  V30 869 O 85.9266 -0.805545 -1.54456 0
M  V30 870 C 83.0586 -1.67528 -2.96896 0
M  V30 871 H 84.2516 -2.63321 -1.43534 0
M  V30 872 H 81.8046 -1.38992 -0.714914 0
M  V30 873 H 82.5396 -0.725837 -3.16073 0
M  V30 874 H 82.3246 -2.49504 -3.02473 0
M  V30 875 H 83.8146 -1.82667 -3.7553 0
M  V30 876 N 84.2517 0.741722 -1.39055 0
M  V30 877 C 85.6627 1.31966 -1.32068 0
M  V30 878 C 86.0137 1.96192 0.0180797 0
M  V30 879 O 85.1387 1.95861 0.920196 0
M  V30 880 C 85.7337 2.39954 -2.39181 0
M  V30 881 C 84.2927 2.93438 -2.35735 0
M  V30 882 C 83.4397 1.66936 -2.21422 0
M  V30 883 H 86.3907 0.539721 -1.4924 0
M  V30 884 H 86.4117 3.20182 -2.05581 0
M  V30 885 H 85.9237 1.9318 -3.36605 0
M  V30 886 H 84.0247 3.4451 -1.41929 0
M  V30 887 H 84.1377 3.4701 -3.30335 0
M  V30 888 H 82.5017 1.91016 -1.68478 0
M  V30 889 H 83.2847 1.22224 -3.20806 0
M  V30 890 N 85.7298 1.2412 0.971189 0
M  V30 891 C 86.9548 1.10667 1.75407 0
M  V30 892 C 87.3798 -0.337048 1.85056 0
M  V30 893 O 86.7378 -1.24396 1.31892 0
M  V30 894 C 86.7858 1.74726 3.15441 0
M  V30 895 O 85.8898 1.01566 3.99697 0
M  V30 896 H 85.2308 0.387341 0.539317 0
M  V30 897 H 87.7608 1.64358 1.2185 0
M  V30 898 H 87.7708 1.80341 3.6598 0
M  V30 899 H 86.4458 2.79773 3.07734 0
M  V30 900 H 85.0228 1.03713 3.58187 0
M  V30 901 N 87.2079 -1.17134 1.05439 0
M  V30 902 C 88.1709 -2.19439 0.661764 0
M  V30 903 C 89.1709 -1.58199 -0.288042 0
M  V30 904 O 90.3609 -1.74053 -0.0715803 0
M  V30 905 C 87.4929 -3.40889 -0.0276209 0
M  V30 906 H 88.6859 -2.55688 1.56728 0
M  V30 907 H 86.2389 -1.31259 0.848567 0
M  V30 908 H 86.9739 -3.10187 -0.94629 0
M  V30 909 H 86.7589 -3.86586 0.655238 0
M  V30 910 H 88.2489 -4.16603 -0.288342 0
M  V30 911 N 88.686 -0.835752 -1.33615 0
M  V30 912 C 89.649 -0.272 -2.2758 0
M  V30 913 C 90.649 0.557487 -1.50827 0
M  V30 914 O 91.839 0.37173 -1.70188 0
M  V30 915 C 88.971 0.617173 -3.35267 0
M  V30 916 H 90.164 -1.10111 -2.78954 0
M  V30 917 H 87.717 -0.608594 -1.43965 0
M  V30 918 H 88.452 1.46884 -2.89129 0
M  V30 919 H 88.237 0.0237066 -3.92093 0
M  V30 920 H 89.727 1.005 -4.05326 0
M  V30 921 N 90.1641 1.46063 -0.591896 0
M  V30 922 C 91.4101 2.02638 -0.0811191 0
M  V30 923 C 91.7431 1.4613 1.27905 0
M  V30 924 O 91.0181 0.629908 1.84017 0
M  V30 925 C 91.3011 3.60091 -0.0252436 0
M  V30 926 C 91.1541 4.26965 -1.41496 0
M  V30 927 C 92.4731 4.3496 0.670685 0
M  V30 928 H 89.5921 0.73635 -0.0309524 0
M  V30 929 H 92.2341 1.741 -0.760859 0
M  V30 930 H 90.3841 3.84535 0.553624 0
M  V30 931 H 92.0561 4.13756 -2.0397 0
M  V30 932 H 90.2991 3.85971 -1.98011 0
M  V30 933 H 90.9701 5.35781 -1.32825 0
M  V30 934 H 93.4461 4.15716 0.178825 0
M  V30 935 H 92.3221 5.44686 0.678837 0
M  V30 936 H 92.5831 4.06685 1.73379 0
M  V30 937 N 91.6422 0.330177 1.54103 0
M  V30 938 C 92.8702 -0.272179 2.05102 0
M  V30 939 C 93.2852 -1.45267 1.20595 0
M  V30 940 O 92.6422 -1.8094 0.238144 0
M  V30 941 C 92.6932 -0.70023 3.54653 0
M  V30 942 O 92.4142 0.433301 4.35952 0
M  V30 943 C 93.9152 -1.3647 4.21771 0
M  V30 944 H 91.1352 -0.0549159 0.668749 0
M  V30 945 H 93.6792 0.478285 1.98828 0
M  V30 946 H 91.8342 -1.40066 3.61193 0
M  V30 947 H 92.2482 0.0947539 5.24414 0
M  V30 948 H 93.7222 -1.61509 5.27843 0
M  V30 949 H 94.1992 -2.31409 3.73292 0
M  V30 950 H 94.8052 -0.706675 4.19388 0
M  V30 951 N 93.1203 -1.57491 0.0584922 0
M  V30 952 C 94.0833 -2.1085 -0.898617 0
M  V30 953 C 95.0833 -1.02964 -1.23511 0
M  V30 954 O 96.2733 -1.29007 -1.17059 0
M  V30 955 C 93.4053 -2.59881 -2.20623 0
M  V30 956 H 94.5983 -2.96715 -0.435936 0
M  V30 957 H 92.1513 -1.55141 -0.190023 0
M  V30 958 H 92.8863 -1.77431 -2.71457 0
M  V30 959 H 92.6713 -3.38727 -1.97501 0
M  V30 960 H 94.1613 -3.01285 -2.89166 0
M  V30 961 N 94.5984 0.214957 -1.56127 0
M  V30 962 C 95.8264 0.955092 -1.83536 0
M  V30 963 C 96.2414 1.77677 -0.638472 0
M  V30 964 O 95.5984 1.78219 0.392968 0
M  V30 965 C 95.6494 1.86734 -3.09536 0
M  V30 966 O 95.3704 1.07887 -4.24608 0
M  V30 967 C 96.8714 2.72082 -3.4998 0
M  V30 968 H 94.0914 0.279611 -0.609966 0
M  V30 969 H 96.6354 0.228197 -2.03223 0
M  V30 970 H 94.7904 2.5481 -2.91806 0
M  V30 971 H 95.2044 1.69872 -4.9623 0
M  V30 972 H 96.6784 3.31782 -4.41163 0
M  V30 973 H 97.1554 3.44806 -2.7204 0
M  V30 974 H 97.7614 2.09409 -3.70173 0
M  V30 975 N 96.0765 1.50051 0.48192 0
M  V30 976 C 97.3045 1.64237 1.25832 0
M  V30 977 C 97.7195 0.321336 1.86045 0
M  V30 978 O 97.0765 -0.695478 1.68729 0
M  V30 979 C 97.1275 2.72548 2.37487 0
M  V30 980 O 96.8485 3.99529 1.79745 0
M  V30 981 C 98.3495 2.9761 3.28547 0
M  V30 982 H 95.5695 0.55237 0.380957 0
M  V30 983 H 98.1135 1.96207 0.576467 0
M  V30 984 H 96.2685 2.43303 3.01467 0
M  V30 985 H 96.6825 4.59342 2.5319 0
M  V30 986 H 98.1565 3.77084 4.03127 0
M  V30 987 H 98.6335 2.0826 3.86684 0
M  V30 988 H 99.2395 3.28345 2.70314 0
M  V30 989 N 97.5546 -0.734337 1.39446 0
M  V30 990 C 98.8006 -1.49613 1.36908 0
M  V30 991 C 99.1336 -1.94169 -0.0347829 0
M  V30 992 O 98.4086 -1.66833 -0.999847 0
M  V30 993 C 98.6916 -2.73534 2.34203 0
M  V30 994 C 98.5446 -2.34993 3.83534 0
M  V30 995 C 99.8636 -3.75635 2.29317 0
M  V30 996 H 96.9826 -0.542714 0.498629 0
M  V30 997 H 99.6246 -0.839597 1.70443 0
M  V30 998 H 97.7746 -3.29553 2.05736 0
M  V30 999 H 99.4466 -1.84601 4.22753 0
M  V30 1000 H 97.6896 -1.67213 4.00278 0
M  V30 1001 H 98.3606 -3.23738 4.47099 0
M  V30 1002 H 100.837 -3.29203 2.54489 0
M  V30 1003 H 99.7126 -4.60008 2.99472 0
M  V30 1004 H 99.9736 -4.22603 1.29842 0
M  V30 1005 N 99.0327 -1.24633 -0.964593 0
M  V30 1006 C 99.9427 -1.05859 -2.09359 0
M  V30 1007 C 100.959 0.00148855 -1.74 0
M  V30 1008 O 102.135 -0.197346 -2.00431 0
M  V30 1009 C 99.1997 -0.668879 -3.40187 0
M  V30 1010 C 98.2607 -1.80578 -3.89474 0
M  V30 1011 C 97.4937 -1.43457 -5.14058 0
M  V30 1012 O 97.7167 -0.325775 -5.69469 0
M  V30 1013 O 96.6507 -2.2613 -5.57807 0
M  V30 1014 H 100.477 -2.00516 -2.28094 0
M  V30 1015 H 98.0617 -1.03481 -1.0776 0
M  V30 1016 H 99.9437 -0.463211 -4.18846 0
M  V30 1017 H 98.6187 0.248536 -3.22744 0
M  V30 1018 H 97.5257 -2.06623 -3.11862 0
M  V30 1019 H 98.8587 -2.70208 -4.11398 0
M  V30 1020 N 100.511 1.16574 -1.06058 0
M  V30 1021 C 101.443 2.2045 -0.627239 0
M  V30 1022 C 102.456 1.59752 0.313534 0
M  V30 1023 O 103.645 1.78192 0.104896 0
M  V30 1024 C 100.745 3.3875 0.100974 0
M  V30 1025 C 99.9178 4.29008 -0.852687 0
M  V30 1026 C 98.9768 5.25944 -0.164152 0
M  V30 1027 O 98.0028 5.63535 -0.801047 0
M  V30 1028 N 99.2048 5.70075 1.09518 0
M  V30 1029 H 101.97 2.58249 -1.52077 0
M  V30 1030 H 99.5308 1.3156 -0.943594 0
M  V30 1031 H 101.523 4.00638 0.57194 0
M  V30 1032 H 100.093 2.99476 0.89628 0
M  V30 1033 H 99.3128 3.64419 -1.50308 0
M  V30 1034 H 100.601 4.86195 -1.49972 0
M  V30 1035 H 99.9988 5.41624 1.6328 0
M  V30 1036 H 98.5558 6.34067 1.51006 0
M  V30 1037 N 101.989 0.842826 1.3317 0
M  V30 1038 C 103.235 0.441099 1.97945 0
M  V30 1039 C 103.568 -0.998024 1.66593 0
M  V30 1040 O 102.843 -1.69839 0.947898 0
M  V30 1041 C 103.126 0.666841 3.53872 0
M  V30 1042 C 102.979 2.15352 3.94897 0
M  V30 1043 C 104.298 0.115544 4.39948 0
M  V30 1044 H 101.417 0.161739 0.719034 0
M  V30 1045 H 104.059 1.05907 1.57746 0
M  V30 1046 H 102.209 0.140828 3.88245 0
M  V30 1047 H 103.881 2.7447 3.70761 0
M  V30 1048 H 102.124 2.63653 3.44484 0
M  V30 1049 H 102.795 2.26221 5.03516 0
M  V30 1050 H 105.271 0.565213 4.12243 0
M  V30 1051 H 104.147 0.303152 5.48062 0
M  V30 1052 H 104.408 -0.980935 4.3108 0
M  V30 1053 N 103.467 -1.45747 0.599634 0
M  V30 1054 C 104.399 -2.28628 -0.161879 0
M  V30 1055 C 105.412 -1.39494 -0.839367 0
M  V30 1056 O 106.601 -1.63941 -0.706089 0
M  V30 1057 C 103.701 -3.15014 -1.24976 0
M  V30 1058 C 102.874 -4.32378 -0.660935 0
M  V30 1059 C 101.933 -5.00033 -1.63869 0
M  V30 1060 O 100.959 -5.57085 -1.1681 0
M  V30 1061 N 102.161 -4.98589 -2.97303 0
M  V30 1062 H 104.926 -2.94624 0.549265 0
M  V30 1063 H 102.487 -1.55847 0.438565 0
M  V30 1064 H 104.479 -3.5714 -1.9035 0
M  V30 1065 H 103.049 -2.5098 -1.86354 0
M  V30 1066 H 102.269 -3.9383 0.170688 0
M  V30 1067 H 103.557 -5.08197 -0.247619 0
M  V30 1068 H 102.955 -4.53514 -3.38145 0
M  V30 1069 H 101.512 -5.44603 -3.58121 0
M  V30 1070 N 104.945 -0.338344 -1.53925 0
M  V30 1071 C 106.193 0.259245 -2.0043 0
M  V30 1072 C 106.514 1.51484 -1.22791 0
M  V30 1073 O 105.784 1.93037 -0.33368 0
M  V30 1074 H 104.364 0.0987845 -0.740439 0
M  V30 1075 H 107.026 -0.458302 -1.89435 0
M  V30 1076 H 106.122 0.505334 -3.07982 0
M  V30 1077 N 106.423 1.57458 -0.0668435 0
M  V30 1078 C 107.669 1.93587 0.6043 0
M  V30 1079 C 108.002 0.946722 1.69561 0
M  V30 1080 O 107.277 -0.0248516 1.94484 0
M  V30 1081 C 107.56 3.40014 1.18585 0
M  V30 1082 C 107.413 4.49685 0.101529 0
M  V30 1083 C 108.732 3.87154 2.09284 0
M  V30 1084 H 105.851 0.703958 0.218202 0
M  V30 1085 H 108.493 1.89542 -0.131804 0
M  V30 1086 H 106.643 3.43592 1.81319 0
M  V30 1087 H 108.315 4.5823 -0.531279 0
M  V30 1088 H 106.558 4.30059 -0.568487 0
M  V30 1089 H 107.229 5.49266 0.54874 0
M  V30 1090 H 109.705 3.85551 1.56491 0
M  V30 1091 H 108.581 4.90231 2.46911 0
M  V30 1092 H 108.842 3.2481 2.99918 0
M  V30 1093 N 107.901 -0.206675 1.56239 0
M  V30 1094 C 109.147 -0.930218 1.80208 0
M  V30 1095 C 109.48 -1.83387 0.638981 0
M  V30 1096 O 108.755 -1.91119 -0.361066 0
M  V30 1097 C 109.038 -1.75641 3.1436 0
M  V30 1098 C 108.891 -0.878257 4.41142 0
M  V30 1099 C 110.21 -2.73129 3.45092 0
M  V30 1100 H 107.329 -0.336742 0.655571 0
M  V30 1101 H 109.971 -0.198222 1.88963 0
M  V30 1102 H 108.121 -2.38048 3.07027 0
M  V30 1103 H 109.793 -0.269787 4.6051 0
M  V30 1104 H 108.036 -0.184385 4.33408 0
M  V30 1105 H 108.707 -1.49106 5.3148 0
M  V30 1106 H 111.183 -2.20856 3.52649 0
M  V30 1107 H 110.059 -3.28028 4.40101 0
M  V30 1108 H 110.32 -3.51606 2.68003 0
M  V30 1109 N 109.379 -1.50304 -0.473955 0
M  V30 1110 C 110.326 -1.68959 -1.57231 0
M  V30 1111 C 111.296 -0.530899 -1.57387 0
M  V30 1112 O 112.481 -0.761133 -1.74961 0
M  V30 1113 C 109.621 -1.7871 -2.95223 0
M  V30 1114 C 108.734 -3.06061 -3.04878 0
M  V30 1115 C 107.869 -3.06626 -4.33767 0
M  V30 1116 C 106.908 -4.28443 -4.37154 0
M  V30 1117 N 106.045 -4.26763 -5.5751 0
M  V30 1118 H 110.885 -2.6273 -1.40631 0
M  V30 1119 H 108.422 -1.30241 -0.683789 0
M  V30 1120 H 110.38 -1.82344 -3.75242 0
M  V30 1121 H 109.01 -0.883806 -3.10465 0
M  V30 1122 H 108.062 -3.11911 -2.17751 0
M  V30 1123 H 109.374 -3.96039 -3.0324 0
M  V30 1124 H 108.528 -3.08973 -5.22131 0
M  V30 1125 H 107.267 -2.14473 -4.3801 0
M  V30 1126 H 106.272 -4.2631 -3.47188 0
M  V30 1127 H 107.497 -5.2182 -4.34605 0
M  V30 1128 H 105.443 -3.37462 -5.62544 0
M  V30 1129 H 105.36 -5.10507 -5.57601 0
M  V30 1130 H 106.628 -4.33253 -6.48006 0
M  V30 1131 N 110.857 0.726932 -1.39834 0
M  V30 1132 C 112.106 1.48214 -1.36805 0
M  V30 1133 C 112.419 1.95576 0.0305291 0
M  V30 1134 O 113.625 2.7088 0.183417 0
M  V30 1135 C 112.081 2.67854 -2.40379 0
M  V30 1136 C 111.689 2.27408 -3.85992 0
M  V30 1137 C 113.433 3.45641 -2.46439 0
M  V30 1138 C 111.34 3.43819 -4.81189 0
M  V30 1139 H 110.27 0.556606 -0.508631 0
M  V30 1140 H 112.921 0.792216 -1.65518 0
M  V30 1141 H 111.303 3.3896 -2.04749 0
M  V30 1142 H 112.477 1.63795 -4.30706 0
M  V30 1143 H 110.792 1.62692 -3.83302 0
M  V30 1144 H 113.389 4.32244 -3.14753 0
M  V30 1145 H 113.732 3.88669 -1.49139 0
M  V30 1146 H 114.265 2.8157 -2.81004 0
M  V30 1147 H 111.004 3.05834 -5.79781 0
M  V30 1148 H 110.524 4.06385 -4.41148 0
M  V30 1149 H 112.203 4.10043 -5.00474 0
M  V30 1150 N 112.336 1.25143 0.95797 0
M  V30 1151 C 113.576 1.10893 1.71703 0
M  V30 1152 C 113.94 -0.34478 1.88879 0
M  V30 1153 O 115.141 -0.609014 2.6181 0
M  V30 1154 C 113.412 1.83889 3.06463 0
M  V30 1155 S 114.971 1.85491 3.97666 0
M  V30 1156 H 111.789 0.396428 0.590226 0
M  V30 1157 H 114.391 1.58618 1.14283 0
M  V30 1158 H 113.095 2.88756 2.9163 0
M  V30 1159 H 112.626 1.36538 3.68946 0
M  V30 1160 H 114.641 0.929553 4.87415 0
M  V30 1161 N 113.814 -1.1601 1.06675 0
M  V30 1162 C 114.762 -2.22586 0.675157 0
M  V30 1163 C 115.756 -1.66525 -0.310766 0
M  V30 1164 O 116.962 -1.79145 -0.175215 0
M  V30 1165 H 113.337 -0.724855 0.200223 0
M  V30 1166 H 115.308 -2.52899 1.58381 0
M  V30 1167 C 114.057 -3.47604 0.0817162 0
M  V30 1168 H 113.38 -3.91058 0.831484 0
M  V30 1169 H 114.82 -4.23718 -0.154708 0
M  V30 1170 C 113.279 -3.15718 -1.17576 0
M  V30 1171 O 113.809 -3.31878 -2.26318 0
M  V30 1172 N 112.015 -2.69816 -1.07923 0
M  V30 1173 H 111.562 -2.56866 -0.194293 0
M  V30 1174 H 111.52 -2.48855 -1.92141 0
M  V30 1175 N 115.292 -0.849877 -1.32721 0
M  V30 1176 C 116.202 -0.293791 -2.32753 0
M  V30 1177 C 117.218 0.585906 -1.63839 0
M  V30 1178 O 118.394 0.487413 -1.95413 0
M  V30 1179 C 115.459 0.512752 -3.42887 0
M  V30 1180 C 114.52 -0.39252 -4.27502 0
M  V30 1181 C 113.753 0.375625 -5.32377 0
M  V30 1182 O 113.976 1.60613 -5.4732 0
M  V30 1183 O 112.91 -0.256094 -6.01355 0
M  V30 1184 H 116.736 -1.12242 -2.82197 0
M  V30 1185 H 114.321 -0.612685 -1.36259 0
M  V30 1186 H 116.203 0.970704 -4.10067 0
M  V30 1187 H 114.878 1.31826 -2.95641 0
M  V30 1188 H 113.785 -0.898547 -3.63149 0
M  V30 1189 H 115.118 -1.16309 -4.7826 0
M  V30 1190 N 116.77 1.45427 -0.607355 0
M  V30 1191 C 117.72 2.27612 0.133038 0
M  V30 1192 C 118.704 1.37307 0.838785 0
M  V30 1193 O 119.896 1.61299 0.728813 0
M  V30 1194 C 117.025 3.24173 1.12991 0
M  V30 1195 C 116.111 4.21965 0.425011 0
M  V30 1196 N 116.502 5.02982 -0.533217 0
M  V30 1197 C 114.8 4.40899 0.672593 0
M  V30 1198 C 115.501 5.73931 -0.947518 0
M  V30 1199 N 114.477 5.42819 -0.291321 0
M  V30 1200 H 118.279 2.87649 -0.602935 0
M  V30 1201 H 115.793 1.56576 -0.431006 0
M  V30 1202 H 117.79 3.81783 1.67473 0
M  V30 1203 H 116.45 2.65696 1.86644 0
M  V30 1204 H 117.461 5.09843 -0.90995 0
M  V30 1205 H 114.138 3.93547 1.39382 0
M  V30 1206 H 115.528 6.49037 -1.73782 0
M  V30 1207 N 118.248 0.346503 1.53744 0
M  V30 1208 C 119.195 -0.508914 2.25119 0
M  V30 1209 C 120.165 -1.09315 1.25058 0
M  V30 1210 O 121.35 -1.12921 1.53797 0
M  V30 1211 C 118.49 -1.65246 3.02965 0
M  V30 1212 C 117.603 -1.09525 4.17886 0
M  V30 1213 C 116.738 -2.20634 4.83212 0
M  V30 1214 C 115.777 -1.62279 5.90196 0
M  V30 1215 N 114.914 -2.67143 6.49291 0
M  V30 1216 H 119.754 0.106283 2.9781 0
M  V30 1217 H 117.291 0.0642227 1.4696 0
M  V30 1218 H 119.249 -2.32574 3.4636 0
M  V30 1219 H 117.879 -2.2386 2.32565 0
M  V30 1220 H 116.931 -0.312818 3.79112 0
M  V30 1221 H 118.243 -0.628444 4.94825 0
M  V30 1222 H 117.397 -2.95821 5.29693 0
M  V30 1223 H 116.136 -2.70659 4.05703 0
M  V30 1224 H 115.141 -0.855989 5.43096 0
M  V30 1225 H 116.366 -1.13102 6.69615 0
M  V30 1226 H 114.312 -3.16417 5.74645 0
M  V30 1227 H 114.229 -2.25093 7.21713 0
M  V30 1228 H 115.497 -3.4209 7.00425 0
M  V30 1229 N 119.726 -1.57421 0.075193 0
M  V30 1230 C 120.975 -1.92794 -0.592731 0
M  V30 1231 C 121.288 -0.957478 -1.70563 0
M  V30 1232 O 122.494 -1.20417 -2.43335 0
M  V30 1233 C 120.95 -3.42495 -1.10569 0
M  V30 1234 C 120.558 -4.47994 -0.0236121 0
M  V30 1235 C 122.302 -3.86864 -1.74748 0
M  V30 1236 C 120.209 -5.88829 -0.550803 0
M  V30 1237 H 119.139 -0.719591 -0.225177 0
M  V30 1238 H 121.79 -1.82902 0.147978 0
M  V30 1239 H 120.172 -3.47471 -1.89947 0
M  V30 1240 H 121.346 -4.54637 0.751099 0
M  V30 1241 H 119.661 -4.13113 0.522159 0
M  V30 1242 H 122.258 -4.8947 -2.15229 0
M  V30 1243 H 122.601 -3.24417 -2.60882 0
M  V30 1244 H 123.134 -3.84504 -1.01986 0
M  V30 1245 H 119.873 -6.54929 0.273457 0
M  V30 1246 H 119.393 -5.85698 -1.29296 0
M  V30 1247 H 121.072 -6.38811 -1.02613 0
M  V30 1248 N 121.204 0.198386 -1.56346 0
M  V30 1249 C 122.615 0.763358 -1.70381 0
M  V30 1250 C 122.966 1.83995 -0.681203 0
M  V30 1251 O 122.091 2.15785 0.16305 0
M  V30 1252 C 122.686 1.39143 -3.08909 0
M  V30 1253 C 121.245 1.90352 -3.2472 0
M  V30 1254 C 120.392 0.772233 -2.6633 0
M  V30 1255 H 123.343 -0.0266377 -1.58678 0
M  V30 1256 H 123.364 2.26076 -3.06055 0
M  V30 1257 H 122.876 0.607638 -3.83314 0
M  V30 1258 H 120.977 2.71461 -2.55225 0
M  V30 1259 H 121.09 2.06757 -4.3219 0
M  V30 1260 H 119.454 1.18566 -2.2542 0
M  V30 1261 H 120.237 0.00073556 -3.433 0
M  V30 1262 N 122.682 1.50554 0.465978 0
M  V30 1263 C 123.931 1.61038 1.21448 0
M  V30 1264 C 124.244 0.31865 1.92987 0
M  V30 1265 O 125.45 0.302469 2.6981 0
M  V30 1266 C 123.906 2.84283 2.20706 0
M  V30 1267 C 123.514 4.20352 1.54946 0
M  V30 1268 C 125.258 3.04115 2.96166 0
M  V30 1269 C 123.165 5.34778 2.5252 0
M  V30 1270 H 122.095 0.599718 0.457005 0
M  V30 1271 H 124.746 1.7699 0.484424 0
M  V30 1272 H 123.128 2.61901 2.97025 0
M  V30 1273 H 124.302 4.53008 0.843811 0
M  V30 1274 H 122.617 4.06167 0.917475 0
M  V30 1275 H 125.214 3.86774 3.69202 0
M  V30 1276 H 125.557 2.16045 3.55852 0
M  V30 1277 H 126.09 3.26702 2.26959 0
M  V30 1278 H 122.829 6.25018 1.97566 0
M  V30 1279 H 122.349 5.06534 3.21222 0
M  V30 1280 H 124.028 5.65561 3.14245 0
M  V30 1281 N 124.16 -0.719506 1.40217 0
M  V30 1282 C 125.406 -1.48034 1.39491 0
M  V30 1283 C 125.761 -1.92399 -0.00443536 0
M  V30 1284 O 125.054 -1.64993 -0.974061 0
M  V30 1285 C 125.248 -2.72271 2.31524 0
M  V30 1286 C 125.077 -2.40055 3.80268 0
M  V30 1287 C 123.847 -2.31588 4.49105 0
M  V30 1288 C 126.045 -2.04581 4.71859 0
M  V30 1289 N 124.027 -1.92006 5.83101 0
M  V30 1290 C 125.398 -1.75568 5.94623 0
M  V30 1291 C 127.453 -1.91183 4.59732 0
M  V30 1292 C 126.156 -1.34505 7.06612 0
M  V30 1293 C 128.182 -1.51524 5.71659 0
M  V30 1294 C 127.544 -1.23406 6.93506 0
M  V30 1295 H 123.643 -0.539927 0.565688 0
M  V30 1296 H 126.227 -0.834764 1.75897 0
M  V30 1297 H 124.398 -3.34584 1.97251 0
M  V30 1298 H 126.13 -3.38584 2.21682 0
M  V30 1299 H 122.885 -2.49199 4.02737 0
M  V30 1300 H 123.309 -1.74764 6.54054 0
M  V30 1301 H 127.951 -2.11584 3.66049 0
M  V30 1302 H 125.669 -1.12846 8.00182 0
M  V30 1303 H 129.255 -1.41741 5.6427 0
M  V30 1304 H 128.135 -0.931788 7.78645 0
M  V30 1305 N 125.638 -1.25649 -0.95132 0
M  V30 1306 C 126.866 -1.13343 -1.73092 0
M  V30 1307 C 127.281 0.312434 -1.86197 0
M  V30 1308 O 126.638 1.21465 -1.36207 0
M  V30 1309 C 126.689 -1.78602 -3.14299 0
M  V30 1310 O 126.41 -3.17537 -3.01831 0
M  V30 1311 C 127.911 -1.72119 -4.08522 0
M  V30 1312 H 125.131 -0.395181 -0.542285 0
M  V30 1313 H 127.675 -1.66076 -1.19328 0
M  V30 1314 H 125.83 -1.29832 -3.64996 0
M  V30 1315 H 126.244 -3.49676 -3.90931 0
M  V30 1316 H 127.718 -2.22435 -5.052 0
M  V30 1317 H 128.195 -0.685635 -4.33815 0
M  V30 1318 H 128.801 -2.20393 -3.63741 0
M  V30 1319 N 127.117 1.15442 -1.07289 0
M  V30 1320 C 128.366 1.85557 -0.790669 0
M  V30 1321 C 128.679 1.83186 0.685739 0
M  V30 1322 O 129.885 2.48977 1.0827 0
M  V30 1323 C 128.341 3.33038 -1.36433 0
M  V30 1324 C 127.949 3.43856 -2.8717 0
M  V30 1325 C 129.693 4.0834 -1.1601 0
M  V30 1326 C 127.6 4.85482 -3.3773 0
M  V30 1327 H 126.53 0.695122 -0.292098 0
M  V30 1328 H 129.181 1.30219 -1.29287 0
M  V30 1329 H 127.563 3.88043 -0.789864 0
M  V30 1330 H 128.737 2.98961 -3.50655 0
M  V30 1331 H 127.052 2.81998 -3.06376 0
M  V30 1332 H 129.649 5.12859 -1.51262 0
M  V30 1333 H 129.992 4.16182 -0.0991007 0
M  V30 1334 H 130.525 3.59603 -1.70089 0
M  V30 1335 H 127.264 4.82823 -4.43353 0
M  V30 1336 H 126.784 5.30961 -2.78999 0
M  V30 1337 H 128.463 5.54335 -3.33648 0
M  V30 1338 N 128.595 0.856903 1.32268 0
M  V30 1339 C 129.82 0.474569 2.01897 0
M  V30 1340 C 130.245 -0.921766 1.63967 0
M  V30 1341 O 129.603 -1.60589 0.84148 0
M  V30 1342 C 129.651 0.623799 3.55164 0
M  V30 1343 O 128.755 -0.342459 4.10976 0
M  V30 1344 H 128.096 0.190422 0.63611 0
M  V30 1345 H 130.626 1.15672 1.68764 0
M  V30 1346 H 130.636 0.512169 4.04773 0
M  V30 1347 H 129.311 1.64202 3.82113 0
M  V30 1348 H 127.888 -0.18688 3.72431 0
M  V30 1349 N 130.073 -1.45103 0.615059 0
M  V30 1350 C 131.301 -2.06553 0.11977 0
M  V30 1351 C 131.716 -1.45842 -1.19898 0
M  V30 1352 O 131.073 -0.575325 -1.73194 0
M  V30 1353 C 131.124 -3.61495 -0.018364 0
M  V30 1354 O 130.845 -4.19942 1.24822 0
M  V30 1355 C 132.346 -4.39947 -0.544237 0
M  V30 1356 H 129.566 -0.667096 0.0722739 0
M  V30 1357 H 132.11 -1.8623 0.84491 0
M  V30 1358 H 130.265 -3.81135 -0.693865 0
M  V30 1359 H 130.679 -5.13204 1.0827 0
M  V30 1360 H 132.153 -5.48838 -0.589953 0
M  V30 1361 H 132.63 -4.10255 -1.56805 0
M  V30 1362 H 133.236 -4.25188 0.0974703 0
M  V30 1363 N 131.551 -0.354651 -1.53558 0
M  V30 1364 C 132.799 0.237972 -2.00694 0
M  V30 1365 C 133.12 1.50173 -1.24391 0
M  V30 1366 O 132.39 1.92673 -0.354135 0
M  V30 1367 H 130.97 0.0909256 -0.741446 0
M  V30 1368 H 133.632 -0.478368 -1.88938 0
M  V30 1369 H 132.728 0.47264 -3.085 0
M  V30 1370 N 133.029 1.57378 -0.0835403 0
M  V30 1371 C 134.445 1.57246 0.273109 0
M  V30 1372 C 134.645 1.09385 1.69225 0
M  V30 1373 O 133.701 0.765051 2.40631 0
M  V30 1374 C 135.014 3.00614 0.0720628 0
M  V30 1375 C 136.562 3.12684 0.1407 0
M  V30 1376 C 137.037 4.57989 -0.0322094 0
M  V30 1377 N 138.528 4.63194 0.0230085 0
M  V30 1378 C 139.263 5.73335 -0.0861941 0
M  V30 1379 N 138.759 6.9235 -0.24958 0
M  V30 1380 N 140.552 5.62093 -0.0282886 0
M  V30 1381 H 132.703 1.86801 -1.0109 0
M  V30 1382 H 134.966 0.861687 -0.395222 0
M  V30 1383 H 134.672 3.39786 -0.907662 0
M  V30 1384 H 134.546 3.68193 0.81936 0
M  V30 1385 H 136.933 2.73391 1.11092 0
M  V30 1386 H 137.014 2.47719 -0.637896 0
M  V30 1387 H 136.658 4.97973 -0.999247 0
M  V30 1388 H 136.588 5.21 0.765937 0
M  V30 1389 H 139.079 3.77613 0.14722 0
M  V30 1390 H 139.392 7.72117 -0.324733 0
M  V30 1391 H 137.737 6.94415 -0.285097 0
M  V30 1392 H 140.928 4.67997 0.0981408 0
M  V30 1393 H 141.101 6.47895 -0.116845 0
M  V30 1394 N 134.507 -0.190092 1.56449 0
M  V30 1395 C 135.455 -1.25501 1.95837 0
M  V30 1396 C 136.449 -1.4685 0.844485 0
M  V30 1397 O 137.655 -1.47651 1.02952 0
M  V30 1398 H 134.03 -0.421447 0.622805 0
M  V30 1399 H 136.001 -0.895821 2.84636 0
M  V30 1400 C 134.75 -2.59124 2.31841 0
M  V30 1401 H 134.073 -2.43514 3.17082 0
M  V30 1402 H 135.513 -3.32371 2.6326 0
M  V30 1403 C 133.972 -3.16488 1.15486 0
M  V30 1404 O 134.502 -3.99365 0.432535 0
M  V30 1405 N 132.708 -2.75305 0.930349 0
M  V30 1406 H 132.255 -2.08013 1.51948 0
M  V30 1407 H 132.213 -3.14024 0.153634 0
M  V30 1408 N 135.985 -1.50799 -0.457987 0
M  V30 1409 C 137.232 -1.62442 -1.20908 0
M  V30 1410 C 137.56 -0.330865 -1.91665 0
M  V30 1411 O 136.815 0.68401 -1.83357 0
M  V30 1412 C 137.114 -2.76358 -2.2663 0
M  V30 1413 C 136.78 -4.16378 -1.73033 0
M  V30 1414 C 135.442 -4.54473 -1.58138 0
M  V30 1415 C 137.794 -5.03836 -1.33413 0
M  V30 1416 C 135.122 -5.77754 -1.02065 0
M  V30 1417 C 137.474 -6.27676 -0.78778 0
M  V30 1418 C 136.138 -6.64562 -0.625561 0
M  V30 1419 H 135.408 -0.594417 -0.442435 0
M  V30 1420 H 138.055 -1.84772 -0.503136 0
M  V30 1421 H 136.36 -2.48167 -3.03184 0
M  V30 1422 H 138.057 -2.82568 -2.84528 0
M  V30 1423 H 134.647 -3.86331 -1.85598 0
M  V30 1424 H 138.831 -4.75026 -1.4375 0
M  V30 1425 H 134.087 -6.04997 -0.882547 0
M  V30 1426 H 138.261 -6.94797 -0.472177 0
M  V30 1427 H 135.888 -7.59965 -0.188926 0
M  V30 1428 N 137.463 0.71206 -1.40597 0
M  V30 1429 C 138.711 1.46907 -1.38791 0
M  V30 1430 C 139.032 1.94998 0.00780391 0
M  V30 1431 O 138.302 1.70587 0.963174 0
M  V30 1432 H 136.882 0.545043 -0.51082 0
M  V30 1433 H 139.544 0.843882 -1.75683 0
M  V30 1434 H 138.64 2.34021 -2.06496 0
M  V30 1435 N 138.941 1.26152 0.944643 0
M  V30 1436 C 140.171 1.14094 1.72239 0
M  V30 1437 C 140.579 -0.306931 1.86694 0
M  V30 1438 O 139.922 -1.22222 1.3714 0
M  V30 1439 C 139.984 1.73316 3.14963 0
M  V30 1440 C 139.648 3.2239 3.23904 0
M  V30 1441 C 140.645 4.19252 3.07447 0
M  V30 1442 C 138.33 3.62788 3.47405 0
M  V30 1443 C 140.324 5.54491 3.14353 0
M  V30 1444 C 138.011 4.98162 3.53947 0
M  V30 1445 C 139.009 5.93823 3.37436 0
M  V30 1446 O 138.697 7.26732 3.43679 0
M  V30 1447 H 138.429 0.398292 0.546205 0
M  V30 1448 H 140.983 1.67201 1.19301 0
M  V30 1449 H 139.213 1.14667 3.69308 0
M  V30 1450 H 140.902 1.56214 3.74636 0
M  V30 1451 H 141.668 3.8938 2.8915 0
M  V30 1452 H 137.547 2.88816 3.59313 0
M  V30 1453 H 141.091 6.29137 3.01384 0
M  V30 1454 H 136.988 5.27695 3.71763 0
M  V30 1455 H 137.756 7.3496 3.60245 0
M  V30 1456 N 140.419 -1.14872 1.07899 0
M  V30 1457 C 141.667 -1.85422 0.803941 0
M  V30 1458 C 141.988 -1.83051 -0.67211 0
M  V30 1459 O 141.258 -1.27532 -1.48703 0
M  V30 1460 H 139.838 -0.686537 0.294408 0
M  V30 1461 H 142.5 -1.39226 1.3639 0
M  V30 1462 H 141.596 -2.90399 1.14346 0
M  V30 1463 N 141.898 -0.863906 -1.31812 0
M  V30 1464 C 143.123 -0.48527 -2.01643 0
M  V30 1465 C 143.548 0.913058 -1.64453 0
M  V30 1466 O 142.906 1.6014 -0.849985 0
M  V30 1467 C 142.954 -0.642625 -3.54828 0
M  V30 1468 O 142.058 0.320659 -4.11151 0
M  V30 1469 H 141.399 -0.193793 -0.635091 0
M  V30 1470 H 143.929 -1.16565 -1.68148 0
M  V30 1471 H 143.939 -0.533628 -4.04495 0
M  V30 1472 H 142.614 -1.66227 -3.81237 0
M  V30 1473 H 141.191 0.167126 -3.72525 0
M  V30 1474 N 143.376 1.44774 -0.622745 0
M  V30 1475 C 144.339 2.29069 0.0774015 0
M  V30 1476 C 145.339 1.4059 0.780461 0
M  V30 1477 O 146.529 1.62551 0.626322 0
M  V30 1478 C 143.661 3.21974 1.12006 0
M  V30 1479 H 144.854 2.92459 -0.663901 0
M  V30 1480 H 142.407 1.51548 -0.382486 0
M  V30 1481 H 143.142 2.63417 1.89162 0
M  V30 1482 H 142.927 3.87168 0.619951 0
M  V30 1483 H 144.417 3.85318 1.60995 0
M  V30 1484 N 144.854 0.36279 1.53368 0
M  V30 1485 C 145.817 -0.472679 2.24273 0
M  V30 1486 C 146.817 -1.012 1.24961 0
M  V30 1487 O 148.007 -0.898194 1.49259 0
M  V30 1488 C 145.139 -1.66039 2.97731 0
M  V30 1489 H 146.332 0.14773 2.99536 0
M  V30 1490 H 143.885 0.114434 1.55881 0
M  V30 1491 H 144.62 -2.31896 2.26704 0
M  V30 1492 H 144.405 -1.28066 3.70596 0
M  V30 1493 H 145.895 -2.25252 3.51641 0
M  V30 1494 N 146.332 -1.57332 0.0918853 0
M  V30 1495 C 147.743 -1.81496 -0.437739 0
M  V30 1496 C 148.094 -1.00727 -1.6837 0
M  V30 1497 O 147.219 -0.235694 -2.15113 0
M  V30 1498 C 147.814 -3.29197 -0.800939 0
M  V30 1499 C 146.373 -3.54136 -1.27532 0
M  V30 1500 C 145.52 -2.75979 -0.270392 0
M  V30 1501 H 148.471 -1.55494 0.317366 0
M  V30 1502 H 148.492 -3.42344 -1.66074 0
M  V30 1503 H 148.004 -3.87955 0.106078 0
M  V30 1504 H 146.105 -3.00705 -2.20016 0
M  V30 1505 H 146.218 -4.62792 -1.23938 0
M  V30 1506 H 144.582 -2.43349 -0.751872 0
M  V30 1507 H 145.365 -3.37484 0.629248 0
M  V30 1508 N 147.81 0.181792 -1.56548 0
M  V30 1509 C 149.056 0.901431 -1.81665 0
M  V30 1510 C 149.389 1.82347 -0.668075 0
M  V30 1511 O 148.664 1.91669 0.330615 0
M  V30 1512 C 148.947 1.70618 -3.17115 0
M  V30 1513 C 148.8 0.807964 -4.42484 0
M  V30 1514 C 150.119 2.67605 -3.49393 0
M  V30 1515 H 147.238 0.32627 -0.660846 0
M  V30 1516 H 149.88 0.168134 -1.89255 0
M  V30 1517 H 148.03 2.33133 -3.10775 0
M  V30 1518 H 149.702 0.19649 -4.60881 0
M  V30 1519 H 147.945 0.115411 -4.33646 0
M  V30 1520 H 148.616 1.40632 -5.33785 0
M  V30 1521 H 151.092 2.15218 -3.56118 0
M  V30 1522 H 149.968 3.20985 -4.45264 0
M  V30 1523 H 150.229 3.47298 -2.73563 0
M  V30 1524 N 149.288 1.51039 0.449983 0
M  V30 1525 C 150.22 1.67617 1.56324 0
M  V30 1526 C 151.233 0.557083 1.52972 0
M  V30 1527 O 152.422 0.830989 1.57977 0
M  V30 1528 C 149.522 1.66402 2.95235 0
M  V30 1529 C 148.695 2.9469 3.23229 0
M  V30 1530 C 147.754 2.85832 4.41799 0
M  V30 1531 O 146.78 3.59785 4.41071 0
M  V30 1532 N 147.982 2.00821 5.44657 0
M  V30 1533 H 150.747 2.63648 1.42512 0
M  V30 1534 H 148.308 1.48767 0.638737 0
M  V30 1535 H 150.3 1.58062 3.72557 0
M  V30 1536 H 148.87 0.780182 3.02708 0
M  V30 1537 H 148.09 3.16996 2.34323 0
M  V30 1538 H 149.378 3.79636 3.38754 0
M  V30 1539 H 148.776 1.40091 5.48079 0
M  V30 1540 H 147.333 1.98368 6.20881 0
M  V30 1541 N 150.766 -0.704594 1.40972 0
M  V30 1542 C 152.182 -1.01406 1.23244 0
M  V30 1543 C 152.382 -2.01169 0.115399 0
M  V30 1544 O 151.438 -2.47021 -0.523147 0
M  V30 1545 C 152.751 -1.54728 2.57836 0
M  V30 1546 C 154.299 -1.66658 2.64942 0
M  V30 1547 C 154.774 -2.23383 3.9983 0
M  V30 1548 N 156.265 -2.30756 4.01629 0
M  V30 1549 C 157 -2.75655 5.02794 0
M  V30 1550 N 156.496 -3.20225 6.14352 0
M  V30 1551 N 158.289 -2.75138 4.90159 0
M  V30 1552 H 150.44 -0.0435285 2.12355 0
M  V30 1553 H 152.703 -0.0818951 0.944456 0
M  V30 1554 H 152.409 -0.888832 3.40283 0
M  V30 1555 H 152.283 -2.53084 2.79693 0
M  V30 1556 H 154.67 -2.31617 1.8286 0
M  V30 1557 H 154.751 -0.668717 2.46904 0
M  V30 1558 H 154.395 -1.59043 4.82357 0
M  V30 1559 H 154.325 -3.23904 4.15203 0
M  V30 1560 H 156.816 -1.99291 3.21079 0
M  V30 1561 H 157.129 -3.53084 6.87424 0
M  V30 1562 H 155.474 -3.18156 6.17901 0
M  V30 1563 H 158.665 -2.39661 4.02095 0
M  V30 1564 H 158.838 -3.09812 5.6914 0
M  V30 1565 N 152.244 -1.26651 -0.937939 0
M  V30 1566 C 153.492 -1.12165 -1.68118 0
M  V30 1567 C 153.813 0.334983 -1.92101 0
M  V30 1568 O 153.083 1.23583 -1.52 0
M  V30 1569 H 151.663 -0.412093 -0.623048 0
M  V30 1570 H 154.325 -1.59027 -1.12678 0
M  V30 1571 H 153.421 -1.64289 -2.6536 0
M  V30 1572 N 153.722 1.14298 -1.08507 0
M  V30 1573 C 154.654 2.1907 -0.673859 0
M  V30 1574 C 155.667 1.60381 0.279577 0
M  V30 1575 O 156.856 1.78374 0.0670754 0
M  V30 1576 C 153.956 3.38888 0.0290979 0
M  V30 1577 C 153.129 4.27103 -0.943494 0
M  V30 1578 C 152.188 5.25477 -0.275676 0
M  V30 1579 O 151.214 5.61709 -0.920401 0
M  V30 1580 N 152.416 5.7227 0.974013 0
M  V30 1581 H 155.181 2.54965 -1.57521 0
M  V30 1582 H 152.742 1.29528 -0.971287 0
M  V30 1583 H 154.734 4.01761 0.48683 0
M  V30 1584 H 153.304 3.01309 0.832555 0
M  V30 1585 H 152.524 3.61149 -1.58004 0
M  V30 1586 H 153.812 4.82905 -1.60251 0
M  V30 1587 H 153.21 5.44965 1.51755 0
M  V30 1588 H 151.767 6.37127 1.37522 0
M  V30 1589 N 155.201 0.870884 1.31352 0
M  V30 1590 C 156.447 0.482987 1.96965 0
M  V30 1591 C 156.78 -0.962462 1.68672 0
M  V30 1592 O 156.055 -1.6779 0.98371 0
M  V30 1593 C 156.338 0.741752 3.52378 0
M  V30 1594 C 156.191 2.2368 3.9024 0
M  V30 1595 C 157.51 0.208838 4.39604 0
M  V30 1596 H 154.629 0.176955 0.715441 0
M  V30 1597 H 157.271 1.09229 1.55464 0
M  V30 1598 H 155.421 0.223149 3.87859 0
M  V30 1599 H 157.093 2.82273 3.64856 0
M  V30 1600 H 155.336 2.70901 3.38814 0
M  V30 1601 H 156.007 2.3685 4.98604 0
M  V30 1602 H 158.483 0.652529 4.10952 0
M  V30 1603 H 157.359 0.419336 5.47296 0
M  V30 1604 H 157.62 -0.889275 4.33064 0
M  V30 1605 N 156.679 -1.44442 0.630414 0
M  V30 1606 C 157.928 -2.01267 0.132073 0
M  V30 1607 C 158.241 -1.50172 -1.25331 0
M  V30 1608 O 159.447 -1.9912 -1.84562 0
M  V30 1609 C 157.903 -3.59422 0.185362 0
M  V30 1610 C 157.511 -4.19514 1.57201 0
M  V30 1611 C 159.255 -4.23724 -0.256553 0
M  V30 1612 C 157.162 -5.69891 1.58045 0
M  V30 1613 H 156.092 -0.752619 0.0456092 0
M  V30 1614 H 158.743 -1.65666 0.789106 0
M  V30 1615 H 157.125 -3.92318 -0.538759 0
M  V30 1616 H 158.299 -3.98156 2.31966 0
M  V30 1617 H 156.614 -3.67496 1.95795 0
M  V30 1618 H 159.211 -5.34019 -0.269767 0
M  V30 1619 H 159.554 -3.96013 -1.28372 0
M  V30 1620 H 160.087 -3.95629 0.41505 0
M  V30 1621 H 156.826 -6.02336 2.58597 0
M  V30 1622 H 156.346 -5.93373 0.875725 0
M  V30 1623 H 158.025 -6.33515 1.31408 0
M  V30 1624 N 158.157 -0.370918 -1.53173 0
M  V30 1625 C 159.087 0.464847 -2.28826 0
M  V30 1626 C 160.068 1.07936 -1.31468 0
M  V30 1627 O 161.253 1.0956 -1.60344 0
M  V30 1628 C 158.383 1.60196 -3.08147 0
M  V30 1629 C 157.337 1.11443 -4.13237 0
M  V30 1630 C 156.663 2.3422 -4.80672 0
M  V30 1631 C 157.963 0.195384 -5.21934 0
M  V30 1632 H 159.657 -0.166329 -2.98938 0
M  V30 1633 H 157.203 -0.0814359 -1.4377 0
M  V30 1634 H 159.156 2.19332 -3.59822 0
M  V30 1635 H 157.88 2.26045 -2.35735 0
M  V30 1636 H 156.539 0.545727 -3.62515 0
M  V30 1637 H 156.187 2.98537 -4.04827 0
M  V30 1638 H 155.887 2.02269 -5.51689 0
M  V30 1639 H 157.411 2.94032 -5.35143 0
M  V30 1640 H 158.825 0.694375 -5.69079 0
M  V30 1641 H 157.222 -0.0335027 -6.00091 0
M  V30 1642 H 158.292 -0.760961 -4.78892 0
M  V30 1643 N 159.635 1.57281 -0.100228 0
M  V30 1644 C 160.912 1.86014 0.604812 0
M  V30 1645 C 161.292 0.998025 1.86018 0
M  V30 1646 O 160.64 0.0718184 2.28387 0
M  V30 1647 C 160.85 3.36784 0.915278 0
M  V30 1648 C 162.198 4.04957 1.27651 0
M  V30 1649 O 163.222 3.41695 1.00613 0
M  V30 1650 O 162.081 5.16593 1.7831 0
M  V30 1651 H 159.175 0.76942 0.303185 0
M  V30 1652 H 161.721 1.69176 -0.133313 0
M  V30 1653 H 160.493 3.91292 0.0248896 0
M  V30 1654 H 160.116 3.58987 1.70921 0
M  V30 1655 N 161.113 -0.173488 1.56642 0
M  V30 1656 C 162.043 -1.2171 1.99271 0
M  V30 1657 C 163.024 -1.46289 0.867959 0
M  V30 1658 O 164.209 -1.5766 1.13388 0
M  V30 1659 C 161.339 -2.55651 2.35074 0
M  V30 1660 C 160.293 -2.45645 3.50489 0
M  V30 1661 C 159.619 -3.84056 3.72028 0
M  V30 1662 C 160.919 -1.96302 4.84007 0
M  V30 1663 H 162.613 -0.86275 2.867 0
M  V30 1664 H 160.159 -0.413571 1.37933 0
M  V30 1665 H 162.112 -3.2886 2.63494 0
M  V30 1666 H 160.836 -2.92869 1.44552 0
M  V30 1667 H 159.495 -1.7489 3.22194 0
M  V30 1668 H 159.143 -4.18664 2.788 0
M  V30 1669 H 158.843 -3.7823 4.49684 0
M  V30 1670 H 160.367 -4.58854 4.02846 0
M  V30 1671 H 161.781 -2.59284 5.11317 0
M  V30 1672 H 160.178 -2.01429 5.65284 0
M  V30 1673 H 161.248 -0.917226 4.76146 0
M  V30 1674 N 162.591 -1.51276 -0.441967 0
M  V30 1675 C 163.538 -1.72256 -1.53612 0
M  V30 1676 C 164.508 -0.564164 -1.56225 0
M  V30 1677 O 165.693 -0.798074 -1.73307 0
M  V30 1678 C 162.833 -1.84932 -2.91366 0
M  V30 1679 C 161.946 -3.12459 -2.98317 0
M  V30 1680 C 161.081 -3.15758 -4.27166 0
M  V30 1681 C 160.12 -4.37619 -4.27967 0
M  V30 1682 N 159.257 -4.38493 -5.48333 0
M  V30 1683 H 164.097 -2.65654 -1.35026 0
M  V30 1684 H 161.634 -1.31662 -0.656009 0
M  V30 1685 H 163.592 -1.90263 -3.7129 0
M  V30 1686 H 162.222 -0.949461 -3.08521 0
M  V30 1687 H 161.274 -3.1646 -2.11086 0
M  V30 1688 H 162.586 -4.02382 -2.94771 0
M  V30 1689 H 161.74 -3.19979 -5.15459 0
M  V30 1690 H 160.479 -2.23715 -4.33362 0
M  V30 1691 H 159.484 -4.33579 -3.38067 0
M  V30 1692 H 160.709 -5.30921 -4.23438 0
M  V30 1693 H 158.655 -3.49318 -5.55259 0
M  V30 1694 H 158.572 -5.22219 -5.46647 0
M  V30 1695 H 159.84 -4.469 -6.38671 0
M  V30 1696 N 164.069 0.697108 -1.41344 0
M  V30 1697 C 165.016 1.81106 -1.43071 0
M  V30 1698 C 165.986 1.63632 -0.285275 0
M  V30 1699 O 167.171 1.84504 -0.486091 0
M  V30 1700 C 164.311 3.18975 -1.31715 0
M  V30 1701 C 163.424 3.47892 -2.56115 0
M  V30 1702 C 162.559 4.75367 -2.37064 0
M  V30 1703 C 161.598 4.97247 -3.56948 0
M  V30 1704 N 160.735 6.15947 -3.36977 0
M  V30 1705 H 165.575 1.78965 -2.38276 0
M  V30 1706 H 163.112 0.873975 -1.18322 0
M  V30 1707 H 165.07 3.98615 -1.23133 0
M  V30 1708 H 163.7 3.20297 -0.401183 0
M  V30 1709 H 162.752 2.62669 -2.75153 0
M  V30 1710 H 164.064 3.59962 -3.45295 0
M  V30 1711 H 163.218 5.63059 -2.25941 0
M  V30 1712 H 161.957 4.65541 -1.45338 0
M  V30 1713 H 160.962 4.08004 -3.68527 0
M  V30 1714 H 162.187 5.08934 -4.49626 0
M  V30 1715 H 160.133 6.07336 -2.47949 0
M  V30 1716 H 160.05 6.28777 -4.19732 0
M  V30 1717 H 161.318 7.06377 -3.29623 0
M  V30 1718 N 165.547 1.27147 0.931209 0
M  V30 1719 C 166.48 1.0389 2.0318 0
M  V30 1720 C 167.458 -0.0395716 1.62552 0
M  V30 1721 O 168.642 0.104867 1.88208 0
M  V30 1722 C 165.769 0.575227 3.3378 0
M  V30 1723 C 164.815 1.64774 3.93385 0
M  V30 1724 S 165.648 3.23933 4.26413 0
M  V30 1725 C 166.804 2.79358 5.60098 0
M  V30 1726 H 167.037 1.97075 2.22596 0
M  V30 1727 H 164.57 1.10938 1.07387 0
M  V30 1728 H 166.528 0.314385 4.09294 0
M  V30 1729 H 165.189 -0.336505 3.12292 0
M  V30 1730 H 164.382 1.27454 4.87618 0
M  V30 1731 H 163.984 1.86048 3.24441 0
M  V30 1732 H 166.276 2.24443 6.39243 0
M  V30 1733 H 167.219 3.72322 6.02314 0
M  V30 1734 H 167.627 2.1861 5.20452 0
M  V30 1735 N 167.025 -1.13721 1.09112 0
M  V30 1736 C 167.973 -2.21103 0.722219 0
M  V30 1737 C 168.967 -1.67147 -0.275374 0
M  V30 1738 O 170.173 -1.79477 -0.137176 0
M  V30 1739 H 166.548 -0.720445 0.215553 0
M  V30 1740 H 168.519 -2.49483 1.63709 0
M  V30 1741 C 167.268 -3.47352 0.15543 0
M  V30 1742 H 166.591 -3.89206 0.914246 0
M  V30 1743 H 168.031 -4.2395 -0.0647967 0
M  V30 1744 C 166.49 -3.1814 -1.10852 0
M  V30 1745 O 167.02 -3.36604 -2.19227 0
M  V30 1746 N 165.226 -2.72045 -1.02176 0
M  V30 1747 H 164.773 -2.57221 -0.139764 0
M  V30 1748 H 164.731 -2.52875 -1.8682 0
M  V30 1749 N 168.503 -0.877838 -1.30888 0
M  V30 1750 C 169.45 -0.337538 -2.28318 0
M  V30 1751 C 170.42 0.568346 -1.56074 0
M  V30 1752 O 171.605 0.498298 -1.84178 0
M  V30 1753 C 168.745 0.448142 -3.42178 0
M  V30 1754 C 167.858 -0.48615 -4.29256 0
M  V30 1755 C 166.993 0.314427 -5.30269 0
M  V30 1756 C 166.032 -0.615791 -6.08995 0
M  V30 1757 N 165.169 0.14902 -7.01942 0
M  V30 1758 H 170.009 -1.17356 -2.73919 0
M  V30 1759 H 167.546 -0.590094 -1.34745 0
M  V30 1760 H 169.504 0.919517 -4.06941 0
M  V30 1761 H 168.134 1.24879 -2.97666 0
M  V30 1762 H 167.186 -1.076 -3.64865 0
M  V30 1763 H 168.498 -1.19909 -4.84173 0
M  V30 1764 H 167.652 0.847969 -6.00745 0
M  V30 1765 H 166.391 1.06062 -4.76027 0
M  V30 1766 H 165.396 -1.16102 -5.37401 0
M  V30 1767 H 166.621 -1.36097 -6.65323 0
M  V30 1768 H 164.567 0.877884 -6.50099 0
M  V30 1769 H 164.484 -0.504433 -7.54315 0
M  V30 1770 H 165.752 0.663537 -7.76671 0
M  V30 1771 N 169.982 1.44106 -0.638065 0
M  V30 1772 C 171.231 2.01194 -0.142744 0
M  V30 1773 C 171.544 1.50835 1.24532 0
M  V30 1774 O 172.75 2.00096 1.83504 0
M  V30 1775 C 171.206 3.59319 -0.20442 0
M  V30 1776 C 170.814 4.18674 -1.59423 0
M  V30 1777 C 172.558 4.23854 0.234079 0
M  V30 1778 C 170.465 5.69045 -1.61065 0
M  V30 1779 H 169.395 0.752367 -0.0495998 0
M  V30 1780 H 172.046 1.65246 -0.797881 0
M  V30 1781 H 170.428 3.92598 0.517946 0
M  V30 1782 H 171.602 3.96921 -2.34074 0
M  V30 1783 H 169.917 3.66453 -1.97741 0
M  V30 1784 H 172.514 5.34155 0.241443 0
M  V30 1785 H 172.857 3.96688 1.2627 0
M  V30 1786 H 173.39 3.95403 -0.436025 0
M  V30 1787 H 170.129 6.00956 -2.61787 0
M  V30 1788 H 169.649 5.929 -0.90718 0
M  V30 1789 H 171.328 6.32809 -1.34766 0
M  V30 1790 N 171.46 0.379036 1.52974 0
M  V30 1791 C 172.709 -0.207612 2.00629 0
M  V30 1792 C 173.022 -1.48758 1.27006 0
M  V30 1793 O 174.228 -2.15365 1.65318 0
M  V30 1794 C 172.684 -0.42053 3.57435 0
M  V30 1795 C 172.292 0.845587 4.39948 0
M  V30 1796 C 174.036 -0.964102 4.13407 0
M  V30 1797 C 171.943 0.601513 5.88333 0
M  V30 1798 H 170.873 -0.0813591 0.749598 0
M  V30 1799 H 173.524 0.499853 1.76561 0
M  V30 1800 H 171.906 -1.18959 3.7771 0
M  V30 1801 H 173.08 1.61848 4.31442 0
M  V30 1802 H 171.395 1.31336 3.95145 0
M  V30 1803 H 173.992 -1.16225 5.21916 0
M  V30 1804 H 174.335 -1.93019 3.68849 0
M  V30 1805 H 174.868 -0.25487 3.96983 0
M  V30 1806 H 171.607 1.53831 6.37194 0
M  V30 1807 H 171.127 -0.132628 5.99653 0
M  V30 1808 H 172.806 0.232134 6.46583 0
M  V30 1809 N 172.938 -1.57226 0.108567 0
M  V30 1810 C 173.885 -2.14756 -0.845481 0
M  V30 1811 C 174.855 -1.06971 -1.27068 0
M  V30 1812 O 176.04 -1.34827 -1.35005 0
M  V30 1813 C 173.18 -2.74298 -2.09415 0
M  V30 1814 C 172.293 -3.96358 -1.71826 0
M  V30 1815 C 171.428 -4.44021 -2.9158 0
M  V30 1816 C 170.467 -5.58637 -2.50181 0
M  V30 1817 N 169.604 -6.01091 -3.62814 0
M  V30 1818 H 174.444 -2.95961 -0.348035 0
M  V30 1819 H 171.981 -1.46226 -0.160106 0
M  V30 1820 H 173.939 -3.06945 -2.82561 0
M  V30 1821 H 172.569 -1.95801 -2.56636 0
M  V30 1822 H 171.621 -3.69939 -0.885947 0
M  V30 1823 H 172.933 -4.79504 -1.37394 0
M  V30 1824 H 172.087 -4.78522 -3.72963 0
M  V30 1825 H 170.826 -3.59803 -3.29231 0
M  V30 1826 H 169.831 -5.23751 -1.67228 0
M  V30 1827 H 171.056 -6.44613 -2.13659 0
M  V30 1828 H 169.002 -5.19817 -4.00158 0
M  V30 1829 H 168.919 -6.79066 -3.32273 0
M  V30 1830 H 170.187 -6.40227 -4.44668 0
M  V30 1831 N 174.416 0.165178 -1.56732 0
M  V30 1832 C 175.665 0.879143 -1.81532 0
M  V30 1833 C 175.978 1.83144 -0.686842 0
M  V30 1834 O 177.184 2.58823 -0.819944 0
M  V30 1835 C 175.64 1.61388 -3.21686 0
M  V30 1836 C 175.248 0.704904 -4.4242 0
M  V30 1837 C 176.992 2.3157 -3.55774 0
M  V30 1838 C 174.899 1.44022 -5.73595 0
M  V30 1839 H 173.829 0.332033 -0.676957 0
M  V30 1840 H 176.48 0.132008 -1.83025 0
M  V30 1841 H 174.862 2.40599 -3.14529 0
M  V30 1842 H 176.036 -0.0506815 -4.60772 0
M  V30 1843 H 174.351 0.112419 -4.16248 0
M  V30 1844 H 176.948 2.8719 -4.51028 0
M  V30 1845 H 177.291 3.07201 -2.8095 0
M  V30 1846 H 177.824 1.59297 -3.64513 0
M  V30 1847 H 174.563 0.72612 -6.51466 0
M  V30 1848 H 174.083 2.16898 -5.5921 0
M  V30 1849 H 175.762 1.98606 -6.15764 0
M  V30 1850 N 175.894 1.51508 0.433938 0
M  V30 1851 C 177.171 1.54888 1.19453 0
M  V30 1852 C 177.551 0.315154 2.08734 0
M  V30 1853 O 176.899 -0.699558 2.17528 0
M  V30 1854 C 177.109 2.86467 1.99342 0
M  V30 1855 C 178.457 3.38545 2.56267 0
M  V30 1856 O 179.481 2.88041 2.0955 0
M  V30 1857 O 178.34 4.26675 3.41483 0
M  V30 1858 H 175.434 0.622863 0.544032 0
M  V30 1859 H 177.98 1.63823 0.442732 0
M  V30 1860 H 176.752 3.67718 1.33788 0
M  V30 1861 H 176.375 2.8071 2.8158 0
M  V30 1862 N 177.372 -0.689602 1.41712 0
M  V30 1863 C 178.783 -1.26973 1.36875 0
M  V30 1864 C 179.134 -1.96124 0.054748 0
M  V30 1865 O 178.259 -1.99141 -0.84687 0
M  V30 1866 C 178.854 -2.30912 2.47922 0
M  V30 1867 C 177.413 -2.84486 2.46464 0
M  V30 1868 C 176.56 -1.58603 2.27465 0
M  V30 1869 H 179.511 -0.48396 1.51141 0
M  V30 1870 H 179.532 -3.12331 2.17323 0
M  V30 1871 H 179.044 -1.80554 3.43543 0
M  V30 1872 H 177.145 -3.39005 1.54617 0
M  V30 1873 H 177.258 -3.34511 3.42986 0
M  V30 1874 H 175.622 -1.84632 1.75451 0
M  V30 1875 H 176.405 -1.10233 3.25121 0
M  V30 1876 N 178.85 -1.27639 -0.924453 0
M  V30 1877 C 179.76 -1.12466 -2.05885 0
M  V30 1878 C 180.776 -0.053869 -1.73917 0
M  V30 1879 O 181.952 -0.261012 -1.99702 0
M  V30 1880 C 179.017 -0.776768 -3.37886 0
M  V30 1881 C 178.078 -1.92878 -3.83532 0
M  V30 1882 C 177.311 -1.59739 -5.09234 0
M  V30 1883 O 177.534 -0.506782 -5.68144 0
M  V30 1884 O 176.468 -2.43761 -5.50331 0
M  V30 1885 H 180.294 -2.07671 -2.21599 0
M  V30 1886 H 177.879 -1.06857 -1.04413 0
M  V30 1887 H 179.761 -0.596229 -4.17161 0
M  V30 1888 H 178.436 0.145732 -3.23372 0
M  V30 1889 H 177.343 -2.1644 -3.0513 0
M  V30 1890 H 178.676 -2.8316 -4.02593 0
M  V30 1891 N 180.328 1.1314 -1.09713 0
M  V30 1892 C 181.261 2.17735 -0.683137 0
M  V30 1893 C 182.239 1.59582 0.311841 0
M  V30 1894 O 183.423 1.87298 0.212514 0
M  V30 1895 C 180.55 3.38699 -0.00684324 0
M  V30 1896 C 179.596 4.1546 -0.964102 0
M  V30 1897 S 180.429 4.74733 -2.47767 0
M  V30 1898 C 181.585 5.9904 -1.81387 0
M  V30 1899 H 181.818 2.52515 -1.56918 0
M  V30 1900 H 179.351 1.24484 -0.913404 0
M  V30 1901 H 181.309 4.08765 0.377044 0
M  V30 1902 H 179.97 3.02214 0.85589 0
M  V30 1903 H 179.163 5.02093 -0.43803 0
M  V30 1904 H 178.765 3.51066 -1.28953 0
M  V30 1905 H 181.057 6.67846 -1.13967 0
M  V30 1906 H 182 6.56261 -2.65947 0
M  V30 1907 H 182.408 5.4976 -1.28155 0
M  V30 1908 N 181.806 0.884767 1.30421 0
M  V30 1909 C 183.046 0.509806 1.9794 0
M  V30 1910 C 183.41 -0.923736 1.68319 0
M  V30 1911 O 184.611 -1.40481 2.29169 0
M  V30 1912 C 182.882 0.776732 3.48858 0
M  V30 1913 S 184.441 0.503843 4.35898 0
M  V30 1914 H 181.259 0.189699 0.685227 0
M  V30 1915 H 183.861 1.14399 1.58535 0
M  V30 1916 H 182.565 1.81857 3.67908 0
M  V30 1917 H 182.096 0.1301 3.93185 0
M  V30 1918 H 184.111 -0.657625 4.91823 0
M  V30 1919 N 183.284 -1.43765 0.645699 0
M  V30 1920 C 184.514 -2.05953 0.163318 0
M  V30 1921 C 184.922 -1.48432 -1.17322 0
M  V30 1922 O 184.265 -0.607295 -1.73371 0
M  V30 1923 C 184.327 -3.59499 -0.0103065 0
M  V30 1924 C 183.991 -4.39563 1.25035 0
M  V30 1925 C 184.988 -4.72108 2.17739 0
M  V30 1926 C 182.673 -4.79697 1.48983 0
M  V30 1927 C 184.667 -5.43688 3.3269 0
M  V30 1928 C 182.354 -5.51023 2.64229 0
M  V30 1929 C 183.352 -5.8294 3.55908 0
M  V30 1930 O 183.04 -6.5281 4.69142 0
M  V30 1931 H 182.772 -0.670798 0.0836986 0
M  V30 1932 H 185.326 -1.85384 0.884407 0
M  V30 1933 H 183.556 -3.78613 -0.78669 0
M  V30 1934 H 185.245 -4.03408 -0.449087 0
M  V30 1935 H 186.011 -4.41627 2.00476 0
M  V30 1936 H 181.89 -4.54266 0.785078 0
M  V30 1937 H 185.434 -5.68517 4.04269 0
M  V30 1938 H 181.331 -5.8092 2.81429 0
M  V30 1939 H 182.099 -6.71288 4.6831 0
M  V30 1940 N 184.763 -0.387143 -1.52771 0
M  V30 1941 C 185.726 0.436939 -2.24997 0
M  V30 1942 C 186.726 0.991991 -1.26555 0
M  V30 1943 O 187.916 0.874335 -1.50669 0
M  V30 1944 C 185.048 1.61281 -3.00335 0
M  V30 1945 H 186.241 -0.195365 -2.99263 0
M  V30 1946 H 183.794 -0.139218 -1.55679 0
M  V30 1947 H 184.529 2.2826 -2.30364 0
M  V30 1948 H 184.314 1.22154 -3.72587 0
M  V30 1949 H 185.804 2.19629 -3.5518 0
M  V30 1950 N 186.241 1.57166 -0.116904 0
M  V30 1951 C 187.171 2.18222 0.830759 0
M  V30 1952 C 188.152 1.12167 1.27877 0
M  V30 1953 O 189.337 1.40394 1.34176 0
M  V30 1954 C 186.467 2.77996 2.08172 0
M  V30 1955 C 185.421 3.89614 1.77157 0
M  V30 1956 C 184.747 4.36187 3.09265 0
M  V30 1957 C 186.047 5.1181 1.04151 0
M  V30 1958 H 187.741 2.97664 0.321992 0
M  V30 1959 H 185.287 1.4318 0.153434 0
M  V30 1960 H 187.24 3.19366 2.74924 0
M  V30 1961 H 185.964 1.9584 2.6137 0
M  V30 1962 H 184.623 3.48816 1.12796 0
M  V30 1963 H 184.271 3.50893 3.60393 0
M  V30 1964 H 183.971 5.11455 2.89288 0
M  V30 1965 H 185.495 4.80207 3.77139 0
M  V30 1966 H 186.909 5.50214 1.61052 0
M  V30 1967 H 185.306 5.92648 0.942762 0
M  V30 1968 H 186.376 4.84892 0.0279022 0
M  V30 1969 N 187.719 -0.156864 1.56817 0
M  V30 1970 C 188.965 -0.872416 1.83076 0
M  V30 1971 C 189.298 -1.81261 0.697001 0
M  V30 1972 O 188.573 -1.92171 -0.30008 0
M  V30 1973 C 188.856 -1.65551 3.19789 0
M  V30 1974 C 188.709 -0.737467 4.43713 0
M  V30 1975 C 190.028 -2.62012 3.53606 0
M  V30 1976 H 187.147 -0.315715 0.665953 0
M  V30 1977 H 189.789 -0.138004 1.89498 0
M  V30 1978 H 187.939 -2.28159 3.14445 0
M  V30 1979 H 189.611 -0.123143 4.61136 0
M  V30 1980 H 187.854 -0.0464067 4.33775 0
M  V30 1981 H 188.525 -1.32122 5.35955 0
M  V30 1982 H 191.001 -2.09525 3.59497 0
M  V30 1983 H 189.877 -3.13861 4.50314 0
M  V30 1984 H 190.138 -3.42902 2.79053 0
M  V30 1985 N 189.197 -1.51736 -0.425897 0
M  V30 1986 C 190.107 -1.76738 -1.54275 0
M  V30 1987 C 191.123 -0.65211 -1.61318 0
M  V30 1988 O 192.299 -0.935654 -1.78346 0
M  V30 1989 C 189.364 -1.89755 -2.90162 0
M  V30 1990 C 188.425 -3.13633 -2.93143 0
M  V30 1991 C 187.658 -3.2602 -4.22548 0
M  V30 1992 O 187.881 -2.44067 -5.15546 0
M  V30 1993 O 186.815 -4.19071 -4.32046 0
M  V30 1994 H 190.641 -2.71502 -1.36089 0
M  V30 1995 H 188.226 -1.36376 -0.610069 0
M  V30 1996 H 190.108 -2.00236 -3.70788 0
M  V30 1997 H 188.783 -0.981785 -3.08452 0
M  V30 1998 H 187.69 -3.08622 -2.11431 0
M  V30 1999 H 189.023 -4.04936 -2.798 0
M  V30 2000 N 190.675 0.682077 -1.42076 0
M  V30 2001 C 192.086 1.26246 -1.37546 0
M  V30 2002 C 192.437 1.96092 -0.0651481 0
M  V30 2003 O 191.562 1.99587 0.836297 0
M  V30 2004 C 192.157 2.29594 -2.49143 0
M  V30 2005 C 190.716 2.83175 -2.47969 0
M  V30 2006 C 189.863 1.57395 -2.28303 0
M  V30 2007 H 192.814 0.475937 -1.51395 0
M  V30 2008 H 192.835 3.11175 -2.18976 0
M  V30 2009 H 192.347 1.78729 -3.44496 0
M  V30 2010 H 190.448 3.3818 -1.56413 0
M  V30 2011 H 190.561 3.32687 -3.44755 0
M  V30 2012 H 188.925 1.83699 -1.76428 0
M  V30 2013 H 189.708 1.08507 -3.25701 0
M  V30 2014 N 192.153 1.28127 0.917671 0
M  V30 2015 C 193.401 1.14825 1.66312 0
M  V30 2016 C 193.722 -0.304379 1.9261 0
M  V30 2017 O 192.992 -1.21149 1.53947 0
M  V30 2018 H 191.572 0.421953 0.616413 0
M  V30 2019 H 194.234 1.608 1.10134 0
M  V30 2020 H 193.33 1.68489 2.62712 0
M  V30 2021 N 193.631 -1.12557 1.10312 0
M  V30 2022 C 194.877 -1.84311 0.846011 0
M  V30 2023 C 195.21 -1.83805 -0.626859 0
M  V30 2024 O 194.485 -1.28268 -1.46211 0
M  V30 2025 C 194.768 -3.32048 1.39341 0
M  V30 2026 C 194.621 -3.41016 2.93305 0
M  V30 2027 C 195.94 -4.27764 1.03468 0
M  V30 2028 H 193.059 -0.669192 0.30879 0
M  V30 2029 H 195.701 -1.32057 1.36605 0
M  V30 2030 H 193.851 -3.76678 0.951087 0
M  V30 2031 H 195.523 -3.05031 3.46055 0
M  V30 2032 H 193.766 -2.81603 3.29973 0
M  V30 2033 H 194.437 -4.44948 3.26689 0
M  V30 2034 H 196.913 -3.91253 1.41633 0
M  V30 2035 H 195.789 -5.29549 1.44463 0
M  V30 2036 H 196.05 -4.42064 -0.0560404 0
M  V30 2037 N 195.109 -0.891671 -1.2995 0
M  V30 2038 C 196.337 -0.52866 -2.00032 0
M  V30 2039 C 196.752 0.884574 -1.66795 0
M  V30 2040 O 196.109 1.5827 -0.908669 0
M  V30 2041 C 196.16 -0.701814 -3.54622 0
M  V30 2042 O 195.881 -2.05942 -3.86678 0
M  V30 2043 C 197.382 -0.342683 -4.41973 0
M  V30 2044 H 194.602 -0.203659 -0.639347 0
M  V30 2045 H 197.146 -1.19881 -1.65677 0
M  V30 2046 H 195.301 -0.0789468 -3.8732 0
M  V30 2047 H 195.715 -2.08291 -4.81368 0
M  V30 2048 H 197.189 -0.514709 -5.49595 0
M  V30 2049 H 197.666 0.71975 -4.33262 0
M  V30 2050 H 198.272 -0.942154 -4.14733 0
M  V30 2051 N 196.587 1.43421 -0.653314 0
M  V30 2052 C 197.834 2.01812 -0.166745 0
M  V30 2053 C 198.162 1.51535 1.21931 0
M  V30 2054 O 197.417 0.698975 1.82792 0
M  V30 2055 C 197.716 3.57176 -0.126623 0
M  V30 2056 C 197.382 4.26798 -1.45444 0
M  V30 2057 C 196.044 4.45534 -1.81805 0
M  V30 2058 C 198.396 4.66225 -2.32989 0
M  V30 2059 C 195.724 5.00961 -3.05377 0
M  V30 2060 C 198.076 5.23021 -3.55853 0
M  V30 2061 C 196.74 5.39973 -3.9241 0
M  V30 2062 H 196.01 0.738484 -0.0610162 0
M  V30 2063 H 198.657 1.71896 -0.84404 0
M  V30 2064 H 196.962 3.86634 0.634123 0
M  V30 2065 H 198.659 4.00112 0.266723 0
M  V30 2066 H 195.249 4.12561 -1.16153 0
M  V30 2067 H 199.433 4.51443 -2.06187 0
M  V30 2068 H 194.689 5.12271 -3.3375 0
M  V30 2069 H 198.863 5.52518 -4.23907 0
M  V30 2070 H 196.49 5.82687 -4.88242 0
M  V30 2071 N 198.065 0.39524 1.52563 0
M  V30 2072 C 199.313 -0.184678 2.01254 0
M  V30 2073 C 199.634 -1.46822 1.28329 0
M  V30 2074 O 198.904 -1.91666 0.405094 0
M  V30 2075 H 197.484 -0.0712355 0.743596 0
M  V30 2076 H 200.146 0.528293 1.87603 0
M  V30 2077 H 199.242 -0.390681 3.09645 0
M  V30 2078 N 199.544 -1.57102 0.125237 0
M  V30 2079 C 200.476 -2.12726 -0.853237 0
M  V30 2080 C 201.489 -1.07145 -1.22571 0
M  V30 2081 O 202.678 -1.34497 -1.17358 0
M  V30 2082 C 199.778 -2.61709 -2.15317 0
M  V30 2083 C 198.951 -3.91456 -1.95143 0
M  V30 2084 C 198.01 -4.25973 -3.08923 0
M  V30 2085 O 197.036 -4.94682 -2.81564 0
M  V30 2086 N 198.238 -3.83795 -4.35524 0
M  V30 2087 H 201.003 -2.97307 -0.377964 0
M  V30 2088 H 198.564 -1.61792 -0.0590011 0
M  V30 2089 H 200.556 -2.81826 -2.90441 0
M  V30 2090 H 199.126 -1.81974 -2.54174 0
M  V30 2091 H 198.346 -3.80185 -1.04177 0
M  V30 2092 H 199.634 -4.76283 -1.78976 0
M  V30 2093 H 199.032 -3.2839 -4.60626 0
M  V30 2094 H 197.589 -4.09008 -5.07499 0
M  V30 2095 N 201.022 0.148545 -1.56898 0
M  V30 2096 C 201.955 1.21293 -1.93296 0
M  V30 2097 C 202.933 1.41637 -0.798599 0
M  V30 2098 O 204.117 1.56275 -1.05406 0
M  V30 2099 C 201.244 2.5721 -2.20365 0
M  V30 2100 C 200.29 2.53469 -3.4301 0
M  V30 2101 S 201.123 2.00315 -4.96623 0
M  V30 2102 C 202.279 3.37964 -5.26812 0
M  V30 2103 H 202.512 0.902393 -2.83274 0
M  V30 2104 H 200.045 0.354094 -1.50285 0
M  V30 2105 H 202.003 3.35427 -2.36641 0
M  V30 2106 H 200.664 2.85454 -1.31054 0
M  V30 2107 H 199.857 3.53518 -3.59223 0
M  V30 2108 H 199.459 1.83359 -3.25968 0
M  V30 2109 H 201.751 4.34066 -5.20185 0
M  V30 2110 H 202.694 3.26606 -6.28279 0
M  V30 2111 H 203.102 3.35028 -4.54331 0
M  V30 2112 N 202.5 1.5196 0.417844 0
M  V30 2113 C 203.73 1.69181 1.18581 0
M  V30 2114 C 204.138 0.397104 1.84986 0
M  V30 2115 O 203.481 -0.636011 1.72339 0
M  V30 2116 C 203.543 2.76497 2.29759 0
M  V30 2117 C 203.207 4.18514 1.83563 0
M  V30 2118 C 204.204 5.02648 1.32821 0
M  V30 2119 C 201.889 4.64708 1.90661 0
M  V30 2120 C 203.883 6.31044 0.897894 0
M  V30 2121 C 201.57 5.93096 1.47241 0
M  V30 2122 C 202.568 6.76093 0.968891 0
M  V30 2123 O 202.256 8.02078 0.540924 0
M  V30 2124 H 201.988 0.570457 0.362705 0
M  V30 2125 H 204.542 1.99249 0.498885 0
M  V30 2126 H 202.772 2.41786 3.01789 0
M  V30 2127 H 204.461 2.82403 2.91553 0
M  V30 2128 H 205.227 4.68154 1.26716 0
M  V30 2129 H 201.106 4.00216 2.28797 0
M  V30 2130 H 204.65 6.95776 0.504192 0
M  V30 2131 H 200.547 6.271 1.53022 0
M  V30 2132 H 201.315 8.15794 0.66502 0
M  V30 2133 N 203.978 -0.674533 1.42435 0
M  V30 2134 C 205.255 -1.4305 1.33402 0
M  V30 2135 C 205.635 -2.11081 -0.0284674 0
M  V30 2136 O 204.983 -2.03257 -1.04397 0
M  V30 2137 C 205.193 -2.43272 2.50239 0
M  V30 2138 C 206.541 -3.07907 2.92367 0
M  V30 2139 O 207.565 -2.53599 2.50132 0
M  V30 2140 O 206.424 -4.0632 3.65467 0
M  V30 2141 H 203.518 -0.638076 0.526106 0
M  V30 2142 H 206.064 -0.703235 1.54443 0
M  V30 2143 H 204.836 -1.91803 3.41068 0
M  V30 2144 H 204.459 -3.23479 2.31186 0
M  V30 2145 N 205.456 -1.28612 -0.910864 0
M  V30 2146 C 206.686 -1.1862 -1.69153 0
M  V30 2147 C 207.094 0.257324 -1.87442 0
M  V30 2148 O 206.437 1.18543 -1.40332 0
M  V30 2149 C 206.499 -1.81606 -3.10257 0
M  V30 2150 C 206.163 -3.30864 -3.15243 0
M  V30 2151 C 207.16 -4.27256 -2.96223 0
M  V30 2152 C 204.845 -3.71871 -3.37664 0
M  V30 2153 C 206.839 -5.62631 -2.99541 0
M  V30 2154 C 204.526 -5.07371 -3.40614 0
M  V30 2155 C 205.524 -6.02561 -3.21573 0
M  V30 2156 O 205.212 -7.35589 -3.2429 0
M  V30 2157 H 204.944 -0.412633 -0.535453 0
M  V30 2158 H 207.498 -1.70306 -1.14827 0
M  V30 2159 H 205.728 -1.24418 -3.66138 0
M  V30 2160 H 207.417 -1.66092 -3.70362 0
M  V30 2161 H 208.183 -3.9691 -2.78725 0
M  V30 2162 H 204.062 -2.98241 -3.5153 0
M  V30 2163 H 207.606 -6.36907 -2.84597 0
M  V30 2164 H 203.503 -5.37366 -3.57642 0
M  V30 2165 H 204.271 -7.44252 -3.40633 0
M  V30 2166 N 206.934 1.1197 -1.10907 0
M  V30 2167 C 208.183 1.82947 -0.849302 0
M  V30 2168 C 208.496 1.85275 0.627112 0
M  V30 2169 O 209.702 2.52296 1.00295 0
M  V30 2170 C 208.158 3.28529 -1.46959 0
M  V30 2171 C 207.766 3.34546 -2.97965 0
M  V30 2172 C 209.51 4.04443 -1.28942 0
M  V30 2173 C 207.417 4.74491 -3.53004 0
M  V30 2174 H 206.347 0.685477 -0.314065 0
M  V30 2175 H 208.998 1.2604 -1.33365 0
M  V30 2176 H 207.38 3.85333 -0.912917 0
M  V30 2177 H 208.554 2.87654 -3.59989 0
M  V30 2178 H 206.869 2.72108 -3.15192 0
M  V30 2179 H 209.466 5.07787 -1.67502 0
M  V30 2180 H 209.809 4.15656 -0.231456 0
M  V30 2181 H 210.342 3.5401 -1.81443 0
M  V30 2182 H 207.081 4.68474 -4.58489 0
M  V30 2183 H 206.601 5.21816 -2.9575 0
M  V30 2184 H 208.28 5.4344 -3.51115 0
M  V30 2185 N 208.412 0.89855 1.29475 0
M  V30 2186 C 209.344 0.332726 2.26772 0
M  V30 2187 C 210.357 -0.520323 1.54261 0
M  V30 2188 O 211.546 -0.337668 1.75277 0
M  V30 2189 C 208.646 -0.544334 3.345 0
M  V30 2190 C 207.819 0.282728 4.36485 0
M  V30 2191 C 206.878 -0.526982 5.23555 0
M  V30 2192 O 205.904 0.0551165 5.69173 0
M  V30 2193 N 207.106 -1.83331 5.5079 0
M  V30 2194 H 209.871 1.16897 2.75962 0
M  V30 2195 H 207.432 0.762919 1.42798 0
M  V30 2196 H 209.424 -1.09239 3.89678 0
M  V30 2197 H 207.994 -1.28127 2.85136 0
M  V30 2198 H 207.214 1.01221 3.80983 0
M  V30 2199 H 208.502 0.84918 5.01664 0
M  V30 2200 H 207.9 -2.32898 5.15534 0
M  V30 2201 H 206.457 -2.32852 6.08788 0
M  V30 2202 N 209.89 -1.43072 0.660911 0
M  V30 2203 C 210.8 -2.34585 -0.0264163 0
M  V30 2204 C 211.816 -1.54316 -0.803898 0
M  V30 2205 O 212.992 -1.86939 -0.749391 0
M  V30 2206 C 210.057 -3.32689 -0.975639 0
M  V30 2207 C 209.118 -4.2886 -0.194236 0
M  V30 2208 C 208.351 -5.22278 -1.09825 0
M  V30 2209 O 208.574 -5.20299 -2.33763 0
M  V30 2210 O 207.508 -5.99228 -0.566513 0
M  V30 2211 H 211.334 -2.94869 0.727034 0
M  V30 2212 H 208.919 -1.43342 0.42111 0
M  V30 2213 H 210.801 -3.92995 -1.52094 0
M  V30 2214 H 209.476 -2.74898 -1.70918 0
M  V30 2215 H 208.383 -3.72011 0.394835 0
M  V30 2216 H 209.716 -4.89655 0.499899 0
M  V30 2217 N 211.368 -0.403325 -1.52352 0
M  V30 2218 C 212.316 0.439752 -2.28405 0
M  V30 2219 C 213.31 1.05089 -1.32863 0
M  V30 2220 O 214.516 0.989759 -1.50345 0
M  V30 2221 H 210.891 0.160587 -0.734653 0
M  V30 2222 H 212.862 -0.222983 -2.97566 0
M  V30 2223 C 211.611 1.54736 -3.11371 0
M  V30 2224 H 210.934 1.08643 -3.84755 0
M  V30 2225 H 212.374 2.1112 -3.67701 0
M  V30 2226 C 210.833 2.51141 -2.24566 0
M  V30 2227 O 211.363 3.54887 -1.88196 0
M  V30 2228 N 209.569 2.21213 -1.8845 0
M  V30 2229 H 209.116 1.36878 -2.18225 0
M  V30 2230 H 209.074 2.85963 -1.30662 0
M  V30 2231 N 212.846 1.57033 -0.133567 0
M  V30 2232 C 213.794 2.17348 0.828412 0
M  V30 2233 C 214.788 1.12671 1.26498 0
M  V30 2234 O 215.994 1.30947 1.23502 0
M  V30 2235 H 212.369 0.695775 0.285309 0
M  V30 2236 H 214.34 2.96935 0.295372 0
M  V30 2237 C 213.089 2.79893 2.06289 0
M  V30 2238 H 212.412 3.60147 1.73592 0
M  V30 2239 H 213.852 3.25615 2.71572 0
M  V30 2240 C 212.311 1.77713 2.86216 0
M  V30 2241 O 212.841 1.23937 3.82103 0
M  V30 2242 N 211.047 1.47321 2.50489 0
M  V30 2243 H 210.594 1.91243 1.7258 0
M  V30 2244 H 210.552 0.79199 3.04261 0
M  V30 2245 N 214.325 -0.140222 1.56975 0
M  V30 2246 C 215.255 -1.17456 2.01808 0
M  V30 2247 C 216.236 -1.44415 0.898794 0
M  V30 2248 O 217.421 -1.5522 1.16707 0
M  V30 2249 C 214.551 -2.50607 2.40444 0
M  V30 2250 C 213.505 -2.38155 3.55621 0
M  V30 2251 C 212.831 -3.76078 3.80091 0
M  V30 2252 C 214.131 -1.85991 4.88062 0
M  V30 2253 H 215.825 -0.801743 2.88466 0
M  V30 2254 H 213.371 -0.38422 1.38779 0
M  V30 2255 H 215.324 -3.23197 2.7041 0
M  V30 2256 H 214.048 -2.89737 1.50732 0
M  V30 2257 H 212.707 -1.68016 3.25832 0
M  V30 2258 H 212.355 -4.12656 2.87618 0
M  V30 2259 H 212.055 -3.68606 4.57606 0
M  V30 2260 H 213.579 -4.50206 4.12488 0
M  V30 2261 H 214.993 -2.4838 5.16701 0
M  V30 2262 H 213.39 -1.89393 5.6943 0
M  V30 2263 H 214.46 -0.816023 4.77984 0
M  V30 2264 N 215.803 -1.52179 -0.40978 0
M  V30 2265 C 217.214 -1.58377 -0.988615 0
M  V30 2266 C 217.565 -0.423879 -1.91566 0
M  V30 2267 O 216.69 0.455844 -2.11544 0
M  V30 2268 C 217.285 -2.87044 -1.79976 0
M  V30 2269 C 215.844 -2.95722 -2.32863 0
M  V30 2270 C 214.991 -2.53309 -1.12828 0
M  V30 2271 H 217.942 -1.57558 -0.190039 0
M  V30 2272 H 217.963 -2.7236 -2.65707 0
M  V30 2273 H 217.475 -3.71444 -1.12478 0
M  V30 2274 H 215.576 -2.15814 -3.03735 0
M  V30 2275 H 215.689 -3.99951 -2.63773 0
M  V30 2276 H 214.053 -2.07142 -1.48204 0
M  V30 2277 H 214.836 -3.40082 -0.46897 0
M  V30 2278 N 217.281 0.66697 -1.42791 0
M  V30 2279 C 218.527 1.4291 -1.43891 0
M  V30 2280 C 218.86 1.94114 -0.0578972 0
M  V30 2281 O 218.135 1.71414 0.91911 0
M  V30 2282 C 218.418 2.62049 -2.46987 0
M  V30 2283 C 218.271 2.16426 -3.94309 0
M  V30 2284 C 219.59 3.64266 -2.46978 0
M  V30 2285 H 216.709 0.518306 -0.523954 0
M  V30 2286 H 219.351 0.757321 -1.74255 0
M  V30 2287 H 217.501 3.19361 -2.21225 0
M  V30 2288 H 219.173 1.64221 -4.31079 0
M  V30 2289 H 217.416 1.47925 -4.078 0
M  V30 2290 H 218.087 3.02038 -4.62036 0
M  V30 2291 H 220.563 3.16686 -2.69906 0
M  V30 2292 H 219.439 4.45196 -3.21079 0
M  V30 2293 H 219.7 4.15927 -1.49857 0
M  V30 2294 N 218.759 1.29093 0.90403 0
M  V30 2295 C 219.692 1.08176 2.00931 0
M  V30 2296 C 220.67 -0.005083 1.62599 0
M  V30 2297 O 221.854 0.144765 1.87943 0
M  V30 2298 C 218.981 0.645897 3.32484 0
M  V30 2299 C 218.027 1.73081 3.89801 0
M  V30 2300 S 218.86 3.32905 4.19446 0
M  V30 2301 C 220.016 2.91176 5.54046 0
M  V30 2302 H 220.249 2.01752 2.18365 0
M  V30 2303 H 217.782 1.13191 1.0501 0
M  V30 2304 H 219.74 0.401131 4.08535 0
M  V30 2305 H 218.401 -0.270188 3.12936 0
M  V30 2306 H 217.594 1.37768 4.84805 0
M  V30 2307 H 217.196 1.92888 3.20422 0
M  V30 2308 H 219.488 2.37952 6.34338 0
M  V30 2309 H 220.431 3.85014 5.94281 0
M  V30 2310 H 220.839 2.296 5.15698 0
M  V30 2311 N 220.237 -1.11381 1.11499 0
M  V30 2312 C 221.167 -2.19509 0.796125 0
M  V30 2313 C 222.148 -1.68458 -0.235796 0
M  V30 2314 O 223.333 -1.93947 -0.0991344 0
M  V30 2315 C 220.463 -3.46475 0.239205 0
M  V30 2316 C 219.417 -4.10744 1.20307 0
M  V30 2317 C 218.743 -5.32293 0.50683 0
M  V30 2318 C 220.043 -4.55597 2.55399 0
M  V30 2319 H 221.737 -2.46439 1.70024 0
M  V30 2320 H 219.283 -1.18446 0.818935 0
M  V30 2321 H 221.236 -4.214 0.00392006 0
M  V30 2322 H 219.96 -3.19006 -0.700206 0
M  V30 2323 H 218.619 -3.37813 1.42399 0
M  V30 2324 H 218.267 -5.01095 -0.437408 0
M  V30 2325 H 217.967 -5.76243 1.1497 0
M  V30 2326 H 219.491 -6.09956 0.280351 0
M  V30 2327 H 220.905 -5.21841 2.37391 0
M  V30 2328 H 219.302 -5.10363 3.15673 0
M  V30 2329 H 220.372 -3.69013 3.14575 0
M  V30 2330 N 221.715 -0.905404 -1.28997 0
M  V30 2331 C 222.94 -0.549175 -1.99997 0
M  V30 2332 C 223.365 0.860276 -1.67275 0
M  V30 2333 O 222.723 1.57355 -0.900502 0
M  V30 2334 C 222.771 -0.755185 -3.52604 0
M  V30 2335 O 221.875 0.189692 -4.11964 0
M  V30 2336 H 221.216 -0.213899 -0.628604 0
M  V30 2337 H 223.746 -1.21856 -1.64354 0
M  V30 2338 H 223.756 -0.662045 -4.02593 0
M  V30 2339 H 222.431 -1.78271 -3.75755 0
M  V30 2340 H 221.008 0.0485257 -3.72868 0
M  V30 2341 N 223.193 1.4272 -0.668489 0
M  V30 2342 C 224.44 2.01624 -0.18814 0
M  V30 2343 C 224.768 1.5282 1.20317 0
M  V30 2344 O 224.023 0.718323 1.8204 0
M  V30 2345 C 224.322 3.57021 -0.164499 0
M  V30 2346 C 223.988 4.25232 -1.49962 0
M  V30 2347 C 222.65 4.4358 -1.8652 0
M  V30 2348 C 225.002 4.63727 -2.37921 0
M  V30 2349 C 222.33 4.97694 -3.10674 0
M  V30 2350 C 224.682 5.19218 -3.6138 0
M  V30 2351 C 223.346 5.3578 -3.98115 0
M  V30 2352 H 222.616 0.737795 -0.0688454 0
M  V30 2353 H 225.263 1.70991 -0.862225 0
M  V30 2354 H 223.568 3.87285 0.593079 0
M  V30 2355 H 225.265 4.00372 0.224271 0
M  V30 2356 H 221.855 4.11306 -1.20522 0
M  V30 2357 H 226.039 4.4923 -2.10964 0
M  V30 2358 H 221.295 5.08702 -3.39164 0
M  V30 2359 H 225.469 5.4799 -4.29743 0
M  V30 2360 H 223.096 5.77475 -4.94395 0
M  V30 2361 N 224.671 0.411399 1.52136 0
M  V30 2362 C 225.896 -0.165538 2.06738 0
M  V30 2363 C 226.321 -1.379 1.27926 0
M  V30 2364 O 225.679 -1.78628 0.310114 0
M  V30 2365 C 225.727 -0.492124 3.57226 0
M  V30 2366 O 224.831 -1.58276 3.80818 0
M  V30 2367 H 224.172 -0.0132132 0.663869 0
M  V30 2368 H 226.702 0.585253 1.96051 0
M  V30 2369 H 226.712 -0.750104 4.01045 0
M  V30 2370 H 225.387 0.394922 4.14021 0
M  V30 2371 H 223.964 -1.31677 3.48877 0
M  V30 2372 N 226.149 -1.5696 0.141893 0
M  V30 2373 C 227.112 -2.15316 -0.785587 0
M  V30 2374 C 228.112 -1.09366 -1.1788 0
M  V30 2375 O 229.302 -1.35031 -1.10056 0
M  V30 2376 C 226.434 -2.71211 -2.06537 0
M  V30 2377 H 227.627 -2.98608 -0.278041 0
M  V30 2378 H 225.18 -1.5593 -0.107519 0
M  V30 2379 H 225.915 -1.91571 -2.6167 0
M  V30 2380 H 225.7 -3.4872 -1.79268 0
M  V30 2381 H 227.19 -3.16189 -2.72789 0
M  V30 2382 N 227.627 0.131896 -1.57047 0
M  V30 2383 C 229.038 0.690407 -1.73465 0
M  V30 2384 C 229.389 1.8094 -0.758629 0
M  V30 2385 O 228.514 2.16282 0.0713813 0
M  V30 2386 C 229.109 1.25916 -3.14532 0
M  V30 2387 C 227.668 1.76409 -3.32501 0
M  V30 2388 C 226.815 0.658579 -2.69366 0
M  V30 2389 H 229.766 -0.0939144 -1.58422 0
M  V30 2390 H 229.787 2.12892 -3.15369 0
M  V30 2391 H 229.299 0.444515 -3.85546 0
M  V30 2392 H 227.4 2.60391 -2.66509 0
M  V30 2393 H 227.513 1.88241 -4.4057 0
M  V30 2394 H 225.877 1.08899 -2.30246 0
M  V30 2395 H 226.66 -0.14487 -3.42994 0
M  V30 2396 N 229.106 1.52395 0.401703 0
M  V30 2397 C 230.331 1.70972 1.17403 0
M  V30 2398 C 230.756 0.421615 1.83314 0
M  V30 2399 O 230.114 -0.621564 1.70312 0
M  V30 2400 C 230.162 2.85151 2.20728 0
M  V30 2401 O 229.266 2.51238 3.27037 0
M  V30 2402 H 228.607 0.568927 0.342372 0
M  V30 2403 H 231.137 1.99131 0.469891 0
M  V30 2404 H 231.147 3.10279 2.64936 0
M  V30 2405 H 229.822 3.78603 1.7214 0
M  V30 2406 H 228.399 2.36808 2.88057 0
M  V30 2407 N 230.584 -0.659388 1.43143 0
M  V30 2408 C 231.547 -1.75432 1.47501 0
M  V30 2409 C 232.547 -1.56707 0.360512 0
M  V30 2410 O 233.737 -1.62717 0.622002 0
M  V30 2411 C 230.869 -3.14239 1.32162 0
M  V30 2412 H 232.062 -1.7295 2.45006 0
M  V30 2413 H 229.615 -0.870469 1.29817 0
M  V30 2414 H 230.35 -3.22336 0.356401 0
M  V30 2415 H 230.135 -3.29235 2.12948 0
M  V30 2416 H 231.625 -3.94094 1.3813 0
M  V30 2417 N 232.062 -1.29571 -0.897171 0
M  V30 2418 C 233.311 -1.1706 -1.64256 0
M  V30 2419 C 233.624 0.276476 -1.93636 0
M  V30 2420 O 234.83 0.52294 -2.66416 0
M  V30 2421 C 233.286 -2.0475 -2.95982 0
M  V30 2422 C 232.894 -3.54295 -2.74187 0
M  V30 2423 C 234.638 -2.0097 -3.73914 0
M  V30 2424 C 232.545 -4.34081 -4.01656 0
M  V30 2425 H 231.475 -0.43452 -0.616205 0
M  V30 2426 H 234.126 -1.54229 -0.994268 0
M  V30 2427 H 232.508 -1.60452 -3.62038 0
M  V30 2428 H 233.682 -4.06662 -2.1671 0
M  V30 2429 H 231.997 -3.59773 -2.09648 0
M  V30 2430 H 234.594 -2.57838 -4.68427 0
M  V30 2431 H 234.937 -0.990273 -4.0435 0
M  V30 2432 H 235.47 -2.43325 -3.14703 0
M  V30 2433 H 232.209 -5.36671 -3.76384 0
M  V30 2434 H 231.729 -3.86483 -4.58684 0
M  V30 2435 H 233.408 -4.44877 -4.69781 0
M  V30 2436 N 233.54 1.10788 -1.12088 0
M  V30 2437 C 234.503 2.15207 -0.788577 0
M  V30 2438 C 235.503 1.59609 0.195317 0
M  V30 2439 O 236.693 1.74174 -0.0300193 0
M  V30 2440 C 233.825 3.4047 -0.171174 0
M  V30 2441 H 235.018 2.46116 -1.71368 0
M  V30 2442 H 232.571 1.26089 -0.923652 0
M  V30 2443 H 233.306 3.15176 0.763832 0
M  V30 2444 H 233.091 3.82109 -0.879514 0
M  V30 2445 H 234.581 4.17576 0.04496 0
M  V30 2446 N 235.018 0.912232 1.28515 0
M  V30 2447 C 236.266 0.543523 1.94654 0
M  V30 2448 C 236.587 -0.9155 1.72173 0
M  V30 2449 O 235.857 -1.64708 1.06058 0
M  V30 2450 H 234.437 0.198017 0.720277 0
M  V30 2451 H 237.099 1.16126 1.56527 0
M  V30 2452 H 236.195 0.736684 3.03281 0
M  V30 2453 N 236.496 -1.42363 0.676048 0
M  V30 2454 C 237.907 -1.84649 0.275948 0
M  V30 2455 C 238.258 -1.56588 -1.18214 0
M  V30 2456 O 237.383 -1.02634 -1.90513 0
M  V30 2457 C 237.978 -3.35178 0.494053 0
M  V30 2458 C 236.537 -3.76109 0.148061 0
M  V30 2459 C 235.684 -2.65931 0.785891 0
M  V30 2460 H 238.635 -1.32192 0.878121 0
M  V30 2461 H 238.656 -3.79655 -0.25343 0
M  V30 2462 H 238.168 -3.55571 1.55535 0
M  V30 2463 H 236.269 -3.61323 -0.909742 0
M  V30 2464 H 236.382 -4.7546 0.589454 0
M  V30 2465 H 234.746 -2.53773 0.217113 0
M  V30 2466 H 235.529 -2.89146 1.85067 0
M  V30 2467 N 237.974 -0.419461 -1.51915 0
M  V30 2468 C 239.22 0.153166 -2.02221 0
M  V30 2469 C 239.553 1.43907 -1.30401 0
M  V30 2470 O 238.828 1.90055 -0.413438 0
M  V30 2471 C 239.111 0.390291 -3.57979 0
M  V30 2472 C 238.964 -0.913014 -4.40436 0
M  V30 2473 C 240.283 1.16794 -4.2432 0
M  V30 2474 H 237.402 0.0541924 -0.735005 0
M  V30 2475 H 240.044 -0.554955 -1.81715 0
M  V30 2476 H 238.194 0.993491 -3.75582 0
M  V30 2477 H 239.866 -1.54882 -4.34522 0
M  V30 2478 H 238.109 -1.52168 -4.06236 0
M  V30 2479 H 238.78 -0.701361 -5.47526 0
M  V30 2480 H 241.256 0.657161 -4.10878 0
M  V30 2481 H 240.132 1.3026 -5.3322 0
M  V30 2482 H 240.393 2.19132 -3.83971 0
M  V30 2483 N 239.452 1.56882 -0.150215 0
M  V30 2484 C 240.7 1.9584 0.499105 0
M  V30 2485 C 241.021 1.03623 1.65188 0
M  V30 2486 O 240.291 0.0984084 1.95653 0
M  V30 2487 H 238.871 0.723119 0.187373 0
M  V30 2488 H 241.533 1.9358 -0.226466 0
M  V30 2489 H 240.629 2.99638 0.873122 0
M  V30 2490 N 240.93 -0.123565 1.57115 0
M  V30 2491 C 241.878 -1.17082 2.00984 0
M  V30 2492 C 242.872 -1.43136 0.906009 0
M  V30 2493 O 244.078 -1.43152 1.09121 0
M  V30 2494 H 240.453 -0.394653 0.64012 0
M  V30 2495 H 242.424 -0.774292 2.88179 0
M  V30 2496 C 241.173 -2.49057 2.42623 0
M  V30 2497 H 240.496 -2.29846 3.27125 0
M  V30 2498 H 241.936 -3.20906 2.7712 0
M  V30 2499 C 240.395 -3.11305 1.28805 0
M  V30 2500 O 240.925 -3.97171 0.60153 0
M  V30 2501 N 239.131 -2.71111 1.04628 0
M  V30 2502 H 238.678 -2.01382 1.60634 0
M  V30 2503 H 238.636 -3.1309 0.286685 0
M  V30 2504 N 242.408 -1.52605 -0.393616 0
M  V30 2505 C 243.636 -1.71294 -1.16043 0
M  V30 2506 C 244.051 -0.429259 -1.83855 0
M  V30 2507 O 243.408 0.595921 -1.72496 0
M  V30 2508 C 243.459 -2.8593 -2.21193 0
M  V30 2509 O 243.18 -4.09329 -1.56146 0
M  V30 2510 C 244.681 -3.16259 -3.10636 0
M  V30 2511 H 241.901 -0.573641 -0.348104 0
M  V30 2512 H 244.445 -1.99234 -0.461092 0
M  V30 2513 H 242.6 -2.60465 -2.86769 0
M  V30 2514 H 243.014 -4.73323 -2.25978 0
M  V30 2515 H 244.488 -3.99946 -3.80456 0
M  V30 2516 H 244.965 -2.3045 -3.73884 0
M  V30 2517 H 245.571 -3.43547 -2.50711 0
M  V30 2518 N 243.887 0.651787 -1.4349 0
M  V30 2519 C 244.82 1.77668 -1.43211 0
M  V30 2520 C 245.798 1.59931 -0.29338 0
M  V30 2521 O 246.982 1.82095 -0.487191 0
M  V30 2522 C 244.109 3.14986 -1.24505 0
M  V30 2523 C 243.155 3.51421 -2.41673 0
M  V30 2524 S 243.988 3.51234 -4.04222 0
M  V30 2525 C 245.144 4.91206 -3.87902 0
M  V30 2526 H 245.377 1.77635 -2.38397 0
M  V30 2527 H 242.91 0.824558 -1.30539 0
M  V30 2528 H 244.868 3.94237 -1.144 0
M  V30 2529 H 243.529 3.1258 -0.308651 0
M  V30 2530 H 242.722 4.51291 -2.24393 0
M  V30 2531 H 242.324 2.79585 -2.48411 0
M  V30 2532 H 244.616 5.79902 -3.50315 0
M  V30 2533 H 245.559 5.13537 -4.8753 0
M  V30 2534 H 245.967 4.64808 -3.20334 0
M  V30 2535 N 245.365 1.30045 0.890287 0
M  V30 2536 C 246.642 1.09227 1.62262 0
M  V30 2537 C 247.022 -0.360305 2.08002 0
M  V30 2538 O 246.37 -1.35084 1.84295 0
M  V30 2539 C 246.58 2.08835 2.79623 0
M  V30 2540 C 247.928 2.40266 3.50082 0
M  V30 2541 O 248.952 2.07104 2.89804 0
M  V30 2542 O 247.811 2.96967 4.58773 0
M  V30 2543 H 244.905 0.419132 0.712922 0
M  V30 2544 H 247.451 1.41451 0.937529 0
M  V30 2545 H 246.223 3.06633 2.43089 0
M  V30 2546 H 245.846 1.77397 3.55832 0
M  V30 2547 N 246.843 -1.10192 1.12674 0
M  V30 2548 C 248.259 -1.34235 0.863317 0
M  V30 2549 C 248.459 -1.95062 -0.505277 0
M  V30 2550 O 247.515 -2.19192 -1.25345 0
M  V30 2551 C 248.828 -2.2616 1.98172 0
M  V30 2552 C 250.376 -2.3969 2.0129 0
M  V30 2553 C 250.851 -3.34946 3.1237 0
M  V30 2554 N 252.342 -3.42515 3.11829 0
M  V30 2555 C 253.077 -4.16199 3.94419 0
M  V30 2556 N 252.573 -4.92747 4.87004 0
M  V30 2557 N 254.366 -4.11843 3.82547 0
M  V30 2558 H 246.517 -0.690798 2.00853 0
M  V30 2559 H 248.78 -0.366774 0.874174 0
M  V30 2560 H 248.486 -1.8868 2.96804 0
M  V30 2561 H 248.36 -3.26488 1.88906 0
M  V30 2562 H 250.747 -2.76438 1.03276 0
M  V30 2563 H 250.828 -1.39169 2.14629 0
M  V30 2564 H 250.472 -2.98923 4.10619 0
M  V30 2565 H 250.402 -4.35353 2.96269 0
M  V30 2566 H 252.893 -2.87926 2.44759 0
M  V30 2567 H 253.206 -5.46376 5.46528 0
M  V30 2568 H 251.551 -4.91862 4.91016 0
M  V30 2569 H 254.742 -3.51136 3.0955 0
M  V30 2570 H 254.915 -4.69007 4.47142 0
M  V30 2571 N 248.321 -0.919034 -1.28029 0
M  V30 2572 C 249.569 -0.553838 -1.94363 0
M  V30 2573 C 249.89 0.906357 -1.72656 0
M  V30 2574 O 249.16 1.64143 -1.0693 0
M  V30 2575 H 247.74 -0.201834 -0.719216 0
M  V30 2576 H 250.402 -1.16954 -1.55909 0
M  V30 2577 H 249.498 -0.752758 -3.02886 0
M  V30 2578 N 249.799 1.42003 -0.683588 0
M  V30 2579 C 251.045 2.01712 -0.209825 0
M  V30 2580 C 251.378 1.53968 1.18353 0
M  V30 2581 O 250.653 0.745661 1.79639 0
M  V30 2582 C 250.936 3.59202 -0.254197 0
M  V30 2583 C 250.789 4.17102 -1.68363 0
M  V30 2584 C 252.108 4.38344 0.392709 0
M  V30 2585 H 249.227 0.732891 -0.0777189 0
M  V30 2586 H 251.869 1.68909 -0.87004 0
M  V30 2587 H 250.019 3.87278 0.307954 0
M  V30 2588 H 251.691 3.99946 -2.29871 0
M  V30 2589 H 249.934 3.72597 -2.22157 0
M  V30 2590 H 250.605 5.26249 -1.6663 0
M  V30 2591 H 253.081 4.16011 -0.0859162 0
M  V30 2592 H 251.957 5.47901 0.331063 0
M  V30 2593 H 252.218 4.16887 1.47164 0
M  V30 2594 N 251.277 0.427512 1.51691 0
M  V30 2595 C 252.525 -0.141948 2.01601 0
M  V30 2596 C 252.846 -1.44067 1.31414 0
M  V30 2597 O 252.116 -1.90763 0.445658 0
M  V30 2598 H 250.696 -0.0554468 0.744939 0
M  V30 2599 H 253.358 0.567968 1.86441 0
M  V30 2600 H 252.454 -0.324913 3.10404 0
M  V30 2601 N 252.755 -1.56801 0.158532 0
M  V30 2602 C 253.985 -2.00568 -0.495583 0
M  V30 2603 C 254.393 -1.03774 -1.58201 0
M  V30 2604 O 253.736 -0.0285797 -1.83678 0
M  V30 2605 C 253.798 -3.40768 -1.14532 0
M  V30 2606 C 253.462 -4.56553 -0.202101 0
M  V30 2607 C 254.459 -5.16714 0.574675 0
M  V30 2608 C 252.144 -5.02197 -0.101648 0
M  V30 2609 C 254.138 -6.20939 1.43924 0
M  V30 2610 C 251.825 -6.06274 0.766508 0
M  V30 2611 C 252.823 -6.65515 1.53555 0
M  V30 2612 O 252.511 -7.67575 2.38922 0
M  V30 2613 H 252.243 -0.662893 -0.13247 0
M  V30 2614 H 254.797 -2.03829 0.253559 0
M  V30 2615 H 253.027 -3.34381 -1.94233 0
M  V30 2616 H 254.716 -3.6857 -1.70033 0
M  V30 2617 H 255.482 -4.82341 0.507167 0
M  V30 2618 H 251.361 -4.55807 -0.689994 0
M  V30 2619 H 254.905 -6.67107 2.03996 0
M  V30 2620 H 250.802 -6.40073 0.835266 0
M  V30 2621 H 251.57 -7.84844 2.32296 0
M  V30 2622 N 254.233 0.115231 -1.57178 0
M  V30 2623 C 255.461 0.836437 -1.89239 0
M  V30 2624 C 255.876 1.73256 -0.750175 0
M  V30 2625 O 255.233 1.80357 0.278832 0
M  V30 2626 C 255.284 1.66671 -3.20785 0
M  V30 2627 O 255.005 0.806652 -4.3061 0
M  V30 2628 C 256.506 2.49274 -3.66575 0
M  V30 2629 H 253.726 0.240253 -0.626514 0
M  V30 2630 H 256.27 0.0984932 -2.04263 0
M  V30 2631 H 254.425 2.35737 -3.0742 0
M  V30 2632 H 254.839 1.37969 -5.06028 0
M  V30 2633 H 256.313 3.03055 -4.6137 0
M  V30 2634 H 256.79 3.26807 -2.93417 0
M  V30 2635 H 257.396 1.85443 -3.82741 0
M  V30 2636 N 255.711 1.52812 0.385517 0
M  V30 2637 C 257.122 1.5993 0.963293 0
M  V30 2638 C 257.473 0.454302 1.90868 0
M  V30 2639 O 256.598 -0.422132 2.12243 0
M  V30 2640 C 257.193 2.89871 1.75387 0
M  V30 2641 C 255.752 2.99389 2.28129 0
M  V30 2642 C 254.899 2.55071 1.08783 0
M  V30 2643 H 257.85 1.5784 0.164948 0
M  V30 2644 H 257.871 2.76553 2.61341 0
M  V30 2645 H 257.383 3.73186 1.06554 0
M  V30 2646 H 255.484 2.20619 3.00263 0
M  V30 2647 H 255.597 4.04096 2.57377 0
M  V30 2648 H 253.961 2.09473 1.4489 0
M  V30 2649 H 254.744 3.40785 0.414807 0
M  V30 2650 N 257.189 -0.644168 1.43834 0
M  V30 2651 C 258.419 -1.42939 1.49171 0
M  V30 2652 C 258.827 -1.88874 0.111048 0
M  V30 2653 O 258.17 -1.60656 -0.8908 0
M  V30 2654 C 258.232 -2.69151 2.38324 0
M  V30 2655 C 257.896 -2.45097 3.85715 0
M  V30 2656 C 258.893 -2.07747 4.76589 0
M  V30 2657 C 256.578 -2.59141 4.30292 0
M  V30 2658 C 258.572 -1.8475 6.10038 0
M  V30 2659 C 256.259 -2.35759 5.63792 0
M  V30 2660 C 257.257 -1.9862 6.53482 0
M  V30 2661 O 256.945 -1.75489 7.84512 0
M  V30 2662 H 256.677 -0.445271 0.508635 0
M  V30 2663 H 259.231 -0.79621 1.8934 0
M  V30 2664 H 257.461 -3.3506 1.93058 0
M  V30 2665 H 259.15 -3.31123 2.3476 0
M  V30 2666 H 259.916 -1.96465 4.43426 0
M  V30 2667 H 255.795 -2.87022 3.60749 0
M  V30 2668 H 259.339 -1.55686 6.80006 0
M  V30 2669 H 255.236 -2.46646 5.9652 0
M  V30 2670 H 256.004 -1.89841 7.9618 0
M  V30 2671 N 258.668 -1.30515 -0.883378 0
M  V30 2672 C 259.916 -1.19194 -1.63209 0
M  V30 2673 C 260.237 0.253205 -1.93349 0
M  V30 2674 O 259.507 1.17025 -1.57105 0
M  V30 2675 H 258.087 -0.438148 -0.605009 0
M  V30 2676 H 260.749 -1.63663 -1.05832 0
M  V30 2677 H 259.845 -1.75396 -2.58153 0
M  V30 2678 N 260.146 1.09593 -1.13257 0
M  V30 2679 C 261.056 2.19739 -0.821691 0
M  V30 2680 C 262.072 1.72926 0.19302 0
M  V30 2681 O 263.248 2.01385 0.0244895 0
M  V30 2682 C 260.313 3.45482 -0.290333 0
M  V30 2683 C 259.374 4.06985 -1.36607 0
M  V30 2684 C 258.607 5.26726 -0.859975 0
M  V30 2685 O 258.83 5.69594 0.303082 0
M  V30 2686 O 257.764 5.7931 -1.63351 0
M  V30 2687 H 261.59 2.48781 -1.74189 0
M  V30 2688 H 259.175 1.18496 -0.909894 0
M  V30 2689 H 261.057 4.214 0.000674022 0
M  V30 2690 H 259.732 3.18047 0.602306 0
M  V30 2691 H 258.639 3.32712 -1.71037 0
M  V30 2692 H 259.972 4.38643 -2.23279 0
M  V30 2693 N 261.624 0.925811 1.2754 0
M  V30 2694 C 262.574 0.394488 2.24561 0
M  V30 2695 C 263.558 -0.500183 1.52928 0
M  V30 2696 O 264.75 -0.337936 1.73744 0
M  V30 2697 C 261.879 -0.353328 3.41477 0
M  V30 2698 C 260.965 0.557752 4.20416 0
M  V30 2699 N 261.356 1.67674 4.77199 0
M  V30 2700 C 259.654 0.360404 4.44541 0
M  V30 2701 C 260.355 2.24324 5.36706 0
M  V30 2702 N 259.331 1.53305 5.21535 0
M  V30 2703 H 263.133 1.2489 2.66045 0
M  V30 2704 H 260.647 0.779864 1.4245 0
M  V30 2705 H 262.644 -0.7509 4.10082 0
M  V30 2706 H 261.304 -1.20469 3.01525 0
M  V30 2707 H 262.315 2.05915 4.75204 0
M  V30 2708 H 258.992 -0.450454 4.15063 0
M  V30 2709 H 260.382 3.18521 5.91603 0
M  V30 2710 N 263.102 -1.41638 0.69111 0
M  V30 2711 C 264.349 -2.01299 0.220193 0
M  V30 2712 C 264.677 -1.54715 -1.17871 0
M  V30 2713 O 263.932 -0.747193 -1.80874 0
M  V30 2714 C 264.231 -3.56714 0.221277 0
M  V30 2715 C 263.897 -4.22792 1.56709 0
M  V30 2716 C 262.559 -4.40557 1.93554 0
M  V30 2717 C 264.911 -4.59883 2.45268 0
M  V30 2718 C 262.239 -4.92688 3.18552 0
M  V30 2719 C 264.591 -5.13403 3.69595 0
M  V30 2720 C 263.255 -5.29379 4.06589 0
M  V30 2721 H 262.525 -0.736606 0.0805743 0
M  V30 2722 H 265.172 -1.69598 0.889319 0
M  V30 2723 H 263.477 -3.8818 -0.531391 0
M  V30 2724 H 265.174 -4.00678 -0.160547 0
M  V30 2725 H 261.764 -4.09336 1.2705 0
M  V30 2726 H 265.948 -4.45817 2.18084 0
M  V30 2727 H 261.204 -5.03242 3.47214 0
M  V30 2728 H 265.378 -5.41084 4.38407 0
M  V30 2729 H 263.005 -5.69537 5.03519 0
M  V30 2730 N 264.58 -0.43555 -1.51462 0
M  V30 2731 C 265.513 0.421989 -2.24264 0
M  V30 2732 C 266.491 1.02619 -1.26127 0
M  V30 2733 O 267.675 1.069 -1.55257 0
M  V30 2734 C 264.802 1.588 -2.99166 0
M  V30 2735 C 263.848 1.10465 -4.11946 0
M  V30 2736 S 264.681 0.048146 -5.35478 0
M  V30 2737 C 265.837 1.21887 -6.13917 0
M  V30 2738 H 266.07 -0.196102 -2.96653 0
M  V30 2739 H 263.603 -0.220054 -1.52824 0
M  V30 2740 H 265.561 2.25647 -3.42919 0
M  V30 2741 H 264.222 2.1775 -2.26371 0
M  V30 2742 H 263.415 1.97654 -4.63626 0
M  V30 2743 H 263.017 0.51445 -3.70445 0
M  V30 2744 H 265.309 2.13756 -6.42895 0
M  V30 2745 H 266.252 0.742076 -7.04201 0
M  V30 2746 H 266.66 1.45663 -5.45383 0
M  V30 2747 N 266.058 1.56714 -0.166846 0
M  V30 2748 C 266.991 2.13577 0.80375 0
M  V30 2749 C 267.969 1.06464 1.22899 0
M  V30 2750 O 269.153 1.34413 1.32157 0
M  V30 2751 C 266.28 2.67168 2.0818 0
M  V30 2752 C 265.326 3.86612 1.80093 0
M  V30 2753 S 266.159 5.26565 0.97416 0
M  V30 2754 C 267.315 5.83558 2.26297 0
M  V30 2755 H 267.548 2.9557 0.320267 0
M  V30 2756 H 265.081 1.54326 0.0477555 0
M  V30 2757 H 267.039 2.98692 2.8159 0
M  V30 2758 H 265.7 1.85269 2.53642 0
M  V30 2759 H 264.893 4.22422 2.7491 0
M  V30 2760 H 264.495 3.55951 1.14781 0
M  V30 2761 H 266.787 5.962 3.21795 0
M  V30 2762 H 267.73 6.80731 1.94962 0
M  V30 2763 H 268.138 5.11944 2.37853 0
M  V30 2764 N 267.536 -0.106894 1.57237 0
M  V30 2765 C 268.468 -1.15646 1.97885 0
M  V30 2766 C 269.481 -1.36981 0.879779 0
M  V30 2767 O 270.67 -1.35841 1.15799 0
M  V30 2768 C 267.77 -2.51425 2.27241 0
M  V30 2769 C 266.943 -2.50529 3.58545 0
M  V30 2770 C 266.002 -3.68145 3.75973 0
M  V30 2771 O 265.028 -3.51176 4.47956 0
M  V30 2772 N 266.23 -4.87177 3.15656 0
M  V30 2773 H 268.995 -0.81059 2.8853 0
M  V30 2774 H 266.556 -0.296024 1.59171 0
M  V30 2775 H 268.548 -3.28689 2.36105 0
M  V30 2776 H 267.118 -2.78147 1.42663 0
M  V30 2777 H 266.338 -1.58894 3.60758 0
M  V30 2778 H 267.626 -2.46997 4.44826 0
M  V30 2779 H 267.024 -5.03868 2.57165 0
M  V30 2780 H 265.581 -5.62075 3.30023 0
M  V30 2781 N 269.014 -1.53014 -0.377408 0
M  V30 2782 C 270.254 -1.70318 -1.1301 0
M  V30 2783 C 270.618 -0.439538 -1.86901 0
M  V30 2784 O 271.819 -0.489095 -2.64313 0
M  V30 2785 C 270.09 -2.91125 -2.07319 0
M  V30 2786 S 271.649 -3.29075 -2.90268 0
M  V30 2787 H 268.467 -0.599426 -0.382374 0
M  V30 2788 H 271.069 -1.91089 -0.412933 0
M  V30 2789 H 269.773 -3.81303 -1.51777 0
M  V30 2790 H 269.304 -2.7272 -2.83526 0
M  V30 2791 H 271.319 -2.80165 -4.09539 0
M  V30 2792 N 270.492 0.636531 -1.44174 0
M  V30 2793 C 271.74 1.39343 -1.46383 0
M  V30 2794 C 272.061 1.94766 -0.0955715 0
M  V30 2795 O 271.331 1.75452 0.871395 0
M  V30 2796 H 269.911 0.517199 -0.538994 0
M  V30 2797 H 272.573 0.74957 -1.7991 0
M  V30 2798 H 271.669 2.22746 -2.18611 0
M  V30 2799 N 271.97 1.30982 0.876444 0
M  V30 2800 C 272.903 1.12414 1.98591 0
M  V30 2801 C 273.881 0.0294078 1.62573 0
M  V30 2802 O 275.065 0.184598 1.87594 0
M  V30 2803 C 272.192 0.716276 3.3104 0
M  V30 2804 C 271.238 1.81311 3.86042 0
M  V30 2805 S 272.071 3.41727 4.1229 0
M  V30 2806 C 273.227 3.02863 5.47745 0
M  V30 2807 H 273.46 2.06338 2.14037 0
M  V30 2808 H 270.993 1.15393 1.02586 0
M  V30 2809 H 272.951 0.487697 4.07593 0
M  V30 2810 H 271.612 -0.203749 3.13438 0
M  V30 2811 H 270.805 1.48021 4.81774 0
M  V30 2812 H 270.407 1.99641 3.16259 0
M  V30 2813 H 272.699 2.51353 6.29148 0
M  V30 2814 H 273.642 3.97533 5.8598 0
M  V30 2815 H 274.05 2.40487 5.10711 0
M  V30 2816 N 273.449 -1.08991 1.13837 0
M  V30 2817 C 274.359 -2.19301 0.833333 0
M  V30 2818 C 275.375 -1.73026 -0.183847 0
M  V30 2819 O 276.551 -2.01395 -0.0138092 0
M  V30 2820 C 273.616 -3.45323 0.308651 0
M  V30 2821 C 272.677 -4.06255 1.38764 0
M  V30 2822 C 271.91 -5.26262 0.887896 0
M  V30 2823 O 272.133 -5.69747 -0.27287 0
M  V30 2824 O 271.067 -5.78435 1.66421 0
M  V30 2825 H 274.893 -2.47854 1.75506 0
M  V30 2826 H 272.478 -1.18012 0.916166 0
M  V30 2827 H 274.36 -4.21394 0.0216739 0
M  V30 2828 H 273.035 -3.18362 -0.585431 0
M  V30 2829 H 271.942 -3.318 1.72799 0
M  V30 2830 H 273.275 -4.37452 2.25602 0
M  V30 2831 N 274.927 -0.932562 -1.27047 0
M  V30 2832 C 276.173 -0.576412 -1.94436 0
M  V30 2833 C 276.506 0.880891 -1.73072 0
M  V30 2834 O 275.781 1.62905 -1.06264 0
M  V30 2835 C 276.064 -0.909031 -3.48437 0
M  V30 2836 C 275.917 -2.42044 -3.79123 0
M  V30 2837 C 277.236 -0.418341 -4.38107 0
M  V30 2838 H 274.355 -0.210888 -0.706184 0
M  V30 2839 H 276.997 -1.16522 -1.50075 0
M  V30 2840 H 275.147 -0.407947 -3.86352 0
M  V30 2841 H 276.819 -2.99359 -3.50973 0
M  V30 2842 H 275.062 -2.86758 -3.25503 0
M  V30 2843 H 275.733 -2.6037 -4.86736 0
M  V30 2844 H 278.209 -0.847856 -4.0737 0
M  V30 2845 H 277.085 -0.679981 -5.44672 0
M  V30 2846 H 277.346 0.681642 -4.36814 0
M  V30 2847 N 276.405 1.4127 -0.698611 0
M  V30 2848 C 277.651 2.01478 -0.231207 0
M  V30 2849 C 277.984 1.55215 1.16713 0
M  V30 2850 O 277.259 0.764672 1.78838 0
M  V30 2851 C 277.542 3.58912 -0.292281 0
M  V30 2852 C 277.395 4.15293 -1.72778 0
M  V30 2853 C 278.714 4.38736 0.346194 0
M  V30 2854 H 275.833 0.732025 -0.0854878 0
M  V30 2855 H 278.475 1.67977 -0.887906 0
M  V30 2856 H 276.625 3.87582 0.26686 0
M  V30 2857 H 278.297 3.97486 -2.341 0
M  V30 2858 H 276.54 3.7022 -2.26096 0
M  V30 2859 H 277.211 5.24452 -1.72202 0
M  V30 2860 H 279.687 4.15897 -0.130035 0
M  V30 2861 H 278.563 5.48221 0.272932 0
M  V30 2862 H 278.824 4.18425 1.42734 0
M  V30 2863 N 277.883 0.443576 1.51229 0
M  V30 2864 C 278.813 -0.355142 2.30783 0
M  V30 2865 C 279.794 -1.0154 1.36468 0
M  V30 2866 O 280.979 -1.01785 1.65389 0
M  V30 2867 C 278.109 -1.45312 3.15439 0
M  V30 2868 C 277.063 -0.916002 4.18083 0
M  V30 2869 C 276.389 -2.1102 4.91299 0
M  V30 2870 C 277.689 0.0538602 5.22272 0
M  V30 2871 H 279.383 0.308767 2.97804 0
M  V30 2872 H 276.929 0.149937 1.43217 0
M  V30 2873 H 278.882 -2.01914 3.69876 0
M  V30 2874 H 277.606 -2.14541 2.46252 0
M  V30 2875 H 276.265 -0.372145 3.64706 0
M  V30 2876 H 275.913 -2.78882 4.18609 0
M  V30 2877 H 275.613 -1.75717 5.60712 0
M  V30 2878 H 277.137 -2.68164 5.48562 0
M  V30 2879 H 278.551 -0.422069 5.71744 0
M  V30 2880 H 276.948 0.319776 5.99247 0
M  V30 2881 H 278.018 0.98858 4.74716 0
M  V30 2882 N 279.361 -1.56624 0.175154 0
M  V30 2883 C 280.324 -2.16934 -0.739738 0
M  V30 2884 C 281.324 -1.11842 -1.15533 0
M  V30 2885 O 282.514 -1.37335 -1.07167 0
M  V30 2886 C 279.646 -2.75531 -2.00738 0
M  V30 2887 H 280.839 -2.99131 -0.214639 0
M  V30 2888 H 278.392 -1.56123 -0.0744197 0
M  V30 2889 H 279.127 -1.97078 -2.57548 0
M  V30 2890 H 278.912 -3.52444 -1.71831 0
M  V30 2891 H 280.402 -3.21904 -2.66021 0
M  V30 2892 N 280.839 0.0985539 -1.57292 0
M  V30 2893 C 281.787 1.1387 -2.02821 0
M  V30 2894 C 282.781 1.41676 -0.928666 0
M  V30 2895 O 283.987 1.41398 -1.11385 0
M  V30 2896 H 280.362 0.384419 -0.646317 0
M  V30 2897 H 282.333 0.728347 -2.89375 0
M  V30 2898 C 281.082 2.45166 -2.46554 0
M  V30 2899 H 280.405 2.24613 -3.3074 0
M  V30 2900 H 281.845 3.16456 -2.8219 0
M  V30 2901 C 280.304 3.09216 -1.33742 0
M  V30 2902 O 280.834 3.96163 -0.66464 0
M  V30 2903 N 279.04 2.69413 -1.08928 0
M  V30 2904 H 278.587 1.98801 -1.63817 0
M  V30 2905 H 278.545 3.12594 -0.336458 0
M  V30 2906 N 282.317 1.53212 0.369288 0
M  V30 2907 C 283.565 1.68881 1.11012 0
M  V30 2908 C 283.886 0.441285 1.89941 0
M  V30 2909 O 283.156 -0.544623 1.88177 0
M  V30 2910 H 281.736 0.622569 0.412816 0
M  V30 2911 H 284.398 1.90391 0.416802 0
M  V30 2912 H 283.494 2.54822 1.80201 0
M  V30 2913 N 283.795 -0.628877 1.44509 0
M  V30 2914 C 285.072 -1.38733 1.37886 0
M  V30 2915 C 285.452 -2.11065 0.0387008 0
M  V30 2916 O 284.8 -2.06476 -0.97878 0
M  V30 2917 C 285.01 -2.35188 2.57852 0
M  V30 2918 C 286.358 -2.9845 3.02014 0
M  V30 2919 O 287.382 -2.45513 2.58073 0
M  V30 2920 O 286.241 -3.94487 3.78209 0
M  V30 2921 H 283.335 -0.621015 0.54614 0
M  V30 2922 H 285.881 -0.653744 1.56602 0
M  V30 2923 H 284.653 -1.80855 3.46998 0
M  V30 2924 H 284.276 -3.1596 2.4136 0
M  V30 2925 N 285.273 -1.31445 -0.869486 0
M  V30 2926 C 286.519 -1.21337 -1.62496 0
M  V30 2927 C 286.852 0.227872 -1.92858 0
M  V30 2928 O 286.127 1.16094 -1.56053 0
M  V30 2929 C 286.41 -2.05814 -2.95487 0
M  V30 2930 C 286.263 -3.5824 -2.72 0
M  V30 2931 C 287.582 -1.9079 -3.96594 0
M  V30 2932 H 284.701 -0.442135 -0.589649 0
M  V30 2933 H 287.343 -1.6124 -1.00507 0
M  V30 2934 H 285.493 -1.71913 -3.48394 0
M  V30 2935 H 287.165 -4.0228 -2.25762 0
M  V30 2936 H 285.408 -3.81647 -2.06224 0
M  V30 2937 H 286.079 -4.12657 -3.66631 0
M  V30 2938 H 288.555 -2.20459 -3.52898 0
M  V30 2939 H 287.431 -2.52199 -4.87531 0
M  V30 2940 H 287.692 -0.871341 -4.33428 0
M  V30 2941 N 286.751 1.08385 -1.14413 0
M  V30 2942 C 287.981 1.8425 -0.934644 0
M  V30 2943 C 288.389 1.81907 0.520234 0
M  V30 2944 O 287.732 1.22126 1.37226 0
M  V30 2945 C 287.794 3.32853 -1.35828 0
M  V30 2946 C 287.458 3.5893 -2.82875 0
M  V30 2947 C 288.455 3.53756 -3.80989 0
M  V30 2948 C 286.14 3.86934 -3.20293 0
M  V30 2949 C 288.134 3.76216 -5.14529 0
M  V30 2950 C 285.821 4.09047 -4.54008 0
M  V30 2951 C 286.819 4.03682 -5.50936 0
M  V30 2952 O 286.507 4.25214 -6.82238 0
M  V30 2953 H 286.239 0.588502 -0.332628 0
M  V30 2954 H 288.793 1.37792 -1.52324 0
M  V30 2955 H 287.023 3.8007 -0.713019 0
M  V30 2956 H 288.712 3.90154 -1.11957 0
M  V30 2957 H 289.478 3.32135 -3.53428 0
M  V30 2958 H 285.357 3.9023 -2.45442 0
M  V30 2959 H 288.901 3.71943 -5.90173 0
M  V30 2960 H 284.798 4.30151 -4.8129 0
M  V30 2961 H 285.566 4.42619 -6.88499 0
M  V30 2962 N 288.23 0.939286 1.26551 0
M  V30 2963 C 289.646 0.641304 1.46149 0
M  V30 2964 C 289.846 -0.805964 1.84679 0
M  V30 2965 O 288.902 -1.58278 1.96734 0
M  V30 2966 C 290.215 1.6011 2.54529 0
M  V30 2967 C 291.763 1.6106 2.68382 0
M  V30 2968 C 292.238 2.55765 3.79932 0
M  V30 2969 N 293.729 2.5404 3.87322 0
M  V30 2970 C 294.464 3.24004 4.73085 0
M  V30 2971 N 293.96 4.03388 5.63249 0
M  V30 2972 N 295.753 3.12965 4.66914 0
M  V30 2973 H 287.904 1.87478 0.998285 0
M  V30 2974 H 290.167 0.805559 0.499779 0
M  V30 2975 H 289.873 2.63412 2.33039 0
M  V30 2976 H 289.747 1.35171 3.52149 0
M  V30 2977 H 292.134 0.584835 2.89247 0
M  V30 2978 H 292.215 1.90053 1.71212 0
M  V30 2979 H 291.859 3.58458 3.5982 0
M  V30 2980 H 291.789 2.24063 4.76554 0
M  V30 2981 H 294.28 1.96396 3.22858 0
M  V30 2982 H 294.593 4.5373 6.25579 0
M  V30 2983 H 292.938 4.07489 5.63008 0
M  V30 2984 H 296.129 2.50432 3.95476 0
M  V30 2985 H 296.302 3.67759 5.33533 0
M  V30 2986 N 289.708 -1.40897 0.706093 0
M  V30 2987 C 290.936 -2.05373 0.250887 0
M  V30 2988 C 291.351 -1.53172 -1.10381 0
M  V30 2989 O 290.708 -0.684305 -1.69185 0
M  V30 2990 C 290.759 -3.6088 0.211571 0
M  V30 2991 O 290.48 -4.11153 1.51276 0
M  V30 2992 C 291.981 -4.42517 -0.263346 0
M  V30 2993 H 289.201 -0.66115 0.114552 0
M  V30 2994 H 291.745 -1.80479 0.961635 0
M  V30 2995 H 289.9 -3.84777 -0.450073 0
M  V30 2996 H 290.314 -5.05279 1.40689 0
M  V30 2997 H 291.788 -5.51479 -0.239718 0
M  V30 2998 H 292.265 -4.19396 -1.30397 0
M  V30 2999 H 292.871 -4.23708 0.367677 0
M  V30 3000 N 291.186 -0.45159 -1.50991 0
M  V30 3001 C 292.434 0.109857 -2.01801 0
M  V30 3002 C 292.755 1.41958 -1.3369 0
M  V30 3003 O 292.025 1.9003 -0.475951 0
M  V30 3004 H 290.605 0.0435884 -0.745727 0
M  V30 3005 H 293.267 -0.597557 -1.85514 0
M  V30 3006 H 292.363 0.275489 -3.10882 0
M  V30 3007 N 292.664 1.56529 -0.183458 0
M  V30 3008 C 293.597 2.14417 0.781052 0
M  V30 3009 C 294.575 1.07761 1.21763 0
M  V30 3010 O 295.759 1.35807 1.30724 0
M  V30 3011 C 292.886 2.69361 2.05335 0
M  V30 3012 C 291.932 3.885 1.75982 0
M  V30 3013 S 292.765 5.27568 0.918256 0
M  V30 3014 C 293.921 5.85926 2.20095 0
M  V30 3015 H 294.154 2.95893 0.2889 0
M  V30 3016 H 291.687 1.54368 0.0313844 0
M  V30 3017 H 293.645 3.01662 2.78406 0
M  V30 3018 H 292.306 1.87949 2.51663 0
M  V30 3019 H 291.499 4.25314 2.70415 0
M  V30 3020 H 291.101 3.57149 1.10999 0
M  V30 3021 H 293.393 5.99579 3.15453 0
M  V30 3022 H 294.336 6.82761 1.87731 0
M  V30 3023 H 294.744 5.14438 2.32409 0
M  V30 3024 N 294.142 -0.090211 1.57342 0
M  V30 3025 C 295.39 -0.791241 1.85967 0
M  V30 3026 C 295.711 -1.7903 0.772859 0
M  V30 3027 O 294.981 -1.94872 -0.200398 0
M  V30 3028 H 293.561 -0.295205 0.686195 0
M  V30 3029 H 296.223 -0.0706782 1.94772 0
M  V30 3030 H 295.319 -1.31882 2.82867 0
M  V30 3031 N 295.62 -1.53406 -0.361157 0
M  V30 3032 C 296.868 -1.69467 -1.10115 0
M  V30 3033 C 297.189 -0.451352 -1.89705 0
M  V30 3034 O 296.459 0.534636 -1.88463 0
M  V30 3035 H 295.039 -0.624749 -0.409508 0
M  V30 3036 H 297.701 -1.90609 -0.406699 0
M  V30 3037 H 296.797 -2.55774 -1.78847 0
M  V30 3038 N 297.098 0.621204 -1.44841 0
M  V30 3039 C 298.344 1.3826 -1.48365 0
M  V30 3040 C 298.677 1.93831 -0.119624 0
M  V30 3041 O 297.952 1.74251 0.864111 0
M  V30 3042 C 298.235 2.54058 -2.55199 0
M  V30 3043 C 298.088 2.03772 -4.00995 0
M  V30 3044 C 299.407 3.56225 -2.58442 0
M  V30 3045 H 296.526 0.501374 -0.540179 0
M  V30 3046 H 299.168 0.7015 -1.76576 0
M  V30 3047 H 297.318 3.12162 -2.31274 0
M  V30 3048 H 298.99 1.50423 -4.36086 0
M  V30 3049 H 297.233 1.34876 -4.12299 0
M  V30 3050 H 297.904 2.87185 -4.71411 0
M  V30 3051 H 300.38 3.07939 -2.79844 0
M  V30 3052 H 299.256 4.34756 -3.3508 0
M  V30 3053 H 299.517 4.10949 -1.63013 0
M  V30 3054 N 298.576 1.31904 0.862503 0
M  V30 3055 C 299.987 1.19803 1.43193 0
M  V30 3056 C 300.338 -0.192567 1.95253 0
M  V30 3057 O 299.463 -1.09081 1.86896 0
M  V30 3058 C 300.058 2.16883 2.60283 0
M  V30 3059 C 298.617 2.08692 3.13248 0
M  V30 3060 C 297.764 2.05691 1.85975 0
M  V30 3061 H 300.715 1.43846 0.670365 0
M  V30 3062 H 300.736 1.76278 3.37204 0
M  V30 3063 H 300.248 3.18083 2.22363 0
M  V30 3064 H 298.349 1.10713 3.55771 0
M  V30 3065 H 298.462 2.9815 3.75025 0
M  V30 3066 H 296.826 1.50814 2.05249 0
M  V30 3067 H 297.609 3.08659 1.50282 0
M  V30 3068 N 300.054 -1.07777 1.14986 0
M  V30 3069 C 301.302 -1.79934 0.920235 0
M  V30 3070 C 301.623 -1.86955 -0.554336 0
M  V30 3071 O 300.893 -1.36731 -1.40291 0
M  V30 3072 H 299.473 -0.666424 0.337473 0
M  V30 3073 H 302.135 -1.3027 1.44968 0
M  V30 3074 H 301.231 -2.82539 1.32583 0
M  V30 3075 N 301.532 -0.945985 -1.26051 0
M  V30 3076 C 302.757 -0.612525 -1.98149 0
M  V30 3077 C 303.182 0.806623 -1.69927 0
M  V30 3078 O 302.54 1.54411 -0.950108 0
M  V30 3079 C 302.588 -0.866981 -3.50023 0
M  V30 3080 O 301.692 0.0585333 -4.12358 0
M  V30 3081 H 301.033 -0.23379 -0.621481 0
M  V30 3082 H 303.563 -1.27023 -1.60395 0
M  V30 3083 H 303.573 -0.789792 -4.00283 0
M  V30 3084 H 302.248 -1.90135 -3.69894 0
M  V30 3085 H 300.825 -0.0701241 -3.72834 0
M  V30 3086 N 303.011 1.40521 -0.713556 0
M  V30 3087 C 303.959 2.32549 -0.0485227 0
M  V30 3088 C 304.953 1.51931 0.74922 0
M  V30 3089 O 306.159 1.67745 0.652816 0
M  V30 3090 H 302.534 0.751994 0.00311138 0
M  V30 3091 H 304.505 2.86291 -0.841443 0
M  V30 3092 C 303.254 3.36879 0.860687 0
M  V30 3093 H 302.577 3.98978 0.256246 0
M  V30 3094 H 304.017 4.03772 1.294 0
M  V30 3095 C 302.476 2.72197 1.9852 0
M  V30 3096 O 303.006 2.5837 3.07584 0
M  V30 3097 N 301.212 2.30612 1.76823 0
M  V30 3098 H 300.759 2.42059 0.881217 0
M  V30 3099 H 300.717 1.87672 2.52243 0
M  V30 3100 N 304.489 0.459591 1.5075 0
M  V30 3101 C 305.717 -0.0973749 2.06671 0
M  V30 3102 C 306.132 -1.34524 1.32472 0
M  V30 3103 O 305.489 -1.7827 0.390634 0
M  V30 3104 C 305.54 -0.39714 3.59312 0
M  V30 3105 O 305.261 0.801214 4.30711 0
M  V30 3106 C 306.762 -1.00234 4.31819 0
M  V30 3107 H 303.982 0.00195854 0.670997 0
M  V30 3108 H 306.526 0.645072 1.94059 0
M  V30 3109 H 304.681 -1.08951 3.71764 0
M  V30 3110 H 305.095 0.538857 5.21725 0
M  V30 3111 H 306.569 -1.16193 5.39632 0
M  V30 3112 H 307.046 -1.98939 3.91561 0
M  V30 3113 H 307.652 -0.348699 4.23868 0
M  V30 3114 N 305.967 -1.56429 0.191757 0
M  V30 3115 C 307.213 -1.98541 -0.441943 0
M  V30 3116 C 307.568 -1.07646 -1.59468 0
M  V30 3117 O 306.861 -0.120191 -1.91223 0
M  V30 3118 C 307.055 -3.44449 -0.953384 0
M  V30 3119 C 306.884 -4.49456 0.148262 0
M  V30 3120 C 305.654 -5.01668 0.604781 0
M  V30 3121 C 307.852 -5.05336 0.95602 0
M  V30 3122 N 305.834 -5.90334 1.6846 0
M  V30 3123 C 307.205 -5.9064 1.88531 0
M  V30 3124 C 309.26 -4.87779 0.998811 0
M  V30 3125 C 307.963 -6.60264 2.85383 0
M  V30 3126 C 309.989 -5.58139 1.95537 0
M  V30 3127 C 309.351 -6.43187 2.8721 0
M  V30 3128 H 305.45 -0.771247 -0.129236 0
M  V30 3129 H 308.034 -1.92426 0.296682 0
M  V30 3130 H 306.205 -3.5107 -1.66146 0
M  V30 3131 H 307.937 -3.73533 -1.55741 0
M  V30 3132 H 304.692 -4.73183 0.198736 0
M  V30 3133 H 305.116 -6.39371 2.22561 0
M  V30 3134 H 309.758 -4.21705 0.304048 0
M  V30 3135 H 307.476 -7.25538 3.55837 0
M  V30 3136 H 311.062 -5.46532 1.99484 0
M  V30 3137 H 309.942 -6.96674 3.60022 0
M  V30 3138 N 307.445 0.0818655 -1.57387 0
M  V30 3139 C 308.377 1.12484 -1.997 0
M  V30 3140 C 309.39 1.35564 -0.90146 0
M  V30 3141 O 310.579 1.33982 -1.17945 0
M  V30 3142 C 307.679 2.47778 -2.31213 0
M  V30 3143 C 306.852 2.44793 -3.62485 0
M  V30 3144 C 305.911 3.62117 -3.81782 0
M  V30 3145 O 304.937 3.44005 -4.53486 0
M  V30 3146 N 306.139 4.82094 -3.23367 0
M  V30 3147 H 308.904 0.764585 -2.89783 0
M  V30 3148 H 306.465 0.270664 -1.59621 0
M  V30 3149 H 308.457 3.24891 -2.41304 0
M  V30 3150 H 307.027 2.75843 -1.4707 0
M  V30 3151 H 306.247 1.53134 -3.6324 0
M  V30 3152 H 307.535 2.39889 -4.48699 0
M  V30 3153 H 306.933 4.99713 -2.65148 0
M  V30 3154 H 305.49 5.56753 -3.38923 0
M  V30 3155 N 308.923 1.53595 0.353017 0
M  V30 3156 C 310.172 1.69603 1.09168 0
M  V30 3157 C 310.485 0.460925 1.90092 0
M  V30 3158 O 311.691 0.501774 2.66823 0
M  V30 3159 C 310.147 2.99872 1.9901 0
M  V30 3160 C 309.755 4.30687 1.23339 0
M  V30 3161 C 311.499 3.25246 2.72792 0
M  V30 3162 C 309.406 5.52036 2.12156 0
M  V30 3163 H 308.336 0.631966 0.411261 0
M  V30 3164 H 310.987 1.80096 0.351802 0
M  V30 3165 H 309.369 2.83212 2.7678 0
M  V30 3166 H 310.543 4.58019 0.505456 0
M  V30 3167 H 308.858 4.11853 0.613663 0
M  V30 3168 H 311.455 4.13095 3.39495 0
M  V30 3169 H 311.798 2.41846 3.38846 0
M  V30 3170 H 312.331 3.42638 2.021 0
M  V30 3171 H 309.07 6.37951 1.50659 0
M  V30 3172 H 308.59 5.28966 2.82764 0
M  V30 3173 H 310.269 5.87313 2.71427 0
M  V30 3174 N 310.401 -0.613514 1.45168 0
M  V30 3175 C 311.648 -1.37268 1.48875 0
M  V30 3176 C 311.976 -1.94077 0.128161 0
M  V30 3177 O 311.231 -1.75178 -0.872416 0
M  V30 3178 C 311.53 -2.54347 2.51083 0
M  V30 3179 C 311.196 -2.1572 3.95949 0
M  V30 3180 C 309.858 -2.04899 4.35396 0
M  V30 3181 C 312.21 -1.85485 4.87078 0
M  V30 3182 C 309.538 -1.62057 5.63875 0
M  V30 3183 C 311.89 -1.4413 6.15962 0
M  V30 3184 C 310.554 -1.31863 6.54346 0
M  V30 3185 H 309.824 -0.502299 0.544773 0
M  V30 3186 H 312.471 -0.694021 1.78481 0
M  V30 3187 H 310.776 -3.27524 2.15024 0
M  V30 3188 H 312.473 -3.12577 2.51191 0
M  V30 3189 H 309.063 -2.25066 3.64751 0
M  V30 3190 H 313.247 -1.92745 4.57343 0
M  V30 3191 H 308.503 -1.51177 5.92415 0
M  V30 3192 H 312.677 -1.19778 6.86022 0
M  V30 3193 H 310.304 -0.984392 7.538 0
M  V30 3194 N 311.879 -1.3236 -0.855495 0
M  V30 3195 C 312.826 -1.21225 -1.964 0
M  V30 3196 C 313.796 -0.0946204 -1.6583 0
M  V30 3197 O 314.981 -0.27002 -1.8888 0
M  V30 3198 C 312.121 -0.940419 -3.32039 0
M  V30 3199 C 311.234 -2.14276 -3.75113 0
M  V30 3200 C 310.369 -1.80648 -4.9954 0
M  V30 3201 C 309.408 -2.97208 -5.35102 0
M  V30 3202 N 308.545 -2.63678 -6.50706 0
M  V30 3203 H 313.385 -2.16042 -2.05255 0
M  V30 3204 H 310.922 -1.07451 -1.00463 0
M  V30 3205 H 312.88 -0.763311 -4.10158 0
M  V30 3206 H 311.51 -0.0290413 -3.22787 0
M  V30 3207 H 310.562 -2.43017 -2.92655 0
M  V30 3208 H 311.874 -3.01468 -3.97389 0
M  V30 3209 H 311.028 -1.59484 -5.85363 0
M  V30 3210 H 309.767 -0.906678 -4.79198 0
M  V30 3211 H 308.772 -3.19004 -4.47791 0
M  V30 3212 H 309.997 -3.87918 -5.57401 0
M  V30 3213 H 307.943 -1.76238 -6.31883 0
M  V30 3214 H 307.86 -3.444 -6.72997 0
M  V30 3215 H 309.128 -2.45942 -7.39684 0
M  V30 3216 N 313.357 1.07166 -1.15556 0
M  V30 3217 C 314.603 1.80222 -0.942961 0
M  V30 3218 C 314.958 1.85121 0.524209 0
M  V30 3219 O 314.251 1.32531 1.38369 0
M  V30 3220 C 314.445 3.24707 -1.49332 0
M  V30 3221 C 314.274 3.33887 -3.01247 0
M  V30 3222 C 313.044 3.44337 -3.69811 0
M  V30 3223 C 315.242 3.24484 -3.99017 0
M  V30 3224 N 313.224 3.42439 -5.09518 0
M  V30 3225 C 314.595 3.29726 -5.25053 0
M  V30 3226 C 316.65 3.08307 -3.90962 0
M  V30 3227 C 315.353 3.20455 -6.43973 0
M  V30 3228 C 317.379 3.00371 -5.09442 0
M  V30 3229 C 316.741 3.06227 -6.34354 0
M  V30 3230 H 312.84 0.672709 -0.398731 0
M  V30 3231 H 315.424 1.27905 -1.46794 0
M  V30 3232 H 313.595 3.7544 -0.994946 0
M  V30 3233 H 315.327 3.85894 -1.21935 0
M  V30 3234 H 312.082 3.48762 -3.20409 0
M  V30 3235 H 312.506 3.45013 -5.8249 0
M  V30 3236 H 317.148 3.02633 -2.95251 0
M  V30 3237 H 314.866 3.24888 -7.39914 0
M  V30 3238 H 318.452 2.88955 -5.04971 0
M  V30 3239 H 317.332 3.00132 -7.24493 0
M  V30 3240 N 314.835 0.952656 1.25548 0
M  V30 3241 C 316.083 0.605176 1.92826 0
M  V30 3242 C 316.404 -0.860261 1.74999 0
M  V30 3243 O 315.674 -1.6125 1.11244 0
M  V30 3244 H 314.254 0.220832 0.713612 0
M  V30 3245 H 316.916 1.21047 1.52754 0
M  V30 3246 H 316.012 0.832798 3.00784 0
M  V30 3247 N 316.313 -1.40141 0.720998 0
M  V30 3248 C 317.543 -2.04798 0.27226 0
M  V30 3249 C 317.951 -1.54442 -1.09289 0
M  V30 3250 O 317.294 -0.698342 -1.69908 0
M  V30 3251 C 317.356 -3.59048 0.18027 0
M  V30 3252 C 317.02 -4.32317 1.48159 0
M  V30 3253 C 318.017 -4.59902 2.42458 0
M  V30 3254 C 315.702 -4.71125 1.74202 0
M  V30 3255 C 317.696 -5.25288 3.61042 0
M  V30 3256 C 315.383 -5.36242 2.93066 0
M  V30 3257 C 316.381 -5.63254 3.86308 0
M  V30 3258 O 316.069 -6.27024 5.03086 0
M  V30 3259 H 315.801 -0.665419 0.119139 0
M  V30 3260 H 318.355 -1.80436 0.981432 0
M  V30 3261 H 316.585 -3.82251 -0.58489 0
M  V30 3262 H 318.274 -4.05221 -0.234618 0
M  V30 3263 H 319.04 -4.30379 2.23604 0
M  V30 3264 H 314.919 -4.49466 1.02477 0
M  V30 3265 H 318.463 -5.46289 4.33837 0
M  V30 3266 H 314.36 -5.65185 3.11826 0
M  V30 3267 H 315.128 -6.4552 5.03235 0
M  V30 3268 N 317.792 -0.46758 -1.50504 0
M  V30 3269 C 319.04 0.0884469 -2.01906 0
M  V30 3270 C 319.361 1.40532 -1.35188 0
M  V30 3271 O 318.631 1.89515 -0.496079 0
M  V30 3272 H 317.211 0.0356765 -0.746148 0
M  V30 3273 H 319.873 -0.6172 -1.84869 0
M  V30 3274 H 318.969 0.2425 -3.11156 0
M  V30 3275 N 319.27 1.56325 -0.20005 0
M  V30 3276 C 320.681 1.8408 0.31167 0
M  V30 3277 C 321.032 1.12087 1.61031 0
M  V30 3278 O 320.157 0.38332 2.12978 0
M  V30 3279 C 320.752 3.33932 0.57226 0
M  V30 3280 C 319.311 3.6208 1.02834 0
M  V30 3281 C 318.458 2.77186 0.079634 0
M  V30 3282 H 321.409 1.52939 -0.423729 0
M  V30 3283 H 321.43 3.52971 1.42096 0
M  V30 3284 H 320.942 3.86303 -0.37308 0
M  V30 3285 H 319.043 3.15147 1.98778 0
M  V30 3286 H 319.156 4.7023 0.917624 0
M  V30 3287 H 317.52 2.47951 0.582448 0
M  V30 3288 H 318.303 3.32347 -0.860238 0
M  V30 3289 N 320.748 -0.0735177 1.57428 0
M  V30 3290 C 321.976 -0.785969 1.9139 0
M  V30 3291 C 322.391 -1.71207 0.795847 0
M  V30 3292 O 321.748 -1.81033 -0.230915 0
M  V30 3293 C 321.799 -1.58107 3.25091 0
M  V30 3294 O 321.52 -0.6922 4.32597 0
M  V30 3295 C 323.021 -2.39467 3.73055 0
M  V30 3296 H 320.241 -0.223558 0.632663 0
M  V30 3297 H 322.785 -0.044302 2.04452 0
M  V30 3298 H 320.94 -2.27503 3.13562 0
M  V30 3299 H 321.354 -1.24504 5.09508 0
M  V30 3300 H 322.828 -2.90716 4.69242 0
M  V30 3301 H 323.305 -3.18913 3.01979 0
M  V30 3302 H 323.911 -1.7523 3.87523 0
M  V30 3303 N 322.226 -1.5378 -0.344866 0
M  V30 3304 C 323.156 -1.84662 -1.42906 0
M  V30 3305 C 324.137 -0.701648 -1.54955 0
M  V30 3306 O 325.322 -0.953438 -1.69184 0
M  V30 3307 C 322.452 -2.05503 -2.79974 0
M  V30 3308 C 321.406 -3.21318 -2.82734 0
M  V30 3309 C 320.732 -3.2749 -4.22675 0
M  V30 3310 C 322.032 -4.59456 -2.48389 0
M  V30 3311 H 323.726 -2.75461 -1.17311 0
M  V30 3312 H 321.272 -1.32542 -0.562896 0
M  V30 3313 H 323.225 -2.25691 -3.55867 0
M  V30 3314 H 321.949 -1.11434 -3.07002 0
M  V30 3315 H 320.608 -3.00984 -2.09294 0
M  V30 3316 H 320.256 -2.31019 -4.4681 0
M  V30 3317 H 319.956 -4.05316 -4.25433 0
M  V30 3318 H 321.48 -3.49887 -5.00412 0
M  V30 3319 H 322.894 -4.79667 -3.13995 0
M  V30 3320 H 321.291 -5.39675 -2.62432 0
M  V30 3321 H 322.361 -4.63155 -1.4358 0
M  V30 3322 N 323.704 0.605807 -1.45491 0
M  V30 3323 C 324.981 1.36522 -1.40075 0
M  V30 3324 C 325.361 2.10976 -0.0722744 0
M  V30 3325 O 324.709 2.08007 0.945808 0
M  V30 3326 C 324.919 2.31056 -2.61561 0
M  V30 3327 C 326.267 2.93608 -3.06724 0
M  V30 3328 O 327.291 2.41376 -2.61946 0
M  V30 3329 O 326.15 3.88421 -3.84437 0
M  V30 3330 H 323.244 0.612248 -0.555951 0
M  V30 3331 H 325.79 0.628747 -1.57623 0
M  V30 3332 H 324.562 1.75311 -3.49831 0
M  V30 3333 H 324.185 3.12081 -2.46356 0
M  V30 3334 N 325.182 1.32811 0.848464 0
M  V30 3335 C 326.43 1.23479 1.59991 0
M  V30 3336 C 326.751 -0.201853 1.93952 0
M  V30 3337 O 326.021 -1.12818 1.60153 0
M  V30 3338 H 324.601 0.454034 0.593179 0
M  V30 3339 H 327.263 1.66412 1.01455 0
M  V30 3340 H 326.359 1.82178 2.53412 0
M  V30 3341 N 326.66 -1.06551 1.16123 0
M  V30 3342 C 327.593 -2.13382 0.80892 0
M  V30 3343 C 328.571 -1.61128 -0.21827 0
M  V30 3344 O 329.755 -1.88219 -0.102952 0
M  V30 3345 C 326.882 -3.38083 0.204303 0
M  V30 3346 C 325.928 -4.09133 1.20469 0
M  V30 3347 S 326.761 -4.5948 2.75024 0
M  V30 3348 C 327.917 -5.87446 2.16005 0
M  V30 3349 H 328.15 -2.42937 1.71373 0
M  V30 3350 H 325.683 -1.18947 0.984428 0
M  V30 3351 H 327.641 -4.10268 -0.138081 0
M  V30 3352 H 326.302 -3.0669 -0.678234 0
M  V30 3353 H 325.495 -4.98685 0.730019 0
M  V30 3354 H 325.097 -3.4295 1.49202 0
M  V30 3355 H 327.389 -6.60065 1.5271 0
M  V30 3356 H 328.332 -6.39639 3.03756 0
M  V30 3357 H 328.74 -5.41354 1.59989 0
M  V30 3358 N 328.138 -0.959301 -1.25041 0
M  V30 3359 C 329.385 -0.616611 -1.92884 0
M  V30 3360 C 329.713 0.847036 -1.75087 0
M  V30 3361 O 328.968 1.62374 -1.09239 0
M  V30 3362 C 329.267 -0.927136 -3.45165 0
M  V30 3363 C 328.933 -2.37757 -3.83122 0
M  V30 3364 C 327.595 -2.77402 -3.93194 0
M  V30 3365 C 329.947 -3.31929 -4.01836 0
M  V30 3366 C 327.275 -4.10277 -4.19392 0
M  V30 3367 C 329.627 -4.64423 -4.29528 0
M  V30 3368 C 328.291 -5.03857 -4.37818 0
M  V30 3369 H 327.561 -0.225634 -0.705812 0
M  V30 3370 H 330.208 -1.20921 -1.48493 0
M  V30 3371 H 328.513 -0.252195 -3.90987 0
M  V30 3372 H 330.21 -0.6405 -3.95852 0
M  V30 3373 H 326.8 -2.06013 -3.75841 0
M  V30 3374 H 330.984 -3.02488 -3.93465 0
M  V30 3375 H 326.24 -4.40467 -4.24027 0
M  V30 3376 H 330.414 -5.37369 -4.42953 0
M  V30 3377 H 328.041 -6.06843 -4.57871 0
M  V30 3378 N 329.616 1.39756 -0.72842 0
M  V30 3379 C 330.844 2.04948 -0.283528 0
M  V30 3380 C 331.259 1.54908 1.0793 0
M  V30 3381 O 330.616 0.711135 1.68075 0
M  V30 3382 C 330.667 3.60498 -0.268957 0
M  V30 3383 O 330.388 4.08695 -1.57798 0
M  V30 3384 C 331.889 4.4288 0.192912 0
M  V30 3385 H 329.109 0.659243 -0.125056 0
M  V30 3386 H 331.653 1.78927 -0.990226 0
M  V30 3387 H 329.808 3.85444 0.388801 0
M  V30 3388 H 330.222 5.02977 -1.48709 0
M  V30 3389 H 331.696 5.51791 0.151952 0
M  V30 3390 H 332.173 4.21418 1.23708 0
M  V30 3391 H 332.779 4.23069 -0.435039 0
M  V30 3392 N 331.094 0.475555 1.50254 0
M  V30 3393 C 332.026 -0.352649 2.26471 0
M  V30 3394 C 333.039 -0.953165 1.3198 0
M  V30 3395 O 334.228 -0.840815 1.57457 0
M  V30 3396 C 331.328 -1.50902 3.0345 0
M  V30 3397 C 330.501 -1.02047 4.25329 0
M  V30 3398 C 329.56 -2.05142 4.84565 0
M  V30 3399 O 328.586 -1.63023 5.45355 0
M  V30 3400 N 329.788 -3.37987 4.71959 0
M  V30 3401 H 332.553 0.300767 2.98187 0
M  V30 3402 H 330.114 0.306598 1.5897 0
M  V30 3403 H 332.106 -2.19572 3.39956 0
M  V30 3404 H 330.676 -2.06705 2.34504 0
M  V30 3405 H 329.896 -0.159507 3.93877 0
M  V30 3406 H 331.184 -0.672061 5.04342 0
M  V30 3407 H 330.582 -3.74913 4.23623 0
M  V30 3408 H 329.139 -4.02443 5.12721 0
M  V30 3409 N 332.573 -1.56217 0.208337 0
M  V30 3410 C 333.536 -2.18455 -0.693557 0
M  V30 3411 C 334.536 -1.14268 -1.13135 0
M  V30 3412 O 335.726 -1.39577 -1.0423 0
M  V30 3413 C 332.858 -2.79727 -1.94848 0
M  V30 3414 H 334.051 -2.99519 -0.15114 0
M  V30 3415 H 331.604 -1.56245 -0.041287 0
M  V30 3416 H 332.339 -2.02497 -2.53309 0
M  V30 3417 H 332.124 -3.56009 -1.64316 0
M  V30 3418 H 333.614 -3.27475 -2.59133 0
M  V30 3419 N 334.051 0.0651679 -1.57465 0
M  V30 3420 C 334.999 1.09542 -2.05191 0
M  V30 3421 C 335.993 1.39675 -0.958509 0
M  V30 3422 O 337.199 1.39003 -1.14359 0
M  V30 3423 H 333.574 0.370623 -0.654326 0
M  V30 3424 H 335.545 0.666802 -2.90854 0
M  V30 3425 C 334.294 2.39881 -2.51699 0
M  V30 3426 H 333.617 2.17547 -3.3543 0
M  V30 3427 H 335.057 3.104 -2.88839 0
M  V30 3428 C 333.516 3.0631 -1.40271 0
M  V30 3429 O 334.046 3.94664 -0.748523 0
M  V30 3430 N 332.252 2.67041 -1.14618 0
M  V30 3431 H 331.799 1.95281 -1.67997 0
M  V30 3432 H 331.757 3.1181 -0.402688 0
M  V30 3433 N 335.529 1.53961 0.336706 0
M  V30 3434 C 336.759 1.75229 1.09446 0
M  V30 3435 C 337.167 0.494602 1.82621 0
M  V30 3436 O 336.51 -0.543764 1.75468 0
M  V30 3437 C 336.572 2.88288 2.1478 0
M  V30 3438 C 336.236 4.27656 1.6112 0
M  V30 3439 C 337.233 5.08981 1.0599 0
M  V30 3440 C 334.918 4.74161 1.6576 0
M  V30 3441 C 336.912 6.34916 0.562129 0
M  V30 3442 C 334.599 6.00067 1.15595 0
M  V30 3443 C 335.597 6.80278 0.609147 0
M  V30 3444 O 335.285 8.03818 0.114999 0
M  V30 3445 H 335.017 0.588881 0.331956 0
M  V30 3446 H 337.571 2.01614 0.392566 0
M  V30 3447 H 335.801 2.57443 2.88548 0
M  V30 3448 H 337.49 2.97461 2.76174 0
M  V30 3449 H 338.256 4.74213 1.01722 0
M  V30 3450 H 334.135 4.11781 2.07261 0
M  V30 3451 H 337.679 6.9747 0.134668 0
M  V30 3452 H 333.576 6.3433 1.19566 0
M  V30 3453 H 334.344 8.18172 0.231651 0
M  V30 3454 N 337.007 -0.598083 1.45811 0
M  V30 3455 C 338.255 -1.35413 1.50026 0
M  V30 3456 C 338.576 -1.94444 0.147177 0
M  V30 3457 O 337.846 -1.77701 -0.824571 0
M  V30 3458 H 336.426 -0.502727 0.552517 0
M  V30 3459 H 339.088 -0.701606 1.81834 0
M  V30 3460 H 338.184 -2.16871 2.2444 0
M  V30 3461 N 338.485 -1.33259 -0.841409 0
M  V30 3462 C 339.734 -1.23921 -1.59143 0
M  V30 3463 C 340.047 0.1941 -1.94635 0
M  V30 3464 O 341.253 0.409474 -2.68394 0
M  V30 3465 C 339.709 -2.17119 -2.87032 0
M  V30 3466 C 339.317 -3.65606 -2.58914 0
M  V30 3467 C 341.061 -2.16648 -3.65053 0
M  V30 3468 C 338.968 -4.50726 -3.82884 0
M  V30 3469 H 337.898 -0.460264 -0.597221 0
M  V30 3470 H 340.549 -1.58307 -0.927959 0
M  V30 3471 H 338.931 -1.75663 -3.54906 0
M  V30 3472 H 340.105 -4.15487 -1.99267 0
M  V30 3473 H 338.42 -3.68341 -1.942 0
M  V30 3474 H 341.017 -2.77474 -4.57069 0
M  V30 3475 H 341.36 -1.16088 -3.99787 0
M  V30 3476 H 341.893 -2.56453 -3.041 0
M  V30 3477 H 338.632 -5.52151 -3.53283 0
M  V30 3478 H 338.152 -4.0559 -4.41879 0
M  V30 3479 H 339.831 -4.64401 -4.50489 0
M  V30 3480 N 339.963 1.05934 -1.16686 0
M  V30 3481 C 341.203 1.80382 -0.961345 0
M  V30 3482 C 341.567 1.85331 0.501643 0
M  V30 3483 O 342.768 2.55795 0.825986 0
M  V30 3484 C 341.039 3.20777 -1.57596 0
M  V30 3485 S 342.598 4.11795 -1.51559 0
M  V30 3486 H 339.416 0.621332 -0.345641 0
M  V30 3487 H 342.018 1.27157 -1.48497 0
M  V30 3488 H 340.722 3.14773 -2.63337 0
M  V30 3489 H 340.253 3.79078 -1.05182 0
M  V30 3490 H 342.268 4.93485 -0.518374 0
M  V30 3491 N 341.441 0.965919 1.2453 0
M  V30 3492 C 342.669 0.644385 1.96609 0
M  V30 3493 C 343.084 -0.785823 1.71669 0
M  V30 3494 O 342.441 -1.52703 0.999399 0
M  V30 3495 C 342.492 0.907375 3.49927 0
M  V30 3496 O 342.213 2.28136 3.74013 0
M  V30 3497 C 343.714 0.599784 4.39224 0
M  V30 3498 H 340.934 0.240588 0.626385 0
M  V30 3499 H 343.478 1.29337 1.58405 0
M  V30 3500 H 341.633 0.304631 3.862 0
M  V30 3501 H 342.047 2.36002 4.68405 0
M  V30 3502 H 343.521 0.834263 5.45659 0
M  V30 3503 H 343.998 -0.465921 4.36722 0
M  V30 3504 H 344.604 1.18235 4.08535 0
M  V30 3505 N 342.919 -1.39368 0.735821 0
M  V30 3506 C 343.866 -2.30599 0.0963825 0
M  V30 3507 C 344.836 -1.49257 -0.728794 0
M  V30 3508 O 346.021 -1.77941 -0.688588 0
M  V30 3509 C 343.161 -3.35596 -0.804305 0
M  V30 3510 C 342.274 -4.31987 0.0335761 0
M  V30 3511 C 341.409 -5.24053 -0.868461 0
M  V30 3512 C 340.448 -6.12095 -0.0258776 0
M  V30 3513 N 339.585 -6.96514 -0.883893 0
M  V30 3514 H 344.425 -2.8471 0.880002 0
M  V30 3515 H 341.962 -1.40188 0.445619 0
M  V30 3516 H 343.92 -3.95062 -1.34096 0
M  V30 3517 H 342.55 -2.82938 -1.55389 0
M  V30 3518 H 341.602 -3.74133 0.68766 0
M  V30 3519 H 342.914 -4.94074 0.685036 0
M  V30 3520 H 342.068 -5.88549 -1.47293 0
M  V30 3521 H 340.807 -4.62289 -1.5537 0
M  V30 3522 H 339.812 -5.4661 0.591386 0
M  V30 3523 H 341.037 -6.75923 0.656156 0
M  V30 3524 H 338.983 -6.37318 -1.55441 0
M  V30 3525 H 338.9 -7.55448 -0.288931 0
M  V30 3526 H 340.168 -7.65439 -1.4739 0
M  V30 3527 N 344.397 -0.483516 -1.5 0
M  V30 3528 C 345.33 0.350427 -2.25493 0
M  V30 3529 C 346.308 0.985549 -1.29328 0
M  V30 3530 O 347.492 1.01906 -1.58579 0
M  V30 3531 C 344.619 1.49202 -3.04066 0
M  V30 3532 C 343.665 0.973036 -4.15252 0
M  V30 3533 S 344.498 -0.122237 -5.3536 0
M  V30 3534 C 345.654 1.02294 -6.17484 0
M  V30 3535 H 345.887 -0.290381 -2.95878 0
M  V30 3536 H 343.42 -0.268562 -1.52046 0
M  V30 3537 H 345.378 2.14623 -3.49925 0
M  V30 3538 H 344.039 2.10438 -2.33183 0
M  V30 3539 H 343.232 1.82804 -4.69679 0
M  V30 3540 H 342.834 0.396335 -3.71894 0
M  V30 3541 H 345.126 1.93195 -6.49371 0
M  V30 3542 H 346.069 0.517664 -7.06205 0
M  V30 3543 H 346.477 1.28238 -5.49741 0
M  V30 3544 N 345.875 1.56104 -0.216619 0
M  V30 3545 C 347.123 1.97781 0.415593 0
M  V30 3546 C 347.444 1.10536 1.60645 0
M  V30 3547 O 346.714 0.181303 1.95059 0
M  V30 3548 H 345.294 0.730415 0.156534 0
M  V30 3549 H 347.956 1.92445 -0.308366 0
M  V30 3550 H 347.052 3.03072 0.74525 0
M  V30 3551 N 347.353 -0.0568162 1.57498 0
M  V30 3552 C 348.6 -0.753104 1.87975 0
M  V30 3553 C 348.928 -1.76815 0.81035 0
M  V30 3554 O 348.183 -1.94756 -0.19199 0
M  V30 3555 C 348.482 -1.48359 3.25153 0
M  V30 3556 C 348.148 -0.60713 4.46794 0
M  V30 3557 C 346.81 -0.365642 4.79809 0
M  V30 3558 C 349.162 -0.000305978 5.212 0
M  V30 3559 C 346.49 0.491905 5.84634 0
M  V30 3560 C 348.842 0.844781 6.26934 0
M  V30 3561 C 347.506 1.096 6.58441 0
M  V30 3562 H 346.776 -0.27558 0.687849 0
M  V30 3563 H 349.423 -0.0135173 1.91495 0
M  V30 3564 H 347.728 -2.29577 3.17492 0
M  V30 3565 H 349.425 -2.02739 3.45974 0
M  V30 3566 H 346.015 -0.805487 4.20963 0
M  V30 3567 H 350.199 -0.173961 4.95995 0
M  V30 3568 H 345.455 0.695131 6.07436 0
M  V30 3569 H 349.629 1.32165 6.83744 0
M  V30 3570 H 347.256 1.76224 7.39492 0
M  V30 3571 N 348.832 -1.54138 -0.328536 0
M  V30 3572 C 350.078 -1.73297 -1.06488 0
M  V30 3573 C 350.433 -0.497958 -1.85844 0
M  V30 3574 O 349.726 0.509591 -1.84699 0
M  V30 3575 C 349.92 -2.9457 -2.02393 0
M  V30 3576 C 349.749 -4.29747 -1.32467 0
M  V30 3577 C 348.519 -4.93987 -1.06324 0
M  V30 3578 C 350.717 -5.08903 -0.743137 0
M  V30 3579 N 348.699 -6.13005 -0.331359 0
M  V30 3580 C 350.07 -6.19836 -0.142602 0
M  V30 3581 C 352.125 -4.93699 -0.64546 0
M  V30 3582 C 350.828 -7.17224 0.546125 0
M  V30 3583 C 352.854 -5.91393 0.0295558 0
M  V30 3584 C 352.216 -7.01674 0.619056 0
M  V30 3585 H 348.315 -0.687017 -0.373539 0
M  V30 3586 H 350.899 -1.91589 -0.346659 0
M  V30 3587 H 349.07 -2.77752 -2.71493 0
M  V30 3588 H 350.802 -3.0238 -2.68977 0
M  V30 3589 H 347.557 -4.53824 -1.35428 0
M  V30 3590 H 347.981 -6.76997 0.0202939 0
M  V30 3591 H 352.623 -4.08589 -1.08695 0
M  V30 3592 H 350.341 -8.01896 0.999459 0
M  V30 3593 H 353.927 -5.81706 0.104705 0
M  V30 3594 H 352.807 -7.75971 1.13309 0
M  V30 3595 N 350.31 0.590341 -1.46126 0
M  V30 3596 C 351.24 1.71032 -1.58966 0
M  V30 3597 C 352.221 1.64302 -0.440335 0
M  V30 3598 O 353.406 1.82436 -0.665634 0
M  V30 3599 C 350.536 3.09665 -1.57241 0
M  V30 3600 C 349.49 3.31221 -2.71066 0
M  V30 3601 C 348.816 4.70303 -2.54399 0
M  V30 3602 C 350.116 3.19796 -4.1295 0
M  V30 3603 H 351.81 1.60543 -2.52718 0
M  V30 3604 H 349.356 0.770933 -1.21625 0
M  V30 3605 H 351.309 3.87831 -1.64819 0
M  V30 3606 H 350.033 3.21036 -0.600289 0
M  V30 3607 H 348.692 2.55452 -2.62944 0
M  V30 3608 H 348.34 4.78429 -1.55288 0
M  V30 3609 H 348.04 4.85679 -3.30741 0
M  V30 3610 H 349.564 5.50647 -2.63857 0
M  V30 3611 H 350.978 3.87815 -4.22223 0
M  V30 3612 H 349.375 3.46696 -4.89818 0
M  V30 3613 H 350.445 2.16983 -4.33643 0
M  V30 3614 N 351.788 1.33704 0.83433 0
M  V30 3615 C 352.721 1.18675 1.94914 0
M  V30 3616 C 353.699 0.0811145 1.62398 0
M  V30 3617 O 354.883 0.244186 1.86912 0
M  V30 3618 C 352.01 0.821231 3.28593 0
M  V30 3619 C 351.056 1.93501 3.80079 0
M  V30 3620 S 351.889 3.54671 4.01209 0
M  V30 3621 C 353.045 3.20136 5.37833 0
M  V30 3622 H 353.278 2.13043 2.07364 0
M  V30 3623 H 350.811 1.18598 0.988624 0
M  V30 3624 H 352.769 0.617123 4.05835 0
M  V30 3625 H 351.43 -0.103927 3.13928 0
M  V30 3626 H 350.623 1.63273 4.76821 0
M  V30 3627 H 350.225 2.09601 3.09747 0
M  V30 3628 H 352.517 2.71242 6.20833 0
M  V30 3629 H 353.46 4.15975 5.73036 0
M  V30 3630 H 353.868 2.56613 5.02802 0
M  V30 3631 N 353.266 -1.05314 1.17247 0
M  V30 3632 C 354.677 -1.59753 0.96623 0
M  V30 3633 C 355.028 -1.9005 -0.487378 0
M  V30 3634 O 354.153 -1.68126 -1.36245 0
M  V30 3635 C 354.748 -2.90249 1.74759 0
M  V30 3636 C 353.307 -3.41352 1.58606 0
M  V30 3637 C 352.454 -2.15103 1.75002 0
M  V30 3638 H 355.405 -0.881406 1.31973 0
M  V30 3639 H 355.426 -3.60097 1.22925 0
M  V30 3640 H 354.938 -2.68166 2.8055 0
M  V30 3641 H 353.039 -3.68474 0.552985 0
M  V30 3642 H 353.152 -4.16019 2.37624 0
M  V30 3643 H 351.516 -2.25804 1.17833 0
M  V30 3644 H 352.299 -1.95491 2.82202 0
M  V30 3645 N 354.744 -0.972509 -1.24016 0
M  V30 3646 C 355.691 -0.505969 -2.25186 0
M  V30 3647 C 356.661 0.451009 -1.5986 0
M  V30 3648 O 357.846 0.360307 -1.87367 0
M  V30 3649 C 354.986 0.193089 -3.44559 0
M  V30 3650 C 354.099 -0.803222 -4.24467 0
M  V30 3651 C 353.234 -0.0797793 -5.3114 0
M  V30 3652 C 352.273 -1.06583 -6.02749 0
M  V30 3653 N 351.41 -0.372074 -7.01113 0
M  V30 3654 H 356.25 -1.37351 -2.64459 0
M  V30 3655 H 353.787 -0.688419 -1.29997 0
M  V30 3656 H 355.745 0.615125 -4.1264 0
M  V30 3657 H 354.375 1.02455 -3.06109 0
M  V30 3658 H 353.427 -1.34368 -3.55878 0
M  V30 3659 H 354.739 -1.55494 -4.73944 0
M  V30 3660 H 353.893 0.400015 -6.0538 0
M  V30 3661 H 352.632 0.704597 -4.82583 0
M  V30 3662 H 351.637 -1.55645 -5.27309 0
M  V30 3663 H 352.862 -1.85074 -6.53395 0
M  V30 3664 H 350.808 0.393238 -6.5482 0
M  V30 3665 H 350.725 -1.06258 -7.48495 0
M  V30 3666 H 351.993 0.0855932 -7.79453 0
M  V30 3667 N 356.222 1.38976 -0.743202 0
M  V30 3668 C 357.633 1.83123 -0.363732 0
M  V30 3669 C 357.984 1.6205 1.10609 0
M  V30 3670 O 357.109 1.11606 1.854 0
M  V30 3671 C 357.704 3.32439 -0.653408 0
M  V30 3672 C 356.263 3.74974 -0.327338 0
M  V30 3673 C 355.41 2.61878 -0.911875 0
M  V30 3674 H 358.361 1.27852 -0.940191 0
M  V30 3675 H 358.382 3.80432 0.0720031 0
M  V30 3676 H 357.894 3.47745 -1.72323 0
M  V30 3677 H 355.995 3.65252 0.736314 0
M  V30 3678 H 356.108 4.72106 -0.815631 0
M  V30 3679 H 354.472 2.52448 -0.337944 0
M  V30 3680 H 355.255 2.79987 -1.98651 0
M  V30 3681 N 357.7 0.491464 1.49741 0
M  V30 3682 C 359.111 0.0413169 1.86654 0
M  V30 3683 C 359.462 -1.36985 1.40462 0
M  V30 3684 O 358.587 -2.01917 0.778354 0
M  V30 3685 C 359.182 0.0682023 3.38731 0
M  V30 3686 C 357.741 -0.32656 3.74981 0
M  V30 3687 C 356.888 0.444888 2.73708 0
M  V30 3688 H 359.839 0.704733 1.42194 0
M  V30 3689 H 359.86 -0.729322 3.73445 0
M  V30 3690 H 359.372 1.09539 3.72321 0
M  V30 3691 H 357.473 -1.35734 3.46997 0
M  V30 3692 H 357.586 -0.013741 4.79098 0
M  V30 3693 H 355.95 -0.104062 2.54487 0
M  V30 3694 H 356.733 1.47197 3.10142 0
M  V30 3695 N 359.178 -1.55987 0.224894 0
M  V30 3696 C 360.424 -1.98684 -0.406502 0
M  V30 3697 C 360.757 -1.11248 -1.59177 0
M  V30 3698 O 360.032 -0.170909 -1.93748 0
M  V30 3699 C 360.315 -3.50218 -0.837808 0
M  V30 3700 C 360.168 -4.48426 0.351332 0
M  V30 3701 C 361.487 -4.06243 -1.69278 0
M  V30 3702 H 358.606 -0.722337 -0.146283 0
M  V30 3703 H 361.248 -1.87255 0.321799 0
M  V30 3704 H 359.398 -3.60089 -1.45837 0
M  V30 3705 H 361.07 -4.50562 0.989526 0
M  V30 3706 H 359.313 -4.22159 0.998207 0
M  V30 3707 H 359.984 -5.52 0.00655905 0
M  V30 3708 H 362.46 -3.99337 -1.16914 0
M  V30 3709 H 361.336 -5.12581 -1.96346 0
M  V30 3710 H 361.597 -3.53332 -2.65723 0
M  V30 3711 N 360.656 0.0484629 -1.57525 0
M  V30 3712 C 361.903 0.743125 -1.88372 0
M  V30 3713 C 362.231 1.76383 -0.819715 0
M  V30 3714 O 361.486 1.94855 0.181659 0
M  V30 3715 C 361.785 1.46632 -3.25935 0
M  V30 3716 C 361.451 0.583427 -4.4711 0
M  V30 3717 C 360.113 0.340191 -4.79996 0
M  V30 3718 C 362.465 -0.0273345 -5.21193 0
M  V30 3719 C 359.793 -0.522903 -5.84365 0
M  V30 3720 C 362.145 -0.878017 -6.26477 0
M  V30 3721 C 360.809 -1.1309 -6.5785 0
M  V30 3722 H 360.079 0.271929 -0.689301 0
M  V30 3723 H 362.726 0.00336166 -1.915 0
M  V30 3724 H 361.031 2.2789 -3.18706 0
M  V30 3725 H 362.728 2.00902 -3.47044 0
M  V30 3726 H 359.318 0.783151 -4.21384 0
M  V30 3727 H 363.502 0.147654 -4.9608 0
M  V30 3728 H 358.758 -0.727335 -6.07058 0
M  V30 3729 H 362.932 -1.35789 -6.83033 0
M  V30 3730 H 360.559 -1.80144 -7.38547 0
M  V30 3731 N 362.134 1.5431 0.320358 0
M  V30 3732 C 363.081 1.83918 1.39438 0
M  V30 3733 C 364.051 0.686525 1.51248 0
M  V30 3734 O 365.236 0.933269 1.66417 0
M  V30 3735 C 362.376 2.075 2.75749 0
M  V30 3736 C 361.489 3.35177 2.72544 0
M  V30 3737 C 360.624 3.48704 4.00723 0
M  V30 3738 C 359.663 4.70244 3.91838 0
M  V30 3739 N 358.8 4.80679 5.11754 0
M  V30 3740 H 363.64 2.75544 1.13489 0
M  V30 3741 H 361.177 1.36459 0.549309 0
M  V30 3742 H 363.135 2.19166 3.54996 0
M  V30 3743 H 361.765 1.19163 3 0
M  V30 3744 H 360.817 3.32233 1.85271 0
M  V30 3745 H 362.129 4.24534 2.61863 0
M  V30 3746 H 361.283 3.59928 4.88402 0
M  V30 3747 H 360.022 2.57445 4.14214 0
M  V30 3748 H 359.027 4.59072 3.02544 0
M  V30 3749 H 360.252 5.6289 3.7991 0
M  V30 3750 H 358.198 3.92337 5.25745 0
M  V30 3751 H 358.115 5.64007 5.0342 0
M  V30 3752 H 359.383 4.96239 6.01138 0
M  V30 3753 N 363.613 -0.582584 1.46437 0
M  V30 3754 C 365.024 -1.1647 1.45916 0
M  V30 3755 C 365.375 -1.95177 0.200077 0
M  V30 3756 O 364.5 -2.04874 -0.696819 0
M  V30 3757 C 365.095 -2.11885 2.64367 0
M  V30 3758 C 363.654 -2.65421 2.66887 0
M  V30 3759 C 362.801 -1.41294 2.38603 0
M  V30 3760 H 365.752 -0.370514 1.54314 0
M  V30 3761 H 365.773 -2.9535 2.39892 0
M  V30 3762 H 365.285 -1.54573 3.5599 0
M  V30 3763 H 363.386 -3.26602 1.79338 0
M  V30 3764 H 363.499 -3.08147 3.66854 0
M  V30 3765 H 361.863 -1.71109 1.88663 0
M  V30 3766 H 362.646 -0.858125 3.32402 0
M  V30 3767 N 365.091 -1.34144 -0.827227 0
M  V30 3768 C 366.338 -1.26258 -1.58319 0
M  V30 3769 C 366.666 0.168595 -1.93768 0
M  V30 3770 O 365.921 1.12877 -1.59866 0
M  V30 3771 C 366.22 -2.09464 -2.89585 0
M  V30 3772 C 365.886 -3.58521 -2.73448 0
M  V30 3773 C 364.548 -3.99155 -2.68754 0
M  V30 3774 C 366.9 -4.53189 -2.57428 0
M  V30 3775 C 364.228 -5.32656 -2.45957 0
M  V30 3776 C 366.58 -5.86864 -2.36163 0
M  V30 3777 C 365.244 -6.26667 -2.29879 0
M  V30 3778 H 364.514 -0.462013 -0.579332 0
M  V30 3779 H 367.161 -1.65845 -0.95748 0
M  V30 3780 H 365.466 -1.62692 -3.56425 0
M  V30 3781 H 367.163 -2.00712 -3.47154 0
M  V30 3782 H 363.753 -3.26264 -2.77939 0
M  V30 3783 H 367.937 -4.22696 -2.60081 0
M  V30 3784 H 363.193 -5.62519 -2.39546 0
M  V30 3785 H 367.367 -6.59813 -2.22754 0
M  V30 3786 H 364.994 -7.30049 -2.11975 0
M  V30 3787 N 366.569 1.04691 -1.17803 0
M  V30 3788 C 367.479 2.16057 -0.914151 0
M  V30 3789 C 368.495 1.73589 0.119503 0
M  V30 3790 O 369.671 2.01308 -0.0609468 0
M  V30 3791 C 366.736 3.4394 -0.436603 0
M  V30 3792 C 365.797 4.00825 -1.53746 0
M  V30 3793 C 365.03 5.22604 -1.0826 0
M  V30 3794 O 365.253 5.70367 0.0612244 0
M  V30 3795 O 364.187 5.7186 -1.87775 0
M  V30 3796 H 368.013 2.41169 -1.84584 0
M  V30 3797 H 365.598 1.1453 -0.959334 0
M  V30 3798 H 367.48 4.21024 -0.178057 0
M  V30 3799 H 366.155 3.20316 0.466869 0
M  V30 3800 H 365.062 3.25158 -1.84995 0
M  V30 3801 H 366.395 4.28778 -2.41683 0
M  V30 3802 N 368.047 0.979072 1.23499 0
M  V30 3803 C 369.293 0.648178 1.92163 0
M  V30 3804 C 369.626 -0.816049 1.76222 0
M  V30 3805 O 368.901 -1.58849 1.12237 0
M  V30 3806 C 369.184 1.03773 3.44824 0
M  V30 3807 C 369.037 2.55948 3.69879 0
M  V30 3808 C 370.356 0.580653 4.36253 0
M  V30 3809 H 367.475 0.236952 0.69787 0
M  V30 3810 H 370.117 1.22012 1.45647 0
M  V30 3811 H 368.267 0.551058 3.84572 0
M  V30 3812 H 369.939 3.12179 3.3962 0
M  V30 3813 H 368.182 2.98641 3.14636 0
M  V30 3814 H 368.853 2.78255 4.76737 0
M  V30 3815 H 371.329 0.998465 4.03943 0
M  V30 3816 H 370.205 0.881663 5.41773 0
M  V30 3817 H 370.466 -0.519052 4.39042 0
M  V30 3818 N 369.525 -1.3858 0.750561 0
M  V30 3819 C 370.774 -1.99424 0.302172 0
M  V30 3820 C 371.087 -1.60254 -1.12152 0
M  V30 3821 O 372.293 -2.14046 -1.67023 0
M  V30 3822 C 370.749 -3.56558 0.489307 0
M  V30 3823 C 370.357 -4.04682 1.92189 0
M  V30 3824 C 372.101 -4.24374 0.103478 0
M  V30 3825 C 370.008 -5.54446 2.05775 0
M  V30 3826 H 368.938 -0.746046 0.10923 0
M  V30 3827 H 371.589 -1.58383 0.92667 0
M  V30 3828 H 369.971 -3.95472 -0.204329 0
M  V30 3829 H 371.145 -3.77065 2.64875 0
M  V30 3830 H 369.46 -3.4958 2.26236 0
M  V30 3831 H 372.057 -5.34384 0.183787 0
M  V30 3832 H 372.4 -4.05468 -0.943481 0
M  V30 3833 H 372.933 -3.90688 0.748854 0
M  V30 3834 H 369.672 -5.78252 3.08714 0
M  V30 3835 H 369.192 -5.83816 1.37546 0
M  V30 3836 H 370.871 -6.20099 1.84626 0
M  V30 3837 N 371.003 -0.499398 -1.49478 0
M  V30 3838 C 372.25 0.0456899 -2.02448 0
M  V30 3839 C 372.578 1.37142 -1.37921 0
M  V30 3840 O 371.833 1.89111 -0.503544 0
M  V30 3841 C 372.132 0.248424 -3.56536 0
M  V30 3842 C 371.798 -0.999107 -4.39692 0
M  V30 3843 C 370.46 -1.34108 -4.62135 0
M  V30 3844 C 372.812 -1.82842 -4.88076 0
M  V30 3845 C 370.14 -2.51191 -5.30208 0
M  V30 3846 C 372.492 -2.99076 -5.57437 0
M  V30 3847 C 371.156 -3.33655 -5.78127 0
M  V30 3848 H 370.426 0.0167191 -0.740811 0
M  V30 3849 H 373.073 -0.65923 -1.79795 0
M  V30 3850 H 371.378 1.03586 -3.77859 0
M  V30 3851 H 373.075 0.684605 -3.95113 0
M  V30 3852 H 369.665 -0.722729 -4.22463 0
M  V30 3853 H 373.849 -1.57737 -4.70566 0
M  V30 3854 H 369.105 -2.78221 -5.44429 0
M  V30 3855 H 373.279 -3.63664 -5.93904 0
M  V30 3856 H 370.906 -4.24483 -6.30649 0
M  V30 3857 N 372.481 1.55866 -0.233164 0
M  V30 3858 C 373.391 2.24431 0.683217 0
M  V30 3859 C 374.407 1.2558 1.2044 0
M  V30 3860 O 375.583 1.58422 1.24356 0
M  V30 3861 C 372.648 2.91979 1.86947 0
M  V30 3862 C 371.709 4.06204 1.38912 0
M  V30 3863 C 370.942 4.70522 2.51883 0
M  V30 3864 O 371.165 4.33865 3.70293 0
M  V30 3865 O 370.099 5.59296 2.22423 0
M  V30 3866 H 373.925 3.03426 0.129059 0
M  V30 3867 H 371.51 1.494 -0.0022283 0
M  V30 3868 H 373.392 3.34573 2.56201 0
M  V30 3869 H 372.067 2.15935 2.41151 0
M  V30 3870 H 370.974 3.68155 0.664259 0
M  V30 3871 H 372.307 4.84025 0.893328 0
M  V30 3872 N 373.959 -0.0401083 1.57549 0
M  V30 3873 C 375.236 -0.767917 1.79896 0
M  V30 3874 C 375.616 -1.9416 0.82856 0
M  V30 3875 O 374.964 -2.2812 -0.131671 0
M  V30 3876 C 375.174 -1.2113 3.27305 0
M  V30 3877 C 376.522 -1.63175 3.91994 0
M  V30 3878 O 377.546 -1.30616 3.31388 0
M  V30 3879 O 376.405 -2.23565 4.98679 0
M  V30 3880 H 373.499 -0.370441 0.739393 0
M  V30 3881 H 376.045 -0.017737 1.69691 0
M  V30 3882 H 374.817 -0.372937 3.89519 0
M  V30 3883 H 374.44 -2.02183 3.42356 0
M  V30 3884 N 375.437 -1.54477 -0.31217 0
M  V30 3885 C 376.347 -1.87695 -1.4074 0
M  V30 3886 C 377.363 -0.769975 -1.56036 0
M  V30 3887 O 378.539 -1.06537 -1.70915 0
M  V30 3888 C 375.604 -2.10755 -2.75287 0
M  V30 3889 C 374.665 -3.34514 -2.69071 0
M  V30 3890 C 373.898 -3.56465 -3.97201 0
M  V30 3891 O 374.121 -2.81637 -4.96021 0
M  V30 3892 O 373.055 -4.49964 -3.9977 0
M  V30 3893 H 376.881 -2.80849 -1.15574 0
M  V30 3894 H 374.466 -1.40526 -0.507228 0
M  V30 3895 H 376.348 -2.27188 -3.54913 0
M  V30 3896 H 375.023 -1.20788 -3.0032 0
M  V30 3897 H 373.93 -3.23456 -1.87955 0
M  V30 3898 H 375.263 -4.24575 -2.48992 0
M  V30 3899 N 376.915 0.57481 -1.46744 0
M  V30 3900 C 377.878 1.66533 -1.57478 0
M  V30 3901 C 378.878 1.54338 -0.451263 0
M  V30 3902 O 380.068 1.58814 -0.715813 0
M  V30 3903 C 377.2 3.05999 -1.50259 0
M  V30 3904 H 378.393 1.58372 -2.54673 0
M  V30 3905 H 375.946 0.793301 -1.34672 0
M  V30 3906 H 376.681 3.19709 -0.543725 0
M  V30 3907 H 376.466 3.16259 -2.31781 0
M  V30 3908 H 377.956 3.8537 -1.60872 0
M  V30 3909 N 378.394 1.34581 0.820102 0
M  V30 3910 C 379.671 1.17675 1.56244 0
M  V30 3911 C 380.051 -0.249541 2.0962 0
M  V30 3912 O 379.399 -1.25125 1.91196 0
M  V30 3913 C 379.609 2.23364 2.6816 0
M  V30 3914 C 380.957 2.58485 3.36854 0
M  V30 3915 O 381.981 2.22175 2.78418 0
M  V30 3916 O 380.84 3.20868 4.42386 0
M  V30 3917 H 377.934 0.456333 0.689702 0
M  V30 3918 H 380.48 1.46222 0.861231 0
M  V30 3919 H 379.252 3.19087 2.26493 0
M  V30 3920 H 378.875 1.96009 3.45928 0
M  V30 3921 N 379.872 -1.04064 1.18357 0
M  V30 3922 C 381.121 -1.76662 0.973313 0
M  V30 3923 C 381.434 -1.89154 -0.497991 0
M  V30 3924 O 382.64 -2.58606 -0.826762 0
M  V30 3925 C 381.096 -3.17624 1.69242 0
M  V30 3926 C 380.704 -3.13225 3.20303 0
M  V30 3927 C 382.448 -3.946 1.56497 0
M  V30 3928 C 380.355 -4.49046 3.84853 0
M  V30 3929 H 379.285 -0.662214 0.36054 0
M  V30 3930 H 381.936 -1.16553 1.41731 0
M  V30 3931 H 380.318 -3.78129 1.1762 0
M  V30 3932 H 381.492 -2.62172 3.78949 0
M  V30 3933 H 379.807 -2.49749 3.33189 0
M  V30 3934 H 382.404 -4.95042 2.02084 0
M  V30 3935 H 382.747 -4.13074 0.517243 0
M  V30 3936 H 383.28 -3.4067 2.05399 0
M  V30 3937 H 380.019 -4.35777 4.89672 0
M  V30 3938 H 379.539 -5.00203 3.30994 0
M  V30 3939 H 381.218 -5.17961 3.87718 0
M  V30 3940 N 381.35 -0.985608 -1.22978 0
M  V30 3941 C 382.596 -0.65836 -1.91816 0
M  V30 3942 C 382.929 0.806692 -1.76653 0
M  V30 3943 O 382.204 1.58252 -1.13078 0
M  V30 3944 C 382.487 -1.056 -3.44268 0
M  V30 3945 C 382.34 -2.57906 -3.68516 0
M  V30 3946 C 383.659 -0.603781 -4.35939 0
M  V30 3947 H 380.778 -0.24065 -0.696604 0
M  V30 3948 H 383.42 -1.22783 -1.44998 0
M  V30 3949 H 381.57 -0.571445 -3.84274 0
M  V30 3950 H 383.242 -3.13976 -3.3796 0
M  V30 3951 H 381.485 -3.00305 -3.13048 0
M  V30 3952 H 382.156 -2.80779 -4.75255 0
M  V30 3953 H 384.632 -1.01987 -4.03408 0
M  V30 3954 H 383.508 -0.910383 -5.41298 0
M  V30 3955 H 383.769 0.495761 -4.39312 0
M  V30 3956 N 382.828 1.3818 -0.7579 0
M  V30 3957 C 383.738 2.3421 -0.135247 0
M  V30 3958 C 384.754 1.59487 0.695683 0
M  V30 3959 O 385.93 1.91657 0.618832 0
M  V30 3960 C 382.995 3.3862 0.744139 0
M  V30 3961 C 382.056 4.2918 -0.101658 0
M  V30 3962 C 381.289 5.28603 0.735851 0
M  V30 3963 O 381.512 5.35166 1.97366 0
M  V30 3964 O 380.446 6.01707 0.152372 0
M  V30 3965 H 384.272 2.8916 -0.928436 0
M  V30 3966 H 381.857 1.40101 -0.518855 0
M  V30 3967 H 383.739 4.02539 1.2466 0
M  V30 3968 H 382.414 2.86019 1.51575 0
M  V30 3969 H 381.321 3.68407 -0.650167 0
M  V30 3970 H 382.654 4.85048 -0.836024 0
M  V30 3971 N 384.306 0.507319 1.49211 0
M  V30 3972 C 385.555 -0.0368315 2.01666 0
M  V30 3973 C 385.868 -1.37459 1.39156 0
M  V30 3974 O 387.074 -2.00579 1.82976 0
M  V30 3975 C 385.53 -0.116089 3.59713 0
M  V30 3976 C 385.138 1.2154 4.31198 0
M  V30 3977 C 386.882 -0.610268 4.2009 0
M  V30 3978 C 384.789 1.09796 5.81119 0
M  V30 3979 H 383.719 -0.0175376 0.753796 0
M  V30 3980 H 386.37 0.647691 1.71689 0
M  V30 3981 H 384.752 -0.8652 3.86433 0
M  V30 3982 H 385.926 1.9783 4.16173 0
M  V30 3983 H 384.241 1.64352 3.82593 0
M  V30 3984 H 386.838 -0.715742 5.29888 0
M  V30 3985 H 387.181 -1.61064 3.8388 0
M  V30 3986 H 387.714 0.0824916 3.97714 0
M  V30 3987 H 384.453 2.0728 6.21864 0
M  V30 3988 H 383.973 0.376058 5.9862 0
M  V30 3989 H 385.652 0.779281 6.4229 0
M  V30 3990 N 385.784 -1.5574 0.241426 0
M  V30 3991 C 387.03 -1.99104 -0.385406 0
M  V30 3992 C 387.363 -1.1293 -1.57988 0
M  V30 3993 O 386.638 -0.191449 -1.93555 0
M  V30 3994 C 386.921 -3.51087 -0.800616 0
M  V30 3995 C 386.774 -4.48028 0.398874 0
M  V30 3996 C 388.093 -4.08015 -1.64959 0
M  V30 3997 H 385.212 -0.723848 -0.138614 0
M  V30 3998 H 387.854 -1.86903 0.341642 0
M  V30 3999 H 386.004 -3.61615 -1.4201 0
M  V30 4000 H 387.676 -4.49487 1.03726 0
M  V30 4001 H 385.919 -4.21077 1.04293 0
M  V30 4002 H 386.59 -5.51962 0.0651056 0
M  V30 4003 H 389.066 -4.00555 -1.12672 0
M  V30 4004 H 387.942 -5.14635 -1.90898 0
M  V30 4005 H 388.203 -3.56131 -2.61961 0
M  V30 4006 N 387.262 0.0317525 -1.57568 0
M  V30 4007 C 388.539 0.758366 -1.803 0
M  V30 4008 C 388.919 1.93718 -0.838845 0
M  V30 4009 O 388.267 2.28187 0.119571 0
M  V30 4010 C 388.477 1.19392 -3.27943 0
M  V30 4011 C 389.825 1.61094 -3.92854 0
M  V30 4012 O 390.849 1.28857 -3.32076 0
M  V30 4013 O 389.708 2.20918 -4.99858 0
M  V30 4014 H 386.802 0.366514 -0.741348 0
M  V30 4015 H 389.348 0.00873765 -1.69698 0
M  V30 4016 H 388.12 0.352275 -3.89711 0
M  V30 4017 H 387.743 2.00365 -3.43424 0
M  V30 4018 N 388.74 1.54641 0.303973 0
M  V30 4019 C 389.703 1.84646 1.35789 0
M  V30 4020 C 390.703 0.7192 1.4382 0
M  V30 4021 O 391.893 0.987491 1.43507 0
M  V30 4022 C 389.025 2.02407 2.74307 0
M  V30 4023 H 390.218 2.78829 1.10429 0
M  V30 4024 H 387.771 1.46658 0.540487 0
M  V30 4025 H 388.506 1.10502 3.04893 0
M  V30 4026 H 388.291 2.84453 2.69868 0
M  V30 4027 H 389.781 2.27002 3.50514 0
M  V30 4028 N 390.218 -0.567019 1.47046 0
M  V30 4029 C 391.148 -1.68482 1.61667 0
M  V30 4030 C 392.129 -1.6358 0.466418 0
M  V30 4031 O 393.314 -1.81354 0.694574 0
M  V30 4032 C 390.444 -3.07124 1.62148 0
M  V30 4033 C 389.398 -3.26867 2.76301 0
M  V30 4034 C 388.724 -4.66196 2.61849 0
M  V30 4035 C 390.024 -3.13186 4.17986 0
M  V30 4036 H 391.718 -1.56502 2.5524 0
M  V30 4037 H 389.264 -0.751486 1.22836 0
M  V30 4038 H 391.217 -3.8516 1.70968 0
M  V30 4039 H 389.941 -3.2004 0.651287 0
M  V30 4040 H 388.6 -2.51237 2.66975 0
M  V30 4041 H 388.248 -4.75898 1.62879 0
M  V30 4042 H 387.948 -4.80356 3.38425 0
M  V30 4043 H 389.472 -5.46379 2.72584 0
M  V30 4044 H 390.886 -3.81049 4.2834 0
M  V30 4045 H 389.283 -3.3886 4.95272 0
M  V30 4046 H 390.353 -2.10057 4.3704 0
M  V30 4047 N 391.696 -1.35014 -0.812953 0
M  V30 4048 C 393.112 -1.14914 -1.10757 0
M  V30 4049 C 393.312 0.0426818 -2.01455 0
M  V30 4050 O 392.368 0.715212 -2.42159 0
M  V30 4051 C 393.681 -2.44911 -1.74468 0
M  V30 4052 C 395.229 -2.5106 -1.86917 0
M  V30 4053 C 395.704 -3.81085 -2.54044 0
M  V30 4054 N 397.195 -3.82301 -2.61535 0
M  V30 4055 C 397.93 -4.79634 -3.14227 0
M  V30 4056 N 397.426 -5.87353 -3.67407 0
M  V30 4057 N 399.219 -4.67078 -3.12721 0
M  V30 4058 H 391.37 -2.1136 -0.20989 0
M  V30 4059 H 393.633 -0.935128 -0.155692 0
M  V30 4060 H 393.339 -3.32267 -1.15289 0
M  V30 4061 H 393.213 -2.58989 -2.74234 0
M  V30 4062 H 395.6 -1.64137 -2.45241 0
M  V30 4063 H 395.681 -2.40901 -0.860242 0
M  V30 4064 H 395.325 -4.68402 -1.96372 0
M  V30 4065 H 395.255 -3.88529 -3.55461 0
M  V30 4066 H 397.746 -3.04465 -2.23851 0
M  V30 4067 H 398.059 -6.57624 -4.05894 0
M  V30 4068 H 396.404 -5.91054 -3.65623 0
M  V30 4069 H 399.595 -3.82067 -2.70449 0
M  V30 4070 H 399.768 -5.43098 -3.53481 0
M  V30 4071 N 393.175 1.03435 -1.18907 0
M  V30 4072 C 394.586 1.58195 -0.991523 0
M  V30 4073 C 394.937 1.90801 0.457081 0
M  V30 4074 O 394.062 1.70272 1.33553 0
M  V30 4075 C 394.657 2.87432 -1.79355 0
M  V30 4076 C 393.216 3.38785 -1.64017 0
M  V30 4077 C 392.363 2.12292 -1.78402 0
M  V30 4078 H 395.314 0.860299 -1.33359 0
M  V30 4079 H 395.335 3.58096 -1.28638 0
M  V30 4080 H 394.847 2.63669 -2.84781 0
M  V30 4081 H 392.948 3.67547 -0.611536 0
M  V30 4082 H 393.061 4.12186 -2.44212 0
M  V30 4083 H 391.425 2.23901 -1.2141 0
M  V30 4084 H 392.208 1.90977 -2.85277 0
M  V30 4085 N 394.653 0.992116 1.22453 0
M  V30 4086 C 395.583 0.561677 2.26644 0
M  V30 4087 C 396.564 -0.411055 1.65059 0
M  V30 4088 O 397.749 -0.301861 1.9184 0
M  V30 4089 C 394.879 -0.125247 3.47074 0
M  V30 4090 C 393.833 0.765948 4.21091 0
M  V30 4091 C 393.159 -0.0538484 5.34673 0
M  V30 4092 C 394.459 2.06242 4.79856 0
M  V30 4093 H 396.153 1.43259 2.62902 0
M  V30 4094 H 393.699 0.690283 1.26377 0
M  V30 4095 H 395.652 -0.437764 4.1912 0
M  V30 4096 H 394.376 -1.03069 3.0991 0
M  V30 4097 H 393.035 1.0621 3.50878 0
M  V30 4098 H 392.683 -0.960188 4.9375 0
M  V30 4099 H 392.383 0.539415 5.85119 0
M  V30 4100 H 393.907 -0.360477 6.09535 0
M  V30 4101 H 395.321 1.8139 5.43848 0
M  V30 4102 H 393.718 2.60444 5.40638 0
M  V30 4103 H 394.788 2.74167 3.99951 0
M  V30 4104 N 396.131 -1.37776 0.765217 0
M  V30 4105 C 397.547 -1.53297 0.444108 0
M  V30 4106 C 397.747 -1.72515 -1.04119 0
M  V30 4107 O 396.803 -1.74278 -1.82711 0
M  V30 4108 C 398.116 -2.73328 1.25349 0
M  V30 4109 C 399.664 -2.87185 1.24473 0
M  V30 4110 C 400.139 -4.10191 2.03733 0
M  V30 4111 N 401.63 -4.17291 2.01053 0
M  V30 4112 C 402.365 -5.11488 2.59166 0
M  V30 4113 N 401.861 -6.11285 3.26041 0
M  V30 4114 N 403.654 -5.03924 2.49032 0
M  V30 4115 H 395.805 -1.23552 1.72768 0
M  V30 4116 H 398.068 -0.601103 0.733062 0
M  V30 4117 H 397.774 -2.6557 2.30577 0
M  V30 4118 H 397.648 -3.66834 0.87823 0
M  V30 4119 H 400.035 -2.94418 0.20047 0
M  V30 4120 H 400.116 -1.94657 1.65959 0
M  V30 4121 H 399.76 -4.0372 3.08176 0
M  V30 4122 H 399.69 -5.01821 1.59633 0
M  V30 4123 H 402.181 -3.45825 1.5236 0
M  V30 4124 H 402.494 -6.79678 3.67774 0
M  V30 4125 H 400.839 -6.11583 3.30138 0
M  V30 4126 H 404.03 -4.24902 1.96407 0
M  V30 4127 H 404.203 -5.77152 2.94617 0
M  V30 4128 N 397.609 -0.515225 -1.4894 0
M  V30 4129 C 398.542 0.302518 -2.26186 0
M  V30 4130 C 399.52 0.957895 -1.31389 0
M  V30 4131 O 400.704 0.985198 -1.60705 0
M  V30 4132 C 397.831 1.42719 -3.07163 0
M  V30 4133 C 396.877 0.884736 -4.17223 0
M  V30 4134 S 397.71 -0.235767 -5.34981 0
M  V30 4135 C 398.866 0.891731 -6.19515 0
M  V30 4136 H 399.099 -0.353076 -2.95196 0
M  V30 4137 H 396.632 -0.300753 -1.51443 0
M  V30 4138 H 398.59 2.07152 -3.54398 0
M  V30 4139 H 397.251 2.05445 -2.37595 0
M  V30 4140 H 396.444 1.72801 -4.73451 0
M  V30 4141 H 396.046 0.317362 -3.72651 0
M  V30 4142 H 398.338 1.79377 -6.53322 0
M  V30 4143 H 399.281 0.367751 -7.07144 0
M  V30 4144 H 399.689 1.16548 -5.52338 0
M  V30 4145 N 399.087 1.5561 -0.249682 0
M  V30 4146 C 400.312 2.03865 0.381305 0
M  V30 4147 C 400.737 1.12769 1.50548 0
M  V30 4148 O 400.095 0.121189 1.80895 0
M  V30 4149 C 400.143 3.50101 0.863816 0
M  V30 4150 O 399.247 3.62132 1.97318 0
M  V30 4151 H 398.588 0.658827 0.0827194 0
M  V30 4152 H 401.118 2.01105 -0.376552 0
M  V30 4153 H 401.128 3.90975 1.1663 0
M  V30 4154 H 399.803 4.1588 0.0411816 0
M  V30 4155 H 398.38 3.33155 1.67517 0
M  V30 4156 N 400.565 -0.0233959 1.57583 0
M  V30 4157 C 401.513 -1.04063 2.08023 0
M  V30 4158 C 402.507 -1.37084 0.995204 0
M  V30 4159 O 403.713 -1.35923 1.18004 0
M  V30 4160 H 400.088 -0.353144 0.663922 0
M  V30 4161 H 402.059 -0.589453 2.9252 0
M  V30 4162 C 400.808 -2.33123 2.57971 0
M  V30 4163 H 400.131 -2.08577 3.4108 0
M  V30 4164 H 401.571 -3.02632 2.96967 0
M  V30 4165 C 400.03 -3.02483 1.48342 0
M  V30 4166 O 400.56 -3.92541 0.852898 0
M  V30 4167 N 398.766 -2.63909 1.21658 0
M  V30 4168 H 398.313 -1.90758 1.73116 0
M  V30 4169 H 398.271 -3.10633 0.485218 0
M  V30 4170 N 402.043 -1.548 -0.295768 0
M  V30 4171 C 403.271 -1.78327 -1.04914 0
M  V30 4172 C 403.686 -0.545316 -1.80753 0
M  V30 4173 O 403.043 0.485013 -1.75937 0
M  V30 4174 C 403.094 -2.99418 -2.02561 0
M  V30 4175 O 402.815 -4.18431 -1.29798 0
M  V30 4176 C 404.316 -3.35375 -2.89895 0
M  V30 4177 H 401.536 -0.594618 -0.310918 0
M  V30 4178 H 404.08 -2.01763 -0.333454 0
M  V30 4179 H 402.235 -2.78175 -2.69624 0
M  V30 4180 H 402.649 -4.86736 -1.95419 0
M  V30 4181 H 404.123 -4.23332 -3.54251 0
M  V30 4182 H 404.6 -2.53761 -3.58472 0
M  V30 4183 H 405.206 -3.58796 -2.28355 0
M  V30 4184 N 403.521 0.559213 -1.47345 0
M  V30 4185 C 404.77 1.31281 -1.53128 0
M  V30 4186 C 405.083 1.94602 -0.197344 0
M  V30 4187 O 406.289 2.71173 -0.133154 0
M  V30 4188 C 404.745 2.38051 -2.69925 0
M  V30 4189 C 404.353 1.8093 -4.0984 0
M  V30 4190 C 406.097 3.14604 -2.84999 0
M  V30 4191 C 404.004 2.85468 -5.1794 0
M  V30 4192 H 402.934 0.493614 -0.569966 0
M  V30 4193 H 405.585 0.594155 -1.73615 0
M  V30 4194 H 403.967 3.12822 -2.42814 0
M  V30 4195 H 405.141 1.12544 -4.46845 0
M  V30 4196 H 403.456 1.16967 -3.99634 0
M  V30 4197 H 406.053 3.92666 -3.62929 0
M  V30 4198 H 406.396 3.68665 -1.93369 0
M  V30 4199 H 406.929 2.46945 -3.1187 0
M  V30 4200 H 403.668 2.36264 -6.1144 0
M  V30 4201 H 403.188 3.52269 -4.85455 0
M  V30 4202 H 404.867 3.48996 -5.44803 0
M  V30 4203 N 404.999 1.35443 0.805782 0
M  V30 4204 C 406.41 1.25768 1.37983 0
M  V30 4205 C 406.761 -0.10958 1.95894 0
M  V30 4206 O 405.886 -1.01056 1.91355 0
M  V30 4207 C 406.481 2.27727 2.5085 0
M  V30 4208 C 405.04 2.2179 3.04115 0
M  V30 4209 C 404.187 2.13393 1.77084 0
M  V30 4210 H 407.138 1.4656 0.608752 0
M  V30 4211 H 407.159 1.90422 3.29424 0
M  V30 4212 H 406.671 3.27227 2.08671 0
M  V30 4213 H 404.772 1.25703 3.50756 0
M  V30 4214 H 404.885 3.13788 3.62042 0
M  V30 4215 H 403.249 1.59384 1.98668 0
M  V30 4216 H 404.032 3.14755 1.37056 0
M  V30 4217 N 406.477 -1.02803 1.19454 0
M  V30 4218 C 407.425 -2.13213 0.929673 0
M  V30 4219 C 408.419 -1.69011 -0.114806 0
M  V30 4220 O 409.625 -1.79967 0.0345147 0
M  V30 4221 H 406 -0.69662 0.28324 0
M  V30 4222 H 407.971 -2.32744 1.86743 0
M  V30 4223 C 406.72 -3.4429 0.485797 0
M  V30 4224 H 406.043 -3.7872 1.28105 0
M  V30 4225 H 407.483 -4.22638 0.339582 0
M  V30 4226 C 405.942 -3.27258 -0.800244 0
M  V30 4227 O 406.472 -3.55967 -1.86146 0
M  V30 4228 N 404.678 -2.80545 -0.75781 0
M  V30 4229 H 404.225 -2.57382 0.106039 0
M  V30 4230 H 404.183 -2.6953 -1.61867 0
M  V30 4231 N 407.956 -0.998596 -1.21925 0
M  V30 4232 C 409.181 -0.696015 -1.95372 0
M  V30 4233 C 409.606 0.733826 -1.73195 0
M  V30 4234 O 408.964 1.50242 -1.01474 0
M  V30 4235 C 409.012 -1.01466 -3.4603 0
M  V30 4236 O 408.116 -0.116415 -4.12236 0
M  V30 4237 H 407.457 -0.259938 -0.611006 0
M  V30 4238 H 409.987 -1.33711 -1.54863 0
M  V30 4239 H 409.997 -0.958855 -3.96573 0
M  V30 4240 H 408.672 -2.05653 -3.61497 0
M  V30 4241 H 407.249 -0.228193 -3.72201 0
M  V30 4242 N 409.434 1.37368 -0.772513 0
M  V30 4243 C 410.68 1.99969 -0.337681 0
M  V30 4244 C 411.013 1.61184 1.08321 0
M  V30 4245 O 410.288 0.858395 1.74533 0
M  V30 4246 C 410.571 3.56858 -0.482121 0
M  V30 4247 C 410.424 4.0555 -1.94549 0
M  V30 4248 C 411.743 4.39955 0.113143 0
M  V30 4249 H 408.862 0.726464 -0.124171 0
M  V30 4250 H 411.504 1.63034 -0.975699 0
M  V30 4251 H 409.654 3.88452 0.0610361 0
M  V30 4252 H 411.326 3.84518 -2.54841 0
M  V30 4253 H 409.569 3.57715 -2.45403 0
M  V30 4254 H 410.24 5.14587 -1.9976 0
M  V30 4255 H 412.716 4.14623 -0.35031 0
M  V30 4256 H 411.592 5.48897 -0.0180514 0
M  V30 4257 H 411.853 4.25403 1.20354 0
M  V30 4258 N 410.912 0.523116 1.48665 0
M  V30 4259 C 412.158 -0.0134963 2.02796 0
M  V30 4260 C 412.491 -1.34582 1.40004 0
M  V30 4261 O 411.766 -1.86756 0.543381 0
M  V30 4262 C 412.049 -0.14276 3.59817 0
M  V30 4263 C 411.902 1.21425 4.331 0
M  V30 4264 C 413.221 -0.872856 4.31357 0
M  V30 4265 H 410.34 -0.00343074 0.736992 0
M  V30 4266 H 412.982 0.678816 1.7746 0
M  V30 4267 H 411.132 -0.732401 3.81534 0
M  V30 4268 H 412.804 1.84447 4.2282 0
M  V30 4269 H 411.047 1.79791 3.94788 0
M  V30 4270 H 411.718 1.07687 5.41394 0
M  V30 4271 H 414.194 -0.372555 4.14429 0
M  V30 4272 H 413.07 -0.932185 5.40927 0
M  V30 4273 H 413.331 -1.92161 3.98154 0
M  V30 4274 N 412.39 -1.55475 0.257931 0
M  V30 4275 C 413.639 -1.98383 -0.364275 0
M  V30 4276 C 413.952 -1.14952 -1.58258 0
M  V30 4277 O 415.158 -1.47924 -2.27664 0
M  V30 4278 C 413.614 -3.53037 -0.699479 0
M  V30 4279 C 413.222 -4.45223 0.498046 0
M  V30 4280 C 414.966 -4.04575 -1.28526 0
M  V30 4281 C 412.873 -5.91238 0.138383 0
M  V30 4282 H 411.803 -0.740911 -0.13988 0
M  V30 4283 H 414.454 -1.79936 0.359883 0
M  V30 4284 H 412.836 -3.6722 -1.48207 0
M  V30 4285 H 414.01 -4.42803 1.27522 0
M  V30 4286 H 412.325 -4.04226 0.999503 0
M  V30 4287 H 414.922 -5.11196 -1.56788 0
M  V30 4288 H 415.265 -3.5258 -2.21344 0
M  V30 4289 H 415.798 -3.93762 -0.565337 0
M  V30 4290 H 412.537 -6.47294 1.03398 0
M  V30 4291 H 412.057 -5.96768 -0.602374 0
M  V30 4292 H 413.736 -6.46413 -0.27553 0
M  V30 4293 N 413.868 0.0150385 -1.57593 0
M  V30 4294 C 414.831 0.995996 -2.06428 0
M  V30 4295 C 415.831 1.2818 -0.970903 0
M  V30 4296 O 417.021 1.22949 -1.23406 0
M  V30 4297 C 414.153 2.32506 -2.49307 0
M  V30 4298 H 415.346 0.573873 -2.94358 0
M  V30 4299 H 412.899 0.262186 -1.54085 0
M  V30 4300 H 413.634 2.79438 -1.64575 0
M  V30 4301 H 413.419 2.13087 -3.29145 0
M  V30 4302 H 414.909 3.02906 -2.87468 0
M  V30 4303 N 415.346 1.54954 0.287554 0
M  V30 4304 C 416.571 1.79209 1.04397 0
M  V30 4305 C 416.996 0.556431 1.79682 0
M  V30 4306 O 416.354 -0.493518 1.74454 0
M  V30 4307 C 416.402 3.00739 1.98969 0
M  V30 4308 O 415.506 2.74805 3.075 0
M  V30 4309 H 414.847 0.592755 0.299227 0
M  V30 4310 H 417.377 2.02068 0.320886 0
M  V30 4311 H 417.387 3.29077 2.4119 0
M  V30 4312 H 416.062 3.90329 1.43582 0
M  V30 4313 H 414.639 2.57523 2.69697 0
M  V30 4314 N 416.824 -0.551391 1.4764 0
M  V30 4315 C 418.052 -1.33357 1.58189 0
M  V30 4316 C 418.467 -1.87342 0.234199 0
M  V30 4317 O 417.824 -1.65301 -0.77343 0
M  V30 4318 C 417.875 -2.49942 2.61173 0
M  V30 4319 O 417.596 -1.98187 3.90709 0
M  V30 4320 C 419.097 -3.42072 2.8196 0
M  V30 4321 H 416.317 -0.40631 0.533998 0
M  V30 4322 H 418.861 -0.667367 1.93304 0
M  V30 4323 H 417.016 -3.12489 2.28975 0
M  V30 4324 H 417.43 -2.74342 4.47031 0
M  V30 4325 H 418.904 -4.20278 3.57869 0
M  V30 4326 H 419.381 -3.95978 1.89995 0
M  V30 4327 H 419.987 -2.85336 3.15378 0
M  V30 4328 N 418.302 -1.35869 -0.798587 0
M  V30 4329 C 419.232 -1.32118 -1.92528 0
M  V30 4330 C 420.213 -0.194209 -1.68988 0
M  V30 4331 O 421.398 -0.390426 -1.90235 0
M  V30 4332 C 418.528 -1.10047 -3.29404 0
M  V30 4333 C 417.482 -2.19471 -3.67446 0
M  V30 4334 C 416.808 -1.82555 -5.02571 0
M  V30 4335 C 418.108 -3.61495 -3.76987 0
M  V30 4336 H 419.802 -2.26394 -1.95924 0
M  V30 4337 H 417.348 -1.08981 -0.94123 0
M  V30 4338 H 419.301 -1.06061 -4.07835 0
M  V30 4339 H 418.025 -0.122195 -3.26371 0
M  V30 4340 H 416.684 -2.22568 -2.91306 0
M  V30 4341 H 416.332 -0.833249 -4.9605 0
M  V30 4342 H 416.032 -2.5581 -5.28995 0
M  V30 4343 H 417.556 -1.80108 -5.83432 0
M  V30 4344 H 418.97 -3.60676 -4.4563 0
M  V30 4345 H 417.367 -4.33577 -4.14887 0
M  V30 4346 H 418.437 -3.97065 -2.78329 0
M  V30 4347 N 419.78 1.02168 -1.19998 0
M  V30 4348 C 421.026 1.7606 -1.01855 0
M  V30 4349 C 421.381 1.87178 0.445222 0
M  V30 4350 O 420.674 1.3828 1.32624 0
M  V30 4351 C 420.868 3.18081 -1.62969 0
M  V30 4352 C 420.697 3.20809 -3.15137 0
M  V30 4353 C 419.467 3.28342 -3.84083 0
M  V30 4354 C 421.665 3.07268 -4.1242 0
M  V30 4355 N 419.647 3.2052 -5.23584 0
M  V30 4356 C 421.018 3.0716 -5.38566 0
M  V30 4357 C 423.073 2.91448 -4.03686 0
M  V30 4358 C 421.776 2.92853 -6.56985 0
M  V30 4359 C 423.802 2.78494 -5.21723 0
M  V30 4360 C 423.164 2.79046 -6.46771 0
M  V30 4361 H 419.263 0.655192 -0.426905 0
M  V30 4362 H 421.847 1.21564 -1.52087 0
M  V30 4363 H 420.018 3.70882 -1.15329 0
M  V30 4364 H 421.75 3.80375 -1.38192 0
M  V30 4365 H 418.505 3.34859 -3.34913 0
M  V30 4366 H 418.929 3.19997 -5.96599 0
M  V30 4367 H 423.571 2.89838 -3.07821 0
M  V30 4368 H 421.289 2.93213 -7.53028 0
M  V30 4369 H 424.875 2.67278 -5.16773 0
M  V30 4370 H 423.755 2.69134 -7.36571 0
M  V30 4371 N 421.258 1.00505 1.21394 0
M  V30 4372 C 422.168 0.574806 2.27449 0
M  V30 4373 C 423.184 -0.382206 1.6975 0
M  V30 4374 O 424.36 -0.246027 1.99892 0
M  V30 4375 C 421.425 -0.0917414 3.46579 0
M  V30 4376 C 420.486 0.909758 4.1955 0
M  V30 4377 C 419.719 0.274924 5.32991 0
M  V30 4378 O 419.942 -0.928254 5.62796 0
M  V30 4379 O 418.876 0.985877 5.93771 0
M  V30 4380 H 422.702 1.45744 2.66444 0
M  V30 4381 H 420.287 0.773923 1.27792 0
M  V30 4382 H 422.169 -0.464551 4.18832 0
M  V30 4383 H 420.844 -0.948755 3.09484 0
M  V30 4384 H 419.751 1.33372 3.49518 0
M  V30 4385 H 421.084 1.73636 4.60555 0
M  V30 4386 N 422.737 -1.36956 0.779787 0
M  V30 4387 C 423.7 -2.2851 0.177662 0
M  V30 4388 C 424.7 -1.48393 -0.619377 0
M  V30 4389 O 425.89 -1.68505 -0.441785 0
M  V30 4390 C 423.022 -3.32428 -0.755279 0
M  V30 4391 H 424.215 -2.83269 0.984823 0
M  V30 4392 H 421.768 -1.46358 0.548544 0
M  V30 4393 H 422.503 -2.82808 -1.58714 0
M  V30 4394 H 422.288 -3.91659 -0.185817 0
M  V30 4395 H 423.778 -4.00824 -1.17174 0
M  V30 4396 N 424.215 -0.530993 -1.48385 0
M  V30 4397 C 425.463 0.00273189 -2.021 0
M  V30 4398 C 425.784 1.34672 -1.41027 0
M  V30 4399 O 425.054 1.8724 -0.576012 0
M  V30 4400 H 423.634 0.00399774 -0.746989 0
M  V30 4401 H 426.296 -0.695054 -1.82085 0
M  V30 4402 H 425.392 0.11031 -3.11905 0
M  V30 4403 N 425.693 1.55336 -0.266172 0
M  V30 4404 C 426.918 2.04258 0.359661 0
M  V30 4405 C 427.343 1.14359 1.49344 0
M  V30 4406 O 426.701 0.140369 1.80756 0
M  V30 4407 C 426.749 3.50997 0.826635 0
M  V30 4408 O 425.853 3.64204 1.93466 0
M  V30 4409 H 425.194 0.659668 0.075727 0
M  V30 4410 H 427.724 2.00694 -0.39786 0
M  V30 4411 H 427.734 3.9219 1.12477 0
M  V30 4412 H 426.409 4.159 -0.00293032 0
M  V30 4413 H 424.986 3.34913 1.63974 0
M  V30 4414 N 427.171 -0.0066808 1.57599 0
M  V30 4415 C 428.134 -0.985035 2.06953 0
M  V30 4416 C 429.134 -1.27663 0.977687 0
M  V30 4417 O 430.324 -1.22293 1.24057 0
M  V30 4418 C 427.456 -2.3118 2.50536 0
M  V30 4419 H 428.649 -0.558255 2.94658 0
M  V30 4420 H 426.202 -0.254011 1.54222 0
M  V30 4421 H 426.937 -2.78561 1.66054 0
M  V30 4422 H 426.722 -2.11338 3.3027 0
M  V30 4423 H 428.212 -3.01377 2.8907 0
M  V30 4424 N 428.649 -1.55105 -0.279332 0
M  V30 4425 C 429.599 -1.83937 -1.34727 0
M  V30 4426 C 430.583 -0.69785 -1.44979 0
M  V30 4427 O 431.775 -0.95904 -1.48766 0
M  V30 4428 C 428.904 -2.1092 -2.70864 0
M  V30 4429 C 427.99 -3.31314 -2.64748 0
M  V30 4430 N 428.381 -4.51371 -2.2825 0
M  V30 4431 C 426.679 -3.33777 -2.95819 0
M  V30 4432 C 427.38 -5.33447 -2.31969 0
M  V30 4433 N 426.356 -4.71697 -2.7019 0
M  V30 4434 H 430.158 -2.74309 -1.05506 0
M  V30 4435 H 427.672 -1.54896 -0.487959 0
M  V30 4436 H 429.669 -2.2973 -3.47893 0
M  V30 4437 H 428.329 -1.21828 -3.00979 0
M  V30 4438 H 429.34 -4.77584 -2.00335 0
M  V30 4439 H 426.017 -2.54858 -3.30687 0
M  V30 4440 H 427.407 -6.39424 -2.06365 0
M  V30 4441 N 430.127 0.543554 -1.4793 0
M  V30 4442 C 431.057 1.65888 -1.64327 0
M  V30 4443 C 432.038 1.62818 -0.492383 0
M  V30 4444 O 433.223 1.80226 -0.723338 0
M  V30 4445 C 430.353 3.04506 -1.67013 0
M  V30 4446 C 429.307 3.2243 -2.81466 0
M  V30 4447 C 428.633 4.61972 -2.69233 0
M  V30 4448 C 429.933 3.06496 -4.22915 0
M  V30 4449 H 431.627 1.52421 -2.57698 0
M  V30 4450 H 429.173 0.731849 -1.24016 0
M  V30 4451 H 431.126 3.82391 -1.77074 0
M  V30 4452 H 429.85 3.18964 -0.70212 0
M  V30 4453 H 428.509 2.46957 -2.70938 0
M  V30 4454 H 428.157 4.73247 -1.7043 0
M  V30 4455 H 427.857 4.74911 -3.46025 0
M  V30 4456 H 429.381 5.41974 -2.81242 0
M  V30 4457 H 430.795 3.74186 -4.34348 0
M  V30 4458 H 429.192 3.30938 -5.006 0
M  V30 4459 H 430.262 2.03077 -4.40327 0
M  V30 4460 N 431.605 1.3629 0.791371 0
M  V30 4461 C 432.833 1.33562 1.58016 0
M  V30 4462 C 433.248 -0.0835616 1.88615 0
M  V30 4463 O 432.605 -1.0399 1.49974 0
M  V30 4464 C 432.656 2.15517 2.90232 0
M  V30 4465 O 432.377 3.51902 2.60953 0
M  V30 4466 C 433.878 2.20546 3.84544 0
M  V30 4467 H 431.098 0.458226 0.490173 0
M  V30 4468 H 433.642 1.79361 0.982345 0
M  V30 4469 H 431.797 1.73278 3.46487 0
M  V30 4470 H 432.211 3.94644 3.4548 0
M  V30 4471 H 433.685 2.82252 4.74382 0
M  V30 4472 H 434.162 1.20838 4.2225 0
M  V30 4473 H 434.768 2.63013 3.34222 0
M  V30 4474 N 433.083 -1.0153 1.20538 0
M  V30 4475 C 434.499 -1.27461 0.96051 0
M  V30 4476 C 434.699 -1.98273 -0.359193 0
M  V30 4477 O 433.755 -2.27886 -1.0874 0
M  V30 4478 C 435.068 -2.10837 2.14402 0
M  V30 4479 C 436.616 -2.24099 2.18515 0
M  V30 4480 C 437.091 -3.10852 3.36355 0
M  V30 4481 N 438.582 -3.18441 3.36377 0
M  V30 4482 C 439.317 -3.85795 4.24205 0
M  V30 4483 N 438.813 -4.55264 5.22213 0
M  V30 4484 N 440.606 -3.82331 4.12043 0
M  V30 4485 H 432.757 -0.539907 2.05423 0
M  V30 4486 H 435.02 -0.30092 0.898972 0
M  V30 4487 H 434.726 -1.66144 3.09983 0
M  V30 4488 H 434.6 -3.11576 2.12604 0
M  V30 4489 H 436.987 -2.68016 1.23497 0
M  V30 4490 H 437.068 -1.22865 2.24361 0
M  V30 4491 H 436.712 -2.6764 4.31661 0
M  V30 4492 H 436.642 -4.12177 3.27746 0
M  V30 4493 H 439.133 -2.68978 2.65442 0
M  V30 4494 H 439.446 -5.04331 5.85551 0
M  V30 4495 H 437.791 -4.54085 5.26148 0
M  V30 4496 H 440.982 -3.27207 3.34743 0
M  V30 4497 H 441.155 -4.34547 4.807 0
M  V30 4498 N 434.561 -1.01147 -1.20859 0
M  V30 4499 C 435.524 -0.582224 -2.21682 0
M  V30 4500 C 436.524 0.344887 -1.57058 0
M  V30 4501 O 437.714 0.134281 -1.73682 0
M  V30 4502 C 434.846 0.150496 -3.40568 0
M  V30 4503 H 436.039 -1.47408 -2.61172 0
M  V30 4504 H 433.592 -0.800695 -1.34233 0
M  V30 4505 H 434.327 1.0575 -3.06574 0
M  V30 4506 H 434.112 -0.515444 -3.88697 0
M  V30 4507 H 435.602 0.438344 -4.15293 0
M  V30 4508 N 436.039 1.36541 -0.78704 0
M  V30 4509 C 436.971 2.28761 -0.141773 0
M  V30 4510 C 437.984 1.49365 0.647599 0
M  V30 4511 O 439.173 1.71836 0.483173 0
M  V30 4512 C 436.273 3.28771 0.822368 0
M  V30 4513 C 435.446 4.3732 0.0835594 0
M  V30 4514 C 434.505 5.17307 0.963296 0
M  V30 4515 O 433.531 5.67638 0.421419 0
M  V30 4516 N 434.733 5.33515 2.28784 0
M  V30 4517 H 437.498 2.84777 -0.933919 0
M  V30 4518 H 435.059 1.48682 -0.640735 0
M  V30 4519 H 437.051 3.79169 1.41468 0
M  V30 4520 H 435.621 2.73412 1.5154 0
M  V30 4521 H 434.841 3.88118 -0.689809 0
M  V30 4522 H 436.129 5.0701 -0.426358 0
M  V30 4523 H 435.527 4.94234 2.75226 0
M  V30 4524 H 434.084 5.87165 2.82985 0
M  V30 4525 N 437.518 0.538854 1.48102 0
M  V30 4526 C 438.748 0.0122958 2.06596 0
M  V30 4527 C 439.156 -1.27861 1.39457 0
M  V30 4528 O 438.499 -1.77348 0.478907 0
M  V30 4529 C 438.561 -0.273131 3.58461 0
M  V30 4530 C 438.225 0.92561 4.47528 0
M  V30 4531 C 439.222 1.82637 4.86765 0
M  V30 4532 C 436.907 1.13511 4.89306 0
M  V30 4533 C 438.901 2.92047 5.66558 0
M  V30 4534 C 436.588 2.23233 5.68868 0
M  V30 4535 C 437.586 3.12333 6.07402 0
M  V30 4536 O 437.274 4.20155 6.85365 0
M  V30 4537 H 437.006 0.0344283 0.675123 0
M  V30 4538 H 439.56 0.746494 1.91355 0
M  V30 4539 H 437.79 -1.06141 3.71848 0
M  V30 4540 H 439.479 -0.742842 3.99045 0
M  V30 4541 H 440.245 1.67649 4.55103 0
M  V30 4542 H 436.124 0.450835 4.5879 0
M  V30 4543 H 439.668 3.6162 5.96554 0
M  V30 4544 H 435.565 2.38201 5.99942 0
M  V30 4545 H 436.333 4.17975 7.03732 0
M  V30 4546 N 438.996 -1.55193 0.274407 0
M  V30 4547 C 440.224 -2.03987 -0.345943 0
M  V30 4548 C 440.639 -1.15279 -1.4952 0
M  V30 4549 O 439.996 -0.172759 -1.8168 0
M  V30 4550 C 440.047 -3.51898 -0.827631 0
M  V30 4551 O 439.768 -4.37231 0.275855 0
M  V30 4552 C 441.269 -4.16577 -1.51587 0
M  V30 4553 H 438.489 -0.666335 -0.0789892 0
M  V30 4554 H 441.033 -2.00423 0.406294 0
M  V30 4555 H 439.188 -3.55909 -1.52996 0
M  V30 4556 H 439.602 -5.24415 -0.0943638 0
M  V30 4557 H 441.076 -5.21678 -1.80433 0
M  V30 4558 H 441.553 -3.64707 -2.44716 0
M  V30 4559 H 442.159 -4.16568 -0.857409 0
M  V30 4560 N 440.474 -0.00167713 -1.576 0
M  V30 4561 C 441.702 0.693759 -1.94922 0
M  V30 4562 C 442.117 1.67215 -0.876626 0
M  V30 4563 O 441.474 1.81929 0.144279 0
M  V30 4564 C 441.525 1.42416 -3.32265 0
M  V30 4565 O 441.246 0.485014 -4.35407 0
M  V30 4566 C 442.747 2.21395 -3.84056 0
M  V30 4567 H 439.967 0.193118 -0.642609 0
M  V30 4568 H 442.511 -0.0532952 -2.04431 0
M  V30 4569 H 440.666 2.12284 -3.24059 0
M  V30 4570 H 441.08 1.00053 -5.14868 0
M  V30 4571 H 442.554 2.67996 -4.82578 0
M  V30 4572 H 443.031 3.04142 -3.16851 0
M  V30 4573 H 443.637 1.56542 -3.95443 0
M  V30 4574 N 441.952 1.55251 0.271103 0
M  V30 4575 C 442.862 1.9136 1.35714 0
M  V30 4576 C 443.878 0.811075 1.5394 0
M  V30 4577 O 445.054 1.11031 1.6803 0
M  V30 4578 C 442.119 2.1798 2.69603 0
M  V30 4579 C 441.18 3.4153 2.60107 0
M  V30 4580 C 440.413 3.66871 3.8761 0
M  V30 4581 O 440.636 2.94689 4.8838 0
M  V30 4582 O 439.57 4.60405 3.87699 0
M  V30 4583 H 443.396 2.83815 1.08088 0
M  V30 4584 H 440.981 1.41821 0.469792 0
M  V30 4585 H 442.863 2.36518 3.48765 0
M  V30 4586 H 441.538 1.28708 2.97012 0
M  V30 4587 H 440.445 3.28325 1.79314 0
M  V30 4588 H 441.778 4.31027 2.37647 0
M  V30 4589 N 443.43 -0.535701 1.48216 0
M  V30 4590 C 444.841 -1.11769 1.49548 0
M  V30 4591 C 445.192 -1.94442 0.26207 0
M  V30 4592 O 444.317 -2.06987 -0.631287 0
M  V30 4593 C 444.912 -2.03367 2.70975 0
M  V30 4594 C 443.471 -2.56795 2.75196 0
M  V30 4595 C 442.618 -1.33631 2.42977 0
M  V30 4596 H 445.569 -0.321232 1.55415 0
M  V30 4597 H 445.59 -2.87569 2.49167 0
M  V30 4598 H 445.102 -1.43169 3.60727 0
M  V30 4599 H 443.203 -3.20731 1.89638 0
M  V30 4600 H 443.316 -2.9632 3.76472 0
M  V30 4601 H 441.68 -1.6502 1.94012 0
M  V30 4602 H 442.463 -0.75194 3.34964 0
M  V30 4603 N 444.908 -1.36708 -0.784132 0
M  V30 4604 C 446.156 -1.30972 -1.53918 0
M  V30 4605 C 446.477 0.109086 -1.94695 0
M  V30 4606 O 445.747 1.05048 -1.65353 0
M  V30 4607 H 444.327 -0.481819 -0.570841 0
M  V30 4608 H 446.989 -1.71063 -0.934002 0
M  V30 4609 H 446.085 -1.94061 -2.44431 0
M  V30 4610 N 446.386 1.0089 -1.21074 0
M  V30 4611 C 447.336 2.0799 -0.934034 0
M  V30 4612 C 448.32 1.60529 0.10919 0
M  V30 4613 O 449.512 1.76722 -0.0992198 0
M  V30 4614 C 446.641 3.39693 -0.496334 0
M  V30 4615 C 445.727 3.93833 -1.57341 0
M  V30 4616 N 446.118 4.21388 -2.7976 0
M  V30 4617 C 444.416 4.22067 -1.44137 0
M  V30 4618 C 445.117 4.65156 -3.49292 0
M  V30 4619 N 444.093 4.67895 -2.76722 0
M  V30 4620 H 447.895 2.27213 -1.86417 0
M  V30 4621 H 445.409 1.18927 -1.10589 0
M  V30 4622 H 447.406 4.15962 -0.279471 0
M  V30 4623 H 446.066 3.21879 0.427084 0
M  V30 4624 H 447.077 4.10061 -3.1634 0
M  V30 4625 H 443.754 4.1341 -0.582947 0
M  V30 4626 H 445.144 4.95231 -4.54088 0
M  V30 4627 N 447.864 1.01787 1.20321 0
M  V30 4628 C 449.092 0.727194 1.937 0
M  V30 4629 C 449.507 -0.712305 1.74848 0
M  V30 4630 O 448.864 -1.48327 1.06327 0
M  V30 4631 C 448.915 1.05497 3.45764 0
M  V30 4632 O 448.636 2.43794 3.64 0
M  V30 4633 C 450.137 0.785534 4.36285 0
M  V30 4634 H 447.357 0.266939 0.615617 0
M  V30 4635 H 449.901 1.35939 1.52777 0
M  V30 4636 H 448.056 0.468158 3.84561 0
M  V30 4637 H 448.47 2.55656 4.57974 0
M  V30 4638 H 449.944 1.06495 5.4163 0
M  V30 4639 H 450.421 -0.280273 4.38305 0
M  V30 4640 H 451.027 1.35456 4.03152 0
M  V30 4641 N 449.342 -1.36122 0.79427 0
M  V30 4642 C 450.753 -1.81646 0.431446 0
M  V30 4643 C 451.104 -1.66043 -1.04518 0
M  V30 4644 O 450.229 -1.1841 -1.8113 0
M  V30 4645 C 450.824 -3.29785 0.776341 0
M  V30 4646 C 449.383 -3.73501 0.466282 0
M  V30 4647 C 448.53 -2.58313 1.00844 0
M  V30 4648 H 451.481 -1.24274 0.986995 0
M  V30 4649 H 451.502 -3.80437 0.0692413 0
M  V30 4650 H 451.014 -3.4111 1.8511 0
M  V30 4651 H 449.115 -3.67733 -0.600245 0
M  V30 4652 H 449.228 -4.68754 0.990288 0
M  V30 4653 H 447.592 -2.5102 0.431406 0
M  V30 4654 H 448.375 -2.72421 2.08906 0
M  V30 4655 N 450.82 -0.546701 -1.47814 0
M  V30 4656 C 452.097 0.0464413 -1.95545 0
M  V30 4657 C 452.477 1.4962 -1.48919 0
M  V30 4658 O 451.825 2.16752 -0.723232 0
M  V30 4659 C 452.035 -0.0881298 -3.48889 0
M  V30 4660 C 453.383 0.0626059 -4.24554 0
M  V30 4661 O 454.407 -0.0151555 -3.56197 0
M  V30 4662 O 453.266 0.228071 -5.46024 0
M  V30 4663 H 450.36 0.0700004 -0.824032 0
M  V30 4664 H 452.906 -0.612482 -1.58262 0
M  V30 4665 H 451.678 -1.09737 -3.75597 0
M  V30 4666 H 451.301 0.608886 -3.9291 0
M  V30 4667 N 452.299 1.55045 -0.282633 0
M  V30 4668 C 453.524 2.04628 0.337977 0
M  V30 4669 C 453.949 1.15937 1.48123 0
M  V30 4670 O 453.307 0.159532 1.80597 0
M  V30 4671 C 453.355 3.51854 0.78936 0
M  V30 4672 O 452.459 3.66236 1.89592 0
M  V30 4673 H 451.8 0.660434 0.0687261 0
M  V30 4674 H 454.33 2.00261 -0.419124 0
M  V30 4675 H 454.34 3.93361 1.08311 0
M  V30 4676 H 453.015 4.15873 -0.0470419 0
M  V30 4677 H 451.592 3.36633 1.60413 0
M  V30 4678 N 453.777 0.010035 1.57597 0
M  V30 4679 C 455.023 -0.673697 1.91283 0
M  V30 4680 C 455.356 -1.72863 0.884979 0
M  V30 4681 O 454.631 -1.94268 -0.0949487 0
M  V30 4682 C 454.914 -1.30766 3.35518 0
M  V30 4683 C 454.767 -0.263578 4.49027 0
M  V30 4684 C 456.086 -2.23105 3.79358 0
M  V30 4685 H 453.205 -0.243439 0.695634 0
M  V30 4686 H 455.847 0.0633864 1.89894 0
M  V30 4687 H 453.997 -1.93588 3.36832 0
M  V30 4688 H 455.669 0.365738 4.59848 0
M  V30 4689 H 453.912 0.413077 4.31829 0
M  V30 4690 H 454.583 -0.746398 5.4693 0
M  V30 4691 H 457.059 -1.70289 3.79659 0
M  V30 4692 H 455.935 -2.64424 4.81011 0
M  V30 4693 H 456.196 -3.11433 3.13787 0
M  V30 4694 N 455.255 -1.55392 -0.262866 0
M  V30 4695 C 456.504 -1.75679 -0.990943 0
M  V30 4696 C 456.817 -0.57097 -1.87081 0
M  V30 4697 O 458.023 -0.656486 -2.63444 0
M  V30 4698 C 456.479 -3.10964 -1.81188 0
M  V30 4699 C 456.087 -4.37146 -0.980188 0
M  V30 4700 C 457.831 -3.40597 -2.53365 0
M  V30 4701 C 455.738 -5.63466 -1.7961 0
M  V30 4702 H 454.668 -0.654868 -0.373716 0
M  V30 4703 H 457.319 -1.81841 -0.246203 0
M  V30 4704 H 455.701 -2.98867 -2.59797 0
M  V30 4705 H 456.875 -4.60187 -0.237558 0
M  V30 4706 H 455.19 -4.14731 -0.372497 0
M  V30 4707 H 457.787 -4.32186 -3.14833 0
M  V30 4708 H 458.13 -2.6119 -3.24169 0
M  V30 4709 H 458.663 -3.53838 -1.81779 0
M  V30 4710 H 455.402 -6.4565 -1.13209 0
M  V30 4711 H 454.922 -5.44552 -2.51443 0
M  V30 4712 H 456.601 -6.02139 -2.36723 0
M  V30 4713 N 456.733 0.527833 -1.48498 0
M  V30 4714 C 457.68 1.6322 -1.6318 0
M  V30 4715 C 458.65 1.59199 -0.473815 0
M  V30 4716 O 459.835 1.77591 -0.697563 0
M  V30 4717 C 456.975 3.01474 -1.67951 0
M  V30 4718 C 456.088 3.15713 -2.94871 0
M  V30 4719 C 455.223 4.44539 -2.90789 0
M  V30 4720 C 454.262 4.52315 -4.12404 0
M  V30 4721 N 453.399 5.72533 -4.06387 0
M  V30 4722 H 458.239 1.50011 -2.57489 0
M  V30 4723 H 455.776 0.730298 -1.27691 0
M  V30 4724 H 457.734 3.81572 -1.68698 0
M  V30 4725 H 456.364 3.1345 -0.771306 0
M  V30 4726 H 455.416 2.28854 -3.03859 0
M  V30 4727 H 456.728 3.1732 -3.8485 0
M  V30 4728 H 455.882 5.3293 -2.89949 0
M  V30 4729 H 454.621 4.45457 -1.98542 0
M  V30 4730 H 453.626 3.62331 -4.13517 0
M  V30 4731 H 454.851 4.53134 -5.05812 0
M  V30 4732 H 452.797 5.74344 -3.16962 0
M  V30 4733 H 452.714 5.75643 -4.90073 0
M  V30 4734 H 453.982 6.63204 -4.0961 0
M  V30 4735 N 458.211 1.37122 0.776871 0
M  V30 4736 C 459.143 1.28342 1.89897 0
M  V30 4737 C 460.156 0.200277 1.61563 0
M  V30 4738 O 461.345 0.456012 1.72577 0
M  V30 4739 C 458.445 0.960427 3.25006 0
M  V30 4740 C 457.618 2.148 3.81025 0
M  V30 4741 C 456.677 1.79608 4.94598 0
M  V30 4742 O 455.703 2.51845 5.10454 0
M  V30 4743 N 456.905 0.737171 5.758 0
M  V30 4744 H 459.67 2.25027 1.97947 0
M  V30 4745 H 457.231 1.3068 0.955739 0
M  V30 4746 H 459.223 0.705942 3.98495 0
M  V30 4747 H 457.793 0.0823066 3.12492 0
M  V30 4748 H 457.013 2.56454 2.99374 0
M  V30 4749 H 458.301 2.9411 4.15183 0
M  V30 4750 H 457.699 0.137637 5.65533 0
M  V30 4751 H 456.256 0.542534 6.49538 0
M  V30 4752 N 459.689 -1.00246 1.21608 0
M  V30 4753 C 460.622 -2.08794 0.920892 0
M  V30 4754 C 461.6 -1.62059 -0.132552 0
M  V30 4755 O 462.784 -1.885 -0.0030366 0
M  V30 4756 C 459.911 -3.36525 0.383226 0
M  V30 4757 C 458.957 -4.02172 1.41987 0
M  V30 4758 S 459.79 -4.44256 2.98994 0
M  V30 4759 C 460.946 -5.7517 2.4684 0
M  V30 4760 H 461.179 -2.33511 1.8401 0
M  V30 4761 H 458.712 -1.13562 1.04609 0
M  V30 4762 H 460.67 -4.10423 0.0795871 0
M  V30 4763 H 459.331 -3.09854 -0.514711 0
M  V30 4764 H 458.524 -4.94114 0.993335 0
M  V30 4765 H 458.126 -3.34559 1.67171 0
M  V30 4766 H 460.418 -6.51042 1.87484 0
M  V30 4767 H 461.361 -6.22638 3.37235 0
M  V30 4768 H 461.769 -5.32112 1.88461 0
M  V30 4769 N 461.167 -1.02423 -1.1978 0
M  V30 4770 C 462.099 -0.559152 -2.22275 0
M  V30 4771 C 463.112 0.36251 -1.58713 0
M  V30 4772 O 464.301 0.159641 -1.77785 0
M  V30 4773 C 461.401 0.205094 -3.38279 0
M  V30 4774 C 460.574 -0.720361 -4.31427 0
M  V30 4775 C 459.633 -0.00234368 -5.262 0
M  V30 4776 O 458.659 -0.627378 -5.65732 0
M  V30 4777 N 459.861 1.26996 -5.66438 0
M  V30 4778 H 462.626 -1.44064 -2.62804 0
M  V30 4779 H 460.187 -0.902692 -1.34399 0
M  V30 4780 H 462.179 0.694868 -3.9869 0
M  V30 4781 H 460.749 0.987947 -2.96578 0
M  V30 4782 H 459.969 -1.39031 -3.68869 0
M  V30 4783 H 461.257 -1.3495 -4.90577 0
M  V30 4784 H 460.655 1.79858 -5.36347 0
M  V30 4785 H 459.212 1.70432 -6.29123 0
M  V30 4786 N 462.645 1.35699 -0.801477 0
M  V30 4787 C 463.592 2.29876 -0.206294 0
M  V30 4788 C 464.562 1.52565 0.656752 0
M  V30 4789 O 465.747 1.81024 0.602906 0
M  V30 4790 C 462.887 3.39052 0.643272 0
M  V30 4791 C 462 4.31335 -0.239644 0
M  V30 4792 C 461.135 5.27599 0.61744 0
M  V30 4793 C 460.174 6.11521 -0.26619 0
M  V30 4794 N 459.311 6.99938 0.550571 0
M  V30 4795 H 464.151 2.80187 -1.01484 0
M  V30 4796 H 461.688 1.37902 -0.511997 0
M  V30 4797 H 463.646 4.0101 1.15094 0
M  V30 4798 H 462.276 2.9003 1.41713 0
M  V30 4799 H 461.328 3.70426 -0.865381 0
M  V30 4800 H 462.64 4.90243 -0.919985 0
M  V30 4801 H 461.794 5.94906 1.19045 0
M  V30 4802 H 460.533 4.69176 1.33137 0
M  V30 4803 H 459.538 5.43166 -0.851507 0
M  V30 4804 H 460.763 6.72022 -0.9779 0
M  V30 4805 H 458.709 6.44008 1.24856 0
M  V30 4806 H 458.626 7.55966 -0.071832 0
M  V30 4807 H 459.894 7.71599 1.10702 0
M  V30 4808 N 464.123 0.554532 1.47522 0
M  V30 4809 C 465.4 -0.0360704 1.95567 0
M  V30 4810 C 465.78 -1.48828 1.49711 0
M  V30 4811 O 465.128 -2.16366 0.734717 0
M  V30 4812 C 465.338 0.106631 3.48837 0
M  V30 4813 C 466.686 -0.0400899 4.24581 0
M  V30 4814 O 467.71 0.0340453 3.56184 0
M  V30 4815 O 466.569 -0.199111 5.46137 0
M  V30 4816 H 463.663 -0.0656294 0.824392 0
M  V30 4817 H 466.209 0.620867 1.57935 0
M  V30 4818 H 464.981 1.11727 3.7501 0
M  V30 4819 H 464.604 -0.58804 3.93227 0
M  V30 4820 N 465.601 -1.54893 0.290851 0
M  V30 4821 C 466.829 -2.04343 -0.324288 0
M  V30 4822 C 467.244 -1.16859 -1.48289 0
M  V30 4823 O 466.601 -0.192018 -1.81487 0
M  V30 4824 C 466.652 -3.52756 -0.79026 0
M  V30 4825 O 466.373 -4.36913 0.322213 0
M  V30 4826 C 467.874 -4.18161 -1.4716 0
M  V30 4827 H 465.094 -0.667135 -0.0719173 0
M  V30 4828 H 467.638 -1.99981 0.427529 0
M  V30 4829 H 465.793 -3.57511 -1.49213 0
M  V30 4830 H 466.207 -5.24486 -0.0387372 0
M  V30 4831 H 467.681 -5.23562 -1.7489 0
M  V30 4832 H 468.158 -3.67282 -2.40834 0
M  V30 4833 H 468.764 -4.17454 -0.813178 0
M  V30 4834 N 467.08 -0.0183926 -1.57589 0
M  V30 4835 C 468.328 0.661253 -1.90976 0
M  V30 4836 C 468.649 1.73281 -0.894353 0
M  V30 4837 O 467.919 1.9579 0.0656788 0
M  V30 4838 H 466.499 0.247233 -0.704901 0
M  V30 4839 H 469.161 -0.0636639 -1.94796 0
M  V30 4840 H 468.257 1.12083 -2.9128 0
M  V30 4841 N 468.558 1.5553 0.254621 0
M  V30 4842 C 469.491 1.84624 1.34124 0
M  V30 4843 C 470.469 0.700693 1.46728 0
M  V30 4844 O 471.653 0.94564 1.63064 0
M  V30 4845 C 468.78 2.02412 2.71564 0
M  V30 4846 C 467.826 3.25028 2.7615 0
M  V30 4847 S 468.659 4.81893 2.33538 0
M  V30 4848 C 469.815 5.02677 3.72917 0
M  V30 4849 H 470.048 2.76501 1.09245 0
M  V30 4850 H 467.581 1.47537 0.455211 0
M  V30 4851 H 469.539 2.13345 3.50705 0
M  V30 4852 H 468.2 1.11391 2.93685 0
M  V30 4853 H 467.393 3.34418 3.77069 0
M  V30 4854 H 466.995 3.12781 2.05046 0
M  V30 4855 H 469.287 4.89546 4.68349 0
M  V30 4856 H 470.23 6.0468 3.68467 0
M  V30 4857 H 470.638 4.30561 3.65072 0
M  V30 4858 N 470.036 -0.519951 1.48776 0
M  V30 4859 C 471.284 -1.2727 1.56993 0
M  V30 4860 C 471.605 -1.9339 0.25004 0
M  V30 4861 O 470.875 -1.81822 -0.729216 0
M  V30 4862 H 469.455 -0.472732 0.578389 0
M  V30 4863 H 472.117 -0.604234 1.85297 0
M  V30 4864 H 471.213 -2.04669 2.3562 0
M  V30 4865 N 471.514 -1.37532 -0.769588 0
M  V30 4866 C 472.477 -1.33292 -1.86456 0
M  V30 4867 C 473.477 -0.236537 -1.59051 0
M  V30 4868 O 474.667 -0.492511 -1.67093 0
M  V30 4869 C 471.799 -1.07118 -3.23633 0
M  V30 4870 H 472.992 -2.30692 -1.91628 0
M  V30 4871 H 470.545 -1.22593 -0.969572 0
M  V30 4872 H 471.28 -0.102578 -3.24138 0
M  V30 4873 H 471.065 -1.86479 -3.44917 0
M  V30 4874 H 472.555 -1.06806 -4.03711 0
M  V30 4875 N 472.992 0.995999 -1.22138 0
M  V30 4876 C 474.238 1.7386 -1.05567 0
M  V30 4877 C 474.593 1.8808 0.405418 0
M  V30 4878 O 473.886 1.41062 1.29661 0
M  V30 4879 C 474.08 3.14553 -1.6968 0
M  V30 4880 C 473.909 3.14053 -3.21871 0
M  V30 4881 C 472.679 3.20121 -3.90961 0
M  V30 4882 C 474.877 2.98451 -4.18845 0
M  V30 4883 N 472.859 3.09342 -5.30265 0
M  V30 4884 C 474.23 2.95667 -5.4496 0
M  V30 4885 C 476.285 2.8282 -4.09777 0
M  V30 4886 C 474.988 2.78852 -6.63049 0
M  V30 4887 C 477.014 2.67364 -5.27513 0
M  V30 4888 C 476.376 2.65264 -6.52544 0
M  V30 4889 H 472.475 0.645989 -0.440706 0
M  V30 4890 H 475.059 1.1831 -1.54631 0
M  V30 4891 H 473.23 3.68353 -1.2317 0
M  V30 4892 H 474.962 3.77358 -1.4623 0
M  V30 4893 H 471.717 3.27679 -3.4194 0
M  V30 4894 H 472.141 3.0727 -6.03253 0
M  V30 4895 H 476.783 2.83243 -3.139 0
M  V30 4896 H 474.501 2.77175 -7.59078 0
M  V30 4897 H 478.087 2.56256 -5.22326 0
M  V30 4898 H 476.967 2.5345 -7.42114 0
M  V30 4899 N 474.47 1.03057 1.19235 0
M  V30 4900 C 475.418 0.606391 2.24557 0
M  V30 4901 C 476.412 -0.361826 1.65491 0
M  V30 4902 O 477.618 -0.23022 1.78522 0
M  V30 4903 H 473.993 0.177838 0.730669 0
M  V30 4904 H 475.964 1.50529 2.5765 0
M  V30 4905 C 474.713 -0.0252127 3.47691 0
M  V30 4906 H 474.036 0.710838 3.9343 0
M  V30 4907 H 475.476 -0.284931 4.23042 0
M  V30 4908 C 473.935 -1.27229 3.11953 0
M  V30 4909 O 474.465 -2.36416 3.24762 0
M  V30 4910 N 472.671 -1.16169 2.6637 0
M  V30 4911 H 472.218 -0.273189 2.56147 0
M  V30 4912 H 472.176 -1.99703 2.42829 0
M  V30 4913 N 475.948 -1.35272 0.808662 0
M  V30 4914 C 476.878 -2.32315 0.234981 0
M  V30 4915 C 477.859 -1.57572 -0.64071 0
M  V30 4916 O 479.044 -1.8563 -0.570551 0
M  V30 4917 C 476.174 -3.41801 -0.615601 0
M  V30 4918 C 475.128 -4.27694 0.161767 0
M  V30 4919 C 474.454 -5.28519 -0.810649 0
M  V30 4920 C 475.754 -5.04231 1.36193 0
M  V30 4921 H 477.448 -2.80543 1.04575 0
M  V30 4922 H 474.994 -1.3488 0.504315 0
M  V30 4923 H 476.947 -4.08693 -1.02702 0
M  V30 4924 H 475.671 -2.92186 -1.45928 0
M  V30 4925 H 474.33 -3.62384 0.554382 0
M  V30 4926 H 473.978 -4.75171 -1.64988 0
M  V30 4927 H 473.678 -5.8686 -0.294822 0
M  V30 4928 H 475.202 -5.98283 -1.22023 0
M  V30 4929 H 476.616 -5.64058 1.02528 0
M  V30 4930 H 475.013 -5.72077 1.81239 0
M  V30 4931 H 476.083 -4.34753 2.14751 0
M  V30 4932 N 477.426 -0.562348 -1.47226 0
M  V30 4933 C 478.656 -0.0451619 -2.06551 0
M  V30 4934 C 479.064 1.25626 -1.41473 0
M  V30 4935 O 478.407 1.76563 -0.507061 0
M  V30 4936 C 478.469 0.216068 -3.5885 0
M  V30 4937 C 478.133 -0.996691 -4.45999 0
M  V30 4938 C 479.13 -1.90358 -4.83797 0
M  V30 4939 C 476.815 -1.21281 -4.87438 0
M  V30 4940 C 478.809 -3.01023 -5.6184 0
M  V30 4941 C 476.496 -2.32255 -5.65244 0
M  V30 4942 C 477.494 -3.21956 -6.02356 0
M  V30 4943 O 477.182 -4.31005 -6.78594 0
M  V30 4944 H 476.914 -0.0451646 -0.67449 0
M  V30 4945 H 479.468 -0.776842 -1.90143 0
M  V30 4946 H 477.698 1.00212 -3.7349 0
M  V30 4947 H 479.387 0.679264 -4.00176 0
M  V30 4948 H 480.153 -1.74868 -4.52378 0
M  V30 4949 H 476.032 -0.523767 -4.58015 0
M  V30 4950 H 479.576 -3.71064 -5.90726 0
M  V30 4951 H 475.473 -2.47715 -5.96077 0
M  V30 4952 H 476.241 -4.29118 -6.96994 0
M  V30 4953 N 478.904 1.54736 -0.299062 0
M  V30 4954 C 479.867 2.22127 0.565012 0
M  V30 4955 C 480.867 1.20669 1.06281 0
M  V30 4956 O 482.057 1.45417 0.959145 0
M  V30 4957 C 479.189 2.90611 1.78208 0
M  V30 4958 H 480.382 2.99891 -0.0237448 0
M  V30 4959 H 477.935 1.5622 -0.0498788 0
M  V30 4960 H 478.67 2.16921 2.41072 0
M  V30 4961 H 478.455 3.64984 1.43281 0
M  V30 4962 H 479.945 3.42026 2.396 0
M  V30 4963 N 480.382 0.0267497 1.57577 0
M  V30 4964 C 481.345 -0.940916 2.08996 0
M  V30 4965 C 482.345 -1.25561 1.00455 0
M  V30 4966 O 483.535 -1.19634 1.26623 0
M  V30 4967 C 480.667 -2.25814 2.55384 0
M  V30 4968 H 481.86 -0.495628 2.95776 0
M  V30 4969 H 479.413 -0.221241 1.54726 0
M  V30 4970 H 480.148 -2.74976 1.71926 0
M  V30 4971 H 479.933 -2.04285 3.34679 0
M  V30 4972 H 481.423 -2.95178 2.95398 0
M  V30 4973 N 481.861 -1.55662 -0.24637 0
M  V30 4974 C 482.791 -1.93377 -1.30873 0
M  V30 4975 C 483.772 -0.798773 -1.50179 0
M  V30 4976 O 484.957 -1.0591 -1.62778 0
M  V30 4977 C 482.087 -2.22893 -2.66338 0
M  V30 4978 C 481.041 -3.38649 -2.61727 0
M  V30 4979 C 480.367 -3.53708 -4.00992 0
M  V30 4980 C 481.667 -4.74323 -2.18666 0
M  V30 4981 H 483.361 -2.82363 -0.995552 0
M  V30 4982 H 480.907 -1.35854 -0.477464 0
M  V30 4983 H 482.86 -2.47866 -3.40794 0
M  V30 4984 H 481.584 -1.30733 -2.99293 0
M  V30 4985 H 480.243 -3.13685 -1.89729 0
M  V30 4986 H 479.891 -2.58967 -4.31214 0
M  V30 4987 H 479.591 -4.31551 -3.98795 0
M  V30 4988 H 481.115 -3.81003 -4.77147 0
M  V30 4989 H 482.529 -4.98665 -2.82854 0
M  V30 4990 H 480.926 -5.55273 -2.27579 0
M  V30 4991 H 481.996 -4.71349 -1.13834 0
M  V30 4992 N 483.339 0.512053 -1.4905 0
M  V30 4993 C 484.569 1.28928 -1.61434 0
M  V30 4994 C 484.977 1.87107 -0.280647 0
M  V30 4995 O 484.32 1.68024 0.742537 0
M  V30 4996 C 484.382 2.466 -2.61588 0
M  V30 4997 C 484.046 2.09375 -4.06216 0
M  V30 4998 C 485.043 1.63994 -4.93358 0
M  V30 4999 C 482.728 2.19348 -4.51876 0
M  V30 5000 C 484.722 1.29076 -6.24194 0
M  V30 5001 C 482.409 1.84041 -5.82728 0
M  V30 5002 C 483.407 1.38978 -6.68711 0
M  V30 5003 O 483.095 1.04144 -7.97126 0
M  V30 5004 H 482.827 0.397668 -0.546659 0
M  V30 5005 H 485.381 0.622507 -1.9574 0
M  V30 5006 H 483.611 3.16318 -2.22441 0
M  V30 5007 H 485.3 3.08642 -2.63619 0
M  V30 5008 H 486.066 1.55744 -4.59313 0
M  V30 5009 H 481.945 2.53376 -3.85125 0
M  V30 5010 H 485.489 0.938303 -6.91261 0
M  V30 5011 H 481.386 1.91938 -6.16304 0
M  V30 5012 H 482.154 1.17387 -8.10039 0
M  V30 5013 N 484.817 1.37938 0.762283 0
M  V30 5014 C 486.065 1.33404 1.51815 0
M  V30 5015 C 486.386 -0.0780975 1.94844 0
M  V30 5016 O 485.656 -1.02405 1.67003 0
M  V30 5017 H 484.236 0.490839 0.563104 0
M  V30 5018 H 486.898 1.72527 0.906669 0
M  V30 5019 H 485.994 1.97926 2.41313 0
M  V30 5020 N 486.295 -0.989507 1.22664 0
M  V30 5021 C 487.523 -1.76496 1.07967 0
M  V30 5022 C 487.938 -1.85148 -0.369543 0
M  V30 5023 O 487.295 -1.32408 -1.25596 0
M  V30 5024 C 487.346 -3.19642 1.68853 0
M  V30 5025 O 487.067 -3.11453 3.08105 0
M  V30 5026 C 488.568 -4.13621 1.59475 0
M  V30 5027 H 485.788 -0.55418 0.378319 0
M  V30 5028 H 488.332 -1.24378 1.62328 0
M  V30 5029 H 486.487 -3.68816 1.18547 0
M  V30 5030 H 486.901 -4.01499 3.37489 0
M  V30 5031 H 488.375 -5.11801 2.06795 0
M  V30 5032 H 488.852 -4.35718 0.55191 0
M  V30 5033 H 489.458 -3.70346 2.09103 0
M  V30 5034 N 487.773 -1.03688 -1.18687 0
M  V30 5035 C 488.705 -0.582696 -2.21669 0
M  V30 5036 C 489.718 0.345656 -1.59088 0
M  V30 5037 O 490.907 0.140776 -1.77944 0
M  V30 5038 C 488.007 0.169204 -3.38477 0
M  V30 5039 C 487.18 -0.766079 -4.30639 0
M  V30 5040 C 486.239 -0.0581541 -5.26168 0
M  V30 5041 O 485.265 -0.687346 -5.65035 0
M  V30 5042 N 486.467 1.20981 -5.67753 0
M  V30 5043 H 489.232 -1.46843 -2.61261 0
M  V30 5044 H 486.793 -0.916896 -1.33434 0
M  V30 5045 H 488.785 0.652543 -3.99405 0
M  V30 5046 H 487.355 0.956435 -2.97609 0
M  V30 5047 H 486.575 -1.42935 -3.67373 0
M  V30 5048 H 487.863 -1.40146 -4.89118 0
M  V30 5049 H 487.261 1.74159 -5.38224 0
M  V30 5050 H 485.818 1.6375 -6.30896 0
M  V30 5051 N 489.251 1.34841 -0.815825 0
M  V30 5052 C 490.161 2.33425 -0.234462 0
M  V30 5053 C 491.177 1.62295 0.627413 0
M  V30 5054 O 492.353 1.94109 0.536987 0
M  V30 5055 C 489.418 3.41471 0.599849 0
M  V30 5056 C 488.479 4.28362 -0.283596 0
M  V30 5057 C 487.712 5.31248 0.51099 0
M  V30 5058 O 487.935 5.43056 1.7449 0
M  V30 5059 O 486.869 6.01812 -0.10297 0
M  V30 5060 H 490.695 2.84962 -1.05024 0
M  V30 5061 H 488.28 1.37774 -0.577809 0
M  V30 5062 H 490.162 4.07464 1.07475 0
M  V30 5063 H 488.837 2.9219 1.39308 0
M  V30 5064 H 487.744 3.65318 -0.805836 0
M  V30 5065 H 489.077 4.81066 -1.041 0
M  V30 5066 N 490.729 0.570148 1.46925 0
M  V30 5067 C 491.661 -0.207909 2.28255 0
M  V30 5068 C 492.674 -0.867301 1.37774 0
M  V30 5069 O 493.863 -0.738976 1.62485 0
M  V30 5070 C 490.963 -1.31298 3.12433 0
M  V30 5071 C 490.136 -0.747915 4.30958 0
M  V30 5072 C 489.195 -1.7391 4.9663 0
M  V30 5073 O 488.221 -1.2801 5.54619 0
M  V30 5074 N 489.423 -3.07288 4.92498 0
M  V30 5075 H 492.188 0.489794 2.95671 0
M  V30 5076 H 489.749 0.407076 1.56699 0
M  V30 5077 H 491.741 -1.97507 3.53232 0
M  V30 5078 H 490.311 -1.91373 2.47175 0
M  V30 5079 H 489.531 0.0913066 3.94094 0
M  V30 5080 H 490.819 -0.349958 5.07595 0
M  V30 5081 H 490.217 -3.47213 4.46609 0
M  V30 5082 H 488.774 -3.69021 5.37277 0
M  V30 5083 N 492.207 -1.54576 0.307264 0
M  V30 5084 C 493.453 -2.0056 -0.300612 0
M  V30 5085 C 493.786 -1.1953 -1.53057 0
M  V30 5086 O 493.061 -0.27337 -1.92569 0
M  V30 5087 C 493.344 -3.54167 -0.650987 0
M  V30 5088 C 493.197 -4.45933 0.588539 0
M  V30 5089 C 494.516 -4.14645 -1.47506 0
M  V30 5090 H 491.635 -0.729075 -0.107788 0
M  V30 5091 H 494.277 -1.85286 0.420606 0
M  V30 5092 H 492.427 -3.67313 -1.26544 0
M  V30 5093 H 494.099 -4.44683 1.22697 0
M  V30 5094 H 492.342 -4.16274 1.22058 0
M  V30 5095 H 493.013 -5.51189 0.299153 0
M  V30 5096 H 495.489 -4.04973 -0.955821 0
M  V30 5097 H 494.365 -5.22269 -1.68899 0
M  V30 5098 H 494.626 -3.66921 -2.4662 0
M  V30 5099 N 493.685 -0.035106 -1.57561 0
M  V30 5100 C 494.962 0.681212 -1.83354 0
M  V30 5101 C 495.342 1.89986 -0.920252 0
M  V30 5102 O 494.69 2.28489 0.0226815 0
M  V30 5103 C 494.9 1.05376 -3.32712 0
M  V30 5104 C 496.248 1.44286 -3.99333 0
M  V30 5105 O 497.272 1.14656 -3.37242 0
M  V30 5106 O 496.131 1.99518 -5.08778 0
M  V30 5107 H 493.225 0.334741 -0.756226 0
M  V30 5108 H 495.771 -0.0632448 -1.69582 0
M  V30 5109 H 494.543 0.186668 -3.90854 0
M  V30 5110 H 494.166 1.85619 -3.51613 0
M  V30 5111 N 495.163 1.55791 0.238111 0
M  V30 5112 C 496.409 1.78297 0.966337 0
M  V30 5113 C 496.742 0.601903 1.84637 0
M  V30 5114 O 496.017 -0.399499 1.90353 0
M  V30 5115 C 496.3 3.10758 1.81939 0
M  V30 5116 C 496.153 4.39283 0.966958 0
M  V30 5117 C 497.472 3.39519 2.80027 0
M  V30 5118 H 494.591 0.648654 0.349882 0
M  V30 5119 H 497.233 1.88525 0.236253 0
M  V30 5120 H 495.383 3.02168 2.44185 0
M  V30 5121 H 497.055 4.59873 0.362514 0
M  V30 5122 H 495.298 4.32948 0.271669 0
M  V30 5123 H 495.969 5.28368 1.59784 0
M  V30 5124 H 498.445 3.48128 2.27917 0
M  V30 5125 H 497.321 4.33402 3.36829 0
M  V30 5126 H 497.582 2.60864 3.56934 0
M  V30 5127 N 496.642 -0.504142 1.49319 0
M  V30 5128 C 497.59 -1.62689 1.66238 0
M  V30 5129 C 498.584 -1.6095 0.528349 0
M  V30 5130 O 499.79 -1.65496 0.707887 0
M  V30 5131 H 496.165 -0.539247 0.524134 0
M  V30 5132 H 498.136 -1.45571 2.60484 0
M  V30 5133 C 496.885 -3.00841 1.74328 0
M  V30 5134 H 496.208 -3.02884 2.60963 0
M  V30 5135 H 497.648 -3.78945 1.90202 0
M  V30 5136 C 496.107 -3.33355 0.487416 0
M  V30 5137 O 496.637 -3.99819 -0.388294 0
M  V30 5138 N 494.843 -2.88469 0.351306 0
M  V30 5139 H 494.39 -2.34557 1.06492 0
M  V30 5140 H 494.348 -3.10591 -0.487899 0
M  V30 5141 N 498.12 -1.38341 -0.754957 0
M  V30 5142 C 499.366 -1.35678 -1.51536 0
M  V30 5143 C 499.721 0.0533985 -1.92326 0
M  V30 5144 O 499.014 1.01573 -1.6246 0
M  V30 5145 C 499.208 -2.2452 -2.78075 0
M  V30 5146 C 499.037 -3.74035 -2.49655 0
M  V30 5147 C 497.807 -4.43066 -2.42942 0
M  V30 5148 C 500.005 -4.665 -2.16523 0
M  V30 5149 N 497.987 -5.78026 -2.06783 0
M  V30 5150 C 499.358 -5.89962 -1.90644 0
M  V30 5151 C 501.413 -4.54718 -2.02821 0
M  V30 5152 C 500.116 -7.0296 -1.52444 0
M  V30 5153 C 502.142 -5.67618 -1.66023 0
M  V30 5154 C 501.504 -6.90141 -1.41015 0
M  V30 5155 H 497.603 -0.551764 -0.554148 0
M  V30 5156 H 500.187 -1.73716 -0.879258 0
M  V30 5157 H 498.358 -1.88673 -3.39496 0
M  V30 5158 H 500.09 -2.12993 -3.44116 0
M  V30 5159 H 496.845 -3.96264 -2.59367 0
M  V30 5160 H 497.269 -6.49394 -1.91353 0
M  V30 5161 H 501.911 -3.60546 -2.20831 0
M  V30 5162 H 499.629 -7.97051 -1.33174 0
M  V30 5163 H 503.215 -5.6048 -1.56055 0
M  V30 5164 H 502.095 -7.76021 -1.12965 0
M  V30 5165 N 499.598 0.982988 -1.23187 0
M  V30 5166 C 500.545 2.07491 -1.01075 0
M  V30 5167 C 501.515 1.65949 0.070905 0
M  V30 5168 O 502.7 1.90629 -0.0806822 0
M  V30 5169 C 499.84 3.39751 -0.605261 0
M  V30 5170 C 498.953 3.94578 -1.75876 0
M  V30 5171 C 498.088 5.15039 -1.3003 0
M  V30 5172 C 497.127 5.62027 -2.42472 0
M  V30 5173 N 496.264 6.73719 -1.97602 0
M  V30 5174 H 501.104 2.25739 -1.9454 0
M  V30 5175 H 498.641 1.10659 -0.969179 0
M  V30 5176 H 500.599 4.15719 -0.351279 0
M  V30 5177 H 499.229 3.21473 0.292382 0
M  V30 5178 H 498.281 3.1539 -2.12681 0
M  V30 5179 H 499.593 4.25422 -2.60418 0
M  V30 5180 H 498.747 5.9833 -1.00429 0
M  V30 5181 H 497.486 4.85843 -0.425216 0
M  V30 5182 H 496.491 4.77318 -2.7285 0
M  V30 5183 H 497.716 5.93244 -3.30512 0
M  V30 5184 H 495.662 6.46287 -1.1247 0
M  V30 5185 H 495.579 7.03934 -2.75705 0
M  V30 5186 H 496.847 7.6049 -1.71098 0
M  V30 5187 N 501.076 1.04316 1.18135 0
M  V30 5188 C 502.325 0.74319 1.87509 0
M  V30 5189 C 502.638 -0.732136 1.81381 0
M  V30 5190 O 503.844 -1.14572 2.46141 0
M  V30 5191 C 502.3 1.27913 3.36402 0
M  V30 5192 C 501.908 2.78326 3.51053 0
M  V30 5193 C 503.652 1.0558 4.11161 0
M  V30 5194 C 501.559 3.25266 4.93919 0
M  V30 5195 H 500.489 0.274313 0.702331 0
M  V30 5196 H 503.14 1.25931 1.33467 0
M  V30 5197 H 501.522 0.690853 3.89927 0
M  V30 5198 H 502.696 3.42933 3.07788 0
M  V30 5199 H 501.011 2.991 2.89704 0
M  V30 5200 H 503.608 1.38161 5.16542 0
M  V30 5201 H 503.951 -0.00684729 4.16299 0
M  V30 5202 H 504.484 1.60882 3.63816 0
M  V30 5203 H 501.223 4.30922 4.9395 0
M  V30 5204 H 500.743 2.65396 5.3789 0
M  V30 5205 H 502.422 3.19433 5.62647 0
M  V30 5206 N 502.554 -1.34406 0.822964 0
M  V30 5207 C 503.8 -1.98578 0.411666 0
M  V30 5208 C 504.133 -1.65093 -1.02264 0
M  V30 5209 O 503.408 -0.92258 -1.71227 0
M  V30 5210 C 503.691 -3.54823 0.614235 0
M  V30 5211 C 503.544 -3.9805 2.09466 0
M  V30 5212 C 504.863 -4.40071 0.050221 0
M  V30 5213 H 501.982 -0.721355 0.151047 0
M  V30 5214 H 504.624 -1.59301 1.03554 0
M  V30 5215 H 502.774 -3.88411 0.0831774 0
M  V30 5216 H 504.446 -3.74795 2.68936 0
M  V30 5217 H 502.689 -3.4836 2.5851 0
M  V30 5218 H 503.36 -5.06819 2.18721 0
M  V30 5219 H 505.836 -4.13037 0.503953 0
M  V30 5220 H 504.712 -5.48452 0.221759 0
M  V30 5221 H 504.973 -4.29576 -1.04482 0
M  V30 5222 N 504.032 -0.577932 -1.46621 0
M  V30 5223 C 505.26 -0.0671642 -2.06791 0
M  V30 5224 C 505.675 1.23571 -1.42743 0
M  V30 5225 O 505.032 1.74602 -0.531062 0
M  V30 5226 C 505.083 0.110357 -3.61332 0
M  V30 5227 O 504.804 -1.14095 -4.22982 0
M  V30 5228 C 506.305 0.656025 -4.38419 0
M  V30 5229 H 503.525 -0.0552732 -0.66872 0
M  V30 5230 H 506.069 -0.797242 -1.8832 0
M  V30 5231 H 504.224 0.790637 -3.79246 0
M  V30 5232 H 504.638 -0.951742 -5.15793 0
M  V30 5233 H 506.112 0.729438 -5.47159 0
M  V30 5234 H 506.589 1.67195 -4.06131 0
M  V30 5235 H 507.195 0.0107692 -4.25299 0
M  V30 5236 N 505.51 1.54411 -0.315457 0
M  V30 5237 C 506.787 1.92562 0.343398 0
M  V30 5238 C 507.167 1.24423 1.70535 0
M  V30 5239 O 506.515 0.385051 2.25232 0
M  V30 5240 C 506.725 3.46168 0.443687 0
M  V30 5241 C 508.073 4.18659 0.707783 0
M  V30 5242 O 509.097 3.52281 0.52693 0
M  V30 5243 O 507.956 5.36198 1.05612 0
M  V30 5244 H 505.05 0.80379 0.194552 0
M  V30 5245 H 507.596 1.65738 -0.364577 0
M  V30 5246 H 506.368 3.8792 -0.513172 0
M  V30 5247 H 505.991 3.79073 1.19956 0
M  V30 5248 N 506.988 0.0434614 1.5754 0
M  V30 5249 C 508.234 -0.632971 1.92669 0
M  V30 5250 C 508.567 -1.70947 0.921446 0
M  V30 5251 O 507.842 -1.94426 -0.0537202 0
M  V30 5252 C 508.125 -1.23619 3.38216 0
M  V30 5253 C 507.978 -0.168274 4.49485 0
M  V30 5254 C 509.297 -2.15008 3.84005 0
M  V30 5255 H 506.416 -0.228629 0.700641 0
M  V30 5256 H 509.058 0.103651 1.89717 0
M  V30 5257 H 507.208 -1.864 3.40863 0
M  V30 5258 H 508.88 0.463196 4.58969 0
M  V30 5259 H 507.123 0.504581 4.30855 0
M  V30 5260 H 507.794 -0.630218 5.48391 0
M  V30 5261 H 510.27 -1.62198 3.83185 0
M  V30 5262 H 509.146 -2.54161 4.86511 0
M  V30 5263 H 509.407 -3.04707 3.20322 0
M  V30 5264 N 508.466 -1.55915 -0.229846 0
M  V30 5265 C 509.713 -1.78542 -0.955452 0
M  V30 5266 C 510.041 -0.610785 -1.84661 0
M  V30 5267 O 509.296 0.405213 -1.91459 0
M  V30 5268 C 509.595 -3.06845 -1.8325 0
M  V30 5269 C 509.261 -4.37395 -1.09528 0
M  V30 5270 C 507.923 -4.72868 -0.891598 0
M  V30 5271 C 510.275 -5.18029 -0.574046 0
M  V30 5272 C 507.603 -5.86496 -0.154655 0
M  V30 5273 C 509.955 -6.32423 0.149513 0
M  V30 5274 C 508.619 -6.66504 0.364519 0
M  V30 5275 H 507.889 -0.653333 -0.349625 0
M  V30 5276 H 510.536 -1.90183 -0.224235 0
M  V30 5277 H 508.841 -2.90291 -2.63132 0
M  V30 5278 H 510.538 -3.21553 -2.39592 0
M  V30 5279 H 507.128 -4.09538 -1.26399 0
M  V30 5280 H 511.312 -4.91066 -0.718899 0
M  V30 5281 H 506.568 -6.11396 0.0222356 0
M  V30 5282 H 510.742 -6.94137 0.560947 0
M  V30 5283 H 508.369 -7.54397 0.937495 0
M  V30 5284 N 509.944 0.496216 -1.49584 0
M  V30 5285 C 510.891 1.59722 -1.66606 0
M  V30 5286 C 511.861 1.58158 -0.507477 0
M  V30 5287 O 513.046 1.76072 -0.735076 0
M  V30 5288 C 510.186 2.97844 -1.74308 0
M  V30 5289 C 509.299 3.09388 -3.01502 0
M  V30 5290 C 508.434 4.38271 -3.00153 0
M  V30 5291 C 507.473 4.43466 -4.21906 0
M  V30 5292 N 506.61 5.63784 -4.1844 0
M  V30 5293 H 511.45 1.44515 -2.60613 0
M  V30 5294 H 508.987 0.703048 -1.29212 0
M  V30 5295 H 510.945 3.77907 -1.76754 0
M  V30 5296 H 509.575 3.11743 -0.837619 0
M  V30 5297 H 508.627 2.22357 -3.08645 0
M  V30 5298 H 509.939 3.09085 -3.91494 0
M  V30 5299 H 509.093 5.2666 -3.01188 0
M  V30 5300 H 507.832 4.41146 -2.07947 0
M  V30 5301 H 506.837 3.53478 -4.21109 0
M  V30 5302 H 508.062 4.42303 -5.1531 0
M  V30 5303 H 506.008 5.67491 -3.29074 0
M  V30 5304 H 505.925 5.65118 -5.02173 0
M  V30 5305 H 507.193 6.54367 -4.23585 0
M  V30 5306 N 511.423 1.38739 0.74761 0
M  V30 5307 C 512.37 1.36449 1.86146 0
M  V30 5308 C 513.34 0.226098 1.64554 0
M  V30 5309 O 514.525 0.41926 1.86137 0
M  V30 5310 C 511.665 1.2013 3.23516 0
M  V30 5311 C 510.778 2.43407 3.56899 0
M  V30 5312 C 509.913 2.19773 4.83605 0
M  V30 5313 C 508.952 3.3879 5.09792 0
M  V30 5314 N 508.089 3.14553 6.27695 0
M  V30 5315 H 512.929 2.3167 1.87438 0
M  V30 5316 H 510.466 1.15094 0.916063 0
M  V30 5317 H 512.424 1.08683 4.02795 0
M  V30 5318 H 511.054 0.285453 3.21535 0
M  V30 5319 H 510.106 2.65504 2.72418 0
M  V30 5320 H 511.418 3.32094 3.72176 0
M  V30 5321 H 510.572 2.05496 5.70838 0
M  V30 5322 H 509.311 1.28461 4.70478 0
M  V30 5323 H 508.316 3.53579 4.21025 0
M  V30 5324 H 509.541 4.30986 5.24812 0
M  V30 5325 H 507.487 2.25893 6.1588 0
M  V30 5326 H 507.404 3.96791 6.435 0
M  V30 5327 H 508.672 3.03943 7.17801 0
M  V30 5328 N 512.901 -0.976442 1.23707 0
M  V30 5329 C 513.831 -2.08749 1.04624 0
M  V30 5330 C 514.812 -1.70057 -0.0380956 0
M  V30 5331 O 515.997 -1.93782 0.127308 0
M  V30 5332 C 513.127 -3.41335 0.640902 0
M  V30 5333 C 512.081 -3.93947 1.67302 0
M  V30 5334 C 511.407 -5.22774 1.12301 0
M  V30 5335 C 512.707 -4.22769 3.06697 0
M  V30 5336 H 514.401 -2.24972 1.97555 0
M  V30 5337 H 511.947 -1.08108 0.951247 0
M  V30 5338 H 513.9 -4.18489 0.494434 0
M  V30 5339 H 512.624 -3.24988 -0.324099 0
M  V30 5340 H 511.283 -3.18941 1.80755 0
M  V30 5341 H 510.931 -5.0278 0.148877 0
M  V30 5342 H 510.631 -5.58942 1.81267 0
M  V30 5343 H 512.155 -6.02546 0.988479 0
M  V30 5344 H 513.569 -4.90659 2.96524 0
M  V30 5345 H 511.966 -4.70147 3.72937 0
M  V30 5346 H 513.036 -3.29885 3.55392 0
M  V30 5347 N 514.379 -1.04941 -1.1758 0
M  V30 5348 C 515.627 -0.756492 -1.87408 0
M  V30 5349 C 515.948 0.718478 -1.81281 0
M  V30 5350 O 515.218 1.519 -1.23706 0
M  V30 5351 H 513.798 -0.276841 -0.693807 0
M  V30 5352 H 516.46 -1.32803 -1.42652 0
M  V30 5353 H 515.556 -1.06918 -2.93215 0
M  V30 5354 N 515.857 1.33968 -0.830081 0
M  V30 5355 C 516.804 2.29387 -0.255008 0
M  V30 5356 C 517.774 1.53923 0.624243 0
M  V30 5357 O 518.959 1.82262 0.564372 0
M  V30 5358 C 516.099 3.4034 0.571209 0
M  V30 5359 C 515.212 4.30729 -0.331083 0
M  V30 5360 C 514.347 5.2879 0.505389 0
M  V30 5361 C 513.386 6.10819 -0.395843 0
M  V30 5362 N 512.523 7.00948 0.401979 0
M  V30 5363 H 517.363 2.77972 -1.07404 0
M  V30 5364 H 514.9 1.36785 -0.541133 0
M  V30 5365 H 516.858 4.03361 1.06562 0
M  V30 5366 H 515.488 2.9297 1.35529 0
M  V30 5367 H 514.54 3.68507 -0.943759 0
M  V30 5368 H 515.852 4.88181 -1.02377 0
M  V30 5369 H 515.006 5.97297 1.06399 0
M  V30 5370 H 513.745 4.71894 1.23155 0
M  V30 5371 H 512.75 5.41238 -0.966529 0
M  V30 5372 H 513.975 6.69797 -1.12023 0
M  V30 5373 H 511.921 6.46512 1.11168 0
M  V30 5374 H 511.838 7.55643 -0.232167 0
M  V30 5375 H 513.106 7.73774 0.943102 0
M  V30 5376 N 517.335 0.585699 1.46312 0
M  V30 5377 C 518.583 0.072278 2.01971 0
M  V30 5378 C 518.904 -1.29345 1.45928 0
M  V30 5379 O 518.174 -1.84973 0.645109 0
M  V30 5380 H 516.754 0.023729 0.746623 0
M  V30 5381 H 519.416 0.762155 1.7938 0
M  V30 5382 H 518.512 0.00552767 3.121 0
M  V30 5383 N 518.813 -1.54241 0.323641 0
M  V30 5384 C 520.229 -1.59574 -0.0290018 0
M  V30 5385 C 520.429 -1.34017 -1.50472 0
M  V30 5386 O 519.485 -1.12464 -2.26071 0
M  V30 5387 C 520.798 -2.98169 0.389295 0
M  V30 5388 C 522.346 -3.11148 0.339958 0
M  V30 5389 C 522.821 -4.5209 0.733418 0
M  V30 5390 N 524.312 -4.5808 0.686827 0
M  V30 5391 C 525.047 -5.65248 0.963464 0
M  V30 5392 N 524.543 -6.80355 1.30724 0
M  V30 5393 N 526.336 -5.55025 0.88902 0
M  V30 5394 H 518.487 -1.6911 1.28512 0
M  V30 5395 H 520.75 -0.790972 0.522558 0
M  V30 5396 H 520.456 -3.21871 1.41746 0
M  V30 5397 H 520.33 -3.76399 -0.245657 0
M  V30 5398 H 522.717 -2.87182 -0.679002 0
M  V30 5399 H 522.798 -2.35023 1.00985 0
M  V30 5400 H 522.442 -4.76788 1.75029 0
M  V30 5401 H 522.372 -5.26584 0.0412189 0
M  V30 5402 H 524.863 -3.75411 0.43298 0
M  V30 5403 H 525.176 -7.58029 1.5037 0
M  V30 5404 H 523.521 -6.81851 1.3455 0
M  V30 5405 H 526.712 -4.63977 0.619939 0
M  V30 5406 H 526.885 -6.38458 1.10797 0
M  V30 5407 N 520.291 -0.0518155 -1.57515 0
M  V30 5408 C 521.54 0.621286 -1.91893 0
M  V30 5409 C 521.853 1.71966 -0.932052 0
M  V30 5410 O 523.059 2.45096 -1.16791 0
M  V30 5411 C 521.515 1.15641 -3.40816 0
M  V30 5412 C 521.123 0.0901146 -4.47909 0
M  V30 5413 C 522.867 1.80472 -3.84227 0
M  V30 5414 C 520.774 0.638154 -5.87947 0
M  V30 5415 H 519.704 0.235835 -0.716169 0
M  V30 5416 H 522.355 -0.120809 -1.83102 0
M  V30 5417 H 520.737 1.95084 -3.44613 0
M  V30 5418 H 521.911 -0.683525 -4.55702 0
M  V30 5419 H 520.226 -0.460774 -4.13843 0
M  V30 5420 H 522.823 2.22471 -4.86221 0
M  V30 5421 H 523.166 2.65669 -3.20508 0
M  V30 5422 H 523.699 1.07683 -3.82948 0
M  V30 5423 H 520.438 -0.176202 -6.55263 0
M  V30 5424 H 519.958 1.37976 -5.83714 0
M  V30 5425 H 521.637 1.12085 -6.37217 0
M  V30 5426 N 521.769 1.56035 0.221574 0
M  V30 5427 C 523.015 1.79312 0.947372 0
M  V30 5428 C 523.348 0.621453 1.83988 0
M  V30 5429 O 522.623 -0.379287 1.90766 0
M  V30 5430 C 522.906 3.1267 1.78633 0
M  V30 5431 C 522.759 4.40284 0.920312 0
M  V30 5432 C 524.078 3.4247 2.7641 0
M  V30 5433 H 521.197 0.652328 0.342982 0
M  V30 5434 H 523.839 1.88765 0.216244 0
M  V30 5435 H 521.989 3.04741 2.40967 0
M  V30 5436 H 523.661 4.60232 0.313718 0
M  V30 5437 H 521.904 4.33212 0.225734 0
M  V30 5438 H 522.575 5.30033 1.54171 0
M  V30 5439 H 525.051 3.50526 2.24211 0
M  V30 5440 H 523.927 4.3695 3.32213 0
M  V30 5441 H 524.188 2.64635 3.54148 0
M  V30 5442 N 523.247 -0.488276 1.49845 0
M  V30 5443 C 524.475 -1.26527 1.63702 0
M  V30 5444 C 524.89 -1.8618 0.313447 0
M  V30 5445 O 524.247 -1.68432 -0.702624 0
M  V30 5446 C 524.298 -2.3864 2.71538 0
M  V30 5447 O 524.019 -1.81437 3.98763 0
M  V30 5448 C 525.52 -3.29805 2.96215 0
M  V30 5449 H 522.74 -0.383295 0.55075 0
M  V30 5450 H 525.284 -0.584779 1.95961 0
M  V30 5451 H 523.439 -3.02496 2.42023 0
M  V30 5452 H 523.853 -2.55135 4.58265 0
M  V30 5453 H 525.327 -4.04722 3.75372 0
M  V30 5454 H 525.804 -3.87563 2.06619 0
M  V30 5455 H 526.41 -2.71703 3.27196 0
M  V30 5456 N 524.725 -1.39134 -0.740242 0
M  V30 5457 C 525.657 -1.33332 -1.86428 0
M  V30 5458 C 526.67 -0.243042 -1.60976 0
M  V30 5459 O 527.859 -0.501608 -1.71307 0
M  V30 5460 C 524.959 -1.04626 -3.22346 0
M  V30 5461 C 524.132 -2.24826 -3.75196 0
M  V30 5462 C 523.191 -1.92659 -4.89662 0
M  V30 5463 O 522.217 -2.6529 -5.03597 0
M  V30 5464 N 523.419 -0.889575 -5.73643 0
M  V30 5465 H 526.184 -2.30196 -1.91911 0
M  V30 5466 H 523.745 -1.33168 -0.920756 0
M  V30 5467 H 525.737 -0.811347 -3.96484 0
M  V30 5468 H 524.307 -0.165129 -3.12164 0
M  V30 5469 H 523.527 -2.64301 -2.9247 0
M  V30 5470 H 524.815 -3.05015 -4.07239 0
M  V30 5471 H 524.213 -0.287529 -5.64969 0
M  V30 5472 H 522.77 -0.714557 -6.47871 0
M  V30 5473 N 526.204 0.969867 -1.24223 0
M  V30 5474 C 527.114 2.09806 -1.0497 0
M  V30 5475 C 528.13 1.73998 0.00886455 0
M  V30 5476 O 529.306 2.00513 -0.188848 0
M  V30 5477 C 526.371 3.40467 -0.654452 0
M  V30 5478 C 525.432 3.90236 -1.78926 0
M  V30 5479 C 524.665 5.14662 -1.41277 0
M  V30 5480 O 524.888 5.69602 -0.301632 0
M  V30 5481 O 523.822 5.58761 -2.23763 0
M  V30 5482 H 527.648 2.28942 -1.99548 0
M  V30 5483 H 525.233 1.08197 -1.03023 0
M  V30 5484 H 527.115 4.19039 -0.445452 0
M  V30 5485 H 525.79 3.22636 0.262216 0
M  V30 5486 H 524.697 3.12735 -2.05299 0
M  V30 5487 H 526.03 4.1254 -2.68462 0
M  V30 5488 N 527.682 1.05563 1.17022 0
M  V30 5489 C 528.592 0.670758 2.24807 0
M  V30 5490 C 529.608 -0.309865 1.71219 0
M  V30 5491 O 530.784 -0.161025 2.00755 0
M  V30 5492 C 527.849 0.055337 3.46656 0
M  V30 5493 C 526.91 1.08688 4.15314 0
M  V30 5494 C 526.143 0.500736 5.31346 0
M  V30 5495 O 526.366 -0.688718 5.66227 0
M  V30 5496 O 525.3 1.23683 5.89055 0
M  V30 5497 H 529.126 1.56914 2.60023 0
M  V30 5498 H 526.711 0.827428 1.24395 0
M  V30 5499 H 528.593 -0.286492 4.20425 0
M  V30 5500 H 527.268 -0.816638 3.13229 0
M  V30 5501 H 526.175 1.48077 3.43546 0
M  V30 5502 H 527.508 1.93014 4.52777 0
M  V30 5503 N 529.16 -1.33526 0.837174 0
M  V30 5504 C 530.123 -2.27551 0.274421 0
M  V30 5505 C 531.123 -1.50886 -0.555881 0
M  V30 5506 O 532.313 -1.70227 -0.369918 0
M  V30 5507 C 529.445 -3.35332 -0.613605 0
M  V30 5508 H 530.638 -2.78837 1.10408 0
M  V30 5509 H 528.191 -1.439 0.610126 0
M  V30 5510 H 528.926 -2.89285 -1.46577 0
M  V30 5511 H 528.711 -3.92095 -0.0195341 0
M  V30 5512 H 530.201 -4.05433 -1.00068 0
M  V30 5513 N 530.638 -0.59345 -1.46 0
M  V30 5514 C 531.886 -0.082988 -2.0193 0
M  V30 5515 C 532.207 1.28569 -1.46612 0
M  V30 5516 O 531.477 1.84629 -0.654909 0
M  V30 5517 H 530.057 -0.0276882 -0.746487 0
M  V30 5518 H 532.719 -0.771657 -1.78973 0
M  V30 5519 H 531.815 -0.022079 -3.12092 0
M  V30 5520 N 532.116 1.54067 -0.331816 0
M  V30 5521 C 533.393 1.92915 0.322955 0
M  V30 5522 C 533.773 1.26225 1.69205 0
M  V30 5523 O 533.121 0.408919 2.24811 0
M  V30 5524 C 533.331 3.46619 0.406946 0
M  V30 5525 C 534.679 4.19386 0.663339 0
M  V30 5526 O 535.703 3.5282 0.489536 0
M  V30 5527 O 534.562 5.37288 0.999193 0
M  V30 5528 H 531.656 0.805808 0.186016 0
M  V30 5529 H 534.202 1.65342 -0.382135 0
M  V30 5530 H 532.974 3.87354 -0.554287 0
M  V30 5531 H 532.597 3.80324 1.15929 0
M  V30 5532 N 533.594 0.0601682 1.57485 0
M  V30 5533 C 534.822 -0.620937 1.97363 0
M  V30 5534 C 535.237 -1.63846 0.938082 0
M  V30 5535 O 534.594 -1.82339 -0.0766578 0
M  V30 5536 C 534.645 -1.29987 3.37321 0
M  V30 5537 O 534.366 -0.323081 4.36907 0
M  V30 5538 C 535.867 -2.06989 3.92008 0
M  V30 5539 H 533.087 -0.169135 0.649334 0
M  V30 5540 H 535.631 0.129132 2.04092 0
M  V30 5541 H 533.786 -2.0011 3.31715 0
M  V30 5542 H 534.2 -0.808754 5.18227 0
M  V30 5543 H 535.674 -2.49901 4.92192 0
M  V30 5544 H 536.151 -2.92173 3.2792 0
M  V30 5545 H 536.757 -1.41757 4.0098 0
M  V30 5546 N 535.072 -1.5615 -0.213296 0
M  V30 5547 C 536.004 -1.89586 -1.28802 0
M  V30 5548 C 537.017 -0.784844 -1.42633 0
M  V30 5549 O 538.206 -1.06319 -1.43383 0
M  V30 5550 C 535.306 -2.09665 -2.66259 0
M  V30 5551 C 534.479 -3.40726 -2.7427 0
M  V30 5552 C 533.538 -3.50137 -3.92798 0
M  V30 5553 O 532.564 -4.23105 -3.8075 0
M  V30 5554 N 533.766 -2.81886 -5.07465 0
M  V30 5555 H 536.531 -2.82368 -1.00442 0
M  V30 5556 H 534.092 -1.56796 -0.403302 0
M  V30 5557 H 536.084 -2.13268 -3.43946 0
M  V30 5558 H 534.654 -1.23469 -2.87183 0
M  V30 5559 H 533.874 -3.4915 -1.82997 0
M  V30 5560 H 535.162 -4.27048 -2.76599 0
M  V30 5561 H 534.56 -2.22397 -5.2015 0
M  V30 5562 H 533.117 -2.91139 -5.83165 0
M  V30 5563 N 536.55 0.480323 -1.50102 0
M  V30 5564 C 537.961 1.06142 -1.53593 0
M  V30 5565 C 538.312 1.93335 -0.334055 0
M  V30 5566 O 537.437 2.09188 0.55403 0
M  V30 5567 C 538.032 1.9317 -2.78336 0
M  V30 5568 C 536.591 2.46405 -2.84538 0
M  V30 5569 C 535.738 1.24521 -2.4777 0
M  V30 5570 H 538.689 0.26333 -1.565 0
M  V30 5571 H 538.71 2.78123 -2.59669 0
M  V30 5572 H 538.222 1.29683 -3.65792 0
M  V30 5573 H 536.323 3.13472 -2.01411 0
M  V30 5574 H 536.436 2.82143 -3.87211 0
M  V30 5575 H 534.8 1.57706 -2.00003 0
M  V30 5576 H 535.583 0.627102 -3.37524 0
M  V30 5577 N 538.028 1.39524 0.732853 0
M  V30 5578 C 539.275 1.36865 1.49246 0
M  V30 5579 C 539.603 -0.0347118 1.94469 0
M  V30 5580 O 538.858 -1.01596 1.67262 0
M  V30 5581 C 539.157 2.28916 2.74468 0
M  V30 5582 C 538.823 3.76506 2.481 0
M  V30 5583 C 537.485 4.16721 2.40619 0
M  V30 5584 C 539.837 4.69846 2.25598 0
M  V30 5585 C 537.165 5.48334 2.08679 0
M  V30 5586 C 539.517 6.01739 1.95174 0
M  V30 5587 C 538.181 6.41015 1.86163 0
M  V30 5588 H 537.451 0.500824 0.546129 0
M  V30 5589 H 540.098 1.72047 0.840958 0
M  V30 5590 H 538.403 1.86859 3.4437 0
M  V30 5591 H 540.1 2.2415 3.32502 0
M  V30 5592 H 536.69 3.44635 2.54803 0
M  V30 5593 H 540.874 4.39608 2.30344 0
M  V30 5594 H 536.13 5.77685 2.00226 0
M  V30 5595 H 540.304 6.73591 1.76771 0
M  V30 5596 H 537.931 7.42917 1.61179 0
M  V30 5597 N 539.506 -0.963266 1.24736 0
M  V30 5598 C 540.453 -2.05857 1.04363 0
M  V30 5599 C 541.423 -1.6604 -0.0444951 0
M  V30 5600 O 542.608 -1.90477 0.110999 0
M  V30 5601 C 539.748 -3.38745 0.659235 0
M  V30 5602 C 538.861 -3.9173 1.82131 0
M  V30 5603 C 537.996 -5.12906 1.38208 0
M  V30 5604 C 537.035 -5.58098 2.51382 0
M  V30 5605 N 536.172 -6.7049 2.08295 0
M  V30 5606 H 541.012 -2.22616 1.98107 0
M  V30 5607 H 538.549 -1.09103 0.986661 0
M  V30 5608 H 540.507 -4.15107 0.417371 0
M  V30 5609 H 539.137 -3.21898 -0.241201 0
M  V30 5610 H 538.189 -3.11966 2.17672 0
M  V30 5611 H 539.501 -4.21225 2.67153 0
M  V30 5612 H 538.655 -5.96657 1.09935 0
M  V30 5613 H 537.394 -4.85105 0.502456 0
M  V30 5614 H 536.399 -4.72917 2.80409 0
M  V30 5615 H 537.624 -5.87911 3.39909 0
M  V30 5616 H 535.57 -6.44416 1.22737 0
M  V30 5617 H 535.487 -6.99458 2.86869 0
M  V30 5618 H 536.755 -7.57672 1.83175 0
M  V30 5619 N 540.985 -1.06182 -1.16461 0
M  V30 5620 C 542.215 -0.797425 -1.9059 0
M  V30 5621 C 542.623 0.651845 -1.77616 0
M  V30 5622 O 541.966 1.45788 -1.11766 0
M  V30 5623 C 542.028 -1.11128 -3.41893 0
M  V30 5624 C 541.692 -2.55874 -3.78652 0
M  V30 5625 C 542.689 -3.54104 -3.80665 0
M  V30 5626 C 540.374 -2.91144 -4.09317 0
M  V30 5627 C 542.368 -4.85645 -4.12829 0
M  V30 5628 C 540.055 -4.22885 -4.41148 0
M  V30 5629 C 541.053 -5.19945 -4.42883 0
M  V30 5630 O 540.741 -6.49322 -4.73959 0
M  V30 5631 H 540.473 -0.288709 -0.611247 0
M  V30 5632 H 543.027 -1.41841 -1.4856 0
M  V30 5633 H 541.257 -0.433217 -3.84266 0
M  V30 5634 H 542.946 -0.831306 -3.97296 0
M  V30 5635 H 543.712 -3.28197 -3.57088 0
M  V30 5636 H 539.591 -2.16252 -4.07131 0
M  V30 5637 H 543.135 -5.61398 -4.14099 0
M  V30 5638 H 539.032 -4.48551 -4.6419 0
M  V30 5639 H 539.8 -6.54294 -4.91774 0
M  V30 5640 N 542.463 1.3308 -0.844243 0
M  V30 5641 C 543.879 1.50447 -0.532729 0
M  V30 5642 C 544.079 1.78292 0.938837 0
M  V30 5643 O 543.135 1.84635 1.72239 0
M  V30 5644 C 544.448 2.65555 -1.41072 0
M  V30 5645 C 545.996 2.7944 -1.41005 0
M  V30 5646 C 546.471 3.97616 -2.27301 0
M  V30 5647 N 547.962 4.0486 -2.2504 0
M  V30 5648 C 548.697 4.95508 -2.88547 0
M  V30 5649 N 548.193 5.91236 -3.61126 0
M  V30 5650 N 549.986 4.88548 -2.77989 0
M  V30 5651 H 542.137 1.13269 -1.79677 0
M  V30 5652 H 544.4 0.55734 -0.766861 0
M  V30 5653 H 544.106 2.51675 -2.45668 0
M  V30 5654 H 543.98 3.61089 -1.09061 0
M  V30 5655 H 546.367 2.92749 -0.371784 0
M  V30 5656 H 546.448 1.8465 -1.77026 0
M  V30 5657 H 546.092 3.85066 -3.3119 0
M  V30 5658 H 546.022 4.91661 -1.88619 0
M  V30 5659 H 548.513 3.36353 -1.72264 0
M  V30 5660 H 548.826 6.57079 -4.06776 0
M  V30 5661 H 547.171 5.91295 -3.65234 0
M  V30 5662 H 550.362 4.12729 -2.20846 0
M  V30 5663 H 550.535 5.58994 -3.27765 0
M  V30 5664 N 543.941 0.601185 1.45683 0
M  V30 5665 C 544.904 -0.111398 2.28929 0
M  V30 5666 C 545.904 -0.801246 1.39416 0
M  V30 5667 O 547.094 -0.650383 1.61603 0
M  V30 5668 C 544.226 -1.16773 3.20276 0
M  V30 5669 H 545.419 0.620412 2.93413 0
M  V30 5670 H 542.972 0.359946 1.52099 0
M  V30 5671 H 543.707 -1.93051 2.60579 0
M  V30 5672 H 543.492 -0.677358 3.86205 0
M  V30 5673 H 544.982 -1.66698 3.82886 0
M  V30 5674 N 545.419 -1.53889 0.339982 0
M  V30 5675 C 546.351 -2.22435 -0.55275 0
M  V30 5676 C 547.364 -1.22975 -1.06681 0
M  V30 5677 O 548.553 -1.49351 -0.977575 0
M  V30 5678 C 545.653 -2.8882 -1.77302 0
M  V30 5679 C 544.826 -4.14563 -1.39486 0
M  V30 5680 C 543.885 -4.64391 -2.47442 0
M  V30 5681 O 542.911 -5.28687 -2.10899 0
M  V30 5682 N 544.113 -4.40015 -3.78639 0
M  V30 5683 H 546.878 -2.9968 0.0342669 0
M  V30 5684 H 544.439 -1.61068 0.16394 0
M  V30 5685 H 546.431 -3.19072 -2.48948 0
M  V30 5686 H 545.001 -2.15182 -2.26749 0
M  V30 5687 H 544.221 -3.90896 -0.509321 0
M  V30 5688 H 545.509 -4.96362 -1.11813 0
M  V30 5689 H 544.907 -3.88586 -4.11118 0
M  V30 5690 H 543.464 -4.74881 -4.46465 0
M  V30 5691 N 546.897 -0.0685191 -1.57451 0
M  V30 5692 C 547.827 0.89747 -2.15564 0
M  V30 5693 C 548.808 1.31266 -1.08181 0
M  V30 5694 O 549.993 1.38429 -1.36202 0
M  V30 5695 C 547.123 2.16623 -2.71463 0
M  V30 5696 C 546.077 1.89054 -3.83982 0
M  V30 5697 C 545.403 3.22532 -4.26471 0
M  V30 5698 C 546.703 1.1984 -5.08366 0
M  V30 5699 H 548.397 0.413373 -2.96533 0
M  V30 5700 H 545.943 0.197391 -1.42641 0
M  V30 5701 H 547.896 2.84614 -3.10761 0
M  V30 5702 H 546.62 2.67269 -1.8771 0
M  V30 5703 H 545.279 1.23469 -3.45183 0
M  V30 5704 H 544.927 3.71013 -3.39644 0
M  V30 5705 H 544.627 3.04879 -5.02317 0
M  V30 5706 H 546.151 3.91727 -4.68383 0
M  V30 5707 H 547.565 1.77896 -5.45001 0
M  V30 5708 H 545.962 1.12456 -5.89469 0
M  V30 5709 H 547.032 0.176996 -4.84577 0
M  V30 5710 N 548.375 1.56261 0.205012 0
M  V30 5711 C 549.308 1.88797 1.28183 0
M  V30 5712 C 550.286 0.747018 1.44424 0
M  V30 5713 O 551.47 0.997039 1.59973 0
M  V30 5714 C 548.597 2.10949 2.64987 0
M  V30 5715 C 547.643 3.33649 2.6567 0
M  V30 5716 S 548.476 4.89078 2.18088 0
M  V30 5717 C 549.632 5.14286 3.56736 0
M  V30 5718 H 549.865 2.79837 1.00393 0
M  V30 5719 H 547.398 1.48911 0.408042 0
M  V30 5720 H 549.356 2.24395 3.4374 0
M  V30 5721 H 548.017 1.20678 2.89993 0
M  V30 5722 H 547.21 3.46245 3.66239 0
M  V30 5723 H 546.812 3.19146 1.94992 0
M  V30 5724 H 549.104 5.04198 4.52537 0
M  V30 5725 H 550.047 6.16096 3.49043 0
M  V30 5726 H 550.455 4.41957 3.51189 0
M  V30 5727 N 549.853 -0.472356 1.50355 0
M  V30 5728 C 551.078 -1.25251 1.65309 0
M  V30 5729 C 551.503 -1.85081 0.335643 0
M  V30 5730 O 550.861 -1.67227 -0.700335 0
M  V30 5731 C 550.909 -2.3379 2.74544 0
M  V30 5732 O 550.013 -3.38401 2.35709 0
M  V30 5733 H 549.354 -0.368539 0.552336 0
M  V30 5734 H 551.884 -0.562271 1.96722 0
M  V30 5735 H 551.894 -2.79121 2.97583 0
M  V30 5736 H 550.569 -1.89614 3.70161 0
M  V30 5737 H 549.146 -2.9879 2.23112 0
M  V30 5738 N 551.331 -1.39911 -0.725443 0
M  V30 5739 C 552.579 -1.37382 -1.48224 0
M  V30 5740 C 552.9 0.0264107 -1.94982 0
M  V30 5741 O 552.17 0.979408 -1.6966 0
M  V30 5742 H 550.75 -0.505596 -0.549892 0
M  V30 5743 H 553.412 -1.7487 -0.860608 0
M  V30 5744 H 552.508 -2.04254 -2.3598 0
M  V30 5745 N 552.809 0.956637 -1.25245 0
M  V30 5746 C 554.055 1.70352 -1.10036 0
M  V30 5747 C 554.388 1.90869 0.358156 0
M  V30 5748 O 553.663 1.47819 1.26411 0
M  V30 5749 C 553.946 3.08766 -1.85298 0
M  V30 5750 C 553.799 2.95672 -3.38966 0
M  V30 5751 C 555.118 4.08622 -1.63451 0
M  V30 5752 H 552.237 0.618279 -0.401123 0
M  V30 5753 H 554.879 1.11212 -1.54051 0
M  V30 5754 H 553.029 3.59252 -1.47887 0
M  V30 5755 H 554.701 2.52527 -3.86041 0
M  V30 5756 H 552.944 2.31634 -3.6678 0
M  V30 5757 H 553.615 3.93776 -3.86839 0
M  V30 5758 H 556.091 3.67038 -1.96015 0
M  V30 5759 H 554.967 5.03514 -2.18551 0
M  V30 5760 H 555.228 4.3834 -0.575357 0
M  V30 5761 N 554.287 1.06798 1.15896 0
M  V30 5762 C 555.698 0.811355 1.68149 0
M  V30 5763 C 556.049 -0.664339 1.8461 0
M  V30 5764 O 555.174 -1.51485 1.54535 0
M  V30 5765 C 555.769 1.46624 3.05429 0
M  V30 5766 C 554.328 1.25726 3.54781 0
M  V30 5767 C 553.475 1.53949 2.3064 0
M  V30 5768 H 556.426 1.23078 1.00187 0
M  V30 5769 H 556.447 0.88437 3.7008 0
M  V30 5770 H 555.959 2.54025 2.93416 0
M  V30 5771 H 554.06 0.20322 3.72045 0
M  V30 5772 H 554.173 1.97354 4.36564 0
M  V30 5773 H 552.537 0.96025 2.35905 0
M  V30 5774 H 553.32 2.6252 2.2122 0
M  V30 5775 N 555.766 -1.3263 0.851289 0
M  V30 5776 C 556.714 -2.30882 0.282202 0
M  V30 5777 C 557.708 -1.58697 -0.592589 0
M  V30 5778 O 558.914 -1.73461 -0.480768 0
M  V30 5779 H 555.289 -0.748492 0.0725487 0
M  V30 5780 H 557.26 -2.76374 1.12516 0
M  V30 5781 C 556.009 -3.43828 -0.517449 0
M  V30 5782 H 555.332 -3.99532 0.146392 0
M  V30 5783 H 556.772 -4.1474 -0.88128 0
M  V30 5784 C 555.231 -2.90786 -1.70133 0
M  V30 5785 O 555.761 -2.88 -2.80034 0
M  V30 5786 N 553.967 -2.4723 -1.52728 0
M  V30 5787 H 553.514 -2.49695 -0.633257 0
M  V30 5788 H 553.472 -2.12094 -2.32085 0
M  V30 5789 N 557.244 -0.608902 -1.45362 0
M  V30 5790 C 558.174 0.0964526 -2.33301 0
M  V30 5791 C 559.155 0.857444 -1.46908 0
M  V30 5792 O 560.34 0.827735 -1.75676 0
M  V30 5793 C 557.47 1.09354 -3.29635 0
M  V30 5794 C 556.424 0.445676 -4.25673 0
M  V30 5795 C 555.75 1.5511 -5.11708 0
M  V30 5796 C 557.05 -0.633972 -5.18438 0
M  V30 5797 H 558.744 -0.637829 -2.92527 0
M  V30 5798 H 556.29 -0.308178 -1.40664 0
M  V30 5799 H 558.243 1.59556 -3.90025 0
M  V30 5800 H 556.967 1.85843 -2.6857 0
M  V30 5801 H 555.626 -0.0354897 -3.66583 0
M  V30 5802 H 555.274 2.30631 -4.4701 0
M  V30 5803 H 554.974 1.12311 -5.76767 0
M  V30 5804 H 556.498 2.05537 -5.74967 0
M  V30 5805 H 557.912 -0.215974 -5.72893 0
M  V30 5806 H 556.309 -0.983789 -5.91981 0
M  V30 5807 H 557.379 -1.51005 -4.60788 0
M  V30 5808 N 558.722 1.53707 -0.348139 0
M  V30 5809 C 559.654 2.22725 0.540946 0
M  V30 5810 C 560.667 1.2354 1.06027 0
M  V30 5811 O 561.856 1.49867 0.96964 0
M  V30 5812 C 558.956 2.89756 1.75768 0
M  V30 5813 C 558.129 4.15297 1.37285 0
M  V30 5814 C 557.188 4.65697 2.44976 0
M  V30 5815 O 556.214 5.29798 2.08092 0
M  V30 5816 N 557.416 4.42017 3.763 0
M  V30 5817 H 560.181 2.99658 -0.0501592 0
M  V30 5818 H 557.742 1.60979 -0.17248 0
M  V30 5819 H 559.734 3.20388 2.47252 0
M  V30 5820 H 558.304 2.16382 2.25605 0
M  V30 5821 H 557.524 3.9116 0.488584 0
M  V30 5822 H 558.812 4.96948 1.09179 0
M  V30 5823 H 558.21 3.9076 4.09051 0
M  V30 5824 H 556.767 4.77242 4.4394 0
M  V30 5825 N 560.2 0.0768682 1.57412 0
M  V30 5826 C 561.11 -0.903207 2.16516 0
M  V30 5827 C 562.126 -1.32341 1.12968 0
M  V30 5828 O 563.302 -1.39507 1.45258 0
M  V30 5829 C 560.367 -2.1508 2.71922 0
M  V30 5830 C 559.428 -1.78653 3.90361 0
M  V30 5831 C 558.661 -2.97465 4.43114 0
M  V30 5832 O 558.884 -4.11638 3.94854 0
M  V30 5833 O 557.818 -2.76987 5.3438 0
M  V30 5834 H 561.644 -0.430427 3.00634 0
M  V30 5835 H 559.229 -0.146485 1.4868 0
M  V30 5836 H 561.111 -2.8823 3.07411 0
M  V30 5837 H 559.786 -2.61446 1.9086 0
M  V30 5838 H 558.693 -1.0274 3.59716 0
M  V30 5839 H 560.026 -1.37066 4.7273 0
M  V30 5840 N 561.678 -1.56367 -0.196722 0
M  V30 5841 C 562.925 -1.80529 -0.917366 0
M  V30 5842 C 563.253 -0.649817 -1.83324 0
M  V30 5843 O 562.508 0.36451 -1.92275 0
M  V30 5844 C 562.807 -3.10663 -1.767 0
M  V30 5845 C 562.473 -4.3962 -1.00225 0
M  V30 5846 C 561.135 -4.74653 -0.791095 0
M  V30 5847 C 563.487 -5.1913 -0.464035 0
M  V30 5848 C 560.815 -5.86692 -0.0302155 0
M  V30 5849 C 563.167 -6.31964 0.283625 0
M  V30 5850 C 561.831 -6.65581 0.505813 0
M  V30 5851 H 561.101 -0.660602 -0.335688 0
M  V30 5852 H 563.748 -1.90615 -0.183844 0
M  V30 5853 H 562.053 -2.95807 -2.56915 0
M  V30 5854 H 563.75 -3.26563 -2.32718 0
M  V30 5855 H 560.34 -4.12127 -1.17684 0
M  V30 5856 H 564.524 -4.9248 -0.614575 0
M  V30 5857 H 559.78 -6.11211 0.151917 0
M  V30 5858 H 563.954 -6.92791 0.708057 0
M  V30 5859 H 561.581 -7.52239 1.0973 0
M  V30 5860 N 563.156 0.464375 -1.50603 0
M  V30 5861 C 564.404 1.21356 -1.61608 0
M  V30 5862 C 564.725 1.92329 -0.321643 0
M  V30 5863 O 563.995 1.84403 0.661232 0
M  V30 5864 H 562.575 0.45094 -0.595535 0
M  V30 5865 H 565.237 0.535046 -1.87412 0
M  V30 5866 H 564.333 1.95783 -2.43054 0
M  V30 5867 N 564.634 1.40294 0.718013 0
M  V30 5868 C 565.564 1.43118 1.84498 0
M  V30 5869 C 566.545 0.292403 1.67568 0
M  V30 5870 O 567.73 0.500675 1.87635 0
M  V30 5871 C 564.86 1.29065 3.22427 0
M  V30 5872 C 563.814 2.40521 3.54025 0
M  V30 5873 C 563.14 2.11546 4.91073 0
M  V30 5874 C 564.44 3.82859 3.55269 0
M  V30 5875 H 566.134 2.37432 1.82391 0
M  V30 5876 H 563.68 1.14283 0.87609 0
M  V30 5877 H 565.633 1.29658 4.00957 0
M  V30 5878 H 564.357 0.312271 3.25104 0
M  V30 5879 H 563.016 2.39173 2.77834 0
M  V30 5880 H 562.664 1.12104 4.90348 0
M  V30 5881 H 562.364 2.86216 5.1318 0
M  V30 5882 H 563.888 2.13817 5.71939 0
M  V30 5883 H 565.302 3.86044 4.23843 0
M  V30 5884 H 563.699 4.57029 3.88902 0
M  V30 5885 H 564.769 4.12617 2.54706 0
M  V30 5886 N 566.112 -0.949982 1.2575 0
M  V30 5887 C 567.342 -1.72721 1.13363 0
M  V30 5888 C 567.75 -1.86562 -0.314842 0
M  V30 5889 O 567.093 -1.36621 -1.22803 0
M  V30 5890 C 567.155 -3.15695 1.7198 0
M  V30 5891 C 566.819 -3.25268 3.21014 0
M  V30 5892 C 567.816 -3.09222 4.17945 0
M  V30 5893 C 565.501 -3.4894 3.61312 0
M  V30 5894 C 567.495 -3.16701 5.53154 0
M  V30 5895 C 565.182 -3.56055 4.96657 0
M  V30 5896 C 566.18 -3.3995 5.92387 0
M  V30 5897 O 565.868 -3.46757 7.25269 0
M  V30 5898 H 565.6 -0.547888 0.395973 0
M  V30 5899 H 568.154 -1.20009 1.66694 0
M  V30 5900 H 566.384 -3.69791 1.13101 0
M  V30 5901 H 568.073 -3.75295 1.54624 0
M  V30 5902 H 568.839 -2.90798 3.88151 0
M  V30 5903 H 564.718 -3.60534 2.87291 0
M  V30 5904 H 568.262 -3.04048 6.27854 0
M  V30 5905 H 564.159 -3.73997 5.26115 0
M  V30 5906 H 564.927 -3.63358 7.33426 0
M  V30 5907 N 567.59 -1.07411 -1.15328 0
M  V30 5908 C 568.538 -0.689316 -2.22151 0
M  V30 5909 C 569.532 0.300156 -1.6672 0
M  V30 5910 O 570.738 0.163804 -1.79253 0
M  V30 5911 H 567.113 -0.204834 -0.723566 0
M  V30 5912 H 569.084 -1.59988 -2.51886 0
M  V30 5913 C 567.833 -0.103848 -3.47545 0
M  V30 5914 H 567.156 -0.856367 -3.90521 0
M  V30 5915 H 568.596 0.127725 -4.23808 0
M  V30 5916 C 567.055 1.15563 -3.1646 0
M  V30 5917 O 567.585 2.242 -3.33312 0
M  V30 5918 N 565.791 1.06203 -2.70498 0
M  V30 5919 H 565.338 0.177933 -2.56985 0
M  V30 5920 H 565.296 1.90553 -2.50074 0
M  V30 5921 N 569.068 1.32177 -0.85831 0
M  V30 5922 C 570.314 1.97813 -0.47346 0
M  V30 5923 C 570.669 1.66674 0.961122 0
M  V30 5924 O 569.962 0.94657 1.66585 0
M  V30 5925 C 570.156 3.51372 -0.653658 0
M  V30 5926 C 569.985 3.97433 -2.1042 0
M  V30 5927 C 568.755 4.24338 -2.74345 0
M  V30 5928 C 570.953 4.12233 -3.0752 0
M  V30 5929 N 568.935 4.56672 -4.10272 0
M  V30 5930 C 570.306 4.48146 -4.28445 0
M  V30 5931 C 572.361 3.94577 -3.03667 0
M  V30 5932 C 571.064 4.68246 -5.4602 0
M  V30 5933 C 573.09 4.15864 -4.20489 0
M  V30 5934 C 572.452 4.52098 -5.40173 0
M  V30 5935 H 568.551 0.749808 -0.222061 0
M  V30 5936 H 571.135 1.59927 -1.11047 0
M  V30 5937 H 569.306 3.88372 -0.0463267 0
M  V30 5938 H 571.038 4.03998 -0.238343 0
M  V30 5939 H 567.793 4.16544 -2.25362 0
M  V30 5940 H 568.217 4.77019 -4.80398 0
M  V30 5941 H 572.859 3.65662 -2.12252 0
M  V30 5942 H 570.577 4.96014 -6.37962 0
M  V30 5943 H 574.163 4.03702 -4.18947 0
M  V30 5944 H 573.043 4.68238 -6.29065 0
M  V30 5945 N 570.547 0.616602 1.45037 0
M  V30 5946 C 571.963 0.280994 1.57107 0
M  V30 5947 C 572.163 -1.21627 1.60653 0
M  V30 5948 O 571.219 -1.9997 1.54169 0
M  V30 5949 C 572.532 0.960116 2.8496 0
M  V30 5950 C 574.08 0.936884 2.98649 0
M  V30 5951 C 574.555 1.59619 4.29285 0
M  V30 5952 N 576.046 1.5621 4.36065 0
M  V30 5953 C 576.781 2.04131 5.35834 0
M  V30 5954 N 576.277 2.60177 6.4209 0
M  V30 5955 N 578.07 1.94845 5.27249 0
M  V30 5956 H 570.221 1.58867 1.40979 0
M  V30 5957 H 572.484 0.666024 0.674623 0
M  V30 5958 H 572.19 2.01473 2.88273 0
M  V30 5959 H 572.064 0.488921 3.74018 0
M  V30 5960 H 574.451 -0.109209 2.94898 0
M  V30 5961 H 574.532 1.44643 2.10979 0
M  V30 5962 H 574.176 2.64166 4.33796 0
M  V30 5963 H 574.106 1.06159 5.15789 0
M  V30 5964 H 576.597 1.15276 3.59889 0
M  V30 5965 H 576.91 2.94513 7.1448 0
M  V30 5966 H 575.255 2.64221 6.42816 0
M  V30 5967 H 578.446 1.50792 4.43147 0
M  V30 5968 H 578.619 2.32504 6.04852 0
M  V30 5969 N 572.025 -1.5352 0.356285 0
M  V30 5970 C 573.273 -2.00719 -0.235837 0
M  V30 5971 C 573.594 -1.24551 -1.5004 0
M  V30 5972 O 572.864 -0.356185 -1.92635 0
M  V30 5973 H 571.444 -0.741542 -0.0901366 0
M  V30 5974 H 574.106 -1.88887 0.480378 0
M  V30 5975 H 573.202 -3.08551 -0.469357 0
M  V30 5976 N 573.503 -0.0852151 -1.57369 0
M  V30 5977 C 574.751 0.579658 -1.93609 0
M  V30 5978 C 575.072 1.69332 -0.967043 0
M  V30 5979 O 574.342 1.95892 -0.0174215 0
M  V30 5980 H 572.922 0.217113 -0.714752 0
M  V30 5981 H 575.584 -0.146226 -1.94351 0
M  V30 5982 H 574.68 0.996276 -2.95771 0
M  V30 5983 N 574.981 1.5647 0.188427 0
M  V30 5984 C 576.229 1.80655 0.905986 0
M  V30 5985 C 576.55 0.659391 1.83513 0
M  V30 5986 O 575.82 -0.321868 1.93238 0
M  V30 5987 H 574.4 0.666391 0.337538 0
M  V30 5988 H 577.062 1.93949 0.192339 0
M  V30 5989 H 576.158 2.74066 1.49313 0
M  V30 5990 N 576.459 -0.456382 1.50847 0
M  V30 5991 C 577.707 -1.20497 1.62249 0
M  V30 5992 C 578.028 -1.92156 0.331839 0
M  V30 5993 O 577.298 -1.84751 -0.651443 0
M  V30 5994 H 575.878 -0.447775 0.597918 0
M  V30 5995 H 578.54 -0.525099 1.87693 0
M  V30 5996 H 577.636 -1.94492 2.44089 0
M  V30 5997 N 577.937 -1.40673 -0.710563 0
M  V30 5998 C 579.162 -1.42741 -1.50465 0
M  V30 5999 C 579.587 -0.0302116 -1.88076 0
M  V30 6000 O 578.945 0.962945 -1.53613 0
M  V30 6001 C 578.993 -2.32873 -2.75322 0
M  V30 6002 O 578.097 -1.77544 -3.72226 0
M  V30 6003 H 577.438 -0.485056 -0.45345 0
M  V30 6004 H 579.968 -1.84961 -0.874681 0
M  V30 6005 H 579.978 -2.48233 -3.23797 0
M  V30 6006 H 578.653 -3.34401 -2.47283 0
M  V30 6007 H 577.23 -1.71556 -3.31093 0
M  V30 6008 N 579.415 0.9433 -1.26252 0
M  V30 6009 C 580.348 2.04162 -1.01946 0
M  V30 6010 C 581.326 1.62507 0.0550808 0
M  V30 6011 O 582.51 1.883 -0.0869025 0
M  V30 6012 C 579.637 3.34313 -0.54335 0
M  V30 6013 C 578.683 3.94939 -1.61013 0
M  V30 6014 S 579.516 4.29484 -3.19849 0
M  V30 6015 C 580.672 5.62738 -2.74001 0
M  V30 6016 H 580.905 2.24466 -1.94942 0
M  V30 6017 H 578.438 1.08441 -1.09909 0
M  V30 6018 H 580.396 4.09576 -0.275315 0
M  V30 6019 H 579.057 3.11957 0.36629 0
M  V30 6020 H 578.25 4.88812 -1.22795 0
M  V30 6021 H 577.852 3.26202 -1.82943 0
M  V30 6022 H 580.144 6.41356 -2.18333 0
M  V30 6023 H 581.087 6.05839 -3.66558 0
M  V30 6024 H 581.495 5.22514 -2.13634 0
M  V30 6025 N 580.893 1.08022 1.14757 0
M  V30 6026 C 582.139 0.818552 1.86202 0
M  V30 6027 C 582.494 -0.648563 1.81139 0
M  V30 6028 O 581.787 -1.4704 1.22841 0
M  V30 6029 C 581.981 1.26964 3.34088 0
M  V30 6030 C 581.81 2.77907 3.5355 0
M  V30 6031 C 580.58 3.45604 3.68627 0
M  V30 6032 C 582.778 3.7609 3.50801 0
M  V30 6033 N 580.76 4.85119 3.76209 0
M  V30 6034 C 582.131 5.0148 3.64579 0
M  V30 6035 C 584.186 3.6915 3.34115 0
M  V30 6036 C 582.889 6.20755 3.63395 0
M  V30 6037 C 584.915 4.87896 3.34233 0
M  V30 6038 C 584.277 6.12123 3.48547 0
M  V30 6039 H 580.376 0.352186 0.698204 0
M  V30 6040 H 582.96 1.37781 1.37567 0
M  V30 6041 H 581.131 0.738008 3.81324 0
M  V30 6042 H 582.863 0.954806 3.93275 0
M  V30 6043 H 579.618 2.96016 3.69691 0
M  V30 6044 H 580.042 5.57748 3.83726 0
M  V30 6045 H 584.684 2.74045 3.21961 0
M  V30 6046 H 582.402 7.16175 3.74326 0
M  V30 6047 H 585.988 4.8421 3.2254 0
M  V30 6048 H 584.868 7.02468 3.48581 0
M  V30 6049 N 582.371 -1.3172 0.865308 0
M  V30 6050 C 583.618 -1.96876 0.473931 0
M  V30 6051 C 583.946 -1.68425 -0.972786 0
M  V30 6052 O 583.201 -0.970742 -1.69927 0
M  V30 6053 C 583.5 -3.5102 0.672283 0
M  V30 6054 C 583.166 -3.9948 2.09108 0
M  V30 6055 C 581.828 -4.12425 2.4791 0
M  V30 6056 C 584.18 -4.2503 3.0166 0
M  V30 6057 C 581.508 -4.48267 3.78515 0
M  V30 6058 C 583.86 -4.62335 4.31774 0
M  V30 6059 C 582.524 -4.73486 4.70497 0
M  V30 6060 H 581.794 -0.72042 0.173424 0
M  V30 6061 H 584.441 -1.56937 1.0974 0
M  V30 6062 H 582.746 -3.91785 -0.034356 0
M  V30 6063 H 584.443 -3.99475 0.349353 0
M  V30 6064 H 581.033 -3.89898 1.77981 0
M  V30 6065 H 585.217 -4.14529 2.7291 0
M  V30 6066 H 580.473 -4.55097 4.08285 0
M  V30 6067 H 584.647 -4.81058 5.03543 0
M  V30 6068 H 582.274 -5.01016 5.71741 0
M  V30 6069 N 583.85 -0.624285 -1.44708 0
M  V30 6070 C 584.812 0.0749638 -2.29077 0
M  V30 6071 C 585.812 0.778965 -1.40673 0
M  V30 6072 O 587.003 0.624591 -1.62618 0
M  V30 6073 C 584.135 1.11663 -3.22094 0
M  V30 6074 H 585.327 -0.667013 -2.92388 0
M  V30 6075 H 582.88 -0.384098 -1.51507 0
M  V30 6076 H 583.615 1.88881 -2.63618 0
M  V30 6077 H 583.401 0.61583 -3.87234 0
M  V30 6078 H 584.891 1.60585 -3.8549 0
M  V30 6079 N 585.328 1.53329 -0.364422 0
M  V30 6080 C 586.739 1.86345 0.115039 0
M  V30 6081 C 587.09 1.28505 1.4826 0
M  V30 6082 O 586.215 0.606639 2.07723 0
M  V30 6083 C 586.81 3.38114 0.215522 0
M  V30 6084 C 585.369 3.70932 0.639237 0
M  V30 6085 C 584.516 2.76471 -0.214261 0
M  V30 6086 H 587.467 1.47593 -0.583258 0
M  V30 6087 H 587.488 3.66031 1.0393 0
M  V30 6088 H 587 3.80182 -0.779948 0
M  V30 6089 H 585.101 3.3442 1.64298 0
M  V30 6090 H 585.214 4.77302 0.41465 0
M  V30 6091 H 583.578 2.52724 0.316678 0
M  V30 6092 H 584.361 3.21373 -1.20725 0
M  V30 6093 N 586.806 0.0935595 1.57322 0
M  V30 6094 C 588.052 -0.571355 1.94585 0
M  V30 6095 C 588.385 -1.67929 0.975366 0
M  V30 6096 O 587.66 -1.94498 0.00816206 0
M  V30 6097 C 587.943 -1.12797 3.41978 0
M  V30 6098 C 587.796 -0.0251881 4.49793 0
M  V30 6099 C 589.115 -2.02682 3.90651 0
M  V30 6100 H 586.234 -0.206223 0.70756 0
M  V30 6101 H 588.876 0.163956 1.89291 0
M  V30 6102 H 587.026 -1.75461 3.4662 0
M  V30 6103 H 588.698 0.608979 4.57263 0
M  V30 6104 H 586.941 0.641399 4.29032 0
M  V30 6105 H 587.612 -0.455433 5.50118 0
M  V30 6106 H 590.088 -1.49925 3.88152 0
M  V30 6107 H 588.964 -2.38555 4.94351 0
M  V30 6108 H 589.225 -2.94362 3.29854 0
M  V30 6109 N 588.284 -1.56567 -0.180126 0
M  V30 6110 C 589.509 -1.85975 -0.918041 0
M  V30 6111 C 589.934 -0.678888 -1.75422 0
M  V30 6112 O 589.292 0.372168 -1.77439 0
M  V30 6113 C 589.34 -3.13731 -1.77779 0
M  V30 6114 O 588.444 -2.95335 -2.87838 0
M  V30 6115 H 587.785 -0.61196 -0.257683 0
M  V30 6116 H 590.315 -2.03798 -0.180923 0
M  V30 6117 H 590.325 -3.4491 -2.17948 0
M  V30 6118 H 589 -3.99293 -1.16352 0
M  V30 6119 H 587.577 -2.7549 -2.51316 0
M  V30 6120 N 589.762 0.448376 -1.51087 0
M  V30 6121 C 590.672 1.56882 -1.74428 0
M  V30 6122 C 591.688 1.62268 -0.62809 0
M  V30 6123 O 592.864 1.79716 -0.909075 0
M  V30 6124 C 589.929 2.92947 -1.85426 0
M  V30 6125 C 588.99 2.97766 -3.09247 0
M  V30 6126 C 588.223 4.27341 -3.19711 0
M  V30 6127 O 588.446 5.19112 -2.36387 0
M  V30 6128 O 587.38 4.38219 -4.12611 0
M  V30 6129 H 591.206 1.40104 -2.69452 0
M  V30 6130 H 588.791 0.630247 -1.35456 0
M  V30 6131 H 590.673 3.73719 -1.94709 0
M  V30 6132 H 589.348 3.09876 -0.935887 0
M  V30 6133 H 588.255 2.15989 -3.0545 0
M  V30 6134 H 589.588 2.8578 -4.00738 0
M  V30 6135 N 591.24 1.41047 0.703093 0
M  V30 6136 C 592.203 1.42036 1.79884 0
M  V30 6137 C 593.203 0.312153 1.57741 0
M  V30 6138 O 594.393 0.571672 1.64553 0
M  V30 6139 C 591.525 1.22437 3.18154 0
M  V30 6140 H 592.718 2.39572 1.80403 0
M  V30 6141 H 590.271 1.27079 0.909977 0
M  V30 6142 H 591.006 0.257112 3.23279 0
M  V30 6143 H 590.791 2.02723 3.35627 0
M  V30 6144 H 592.281 1.25946 3.98155 0
M  V30 6145 N 592.718 -0.936591 1.26751 0
M  V30 6146 C 594.134 -1.21095 1.03963 0
M  V30 6147 C 594.334 -2.00156 -0.232372 0
M  V30 6148 O 593.39 -2.3434 -0.940274 0
M  V30 6149 C 594.703 -1.96775 2.27377 0
M  V30 6150 C 596.251 -2.09749 2.32324 0
M  V30 6151 C 596.726 -2.88832 3.55443 0
M  V30 6152 N 598.217 -2.96404 3.55948 0
M  V30 6153 C 598.952 -3.58036 4.47881 0
M  V30 6154 N 598.448 -4.21132 5.50109 0
M  V30 6155 N 600.241 -3.55353 4.35523 0
M  V30 6156 H 592.392 -0.408173 2.08441 0
M  V30 6157 H 594.655 -0.243139 0.91629 0
M  V30 6158 H 594.361 -1.46094 3.19921 0
M  V30 6159 H 594.235 -2.97424 2.31989 0
M  V30 6160 H 596.622 -2.5962 1.40291 0
M  V30 6161 H 596.703 -1.08347 2.31721 0
M  V30 6162 H 596.347 -2.39647 4.47808 0
M  V30 6163 H 596.277 -3.90499 3.53296 0
M  V30 6164 H 598.768 -2.51552 2.82011 0
M  V30 6165 H 599.081 -4.66071 6.16439 0
M  V30 6166 H 597.426 -4.19705 5.53961 0
M  V30 6167 H 600.617 -3.05256 3.54875 0
M  V30 6168 H 600.79 -4.03097 5.07363 0
M  V30 6169 N 594.196 -1.08629 -1.14182 0
M  V30 6170 C 595.444 -0.815731 -1.84906 0
M  V30 6171 C 595.765 0.660441 -1.83475 0
M  V30 6172 O 595.035 1.47888 -1.28476 0
M  V30 6173 H 593.615 -0.298773 -0.684648 0
M  V30 6174 H 596.277 -1.37274 -1.38354 0
M  V30 6175 H 595.373 -1.16193 -2.89665 0
M  V30 6176 N 595.674 1.31259 -0.872281 0
M  V30 6177 C 596.899 2.0133 -0.498099 0
M  V30 6178 C 597.324 1.65031 0.902568 0
M  V30 6179 O 596.682 0.860164 1.59596 0
M  V30 6180 C 596.73 3.54411 -0.665205 0
M  V30 6181 O 595.834 4.11347 0.294473 0
M  V30 6182 H 595.175 0.633844 -0.197832 0
M  V30 6183 H 597.705 1.67402 -1.17633 0
M  V30 6184 H 597.715 4.04147 -0.559373 0
M  V30 6185 H 596.39 3.80171 -1.68651 0
M  V30 6186 H 594.967 3.72624 0.143403 0
M  V30 6187 N 597.152 0.631951 1.44375 0
M  V30 6188 C 598.062 -0.073674 2.34484 0
M  V30 6189 C 599.078 -0.834825 1.52665 0
M  V30 6190 O 600.254 -0.786902 1.85391 0
M  V30 6191 C 597.319 -1.04247 3.30656 0
M  V30 6192 C 596.38 -0.280602 4.28382 0
M  V30 6193 C 595.613 -1.20325 5.19959 0
M  V30 6194 O 595.836 -2.44199 5.15484 0
M  V30 6195 O 594.77 -0.687128 5.97965 0
M  V30 6196 H 598.596 0.667477 2.96274 0
M  V30 6197 H 596.181 0.392144 1.44162 0
M  V30 6198 H 598.063 -1.59981 3.89851 0
M  V30 6199 H 596.738 -1.76422 2.71398 0
M  V30 6200 H 595.645 0.319804 3.72731 0
M  V30 6201 H 596.978 0.401144 4.90563 0
M  V30 6202 N 598.631 -1.53133 0.372548 0
M  V30 6203 C 599.871 -2.03267 -0.214943 0
M  V30 6204 C 600.235 -1.25362 -1.45425 0
M  V30 6205 O 601.436 -1.65536 -2.11781 0
M  V30 6206 C 599.707 -3.53985 -0.492897 0
M  V30 6207 S 601.266 -4.25977 -1.05307 0
M  V30 6208 H 598.084 -0.708289 -0.062029 0
M  V30 6209 H 600.686 -1.88539 0.517025 0
M  V30 6210 H 599.39 -4.08282 0.416442 0
M  V30 6211 H 598.921 -3.72887 -1.25375 0
M  V30 6212 H 600.936 -4.37731 -2.33679 0
M  V30 6213 N 600.109 -0.101901 -1.5727 0
M  V30 6214 C 601.056 0.854577 -2.14396 0
M  V30 6215 C 602.026 1.27521 -1.06432 0
M  V30 6216 O 603.211 1.35575 -1.34253 0
M  V30 6217 C 600.351 2.10576 -2.73408 0
M  V30 6218 C 599.464 1.73504 -3.95626 0
M  V30 6219 C 598.599 2.9346 -4.42781 0
M  V30 6220 C 597.638 2.52547 -5.57572 0
M  V30 6221 N 596.775 3.65359 -5.99547 0
M  V30 6222 H 601.615 0.360578 -2.9581 0
M  V30 6223 H 599.152 0.166303 -1.46157 0
M  V30 6224 H 601.11 2.83859 -3.05745 0
M  V30 6225 H 599.74 2.57463 -1.94711 0
M  V30 6226 H 598.792 0.901622 -3.6956 0
M  V30 6227 H 600.104 1.39426 -4.78917 0
M  V30 6228 H 599.258 3.74988 -4.76937 0
M  V30 6229 H 597.997 3.30753 -3.58404 0
M  V30 6230 H 597.002 1.69446 -5.23037 0
M  V30 6231 H 598.227 2.1639 -6.43702 0
M  V30 6232 H 596.173 4.02358 -5.18116 0
M  V30 6233 H 596.09 3.35148 -6.77652 0
M  V30 6234 H 597.358 4.47378 -6.38336 0
M  V30 6235 N 601.587 1.56661 0.17182 0
M  V30 6236 C 602.534 1.96371 1.21273 0
M  V30 6237 C 603.504 0.82756 1.44016 0
M  V30 6238 O 604.689 1.08764 1.56764 0
M  V30 6239 C 601.829 2.32838 2.54716 0
M  V30 6240 C 600.942 3.59628 2.39356 0
M  V30 6241 C 600.077 3.85311 3.65662 0
M  V30 6242 C 599.116 5.0545 3.45234 0
M  V30 6243 N 598.253 5.27268 4.63608 0
M  V30 6244 H 603.093 2.85106 0.86709 0
M  V30 6245 H 600.63 1.41073 0.416744 0
M  V30 6246 H 602.588 2.52004 3.3249 0
M  V30 6247 H 601.218 1.47214 2.87277 0
M  V30 6248 H 600.27 3.4838 1.52761 0
M  V30 6249 H 601.582 4.4756 2.20207 0
M  V30 6250 H 600.736 4.04841 4.51872 0
M  V30 6251 H 599.475 2.95753 3.8779 0
M  V30 6252 H 598.48 4.85819 2.5741 0
M  V30 6253 H 599.705 5.96538 3.24529 0
M  V30 6254 H 597.651 4.40662 4.85956 0
M  V30 6255 H 597.568 6.09422 4.4737 0
M  V30 6256 H 598.836 5.51277 5.51103 0
M  V30 6257 N 603.065 -0.440357 1.51323 0
M  V30 6258 C 603.997 -1.55254 1.68609 0
M  V30 6259 C 605.01 -1.52614 0.566812 0
M  V30 6260 O 606.199 -1.57445 0.841032 0
M  V30 6261 C 603.299 -2.94169 1.68279 0
M  V30 6262 C 602.472 -3.21346 2.96742 0
M  V30 6263 C 601.531 -4.3997 2.8864 0
M  V30 6264 O 600.557 -4.38771 3.62586 0
M  V30 6265 N 601.759 -5.43367 2.04285 0
M  V30 6266 H 604.524 -1.40831 2.6455 0
M  V30 6267 H 602.085 -0.629251 1.49171 0
M  V30 6268 H 604.077 -3.71543 1.60431 0
M  V30 6269 H 602.647 -3.02205 0.799441 0
M  V30 6270 H 601.867 -2.32299 3.18482 0
M  V30 6271 H 603.155 -3.3633 3.81785 0
M  V30 6272 H 602.553 -5.47176 1.43578 0
M  V30 6273 H 601.11 -6.19605 2.02318 0
M  V30 6274 N 604.543 -1.41418 -0.695603 0
M  V30 6275 C 605.506 -1.42988 -1.79129 0
M  V30 6276 C 606.506 -0.320514 -1.57573 0
M  V30 6277 O 607.696 -0.58039 -1.64247 0
M  V30 6278 C 604.828 -1.24122 -3.175 0
M  V30 6279 H 606.021 -2.40526 -1.7913 0
M  V30 6280 H 603.574 -1.2756 -0.903225 0
M  V30 6281 H 604.309 -0.274253 -3.23138 0
M  V30 6282 H 604.094 -2.045 -3.34547 0
M  V30 6283 H 605.584 -1.28056 -3.97481 0
M  V30 6284 N 606.021 0.929856 -1.27246 0
M  V30 6285 C 606.984 2.01172 -1.09829 0
M  V30 6286 C 607.984 1.60743 -0.0429687 0
M  V30 6287 O 609.174 1.71813 -0.287373 0
M  V30 6288 C 606.306 3.34191 -0.673003 0
M  V30 6289 H 607.499 2.18054 -2.05895 0
M  V30 6290 H 605.052 1.11036 -1.10003 0
M  V30 6291 H 605.787 3.23009 0.289134 0
M  V30 6292 H 605.572 3.64892 -1.43515 0
M  V30 6293 H 607.062 4.13646 -0.573323 0
M  V30 6294 N 607.499 1.09233 1.13605 0
M  V30 6295 C 608.432 0.6739 2.18023 0
M  V30 6296 C 609.41 -0.318603 1.59448 0
M  V30 6297 O 610.594 -0.220452 1.87206 0
M  V30 6298 C 607.721 -0.00751458 3.38699 0
M  V30 6299 C 606.767 0.946481 4.15865 0
M  V30 6300 S 607.6 2.45753 4.75779 0
M  V30 6301 C 608.756 1.78846 5.99804 0
M  V30 6302 H 608.989 1.55846 2.53178 0
M  V30 6303 H 606.522 0.908118 1.2487 0
M  V30 6304 H 608.48 -0.394368 4.08601 0
M  V30 6305 H 607.141 -0.868693 3.01849 0
M  V30 6306 H 606.334 0.416742 5.02274 0
M  V30 6307 H 605.936 1.27464 3.51609 0
M  V30 6308 H 608.228 1.11135 6.68323 0
M  V30 6309 H 609.171 2.63163 6.57382 0
M  V30 6310 H 609.579 1.25823 5.50299 0
M  V30 6311 N 608.977 -1.30795 0.87923 0
M  V30 6312 C 609.94 -2.26563 0.346676 0
M  V30 6313 C 610.94 -1.52578 -0.507597 0
M  V30 6314 O 612.13 -1.71318 -0.315575 0
M  V30 6315 C 609.262 -3.37115 -0.506611 0
M  V30 6316 H 610.455 -2.75183 1.19223 0
M  V30 6317 H 608.008 -1.41886 0.655598 0
M  V30 6318 H 608.743 -2.93802 -1.37299 0
M  V30 6319 H 608.528 -3.91959 0.105218 0
M  V30 6320 H 610.018 -4.08412 -0.871192 0
M  V30 6321 N 610.455 -0.639598 -1.44038 0
M  V30 6322 C 611.402 0.0602458 -2.30721 0
M  V30 6323 C 612.372 0.828352 -1.43971 0
M  V30 6324 O 613.557 0.807693 -1.72861 0
M  V30 6325 C 610.697 1.03008 -3.29368 0
M  V30 6326 C 609.81 0.259502 -4.3122 0
M  V30 6327 C 608.945 1.22191 -5.16955 0
M  V30 6328 C 607.984 0.440978 -6.10509 0
M  V30 6329 N 607.121 1.35428 -6.88915 0
M  V30 6330 H 611.961 -0.684867 -2.90023 0
M  V30 6331 H 609.498 -0.349509 -1.42888 0
M  V30 6332 H 611.456 1.60583 -3.85057 0
M  V30 6333 H 610.086 1.74222 -2.71747 0
M  V30 6334 H 609.138 -0.432317 -3.77935 0
M  V30 6335 H 610.45 -0.348347 -4.97582 0
M  V30 6336 H 609.604 1.86873 -5.77203 0
M  V30 6337 H 608.343 1.86367 -4.50687 0
M  V30 6338 H 607.348 -0.219279 -5.49363 0
M  V30 6339 H 608.573 -0.196192 -6.78817 0
M  V30 6340 H 606.519 1.9831 -6.25307 0
M  V30 6341 H 606.436 0.800657 -7.51748 0
M  V30 6342 H 607.704 1.98967 -7.53679 0
M  V30 6343 N 611.933 1.52934 -0.380664 0
M  V30 6344 C 613.349 1.59571 -0.0302429 0
M  V30 6345 C 613.549 1.39509 1.45394 0
M  V30 6346 O 612.605 1.20777 2.21741 0
M  V30 6347 C 613.918 2.96519 -0.499691 0
M  V30 6348 C 615.466 3.09672 -0.455204 0
M  V30 6349 C 615.941 4.49056 -0.900703 0
M  V30 6350 N 617.432 4.55215 -0.856367 0
M  V30 6351 C 618.167 5.61282 -1.17259 0
M  V30 6352 N 617.663 6.75035 -1.55885 0
M  V30 6353 N 619.456 5.51343 -1.0944 0
M  V30 6354 H 611.607 1.64224 -1.347 0
M  V30 6355 H 613.87 0.771033 -0.551554 0
M  V30 6356 H 613.576 3.16388 -1.53595 0
M  V30 6357 H 613.45 3.77052 0.105789 0
M  V30 6358 H 615.837 2.89504 0.571949 0
M  V30 6359 H 615.918 2.31113 -1.09638 0
M  V30 6360 H 615.562 4.69964 -1.92604 0
M  V30 6361 H 615.492 5.26068 -0.236629 0
M  V30 6362 H 617.983 3.73546 -0.572013 0
M  V30 6363 H 618.296 7.51926 -1.784 0
M  V30 6364 H 616.641 6.76388 -1.59764 0
M  V30 6365 H 619.832 4.61356 -0.791713 0
M  V30 6366 H 620.005 6.33905 -1.34417 0
M  V30 6367 N 613.412 0.11024 1.57214 0
M  V30 6368 C 614.658 -0.550684 1.9518 0
M  V30 6369 C 614.991 -1.66885 0.993122 0
M  V30 6370 O 614.266 -1.94479 0.0287907 0
M  V30 6371 C 614.549 -1.09163 3.43155 0
M  V30 6372 C 614.402 0.0225198 4.49794 0
M  V30 6373 C 615.721 -1.98527 3.92778 0
M  V30 6374 H 612.84 -0.198706 0.709708 0
M  V30 6375 H 615.482 0.184024 1.89107 0
M  V30 6376 H 613.632 -1.71775 3.48462 0
M  V30 6377 H 615.304 0.657443 4.56591 0
M  V30 6378 H 613.547 0.686868 4.28328 0
M  V30 6379 H 614.218 -0.39706 5.5057 0
M  V30 6380 H 616.694 -1.458 3.8972 0
M  V30 6381 H 615.57 -2.33298 4.96853 0
M  V30 6382 H 615.831 -2.90846 3.32958 0
M  V30 6383 N 614.89 -1.56749 -0.16351 0
M  V30 6384 C 615.82 -2.00042 -1.20438 0
M  V30 6385 C 616.801 -0.877256 -1.45733 0
M  V30 6386 O 617.986 -1.1439 -1.56935 0
M  V30 6387 C 615.116 -2.36697 -2.54149 0
M  V30 6388 C 614.07 -3.52046 -2.43408 0
M  V30 6389 C 613.396 -3.74466 -3.81679 0
M  V30 6390 C 614.696 -4.85247 -1.93216 0
M  V30 6391 H 616.39 -2.87244 -0.844477 0
M  V30 6392 H 613.936 -1.38194 -0.40478 0
M  V30 6393 H 615.889 -2.65582 -3.27176 0
M  V30 6394 H 614.613 -1.46414 -2.91943 0
M  V30 6395 H 613.272 -3.23301 -1.72834 0
M  V30 6396 H 612.92 -2.81461 -4.1688 0
M  V30 6397 H 612.62 -4.52084 -3.75359 0
M  V30 6398 H 614.144 -4.0576 -4.5628 0
M  V30 6399 H 615.558 -5.12957 -2.56023 0
M  V30 6400 H 613.955 -5.66556 -1.97825 0
M  V30 6401 H 615.025 -4.7672 -0.88689 0
M  V30 6402 N 616.368 0.432326 -1.51554 0
M  V30 6403 C 617.318 1.52366 -1.69614 0
M  V30 6404 C 618.302 1.51205 -0.550083 0
M  V30 6405 O 619.494 1.57573 -0.806206 0
M  V30 6406 C 616.623 2.90513 -1.82913 0
M  V30 6407 C 615.709 2.9641 -3.03318 0
M  V30 6408 N 616.1 2.72043 -4.26411 0
M  V30 6409 C 614.398 3.27572 -3.02675 0
M  V30 6410 C 615.099 2.83912 -5.07709 0
M  V30 6411 N 614.075 3.15798 -4.42462 0
M  V30 6412 H 617.877 1.32285 -2.62446 0
M  V30 6413 H 615.391 0.639708 -1.4927 0
M  V30 6414 H 617.388 3.69032 -1.93962 0
M  V30 6415 H 616.048 3.1161 -0.912655 0
M  V30 6416 H 617.059 2.46876 -4.55272 0
M  V30 6417 H 613.736 3.54411 -2.20678 0
M  V30 6418 H 615.126 2.68984 -6.15709 0
M  V30 6419 N 617.846 1.41785 0.688094 0
M  V30 6420 C 618.793 1.44221 1.80191 0
M  V30 6421 C 619.763 0.295688 1.63447 0
M  V30 6422 O 620.948 0.49783 1.84191 0
M  V30 6423 C 618.088 1.33743 3.1813 0
M  V30 6424 C 617.201 2.58325 3.46254 0
M  V30 6425 C 616.336 2.40086 4.73848 0
M  V30 6426 C 615.375 3.60107 4.94964 0
M  V30 6427 N 614.512 3.40892 6.13789 0
M  V30 6428 H 619.352 2.39411 1.77444 0
M  V30 6429 H 616.889 1.18876 0.866423 0
M  V30 6430 H 618.847 1.25669 3.97823 0
M  V30 6431 H 617.477 0.42157 3.20035 0
M  V30 6432 H 616.529 2.7682 2.60912 0
M  V30 6433 H 617.841 3.4758 3.57756 0
M  V30 6434 H 616.995 2.29522 5.61609 0
M  V30 6435 H 615.734 1.483 4.64606 0
M  V30 6436 H 614.739 3.71118 4.05649 0
M  V30 6437 H 615.964 4.52857 5.06061 0
M  V30 6438 H 613.91 2.51812 6.05745 0
M  V30 6439 H 613.827 4.23727 6.26092 0
M  V30 6440 H 615.095 3.34114 7.04264 0
M  V30 6441 N 619.324 -0.923095 1.27737 0
M  V30 6442 C 620.554 -1.70277 1.17001 0
M  V30 6443 C 620.962 -1.87188 -0.275199 0
M  V30 6444 O 620.305 -1.39195 -1.19877 0
M  V30 6445 C 620.367 -3.11976 1.78637 0
M  V30 6446 C 620.031 -3.18386 3.27841 0
M  V30 6447 C 621.028 -3.00287 4.2441 0
M  V30 6448 C 618.713 -3.41198 3.68632 0
M  V30 6449 C 620.707 -3.04896 5.59747 0
M  V30 6450 C 618.394 -3.4544 5.04097 0
M  V30 6451 C 619.392 -3.27309 5.99465 0
M  V30 6452 O 619.08 -3.31295 7.32461 0
M  V30 6453 H 618.812 -0.539366 0.407505 0
M  V30 6454 H 621.366 -1.16446 1.69202 0
M  V30 6455 H 619.596 -3.67308 1.20919 0
M  V30 6456 H 621.285 -3.7193 1.6255 0
M  V30 6457 H 622.051 -2.825 3.94232 0
M  V30 6458 H 617.93 -3.54359 2.94873 0
M  V30 6459 H 621.474 -2.90662 6.34162 0
M  V30 6460 H 617.371 -3.62753 5.33929 0
M  V30 6461 H 618.139 -3.47719 7.40968 0
M  V30 6462 N 620.802 -1.09834 -1.13024 0
M  V30 6463 C 622.05 -0.835297 -1.8403 0
M  V30 6464 C 622.371 0.640944 -1.84165 0
M  V30 6465 O 621.641 1.46517 -1.30037 0
M  V30 6466 H 620.221 -0.306018 -0.681441 0
M  V30 6467 H 622.883 -1.38734 -1.36891 0
M  V30 6468 H 621.979 -1.19258 -2.88416 0
M  V30 6469 N 622.28 1.30327 -0.886154 0
M  V30 6470 C 623.21 2.30549 -0.370028 0
M  V30 6471 C 624.191 1.61039 0.547751 0
M  V30 6472 O 625.376 1.8864 0.461353 0
M  V30 6473 C 622.506 3.44808 0.415275 0
M  V30 6474 C 621.46 4.26024 -0.41085 0
M  V30 6475 C 620.786 5.32347 0.501128 0
M  V30 6476 C 622.086 4.95433 -1.65359 0
M  V30 6477 H 623.78 2.73969 -1.20754 0
M  V30 6478 H 621.326 1.3171 -0.582097 0
M  V30 6479 H 623.279 4.13986 0.78699 0
M  V30 6480 H 622.003 3.00197 1.28644 0
M  V30 6481 H 620.662 3.58535 -0.764719 0
M  V30 6482 H 620.31 4.83982 1.37004 0
M  V30 6483 H 620.01 5.87581 -0.0478356 0
M  V30 6484 H 621.534 6.0438 0.869333 0
M  V30 6485 H 622.948 5.5712 -1.35239 0
M  V30 6486 H 621.345 5.60537 -2.14284 0
M  V30 6487 H 622.415 4.21493 -2.39733 0
M  V30 6488 N 623.758 0.647228 1.43697 0
M  V30 6489 C 625.035 0.0883758 1.954 0
M  V30 6490 C 625.415 -1.39006 1.58873 0
M  V30 6491 O 624.763 -2.11255 0.87083 0
M  V30 6492 C 624.973 0.328263 3.47453 0
M  V30 6493 C 626.321 0.230009 4.23977 0
M  V30 6494 O 627.345 0.260496 3.55246 0
M  V30 6495 O 626.204 0.148615 5.46298 0
M  V30 6496 H 623.298 -0.0130683 0.826897 0
M  V30 6497 H 625.844 0.72005 1.53666 0
M  V30 6498 H 624.616 1.3535 3.67146 0
M  V30 6499 H 624.239 -0.336772 3.96171 0
M  V30 6500 N 625.236 -1.5273 0.388769 0
M  V30 6501 C 626.466 -2.05693 -0.193397 0
M  V30 6502 C 626.874 -1.26038 -1.41107 0
M  V30 6503 O 626.217 -0.30001 -1.81234 0
M  V30 6504 C 626.279 -3.53962 -0.628561 0
M  V30 6505 C 625.943 -4.54519 0.475576 0
M  V30 6506 C 626.94 -5.02526 1.33281 0
M  V30 6507 C 624.625 -4.98174 0.642453 0
M  V30 6508 C 626.619 -5.92812 2.34205 0
M  V30 6509 C 624.306 -5.88262 1.65503 0
M  V30 6510 C 625.304 -6.35473 2.50325 0
M  V30 6511 O 624.992 -7.23781 3.49852 0
M  V30 6512 H 624.724 -0.675197 -0.0329395 0
M  V30 6513 H 627.278 -1.97835 0.552326 0
M  V30 6514 H 625.508 -3.59437 -1.42625 0
M  V30 6515 H 627.197 -3.89669 -1.13633 0
M  V30 6516 H 627.963 -4.6953 1.21519 0
M  V30 6517 H 623.842 -4.60999 -0.00805093 0
M  V30 6518 H 627.386 -6.29585 3.00447 0
M  V30 6519 H 623.283 -6.20672 1.77304 0
M  V30 6520 H 624.051 -7.4184 3.45855 0
M  V30 6521 N 626.714 -0.118576 -1.57153 0
M  V30 6522 C 627.96 0.540326 -1.95469 0
M  V30 6523 C 628.293 1.66356 -1.00196 0
M  V30 6524 O 627.568 1.94461 -0.039104 0
M  V30 6525 C 627.851 1.07342 -3.43729 0
M  V30 6526 C 627.704 -0.0463732 -4.49776 0
M  V30 6527 C 629.023 1.96442 -3.93826 0
M  V30 6528 H 626.142 0.19494 -0.710751 0
M  V30 6529 H 628.784 -0.19405 -1.89006 0
M  V30 6530 H 626.934 1.69925 -3.49368 0
M  V30 6531 H 628.606 -0.681648 -4.56236 0
M  V30 6532 H 626.849 -0.709574 -4.27957 0
M  V30 6533 H 627.52 0.367856 -5.50773 0
M  V30 6534 H 629.996 1.43731 -3.90488 0
M  V30 6535 H 628.872 2.3066 -4.98084 0
M  V30 6536 H 629.133 2.89077 -3.34495 0
M  V30 6537 N 628.193 1.56834 0.155195 0
M  V30 6538 C 629.156 1.96748 1.17571 0
M  V30 6539 C 630.156 0.853006 1.3631 0
M  V30 6540 O 631.346 1.11978 1.33441 0
M  V30 6541 C 628.478 2.27631 2.53765 0
M  V30 6542 H 629.671 2.88085 0.833498 0
M  V30 6543 H 627.224 1.51141 0.398242 0
M  V30 6544 H 627.959 1.39059 2.92973 0
M  V30 6545 H 627.744 3.0888 2.41527 0
M  V30 6546 H 629.234 2.59377 3.27282 0
M  V30 6547 N 629.671 -0.424282 1.51781 0
M  V30 6548 C 630.581 -1.54087 1.76902 0
M  V30 6549 C 631.597 -1.61249 0.653826 0
M  V30 6550 O 632.773 -1.78247 0.937552 0
M  V30 6551 C 629.838 -2.8996 1.90063 0
M  V30 6552 C 628.899 -2.92809 3.13945 0
M  V30 6553 C 628.132 -4.22201 3.26469 0
M  V30 6554 O 628.355 -5.15286 2.44616 0
M  V30 6555 O 627.289 -4.31599 4.1953 0
M  V30 6556 H 631.115 -1.358 2.71647 0
M  V30 6557 H 628.7 -0.608618 1.36441 0
M  V30 6558 H 630.582 -3.70575 2.0063 0
M  V30 6559 H 629.257 -3.08347 0.985067 0
M  V30 6560 H 628.164 -2.11102 3.08847 0
M  V30 6561 H 629.497 -2.79369 4.05233 0
M  V30 6562 N 631.149 -1.42148 -0.680565 0
M  V30 6563 C 632.396 -1.4231 -1.44063 0
M  V30 6564 C 632.724 -0.037488 -1.94464 0
M  V30 6565 O 631.979 0.953184 -1.70918 0
M  V30 6566 C 632.278 -2.38945 -2.65782 0
M  V30 6567 C 631.944 -3.85455 -2.33956 0
M  V30 6568 C 630.606 -4.25364 -2.24987 0
M  V30 6569 C 632.958 -4.77895 -2.08004 0
M  V30 6570 C 630.286 -5.55701 -1.88184 0
M  V30 6571 C 632.638 -6.08568 -1.72706 0
M  V30 6572 C 631.302 -6.47482 -1.62244 0
M  V30 6573 H 630.572 -0.520748 -0.527164 0
M  V30 6574 H 633.219 -1.7505 -0.776524 0
M  V30 6575 H 631.524 -1.99511 -3.37198 0
M  V30 6576 H 633.221 -2.36336 -3.23954 0
M  V30 6577 H 629.811 -3.53855 -2.41836 0
M  V30 6578 H 633.995 -4.47854 -2.1387 0
M  V30 6579 H 629.251 -5.84718 -1.78648 0
M  V30 6580 H 633.425 -6.79688 -1.5165 0
M  V30 6581 H 631.052 -7.48387 -1.33496 0
M  V30 6582 N 632.627 0.916307 -1.28225 0
M  V30 6583 C 633.876 1.65975 -1.14608 0
M  V30 6584 C 634.189 1.93204 0.305191 0
M  V30 6585 O 635.395 2.65611 0.562432 0
M  V30 6586 C 633.851 2.98989 -2.00333 0
M  V30 6587 C 633.459 2.79417 -3.50186 0
M  V30 6588 C 635.203 3.76856 -1.95397 0
M  V30 6589 C 633.11 4.08056 -4.28071 0
M  V30 6590 H 632.04 0.622587 -0.425324 0
M  V30 6591 H 634.691 1.01705 -1.52736 0
M  V30 6592 H 633.073 3.6438 -1.5506 0
M  V30 6593 H 634.247 2.22723 -4.034 0
M  V30 6594 H 632.562 2.14966 -3.56621 0
M  V30 6595 H 635.159 4.72203 -2.50856 0
M  V30 6596 H 635.502 4.05776 -0.930137 0
M  V30 6597 H 636.035 3.1828 -2.38626 0
M  V30 6598 H 632.774 3.8431 -5.31024 0
M  V30 6599 H 632.294 4.64371 -3.79631 0
M  V30 6600 H 633.973 4.76333 -4.37854 0
M  V30 6601 N 634.105 1.10431 1.1244 0
M  V30 6602 C 635.351 0.847972 1.84221 0
M  V30 6603 C 635.684 -0.624903 1.83871 0
M  V30 6604 O 634.959 -1.46074 1.28423 0
M  V30 6605 C 635.242 1.39695 3.319 0
M  V30 6606 C 635.095 2.93668 3.40704 0
M  V30 6607 C 636.414 1.03924 4.27654 0
M  V30 6608 H 633.533 0.309502 0.668863 0
M  V30 6609 H 636.175 1.36745 1.31912 0
M  V30 6610 H 634.325 0.955095 3.76577 0
M  V30 6611 H 635.997 3.46379 3.04662 0
M  V30 6612 H 634.24 3.30272 2.81252 0
M  V30 6613 H 634.911 3.27162 4.446 0
M  V30 6614 H 637.387 1.42049 3.91102 0
M  V30 6615 H 636.263 1.45027 5.29394 0
M  V30 6616 H 636.524 -0.051336 4.4207 0
M  V30 6617 N 635.583 -1.29855 0.893053 0
M  V30 6618 C 636.546 -2.26183 0.370687 0
M  V30 6619 C 637.546 -1.53108 -0.491385 0
M  V30 6620 O 638.736 -1.71643 -0.297386 0
M  V30 6621 C 635.868 -3.37633 -0.470827 0
M  V30 6622 H 637.061 -2.73903 1.22135 0
M  V30 6623 H 634.614 -1.41183 0.67061 0
M  V30 6624 H 635.349 -2.95241 -1.34175 0
M  V30 6625 H 635.134 -3.91825 0.146784 0
M  V30 6626 H 636.624 -4.09313 -0.827825 0
M  V30 6627 N 637.061 -0.65484 -1.43351 0
M  V30 6628 C 638.472 -0.248506 -1.85039 0
M  V30 6629 C 638.823 1.20526 -1.54816 0
M  V30 6630 O 637.948 1.92016 -0.99794 0
M  V30 6631 C 638.543 -0.444241 -3.35875 0
M  V30 6632 C 637.102 -0.0922108 -3.76287 0
M  V30 6633 C 636.249 -0.746327 -2.67068 0
M  V30 6634 H 639.2 -0.8584 -1.33481 0
M  V30 6635 H 639.221 0.309762 -3.79237 0
M  V30 6636 H 638.733 -1.50239 -3.5784 0
M  V30 6637 H 636.834 0.96328 -3.59933 0
M  V30 6638 H 636.947 -0.518807 -4.76283 0
M  V30 6639 H 635.311 -0.179416 -2.54067 0
M  V30 6640 H 636.094 -1.80754 -2.91861 0
M  V30 6641 N 638.539 1.52521 -0.396863 0
M  V30 6642 C 639.955 1.5953 -0.0471659 0
M  V30 6643 C 640.155 1.41044 1.43906 0
M  V30 6644 O 639.211 1.23122 2.20448 0
M  V30 6645 C 640.524 2.95972 -0.531113 0
M  V30 6646 C 642.072 3.09172 -0.488024 0
M  V30 6647 C 642.547 4.48075 -0.948281 0
M  V30 6648 N 644.038 4.54281 -0.9046 0
M  V30 6649 C 644.773 5.60007 -1.23205 0
M  V30 6650 N 644.269 6.73343 -1.63036 0
M  V30 6651 N 646.062 5.50151 -1.15282 0
M  V30 6652 H 638.213 1.62786 -1.36435 0
M  V30 6653 H 640.476 0.76514 -0.559701 0
M  V30 6654 H 640.182 3.14741 -1.56942 0
M  V30 6655 H 640.056 3.77143 0.0657922 0
M  V30 6656 H 642.443 2.90095 0.541211 0
M  V30 6657 H 642.524 2.29937 -1.12083 0
M  V30 6658 H 642.168 4.67894 -1.97578 0
M  V30 6659 H 642.098 5.25788 -0.292412 0
M  V30 6660 H 644.589 3.72918 -0.6116 0
M  V30 6661 H 644.902 7.49992 -1.86365 0
M  V30 6662 H 643.247 6.74655 -1.66929 0
M  V30 6663 H 646.438 4.6049 -0.840602 0
M  V30 6664 H 646.611 6.32444 -1.41133 0
M  V30 6665 N 640.017 0.126909 1.57088 0
M  V30 6666 C 641.294 -0.573152 1.87014 0
M  V30 6667 C 641.674 -1.84297 1.02945 0
M  V30 6668 O 641.022 -2.28232 0.110573 0
M  V30 6669 C 641.232 -0.857984 3.38289 0
M  V30 6670 C 642.58 -1.20759 4.07066 0
M  V30 6671 O 643.604 -0.947992 3.43353 0
M  V30 6672 O 642.463 -1.69516 5.19545 0
M  V30 6673 H 639.557 -0.290082 0.774456 0
M  V30 6674 H 642.103 0.162008 1.68925 0
M  V30 6675 H 640.875 0.0415286 3.91278 0
M  V30 6676 H 640.498 -1.64803 3.61837 0
M  V30 6677 N 641.495 -1.56914 -0.146875 0
M  V30 6678 C 642.428 -1.93425 -1.21087 0
M  V30 6679 C 643.406 -0.800106 -1.41552 0
M  V30 6680 O 644.59 -1.05572 -1.56162 0
M  V30 6681 C 641.717 -2.20639 -2.56975 0
M  V30 6682 C 640.763 -3.43279 -2.53104 0
M  V30 6683 S 641.596 -4.96836 -1.99786 0
M  V30 6684 C 642.752 -5.27172 -3.37403 0
M  V30 6685 H 642.985 -2.8337 -0.899378 0
M  V30 6686 H 640.518 -1.50322 -0.352494 0
M  V30 6687 H 642.476 -2.36998 -3.35175 0
M  V30 6688 H 641.137 -1.31357 -2.85314 0
M  V30 6689 H 640.33 -3.59599 -3.53136 0
M  V30 6690 H 639.932 -3.26163 -1.83012 0
M  V30 6691 H 642.224 -5.20647 -4.33513 0
M  V30 6692 H 643.167 -6.28626 -3.25937 0
M  V30 6693 H 643.575 -4.54687 -3.34544 0
M  V30 6694 N 642.974 0.416227 -1.52004 0
M  V30 6695 C 643.924 1.50558 -1.7122 0
M  V30 6696 C 644.908 1.50613 -0.56609 0
M  V30 6697 O 646.1 1.56709 -0.822874 0
M  V30 6698 C 643.229 2.88556 -1.85984 0
M  V30 6699 C 642.315 2.93177 -3.06445 0
M  V30 6700 N 642.706 2.67505 -4.29272 0
M  V30 6701 C 641.004 3.24343 -3.06133 0
M  V30 6702 C 641.705 2.78511 -5.10692 0
M  V30 6703 N 640.681 3.11087 -4.45787 0
M  V30 6704 H 644.483 1.29494 -2.63834 0
M  V30 6705 H 641.997 0.62384 -1.4994 0
M  V30 6706 H 643.994 3.66954 -1.97865 0
M  V30 6707 H 642.654 3.10624 -0.945654 0
M  V30 6708 H 643.665 2.42033 -4.57865 0
M  V30 6709 H 640.342 3.52051 -2.24425 0
M  V30 6710 H 641.732 2.62438 -6.18527 0
M  V30 6711 N 644.452 1.42507 0.673017 0
M  V30 6712 C 645.402 1.4258 1.77919 0
M  V30 6713 C 646.386 0.296885 1.58137 0
M  V30 6714 O 647.578 0.539243 1.68586 0
M  V30 6715 C 644.707 1.33238 3.1639 0
M  V30 6716 C 643.793 2.51081 3.41788 0
M  V30 6717 N 644.184 3.76498 3.37761 0
M  V30 6718 C 642.482 2.4538 3.72431 0
M  V30 6719 C 643.183 4.54784 3.62693 0
M  V30 6720 N 642.159 3.8522 3.83544 0
M  V30 6721 H 645.961 2.37442 1.73201 0
M  V30 6722 H 643.475 1.36881 0.873924 0
M  V30 6723 H 645.472 1.31372 3.9566 0
M  V30 6724 H 644.132 0.393794 3.22303 0
M  V30 6725 H 645.143 4.09068 3.17622 0
M  V30 6726 H 641.82 1.60109 3.85579 0
M  V30 6727 H 643.21 5.63774 3.65525 0
M  V30 6728 N 645.93 -0.909495 1.28709 0
M  V30 6729 C 647.176 -1.66151 1.16283 0
M  V30 6730 C 647.509 -1.92067 -0.287069 0
M  V30 6731 O 646.784 -1.52409 -1.20837 0
M  V30 6732 C 647.067 -3.01676 1.9663 0
M  V30 6733 C 646.92 -2.82888 3.49707 0
M  V30 6734 C 648.239 -4.02274 1.78504 0
M  V30 6735 H 645.358 -0.602966 0.423793 0
M  V30 6736 H 648 -1.05418 1.58073 0
M  V30 6737 H 646.15 -3.53515 1.61119 0
M  V30 6738 H 647.822 -2.38026 3.95147 0
M  V30 6739 H 646.065 -2.17862 3.75125 0
M  V30 6740 H 646.736 -3.79147 4.01187 0
M  V30 6741 H 649.212 -3.59511 2.09503 0
M  V30 6742 H 648.088 -4.95056 2.37088 0
M  V30 6743 H 648.349 -4.35903 0.737647 0
M  V30 6744 N 647.408 -1.11026 -1.11852 0
M  V30 6745 C 648.657 -0.851249 -1.82857 0
M  V30 6746 C 648.97 0.62514 -1.85341 0
M  V30 6747 O 650.176 1.00026 -2.52403 0
M  V30 6748 C 648.632 -1.47309 -3.28372 0
M  V30 6749 C 648.24 -2.9832 -3.34229 0
M  V30 6750 C 649.984 -1.29373 -4.04306 0
M  V30 6751 C 647.891 -3.53509 -4.74115 0
M  V30 6752 H 646.821 -0.314794 -0.685143 0
M  V30 6753 H 649.472 -1.33499 -1.25898 0
M  V30 6754 H 647.854 -0.917017 -3.85236 0
M  V30 6755 H 649.028 -3.60295 -2.87271 0
M  V30 6756 H 647.343 -3.15482 -2.71772 0
M  V30 6757 H 649.94 -1.68042 -5.07608 0
M  V30 6758 H 650.283 -0.235879 -4.15631 0
M  V30 6759 H 650.816 -1.8182 -3.53817 0
M  V30 6760 H 647.555 -4.58987 -4.67986 0
M  V30 6761 H 647.075 -2.96305 -5.21501 0
M  V30 6762 H 648.754 -3.51693 -5.43066 0
M  V30 6763 N 648.886 1.2938 -0.899927 0
M  V30 6764 C 650.163 1.9046 -0.445443 0
M  V30 6765 C 650.543 1.81683 1.07492 0
M  V30 6766 O 649.891 1.24371 1.91688 0
M  V30 6767 C 650.101 3.35529 -0.960279 0
M  V30 6768 C 651.449 4.12556 -1.00412 0
M  V30 6769 O 652.473 3.44434 -0.907965 0
M  V30 6770 O 651.332 5.34294 -1.14857 0
M  V30 6771 H 648.426 0.815253 -0.138893 0
M  V30 6772 H 650.972 1.37844 -0.989808 0
M  V30 6773 H 649.744 3.36074 -2.00425 0
M  V30 6774 H 649.367 3.95624 -0.395939 0
M  V30 6775 N 650.364 0.662433 1.43002 0
M  V30 6776 C 651.61 0.179857 2.02001 0
M  V30 6777 C 651.943 -1.20625 1.52195 0
M  V30 6778 O 651.218 -1.80726 0.718911 0
M  V30 6779 C 651.501 0.200845 3.59539 0
M  V30 6780 C 651.354 1.62153 4.19555 0
M  V30 6781 C 652.673 -0.457738 4.37713 0
M  V30 6782 H 649.792 0.0668305 0.733964 0
M  V30 6783 H 652.434 0.84487 1.70182 0
M  V30 6784 H 650.584 -0.365411 3.86778 0
M  V30 6785 H 652.256 2.23908 4.03315 0
M  V30 6786 H 650.499 2.16601 3.75854 0
M  V30 6787 H 651.17 1.58799 5.28665 0
M  V30 6788 H 653.646 0.0241495 4.16093 0
M  V30 6789 H 652.522 -0.412363 5.47349 0
M  V30 6790 H 652.783 -1.53336 4.14657 0
M  V30 6791 N 651.842 -1.52309 0.404946 0
M  V30 6792 C 652.772 -2.29805 -0.41376 0
M  V30 6793 C 653.753 -1.3384 -1.0498 0
M  V30 6794 O 654.938 -1.62745 -1.05961 0
M  V30 6795 C 652.068 -3.11639 -1.53292 0
M  V30 6796 C 651.022 -4.15616 -1.02211 0
M  V30 6797 C 650.348 -4.8577 -2.23455 0
M  V30 6798 C 651.648 -5.2224 -0.0790725 0
M  V30 6799 H 653.342 -2.98493 0.232878 0
M  V30 6800 H 650.888 -1.43552 0.113441 0
M  V30 6801 H 652.841 -3.64618 -2.11262 0
M  V30 6802 H 651.565 -2.40712 -2.20738 0
M  V30 6803 H 650.224 -3.63641 -0.46484 0
M  V30 6804 H 649.872 -4.11376 -2.89445 0
M  V30 6805 H 649.572 -5.56058 -1.89929 0
M  V30 6806 H 651.096 -5.4156 -2.82038 0
M  V30 6807 H 652.51 -5.70485 -0.567438 0
M  V30 6808 H 650.907 -5.99867 0.167167 0
M  V30 6809 H 651.977 -4.77078 0.867447 0
M  V30 6810 N 653.32 -0.135238 -1.57019 0
M  V30 6811 C 654.55 0.525303 -1.9981 0
M  V30 6812 C 654.958 1.59724 -1.01415 0
M  V30 6813 O 654.301 1.837 -0.00130938 0
M  V30 6814 C 654.363 1.19578 -3.3903 0
M  V30 6815 C 654.027 0.269855 -4.56203 0
M  V30 6816 C 655.024 -0.497905 -5.1751 0
M  V30 6817 C 652.709 0.176188 -5.01991 0
M  V30 6818 C 654.703 -1.3469 -6.23007 0
M  V30 6819 C 652.39 -0.676422 -6.07345 0
M  V30 6820 C 653.388 -1.43658 -6.67721 0
M  V30 6821 O 653.076 -2.27501 -7.71037 0
M  V30 6822 H 652.808 0.142296 -0.660854 0
M  V30 6823 H 655.362 -0.223272 -2.04183 0
M  V30 6824 H 653.592 1.99176 -3.3146 0
M  V30 6825 H 655.281 1.75486 -3.66005 0
M  V30 6826 H 656.047 -0.435507 -4.83041 0
M  V30 6827 H 651.926 0.757583 -4.54733 0
M  V30 6828 H 655.47 -1.9407 -6.70062 0
M  V30 6829 H 651.367 -0.740154 -6.41243 0
M  V30 6830 H 652.135 -2.20619 -7.88206 0
M  V30 6831 N 654.798 1.5699 0.138552 0
M  V30 6832 C 656.075 1.74741 0.87891 0
M  V30 6833 C 656.455 0.705522 1.98961 0
M  V30 6834 O 655.803 -0.274066 2.2685 0
M  V30 6835 C 656.013 3.1909 1.4136 0
M  V30 6836 C 657.361 3.81023 1.87368 0
M  V30 6837 O 658.385 3.22571 1.51084 0
M  V30 6838 O 657.244 4.83722 2.54312 0
M  V30 6839 H 654.338 0.714781 0.415953 0
M  V30 6840 H 656.884 1.69248 0.123817 0
M  V30 6841 H 655.656 3.86424 0.61579 0
M  V30 6842 H 655.279 3.29043 2.23196 0
M  V30 6843 N 656.276 -0.40816 1.52223 0
M  V30 6844 C 657.692 -0.74685 1.41047 0
M  V30 6845 C 657.892 -1.94788 0.51573 0
M  V30 6846 O 656.948 -2.52494 -0.0181156 0
M  V30 6847 C 658.261 -0.999878 2.83589 0
M  V30 6848 C 659.809 -1.10253 2.92939 0
M  V30 6849 C 660.284 -1.38832 4.36451 0
M  V30 6850 N 661.775 -1.45694 4.3969 0
M  V30 6851 C 662.51 -1.69435 5.47795 0
M  V30 6852 N 662.006 -1.90774 6.66016 0
M  V30 6853 N 663.799 -1.71458 5.35312 0
M  V30 6854 H 655.95 0.382409 2.08929 0
M  V30 6855 H 658.213 0.108807 0.941735 0
M  V30 6856 H 657.919 -0.189723 3.51188 0
M  V30 6857 H 657.793 -1.91978 3.24691 0
M  V30 6858 H 660.18 -1.90328 2.2552 0
M  V30 6859 H 660.261 -0.160973 2.55293 0
M  V30 6860 H 659.905 -0.592741 5.04429 0
M  V30 6861 H 659.835 -2.34241 4.71634 0
M  V30 6862 H 662.326 -1.3099 3.54472 0
M  V30 6863 H 662.639 -2.08342 7.44186 0
M  V30 6864 H 660.984 -1.88037 6.69079 0
M  V30 6865 H 664.175 -1.54326 4.41929 0
M  V30 6866 H 664.348 -1.89621 6.19635 0
M  V30 6867 N 657.755 -1.42862 -0.66545 0
M  V30 6868 C 658.983 -1.47246 -1.45349 0
M  V30 6869 C 659.398 -0.0865944 -1.88601 0
M  V30 6870 O 658.755 0.900652 -1.58728 0
M  V30 6871 C 658.806 -2.40772 -2.6965 0
M  V30 6872 O 658.527 -3.73968 -2.2821 0
M  V30 6873 C 660.028 -2.54272 -3.63126 0
M  V30 6874 H 657.248 -0.500497 -0.446927 0
M  V30 6875 H 659.792 -1.87477 -0.816871 0
M  V30 6876 H 657.947 -2.0377 -3.29479 0
M  V30 6877 H 658.361 -4.24146 -3.08546 0
M  V30 6878 H 659.835 -3.23815 -4.47043 0
M  V30 6879 H 660.312 -1.58364 -4.09656 0
M  V30 6880 H 660.918 -2.92036 -3.09185 0
M  V30 6881 N 659.233 0.902656 -1.29189 0
M  V30 6882 C 660.181 2.0278 -1.13943 0
M  V30 6883 C 661.175 1.69308 -0.055787 0
M  V30 6884 O 662.381 1.78707 -0.215371 0
M  V30 6885 H 658.756 0.664595 -0.351877 0
M  V30 6886 H 660.727 2.12778 -2.09208 0
M  V30 6887 C 659.476 3.37657 -0.82966 0
M  V30 6888 H 658.799 3.63913 -1.65551 0
M  V30 6889 H 660.239 4.17078 -0.762998 0
M  V30 6890 C 658.698 3.33648 0.466991 0
M  V30 6891 O 659.228 3.72886 1.49395 0
M  V30 6892 N 657.434 2.86745 0.471761 0
M  V30 6893 H 656.981 2.55009 -0.364406 0
M  V30 6894 H 656.939 2.84446 1.33933 0
M  V30 6895 N 660.711 1.11618 1.11262 0
M  V30 6896 C 662.122 0.881942 1.64556 0
M  V30 6897 C 662.473 -0.585442 1.87262 0
M  V30 6898 O 661.598 -1.44795 1.60821 0
M  V30 6899 C 662.193 1.59446 2.98935 0
M  V30 6900 C 660.752 1.40661 3.4913 0
M  V30 6901 C 659.899 1.63593 2.23903 0
M  V30 6902 H 662.85 1.27217 0.94877 0
M  V30 6903 H 662.871 1.04054 3.65996 0
M  V30 6904 H 662.383 2.66241 2.82378 0
M  V30 6905 H 660.484 0.360835 3.70849 0
M  V30 6906 H 660.597 2.15693 4.27801 0
M  V30 6907 H 658.961 1.05944 2.3162 0
M  V30 6908 H 659.744 2.71666 2.09886 0
M  V30 6909 N 662.189 -1.289 0.906776 0
M  V30 6910 C 663.099 -2.31256 0.394707 0
M  V30 6911 C 664.115 -1.66231 -0.514121 0
M  V30 6912 O 665.291 -1.97347 -0.401994 0
M  V30 6913 C 662.356 -3.44792 -0.363191 0
M  V30 6914 C 661.417 -4.25391 0.578012 0
M  V30 6915 C 660.65 -5.33506 -0.143811 0
M  V30 6916 O 660.873 -5.53786 -1.36665 0
M  V30 6917 O 659.807 -5.99673 0.5173 0
M  V30 6918 H 663.633 -2.77051 1.24405 0
M  V30 6919 H 661.218 -1.33466 0.671346 0
M  V30 6920 H 663.1 -4.139 -0.791503 0
M  V30 6921 H 661.775 -3.01093 -1.18848 0
M  V30 6922 H 660.682 -3.58899 1.05558 0
M  V30 6923 H 662.015 -4.72752 1.36992 0
M  V30 6924 N 663.667 -0.670007 -1.42649 0
M  V30 6925 C 664.577 0.0114788 -2.34597 0
M  V30 6926 C 665.593 0.794055 -1.54825 0
M  V30 6927 O 666.769 0.737472 -1.87412 0
M  V30 6928 C 663.834 0.954436 -3.33304 0
M  V30 6929 C 662.895 0.166925 -4.28975 0
M  V30 6930 C 662.128 1.06497 -5.22967 0
M  V30 6931 O 662.351 2.30446 -5.21777 0
M  V30 6932 O 661.285 0.528347 -5.99577 0
M  V30 6933 H 665.111 -0.745794 -2.944 0
M  V30 6934 H 662.696 -0.430228 -1.43071 0
M  V30 6935 H 664.578 1.49589 -3.93956 0
M  V30 6936 H 663.253 1.69164 -2.7598 0
M  V30 6937 H 662.16 -0.418515 -3.71752 0
M  V30 6938 H 663.493 -0.531067 -4.89327 0
M  V30 6939 N 665.145 1.52092 -0.413018 0
M  V30 6940 C 666.373 2.06274 0.160881 0
M  V30 6941 C 666.788 1.28273 1.38533 0
M  V30 6942 O 666.145 0.33563 1.79387 0
M  V30 6943 C 666.196 3.57921 0.507443 0
M  V30 6944 O 665.917 4.32971 -0.668388 0
M  V30 6945 C 667.418 4.28533 1.13465 0
M  V30 6946 H 664.638 0.67074 0.0186759 0
M  V30 6947 H 667.182 1.95951 -0.585092 0
M  V30 6948 H 665.337 3.68238 1.20331 0
M  V30 6949 H 665.751 5.23135 -0.378169 0
M  V30 6950 H 667.225 5.35804 1.32732 0
M  V30 6951 H 667.702 3.85258 2.10886 0
M  V30 6952 H 668.308 4.22595 0.478876 0
M  V30 6953 N 666.623 0.143563 1.56945 0
M  V30 6954 C 667.57 -0.797433 2.16586 0
M  V30 6955 C 668.54 -1.24654 1.09775 0
M  V30 6956 O 669.725 -1.31968 1.37801 0
M  V30 6957 C 666.865 -2.03253 2.78895 0
M  V30 6958 C 665.978 -1.62954 4.00087 0
M  V30 6959 C 665.113 -2.81617 4.50406 0
M  V30 6960 C 664.152 -2.37675 5.64072 0
M  V30 6961 N 663.289 -3.49335 6.09023 0
M  V30 6962 H 668.129 -0.282023 2.96662 0
M  V30 6963 H 665.666 -0.127494 1.46546 0
M  V30 6964 H 667.624 -2.75653 3.13163 0
M  V30 6965 H 666.254 -2.52211 2.01469 0
M  V30 6966 H 665.306 -0.803322 3.71821 0
M  V30 6967 H 666.618 -1.26679 4.82446 0
M  V30 6968 H 665.772 -3.62212 4.86711 0
M  V30 6969 H 664.511 -3.21134 3.67048 0
M  V30 6970 H 663.516 -1.55519 5.27346 0
M  V30 6971 H 664.741 -1.99247 6.49213 0
M  V30 6972 H 662.687 -3.8848 5.28601 0
M  V30 6973 H 662.604 -3.17064 6.86299 0
M  V30 6974 H 663.872 -4.30297 6.49973 0
M  V30 6975 N 668.101 -1.57061 -0.130224 0
M  V30 6976 C 669.517 -1.52103 -0.483413 0
M  V30 6977 C 669.717 -0.854752 -1.82473 0
M  V30 6978 O 668.773 -0.432342 -2.48771 0
M  V30 6979 C 670.086 -2.96872 -0.47825 0
M  V30 6980 C 671.634 -3.07902 -0.562592 0
M  V30 6981 C 672.109 -4.54211 -0.587929 0
M  V30 6982 N 673.6 -4.58621 -0.649684 0
M  V30 6983 C 674.335 -5.69227 -0.690551 0
M  V30 6984 N 673.831 -6.89358 -0.689743 0
M  V30 6985 N 675.624 -5.57304 -0.732708 0
M  V30 6986 H 667.775 -1.98764 0.748779 0
M  V30 6987 H 670.038 -0.907248 0.274965 0
M  V30 6988 H 669.744 -3.48944 0.439444 0
M  V30 6989 H 669.618 -3.53716 -1.31013 0
M  V30 6990 H 672.005 -2.5584 -1.47071 0
M  V30 6991 H 672.086 -2.54073 0.296764 0
M  V30 6992 H 671.73 -5.06915 0.316096 0
M  V30 6993 H 671.66 -5.0584 -1.46401 0
M  V30 6994 H 674.151 -3.72146 -0.656927 0
M  V30 6995 H 674.464 -7.69408 -0.723239 0
M  V30 6996 H 672.809 -6.91884 -0.657347 0
M  V30 6997 H 676 -4.62363 -0.730625 0
M  V30 6998 H 676.173 -6.43515 -0.76109 0
M  V30 6999 N 669.579 0.400081 -1.52437 0
M  V30 7000 C 670.542 1.4707 -1.75793 0
M  V30 7001 C 671.542 1.48036 -0.627856 0
M  V30 7002 O 672.732 1.49401 -0.895817 0
M  V30 7003 C 669.864 2.86427 -1.84858 0
M  V30 7004 H 671.057 1.27649 -2.71377 0
M  V30 7005 H 668.61 0.631141 -1.42991 0
M  V30 7006 H 669.345 3.11207 -0.912194 0
M  V30 7007 H 669.13 2.87128 -2.6702 0
M  V30 7008 H 670.62 3.64023 -2.04638 0
M  V30 7009 N 671.057 1.43213 0.657864 0
M  V30 7010 C 672.334 1.35063 1.41483 0
M  V30 7011 C 672.714 -0.0038314 2.111 0
M  V30 7012 O 672.062 -1.02018 2.04462 0
M  V30 7013 C 672.272 2.53061 2.40335 0
M  V30 7014 C 673.62 2.9594 3.04474 0
M  V30 7015 O 674.644 2.53074 2.50663 0
M  V30 7016 O 673.503 3.70184 4.02027 0
M  V30 7017 H 670.597 0.533517 0.631893 0
M  V30 7018 H 673.143 1.55253 0.685162 0
M  V30 7019 H 671.915 3.43283 1.87809 0
M  V30 7020 H 671.538 2.34945 3.20759 0
M  V30 7021 N 672.536 -0.895792 1.29666 0
M  V30 7022 C 673.499 -1.98189 1.15124 0
M  V30 7023 C 674.499 -1.60572 0.0855717 0
M  V30 7024 O 675.689 -1.70991 0.332826 0
M  V30 7025 C 672.821 -3.32289 0.761372 0
M  V30 7026 H 674.014 -2.12518 2.11603 0
M  V30 7027 H 671.567 -1.0808 1.12908 0
M  V30 7028 H 672.302 -3.23662 -0.203393 0
M  V30 7029 H 672.087 -3.60958 1.53139 0
M  V30 7030 H 673.577 -4.1198 0.682792 0
M  V30 7031 N 674.014 -1.12206 -1.10668 0
M  V30 7032 C 675.254 -0.885935 -1.84202 0
M  V30 7033 C 675.618 0.577849 -1.83098 0
M  V30 7034 O 676.819 0.931051 -2.5216 0
M  V30 7035 C 675.09 -1.44197 -3.2702 0
M  V30 7036 S 676.649 -1.34402 -4.1771 0
M  V30 7037 H 673.467 -0.319653 -0.635093 0
M  V30 7038 H 676.069 -1.43112 -1.33189 0
M  V30 7039 H 674.773 -2.50096 -3.25392 0
M  V30 7040 H 674.304 -0.894173 -3.83103 0
M  V30 7041 H 676.319 -0.313873 -4.95206 0
M  V30 7042 N 675.492 1.28418 -0.913599 0
M  V30 7043 C 676.739 1.94981 -0.546674 0
M  V30 7044 C 677.067 1.7192 0.909606 0
M  V30 7045 O 676.322 1.03314 1.66207 0
M  V30 7046 C 676.621 3.48283 -0.802099 0
M  V30 7047 C 676.287 3.91444 -2.2379 0
M  V30 7048 C 674.949 4.02939 -2.63046 0
M  V30 7049 C 677.301 4.13542 -3.17227 0
M  V30 7050 C 674.629 4.3391 -3.94891 0
M  V30 7051 C 676.981 4.45992 -4.48636 0
M  V30 7052 C 675.645 4.55698 -4.87746 0
M  V30 7053 H 674.915 0.713487 -0.200042 0
M  V30 7054 H 677.562 1.52756 -1.15489 0
M  V30 7055 H 675.867 3.91643 -0.111076 0
M  V30 7056 H 677.564 3.97903 -0.497375 0
M  V30 7057 H 674.154 3.83024 -1.9233 0
M  V30 7058 H 678.338 4.04114 -2.88107 0
M  V30 7059 H 673.594 4.39631 -4.24894 0
M  V30 7060 H 677.768 4.62038 -5.21051 0
M  V30 7061 H 675.395 4.79451 -5.89942 0
M  V30 7062 N 676.97 0.677563 1.42291 0
M  V30 7063 C 677.918 -0.0106755 2.32598 0
M  V30 7064 C 678.912 -0.787643 1.49975 0
M  V30 7065 O 680.118 -0.695295 1.66029 0
M  V30 7066 H 676.493 -0.0222482 0.751671 0
M  V30 7067 H 678.464 0.768312 2.88339 0
M  V30 7068 C 677.213 -0.946142 3.3458 0
M  V30 7069 H 676.536 -0.357701 3.98197 0
M  V30 7070 H 677.976 -1.39634 4.00348 0
M  V30 7071 C 676.435 -2.05383 2.67057 0
M  V30 7072 O 676.965 -3.1406 2.50458 0
M  V30 7073 N 675.171 -1.82635 2.26038 0
M  V30 7074 H 674.718 -0.942534 2.39737 0
M  V30 7075 H 674.676 -2.56937 1.81192 0
M  V30 7076 N 678.448 -1.51871 0.421078 0
M  V30 7077 C 679.358 -2.31077 -0.405069 0
M  V30 7078 C 680.374 -1.39301 -1.04265 0
M  V30 7079 O 681.55 -1.72376 -1.04157 0
M  V30 7080 C 678.615 -3.12556 -1.50032 0
M  V30 7081 C 677.676 -4.20088 -0.884559 0
M  V30 7082 C 676.909 -4.97673 -1.92762 0
M  V30 7083 O 677.132 -4.75696 -3.14753 0
M  V30 7084 O 676.066 -5.82203 -1.52719 0
M  V30 7085 H 679.892 -3.02742 0.241086 0
M  V30 7086 H 677.477 -1.48263 0.183991 0
M  V30 7087 H 679.359 -3.6326 -2.13589 0
M  V30 7088 H 678.034 -2.43672 -2.13086 0
M  V30 7089 H 676.941 -3.73502 -0.211379 0
M  V30 7090 H 678.274 -4.91298 -0.297763 0
M  V30 7091 N 679.926 -0.151884 -1.56866 0
M  V30 7092 C 680.856 0.781943 -2.20018 0
M  V30 7093 C 681.837 1.25347 -1.14987 0
M  V30 7094 O 683.022 1.31015 -1.43348 0
M  V30 7095 C 680.152 2.01928 -2.82564 0
M  V30 7096 C 679.106 1.68434 -3.93464 0
M  V30 7097 C 678.432 2.99472 -4.42968 0
M  V30 7098 C 679.732 0.927244 -5.14003 0
M  V30 7099 H 681.426 0.255607 -2.98307 0
M  V30 7100 H 678.972 0.121502 -1.43486 0
M  V30 7101 H 680.925 2.67741 -3.25411 0
M  V30 7102 H 679.649 2.56943 -2.01614 0
M  V30 7103 H 678.308 1.04998 -3.51242 0
M  V30 7104 H 677.956 3.52488 -3.58834 0
M  V30 7105 H 677.656 2.77823 -5.17772 0
M  V30 7106 H 679.18 3.66348 -4.88489 0
M  V30 7107 H 680.594 1.48756 -5.53665 0
M  V30 7108 H 678.991 0.810513 -5.94601 0
M  V30 7109 H 680.061 -0.0801163 -4.84834 0
M  V30 7110 N 681.404 1.57128 0.121893 0
M  V30 7111 C 682.334 2.03165 1.15092 0
M  V30 7112 C 683.315 0.915587 1.43356 0
M  V30 7113 O 684.5 1.1851 1.53847 0
M  V30 7114 C 681.63 2.43352 2.47784 0
M  V30 7115 C 680.584 3.58376 2.33989 0
M  V30 7116 C 679.91 3.84454 3.71617 0
M  V30 7117 C 681.21 4.90199 1.80283 0
M  V30 7118 H 682.904 2.89382 0.768023 0
M  V30 7119 H 680.45 1.39218 0.367998 0
M  V30 7120 H 682.403 2.74163 3.20019 0
M  V30 7121 H 681.127 1.54103 2.87958 0
M  V30 7122 H 679.786 3.2777 1.64202 0
M  V30 7123 H 679.434 2.92414 4.09271 0
M  V30 7124 H 679.134 4.61877 3.6324 0
M  V30 7125 H 680.658 4.17714 4.45362 0
M  V30 7126 H 682.072 5.19565 2.42333 0
M  V30 7127 H 680.469 5.71601 1.82735 0
M  V30 7128 H 681.539 4.78904 0.760184 0
M  V30 7129 N 682.882 -0.391992 1.52647 0
M  V30 7130 C 684.159 -1.15136 1.58123 0
M  V30 7131 C 684.539 -2.07786 0.372597 0
M  V30 7132 O 683.887 -2.19374 -0.639304 0
M  V30 7133 C 684.097 -1.91367 2.91856 0
M  V30 7134 C 685.445 -2.46833 3.45483 0
M  V30 7135 O 686.469 -2.01527 2.9371 0
M  V30 7136 O 685.328 -3.29587 4.3593 0
M  V30 7137 H 682.422 -0.526649 0.637629 0
M  V30 7138 H 684.968 -0.397386 1.64982 0
M  V30 7139 H 683.74 -1.23597 3.71268 0
M  V30 7140 H 683.363 -2.73732 2.88369 0
M  V30 7141 N 684.36 -1.4356 -0.65026 0
M  V30 7142 C 685.27 -1.514 -1.79207 0
M  V30 7143 C 686.286 -0.400895 -1.69319 0
M  V30 7144 O 687.462 -0.655458 -1.90436 0
M  V30 7145 C 684.527 -1.43737 -3.155 0
M  V30 7146 C 683.588 -2.65743 -3.37163 0
M  V30 7147 C 682.821 -2.58436 -4.66954 0
M  V30 7148 O 683.044 -1.63374 -5.46503 0
M  V30 7149 O 681.978 -3.48984 -4.90402 0
M  V30 7150 H 685.804 -2.47825 -1.75547 0
M  V30 7151 H 683.389 -1.25594 -0.809111 0
M  V30 7152 H 685.271 -1.41916 -3.96784 0
M  V30 7153 H 683.946 -0.504488 -3.19745 0
M  V30 7154 H 682.853 -2.73136 -2.55632 0
M  V30 7155 H 684.186 -3.58014 -3.37768 0
M  V30 7156 N 685.838 0.888903 -1.30139 0
M  V30 7157 C 687.085 1.64037 -1.18736 0
M  V30 7158 C 687.413 1.92771 0.258801 0
M  V30 7159 O 686.668 1.54427 1.20212 0
M  V30 7160 C 686.967 2.99041 -1.95728 0
M  V30 7161 C 686.633 2.89874 -3.45375 0
M  V30 7162 C 685.295 2.87082 -3.86183 0
M  V30 7163 C 687.647 2.78289 -4.40687 0
M  V30 7164 C 684.975 2.70536 -5.20603 0
M  V30 7165 C 687.327 2.63282 -5.75209 0
M  V30 7166 C 685.991 2.58861 -6.15262 0
M  V30 7167 H 685.261 0.600253 -0.434485 0
M  V30 7168 H 687.908 1.0338 -1.61198 0
M  V30 7169 H 686.213 3.63626 -1.45888 0
M  V30 7170 H 687.91 3.56139 -1.843 0
M  V30 7171 H 684.5 2.92856 -3.12943 0
M  V30 7172 H 688.684 2.79516 -4.10103 0
M  V30 7173 H 683.94 2.65526 -5.50732 0
M  V30 7174 H 688.114 2.5329 -6.48704 0
M  V30 7175 H 685.741 2.45799 -7.19366 0
M  V30 7176 N 687.317 1.12792 1.10072 0
M  V30 7177 C 688.227 0.812369 2.20086 0
M  V30 7178 C 689.243 -0.200349 1.72843 0
M  V30 7179 O 690.419 -0.0330262 2.01373 0
M  V30 7180 C 687.484 0.275685 3.45602 0
M  V30 7181 C 686.545 1.34881 4.07561 0
M  V30 7182 C 685.778 0.837639 5.27086 0
M  V30 7183 O 686.001 -0.327224 5.69461 0
M  V30 7184 O 684.935 1.60894 5.79997 0
M  V30 7185 H 688.761 1.73133 2.49517 0
M  V30 7186 H 686.346 0.904863 1.18881 0
M  V30 7187 H 688.228 -0.0185375 4.21396 0
M  V30 7188 H 686.903 -0.615783 3.17789 0
M  V30 7189 H 685.81 1.69625 3.33434 0
M  V30 7190 H 687.143 2.21418 4.39585 0
M  V30 7191 N 688.795 -1.27931 0.920396 0
M  V30 7192 C 689.742 -2.27085 0.412422 0
M  V30 7193 C 690.712 -1.57858 -0.516725 0
M  V30 7194 O 691.897 -1.85717 -0.437475 0
M  V30 7195 C 689.037 -3.43466 -0.335399 0
M  V30 7196 C 688.15 -4.27425 0.627017 0
M  V30 7197 C 687.285 -5.31016 -0.139916 0
M  V30 7198 C 686.324 -6.06641 0.815683 0
M  V30 7199 N 685.461 -7.02052 0.0818439 0
M  V30 7200 H 690.301 -2.69913 1.26298 0
M  V30 7201 H 687.838 -1.32732 0.634076 0
M  V30 7202 H 689.796 -4.09744 -0.785226 0
M  V30 7203 H 688.426 -3.01611 -1.15025 0
M  V30 7204 H 687.478 -3.6113 1.19537 0
M  V30 7205 H 688.79 -4.79969 1.35763 0
M  V30 7206 H 687.944 -6.03208 -0.649998 0
M  V30 7207 H 686.683 -4.79257 -0.903543 0
M  V30 7208 H 685.688 -5.33294 1.33708 0
M  V30 7209 H 686.913 -6.60489 1.57897 0
M  V30 7210 H 684.859 -6.52634 -0.663671 0
M  V30 7211 H 684.776 -7.52249 0.752163 0
M  V30 7212 H 686.044 -7.78432 -0.407825 0
M  V30 7213 N 690.273 -0.685099 -1.4193 0
M  V30 7214 C 691.183 -0.013404 -2.34596 0
M  V30 7215 C 692.199 0.777589 -1.55658 0
M  V30 7216 O 693.375 0.717553 -1.88184 0
M  V30 7217 C 690.44 0.919031 -3.34297 0
M  V30 7218 C 689.501 0.121417 -4.29128 0
M  V30 7219 C 688.734 1.00944 -5.24067 0
M  V30 7220 O 688.957 2.24898 -5.24192 0
M  V30 7221 O 687.891 0.464724 -6.00103 0
M  V30 7222 H 691.717 -0.776978 -2.93593 0
M  V30 7223 H 689.302 -0.445379 -1.42607 0
M  V30 7224 H 691.184 1.45402 -3.9552 0
M  V30 7225 H 689.859 1.66228 -2.77759 0
M  V30 7226 H 688.766 -0.45792 -3.71287 0
M  V30 7227 H 690.099 -0.582937 -4.88736 0
M  V30 7228 N 691.751 1.51645 -0.429126 0
M  V30 7229 C 692.999 2.01616 0.139802 0
M  V30 7230 C 693.32 1.31568 1.43927 0
M  V30 7231 O 692.59 0.447688 1.90716 0
M  V30 7232 H 691.17 0.744998 0.054654 0
M  V30 7233 H 693.832 1.8638 -0.569952 0
M  V30 7234 H 692.928 3.10439 0.321609 0
M  V30 7235 N 693.229 0.160201 1.56784 0
M  V30 7236 C 694.459 -0.493449 2.00621 0
M  V30 7237 C 694.867 -1.5809 1.03943 0
M  V30 7238 O 694.21 -1.83675 0.0305343 0
M  V30 7239 C 694.272 -1.14169 3.4089 0
M  V30 7240 C 693.936 -0.197243 4.56574 0
M  V30 7241 C 694.933 0.580174 5.16653 0
M  V30 7242 C 692.618 -0.0963038 5.02208 0
M  V30 7243 C 694.612 1.44584 6.20785 0
M  V30 7244 C 692.299 0.772959 6.06192 0
M  V30 7245 C 693.297 1.54263 6.65351 0
M  V30 7246 O 692.985 2.39738 7.67321 0
M  V30 7247 H 692.717 -0.131764 0.663034 0
M  V30 7248 H 695.271 0.255728 2.03802 0
M  V30 7249 H 693.501 -1.93877 3.34587 0
M  V30 7250 H 695.19 -1.69641 3.6875 0
M  V30 7251 H 695.956 0.5123 4.82287 0
M  V30 7252 H 691.835 -0.685143 4.5588 0
M  V30 7253 H 695.379 2.04706 6.66889 0
M  V30 7254 H 691.276 0.842077 6.39984 0
M  V30 7255 H 692.044 2.33131 7.84597 0
M  V30 7256 N 694.707 -1.5719 -0.113559 0
M  V30 7257 C 695.67 -1.99796 -1.12314 0
M  V30 7258 C 696.67 -0.888847 -1.34001 0
M  V30 7259 O 697.86 -1.15476 -1.30426 0
M  V30 7260 C 694.992 -2.34279 -2.47641 0
M  V30 7261 H 696.185 -2.90193 -0.756825 0
M  V30 7262 H 693.738 -1.52144 -0.358029 0
M  V30 7263 H 694.473 -1.46778 -2.89183 0
M  V30 7264 H 694.258 -3.15175 -2.33253 0
M  V30 7265 H 695.748 -2.67963 -3.2029 0
M  V30 7266 N 696.185 0.383891 -1.52853 0
M  V30 7267 C 697.431 1.13009 -1.68395 0
M  V30 7268 C 697.764 1.89488 -0.425195 0
M  V30 7269 O 697.039 1.8574 0.577136 0
M  V30 7270 C 697.322 2.10419 -2.92226 0
M  V30 7271 C 697.175 1.3767 -4.28214 0
M  V30 7272 C 698.494 3.10781 -3.11614 0
M  V30 7273 H 695.613 0.409463 -0.612788 0
M  V30 7274 H 698.255 0.412895 -1.85459 0
M  V30 7275 H 696.405 2.71579 -2.77808 0
M  V30 7276 H 698.077 0.794352 -4.54409 0
M  V30 7277 H 696.32 0.678533 -4.2846 0
M  V30 7278 H 696.991 2.08874 -5.10956 0
M  V30 7279 H 699.467 2.59715 -3.25096 0
M  V30 7280 H 698.343 3.76179 -3.99725 0
M  V30 7281 H 698.604 3.79933 -2.2606 0
M  V30 7282 N 697.663 1.43903 0.642637 0
M  V30 7283 C 698.893 1.49323 1.4278 0
M  V30 7284 C 699.301 0.113058 1.88862 0
M  V30 7285 O 698.644 -0.889089 1.60751 0
M  V30 7286 C 698.706 2.3861 2.68897 0
M  V30 7287 C 698.37 3.85976 2.44687 0
M  V30 7288 C 699.367 4.7681 2.07239 0
M  V30 7289 C 697.052 4.30567 2.58683 0
M  V30 7290 C 699.046 6.10234 1.841 0
M  V30 7291 C 696.733 5.64042 2.35159 0
M  V30 7292 C 697.731 6.53693 1.97925 0
M  V30 7293 O 697.419 7.84698 1.74654 0
M  V30 7294 H 697.151 0.509109 0.444729 0
M  V30 7295 H 699.705 1.89425 0.794195 0
M  V30 7296 H 697.935 1.93415 3.34855 0
M  V30 7297 H 699.624 2.35112 3.30873 0
M  V30 7298 H 700.39 4.43635 1.95993 0
M  V30 7299 H 696.269 3.61054 2.86637 0
M  V30 7300 H 699.813 6.80171 1.54962 0
M  V30 7301 H 695.71 5.96782 2.46011 0
M  V30 7302 H 696.478 7.96382 1.88993 0
M  V30 7303 N 699.141 -0.881989 1.30609 0
M  V30 7304 C 700.557 -1.16576 1.09005 0
M  V30 7305 C 700.757 -2.00961 -0.14727 0
M  V30 7306 O 699.813 -2.38117 -0.840036 0
M  V30 7307 C 701.126 -1.86954 2.35518 0
M  V30 7308 C 702.674 -1.99706 2.41011 0
M  V30 7309 C 703.149 -2.73497 3.67374 0
M  V30 7310 N 704.64 -2.8104 3.68199 0
M  V30 7311 C 705.375 -3.38718 4.62664 0
M  V30 7312 N 704.871 -3.97421 5.67475 0
M  V30 7313 N 706.664 -3.36561 4.50203 0
M  V30 7314 H 698.815 -0.319398 2.09985 0
M  V30 7315 H 701.078 -0.204058 0.925778 0
M  V30 7316 H 700.784 -1.32393 3.2583 0
M  V30 7317 H 700.658 -2.87317 2.44395 0
M  V30 7318 H 703.045 -2.53436 1.51176 0
M  V30 7319 H 703.126 -0.984218 2.36108 0
M  V30 7320 H 702.77 -2.20438 4.57569 0
M  V30 7321 H 702.7 -3.75163 3.6954 0
M  V30 7322 H 705.191 -2.39365 2.92426 0
M  V30 7323 H 705.504 -4.39507 6.35652 0
M  V30 7324 H 703.849 -3.95832 5.71264 0
M  V30 7325 H 707.04 -2.8993 3.67503 0
M  V30 7326 H 707.213 -3.81215 5.24003 0
M  V30 7327 N 700.619 -1.13374 -1.09472 0
M  V30 7328 C 701.865 -0.896516 -1.81908 0
M  V30 7329 C 702.198 0.575933 -1.85463 0
M  V30 7330 O 701.473 1.42618 -1.32251 0
M  V30 7331 C 701.756 -1.48445 -3.28079 0
M  V30 7332 C 701.609 -3.02598 -3.32798 0
M  V30 7333 C 702.928 -1.15226 -4.24748 0
M  V30 7334 H 700.047 -0.327127 -0.660422 0
M  V30 7335 H 702.689 -1.40195 -1.2824 0
M  V30 7336 H 700.839 -1.0546 -3.73912 0
M  V30 7337 H 702.511 -3.54335 -2.95372 0
M  V30 7338 H 700.754 -3.37613 -2.72397 0
M  V30 7339 H 701.425 -3.38835 -4.3577 0
M  V30 7340 H 703.901 -1.52369 -3.87199 0
M  V30 7341 H 702.777 -1.59012 -5.25363 0
M  V30 7342 H 703.038 -0.0658891 -4.42051 0
M  V30 7343 N 702.098 1.27442 -0.927168 0
M  V30 7344 C 703.046 2.28844 -0.416333 0
M  V30 7345 C 704.04 1.61882 0.499057 0
M  V30 7346 O 705.246 1.75969 0.378817 0
M  V30 7347 H 701.621 0.742989 -0.116065 0
M  V30 7348 H 703.592 2.69344 -1.28438 0
M  V30 7349 C 702.341 3.4626 0.316107 0
M  V30 7350 H 701.664 3.97999 -0.379082 0
M  V30 7351 H 703.104 4.19173 0.637975 0
M  V30 7352 C 701.563 3.00211 1.5289 0
M  V30 7353 O 702.093 3.03837 2.62766 0
M  V30 7354 N 700.299 2.55713 1.38054 0
M  V30 7355 H 699.846 2.52962 0.4866 0
M  V30 7356 H 699.804 2.25264 2.19325 0
M  V30 7357 N 703.576 0.692616 1.41565 0
M  V30 7358 C 704.804 0.231279 2.05603 0
M  V30 7359 C 705.219 -1.11837 1.52111 0
M  V30 7360 O 704.576 -1.6983 0.66813 0
M  V30 7361 C 704.627 0.177125 3.61066 0
M  V30 7362 O 704.348 1.47346 4.12578 0
M  V30 7363 C 705.849 -0.30556 4.42246 0
M  V30 7364 H 703.069 0.108238 0.662213 0
M  V30 7365 H 705.613 0.944369 1.81389 0
M  V30 7366 H 703.768 -0.486769 3.8433 0
M  V30 7367 H 704.182 1.35861 5.06599 0
M  V30 7368 H 705.656 -0.29233 5.51225 0
M  V30 7369 H 706.133 -1.34393 4.18133 0
M  V30 7370 H 706.739 0.327229 4.24039 0
M  V30 7371 N 705.054 -1.51416 0.437162 0
M  V30 7372 C 706.47 -1.59349 0.0894459 0
M  V30 7373 C 706.67 -1.44809 -1.40116 0
M  V30 7374 O 705.726 -1.28924 -2.17106 0
M  V30 7375 C 707.039 -2.9446 0.609398 0
M  V30 7376 C 708.587 -3.07769 0.569824 0
M  V30 7377 C 709.062 -4.45404 1.06675 0
M  V30 7378 N 710.553 -4.51723 1.02473 0
M  V30 7379 C 711.288 -5.56544 1.3801 0
M  V30 7380 N 710.784 -6.68784 1.80831 0
M  V30 7381 N 712.577 -5.46901 1.29828 0
M  V30 7382 H 704.728 -1.59112 1.40703 0
M  V30 7383 H 706.991 -0.750031 0.579791 0
M  V30 7384 H 706.697 -3.1047 1.65231 0
M  V30 7385 H 706.571 -3.77184 0.0342236 0
M  V30 7386 H 708.958 -2.91428 -0.464107 0
M  V30 7387 H 709.039 -2.26885 1.1814 0
M  V30 7388 H 708.683 -4.62492 2.09914 0
M  V30 7389 H 708.613 -5.24827 0.431712 0
M  V30 7390 H 711.104 -3.71165 0.710258 0
M  V30 7391 H 711.417 -7.44787 2.06185 0
M  V30 7392 H 709.762 -6.69992 1.84757 0
M  V30 7393 H 712.953 -4.581 0.962397 0
M  V30 7394 H 713.126 -6.2848 1.57851 0
M  V30 7395 N 706.532 -0.168513 -1.56696 0
M  V30 7396 C 707.779 0.477158 -1.96798 0
M  V30 7397 C 708.107 1.63442 -1.05437 0
M  V30 7398 O 707.362 1.95503 -0.0878903 0
M  V30 7399 C 707.661 1.00441 -3.42996 0
M  V30 7400 C 707.327 -0.0366556 -4.50885 0
M  V30 7401 C 705.989 -0.322785 -4.80116 0
M  V30 7402 C 708.341 -0.743447 -5.1587 0
M  V30 7403 C 705.669 -1.32114 -5.71632 0
M  V30 7404 C 708.021 -1.73077 -6.08463 0
M  V30 7405 C 706.685 -2.02437 -6.36062 0
M  V30 7406 H 705.955 0.174604 -0.720135 0
M  V30 7407 H 708.602 -0.259884 -1.89728 0
M  V30 7408 H 706.907 1.81922 -3.47004 0
M  V30 7409 H 708.604 1.51294 -3.71364 0
M  V30 7410 H 705.194 0.196532 -4.28149 0
M  V30 7411 H 709.378 -0.535602 -4.93401 0
M  V30 7412 H 704.634 -1.55482 -5.913 0
M  V30 7413 H 708.808 -2.28382 -6.57886 0
M  V30 7414 H 706.435 -2.79946 -7.06777 0
M  V30 7415 N 708.01 1.57248 0.105221 0
M  V30 7416 C 708.942 1.98008 1.15436 0
M  V30 7417 C 709.955 0.881236 1.36887 0
M  V30 7418 O 711.144 1.15943 1.35718 0
M  V30 7419 C 708.244 2.27509 2.51183 0
M  V30 7420 C 707.417 3.58811 2.50147 0
M  V30 7421 C 706.476 3.76365 3.67745 0
M  V30 7422 O 705.502 4.48329 3.50699 0
M  V30 7423 N 706.704 3.16174 4.86841 0
M  V30 7424 H 709.469 2.88616 0.807519 0
M  V30 7425 H 707.03 1.59202 0.29433 0
M  V30 7426 H 709.022 2.36455 3.28438 0
M  V30 7427 H 707.592 1.42959 2.77995 0
M  V30 7428 H 706.812 3.60927 1.5851 0
M  V30 7429 H 708.1 4.45088 2.46524 0
M  V30 7430 H 707.498 2.57701 5.03594 0
M  V30 7431 H 706.055 3.30621 5.61723 0
M  V30 7432 N 709.488 -0.375779 1.53054 0
M  V30 7433 C 710.765 -1.13453 1.59336 0
M  V30 7434 C 711.145 -2.07379 0.394614 0
M  V30 7435 O 710.493 -2.2004 -0.616 0
M  V30 7436 C 710.703 -1.8826 2.93869 0
M  V30 7437 C 712.051 -2.43155 3.48081 0
M  V30 7438 O 713.075 -1.984 2.95831 0
M  V30 7439 O 711.934 -3.24944 4.39401 0
M  V30 7440 H 709.028 -0.519856 0.643179 0
M  V30 7441 H 711.574 -0.379865 1.65394 0
M  V30 7442 H 710.346 -1.19652 3.72558 0
M  V30 7443 H 709.969 -2.70658 2.91256 0
M  V30 7444 N 710.966 -1.44241 -0.634997 0
M  V30 7445 C 712.382 -1.28043 -0.952742 0
M  V30 7446 C 712.582 -0.21338 -2.00367 0
M  V30 7447 O 711.638 0.402042 -2.49279 0
M  V30 7448 C 712.951 -2.65076 -1.41968 0
M  V30 7449 C 714.499 -2.72755 -1.53537 0
M  V30 7450 C 714.974 -4.10249 -2.03616 0
M  V30 7451 N 716.465 -4.12406 -2.10892 0
M  V30 7452 C 717.2 -5.15641 -2.50803 0
M  V30 7453 N 716.696 -6.29239 -2.89879 0
M  V30 7454 N 718.489 -5.02995 -2.50903 0
M  V30 7455 H 710.64 -2.12315 0.060098 0
M  V30 7456 H 712.903 -0.947326 -0.0357325 0
M  V30 7457 H 712.609 -3.44213 -0.721804 0
M  V30 7458 H 712.483 -2.91704 -2.39141 0
M  V30 7459 H 714.87 -1.93939 -2.22422 0
M  V30 7460 H 714.951 -2.49872 -0.547496 0
M  V30 7461 H 714.595 -4.8954 -1.35327 0
M  V30 7462 H 714.525 -4.30507 -3.03268 0
M  V30 7463 H 717.016 -3.30417 -1.83393 0
M  V30 7464 H 717.329 -7.03827 -3.19135 0
M  V30 7465 H 715.674 -6.32683 -2.8764 0
M  V30 7466 H 718.865 -4.13306 -2.19763 0
M  V30 7467 H 719.038 -5.83574 -2.81683 0
M  V30 7468 N 712.444 0.87505 -1.31075 0
M  V30 7469 C 713.69 1.63009 -1.20647 0
M  V30 7470 C 714.023 1.9276 0.236045 0
M  V30 7471 O 713.298 1.55559 1.16754 0
M  V30 7472 C 713.581 2.96357 -2.0456 0
M  V30 7473 C 713.434 2.73516 -3.57084 0
M  V30 7474 C 714.753 3.974 -1.89107 0
M  V30 7475 H 711.872 0.591518 -0.439631 0
M  V30 7476 H 714.514 1.0119 -1.60812 0
M  V30 7477 H 712.664 3.49119 -1.70435 0
M  V30 7478 H 714.336 2.27465 -4.01319 0
M  V30 7479 H 712.579 2.0784 -3.80769 0
M  V30 7480 H 713.25 3.68377 -4.11099 0
M  V30 7481 H 715.726 3.5383 -2.18961 0
M  V30 7482 H 714.602 4.88596 -2.5013 0
M  V30 7483 H 714.863 4.33794 -0.85296 0
M  V30 7484 N 713.922 1.13953 1.08869 0
M  V30 7485 C 714.885 0.824991 2.13838 0
M  V30 7486 C 715.885 -0.168198 1.59918 0
M  V30 7487 O 717.075 0.0595778 1.74098 0
M  V30 7488 C 714.207 0.228938 3.4013 0
M  V30 7489 H 715.4 1.75521 2.43171 0
M  V30 7490 H 712.953 0.94492 1.24503 0
M  V30 7491 H 713.688 -0.710227 3.16427 0
M  V30 7492 H 713.473 0.944243 3.80561 0
M  V30 7493 H 714.963 0.0259223 4.17592 0
M  V30 7494 N 715.4 -1.26948 0.933913 0
M  V30 7495 C 716.332 -2.25768 0.395137 0
M  V30 7496 C 717.345 -1.55637 -0.477585 0
M  V30 7497 O 718.534 -1.76142 -0.289204 0
M  V30 7498 C 715.634 -3.35874 -0.451882 0
M  V30 7499 C 714.807 -4.3554 0.40299 0
M  V30 7500 C 713.866 -5.24809 -0.3824 0
M  V30 7501 O 712.892 -5.68805 0.212057 0
M  V30 7502 N 714.094 -5.55636 -1.68072 0
M  V30 7503 H 716.859 -2.72634 1.24463 0
M  V30 7504 H 714.42 -1.40639 0.802008 0
M  V30 7505 H 716.412 -3.92542 -0.984516 0
M  V30 7506 H 714.982 -2.8856 -1.20215 0
M  V30 7507 H 714.202 -3.78047 1.11688 0
M  V30 7508 H 715.49 -4.99131 0.987201 0
M  V30 7509 H 714.888 -5.2176 -2.18592 0
M  V30 7510 H 713.445 -6.14978 -2.15975 0
M  V30 7511 N 716.879 -0.700114 -1.41195 0
M  V30 7512 C 718.104 -0.240704 -2.05998 0
M  V30 7513 C 718.529 1.10313 -1.52357 0
M  V30 7514 O 717.887 1.69154 -0.652424 0
M  V30 7515 C 717.935 -0.213783 -3.59966 0
M  V30 7516 O 717.039 0.809933 -4.04368 0
M  V30 7517 H 716.38 -0.116471 -0.653705 0
M  V30 7518 H 718.91 -0.956251 -1.80878 0
M  V30 7519 H 718.92 -0.0461852 -4.07974 0
M  V30 7520 H 717.595 -1.19454 -3.98376 0
M  V30 7521 H 716.172 0.611319 -3.67855 0
M  V30 7522 N 718.357 1.51182 -0.445186 0
M  V30 7523 C 719.587 2.06269 0.116922 0
M  V30 7524 C 719.995 1.31188 1.36332 0
M  V30 7525 O 719.338 0.367067 1.79995 0
M  V30 7526 C 719.4 3.56051 0.496757 0
M  V30 7527 C 719.064 4.52441 -0.64394 0
M  V30 7528 C 720.061 4.97233 -1.5184 0
M  V30 7529 C 717.746 4.95447 -0.826905 0
M  V30 7530 C 719.74 5.83712 -2.56046 0
M  V30 7531 C 717.427 5.81714 -1.87222 0
M  V30 7532 C 718.425 6.25745 -2.73738 0
M  V30 7533 O 718.113 7.10298 -3.76474 0
M  V30 7534 H 717.845 0.675954 0.00785733 0
M  V30 7535 H 720.399 1.95648 -0.625371 0
M  V30 7536 H 718.629 3.64483 1.29187 0
M  V30 7537 H 720.318 3.93618 0.990928 0
M  V30 7538 H 721.084 4.64696 -1.38862 0
M  V30 7539 H 716.963 4.60712 -0.163052 0
M  V30 7540 H 720.507 6.18 -3.23607 0
M  V30 7541 H 716.404 6.13664 -2.00218 0
M  V30 7542 H 717.172 7.28493 -3.73149 0
M  V30 7543 N 719.835 0.176821 1.56605 0
M  V30 7544 C 721.083 -0.465793 1.96659 0
M  V30 7545 C 721.404 -1.63406 1.06412 0
M  V30 7546 O 720.674 -1.95457 0.131603 0
M  V30 7547 H 719.254 -0.175072 0.726195 0
M  V30 7548 H 721.916 0.25929 1.93168 0
M  V30 7549 H 721.012 -0.822138 3.01077 0
M  V30 7550 N 721.313 -1.57302 -0.09688 0
M  V30 7551 C 722.724 -1.7496 -0.651595 0
M  V30 7552 C 723.075 -0.798746 -1.79205 0
M  V30 7553 O 722.2 0.0231858 -2.16388 0
M  V30 7554 C 722.795 -3.17259 -1.18878 0
M  V30 7555 C 721.354 -3.36348 -1.68958 0
M  V30 7556 C 720.501 -2.70766 -0.598413 0
M  V30 7557 H 723.452 -1.58173 0.12918 0
M  V30 7558 H 723.473 -3.20033 -2.05814 0
M  V30 7559 H 722.985 -3.8644 -0.358523 0
M  V30 7560 H 721.086 -2.72243 -2.5439 0
M  V30 7561 H 721.199 -4.44654 -1.7838 0
M  V30 7562 H 719.563 -2.32615 -1.03743 0
M  V30 7563 H 720.346 -3.42586 0.221238 0
M  V30 7564 N 722.791 0.367657 -1.53252 0
M  V30 7565 C 724.037 1.11216 -1.69584 0
M  V30 7566 C 724.37 1.89026 -0.445269 0
M  V30 7567 O 723.645 1.86342 0.557404 0
M  V30 7568 C 723.928 2.07308 -2.94441 0
M  V30 7569 C 723.781 1.3312 -4.2965 0
M  V30 7570 C 725.1 3.07459 -3.14892 0
M  V30 7571 H 722.219 0.40294 -0.617096 0
M  V30 7572 H 724.861 0.393201 -1.85887 0
M  V30 7573 H 723.011 2.68617 -2.80673 0
M  V30 7574 H 724.683 0.746111 -4.55226 0
M  V30 7575 H 722.926 0.633051 -4.29156 0
M  V30 7576 H 723.597 2.03443 -5.13142 0
M  V30 7577 H 726.073 2.56252 -3.27832 0
M  V30 7578 H 724.949 3.71919 -4.03693 0
M  V30 7579 H 725.21 3.77514 -2.30077 0
M  V30 7580 N 724.269 1.44576 0.627338 0
M  V30 7581 C 725.216 1.51734 1.73912 0
M  V30 7582 C 726.186 0.364745 1.62046 0
M  V30 7583 O 727.371 0.575503 1.81914 0
M  V30 7584 C 724.511 1.47116 3.12171 0
M  V30 7585 C 723.624 2.72778 3.34986 0
M  V30 7586 C 722.759 2.59968 4.63239 0
M  V30 7587 C 721.798 3.80776 4.79245 0
M  V30 7588 N 720.935 3.66618 5.98778 0
M  V30 7589 H 725.775 2.46722 1.6713 0
M  V30 7590 H 723.312 1.22444 0.815224 0
M  V30 7591 H 725.27 1.42429 3.92135 0
M  V30 7592 H 723.9 0.556928 3.17959 0
M  V30 7593 H 722.952 2.87637 2.48936 0
M  V30 7594 H 724.264 3.62441 3.42692 0
M  V30 7595 H 723.418 2.53135 5.51369 0
M  V30 7596 H 722.157 1.67872 4.57898 0
M  V30 7597 H 721.162 3.87989 3.89544 0
M  V30 7598 H 722.387 4.73913 4.86398 0
M  V30 7599 H 720.333 2.77277 5.9452 0
M  V30 7600 H 720.25 4.499 6.07557 0
M  V30 7601 H 721.518 3.63684 6.89459 0
M  V30 7602 N 725.747 -0.868086 1.31537 0
M  V30 7603 C 727.163 -1.15414 1.10235 0
M  V30 7604 C 727.363 -2.01106 -0.125947 0
M  V30 7605 O 726.419 -2.38994 -0.814734 0
M  V30 7606 C 727.732 -1.84445 2.37488 0
M  V30 7607 C 729.28 -1.97139 2.43116 0
M  V30 7608 C 729.755 -2.69585 3.70254 0
M  V30 7609 N 731.246 -2.77119 3.71159 0
M  V30 7610 C 731.981 -3.33791 4.6623 0
M  V30 7611 N 731.477 -3.9138 5.71659 0
M  V30 7612 N 733.27 -3.31767 4.53747 0
M  V30 7613 H 725.421 -0.297109 2.10312 0
M  V30 7614 H 727.684 -0.194227 0.92789 0
M  V30 7615 H 727.39 -1.2893 3.27215 0
M  V30 7616 H 727.264 -2.84709 2.47428 0
M  V30 7617 H 729.651 -2.51818 1.53856 0
M  V30 7618 H 729.732 -0.95912 2.37138 0
M  V30 7619 H 729.376 -2.15572 4.59881 0
M  V30 7620 H 729.306 -3.71223 3.73499 0
M  V30 7621 H 731.797 -2.3625 2.94948 0
M  V30 7622 H 732.11 -4.3274 6.40278 0
M  V30 7623 H 730.455 -3.8975 5.7543 0
M  V30 7624 H 733.646 -2.86016 3.70557 0
M  V30 7625 H 733.819 -3.75636 5.28017 0
M  V30 7626 N 727.225 -1.14528 -1.08264 0
M  V30 7627 C 728.172 -0.833556 -2.15222 0
M  V30 7628 C 729.142 0.209539 -1.64773 0
M  V30 7629 O 730.327 0.0791388 -1.90636 0
M  V30 7630 C 727.467 -0.318799 -3.43624 0
M  V30 7631 C 726.58 -1.42237 -4.07913 0
M  V30 7632 C 725.715 -0.864704 -5.24115 0
M  V30 7633 C 724.754 -1.94585 -5.80347 0
M  V30 7634 N 723.891 -1.40525 -6.87893 0
M  V30 7635 H 728.731 -1.74965 -2.41228 0
M  V30 7636 H 726.268 -0.873169 -1.18381 0
M  V30 7637 H 728.226 -0.00213088 -4.172 0
M  V30 7638 H 726.856 0.560397 -3.17898 0
M  V30 7639 H 725.908 -1.8554 -3.32083 0
M  V30 7640 H 727.22 -2.23901 -4.45724 0
M  V30 7641 H 726.374 -0.500025 -6.04636 0
M  V30 7642 H 725.113 -0.0171219 -4.87697 0
M  V30 7643 H 724.118 -2.31946 -4.98479 0
M  V30 7644 H 725.343 -2.79704 -6.18823 0
M  V30 7645 H 723.289 -0.579873 -6.53432 0
M  V30 7646 H 723.206 -2.15825 -7.24538 0
M  V30 7647 H 724.474 -1.06852 -7.72142 0
M  V30 7648 N 728.703 1.26451 -0.940633 0
M  V30 7649 C 729.633 2.28773 -0.467479 0
M  V30 7650 C 730.614 1.63218 0.478955 0
M  V30 7651 O 731.799 1.90427 0.380929 0
M  V30 7652 C 728.929 3.46259 0.268656 0
M  V30 7653 C 727.883 4.23898 -0.591171 0
M  V30 7654 C 727.209 5.33993 0.274891 0
M  V30 7655 C 728.509 4.87974 -1.86223 0
M  V30 7656 H 730.203 2.68601 -1.32265 0
M  V30 7657 H 727.749 1.29123 -0.637436 0
M  V30 7658 H 729.702 4.16951 0.610696 0
M  V30 7659 H 728.426 3.05383 1.15796 0
M  V30 7660 H 727.085 3.54969 -0.916098 0
M  V30 7661 H 726.733 4.89358 1.16353 0
M  V30 7662 H 726.433 5.86849 -0.297006 0
M  V30 7663 H 727.957 6.07523 0.612213 0
M  V30 7664 H 729.371 5.50883 -1.58747 0
M  V30 7665 H 727.768 5.50945 -2.37866 0
M  V30 7666 H 728.838 4.10945 -2.57394 0
M  V30 7667 N 730.181 0.707592 1.40822 0
M  V30 7668 C 731.091 0.0507246 2.34545 0
M  V30 7669 C 732.107 -0.752727 1.56876 0
M  V30 7670 O 733.283 -0.687524 1.89302 0
M  V30 7671 C 730.348 -0.865731 3.35717 0
M  V30 7672 C 729.409 -0.0531313 4.29267 0
M  V30 7673 C 728.642 -0.925939 5.25606 0
M  V30 7674 O 728.865 -2.16531 5.27703 0
M  V30 7675 O 727.799 -0.369194 6.00767 0
M  V30 7676 H 731.625 0.823587 2.9232 0
M  V30 7677 H 729.21 0.46801 1.4188 0
M  V30 7678 H 731.092 -1.39091 3.97783 0
M  V30 7679 H 729.767 -1.61788 2.80368 0
M  V30 7680 H 728.674 0.516931 3.70511 0
M  V30 7681 H 730.007 0.660617 4.87747 0
M  V30 7682 N 731.66 -1.50943 0.453197 0
M  V30 7683 C 732.61 -2.25003 -0.368467 0
M  V30 7684 C 733.594 -1.27864 -0.976714 0
M  V30 7685 O 734.786 -1.52867 -0.892228 0
M  V30 7686 C 731.915 -3.10701 -1.46014 0
M  V30 7687 C 731.001 -4.15278 -0.860506 0
M  V30 7688 N 731.392 -5.05799 0.00849611 0
M  V30 7689 C 729.69 -4.31542 -1.1264 0
M  V30 7690 C 730.391 -5.80664 0.346951 0
M  V30 7691 N 729.367 -5.42912 -0.273426 0
M  V30 7692 H 733.169 -2.92352 0.301246 0
M  V30 7693 H 730.683 -1.60203 0.266233 0
M  V30 7694 H 732.68 -3.62348 -2.06179 0
M  V30 7695 H 731.34 -2.44898 -2.13202 0
M  V30 7696 H 732.351 -5.16533 0.376077 0
M  V30 7697 H 729.028 -3.76962 -1.7946 0
M  V30 7698 H 730.418 -6.63565 1.05507 0
M  V30 7699 N 733.138 -0.185124 -1.56509 0
M  V30 7700 C 734.101 0.72591 -2.17401 0
M  V30 7701 C 735.101 1.14819 -1.12575 0
M  V30 7702 O 736.291 1.0629 -1.38015 0
M  V30 7703 C 733.423 1.98979 -2.76803 0
M  V30 7704 H 734.616 0.195588 -2.99262 0
M  V30 7705 H 732.169 0.0644772 -1.56167 0
M  V30 7706 H 732.904 2.56287 -1.98714 0
M  V30 7707 H 732.689 1.69583 -3.53531 0
M  V30 7708 H 734.179 2.63966 -3.23592 0
M  V30 7709 N 734.616 1.57351 0.0885366 0
M  V30 7710 C 735.865 1.85604 0.789556 0
M  V30 7711 C 736.178 0.775352 1.79576 0
M  V30 7712 O 737.384 0.945206 2.54515 0
M  V30 7713 C 735.84 3.29175 1.45506 0
M  V30 7714 C 735.448 4.45331 0.488278 0
M  V30 7715 C 737.192 3.66646 2.13942 0
M  V30 7716 C 735.099 5.79937 1.15874 0
M  V30 7717 H 734.029 0.692346 0.298619 0
M  V30 7718 H 736.68 1.83451 0.0425821 0
M  V30 7719 H 735.062 3.25889 2.24972 0
M  V30 7720 H 736.236 4.59977 -0.275359 0
M  V30 7721 H 734.551 4.16301 -0.0907363 0
M  V30 7722 H 737.148 4.64498 2.6485 0
M  V30 7723 H 737.491 2.956 2.93132 0
M  V30 7724 H 738.024 3.71848 1.41328 0
M  V30 7725 H 734.763 6.54232 0.407508 0
M  V30 7726 H 734.283 5.69123 1.89364 0
M  V30 7727 H 735.962 6.24718 1.68336 0
M  V30 7728 N 736.094 -0.359525 1.53444 0
M  V30 7729 C 737.041 -1.44073 1.8031 0
M  V30 7730 C 738.011 -1.52946 0.647811 0
M  V30 7731 O 739.196 -1.68739 0.890614 0
M  V30 7732 C 736.336 -2.80941 2.00416 0
M  V30 7733 C 735.449 -2.80986 3.28132 0
M  V30 7734 C 734.584 -4.09468 3.38393 0
M  V30 7735 C 733.623 -4.03679 4.60119 0
M  V30 7736 N 732.76 -5.23821 4.675 0
M  V30 7737 H 737.6 -1.20464 2.72566 0
M  V30 7738 H 735.137 -0.583859 1.35017 0
M  V30 7739 H 737.095 -3.60459 2.1006 0
M  V30 7740 H 735.725 -3.02936 1.11489 0
M  V30 7741 H 734.777 -1.93666 3.27411 0
M  V30 7742 H 736.089 -2.72583 4.17732 0
M  V30 7743 H 735.243 -4.97404 3.47382 0
M  V30 7744 H 733.982 -4.20632 2.4682 0
M  V30 7745 H 732.987 -3.14129 4.51224 0
M  V30 7746 H 734.212 -3.94112 5.5304 0
M  V30 7747 H 732.158 -5.35559 3.7883 0
M  V30 7748 H 732.075 -5.17611 5.51013 0
M  V30 7749 H 733.343 -6.13572 4.8078 0
M  V30 7750 N 737.572 -1.44907 -0.619662 0
M  V30 7751 C 738.988 -1.29046 -0.939107 0
M  V30 7752 C 739.188 -0.23462 -2.00129 0
M  V30 7753 O 738.244 0.37558 -2.49691 0
M  V30 7754 C 739.557 -2.66567 -1.39149 0
M  V30 7755 C 741.105 -2.74368 -1.50635 0
M  V30 7756 C 741.58 -4.12386 -1.99253 0
M  V30 7757 N 743.071 -4.1462 -2.06506 0
M  V30 7758 C 743.806 -5.18272 -2.4532 0
M  V30 7759 N 743.302 -6.32278 -2.83189 0
M  V30 7760 N 745.095 -5.05628 -2.45554 0
M  V30 7761 H 737.246 -2.12239 0.0826135 0
M  V30 7762 H 739.509 -0.947652 -0.0256829 0
M  V30 7763 H 739.215 -3.4496 -0.685254 0
M  V30 7764 H 739.089 -2.94224 -2.36034 0
M  V30 7765 H 741.476 -1.96287 -2.20353 0
M  V30 7766 H 741.557 -2.50439 -0.520963 0
M  V30 7767 H 741.201 -4.90947 -1.30127 0
M  V30 7768 H 741.131 -4.33699 -2.98684 0
M  V30 7769 H 743.622 -3.32343 -1.79878 0
M  V30 7770 H 743.935 -7.07172 -3.11652 0
M  V30 7771 H 742.28 -6.35699 -2.80913 0
M  V30 7772 H 745.471 -4.15613 -2.15367 0
M  V30 7773 H 745.644 -5.86529 -2.75478 0
M  V30 7774 N 739.05 0.861098 -1.31996 0
M  V30 7775 C 740.013 1.95068 -1.20338 0
M  V30 7776 C 741.013 1.60289 -0.128114 0
M  V30 7777 O 742.203 1.70048 -0.378044 0
M  V30 7778 C 739.335 3.30153 -0.849205 0
M  V30 7779 H 740.528 2.06833 -2.17164 0
M  V30 7780 H 738.081 1.05049 -1.15734 0
M  V30 7781 H 738.816 3.24087 0.117508 0
M  V30 7782 H 738.601 3.56771 -1.62655 0
M  V30 7783 H 740.091 4.10025 -0.791782 0
M  V30 7784 N 740.528 1.15101 1.07655 0
M  V30 7785 C 741.774 0.925343 1.80458 0
M  V30 7786 C 742.107 -0.546354 1.86356 0
M  V30 7787 O 741.382 -1.40496 1.34503 0
M  V30 7788 C 741.665 1.53646 3.25676 0
M  V30 7789 C 741.518 3.07854 3.27942 0
M  V30 7790 C 742.837 1.21968 4.22861 0
M  V30 7791 H 739.956 0.337592 0.655134 0
M  V30 7792 H 742.598 1.42217 1.25993 0
M  V30 7793 H 740.748 1.11395 3.72187 0
M  V30 7794 H 742.42 3.58989 2.89697 0
M  V30 7795 H 740.663 3.41904 2.66991 0
M  V30 7796 H 741.334 3.45725 4.30324 0
M  V30 7797 H 743.81 1.5851 3.84726 0
M  V30 7798 H 742.686 1.67349 5.22767 0
M  V30 7799 H 742.947 0.136207 4.4189 0
M  V30 7800 N 742.006 -1.2595 0.947325 0
M  V30 7801 C 743.283 -1.88676 0.515824 0
M  V30 7802 C 743.663 -1.85547 -1.00675 0
M  V30 7803 O 743.011 -1.31399 -1.8694 0
M  V30 7804 C 743.221 -3.31734 1.08415 0
M  V30 7805 C 744.569 -4.08545 1.15654 0
M  V30 7806 O 745.593 -3.40826 1.03517 0
M  V30 7807 O 744.452 -5.29663 1.34608 0
M  V30 7808 H 741.546 -0.809537 0.169055 0
M  V30 7809 H 744.092 -1.34075 1.04029 0
M  V30 7810 H 742.864 -3.28404 2.1276 0
M  V30 7811 H 742.487 -3.93882 0.542499 0
M  V30 7812 N 743.484 -0.715051 -1.40445 0
M  V30 7813 C 744.895 -0.326763 -1.83818 0
M  V30 7814 C 745.246 1.13851 -1.59789 0
M  V30 7815 O 744.371 1.87611 -1.07848 0
M  V30 7816 C 744.966 -0.586297 -3.33688 0
M  V30 7817 C 743.525 -0.251724 -3.75557 0
M  V30 7818 C 742.672 -0.858928 -2.63662 0
M  V30 7819 H 745.623 -0.914241 -1.2972 0
M  V30 7820 H 745.644 0.148636 -3.8021 0
M  V30 7821 H 745.156 -1.65281 -3.51146 0
M  V30 7822 H 743.257 0.809754 -3.63695 0
M  V30 7823 H 743.37 -0.720348 -4.73654 0
M  V30 7824 H 741.734 -0.287013 -2.53078 0
M  V30 7825 H 742.517 -1.9297 -2.83932 0
M  V30 7826 N 744.962 1.50701 -0.461195 0
M  V30 7827 C 745.91 2.29918 0.352231 0
M  V30 7828 C 746.904 1.36778 0.999403 0
M  V30 7829 O 748.11 1.54015 0.931639 0
M  V30 7830 H 744.485 0.740249 0.132423 0
M  V30 7831 H 746.456 2.96497 -0.336424 0
M  V30 7832 C 745.205 3.17052 1.42736 0
M  V30 7833 H 744.528 3.88623 0.938747 0
M  V30 7834 H 745.968 3.75493 1.96928 0
M  V30 7835 C 744.427 2.3399 2.42384 0
M  V30 7836 O 744.957 2.01608 3.47444 0
M  V30 7837 N 743.163 1.96758 2.13857 0
M  V30 7838 H 742.71 2.23292 1.28447 0
M  V30 7839 H 742.668 1.41484 2.80766 0
M  V30 7840 N 746.441 0.193421 1.56409 0
M  V30 7841 C 747.389 -0.744829 2.20352 0
M  V30 7842 C 748.383 -1.22104 1.17418 0
M  V30 7843 O 749.589 -1.18413 1.35567 0
M  V30 7844 H 745.964 -0.258538 0.70616 0
M  V30 7845 H 747.935 -0.181794 2.97846 0
M  V30 7846 C 746.684 -1.95453 2.87565 0
M  V30 7847 H 746.007 -1.59716 3.66512 0
M  V30 7848 H 747.447 -2.58942 3.35745 0
M  V30 7849 C 745.906 -2.79223 1.8851 0
M  V30 7850 O 746.436 -3.77093 1.38434 0
M  V30 7851 N 744.642 -2.44682 1.56777 0
M  V30 7852 H 744.189 -1.65153 1.97692 0
M  V30 7853 H 744.147 -3.01016 0.907573 0
M  V30 7854 N 747.919 -1.57396 -0.0801906 0
M  V30 7855 C 749.168 -1.8602 -0.779702 0
M  V30 7856 C 749.481 -0.784864 -1.79163 0
M  V30 7857 O 750.687 -0.958691 -2.54011 0
M  V30 7858 C 749.143 -3.29942 -1.43758 0
M  V30 7859 C 748.751 -4.45584 -0.464654 0
M  V30 7860 C 750.495 -3.67775 -2.11995 0
M  V30 7861 C 748.402 -5.80544 -1.12797 0
M  V30 7862 H 747.332 -0.69392 -0.294943 0
M  V30 7863 H 749.983 -1.83471 -0.0328527 0
M  V30 7864 H 748.365 -3.27078 -2.2324 0
M  V30 7865 H 749.539 -4.59824 0.299749 0
M  V30 7866 H 747.854 -4.16247 0.112813 0
M  V30 7867 H 750.451 -4.65896 -2.62383 0
M  V30 7868 H 750.794 -2.9715 -2.91561 0
M  V30 7869 H 751.327 -3.72593 -1.39354 0
M  V30 7870 H 748.066 -6.54439 -0.372807 0
M  V30 7871 H 747.586 -5.70119 -1.86344 0
M  V30 7872 H 749.265 -6.25602 -1.6502 0
M  V30 7873 N 749.397 0.351382 -1.53633 0
M  V30 7874 C 750.327 1.43688 -1.84055 0
M  V30 7875 C 751.308 1.55251 -0.695073 0
M  V30 7876 O 752.493 1.69587 -0.946257 0
M  V30 7877 C 749.623 2.80843 -2.04315 0
M  V30 7878 C 748.577 2.84094 -3.20117 0
M  V30 7879 C 747.903 4.2406 -3.25696 0
M  V30 7880 C 749.203 2.50334 -4.58399 0
M  V30 7881 H 750.897 1.18478 -2.74961 0
M  V30 7882 H 748.443 0.568509 -1.32303 0
M  V30 7883 H 750.396 3.56821 -2.2418 0
M  V30 7884 H 749.12 3.07471 -1.10132 0
M  V30 7885 H 747.779 2.10568 -3.00094 0
M  V30 7886 H 747.427 4.47785 -2.29123 0
M  V30 7887 H 747.127 4.27147 -4.03509 0
M  V30 7888 H 748.651 5.0189 -3.47762 0
M  V30 7889 H 750.065 3.16025 -4.78332 0
M  V30 7890 H 748.462 2.64717 -5.38558 0
M  V30 7891 H 749.532 1.45542 -4.62543 0
M  V30 7892 N 750.875 1.45233 0.611969 0
M  V30 7893 C 751.838 1.53189 1.70487 0
M  V30 7894 C 752.838 0.411839 1.55437 0
M  V30 7895 O 754.028 0.675164 1.60584 0
M  V30 7896 C 751.16 1.42422 3.09723 0
M  V30 7897 H 752.353 2.5056 1.64802 0
M  V30 7898 H 749.906 1.32609 0.827318 0
M  V30 7899 H 750.641 0.462185 3.2099 0
M  V30 7900 H 750.426 2.23658 3.22055 0
M  V30 7901 H 751.916 1.51012 3.89339 0
M  V30 7902 N 752.353 -0.854086 1.3245 0
M  V30 7903 C 753.764 -1.42427 1.20712 0
M  V30 7904 C 754.115 -1.95371 -0.18013 0
M  V30 7905 O 753.24 -1.87587 -1.07889 0
M  V30 7906 C 753.835 -2.58897 2.18536 0
M  V30 7907 C 752.394 -3.11913 2.10683 0
M  V30 7908 C 751.541 -1.84661 2.06871 0
M  V30 7909 H 754.492 -0.661192 1.4427 0
M  V30 7910 H 754.513 -3.36074 1.78422 0
M  V30 7911 H 754.025 -2.20333 3.19492 0
M  V30 7912 H 752.126 -3.55059 1.12977 0
M  V30 7913 H 752.239 -3.73119 3.00532 0
M  V30 7914 H 750.603 -2.04285 1.52118 0
M  V30 7915 H 751.386 -1.48314 3.09609 0
M  V30 7916 N 753.831 -1.1567 -1.07043 0
M  V30 7917 C 755.079 -0.931673 -1.79344 0
M  V30 7918 C 755.4 0.542421 -1.87304 0
M  V30 7919 O 754.67 1.39418 -1.37621 0
M  V30 7920 H 753.25 -0.34171 -0.664262 0
M  V30 7921 H 755.912 -1.45795 -1.29344 0
M  V30 7922 H 755.008 -1.34379 -2.81689 0
M  V30 7923 N 755.309 1.25446 -0.953992 0
M  V30 7924 C 756.725 1.4539 -0.658316 0
M  V30 7925 C 756.925 1.85607 0.784356 0
M  V30 7926 O 755.981 1.98568 1.55972 0
M  V30 7927 C 757.294 2.52643 -1.6307 0
M  V30 7928 C 758.842 2.66484 -1.64181 0
M  V30 7929 C 759.317 3.76921 -2.60182 0
M  V30 7930 N 760.808 3.84331 -2.58542 0
M  V30 7931 C 761.543 4.69271 -3.29503 0
M  V30 7932 N 761.039 5.58503 -4.09934 0
M  V30 7933 N 762.832 4.6323 -3.18393 0
M  V30 7934 H 754.983 0.976337 -1.8863 0
M  V30 7935 H 757.246 0.490343 -0.811337 0
M  V30 7936 H 756.952 2.29949 -2.66114 0
M  V30 7937 H 756.826 3.50547 -1.39271 0
M  V30 7938 H 759.213 2.88545 -0.618552 0
M  V30 7939 H 759.294 1.68982 -1.92038 0
M  V30 7940 H 758.938 3.55612 -3.62633 0
M  V30 7941 H 758.868 4.73906 -2.29609 0
M  V30 7942 H 761.359 3.20544 -2.0015 0
M  V30 7943 H 761.672 6.20241 -4.61 0
M  V30 7944 H 760.017 5.58214 -4.14032 0
M  V30 7945 H 763.208 3.92527 -2.5503 0
M  V30 7946 H 763.381 5.29204 -3.73961 0
M  V30 7947 N 756.787 0.722489 1.40064 0
M  V30 7948 C 758.012 0.273446 2.05589 0
M  V30 7949 C 758.437 -1.07875 1.54093 0
M  V30 7950 O 757.795 -1.68095 0.679252 0
M  V30 7951 C 757.843 0.271023 3.5958 0
M  V30 7952 O 756.947 -0.745499 4.05606 0
M  V30 7953 H 756.288 0.126856 0.65177 0
M  V30 7954 H 758.818 0.984906 1.79334 0
M  V30 7955 H 758.828 0.111084 4.07849 0
M  V30 7956 H 757.503 1.25776 3.96425 0
M  V30 7957 H 756.08 -0.552719 3.68781 0
M  V30 7958 N 758.265 -1.50454 0.469181 0
M  V30 7959 C 759.513 -2.01916 -0.0862982 0
M  V30 7960 C 759.834 -1.35337 -1.40388 0
M  V30 7961 O 759.104 -0.498096 -1.89462 0
M  V30 7962 H 757.684 -0.746185 -0.0348825 0
M  V30 7963 H 760.346 -1.84804 0.619167 0
M  V30 7964 H 759.442 -3.11182 -0.239189 0
M  V30 7965 N 759.743 -0.201713 -1.56304 0
M  V30 7966 C 760.992 0.435557 -1.96941 0
M  V30 7967 C 761.305 1.62299 -1.09172 0
M  V30 7968 O 762.511 2.32849 -1.3962 0
M  V30 7969 C 760.967 0.826298 -3.50286 0
M  V30 7970 C 760.575 -0.337216 -4.46729 0
M  V30 7971 C 762.319 1.43028 -3.99679 0
M  V30 7972 C 760.226 0.0748539 -5.91353 0
M  V30 7973 H 759.156 0.1665 -0.735387 0
M  V30 7974 H 761.807 -0.294781 -1.81117 0
M  V30 7975 H 760.189 1.61349 -3.61639 0
M  V30 7976 H 761.363 -1.11476 -4.47113 0
M  V30 7977 H 759.678 -0.853126 -4.07567 0
M  V30 7978 H 762.275 1.75115 -5.05212 0
M  V30 7979 H 762.618 2.33911 -3.44371 0
M  V30 7980 H 763.151 0.706924 -3.91468 0
M  V30 7981 H 759.89 -0.799957 -6.506 0
M  V30 7982 H 759.41 0.817122 -5.94208 0
M  V30 7983 H 761.089 0.508389 -6.45 0
M  V30 7984 N 761.222 1.57436 0.0718424 0
M  V30 7985 C 762.499 1.78312 0.804006 0
M  V30 7986 C 762.879 0.789273 1.9579 0
M  V30 7987 O 762.227 -0.177605 2.27809 0
M  V30 7988 C 762.437 3.24798 1.277 0
M  V30 7989 C 763.785 3.88627 1.71039 0
M  V30 7990 O 764.809 3.28689 1.37266 0
M  V30 7991 O 763.668 4.94073 2.33567 0
M  V30 7992 H 760.762 0.73178 0.385262 0
M  V30 7993 H 763.308 1.69621 0.0519219 0
M  V30 7994 H 762.08 3.88688 0.45134 0
M  V30 7995 H 761.703 3.38213 2.0904 0
M  V30 7996 N 762.7 -0.34323 1.53817 0
M  V30 7997 C 763.63 -1.42709 1.84814 0
M  V30 7998 C 764.611 -1.5488 0.703297 0
M  V30 7999 O 765.796 -1.69082 0.955237 0
M  V30 8000 C 762.926 -2.79756 2.05801 0
M  V30 8001 C 761.88 -2.82392 3.21619 0
M  V30 8002 C 761.206 -4.22326 3.2794 0
M  V30 8003 C 762.506 -2.479 4.59721 0
M  V30 8004 H 764.2 -1.17018 2.75585 0
M  V30 8005 H 761.746 -0.561485 1.32602 0
M  V30 8006 H 763.699 -3.55627 2.26069 0
M  V30 8007 H 762.423 -3.06883 1.11761 0
M  V30 8008 H 761.082 -2.08974 3.01207 0
M  V30 8009 H 760.73 -4.46564 2.31494 0
M  V30 8010 H 760.43 -4.25001 4.05768 0
M  V30 8011 H 761.954 -5.00039 3.50419 0
M  V30 8012 H 763.368 -3.13484 4.80001 0
M  V30 8013 H 761.765 -2.61857 5.39954 0
M  V30 8014 H 762.835 -1.43087 4.63308 0
M  V30 8015 N 764.178 -1.45556 -0.604258 0
M  V30 8016 C 765.126 -1.5482 -1.7359 0
M  V30 8017 C 766.12 -0.417966 -1.64163 0
M  V30 8018 O 767.326 -0.594007 -1.69916 0
M  V30 8019 H 763.701 -0.486352 -0.573556 0
M  V30 8020 H 765.672 -2.5001 -1.62903 0
M  V30 8021 C 764.421 -1.53521 -3.11972 0
M  V30 8022 H 763.744 -2.39818 -3.19886 0
M  V30 8023 H 765.184 -1.64061 -3.90973 0
M  V30 8024 C 763.643 -0.260191 -3.35894 0
M  V30 8025 O 764.173 0.658582 -3.96265 0
M  V30 8026 N 762.379 -0.154839 -2.90187 0
M  V30 8027 H 761.926 -0.903378 -2.4124 0
M  V30 8028 H 761.884 0.697437 -3.06567 0
M  V30 8029 N 765.656 0.84705 -1.32902 0
M  V30 8030 C 766.604 1.97765 -1.22441 0
M  V30 8031 C 767.598 1.68919 -0.127546 0
M  V30 8032 O 768.804 1.77633 -0.290973 0
M  V30 8033 H 765.179 0.649072 -0.379748 0
M  V30 8034 H 767.15 2.03713 -2.18044 0
M  V30 8035 C 765.899 3.33834 -0.972125 0
M  V30 8036 H 765.222 3.56564 -1.80837 0
M  V30 8037 H 766.662 4.13467 -0.939209 0
M  V30 8038 C 765.121 3.35328 0.325059 0
M  V30 8039 O 765.651 3.78887 1.33445 0
M  V30 8040 N 763.857 2.88488 0.349718 0
M  V30 8041 H 763.404 2.53234 -0.472236 0
M  V30 8042 H 763.362 2.8987 1.21748 0
M  V30 8043 N 767.134 1.16236 1.06428 0
M  V30 8044 C 768.411 0.853294 1.76006 0
M  V30 8045 C 768.791 -0.649162 2.00871 0
M  V30 8046 O 768.139 -1.59653 1.63472 0
M  V30 8047 C 768.349 1.67448 3.06206 0
M  V30 8048 C 769.697 1.8866 3.80385 0
M  V30 8049 O 770.721 1.64303 3.16043 0
M  V30 8050 O 769.58 2.29518 4.95968 0
M  V30 8051 H 766.674 0.314737 0.764767 0
M  V30 8052 H 769.22 1.26865 1.12709 0
M  V30 8053 H 767.992 2.69411 2.83784 0
M  V30 8054 H 767.615 1.25608 3.77238 0
M  V30 8055 N 768.612 -1.24939 0.960631 0
M  V30 8056 C 769.859 -1.92818 0.618663 0
M  V30 8057 C 770.187 -1.75177 -0.845173 0
M  V30 8058 O 769.442 -1.09412 -1.62258 0
M  V30 8059 C 769.741 -3.45066 0.930809 0
M  V30 8060 C 769.407 -3.82869 2.38164 0
M  V30 8061 C 768.069 -3.92899 2.7782 0
M  V30 8062 C 770.421 -4.01483 3.32356 0
M  V30 8063 C 767.749 -4.18955 4.10723 0
M  V30 8064 C 770.101 -4.29033 4.6488 0
M  V30 8065 C 768.765 -4.37282 5.04322 0
M  V30 8066 H 768.035 -0.705571 0.226385 0
M  V30 8067 H 770.682 -1.48365 1.21079 0
M  V30 8068 H 768.987 -3.9096 0.256355 0
M  V30 8069 H 770.684 -3.95783 0.644712 0
M  V30 8070 H 767.274 -3.75622 2.06413 0
M  V30 8071 H 771.458 -3.93143 3.02907 0
M  V30 8072 H 766.714 -4.23558 4.40918 0
M  V30 8073 H 770.888 -4.42381 5.3784 0
M  V30 8074 H 768.515 -4.57225 6.0733 0
M  V30 8075 O 770.129 -0.867795 -1.36204 0
M  V30 8076 H 770.82 -0.466586 -1.87996 0
M  V30 END ATOM
M  V30 BEGIN BOND
M  V30 END BOND
M  V30 END CTAB
M  END
$$$$
