drugbank_target|P09758 Tumor-associated calcium signal transducer 2 (DB12893)
 OpenBabel12092121223D

  0  0  0     0  0            999 V3000
M  V30 BEGIN CTAB
M  V30 COUNTS 5067 5110 0 0 0
M  V30 BEGIN ATOM
M  V30 1 H -0.908 1.98254 -0.117106 0
M  V30 2 N 0 1.576 0 0
M  V30 3 C 0.933 2.03868 1.02534 0
M  V30 4 C 1.911 0.928543 1.3348 0
M  V30 5 O 3.095 1.19667 1.45644 0
M  V30 6 C 0.222 2.43627 2.35294 0
M  V30 7 C -0.732 3.65373 2.2001 0
M  V30 8 S 0.101 5.13292 1.52614 0
M  V30 9 C 1.257 5.56322 2.86805 0
M  V30 10 H 1.49 2.90518 0.631377 0
M  V30 11 H -0.977 1.52953 0.210867 0
M  V30 12 H 0.981 2.67203 3.11629 0
M  V30 13 H -0.358 1.57376 2.7183 0
M  V30 14 H -1.165 3.90944 3.18086 0
M  V30 15 H -1.563 3.418 1.51819 0
M  V30 16 H 0.729 5.58782 3.83104 0
M  V30 17 H 1.672 6.56266 2.65933 0
M  V30 18 H 2.08 4.83886 2.90714 0
M  V30 19 N 1.4781 -0.272755 1.55222 0
M  V30 20 C 2.4411 -1.32041 1.87344 0
M  V30 21 C 3.4411 -1.42342 0.74803 0
M  V30 22 O 4.6311 -1.41488 1.0162 0
M  V30 23 C 1.7631 -2.70173 2.07893 0
M  V30 24 H 2.9561 -1.04789 2.80997 0
M  V30 25 H 0.5091 -0.51083 1.47717 0
M  V30 26 H 1.2441 -3.02605 1.16622 0
M  V30 27 H 1.0291 -2.64082 2.89833 0
M  V30 28 H 2.5191 -3.45869 2.34017 0
M  V30 29 N 2.9562 -1.48159 -0.537278 0
M  V30 30 C 4.3722 -1.34118 -0.865129 0
M  V30 31 C 4.5722 -0.346678 -1.98495 0
M  V30 32 O 3.6282 0.234715 -2.51407 0
M  V30 33 C 4.9412 -2.73963 -1.23954 0
M  V30 34 C 6.4892 -2.82397 -1.34984 0
M  V30 35 C 6.9642 -4.22928 -1.75772 0
M  V30 36 N 8.4552 -4.25566 -1.82887 0
M  V30 37 C 9.1902 -5.31235 -2.15817 0
M  V30 38 N 8.6862 -6.47189 -2.47222 0
M  V30 39 N 10.4792 -5.18624 -2.16761 0
M  V30 40 H 2.6302 -2.1144 0.201715 0
M  V30 41 H 4.8932 -0.947598 0.0275949 0
M  V30 42 H 4.5992 -3.48264 -0.490381 0
M  V30 43 H 4.4732 -3.0702 -2.19132 0
M  V30 44 H 6.8602 -2.08356 -2.08978 0
M  V30 45 H 6.9412 -2.5297 -0.379448 0
M  V30 46 H 6.5852 -4.97482 -1.02341 0
M  V30 47 H 6.5152 -4.49794 -2.73848 0
M  V30 48 H 9.0062 -3.41924 -1.60924 0
M  V30 49 H 9.3192 -7.23564 -2.71433 0
M  V30 50 H 7.6642 -6.50476 -2.44757 0
M  V30 51 H 10.8552 -4.27056 -1.91679 0
M  V30 52 H 11.0282 -6.01078 -2.42093 0
M  V30 53 N 4.4343 0.785586 -1.36625 0
M  V30 54 C 5.6823 1.54057 -1.30808 0
M  V30 55 C 6.0033 1.94683 0.111157 0
M  V30 56 O 5.2733 1.65241 1.05224 0
M  V30 57 H 3.8533 0.571354 -0.481211 0
M  V30 58 H 6.5153 0.935821 -1.70963 0
M  V30 59 H 5.6113 2.44637 -1.93801 0
M  V30 60 N 5.9124 1.20967 1.01018 0
M  V30 61 C 7.3234 1.02319 1.56165 0
M  V30 62 C 7.6744 -0.418546 1.91684 0
M  V30 63 O 6.7994 -1.30096 1.72928 0
M  V30 64 C 7.3944 1.85109 2.8376 0
M  V30 65 C 5.9534 1.70809 3.35412 0
M  V30 66 C 5.1004 1.82643 2.08655 0
M  V30 67 H 8.0514 1.35065 0.833255 0
M  V30 68 H 8.0724 1.35827 3.55431 0
M  V30 69 H 7.5844 2.90035 2.57878 0
M  V30 70 H 5.6854 0.685464 3.66241 0
M  V30 71 H 5.7984 2.52467 4.07182 0
M  V30 72 H 4.1624 1.25896 2.21409 0
M  V30 73 H 4.9454 2.89066 1.85191 0
M  V30 74 N 7.3905 -1.2043 1.01659 0
M  V30 75 C 8.6385 -1.89423 0.704522 0
M  V30 76 C 8.9595 -1.79231 -0.768197 0
M  V30 77 O 8.2295 -1.1947 -1.55254 0
M  V30 78 H 6.8095 -0.701178 0.257602 0
M  V30 79 H 9.4715 -1.4626 1.28818 0
M  V30 80 H 8.5675 -2.96052 0.987916 0
M  V30 81 N 8.8686 -0.792821 -1.36206 0
M  V30 82 C 9.7986 -0.207853 -2.32573 0
M  V30 83 C 10.7796 0.659055 -1.56813 0
M  V30 84 O 11.9646 0.592176 -1.84951 0
M  V30 85 C 9.0946 0.655449 -3.41059 0
M  V30 86 C 8.0486 -0.111842 -4.27854 0
M  V30 87 C 7.3746 0.872274 -5.27537 0
M  V30 88 C 8.6746 -1.30299 -5.05786 0
M  V30 89 H 10.3686 -1.01294 -2.81744 0
M  V30 90 H 7.9146 -0.48854 -1.3546 0
M  V30 91 H 9.8676 1.07464 -4.07467 0
M  V30 92 H 8.5916 1.49328 -2.90463 0
M  V30 93 H 7.2506 -0.512053 -3.63006 0
M  V30 94 H 6.8986 1.70523 -4.73214 0
M  V30 95 H 6.5986 0.363291 -5.86476 0
M  V30 96 H 8.1226 1.28996 -5.96818 0
M  V30 97 H 9.5366 -0.959379 -5.65216 0
M  V30 98 H 7.9336 -1.7455 -5.74154 0
M  V30 99 H 9.0036 -2.09663 -4.37229 0
M  V30 100 N 10.3467 1.47872 -0.545128 0
M  V30 101 C 11.3097 2.28337 0.198717 0
M  V30 102 C 12.3097 1.36255 0.853888 0
M  V30 103 O 13.4997 1.59003 0.711606 0
M  V30 104 C 10.6317 3.15585 1.28915 0
M  V30 105 H 11.8247 2.95567 -0.507941 0
M  V30 106 H 9.3777 1.53362 -0.301616 0
M  V30 107 H 10.1127 2.53019 2.02859 0
M  V30 108 H 9.8977 3.83337 0.824309 0
M  V30 109 H 11.3877 3.76243 1.81194 0
M  V30 110 N 11.8248 0.280983 1.55075 0
M  V30 111 C 13.2358 -0.215629 1.85451 0
M  V30 112 C 13.5868 -1.54991 1.203 0
M  V30 113 O 12.7118 -2.10699 0.493435 0
M  V30 114 C 13.3068 -0.398026 3.36454 0
M  V30 115 C 11.8658 -0.838866 3.66933 0
M  V30 116 C 11.0128 0.064458 2.77225 0
M  V30 117 H 13.9638 0.502601 1.50531 0
M  V30 118 H 13.9848 -1.23569 3.59876 0
M  V30 119 H 13.4968 0.573241 3.83843 0
M  V30 120 H 11.5978 -1.8214 3.25048 0
M  V30 121 H 11.7108 -0.672123 4.74362 0
M  V30 122 H 10.0748 -0.452863 2.50642 0
M  V30 123 H 10.8578 1.03172 3.2743 0
M  V30 124 N 13.3029 -1.57598 0.00835791 0
M  V30 125 C 14.7139 -1.7892 -0.53333 0
M  V30 126 C 15.0649 -0.916609 -1.73473 0
M  V30 127 O 14.1899 -0.121336 -2.1606 0
M  V30 128 C 14.7849 -3.24488 -0.974313 0
M  V30 129 C 13.3439 -3.46878 -1.46125 0
M  V30 130 C 12.4909 -2.74157 -0.416302 0
M  V30 131 H 15.4419 -1.56958 0.234495 0
M  V30 132 H 15.4629 -3.3306 -1.83988 0
M  V30 133 H 14.9749 -3.87972 -0.099718 0
M  V30 134 H 13.0759 -2.8862 -2.35646 0
M  V30 135 H 13.1889 -4.55572 -1.48295 0
M  V30 136 H 11.5529 -2.39022 -0.87981 0
M  V30 137 H 12.3359 -3.40345 0.44947 0
M  V30 138 N 14.781 0.264519 -1.55364 0
M  V30 139 C 16.192 0.834936 -1.6699 0
M  V30 140 C 16.543 1.86718 -0.602552 0
M  V30 141 O 15.668 2.14899 0.254425 0
M  V30 142 C 16.263 1.5212 -3.02729 0
M  V30 143 C 14.822 2.03954 -3.16354 0
M  V30 144 C 13.969 0.884498 -2.62815 0
M  V30 145 H 16.92 0.0406869 -1.58648 0
M  V30 146 H 16.941 2.38853 -2.96191 0
M  V30 147 H 16.453 0.769668 -3.80392 0
M  V30 148 H 14.554 2.82041 -2.43482 0
M  V30 149 H 14.667 2.24902 -4.23032 0
M  V30 150 H 13.031 1.2802 -2.20188 0
M  V30 151 H 13.814 0.14634 -3.42988 0
M  V30 152 N 16.2591 1.48442 0.529413 0
M  V30 153 C 17.1891 1.65902 1.64313 0
M  V30 154 C 18.1701 0.507897 1.6234 0
M  V30 155 O 19.3551 0.740503 1.79528 0
M  V30 156 C 16.4851 1.69911 3.02898 0
M  V30 157 C 15.4391 2.8453 3.19729 0
M  V30 158 C 14.7651 2.73629 4.59381 0
M  V30 159 C 16.0651 4.25821 3.02447 0
M  V30 160 H 17.7591 2.5914 1.49955 0
M  V30 161 H 15.3051 1.24709 0.719982 0
M  V30 162 H 17.2581 1.80715 3.80684 0
M  V30 163 H 15.9821 0.732524 3.18279 0
M  V30 164 H 14.6411 2.73283 2.44361 0
M  V30 165 H 14.2891 1.74938 4.71599 0
M  V30 166 H 13.9891 3.50541 4.71588 0
M  V30 167 H 15.5131 2.86401 5.39265 0
M  V30 168 H 16.9271 4.37898 3.70024 0
M  V30 169 H 15.3241 5.03735 3.26146 0
M  V30 170 H 16.3941 4.42244 1.98867 0
M  V30 171 N 17.7372 -0.778329 1.37039 0
M  V30 172 C 19.1532 -1.07796 1.17695 0
M  V30 173 C 19.3532 -2.01498 0.00860115 0
M  V30 174 O 18.4092 -2.43901 -0.653352 0
M  V30 175 C 19.7222 -1.68178 2.49272 0
M  V30 176 C 21.2702 -1.80467 2.55735 0
M  V30 177 C 21.7452 -2.44263 3.87427 0
M  V30 178 N 23.2362 -2.51721 3.88833 0
M  V30 179 C 23.9712 -3.01919 4.87476 0
M  V30 180 N 23.4672 -3.5234 5.96513 0
M  V30 181 N 25.2602 -3.00733 4.74885 0
M  V30 182 H 17.4112 -0.156032 2.11826 0
M  V30 183 H 19.6742 -0.131844 0.938787 0
M  V30 184 H 19.3802 -1.06796 3.35093 0
M  V30 185 H 19.2542 -2.67554 2.65885 0
M  V30 186 H 21.6412 -2.40984 1.70325 0
M  V30 187 H 21.7222 -0.798656 2.43013 0
M  V30 188 H 21.3662 -1.84388 4.73248 0
M  V30 189 H 21.2962 -3.45458 3.9745 0
M  V30 190 H 23.7872 -2.1603 3.10063 0
M  V30 191 H 24.1002 -3.89027 6.67741 0
M  V30 192 H 22.4452 -3.50462 6.00168 0
M  V30 193 H 25.6362 -2.60638 3.88826 0
M  V30 194 H 25.8092 -3.39545 5.51918 0
M  V30 195 N 19.2153 -1.21501 -1.00376 0
M  V30 196 C 20.1453 -0.999478 -2.11028 0
M  V30 197 C 21.1263 0.0759671 -1.6993 0
M  V30 198 O 22.3113 -0.0841106 -1.94018 0
M  V30 199 C 19.4413 -0.564709 -3.42678 0
M  V30 200 C 18.3953 -1.58486 -3.97576 0
M  V30 201 C 17.7213 -1.00628 -5.25146 0
M  V30 202 C 19.0213 -2.97204 -4.29496 0
M  V30 203 H 20.7153 -1.92495 -2.29317 0
M  V30 204 H 18.2613 -0.92693 -1.102 0
M  V30 205 H 20.2143 -0.401091 -4.19487 0
M  V30 206 H 18.9383 0.396411 -3.24185 0
M  V30 207 H 17.5973 -1.73606 -3.22888 0
M  V30 208 H 17.2453 -0.0368439 -5.02987 0
M  V30 209 H 16.9453 -1.68771 -5.62841 0
M  V30 210 H 18.4693 -0.854015 -6.04598 0
M  V30 211 H 19.8833 -2.8552 -4.97143 0
M  V30 212 H 18.2803 -3.62372 -4.78338 0
M  V30 213 H 19.3503 -3.47956 -3.3772 0
M  V30 214 N 20.6934 1.19889 -1.02296 0
M  V30 215 C 22.1044 1.71124 -0.746568 0
M  V30 216 C 22.4554 1.81939 0.734335 0
M  V30 217 O 21.5804 1.48639 1.57275 0
M  V30 218 C 22.1754 3.10804 -1.34857 0
M  V30 219 C 20.7344 3.59323 -1.1209 0
M  V30 220 C 19.8814 2.3635 -1.45031 0
M  V30 221 H 22.8324 1.04813 -1.19163 0
M  V30 222 H 22.8534 3.73186 -0.742437 0
M  V30 223 H 22.3654 3.029 -2.42638 0
M  V30 224 H 20.4664 3.7255 -0.0610337 0
M  V30 225 H 20.5794 4.4378 -1.80544 0
M  V30 226 H 18.9434 2.39399 -0.869487 0
M  V30 227 H 19.7264 2.31081 -2.53883 0
M  V30 228 N 22.1715 0.800033 1.35784 0
M  V30 229 C 23.1015 0.220184 2.3246 0
M  V30 230 C 24.0825 -0.65073 1.57161 0
M  V30 231 O 25.2675 -0.582359 1.85263 0
M  V30 232 C 22.3975 -0.637353 3.41402 0
M  V30 233 C 21.3515 0.134531 4.27789 0
M  V30 234 C 20.6775 -0.844285 5.27992 0
M  V30 235 C 21.9775 1.32979 5.05088 0
M  V30 236 H 23.6715 1.02787 2.81203 0
M  V30 237 H 21.2175 0.495717 1.35199 0
M  V30 238 H 23.1705 -1.05302 4.08031 0
M  V30 239 H 21.8945 -1.47785 2.91251 0
M  V30 240 H 20.5535 0.531296 3.6273 0
M  V30 241 H 20.2015 -1.68011 4.74111 0
M  V30 242 H 19.9015 -0.332184 5.8666 0
M  V30 243 H 21.4255 -1.2583 5.97494 0
M  V30 244 H 22.8395 0.98934 5.64699 0
M  V30 245 H 21.2365 1.77593 5.7322 0
M  V30 246 H 22.3065 2.11978 4.36111 0
M  V30 247 N 23.6496 -1.47581 0.552962 0
M  V30 248 C 24.5796 -2.32762 -0.185451 0
M  V30 249 C 25.5606 -1.43527 -0.912905 0
M  V30 250 O 26.7456 -1.72388 -0.894201 0
M  V30 251 C 23.8756 -3.25219 -1.21859 0
M  V30 252 C 22.8296 -4.23661 -0.607864 0
M  V30 253 C 22.1556 -5.05413 -1.74533 0
M  V30 254 C 23.4556 -5.20481 0.435582 0
M  V30 255 H 25.1496 -2.94749 0.525684 0
M  V30 256 H 22.6956 -1.41738 0.254251 0
M  V30 257 H 24.6486 -3.8365 -1.7433 0
M  V30 258 H 23.3726 -2.61279 -1.95961 0
M  V30 259 H 22.0316 -3.66451 -0.104489 0
M  V30 260 H 21.6796 -4.3788 -2.47529 0
M  V30 261 H 21.3796 -5.72059 -1.34249 0
M  V30 262 H 22.9036 -5.66701 -2.27338 0
M  V30 263 H 24.3176 -5.733 -0.00290157 0
M  V30 264 H 22.7146 -5.95305 0.757067 0
M  V30 265 H 23.7846 -4.66217 1.33303 0
M  V30 266 N 25.1277 -0.289203 -1.54924 0
M  V30 267 C 26.0577 0.58549 -2.2604 0
M  V30 268 C 27.0387 1.14753 -1.25562 0
M  V30 269 O 28.2237 1.17906 -1.54311 0
M  V30 270 C 25.3537 1.76305 -2.99222 0
M  V30 271 C 24.3077 1.33191 -4.06748 0
M  V30 272 C 23.6337 2.5937 -4.6758 0
M  V30 273 C 24.9337 0.471775 -5.20165 0
M  V30 274 H 26.6277 -0.00763532 -2.99399 0
M  V30 275 H 24.1737 -0.00511229 -1.43999 0
M  V30 276 H 26.1267 2.38097 -3.47689 0
M  V30 277 H 24.8507 2.38223 -2.23422 0
M  V30 278 H 23.5097 0.737121 -3.59113 0
M  V30 279 H 23.1577 3.19576 -3.88433 0
M  V30 280 H 22.8577 2.31228 -5.40192 0
M  V30 281 H 24.3817 3.21985 -5.18804 0
M  V30 282 H 25.7957 0.995056 -5.64599 0
M  V30 283 H 24.1927 0.284639 -5.99425 0
M  V30 284 H 25.2627 -0.506041 -4.82252 0
M  V30 285 N 26.6058 1.57591 -0.0167156 0
M  V30 286 C 27.5358 2.12496 0.967858 0
M  V30 287 C 28.5168 1.03807 1.34752 0
M  V30 288 O 29.7018 1.31577 1.42833 0
M  V30 289 C 26.8318 2.64194 2.25431 0
M  V30 290 C 25.7858 3.77559 2.01576 0
M  V30 291 C 25.1118 4.15636 3.36379 0
M  V30 292 C 26.4118 5.04151 1.36489 0
M  V30 293 H 28.1058 2.95013 0.510643 0
M  V30 294 H 25.6518 1.41915 0.244181 0
M  V30 295 H 27.6048 3.01236 2.94678 0
M  V30 296 H 26.3288 1.78821 2.73296 0
M  V30 297 H 24.9878 3.40937 1.34751 0
M  V30 298 H 24.6358 3.27263 3.81979 0
M  V30 299 H 24.3358 4.92022 3.21229 0
M  V30 300 H 25.8598 4.5525 4.06915 0
M  V30 301 H 27.2738 5.38857 1.95718 0
M  V30 302 H 25.6708 5.85453 1.31776 0
M  V30 303 H 26.7408 4.83733 0.336219 0
M  V30 304 N 28.0839 -0.256276 1.55502 0
M  V30 305 C 29.3299 -0.987079 1.77157 0
M  V30 306 C 29.6629 -1.85327 0.580315 0
M  V30 307 O 28.9379 -1.89874 -0.421686 0
M  V30 308 C 29.2209 -1.85553 3.08613 0
M  V30 309 C 29.0739 -1.01816 4.38125 0
M  V30 310 C 30.3929 -2.8397 3.36228 0
M  V30 311 H 27.5119 -0.357428 0.644526 0
M  V30 312 H 30.1539 -0.258239 1.88237 0
M  V30 313 H 28.3039 -2.47695 2.99298 0
M  V30 314 H 29.9759 -0.416159 4.59419 0
M  V30 315 H 28.2189 -0.322178 4.32602 0
M  V30 316 H 28.8899 -1.65939 5.26468 0
M  V30 317 H 31.3659 -2.31964 3.45445 0
M  V30 318 H 30.2419 -3.41864 4.29442 0
M  V30 319 H 30.5029 -3.59955 2.56681 0
M  V30 320 N 29.562 -1.4872 -0.521534 0
M  V30 321 C 30.492 -1.66771 -1.63431 0
M  V30 322 C 31.473 -0.516499 -1.62069 0
M  V30 323 O 32.658 -0.750013 -1.79132 0
M  V30 324 C 29.788 -1.71515 -3.01993 0
M  V30 325 C 28.742 -2.86222 -3.18216 0
M  V30 326 C 28.068 -2.76061 -4.57924 0
M  V30 327 C 29.368 -4.27419 -3.00184 0
M  V30 328 H 31.062 -2.59932 -1.48579 0
M  V30 329 H 28.608 -1.25089 -0.713358 0
M  V30 330 H 30.561 -1.82731 -3.7972 0
M  V30 331 H 29.285 -0.749393 -3.17886 0
M  V30 332 H 27.944 -2.74575 -2.42908 0
M  V30 333 H 27.592 -1.77437 -4.70665 0
M  V30 334 H 27.292 -3.53037 -4.69722 0
M  V30 335 H 28.816 -2.89256 -5.37739 0
M  V30 336 H 30.23 -4.39855 -3.67697 0
M  V30 337 H 28.627 -5.05458 -3.2347 0
M  V30 338 H 29.697 -4.43293 -1.96518 0
M  V30 339 N 31.0401 0.771051 -1.3745 0
M  V30 340 C 32.0031 1.86598 -1.33093 0
M  V30 341 C 33.0031 1.59076 -0.234845 0
M  V30 342 O 34.1931 1.67145 -0.490732 0
M  V30 343 C 31.3251 3.23747 -1.06773 0
M  V30 344 H 32.5181 1.91873 -2.30488 0
M  V30 345 H 30.0711 0.970876 -1.2249 0
M  V30 346 H 30.8061 3.24148 -0.099129 0
M  V30 347 H 30.5911 3.45115 -1.86112 0
M  V30 348 H 32.0811 4.03824 -1.06377 0
M  V30 349 N 32.5182 1.22032 0.997298 0
M  V30 350 C 33.4812 0.987909 2.06816 0
M  V30 351 C 34.4812 -0.0440084 1.6074 0
M  V30 352 O 35.6712 0.194053 1.73116 0
M  V30 353 C 32.8032 0.49132 3.37341 0
M  V30 354 H 33.9962 1.93803 2.28868 0
M  V30 355 H 31.5492 1.03838 1.16822 0
M  V30 356 H 32.2842 -0.463364 3.20973 0
M  V30 357 H 32.0692 1.23575 3.72118 0
M  V30 358 H 33.5592 0.348824 4.16141 0
M  V30 359 N 33.9963 -1.19345 1.0293 0
M  V30 360 C 35.2423 -1.89318 0.727083 0
M  V30 361 C 35.5753 -1.79446 -0.742483 0
M  V30 362 O 34.8503 -1.1871 -1.54072 0
M  V30 363 C 35.1333 -3.40238 1.17942 0
M  V30 364 C 34.9863 -3.58979 2.71024 0
M  V30 365 C 36.3053 -4.33479 0.760548 0
M  V30 366 H 33.4243 -0.687475 0.265606 0
M  V30 367 H 36.0663 -1.40477 1.2793 0
M  V30 368 H 34.2163 -3.81964 0.709608 0
M  V30 369 H 35.8883 -3.26421 3.25955 0
M  V30 370 H 34.1313 -3.02018 3.11396 0
M  V30 371 H 34.8023 -4.64823 2.9773 0
M  V30 372 H 37.2783 -3.99469 1.16464 0
M  V30 373 H 36.1543 -5.37664 1.10493 0
M  V30 374 H 36.4153 -4.40813 -0.337063 0
M  V30 375 N 35.4744 -0.807222 -1.35358 0
M  V30 376 C 36.7024 -0.400377 -2.02989 0
M  V30 377 C 37.1174 0.988859 -1.60832 0
M  V30 378 O 36.4744 1.63729 -0.806175 0
M  V30 379 C 36.5254 -0.474867 -3.58368 0
M  V30 380 O 36.2464 -1.80933 -3.98992 0
M  V30 381 C 37.7474 -0.0609112 -4.43258 0
M  V30 382 H 34.9674 -0.162587 -0.651004 0
M  V30 383 H 37.5114 -1.09102 -1.72965 0
M  V30 384 H 35.6664 0.167534 -3.87038 0
M  V30 385 H 36.0804 -1.77256 -4.9364 0
M  V30 386 H 37.5544 -0.164145 -5.51756 0
M  V30 387 H 38.0314 0.993831 -4.27808 0
M  V30 388 H 38.6374 -0.676492 -4.19885 0
M  V30 389 N 36.9525 1.47285 -0.560781 0
M  V30 390 C 38.2005 2.02064 -0.0379868 0
M  V30 391 C 38.5215 1.43711 1.31803 0
M  V30 392 O 37.7915 0.61362 1.86042 0
M  V30 393 H 36.3715 0.746918 -0.0110531 0
M  V30 394 H 39.0335 1.80648 -0.731598 0
M  V30 395 H 38.1295 3.12064 0.0474463 0
M  V30 396 N 38.4306 0.297415 1.54768 0
M  V30 397 C 39.3806 -0.595275 2.20092 0
M  V30 398 C 40.3646 -1.10163 1.17273 0
M  V30 399 O 41.5566 -1.043 1.43006 0
M  V30 400 C 38.6856 -1.7684 2.94249 0
M  V30 401 C 37.7716 -1.27818 4.0438 0
M  V30 402 N 38.1626 -0.505695 5.03266 0
M  V30 403 C 36.4606 -1.55923 4.17857 0
M  V30 404 C 37.1616 -0.245094 5.81183 0
M  V30 405 N 36.1376 -0.823881 5.3732 0
M  V30 406 H 39.9396 0.00250837 2.939 0
M  V30 407 H 37.4536 0.102007 1.62079 0
M  V30 408 H 39.4506 -2.41944 3.39513 0
M  V30 409 H 38.1106 -2.36992 2.21957 0
M  V30 410 H 39.1216 -0.150928 5.1768 0
M  V30 411 H 35.7986 -2.16849 3.56767 0
M  V30 412 H 37.1886 0.375084 6.70852 0
M  V30 413 N 39.9087 -1.5758 0.0250728 0
M  V30 414 C 41.1367 -1.9593 -0.664747 0
M  V30 415 C 41.5517 -0.901352 -1.65895 0
M  V30 416 O 40.9087 0.117255 -1.82123 0
M  V30 417 C 40.9597 -3.34342 -1.37468 0
M  V30 418 O 40.6807 -4.36079 -0.420324 0
M  V30 419 C 42.1817 -3.873 -2.1567 0
M  V30 420 H 39.4017 -0.645405 -0.183557 0
M  V30 421 H 41.9457 -2.04329 0.0836372 0
M  V30 422 H 40.1007 -3.27175 -2.0745 0
M  V30 423 H 40.5147 -5.16297 -0.923991 0
M  V30 424 H 41.9887 -4.86504 -2.60803 0
M  V30 425 H 42.4657 -3.21331 -2.99405 0
M  V30 426 H 43.0717 -3.97723 -1.50654 0
M  V30 427 N 41.3868 0.248026 -1.55636 0
M  V30 428 C 42.3498 1.29044 -1.89421 0
M  V30 429 C 43.3498 1.41134 -0.770581 0
M  V30 430 O 44.5398 1.39854 -1.03858 0
M  V30 431 C 41.6718 2.66831 -2.12165 0
M  V30 432 H 42.8648 1.00305 -2.82629 0
M  V30 433 H 40.4178 0.487265 -1.48511 0
M  V30 434 H 41.1528 3.00711 -1.21422 0
M  V30 435 H 40.9378 2.59438 -2.93997 0
M  V30 436 H 42.4278 3.42103 -2.3949 0
M  V30 437 N 42.8649 1.48995 0.513639 0
M  V30 438 C 43.8279 1.64229 1.59879 0
M  V30 439 C 44.8279 0.514696 1.5234 0
M  V30 440 O 46.0179 0.78087 1.55718 0
M  V30 441 C 43.1499 1.62783 2.99524 0
M  V30 442 H 44.3429 2.61004 1.47705 0
M  V30 443 H 41.8959 1.37837 0.736936 0
M  V30 444 H 42.6309 0.675461 3.17188 0
M  V30 445 H 42.4159 2.4466 3.06404 0
M  V30 446 H 43.9059 1.76669 3.78388 0
M  V30 447 N 44.343 -0.763751 1.37857 0
M  V30 448 C 45.275 -1.88664 1.30148 0
M  V30 449 C 46.288 -1.61365 0.215685 0
M  V30 450 O 47.477 -1.72134 0.472459 0
M  V30 451 C 44.577 -3.24075 0.991396 0
M  V30 452 C 43.75 -3.78958 2.18426 0
M  V30 453 C 42.809 -4.92862 1.8432 0
M  V30 454 O 41.835 -5.08027 2.56704 0
M  V30 455 N 43.037 -5.75071 0.792081 0
M  V30 456 H 45.802 -1.95791 2.26905 0
M  V30 457 H 43.363 -0.943226 1.31586 0
M  V30 458 H 45.355 -3.97804 0.743935 0
M  V30 459 H 43.925 -3.12399 0.112122 0
M  V30 460 H 43.145 -2.96913 2.59299 0
M  V30 461 H 44.433 -4.12357 2.98058 0
M  V30 462 H 43.831 -5.65375 0.191595 0
M  V30 463 H 42.388 -6.48991 0.60449 0
M  V30 464 N 45.8211 -1.22559 -0.990812 0
M  V30 465 C 47.0981 -0.959875 -1.70428 0
M  V30 466 C 47.4781 0.524455 -2.04481 0
M  V30 467 O 46.8261 1.49302 -1.72977 0
M  V30 468 C 47.0361 -1.85955 -2.95333 0
M  V30 469 C 48.3841 -2.11687 -3.68068 0
M  V30 470 O 49.4081 -1.8342 -3.05345 0
M  V30 471 O 48.2671 -2.59572 -4.80921 0
M  V30 472 H 45.3611 -0.361154 -0.743974 0
M  V30 473 H 47.9071 -1.33554 -1.04697 0
M  V30 474 H 46.6791 -2.86346 -2.66687 0
M  V30 475 H 46.3021 -1.4856 -3.68803 0
M  V30 476 N 47.2992 1.18797 -1.03562 0
M  V30 477 C 48.2472 2.24297 -0.615905 0
M  V30 478 C 49.2412 1.65643 0.354808 0
M  V30 479 O 50.4472 1.78618 0.22265 0
M  V30 480 H 46.8222 0.729909 -0.180934 0
M  V30 481 H 48.7932 2.5701 -1.5162 0
M  V30 482 C 47.5422 3.47698 0.0104735 0
M  V30 483 H 46.8652 3.93125 -0.727509 0
M  V30 484 H 48.3052 4.23159 0.266995 0
M  V30 485 C 46.7642 3.12489 1.25905 0
M  V30 486 O 47.2942 3.25761 2.35038 0
M  V30 487 N 45.5002 2.6686 1.15039 0
M  V30 488 H 45.0472 2.56261 0.262328 0
M  V30 489 H 45.0052 2.43674 1.98672 0
M  V30 490 N 48.7773 0.814389 1.34928 0
M  V30 491 C 50.0173 0.404165 2.00364 0
M  V30 492 C 50.3813 -1.01166 1.63185 0
M  V30 493 O 51.5823 -1.52431 2.21401 0
M  V30 494 C 49.8533 0.590718 3.52484 0
M  V30 495 S 51.4123 0.272075 4.37956 0
M  V30 496 H 48.2303 0.15311 0.694319 0
M  V30 497 H 50.8323 1.05834 1.64376 0
M  V30 498 H 49.5363 1.62099 3.77031 0
M  V30 499 H 49.0673 -0.0785013 3.93322 0
M  V30 500 H 51.0823 -0.917405 4.87645 0
M  V30 501 N 50.2554 -1.46986 0.568584 0
M  V30 502 C 51.4834 -2.0683 0.0539956 0
M  V30 503 C 51.8984 -1.41953 -1.24478 0
M  V30 504 O 51.2554 -0.519933 -1.74937 0
M  V30 505 C 51.3064 -3.61254 -0.133362 0
M  V30 506 O 51.0274 -4.237 1.11399 0
M  V30 507 C 52.5284 -4.37992 -0.683927 0
M  V30 508 H 49.7484 -0.669058 0.0510141 0
M  V30 509 H 52.2924 -1.88824 0.785234 0
M  V30 510 H 50.4474 -3.78735 -0.81477 0
M  V30 511 H 50.8614 -5.16388 0.91888 0
M  V30 512 H 52.3354 -5.46684 -0.764263 0
M  V30 513 H 52.8124 -4.05058 -1.69778 0
M  V30 514 H 53.4184 -4.25283 -0.0378494 0
M  V30 515 N 51.7335 -0.305618 -1.54608 0
M  V30 516 C 52.9735 0.303114 -2.0214 0
M  V30 517 C 53.3375 1.50737 -1.18921 0
M  V30 518 O 54.5385 2.18778 -1.56172 0
M  V30 519 C 52.8095 0.646332 -3.51507 0
M  V30 520 S 54.3685 1.23727 -4.20995 0
M  V30 521 H 51.1865 0.0927643 -0.704923 0
M  V30 522 H 53.7885 -0.434566 -1.90609 0
M  V30 523 H 52.4925 -0.238541 -4.09706 0
M  V30 524 H 52.0235 1.41468 -3.67084 0
M  V30 525 H 54.0385 2.52489 -4.27158 0
M  V30 526 N 53.2116 1.57565 -0.0334293 0
M  V30 527 C 54.6226 1.79746 0.504798 0
M  V30 528 C 54.9736 0.944091 1.71992 0
M  V30 529 O 54.0986 0.155694 2.15839 0
M  V30 530 C 54.6936 3.25997 0.922567 0
M  V30 531 C 53.2526 3.49159 1.40588 0
M  V30 532 C 52.3996 2.74785 0.372633 0
M  V30 533 H 55.3506 1.56565 -0.259436 0
M  V30 534 H 55.3716 3.35945 1.78666 0
M  V30 535 H 54.8836 3.88081 0.0379825 0
M  V30 536 H 52.9846 2.92332 2.31025 0
M  V30 537 H 53.0976 4.57873 1.41028 0
M  V30 538 H 51.4616 2.40391 0.841672 0
M  V30 539 H 52.2446 3.39587 -0.503559 0
M  V30 540 N 54.6897 -0.239769 1.55765 0
M  V30 541 C 55.9177 -0.98417 1.81994 0
M  V30 542 C 56.3327 -1.7867 0.610124 0
M  V30 543 O 55.6897 -1.77571 -0.421271 0
M  V30 544 C 55.7407 -1.91635 3.06526 0
M  V30 545 O 55.4617 -1.14629 4.22838 0
M  V30 546 C 56.9627 -2.77616 3.45607 0
M  V30 547 H 54.1827 -0.28928 0.605441 0
M  V30 548 H 56.7267 -0.260499 2.02834 0
M  V30 549 H 54.8817 -2.5942 2.87715 0
M  V30 550 H 55.2957 -1.77745 4.93464 0
M  V30 551 H 56.7697 -3.38759 4.35828 0
M  V30 552 H 57.2467 -3.4909 2.6652 0
M  V30 553 H 57.8527 -2.15271 3.66795 0
M  V30 554 N 56.1678 -1.49265 -0.50573 0
M  V30 555 C 57.1158 -1.66065 -1.62866 0
M  V30 556 C 58.1098 -0.526636 -1.61006 0
M  V30 557 O 59.3158 -0.706126 -1.65571 0
M  V30 558 H 55.6908 -0.52356 -0.539805 0
M  V30 559 H 57.6618 -2.60329 -1.45848 0
M  V30 560 C 56.4108 -1.74008 -3.01026 0
M  V30 561 H 55.7338 -2.6064 -3.03161 0
M  V30 562 H 57.1738 -1.89798 -3.79147 0
M  V30 563 C 55.6328 -0.483868 -3.33407 0
M  V30 564 O 56.1628 0.392548 -3.99777 0
M  V30 565 N 54.3688 -0.348236 -2.88506 0
M  V30 566 H 53.9158 -1.06242 -2.34671 0
M  V30 567 H 53.8738 0.491204 -3.10539 0
M  V30 568 N 57.6459 0.756429 -1.3826 0
M  V30 569 C 58.5929 1.87011 -1.35261 0
M  V30 570 C 59.5629 1.64695 -0.215616 0
M  V30 571 O 60.7479 1.864 -0.407399 0
M  V30 572 C 57.8879 3.24275 -1.18068 0
M  V30 573 C 57.0009 3.58442 -2.41129 0
M  V30 574 C 56.1359 4.84994 -2.16689 0
M  V30 575 C 55.1749 5.11939 -3.35537 0
M  V30 576 N 54.3119 6.29685 -3.10549 0
M  V30 577 H 59.1519 1.8891 -2.30472 0
M  V30 578 H 56.6889 0.923373 -1.14509 0
M  V30 579 H 58.6469 4.03479 -1.06116 0
M  V30 580 H 57.2769 3.21711 -0.264973 0
M  V30 581 H 56.3289 2.74103 -2.63764 0
M  V30 582 H 57.6409 3.74283 -3.29717 0
M  V30 583 H 56.7949 5.72135 -2.01857 0
M  V30 584 H 55.5339 4.71286 -1.25462 0
M  V30 585 H 54.5389 4.23268 -3.50891 0
M  V30 586 H 55.7639 5.27546 -4.27635 0
M  V30 587 H 53.7099 6.17306 -2.21967 0
M  V30 588 H 53.6269 6.46014 -3.92686 0
M  V30 589 H 54.8949 7.19722 -2.99367 0
M  V30 590 N 59.124 1.23083 0.984299 0
M  V30 591 C 60.057 0.951786 2.07404 0
M  V30 592 C 61.035 -0.10848 1.62238 0
M  V30 593 O 62.219 0.0249467 1.88483 0
M  V30 594 C 59.346 0.433142 3.35919 0
M  V30 595 C 58.392 1.47941 4.0002 0
M  V30 596 S 59.225 3.05556 4.39768 0
M  V30 597 C 60.381 2.55351 5.71442 0
M  V30 598 H 60.614 1.87456 2.30754 0
M  V30 599 H 58.147 1.06284 1.11996 0
M  V30 600 H 60.105 0.140506 4.10259 0
M  V30 601 H 58.766 -0.468656 3.10584 0
M  V30 602 H 57.959 1.06658 4.92585 0
M  V30 603 H 57.561 1.7212 3.3204 0
M  V30 604 H 59.853 1.97128 6.48187 0
M  V30 605 H 60.796 3.46441 6.17563 0
M  V30 606 H 61.204 1.96339 5.29255 0
M  V30 607 N 60.6021 -1.18246 1.0419 0
M  V30 608 C 61.8301 -1.92195 0.766072 0
M  V30 609 C 62.2451 -1.76247 -0.676933 0
M  V30 610 O 61.6021 -1.09293 -1.46155 0
M  V30 611 C 61.6531 -3.43568 1.12442 0
M  V30 612 O 61.3741 -3.59015 2.51078 0
M  V30 613 C 62.8751 -4.34613 0.873275 0
M  V30 614 H 60.0951 -0.610114 0.279288 0
M  V30 615 H 62.6391 -1.50007 1.38989 0
M  V30 616 H 60.7941 -3.8354 0.545542 0
M  V30 617 H 61.2081 -4.5273 2.64831 0
M  V30 618 H 62.6821 -5.39374 1.17385 0
M  V30 619 H 63.1591 -4.38781 -0.191909 0
M  V30 620 H 63.7651 -4.00341 1.43551 0
M  V30 621 N 62.0802 -0.821533 -1.34494 0
M  V30 622 C 63.3262 -0.409552 -1.98622 0
M  V30 623 C 63.6592 1.0244 -1.64984 0
M  V30 624 O 62.9342 1.71325 -0.920758 0
M  V30 625 C 63.2172 -0.610458 -3.54888 0
M  V30 626 C 63.0702 -2.09043 -3.98273 0
M  V30 627 C 64.3892 -0.0455379 -4.40076 0
M  V30 628 H 61.5082 -0.15028 -0.721516 0
M  V30 629 H 64.1502 -1.03384 -1.59411 0
M  V30 630 H 62.3002 -0.079044 -3.8842 0
M  V30 631 H 63.9722 -2.68537 -3.75081 0
M  V30 632 H 62.2152 -2.58139 -3.48635 0
M  V30 633 H 62.8862 -2.18182 -5.07051 0
M  V30 634 H 65.3622 -0.499557 -4.1309 0
M  V30 635 H 64.2382 -0.215922 -5.48475 0
M  V30 636 H 64.4992 1.04939 -4.29465 0
M  V30 637 N 63.5583 1.46682 -0.576371 0
M  V30 638 C 64.7983 2.04306 -0.0621356 0
M  V30 639 C 65.1623 1.4389 1.2712 0
M  V30 640 O 66.3633 1.92675 1.87429 0
M  V30 641 C 64.6343 3.57399 0.00927922 0
M  V30 642 S 66.1933 4.36309 0.466859 0
M  V30 643 H 63.0113 0.710167 -0.0344016 0
M  V30 644 H 65.6133 1.79807 -0.767437 0
M  V30 645 H 64.3173 3.98889 -0.965178 0
M  V30 646 H 63.8483 3.86424 0.737547 0
M  V30 647 H 65.8633 4.6533 1.72287 0
M  V30 648 N 65.0364 0.313813 1.54444 0
M  V30 649 C 66.2614 -0.296681 2.05267 0
M  V30 650 C 66.6864 -1.45757 1.18897 0
M  V30 651 O 66.0444 -1.80239 0.195886 0
M  V30 652 C 66.0924 -0.71831 3.53373 0
M  V30 653 O 65.1964 -1.82175 3.69981 0
M  V30 654 H 64.5374 -0.0554061 0.661684 0
M  V30 655 H 67.0674 0.459387 1.99376 0
M  V30 656 H 67.0774 -1.00364 3.95463 0
M  V30 657 H 65.7524 0.130821 4.15694 0
M  V30 658 H 64.3294 -1.53598 3.39797 0
M  V30 659 N 66.5145 -1.57545 0.0417849 0
M  V30 660 C 67.9255 -1.80011 -0.495259 0
M  V30 661 C 68.2765 -0.953199 -1.71489 0
M  V30 662 O 67.4015 -0.167138 -2.15754 0
M  V30 663 C 67.9965 -3.26482 -0.905265 0
M  V30 664 C 66.5555 -3.499 -1.38734 0
M  V30 665 C 65.7025 -2.74979 -0.358056 0
M  V30 666 H 68.6535 -1.56425 0.267736 0
M  V30 667 H 68.6745 -3.36887 -1.76882 0
M  V30 668 H 68.1865 -3.88096 -0.017401 0
M  V30 669 H 66.2875 -2.93553 -2.29471 0
M  V30 670 H 66.4005 -4.58615 -1.38598 0
M  V30 671 H 64.7645 -2.40834 -0.828912 0
M  V30 672 H 65.5475 -3.39315 0.521561 0
M  V30 673 N 67.9926 0.231505 -1.5589 0
M  V30 674 C 69.2696 0.981096 -1.69215 0
M  V30 675 C 69.6496 2.02799 -0.586164 0
M  V30 676 O 68.9976 2.24823 0.408253 0
M  V30 677 C 69.2076 1.60054 -3.10135 0
M  V30 678 C 70.5556 2.09658 -3.69227 0
M  V30 679 O 71.5796 1.69967 -3.13033 0
M  V30 680 O 70.4386 2.8258 -4.67772 0
M  V30 681 H 67.5326 0.457653 -0.688827 0
M  V30 682 H 70.0786 0.224073 -1.68214 0
M  V30 683 H 68.8506 0.844105 -3.82087 0
M  V30 684 H 68.4736 2.42336 -3.15212 0
M  V30 685 N 69.4707 1.49531 0.497807 0
M  V30 686 C 70.7187 1.58865 1.24926 0
M  V30 687 C 71.0397 0.278721 1.92998 0
M  V30 688 O 70.3097 -0.702144 1.82885 0
M  V30 689 H 68.8897 0.585343 0.464094 0
M  V30 690 H 71.5517 1.86174 0.57666 0
M  V30 691 H 70.6477 2.38633 2.01149 0
M  V30 692 N 70.9488 -0.749086 1.3866 0
M  V30 693 C 72.3598 -1.32664 1.31366 0
M  V30 694 C 72.7108 -1.96179 -0.028484 0
M  V30 695 O 71.8358 -1.9537 -0.93057 0
M  V30 696 C 72.4308 -2.41219 2.37905 0
M  V30 697 C 70.9898 -2.94684 2.34176 0
M  V30 698 C 70.1368 -1.68108 2.20533 0
M  V30 699 H 73.0878 -0.547628 1.48952 0
M  V30 700 H 73.1088 -3.21268 2.0388 0
M  V30 701 H 72.6208 -1.94962 3.35576 0
M  V30 702 H 70.7218 -3.45258 1.401 0
M  V30 703 H 70.8348 -3.48757 3.2849 0
M  V30 704 H 69.1988 -1.91907 1.67463 0
M  V30 705 H 69.9818 -1.23923 3.20153 0
M  V30 706 N 72.4269 -1.23603 -0.977757 0
M  V30 707 C 73.6749 -1.06759 -1.71601 0
M  V30 708 C 73.9959 0.395929 -1.90938 0
M  V30 709 O 73.2659 1.28356 -1.47992 0
M  V30 710 H 71.8459 -0.392062 -0.635843 0
M  V30 711 H 74.5079 -1.55362 -1.1768 0
M  V30 712 H 73.6039 -1.55763 -2.70452 0
M  V30 713 N 73.905 1.17692 -1.04816 0
M  V30 714 C 75.153 1.87488 -0.754497 0
M  V30 715 C 75.474 1.81205 0.720407 0
M  V30 716 O 74.744 1.23544 1.52032 0
M  V30 717 H 73.324 0.694101 -0.276102 0
M  V30 718 H 75.986 1.42793 -1.32651 0
M  V30 719 H 75.082 2.93328 -1.06606 0
M  V30 720 N 75.3831 0.828654 1.34056 0
M  V30 721 C 76.7991 0.515135 1.51058 0
M  V30 722 C 76.9991 -0.959581 1.77184 0
M  V30 723 O 76.0551 -1.74382 1.82612 0
M  V30 724 C 77.3681 1.37963 2.67183 0
M  V30 725 C 78.9161 1.37735 2.81066 0
M  V30 726 C 79.3911 2.22645 4.00241 0
M  V30 727 N 80.8821 2.203 4.07458 0
M  V30 728 C 81.6171 2.82744 4.98842 0
M  V30 729 N 81.1131 3.54201 5.9541 0
M  V30 730 N 82.9061 2.72268 4.91759 0
M  V30 731 H 75.0571 1.78343 1.15358 0
M  V30 732 H 77.3201 0.760304 0.566252 0
M  V30 733 H 77.0261 2.42714 2.54525 0
M  V30 734 H 76.9001 1.0484 3.62338 0
M  V30 735 H 79.2871 0.337593 2.93163 0
M  V30 736 H 79.3681 1.74859 1.86703 0
M  V30 737 H 79.0121 3.26674 3.88905 0
M  V30 738 H 78.9421 1.82869 4.93829 0
M  V30 739 H 81.4331 1.68327 3.38341 0
M  V30 740 H 81.7461 3.9908 6.61782 0
M  V30 741 H 80.0911 3.58308 5.95517 0
M  V30 742 H 83.2821 2.16014 4.15278 0
M  V30 743 H 83.4551 3.21219 5.62781 0
M  V30 744 N 76.8612 -1.46375 0.584142 0
M  V30 745 C 78.1012 -2.0427 0.0729695 0
M  V30 746 C 78.4652 -1.44563 -1.26355 0
M  V30 747 O 79.6662 -1.93667 -1.86405 0
M  V30 748 C 77.9372 -3.57399 0.00967464 0
M  V30 749 S 79.4962 -4.36551 -0.443714 0
M  V30 750 H 76.3142 -0.709975 0.0381673 0
M  V30 751 H 78.9162 -1.79398 0.776962 0
M  V30 752 H 77.6202 -3.98372 0.986319 0
M  V30 753 H 77.1512 -3.8681 -0.717044 0
M  V30 754 H 79.1662 -4.66237 -1.69816 0
M  V30 755 N 78.3393 -0.321999 -1.54275 0
M  V30 756 C 79.2713 0.578671 -2.21775 0
M  V30 757 C 80.2843 1.08109 -1.21722 0
M  V30 758 O 81.4733 0.994938 -1.482 0
M  V30 759 C 78.5733 1.80661 -2.86731 0
M  V30 760 C 77.7463 1.44314 -4.12907 0
M  V30 761 C 76.8053 2.52845 -4.61472 0
M  V30 762 O 75.8313 2.17054 -5.2619 0
M  V30 763 N 77.0333 3.83748 -4.35566 0
M  V30 764 H 79.7983 0.000709447 -2.997 0
M  V30 765 H 77.3593 -0.145132 -1.61248 0
M  V30 766 H 79.3513 2.52655 -3.16145 0
M  V30 767 H 77.9213 2.29245 -2.12521 0
M  V30 768 H 77.1413 0.554906 -3.90275 0
M  V30 769 H 78.4293 1.17598 -4.95023 0
M  V30 770 H 77.8273 4.15625 -3.83761 0
M  V30 771 H 76.3843 4.51977 -4.69638 0
M  V30 772 N 79.8174 1.5752 -0.0501392 0
M  V30 773 C 81.0574 1.94521 0.627783 0
M  V30 774 C 81.4214 0.928265 1.68069 0
M  V30 775 O 82.6224 1.18517 2.41261 0
M  V30 776 C 80.8934 3.36319 1.20932 0
M  V30 777 S 82.4524 3.95272 1.90539 0
M  V30 778 H 79.2704 0.680456 0.206158 0
M  V30 779 H 81.8724 1.95139 -0.118829 0
M  V30 780 H 80.5764 4.08132 0.430865 0
M  V30 781 H 80.1074 3.39193 1.99277 0
M  V30 782 H 82.1224 3.80415 3.18589 0
M  V30 783 N 81.2955 -0.223234 1.56011 0
M  V30 784 C 82.7115 -0.572856 1.48965 0
M  V30 785 C 82.9115 -1.87225 0.74492 0
M  V30 786 O 81.9675 -2.50899 0.283896 0
M  V30 787 C 83.2805 -0.653646 2.9351 0
M  V30 788 C 84.8285 -0.744386 3.0402 0
M  V30 789 C 85.3035 -0.856535 4.49919 0
M  V30 790 N 86.7945 -0.9208 4.53955 0
M  V30 791 C 87.5295 -1.02726 5.64123 0
M  V30 792 N 87.0255 -1.09777 6.84047 0
M  V30 793 N 88.8185 -1.06226 5.51971 0
M  V30 794 H 80.9695 0.629462 2.02858 0
M  V30 795 H 83.2325 0.220621 0.921971 0
M  V30 796 H 82.9385 0.231518 3.50937 0
M  V30 797 H 82.8125 -1.51781 3.45315 0
M  V30 798 H 85.1995 -1.61999 2.46658 0
M  V30 799 H 85.2805 0.14541 2.55386 0
M  V30 800 H 84.9245 0.0146069 5.07898 0
M  V30 801 H 84.8545 -1.76172 4.96257 0
M  V30 802 H 87.3455 -0.876694 3.6759 0
M  V30 803 H 87.6585 -1.17872 7.63758 0
M  V30 804 H 86.0035 -1.06693 6.86762 0
M  V30 805 H 89.1945 -1.00382 4.5721 0
M  V30 806 H 89.3675 -1.14177 6.37862 0
M  V30 807 N 82.7736 -1.49793 -0.48987 0
M  V30 808 C 83.7366 -1.66752 -1.57246 0
M  V30 809 C 84.7366 -0.538867 -1.51502 0
M  V30 810 O 85.9266 -0.805545 -1.54456 0
M  V30 811 C 83.0586 -1.67528 -2.96896 0
M  V30 812 H 84.2516 -2.63321 -1.43534 0
M  V30 813 H 81.8046 -1.38992 -0.714914 0
M  V30 814 H 82.5396 -0.725837 -3.16073 0
M  V30 815 H 82.3246 -2.49504 -3.02473 0
M  V30 816 H 83.8146 -1.82667 -3.7553 0
M  V30 817 N 84.2517 0.741722 -1.39055 0
M  V30 818 C 85.1817 1.869 -1.39966 0
M  V30 819 C 86.1627 1.6804 -0.26392 0
M  V30 820 O 87.3477 1.88458 -0.468755 0
M  V30 821 C 84.4777 3.24572 -1.23574 0
M  V30 822 C 83.4317 3.58056 -2.34477 0
M  V30 823 C 82.7577 4.94593 -2.0318 0
M  V30 824 C 84.0577 3.61716 -3.76774 0
M  V30 825 H 85.7517 1.86395 -2.34302 0
M  V30 826 H 83.2977 0.895361 -1.1278 0
M  V30 827 H 85.2507 4.031 -1.22834 0
M  V30 828 H 83.9747 3.25587 -0.257045 0
M  V30 829 H 82.6337 2.81854 -2.34423 0
M  V30 830 H 82.2817 4.92181 -1.03765 0
M  V30 831 H 81.9817 5.17964 -2.77465 0
M  V30 832 H 83.5057 5.75486 -2.04079 0
M  V30 833 H 84.9197 4.30335 -3.78794 0
M  V30 834 H 83.3167 3.96603 -4.50362 0
M  V30 835 H 84.3867 2.61672 -4.08235 0
M  V30 836 N 85.7298 1.2412 0.971189 0
M  V30 837 C 86.9778 1.07668 1.71032 0
M  V30 838 C 87.2988 -0.385797 1.91146 0
M  V30 839 O 86.5688 -1.27569 1.4867 0
M  V30 840 H 85.1488 0.395429 0.633755 0
M  V30 841 H 87.8108 1.55984 1.16855 0
M  V30 842 H 86.9068 1.57195 2.69622 0
M  V30 843 N 87.2079 -1.17134 1.05439 0
M  V30 844 C 88.4329 -1.91913 0.786396 0
M  V30 845 C 88.8579 -1.7643 -0.652234 0
M  V30 846 O 88.2159 -1.08372 -1.45345 0
M  V30 847 C 88.2639 -3.40921 1.17497 0
M  V30 848 O 87.3679 -4.11244 0.308589 0
M  V30 849 H 86.7089 -0.598215 0.288158 0
M  V30 850 H 89.2389 -1.48457 1.4079 0
M  V30 851 H 89.2489 -3.91668 1.14281 0
M  V30 852 H 87.9239 -3.5151 2.22292 0
M  V30 853 H 86.5009 -3.70731 0.40157 0
M  V30 854 N 88.686 -0.835752 -1.33615 0
M  V30 855 C 89.934 -0.429109 -1.97492 0
M  V30 856 C 90.255 1.01433 -1.66543 0
M  V30 857 O 89.525 1.70611 -0.962744 0
M  V30 858 H 88.105 -0.155686 -0.730596 0
M  V30 859 H 90.767 -1.06802 -1.63031 0
M  V30 860 H 89.863 -0.55861 -3.0706 0
M  V30 861 N 90.1641 1.46063 -0.591896 0
M  V30 862 C 91.0971 2.27452 0.184617 0
M  V30 863 C 92.0751 1.36188 0.888351 0
M  V30 864 O 93.2591 1.65606 0.90039 0
M  V30 865 C 90.3861 3.14162 1.26571 0
M  V30 866 C 89.4321 4.21255 0.666814 0
M  V30 867 S 90.2651 5.33034 -0.513345 0
M  V30 868 C 91.4211 6.23311 0.56872 0
M  V30 869 H 91.6541 2.92963 -0.505939 0
M  V30 870 H 89.1871 1.49676 -0.379014 0
M  V30 871 H 91.1451 3.6468 1.88463 0
M  V30 872 H 89.8061 2.47946 1.92826 0
M  V30 873 H 88.9991 4.81788 1.47974 0
M  V30 874 H 88.6011 3.73797 0.123359 0
M  V30 875 H 90.8931 6.61758 1.45198 0
M  V30 876 H 91.8361 7.081 -7.23824e-05 0
M  V30 877 H 92.2441 5.57646 0.876996 0
M  V30 878 N 91.6422 0.330177 1.54103 0
M  V30 879 C 92.6052 -0.520144 2.2322 0
M  V30 880 C 93.6052 -1.03828 1.22786 0
M  V30 881 O 94.7952 -0.929652 1.4732 0
M  V30 882 C 91.9272 -1.72317 2.94142 0
M  V30 883 H 93.1202 0.0841605 2.99782 0
M  V30 884 H 90.6732 0.0813433 1.56088 0
M  V30 885 H 91.4082 -2.36653 2.21734 0
M  V30 886 H 91.1932 -1.35898 3.67796 0
M  V30 887 H 92.6832 -2.3266 3.46784 0
M  V30 888 N 93.1203 -1.57491 0.0584922 0
M  V30 889 C 94.3663 -1.93264 -0.614558 0
M  V30 890 C 94.6993 -0.937717 -1.7006 0
M  V30 891 O 93.9743 0.0351652 -1.94468 0
M  V30 892 C 94.2573 -3.3938 -1.20386 0
M  V30 893 C 94.1103 -4.49625 -0.125375 0
M  V30 894 C 95.4293 -3.86039 -2.11334 0
M  V30 895 H 92.5483 -0.702791 -0.221933 0
M  V30 896 H 95.1903 -1.8961 0.12175 0
M  V30 897 H 93.3403 -3.42626 -1.83139 0
M  V30 898 H 95.0123 -4.58506 0.506971 0
M  V30 899 H 93.2553 -4.30354 0.545672 0
M  V30 900 H 93.9263 -5.48967 -0.577861 0
M  V30 901 H 96.4023 -3.84716 -1.58534 0
M  V30 902 H 95.2783 -4.88914 -2.49507 0
M  V30 903 H 95.5393 -3.23215 -3.01636 0
M  V30 904 N 94.5984 0.214957 -1.56127 0
M  V30 905 C 95.8754 0.963093 -1.70247 0
M  V30 906 C 96.2554 2.02166 -0.60764 0
M  V30 907 O 95.6034 2.25244 0.384385 0
M  V30 908 C 95.8134 1.56756 -3.11815 0
M  V30 909 C 97.1614 2.0573 -3.7143 0
M  V30 910 O 98.1854 1.66637 -3.14818 0
M  V30 911 O 97.0444 2.77603 -4.70743 0
M  V30 912 H 94.1384 0.450321 -0.693643 0
M  V30 913 H 96.6844 0.206219 -1.68442 0
M  V30 914 H 95.4564 0.803533 -3.82961 0
M  V30 915 H 95.0794 2.3898 -3.17765 0
M  V30 916 N 96.0765 1.50051 0.48192 0
M  V30 917 C 97.3165 1.62128 1.24474 0
M  V30 918 C 97.6805 0.309742 1.89485 0
M  V30 919 O 98.8815 0.305854 2.67054 0
M  V30 920 C 97.1525 2.76151 2.26882 0
M  V30 921 S 98.7115 3.08297 3.12247 0
M  V30 922 H 95.5295 0.571661 0.422759 0
M  V30 923 H 98.1315 1.87791 0.54359 0
M  V30 924 H 96.8355 3.69942 1.77683 0
M  V30 925 H 96.3665 2.52541 3.0164 0
M  V30 926 H 98.3815 2.51287 4.27866 0
M  V30 927 N 97.5546 -0.734337 1.39446 0
M  V30 928 C 98.7796 -1.52866 1.40167 0
M  V30 929 C 99.2046 -1.881 -0.00171513 0
M  V30 930 O 98.5626 -1.51957 -0.988879 0
M  V30 931 C 98.6106 -2.79235 2.28167 0
M  V30 932 O 97.7146 -3.75185 1.71201 0
M  V30 933 H 97.0556 -0.461618 0.477289 0
M  V30 934 H 99.5856 -0.905949 1.8345 0
M  V30 935 H 99.5956 -3.27963 2.42702 0
M  V30 936 H 98.2706 -2.52923 3.30156 0
M  V30 937 H 96.8476 -3.33958 1.65912 0
M  V30 938 N 99.0327 -1.24633 -0.964593 0
M  V30 939 C 100.261 -1.11501 -1.74285 0
M  V30 940 C 100.676 0.332165 -1.85855 0
M  V30 941 O 100.033 1.22903 -1.34911 0
M  V30 942 C 100.084 -1.75258 -3.16175 0
M  V30 943 O 99.8047 -3.14318 -3.05182 0
M  V30 944 C 101.306 -1.67776 -4.10324 0
M  V30 945 H 98.5257 -0.389407 -0.546446 0
M  V30 946 H 101.07 -1.64801 -1.21083 0
M  V30 947 H 99.2247 -1.25954 -3.66353 0
M  V30 948 H 99.6387 -3.4551 -3.94618 0
M  V30 949 H 101.113 -2.17064 -5.0753 0
M  V30 950 H 101.59 -0.639584 -4.34518 0
M  V30 951 H 102.196 -2.16522 -3.66058 0
M  V30 952 N 100.511 1.16574 -1.06058 0
M  V30 953 C 101.441 2.23057 -0.690488 0
M  V30 954 C 102.422 1.67141 0.315901 0
M  V30 955 O 103.607 1.93253 0.191556 0
M  V30 956 C 100.737 3.47222 -0.073625 0
M  V30 957 C 99.6908 4.16016 -1.00573 0
M  V30 958 C 99.0168 5.34104 -0.252289 0
M  V30 959 C 100.317 4.67264 -2.33371 0
M  V30 960 H 102.011 2.54271 -1.58072 0
M  V30 961 H 99.5568 1.22218 -0.76149 0
M  V30 962 H 101.51 4.20939 0.19714 0
M  V30 963 H 100.234 3.15302 0.85161 0
M  V30 964 H 98.8928 3.44223 -1.2612 0
M  V30 965 H 98.5408 4.98437 0.675988 0
M  V30 966 H 98.2408 5.81072 -0.873455 0
M  V30 967 H 99.7648 6.10599 0.0109857 0
M  V30 968 H 101.179 5.32573 -2.12223 0
M  V30 969 H 99.5758 5.24843 -2.90963 0
M  V30 970 H 100.646 3.83602 -2.96611 0
M  V30 971 N 101.989 0.842826 1.3317 0
M  V30 972 C 103.217 0.454055 2.01856 0
M  V30 973 C 103.632 -0.94587 1.63397 0
M  V30 974 O 102.989 -1.61534 0.849302 0
M  V30 975 C 103.04 0.569715 3.56982 0
M  V30 976 O 102.761 1.91448 3.94055 0
M  V30 977 C 104.262 0.178412 4.42941 0
M  V30 978 H 101.482 0.17979 0.646465 0
M  V30 979 H 104.026 1.1365 1.70012 0
M  V30 980 H 102.181 -0.0648587 3.87346 0
M  V30 981 H 102.595 1.90282 4.88767 0
M  V30 982 H 104.069 0.310376 5.51127 0
M  V30 983 H 104.546 -0.880056 4.30293 0
M  V30 984 H 105.152 0.787579 4.17944 0
M  V30 985 N 103.467 -1.45747 0.599634 0
M  V30 986 C 104.692 -2.07178 0.0960198 0
M  V30 987 C 105.117 -1.44268 -1.207 0
M  V30 988 O 104.475 -0.532503 -1.73303 0
M  V30 989 C 104.523 -3.60579 -0.0385348 0
M  V30 990 O 103.627 -3.97713 -1.0908 0
M  V30 991 H 102.968 -0.660251 0.0704593 0
M  V30 992 H 105.498 -1.87124 0.827385 0
M  V30 993 H 105.508 -4.07298 -0.239304 0
M  V30 994 H 104.183 -4.05756 0.912947 0
M  V30 995 H 102.76 -3.62678 -0.867135 0
M  V30 996 N 104.945 -0.338344 -1.53925 0
M  V30 997 C 105.892 0.520845 -2.24846 0
M  V30 998 C 106.862 1.09976 -1.24477 0
M  V30 999 O 108.047 1.13735 -1.53196 0
M  V30 1000 C 105.187 1.6685 -3.02084 0
M  V30 1001 C 104.3 1.11739 -4.17299 0
M  V30 1002 C 103.435 2.23193 -4.82036 0
M  V30 1003 C 102.474 1.65407 -5.89328 0
M  V30 1004 N 101.611 2.70582 -6.47866 0
M  V30 1005 H 106.451 -0.0904881 -2.97863 0
M  V30 1006 H 103.988 -0.0564282 -1.46992 0
M  V30 1007 H 105.946 2.34407 -3.45122 0
M  V30 1008 H 104.576 2.2509 -2.31375 0
M  V30 1009 H 103.628 0.332919 -3.7894 0
M  V30 1010 H 104.94 0.654677 -4.94485 0
M  V30 1011 H 104.094 2.98626 -5.28117 0
M  V30 1012 H 102.833 2.72807 -4.04262 0
M  V30 1013 H 101.838 0.884779 -5.42634 0
M  V30 1014 H 103.063 1.16652 -6.69006 0
M  V30 1015 H 101.009 3.1946 -5.72959 0
M  V30 1016 H 100.926 2.28917 -7.20509 0
M  V30 1017 H 102.194 3.45799 -6.98601 0
M  V30 1018 N 106.423 1.57458 -0.0668435 0
M  V30 1019 C 107.663 1.95175 0.607116 0
M  V30 1020 C 108.027 0.946039 1.67075 0
M  V30 1021 O 109.228 1.2107 2.39991 0
M  V30 1022 C 107.499 3.37582 1.17358 0
M  V30 1023 S 109.058 3.97271 1.86336 0
M  V30 1024 H 105.876 0.682604 0.19893 0
M  V30 1025 H 108.478 1.95002 -0.139519 0
M  V30 1026 H 107.182 4.08566 0.387553 0
M  V30 1027 H 106.713 3.41288 1.95669 0
M  V30 1028 H 108.728 3.83772 3.14537 0
M  V30 1029 N 107.901 -0.206675 1.56239 0
M  V30 1030 C 108.831 -1.25909 1.96645 0
M  V30 1031 C 109.812 -1.48097 0.836734 0
M  V30 1032 O 110.997 -1.6003 1.10019 0
M  V30 1033 C 108.127 -2.6058 2.29599 0
M  V30 1034 C 107.081 -2.53024 3.452 0
M  V30 1035 C 106.407 -3.91861 3.63798 0
M  V30 1036 C 107.707 -2.06524 4.79734 0
M  V30 1037 H 109.401 -0.923369 2.84806 0
M  V30 1038 H 106.947 -0.442735 1.37025 0
M  V30 1039 H 108.9 -3.34375 2.56459 0
M  V30 1040 H 107.624 -2.95869 1.38307 0
M  V30 1041 H 106.283 -1.81684 3.18412 0
M  V30 1042 H 105.931 -4.24483 2.69857 0
M  V30 1043 H 105.631 -3.87683 4.4156 0
M  V30 1044 H 107.155 -4.67296 3.93022 0
M  V30 1045 H 108.569 -2.70072 5.05702 0
M  V30 1046 H 106.966 -2.13374 5.60885 0
M  V30 1047 H 108.036 -1.01802 4.74093 0
M  V30 1048 N 109.379 -1.50304 -0.473955 0
M  V30 1049 C 110.309 -1.71886 -1.58042 0
M  V30 1050 C 111.29 -0.567799 -1.60344 0
M  V30 1051 O 112.475 -0.806623 -1.76656 0
M  V30 1052 C 109.605 -1.81036 -2.96384 0
M  V30 1053 C 108.559 -2.962 -3.08949 0
M  V30 1054 C 107.885 -2.9049 -4.48909 0
M  V30 1055 C 109.185 -4.36752 -2.86434 0
M  V30 1056 H 110.879 -2.64527 -1.40234 0
M  V30 1057 H 108.425 -1.27295 -0.673201 0
M  V30 1058 H 110.378 -1.94719 -3.73714 0
M  V30 1059 H 109.102 -0.850147 -3.15341 0
M  V30 1060 H 107.761 -2.82164 -2.3405 0
M  V30 1061 H 107.409 -1.92321 -4.64781 0
M  V30 1062 H 107.109 -3.67802 -4.58253 0
M  V30 1063 H 108.633 -3.06218 -5.28264 0
M  V30 1064 H 110.047 -4.5133 -3.53517 0
M  V30 1065 H 108.444 -5.15493 -3.07225 0
M  V30 1066 H 109.514 -4.49321 -1.82316 0
M  V30 1067 N 110.857 0.726932 -1.39834 0
M  V30 1068 C 111.787 1.85405 -1.41941 0
M  V30 1069 C 112.768 1.67751 -0.281728 0
M  V30 1070 O 113.953 1.8795 -0.488717 0
M  V30 1071 C 111.083 3.23243 -1.2701 0
M  V30 1072 C 110.037 3.55549 -2.38262 0
M  V30 1073 C 109.363 4.9241 -2.08415 0
M  V30 1074 C 110.663 3.577 -3.80589 0
M  V30 1075 H 112.357 1.83899 -2.36266 0
M  V30 1076 H 109.903 0.883349 -1.13723 0
M  V30 1077 H 111.856 4.01775 -1.27103 0
M  V30 1078 H 110.58 3.25296 -0.291564 0
M  V30 1079 H 109.239 2.79351 -2.37399 0
M  V30 1080 H 108.887 4.91052 -1.0898 0
M  V30 1081 H 108.587 5.14992 -2.82943 0
M  V30 1082 H 110.111 5.73289 -2.10171 0
M  V30 1083 H 111.525 4.26293 -3.83337 0
M  V30 1084 H 109.922 3.91804 -4.54543 0
M  V30 1085 H 110.992 2.57328 -4.10987 0
M  V30 1086 N 112.336 1.25143 0.95797 0
M  V30 1087 C 113.283 1.05235 2.05412 0
M  V30 1088 C 114.253 -0.0374561 1.66058 0
M  V30 1089 O 115.438 0.119073 1.90428 0
M  V30 1090 C 112.578 0.673589 3.38462 0
M  V30 1091 C 111.691 1.8379 3.90954 0
M  V30 1092 C 110.826 1.40381 5.12315 0
M  V30 1093 C 109.865 2.53746 5.57027 0
M  V30 1094 N 109.002 2.11136 6.69601 0
M  V30 1095 H 113.842 1.99048 2.21774 0
M  V30 1096 H 111.379 0.991277 1.08683 0
M  V30 1097 H 113.337 0.434964 4.14926 0
M  V30 1098 H 111.967 -0.227554 3.21997 0
M  V30 1099 H 111.019 2.18992 3.11041 0
M  V30 1100 H 112.331 2.68937 4.20089 0
M  V30 1101 H 111.485 1.12464 5.96185 0
M  V30 1102 H 110.224 0.523015 4.84887 0
M  V30 1103 H 109.229 2.82412 4.71724 0
M  V30 1104 H 110.454 3.42398 5.86464 0
M  V30 1105 H 108.4 1.25468 6.4389 0
M  V30 1106 H 108.317 2.89832 6.98236 0
M  V30 1107 H 109.585 1.86385 7.56889 0
M  V30 1108 N 113.814 -1.1601 1.06675 0
M  V30 1109 C 114.777 -2.18724 0.685001 0
M  V30 1110 C 115.777 -1.58496 -0.271246 0
M  V30 1111 O 116.967 -1.74119 -0.0531156 0
M  V30 1112 C 114.099 -3.40899 0.00853648 0
M  V30 1113 H 115.292 -2.54011 1.59431 0
M  V30 1114 H 112.845 -1.30352 0.862441 0
M  V30 1115 H 113.58 -3.11173 -0.913337 0
M  V30 1116 H 113.365 -3.8587 0.696204 0
M  V30 1117 H 114.855 -4.16886 -0.24414 0
M  V30 1118 N 115.292 -0.849877 -1.32721 0
M  V30 1119 C 116.708 -0.539102 -1.50219 0
M  V30 1120 C 116.908 0.931271 -1.78689 0
M  V30 1121 O 115.964 1.71455 -1.85363 0
M  V30 1122 C 117.277 -1.42196 -2.64954 0
M  V30 1123 C 118.825 -1.42189 -2.78839 0
M  V30 1124 C 119.3 -2.28985 -3.96648 0
M  V30 1125 N 120.791 -2.26754 -4.03902 0
M  V30 1126 C 121.526 -2.90644 -4.94281 0
M  V30 1127 N 121.022 -3.63629 -5.897 0
M  V30 1128 N 122.815 -2.80057 -4.87365 0
M  V30 1129 H 114.966 -1.80156 -1.12506 0
M  V30 1130 H 117.229 -0.769217 -0.554085 0
M  V30 1131 H 116.935 -2.46733 -2.50631 0
M  V30 1132 H 116.809 -1.10591 -3.60624 0
M  V30 1133 H 119.196 -0.38419 -2.92588 0
M  V30 1134 H 119.277 -1.77807 -1.83898 0
M  V30 1135 H 118.921 -3.32819 -3.83658 0
M  V30 1136 H 118.851 -1.90702 -4.90857 0
M  V30 1137 H 121.342 -1.73688 -3.3562 0
M  V30 1138 H 121.655 -4.09558 -6.55349 0
M  V30 1139 H 120 -3.67737 -5.89741 0
M  V30 1140 H 123.191 -2.22593 -4.11789 0
M  V30 1141 H 123.364 -3.30132 -5.57599 0
M  V30 1142 N 116.77 1.45427 -0.607355 0
M  V30 1143 C 117.703 2.27635 0.160482 0
M  V30 1144 C 118.681 1.37122 0.873857 0
M  V30 1145 O 119.865 1.66551 0.882775 0
M  V30 1146 C 116.992 3.15486 1.23231 0
M  V30 1147 C 116.038 4.21939 0.622097 0
M  V30 1148 S 116.871 5.32459 -0.569852 0
M  V30 1149 C 118.027 6.23879 0.502577 0
M  V30 1150 H 118.26 2.9241 -0.536983 0
M  V30 1151 H 115.793 1.49265 -0.394868 0
M  V30 1152 H 117.751 3.66659 1.84585 0
M  V30 1153 H 116.412 2.49977 1.90185 0
M  V30 1154 H 115.605 4.8333 1.42856 0
M  V30 1155 H 115.207 3.73906 0.0837063 0
M  V30 1156 H 117.499 6.63261 1.38171 0
M  V30 1157 H 118.442 7.0806 -0.0751759 0
M  V30 1158 H 118.85 5.58545 0.8178 0
M  V30 1159 N 118.248 0.346503 1.53744 0
M  V30 1160 C 119.473 -0.253074 2.0585 0
M  V30 1161 C 119.898 -1.43202 1.21962 0
M  V30 1162 O 119.256 -1.79783 0.234073 0
M  V30 1163 C 119.304 -0.643193 3.54817 0
M  V30 1164 O 118.408 -1.74286 3.73762 0
M  V30 1165 H 117.749 -0.0413583 0.662711 0
M  V30 1166 H 120.279 0.501574 1.98357 0
M  V30 1167 H 120.289 -0.919526 3.97503 0
M  V30 1168 H 118.964 0.218966 4.15323 0
M  V30 1169 H 117.541 -1.46356 3.42979 0
M  V30 1170 N 119.726 -1.57421 0.075193 0
M  V30 1171 C 120.689 -2.11791 -0.876203 0
M  V30 1172 C 121.689 -1.04268 -1.22412 0
M  V30 1173 O 122.879 -1.30242 -1.15684 0
M  V30 1174 C 120.011 -2.62207 -2.17854 0
M  V30 1175 H 121.204 -2.9716 -0.40444 0
M  V30 1176 H 118.757 -1.55333 -0.173557 0
M  V30 1177 H 119.492 -1.803 -2.6956 0
M  V30 1178 H 119.277 -3.40802 -1.93897 0
M  V30 1179 H 120.767 -3.04335 -2.85955 0
M  V30 1180 N 121.204 0.198386 -1.56346 0
M  V30 1181 C 122.615 0.763358 -1.70381 0
M  V30 1182 C 122.966 1.83995 -0.681203 0
M  V30 1183 O 122.091 2.15785 0.16305 0
M  V30 1184 C 122.686 1.39143 -3.08909 0
M  V30 1185 C 121.245 1.90352 -3.2472 0
M  V30 1186 C 120.392 0.772233 -2.6633 0
M  V30 1187 H 123.343 -0.0266377 -1.58678 0
M  V30 1188 H 123.364 2.26076 -3.06055 0
M  V30 1189 H 122.876 0.607638 -3.83314 0
M  V30 1190 H 120.977 2.71461 -2.55225 0
M  V30 1191 H 121.09 2.06757 -4.3219 0
M  V30 1192 H 119.454 1.18566 -2.2542 0
M  V30 1193 H 120.237 0.00073556 -3.433 0
M  V30 1194 N 122.682 1.50554 0.465978 0
M  V30 1195 C 123.629 1.6979 1.56333 0
M  V30 1196 C 124.599 0.539239 1.57103 0
M  V30 1197 O 125.784 0.770401 1.74555 0
M  V30 1198 C 122.924 1.80273 2.94271 0
M  V30 1199 C 122.037 3.07674 3.0325 0
M  V30 1200 C 121.172 3.08922 4.32135 0
M  V30 1201 C 120.211 4.30755 4.34875 0
M  V30 1202 N 119.348 4.29714 5.55239 0
M  V30 1203 H 124.188 2.63472 1.39235 0
M  V30 1204 H 121.725 1.30602 0.676873 0
M  V30 1205 H 123.683 1.84332 3.74269 0
M  V30 1206 H 122.313 0.900258 3.09992 0
M  V30 1207 H 121.365 3.13062 2.16094 0
M  V30 1208 H 122.677 3.97642 3.01135 0
M  V30 1209 H 121.831 3.11738 5.20485 0
M  V30 1210 H 120.57 2.16792 4.36866 0
M  V30 1211 H 119.575 4.28146 3.44922 0
M  V30 1212 H 120.8 5.24117 4.31831 0
M  V30 1213 H 118.746 3.4044 5.60746 0
M  V30 1214 H 118.663 5.13456 5.54886 0
M  V30 1215 H 119.931 4.36683 6.457 0
M  V30 1216 N 124.16 -0.719506 1.40217 0
M  V30 1217 C 125.108 -1.85493 1.40339 0
M  V30 1218 C 126.102 -1.66995 0.284415 0
M  V30 1219 O 127.308 -1.74148 0.455252 0
M  V30 1220 H 123.683 -0.610857 0.438586 0
M  V30 1221 H 125.654 -1.82506 2.36081 0
M  V30 1222 C 124.403 -3.23321 1.27901 0
M  V30 1223 H 123.726 -3.38159 2.1328 0
M  V30 1224 H 125.166 -4.02914 1.32045 0
M  V30 1225 C 123.625 -3.36898 -0.0111355 0
M  V30 1226 O 124.155 -3.89674 -0.975538 0
M  V30 1227 N 122.361 -2.90492 -0.0793393 0
M  V30 1228 H 121.908 -2.47731 0.706183 0
M  V30 1229 H 121.866 -2.99955 -0.942038 0
M  V30 1230 N 125.638 -1.25649 -0.95132 0
M  V30 1231 C 126.601 -1.06399 -2.03007 0
M  V30 1232 C 127.601 -0.0156794 -1.60792 0
M  V30 1233 O 128.791 -0.25817 -1.72276 0
M  V30 1234 C 125.923 -0.616184 -3.35285 0
M  V30 1235 H 127.116 -2.02164 -2.21517 0
M  V30 1236 H 124.669 -1.08103 -1.12887 0
M  V30 1237 H 125.404 0.343917 -3.22471 0
M  V30 1238 H 125.189 -1.37301 -3.67275 0
M  V30 1239 H 126.679 -0.503032 -4.14559 0
M  V30 1240 N 127.117 1.15442 -1.07289 0
M  V30 1241 C 128.533 1.38201 -0.798288 0
M  V30 1242 C 128.733 1.92429 0.597769 0
M  V30 1243 O 127.789 2.12962 1.3566 0
M  V30 1244 C 129.102 2.35357 -1.87156 0
M  V30 1245 C 130.65 2.49021 -1.89624 0
M  V30 1246 C 131.125 3.49468 -2.96034 0
M  V30 1247 N 132.616 3.57003 -2.95132 0
M  V30 1248 C 133.351 4.34543 -3.74112 0
M  V30 1249 N 132.847 5.15421 -4.6294 0
M  V30 1250 N 134.64 4.29625 -3.62462 0
M  V30 1251 H 126.791 0.78584 -1.97328 0
M  V30 1252 H 129.054 0.408065 -0.855679 0
M  V30 1253 H 128.76 2.02626 -2.87464 0
M  V30 1254 H 128.634 3.35129 -1.73114 0
M  V30 1255 H 131.021 2.81051 -0.899687 0
M  V30 1256 H 131.102 1.4925 -2.07745 0
M  V30 1257 H 130.746 3.18173 -3.95889 0
M  V30 1258 H 130.676 4.48992 -2.75161 0
M  V30 1259 H 133.167 2.99276 -2.30743 0
M  V30 1260 H 133.48 5.7183 -5.19837 0
M  V30 1261 H 131.825 5.14729 -4.66989 0
M  V30 1262 H 135.016 3.65505 -2.92444 0
M  V30 1263 H 135.189 4.89807 -4.24256 0
M  V30 1264 N 128.595 0.856903 1.32268 0
M  V30 1265 C 129.823 0.475439 2.01363 0
M  V30 1266 C 130.238 -0.928486 1.64392 0
M  V30 1267 O 129.595 -1.60624 0.866387 0
M  V30 1268 C 129.646 0.607545 3.56358 0
M  V30 1269 O 129.367 1.95617 3.92002 0
M  V30 1270 C 130.868 0.225382 4.42727 0
M  V30 1271 H 128.088 0.186636 0.644521 0
M  V30 1272 H 130.632 1.15446 1.68797 0
M  V30 1273 H 128.787 -0.0237719 3.87393 0
M  V30 1274 H 129.201 1.95455 4.86721 0
M  V30 1275 H 130.675 0.368813 5.50767 0
M  V30 1276 H 131.152 -0.834369 4.31202 0
M  V30 1277 H 131.758 0.831864 4.17085 0
M  V30 1278 N 130.073 -1.45103 0.615059 0
M  V30 1279 C 131.003 -2.33339 -0.0865619 0
M  V30 1280 C 131.984 -1.4727 -0.851209 0
M  V30 1281 O 133.169 -1.76026 -0.820281 0
M  V30 1282 C 130.299 -3.30095 -1.07956 0
M  V30 1283 C 129.253 -4.25858 -0.427628 0
M  V30 1284 C 128.579 -5.12361 -1.5294 0
M  V30 1285 C 129.879 -5.18165 0.655944 0
M  V30 1286 H 131.573 -2.92254 0.650224 0
M  V30 1287 H 129.119 -1.40532 0.314138 0
M  V30 1288 H 131.072 -3.90698 -1.57901 0
M  V30 1289 H 129.796 -2.69355 -1.84703 0
M  V30 1290 H 128.455 -3.66564 0.0510292 0
M  V30 1291 H 128.103 -4.47984 -2.28734 0
M  V30 1292 H 127.803 -5.77238 -1.09865 0
M  V30 1293 H 129.327 -5.75833 -2.03098 0
M  V30 1294 H 130.741 -5.72796 0.240257 0
M  V30 1295 H 129.138 -5.91559 1.00888 0
M  V30 1296 H 130.208 -4.60144 1.52957 0
M  V30 1297 N 131.551 -0.354651 -1.53558 0
M  V30 1298 C 132.797 0.238797 -2.01389 0
M  V30 1299 C 133.13 1.49309 -1.2418 0
M  V30 1300 O 132.405 1.91638 -0.332457 0
M  V30 1301 C 132.688 0.541771 -3.56001 0
M  V30 1302 C 132.541 -0.725388 -4.43912 0
M  V30 1303 C 133.86 1.34685 -4.18984 0
M  V30 1304 H 130.979 0.0853177 -0.732045 0
M  V30 1305 H 133.621 -0.477384 -1.83905 0
M  V30 1306 H 131.771 1.15189 -3.71031 0
M  V30 1307 H 133.443 -1.36313 -4.407 0
M  V30 1308 H 131.686 -1.34801 -4.12324 0
M  V30 1309 H 132.357 -0.468505 -5.50008 0
M  V30 1310 H 134.833 0.830837 -4.07721 0
M  V30 1311 H 133.709 1.52759 -5.27215 0
M  V30 1312 H 133.97 2.35221 -3.74331 0
M  V30 1313 N 133.029 1.57378 -0.0835403 0
M  V30 1314 C 134.445 1.57246 0.273109 0
M  V30 1315 C 134.645 1.09385 1.69225 0
M  V30 1316 O 133.701 0.765051 2.40631 0
M  V30 1317 C 135.014 3.00614 0.0720628 0
M  V30 1318 C 136.562 3.12684 0.1407 0
M  V30 1319 C 137.037 4.57989 -0.0322094 0
M  V30 1320 N 138.528 4.63194 0.0230085 0
M  V30 1321 C 139.263 5.73335 -0.0861941 0
M  V30 1322 N 138.759 6.9235 -0.24958 0
M  V30 1323 N 140.552 5.62093 -0.0282886 0
M  V30 1324 H 132.703 1.86801 -1.0109 0
M  V30 1325 H 134.966 0.861687 -0.395222 0
M  V30 1326 H 134.672 3.39786 -0.907662 0
M  V30 1327 H 134.546 3.68193 0.81936 0
M  V30 1328 H 136.933 2.73391 1.11092 0
M  V30 1329 H 137.014 2.47719 -0.637896 0
M  V30 1330 H 136.658 4.97973 -0.999247 0
M  V30 1331 H 136.588 5.21 0.765937 0
M  V30 1332 H 139.079 3.77613 0.14722 0
M  V30 1333 H 139.392 7.72117 -0.324733 0
M  V30 1334 H 137.737 6.94415 -0.285097 0
M  V30 1335 H 140.928 4.67997 0.0981408 0
M  V30 1336 H 141.101 6.47895 -0.116845 0
M  V30 1337 N 134.507 -0.190092 1.56449 0
M  V30 1338 C 135.918 -0.754312 1.70784 0
M  V30 1339 C 136.269 -1.83631 0.690951 0
M  V30 1340 O 135.394 -2.15868 -0.151604 0
M  V30 1341 C 135.989 -1.37503 3.09642 0
M  V30 1342 C 134.548 -1.88628 3.25725 0
M  V30 1343 C 133.695 -0.758098 2.66736 0
M  V30 1344 H 136.646 0.0350524 1.58661 0
M  V30 1345 H 136.667 -2.2445 3.0725 0
M  V30 1346 H 136.179 -0.587302 3.83631 0
M  V30 1347 H 134.28 -2.70103 2.56661 0
M  V30 1348 H 134.393 -2.04462 4.3328 0
M  V30 1349 H 132.757 -1.17369 2.26046 0
M  V30 1350 H 133.54 0.0174705 3.43296 0
M  V30 1351 N 135.985 -1.50799 -0.457987 0
M  V30 1352 C 137.21 -1.66496 -1.23668 0
M  V30 1353 C 137.635 -0.353288 -1.84752 0
M  V30 1354 O 136.993 0.684346 -1.67888 0
M  V30 1355 C 137.041 -2.76763 -2.3116 0
M  V30 1356 O 136.145 -2.38928 -3.36136 0
M  V30 1357 H 135.486 -0.555828 -0.363252 0
M  V30 1358 H 138.016 -1.9725 -0.543474 0
M  V30 1359 H 138.026 -3.00232 -2.76269 0
M  V30 1360 H 136.701 -3.71954 -1.86073 0
M  V30 1361 H 135.278 -2.25953 -2.96647 0
M  V30 1362 N 137.463 0.71206 -1.40597 0
M  V30 1363 C 138.373 1.8562 -1.43466 0
M  V30 1364 C 139.389 1.70902 -0.326902 0
M  V30 1365 O 140.565 1.93105 -0.572043 0
M  V30 1366 C 137.63 3.21451 -1.29884 0
M  V30 1367 C 136.691 3.48398 -2.50833 0
M  V30 1368 C 135.924 4.77749 -2.3789 0
M  V30 1369 O 136.147 5.53089 -1.39459 0
M  V30 1370 O 135.081 5.05111 -3.27333 0
M  V30 1371 H 138.907 1.86155 -2.39958 0
M  V30 1372 H 136.492 0.86295 -1.21957 0
M  V30 1373 H 138.374 4.02579 -1.24531 0
M  V30 1374 H 137.049 3.21636 -0.364997 0
M  V30 1375 H 135.956 2.67265 -2.61763 0
M  V30 1376 H 137.289 3.53014 -3.4299 0
M  V30 1377 N 138.941 1.26152 0.944643 0
M  V30 1378 C 139.891 1.04081 2.02857 0
M  V30 1379 C 140.875 -0.0256555 1.6088 0
M  V30 1380 O 142.067 0.190884 1.75968 0
M  V30 1381 C 139.196 0.672118 3.36656 0
M  V30 1382 C 138.282 1.77586 3.85128 0
M  V30 1383 N 138.673 3.01272 4.06287 0
M  V30 1384 C 136.971 1.65867 4.1401 0
M  V30 1385 C 137.672 3.72983 4.46384 0
M  V30 1386 N 136.648 3.00653 4.52889 0
M  V30 1387 H 140.45 1.97968 2.17223 0
M  V30 1388 H 137.964 1.16618 1.13022 0
M  V30 1389 H 139.961 0.495166 4.13949 0
M  V30 1390 H 138.621 -0.259307 3.23663 0
M  V30 1391 H 139.632 3.37213 3.93075 0
M  V30 1392 H 136.309 0.796907 4.09824 0
M  V30 1393 H 137.699 4.792 4.70975 0
M  V30 1394 N 140.419 -1.14872 1.07899 0
M  V30 1395 C 141.382 -2.17986 0.708161 0
M  V30 1396 C 142.382 -1.58775 -0.25442 0
M  V30 1397 O 143.572 -1.74166 -0.034645 0
M  V30 1398 C 140.704 -3.40871 0.0446929 0
M  V30 1399 H 141.897 -2.52306 1.62116 0
M  V30 1400 H 139.45 -1.2943 0.876218 0
M  V30 1401 H 140.185 -3.12124 -0.880281 0
M  V30 1402 H 139.97 -3.8511 0.737091 0
M  V30 1403 H 141.46 -4.17121 -0.19991 0
M  V30 1404 N 141.898 -0.863906 -1.31812 0
M  V30 1405 C 142.828 -0.330843 -2.31144 0
M  V30 1406 C 143.809 0.575005 -1.60087 0
M  V30 1407 O 144.994 0.493304 -1.8783 0
M  V30 1408 C 142.124 0.47374 -3.44054 0
M  V30 1409 C 141.078 -0.338481 -4.26659 0
M  V30 1410 C 140.404 0.591412 -5.31419 0
M  V30 1411 C 141.704 -1.56926 -4.98168 0
M  V30 1412 H 143.398 -1.16086 -2.75979 0
M  V30 1413 H 140.944 -0.559657 -1.32679 0
M  V30 1414 H 142.897 0.857143 -4.12591 0
M  V30 1415 H 141.621 1.33721 -2.9797 0
M  V30 1416 H 140.28 -0.703754 -3.59782 0
M  V30 1417 H 139.928 1.45199 -4.81587 0
M  V30 1418 H 139.628 0.0519022 -5.87577 0
M  V30 1419 H 141.152 0.97179 -6.02817 0
M  V30 1420 H 142.566 -1.25764 -5.59336 0
M  V30 1421 H 140.963 -2.04739 -5.64094 0
M  V30 1422 H 142.033 -2.32544 -4.25501 0
M  V30 1423 N 143.376 1.44774 -0.622745 0
M  V30 1424 C 144.622 2.0242 -0.124083 0
M  V30 1425 C 144.955 1.4881 1.24777 0
M  V30 1426 O 144.23 0.668799 1.8264 0
M  V30 1427 C 144.513 3.59957 -0.101619 0
M  V30 1428 C 144.366 4.23867 -1.50521 0
M  V30 1429 C 145.685 4.36284 0.578272 0
M  V30 1430 H 142.804 0.735528 -0.0465645 0
M  V30 1431 H 145.446 1.72447 -0.797617 0
M  V30 1432 H 143.596 3.85623 0.471934 0
M  V30 1433 H 145.268 4.09336 -2.12701 0
M  V30 1434 H 143.511 3.81684 -2.06154 0
M  V30 1435 H 144.182 5.32843 -1.4416 0
M  V30 1436 H 146.658 4.16001 0.0906057 0
M  V30 1437 H 145.534 5.46004 0.563149 0
M  V30 1438 H 145.795 4.10271 1.64713 0
M  V30 1439 N 144.854 0.36279 1.53368 0
M  V30 1440 C 146.131 -0.284021 1.93527 0
M  V30 1441 C 146.511 -1.66628 1.29608 0
M  V30 1442 O 145.859 -2.23942 0.45413 0
M  V30 1443 C 146.069 -0.337028 3.47369 0
M  V30 1444 C 147.417 -0.578708 4.20638 0
M  V30 1445 O 148.441 -0.418352 3.53735 0
M  V30 1446 O 147.3 -0.89074 5.39192 0
M  V30 1447 H 144.394 -0.169743 0.809393 0
M  V30 1448 H 146.94 0.41537 1.64538 0
M  V30 1449 H 145.712 0.632217 3.86159 0
M  V30 1450 H 145.335 -1.08243 3.82582 0
M  V30 1451 N 146.332 -1.57332 0.0918853 0
M  V30 1452 C 147.28 -2.15075 -0.885747 0
M  V30 1453 C 148.274 -1.09277 -1.29441 0
M  V30 1454 O 149.48 -1.27627 -1.26931 0
M  V30 1455 H 145.855 -0.687966 -0.303656 0
M  V30 1456 H 147.826 -2.96047 -0.373995 0
M  V30 1457 C 146.575 -2.74325 -2.13638 0
M  V30 1458 H 145.898 -3.55418 -1.8308 0
M  V30 1459 H 147.338 -3.183 -2.80109 0
M  V30 1460 C 145.797 -1.70062 -2.90827 0
M  V30 1461 O 146.327 -1.13763 -3.85254 0
M  V30 1462 N 144.533 -1.40628 -2.54307 0
M  V30 1463 H 144.08 -1.866 -1.7759 0
M  V30 1464 H 144.038 -0.711043 -3.06254 0
M  V30 1465 N 147.81 0.181792 -1.56548 0
M  V30 1466 C 149.087 0.926765 -1.72251 0
M  V30 1467 C 149.467 2.00831 -0.650386 0
M  V30 1468 O 148.815 2.26008 0.336521 0
M  V30 1469 C 149.025 1.50106 -3.1507 0
M  V30 1470 C 150.373 1.97805 -3.75711 0
M  V30 1471 O 151.397 1.59922 -3.18282 0
M  V30 1472 O 150.256 2.67555 -4.76525 0
M  V30 1473 H 147.35 0.435506 -0.703039 0
M  V30 1474 H 149.896 0.170443 -1.68842 0
M  V30 1475 H 148.668 0.72212 -3.84579 0
M  V30 1476 H 148.291 2.32186 -3.22763 0
M  V30 1477 N 149.288 1.51039 0.449983 0
M  V30 1478 C 150.536 1.62759 1.19808 0
M  V30 1479 C 150.857 0.339981 1.92013 0
M  V30 1480 O 150.127 -0.643606 1.85026 0
M  V30 1481 H 148.707 0.599811 0.445237 0
M  V30 1482 H 151.369 1.87914 0.517138 0
M  V30 1483 H 150.465 2.44911 1.93455 0
M  V30 1484 N 150.766 -0.704594 1.40972 0
M  V30 1485 C 151.696 -1.83124 1.44872 0
M  V30 1486 C 152.677 -1.67281 0.30838 0
M  V30 1487 O 153.862 -1.87149 0.518556 0
M  V30 1488 C 150.992 -3.21181 1.32136 0
M  V30 1489 C 149.946 -3.51714 2.43888 0
M  V30 1490 C 149.272 -4.89032 2.16222 0
M  V30 1491 C 150.572 -3.516 3.86232 0
M  V30 1492 H 152.266 -1.80117 2.39161 0
M  V30 1493 H 149.812 -0.865145 1.15114 0
M  V30 1494 H 151.765 -3.99702 1.33479 0
M  V30 1495 H 150.489 -3.24791 0.343279 0
M  V30 1496 H 149.148 -2.75539 2.41813 0
M  V30 1497 H 148.796 -4.89256 1.16778 0
M  V30 1498 H 148.496 -5.10426 2.911 0
M  V30 1499 H 150.02 -5.69873 2.19265 0
M  V30 1500 H 151.434 -4.2014 3.9007 0
M  V30 1501 H 149.831 -3.84523 4.60719 0
M  V30 1502 H 150.901 -2.50757 4.15029 0
M  V30 1503 N 152.244 -1.26651 -0.937939 0
M  V30 1504 C 153.474 -1.15006 -1.71631 0
M  V30 1505 C 153.882 0.297026 -1.86854 0
M  V30 1506 O 153.225 1.21493 -1.37786 0
M  V30 1507 C 153.287 -1.74984 -3.14039 0
M  V30 1508 C 152.951 -3.24103 -3.2219 0
M  V30 1509 C 153.948 -4.20877 -3.05219 0
M  V30 1510 C 151.633 -3.64625 -3.45476 0
M  V30 1511 C 153.627 -5.56151 -3.11408 0
M  V30 1512 C 151.314 -5.00032 -3.513 0
M  V30 1513 C 152.312 -5.95604 -3.34282 0
M  V30 1514 O 152 -7.28545 -3.3982 0
M  V30 1515 H 151.732 -0.401183 -0.544085 0
M  V30 1516 H 154.286 -1.67832 -1.18413 0
M  V30 1517 H 152.516 -1.16624 -3.68695 0
M  V30 1518 H 154.205 -1.58199 -3.73802 0
M  V30 1519 H 154.971 -3.90908 -2.87081 0
M  V30 1520 H 150.85 -2.90718 -3.57777 0
M  V30 1521 H 154.394 -6.30727 -2.98043 0
M  V30 1522 H 150.291 -5.29659 -3.68959 0
M  V30 1523 H 151.059 -7.3686 -3.56343 0
M  V30 1524 N 153.722 1.14298 -1.08507 0
M  V30 1525 C 154.999 1.81544 -0.728088 0
M  V30 1526 C 155.379 1.95838 0.78808 0
M  V30 1527 O 154.727 1.51904 1.70697 0
M  V30 1528 C 154.937 3.17169 -1.45619 0
M  V30 1529 C 156.285 3.9265 -1.61591 0
M  V30 1530 O 157.309 3.26762 -1.41793 0
M  V30 1531 O 156.168 5.10807 -1.94263 0
M  V30 1532 H 153.262 0.78491 -0.260471 0
M  V30 1533 H 155.808 1.21307 -1.18671 0
M  V30 1534 H 154.58 3.01934 -2.489 0
M  V30 1535 H 154.203 3.851 -0.989124 0
M  V30 1536 N 155.201 0.870884 1.31352 0
M  V30 1537 C 156.612 0.534714 1.78879 0
M  V30 1538 C 156.963 -0.948423 1.71754 0
M  V30 1539 O 156.088 -1.74055 1.28584 0
M  V30 1540 C 156.683 0.963839 3.24801 0
M  V30 1541 C 155.242 0.679311 3.70219 0
M  V30 1542 C 154.389 1.15465 2.52117 0
M  V30 1543 H 157.34 1.05651 1.18421 0
M  V30 1544 H 157.361 0.286892 3.79417 0
M  V30 1545 H 156.873 2.04332 3.29955 0
M  V30 1546 H 154.974 -0.388769 3.70566 0
M  V30 1547 H 155.087 1.25698 4.62317 0
M  V30 1548 H 153.451 0.574383 2.48139 0
M  V30 1549 H 154.234 2.24157 2.60016 0
M  V30 1550 N 156.679 -1.44442 0.630414 0
M  V30 1551 C 157.956 -1.9549 0.0655657 0
M  V30 1552 C 158.336 -1.5724 -1.40851 0
M  V30 1553 O 157.684 -0.846116 -2.12257 0
M  V30 1554 C 157.894 -3.47812 0.287691 0
M  V30 1555 C 159.242 -4.24216 0.180513 0
M  V30 1556 O 160.266 -3.55526 0.219019 0
M  V30 1557 O 159.125 -5.46434 0.0848493 0
M  V30 1558 H 156.219 -0.826688 -0.0227177 0
M  V30 1559 H 158.765 -1.54496 0.702068 0
M  V30 1560 H 157.537 -3.687 1.31056 0
M  V30 1561 H 157.16 -3.95751 -0.382984 0
M  V30 1562 N 158.157 -0.370918 -1.53173 0
M  V30 1563 C 159.397 0.217106 -2.03244 0
M  V30 1564 C 159.761 1.45558 -1.25207 0
M  V30 1565 O 160.962 2.11957 -1.65311 0
M  V30 1566 C 159.233 0.496664 -3.53932 0
M  V30 1567 S 160.792 1.0576 -4.25864 0
M  V30 1568 H 157.61 0.0627827 -0.708223 0
M  V30 1569 H 160.212 -0.515019 -1.88594 0
M  V30 1570 H 158.916 -0.412096 -4.08326 0
M  V30 1571 H 158.447 1.25772 -3.72753 0
M  V30 1572 H 160.462 2.34145 -4.37482 0
M  V30 1573 N 159.635 1.57281 -0.100228 0
M  V30 1574 C 160.912 1.86014 0.604812 0
M  V30 1575 C 161.292 0.998025 1.86018 0
M  V30 1576 O 160.64 0.0718184 2.28387 0
M  V30 1577 C 160.85 3.36784 0.915278 0
M  V30 1578 C 162.198 4.04957 1.27651 0
M  V30 1579 O 163.222 3.41695 1.00613 0
M  V30 1580 O 162.081 5.16593 1.7831 0
M  V30 1581 H 159.175 0.76942 0.303185 0
M  V30 1582 H 161.721 1.69176 -0.133313 0
M  V30 1583 H 160.493 3.91292 0.0248896 0
M  V30 1584 H 160.116 3.58987 1.70921 0
M  V30 1585 N 161.113 -0.173488 1.56642 0
M  V30 1586 C 162.524 -0.736155 1.71574 0
M  V30 1587 C 162.875 -1.82888 0.710389 0
M  V30 1588 O 162 -2.16017 -0.1287 0
M  V30 1589 C 162.595 -1.34211 3.11083 0
M  V30 1590 C 161.154 -1.85162 3.27707 0
M  V30 1591 C 160.301 -0.729765 2.67525 0
M  V30 1592 H 163.252 0.0518786 1.58615 0
M  V30 1593 H 163.273 -2.21178 3.09613 0
M  V30 1594 H 162.785 -0.546579 3.84232 0
M  V30 1595 H 160.886 -2.67366 2.59512 0
M  V30 1596 H 160.999 -1.99855 4.35425 0
M  V30 1597 H 159.363 -1.14965 2.27278 0
M  V30 1598 H 160.146 0.0538806 3.43258 0
M  V30 1599 N 162.591 -1.51276 -0.441967 0
M  V30 1600 C 163.501 -1.75092 -1.56141 0
M  V30 1601 C 164.517 -0.634963 -1.62001 0
M  V30 1602 O 165.693 -0.916686 -1.79329 0
M  V30 1603 C 162.758 -1.86666 -2.92158 0
M  V30 1604 C 161.819 -3.10506 -2.96453 0
M  V30 1605 C 161.052 -3.21519 -4.25982 0
M  V30 1606 O 161.275 -2.38586 -5.18105 0
M  V30 1607 O 160.209 -4.14465 -4.36466 0
M  V30 1608 H 164.035 -2.70044 -1.38961 0
M  V30 1609 H 161.62 -1.35722 -0.624499 0
M  V30 1610 H 163.502 -1.96292 -3.72891 0
M  V30 1611 H 162.177 -0.949014 -3.09476 0
M  V30 1612 H 161.084 -3.06363 -2.14692 0
M  V30 1613 H 162.417 -4.01945 -2.84079 0
M  V30 1614 N 164.069 0.697108 -1.41344 0
M  V30 1615 C 165.317 1.45426 -1.40341 0
M  V30 1616 C 165.638 1.94996 -0.0128787 0
M  V30 1617 O 164.908 1.71599 0.945027 0
M  V30 1618 H 163.488 0.539594 -0.516573 0
M  V30 1619 H 166.15 0.825201 -1.76569 0
M  V30 1620 H 165.246 2.31817 -2.08967 0
M  V30 1621 N 165.547 1.27147 0.931209 0
M  V30 1622 C 166.963 1.04475 1.20653 0
M  V30 1623 C 167.163 -0.223885 2.00252 0
M  V30 1624 O 166.219 -0.930332 2.34736 0
M  V30 1625 C 167.532 2.28209 1.95809 0
M  V30 1626 C 169.08 2.33211 2.08762 0
M  V30 1627 C 169.555 3.56665 2.87323 0
M  V30 1628 N 171.046 3.57201 2.94892 0
M  V30 1629 C 171.781 4.49395 3.56134 0
M  V30 1630 N 171.277 5.51889 4.18796 0
M  V30 1631 N 173.07 4.37026 3.53504 0
M  V30 1632 H 165.221 2.08612 0.399333 0
M  V30 1633 H 167.484 0.917312 0.239253 0
M  V30 1634 H 167.19 3.20538 1.44736 0
M  V30 1635 H 167.064 2.33247 2.96438 0
M  V30 1636 H 169.451 1.41391 2.59023 0
M  V30 1637 H 169.532 2.32178 1.07364 0
M  V30 1638 H 169.176 4.4882 2.37746 0
M  V30 1639 H 169.106 3.54948 3.88998 0
M  V30 1640 H 171.597 2.83074 2.50354 0
M  V30 1641 H 171.91 6.18409 4.63454 0
M  V30 1642 H 170.255 5.55735 4.17353 0
M  V30 1643 H 173.446 3.56166 3.03749 0
M  V30 1644 H 173.619 5.09067 4.00942 0
M  V30 1645 N 167.025 -1.13721 1.09112 0
M  V30 1646 C 168.272 -1.84924 0.825192 0
M  V30 1647 C 168.6 -1.83347 -0.649151 0
M  V30 1648 O 167.855 -1.26449 -1.49362 0
M  V30 1649 C 168.154 -3.32861 1.30146 0
M  V30 1650 C 167.82 -3.54621 2.78486 0
M  V30 1651 C 166.482 -3.60268 3.18999 0
M  V30 1652 C 168.834 -3.62855 3.74146 0
M  V30 1653 C 166.162 -3.71679 4.53951 0
M  V30 1654 C 168.514 -3.75793 5.08883 0
M  V30 1655 C 167.178 -3.79692 5.4899 0
M  V30 1656 H 166.448 -0.676684 0.301959 0
M  V30 1657 H 169.095 -1.3428 1.36533 0
M  V30 1658 H 167.4 -3.85835 0.681064 0
M  V30 1659 H 169.097 -3.86395 1.07236 0
M  V30 1660 H 165.687 -3.50879 2.46134 0
M  V30 1661 H 169.871 -3.57775 3.43963 0
M  V30 1662 H 165.127 -3.72963 4.84467 0
M  V30 1663 H 169.301 -3.81107 5.82864 0
M  V30 1664 H 166.928 -3.88287 6.53558 0
M  V30 1665 N 168.503 -0.877838 -1.30888 0
M  V30 1666 C 169.45 -0.337538 -2.28318 0
M  V30 1667 C 170.42 0.568346 -1.56074 0
M  V30 1668 O 171.605 0.498298 -1.84178 0
M  V30 1669 C 168.745 0.448142 -3.42178 0
M  V30 1670 C 167.858 -0.48615 -4.29256 0
M  V30 1671 C 166.993 0.314427 -5.30269 0
M  V30 1672 C 166.032 -0.615791 -6.08995 0
M  V30 1673 N 165.169 0.14902 -7.01942 0
M  V30 1674 H 170.009 -1.17356 -2.73919 0
M  V30 1675 H 167.546 -0.590094 -1.34745 0
M  V30 1676 H 169.504 0.919517 -4.06941 0
M  V30 1677 H 168.134 1.24879 -2.97666 0
M  V30 1678 H 167.186 -1.076 -3.64865 0
M  V30 1679 H 168.498 -1.19909 -4.84173 0
M  V30 1680 H 167.652 0.847969 -6.00745 0
M  V30 1681 H 166.391 1.06062 -4.76027 0
M  V30 1682 H 165.396 -1.16102 -5.37401 0
M  V30 1683 H 166.621 -1.36097 -6.65323 0
M  V30 1684 H 164.567 0.877884 -6.50099 0
M  V30 1685 H 164.484 -0.504433 -7.54315 0
M  V30 1686 H 165.752 0.663537 -7.76671 0
M  V30 1687 N 169.982 1.44106 -0.638065 0
M  V30 1688 C 170.945 2.29138 0.0531013 0
M  V30 1689 C 171.945 1.41409 0.765506 0
M  V30 1690 O 173.135 1.63206 0.609046 0
M  V30 1691 C 170.267 3.23144 1.08584 0
M  V30 1692 H 171.46 2.91739 -0.694883 0
M  V30 1693 H 169.013 1.51134 -0.398538 0
M  V30 1694 H 169.748 2.65408 1.86357 0
M  V30 1695 H 169.533 3.87804 0.578852 0
M  V30 1696 H 171.023 3.87004 1.56899 0
M  V30 1697 N 171.46 0.379036 1.52974 0
M  V30 1698 C 172.876 0.0285448 1.59574 0
M  V30 1699 C 173.076 -1.45542 1.39355 0
M  V30 1700 O 172.132 -2.2187 1.20541 0
M  V30 1701 C 173.445 0.496535 2.96572 0
M  V30 1702 C 174.993 0.451909 3.0972 0
M  V30 1703 C 175.468 0.895924 4.49152 0
M  V30 1704 N 176.959 0.851522 4.55306 0
M  V30 1705 C 177.694 1.16661 5.61407 0
M  V30 1706 N 177.19 1.55166 6.752 0
M  V30 1707 N 178.983 1.08853 5.51459 0
M  V30 1708 H 171.134 1.34525 1.64367 0
M  V30 1709 H 173.397 0.550733 0.771619 0
M  V30 1710 H 173.103 1.53258 3.16552 0
M  V30 1711 H 172.977 -0.109802 3.7704 0
M  V30 1712 H 175.364 -0.575029 2.89443 0
M  V30 1713 H 175.445 1.09392 2.3123 0
M  V30 1714 H 175.089 1.92104 4.70168 0
M  V30 1715 H 175.019 0.23103 5.26093 0
M  V30 1716 H 177.51 0.568038 3.73606 0
M  V30 1717 H 177.823 1.776 7.52116 0
M  V30 1718 H 176.168 1.59044 6.76557 0
M  V30 1719 H 179.359 0.786803 4.6144 0
M  V30 1720 H 179.532 1.33742 6.34048 0
M  V30 1721 N 172.938 -1.57226 0.108567 0
M  V30 1722 C 173.87 -2.11809 -0.875752 0
M  V30 1723 C 174.883 -1.05839 -1.23701 0
M  V30 1724 O 176.072 -1.33245 -1.18778 0
M  V30 1725 C 173.172 -2.59411 -2.18081 0
M  V30 1726 C 172.345 -3.89364 -1.99284 0
M  V30 1727 C 171.404 -4.22672 -3.13424 0
M  V30 1728 O 170.43 -4.91668 -2.86795 0
M  V30 1729 N 171.632 -3.79154 -4.3957 0
M  V30 1730 H 174.397 -2.9689 -0.409477 0
M  V30 1731 H 171.958 -1.61721 -0.076158 0
M  V30 1732 H 173.95 -2.7873 -2.93414 0
M  V30 1733 H 172.52 -1.79268 -2.5609 0
M  V30 1734 H 171.74 -3.79059 -1.08203 0
M  V30 1735 H 173.028 -4.74358 -1.84017 0
M  V30 1736 H 172.426 -3.23486 -4.64083 0
M  V30 1737 H 170.983 -4.03602 -5.11809 0
M  V30 1738 N 174.416 0.165178 -1.56732 0
M  V30 1739 C 175.656 0.887231 -1.8414 0
M  V30 1740 C 176.02 1.79159 -0.690353 0
M  V30 1741 O 177.221 2.55172 -0.845032 0
M  V30 1742 C 175.492 1.65674 -3.16681 0
M  V30 1743 S 177.051 2.42671 -3.6559 0
M  V30 1744 H 173.869 0.297042 -0.645978 0
M  V30 1745 H 176.471 0.148439 -1.94936 0
M  V30 1746 H 175.175 0.983507 -3.98441 0
M  V30 1747 H 174.706 2.43679 -3.08843 0
M  V30 1748 H 176.721 3.67499 -3.33406 0
M  V30 1749 N 175.894 1.51508 0.433938 0
M  V30 1750 C 176.842 1.73646 1.54757 0
M  V30 1751 C 177.836 0.602854 1.5831 0
M  V30 1752 O 179.042 0.784318 1.62014 0
M  V30 1753 H 175.417 0.548718 0.51421 0
M  V30 1754 H 177.388 2.66991 1.33261 0
M  V30 1755 C 176.137 1.88172 2.92381 0
M  V30 1756 H 175.46 2.74808 2.90381 0
M  V30 1757 H 176.9 2.07672 3.6966 0
M  V30 1758 C 175.359 0.64239 3.30719 0
M  V30 1759 O 175.889 -0.201362 4.01195 0
M  V30 1760 N 174.095 0.485489 2.86516 0
M  V30 1761 H 173.642 1.17318 2.29334 0
M  V30 1762 H 173.6 -0.342482 3.12529 0
M  V30 1763 N 177.372 -0.689602 1.41712 0
M  V30 1764 C 178.304 -1.815 1.39966 0
M  V30 1765 C 179.317 -1.59995 0.300917 0
M  V30 1766 O 180.506 -1.69387 0.563039 0
M  V30 1767 C 177.606 -3.18364 1.16179 0
M  V30 1768 C 176.779 -3.66847 2.38206 0
M  V30 1769 C 175.838 -4.82398 2.10186 0
M  V30 1770 O 174.864 -4.93706 2.83272 0
M  V30 1771 N 176.066 -5.70064 1.0958 0
M  V30 1772 H 178.831 -1.83488 2.36965 0
M  V30 1773 H 176.392 -0.872149 1.36401 0
M  V30 1774 H 178.384 -3.93301 0.953756 0
M  V30 1775 H 176.954 -3.11365 0.27756 0
M  V30 1776 H 176.174 -2.82751 2.74673 0
M  V30 1777 H 177.462 -3.95978 3.19498 0
M  V30 1778 H 176.86 -5.63565 0.491019 0
M  V30 1779 H 175.417 -6.44874 0.947656 0
M  V30 1780 N 178.85 -1.27639 -0.924453 0
M  V30 1781 C 180.078 -1.16989 -1.70649 0
M  V30 1782 C 180.493 0.272869 -1.86818 0
M  V30 1783 O 179.85 1.18549 -1.38753 0
M  V30 1784 C 179.901 -1.85229 -3.10439 0
M  V30 1785 O 179.622 -3.23868 -2.95028 0
M  V30 1786 C 181.123 -1.80746 -4.04779 0
M  V30 1787 H 178.343 -0.406595 -0.53378 0
M  V30 1788 H 180.887 -1.68569 -1.15778 0
M  V30 1789 H 179.042 -1.37545 -3.6216 0
M  V30 1790 H 179.456 -3.57889 -3.83426 0
M  V30 1791 H 180.93 -2.33101 -5.00368 0
M  V30 1792 H 181.407 -0.777499 -4.32263 0
M  V30 1793 H 182.013 -2.28059 -3.58984 0
M  V30 1794 N 180.328 1.1314 -1.09713 0
M  V30 1795 C 181.553 1.88862 -0.857081 0
M  V30 1796 C 181.978 1.78729 0.586304 0
M  V30 1797 O 181.336 1.13692 1.41222 0
M  V30 1798 C 181.384 3.36325 -1.30069 0
M  V30 1799 O 180.488 4.09815 -0.461007 0
M  V30 1800 H 179.829 0.587108 -0.310162 0
M  V30 1801 H 182.359 1.43129 -1.46203 0
M  V30 1802 H 182.369 3.87157 -1.28738 0
M  V30 1803 H 181.044 3.43017 -2.35185 0
M  V30 1804 H 179.621 3.68986 -0.538888 0
M  V30 1805 N 181.806 0.884767 1.30421 0
M  V30 1806 C 183.052 0.503851 1.96441 0
M  V30 1807 C 183.385 -0.944518 1.69684 0
M  V30 1808 O 182.66 -1.66737 1.00145 0
M  V30 1809 C 182.943 0.779085 3.51571 0
M  V30 1810 C 182.796 2.27807 3.87846 0
M  V30 1811 C 184.115 0.255452 4.39358 0
M  V30 1812 H 181.234 0.184533 0.713524 0
M  V30 1813 H 183.876 1.10872 1.54297 0
M  V30 1814 H 182.026 0.264274 3.876 0
M  V30 1815 H 183.698 2.86127 3.61841 0
M  V30 1816 H 181.941 2.74479 3.35922 0
M  V30 1817 H 182.612 2.42125 4.96064 0
M  V30 1818 H 185.088 0.696079 4.10236 0
M  V30 1819 H 183.964 0.477361 5.4682 0
M  V30 1820 H 184.225 -0.843293 4.33983 0
M  V30 1821 N 183.284 -1.43765 0.645699 0
M  V30 1822 C 184.524 -2.03776 0.159542 0
M  V30 1823 C 184.888 -1.49792 -1.2011 0
M  V30 1824 O 186.089 -2.01398 -1.78023 0
M  V30 1825 C 184.36 -3.57036 0.161251 0
M  V30 1826 S 185.919 -4.3804 -0.258159 0
M  V30 1827 H 182.737 -0.707717 0.0682454 0
M  V30 1828 H 185.339 -1.75941 0.852352 0
M  V30 1829 H 184.043 -3.9383 1.15439 0
M  V30 1830 H 183.574 -3.89503 -0.552339 0
M  V30 1831 H 185.589 -4.7302 -1.49889 0
M  V30 1832 N 184.763 -0.387143 -1.52771 0
M  V30 1833 C 186.009 0.188506 -2.02525 0
M  V30 1834 C 186.364 1.44649 -1.26864 0
M  V30 1835 O 185.657 1.88189 -0.359945 0
M  V30 1836 C 185.851 0.512209 -3.53711 0
M  V30 1837 C 185.68 -0.712855 -4.44014 0
M  V30 1838 C 184.45 -1.23147 -4.90064 0
M  V30 1839 C 186.648 -1.58453 -4.89282 0
M  V30 1840 N 184.63 -2.41431 -5.64433 0
M  V30 1841 C 186.001 -2.61381 -5.6221 0
M  V30 1842 C 188.056 -1.60488 -4.71326 0
M  V30 1843 C 186.759 -3.66227 -6.19088 0
M  V30 1844 C 188.785 -2.6424 -5.29085 0
M  V30 1845 C 188.147 -3.6589 -6.01917 0
M  V30 1846 H 184.246 0.0311236 -0.78138 0
M  V30 1847 H 186.83 -0.536548 -1.87161 0
M  V30 1848 H 185.001 1.20632 -3.69192 0
M  V30 1849 H 186.733 1.07482 -3.90166 0
M  V30 1850 H 183.488 -0.792795 -4.66917 0
M  V30 1851 H 183.912 -3.01274 -6.0627 0
M  V30 1852 H 188.554 -0.83247 -4.14524 0
M  V30 1853 H 186.272 -4.44337 -6.74974 0
M  V30 1854 H 189.858 -2.66695 -5.17074 0
M  V30 1855 H 188.738 -4.44855 -6.45813 0
M  V30 1856 N 186.241 1.57166 -0.116904 0
M  V30 1857 C 187.481 1.97008 0.544715 0
M  V30 1858 C 187.845 0.998713 1.63981 0
M  V30 1859 O 189.046 1.28644 2.36018 0
M  V30 1860 C 187.317 3.41145 1.06559 0
M  V30 1861 S 188.876 4.02998 1.73603 0
M  V30 1862 H 185.694 0.688587 0.177112 0
M  V30 1863 H 188.296 1.94459 -0.201487 0
M  V30 1864 H 187 4.09592 0.257374 0
M  V30 1865 H 186.531 3.4734 1.84712 0
M  V30 1866 H 188.546 3.93585 3.02168 0
M  V30 1867 N 187.719 -0.156864 1.56817 0
M  V30 1868 C 188.965 -0.872416 1.83076 0
M  V30 1869 C 189.298 -1.81261 0.697001 0
M  V30 1870 O 188.573 -1.92171 -0.30008 0
M  V30 1871 C 188.856 -1.65551 3.19789 0
M  V30 1872 C 188.709 -0.737467 4.43713 0
M  V30 1873 C 190.028 -2.62012 3.53606 0
M  V30 1874 H 187.147 -0.315715 0.665953 0
M  V30 1875 H 189.789 -0.138004 1.89498 0
M  V30 1876 H 187.939 -2.28159 3.14445 0
M  V30 1877 H 189.611 -0.123143 4.61136 0
M  V30 1878 H 187.854 -0.0464067 4.33775 0
M  V30 1879 H 188.525 -1.32122 5.35955 0
M  V30 1880 H 191.001 -2.09525 3.59497 0
M  V30 1881 H 189.877 -3.13861 4.50314 0
M  V30 1882 H 190.138 -3.42902 2.79053 0
M  V30 1883 N 189.197 -1.51736 -0.425897 0
M  V30 1884 C 190.145 -1.74464 -1.53834 0
M  V30 1885 C 191.139 -0.611241 -1.57988 0
M  V30 1886 O 192.345 -0.792899 -1.61596 0
M  V30 1887 H 188.72 -0.551437 -0.511293 0
M  V30 1888 H 190.691 -2.67694 -1.31843 0
M  V30 1889 C 189.44 -1.8972 -2.91379 0
M  V30 1890 H 188.763 -2.76344 -2.88919 0
M  V30 1891 H 190.203 -2.09629 -3.68553 0
M  V30 1892 C 188.662 -0.65992 -3.30374 0
M  V30 1893 O 189.192 0.180083 -4.01296 0
M  V30 1894 N 187.398 -0.500677 -2.86254 0
M  V30 1895 H 186.945 -1.18532 -2.28709 0
M  V30 1896 H 186.903 0.325903 -3.12706 0
M  V30 1897 N 190.675 0.682077 -1.42076 0
M  V30 1898 C 191.9 1.47558 -1.45744 0
M  V30 1899 C 192.325 1.87977 -0.0680981 0
M  V30 1900 O 191.683 1.55522 0.9318 0
M  V30 1901 C 191.731 2.70575 -2.38373 0
M  V30 1902 O 190.835 3.68573 -1.85007 0
M  V30 1903 H 190.176 0.443585 -0.494093 0
M  V30 1904 H 192.706 0.837238 -1.86686 0
M  V30 1905 H 192.716 3.18729 -2.54707 0
M  V30 1906 H 191.391 2.40495 -3.39315 0
M  V30 1907 H 189.968 3.2757 -1.78192 0
M  V30 1908 N 192.153 1.28127 0.917671 0
M  V30 1909 C 193.399 1.15223 1.66888 0
M  V30 1910 C 193.732 -0.299293 1.9188 0
M  V30 1911 O 193.007 -1.21805 1.51637 0
M  V30 1912 C 193.29 1.94706 3.02922 0
M  V30 1913 C 193.143 3.47898 2.85109 0
M  V30 1914 C 194.462 1.75939 4.03402 0
M  V30 1915 H 191.581 0.419946 0.605652 0
M  V30 1916 H 194.223 1.57398 1.06423 0
M  V30 1917 H 192.373 1.58864 3.54534 0
M  V30 1918 H 194.045 3.93624 2.40537 0
M  V30 1919 H 192.288 3.7373 2.20246 0
M  V30 1920 H 192.959 3.98765 3.81694 0
M  V30 1921 H 195.435 2.07209 3.60837 0
M  V30 1922 H 194.311 2.33931 4.96556 0
M  V30 1923 H 194.572 0.709877 4.36364 0
M  V30 1924 N 193.631 -1.12557 1.10312 0
M  V30 1925 C 194.879 -1.83675 0.843091 0
M  V30 1926 C 195.2 -1.84435 -0.633131 0
M  V30 1927 O 194.47 -1.30657 -1.45964 0
M  V30 1928 H 193.05 -0.680138 0.308904 0
M  V30 1929 H 195.712 -1.36301 1.39313 0
M  V30 1930 H 194.808 -2.87908 1.2048 0
M  V30 1931 N 195.109 -0.891671 -1.2995 0
M  V30 1932 C 196.355 -0.514261 -1.96171 0
M  V30 1933 C 196.688 0.935506 -1.70182 0
M  V30 1934 O 195.963 1.66204 -1.01028 0
M  V30 1935 C 196.246 -0.797719 -3.51153 0
M  V30 1936 C 196.099 -2.2986 -3.86632 0
M  V30 1937 C 197.418 -0.278749 -4.39216 0
M  V30 1938 H 194.537 -0.188314 -0.712535 0
M  V30 1939 H 197.179 -1.11689 -1.53706 0
M  V30 1940 H 195.329 -0.284826 -3.87455 0
M  V30 1941 H 197.001 -2.88042 -3.60319 0
M  V30 1942 H 195.244 -2.76257 -3.34462 0
M  V30 1943 H 195.915 -2.44753 -4.94773 0
M  V30 1944 H 198.391 -0.717825 -4.09862 0
M  V30 1945 H 197.267 -0.506353 -5.46559 0
M  V30 1946 H 197.528 0.820266 -4.34424 0
M  V30 1947 N 196.587 1.43421 -0.653314 0
M  V30 1948 C 198.003 1.56341 -0.320886 0
M  V30 1949 C 198.203 1.63696 1.17499 0
M  V30 1950 O 197.259 1.59208 1.95982 0
M  V30 1951 C 198.572 2.82424 -1.03233 0
M  V30 1952 C 200.12 2.96168 -1.01259 0
M  V30 1953 C 200.595 4.25084 -1.70492 0
M  V30 1954 N 202.086 4.31948 -1.67257 0
M  V30 1955 C 202.821 5.30466 -2.17701 0
M  V30 1956 N 202.317 6.35261 -2.76434 0
M  V30 1957 N 204.11 5.2212 -2.082 0
M  V30 1958 H 196.261 1.3689 -1.62403 0
M  V30 1959 H 198.524 0.657455 -0.682977 0
M  V30 1960 H 198.23 2.83053 -2.08744 0
M  V30 1961 H 198.104 3.72653 -0.583948 0
M  V30 1962 H 200.491 2.9508 0.0341235 0
M  V30 1963 H 200.572 2.07229 -1.49966 0
M  V30 1964 H 200.216 4.26932 -2.7512 0
M  V30 1965 H 200.146 5.1292 -1.19251 0
M  V30 1966 H 202.637 3.56838 -1.24398 0
M  V30 1967 H 202.95 7.06754 -3.12601 0
M  V30 1968 H 201.295 6.35884 -2.80495 0
M  V30 1969 H 204.486 4.39166 -1.62021 0
M  V30 1970 H 204.659 5.98739 -2.47822 0
M  V30 1971 N 198.065 0.39524 1.52563 0
M  V30 1972 C 199.481 0.0454682 1.59535 0
M  V30 1973 C 199.681 -1.44056 1.4089 0
M  V30 1974 O 198.737 -2.20579 1.22888 0
M  V30 1975 C 200.05 0.527963 2.96029 0
M  V30 1976 C 201.598 0.484733 3.09224 0
M  V30 1977 C 202.073 0.943512 4.48176 0
M  V30 1978 N 203.564 0.899765 4.54377 0
M  V30 1979 C 204.299 1.22609 5.60138 0
M  V30 1980 N 203.795 1.62319 6.73516 0
M  V30 1981 N 205.588 1.14696 5.50274 0
M  V30 1982 H 197.739 1.36261 1.62931 0
M  V30 1983 H 200.002 0.558887 0.765735 0
M  V30 1984 H 199.708 1.56607 3.14908 0
M  V30 1985 H 199.582 -0.0698056 3.77135 0
M  V30 1986 H 201.969 -0.544298 2.90037 0
M  V30 1987 H 202.05 1.11838 2.30056 0
M  V30 1988 H 201.694 1.9708 4.68104 0
M  V30 1989 H 201.624 0.286817 5.25818 0
M  V30 1990 H 204.115 0.607632 3.72983 0
M  V30 1991 H 204.428 1.85567 7.5019 0
M  V30 1992 H 202.773 1.66211 6.74833 0
M  V30 1993 H 205.964 0.835701 4.6058 0
M  V30 1994 H 206.137 1.40459 6.32594 0
M  V30 1995 N 199.544 -1.57102 0.125237 0
M  V30 1996 C 200.772 -1.99761 -0.538797 0
M  V30 1997 C 201.187 -1.00503 -1.59827 0
M  V30 1998 O 200.544 0.00119474 -1.825 0
M  V30 1999 C 200.595 -3.42408 -1.15927 0
M  V30 2000 O 200.316 -4.37869 -0.142143 0
M  V30 2001 C 201.817 -4.00232 -1.90602 0
M  V30 2002 H 199.037 -0.655772 -0.14214 0
M  V30 2003 H 201.581 -2.03383 0.213413 0
M  V30 2004 H 199.736 -3.39706 -1.86223 0
M  V30 2005 H 200.15 -5.21128 -0.593775 0
M  V30 2006 H 201.624 -5.02105 -2.29335 0
M  V30 2007 H 202.101 -3.39721 -2.78363 0
M  V30 2008 H 202.707 -4.06499 -1.25055 0
M  V30 2009 N 201.022 0.148545 -1.56898 0
M  V30 2010 C 202.299 0.890019 -1.74178 0
M  V30 2011 C 202.679 1.99407 -0.692839 0
M  V30 2012 O 202.027 2.26671 0.288505 0
M  V30 2013 C 202.237 1.43389 -3.18183 0
M  V30 2014 C 203.585 1.89791 -3.79822 0
M  V30 2015 O 204.609 1.53134 -3.21603 0
M  V30 2016 O 203.468 2.57387 -4.82093 0
M  V30 2017 H 200.562 0.420496 -0.712118 0
M  V30 2018 H 203.108 0.134591 -1.69165 0
M  V30 2019 H 201.88 0.640383 -3.86024 0
M  V30 2020 H 201.503 2.25287 -3.27615 0
M  V30 2021 N 202.5 1.5196 0.417844 0
M  V30 2022 C 203.447 1.74678 1.50852 0
M  V30 2023 C 204.417 0.588947 1.55308 0
M  V30 2024 O 205.602 0.825544 1.72016 0
M  V30 2025 C 202.742 1.89544 2.88387 0
M  V30 2026 C 201.855 3.17166 2.93309 0
M  V30 2027 C 200.99 3.22513 4.22088 0
M  V30 2028 C 200.029 4.44372 4.20951 0
M  V30 2029 N 199.166 4.47161 5.41287 0
M  V30 2030 H 204.006 2.67768 1.30783 0
M  V30 2031 H 201.543 1.32689 0.63498 0
M  V30 2032 H 203.501 1.96146 3.68216 0
M  V30 2033 H 202.131 0.998424 3.06971 0
M  V30 2034 H 201.183 3.19778 2.06024 0
M  V30 2035 H 202.495 4.07021 2.88332 0
M  V30 2036 H 201.649 3.28139 5.10303 0
M  V30 2037 H 200.388 2.30581 4.29748 0
M  V30 2038 H 199.393 4.38902 3.31127 0
M  V30 2039 H 200.618 5.3759 4.14938 0
M  V30 2040 H 198.564 3.58108 5.49632 0
M  V30 2041 H 198.481 5.3085 5.3827 0
M  V30 2042 H 199.749 4.57005 6.3148 0
M  V30 2043 N 203.978 -0.674533 1.42435 0
M  V30 2044 C 205.226 -1.43175 1.42637 0
M  V30 2045 C 205.547 -1.94951 0.0438992 0
M  V30 2046 O 204.817 -1.7308 -0.917607 0
M  V30 2047 H 203.397 -0.531307 0.525092 0
M  V30 2048 H 206.059 -0.797006 1.77859 0
M  V30 2049 H 205.155 -2.28463 2.12629 0
M  V30 2050 N 205.456 -1.28612 -0.910864 0
M  V30 2051 C 206.733 -1.06632 -1.63979 0
M  V30 2052 C 207.113 0.393351 -2.07403 0
M  V30 2053 O 206.461 1.37999 -1.82122 0
M  V30 2054 C 206.671 -2.0436 -2.8291 0
M  V30 2055 C 208.019 -2.34666 -3.5386 0
M  V30 2056 O 209.043 -2.02467 -2.93062 0
M  V30 2057 O 207.902 -2.89631 -4.63439 0
M  V30 2058 H 204.996 -0.407737 -0.7195 0
M  V30 2059 H 207.542 -1.39942 -0.959914 0
M  V30 2060 H 206.314 -3.02727 -2.47936 0
M  V30 2061 H 205.937 -1.71714 -3.58609 0
M  V30 2062 N 206.934 1.1197 -1.10907 0
M  V30 2063 C 207.864 2.19928 -0.784473 0
M  V30 2064 C 208.845 1.6833 0.244726 0
M  V30 2065 O 210.03 1.93892 0.109418 0
M  V30 2066 C 207.16 3.46597 -0.220827 0
M  V30 2067 C 206.114 4.11376 -1.18127 0
M  V30 2068 C 205.44 5.32554 -0.478594 0
M  V30 2069 C 206.74 4.56945 -2.52979 0
M  V30 2070 H 208.434 2.47337 -1.68715 0
M  V30 2071 H 205.98 1.18879 -0.812642 0
M  V30 2072 H 207.933 4.21396 0.0184278 0
M  V30 2073 H 206.657 3.1863 0.717113 0
M  V30 2074 H 205.316 3.38564 -1.40606 0
M  V30 2075 H 204.964 5.00856 0.463976 0
M  V30 2076 H 204.664 5.76844 -1.11912 0
M  V30 2077 H 206.188 6.10096 -0.248 0
M  V30 2078 H 207.602 5.23093 -2.3462 0
M  V30 2079 H 205.999 5.1203 -3.12962 0
M  V30 2080 H 207.069 3.70676 -3.12614 0
M  V30 2081 N 208.412 0.89855 1.29475 0
M  V30 2082 C 209.637 0.538561 2.00285 0
M  V30 2083 C 210.062 -0.869135 1.66816 0
M  V30 2084 O 209.42 -1.57831 0.892145 0
M  V30 2085 C 209.468 0.736475 3.52999 0
M  V30 2086 O 208.572 -0.211537 4.11857 0
M  V30 2087 H 207.913 0.210563 0.62973 0
M  V30 2088 H 210.443 1.20982 1.64998 0
M  V30 2089 H 210.453 0.640685 4.02938 0
M  V30 2090 H 209.128 1.76276 3.76696 0
M  V30 2091 H 207.705 -0.0682991 3.72837 0
M  V30 2092 N 209.89 -1.43072 0.660911 0
M  V30 2093 C 210.82 -2.33497 -0.0122829 0
M  V30 2094 C 211.801 -1.49903 -0.803925 0
M  V30 2095 O 212.986 -1.78546 -0.763864 0
M  V30 2096 C 210.116 -3.33363 -0.973994 0
M  V30 2097 C 209.07 -4.27003 -0.291928 0
M  V30 2098 C 208.396 -5.16967 -1.36562 0
M  V30 2099 C 209.696 -5.15816 0.820462 0
M  V30 2100 H 211.39 -2.90038 0.742873 0
M  V30 2101 H 208.936 -1.39461 0.358688 0
M  V30 2102 H 210.889 -3.95524 -1.45392 0
M  V30 2103 H 209.613 -2.75095 -1.7604 0
M  V30 2104 H 208.272 -3.66217 0.167623 0
M  V30 2105 H 207.92 -4.55034 -2.14366 0
M  V30 2106 H 207.62 -5.80441 -0.914454 0
M  V30 2107 H 209.144 -5.82003 -1.84675 0
M  V30 2108 H 210.558 -5.71742 0.422366 0
M  V30 2109 H 208.955 -5.8805 1.19656 0
M  V30 2110 H 210.025 -4.55045 1.67518 0
M  V30 2111 N 211.368 -0.403325 -1.52352 0
M  V30 2112 C 212.784 -0.0539281 -1.59509 0
M  V30 2113 C 212.984 1.43307 -1.41652 0
M  V30 2114 O 212.04 2.19924 -1.24056 0
M  V30 2115 C 213.353 -0.543654 -2.95745 0
M  V30 2116 C 214.901 -0.501125 -3.08962 0
M  V30 2117 C 215.376 -0.967267 -4.47669 0
M  V30 2118 N 216.867 -0.923849 -4.53893 0
M  V30 2119 C 217.602 -1.25578 -5.5948 0
M  V30 2120 N 217.098 -1.65889 -6.72646 0
M  V30 2121 N 218.891 -1.17613 -5.49658 0
M  V30 2122 H 211.042 -1.37123 -1.62206 0
M  V30 2123 H 213.305 -0.56294 -0.76276 0
M  V30 2124 H 213.011 -1.58275 -3.14073 0
M  V30 2125 H 212.885 0.0498042 -3.77167 0
M  V30 2126 H 215.272 0.528909 -2.90321 0
M  V30 2127 H 215.353 -1.13056 -2.2946 0
M  V30 2128 H 214.997 -1.9956 -4.67053 0
M  V30 2129 H 214.927 -0.314698 -5.25659 0
M  V30 2130 H 217.418 -0.627403 -3.72655 0
M  V30 2131 H 217.731 -1.89543 -7.49195 0
M  V30 2132 H 216.076 -1.69787 -6.73942 0
M  V30 2133 H 219.267 -0.860115 -4.6013 0
M  V30 2134 H 219.44 -1.43812 -6.3184 0
M  V30 2135 N 212.846 1.57033 -0.133567 0
M  V30 2136 C 214.086 1.97575 0.523789 0
M  V30 2137 C 214.45 1.01605 1.62912 0
M  V30 2138 O 215.651 1.3114 2.3464 0
M  V30 2139 C 213.922 3.42256 1.02935 0
M  V30 2140 S 215.481 4.04817 1.69319 0
M  V30 2141 H 212.299 0.690427 0.169799 0
M  V30 2142 H 214.901 1.94234 -0.222101 0
M  V30 2143 H 213.605 4.09842 0.213917 0
M  V30 2144 H 213.136 3.4928 1.81017 0
M  V30 2145 H 215.151 3.96767 2.97977 0
M  V30 2146 N 214.325 -0.140222 1.56975 0
M  V30 2147 C 215.602 -0.880769 1.74648 0
M  V30 2148 C 215.982 -1.99036 0.703404 0
M  V30 2149 O 215.33 -2.26821 -0.27648 0
M  V30 2150 C 215.54 -1.417 3.18939 0
M  V30 2151 C 216.888 -1.87774 3.80823 0
M  V30 2152 O 217.912 -1.51427 3.2241 0
M  V30 2153 O 216.771 -2.54827 4.83452 0
M  V30 2154 H 213.865 -0.416713 0.714338 0
M  V30 2155 H 216.411 -0.125618 1.69234 0
M  V30 2156 H 215.183 -0.619902 3.86359 0
M  V30 2157 H 214.806 -2.23546 3.28805 0
M  V30 2158 N 215.803 -1.52179 -0.40978 0
M  V30 2159 C 216.713 -1.78364 -1.52392 0
M  V30 2160 C 217.729 -0.669183 -1.60617 0
M  V30 2161 O 218.905 -0.954518 -1.77344 0
M  V30 2162 C 215.97 -1.92822 -2.88133 0
M  V30 2163 C 215.031 -3.16725 -2.898 0
M  V30 2164 C 214.264 -3.30483 -4.19067 0
M  V30 2165 O 214.487 -2.49522 -5.12928 0
M  V30 2166 O 213.421 -4.2363 -4.27576 0
M  V30 2167 H 217.247 -2.72931 -1.33201 0
M  V30 2168 H 214.832 -1.37016 -0.59557 0
M  V30 2169 H 216.714 -2.04157 -3.68643 0
M  V30 2170 H 215.389 -1.01444 -3.07393 0
M  V30 2171 H 214.296 -3.10848 -2.08146 0
M  V30 2172 H 215.629 -4.07881 -2.75489 0
M  V30 2173 N 217.281 0.66697 -1.42791 0
M  V30 2174 C 218.211 1.79218 -1.49677 0
M  V30 2175 C 219.192 1.66405 -0.352623 0
M  V30 2176 O 220.377 1.85708 -0.567993 0
M  V30 2177 C 217.507 3.17565 -1.40605 0
M  V30 2178 C 216.461 3.45124 -2.53127 0
M  V30 2179 C 215.787 4.83127 -2.29112 0
M  V30 2180 C 217.087 3.41236 -3.95418 0
M  V30 2181 H 218.781 1.73713 -2.43853 0
M  V30 2182 H 216.327 0.83432 -1.17367 0
M  V30 2183 H 218.28 3.96022 -1.44029 0
M  V30 2184 H 217.004 3.23767 -0.429271 0
M  V30 2185 H 215.663 2.69031 -2.49034 0
M  V30 2186 H 215.311 4.85988 -1.29709 0
M  V30 2187 H 215.011 5.02528 -3.04531 0
M  V30 2188 H 216.535 5.63859 -2.34297 0
M  V30 2189 H 217.949 4.09651 -4.01073 0
M  V30 2190 H 216.346 3.72173 -4.70752 0
M  V30 2191 H 217.416 2.39665 -4.21532 0
M  V30 2192 N 218.759 1.29093 0.90403 0
M  V30 2193 C 220.005 1.16986 1.65656 0
M  V30 2194 C 220.338 -0.278925 1.92186 0
M  V30 2195 O 219.613 -1.2019 1.5292 0
M  V30 2196 C 219.896 1.97908 3.0084 0
M  V30 2197 C 219.749 3.50903 2.81403 0
M  V30 2198 C 221.068 1.80208 4.01513 0
M  V30 2199 H 218.187 0.426346 0.601164 0
M  V30 2200 H 220.829 1.58518 1.04747 0
M  V30 2201 H 218.979 1.62616 3.52829 0
M  V30 2202 H 220.651 3.96153 2.36348 0
M  V30 2203 H 218.894 3.76045 2.1627 0
M  V30 2204 H 219.565 4.02791 3.77443 0
M  V30 2205 H 222.041 2.11025 3.58619 0
M  V30 2206 H 220.917 2.39184 4.94047 0
M  V30 2207 H 221.178 0.756119 4.35586 0
M  V30 2208 N 220.237 -1.11381 1.11499 0
M  V30 2209 C 221.653 -1.35143 0.849031 0
M  V30 2210 C 221.853 -1.94515 -0.525938 0
M  V30 2211 O 220.909 -2.1785 -1.27662 0
M  V30 2212 C 222.222 -2.28249 1.95762 0
M  V30 2213 C 223.77 -2.41812 1.98736 0
M  V30 2214 C 224.245 -3.3824 3.088 0
M  V30 2215 N 225.736 -3.45803 3.08179 0
M  V30 2216 C 226.471 -4.20358 3.89982 0
M  V30 2217 N 225.967 -4.97884 4.8175 0
M  V30 2218 N 227.76 -4.15877 3.78157 0
M  V30 2219 H 219.911 -0.712062 2.00109 0
M  V30 2220 H 222.174 -0.376025 0.870235 0
M  V30 2221 H 221.88 -1.91817 2.94787 0
M  V30 2222 H 221.754 -3.28473 1.85433 0
M  V30 2223 H 224.141 -2.77518 1.00338 0
M  V30 2224 H 224.222 -1.41437 2.13141 0
M  V30 2225 H 223.866 -3.03261 4.07425 0
M  V30 2226 H 223.796 -4.38471 2.91635 0
M  V30 2227 H 226.287 -2.90506 2.41691 0
M  V30 2228 H 226.6 -5.52142 5.40702 0
M  V30 2229 H 224.945 -4.97043 4.85771 0
M  V30 2230 H 228.136 -3.544 3.05808 0
M  V30 2231 H 228.309 -4.73723 4.42143 0
M  V30 2232 N 221.715 -0.905404 -1.28997 0
M  V30 2233 C 222.943 -0.549846 -1.9946 0
M  V30 2234 C 223.358 0.866834 -1.67724 0
M  V30 2235 O 222.715 1.57298 -0.925404 0
M  V30 2236 C 222.766 -0.739387 -3.53858 0
M  V30 2237 O 222.487 -2.10031 -3.84472 0
M  V30 2238 C 223.988 -0.389541 -4.41585 0
M  V30 2239 H 221.208 -0.210429 -0.637151 0
M  V30 2240 H 223.752 -1.21632 -1.64396 0
M  V30 2241 H 221.907 -0.120023 -3.87214 0
M  V30 2242 H 222.321 -2.13385 -4.79132 0
M  V30 2243 H 223.795 -0.572972 -5.49018 0
M  V30 2244 H 224.272 0.673756 -4.34001 0
M  V30 2245 H 224.878 -0.986089 -4.1371 0
M  V30 2246 N 223.193 1.4272 -0.668489 0
M  V30 2247 C 224.143 2.27971 0.0363806 0
M  V30 2248 C 225.127 1.40741 0.779794 0
M  V30 2249 O 226.319 1.64245 0.659745 0
M  V30 2250 C 223.448 3.28673 0.991398 0
M  V30 2251 C 222.534 4.23388 0.245658 0
M  V30 2252 N 222.925 5.00267 -0.746069 0
M  V30 2253 C 221.223 4.43355 0.484988 0
M  V30 2254 C 221.924 5.69396 -1.19009 0
M  V30 2255 N 220.9 5.41095 -0.521287 0
M  V30 2256 H 224.702 2.84833 -0.724394 0
M  V30 2257 H 222.216 1.54607 -0.497028 0
M  V30 2258 H 224.213 3.88543 1.51129 0
M  V30 2259 H 222.873 2.73373 1.75207 0
M  V30 2260 H 223.884 5.05525 -1.12537 0
M  V30 2261 H 220.561 3.99104 1.22565 0
M  V30 2262 H 221.951 6.41083 -2.01153 0
M  V30 2263 N 224.671 0.411399 1.52136 0
M  V30 2264 C 225.621 -0.430376 2.23901 0
M  V30 2265 C 226.605 -1.0116 1.25121 0
M  V30 2266 O 227.797 -0.934044 1.50348 0
M  V30 2267 C 224.926 -1.54527 3.06556 0
M  V30 2268 C 224.012 -0.9747 4.12747 0
M  V30 2269 N 224.403 -0.130991 5.0563 0
M  V30 2270 C 222.701 -1.24497 4.28271 0
M  V30 2271 C 223.402 0.186689 5.814 0
M  V30 2272 N 222.378 -0.42304 5.41951 0
M  V30 2273 H 226.18 0.220509 2.93072 0
M  V30 2274 H 223.694 0.221952 1.60876 0
M  V30 2275 H 225.691 -2.16093 3.56524 0
M  V30 2276 H 224.351 -2.19875 2.38925 0
M  V30 2277 H 225.362 0.23349 5.17373 0
M  V30 2278 H 222.039 -1.89787 3.7187 0
M  V30 2279 H 223.429 0.871673 6.66222 0
M  V30 2280 N 226.149 -1.5696 0.141893 0
M  V30 2281 C 227.398 -1.95135 -0.510427 0
M  V30 2282 C 227.711 -1.02896 -1.66348 0
M  V30 2283 O 228.917 -1.30629 -2.38009 0
M  V30 2284 C 227.373 -3.46876 -0.959427 0
M  V30 2285 C 226.981 -4.47691 0.166419 0
M  V30 2286 C 228.725 -3.93927 -1.58183 0
M  V30 2287 C 226.632 -5.90636 -0.300565 0
M  V30 2288 H 225.562 -0.728494 -0.194454 0
M  V30 2289 H 228.213 -1.8211 0.22542 0
M  V30 2290 H 226.595 -3.55215 -1.75038 0
M  V30 2291 H 227.769 -4.51043 0.94325 0
M  V30 2292 H 226.084 -4.10527 0.696905 0
M  V30 2293 H 228.681 -4.98158 -1.94275 0
M  V30 2294 H 229.024 -3.3519 -2.46888 0
M  V30 2295 H 229.557 -3.88484 -0.855863 0
M  V30 2296 H 226.296 -6.5318 0.550989 0
M  V30 2297 H 225.816 -5.90655 -1.04338 0
M  V30 2298 H 227.495 -6.42588 -0.754265 0
M  V30 2299 N 227.627 0.131896 -1.57047 0
M  V30 2300 C 228.557 1.16384 -2.02428 0
M  V30 2301 C 229.538 1.43936 -0.90644 0
M  V30 2302 O 230.723 1.54599 -1.17528 0
M  V30 2303 C 227.853 2.49328 -2.4177 0
M  V30 2304 C 226.807 2.36266 -3.56879 0
M  V30 2305 C 226.133 3.74057 -3.8208 0
M  V30 2306 C 227.433 1.834 -4.89042 0
M  V30 2307 H 229.127 0.786433 -2.88887 0
M  V30 2308 H 226.673 0.376855 -1.38981 0
M  V30 2309 H 228.626 3.21759 -2.7212 0
M  V30 2310 H 227.35 2.88934 -1.52266 0
M  V30 2311 H 226.009 1.66286 -3.26718 0
M  V30 2312 H 225.657 4.11125 -2.89803 0
M  V30 2313 H 225.357 3.66174 -4.59554 0
M  V30 2314 H 226.881 4.48012 -4.1487 0
M  V30 2315 H 228.295 2.45636 -5.18011 0
M  V30 2316 H 226.692 1.8637 -5.70426 0
M  V30 2317 H 227.762 0.790662 -4.7841 0
M  V30 2318 N 229.106 1.52395 0.401703 0
M  V30 2319 C 230.355 1.66044 1.14509 0
M  V30 2320 C 230.668 0.400216 1.91462 0
M  V30 2321 O 231.874 0.416632 2.68284 0
M  V30 2322 C 230.33 2.93388 2.0845 0
M  V30 2323 C 229.938 4.26545 1.36978 0
M  V30 2324 C 231.682 3.16402 2.83001 0
M  V30 2325 C 229.589 5.45007 2.29611 0
M  V30 2326 H 228.519 0.618562 0.431158 0
M  V30 2327 H 231.17 1.78886 0.40892 0
M  V30 2328 H 229.552 2.74263 2.8565 0
M  V30 2329 H 230.726 4.56179 0.650916 0
M  V30 2330 H 229.041 4.09692 0.74438 0
M  V30 2331 H 231.638 4.02085 3.52465 0
M  V30 2332 H 231.981 2.30943 3.46368 0
M  V30 2333 H 232.514 3.36034 2.12898 0
M  V30 2334 H 229.253 6.32835 1.70879 0
M  V30 2335 H 228.773 5.19702 2.9945 0
M  V30 2336 H 230.452 5.7838 2.89974 0
M  V30 2337 N 230.584 -0.659388 1.43143 0
M  V30 2338 C 231.861 -1.41627 1.34912 0
M  V30 2339 C 232.241 -2.11099 -0.00607785 0
M  V30 2340 O 231.589 -2.04353 -1.02236 0
M  V30 2341 C 231.799 -2.40604 2.52805 0
M  V30 2342 C 233.147 -3.04789 2.95616 0
M  V30 2343 O 234.171 -2.50932 2.52807 0
M  V30 2344 O 233.03 -4.02421 3.69756 0
M  V30 2345 H 230.124 -0.63246 0.532844 0
M  V30 2346 H 232.67 -0.686814 1.5518 0
M  V30 2347 H 231.442 -1.88174 3.43083 0
M  V30 2348 H 231.065 -3.21009 2.34604 0
M  V30 2349 N 232.062 -1.29571 -0.897171 0
M  V30 2350 C 232.992 -1.17473 -2.01798 0
M  V30 2351 C 233.973 -0.068323 -1.69963 0
M  V30 2352 O 235.158 -0.248239 -1.92607 0
M  V30 2353 C 232.288 -0.853099 -3.36659 0
M  V30 2354 C 231.242 -1.9161 -3.82713 0
M  V30 2355 C 230.568 -1.44773 -5.14728 0
M  V30 2356 C 231.868 -3.32535 -4.02763 0
M  V30 2357 H 233.562 -2.11237 -2.12177 0
M  V30 2358 H 231.108 -1.01699 -1.01948 0
M  V30 2359 H 233.061 -0.755165 -4.14578 0
M  V30 2360 H 231.785 0.120236 -3.26379 0
M  V30 2361 H 230.444 -2.00346 -3.07013 0
M  V30 2362 H 230.092 -0.462995 -5.00865 0
M  V30 2363 H 229.792 -2.15865 -5.46513 0
M  V30 2364 H 231.316 -1.36334 -5.95185 0
M  V30 2365 H 232.73 -3.26626 -4.71156 0
M  V30 2366 H 231.127 -4.01607 -4.45905 0
M  V30 2367 H 232.197 -3.75326 -3.07016 0
M  V30 2368 N 233.54 1.10788 -1.12088 0
M  V30 2369 C 234.956 1.34691 -0.856186 0
M  V30 2370 C 235.156 1.94791 0.515615 0
M  V30 2371 O 234.212 2.18524 1.26505 0
M  V30 2372 C 235.525 2.27208 -1.9697 0
M  V30 2373 C 237.073 2.40755 -2.00016 0
M  V30 2374 C 237.548 3.36598 -3.1059 0
M  V30 2375 N 239.039 3.44164 -3.10008 0
M  V30 2376 C 239.774 4.18284 -3.92206 0
M  V30 2377 N 239.27 4.95322 -4.84384 0
M  V30 2378 N 241.063 4.13865 -3.80357 0
M  V30 2379 H 233.214 0.70144 -2.00483 0
M  V30 2380 H 235.477 0.371405 -0.872217 0
M  V30 2381 H 235.183 1.90251 -2.958 0
M  V30 2382 H 235.057 3.27485 -1.87172 0
M  V30 2383 H 237.444 2.76982 -1.01808 0
M  V30 2384 H 237.525 1.40305 -2.13888 0
M  V30 2385 H 237.169 3.01096 -4.09028 0
M  V30 2386 H 237.099 4.36918 -2.93956 0
M  V30 2387 H 239.59 2.8922 -2.43228 0
M  V30 2388 H 239.903 5.49267 -5.43623 0
M  V30 2389 H 238.248 4.94459 -4.884 0
M  V30 2390 H 241.439 3.52773 -3.07683 0
M  V30 2391 H 241.612 4.71372 -4.44649 0
M  V30 2392 N 235.018 0.912232 1.28515 0
M  V30 2393 C 235.968 0.370649 2.24967 0
M  V30 2394 C 236.952 -0.516375 1.52389 0
M  V30 2395 O 238.144 -0.356345 1.73376 0
M  V30 2396 C 235.273 -0.389526 3.41083 0
M  V30 2397 C 234.359 0.51313 4.20984 0
M  V30 2398 N 234.75 1.62604 4.78951 0
M  V30 2399 C 233.048 0.313235 4.44899 0
M  V30 2400 C 233.749 2.18619 5.39055 0
M  V30 2401 N 232.725 1.47765 5.23132 0
M  V30 2402 H 236.527 1.22061 2.67354 0
M  V30 2403 H 234.041 0.764712 1.43269 0
M  V30 2404 H 236.038 -0.794353 4.09262 0
M  V30 2405 H 234.698 -1.2366 3.0023 0
M  V30 2406 H 235.709 2.00864 4.77362 0
M  V30 2407 H 232.386 -0.494452 4.14562 0
M  V30 2408 H 233.776 3.12228 5.94948 0
M  V30 2409 N 236.496 -1.42363 0.676048 0
M  V30 2410 C 237.912 -1.55811 0.345718 0
M  V30 2411 C 238.112 -1.65544 -1.14879 0
M  V30 2412 O 237.168 -1.62306 -1.93424 0
M  V30 2413 C 238.481 -2.80746 1.07713 0
M  V30 2414 C 240.029 -2.9452 1.05958 0
M  V30 2415 C 240.504 -4.22318 1.77233 0
M  V30 2416 N 241.995 -4.29233 1.74108 0
M  V30 2417 C 242.73 -5.26935 2.26113 0
M  V30 2418 N 242.226 -6.30783 2.86505 0
M  V30 2419 N 244.019 -5.18741 2.1648 0
M  V30 2420 H 236.17 -1.34289 1.6456 0
M  V30 2421 H 238.433 -0.646506 0.69335 0
M  V30 2422 H 238.139 -2.79696 2.13221 0
M  V30 2423 H 238.013 -3.71676 0.64316 0
M  V30 2424 H 240.4 -2.95097 0.0128255 0
M  V30 2425 H 240.481 -2.04817 1.53244 0
M  V30 2426 H 240.125 -4.22502 2.81877 0
M  V30 2427 H 240.055 -5.10958 1.27396 0
M  V30 2428 H 242.546 -3.54814 1.30059 0
M  V30 2429 H 242.859 -7.01691 3.23805 0
M  V30 2430 H 241.204 -6.31341 2.90575 0
M  V30 2431 H 244.395 -4.36533 1.68987 0
M  V30 2432 H 244.568 -5.94721 2.57316 0
M  V30 2433 N 237.974 -0.419461 -1.51915 0
M  V30 2434 C 239.385 0.0477853 -1.86639 0
M  V30 2435 C 239.736 1.43531 -1.33766 0
M  V30 2436 O 238.861 2.05401 -0.68113 0
M  V30 2437 C 239.456 0.0934885 -3.38671 0
M  V30 2438 C 238.015 0.505097 -3.72996 0
M  V30 2439 C 237.162 -0.313792 -2.75519 0
M  V30 2440 H 240.113 -0.636088 -1.45395 0
M  V30 2441 H 240.134 0.906667 -3.6954 0
M  V30 2442 H 239.646 -0.916501 -3.77123 0
M  V30 2443 H 237.747 1.52135 -3.40126 0
M  V30 2444 H 237.86 0.242309 -4.78487 0
M  V30 2445 H 236.224 0.225363 -2.53701 0
M  V30 2446 H 237.007 -1.32232 -3.16812 0
M  V30 2447 N 239.452 1.56882 -0.150215 0
M  V30 2448 C 240.68 2.00593 0.506948 0
M  V30 2449 C 241.095 1.03033 1.58208 0
M  V30 2450 O 240.452 0.0278396 1.82479 0
M  V30 2451 C 240.503 3.44209 1.10465 0
M  V30 2452 O 240.224 4.3804 0.0724636 0
M  V30 2453 C 241.725 4.03214 1.84211 0
M  V30 2454 H 238.945 0.65795 0.13169 0
M  V30 2455 H 241.489 2.03018 -0.245743 0
M  V30 2456 H 239.644 3.42625 1.80795 0
M  V30 2457 H 240.058 5.22007 0.510793 0
M  V30 2458 H 241.532 5.0569 2.21318 0
M  V30 2459 H 242.009 3.44107 2.72923 0
M  V30 2460 H 242.615 4.08437 1.18572 0
M  V30 2461 N 240.93 -0.123565 1.57115 0
M  V30 2462 C 241.893 -1.13583 1.99076 0
M  V30 2463 C 242.893 -1.34564 0.880296 0
M  V30 2464 O 244.083 -1.31158 1.14644 0
M  V30 2465 C 241.215 -2.49128 2.32698 0
M  V30 2466 H 242.408 -0.775287 2.89706 0
M  V30 2467 H 239.961 -0.36771 1.51913 0
M  V30 2468 H 240.696 -2.90111 1.44934 0
M  V30 2469 H 240.481 -2.35255 3.13684 0
M  V30 2470 H 241.971 -3.2199 2.65918 0
M  V30 2471 N 242.408 -1.52605 -0.393616 0
M  V30 2472 C 243.656 -1.67093 -1.13685 0
M  V30 2473 C 243.977 -0.411011 -1.90619 0
M  V30 2474 O 243.247 0.574491 -1.87287 0
M  V30 2475 H 241.827 -0.615923 -0.422668 0
M  V30 2476 H 244.489 -1.89704 -0.447039 0
M  V30 2477 H 243.585 -2.51922 -1.84232 0
M  V30 2478 N 243.887 0.651787 -1.4349 0
M  V30 2479 C 244.85 1.74647 -1.48429 0
M  V30 2480 C 245.85 1.56513 -0.368817 0
M  V30 2481 O 247.04 1.62385 -0.630623 0
M  V30 2482 C 244.172 3.13533 -1.33827 0
M  V30 2483 H 245.365 1.71649 -2.4592 0
M  V30 2484 H 242.918 0.863573 -1.30277 0
M  V30 2485 H 243.653 3.22142 -0.37349 0
M  V30 2486 H 243.438 3.28101 -2.14691 0
M  V30 2487 H 244.928 3.93356 -1.40218 0
M  V30 2488 N 245.365 1.30045 0.890287 0
M  V30 2489 C 246.612 1.18561 1.64163 0
M  V30 2490 C 246.94 -0.260852 1.92743 0
M  V30 2491 O 246.195 -1.20376 1.54299 0
M  V30 2492 C 246.494 1.95409 2.99249 0
M  V30 2493 C 246.16 3.45066 2.90242 0
M  V30 2494 C 244.822 3.85878 2.87492 0
M  V30 2495 C 247.174 4.4039 2.78758 0
M  V30 2496 C 244.502 5.20314 2.7109 0
M  V30 2497 C 246.854 5.74928 2.63894 0
M  V30 2498 C 245.518 6.14986 2.59516 0
M  V30 2499 H 244.788 0.433846 0.600715 0
M  V30 2500 H 247.435 1.61088 1.03552 0
M  V30 2501 H 245.74 1.45501 3.63781 0
M  V30 2502 H 247.437 1.8392 3.56334 0
M  V30 2503 H 244.027 3.12631 2.93189 0
M  V30 2504 H 248.211 4.09806 2.79952 0
M  V30 2505 H 243.467 5.50449 2.66112 0
M  V30 2506 H 247.641 6.48434 2.53981 0
M  V30 2507 H 245.268 7.19104 2.46565 0
M  V30 2508 N 246.843 -1.10192 1.12674 0
M  V30 2509 C 247.791 -2.18694 0.792196 0
M  V30 2510 C 248.785 -1.67938 -0.222058 0
M  V30 2511 O 249.991 -1.79822 -0.0800074 0
M  V30 2512 H 246.366 -0.713223 0.238364 0
M  V30 2513 H 248.337 -2.44149 1.71564 0
M  V30 2514 C 247.086 -3.46682 0.265859 0
M  V30 2515 H 246.409 -3.86101 1.03761 0
M  V30 2516 H 247.849 -4.23942 0.0701128 0
M  V30 2517 C 246.308 -3.21506 -1.00675 0
M  V30 2518 O 246.838 -3.43408 -2.08408 0
M  V30 2519 N 245.044 -2.75158 -0.934692 0
M  V30 2520 H 244.591 -2.57535 -0.0578604 0
M  V30 2521 H 244.549 -2.58691 -1.7868 0
M  V30 2522 N 248.321 -0.919034 -1.28029 0
M  V30 2523 C 249.271 -0.382574 -2.24767 0
M  V30 2524 C 250.255 0.508286 -1.52661 0
M  V30 2525 O 251.447 0.347145 -1.73562 0
M  V30 2526 C 248.576 0.371432 -3.41285 0
M  V30 2527 C 247.662 -0.535449 -4.20706 0
M  V30 2528 N 248.053 -1.65141 -4.78082 0
M  V30 2529 C 246.351 -0.336824 -4.44726 0
M  V30 2530 C 247.052 -2.21475 -5.37888 0
M  V30 2531 N 246.028 -1.50537 -5.22341 0
M  V30 2532 H 249.83 -1.23477 -2.66703 0
M  V30 2533 H 247.344 -0.772299 -1.42861 0
M  V30 2534 H 249.341 0.772638 -4.09678 0
M  V30 2535 H 248.001 1.22066 -3.00882 0
M  V30 2536 H 249.012 -2.03392 -4.7629 0
M  V30 2537 H 245.689 0.47246 -4.14818 0
M  V30 2538 H 247.079 -3.15379 -5.93284 0
M  V30 2539 N 249.799 1.42003 -0.683588 0
M  V30 2540 C 251.024 2.06265 -0.216647 0
M  V30 2541 C 251.449 1.51059 1.12083 0
M  V30 2542 O 250.807 0.632638 1.69904 0
M  V30 2543 C 250.855 3.60191 -0.171759 0
M  V30 2544 O 249.959 4.03396 0.857069 0
M  V30 2545 H 249.3 0.65502 -0.108834 0
M  V30 2546 H 251.83 1.81982 -0.935077 0
M  V30 2547 H 251.84 4.08 0.0014303 0
M  V30 2548 H 250.515 3.99743 -1.14796 0
M  V30 2549 H 249.092 3.67117 0.654208 0
M  V30 2550 N 251.277 0.427512 1.51691 0
M  V30 2551 C 252.554 -0.201684 1.94557 0
M  V30 2552 C 252.934 -1.60981 1.36559 0
M  V30 2553 O 252.282 -2.21814 0.548702 0
M  V30 2554 C 252.492 -0.189394 3.48486 0
M  V30 2555 C 253.84 -0.39978 4.22714 0
M  V30 2556 O 254.864 -0.267945 3.55191 0
M  V30 2557 O 253.723 -0.661249 5.42485 0
M  V30 2558 H 250.817 -0.135261 0.815864 0
M  V30 2559 H 253.363 0.484782 1.62628 0
M  V30 2560 H 252.135 0.795431 3.8313 0
M  V30 2561 H 251.758 -0.919187 3.86829 0
M  V30 2562 N 252.755 -1.56801 0.158532 0
M  V30 2563 C 253.685 -2.20347 -0.772609 0
M  V30 2564 C 254.666 -1.15518 -1.24859 0
M  V30 2565 O 255.851 -1.43902 -1.30406 0
M  V30 2566 C 252.981 -2.83417 -2.00729 0
M  V30 2567 C 251.935 -3.94174 -1.66765 0
M  V30 2568 C 251.261 -4.44233 -2.97592 0
M  V30 2569 C 252.561 -5.14392 -0.905447 0
M  V30 2570 H 254.255 -2.98413 -0.242959 0
M  V30 2571 H 251.801 -1.43537 -0.115419 0
M  V30 2572 H 253.754 -3.26543 -2.6636 0
M  V30 2573 H 252.478 -2.02701 -2.56086 0
M  V30 2574 H 251.137 -3.51684 -1.03508 0
M  V30 2575 H 250.785 -3.60325 -3.50963 0
M  V30 2576 H 250.485 -5.18945 -2.75626 0
M  V30 2577 H 252.009 -4.90037 -3.64274 0
M  V30 2578 H 253.423 -5.5429 -1.46408 0
M  V30 2579 H 251.82 -5.9494 -0.7853 0
M  V30 2580 H 252.89 -4.84795 0.100668 0
M  V30 2581 N 254.233 0.115231 -1.57178 0
M  V30 2582 C 255.51 0.852873 -1.76027 0
M  V30 2583 C 255.89 1.97892 -0.73498 0
M  V30 2584 O 255.238 2.27232 0.24036 0
M  V30 2585 C 255.448 1.36608 -3.21153 0
M  V30 2586 C 256.796 1.81692 -3.83762 0
M  V30 2587 O 257.82 1.46278 -3.24779 0
M  V30 2588 O 256.679 2.47104 -4.87444 0
M  V30 2589 H 253.773 0.405296 -0.720877 0
M  V30 2590 H 256.319 0.0986785 -1.69413 0
M  V30 2591 H 255.091 0.558357 -3.87296 0
M  V30 2592 H 254.714 2.18287 -3.3232 0
M  V30 2593 N 255.711 1.52812 0.385517 0
M  V30 2594 C 256.674 1.77188 1.45386 0
M  V30 2595 C 257.674 0.641953 1.4743 0
M  V30 2596 O 258.864 0.910033 1.4854 0
M  V30 2597 C 255.996 1.87582 2.8465 0
M  V30 2598 H 257.189 2.72583 1.25054 0
M  V30 2599 H 254.742 1.43586 0.617467 0
M  V30 2600 H 255.477 0.941849 3.10322 0
M  V30 2601 H 255.262 2.69748 2.84567 0
M  V30 2602 H 256.752 2.08102 3.62054 0
M  V30 2603 N 257.189 -0.644168 1.43834 0
M  V30 2604 C 258.099 -1.78563 1.52159 0
M  V30 2605 C 259.115 -1.69147 0.408069 0
M  V30 2606 O 260.291 -1.90156 0.663524 0
M  V30 2607 C 257.356 -3.14888 1.45073 0
M  V30 2608 C 256.417 -3.36034 2.6717 0
M  V30 2609 C 255.65 -4.65855 2.60413 0
M  V30 2610 O 255.873 -5.45805 1.65689 0
M  V30 2611 O 254.807 -4.88918 3.5106 0
M  V30 2612 H 258.633 -1.74494 2.48567 0
M  V30 2613 H 256.218 -0.80378 1.25935 0
M  V30 2614 H 258.1 -3.96179 1.43597 0
M  V30 2615 H 256.775 -3.19528 0.518037 0
M  V30 2616 H 255.682 -2.54472 2.74217 0
M  V30 2617 H 257.015 -3.36247 3.59442 0
M  V30 2618 N 258.668 -1.30515 -0.883378 0
M  V30 2619 C 259.598 -1.19607 -2.00541 0
M  V30 2620 C 260.579 -0.086346 -1.69881 0
M  V30 2621 O 261.764 -0.268654 -1.92333 0
M  V30 2622 C 258.894 -0.888758 -3.35736 0
M  V30 2623 C 257.848 -1.95659 -3.8066 0
M  V30 2624 C 257.174 -1.50224 -5.13164 0
M  V30 2625 C 258.474 -3.36788 -3.99213 0
M  V30 2626 H 260.168 -2.13476 -2.09925 0
M  V30 2627 H 257.714 -1.02775 -1.00863 0
M  V30 2628 H 259.667 -0.799094 -4.13754 0
M  V30 2629 H 258.391 0.0856125 -3.26488 0
M  V30 2630 H 257.05 -2.03591 -3.04871 0
M  V30 2631 H 256.698 -0.516092 -5.00345 0
M  V30 2632 H 256.398 -2.2165 -5.44192 0
M  V30 2633 H 257.922 -1.42639 -5.93706 0
M  V30 2634 H 259.336 -3.31605 -4.67665 0
M  V30 2635 H 257.733 -4.06314 -4.41621 0
M  V30 2636 H 258.803 -3.78561 -3.03017 0
M  V30 2637 N 260.146 1.09593 -1.13257 0
M  V30 2638 C 261.562 1.33775 -0.870423 0
M  V30 2639 C 261.762 1.95327 0.494926 0
M  V30 2640 O 260.818 2.19853 1.2418 0
M  V30 2641 C 262.131 2.25106 -1.99369 0
M  V30 2642 C 263.679 2.3862 -2.02558 0
M  V30 2643 C 264.154 3.33285 -3.14142 0
M  V30 2644 N 265.645 3.40857 -3.13641 0
M  V30 2645 C 266.38 4.14101 -3.96621 0
M  V30 2646 N 265.876 4.90157 -4.8961 0
M  V30 2647 N 267.669 4.09808 -3.84726 0
M  V30 2648 H 259.82 0.680136 -2.01216 0
M  V30 2649 H 262.083 0.362133 -0.876107 0
M  V30 2650 H 261.789 1.87103 -2.97801 0
M  V30 2651 H 261.663 3.25481 -1.90635 0
M  V30 2652 H 264.05 2.75887 -1.0474 0
M  V30 2653 H 264.131 1.38028 -2.15364 0
M  V30 2654 H 263.775 2.96741 -4.12198 0
M  V30 2655 H 263.705 4.33776 -2.98574 0
M  V30 2656 H 266.196 2.86624 -2.46282 0
M  V30 2657 H 266.509 5.4347 -5.49418 0
M  V30 2658 H 264.854 4.89251 -4.93617 0
M  V30 2659 H 268.045 3.4949 -3.11408 0
M  V30 2660 H 268.218 4.66629 -4.49623 0
M  V30 2661 N 261.624 0.925811 1.2754 0
M  V30 2662 C 263.04 0.625767 1.46821 0
M  V30 2663 C 263.24 -0.825506 1.83814 0
M  V30 2664 O 262.296 -1.60356 1.95044 0
M  V30 2665 C 263.609 1.57402 2.56213 0
M  V30 2666 C 265.157 1.58204 2.70075 0
M  V30 2667 C 265.632 2.51721 3.82623 0
M  V30 2668 N 267.123 2.49917 3.89994 0
M  V30 2669 C 267.858 3.18968 4.76494 0
M  V30 2670 N 267.354 3.97391 5.67496 0
M  V30 2671 N 269.147 3.07996 4.70208 0
M  V30 2672 H 261.298 1.86409 1.01811 0
M  V30 2673 H 263.561 0.800213 0.508295 0
M  V30 2674 H 263.267 2.60925 2.35819 0
M  V30 2675 H 263.141 1.31428 3.53563 0
M  V30 2676 H 265.528 0.554124 2.89851 0
M  V30 2677 H 265.609 1.88226 1.73218 0
M  V30 2678 H 265.253 3.54622 3.63601 0
M  V30 2679 H 265.183 2.18996 4.78903 0
M  V30 2680 H 267.674 1.9296 3.24923 0
M  V30 2681 H 267.987 4.4707 6.30356 0
M  V30 2682 H 266.332 4.01495 5.67298 0
M  V30 2683 H 269.523 2.46223 3.9811 0
M  V30 2684 H 269.696 3.6208 5.37403 0
M  V30 2685 N 263.102 -1.41638 0.69111 0
M  V30 2686 C 264.032 -2.3347 0.037248 0
M  V30 2687 C 265.013 -1.51575 -0.771947 0
M  V30 2688 O 266.198 -1.80126 -0.72582 0
M  V30 2689 C 263.328 -3.35354 -0.903064 0
M  V30 2690 C 262.282 -4.27526 -0.201288 0
M  V30 2691 C 261.608 -5.19747 -1.25565 0
M  V30 2692 C 262.908 -5.13959 0.929689 0
M  V30 2693 H 264.602 -2.88397 0.804227 0
M  V30 2694 H 262.148 -1.38669 0.388189 0
M  V30 2695 H 264.101 -3.98519 -1.36969 0
M  V30 2696 H 262.825 -2.78767 -1.70166 0
M  V30 2697 H 261.484 -3.65779 0.245265 0
M  V30 2698 H 261.132 -4.59479 -2.04666 0
M  V30 2699 H 260.832 -5.8225 -0.791128 0
M  V30 2700 H 262.356 -5.85789 -1.72288 0
M  V30 2701 H 263.77 -5.70718 0.543546 0
M  V30 2702 H 262.167 -5.85379 1.32103 0
M  V30 2703 H 263.237 -4.51389 1.77133 0
M  V30 2704 N 264.58 -0.43555 -1.51462 0
M  V30 2705 C 265.827 0.131514 -2.02072 0
M  V30 2706 C 266.155 1.42868 -1.31981 0
M  V30 2707 O 265.41 1.91076 -0.422883 0
M  V30 2708 C 265.709 0.39942 -3.55161 0
M  V30 2709 C 265.375 -0.81172 -4.43533 0
M  V30 2710 C 264.037 -1.14387 -4.67407 0
M  V30 2711 C 266.389 -1.61976 -4.95392 0
M  V30 2712 C 263.717 -2.28477 -5.40384 0
M  V30 2713 C 266.069 -2.75164 -5.6962 0
M  V30 2714 C 264.733 -3.08835 -5.91758 0
M  V30 2715 H 264.003 0.0481244 -0.739436 0
M  V30 2716 H 266.65 -0.58238 -1.8243 0
M  V30 2717 H 264.955 1.19519 -3.73125 0
M  V30 2718 H 266.652 0.85157 -3.91854 0
M  V30 2719 H 263.242 -0.542898 -4.25148 0
M  V30 2720 H 267.426 -1.37637 -4.76833 0
M  V30 2721 H 262.682 -2.5488 -5.55739 0
M  V30 2722 H 266.856 -3.38147 -6.08793 0
M  V30 2723 H 264.483 -3.97353 -6.48086 0
M  V30 2724 N 266.058 1.56714 -0.166846 0
M  V30 2725 C 267.474 1.58473 0.189372 0
M  V30 2726 C 267.674 1.18201 1.63189 0
M  V30 2727 O 266.73 0.891528 2.36237 0
M  V30 2728 C 268.043 3.00573 -0.0873872 0
M  V30 2729 C 269.591 3.1299 -0.0252443 0
M  V30 2730 C 270.066 4.57174 -0.274934 0
M  V30 2731 N 271.557 4.62665 -0.222553 0
M  V30 2732 C 272.292 5.72072 -0.389985 0
M  V30 2733 N 271.788 6.90054 -0.616229 0
M  V30 2734 N 273.581 5.61153 -0.326202 0
M  V30 2735 H 265.732 1.8118 -1.10849 0
M  V30 2736 H 267.995 0.839525 -0.440342 0
M  V30 2737 H 267.701 3.34497 -1.0865 0
M  V30 2738 H 267.575 3.72019 0.623037 0
M  V30 2739 H 269.962 2.78895 0.96444 0
M  V30 2740 H 270.043 2.43989 -0.768309 0
M  V30 2741 H 269.687 4.91976 -1.26181 0
M  V30 2742 H 269.617 5.24328 0.48869 0
M  V30 2743 H 272.108 3.77863 -0.0531512 0
M  V30 2744 H 272.421 7.69311 -0.733559 0
M  V30 2745 H 270.766 6.91927 -0.652791 0
M  V30 2746 H 273.957 4.67859 -0.150072 0
M  V30 2747 H 274.13 6.46364 -0.460116 0
M  V30 2748 N 267.536 -0.106894 1.57237 0
M  V30 2749 C 268.446 -1.14911 2.0453 0
M  V30 2750 C 269.462 -1.44592 0.96795 0
M  V30 2751 O 270.638 -1.55468 1.2803 0
M  V30 2752 C 267.703 -2.45272 2.45036 0
M  V30 2753 C 266.764 -2.22879 3.66911 0
M  V30 2754 C 265.997 -3.47024 4.05475 0
M  V30 2755 O 266.22 -4.54804 3.44252 0
M  V30 2756 O 265.154 -3.3731 4.98504 0
M  V30 2757 H 268.98 -0.777461 2.9358 0
M  V30 2758 H 266.565 -0.318563 1.45964 0
M  V30 2759 H 268.447 -3.22055 2.71769 0
M  V30 2760 H 267.122 -2.81886 1.59129 0
M  V30 2761 H 266.029 -1.43915 3.45311 0
M  V30 2762 H 267.362 -1.91163 4.53561 0
M  V30 2763 N 269.014 -1.53014 -0.377408 0
M  V30 2764 C 270.43 -1.42523 -0.718281 0
M  V30 2765 C 270.63 -0.55487 -1.9371 0
M  V30 2766 O 269.686 -0.0327593 -2.52479 0
M  V30 2767 C 270.999 -2.85546 -0.942539 0
M  V30 2768 C 272.547 -2.95101 -1.04329 0
M  V30 2769 C 273.022 -4.3916 -1.3001 0
M  V30 2770 N 274.513 -4.42536 -1.36806 0
M  V30 2771 C 275.248 -5.51097 -1.58364 0
M  V30 2772 N 274.744 -6.69724 -1.77317 0
M  V30 2773 N 276.537 -5.38657 -1.60638 0
M  V30 2774 H 268.688 -2.08116 0.424426 0
M  V30 2775 H 270.951 -0.939352 0.127759 0
M  V30 2776 H 270.657 -3.51499 -0.118929 0
M  V30 2777 H 270.531 -3.28493 -1.85397 0
M  V30 2778 H 272.918 -2.29309 -1.85745 0
M  V30 2779 H 272.999 -2.55566 -0.109505 0
M  V30 2780 H 272.643 -5.05521 -0.490991 0
M  V30 2781 H 272.573 -4.76258 -2.24691 0
M  V30 2782 H 275.064 -3.57039 -1.23821 0
M  V30 2783 H 275.377 -7.48233 -1.93306 0
M  V30 2784 H 273.722 -6.72732 -1.74518 0
M  V30 2785 H 276.913 -4.44948 -1.45391 0
M  V30 2786 H 277.086 -6.2333 -1.77098 0
M  V30 2787 N 270.492 0.636531 -1.44174 0
M  V30 2788 C 271.722 1.42146 -1.49927 0
M  V30 2789 C 272.13 1.88812 -0.121063 0
M  V30 2790 O 271.473 1.61126 0.882267 0
M  V30 2791 C 271.535 2.67883 -2.39748 0
M  V30 2792 C 271.199 2.43048 -3.8701 0
M  V30 2793 C 272.196 2.05216 -4.77684 0
M  V30 2794 C 269.881 2.56856 -4.3166 0
M  V30 2795 C 271.875 1.81512 -6.11009 0
M  V30 2796 C 269.562 2.32766 -5.65034 0
M  V30 2797 C 270.56 1.95152 -6.54526 0
M  V30 2798 O 270.248 1.71326 -7.85431 0
M  V30 2799 H 269.98 0.442567 -0.51099 0
M  V30 2800 H 272.534 0.786158 -1.8976 0
M  V30 2801 H 270.764 3.34032 -1.94832 0
M  V30 2802 H 272.453 3.29874 -2.36513 0
M  V30 2803 H 273.219 1.94111 -4.44462 0
M  V30 2804 H 269.098 2.85104 -3.62266 0
M  V30 2805 H 272.642 1.52077 -6.80822 0
M  V30 2806 H 268.539 2.43479 -5.97819 0
M  V30 2807 H 269.307 1.85616 -7.97176 0
M  V30 2808 N 271.97 1.30982 0.876444 0
M  V30 2809 C 273.386 1.09498 1.16113 0
M  V30 2810 C 273.586 -0.13875 2.01022 0
M  V30 2811 O 272.642 -0.829935 2.38471 0
M  V30 2812 C 273.955 2.36308 1.85954 0
M  V30 2813 C 275.503 2.41856 1.98683 0
M  V30 2814 C 275.978 3.6853 2.71937 0
M  V30 2815 N 277.469 3.69387 2.79477 0
M  V30 2816 C 278.204 4.64096 3.36753 0
M  V30 2817 N 277.7 5.69155 3.95012 0
M  V30 2818 N 279.493 4.51626 3.3465 0
M  V30 2819 H 271.644 2.10118 0.310494 0
M  V30 2820 H 273.907 0.926634 0.200131 0
M  V30 2821 H 273.613 3.26388 1.31011 0
M  V30 2822 H 273.487 2.4561 2.86278 0
M  V30 2823 H 275.874 1.52249 2.52793 0
M  V30 2824 H 275.955 2.36523 0.9742 0
M  V30 2825 H 275.599 4.58499 2.18496 0
M  V30 2826 H 275.529 3.71127 3.73593 0
M  V30 2827 H 278.02 2.93438 2.38123 0
M  V30 2828 H 278.333 6.3751 4.36808 0
M  V30 2829 H 276.678 5.72937 3.93406 0
M  V30 2830 H 279.869 3.68728 2.8837 0
M  V30 2831 H 280.042 5.25614 3.7899 0
M  V30 2832 N 273.449 -1.08991 1.13837 0
M  V30 2833 C 274.379 -2.17771 0.842507 0
M  V30 2834 C 275.36 -1.6892 -0.20001 0
M  V30 2835 O 276.545 -1.94113 -0.0579731 0
M  V30 2836 C 273.675 -3.4589 0.312644 0
M  V30 2837 C 272.629 -4.08099 1.28992 0
M  V30 2838 C 271.955 -5.31098 0.619623 0
M  V30 2839 C 273.255 -4.50077 2.65005 0
M  V30 2840 H 274.949 -2.42777 1.75213 0
M  V30 2841 H 272.495 -1.16682 0.843875 0
M  V30 2842 H 274.448 -4.21297 0.0933043 0
M  V30 2843 H 273.172 -3.20419 -0.632382 0
M  V30 2844 H 271.831 -3.34717 1.49533 0
M  V30 2845 H 271.479 -5.0191 -0.33102 0
M  V30 2846 H 271.179 -5.73674 1.27167 0
M  V30 2847 H 272.703 -6.09224 0.409669 0
M  V30 2848 H 274.117 -5.16688 2.48407 0
M  V30 2849 H 272.514 -5.03553 3.26427 0
M  V30 2850 H 273.584 -3.62257 3.22332 0
M  V30 2851 N 274.927 -0.932562 -1.27047 0
M  V30 2852 C 275.877 -0.406392 -2.24349 0
M  V30 2853 C 276.861 0.492066 -1.53191 0
M  V30 2854 O 278.053 0.328717 -1.73921 0
M  V30 2855 C 275.182 0.335214 -3.41659 0
M  V30 2856 C 274.268 -0.58004 -4.20115 0
M  V30 2857 N 274.659 -1.70203 -4.76303 0
M  V30 2858 C 272.957 -0.383974 -4.44344 0
M  V30 2859 C 273.658 -2.27167 -5.35509 0
M  V30 2860 N 272.634 -1.56068 -5.20715 0
M  V30 2861 H 276.436 -1.26299 -2.65378 0
M  V30 2862 H 273.95 -0.787408 -1.42034 0
M  V30 2863 H 275.947 0.729142 -4.10474 0
M  V30 2864 H 274.607 1.18868 -3.0216 0
M  V30 2865 H 275.618 -2.08433 -4.74106 0
M  V30 2866 H 272.295 0.428436 -4.15296 0
M  V30 2867 H 273.685 -3.21654 -5.89905 0
M  V30 2868 N 276.405 1.4127 -0.698611 0
M  V30 2869 C 277.816 1.84187 -0.305289 0
M  V30 2870 C 278.167 1.58449 1.15708 0
M  V30 2871 O 277.292 1.05651 1.88856 0
M  V30 2872 C 277.887 3.3435 -0.547314 0
M  V30 2873 C 276.446 3.75826 -0.207878 0
M  V30 2874 C 275.593 2.64647 -0.828099 0
M  V30 2875 H 278.544 1.30778 -0.89904 0
M  V30 2876 H 278.565 3.8001 0.192998 0
M  V30 2877 H 278.077 3.53051 -1.61172 0
M  V30 2878 H 276.178 3.62725 0.852143 0
M  V30 2879 H 276.291 4.74462 -0.665021 0
M  V30 2880 H 274.655 2.53395 -0.257458 0
M  V30 2881 H 275.438 2.86165 -1.89643 0
M  V30 2882 N 277.883 0.443576 1.51229 0
M  V30 2883 C 278.83 -0.364716 2.279 0
M  V30 2884 C 279.8 -1.0114 1.31757 0
M  V30 2885 O 280.985 -1.02912 1.60667 0
M  V30 2886 C 278.125 -1.45644 3.12861 0
M  V30 2887 C 277.238 -0.827269 4.24005 0
M  V30 2888 C 276.373 -1.89456 4.96266 0
M  V30 2889 C 275.412 -1.24416 5.99322 0
M  V30 2890 N 274.549 -2.25309 6.64966 0
M  V30 2891 H 279.389 0.295464 2.96532 0
M  V30 2892 H 276.926 0.157554 1.46254 0
M  V30 2893 H 278.884 -2.10076 3.6045 0
M  V30 2894 H 277.514 -2.08616 2.46331 0
M  V30 2895 H 276.566 -0.0710839 3.80334 0
M  V30 2896 H 277.878 -0.312481 4.9782 0
M  V30 2897 H 277.032 -2.61535 5.47434 0
M  V30 2898 H 275.771 -2.4431 4.22095 0
M  V30 2899 H 274.776 -0.508868 5.4744 0
M  V30 2900 H 276.001 -0.702882 6.75453 0
M  V30 2901 H 273.947 -2.79231 5.93604 0
M  V30 2902 H 273.864 -1.78739 7.34567 0
M  V30 2903 H 275.132 -2.96853 7.20763 0
M  V30 2904 N 279.361 -1.56624 0.175154 0
M  V30 2905 C 280.608 -1.96999 -0.468811 0
M  V30 2906 C 280.936 -1.06129 -1.62994 0
M  V30 2907 O 280.191 -0.0961771 -1.95464 0
M  V30 2908 C 280.49 -3.43419 -0.989864 0
M  V30 2909 C 280.156 -4.50866 0.0557687 0
M  V30 2910 C 278.818 -4.79975 0.343134 0
M  V30 2911 C 281.17 -5.15551 0.765308 0
M  V30 2912 C 278.498 -5.71066 1.34536 0
M  V30 2913 C 280.85 -6.07724 1.75654 0
M  V30 2914 C 279.514 -6.35199 2.05132 0
M  V30 2915 H 278.784 -0.720869 -0.17155 0
M  V30 2916 H 281.431 -1.89616 0.267924 0
M  V30 2917 H 279.736 -3.47772 -1.80449 0
M  V30 2918 H 281.433 -3.72002 -1.49719 0
M  V30 2919 H 278.023 -4.28229 -0.178381 0
M  V30 2920 H 282.207 -4.9317 0.556513 0
M  V30 2921 H 277.463 -5.90635 1.57988 0
M  V30 2922 H 281.637 -6.56912 2.31169 0
M  V30 2923 H 279.264 -7.05584 2.8294 0
M  V30 2924 N 280.839 0.0985539 -1.57292 0
M  V30 2925 C 282.085 0.803867 -1.86188 0
M  V30 2926 C 282.418 1.78549 -0.763794 0
M  V30 2927 O 281.693 1.93153 0.22855 0
M  V30 2928 C 281.976 1.53568 -3.25713 0
M  V30 2929 C 281.829 0.572277 -4.46145 0
M  V30 2930 C 283.148 2.48708 -3.63087 0
M  V30 2931 H 280.267 0.290781 -0.677211 0
M  V30 2932 H 282.909 0.0675783 -1.8988 0
M  V30 2933 H 281.059 2.16332 -3.22696 0
M  V30 2934 H 282.731 -0.0480894 -4.61275 0
M  V30 2935 H 280.974 -0.114618 -4.33649 0
M  V30 2936 H 281.645 1.12139 -5.40489 0
M  V30 2937 H 284.121 1.96039 -3.67026 0
M  V30 2938 H 282.997 2.96932 -4.61652 0
M  V30 2939 H 283.258 3.32309 -2.91588 0
M  V30 2940 N 282.317 1.53212 0.369288 0
M  V30 2941 C 283.28 1.7872 1.43498 0
M  V30 2942 C 284.28 0.657554 1.46741 0
M  V30 2943 O 285.47 0.925736 1.47566 0
M  V30 2944 C 282.602 1.90591 2.82645 0
M  V30 2945 H 283.795 2.73894 1.22156 0
M  V30 2946 H 281.348 1.44233 0.602203 0
M  V30 2947 H 282.083 0.974709 3.09306 0
M  V30 2948 H 281.868 2.72751 2.8169 0
M  V30 2949 H 283.358 2.11931 3.59826 0
M  V30 2950 N 283.795 -0.628877 1.44509 0
M  V30 2951 C 284.758 -1.72263 1.51188 0
M  V30 2952 C 285.758 -1.55907 0.39367 0
M  V30 2953 O 286.948 -1.61361 0.656377 0
M  V30 2954 C 284.08 -3.11365 1.38798 0
M  V30 2955 H 285.273 -1.67714 2.4862 0
M  V30 2956 H 282.826 -0.842737 1.31634 0
M  V30 2957 H 283.561 -3.21507 0.424693 0
M  V30 2958 H 283.346 -3.24644 2.19884 0
M  V30 2959 H 284.836 -3.91075 1.46458 0
M  V30 2960 N 285.273 -1.31445 -0.869486 0
M  V30 2961 C 286.519 -1.21337 -1.62496 0
M  V30 2962 C 286.852 0.227872 -1.92858 0
M  V30 2963 O 286.127 1.16094 -1.56053 0
M  V30 2964 C 286.41 -2.05814 -2.95487 0
M  V30 2965 C 286.263 -3.5824 -2.72 0
M  V30 2966 C 287.582 -1.9079 -3.96594 0
M  V30 2967 H 284.701 -0.442135 -0.589649 0
M  V30 2968 H 287.343 -1.6124 -1.00507 0
M  V30 2969 H 285.493 -1.71913 -3.48394 0
M  V30 2970 H 287.165 -4.0228 -2.25762 0
M  V30 2971 H 285.408 -3.81647 -2.06224 0
M  V30 2972 H 286.079 -4.12657 -3.66631 0
M  V30 2973 H 288.555 -2.20459 -3.52898 0
M  V30 2974 H 287.431 -2.52199 -4.87531 0
M  V30 2975 H 287.692 -0.871341 -4.33428 0
M  V30 2976 N 286.751 1.08385 -1.14413 0
M  V30 2977 C 287.701 2.13509 -0.79987 0
M  V30 2978 C 288.685 1.5951 0.211059 0
M  V30 2979 O 289.877 1.76995 0.0133694 0
M  V30 2980 C 287.006 3.42162 -0.279297 0
M  V30 2981 C 286.092 4.03042 -1.31976 0
M  V30 2982 N 286.483 4.38327 -2.52395 0
M  V30 2983 C 284.781 4.30379 -1.17004 0
M  V30 2984 C 285.482 4.86428 -3.19003 0
M  V30 2985 N 284.458 4.84547 -2.46405 0
M  V30 2986 H 288.26 2.38609 -1.7159 0
M  V30 2987 H 285.774 1.2572 -1.02802 0
M  V30 2988 H 287.771 4.16898 -0.0143688 0
M  V30 2989 H 286.431 3.18511 0.630923 0
M  V30 2990 H 287.442 4.29349 -2.89621 0
M  V30 2991 H 284.119 4.16281 -0.318854 0
M  V30 2992 H 285.509 5.23107 -4.21674 0
M  V30 2993 N 288.23 0.939286 1.26551 0
M  V30 2994 C 289.46 0.601663 1.97645 0
M  V30 2995 C 289.868 -0.827206 1.70159 0
M  V30 2996 O 289.211 -1.56291 0.965338 0
M  V30 2997 C 289.273 0.761725 3.51337 0
M  V30 2998 C 288.937 2.16487 4.0247 0
M  V30 2999 C 289.934 3.14016 4.14355 0
M  V30 3000 C 287.619 2.48494 4.36527 0
M  V30 3001 C 289.613 4.41654 4.59587 0
M  V30 3002 C 287.3 3.76364 4.81449 0
M  V30 3003 C 288.298 4.72758 4.92939 0
M  V30 3004 O 287.986 5.98352 5.36871 0
M  V30 3005 H 287.718 0.225758 0.637189 0
M  V30 3006 H 290.272 1.26178 1.62075 0
M  V30 3007 H 288.502 0.0444808 3.86674 0
M  V30 3008 H 290.191 0.427442 4.03643 0
M  V30 3009 H 290.957 2.90613 3.8829 0
M  V30 3010 H 286.836 1.74202 4.26819 0
M  V30 3011 H 290.38 5.16896 4.68471 0
M  V30 3012 H 286.277 3.99582 5.06956 0
M  V30 3013 H 287.045 6.01507 5.55096 0
M  V30 3014 N 289.708 -1.40897 0.706093 0
M  V30 3015 C 290.618 -2.3455 0.0482286 0
M  V30 3016 C 291.634 -1.56796 -0.754396 0
M  V30 3017 O 292.81 -1.89228 -0.689538 0
M  V30 3018 C 289.875 -3.35625 -0.869303 0
M  V30 3019 C 288.936 -4.29261 -0.0576994 0
M  V30 3020 C 288.169 -5.25508 -0.931531 0
M  V30 3021 O 288.392 -5.27472 -2.17092 0
M  V30 3022 O 287.326 -6.00727 -0.375587 0
M  V30 3023 H 291.152 -2.92407 0.820476 0
M  V30 3024 H 288.737 -1.4193 0.4665 0
M  V30 3025 H 290.619 -3.97635 -1.39514 0
M  V30 3026 H 289.294 -2.80196 -1.62086 0
M  V30 3027 H 288.201 -3.70566 0.512988 0
M  V30 3028 H 289.534 -4.87817 0.655426 0
M  V30 3029 N 291.186 -0.45159 -1.50991 0
M  V30 3030 C 292.118 0.388634 -2.25881 0
M  V30 3031 C 293.131 0.974041 -1.30446 0
M  V30 3032 O 294.32 0.865758 -1.56099 0
M  V30 3033 C 291.42 1.5571 -3.01011 0
M  V30 3034 C 290.593 1.08801 -4.23652 0
M  V30 3035 C 289.652 2.12825 -4.8124 0
M  V30 3036 O 288.678 1.71678 -5.42693 0
M  V30 3037 N 289.88 3.45453 -4.66522 0
M  V30 3038 H 292.645 -0.25329 -2.98628 0
M  V30 3039 H 290.206 -0.281268 -1.59438 0
M  V30 3040 H 292.198 2.24952 -3.3642 0
M  V30 3041 H 290.768 2.10409 -2.31186 0
M  V30 3042 H 289.988 0.22215 -3.93574 0
M  V30 3043 H 291.276 0.752213 -5.03209 0
M  V30 3044 H 290.674 3.81605 -4.17605 0
M  V30 3045 H 289.231 4.10549 -5.06254 0
M  V30 3046 N 292.664 1.56529 -0.183458 0
M  V30 3047 C 294.075 1.83739 0.331177 0
M  V30 3048 C 294.426 1.10373 1.62211 0
M  V30 3049 O 293.551 0.36071 2.13373 0
M  V30 3050 C 294.146 3.33306 0.607646 0
M  V30 3051 C 292.705 3.60969 1.06668 0
M  V30 3052 C 291.852 2.77086 0.109029 0
M  V30 3053 H 294.803 1.53379 -0.407484 0
M  V30 3054 H 294.824 3.51444 1.45832 0
M  V30 3055 H 294.336 3.86677 -0.332086 0
M  V30 3056 H 292.437 3.13021 2.0211 0
M  V30 3057 H 292.55 4.69231 0.967447 0
M  V30 3058 H 290.914 2.47319 0.608714 0
M  V30 3059 H 291.697 3.33241 -0.82494 0
M  V30 3060 N 294.142 -0.090211 1.57342 0
M  V30 3061 C 295.37 -0.806224 1.90546 0
M  V30 3062 C 295.785 -1.72041 0.777644 0
M  V30 3063 O 295.142 -1.80778 -0.250103 0
M  V30 3064 C 295.193 -1.61546 3.23396 0
M  V30 3065 O 294.914 -0.738043 4.31839 0
M  V30 3066 C 296.415 -2.4341 3.70495 0
M  V30 3067 H 293.635 -0.230256 0.630257 0
M  V30 3068 H 296.179 -0.0659843 2.04394 0
M  V30 3069 H 294.334 -2.30816 3.11131 0
M  V30 3070 H 294.748 -1.29901 5.08159 0
M  V30 3071 H 296.222 -2.95676 4.66133 0
M  V30 3072 H 296.699 -3.22098 2.98579 0
M  V30 3073 H 297.305 -1.79331 3.85643 0
M  V30 3074 N 295.62 -1.53406 -0.361157 0
M  V30 3075 C 296.869 -1.69022 -1.10066 0
M  V30 3076 C 297.182 -0.450838 -1.90333 0
M  V30 3077 O 298.388 -0.487617 -2.67085 0
M  V30 3078 C 296.844 -2.98812 -2.00598 0
M  V30 3079 C 296.452 -4.30027 -1.25621 0
M  V30 3080 C 298.196 -3.23795 -2.74513 0
M  V30 3081 C 296.103 -5.50903 -2.1508 0
M  V30 3082 H 295.033 -0.629776 -0.414606 0
M  V30 3083 H 297.684 -1.79907 -0.361348 0
M  V30 3084 H 296.066 -2.8174 -2.78278 0
M  V30 3085 H 297.24 -4.57745 -0.529739 0
M  V30 3086 H 295.555 -4.11522 -0.635496 0
M  V30 3087 H 298.152 -4.11289 -3.41681 0
M  V30 3088 H 298.495 -2.40045 -3.40123 0
M  V30 3089 H 299.028 -3.41561 -2.03914 0
M  V30 3090 H 295.767 -6.37143 -1.54041 0
M  V30 3091 H 295.287 -5.27459 -2.85565 0
M  V30 3092 H 296.966 -5.85865 -2.74538 0
M  V30 3093 N 297.098 0.621204 -1.44841 0
M  V30 3094 C 298.03 1.74615 -1.48466 0
M  V30 3095 C 299.043 1.58377 -0.37691 0
M  V30 3096 O 300.232 1.66508 -0.643215 0
M  V30 3097 C 297.332 3.12459 -1.31236 0
M  V30 3098 C 296.505 3.55064 -2.55438 0
M  V30 3099 C 295.564 4.71821 -2.32963 0
M  V30 3100 O 294.59 4.79628 -3.06505 0
M  V30 3101 N 295.792 5.64186 -1.36654 0
M  V30 3102 H 298.557 1.71973 -2.45449 0
M  V30 3103 H 296.118 0.806077 -1.40407 0
M  V30 3104 H 298.11 3.88302 -1.14032 0
M  V30 3105 H 296.68 3.09686 -0.4258 0
M  V30 3106 H 295.9 2.69324 -2.87851 0
M  V30 3107 H 297.188 3.80284 -3.38026 0
M  V30 3108 H 296.586 5.6058 -0.759344 0
M  V30 3109 H 295.143 6.39618 -1.25425 0
M  V30 3110 N 298.576 1.31904 0.862503 0
M  V30 3111 C 299.825 1.21373 1.61094 0
M  V30 3112 C 300.138 -0.22504 1.94301 0
M  V30 3113 O 301.344 -0.452121 2.67709 0
M  V30 3114 C 299.8 2.12525 2.9045 0
M  V30 3115 C 299.408 3.61441 2.64697 0
M  V30 3116 C 301.152 2.10813 3.68454 0
M  V30 3117 C 299.059 4.44578 3.90006 0
M  V30 3118 H 297.989 0.450705 0.604468 0
M  V30 3119 H 300.64 1.56811 0.953027 0
M  V30 3120 H 299.022 1.69994 3.57656 0
M  V30 3121 H 300.196 4.12264 2.05851 0
M  V30 3122 H 298.511 3.65205 2.00036 0
M  V30 3123 H 301.108 2.70167 4.61426 0
M  V30 3124 H 301.451 1.09713 4.01583 0
M  V30 3125 H 301.984 2.51583 3.08141 0
M  V30 3126 H 298.723 5.46461 3.62023 0
M  V30 3127 H 298.243 3.98508 4.48276 0
M  V30 3128 H 299.922 4.57176 4.5782 0
M  V30 3129 N 300.054 -1.07777 1.14986 0
M  V30 3130 C 300.964 -2.18404 0.856546 0
M  V30 3131 C 301.98 -1.73211 -0.165485 0
M  V30 3132 O 303.156 -2.01399 0.00755219 0
M  V30 3133 C 300.221 -3.44977 0.34526 0
M  V30 3134 C 299.282 -4.0476 1.43065 0
M  V30 3135 C 298.515 -5.25291 0.943663 0
M  V30 3136 O 298.738 -5.70004 -0.212426 0
M  V30 3137 O 297.672 -5.76638 1.72547 0
M  V30 3138 H 301.498 -2.45978 1.78125 0
M  V30 3139 H 299.083 -1.17033 0.928631 0
M  V30 3140 H 300.965 -4.21348 0.0663671 0
M  V30 3141 H 299.64 -3.18965 -0.551631 0
M  V30 3142 H 298.547 -3.29949 1.76309 0
M  V30 3143 H 299.88 -4.35035 2.30229 0
M  V30 3144 N 301.532 -0.945985 -1.26051 0
M  V30 3145 C 302.462 -0.477172 -2.28572 0
M  V30 3146 C 303.443 0.472032 -1.63419 0
M  V30 3147 O 304.628 0.372853 -1.90587 0
M  V30 3148 C 301.758 0.253975 -3.4637 0
M  V30 3149 C 300.712 -0.609135 -4.23643 0
M  V30 3150 C 300.038 0.252252 -5.34105 0
M  V30 3151 C 301.338 -1.8829 -4.8718 0
M  V30 3152 H 303.032 -1.33402 -2.68038 0
M  V30 3153 H 300.578 -0.642904 -1.28852 0
M  V30 3154 H 302.531 0.593016 -4.17207 0
M  V30 3155 H 301.255 1.145 -3.05871 0
M  V30 3156 H 299.914 -0.931138 -3.54578 0
M  V30 3157 H 299.562 1.14278 -4.89846 0
M  V30 3158 H 299.262 -0.32188 -5.86718 0
M  V30 3159 H 300.786 0.586454 -6.07777 0
M  V30 3160 H 302.2 -1.61081 -5.50205 0
M  V30 3161 H 300.597 -2.40199 -5.49931 0
M  V30 3162 H 301.667 -2.59134 -4.09851 0
M  V30 3163 N 303.011 1.40521 -0.713556 0
M  V30 3164 C 304.427 1.54839 -0.386907 0
M  V30 3165 C 304.627 1.68532 1.1045 0
M  V30 3166 O 303.683 1.67377 1.89053 0
M  V30 3167 C 304.996 2.77792 -1.15118 0
M  V30 3168 C 306.544 2.91607 -1.13729 0
M  V30 3169 C 307.019 4.1747 -1.88368 0
M  V30 3170 N 308.51 4.24466 -1.85427 0
M  V30 3171 C 309.245 5.20755 -2.40004 0
M  V30 3172 N 308.741 6.22965 -3.03129 0
M  V30 3173 N 310.534 5.1282 -2.30158 0
M  V30 3174 H 302.685 1.29879 -1.68063 0
M  V30 3175 H 304.948 0.627896 -0.710247 0
M  V30 3176 H 304.654 2.73944 -2.20561 0
M  V30 3177 H 304.528 3.6984 -0.741477 0
M  V30 3178 H 306.915 2.94959 -0.0910608 0
M  V30 3179 H 306.996 2.00682 -1.5862 0
M  V30 3180 H 306.64 4.1488 -2.9298 0
M  V30 3181 H 306.57 5.074 -1.40898 0
M  V30 3182 H 309.061 3.51241 -1.3942 0
M  V30 3183 H 309.374 6.92859 -3.42295 0
M  V30 3184 H 307.719 6.23415 -3.07212 0
M  V30 3185 H 310.91 4.31899 -1.80501 0
M  V30 3186 H 311.083 5.87689 -2.72993 0
M  V30 3187 N 304.489 0.459591 1.5075 0
M  V30 3188 C 305.421 -0.37665 2.26084 0
M  V30 3189 C 306.434 -0.967109 1.30961 0
M  V30 3190 O 307.623 -0.857468 1.56556 0
M  V30 3191 C 304.723 -1.54112 3.01832 0
M  V30 3192 C 303.896 -1.06553 4.24223 0
M  V30 3193 C 302.955 -2.1027 4.82362 0
M  V30 3194 O 301.981 -1.68798 5.43595 0
M  V30 3195 N 303.183 -3.42974 4.68347 0
M  V30 3196 H 305.948 0.269124 2.98489 0
M  V30 3197 H 303.509 0.28972 1.59287 0
M  V30 3198 H 305.501 -2.23165 3.37608 0
M  V30 3199 H 304.071 -2.0918 2.32298 0
M  V30 3200 H 303.291 -0.201274 3.93686 0
M  V30 3201 H 304.579 -0.725516 5.03601 0
M  V30 3202 H 303.977 -3.79385 4.19623 0
M  V30 3203 H 302.534 -4.07858 5.08424 0
M  V30 3204 N 305.967 -1.56429 0.191757 0
M  V30 3205 C 306.915 -2.20273 -0.747174 0
M  V30 3206 C 307.909 -1.17288 -1.22229 0
M  V30 3207 O 309.115 -1.35441 -1.18557 0
M  V30 3208 H 305.49 -0.705885 -0.259289 0
M  V30 3209 H 307.461 -2.97826 -0.184963 0
M  V30 3210 C 306.21 -2.87356 -1.95759 0
M  V30 3211 H 305.533 -3.66341 -1.60106 0
M  V30 3212 H 306.973 -3.3547 -2.59299 0
M  V30 3213 C 305.432 -1.88213 -2.79423 0
M  V30 3214 O 305.962 -1.38033 -3.7724 0
M  V30 3215 N 304.168 -1.56516 -2.44849 0
M  V30 3216 H 303.715 -1.97516 -1.65364 0
M  V30 3217 H 303.673 -0.904369 -3.01112 0
M  V30 3218 N 307.445 0.0818655 -1.57387 0
M  V30 3219 C 308.673 0.796108 -1.9097 0
M  V30 3220 C 309.088 1.71626 -0.786757 0
M  V30 3221 O 308.445 1.80908 0.240513 0
M  V30 3222 C 308.496 1.59829 -3.24248 0
M  V30 3223 O 308.217 0.715131 -4.32224 0
M  V30 3224 C 309.718 2.41442 -3.7178 0
M  V30 3225 H 306.938 0.22691 -0.631469 0
M  V30 3226 H 309.482 0.0551439 -2.04426 0
M  V30 3227 H 307.637 2.29163 -3.12351 0
M  V30 3228 H 308.051 1.27205 -5.08841 0
M  V30 3229 H 309.525 2.932 -4.67694 0
M  V30 3230 H 310.002 3.2051 -3.00283 0
M  V30 3231 H 310.608 1.77283 -3.86589 0
M  V30 3232 N 308.923 1.53595 0.353017 0
M  V30 3233 C 310.148 1.7462 1.11904 0
M  V30 3234 C 310.573 0.479721 1.8188 0
M  V30 3235 O 309.931 -0.567066 1.72204 0
M  V30 3236 C 309.979 2.92029 2.11545 0
M  V30 3237 O 309.083 2.61516 3.18878 0
M  V30 3238 H 308.424 0.579531 0.324099 0
M  V30 3239 H 310.954 2.00525 0.406301 0
M  V30 3240 H 310.964 3.18551 2.5493 0
M  V30 3241 H 309.639 3.83888 1.60008 0
M  V30 3242 H 308.216 2.45852 2.80377 0
M  V30 3243 N 310.401 -0.613514 1.45168 0
M  V30 3244 C 311.333 -1.73825 1.4939 0
M  V30 3245 C 312.346 -1.58175 0.385304 0
M  V30 3246 O 313.535 -1.66165 0.652036 0
M  V30 3247 C 310.635 -3.11758 1.32891 0
M  V30 3248 C 309.808 -3.53704 2.57317 0
M  V30 3249 C 308.867 -4.70579 2.35462 0
M  V30 3250 O 307.893 -4.77996 3.09044 0
M  V30 3251 N 309.095 -5.63454 1.39644 0
M  V30 3252 H 311.86 -1.70669 2.46358 0
M  V30 3253 H 309.421 -0.79862 1.40832 0
M  V30 3254 H 311.413 -3.87692 1.1609 0
M  V30 3255 H 309.983 -3.09456 0.442218 0
M  V30 3256 H 309.203 -2.67794 2.89275 0
M  V30 3257 H 310.491 -3.78486 3.40038 0
M  V30 3258 H 309.889 -5.6017 0.789062 0
M  V30 3259 H 308.446 -6.38944 1.28816 0
M  V30 3260 N 311.879 -1.3236 -0.855495 0
M  V30 3261 C 312.826 -1.21225 -1.964 0
M  V30 3262 C 313.796 -0.0946204 -1.6583 0
M  V30 3263 O 314.981 -0.27002 -1.8888 0
M  V30 3264 C 312.121 -0.940419 -3.32039 0
M  V30 3265 C 311.234 -2.14276 -3.75113 0
M  V30 3266 C 310.369 -1.80648 -4.9954 0
M  V30 3267 C 309.408 -2.97208 -5.35102 0
M  V30 3268 N 308.545 -2.63678 -6.50706 0
M  V30 3269 H 313.385 -2.16042 -2.05255 0
M  V30 3270 H 310.922 -1.07451 -1.00463 0
M  V30 3271 H 312.88 -0.763311 -4.10158 0
M  V30 3272 H 311.51 -0.0290413 -3.22787 0
M  V30 3273 H 310.562 -2.43017 -2.92655 0
M  V30 3274 H 311.874 -3.01468 -3.97389 0
M  V30 3275 H 311.028 -1.59484 -5.85363 0
M  V30 3276 H 309.767 -0.906678 -4.79198 0
M  V30 3277 H 308.772 -3.19004 -4.47791 0
M  V30 3278 H 309.997 -3.87918 -5.57401 0
M  V30 3279 H 307.943 -1.76238 -6.31883 0
M  V30 3280 H 307.86 -3.444 -6.72997 0
M  V30 3281 H 309.128 -2.45942 -7.39684 0
M  V30 3282 N 313.357 1.07166 -1.15556 0
M  V30 3283 C 314.32 2.12589 -0.856644 0
M  V30 3284 C 315.32 1.6015 0.14444 0
M  V30 3285 O 316.51 1.7399 -0.0854163 0
M  V30 3286 C 313.642 3.39753 -0.279405 0
M  V30 3287 H 314.835 2.40539 -1.79112 0
M  V30 3288 H 312.388 1.23086 -0.963298 0
M  V30 3289 H 313.123 3.17447 0.663174 0
M  V30 3290 H 312.908 3.79117 -1.00063 0
M  V30 3291 H 314.398 4.17507 -0.0879113 0
M  V30 3292 N 314.835 0.952656 1.25548 0
M  V30 3293 C 315.798 0.475794 2.24207 0
M  V30 3294 C 316.798 -0.419428 1.55234 0
M  V30 3295 O 317.988 -0.216994 1.72843 0
M  V30 3296 C 315.12 -0.312814 3.39462 0
M  V30 3297 H 316.313 1.34779 2.67908 0
M  V30 3298 H 313.866 0.735739 1.37901 0
M  V30 3299 H 314.601 -1.20257 3.01179 0
M  V30 3300 H 314.386 0.329404 3.90714 0
M  V30 3301 H 315.876 -0.635986 4.12729 0
M  V30 3302 N 316.313 -1.40141 0.720998 0
M  V30 3303 C 317.561 -2.0039 0.262323 0
M  V30 3304 C 317.882 -1.57469 -1.15015 0
M  V30 3305 O 317.152 -0.816582 -1.78069 0
M  V30 3306 H 315.732 -0.741063 0.093996 0
M  V30 3307 H 318.394 -1.71398 0.927835 0
M  V30 3308 H 317.49 -3.10658 0.299671 0
M  V30 3309 N 317.792 -0.46758 -1.50504 0
M  V30 3310 C 319.069 0.15003 -1.95024 0
M  V30 3311 C 319.449 1.57304 -1.40779 0
M  V30 3312 O 318.797 2.20281 -0.607319 0
M  V30 3313 C 319.007 0.0969324 -3.48865 0
M  V30 3314 C 320.355 0.287565 -4.23625 0
M  V30 3315 O 321.379 0.173678 -3.55776 0
M  V30 3316 O 320.238 0.517186 -5.44047 0
M  V30 3317 H 317.332 0.113582 -0.819163 0
M  V30 3318 H 319.878 -0.52773 -1.61286 0
M  V30 3319 H 318.65 -0.896732 -3.80886 0
M  V30 3320 H 318.273 0.816303 -3.8913 0
M  V30 3321 N 319.27 1.56325 -0.20005 0
M  V30 3322 C 320.516 1.98012 0.438059 0
M  V30 3323 C 320.849 1.08702 1.60927 0
M  V30 3324 O 320.124 0.140064 1.93995 0
M  V30 3325 C 320.407 3.48841 0.893419 0
M  V30 3326 C 320.26 4.48928 -0.279947 0
M  V30 3327 C 321.579 4.03498 1.75719 0
M  V30 3328 H 318.698 0.719918 0.157757 0
M  V30 3329 H 321.34 1.87743 -0.291968 0
M  V30 3330 H 319.49 3.57723 1.51547 0
M  V30 3331 H 321.162 4.52079 -0.91772 0
M  V30 3332 H 319.405 4.23694 -0.930919 0
M  V30 3333 H 320.076 5.5194 0.0812601 0
M  V30 3334 H 322.552 3.97427 1.23253 0
M  V30 3335 H 321.428 5.09393 2.04476 0
M  V30 3336 H 321.689 3.4906 2.71311 0
M  V30 3337 N 320.748 -0.0735177 1.57428 0
M  V30 3338 C 322.025 -0.805903 1.78226 0
M  V30 3339 C 322.405 -1.95874 0.787189 0
M  V30 3340 O 321.753 -2.2779 -0.180029 0
M  V30 3341 C 321.963 -1.28045 3.24662 0
M  V30 3342 C 323.311 -1.71453 3.88444 0
M  V30 3343 O 324.335 -1.37616 3.28543 0
M  V30 3344 O 323.194 -2.34093 4.93825 0
M  V30 3345 H 320.288 -0.386041 0.73137 0
M  V30 3346 H 322.834 -0.0537269 1.69615 0
M  V30 3347 H 321.606 -0.455476 3.8864 0
M  V30 3348 H 321.229 -2.094 3.37991 0
M  V30 3349 N 322.226 -1.5378 -0.344866 0
M  V30 3350 C 323.475 -1.7018 -1.08267 0
M  V30 3351 C 323.788 -0.471 -1.89845 0
M  V30 3352 O 324.994 -0.515917 -2.66553 0
M  V30 3353 C 323.45 -3.00923 -1.97417 0
M  V30 3354 C 323.058 -4.31335 -1.21053 0
M  V30 3355 C 324.802 -3.26688 -2.71063 0
M  V30 3356 C 322.709 -5.53153 -2.09225 0
M  V30 3357 H 321.639 -0.634138 -0.407903 0
M  V30 3358 H 324.29 -1.8028 -0.342246 0
M  V30 3359 H 322.672 -2.84676 -2.75274 0
M  V30 3360 H 323.846 -4.58281 -0.481159 0
M  V30 3361 H 322.161 -4.12173 -0.591813 0
M  V30 3362 H 324.758 -4.1489 -3.37299 0
M  V30 3363 H 325.101 -2.43639 -3.37558 0
M  V30 3364 H 325.634 -3.43705 -2.0028 0
M  V30 3365 H 322.373 -6.38741 -1.47274 0
M  V30 3366 H 321.893 -5.30458 -2.79955 0
M  V30 3367 H 323.572 -5.88744 -2.68308 0
M  V30 3368 N 323.704 0.605807 -1.45491 0
M  V30 3369 C 324.952 1.36207 -1.49305 0
M  V30 3370 C 325.273 1.94519 -0.136863 0
M  V30 3371 O 324.543 1.77261 0.833983 0
M  V30 3372 H 323.123 0.50565 -0.549843 0
M  V30 3373 H 325.785 0.711239 -1.81459 0
M  V30 3374 H 324.881 2.18058 -2.23287 0
M  V30 3375 N 325.182 1.32811 0.848464 0
M  V30 3376 C 326.459 1.14334 1.58704 0
M  V30 3377 C 326.839 -0.293948 2.09043 0
M  V30 3378 O 326.187 -1.29153 1.88499 0
M  V30 3379 C 326.397 2.17626 2.72837 0
M  V30 3380 C 327.745 2.51282 3.42261 0
M  V30 3381 O 328.769 2.16219 2.83068 0
M  V30 3382 O 327.628 3.11413 4.49093 0
M  V30 3383 H 324.722 0.441601 0.699226 0
M  V30 3384 H 327.268 1.44362 0.892053 0
M  V30 3385 H 326.04 3.14211 2.3321 0
M  V30 3386 H 325.663 1.88628 3.50008 0
M  V30 3387 N 326.66 -1.06551 1.16123 0
M  V30 3388 C 327.623 -2.12132 0.867906 0
M  V30 3389 C 328.623 -1.60224 -0.135944 0
M  V30 3390 O 329.813 -1.73943 0.0946422 0
M  V30 3391 C 326.945 -3.396 0.297419 0
M  V30 3392 H 328.138 -2.39586 1.80385 0
M  V30 3393 H 325.691 -1.22574 0.969812 0
M  V30 3394 H 326.426 -3.17794 -0.64633 0
M  V30 3395 H 326.211 -3.78581 1.02073 0
M  V30 3396 H 327.701 -4.17455 0.110052 0
M  V30 3397 N 328.138 -0.959301 -1.25041 0
M  V30 3398 C 329.101 -0.487677 -2.23952 0
M  V30 3399 C 330.101 0.41119 -1.55454 0
M  V30 3400 O 331.291 0.207825 -1.72956 0
M  V30 3401 C 328.423 0.294807 -3.39623 0
M  V30 3402 H 329.616 -1.36198 -2.67189 0
M  V30 3403 H 327.169 -0.743042 -1.37508 0
M  V30 3404 H 327.904 1.18658 -3.01813 0
M  V30 3405 H 327.689 -0.35012 -3.90534 0
M  V30 3406 H 329.179 0.614089 -4.1306 0
M  V30 3407 N 329.616 1.39756 -0.72842 0
M  V30 3408 C 330.846 2.04651 -0.283117 0
M  V30 3409 C 331.254 1.5502 1.08469 0
M  V30 3410 O 330.597 0.707343 1.69536 0
M  V30 3411 C 330.659 3.58947 -0.199309 0
M  V30 3412 C 330.323 4.31525 -1.5045 0
M  V30 3413 C 331.32 4.5861 -2.44894 0
M  V30 3414 C 329.005 4.70195 -1.76698 0
M  V30 3415 C 330.999 5.23366 -3.63822 0
M  V30 3416 C 328.686 5.3468 -2.95906 0
M  V30 3417 C 329.684 5.61198 -3.89289 0
M  V30 3418 O 329.372 6.24347 -5.06404 0
M  V30 3419 H 329.104 0.664777 -0.122666 0
M  V30 3420 H 331.658 1.79913 -0.990987 0
M  V30 3421 H 329.888 3.82556 0.56461 0
M  V30 3422 H 331.577 4.0534 0.213125 0
M  V30 3423 H 332.343 4.29187 -2.25883 0
M  V30 3424 H 328.222 4.48916 -1.04859 0
M  V30 3425 H 331.766 5.4398 -4.36728 0
M  V30 3426 H 327.663 5.63524 -3.14819 0
M  V30 3427 H 328.431 6.42842 -5.06652 0
M  V30 3428 N 331.094 0.475555 1.50254 0
M  V30 3429 C 332.324 -0.0753399 2.06463 0
M  V30 3430 C 332.732 -1.33661 1.33908 0
M  V30 3431 O 332.075 -1.79219 0.403257 0
M  V30 3432 C 332.137 -0.424921 3.5698 0
M  V30 3433 C 331.801 0.734965 4.51051 0
M  V30 3434 C 332.798 1.61827 4.94073 0
M  V30 3435 C 330.483 0.926557 4.9368 0
M  V30 3436 C 332.477 2.67754 5.78434 0
M  V30 3437 C 330.164 1.98904 5.77824 0
M  V30 3438 C 331.162 2.8629 6.20103 0
M  V30 3439 O 330.85 3.90708 7.02568 0
M  V30 3440 H 330.582 0.00576308 0.675975 0
M  V30 3441 H 333.136 0.664662 1.94349 0
M  V30 3442 H 331.366 -1.21817 3.67012 0
M  V30 3443 H 333.055 -0.911422 3.95535 0
M  V30 3444 H 333.821 1.48196 4.61804 0
M  V30 3445 H 329.7 0.25584 4.6029 0
M  V30 3446 H 333.244 3.35992 6.11355 0
M  V30 3447 H 329.141 2.12541 6.09505 0
M  V30 3448 H 329.909 3.87751 7.20827 0
M  V30 3449 N 332.573 -1.56217 0.208337 0
M  V30 3450 C 333.82 -1.97949 -0.42692 0
M  V30 3451 C 334.148 -1.09562 -1.60706 0
M  V30 3452 O 333.403 -0.137616 -1.95216 0
M  V30 3453 C 333.702 -3.45441 -0.916797 0
M  V30 3454 C 333.368 -4.50646 0.151391 0
M  V30 3455 C 332.03 -4.79139 0.444867 0
M  V30 3456 C 334.382 -5.13811 0.874492 0
M  V30 3457 C 331.71 -5.68084 1.46619 0
M  V30 3458 C 334.062 -6.03861 1.88506 0
M  V30 3459 C 332.726 -6.30704 2.18559 0
M  V30 3460 H 331.996 -0.724345 -0.156221 0
M  V30 3461 H 334.643 -1.89006 0.308084 0
M  V30 3462 H 332.948 -3.51521 -1.73032 0
M  V30 3463 H 334.645 -3.75094 -1.41794 0
M  V30 3464 H 331.235 -4.28511 -0.0875068 0
M  V30 3465 H 335.419 -4.91879 0.660996 0
M  V30 3466 H 330.675 -5.87151 1.7048 0
M  V30 3467 H 334.849 -6.51861 2.45051 0
M  V30 3468 H 332.476 -6.99424 2.97843 0
M  V30 3469 N 334.051 0.0651679 -1.57465 0
M  V30 3470 C 334.961 1.09448 -2.07505 0
M  V30 3471 C 335.977 1.41974 -1.00595 0
M  V30 3472 O 337.153 1.52018 -1.32107 0
M  V30 3473 C 334.218 2.38689 -2.51453 0
M  V30 3474 C 333.279 2.13073 -3.72691 0
M  V30 3475 C 332.512 3.36152 -4.14533 0
M  V30 3476 O 332.735 4.45517 -3.56189 0
M  V30 3477 O 331.669 3.23974 -5.07272 0
M  V30 3478 H 335.495 0.69935 -2.95538 0
M  V30 3479 H 333.08 0.279752 -1.46757 0
M  V30 3480 H 334.962 3.14736 -2.80212 0
M  V30 3481 H 333.637 2.77568 -1.66546 0
M  V30 3482 H 332.544 1.34709 -3.49005 0
M  V30 3483 H 333.877 1.79071 -4.5847 0
M  V30 3484 N 335.529 1.53961 0.336706 0
M  V30 3485 C 336.945 1.44378 0.680241 0
M  V30 3486 C 337.145 0.606034 1.9217 0
M  V30 3487 O 336.201 0.099688 2.52303 0
M  V30 3488 C 337.514 2.87945 0.8665 0
M  V30 3489 C 339.062 2.97763 0.964682 0
M  V30 3490 C 339.537 4.42453 1.18321 0
M  V30 3491 N 341.028 4.46008 1.25025 0
M  V30 3492 C 341.763 5.55102 1.43697 0
M  V30 3493 N 341.259 6.7419 1.59498 0
M  V30 3494 N 343.052 5.42727 1.463 0
M  V30 3495 H 335.203 2.06918 -0.479455 0
M  V30 3496 H 337.466 0.935634 -0.152619 0
M  V30 3497 H 337.172 3.51691 0.0256937 0
M  V30 3498 H 337.046 3.33293 1.76623 0
M  V30 3499 H 339.433 2.34153 1.796 0
M  V30 3500 H 339.514 2.55766 0.041708 0
M  V30 3501 H 339.158 5.06645 0.356788 0
M  V30 3502 H 339.088 4.82048 2.11985 0
M  V30 3503 H 341.579 3.60196 1.14312 0
M  V30 3504 H 341.892 7.53095 1.734 0
M  V30 3505 H 340.237 6.77123 1.56621 0
M  V30 3506 H 343.428 4.48647 1.33543 0
M  V30 3507 H 343.601 6.27806 1.6051 0
M  V30 3508 N 337.007 -0.598083 1.45811 0
M  V30 3509 C 338.284 -1.35777 1.40797 0
M  V30 3510 C 338.664 -2.10935 0.083462 0
M  V30 3511 O 338.012 -2.08505 -0.934763 0
M  V30 3512 C 338.222 -2.29666 2.62783 0
M  V30 3513 C 339.57 -2.91977 3.08277 0
M  V30 3514 O 340.594 -2.39984 2.63223 0
M  V30 3515 O 339.453 -3.86376 3.86491 0
M  V30 3516 H 336.547 -0.609291 0.55919 0
M  V30 3517 H 339.093 -0.620379 1.57954 0
M  V30 3518 H 337.865 -1.73454 3.50756 0
M  V30 3519 H 337.488 -3.1077 2.48008 0
M  V30 3520 N 338.485 -1.33259 -0.841409 0
M  V30 3521 C 339.734 -1.23921 -1.59143 0
M  V30 3522 C 340.047 0.1941 -1.94635 0
M  V30 3523 O 341.253 0.409474 -2.68394 0
M  V30 3524 C 339.709 -2.17119 -2.87032 0
M  V30 3525 C 339.317 -3.65606 -2.58914 0
M  V30 3526 C 341.061 -2.16648 -3.65053 0
M  V30 3527 C 338.968 -4.50726 -3.82884 0
M  V30 3528 H 337.898 -0.460264 -0.597221 0
M  V30 3529 H 340.549 -1.58307 -0.927959 0
M  V30 3530 H 338.931 -1.75663 -3.54906 0
M  V30 3531 H 340.105 -4.15487 -1.99267 0
M  V30 3532 H 338.42 -3.68341 -1.942 0
M  V30 3533 H 341.017 -2.77474 -4.57069 0
M  V30 3534 H 341.36 -1.16088 -3.99787 0
M  V30 3535 H 341.893 -2.56453 -3.041 0
M  V30 3536 H 338.632 -5.52151 -3.53283 0
M  V30 3537 H 338.152 -4.0559 -4.41879 0
M  V30 3538 H 339.831 -4.64401 -4.50489 0
M  V30 3539 N 339.963 1.05934 -1.16686 0
M  V30 3540 C 340.91 2.13499 -0.876748 0
M  V30 3541 C 341.88 1.65162 0.176299 0
M  V30 3542 O 343.065 1.90757 0.0407143 0
M  V30 3543 C 340.205 3.42912 -0.387967 0
M  V30 3544 C 339.318 4.04964 -1.50426 0
M  V30 3545 C 338.453 5.22266 -0.970125 0
M  V30 3546 C 337.492 5.76309 -2.06238 0
M  V30 3547 N 336.629 6.84922 -1.54356 0
M  V30 3548 H 341.469 2.37654 -1.7979 0
M  V30 3549 H 339.006 1.16598 -0.896843 0
M  V30 3550 H 340.964 4.17111 -0.086186 0
M  V30 3551 H 339.594 3.18963 0.496235 0
M  V30 3552 H 338.646 3.28277 -1.92193 0
M  V30 3553 H 339.958 4.41122 -2.32836 0
M  V30 3554 H 339.112 6.03506 -0.621743 0
M  V30 3555 H 337.851 4.87564 -0.115377 0
M  V30 3556 H 336.856 4.93704 -2.41942 0
M  V30 3557 H 338.081 6.13062 -2.92115 0
M  V30 3558 H 336.027 6.52131 -0.711406 0
M  V30 3559 H 335.944 7.20043 -2.30379 0
M  V30 3560 H 337.212 7.69832 -1.22387 0
M  V30 3561 N 341.441 0.965919 1.2453 0
M  V30 3562 C 342.689 0.625593 1.92174 0
M  V30 3563 C 343.01 -0.841652 1.75901 0
M  V30 3564 O 342.28 -1.60061 1.12948 0
M  V30 3565 H 340.86 0.228388 0.71123 0
M  V30 3566 H 343.522 1.2266 1.51461 0
M  V30 3567 H 342.618 0.864653 2.99884 0
M  V30 3568 N 342.919 -1.39368 0.735821 0
M  V30 3569 C 343.829 -2.34395 0.0979693 0
M  V30 3570 C 344.845 -1.58361 -0.720968 0
M  V30 3571 O 346.021 -1.90648 -0.649245 0
M  V30 3572 C 343.086 -3.37393 -0.797916 0
M  V30 3573 C 342.147 -4.29287 0.0333662 0
M  V30 3574 C 341.38 -5.27365 -0.819854 0
M  V30 3575 O 341.603 -5.31959 -2.05855 0
M  V30 3576 O 340.537 -6.01389 -0.248079 0
M  V30 3577 H 344.363 -2.90601 0.882315 0
M  V30 3578 H 341.948 -1.40909 0.4965 0
M  V30 3579 H 343.83 -4.00505 -1.31048 0
M  V30 3580 H 342.505 -2.83571 -1.56106 0
M  V30 3581 H 341.412 -3.69395 0.591475 0
M  V30 3582 H 342.745 -4.86317 0.758752 0
M  V30 3583 N 344.397 -0.483516 -1.5 0
M  V30 3584 C 345.622 0.0667119 -2.07293 0
M  V30 3585 C 346.047 1.3164 -1.3436 0
M  V30 3586 O 345.405 1.76945 -0.394987 0
M  V30 3587 C 345.453 0.321126 -3.59167 0
M  V30 3588 O 344.557 1.39927 -3.87936 0
M  V30 3589 H 343.898 -0.0184758 -0.663743 0
M  V30 3590 H 346.428 -0.678125 -1.93035 0
M  V30 3591 H 346.438 0.557906 -4.04168 0
M  V30 3592 H 345.113 -0.592007 -4.11665 0
M  V30 3593 H 343.69 1.14882 -3.54763 0
M  V30 3594 N 345.875 1.56104 -0.216619 0
M  V30 3595 C 346.805 2.23063 0.690296 0
M  V30 3596 C 347.786 1.20072 1.20485 0
M  V30 3597 O 348.971 1.48643 1.24976 0
M  V30 3598 C 346.101 2.90672 1.90072 0
M  V30 3599 C 345.055 4.00092 1.5202 0
M  V30 3600 C 344.381 4.54972 2.80899 0
M  V30 3601 C 345.681 5.17398 0.71391 0
M  V30 3602 H 347.375 2.99109 0.132038 0
M  V30 3603 H 344.921 1.43866 0.0620664 0
M  V30 3604 H 346.874 3.36204 2.54057 0
M  V30 3605 H 345.598 2.12066 2.48386 0
M  V30 3606 H 344.257 3.55283 0.903839 0
M  V30 3607 H 343.905 3.73102 3.37348 0
M  V30 3608 H 343.605 5.28817 2.56176 0
M  V30 3609 H 345.129 5.0322 3.45836 0
M  V30 3610 H 346.543 5.59342 1.25735 0
M  V30 3611 H 344.94 5.97444 0.563951 0
M  V30 3612 H 346.01 4.84088 -0.280527 0
M  V30 3613 N 347.353 -0.0568162 1.57498 0
M  V30 3614 C 348.6 -0.753104 1.87975 0
M  V30 3615 C 348.928 -1.76815 0.81035 0
M  V30 3616 O 348.183 -1.94756 -0.19199 0
M  V30 3617 C 348.482 -1.48359 3.25153 0
M  V30 3618 C 348.148 -0.60713 4.46794 0
M  V30 3619 C 346.81 -0.365642 4.79809 0
M  V30 3620 C 349.162 -0.000305978 5.212 0
M  V30 3621 C 346.49 0.491905 5.84634 0
M  V30 3622 C 348.842 0.844781 6.26934 0
M  V30 3623 C 347.506 1.096 6.58441 0
M  V30 3624 H 346.776 -0.27558 0.687849 0
M  V30 3625 H 349.423 -0.0135173 1.91495 0
M  V30 3626 H 347.728 -2.29577 3.17492 0
M  V30 3627 H 349.425 -2.02739 3.45974 0
M  V30 3628 H 346.015 -0.805487 4.20963 0
M  V30 3629 H 350.199 -0.173961 4.95995 0
M  V30 3630 H 345.455 0.695131 6.07436 0
M  V30 3631 H 349.629 1.32165 6.83744 0
M  V30 3632 H 347.256 1.76224 7.39492 0
M  V30 3633 N 348.832 -1.54138 -0.328536 0
M  V30 3634 C 349.764 -1.79509 -1.4251 0
M  V30 3635 C 350.777 -0.67688 -1.48061 0
M  V30 3636 O 351.966 -0.953898 -1.50874 0
M  V30 3637 C 349.066 -1.89337 -2.81078 0
M  V30 3638 C 348.239 -3.19443 -2.98789 0
M  V30 3639 C 347.298 -3.20036 -4.17688 0
M  V30 3640 O 346.324 -3.93697 -4.11086 0
M  V30 3641 N 347.526 -2.43467 -5.26976 0
M  V30 3642 H 350.291 -2.74139 -1.21111 0
M  V30 3643 H 347.852 -1.53373 -0.518499 0
M  V30 3644 H 349.844 -1.87167 -3.58818 0
M  V30 3645 H 348.414 -1.01826 -2.95551 0
M  V30 3646 H 347.634 -3.34614 -2.08391 0
M  V30 3647 H 348.922 -4.05354 -3.07515 0
M  V30 3648 H 348.32 -1.83201 -5.35214 0
M  V30 3649 H 346.877 -2.4708 -6.03154 0
M  V30 3650 N 350.31 0.590341 -1.46126 0
M  V30 3651 C 351.558 1.34616 -1.50742 0
M  V30 3652 C 351.879 1.94363 -0.157486 0
M  V30 3653 O 351.149 1.78136 0.815136 0
M  V30 3654 H 349.729 0.499789 -0.555175 0
M  V30 3655 H 352.391 0.691953 -1.82203 0
M  V30 3656 H 351.487 2.15678 -2.25587 0
M  V30 3657 N 351.788 1.33704 0.83433 0
M  V30 3658 C 353.204 1.13137 1.12571 0
M  V30 3659 C 353.404 -0.0747261 2.01361 0
M  V30 3660 O 352.46 -0.753647 2.4099 0
M  V30 3661 C 353.773 2.42105 1.78342 0
M  V30 3662 C 355.321 2.48054 1.90888 0
M  V30 3663 C 355.796 3.76995 2.60075 0
M  V30 3664 N 357.287 3.78092 2.67584 0
M  V30 3665 C 358.022 4.74574 3.21818 0
M  V30 3666 N 357.518 5.81434 3.76705 0
M  V30 3667 N 359.311 4.62044 3.20112 0
M  V30 3668 H 351.462 2.11 0.243489 0
M  V30 3669 H 353.725 0.932532 0.17055 0
M  V30 3670 H 353.431 3.30391 1.20561 0
M  V30 3671 H 353.305 2.54594 2.7832 0
M  V30 3672 H 355.692 1.60215 2.47821 0
M  V30 3673 H 355.773 2.39502 0.898459 0
M  V30 3674 H 355.417 4.65219 2.03799 0
M  V30 3675 H 355.347 3.82825 3.61597 0
M  V30 3676 H 357.838 3.00865 2.28667 0
M  V30 3677 H 358.151 6.51084 4.16305 0
M  V30 3678 H 356.496 5.85163 3.7498 0
M  V30 3679 H 359.687 3.77716 2.76493 0
M  V30 3680 H 359.86 5.37406 3.62076 0
M  V30 3681 N 353.266 -1.05314 1.17247 0
M  V30 3682 C 354.514 -1.77941 0.958194 0
M  V30 3683 C 354.835 -1.88089 -0.514556 0
M  V30 3684 O 354.105 -1.39676 -1.37359 0
M  V30 3685 H 352.685 -0.659116 0.351533 0
M  V30 3686 H 355.347 -1.27166 1.47699 0
M  V30 3687 H 354.443 -2.79663 1.38546 0
M  V30 3688 N 354.744 -0.972509 -1.24016 0
M  V30 3689 C 355.992 -0.635776 -1.91839 0
M  V30 3690 C 356.313 0.832312 -1.76345 0
M  V30 3691 O 355.583 1.5946 -1.13795 0
M  V30 3692 H 354.163 -0.232157 -0.710009 0
M  V30 3693 H 356.825 -1.23462 -1.50809 0
M  V30 3694 H 355.921 -0.880545 -2.99421 0
M  V30 3695 N 356.222 1.38976 -0.743202 0
M  V30 3696 C 357.152 2.33171 -0.123873 0
M  V30 3697 C 358.133 1.54336 0.71516 0
M  V30 3698 O 359.318 1.82696 0.658467 0
M  V30 3699 C 356.448 3.38474 0.777978 0
M  V30 3700 C 355.402 4.27979 0.0424758 0
M  V30 3701 C 354.728 5.2405 1.06189 0
M  V30 3702 C 356.028 5.10155 -1.1198 0
M  V30 3703 H 357.722 2.85213 -0.910709 0
M  V30 3704 H 355.268 1.37133 -0.439388 0
M  V30 3705 H 357.221 4.03328 1.22084 0
M  V30 3706 H 355.945 2.84891 1.59702 0
M  V30 3707 H 354.604 3.64616 -0.380853 0
M  V30 3708 H 354.252 4.66758 1.87472 0
M  V30 3709 H 353.952 5.84785 0.574485 0
M  V30 3710 H 355.476 5.9178 1.50428 0
M  V30 3711 H 356.89 5.68307 -0.75499 0
M  V30 3712 H 355.287 5.80073 -1.53738 0
M  V30 3713 H 356.357 4.44504 -1.93764 0
M  V30 3714 N 357.7 0.491464 1.49741 0
M  V30 3715 C 358.977 -0.118984 1.95238 0
M  V30 3716 C 359.357 -1.55044 1.43264 0
M  V30 3717 O 358.705 -2.19287 0.642287 0
M  V30 3718 C 358.915 -0.0414187 3.48975 0
M  V30 3719 C 360.263 -0.220133 4.24029 0
M  V30 3720 O 361.287 -0.117055 3.56008 0
M  V30 3721 O 360.146 -0.430567 5.44801 0
M  V30 3722 H 357.24 -0.100536 0.820866 0
M  V30 3723 H 359.786 0.553322 1.60426 0
M  V30 3724 H 358.558 0.957214 3.79412 0
M  V30 3725 H 358.181 -0.754292 3.9038 0
M  V30 3726 N 359.178 -1.55987 0.224894 0
M  V30 3727 C 360.108 -2.23426 -0.678457 0
M  V30 3728 C 361.089 -1.20709 -1.19847 0
M  V30 3729 O 362.274 -1.49304 -1.24186 0
M  V30 3730 C 359.404 -2.91676 -1.88527 0
M  V30 3731 C 358.358 -4.00893 -1.49896 0
M  V30 3732 C 357.684 -4.56455 -2.78483 0
M  V30 3733 C 358.984 -5.17769 -0.686461 0
M  V30 3734 H 360.678 -2.99175 -0.116173 0
M  V30 3735 H 358.224 -1.43897 -0.054436 0
M  V30 3736 H 360.177 -3.37547 -2.5227 0
M  V30 3737 H 358.901 -2.1338 -2.47258 0
M  V30 3738 H 357.56 -3.55758 -0.884985 0
M  V30 3739 H 357.208 -3.74886 -3.35365 0
M  V30 3740 H 356.908 -5.30169 -2.53368 0
M  V30 3741 H 358.432 -5.05047 -3.43162 0
M  V30 3742 H 359.846 -5.60001 -1.22767 0
M  V30 3743 H 358.243 -5.97735 -0.532259 0
M  V30 3744 H 359.313 -4.83932 0.306196 0
M  V30 3745 N 360.656 0.0484629 -1.57525 0
M  V30 3746 C 362.072 0.40375 -1.54409 0
M  V30 3747 C 362.272 1.77786 -0.948384 0
M  V30 3748 O 361.328 2.46189 -0.560983 0
M  V30 3749 C 362.641 0.323394 -2.98956 0
M  V30 3750 C 364.189 0.401892 -3.10409 0
M  V30 3751 C 364.664 0.351195 -4.56652 0
M  V30 3752 N 366.155 0.410576 -4.61377 0
M  V30 3753 C 366.89 0.393933 -5.72045 0
M  V30 3754 N 366.386 0.330724 -6.9201 0
M  V30 3755 N 368.179 0.442227 -5.60358 0
M  V30 3756 H 360.33 -0.851016 -1.94606 0
M  V30 3757 H 362.593 -0.321721 -0.89174 0
M  V30 3758 H 362.299 -0.62011 -3.4619 0
M  V30 3759 H 362.173 1.12463 -3.60044 0
M  V30 3760 H 364.56 1.33582 -2.63134 0
M  V30 3761 H 364.641 -0.428342 -2.52188 0
M  V30 3762 H 364.285 -0.578987 -5.04589 0
M  V30 3763 H 364.215 1.19928 -5.12762 0
M  V30 3764 H 366.706 0.462729 -3.75056 0
M  V30 3765 H 367.019 0.322592 -7.72126 0
M  V30 3766 H 365.364 0.29706 -6.94365 0
M  V30 3767 H 368.555 0.489464 -4.65534 0
M  V30 3768 H 368.728 0.425788 -6.466 0
M  V30 3769 N 362.134 1.5431 0.320358 0
M  V30 3770 C 363.38 1.72924 1.05949 0
M  V30 3771 C 363.713 0.503185 1.87568 0
M  V30 3772 O 362.988 -0.499839 1.87968 0
M  V30 3773 C 363.271 3.00676 1.98156 0
M  V30 3774 C 363.124 4.3354 1.19845 0
M  V30 3775 C 364.443 3.24198 2.9763 0
M  V30 3776 H 361.562 0.629195 0.383774 0
M  V30 3777 H 364.204 1.87008 0.335854 0
M  V30 3778 H 362.354 2.888 2.59859 0
M  V30 3779 H 364.026 4.57305 0.605773 0
M  V30 3780 H 362.269 4.309 0.500784 0
M  V30 3781 H 362.94 5.19156 1.87567 0
M  V30 3782 H 365.416 3.35557 2.4605 0
M  V30 3783 H 364.292 4.14938 3.59329 0
M  V30 3784 H 364.553 2.41577 3.7026 0
M  V30 3785 N 363.613 -0.582584 1.46437 0
M  V30 3786 C 365.029 -0.905962 1.31394 0
M  V30 3787 C 365.229 -1.99468 0.285476 0
M  V30 3788 O 364.285 -2.50566 -0.311914 0
M  V30 3789 C 365.598 -1.3232 2.70022 0
M  V30 3790 C 367.146 -1.43604 2.78113 0
M  V30 3791 C 367.621 -1.88694 4.17323 0
M  V30 3792 N 369.112 -1.95887 4.19741 0
M  V30 3793 C 369.847 -2.32051 5.24347 0
M  V30 3794 N 369.343 -2.67006 6.39281 0
M  V30 3795 N 371.136 -2.32606 5.11713 0
M  V30 3796 H 363.287 0.1366 2.1196 0
M  V30 3797 H 365.55 -0.00155736 0.947999 0
M  V30 3798 H 365.256 -0.597242 3.46592 0
M  V30 3799 H 365.13 -2.28469 3.00136 0
M  V30 3800 H 367.517 -2.15286 2.01832 0
M  V30 3801 H 367.598 -0.457059 2.51684 0
M  V30 3802 H 367.242 -1.1759 4.941 0
M  V30 3803 H 367.172 -2.8755 4.4116 0
M  V30 3804 H 369.663 -1.71362 3.36814 0
M  V30 3805 H 369.976 -2.93554 7.14875 0
M  V30 3806 H 368.321 -2.64644 6.42642 0
M  V30 3807 H 371.512 -2.04721 4.2096 0
M  V30 3808 H 371.685 -2.60462 5.93349 0
M  V30 3809 N 365.091 -1.34144 -0.827227 0
M  V30 3810 C 366.339 -1.26009 -1.58007 0
M  V30 3811 C 366.66 0.170971 -1.94249 0
M  V30 3812 O 365.93 1.10256 -1.61927 0
M  V30 3813 H 364.51 -0.463414 -0.585881 0
M  V30 3814 H 367.172 -1.68005 -0.987951 0
M  V30 3815 H 366.268 -1.86187 -2.50481 0
M  V30 3816 N 366.569 1.04691 -1.17803 0
M  V30 3817 C 367.479 2.16057 -0.914151 0
M  V30 3818 C 368.495 1.73589 0.119503 0
M  V30 3819 O 369.671 2.01308 -0.0609468 0
M  V30 3820 C 366.736 3.4394 -0.436603 0
M  V30 3821 C 365.797 4.00825 -1.53746 0
M  V30 3822 C 365.03 5.22604 -1.0826 0
M  V30 3823 O 365.253 5.70367 0.0612244 0
M  V30 3824 O 364.187 5.7186 -1.87775 0
M  V30 3825 H 368.013 2.41169 -1.84584 0
M  V30 3826 H 365.598 1.1453 -0.959334 0
M  V30 3827 H 367.48 4.21024 -0.178057 0
M  V30 3828 H 366.155 3.20316 0.466869 0
M  V30 3829 H 365.062 3.25158 -1.84995 0
M  V30 3830 H 366.395 4.28778 -2.41683 0
M  V30 3831 N 368.047 0.979072 1.23499 0
M  V30 3832 C 369.458 0.684391 1.73704 0
M  V30 3833 C 369.809 -0.799448 1.79174 0
M  V30 3834 O 368.934 -1.62531 1.42873 0
M  V30 3835 C 369.529 1.23564 3.15464 0
M  V30 3836 C 368.088 0.99063 3.6313 0
M  V30 3837 C 367.235 1.36416 2.41425 0
M  V30 3838 H 370.186 1.15307 1.09041 0
M  V30 3839 H 370.207 0.607417 3.7562 0
M  V30 3840 H 369.719 2.31561 3.1145 0
M  V30 3841 H 367.82 -0.0733136 3.72528 0
M  V30 3842 H 367.933 1.64427 4.5 0
M  V30 3843 H 366.297 0.782616 2.42378 0
M  V30 3844 H 367.08 2.45387 2.40083 0
M  V30 3845 N 369.525 -1.3858 0.750561 0
M  V30 3846 C 370.455 -2.33102 0.136237 0
M  V30 3847 C 371.436 -1.54713 -0.706965 0
M  V30 3848 O 372.621 -1.83043 -0.648769 0
M  V30 3849 C 369.751 -3.38882 -0.760017 0
M  V30 3850 C 368.705 -4.27995 -0.0197785 0
M  V30 3851 C 368.031 -5.24605 -1.03408 0
M  V30 3852 C 369.331 -5.09554 1.14684 0
M  V30 3853 H 371.025 -2.84726 0.925822 0
M  V30 3854 H 368.571 -1.36898 0.446654 0
M  V30 3855 H 370.524 -4.0397 -1.19943 0
M  V30 3856 H 369.248 -2.85734 -1.58189 0
M  V30 3857 H 367.907 -3.64409 0.400184 0
M  V30 3858 H 367.555 -4.67746 -1.84994 0
M  V30 3859 H 367.255 -5.85081 -0.543464 0
M  V30 3860 H 368.779 -5.9257 -1.47288 0
M  V30 3861 H 370.193 -5.67899 0.785118 0
M  V30 3862 H 368.59 -5.7925 1.56812 0
M  V30 3863 H 369.66 -4.4347 1.96118 0
M  V30 3864 N 371.003 -0.499398 -1.49478 0
M  V30 3865 C 371.935 0.316575 -2.27003 0
M  V30 3866 C 372.948 0.932047 -1.33479 0
M  V30 3867 O 374.137 0.815658 -1.58774 0
M  V30 3868 C 371.237 1.46055 -3.05812 0
M  V30 3869 C 370.41 0.952679 -4.26899 0
M  V30 3870 C 369.469 1.97407 -4.87767 0
M  V30 3871 O 368.495 1.54326 -5.4788 0
M  V30 3872 N 369.697 3.30436 -4.77276 0
M  V30 3873 H 372.462 -0.348168 -2.97671 0
M  V30 3874 H 370.023 -0.33185 -1.58463 0
M  V30 3875 H 372.015 2.14135 -3.43407 0
M  V30 3876 H 370.585 2.02948 -2.37762 0
M  V30 3877 H 369.805 0.0968248 -3.94081 0
M  V30 3878 H 371.093 0.59174 -5.05347 0
M  V30 3879 H 370.491 3.68126 -4.29534 0
M  V30 3880 H 369.048 3.94235 -5.19059 0
M  V30 3881 N 372.481 1.55866 -0.233164 0
M  V30 3882 C 373.727 1.98897 0.395959 0
M  V30 3883 C 374.06 1.12091 1.58585 0
M  V30 3884 O 373.335 0.181182 1.93654 0
M  V30 3885 C 373.618 3.50658 0.819224 0
M  V30 3886 C 373.471 4.48233 -0.375109 0
M  V30 3887 C 374.79 4.07135 1.67121 0
M  V30 3888 H 371.909 0.723102 0.142451 0
M  V30 3889 H 374.551 1.87082 -0.331725 0
M  V30 3890 H 372.701 3.60857 1.43925 0
M  V30 3891 H 374.373 4.50031 -1.01341 0
M  V30 3892 H 372.616 4.21624 -1.02058 0
M  V30 3893 H 373.287 5.51988 -0.0358328 0
M  V30 3894 H 375.763 3.99952 1.14795 0
M  V30 3895 H 374.639 5.13615 1.93625 0
M  V30 3896 H 374.9 3.54736 2.63846 0
M  V30 3897 N 373.959 -0.0401083 1.57549 0
M  V30 3898 C 374.869 -1.06133 2.0922 0
M  V30 3899 C 375.885 -1.40356 1.0284 0
M  V30 3900 O 377.061 -1.49897 1.34509 0
M  V30 3901 C 374.126 -2.34658 2.55218 0
M  V30 3902 C 373.187 -2.07117 3.76033 0
M  V30 3903 C 372.42 -3.29514 4.19829 0
M  V30 3904 O 372.643 -4.39794 3.63232 0
M  V30 3905 O 371.577 -3.15863 5.12362 0
M  V30 3906 H 375.403 -0.652244 2.96613 0
M  V30 3907 H 372.988 -0.256368 1.47184 0
M  V30 3908 H 374.87 -3.10239 2.85184 0
M  V30 3909 H 373.545 -2.74883 1.70941 0
M  V30 3910 H 372.452 -1.29139 3.51104 0
M  V30 3911 H 373.785 -1.71754 4.61261 0
M  V30 3912 N 375.437 -1.54477 -0.31217 0
M  V30 3913 C 376.853 -1.45442 -0.657185 0
M  V30 3914 C 377.053 -0.63653 -1.91182 0
M  V30 3915 O 376.109 -0.139815 -2.52113 0
M  V30 3916 C 377.422 -2.89287 -0.82058 0
M  V30 3917 C 378.97 -2.9926 -0.917188 0
M  V30 3918 C 379.445 -4.44279 -1.11267 0
M  V30 3919 N 380.936 -4.4794 -1.17914 0
M  V30 3920 C 381.671 -5.57318 -1.34848 0
M  V30 3921 N 381.167 -6.76642 -1.48752 0
M  V30 3922 N 382.96 -5.44986 -1.37647 0
M  V30 3923 H 375.111 -2.06129 0.512313 0
M  V30 3924 H 377.374 -0.933088 0.167485 0
M  V30 3925 H 377.08 -3.51687 0.0302604 0
M  V30 3926 H 376.954 -3.36061 -1.71298 0
M  V30 3927 H 379.341 -2.36981 -1.75852 0
M  V30 3928 H 379.422 -2.558 -0.00101257 0
M  V30 3929 H 379.066 -5.07149 -0.27614 0
M  V30 3930 H 378.996 -4.85359 -2.04289 0
M  V30 3931 H 381.487 -3.61969 -1.08567 0
M  V30 3932 H 381.8 -7.55758 -1.61397 0
M  V30 3933 H 380.145 -6.79529 -1.45828 0
M  V30 3934 H 383.336 -4.50715 -1.26388 0
M  V30 3935 H 383.509 -6.3028 -1.50501 0
M  V30 3936 N 376.915 0.57481 -1.46744 0
M  V30 3937 C 378.143 1.35856 -1.56047 0
M  V30 3938 C 378.558 1.87691 -0.204365 0
M  V30 3939 O 377.915 1.64049 0.79963 0
M  V30 3940 C 377.966 2.54066 -2.57163 0
M  V30 3941 O 377.687 2.04377 -3.87507 0
M  V30 3942 C 379.188 3.46514 -2.76483 0
M  V30 3943 H 376.408 0.414754 -0.527466 0
M  V30 3944 H 378.952 0.698035 -1.92218 0
M  V30 3945 H 377.107 3.16092 -2.23974 0
M  V30 3946 H 377.521 2.81419 -4.4261 0
M  V30 3947 H 378.995 4.25919 -3.51137 0
M  V30 3948 H 379.472 3.98951 -1.83671 0
M  V30 3949 H 380.078 2.90318 -3.10799 0
M  V30 3950 N 378.394 1.34581 0.820102 0
M  V30 3951 C 379.324 1.29038 1.94606 0
M  V30 3952 C 380.305 0.1673 1.69275 0
M  V30 3953 O 381.49 0.360112 1.90832 0
M  V30 3954 C 378.62 1.04793 3.31113 0
M  V30 3955 C 377.574 2.13597 3.70891 0
M  V30 3956 C 376.9 1.74537 5.05412 0
M  V30 3957 C 378.2 3.55451 3.8269 0
M  V30 3958 H 379.894 2.23248 1.99501 0
M  V30 3959 H 377.44 1.0747 0.958449 0
M  V30 3960 H 379.393 0.995592 4.0947 0
M  V30 3961 H 378.117 0.0702565 3.26524 0
M  V30 3962 H 376.776 2.17905 2.9481 0
M  V30 3963 H 376.424 0.754226 4.97313 0
M  V30 3964 H 376.124 2.47361 5.32997 0
M  V30 3965 H 377.648 1.70803 5.86224 0
M  V30 3966 H 379.062 3.5354 4.51312 0
M  V30 3967 H 377.459 4.26922 4.21732 0
M  V30 3968 H 378.529 3.92587 2.84611 0
M  V30 3969 N 379.872 -1.04064 1.18357 0
M  V30 3970 C 381.121 -1.76662 0.973313 0
M  V30 3971 C 381.434 -1.89154 -0.497991 0
M  V30 3972 O 382.64 -2.58606 -0.826762 0
M  V30 3973 C 381.096 -3.17624 1.69242 0
M  V30 3974 C 380.704 -3.13225 3.20303 0
M  V30 3975 C 382.448 -3.946 1.56497 0
M  V30 3976 C 380.355 -4.49046 3.84853 0
M  V30 3977 H 379.285 -0.662214 0.36054 0
M  V30 3978 H 381.936 -1.16553 1.41731 0
M  V30 3979 H 380.318 -3.78129 1.1762 0
M  V30 3980 H 381.492 -2.62172 3.78949 0
M  V30 3981 H 379.807 -2.49749 3.33189 0
M  V30 3982 H 382.404 -4.95042 2.02084 0
M  V30 3983 H 382.747 -4.13074 0.517243 0
M  V30 3984 H 383.28 -3.4067 2.05399 0
M  V30 3985 H 380.019 -4.35777 4.89672 0
M  V30 3986 H 379.539 -5.00203 3.30994 0
M  V30 3987 H 381.218 -5.17961 3.87718 0
M  V30 3988 N 381.35 -0.985608 -1.22978 0
M  V30 3989 C 382.58 -0.674603 -1.95276 0
M  V30 3990 C 382.988 0.763483 -1.73111 0
M  V30 3991 O 382.331 1.52601 -1.02268 0
M  V30 3992 C 382.393 -0.891597 -3.48268 0
M  V30 3993 C 382.057 -2.31275 -3.94158 0
M  V30 3994 C 383.054 -3.29179 -4.02415 0
M  V30 3995 C 380.739 -2.64524 -4.27004 0
M  V30 3996 C 382.733 -4.58407 -4.42879 0
M  V30 3997 C 380.42 -3.93974 -4.67149 0
M  V30 3998 C 381.418 -4.90727 -4.75053 0
M  V30 3999 O 381.106 -6.17865 -5.14294 0
M  V30 4000 H 380.838 -0.249251 -0.628371 0
M  V30 4001 H 383.392 -1.32106 -1.5728 0
M  V30 4002 H 381.622 -0.187962 -3.86243 0
M  V30 4003 H 383.311 -0.576957 -4.01779 0
M  V30 4004 H 384.077 -3.04823 -3.77237 0
M  V30 4005 H 379.956 -1.89923 -4.2006 0
M  V30 4006 H 383.5 -5.33926 -4.48964 0
M  V30 4007 H 379.397 -4.18122 -4.91777 0
M  V30 4008 H 380.165 -6.21694 -5.32389 0
M  V30 4009 N 382.828 1.3818 -0.7579 0
M  V30 4010 C 384.058 2.04004 -0.326463 0
M  V30 4011 C 384.466 1.57286 1.05156 0
M  V30 4012 O 383.809 0.743144 1.67997 0
M  V30 4013 C 383.871 3.58444 -0.275402 0
M  V30 4014 C 383.535 4.28237 -1.59569 0
M  V30 4015 C 384.532 4.53312 -2.54566 0
M  V30 4016 C 382.217 4.66341 -1.86631 0
M  V30 4017 C 384.211 5.15531 -3.74842 0
M  V30 4018 C 381.898 5.28283 -3.0718 0
M  V30 4019 C 382.896 5.52814 -4.01106 0
M  V30 4020 O 382.584 6.13465 -5.19534 0
M  V30 4021 H 382.316 0.662026 -0.136739 0
M  V30 4022 H 384.87 1.7777 -1.02893 0
M  V30 4023 H 383.1 3.83667 0.483337 0
M  V30 4024 H 384.789 4.05701 0.127099 0
M  V30 4025 H 385.555 4.24299 -2.34936 0
M  V30 4026 H 381.434 4.46591 -1.14358 0
M  V30 4027 H 384.978 5.34594 -4.48168 0
M  V30 4028 H 380.875 5.56719 -3.26702 0
M  V30 4029 H 381.643 6.31951 -5.20173 0
M  V30 4030 N 384.306 0.507319 1.49211 0
M  V30 4031 C 385.236 -0.256939 2.32082 0
M  V30 4032 C 386.217 -0.956609 1.40652 0
M  V30 4033 O 387.402 -0.946788 1.69557 0
M  V30 4034 C 384.532 -1.31802 3.21318 0
M  V30 4035 C 383.486 -0.737855 4.21592 0
M  V30 4036 C 382.812 -1.89992 4.99807 0
M  V30 4037 C 384.112 0.275325 5.21574 0
M  V30 4038 H 385.806 0.434798 2.96226 0
M  V30 4039 H 383.352 0.210546 1.42452 0
M  V30 4040 H 385.305 -1.86045 3.78107 0
M  V30 4041 H 384.029 -2.03903 2.5513 0
M  V30 4042 H 382.688 -0.217126 3.65956 0
M  V30 4043 H 382.336 -2.60877 4.30061 0
M  V30 4044 H 382.036 -1.51777 5.6766 0
M  V30 4045 H 383.56 -2.44657 5.59442 0
M  V30 4046 H 384.974 -0.179193 5.7302 0
M  V30 4047 H 383.371 0.573649 5.97352 0
M  V30 4048 H 384.441 1.18903 4.70096 0
M  V30 4049 N 385.784 -1.5574 0.241426 0
M  V30 4050 C 387.061 -1.90704 -0.434881 0
M  V30 4051 C 387.441 -1.16145 -1.76277 0
M  V30 4052 O 386.789 -0.277152 -2.26813 0
M  V30 4053 C 386.999 -3.43657 -0.608343 0
M  V30 4054 C 388.347 -4.14806 -0.906725 0
M  V30 4055 O 389.371 -3.49366 -0.694408 0
M  V30 4056 O 388.23 -5.30548 -1.31075 0
M  V30 4057 H 385.324 -0.793592 -0.23268 0
M  V30 4058 H 387.87 -1.67288 0.285086 0
M  V30 4059 H 386.642 -3.89927 0.327505 0
M  V30 4060 H 386.265 -3.72918 -1.37906 0
M  V30 4061 N 387.262 0.0317525 -1.57568 0
M  V30 4062 C 388.172 1.05021 -2.0978 0
M  V30 4063 C 389.188 1.39809 -1.03583 0
M  V30 4064 O 390.364 1.49182 -1.35302 0
M  V30 4065 C 387.429 2.33301 -2.56459 0
M  V30 4066 C 386.49 2.0512 -3.77127 0
M  V30 4067 C 385.723 3.27283 -4.2157 0
M  V30 4068 O 385.946 4.37861 -3.65559 0
M  V30 4069 O 384.88 3.13141 -5.14029 0
M  V30 4070 H 388.706 0.636505 -2.96955 0
M  V30 4071 H 386.291 0.248559 -1.47318 0
M  V30 4072 H 388.173 3.08722 -2.86825 0
M  V30 4073 H 386.848 2.73973 -1.72397 0
M  V30 4074 H 385.755 1.27276 -3.51784 0
M  V30 4075 H 387.088 1.69305 -4.62165 0
M  V30 4076 N 388.74 1.54641 0.303973 0
M  V30 4077 C 389.989 1.7299 1.03717 0
M  V30 4078 C 390.302 0.521168 1.88529 0
M  V30 4079 O 391.508 0.586408 2.65092 0
M  V30 4080 C 389.964 3.06051 1.89369 0
M  V30 4081 C 389.572 4.34393 1.09574 0
M  V30 4082 C 391.316 3.3376 2.62306 0
M  V30 4083 C 389.223 5.58506 1.94486 0
M  V30 4084 H 388.153 0.64473 0.390947 0
M  V30 4085 H 390.804 1.81124 0.294328 0
M  V30 4086 H 389.186 2.91874 2.67629 0
M  V30 4087 H 390.36 4.59396 0.359485 0
M  V30 4088 H 388.675 4.13597 0.482324 0
M  V30 4089 H 391.272 4.23687 3.26181 0
M  V30 4090 H 391.615 2.52503 3.3098 0
M  V30 4091 H 392.148 3.48894 1.91097 0
M  V30 4092 H 388.887 6.42422 1.30287 0
M  V30 4093 H 388.407 5.37694 2.65792 0
M  V30 4094 H 390.086 5.95651 2.52605 0
M  V30 4095 N 390.218 -0.567019 1.47046 0
M  V30 4096 C 391.629 -1.14916 1.47143 0
M  V30 4097 C 391.98 -1.94954 0.220767 0
M  V30 4098 O 391.105 -2.05602 -0.67505 0
M  V30 4099 C 391.7 -2.09069 2.666 0
M  V30 4100 C 390.259 -2.62575 2.69687 0
M  V30 4101 C 389.406 -1.38755 2.40088 0
M  V30 4102 H 392.357 -0.354126 1.54699 0
M  V30 4103 H 392.378 -2.92789 2.43011 0
M  V30 4104 H 391.89 -1.50789 3.57609 0
M  V30 4105 H 389.991 -3.24681 1.82792 0
M  V30 4106 H 390.104 -3.04239 3.70102 0
M  V30 4107 H 388.468 -1.69098 1.90468 0
M  V30 4108 H 389.251 -0.822822 3.33293 0
M  V30 4109 N 391.696 -1.35014 -0.812953 0
M  V30 4110 C 393.107 -1.25035 -1.38648 0
M  V30 4111 C 393.458 0.119967 -1.95833 0
M  V30 4112 O 392.583 1.02069 -1.90816 0
M  V30 4113 C 393.178 -2.26394 -2.52054 0
M  V30 4114 C 391.737 -2.20175 -3.05287 0
M  V30 4115 C 390.884 -2.12451 -1.78213 0
M  V30 4116 H 393.835 -1.46235 -0.616516 0
M  V30 4117 H 393.856 -1.88672 -3.30429 0
M  V30 4118 H 393.368 -3.26116 -2.10404 0
M  V30 4119 H 391.469 -1.23841 -3.51417 0
M  V30 4120 H 391.582 -3.11863 -3.63701 0
M  V30 4121 H 389.946 -1.58328 -1.9951 0
M  V30 4122 H 390.729 -3.14024 -1.38723 0
M  V30 4123 N 393.175 1.03435 -1.18907 0
M  V30 4124 C 394.122 2.11591 -0.921837 0
M  V30 4125 C 395.092 1.65499 0.141226 0
M  V30 4126 O 396.277 1.908 0.000242829 0
M  V30 4127 C 393.417 3.42012 -0.460616 0
M  V30 4128 C 392.53 4.01682 -1.58982 0
M  V30 4129 C 391.665 5.20091 -1.08069 0
M  V30 4130 C 390.704 5.71805 -2.18416 0
M  V30 4131 N 389.841 6.81494 -1.68849 0
M  V30 4132 H 394.681 2.33787 -1.8479 0
M  V30 4133 H 392.218 1.1467 -0.921373 0
M  V30 4134 H 394.176 4.16834 -0.174642 0
M  V30 4135 H 392.806 3.19944 0.428467 0
M  V30 4136 H 391.858 3.24127 -1.99113 0
M  V30 4137 H 393.17 4.36084 -2.4214 0
M  V30 4138 H 392.324 6.02051 -0.749615 0
M  V30 4139 H 391.063 4.87209 -0.218771 0
M  V30 4140 H 390.068 4.88461 -2.5236 0
M  V30 4141 H 391.293 6.06728 -3.05054 0
M  V30 4142 H 389.239 6.50475 -0.849572 0
M  V30 4143 H 389.156 7.14994 -2.45601 0
M  V30 4144 H 390.424 7.67063 -1.38689 0
M  V30 4145 N 394.653 0.992116 1.22453 0
M  V30 4146 C 395.9 0.667534 1.91181 0
M  V30 4147 C 396.228 -0.800317 1.77271 0
M  V30 4148 O 395.483 -1.59421 1.13505 0
M  V30 4149 C 395.782 1.01832 3.42586 0
M  V30 4150 C 395.448 2.47831 3.76684 0
M  V30 4151 C 394.11 2.87729 3.85701 0
M  V30 4152 C 396.462 3.42466 3.92895 0
M  V30 4153 C 393.79 4.21252 4.08367 0
M  V30 4154 C 396.142 4.75648 4.17064 0
M  V30 4155 C 394.806 5.15288 4.24305 0
M  V30 4156 H 394.076 0.244268 0.699581 0
M  V30 4157 H 396.723 1.24816 1.45235 0
M  V30 4158 H 395.028 0.355769 3.90181 0
M  V30 4159 H 396.725 0.745228 3.94014 0
M  V30 4160 H 393.315 2.15905 3.70247 0
M  V30 4161 H 397.499 3.12814 3.85307 0
M  V30 4162 H 392.755 4.51554 4.122 0
M  V30 4163 H 396.929 5.48924 4.2855 0
M  V30 4164 H 394.556 6.18769 4.41621 0
M  V30 4165 N 396.131 -1.37776 0.765217 0
M  V30 4166 C 397.356 -2.04651 0.336537 0
M  V30 4167 C 397.781 -1.57337 -1.03086 0
M  V30 4168 O 397.139 -0.730621 -1.65927 0
M  V30 4169 C 397.187 -3.58577 0.381468 0
M  V30 4170 O 396.291 -4.07706 -0.62042 0
M  V30 4171 H 395.632 -0.64756 0.146838 0
M  V30 4172 H 398.162 -1.76221 1.03959 0
M  V30 4173 H 398.172 -4.07314 0.236448 0
M  V30 4174 H 396.847 -3.9237 1.37907 0
M  V30 4175 H 395.424 -3.70306 -0.439056 0
M  V30 4176 N 397.609 -0.515225 -1.4894 0
M  V30 4177 C 398.542 0.302518 -2.26186 0
M  V30 4178 C 399.52 0.957895 -1.31389 0
M  V30 4179 O 400.704 0.985198 -1.60705 0
M  V30 4180 C 397.831 1.42719 -3.07163 0
M  V30 4181 C 396.877 0.884736 -4.17223 0
M  V30 4182 S 397.71 -0.235767 -5.34981 0
M  V30 4183 C 398.866 0.891731 -6.19515 0
M  V30 4184 H 399.099 -0.353076 -2.95196 0
M  V30 4185 H 396.632 -0.300753 -1.51443 0
M  V30 4186 H 398.59 2.07152 -3.54398 0
M  V30 4187 H 397.251 2.05445 -2.37595 0
M  V30 4188 H 396.444 1.72801 -4.73451 0
M  V30 4189 H 396.046 0.317362 -3.72651 0
M  V30 4190 H 398.338 1.79377 -6.53322 0
M  V30 4191 H 399.281 0.367751 -7.07144 0
M  V30 4192 H 399.689 1.16548 -5.52338 0
M  V30 4193 N 399.087 1.5561 -0.249682 0
M  V30 4194 C 400.034 2.21496 0.648694 0
M  V30 4195 C 401.004 1.17977 1.16921 0
M  V30 4196 O 402.189 1.46434 1.22318 0
M  V30 4197 C 399.329 2.92039 1.83868 0
M  V30 4198 C 398.442 4.10219 1.35442 0
M  V30 4199 C 397.577 4.6847 2.50419 0
M  V30 4200 C 396.616 5.78893 1.98869 0
M  V30 4201 N 395.753 6.31315 3.07223 0
M  V30 4202 H 400.593 2.97892 0.0801582 0
M  V30 4203 H 398.13 1.47074 0.0278031 0
M  V30 4204 H 400.088 3.31138 2.53778 0
M  V30 4205 H 398.718 2.18111 2.37965 0
M  V30 4206 H 397.77 3.76413 0.54928 0
M  V30 4207 H 399.082 4.89927 0.936649 0
M  V30 4208 H 398.236 5.10158 3.28366 0
M  V30 4209 H 396.975 3.87984 2.95499 0
M  V30 4210 H 395.98 5.3668 1.19393 0
M  V30 4211 H 397.205 6.61232 1.54755 0
M  V30 4212 H 395.151 5.53733 3.51732 0
M  V30 4213 H 395.068 7.06224 2.69784 0
M  V30 4214 H 396.336 6.77662 3.8522 0
M  V30 4215 N 400.565 -0.0233959 1.57583 0
M  V30 4216 C 401.981 -0.379134 1.55031 0
M  V30 4217 C 402.181 -1.76255 0.976548 0
M  V30 4218 O 401.237 -2.45266 0.600078 0
M  V30 4219 C 402.55 -0.275792 2.99433 0
M  V30 4220 C 404.098 -0.352458 3.11009 0
M  V30 4221 C 404.573 -0.278501 4.57152 0
M  V30 4222 N 406.064 -0.337123 4.61972 0
M  V30 4223 C 406.799 -0.302876 5.726 0
M  V30 4224 N 406.295 -0.220589 6.92449 0
M  V30 4225 N 408.088 -0.353023 5.6099 0
M  V30 4226 H 400.239 0.881869 1.93227 0
M  V30 4227 H 402.502 0.335867 0.886509 0
M  V30 4228 H 402.208 0.675108 3.4516 0
M  V30 4229 H 402.082 -1.06721 3.61788 0
M  V30 4230 H 404.469 -1.29379 2.65226 0
M  V30 4231 H 404.55 0.468409 2.51475 0
M  V30 4232 H 404.194 0.659189 5.03604 0
M  V30 4233 H 404.124 -1.11755 5.14605 0
M  V30 4234 H 406.615 -0.403002 3.75745 0
M  V30 4235 H 406.928 -0.199713 7.72542 0
M  V30 4236 H 405.273 -0.186555 6.9475 0
M  V30 4237 H 408.464 -0.415339 4.66254 0
M  V30 4238 H 408.637 -0.322866 6.47195 0
M  V30 4239 N 402.043 -1.548 -0.295768 0
M  V30 4240 C 402.973 -1.89115 -1.36959 0
M  V30 4241 C 403.954 -0.75059 -1.52644 0
M  V30 4242 O 405.139 -1.00678 -1.66065 0
M  V30 4243 C 402.269 -2.14307 -2.73295 0
M  V30 4244 C 401.223 -3.30151 -2.72368 0
M  V30 4245 C 400.549 -3.40772 -4.12042 0
M  V30 4246 C 401.849 -4.67126 -2.33646 0
M  V30 4247 H 403.543 -2.79053 -1.08488 0
M  V30 4248 H 401.089 -1.34266 -0.520443 0
M  V30 4249 H 403.042 -2.36898 -3.48507 0
M  V30 4250 H 401.766 -1.21145 -3.03301 0
M  V30 4251 H 400.425 -3.0749 -1.99613 0
M  V30 4252 H 400.073 -2.45117 -4.39234 0
M  V30 4253 H 399.773 -4.18645 -4.12322 0
M  V30 4254 H 401.297 -3.6563 -4.89027 0
M  V30 4255 H 402.711 -4.89414 -2.98575 0
M  V30 4256 H 401.108 -5.47751 -2.45129 0
M  V30 4257 H 402.178 -4.67489 -1.28772 0
M  V30 4258 N 403.521 0.559213 -1.47345 0
M  V30 4259 C 404.749 1.34194 -1.57479 0
M  V30 4260 C 405.164 1.87463 -0.224261 0
M  V30 4261 O 404.521 1.64888 0.782185 0
M  V30 4262 C 404.572 2.51324 -2.59843 0
M  V30 4263 O 404.293 2.00256 -3.89653 0
M  V30 4264 C 405.794 3.43563 -2.80142 0
M  V30 4265 H 403.014 0.409136 -0.531835 0
M  V30 4266 H 405.558 0.677609 -1.92947 0
M  V30 4267 H 403.713 3.13699 -2.27314 0
M  V30 4268 H 404.127 2.76708 -4.4557 0
M  V30 4269 H 405.601 4.2217 -3.55635 0
M  V30 4270 H 406.078 3.9698 -1.87892 0
M  V30 4271 H 406.684 2.87005 -3.1386 0
M  V30 4272 N 404.999 1.35443 0.805782 0
M  V30 4273 C 405.962 1.28301 1.89925 0
M  V30 4274 C 406.962 0.194285 1.59622 0
M  V30 4275 O 408.152 0.448036 1.6834 0
M  V30 4276 C 405.284 0.984997 3.2636 0
M  V30 4277 H 406.477 2.2553 1.97677 0
M  V30 4278 H 404.03 1.19979 1.00173 0
M  V30 4279 H 404.765 0.016603 3.24296 0
M  V30 4280 H 404.55 1.77269 3.4974 0
M  V30 4281 H 406.04 0.960651 4.064 0
M  V30 4282 N 406.477 -1.02803 1.19454 0
M  V30 4283 C 407.725 -1.75869 0.995722 0
M  V30 4284 C 408.046 -1.89138 -0.474543 0
M  V30 4285 O 407.316 -1.42558 -1.34366 0
M  V30 4286 H 405.896 -0.651511 0.365435 0
M  V30 4287 H 408.558 -1.24004 1.50363 0
M  V30 4288 H 407.654 -2.76661 1.44447 0
M  V30 4289 N 407.956 -0.998596 -1.21925 0
M  V30 4290 C 408.886 -0.573688 -2.26343 0
M  V30 4291 C 409.867 0.402296 -1.65274 0
M  V30 4292 O 411.052 0.291683 -1.91997 0
M  V30 4293 C 408.182 0.106839 -3.47136 0
M  V30 4294 C 407.136 -0.788269 -4.20678 0
M  V30 4295 C 406.462 0.0254927 -5.34694 0
M  V30 4296 C 407.762 -2.08784 -4.78755 0
M  V30 4297 H 409.456 -1.44651 -2.62138 0
M  V30 4298 H 407.002 -0.696975 -1.26009 0
M  V30 4299 H 408.955 0.415531 -4.19346 0
M  V30 4300 H 407.679 1.01424 -3.10452 0
M  V30 4301 H 406.338 -1.08069 -3.50309 0
M  V30 4302 H 405.986 0.933989 -4.94253 0
M  V30 4303 H 405.686 -0.570437 -5.84825 0
M  V30 4304 H 407.21 0.328147 -6.09718 0
M  V30 4305 H 408.624 -1.84272 -5.42878 0
M  V30 4306 H 407.021 -2.63307 -5.39249 0
M  V30 4307 H 408.091 -2.76284 -3.98491 0
M  V30 4308 N 409.434 1.37368 -0.772513 0
M  V30 4309 C 410.683 1.98918 -0.333861 0
M  V30 4310 C 410.996 1.62017 1.09589 0
M  V30 4311 O 412.202 2.16676 1.63596 0
M  V30 4312 C 410.658 3.55735 -0.545971 0
M  V30 4313 C 410.266 4.01573 -1.98603 0
M  V30 4314 C 412.01 4.24156 -0.170979 0
M  V30 4315 C 409.917 5.51102 -2.1457 0
M  V30 4316 H 408.847 0.744214 -0.121085 0
M  V30 4317 H 411.498 1.56888 -0.95175 0
M  V30 4318 H 409.88 3.95748 0.141387 0
M  V30 4319 H 411.054 3.72803 -2.7084 0
M  V30 4320 H 409.369 3.45937 -2.31769 0
M  V30 4321 H 411.966 5.34024 -0.26878 0
M  V30 4322 H 412.309 4.06917 0.878855 0
M  V30 4323 H 412.842 3.89447 -0.810914 0
M  V30 4324 H 409.581 5.73268 -3.17875 0
M  V30 4325 H 409.101 5.81554 -1.46817 0
M  V30 4326 H 410.78 6.17083 -1.94468 0
M  V30 4327 N 410.912 0.523116 1.48665 0
M  V30 4328 C 411.875 -0.232592 2.28017 0
M  V30 4329 C 412.875 -0.874021 1.34972 0
M  V30 4330 O 414.065 -0.735132 1.57929 0
M  V30 4331 C 411.197 -1.33586 3.13636 0
M  V30 4332 H 412.39 0.464008 2.96289 0
M  V30 4333 H 409.943 0.278816 1.53793 0
M  V30 4334 H 410.678 -2.06593 2.4998 0
M  V30 4335 H 410.463 -0.881125 3.82071 0
M  V30 4336 H 411.953 -1.86759 3.73511 0
M  V30 4337 N 412.39 -1.55475 0.257931 0
M  V30 4338 C 413.636 -1.99502 -0.364266 0
M  V30 4339 C 413.969 -1.146 -1.56782 0
M  V30 4340 O 413.244 -0.211968 -1.93342 0
M  V30 4341 C 413.527 -3.51917 -0.763333 0
M  V30 4342 C 413.38 -4.4758 0.446371 0
M  V30 4343 C 414.699 -4.09742 -1.60623 0
M  V30 4344 H 411.818 -0.725277 -0.130929 0
M  V30 4345 H 414.46 -1.8653 0.361446 0
M  V30 4346 H 412.61 -3.63101 -1.38166 0
M  V30 4347 H 414.282 -4.48362 1.08487 0
M  V30 4348 H 412.525 -4.19947 1.08753 0
M  V30 4349 H 413.196 -5.51862 0.123645 0
M  V30 4350 H 415.672 -4.01727 -1.08418 0
M  V30 4351 H 414.548 -5.16631 -1.85429 0
M  V30 4352 H 414.809 -3.58889 -2.58169 0
M  V30 4353 N 413.868 0.0150385 -1.57593 0
M  V30 4354 C 415.117 0.702115 -1.89085 0
M  V30 4355 C 415.43 1.75764 -0.858277 0
M  V30 4356 O 416.636 2.49829 -1.0629 0
M  V30 4357 C 415.092 1.29992 -3.35604 0
M  V30 4358 C 414.7 0.280007 -4.47124 0
M  V30 4359 C 416.444 1.96606 -3.76227 0
M  V30 4360 C 414.351 0.886949 -5.84711 0
M  V30 4361 H 413.281 0.265997 -0.705522 0
M  V30 4362 H 415.932 -0.0430408 -1.8345 0
M  V30 4363 H 414.314 2.09525 -3.36029 0
M  V30 4364 H 415.488 -0.489631 -4.58191 0
M  V30 4365 H 413.803 -0.284835 -4.15425 0
M  V30 4366 H 416.4 2.42893 -4.76347 0
M  V30 4367 H 416.743 2.79024 -3.08952 0
M  V30 4368 H 417.276 1.23828 -3.78036 0
M  V30 4369 H 414.015 0.101876 -6.55421 0
M  V30 4370 H 413.535 1.6261 -5.77337 0
M  V30 4371 H 415.214 1.39011 -6.3189 0
M  V30 4372 N 415.346 1.54954 0.287554 0
M  V30 4373 C 416.592 1.75132 1.02257 0
M  V30 4374 C 416.925 0.542858 1.86458 0
M  V30 4375 O 416.2 -0.459856 1.88986 0
M  V30 4376 C 416.483 3.04812 1.91733 0
M  V30 4377 C 416.336 4.35985 1.10622 0
M  V30 4378 C 417.655 3.30438 2.90687 0
M  V30 4379 H 414.774 0.637194 0.370341 0
M  V30 4380 H 417.416 1.87678 0.296111 0
M  V30 4381 H 415.566 2.94247 2.53675 0
M  V30 4382 H 417.238 4.58487 0.508636 0
M  V30 4383 H 415.481 4.31865 0.409271 0
M  V30 4384 H 416.152 5.23017 1.76513 0
M  V30 4385 H 418.628 3.40701 2.38877 0
M  V30 4386 H 417.504 4.22467 3.50447 0
M  V30 4387 H 417.765 2.49377 3.65053 0
M  V30 4388 N 416.824 -0.551391 1.4764 0
M  V30 4389 C 418.07 -1.31024 1.54792 0
M  V30 4390 C 418.403 -1.9304 0.211967 0
M  V30 4391 O 417.678 -1.78175 -0.77999 0
M  V30 4392 C 417.961 -2.41593 2.67029 0
M  V30 4393 C 417.814 -1.84408 4.10261 0
M  V30 4394 C 419.133 -3.43488 2.75143 0
M  V30 4395 H 416.252 -0.475031 0.563485 0
M  V30 4396 H 418.894 -0.616454 1.79722 0
M  V30 4397 H 417.044 -3.00772 2.45904 0
M  V30 4398 H 418.716 -1.29445 4.42766 0
M  V30 4399 H 416.959 -1.15051 4.18265 0
M  V30 4400 H 417.63 -2.64367 4.84576 0
M  V30 4401 H 420.106 -2.94236 2.94218 0
M  V30 4402 H 418.982 -4.18274 3.55441 0
M  V30 4403 H 419.243 -4.02703 1.82435 0
M  V30 4404 N 418.302 -1.35869 -0.798587 0
M  V30 4405 C 419.548 -1.2978 -1.55836 0
M  V30 4406 C 419.881 0.125322 -1.93795 0
M  V30 4407 O 419.156 1.07658 -1.61987 0
M  V30 4408 C 419.439 -2.21188 -2.84162 0
M  V30 4409 C 419.292 -3.72155 -2.52628 0
M  V30 4410 C 420.611 -2.11545 -3.85923 0
M  V30 4411 H 417.73 -0.472769 -0.565383 0
M  V30 4412 H 420.372 -1.66341 -0.918192 0
M  V30 4413 H 418.522 -1.90139 -3.38791 0
M  V30 4414 H 420.194 -4.13682 -2.04121 0
M  V30 4415 H 418.437 -3.92042 -1.85704 0
M  V30 4416 H 419.108 -4.31511 -3.44242 0
M  V30 4417 H 421.584 -2.38855 -3.40716 0
M  V30 4418 H 420.46 -2.77688 -4.73477 0
M  V30 4419 H 420.721 -1.09987 -4.282 0
M  V30 4420 N 419.78 1.02168 -1.19998 0
M  V30 4421 C 421.026 1.75945 -1.00852 0
M  V30 4422 C 421.359 1.88702 0.458828 0
M  V30 4423 O 420.634 1.40911 1.34069 0
M  V30 4424 C 420.917 3.18154 -1.68671 0
M  V30 4425 C 420.77 3.13224 -3.22817 0
M  V30 4426 C 422.089 4.16711 -1.41561 0
M  V30 4427 H 419.208 0.638673 -0.367785 0
M  V30 4428 H 421.85 1.19222 -1.4794 0
M  V30 4429 H 420 3.66586 -1.28636 0
M  V30 4430 H 421.672 2.72635 -3.72112 0
M  V30 4431 H 419.915 2.50751 -3.53986 0
M  V30 4432 H 420.586 4.13728 -3.65422 0
M  V30 4433 H 423.062 3.76913 -1.76284 0
M  V30 4434 H 421.938 5.14391 -1.91553 0
M  V30 4435 H 422.199 4.40774 -0.342193 0
M  V30 4436 N 421.258 1.00505 1.21394 0
M  V30 4437 C 422.504 0.688793 1.90745 0
M  V30 4438 C 422.837 -0.778486 1.77914 0
M  V30 4439 O 422.112 -1.56433 1.15581 0
M  V30 4440 C 422.395 1.11063 3.42545 0
M  V30 4441 C 422.248 2.63737 3.64367 0
M  V30 4442 C 423.567 0.673059 4.34923 0
M  V30 4443 H 420.686 0.251702 0.692687 0
M  V30 4444 H 423.328 1.25074 1.43026 0
M  V30 4445 H 421.478 0.632508 3.83317 0
M  V30 4446 H 423.15 3.19313 3.32922 0
M  V30 4447 H 421.393 3.05248 3.08231 0
M  V30 4448 H 422.064 2.88305 4.70727 0
M  V30 4449 H 424.54 1.08392 4.01734 0
M  V30 4450 H 423.416 0.996383 5.39781 0
M  V30 4451 H 423.677 -0.425808 4.40045 0
M  V30 4452 N 422.737 -1.36956 0.779787 0
M  V30 4453 C 423.7 -2.2851 0.177662 0
M  V30 4454 C 424.7 -1.48393 -0.619377 0
M  V30 4455 O 425.89 -1.68505 -0.441785 0
M  V30 4456 C 423.022 -3.32428 -0.755279 0
M  V30 4457 H 424.215 -2.83269 0.984823 0
M  V30 4458 H 421.768 -1.46358 0.548544 0
M  V30 4459 H 422.503 -2.82808 -1.58714 0
M  V30 4460 H 422.288 -3.91659 -0.185817 0
M  V30 4461 H 423.778 -4.00824 -1.17174 0
M  V30 4462 N 424.215 -0.530993 -1.48385 0
M  V30 4463 C 425.145 0.219985 -2.32461 0
M  V30 4464 C 426.126 0.934111 -1.42156 0
M  V30 4465 O 427.311 0.919694 -1.71042 0
M  V30 4466 C 424.441 1.26674 -3.23375 0
M  V30 4467 C 423.395 0.67069 -4.22712 0
M  V30 4468 C 422.721 1.82017 -5.02766 0
M  V30 4469 C 424.021 -0.358268 -5.2107 0
M  V30 4470 H 425.715 -0.48187 -2.95497 0
M  V30 4471 H 423.261 -0.233182 -1.42099 0
M  V30 4472 H 425.214 1.80006 -3.81019 0
M  V30 4473 H 423.938 1.99818 -2.58341 0
M  V30 4474 H 422.597 0.158878 -3.66256 0
M  V30 4475 H 422.245 2.54002 -4.34157 0
M  V30 4476 H 421.945 1.42727 -5.70003 0
M  V30 4477 H 423.469 2.35725 -5.63264 0
M  V30 4478 H 424.883 0.0880081 -5.73232 0
M  V30 4479 H 423.28 -0.66861 -5.96364 0
M  V30 4480 H 424.35 -1.26367 -4.68145 0
M  V30 4481 N 425.693 1.55336 -0.266172 0
M  V30 4482 C 426.939 1.99692 0.353681 0
M  V30 4483 C 427.272 1.1543 1.56172 0
M  V30 4484 O 426.547 0.222218 1.93226 0
M  V30 4485 C 426.83 3.52316 0.74466 0
M  V30 4486 C 426.683 4.47337 -0.470101 0
M  V30 4487 C 428.002 4.10588 1.58447 0
M  V30 4488 H 425.121 0.725961 0.12708 0
M  V30 4489 H 427.763 1.86336 -0.371333 0
M  V30 4490 H 425.913 3.63829 1.36239 0
M  V30 4491 H 427.585 4.4778 -1.10864 0
M  V30 4492 H 425.828 4.19364 -1.10978 0
M  V30 4493 H 426.499 5.51788 -0.15291 0
M  V30 4494 H 428.975 4.02297 1.06286 0
M  V30 4495 H 427.851 5.17607 1.82686 0
M  V30 4496 H 428.112 3.60253 2.56262 0
M  V30 4497 N 427.171 -0.0066808 1.57599 0
M  V30 4498 C 428.134 -0.985035 2.06953 0
M  V30 4499 C 429.134 -1.27663 0.977687 0
M  V30 4500 O 430.324 -1.22293 1.24057 0
M  V30 4501 C 427.456 -2.3118 2.50536 0
M  V30 4502 H 428.649 -0.558255 2.94658 0
M  V30 4503 H 426.202 -0.254011 1.54222 0
M  V30 4504 H 426.937 -2.78561 1.66054 0
M  V30 4505 H 426.722 -2.11338 3.3027 0
M  V30 4506 H 428.212 -3.01377 2.8907 0
M  V30 4507 N 428.649 -1.55105 -0.279332 0
M  V30 4508 C 429.897 -1.75066 -1.00977 0
M  V30 4509 C 430.218 -0.551276 -1.87045 0
M  V30 4510 O 429.488 0.433984 -1.91032 0
M  V30 4511 H 428.068 -0.645578 -0.375816 0
M  V30 4512 H 430.73 -1.92497 -0.305089 0
M  V30 4513 H 429.826 -2.64894 -1.65038 0
M  V30 4514 N 430.127 0.543554 -1.4793 0
M  V30 4515 C 431.06 1.66556 -1.55995 0
M  V30 4516 C 432.038 1.57315 -0.411205 0
M  V30 4517 O 433.222 1.7798 -0.620922 0
M  V30 4518 C 430.349 3.04883 -1.47527 0
M  V30 4519 C 429.395 3.32526 -2.67074 0
M  V30 4520 S 430.228 3.20282 -4.29162 0
M  V30 4521 C 431.384 4.61079 -4.23269 0
M  V30 4522 H 431.617 1.59462 -2.50917 0
M  V30 4523 H 429.15 0.725456 -1.36296 0
M  V30 4524 H 431.108 3.84665 -1.43328 0
M  V30 4525 H 429.769 3.09429 -0.539665 0
M  V30 4526 H 428.962 4.33403 -2.5725 0
M  V30 4527 H 428.564 2.60389 -2.68466 0
M  V30 4528 H 430.856 5.52318 -3.92365 0
M  V30 4529 H 431.799 4.75959 -5.24279 0
M  V30 4530 H 432.207 4.39766 -3.5393 0
M  V30 4531 N 431.605 1.3629 0.791371 0
M  V30 4532 C 432.568 1.30309 1.88553 0
M  V30 4533 C 433.568 0.211204 1.59407 0
M  V30 4534 O 434.758 0.465865 1.67855 0
M  V30 4535 C 431.89 1.01956 3.25297 0
M  V30 4536 H 433.083 2.27614 1.95273 0
M  V30 4537 H 430.636 1.21035 0.988953 0
M  V30 4538 H 431.371 0.050998 3.2426 0
M  V30 4539 H 431.156 1.80968 3.4784 0
M  V30 4540 H 432.646 1.0037 4.05359 0
M  V30 4541 N 433.083 -1.0153 1.20538 0
M  V30 4542 C 434.329 -1.75408 1.01783 0
M  V30 4543 C 434.662 -1.88943 -0.448814 0
M  V30 4544 O 433.937 -1.4162 -1.33319 0
M  V30 4545 C 434.22 -3.17255 1.70356 0
M  V30 4546 C 434.073 -3.11508 3.24473 0
M  V30 4547 C 435.392 -4.15955 1.43769 0
M  V30 4548 H 432.511 -0.636713 0.371167 0
M  V30 4549 H 435.153 -1.18436 1.4857 0
M  V30 4550 H 433.303 -3.65898 1.30578 0
M  V30 4551 H 434.975 -2.70658 3.73553 0
M  V30 4552 H 433.218 -2.4887 3.55311 0
M  V30 4553 H 433.889 -4.11784 3.67611 0
M  V30 4554 H 436.365 -3.75973 1.7828 0
M  V30 4555 H 435.241 -5.13368 1.94279 0
M  V30 4556 H 435.502 -4.40586 0.365564 0
M  V30 4557 N 434.561 -1.01147 -1.20859 0
M  V30 4558 C 435.491 -0.597663 -2.25722 0
M  V30 4559 C 436.472 0.384744 -1.65692 0
M  V30 4560 O 437.657 0.271303 -1.92296 0
M  V30 4561 C 434.787 0.0700149 -3.47229 0
M  V30 4562 C 433.741 -0.832843 -4.19819 0
M  V30 4563 C 433.067 -0.0312202 -5.34691 0
M  V30 4564 C 434.367 -2.1385 -4.76514 0
M  V30 4565 H 436.061 -1.47423 -2.60589 0
M  V30 4566 H 433.607 -0.710301 -1.25263 0
M  V30 4567 H 435.56 0.37103 -4.19763 0
M  V30 4568 H 434.284 0.981259 -3.11511 0
M  V30 4569 H 432.943 -1.11778 -3.49144 0
M  V30 4570 H 432.591 0.881515 -4.95215 0
M  V30 4571 H 432.291 -0.632434 -5.84187 0
M  V30 4572 H 433.815 0.26346 -6.10031 0
M  V30 4573 H 435.229 -1.9002 -5.40893 0
M  V30 4574 H 433.626 -2.69012 -5.36426 0
M  V30 4575 H 434.696 -2.80495 -3.95538 0
M  V30 4576 N 436.039 1.36541 -0.78704 0
M  V30 4577 C 437.285 1.99599 -0.358872 0
M  V30 4578 C 437.618 1.62323 1.06606 0
M  V30 4579 O 436.893 0.876858 1.73613 0
M  V30 4580 C 437.176 3.56327 -0.519944 0
M  V30 4581 C 437.029 4.03464 -1.98839 0
M  V30 4582 C 438.348 4.4005 0.0664737 0
M  V30 4583 H 435.467 0.725107 -0.131869 0
M  V30 4584 H 438.109 1.6199 -0.992936 0
M  V30 4585 H 436.259 3.88495 0.0198321 0
M  V30 4586 H 437.931 3.81793 -2.58905 0
M  V30 4587 H 436.174 3.55092 -2.49183 0
M  V30 4588 H 436.845 5.12439 -2.05207 0
M  V30 4589 H 439.321 4.14228 -0.394267 0
M  V30 4590 H 438.197 5.48847 -0.0762682 0
M  V30 4591 H 438.458 4.26655 1.15835 0
M  V30 4592 N 437.518 0.538854 1.48102 0
M  V30 4593 C 438.767 0.0059532 2.01699 0
M  V30 4594 C 439.08 -1.34476 1.42041 0
M  V30 4595 O 440.286 -1.96653 1.87189 0
M  V30 4596 C 438.742 -0.0397627 3.59878 0
M  V30 4597 C 438.35 1.30659 4.28523 0
M  V30 4598 C 440.094 -0.521024 4.2129 0
M  V30 4599 C 438.001 1.22098 5.78659 0
M  V30 4600 H 436.931 -0.00154456 0.753998 0
M  V30 4601 H 439.582 0.683963 1.70277 0
M  V30 4602 H 437.964 -0.783037 3.88181 0
M  V30 4603 H 439.138 2.06613 4.11883 0
M  V30 4604 H 437.453 1.7243 3.79021 0
M  V30 4605 H 440.05 -0.603184 5.31287 0
M  V30 4606 H 440.393 -1.52885 3.8721 0
M  V30 4607 H 440.926 0.166834 3.9745 0
M  V30 4608 H 437.665 2.20424 6.17328 0
M  V30 4609 H 437.185 0.50295 5.97688 0
M  V30 4610 H 438.864 0.915345 6.40492 0
M  V30 4611 N 438.996 -1.55193 0.274407 0
M  V30 4612 C 440.224 -2.03987 -0.345943 0
M  V30 4613 C 440.639 -1.15279 -1.4952 0
M  V30 4614 O 439.996 -0.172759 -1.8168 0
M  V30 4615 C 440.047 -3.51898 -0.827631 0
M  V30 4616 O 439.768 -4.37231 0.275855 0
M  V30 4617 C 441.269 -4.16577 -1.51587 0
M  V30 4618 H 438.489 -0.666335 -0.0789892 0
M  V30 4619 H 441.033 -2.00423 0.406294 0
M  V30 4620 H 439.188 -3.55909 -1.52996 0
M  V30 4621 H 439.602 -5.24415 -0.0943638 0
M  V30 4622 H 441.076 -5.21678 -1.80433 0
M  V30 4623 H 441.553 -3.64707 -2.44716 0
M  V30 4624 H 442.159 -4.16568 -0.857409 0
M  V30 4625 N 440.474 -0.00167713 -1.576 0
M  V30 4626 C 441.422 1.0074 -2.09652 0
M  V30 4627 C 442.416 1.35483 -1.01689 0
M  V30 4628 O 443.622 1.34028 -1.20152 0
M  V30 4629 H 439.997 0.342537 -0.669457 0
M  V30 4630 H 441.968 0.542841 -2.93421 0
M  V30 4631 C 440.717 2.2899 -2.61647 0
M  V30 4632 H 440.04 2.03124 -3.44355 0
M  V30 4633 H 441.48 2.9787 -3.01744 0
M  V30 4634 C 439.939 3.00085 -1.53136 0
M  V30 4635 O 440.469 3.91135 -0.91524 0
M  V30 4636 N 438.675 2.6194 -1.25841 0
M  V30 4637 H 438.222 1.8798 -1.76129 0
M  V30 4638 H 438.18 3.09822 -0.534576 0
M  V30 4639 N 441.952 1.55251 0.271103 0
M  V30 4640 C 443.368 1.47133 0.618393 0
M  V30 4641 C 443.568 0.686994 1.89427 0
M  V30 4642 O 442.624 0.206609 2.51653 0
M  V30 4643 C 443.937 2.91361 0.743593 0
M  V30 4644 C 445.485 3.01587 0.837522 0
M  V30 4645 C 445.96 4.47073 0.994483 0
M  V30 4646 N 447.451 4.50909 1.05996 0
M  V30 4647 C 448.186 5.60698 1.20024 0
M  V30 4648 N 447.682 6.80348 1.30759 0
M  V30 4649 N 449.475 5.48444 1.23149 0
M  V30 4650 H 441.626 2.04698 -0.566784 0
M  V30 4651 H 443.889 0.928319 -0.192165 0
M  V30 4652 H 443.595 3.51483 -0.123493 0
M  V30 4653 H 443.469 3.40484 1.62328 0
M  V30 4654 H 445.856 2.4156 1.69507 0
M  V30 4655 H 445.937 2.55713 -0.0668086 0
M  V30 4656 H 445.581 5.07703 0.141582 0
M  V30 4657 H 445.511 4.90605 1.91349 0
M  V30 4658 H 448.002 3.6472 0.989316 0
M  V30 4659 H 448.315 7.59772 1.41303 0
M  V30 4660 H 446.66 6.83156 1.27761 0
M  V30 4661 H 449.851 4.53907 1.14394 0
M  V30 4662 H 450.024 6.34049 1.33738 0
M  V30 4663 N 443.43 -0.535701 1.48216 0
M  V30 4664 C 444.846 -0.863701 1.3421 0
M  V30 4665 C 445.046 -1.98458 0.34879 0
M  V30 4666 O 444.102 -2.51432 -0.23204 0
M  V30 4667 C 445.415 -1.23662 2.74095 0
M  V30 4668 C 446.963 -1.34683 2.82541 0
M  V30 4669 C 447.438 -1.75322 4.23115 0
M  V30 4670 N 448.929 -1.82434 4.2576 0
M  V30 4671 C 449.664 -2.15252 5.31464 0
M  V30 4672 N 449.16 -2.46533 6.47452 0
M  V30 4673 N 450.953 -2.16209 5.18855 0
M  V30 4674 H 443.104 0.203965 2.11418 0
M  V30 4675 H 445.367 0.0286033 0.947568 0
M  V30 4676 H 445.073 -0.486674 3.48316 0
M  V30 4677 H 444.947 -2.18805 3.07253 0
M  V30 4678 H 447.334 -2.08756 2.08579 0
M  V30 4679 H 447.415 -0.376756 2.5301 0
M  V30 4680 H 447.059 -1.01812 4.97591 0
M  V30 4681 H 446.989 -2.7337 4.50085 0
M  V30 4682 H 449.48 -1.6056 3.42095 0
M  V30 4683 H 449.793 -2.70662 7.23852 0
M  V30 4684 H 448.138 -2.44065 6.50736 0
M  V30 4685 H 451.329 -1.91224 4.2726 0
M  V30 4686 H 451.502 -2.41453 6.01335 0
M  V30 4687 N 444.908 -1.36708 -0.784132 0
M  V30 4688 C 445.855 -1.31466 -1.89698 0
M  V30 4689 C 446.825 -0.18239 -1.65096 0
M  V30 4690 O 448.01 -0.369762 -1.87183 0
M  V30 4691 C 445.15 -1.1151 -3.26588 0
M  V30 4692 C 444.263 -2.33859 -3.63227 0
M  V30 4693 C 443.398 -2.06873 -4.89262 0
M  V30 4694 C 442.437 -3.25154 -5.18595 0
M  V30 4695 N 441.574 -2.978 -6.35814 0
M  V30 4696 H 446.414 -2.26619 -1.93515 0
M  V30 4697 H 443.951 -1.12625 -0.946256 0
M  V30 4698 H 445.909 -0.979653 -4.05535 0
M  V30 4699 H 444.539 -0.200103 -3.22179 0
M  V30 4700 H 443.591 -2.58188 -2.79362 0
M  V30 4701 H 444.903 -3.22109 -3.8085 0
M  V30 4702 H 444.057 -1.90289 -5.76086 0
M  V30 4703 H 442.796 -1.15942 -4.73718 0
M  V30 4704 H 441.801 -3.42292 -4.30251 0
M  V30 4705 H 443.026 -4.1692 -5.36055 0
M  V30 4706 H 440.972 -2.09485 -6.21653 0
M  V30 4707 H 440.889 -3.7959 -6.53794 0
M  V30 4708 H 442.157 -2.84805 -7.25607 0
M  V30 4709 N 446.386 1.0089 -1.21074 0
M  V30 4710 C 447.611 1.78727 -1.05221 0
M  V30 4711 C 448.036 1.83932 0.393795 0
M  V30 4712 O 447.394 1.28004 1.28393 0
M  V30 4713 C 447.442 3.20665 -1.64944 0
M  V30 4714 O 446.546 4.02632 -0.892273 0
M  V30 4715 H 445.887 0.550973 -0.370574 0
M  V30 4716 H 448.417 1.26847 -1.60534 0
M  V30 4717 H 448.427 3.71352 -1.69002 0
M  V30 4718 H 447.102 3.16191 -2.70177 0
M  V30 4719 H 445.679 3.61207 -0.926492 0
M  V30 4720 N 447.864 1.01787 1.20321 0
M  V30 4721 C 449.112 0.706538 1.89347 0
M  V30 4722 C 449.433 -0.766289 1.79313 0
M  V30 4723 O 448.703 -1.55126 1.19635 0
M  V30 4724 H 447.283 0.258348 0.700903 0
M  V30 4725 H 449.945 1.28974 1.46122 0
M  V30 4726 H 449.041 0.991066 2.95946 0
M  V30 4727 N 449.342 -1.36122 0.79427 0
M  V30 4728 C 450.289 -2.29982 0.194101 0
M  V30 4729 C 451.259 -1.52214 -0.664833 0
M  V30 4730 O 452.444 -1.80702 -0.612498 0
M  V30 4731 C 449.584 -3.38706 -0.661244 0
M  V30 4732 C 448.697 -4.31456 0.216766 0
M  V30 4733 C 447.832 -5.27265 -0.645411 0
M  V30 4734 C 446.871 -6.11653 0.233756 0
M  V30 4735 N 446.008 -6.99636 -0.587682 0
M  V30 4736 H 450.848 -2.80722 0.999965 0
M  V30 4737 H 448.385 -1.38172 0.504677 0
M  V30 4738 H 450.343 -4.00394 -1.17219 0
M  V30 4739 H 448.973 -2.89274 -1.43249 0
M  V30 4740 H 448.025 -3.7088 0.845724 0
M  V30 4741 H 449.337 -4.90724 0.893973 0
M  V30 4742 H 448.491 -5.94266 -1.22198 0
M  V30 4743 H 447.23 -4.68463 -1.35623 0
M  V30 4744 H 446.235 -5.4361 0.82269 0
M  V30 4745 H 447.46 -6.72531 0.942247 0
M  V30 4746 H 445.406 -6.43337 -1.2827 0
M  V30 4747 H 445.323 -7.55993 0.0317402 0
M  V30 4748 H 446.591 -7.71001 -1.14792 0
M  V30 4749 N 450.82 -0.546701 -1.47814 0
M  V30 4750 C 452.05 -0.0232519 -2.06587 0
M  V30 4751 C 452.458 1.2712 -1.40133 0
M  V30 4752 O 451.801 1.77091 -0.488305 0
M  V30 4753 C 451.863 0.254117 -3.58601 0
M  V30 4754 C 451.527 -0.949331 -4.47031 0
M  V30 4755 C 452.524 -1.85216 -4.85789 0
M  V30 4756 C 450.209 -1.16104 -4.88697 0
M  V30 4757 C 452.203 -2.95047 -5.65001 0
M  V30 4758 C 449.89 -2.26247 -5.67676 0
M  V30 4759 C 450.888 -3.1555 -6.05737 0
M  V30 4760 O 450.576 -4.23784 -6.83127 0
M  V30 4761 H 450.308 -0.0380082 -0.674931 0
M  V30 4762 H 452.862 -0.756631 -1.90956 0
M  V30 4763 H 451.092 1.04168 -3.72406 0
M  V30 4764 H 452.781 0.72167 -3.99433 0
M  V30 4765 H 453.547 -1.70061 -4.54207 0
M  V30 4766 H 449.426 -0.475159 -4.58545 0
M  V30 4767 H 452.97 -3.64778 -5.94628 0
M  V30 4768 H 448.867 -2.41379 -5.98671 0
M  V30 4769 H 449.635 -4.21701 -7.01506 0
M  V30 4770 N 452.299 1.55045 -0.282633 0
M  V30 4771 C 453.246 2.22822 0.601566 0
M  V30 4772 C 454.216 1.20431 1.14392 0
M  V30 4773 O 455.401 1.48996 1.19184 0
M  V30 4774 C 452.541 2.95873 1.77632 0
M  V30 4775 C 451.654 4.12999 1.26711 0
M  V30 4776 C 450.789 4.73676 2.40426 0
M  V30 4777 C 449.828 5.82981 1.86545 0
M  V30 4778 N 448.965 6.3769 2.93762 0
M  V30 4779 H 453.805 2.97995 0.0169528 0
M  V30 4780 H 451.342 1.471 -0.00339964 0
M  V30 4781 H 453.3 3.36447 2.46697 0
M  V30 4782 H 451.93 2.2311 2.33285 0
M  V30 4783 H 450.982 3.77494 0.469314 0
M  V30 4784 H 452.294 4.91803 0.832518 0
M  V30 4785 H 451.448 5.17008 3.17471 0
M  V30 4786 H 450.187 3.94164 2.87203 0
M  V30 4787 H 449.192 5.39092 1.07983 0
M  V30 4788 H 450.417 6.64366 1.40694 0
M  V30 4789 H 448.363 5.61069 3.39908 0
M  V30 4790 H 448.28 7.11788 2.54744 0
M  V30 4791 H 449.548 6.8568 3.7076 0
M  V30 4792 N 453.777 0.010035 1.57597 0
M  V30 4793 C 454.724 -0.978122 2.09049 0
M  V30 4794 C 455.694 -1.33509 0.988159 0
M  V30 4795 O 456.879 -1.43172 1.26121 0
M  V30 4796 C 454.019 -2.26158 2.60666 0
M  V30 4797 C 453.132 -1.96275 3.84838 0
M  V30 4798 C 452.267 -3.18776 4.24918 0
M  V30 4799 C 451.306 -2.84625 5.41899 0
M  V30 4800 N 450.443 -3.99693 5.77226 0
M  V30 4801 H 455.283 -0.532431 2.93205 0
M  V30 4802 H 452.82 -0.251234 1.44939 0
M  V30 4803 H 454.778 -3.01202 2.88675 0
M  V30 4804 H 453.408 -2.68378 1.79369 0
M  V30 4805 H 452.46 -1.11555 3.63675 0
M  V30 4806 H 453.772 -1.67111 4.69974 0
M  V30 4807 H 452.926 -4.02157 4.54262 0
M  V30 4808 H 451.665 -3.51087 3.38511 0
M  V30 4809 H 450.67 -1.99653 5.12268 0
M  V30 4810 H 451.895 -2.53551 6.29991 0
M  V30 4811 H 449.841 -4.31882 4.93776 0
M  V30 4812 H 449.758 -3.74087 6.56959 0
M  V30 4813 H 451.026 -4.83834 6.11167 0
M  V30 4814 N 455.255 -1.55392 -0.262866 0
M  V30 4815 C 456.501 -1.76737 -0.99458 0
M  V30 4816 C 456.834 -0.572453 -1.85571 0
M  V30 4817 O 456.109 0.429732 -1.89693 0
M  V30 4818 C 456.392 -3.07824 -1.8686 0
M  V30 4819 C 456.245 -4.3769 -1.03672 0
M  V30 4820 C 457.564 -3.35021 -2.85393 0
M  V30 4821 H 454.683 -0.643005 -0.360157 0
M  V30 4822 H 457.325 -1.88126 -0.266216 0
M  V30 4823 H 455.475 -2.98245 -2.48962 0
M  V30 4824 H 457.147 -4.59238 -0.43563 0
M  V30 4825 H 455.39 -4.32461 -0.340513 0
M  V30 4826 H 456.061 -5.25759 -1.6817 0
M  V30 4827 H 458.537 -3.44458 -2.33426 0
M  V30 4828 H 457.413 -4.27989 -3.43681 0
M  V30 4829 H 457.674 -2.55153 -3.61039 0
M  V30 4830 N 456.733 0.527833 -1.48498 0
M  V30 4831 C 457.643 1.65907 -1.65867 0
M  V30 4832 C 458.659 1.6537 -0.541192 0
M  V30 4833 O 459.835 1.84282 -0.812534 0
M  V30 4834 C 456.9 3.02364 -1.69637 0
M  V30 4835 C 455.961 3.1374 -2.93028 0
M  V30 4836 C 455.194 4.43688 -2.96609 0
M  V30 4837 O 455.417 5.30913 -2.08538 0
M  V30 4838 O 454.351 4.59475 -3.88802 0
M  V30 4839 H 458.177 1.5419 -2.61647 0
M  V30 4840 H 455.762 0.701163 -1.31924 0
M  V30 4841 H 457.644 3.83515 -1.74625 0
M  V30 4842 H 456.319 3.14401 -0.770312 0
M  V30 4843 H 455.226 2.31877 -2.93571 0
M  V30 4844 H 456.559 3.06621 -3.85026 0
M  V30 4845 N 458.211 1.37122 0.776871 0
M  V30 4846 C 459.46 1.31373 1.53049 0
M  V30 4847 C 459.773 -0.101016 1.95339 0
M  V30 4848 O 460.979 -0.280953 2.70042 0
M  V30 4849 C 459.435 2.30567 2.76346 0
M  V30 4850 C 459.043 3.77543 2.41175 0
M  V30 4851 C 460.787 2.33818 3.54301 0
M  V30 4852 C 458.694 4.68481 3.60943 0
M  V30 4853 H 457.624 0.488234 0.574581 0
M  V30 4854 H 460.275 1.62554 0.851372 0
M  V30 4855 H 458.657 1.92396 3.46121 0
M  V30 4856 H 459.831 4.24521 1.79216 0
M  V30 4857 H 458.146 3.77187 1.76405 0
M  V30 4858 H 460.743 2.98965 4.4331 0
M  V30 4859 H 461.086 1.3503 3.93793 0
M  V30 4860 H 461.619 2.7067 2.91518 0
M  V30 4861 H 458.358 5.68378 3.26537 0
M  V30 4862 H 457.878 4.2621 4.22025 0
M  V30 4863 H 459.557 4.85366 4.27819 0
M  V30 4864 N 459.689 -1.00246 1.21608 0
M  V30 4865 C 460.636 -2.09073 0.977613 0
M  V30 4866 C 461.606 -1.65815 -0.097297 0
M  V30 4867 O 462.791 -1.90734 0.0503445 0
M  V30 4868 C 459.931 -3.40671 0.551133 0
M  V30 4869 C 459.044 -3.97326 1.69576 0
M  V30 4870 C 458.179 -5.17043 1.2182 0
M  V30 4871 C 457.218 -5.65813 2.335 0
M  V30 4872 N 456.355 -6.76778 1.86859 0
M  V30 4873 H 461.195 -2.28806 1.90924 0
M  V30 4874 H 458.732 -1.12186 0.951452 0
M  V30 4875 H 460.69 -4.16225 0.285097 0
M  V30 4876 H 459.32 -3.20967 -0.343489 0
M  V30 4877 H 458.372 -3.18734 2.07637 0
M  V30 4878 H 459.684 -4.29511 2.53617 0
M  V30 4879 H 458.838 -5.99852 0.908975 0
M  V30 4880 H 457.577 -4.86458 0.347869 0
M  V30 4881 H 456.582 -4.81599 2.65222 0
M  V30 4882 H 457.807 -5.98427 3.21033 0
M  V30 4883 H 455.753 -6.47994 1.02174 0
M  V30 4884 H 455.67 -7.08231 2.64471 0
M  V30 4885 H 456.938 -7.63116 1.58978 0
M  V30 4886 N 461.167 -1.02423 -1.1978 0
M  V30 4887 C 462.077 -0.610919 -2.26506 0
M  V30 4888 C 463.093 0.355152 -1.70337 0
M  V30 4889 O 464.269 0.214195 -2.00258 0
M  V30 4890 C 461.334 0.0365921 -3.46681 0
M  V30 4891 C 460.395 -0.976389 -4.18049 0
M  V30 4892 C 459.628 -0.359683 -5.32487 0
M  V30 4893 O 459.851 0.838601 -5.64202 0
M  V30 4894 O 458.785 -1.08022 -5.92127 0
M  V30 4895 H 462.611 -1.49965 -2.64091 0
M  V30 4896 H 460.196 -0.794156 -1.26545 0
M  V30 4897 H 462.078 0.39786 -4.19518 0
M  V30 4898 H 460.753 0.899398 -3.10954 0
M  V30 4899 H 459.66 -1.38916 -3.47352 0
M  V30 4900 H 460.993 -1.80941 -4.57735 0
M  V30 4901 N 462.645 1.35699 -0.801477 0
M  V30 4902 C 463.575 2.32436 -0.222658 0
M  V30 4903 C 464.556 1.5723 0.649057 0
M  V30 4904 O 465.741 1.85324 0.580387 0
M  V30 4905 C 462.871 3.41469 0.633719 0
M  V30 4906 C 461.825 4.27774 -0.139083 0
M  V30 4907 C 461.151 5.28082 0.838666 0
M  V30 4908 C 462.451 5.04946 -1.33517 0
M  V30 4909 H 464.145 2.81094 -1.03086 0
M  V30 4910 H 461.691 1.35146 -0.497155 0
M  V30 4911 H 463.644 4.08143 1.04868 0
M  V30 4912 H 462.368 2.91408 1.47475 0
M  V30 4913 H 461.027 3.62673 -0.535156 0
M  V30 4914 H 460.675 4.7429 1.67506 0
M  V30 4915 H 460.375 5.86695 0.32594 0
M  V30 4916 H 461.899 5.97628 1.25194 0
M  V30 4917 H 463.313 5.64593 -0.995349 0
M  V30 4918 H 461.71 5.7303 -1.78202 0
M  V30 4919 H 462.78 4.35886 -2.12442 0
M  V30 4920 N 464.123 0.554532 1.47522 0
M  V30 4921 C 465.371 0.0294208 2.02079 0
M  V30 4922 C 465.692 -1.32411 1.43151 0
M  V30 4923 O 464.962 -1.863 0.605728 0
M  V30 4924 H 463.542 0.00788672 0.746958 0
M  V30 4925 H 466.204 0.723934 1.80956 0
M  V30 4926 H 465.3 -0.0606745 3.12041 0
M  V30 4927 N 465.601 -1.54893 0.290851 0
M  V30 4928 C 466.511 -2.26812 -0.59945 0
M  V30 4929 C 467.527 -1.29963 -1.15696 0
M  V30 4930 O 468.703 -1.62928 -1.18391 0
M  V30 4931 C 465.768 -2.98716 -1.75982 0
M  V30 4932 C 464.829 -4.1108 -1.2374 0
M  V30 4933 C 464.062 -4.79546 -2.34246 0
M  V30 4934 O 464.285 -4.47309 -3.53936 0
M  V30 4935 O 463.219 -5.67165 -2.01512 0
M  V30 4936 H 467.045 -3.03696 -0.0163561 0
M  V30 4937 H 464.63 -1.49289 0.0576755 0
M  V30 4938 H 466.512 -3.43851 -2.43607 0
M  V30 4939 H 465.187 -2.24737 -2.3297 0
M  V30 4940 H 464.094 -3.70367 -0.527163 0
M  V30 4941 H 465.427 -4.87007 -0.71307 0
M  V30 4942 N 467.08 -0.0183926 -1.57589 0
M  V30 4943 C 468.01 0.965596 -2.12599 0
M  V30 4944 C 468.991 1.34641 -1.0395 0
M  V30 4945 O 470.176 1.42693 -1.31729 0
M  V30 4946 C 467.306 2.25149 -2.64434 0
M  V30 4947 C 466.26 2.01175 -3.77773 0
M  V30 4948 C 465.586 3.35937 -4.15994 0
M  V30 4949 C 466.886 1.35953 -5.04296 0
M  V30 4950 H 468.58 0.507504 -2.95067 0
M  V30 4951 H 466.126 0.242671 -1.41941 0
M  V30 4952 H 468.079 2.94357 -3.01549 0
M  V30 4953 H 466.803 2.73105 -1.79112 0
M  V30 4954 H 465.462 1.34388 -3.4108 0
M  V30 4955 H 465.11 3.81631 -3.27669 0
M  V30 4956 H 464.81 3.20705 -4.92364 0
M  V30 4957 H 466.334 4.0643 -4.55683 0
M  V30 4958 H 467.748 1.95144 -5.39065 0
M  V30 4959 H 466.145 1.31152 -5.85593 0
M  V30 4960 H 467.215 0.331071 -4.83768 0
M  V30 4961 N 468.558 1.5553 0.254621 0
M  V30 4962 C 469.974 1.4778 0.602753 0
M  V30 4963 C 470.174 0.707047 1.88688 0
M  V30 4964 O 469.23 0.233288 2.5142 0
M  V30 4965 C 470.543 2.92133 0.712648 0
M  V30 4966 C 472.091 3.02458 0.805488 0
M  V30 4967 C 472.566 4.48102 0.947009 0
M  V30 4968 N 474.057 4.52008 1.01207 0
M  V30 4969 C 474.792 5.61939 1.1407 0
M  V30 4970 N 474.288 6.81697 1.23536 0
M  V30 4971 N 476.081 5.49719 1.17325 0
M  V30 4972 H 468.232 2.04085 -0.588463 0
M  V30 4973 H 470.495 0.926229 -0.202001 0
M  V30 4974 H 470.201 3.51332 -0.160766 0
M  V30 4975 H 470.075 3.42187 1.58707 0
M  V30 4976 H 472.462 2.43344 1.66936 0
M  V30 4977 H 472.543 2.55627 -0.0939266 0
M  V30 4978 H 472.187 5.07824 0.087725 0
M  V30 4979 H 472.117 4.92607 1.86135 0
M  V30 4980 H 474.608 3.65749 0.950577 0
M  V30 4981 H 474.921 7.61228 1.33236 0
M  V30 4982 H 473.266 6.84473 1.20508 0
M  V30 4983 H 476.457 4.55095 1.09573 0
M  V30 4984 H 476.63 6.35432 1.27005 0
M  V30 4985 N 470.036 -0.519951 1.48776 0
M  V30 4986 C 470.983 -1.62352 1.64044 0
M  V30 4987 C 471.953 -1.58945 0.482251 0
M  V30 4988 O 473.138 -1.77219 0.706971 0
M  V30 4989 C 470.278 -3.00579 1.69547 0
M  V30 4990 C 469.391 -3.14145 2.96541 0
M  V30 4991 C 468.526 -4.42991 2.93142 0
M  V30 4992 C 467.565 -4.50122 4.14797 0
M  V30 4993 N 466.702 -5.7037 4.09418 0
M  V30 4994 H 471.542 -1.48643 2.58281 0
M  V30 4995 H 469.079 -0.723516 1.28077 0
M  V30 4996 H 471.037 -3.80671 1.70719 0
M  V30 4997 H 469.667 -3.13036 0.787918 0
M  V30 4998 H 468.719 -2.27239 3.05068 0
M  V30 4999 H 470.031 -3.15275 3.86527 0
M  V30 5000 H 469.185 -5.31385 2.92772 0
M  V30 5001 H 467.924 -4.44398 2.00902 0
M  V30 5002 H 466.929 -3.60133 4.15433 0
M  V30 5003 H 468.154 -4.50445 5.08208 0
M  V30 5004 H 466.1 -5.72655 3.20004 0
M  V30 5005 H 466.017 -5.73036 4.93119 0
M  V30 5006 H 467.285 -6.61023 4.13121 0
M  V30 5007 N 471.514 -1.37532 -0.769588 0
M  V30 5008 C 472.424 -1.35668 -1.91393 0
M  V30 5009 C 473.44 -0.255954 -1.72107 0
M  V30 5010 O 474.616 -0.491704 -1.95305 0
M  V30 5011 C 471.681 -1.16481 -3.26547 0
M  V30 5012 C 470.742 -2.36212 -3.58472 0
M  V30 5013 C 469.975 -2.17932 -4.87177 0
M  V30 5014 O 470.198 -1.1647 -5.58382 0
M  V30 5015 O 469.132 -3.06167 -5.18214 0
M  V30 5016 H 472.958 -2.32055 -1.95918 0
M  V30 5017 H 470.543 -1.18284 -0.912641 0
M  V30 5018 H 472.425 -1.07778 -4.07384 0
M  V30 5019 H 471.1 -0.231687 -3.2287 0
M  V30 5020 H 470.007 -2.50488 -2.77861 0
M  V30 5021 H 471.34 -3.281 -3.66894 0
M  V30 5022 N 472.992 0.995999 -1.22138 0
M  V30 5023 C 474.403 1.54961 -1.04135 0
M  V30 5024 C 474.754 1.92159 0.396147 0
M  V30 5025 O 473.879 1.74435 1.28069 0
M  V30 5026 C 474.474 2.81581 -1.88408 0
M  V30 5027 C 473.033 3.33396 -1.74712 0
M  V30 5028 C 472.18 2.06509 -1.85066 0
M  V30 5029 H 475.131 0.817436 -1.36028 0
M  V30 5030 H 475.152 3.53822 -1.39966 0
M  V30 5031 H 474.664 2.54476 -2.93025 0
M  V30 5032 H 472.765 3.65416 -0.728159 0
M  V30 5033 H 472.878 4.04208 -2.57202 0
M  V30 5034 H 471.242 2.19925 -1.28472 0
M  V30 5035 H 472.025 1.81804 -2.91208 0
M  V30 5036 N 474.47 1.03057 1.19235 0
M  V30 5037 C 475.695 0.74757 1.93458 0
M  V30 5038 C 476.12 -0.687648 1.7508 0
M  V30 5039 O 475.478 -1.47499 1.05422 0
M  V30 5040 C 475.526 1.10604 3.43219 0
M  V30 5041 O 474.63 0.225671 4.11782 0
M  V30 5042 H 473.971 0.276047 0.603899 0
M  V30 5043 H 476.501 1.3777 1.51263 0
M  V30 5044 H 476.511 1.06366 3.93891 0
M  V30 5045 H 475.186 2.15165 3.55917 0
M  V30 5046 H 473.763 0.326795 3.71465 0
M  V30 5047 N 475.948 -1.35272 0.808662 0
M  V30 5048 C 476.878 -2.32315 0.234981 0
M  V30 5049 C 477.859 -1.57572 -0.64071 0
M  V30 5050 O 479.044 -1.8563 -0.570551 0
M  V30 5051 C 476.174 -3.41801 -0.615601 0
M  V30 5052 C 475.128 -4.27694 0.161767 0
M  V30 5053 C 474.454 -5.28519 -0.810649 0
M  V30 5054 C 475.754 -5.04231 1.36193 0
M  V30 5055 H 477.448 -2.80543 1.04575 0
M  V30 5056 H 474.994 -1.3488 0.504315 0
M  V30 5057 H 476.947 -4.08693 -1.02702 0
M  V30 5058 H 475.671 -2.92186 -1.45928 0
M  V30 5059 H 474.33 -3.62384 0.554382 0
M  V30 5060 H 473.978 -4.75171 -1.64988 0
M  V30 5061 H 473.678 -5.8686 -0.294822 0
M  V30 5062 H 475.202 -5.98283 -1.22023 0
M  V30 5063 H 476.616 -5.64058 1.02528 0
M  V30 5064 H 475.013 -5.72077 1.81239 0
M  V30 5065 H 476.083 -4.34753 2.14751 0
M  V30 5066 O 477.465 -0.703344 -1.4538 0
M  V30 5067 H 478.156 -0.244572 -1.9215 0
M  V30 END ATOM
M  V30 BEGIN BOND
M  V30 END BOND
M  V30 END CTAB
M  END
$$$$
