drugbank_target|P09871 Complement C1s subcomponent (DB01593; DB02371; DB06404; DB09130; DB09228; DB14487; DB14533; DB14548)
 OpenBabel12092119553D

  0  0  0     0  0            999 V3000
M  V30 BEGIN CTAB
M  V30 COUNTS 10530 10681 0 0 0
M  V30 BEGIN ATOM
M  V30 1 H -0.908 1.98254 -0.117106 0
M  V30 2 N 0 1.576 0 0
M  V30 3 C 0.933 2.03868 1.02534 0
M  V30 4 C 1.911 0.928543 1.3348 0
M  V30 5 O 3.095 1.19667 1.45644 0
M  V30 6 C 0.222 2.43627 2.35294 0
M  V30 7 C -0.732 3.65373 2.2001 0
M  V30 8 S 0.101 5.13292 1.52614 0
M  V30 9 C 1.257 5.56322 2.86805 0
M  V30 10 H 1.49 2.90518 0.631377 0
M  V30 11 H -0.977 1.52953 0.210867 0
M  V30 12 H 0.981 2.67203 3.11629 0
M  V30 13 H -0.358 1.57376 2.7183 0
M  V30 14 H -1.165 3.90944 3.18086 0
M  V30 15 H -1.563 3.418 1.51819 0
M  V30 16 H 0.729 5.58782 3.83104 0
M  V30 17 H 1.672 6.56266 2.65933 0
M  V30 18 H 2.08 4.83886 2.90714 0
M  V30 19 N 1.4781 -0.272755 1.55222 0
M  V30 20 C 2.7241 -1.00172 1.77023 0
M  V30 21 C 3.0791 -1.83928 0.564633 0
M  V30 22 O 2.3721 -1.86416 -0.442674 0
M  V30 23 C 2.5661 -1.91642 3.01675 0
M  V30 24 C 2.3951 -1.16888 4.34243 0
M  V30 25 C 1.1651 -0.884464 4.97499 0
M  V30 26 C 3.3631 -0.55919 5.11251 0
M  V30 27 N 1.3451 -0.11015 6.13801 0
M  V30 28 C 2.7161 0.0809469 6.19947 0
M  V30 29 C 4.7711 -0.467058 4.95705 0
M  V30 30 C 3.4741 0.804335 7.14789 0
M  V30 31 C 5.5001 0.242739 5.90902 0
M  V30 32 C 4.8621 0.871613 6.98987 0
M  V30 33 H 0.9611 -0.348529 0.700037 0
M  V30 34 H 3.5451 -0.277365 1.92714 0
M  V30 35 H 1.7161 -2.61303 2.87359 0
M  V30 36 H 3.4481 -2.57901 3.1188 0
M  V30 37 H 0.2031 -1.18979 4.58411 0
M  V30 38 H 0.6271 0.264344 6.76484 0
M  V30 39 H 5.2691 -0.93894 4.12242 0
M  V30 40 H 2.9871 1.2879 7.97771 0
M  V30 41 H 6.5731 0.314347 5.8095 0
M  V30 42 H 5.4531 1.4121 7.71381 0
M  V30 43 N 2.9562 -1.48159 -0.537278 0
M  V30 44 C 4.1962 -1.57397 -1.30405 0
M  V30 45 C 4.5602 -0.239202 -1.90504 0
M  V30 46 O 5.7612 -0.206528 -2.68005 0
M  V30 47 C 4.0322 -2.6754 -2.36974 0
M  V30 48 S 5.5912 -2.96496 -3.23475 0
M  V30 49 H 2.4092 -0.555577 -0.443684 0
M  V30 50 H 5.0112 -1.85644 -0.612912 0
M  V30 51 H 3.7152 -3.63092 -1.91291 0
M  V30 52 H 3.2462 -2.41172 -3.10805 0
M  V30 53 H 5.2612 -2.35234 -4.36897 0
M  V30 54 N 4.4343 0.785586 -1.36625 0
M  V30 55 C 5.6833 1.53883 -1.30396 0
M  V30 56 C 5.9963 1.95271 0.113452 0
M  V30 57 O 7.2023 2.69858 0.298142 0
M  V30 58 C 5.6583 2.77808 -2.28802 0
M  V30 59 C 5.2663 2.43574 -3.75999 0
M  V30 60 C 7.0103 3.55783 -2.31558 0
M  V30 61 C 4.9173 3.63919 -4.66173 0
M  V30 62 H 3.8473 0.577678 -0.484566 0
M  V30 63 H 6.4983 0.861705 -1.62009 0
M  V30 64 H 4.8803 3.47339 -1.90188 0
M  V30 65 H 6.0543 1.81916 -4.23371 0
M  V30 66 H 4.3693 1.78803 -3.76056 0
M  V30 67 H 6.9663 4.45205 -2.96137 0
M  V30 68 H 7.3093 3.94644 -1.3252 0
M  V30 69 H 7.8423 2.93235 -2.68809 0
M  V30 70 H 4.5813 3.3015 -5.66287 0
M  V30 71 H 4.1013 4.2473 -4.23515 0
M  V30 72 H 5.7803 4.30901 -4.82632 0
M  V30 73 N 5.9124 1.20967 1.01018 0
M  V30 74 C 7.1584 1.02526 1.74975 0
M  V30 75 C 7.4914 -0.4408 1.89131 0
M  V30 76 O 6.7664 -1.32718 1.42184 0
M  V30 77 C 7.0494 1.71699 3.1653 0
M  V30 78 C 6.9024 3.25791 3.10129 0
M  V30 79 C 8.2214 1.45531 4.15342 0
M  V30 80 H 5.3404 0.373863 0.635134 0
M  V30 81 H 7.9824 1.49071 1.17805 0
M  V30 82 H 6.1324 1.32128 3.65341 0
M  V30 83 H 7.8044 3.74697 2.69072 0
M  V30 84 H 6.0474 3.56363 2.47362 0
M  V30 85 H 6.7184 3.69353 4.10222 0
M  V30 86 H 9.1944 1.79872 3.75213 0
M  V30 87 H 8.0704 1.96453 5.1254 0
M  V30 88 H 8.3314 0.384237 4.40427 0
M  V30 89 N 7.3905 -1.2043 1.01659 0
M  V30 90 C 8.3205 -2.25466 0.607226 0
M  V30 91 C 9.3015 -1.65853 -0.377716 0
M  V30 92 O 10.4865 -1.92409 -0.263149 0
M  V30 93 C 7.6165 -3.47256 -0.0552949 0
M  V30 94 C 6.5705 -4.19462 0.850632 0
M  V30 95 C 5.8965 -5.34673 0.0538859 0
M  V30 96 C 7.1965 -4.75603 2.15868 0
M  V30 97 H 8.8905 -2.59962 1.48526 0
M  V30 98 H 6.4365 -1.2496 0.715605 0
M  V30 99 H 8.3895 -4.19917 -0.353233 0
M  V30 100 H 7.1135 -3.11924 -0.968045 0
M  V30 101 H 5.7725 -3.48667 1.13257 0
M  V30 102 H 5.4205 -4.95585 -0.860514 0
M  V30 103 H 5.1205 -5.83913 0.657192 0
M  V30 104 H 6.6445 -6.10138 -0.237598 0
M  V30 105 H 8.0585 -5.40083 1.92311 0
M  V30 106 H 6.4555 -5.3528 2.71284 0
M  V30 107 H 7.5255 -3.94346 2.82169 0
M  V30 108 N 8.8686 -0.792821 -1.36206 0
M  V30 109 C 10.1156 -0.366786 -1.99151 0
M  V30 110 C 10.4436 1.06243 -1.62919 0
M  V30 111 O 9.6986 1.74927 -0.877442 0
M  V30 112 C 9.9976 -0.481501 -3.54142 0
M  V30 113 C 9.6636 -1.87202 -4.10203 0
M  V30 114 C 8.3256 -2.25248 -4.25226 0
M  V30 115 C 10.6776 -2.78237 -4.40719 0
M  V30 116 C 8.0056 -3.53723 -4.68078 0
M  V30 117 C 10.3576 -4.06144 -4.85005 0
M  V30 118 C 9.0216 -4.44207 -4.98234 0
M  V30 119 H 8.2916 -0.134217 -0.728743 0
M  V30 120 H 10.9386 -1.01094 -1.62641 0
M  V30 121 H 9.2436 0.246146 -3.91026 0
M  V30 122 H 10.9406 -0.132844 -4.0078 0
M  V30 123 H 7.5306 -1.56639 -3.98951 0
M  V30 124 H 11.7146 -2.50097 -4.28679 0
M  V30 125 H 6.9706 -3.8308 -4.76508 0
M  V30 126 H 11.1446 -4.76796 -5.07581 0
M  V30 127 H 8.7716 -5.43814 -5.31197 0
M  V30 128 N 10.3467 1.47872 -0.545128 0
M  V30 129 C 11.5717 2.07391 -0.0190611 0
M  V30 130 C 11.9967 1.39688 1.25971 0
M  V30 131 O 11.3547 0.467816 1.7516 0
M  V30 132 C 11.4027 3.60188 0.172335 0
M  V30 133 O 10.5067 3.9339 1.23766 0
M  V30 134 H 9.8477 0.662411 -0.0459059 0
M  V30 135 H 12.3777 1.90066 -0.757365 0
M  V30 136 H 12.3877 4.06129 0.390305 0
M  V30 137 H 11.0627 4.08865 -0.761725 0
M  V30 138 H 9.6397 3.5921 1.00114 0
M  V30 139 N 11.8248 0.280983 1.55075 0
M  V30 140 C 12.7548 -0.597469 2.25727 0
M  V30 141 C 13.7358 -1.15417 1.24952 0
M  V30 142 O 14.9208 -1.18722 1.53684 0
M  V30 143 C 12.0508 -1.7789 2.98283 0
M  V30 144 C 11.0048 -1.35347 4.06036 0
M  V30 145 C 10.3308 -2.61846 4.66198 0
M  V30 146 C 11.6308 -0.499354 5.19907 0
M  V30 147 H 13.3248 -0.00824265 2.99399 0
M  V30 148 H 10.8708 -0.0025244 1.44 0
M  V30 149 H 12.8238 -2.39937 3.46422 0
M  V30 150 H 11.5478 -2.39405 2.22155 0
M  V30 151 H 10.2068 -0.756156 3.58717 0
M  V30 152 H 9.8548 -3.21632 3.86732 0
M  V30 153 H 9.5548 -2.3409 5.38958 0
M  V30 154 H 11.0788 -3.24732 5.1709 0
M  V30 155 H 12.4928 -1.02498 5.64063 0
M  V30 156 H 10.8898 -0.316424 5.99265 0
M  V30 157 H 11.9598 0.480459 4.82514 0
M  V30 158 N 13.3029 -1.57598 0.00835791 0
M  V30 159 C 14.2329 -2.1198 -0.979113 0
M  V30 160 C 15.2139 -1.03091 -1.35301 0
M  V30 161 O 16.3989 -1.30818 -1.43528 0
M  V30 162 C 13.5289 -2.62995 -2.26828 0
M  V30 163 C 12.4829 -3.76485 -2.03576 0
M  V30 164 C 11.8089 -4.13846 -3.38579 0
M  V30 165 C 13.1089 -5.0342 -1.39161 0
M  V30 166 H 14.8029 -2.94738 -0.526281 0
M  V30 167 H 12.3489 -1.41783 -0.251704 0
M  V30 168 H 14.3019 -2.99669 -2.96271 0
M  V30 169 H 13.0259 -1.7737 -2.7424 0
M  V30 170 H 11.6849 -3.40217 -1.36557 0
M  V30 171 H 11.3329 -3.25232 -3.83709 0
M  V30 172 H 11.0329 -4.90312 -3.23834 0
M  V30 173 H 12.5569 -4.53086 -4.09323 0
M  V30 174 H 13.9709 -5.37812 -1.98573 0
M  V30 175 H 12.3679 -5.84746 -1.34878 0
M  V30 176 H 13.4379 -4.83548 -0.361868 0
M  V30 177 N 14.781 0.264519 -1.55364 0
M  V30 178 C 15.744 1.31046 -1.88042 0
M  V30 179 C 16.744 1.41943 -0.755569 0
M  V30 180 O 17.934 1.40947 -1.02369 0
M  V30 181 C 15.066 2.69067 -2.09323 0
M  V30 182 H 16.259 1.03297 -2.81549 0
M  V30 183 H 13.812 0.502989 -1.47986 0
M  V30 184 H 14.547 3.01982 -1.18226 0
M  V30 185 H 14.332 2.62542 -2.91229 0
M  V30 186 H 15.822 3.44623 -2.35848 0
M  V30 187 N 16.2591 1.48442 0.529413 0
M  V30 188 C 17.5051 1.57699 1.28463 0
M  V30 189 C 17.8601 0.247913 1.90796 0
M  V30 190 O 17.1531 -0.749279 1.76342 0
M  V30 191 C 17.3471 2.6523 2.39558 0
M  V30 192 C 17.1761 4.08464 1.88114 0
M  V30 193 C 15.9461 4.75596 1.70693 0
M  V30 194 C 18.1441 4.94613 1.40935 0
M  V30 195 N 16.1261 6.03245 1.13881 0
M  V30 196 C 17.4971 6.12511 0.960734 0
M  V30 197 C 19.5521 4.80833 1.29243 0
M  V30 198 C 18.2551 7.18149 0.406792 0
M  V30 199 C 20.2811 5.86593 0.752487 0
M  V30 200 C 19.6431 7.037 0.313946 0
M  V30 201 H 15.7421 0.631608 0.46108 0
M  V30 202 H 18.3261 1.85325 0.596886 0
M  V30 203 H 16.4971 2.39425 3.05827 0
M  V30 204 H 18.2291 2.64169 3.06589 0
M  V30 205 H 14.9841 4.31938 1.94232 0
M  V30 206 H 15.4081 6.71324 0.874831 0
M  V30 207 H 20.0501 3.90635 1.61754 0
M  V30 208 H 17.7681 8.0807 0.0693671 0
M  V30 209 H 21.3541 5.77985 0.665192 0
M  V30 210 H 20.2341 7.8414 -0.0973632 0
M  V30 211 N 17.7372 -0.778329 1.37039 0
M  V30 212 C 18.9832 -1.53892 1.32079 0
M  V30 213 C 19.3162 -1.9396 -0.0965386 0
M  V30 214 O 18.5912 -1.63568 -1.05242 0
M  V30 215 C 18.8742 -2.80847 2.25382 0
M  V30 216 C 18.7272 -2.47076 3.75864 0
M  V30 217 C 20.0462 -3.82741 2.1725 0
M  V30 218 H 17.1652 -0.558303 0.48111 0
M  V30 219 H 19.8072 -0.893397 1.67685 0
M  V30 220 H 17.9572 -3.35931 1.95148 0
M  V30 221 H 19.6292 -1.97957 4.16666 0
M  V30 222 H 17.8722 -1.79863 3.94755 0
M  V30 223 H 18.5432 -3.37798 4.36574 0
M  V30 224 H 21.0192 -3.37133 2.43887 0
M  V30 225 H 19.8952 -4.69303 2.84686 0
M  V30 226 H 20.1562 -4.2652 1.16331 0
M  V30 227 N 19.2153 -1.21501 -1.00376 0
M  V30 228 C 20.4453 -1.05746 -1.77486 0
M  V30 229 C 20.8533 0.395655 -1.85017 0
M  V30 230 O 20.1963 1.28626 -1.31152 0
M  V30 231 C 20.2583 -1.58092 -3.22873 0
M  V30 232 C 19.9223 -3.06568 -3.38917 0
M  V30 233 C 20.9193 -4.04106 -3.271 0
M  V30 234 C 18.6043 -3.45799 -3.64319 0
M  V30 235 C 20.5983 -5.38862 -3.40451 0
M  V30 236 C 18.2853 -4.80707 -3.77311 0
M  V30 237 C 19.2833 -5.77047 -3.65384 0
M  V30 238 O 18.9713 -7.09507 -3.77961 0
M  V30 239 H 18.7033 -0.371778 -0.564586 0
M  V30 240 H 21.2573 -1.61319 -1.27143 0
M  V30 241 H 19.4873 -0.969163 -3.74358 0
M  V30 242 H 21.1763 -1.38162 -3.81662 0
M  V30 243 H 21.9423 -3.75141 -3.07399 0
M  V30 244 H 17.8213 -2.71344 -3.72684 0
M  V30 245 H 21.3653 -6.14041 -3.31058 0
M  V30 246 H 17.2623 -5.09357 -3.96517 0
M  V30 247 H 18.0303 -7.16935 -3.94901 0
M  V30 248 N 20.6934 1.19889 -1.02296 0
M  V30 249 C 21.6564 2.21116 -0.603351 0
M  V30 250 C 22.6564 1.5738 0.329884 0
M  V30 251 O 23.8464 1.73802 0.117702 0
M  V30 252 C 20.9784 3.40696 0.117992 0
M  V30 253 H 22.1714 2.59754 -1.49893 0
M  V30 254 H 19.7244 1.33463 -0.813468 0
M  V30 255 H 20.4594 3.07569 1.0282 0
M  V30 256 H 20.2444 3.88188 -0.552511 0
M  V30 257 H 21.7344 4.15692 0.398696 0
M  V30 258 N 22.1715 0.800033 1.35784 0
M  V30 259 C 23.0815 0.207204 2.33683 0
M  V30 260 C 24.0975 -0.64631 1.61551 0
M  V30 261 O 25.2735 -0.559604 1.93469 0
M  V30 262 C 22.3385 -0.639659 3.40748 0
M  V30 263 C 21.3995 0.233585 4.28664 0
M  V30 264 C 20.6325 -0.572954 5.30616 0
M  V30 265 O 20.8555 -1.80816 5.40982 0
M  V30 266 O 19.7895 0.0327285 6.01891 0
M  V30 267 H 23.6155 1.01692 2.86169 0
M  V30 268 H 21.2005 0.561691 1.38439 0
M  V30 269 H 23.0825 -1.12223 4.06182 0
M  V30 270 H 21.7575 -1.42708 2.90544 0
M  V30 271 H 20.6645 0.763147 3.66233 0
M  V30 272 H 21.9975 0.984784 4.82248 0
M  V30 273 N 23.6496 -1.47581 0.552962 0
M  V30 274 C 25.0606 -1.86324 0.118463 0
M  V30 275 C 25.4116 -1.46006 -1.3106 0
M  V30 276 O 24.5366 -0.861182 -1.98526 0
M  V30 277 C 25.1316 -3.3816 0.20821 0
M  V30 278 C 23.6906 -3.7601 -0.171226 0
M  V30 279 C 22.8376 -2.71634 0.557686 0
M  V30 280 H 25.7886 -1.39159 0.762928 0
M  V30 281 H 25.8096 -3.76141 -0.574278 0
M  V30 282 H 25.3216 -3.67473 1.24841 0
M  V30 283 H 23.4226 -3.52313 -1.21269 0
M  V30 284 H 23.5356 -4.78745 0.184379 0
M  V30 285 H 21.8996 -2.547 0.00125792 0
M  V30 286 H 22.6826 -3.0379 1.59896 0
M  V30 287 N 25.1277 -0.289203 -1.54924 0
M  V30 288 C 26.3557 0.326463 -2.04308 0
M  V30 289 C 26.7707 1.48413 -1.16701 0
M  V30 290 O 26.1277 1.81507 -0.190087 0
M  V30 291 C 26.1787 0.794014 -3.52672 0
M  V30 292 O 25.8997 -0.317564 -4.36948 0
M  V30 293 C 27.4007 1.47605 -4.18004 0
M  V30 294 H 24.6207 0.0726272 -0.667058 0
M  V30 295 H 27.1647 -0.425401 -2.00026 0
M  V30 296 H 25.3197 1.49593 -3.57352 0
M  V30 297 H 25.7337 0.0443186 -5.24481 0
M  V30 298 H 27.2077 1.75447 -5.23376 0
M  V30 299 H 27.6847 2.41224 -3.67025 0
M  V30 300 H 28.2907 0.81762 -4.17367 0
M  V30 301 N 26.6058 1.57591 -0.0167156 0
M  V30 302 C 27.5388 2.04944 1.00366 0
M  V30 303 C 28.5168 0.942648 1.32487 0
M  V30 304 O 29.7008 1.21205 1.44367 0
M  V30 305 C 26.8278 2.46109 2.32697 0
M  V30 306 C 25.8738 3.67686 2.16123 0
M  V30 307 S 26.7068 5.14882 1.47161 0
M  V30 308 C 27.8628 5.59332 2.80888 0
M  V30 309 H 28.0958 2.91172 0.600528 0
M  V30 310 H 25.6288 1.53168 0.194632 0
M  V30 311 H 27.5868 2.70493 3.08778 0
M  V30 312 H 26.2478 1.6025 2.70146 0
M  V30 313 H 25.4408 3.94296 3.13922 0
M  V30 314 H 25.0428 3.43391 1.48185 0
M  V30 315 H 27.3348 5.62814 3.77156 0
M  V30 316 H 28.2778 6.5905 2.58958 0
M  V30 317 H 28.6858 4.86942 2.85565 0
M  V30 318 N 28.0839 -0.256276 1.55502 0
M  V30 319 C 29.3139 -1.00196 1.80677 0
M  V30 320 C 29.7219 -1.79805 0.588797 0
M  V30 321 O 29.0649 -1.78055 -0.451883 0
M  V30 322 C 29.1269 -1.99515 2.99055 0
M  V30 323 C 28.7909 -1.38688 4.35448 0
M  V30 324 C 29.7879 -0.794079 5.138 0
M  V30 325 C 27.4729 -1.40906 4.82132 0
M  V30 326 C 29.4669 -0.231562 6.36979 0
M  V30 327 C 27.1539 -0.842684 6.05262 0
M  V30 328 C 28.1519 -0.254953 6.82524 0
M  V30 329 O 27.8399 0.3027 8.0333 0
M  V30 330 H 27.5719 -0.300919 0.60533 0
M  V30 331 H 30.1259 -0.287307 2.03381 0
M  V30 332 H 28.3559 -2.74785 2.72084 0
M  V30 333 H 30.0449 -2.60349 3.11405 0
M  V30 334 H 30.8109 -0.769519 4.78856 0
M  V30 335 H 26.6899 -1.85591 4.21992 0
M  V30 336 H 30.2339 0.227816 6.97228 0
M  V30 337 H 26.1309 -0.86454 6.39684 0
M  V30 338 H 26.8989 0.193662 8.18271 0
M  V30 339 N 29.562 -1.4872 -0.521534 0
M  V30 340 C 30.81 -1.56857 -1.27437 0
M  V30 341 C 31.131 -0.247982 -1.93417 0
M  V30 342 O 30.401 0.731151 -1.81744 0
M  V30 343 H 28.981 -0.577885 -0.473347 0
M  V30 344 H 31.643 -1.85233 -0.606205 0
M  V30 345 H 30.739 -2.35402 -2.0492 0
M  V30 346 N 31.0401 0.771051 -1.3745 0
M  V30 347 C 31.9501 1.91538 -1.35464 0
M  V30 348 C 32.9661 1.72134 -0.254123 0
M  V30 349 O 34.1421 1.95358 -0.489626 0
M  V30 350 C 31.2071 3.26671 -1.16134 0
M  V30 351 C 30.2681 3.58723 -2.35831 0
M  V30 352 C 29.5011 4.87409 -2.17413 0
M  V30 353 O 29.7241 5.58506 -1.15876 0
M  V30 354 O 28.6581 5.18539 -3.05615 0
M  V30 355 H 32.4841 1.96165 -2.31847 0
M  V30 356 H 30.0691 0.9139 -1.18187 0
M  V30 357 H 31.9511 4.07499 -1.07345 0
M  V30 358 H 30.6261 3.22894 -0.228251 0
M  V30 359 H 29.5331 2.78127 -2.50192 0
M  V30 360 H 30.8661 3.67243 -3.27709 0
M  V30 361 N 32.5182 1.22032 0.997298 0
M  V30 362 C 33.7672 1.03637 1.73038 0
M  V30 363 C 34.0802 -0.429475 1.90827 0
M  V30 364 O 35.2862 -0.732995 2.61418 0
M  V30 365 C 33.7422 1.80582 3.11317 0
M  V30 366 C 33.3502 3.31387 3.01474 0
M  V30 367 C 35.0942 1.70621 3.88701 0
M  V30 368 C 33.0012 4.00791 4.3488 0
M  V30 369 H 31.9312 0.384179 0.648785 0
M  V30 370 H 34.5822 1.4584 1.11368 0
M  V30 371 H 32.9642 1.31175 3.73643 0
M  V30 372 H 34.1382 3.88155 2.4834 0
M  V30 373 H 32.4532 3.41976 2.37575 0
M  V30 374 H 35.0502 2.19799 4.87434 0
M  V30 375 H 35.3932 0.665823 4.10941 0
M  V30 376 H 35.9262 2.17547 3.33044 0
M  V30 377 H 32.6652 5.05064 4.1784 0
M  V30 378 H 32.1852 3.48811 4.87945 0
M  V30 379 H 33.8642 4.06139 5.03647 0
M  V30 380 N 33.9963 -1.19345 1.0293 0
M  V30 381 C 34.9263 -2.2481 0.631105 0
M  V30 382 C 35.9073 -1.66245 -0.360104 0
M  V30 383 O 37.0923 -1.92677 -0.242726 0
M  V30 384 C 34.2223 -3.47295 -0.0184607 0
M  V30 385 C 33.1763 -4.18536 0.895073 0
M  V30 386 C 32.5023 -5.34586 0.110592 0
M  V30 387 C 33.8023 -4.73287 2.209 0
M  V30 388 H 35.4963 -2.58372 1.51275 0
M  V30 389 H 33.0423 -1.24194 0.728818 0
M  V30 390 H 34.9953 -4.20268 -0.308675 0
M  V30 391 H 33.7193 -3.12933 -0.934907 0
M  V30 392 H 32.3783 -3.47446 1.16949 0
M  V30 393 H 32.0263 -4.96469 -0.807902 0
M  V30 394 H 31.7263 -5.83183 0.719087 0
M  V30 395 H 33.2503 -6.10355 -0.172871 0
M  V30 396 H 34.6643 -5.38013 1.98028 0
M  V30 397 H 33.0613 -5.32373 2.76946 0
M  V30 398 H 34.1313 -3.91331 2.86336 0
M  V30 399 N 35.4744 -0.807222 -1.35358 0
M  V30 400 C 36.6994 -0.399309 -2.0352 0
M  V30 401 C 37.1244 0.981986 -1.60433 0
M  V30 402 O 36.4824 1.63601 -0.781299 0
M  V30 403 C 36.5304 -0.491552 -3.57234 0
M  V30 404 O 35.6344 0.494754 -4.09421 0
M  V30 405 H 34.9754 -0.166682 -0.642739 0
M  V30 406 H 37.5054 -1.09328 -1.72941 0
M  V30 407 H 37.5154 -0.361588 -4.06395 0
M  V30 408 H 36.1904 -1.49907 -3.87944 0
M  V30 409 H 34.7674 0.324977 -3.71481 0
M  V30 410 N 36.9525 1.47285 -0.560781 0
M  V30 411 C 38.3635 1.86258 -0.128343 0
M  V30 412 C 38.7145 1.46699 1.30284 0
M  V30 413 O 37.8395 0.871698 1.98067 0
M  V30 414 C 38.4345 3.38044 -0.22614 0
M  V30 415 C 36.9935 3.76096 0.151283 0
M  V30 416 C 36.1405 2.71335 -0.572084 0
M  V30 417 H 39.0915 1.38752 -0.770297 0
M  V30 418 H 39.1125 3.76441 0.554322 0
M  V30 419 H 38.6245 3.66806 -1.26788 0
M  V30 420 H 36.7255 3.52951 1.19399 0
M  V30 421 H 36.8385 4.78641 -0.209765 0
M  V30 422 H 35.2025 2.54696 -0.0147653 0
M  V30 423 H 35.9855 3.02938 -1.61504 0
M  V30 424 N 38.4306 0.297415 1.54768 0
M  V30 425 C 39.3786 -0.596051 2.24833 0
M  V30 426 C 40.3726 -1.13992 1.25308 0
M  V30 427 O 41.5786 -1.09098 1.4317 0
M  V30 428 H 37.9536 -0.210814 0.721846 0
M  V30 429 H 39.9246 0.0174667 2.98395 0
M  V30 430 C 38.6736 -1.75818 2.99972 0
M  V30 431 H 37.9966 -1.3489 3.76357 0
M  V30 432 H 39.4366 -2.35949 3.52284 0
M  V30 433 C 37.8956 -2.66014 2.06732 0
M  V30 434 O 38.4256 -3.67009 1.63302 0
M  V30 435 N 36.6316 -2.33669 1.72763 0
M  V30 436 H 36.1786 -1.51586 2.08277 0
M  V30 437 H 36.1366 -2.94285 1.10652 0
M  V30 438 N 39.9087 -1.5758 0.0250728 0
M  V30 439 C 41.1387 -1.95646 -0.663783 0
M  V30 440 C 41.5467 -0.899935 -1.66427 0
M  V30 441 O 40.8897 0.127191 -1.83259 0
M  V30 442 C 40.9517 -3.29835 -1.43 0
M  V30 443 C 40.6157 -4.53197 -0.588305 0
M  V30 444 C 41.6127 -5.19726 0.13469 0
M  V30 445 C 39.2977 -4.99529 -0.526897 0
M  V30 446 C 41.2917 -6.30902 0.90781 0
M  V30 447 C 38.9787 -6.10589 0.24993 0
M  V30 448 C 39.9767 -6.76134 0.965994 0
M  V30 449 O 39.6647 -7.85062 1.7301 0
M  V30 450 H 39.3967 -0.649282 -0.188174 0
M  V30 451 H 41.9507 -2.05245 0.0799006 0
M  V30 452 H 40.1807 -3.16716 -2.21873 0
M  V30 453 H 41.8697 -3.52833 -2.00658 0
M  V30 454 H 42.6357 -4.84904 0.0965562 0
M  V30 455 H 38.5147 -4.48319 -1.07381 0
M  V30 456 H 42.0587 -6.81995 1.46724 0
M  V30 457 H 37.9557 -6.44849 0.289795 0
M  V30 458 H 38.7237 -8.01708 1.64944 0
M  V30 459 N 41.3868 0.248026 -1.55636 0
M  V30 460 C 42.7978 0.817177 -1.67866 0
M  V30 461 C 43.1488 1.86069 -0.622322 0
M  V30 462 O 42.2738 2.15157 0.231618 0
M  V30 463 C 42.8688 1.489 -3.04326 0
M  V30 464 C 41.4278 2.00587 -3.185 0
M  V30 465 C 40.5748 0.856573 -2.63739 0
M  V30 466 H 43.5258 0.0238579 -1.58682 0
M  V30 467 H 43.5468 2.35698 -2.98708 0
M  V30 468 H 43.0588 0.729279 -3.81186 0
M  V30 469 H 41.1598 2.79443 -2.4646 0
M  V30 470 H 41.2728 2.20402 -4.25393 0
M  V30 471 H 39.6368 1.25678 -2.21534 0
M  V30 472 H 40.4198 0.109953 -3.43124 0
M  V30 473 N 42.8649 1.48995 0.513639 0
M  V30 474 C 43.7969 1.60836 1.63293 0
M  V30 475 C 44.8099 0.491701 1.55197 0
M  V30 476 O 45.9989 0.763238 1.6136 0
M  V30 477 C 43.0989 1.53731 3.02027 0
M  V30 478 C 42.2719 2.80715 3.35437 0
M  V30 479 C 41.3309 2.66837 4.53525 0
M  V30 480 O 40.3569 3.40753 4.55934 0
M  V30 481 N 41.5589 1.77539 5.52684 0
M  V30 482 H 44.3239 2.57366 1.53566 0
M  V30 483 H 41.8849 1.45925 0.701259 0
M  V30 484 H 43.8769 1.42118 3.78926 0
M  V30 485 H 42.4469 0.651092 3.05744 0
M  V30 486 H 41.6669 3.06772 2.47557 0
M  V30 487 H 42.9549 3.64927 3.54551 0
M  V30 488 H 42.3529 1.16719 5.53528 0
M  V30 489 H 40.9099 1.71856 6.28736 0
M  V30 490 N 44.343 -0.763751 1.37857 0
M  V30 491 C 45.306 -1.85889 1.34081 0
M  V30 492 C 46.306 -1.58949 0.243277 0
M  V30 493 O 47.496 -1.66882 0.499589 0
M  V30 494 C 44.628 -3.23176 1.08489 0
M  V30 495 H 45.821 -1.90648 2.31502 0
M  V30 496 H 43.374 -0.964367 1.23003 0
M  V30 497 H 44.109 -3.24091 0.116318 0
M  V30 498 H 43.894 -3.44124 1.8794 0
M  V30 499 H 45.384 -4.03254 1.08517 0
M  V30 500 N 45.8211 -1.22559 -0.990812 0
M  V30 501 C 47.0511 -1.07623 -1.76355 0
M  V30 502 C 47.4591 0.37601 -1.85426 0
M  V30 503 O 46.8021 1.27228 -1.32509 0
M  V30 504 C 46.8641 -1.61507 -3.21179 0
M  V30 505 C 46.5281 -3.10146 -3.35646 0
M  V30 506 C 47.5251 -4.07553 -3.22796 0
M  V30 507 C 45.2101 -3.49644 -3.60631 0
M  V30 508 C 47.2041 -5.42442 -3.34716 0
M  V30 509 C 44.8911 -4.84682 -3.72192 0
M  V30 510 C 45.8891 -5.8089 -3.59243 0
M  V30 511 O 45.5771 -7.13476 -3.70415 0
M  V30 512 H 45.3091 -0.377745 -0.560611 0
M  V30 513 H 47.8631 -1.62658 -1.25425 0
M  V30 514 H 46.0931 -1.00881 -3.73309 0
M  V30 515 H 47.7821 -1.42202 -3.80175 0
M  V30 516 H 48.5481 -3.78381 -3.03403 0
M  V30 517 H 44.4271 -2.75282 -3.69785 0
M  V30 518 H 47.9711 -6.17518 -3.24526 0
M  V30 519 H 43.8681 -5.13534 -3.91092 0
M  V30 520 H 44.6361 -7.21083 -3.87275 0
M  V30 521 N 47.2992 1.18797 -1.03562 0
M  V30 522 C 48.7102 1.70322 -0.764676 0
M  V30 523 C 49.0612 1.82708 0.714996 0
M  V30 524 O 48.1862 1.50299 1.55689 0
M  V30 525 C 48.7812 3.09356 -1.38145 0
M  V30 526 C 47.3402 3.58114 -1.15895 0
M  V30 527 C 46.4872 2.34798 -1.4753 0
M  V30 528 H 49.4382 1.03543 -1.20268 0
M  V30 529 H 49.4592 3.72378 -0.781977 0
M  V30 530 H 48.9712 3.00309 -2.45837 0
M  V30 531 H 47.0722 3.72464 -0.100544 0
M  V30 532 H 47.1852 4.4184 -1.8524 0
M  V30 533 H 45.5492 2.38464 -0.894829 0
M  V30 534 H 46.3322 2.28375 -2.56319 0
M  V30 535 N 48.7773 0.814389 1.34928 0
M  V30 536 C 50.0023 0.410097 2.03305 0
M  V30 537 C 50.4273 -0.973464 1.60951 0
M  V30 538 O 49.7853 -1.63185 0.789964 0
M  V30 539 C 49.8333 0.51049 3.56968 0
M  V30 540 O 48.9373 -0.473035 4.09678 0
M  V30 541 H 48.2783 0.170088 0.641846 0
M  V30 542 H 50.8083 1.10244 1.72358 0
M  V30 543 H 50.8183 0.383135 4.06197 0
M  V30 544 H 49.4933 1.51963 3.87144 0
M  V30 545 H 48.0703 -0.305272 3.71648 0
M  V30 546 N 50.2554 -1.46986 0.568584 0
M  V30 547 C 51.1654 -2.33942 -0.17555 0
M  V30 548 C 52.1814 -1.48891 -0.90041 0
M  V30 549 O 53.3574 -1.81794 -0.86676 0
M  V30 550 C 50.4224 -3.25811 -1.18524 0
M  V30 551 C 49.4834 -4.26757 -0.466582 0
M  V30 552 C 48.7164 -5.14236 -1.42817 0
M  V30 553 O 48.9394 -5.04379 -2.66379 0
M  V30 554 O 47.8734 -5.94412 -0.946453 0
M  V30 555 H 51.6994 -2.98896 0.538036 0
M  V30 556 H 49.2844 -1.4573 0.329097 0
M  V30 557 H 51.1664 -3.82527 -1.76779 0
M  V30 558 H 49.8414 -2.63471 -1.88055 0
M  V30 559 H 48.7484 -3.73769 0.157451 0
M  V30 560 H 50.0814 -4.91843 0.187485 0
M  V30 561 N 51.7335 -0.305618 -1.54608 0
M  V30 562 C 52.9795 0.302746 -2.00528 0
M  V30 563 C 53.3125 1.53184 -1.19367 0
M  V30 564 O 52.5875 1.92598 -0.271321 0
M  V30 565 C 52.8705 0.654756 -3.54097 0
M  V30 566 C 52.7235 -0.583793 -4.45995 0
M  V30 567 C 54.0425 1.47947 -4.14487 0
M  V30 568 H 51.1615 0.108564 -0.72896 0
M  V30 569 H 53.8035 -0.418634 -1.85331 0
M  V30 570 H 51.9535 1.26935 -3.67178 0
M  V30 571 H 53.6255 -1.22224 -4.44814 0
M  V30 572 H 51.8685 -1.21615 -4.16404 0
M  V30 573 H 52.5395 -0.293287 -5.5122 0
M  V30 574 H 55.0155 0.96013 -4.04871 0
M  V30 575 H 53.8915 1.69454 -5.22088 0
M  V30 576 H 54.1525 2.47011 -3.66658 0
M  V30 577 N 53.2116 1.57565 -0.0334293 0
M  V30 578 C 54.1216 2.13943 0.962572 0
M  V30 579 C 55.1376 1.09276 1.35406 0
M  V30 580 O 56.3136 1.41355 1.4346 0
M  V30 581 C 53.3786 2.65887 2.22497 0
M  V30 582 C 52.4396 3.85286 1.8935 0
M  V30 583 C 51.6726 4.34743 3.09571 0
M  V30 584 O 51.8956 3.83352 4.22371 0
M  V30 585 O 50.8296 5.26538 2.91618 0
M  V30 586 H 54.6556 2.99333 0.513169 0
M  V30 587 H 52.2406 1.4822 0.18743 0
M  V30 588 H 54.1226 2.99346 2.96598 0
M  V30 589 H 52.7976 1.83578 2.6661 0
M  V30 590 H 51.7046 3.56746 1.1262 0
M  V30 591 H 53.0376 4.68771 1.5005 0
M  V30 592 N 54.6897 -0.239769 1.55765 0
M  V30 593 C 55.6367 -1.29696 1.90913 0
M  V30 594 C 56.6067 -1.47478 0.764164 0
M  V30 595 O 57.7917 -1.61345 1.01845 0
M  V30 596 C 54.9317 -2.64598 2.21544 0
M  V30 597 C 54.0447 -2.54765 3.48882 0
M  V30 598 C 53.1797 -3.82069 3.69049 0
M  V30 599 C 52.2187 -3.66883 4.89963 0
M  V30 600 N 51.3557 -4.86094 5.06614 0
M  V30 601 H 56.1957 -0.990224 2.81067 0
M  V30 602 H 53.7327 -0.477684 1.39128 0
M  V30 603 H 55.6907 -3.43132 2.3731 0
M  V30 604 H 54.3207 -2.93405 1.34585 0
M  V30 605 H 53.3727 -1.67763 3.41409 0
M  V30 606 H 54.6847 -2.39457 4.37563 0
M  V30 607 H 53.8387 -4.69046 3.84812 0
M  V30 608 H 52.5777 -4.00282 2.78614 0
M  V30 609 H 51.5827 -2.78289 4.74168 0
M  V30 610 H 52.8077 -3.50157 5.81865 0
M  V30 611 H 50.7537 -5.04655 4.19117 0
M  V30 612 H 50.6707 -4.73443 5.89396 0
M  V30 613 H 51.9387 -5.74549 5.26795 0
M  V30 614 N 56.1678 -1.49265 -0.50573 0
M  V30 615 C 57.3928 -1.62478 -1.28902 0
M  V30 616 C 57.8178 -0.294332 -1.85783 0
M  V30 617 O 57.1758 0.737412 -1.65626 0
M  V30 618 C 57.2238 -2.69268 -2.39848 0
M  V30 619 O 56.3278 -2.28113 -3.43567 0
M  V30 620 H 55.6688 -0.54399 -0.380751 0
M  V30 621 H 58.1988 -1.95421 -0.605952 0
M  V30 622 H 58.2088 -2.91291 -2.85681 0
M  V30 623 H 56.8838 -3.65846 -1.97812 0
M  V30 624 H 55.4608 -2.16401 -3.03685 0
M  V30 625 N 57.6459 0.756429 -1.3826 0
M  V30 626 C 58.8919 1.5168 -1.35517 0
M  V30 627 C 59.2469 1.9232 0.0554451 0
M  V30 628 O 58.5399 1.62352 1.01746 0
M  V30 629 C 58.7339 2.78313 -2.24224 0
M  V30 630 C 58.5629 2.50053 -3.7377 0
M  V30 631 C 57.3329 2.43414 -4.42807 0
M  V30 632 C 59.5309 2.1702 -4.66269 0
M  V30 633 N 57.5129 2.07398 -5.77805 0
M  V30 634 C 58.8839 1.91271 -5.89759 0
M  V30 635 C 60.9389 2.03305 -4.54501 0
M  V30 636 C 59.6419 1.53192 -7.02798 0
M  V30 637 C 61.6679 1.66627 -5.67441 0
M  V30 638 C 61.0299 1.4175 -6.8999 0
M  V30 639 H 57.1289 0.554735 -0.551174 0
M  V30 640 H 59.7129 0.881106 -1.73622 0
M  V30 641 H 57.8839 3.39696 -1.88311 0
M  V30 642 H 59.6159 3.44343 -2.12627 0
M  V30 643 H 56.3709 2.59789 -3.95988 0
M  V30 644 H 56.7949 1.92044 -6.4919 0
M  V30 645 H 61.4369 2.21215 -3.60311 0
M  V30 646 H 59.1549 1.34022 -7.96909 0
M  V30 647 H 62.7409 1.56652 -5.60314 0
M  V30 648 H 61.6209 1.1379 -7.759 0
M  V30 649 N 59.124 1.23083 0.984299 0
M  V30 650 C 60.401 0.9689 1.69917 0
M  V30 651 C 60.781 -0.513604 2.04757 0
M  V30 652 O 60.129 -1.48383 1.73767 0
M  V30 653 C 60.339 1.87518 2.94343 0
M  V30 654 C 61.687 2.13636 3.6694 0
M  V30 655 O 62.711 1.85036 3.04368 0
M  V30 656 O 61.57 2.62119 4.79537 0
M  V30 657 H 58.664 0.365095 0.742048 0
M  V30 658 H 61.21 1.34107 1.03987 0
M  V30 659 H 59.982 2.87756 2.65164 0
M  V30 660 H 59.605 1.50514 3.6801 0
M  V30 661 N 60.6021 -1.18246 1.0419 0
M  V30 662 C 61.8511 -1.87588 0.741194 0
M  V30 663 C 62.1641 -1.81303 -0.734066 0
M  V30 664 O 63.3701 -2.46019 -1.14834 0
M  V30 665 C 61.8261 -3.36538 1.27555 0
M  V30 666 C 61.4341 -3.51349 2.77953 0
M  V30 667 C 63.1781 -4.11273 1.05143 0
M  V30 668 C 61.0851 -4.94265 3.2474 0
M  V30 669 H 60.0151 -0.702622 0.273565 0
M  V30 670 H 62.6661 -1.33601 1.25789 0
M  V30 671 H 61.0481 -3.9 0.686703 0
M  V30 672 H 62.2221 -3.08153 3.42605 0
M  V30 673 H 60.5371 -2.90022 2.98791 0
M  V30 674 H 63.1341 -5.16689 1.37611 0
M  V30 675 H 63.4771 -4.16298 -0.0112774 0
M  V30 676 H 64.0101 -3.63987 1.60495 0
M  V30 677 H 60.7491 -4.94408 4.30396 0
M  V30 678 H 60.2691 -5.38172 2.64823 0
M  V30 679 H 61.9481 -5.62987 3.18834 0
M  V30 680 N 62.0802 -0.821533 -1.34494 0
M  V30 681 C 62.9902 -0.244355 -2.33324 0
M  V30 682 C 64.0062 0.620527 -1.62559 0
M  V30 683 O 65.1822 0.528754 -1.94335 0
M  V30 684 C 62.2472 0.585368 -3.41723 0
M  V30 685 C 61.3082 -0.301752 -4.28238 0
M  V30 686 C 60.5412 0.488466 -5.3146 0
M  V30 687 O 60.7642 1.72186 -5.4379 0
M  V30 688 O 59.6982 -0.12848 -6.01763 0
M  V30 689 H 63.5242 -1.06231 -2.84515 0
M  V30 690 H 61.1092 -0.583645 -1.37528 0
M  V30 691 H 62.9912 1.05747 -4.07916 0
M  V30 692 H 61.6662 1.38068 -2.92778 0
M  V30 693 H 60.5732 -0.821315 -3.64973 0
M  V30 694 H 61.9062 -1.06138 -4.8062 0
M  V30 695 N 63.5583 1.46682 -0.576371 0
M  V30 696 C 64.8043 2.02712 -0.0596221 0
M  V30 697 C 65.1373 1.44765 1.29448 0
M  V30 698 O 64.4123 0.610355 1.84675 0
M  V30 699 C 64.6953 3.60098 0.0129503 0
M  V30 700 C 64.5483 4.28441 -1.3696 0
M  V30 701 C 65.8673 4.34224 0.71678 0
M  V30 702 H 62.9863 0.736637 -0.0231407 0
M  V30 703 H 65.6283 1.74898 -0.742351 0
M  V30 704 H 63.7783 3.83926 0.594378 0
M  V30 705 H 65.4503 4.15896 -1.9957 0
M  V30 706 H 63.6933 3.8805 -1.93907 0
M  V30 707 H 64.3643 5.3716 -1.27135 0
M  V30 708 H 66.8403 4.15503 0.222908 0
M  V30 709 H 65.7163 5.43936 0.73657 0
M  V30 710 H 65.9773 4.04823 1.77682 0
M  V30 711 N 65.0364 0.313813 1.54444 0
M  V30 712 C 66.4474 -0.176243 1.85866 0
M  V30 713 C 66.7984 -1.52405 1.23561 0
M  V30 714 O 65.9234 -2.09605 0.538016 0
M  V30 715 C 66.5184 -0.32657 3.37222 0
M  V30 716 C 65.0774 -0.760846 3.6863 0
M  V30 717 C 64.2244 0.123247 2.77026 0
M  V30 718 H 67.1754 0.534418 1.49431 0
M  V30 719 H 67.1964 -1.15908 3.62416 0
M  V30 720 H 66.7084 0.654531 3.82541 0
M  V30 721 H 64.8094 -1.75204 3.28838 0
M  V30 722 H 64.9224 -0.571353 4.75681 0
M  V30 723 H 63.2864 -0.399597 2.51546 0
M  V30 724 H 64.0694 1.10094 3.25168 0
M  V30 725 N 66.5145 -1.57545 0.0417849 0
M  V30 726 C 67.4245 -2.14451 -0.951213 0
M  V30 727 C 68.4405 -1.09992 -1.34825 0
M  V30 728 O 69.6165 -1.42114 -1.42708 0
M  V30 729 C 66.6815 -2.67063 -2.21084 0
M  V30 730 C 65.7425 -3.86284 -1.87304 0
M  V30 731 C 64.9755 -4.36378 -3.07261 0
M  V30 732 O 65.1985 -3.85587 -4.20332 0
M  V30 733 O 64.1325 -5.28077 -2.88822 0
M  V30 734 H 67.9585 -2.99601 -0.497287 0
M  V30 735 H 65.5435 -1.48317 -0.179567 0
M  V30 736 H 67.4255 -3.00914 -2.95006 0
M  V30 737 H 66.1005 -1.84989 -2.65633 0
M  V30 738 H 65.0075 -3.57338 -1.10727 0
M  V30 739 H 66.3405 -4.6956 -1.47562 0
M  V30 740 N 67.9926 0.231505 -1.5589 0
M  V30 741 C 69.2406 0.955461 -1.78088 0
M  V30 742 C 69.5616 1.85262 -0.608533 0
M  V30 743 O 68.8316 1.92277 0.375035 0
M  V30 744 H 67.4116 0.355787 -0.656829 0
M  V30 745 H 70.0736 0.245751 -1.93344 0
M  V30 746 H 69.1696 1.56814 -2.69844 0
M  V30 747 N 69.4707 1.49531 0.497807 0
M  V30 748 C 70.7007 1.62657 1.27382 0
M  V30 749 C 71.1087 0.298488 1.86831 0
M  V30 750 O 70.4517 -0.72647 1.68725 0
M  V30 751 C 70.5137 2.6393 2.44093 0
M  V30 752 C 70.1777 4.08195 2.05489 0
M  V30 753 C 71.1747 4.949 1.59279 0
M  V30 754 C 68.8597 4.53948 2.15026 0
M  V30 755 C 70.8537 6.25397 1.23113 0
M  V30 756 C 68.5407 5.84458 1.78473 0
M  V30 757 C 69.5387 6.70006 1.32591 0
M  V30 758 O 69.2267 7.98083 0.965327 0
M  V30 759 H 68.9587 0.550429 0.392434 0
M  V30 760 H 71.5127 1.96325 0.603801 0
M  V30 761 H 69.7427 2.25449 3.14181 0
M  V30 762 H 71.4317 2.66552 3.06113 0
M  V30 763 H 72.1977 4.60779 1.51354 0
M  V30 764 H 68.0767 3.87525 2.4969 0
M  V30 765 H 71.6207 6.92125 0.872299 0
M  V30 766 H 67.5177 6.18107 1.86048 0
M  V30 767 H 68.2857 8.11122 1.09652 0
M  V30 768 N 70.9488 -0.749086 1.3866 0
M  V30 769 C 72.1968 -1.50535 1.34847 0
M  V30 770 C 72.5178 -1.94909 -0.0595016 0
M  V30 771 O 71.7878 -1.67973 -1.00806 0
M  V30 772 H 70.3678 -0.558395 0.49619 0
M  V30 773 H 73.0298 -0.890165 1.73384 0
M  V30 774 H 72.1258 -2.39413 2.00219 0
M  V30 775 N 72.4269 -1.23603 -0.977757 0
M  V30 776 C 73.6759 -1.06377 -1.71368 0
M  V30 777 C 73.9889 0.399062 -1.91486 0
M  V30 778 O 75.1949 0.691312 -2.62551 0
M  V30 779 C 73.6509 -1.85512 -3.08404 0
M  V30 780 C 73.2589 -3.36141 -2.96164 0
M  V30 781 C 75.0029 -1.76783 -3.85938 0
M  V30 782 C 72.9099 -4.07659 -4.28449 0
M  V30 783 H 71.8399 -0.394452 -0.642591 0
M  V30 784 H 74.4909 -1.47594 -1.09034 0
M  V30 785 H 72.8729 -1.37103 -3.71509 0
M  V30 786 H 74.0469 -3.92056 -2.42133 0
M  V30 787 H 72.3619 -3.45712 -2.32104 0
M  V30 788 H 74.9589 -2.27526 -4.83876 0
M  V30 789 H 75.3019 -0.731116 -4.0983 0
M  V30 790 H 75.8349 -2.22818 -3.2954 0
M  V30 791 H 72.5739 -5.11648 -4.09752 0
M  V30 792 H 72.0939 -3.5653 -4.82334 0
M  V30 793 H 73.7729 -4.141 -4.97122 0
M  V30 794 N 73.905 1.17692 -1.04816 0
M  V30 795 C 74.855 2.1952 -0.616042 0
M  V30 796 C 75.839 1.57147 0.345485 0
M  V30 797 O 77.031 1.76245 0.163325 0
M  V30 798 C 74.16 3.43298 0.0116917 0
M  V30 799 C 73.246 4.12777 -0.973435 0
M  V30 800 N 73.637 4.5814 -2.14339 0
M  V30 801 C 71.935 4.38747 -0.80108 0
M  V30 802 C 72.636 5.11713 -2.7663 0
M  V30 803 N 71.612 5.03686 -2.04453 0
M  V30 804 H 75.414 2.52293 -1.5075 0
M  V30 805 H 72.928 1.3398 -0.917776 0
M  V30 806 H 74.925 4.15519 0.339006 0
M  V30 807 H 73.585 3.12018 0.898593 0
M  V30 808 H 74.596 4.52349 -2.52191 0
M  V30 809 H 71.273 4.17485 0.0350934 0
M  V30 810 H 72.663 5.56962 -3.75823 0
M  V30 811 N 75.3831 0.828654 1.34056 0
M  V30 812 C 76.3131 0.269443 2.3194 0
M  V30 813 C 77.2941 -0.617247 1.58506 0
M  V30 814 O 78.4791 -0.542931 1.86456 0
M  V30 815 C 75.6091 -0.564793 3.42677 0
M  V30 816 C 74.5631 0.225241 4.27407 0
M  V30 817 C 73.8891 -0.7321 5.29664 0
M  V30 818 C 75.1891 1.43663 5.02154 0
M  V30 819 H 76.8831 1.08728 2.7896 0
M  V30 820 H 74.4291 0.524283 1.34117 0
M  V30 821 H 76.3821 -0.966233 4.10173 0
M  V30 822 H 75.1061 -1.41574 2.9432 0
M  V30 823 H 73.7651 0.608117 3.61521 0
M  V30 824 H 73.4131 -1.57916 4.77568 0
M  V30 825 H 73.1131 -0.20767 5.87233 0
M  V30 826 H 74.6371 -1.13128 6.00029 0
M  V30 827 H 76.0511 1.1089 5.62473 0
M  V30 828 H 74.4481 1.89711 5.69324 0
M  V30 829 H 75.5181 2.21181 4.31517 0
M  V30 830 N 76.8612 -1.46375 0.584142 0
M  V30 831 C 78.0912 -2.06461 0.0758195 0
M  V30 832 C 78.4992 -1.43322 -1.23512 0
M  V30 833 O 77.8422 -0.533216 -1.75791 0
M  V30 834 C 77.9042 -3.59131 -0.162773 0
M  V30 835 C 77.5682 -4.4447 1.06279 0
M  V30 836 C 78.5652 -4.80918 1.97519 0
M  V30 837 C 76.2502 -4.85584 1.28504 0
M  V30 838 C 78.2442 -5.57309 3.09331 0
M  V30 839 C 75.9312 -5.61734 2.4062 0
M  V30 840 C 76.9292 -5.9751 3.30863 0
M  V30 841 O 76.6172 -6.72121 4.41032 0
M  V30 842 H 76.3492 -0.673745 0.0551725 0
M  V30 843 H 78.9032 -1.88969 0.804984 0
M  V30 844 H 77.1332 -3.74936 -0.946565 0
M  V30 845 H 78.8222 -4.0114 -0.619782 0
M  V30 846 H 79.5882 -4.49732 1.81565 0
M  V30 847 H 75.4672 -4.57187 0.591702 0
M  V30 848 H 79.0112 -5.85152 3.79793 0
M  V30 849 H 74.9082 -5.92334 2.56537 0
M  V30 850 H 75.6762 -6.90547 4.39417 0
M  V30 851 N 78.3393 -0.321999 -1.54275 0
M  V30 852 C 79.5863 0.281044 -2.0054 0
M  V30 853 C 79.9143 1.52265 -1.21019 0
M  V30 854 O 79.1693 1.93687 -0.279982 0
M  V30 855 C 79.4683 0.661769 -3.5122 0
M  V30 856 C 79.1343 -0.480482 -4.48333 0
M  V30 857 C 77.7963 -0.794005 -4.74604 0
M  V30 858 C 80.1483 -1.24783 -5.06042 0
M  V30 859 C 77.4763 -1.87763 -5.55844 0
M  V30 860 C 79.8283 -2.32153 -5.88462 0
M  V30 861 C 78.4923 -2.64089 -6.13036 0
M  V30 862 H 77.7623 0.102841 -0.733829 0
M  V30 863 H 80.4093 -0.445453 -1.86247 0
M  V30 864 H 78.7143 1.46867 -3.63232 0
M  V30 865 H 80.4113 1.13989 -3.84457 0
M  V30 866 H 77.0013 -0.226039 -4.28004 0
M  V30 867 H 81.1853 -1.01887 -4.85729 0
M  V30 868 H 76.4413 -2.12954 -5.73115 0
M  V30 869 H 80.6153 -2.92057 -6.32199 0
M  V30 870 H 78.2423 -3.48185 -6.75775 0
M  V30 871 N 79.8174 1.5752 -0.0501392 0
M  V30 872 C 81.0454 1.96963 0.633492 0
M  V30 873 C 81.4604 0.927631 1.6444 0
M  V30 874 O 80.8174 -0.0882665 1.82286 0
M  V30 875 C 80.8684 3.36487 1.32132 0
M  V30 876 O 80.5894 4.36693 0.350894 0
M  V30 877 C 82.0904 3.90682 2.09481 0
M  V30 878 H 79.3104 0.648244 0.173266 0
M  V30 879 H 81.8544 2.0417 -0.116134 0
M  V30 880 H 80.0094 3.30434 2.02218 0
M  V30 881 H 80.4234 5.17702 0.841735 0
M  V30 882 H 81.8974 4.90591 2.5303 0
M  V30 883 H 82.3744 3.26053 2.94255 0
M  V30 884 H 82.9804 4.00069 1.44307 0
M  V30 885 N 81.2955 -0.223234 1.56011 0
M  V30 886 C 82.2455 -1.28008 1.88674 0
M  V30 887 C 83.2295 -1.42369 0.749663 0
M  V30 888 O 84.4215 -1.45212 1.01205 0
M  V30 889 C 81.5505 -2.63084 2.20548 0
M  V30 890 C 80.6365 -2.52632 3.40643 0
M  V30 891 N 81.0275 -2.11829 4.59306 0
M  V30 892 C 79.3255 -2.83594 3.44224 0
M  V30 893 C 80.0265 -2.12587 5.41463 0
M  V30 894 N 79.0025 -2.5301 4.81131 0
M  V30 895 H 82.8045 -0.955487 2.77935 0
M  V30 896 H 80.3185 -0.431801 1.56554 0
M  V30 897 H 82.3155 -3.39385 2.42122 0
M  V30 898 H 80.9755 -2.96391 1.32599 0
M  V30 899 H 81.9865 -1.82988 4.84496 0
M  V30 900 H 78.6635 -3.21284 2.66614 0
M  V30 901 H 80.0535 -1.83179 6.46448 0
M  V30 902 N 82.7736 -1.49793 -0.48987 0
M  V30 903 C 83.7036 -1.70201 -1.59856 0
M  V30 904 C 84.6846 -0.55076 -1.60937 0
M  V30 905 O 85.8696 -0.787841 -1.77501 0
M  V30 906 C 82.9996 -1.77882 -2.98287 0
M  V30 907 C 81.9536 -2.92907 -3.12073 0
M  V30 908 C 81.2796 -2.85712 -4.51965 0
M  V30 909 C 82.5796 -4.3369 -2.91051 0
M  V30 910 H 84.2736 -2.63025 -1.43032 0
M  V30 911 H 81.8196 -1.26574 -0.686664 0
M  V30 912 H 83.7726 -1.90744 -3.75759 0
M  V30 913 H 82.4966 -0.816653 -3.16225 0
M  V30 914 H 81.1556 -2.79665 -2.37029 0
M  V30 915 H 80.8036 -1.8738 -4.66795 0
M  V30 916 H 80.5036 -3.62921 -4.62128 0
M  V30 917 H 82.0276 -3.00598 -5.31482 0
M  V30 918 H 83.4416 -4.47555 -3.58284 0
M  V30 919 H 81.8386 -5.12205 -3.12675 0
M  V30 920 H 82.9086 -4.47362 -1.87071 0
M  V30 921 N 84.2517 0.741722 -1.39055 0
M  V30 922 C 85.5287 1.49252 -1.26425 0
M  V30 923 C 85.9087 2.10705 0.129144 0
M  V30 924 O 85.2567 1.98045 1.13976 0
M  V30 925 C 85.4667 2.54934 -2.38347 0
M  V30 926 C 86.8147 3.21506 -2.77343 0
M  V30 927 O 87.8387 2.65245 -2.37747 0
M  V30 928 O 86.6977 4.23294 -3.45665 0
M  V30 929 H 83.7917 0.662451 -0.495064 0
M  V30 930 H 86.3377 0.776121 -1.50912 0
M  V30 931 H 85.1097 2.07857 -3.31529 0
M  V30 932 H 84.7327 3.34141 -2.15489 0
M  V30 933 N 85.7298 1.2412 0.971189 0
M  V30 934 C 86.9788 1.07284 1.70801 0
M  V30 935 C 87.2918 -0.388902 1.91695 0
M  V30 936 O 88.4978 -0.677379 2.62914 0
M  V30 937 C 86.9538 1.87145 3.07416 0
M  V30 938 C 86.5618 3.37707 2.94377 0
M  V30 939 C 88.3058 1.78828 3.84995 0
M  V30 940 C 86.2128 4.09925 4.26281 0
M  V30 941 H 85.1428 0.397854 0.64049 0
M  V30 942 H 87.7938 1.4817 1.0825 0
M  V30 943 H 86.1758 1.39071 3.70777 0
M  V30 944 H 87.3498 3.93335 2.4005 0
M  V30 945 H 85.6648 3.46938 2.30267 0
M  V30 946 H 88.2618 2.30089 4.82662 0
M  V30 947 H 88.6048 0.75284 4.09436 0
M  V30 948 H 89.1378 2.24563 3.28354 0
M  V30 949 H 85.8768 5.13813 4.07033 0
M  V30 950 H 85.3968 3.59083 4.80437 0
M  V30 951 H 87.0758 4.1673 4.94919 0
M  V30 952 N 87.2079 -1.17134 1.05439 0
M  V30 953 C 88.1179 -2.24878 0.668365 0
M  V30 954 C 89.1339 -1.71186 -0.311687 0
M  V30 955 O 90.3099 -2.00738 -0.163161 0
M  V30 956 C 87.3749 -3.46662 0.051648 0
M  V30 957 C 86.4359 -4.15429 1.08246 0
M  V30 958 C 85.6689 -5.31399 0.495082 0
M  V30 959 O 85.8919 -5.66153 -0.694743 0
M  V30 960 O 84.8259 -5.89187 1.23056 0
M  V30 961 H 88.6519 -2.60189 1.56637 0
M  V30 962 H 86.2369 -1.24482 0.826104 0
M  V30 963 H 88.1189 -4.20394 -0.290966 0
M  V30 964 H 86.7939 -3.13142 -0.819971 0
M  V30 965 H 85.7009 -3.43704 1.47711 0
M  V30 966 H 87.0339 -4.52982 1.92532 0
M  V30 967 N 88.686 -0.835752 -1.33615 0
M  V30 968 C 89.616 -0.281739 -2.31794 0
M  V30 969 C 90.597 0.608833 -1.58831 0
M  V30 970 O 91.782 0.533035 -1.86741 0
M  V30 971 C 88.912 0.546612 -3.42971 0
M  V30 972 C 87.866 -0.247904 -4.27281 0
M  V30 973 C 87.192 0.704001 -5.30045 0
M  V30 974 C 88.492 -1.46324 -5.01385 0
M  V30 975 H 90.186 -1.10206 -2.78379 0
M  V30 976 H 87.732 -0.531388 -1.33837 0
M  V30 977 H 89.685 0.944467 -4.1068 0
M  V30 978 H 88.409 1.40011 -2.95067 0
M  V30 979 H 87.068 -0.627281 -3.61194 0
M  V30 980 H 86.716 1.55381 -4.78399 0
M  V30 981 H 86.416 0.176524 -5.87335 0
M  V30 982 H 87.94 1.09944 -6.0062 0
M  V30 983 H 89.354 -1.13871 -5.61877 0
M  V30 984 H 87.751 -1.92728 -5.6831 0
M  V30 985 H 88.821 -2.23467 -4.30338 0
M  V30 986 N 90.1641 1.46063 -0.591896 0
M  V30 987 C 91.3891 2.07226 -0.0850314 0
M  V30 988 C 91.8141 1.43625 1.21463 0
M  V30 989 O 91.1721 0.523305 1.73583 0
M  V30 990 C 91.2201 3.60554 0.0576567 0
M  V30 991 O 90.3241 3.97128 1.11188 0
M  V30 992 H 89.6651 0.660615 -0.0669568 0
M  V30 993 H 92.1951 1.8756 -0.81745 0
M  V30 994 H 92.2051 4.07165 0.2609 0
M  V30 995 H 90.8801 4.06235 -0.891416 0
M  V30 996 H 89.4571 3.62213 0.886356 0
M  V30 997 N 91.6422 0.330177 1.54103 0
M  V30 998 C 92.5522 -0.541534 2.28264 0
M  V30 999 C 93.5682 -1.12351 1.32866 0
M  V30 1000 O 94.7442 -1.14206 1.65888 0
M  V30 1001 C 91.8092 -1.68322 3.03098 0
M  V30 1002 C 90.8702 -1.13238 4.14096 0
M  V30 1003 C 90.1032 -2.21966 4.85352 0
M  V30 1004 O 90.3262 -3.42437 4.56172 0
M  V30 1005 O 89.2602 -1.87013 5.7211 0
M  V30 1006 H 93.0862 0.060938 3.03639 0
M  V30 1007 H 90.6712 0.09565 1.49093 0
M  V30 1008 H 92.5532 -2.34777 3.49939 0
M  V30 1009 H 91.2282 -2.27176 2.30593 0
M  V30 1010 H 90.1352 -0.432736 3.71589 0
M  V30 1011 H 91.4682 -0.588898 4.88664 0
M  V30 1012 N 93.1203 -1.57491 0.0584922 0
M  V30 1013 C 94.0683 -2.13148 -0.931168 0
M  V30 1014 C 95.0623 -1.06507 -1.31729 0
M  V30 1015 O 96.2683 -1.24906 -1.29609 0
M  V30 1016 H 92.6433 -0.68137 -0.31818 0
M  V30 1017 H 94.6143 -2.95187 -0.436707 0
M  V30 1018 C 93.3633 -2.69732 -2.19408 0
M  V30 1019 H 92.6863 -3.51454 -1.90578 0
M  V30 1020 H 94.1263 -3.12287 -2.86798 0
M  V30 1021 C 92.5853 -1.63855 -2.94369 0
M  V30 1022 O 93.1153 -1.05565 -3.87581 0
M  V30 1023 N 91.3213 -1.35202 -2.57233 0
M  V30 1024 H 90.8683 -1.82791 -1.81508 0
M  V30 1025 H 90.8263 -0.645922 -3.07693 0
M  V30 1026 N 94.5984 0.214957 -1.56127 0
M  V30 1027 C 95.8384 0.945364 -1.81224 0
M  V30 1028 C 96.2024 1.81265 -0.633005 0
M  V30 1029 O 97.4034 2.57731 -0.763423 0
M  V30 1030 C 95.6744 1.75665 -3.1125 0
M  V30 1031 S 97.2334 2.54179 -3.57685 0
M  V30 1032 H 94.0514 0.317443 -0.6362 0
M  V30 1033 H 96.6534 0.210381 -1.94365 0
M  V30 1034 H 95.3574 1.10977 -3.9511 0
M  V30 1035 H 94.8884 2.53381 -3.00934 0
M  V30 1036 H 96.9034 3.7792 -3.21545 0
M  V30 1037 N 96.0765 1.50051 0.48192 0
M  V30 1038 C 97.0395 1.67584 1.5636 0
M  V30 1039 C 98.0395 0.546894 1.51214 0
M  V30 1040 O 99.2295 0.813725 1.54026 0
M  V30 1041 C 96.3615 1.691 2.96003 0
M  V30 1042 H 97.5545 2.64078 1.42136 0
M  V30 1043 H 95.1075 1.39369 0.707533 0
M  V30 1044 H 95.8425 0.742589 3.15684 0
M  V30 1045 H 95.6275 2.51105 3.01146 0
M  V30 1046 H 97.1175 1.84656 3.74556 0
M  V30 1047 N 97.5546 -0.734337 1.39446 0
M  V30 1048 C 98.7846 -1.52137 1.39778 0
M  V30 1049 C 99.1926 -1.89198 -0.00929312 0
M  V30 1050 O 98.5356 -1.54666 -0.991168 0
M  V30 1051 C 98.5976 -2.83762 2.20724 0
M  V30 1052 C 98.2616 -2.69131 3.69347 0
M  V30 1053 C 99.2586 -2.37635 4.62413 0
M  V30 1054 C 96.9436 -2.85982 4.1294 0
M  V30 1055 C 98.9376 -2.23172 5.97054 0
M  V30 1056 C 96.6246 -2.71137 5.47657 0
M  V30 1057 C 97.6226 -2.39777 6.39528 0
M  V30 1058 O 97.3106 -2.25026 7.71763 0
M  V30 1059 H 97.0426 -0.476717 0.479288 0
M  V30 1060 H 99.5966 -0.915012 1.83893 0
M  V30 1061 H 97.8266 -3.4666 1.71359 0
M  V30 1062 H 99.5156 -3.45383 2.13226 0
M  V30 1063 H 100.282 -2.24267 4.30034 0
M  V30 1064 H 96.1606 -3.09383 3.41765 0
M  V30 1065 H 99.7046 -1.98617 6.68728 0
M  V30 1066 H 95.6016 -2.84083 5.79626 0
M  V30 1067 H 96.3696 -2.40091 7.82495 0
M  V30 1068 N 99.0327 -1.24633 -0.964593 0
M  V30 1069 C 100.31 -0.995809 -1.68354 0
M  V30 1070 C 100.69 0.480964 -2.05548 0
M  V30 1071 O 100.038 1.45599 -1.76105 0
M  V30 1072 C 100.248 -1.92177 -2.91323 0
M  V30 1073 C 101.596 -2.19446 -3.63495 0
M  V30 1074 O 102.62 -1.89855 -3.01386 0
M  V30 1075 O 101.479 -2.69714 -4.75307 0
M  V30 1076 H 98.5727 -0.376854 -0.736146 0
M  V30 1077 H 101.119 -1.35745 -1.0184 0
M  V30 1078 H 99.8907 -2.91938 -2.60553 0
M  V30 1079 H 99.5137 -1.56349 -3.65569 0
M  V30 1080 N 100.511 1.16574 -1.06058 0
M  V30 1081 C 101.736 1.91493 -0.796562 0
M  V30 1082 C 102.161 1.76773 0.642868 0
M  V30 1083 O 101.519 1.09142 1.44768 0
M  V30 1084 C 101.567 3.40293 -1.19303 0
M  V30 1085 O 100.671 4.11074 -0.330394 0
M  V30 1086 H 100.012 0.596678 -0.291326 0
M  V30 1087 H 102.542 1.47708 -1.41575 0
M  V30 1088 H 102.552 3.91057 -1.16356 0
M  V30 1089 H 101.227 3.50326 -2.24153 0
M  V30 1090 H 99.8038 3.70513 -0.421225 0
M  V30 1091 N 101.989 0.842826 1.3317 0
M  V30 1092 C 103.235 0.441099 1.97945 0
M  V30 1093 C 103.568 -0.998024 1.66593 0
M  V30 1094 O 102.843 -1.69839 0.947898 0
M  V30 1095 C 103.126 0.666841 3.53872 0
M  V30 1096 C 102.979 2.15352 3.94897 0
M  V30 1097 C 104.298 0.115544 4.39948 0
M  V30 1098 H 101.417 0.161739 0.719034 0
M  V30 1099 H 104.059 1.05907 1.57746 0
M  V30 1100 H 102.209 0.140828 3.88245 0
M  V30 1101 H 103.881 2.7447 3.70761 0
M  V30 1102 H 102.124 2.63653 3.44484 0
M  V30 1103 H 102.795 2.26221 5.03516 0
M  V30 1104 H 105.271 0.565213 4.12243 0
M  V30 1105 H 104.147 0.303152 5.48062 0
M  V30 1106 H 104.408 -0.980935 4.3108 0
M  V30 1107 N 103.467 -1.45747 0.599634 0
M  V30 1108 C 104.399 -2.28628 -0.161879 0
M  V30 1109 C 105.412 -1.39494 -0.839367 0
M  V30 1110 O 106.601 -1.63941 -0.706089 0
M  V30 1111 C 103.701 -3.15014 -1.24976 0
M  V30 1112 C 102.874 -4.32378 -0.660935 0
M  V30 1113 C 101.933 -5.00033 -1.63869 0
M  V30 1114 O 100.959 -5.57085 -1.1681 0
M  V30 1115 N 102.161 -4.98589 -2.97303 0
M  V30 1116 H 104.926 -2.94624 0.549265 0
M  V30 1117 H 102.487 -1.55847 0.438565 0
M  V30 1118 H 104.479 -3.5714 -1.9035 0
M  V30 1119 H 103.049 -2.5098 -1.86354 0
M  V30 1120 H 102.269 -3.9383 0.170688 0
M  V30 1121 H 103.557 -5.08197 -0.247619 0
M  V30 1122 H 102.955 -4.53514 -3.38145 0
M  V30 1123 H 101.512 -5.44603 -3.58121 0
M  V30 1124 N 104.945 -0.338344 -1.53925 0
M  V30 1125 C 106.194 0.260732 -2.00008 0
M  V30 1126 C 106.507 1.52073 -1.23017 0
M  V30 1127 O 107.713 2.19672 -1.5955 0
M  V30 1128 C 106.169 0.51515 -3.56194 0
M  V30 1129 C 105.777 -0.728645 -4.42035 0
M  V30 1130 C 107.521 1.07337 -4.10706 0
M  V30 1131 C 105.428 -0.445315 -5.89721 0
M  V30 1132 H 104.358 0.101205 -0.747177 0
M  V30 1133 H 107.009 -0.452866 -1.77824 0
M  V30 1134 H 105.391 1.28932 -3.74423 0
M  V30 1135 H 106.565 -1.50352 -4.35581 0
M  V30 1136 H 104.88 -1.20813 -3.98489 0
M  V30 1137 H 107.477 1.30022 -5.18651 0
M  V30 1138 H 107.82 2.0273 -3.63602 0
M  V30 1139 H 108.353 0.360034 -3.96167 0
M  V30 1140 H 105.092 -1.36883 -6.41049 0
M  V30 1141 H 104.612 0.291569 -5.99091 0
M  V30 1142 H 106.291 -0.0606218 -6.46972 0
M  V30 1143 N 106.423 1.57458 -0.0668435 0
M  V30 1144 C 107.672 1.92477 0.602947 0
M  V30 1145 C 107.985 0.948419 1.71068 0
M  V30 1146 O 109.191 1.19124 2.43971 0
M  V30 1147 C 107.647 3.41903 1.12383 0
M  V30 1148 C 107.255 4.47975 0.04737 0
M  V30 1149 C 108.999 3.85931 1.76797 0
M  V30 1150 C 106.906 5.88529 0.582022 0
M  V30 1151 H 105.836 0.718387 0.22899 0
M  V30 1152 H 108.487 1.82978 -0.138276 0
M  V30 1153 H 106.869 3.46459 1.91787 0
M  V30 1154 H 108.043 4.55029 -0.726978 0
M  V30 1155 H 106.358 4.13384 -0.500243 0
M  V30 1156 H 108.955 4.88322 2.17821 0
M  V30 1157 H 109.298 3.23029 2.62599 0
M  V30 1158 H 109.831 3.83958 1.04024 0
M  V30 1159 H 106.57 6.55065 -0.238721 0
M  V30 1160 H 106.09 5.85004 1.324 0
M  V30 1161 H 107.769 6.38258 1.05999 0
M  V30 1162 N 107.901 -0.206675 1.56239 0
M  V30 1163 C 109.126 -0.949474 1.8439 0
M  V30 1164 C 109.551 -1.76549 0.649016 0
M  V30 1165 O 108.909 -1.76782 -0.402231 0
M  V30 1166 C 108.957 -1.83078 3.10668 0
M  V30 1167 O 108.061 -2.9281 2.90407 0
M  V30 1168 H 107.402 -0.268033 0.607499 0
M  V30 1169 H 109.932 -0.215488 2.03462 0
M  V30 1170 H 109.942 -2.2377 3.41161 0
M  V30 1171 H 108.617 -1.23112 3.97261 0
M  V30 1172 H 107.194 -2.55956 2.71184 0
M  V30 1173 N 109.379 -1.50304 -0.473955 0
M  V30 1174 C 110.627 -1.60832 -1.22382 0
M  V30 1175 C 110.948 -0.30939 -1.9253 0
M  V30 1176 O 110.218 0.67296 -1.83978 0
M  V30 1177 H 108.798 -0.592652 -0.454723 0
M  V30 1178 H 111.46 -1.87068 -0.546968 0
M  V30 1179 H 110.556 -2.41803 -1.97327 0
M  V30 1180 N 110.857 0.726932 -1.39834 0
M  V30 1181 C 112.134 1.47902 -1.28001 0
M  V30 1182 C 112.514 2.1083 0.106789 0
M  V30 1183 O 111.862 1.99242 1.11869 0
M  V30 1184 C 112.072 2.52392 -2.41038 0
M  V30 1185 C 113.42 3.18546 -2.80737 0
M  V30 1186 O 114.444 2.62708 -2.40547 0
M  V30 1187 O 113.303 4.19604 -3.50135 0
M  V30 1188 H 110.397 0.657163 -0.502062 0
M  V30 1189 H 112.943 0.760071 -1.51727 0
M  V30 1190 H 111.715 2.04329 -3.33715 0
M  V30 1191 H 111.338 3.31837 -2.19021 0
M  V30 1192 N 112.336 1.25143 0.95797 0
M  V30 1193 C 113.564 1.12424 1.73691 0
M  V30 1194 C 113.979 -0.322304 1.86029 0
M  V30 1195 O 113.336 -1.22186 1.35561 0
M  V30 1196 C 113.387 1.76933 3.15241 0
M  V30 1197 O 113.108 3.15932 3.03511 0
M  V30 1198 C 114.609 1.6995 4.09429 0
M  V30 1199 H 111.829 0.3923 0.544373 0
M  V30 1200 H 114.373 1.6544 1.20207 0
M  V30 1201 H 112.528 1.27895 3.6568 0
M  V30 1202 H 112.942 3.47598 3.9278 0
M  V30 1203 H 114.416 2.19753 5.06372 0
M  V30 1204 H 114.893 0.662619 4.34173 0
M  V30 1205 H 115.499 2.18461 3.64904 0
M  V30 1206 N 113.814 -1.1601 1.06675 0
M  V30 1207 C 114.724 -2.24156 0.692179 0
M  V30 1208 C 115.74 -1.71507 -0.293513 0
M  V30 1209 O 116.916 -2.009 -0.141861 0
M  V30 1210 C 113.981 -3.46587 0.0884131 0
M  V30 1211 C 113.042 -4.14257 1.12646 0
M  V30 1212 C 112.275 -5.30844 0.551416 0
M  V30 1213 O 112.498 -5.66858 -0.634656 0
M  V30 1214 O 111.432 -5.87848 1.29298 0
M  V30 1215 H 115.258 -2.58513 1.59388 0
M  V30 1216 H 112.843 -1.23599 0.83926 0
M  V30 1217 H 114.725 -4.20679 -0.246361 0
M  V30 1218 H 113.4 -3.13994 -0.786712 0
M  V30 1219 H 112.307 -3.42118 1.51348 0
M  V30 1220 H 113.64 -4.50914 1.97325 0
M  V30 1221 N 115.292 -0.849877 -1.32721 0
M  V30 1222 C 116.202 -0.293791 -2.32753 0
M  V30 1223 C 117.218 0.585906 -1.63839 0
M  V30 1224 O 118.394 0.487413 -1.95413 0
M  V30 1225 C 115.459 0.512752 -3.42887 0
M  V30 1226 C 114.52 -0.39252 -4.27502 0
M  V30 1227 C 113.753 0.375625 -5.32377 0
M  V30 1228 O 113.976 1.60613 -5.4732 0
M  V30 1229 O 112.91 -0.256094 -6.01355 0
M  V30 1230 H 116.736 -1.12242 -2.82197 0
M  V30 1231 H 114.321 -0.612685 -1.36259 0
M  V30 1232 H 116.203 0.970704 -4.10067 0
M  V30 1233 H 114.878 1.31826 -2.95641 0
M  V30 1234 H 113.785 -0.898547 -3.63149 0
M  V30 1235 H 115.118 -1.16309 -4.7826 0
M  V30 1236 N 116.77 1.45427 -0.607355 0
M  V30 1237 C 118.018 2.01841 -0.102253 0
M  V30 1238 C 118.339 1.47832 1.27164 0
M  V30 1239 O 117.609 0.672497 1.83995 0
M  V30 1240 H 116.189 0.746188 -0.0348101 0
M  V30 1241 H 118.851 1.78229 -0.7887 0
M  V30 1242 H 117.947 3.12057 -0.0518585 0
M  V30 1243 N 118.248 0.346503 1.53744 0
M  V30 1244 C 119.664 -0.00530975 1.59599 0
M  V30 1245 C 119.864 -1.48465 1.36236 0
M  V30 1246 O 118.92 -2.24376 1.15808 0
M  V30 1247 C 120.233 0.433516 2.97559 0
M  V30 1248 C 121.781 0.386111 3.10609 0
M  V30 1249 C 122.256 0.800451 4.50951 0
M  V30 1250 N 123.747 0.754753 4.5701 0
M  V30 1251 C 124.482 1.04727 5.63755 0
M  V30 1252 N 123.978 1.4081 6.7834 0
M  V30 1253 N 125.771 0.971316 5.53644 0
M  V30 1254 H 117.922 1.31009 1.67184 0
M  V30 1255 H 120.185 0.534242 0.783128 0
M  V30 1256 H 119.891 1.46509 3.19731 0
M  V30 1257 H 119.765 -0.189753 3.76722 0
M  V30 1258 H 122.152 -0.636295 2.88158 0
M  V30 1259 H 122.233 1.04462 2.33498 0
M  V30 1260 H 121.877 1.82088 4.74137 0
M  V30 1261 H 121.807 0.119386 5.26465 0
M  V30 1262 H 124.298 0.488662 3.74727 0
M  V30 1263 H 124.611 1.61607 7.55714 0
M  V30 1264 H 122.956 1.44657 6.79779 0
M  V30 1265 H 126.147 0.688748 4.63005 0
M  V30 1266 H 126.32 1.20263 6.36742 0
M  V30 1267 N 119.726 -1.57421 0.075193 0
M  V30 1268 C 120.656 -2.15942 -0.888324 0
M  V30 1269 C 121.637 -1.08737 -1.30806 0
M  V30 1270 O 122.822 -1.36787 -1.37851 0
M  V30 1271 C 119.952 -2.72379 -2.1547 0
M  V30 1272 C 118.906 -3.8478 -1.87425 0
M  V30 1273 C 118.232 -4.27834 -3.20721 0
M  V30 1274 C 119.532 -5.08869 -1.17684 0
M  V30 1275 H 121.226 -2.96705 -0.400799 0
M  V30 1276 H 118.772 -1.42723 -0.191342 0
M  V30 1277 H 120.725 -3.11965 -2.83295 0
M  V30 1278 H 119.449 -1.88841 -2.6647 0
M  V30 1279 H 118.108 -3.45703 -1.22004 0
M  V30 1280 H 117.756 -3.41214 -3.6957 0
M  V30 1281 H 117.456 -5.03605 -3.02746 0
M  V30 1282 H 118.98 -4.70039 -3.89738 0
M  V30 1283 H 120.394 -5.4575 -1.75584 0
M  V30 1284 H 118.791 -5.8994 -1.09956 0
M  V30 1285 H 119.861 -4.84648 -0.156453 0
M  V30 1286 N 121.204 0.198386 -1.56346 0
M  V30 1287 C 122.444 0.92609 -1.82217 0
M  V30 1288 C 122.808 1.80584 -0.652195 0
M  V30 1289 O 124.009 2.56907 -0.790716 0
M  V30 1290 C 122.28 1.72354 -3.13096 0
M  V30 1291 S 123.839 2.50371 -3.6036 0
M  V30 1292 H 120.657 0.310677 -0.639532 0
M  V30 1293 H 123.259 0.189755 -1.94577 0
M  V30 1294 H 121.963 1.0678 -3.96265 0
M  V30 1295 H 121.494 2.50175 -3.03605 0
M  V30 1296 H 123.509 3.74488 -3.25535 0
M  V30 1297 N 122.682 1.50554 0.465978 0
M  V30 1298 C 123.93 1.61479 1.21528 0
M  V30 1299 C 124.251 0.319596 1.92363 0
M  V30 1300 O 123.521 -0.663194 1.84333 0
M  V30 1301 H 122.101 0.595055 0.451573 0
M  V30 1302 H 124.763 1.87355 0.53704 0
M  V30 1303 H 123.859 2.42846 1.96042 0
M  V30 1304 N 124.16 -0.719506 1.40217 0
M  V30 1305 C 125.092 -1.84428 1.36084 0
M  V30 1306 C 126.105 -1.60597 0.266913 0
M  V30 1307 O 127.294 -1.70544 0.526983 0
M  V30 1308 C 124.394 -3.20757 1.094 0
M  V30 1309 C 123.567 -3.71817 2.30372 0
M  V30 1310 C 122.626 -4.86748 1.99907 0
M  V30 1311 O 121.652 -4.99603 2.72737 0
M  V30 1312 N 122.854 -5.7226 0.974635 0
M  V30 1313 H 125.619 -1.88473 2.33019 0
M  V30 1314 H 123.18 -0.900885 1.3452 0
M  V30 1315 H 125.172 -3.95235 0.870116 0
M  V30 1316 H 123.742 -3.11884 0.211452 0
M  V30 1317 H 122.962 -2.88514 2.68614 0
M  V30 1318 H 124.25 -4.02666 3.11026 0
M  V30 1319 H 123.648 -5.6448 0.371368 0
M  V30 1320 H 122.205 -6.46739 0.810656 0
M  V30 1321 N 125.638 -1.25649 -0.95132 0
M  V30 1322 C 127.054 -1.02542 -1.223 0
M  V30 1323 C 127.254 0.255715 -1.99871 0
M  V30 1324 O 126.31 0.967558 -2.33226 0
M  V30 1325 C 127.623 -2.25065 -1.99415 0
M  V30 1326 C 129.171 -2.29861 -2.12446 0
M  V30 1327 C 129.646 -3.52048 -2.92961 0
M  V30 1328 N 131.137 -3.52465 -3.00538 0
M  V30 1329 C 131.872 -4.43672 -3.63239 0
M  V30 1330 N 131.368 -5.45157 -4.27523 0
M  V30 1331 N 133.161 -4.31346 -3.60412 0
M  V30 1332 H 125.312 -2.07951 -0.432471 0
M  V30 1333 H 127.575 -0.91339 -0.253816 0
M  V30 1334 H 127.281 -3.18194 -1.49817 0
M  V30 1335 H 127.155 -2.28502 -3.00111 0
M  V30 1336 H 129.542 -1.37252 -2.61239 0
M  V30 1337 H 129.623 -2.3044 -1.11044 0
M  V30 1338 H 129.267 -4.44981 -2.44856 0
M  V30 1339 H 129.197 -3.48715 -3.94596 0
M  V30 1340 H 131.688 -2.79056 -2.54826 0
M  V30 1341 H 132.001 -6.10958 -4.73234 0
M  V30 1342 H 130.346 -5.49025 -4.26141 0
M  V30 1343 H 133.537 -3.51288 -3.09377 0
M  V30 1344 H 133.71 -5.02624 -4.0899 0
M  V30 1345 N 127.117 1.15442 -1.07289 0
M  V30 1346 C 128.342 1.90638 -0.816828 0
M  V30 1347 C 128.767 1.77445 0.624083 0
M  V30 1348 O 128.125 1.10671 1.43602 0
M  V30 1349 C 128.173 3.39008 -1.22906 0
M  V30 1350 O 127.277 4.10701 -0.373975 0
M  V30 1351 H 126.618 0.593555 -0.297638 0
M  V30 1352 H 129.148 1.46198 -1.43134 0
M  V30 1353 H 129.158 3.89801 -1.20497 0
M  V30 1354 H 127.833 3.47929 -2.27856 0
M  V30 1355 H 126.41 3.70046 -0.460499 0
M  V30 1356 N 128.595 0.856903 1.32268 0
M  V30 1357 C 129.82 0.474569 2.01897 0
M  V30 1358 C 130.245 -0.921766 1.63967 0
M  V30 1359 O 129.603 -1.60589 0.84148 0
M  V30 1360 C 129.651 0.623799 3.55164 0
M  V30 1361 O 128.755 -0.342459 4.10976 0
M  V30 1362 H 128.096 0.190422 0.63611 0
M  V30 1363 H 130.626 1.15672 1.68764 0
M  V30 1364 H 130.636 0.512169 4.04773 0
M  V30 1365 H 129.311 1.64202 3.82113 0
M  V30 1366 H 127.888 -0.18688 3.72431 0
M  V30 1367 N 130.073 -1.45103 0.615059 0
M  V30 1368 C 131.021 -2.32331 -0.111791 0
M  V30 1369 C 132.015 -1.46409 -0.852102 0
M  V30 1370 O 133.221 -1.62849 -0.766821 0
M  V30 1371 H 129.596 -0.749993 -0.0549072 0
M  V30 1372 H 131.567 -2.91407 0.642225 0
M  V30 1373 C 130.316 -3.3015 -1.09071 0
M  V30 1374 H 129.639 -3.96265 -0.530485 0
M  V30 1375 H 131.079 -3.93898 -1.56908 0
M  V30 1376 C 129.538 -2.57875 -2.168 0
M  V30 1377 O 130.068 -2.36567 -3.24652 0
M  V30 1378 N 128.274 -2.17884 -1.92289 0
M  V30 1379 H 127.821 -2.35413 -1.04587 0
M  V30 1380 H 127.779 -1.6985 -2.64572 0
M  V30 1381 N 131.551 -0.354651 -1.53558 0
M  V30 1382 C 132.499 0.512195 -2.26891 0
M  V30 1383 C 133.493 1.09263 -1.29452 0
M  V30 1384 O 134.699 1.03709 -1.47121 0
M  V30 1385 H 131.074 0.183878 -0.729173 0
M  V30 1386 H 133.045 -0.128202 -2.98124 0
M  V30 1387 C 131.794 1.64563 -3.06291 0
M  V30 1388 H 131.117 1.20829 -3.81104 0
M  V30 1389 H 132.557 2.22711 -3.60799 0
M  V30 1390 C 131.016 2.58158 -2.16462 0
M  V30 1391 O 131.546 3.60695 -1.76811 0
M  V30 1392 N 129.752 2.27096 -1.81317 0
M  V30 1393 H 129.299 1.43751 -2.1376 0
M  V30 1394 H 129.257 2.89975 -1.21498 0
M  V30 1395 N 133.029 1.57378 -0.0835403 0
M  V30 1396 C 134.44 1.81261 0.447358 0
M  V30 1397 C 134.791 0.998331 1.68902 0
M  V30 1398 O 133.916 0.224282 2.15235 0
M  V30 1399 C 134.511 3.28767 0.818386 0
M  V30 1400 C 133.07 3.53455 1.29409 0
M  V30 1401 C 132.217 2.75831 0.285024 0
M  V30 1402 H 135.168 1.5566 -0.309115 0
M  V30 1403 H 135.189 3.41459 1.67887 0
M  V30 1404 H 134.701 3.88006 -0.0855019 0
M  V30 1405 H 132.802 2.99534 2.21608 0
M  V30 1406 H 132.915 4.62128 1.2639 0
M  V30 1407 H 131.279 2.42947 0.764767 0
M  V30 1408 H 132.062 3.37813 -0.611341 0
M  V30 1409 N 134.507 -0.190092 1.56449 0
M  V30 1410 C 135.457 -1.23977 1.91347 0
M  V30 1411 C 136.441 -1.40747 0.779693 0
M  V30 1412 O 137.633 -1.43033 1.04262 0
M  V30 1413 C 134.762 -2.58347 2.26079 0
M  V30 1414 C 133.848 -2.4535 3.45925 0
M  V30 1415 N 134.239 -2.02039 4.63696 0
M  V30 1416 C 132.537 -2.76229 3.50162 0
M  V30 1417 C 133.238 -2.01053 5.4585 0
M  V30 1418 N 132.214 -2.42747 4.8639 0
M  V30 1419 H 136.016 -0.896318 2.79899 0
M  V30 1420 H 133.53 -0.398496 1.57435 0
M  V30 1421 H 135.527 -3.34173 2.49267 0
M  V30 1422 H 134.187 -2.93512 1.38856 0
M  V30 1423 H 135.198 -1.7267 4.88268 0
M  V30 1424 H 131.875 -3.15556 2.73369 0
M  V30 1425 H 133.265 -1.69426 6.50188 0
M  V30 1426 N 135.985 -1.50799 -0.457987 0
M  V30 1427 C 137.21 -1.66496 -1.23668 0
M  V30 1428 C 137.635 -0.353288 -1.84752 0
M  V30 1429 O 136.993 0.684346 -1.67888 0
M  V30 1430 C 137.041 -2.76763 -2.3116 0
M  V30 1431 O 136.145 -2.38928 -3.36136 0
M  V30 1432 H 135.486 -0.555828 -0.363252 0
M  V30 1433 H 138.016 -1.9725 -0.543474 0
M  V30 1434 H 138.026 -3.00232 -2.76269 0
M  V30 1435 H 136.701 -3.71954 -1.86073 0
M  V30 1436 H 135.278 -2.25953 -2.96647 0
M  V30 1437 N 137.463 0.71206 -1.40597 0
M  V30 1438 C 138.874 1.29135 -1.34837 0
M  V30 1439 C 139.225 1.96186 -0.0235395 0
M  V30 1440 O 138.35 1.97768 0.878444 0
M  V30 1441 C 138.945 2.34827 -2.44217 0
M  V30 1442 C 137.504 2.88371 -2.41907 0
M  V30 1443 C 136.651 1.62202 -2.24913 0
M  V30 1444 H 139.602 0.507944 -1.50352 0
M  V30 1445 H 139.623 3.15749 -2.12327 0
M  V30 1446 H 139.135 1.85996 -3.40627 0
M  V30 1447 H 137.236 3.41422 -1.49204 0
M  V30 1448 H 137.349 3.39925 -3.37621 0
M  V30 1449 H 135.713 1.874 -1.72492 0
M  V30 1450 H 136.496 1.15391 -3.23326 0
M  V30 1451 N 138.941 1.26152 0.944643 0
M  V30 1452 C 140.19 1.10883 1.68487 0
M  V30 1453 C 140.503 -0.348153 1.92477 0
M  V30 1454 O 141.709 -0.621459 2.64292 0
M  V30 1455 C 140.165 1.93624 3.03377 0
M  V30 1456 C 139.773 3.43875 2.87148 0
M  V30 1457 C 141.517 1.86954 3.81115 0
M  V30 1458 C 139.424 4.18875 4.1749 0
M  V30 1459 H 138.354 0.41135 0.631907 0
M  V30 1460 H 141.005 1.50433 1.05082 0
M  V30 1461 H 139.387 1.46904 3.67743 0
M  V30 1462 H 140.561 3.98338 2.31653 0
M  V30 1463 H 138.876 3.51744 2.22856 0
M  V30 1464 H 141.473 2.40275 4.77673 0
M  V30 1465 H 141.816 0.839518 4.07747 0
M  V30 1466 H 142.349 2.31477 3.23517 0
M  V30 1467 H 139.088 5.22332 3.96043 0
M  V30 1468 H 138.608 3.69193 4.72712 0
M  V30 1469 H 140.287 4.27134 4.85968 0
M  V30 1470 N 140.419 -1.14872 1.07899 0
M  V30 1471 C 141.665 -1.86064 0.806725 0
M  V30 1472 C 141.998 -1.82434 -0.665706 0
M  V30 1473 O 141.273 -1.25138 -1.48899 0
M  V30 1474 C 141.556 -3.34929 1.32267 0
M  V30 1475 C 141.409 -3.47161 2.86006 0
M  V30 1476 C 142.728 -4.29863 0.943717 0
M  V30 1477 H 139.847 -0.675591 0.294526 0
M  V30 1478 H 142.489 -1.34925 1.33773 0
M  V30 1479 H 140.639 -3.78611 0.870974 0
M  V30 1480 H 142.311 -3.12302 3.39507 0
M  V30 1481 H 140.554 -2.88539 3.23925 0
M  V30 1482 H 141.225 -4.51777 3.17177 0
M  V30 1483 H 143.701 -3.9417 1.33302 0
M  V30 1484 H 142.577 -5.32494 1.33198 0
M  V30 1485 H 142.838 -4.41846 -0.149796 0
M  V30 1486 N 141.898 -0.863906 -1.31812 0
M  V30 1487 C 142.808 -0.318461 -2.32428 0
M  V30 1488 C 143.824 0.568496 -1.64451 0
M  V30 1489 O 145 0.46666 -1.95919 0
M  V30 1490 C 142.065 0.476355 -3.43412 0
M  V30 1491 C 141.126 -0.43784 -4.27061 0
M  V30 1492 C 140.359 0.319138 -5.32745 0
M  V30 1493 O 140.582 1.54799 -5.48993 0
M  V30 1494 O 139.516 -0.319861 -6.01049 0
M  V30 1495 H 143.342 -1.15229 -2.80991 0
M  V30 1496 H 140.927 -0.627103 -1.35602 0
M  V30 1497 H 142.809 0.927156 -4.11074 0
M  V30 1498 H 141.484 1.28683 -2.97022 0
M  V30 1499 H 140.391 -0.937013 -3.62175 0
M  V30 1500 H 141.724 -1.21375 -4.77 0
M  V30 1501 N 143.376 1.44774 -0.622745 0
M  V30 1502 C 144.286 2.34433 0.0886031 0
M  V30 1503 C 145.302 1.52131 0.844529 0
M  V30 1504 O 146.478 1.84886 0.798691 0
M  V30 1505 C 143.543 3.29986 1.0635 0
M  V30 1506 C 142.604 4.28195 0.307873 0
M  V30 1507 C 141.837 5.19183 1.23633 0
M  V30 1508 O 142.06 5.13918 2.47476 0
M  V30 1509 O 140.994 5.97515 0.725189 0
M  V30 1510 H 144.82 2.96693 -0.648599 0
M  V30 1511 H 142.405 1.44408 -0.382957 0
M  V30 1512 H 144.287 3.88825 1.6246 0
M  V30 1513 H 142.962 2.70269 1.78146 0
M  V30 1514 H 141.869 3.72927 -0.296064 0
M  V30 1515 H 143.202 4.90808 -0.3699 0
M  V30 1516 N 144.854 0.36279 1.53368 0
M  V30 1517 C 146.101 -0.227776 2.01215 0
M  V30 1518 C 146.429 -1.49003 1.25014 0
M  V30 1519 O 145.684 -1.92876 0.331236 0
M  V30 1520 C 145.983 -0.568417 3.52851 0
M  V30 1521 C 145.649 0.59918 4.46901 0
M  V30 1522 C 144.311 0.919559 4.72332 0
M  V30 1523 C 146.663 1.38156 5.02556 0
M  V30 1524 C 143.991 2.02434 5.5067 0
M  V30 1525 C 146.343 2.47674 5.821 0
M  V30 1526 C 145.007 2.8025 6.05819 0
M  V30 1527 H 144.277 -0.083349 0.736297 0
M  V30 1528 H 146.924 0.494677 1.85001 0
M  V30 1529 H 145.229 -1.37185 3.66998 0
M  V30 1530 H 146.926 -1.03756 3.87344 0
M  V30 1531 H 143.516 0.339437 4.27254 0
M  V30 1532 H 147.7 1.14729 4.82857 0
M  V30 1533 H 142.956 2.28075 5.67267 0
M  V30 1534 H 147.13 3.08716 6.24234 0
M  V30 1535 H 144.757 3.65979 6.66306 0
M  V30 1536 N 146.332 -1.57332 0.0918853 0
M  V30 1537 C 147.264 -2.10869 -0.898168 0
M  V30 1538 C 148.277 -1.04521 -1.24817 0
M  V30 1539 O 149.466 -1.31977 -1.20184 0
M  V30 1540 C 146.566 -2.57083 -2.2082 0
M  V30 1541 C 145.739 -3.87229 -2.03402 0
M  V30 1542 C 144.798 -4.19324 -3.17889 0
M  V30 1543 O 143.824 -4.88598 -2.91994 0
M  V30 1544 N 145.026 -3.74471 -4.43567 0
M  V30 1545 H 147.791 -2.96439 -0.440943 0
M  V30 1546 H 145.352 -1.61631 -0.0933064 0
M  V30 1547 H 147.344 -2.75602 -2.96354 0
M  V30 1548 H 145.914 -1.76541 -2.57977 0
M  V30 1549 H 145.134 -3.7789 -1.12218 0
M  V30 1550 H 146.422 -4.72379 -1.89038 0
M  V30 1551 H 145.82 -3.18546 -4.67488 0
M  V30 1552 H 144.377 -3.98151 -5.16061 0
M  V30 1553 N 147.81 0.181792 -1.56548 0
M  V30 1554 C 149.056 0.901431 -1.81665 0
M  V30 1555 C 149.389 1.82347 -0.668075 0
M  V30 1556 O 148.664 1.91669 0.330615 0
M  V30 1557 C 148.947 1.70618 -3.17115 0
M  V30 1558 C 148.8 0.807964 -4.42484 0
M  V30 1559 C 150.119 2.67605 -3.49393 0
M  V30 1560 H 147.238 0.32627 -0.660846 0
M  V30 1561 H 149.88 0.168134 -1.89255 0
M  V30 1562 H 148.03 2.33133 -3.10775 0
M  V30 1563 H 149.702 0.19649 -4.60881 0
M  V30 1564 H 147.945 0.115411 -4.33646 0
M  V30 1565 H 148.616 1.40632 -5.33785 0
M  V30 1566 H 151.092 2.15218 -3.56118 0
M  V30 1567 H 149.968 3.20985 -4.45264 0
M  V30 1568 H 150.229 3.47298 -2.73563 0
M  V30 1569 N 149.288 1.51039 0.449983 0
M  V30 1570 C 150.699 1.557 1.03026 0
M  V30 1571 C 151.05 0.372939 1.92623 0
M  V30 1572 O 150.175 -0.511771 2.10261 0
M  V30 1573 C 150.77 2.82171 1.87523 0
M  V30 1574 C 149.329 2.89444 2.40622 0
M  V30 1575 C 148.476 2.50228 1.19504 0
M  V30 1576 H 151.427 1.56999 0.231745 0
M  V30 1577 H 151.448 2.65219 2.72835 0
M  V30 1578 H 150.96 3.68331 1.22286 0
M  V30 1579 H 149.061 2.07685 3.0935 0
M  V30 1580 H 149.174 3.92816 2.74285 0
M  V30 1581 H 147.538 2.03139 1.53644 0
M  V30 1582 H 148.321 3.38719 0.558972 0
M  V30 1583 N 150.766 -0.704594 1.40972 0
M  V30 1584 C 151.996 -1.49138 1.42974 0
M  V30 1585 C 152.404 -1.89175 0.0308406 0
M  V30 1586 O 151.747 -1.56734 -0.958138 0
M  V30 1587 C 151.809 -2.79016 2.26694 0
M  V30 1588 C 151.473 -2.61236 3.74973 0
M  V30 1589 C 152.47 -2.27773 4.67349 0
M  V30 1590 C 150.155 -2.77158 4.18914 0
M  V30 1591 C 152.149 -2.10457 6.01653 0
M  V30 1592 C 149.836 -2.59459 5.53285 0
M  V30 1593 C 150.834 -2.26158 6.4447 0
M  V30 1594 O 150.522 -2.08605 7.76363 0
M  V30 1595 H 150.254 -0.466443 0.489292 0
M  V30 1596 H 152.808 -0.8758 1.85793 0
M  V30 1597 H 151.038 -3.42947 1.78673 0
M  V30 1598 H 152.727 -3.40782 2.20504 0
M  V30 1599 H 153.493 -2.15095 4.34694 0
M  V30 1600 H 149.372 -3.02064 3.48251 0
M  V30 1601 H 152.916 -1.84387 6.72791 0
M  V30 1602 H 148.813 -2.71725 5.85522 0
M  V30 1603 H 149.581 -2.23439 7.87412 0
M  V30 1604 N 152.244 -1.26651 -0.937939 0
M  V30 1605 C 153.192 -1.08308 -2.05845 0
M  V30 1606 C 154.186 -0.0090757 -1.69398 0
M  V30 1607 O 155.392 -0.166007 -1.79233 0
M  V30 1608 H 151.767 -0.333416 -0.674046 0
M  V30 1609 H 153.738 -2.03261 -2.18467 0
M  V30 1610 C 152.487 -0.736229 -3.39816 0
M  V30 1611 H 151.81 -1.55453 -3.6834 0
M  V30 1612 H 153.25 -0.64769 -4.19024 0
M  V30 1613 C 151.709 0.558824 -3.32233 0
M  V30 1614 O 152.239 1.59621 -3.68624 0
M  V30 1615 N 150.445 0.550657 -2.85335 0
M  V30 1616 H 149.992 -0.293943 -2.55917 0
M  V30 1617 H 149.95 1.41726 -2.80644 0
M  V30 1618 N 153.722 1.14298 -1.08507 0
M  V30 1619 C 154.669 2.19414 -0.715965 0
M  V30 1620 C 155.639 1.63399 0.298326 0
M  V30 1621 O 156.824 1.89929 0.182101 0
M  V30 1622 C 153.964 3.44845 -0.132534 0
M  V30 1623 C 153.077 4.15007 -1.19973 0
M  V30 1624 C 152.212 5.28024 -0.580048 0
M  V30 1625 C 151.251 5.9002 -1.62921 0
M  V30 1626 N 150.388 6.94485 -1.03125 0
M  V30 1627 H 155.228 2.50336 -1.61666 0
M  V30 1628 H 152.765 1.2293 -0.807882 0
M  V30 1629 H 154.723 4.16601 0.223454 0
M  V30 1630 H 153.353 3.14403 0.731467 0
M  V30 1631 H 152.405 3.41629 -1.67313 0
M  V30 1632 H 153.717 4.57178 -1.99473 0
M  V30 1633 H 152.871 6.06455 -0.172364 0
M  V30 1634 H 151.61 4.87076 0.246603 0
M  V30 1635 H 150.615 5.10291 -2.04654 0
M  V30 1636 H 151.84 6.33042 -2.45835 0
M  V30 1637 H 149.786 6.55612 -0.225711 0
M  V30 1638 H 149.703 7.35148 -1.76334 0
M  V30 1639 H 150.971 7.7679 -0.649458 0
M  V30 1640 N 155.201 0.870884 1.31352 0
M  V30 1641 C 156.131 0.343096 2.30966 0
M  V30 1642 C 157.112 -0.566507 1.60389 0
M  V30 1643 O 158.297 -0.483336 1.88089 0
M  V30 1644 C 155.427 -0.455487 3.443 0
M  V30 1645 C 154.381 0.361103 4.26474 0
M  V30 1646 C 153.707 -0.563221 5.31725 0
M  V30 1647 C 155.007 1.59566 4.97329 0
M  V30 1648 H 156.701 1.17548 2.75359 0
M  V30 1649 H 154.247 0.566686 1.32381 0
M  V30 1650 H 156.2 -0.83525 4.13039 0
M  V30 1651 H 154.924 -1.32139 2.98675 0
M  V30 1652 H 153.583 0.722825 3.59403 0
M  V30 1653 H 153.231 -1.42643 4.82351 0
M  V30 1654 H 152.931 -0.0207409 5.87596 0
M  V30 1655 H 154.455 -0.939808 6.03324 0
M  V30 1656 H 155.869 1.28728 5.58661 0
M  V30 1657 H 154.266 2.07728 5.63 0
M  V30 1658 H 155.336 2.34798 4.24262 0
M  V30 1659 N 156.679 -1.44442 0.630414 0
M  V30 1660 C 157.611 -2.2892 -0.113347 0
M  V30 1661 C 158.624 -1.41243 -0.80959 0
M  V30 1662 O 159.813 -1.65402 -0.671156 0
M  V30 1663 C 156.913 -3.17594 -1.18266 0
M  V30 1664 C 156.086 -4.33682 -0.569073 0
M  V30 1665 C 155.145 -5.03397 -1.53226 0
M  V30 1666 O 154.171 -5.59438 -1.04967 0
M  V30 1667 N 155.373 -5.04783 -2.86661 0
M  V30 1668 H 158.138 -2.93392 0.611636 0
M  V30 1669 H 155.699 -1.54881 0.471523 0
M  V30 1670 H 157.691 -3.61097 -1.82732 0
M  V30 1671 H 156.261 -2.54876 -1.80988 0
M  V30 1672 H 155.481 -3.9338 0.254187 0
M  V30 1673 H 156.769 -5.08608 -0.139767 0
M  V30 1674 H 156.167 -4.60584 -3.28449 0
M  V30 1675 H 154.724 -5.52077 -3.46489 0
M  V30 1676 N 158.157 -0.370918 -1.53173 0
M  V30 1677 C 159.403 0.217423 -2.01631 0
M  V30 1678 C 159.736 1.47983 -1.25756 0
M  V30 1679 O 159.011 1.91274 -0.352764 0
M  V30 1680 C 159.294 0.503982 -3.56556 0
M  V30 1681 C 159.147 -0.77243 -4.43118 0
M  V30 1682 C 160.466 1.30234 -4.20389 0
M  V30 1683 H 157.585 0.0775486 -0.732909 0
M  V30 1684 H 160.227 -0.496863 -1.83388 0
M  V30 1685 H 158.377 1.11248 -3.72231 0
M  V30 1686 H 160.049 -1.4098 -4.39229 0
M  V30 1687 H 158.292 -1.39167 -4.10871 0
M  V30 1688 H 158.963 -0.526815 -5.4948 0
M  V30 1689 H 161.439 0.787546 -4.08579 0
M  V30 1690 H 160.315 1.47158 -5.28806 0
M  V30 1691 H 160.576 2.31237 -3.76805 0
M  V30 1692 N 159.635 1.57281 -0.100228 0
M  V30 1693 C 160.884 1.93713 0.561984 0
M  V30 1694 C 161.197 0.984492 1.69018 0
M  V30 1695 O 162.403 1.24273 2.41389 0
M  V30 1696 C 160.859 3.4421 1.05106 0
M  V30 1697 C 160.467 4.47975 -0.0476628 0
M  V30 1698 C 162.211 3.89595 1.68571 0
M  V30 1699 C 160.118 5.89631 0.457055 0
M  V30 1700 H 159.048 0.723082 0.2137 0
M  V30 1701 H 161.699 1.82644 -0.177057 0
M  V30 1702 H 160.081 3.50449 1.84395 0
M  V30 1703 H 161.255 4.53385 -0.823333 0
M  V30 1704 H 159.57 4.1223 -0.587816 0
M  V30 1705 H 162.167 4.92832 2.07414 0
M  V30 1706 H 162.51 3.28526 2.55688 0
M  V30 1707 H 163.043 3.86078 0.958562 0
M  V30 1708 H 159.782 6.54411 -0.377616 0
M  V30 1709 H 159.302 5.87681 1.19962 0
M  V30 1710 H 160.981 6.40363 0.92437 0
M  V30 1711 N 161.113 -0.173488 1.56642 0
M  V30 1712 C 162.36 -0.890465 1.81871 0
M  V30 1713 C 162.688 -1.82339 0.67696 0
M  V30 1714 O 161.943 -1.92795 -0.335926 0
M  V30 1715 C 162.242 -1.72069 3.13252 0
M  V30 1716 C 161.908 -0.936878 4.41059 0
M  V30 1717 C 160.57 -0.720545 4.75775 0
M  V30 1718 C 162.922 -0.386919 5.19762 0
M  V30 1719 C 160.25 0.0568829 5.86672 0
M  V30 1720 C 162.602 0.37741 6.31473 0
M  V30 1721 C 161.266 0.604563 6.64757 0
M  V30 1722 H 160.536 -0.325844 0.665512 0
M  V30 1723 H 163.183 -0.155527 1.90867 0
M  V30 1724 H 161.488 -2.52496 2.99588 0
M  V30 1725 H 163.185 -2.27844 3.29982 0
M  V30 1726 H 159.775 -1.11553 4.13828 0
M  V30 1727 H 163.959 -0.541398 4.93338 0
M  V30 1728 H 159.215 0.242635 6.10918 0
M  V30 1729 H 163.389 0.810825 6.91664 0
M  V30 1730 H 161.016 1.20885 7.50527 0
M  V30 1731 N 162.591 -1.51276 -0.441967 0
M  V30 1732 C 163.538 -1.72256 -1.53612 0
M  V30 1733 C 164.508 -0.564164 -1.56225 0
M  V30 1734 O 165.693 -0.798074 -1.73307 0
M  V30 1735 C 162.833 -1.84932 -2.91366 0
M  V30 1736 C 161.946 -3.12459 -2.98317 0
M  V30 1737 C 161.081 -3.15758 -4.27166 0
M  V30 1738 C 160.12 -4.37619 -4.27967 0
M  V30 1739 N 159.257 -4.38493 -5.48333 0
M  V30 1740 H 164.097 -2.65654 -1.35026 0
M  V30 1741 H 161.634 -1.31662 -0.656009 0
M  V30 1742 H 163.592 -1.90263 -3.7129 0
M  V30 1743 H 162.222 -0.949461 -3.08521 0
M  V30 1744 H 161.274 -3.1646 -2.11086 0
M  V30 1745 H 162.586 -4.02382 -2.94771 0
M  V30 1746 H 161.74 -3.19979 -5.15459 0
M  V30 1747 H 160.479 -2.23715 -4.33362 0
M  V30 1748 H 159.484 -4.33579 -3.38067 0
M  V30 1749 H 160.709 -5.30921 -4.23438 0
M  V30 1750 H 158.655 -3.49318 -5.55259 0
M  V30 1751 H 158.572 -5.22219 -5.46647 0
M  V30 1752 H 159.84 -4.469 -6.38671 0
M  V30 1753 N 164.069 0.697108 -1.41344 0
M  V30 1754 C 165.294 1.49096 -1.44171 0
M  V30 1755 C 165.719 1.88038 -0.0481568 0
M  V30 1756 O 165.077 1.54525 0.948243 0
M  V30 1757 C 165.125 2.73088 -2.3549 0
M  V30 1758 O 164.229 3.70514 -1.81088 0
M  V30 1759 H 163.57 0.448801 -0.489361 0
M  V30 1760 H 166.1 0.856992 -1.85787 0
M  V30 1761 H 166.11 3.21413 -2.51312 0
M  V30 1762 H 164.785 2.44081 -3.36745 0
M  V30 1763 H 163.362 3.29441 -1.74708 0
M  V30 1764 N 165.547 1.27147 0.931209 0
M  V30 1765 C 166.824 1.0401 1.65654 0
M  V30 1766 C 167.204 -0.426297 2.06751 0
M  V30 1767 O 166.552 -1.40879 1.79904 0
M  V30 1768 C 166.762 1.99834 2.86125 0
M  V30 1769 C 168.11 2.29007 3.57549 0
M  V30 1770 O 169.134 1.97779 2.96246 0
M  V30 1771 O 167.993 2.82222 4.67989 0
M  V30 1772 H 165.087 0.396239 0.725895 0
M  V30 1773 H 167.633 1.38397 0.982056 0
M  V30 1774 H 166.405 2.98744 2.52721 0
M  V30 1775 H 166.028 1.65987 3.61295 0
M  V30 1776 N 167.025 -1.13721 1.09112 0
M  V30 1777 C 168.272 -1.84924 0.825192 0
M  V30 1778 C 168.6 -1.83347 -0.649151 0
M  V30 1779 O 167.855 -1.26449 -1.49362 0
M  V30 1780 C 168.154 -3.32861 1.30146 0
M  V30 1781 C 167.82 -3.54621 2.78486 0
M  V30 1782 C 166.482 -3.60268 3.18999 0
M  V30 1783 C 168.834 -3.62855 3.74146 0
M  V30 1784 C 166.162 -3.71679 4.53951 0
M  V30 1785 C 168.514 -3.75793 5.08883 0
M  V30 1786 C 167.178 -3.79692 5.4899 0
M  V30 1787 H 166.448 -0.676684 0.301959 0
M  V30 1788 H 169.095 -1.3428 1.36533 0
M  V30 1789 H 167.4 -3.85835 0.681064 0
M  V30 1790 H 169.097 -3.86395 1.07236 0
M  V30 1791 H 165.687 -3.50879 2.46134 0
M  V30 1792 H 169.871 -3.57775 3.43963 0
M  V30 1793 H 165.127 -3.72963 4.84467 0
M  V30 1794 H 169.301 -3.81107 5.82864 0
M  V30 1795 H 166.928 -3.88287 6.53558 0
M  V30 1796 N 168.503 -0.877838 -1.30888 0
M  V30 1797 C 169.728 -0.506629 -2.01117 0
M  V30 1798 C 170.153 0.895564 -1.65412 0
M  V30 1799 O 169.511 1.5923 -0.866922 0
M  V30 1800 C 169.559 -0.680223 -3.54126 0
M  V30 1801 O 168.663 0.277033 -4.11468 0
M  V30 1802 H 168.004 -0.200518 -0.633 0
M  V30 1803 H 170.534 -1.18342 -1.66902 0
M  V30 1804 H 170.544 -0.5765 -4.03907 0
M  V30 1805 H 169.219 -1.70261 -3.79452 0
M  V30 1806 H 167.796 0.127606 -3.72682 0
M  V30 1807 N 169.982 1.44106 -0.638065 0
M  V30 1808 C 170.93 2.3248 0.0748149 0
M  V30 1809 C 171.924 1.47746 0.828702 0
M  V30 1810 O 173.13 1.64049 0.740816 0
M  V30 1811 H 169.505 0.750771 0.0429686 0
M  V30 1812 H 171.476 2.90348 -0.688504 0
M  V30 1813 C 170.225 3.31843 1.03805 0
M  V30 1814 H 169.548 3.97059 0.467375 0
M  V30 1815 H 170.988 3.96345 1.50622 0
M  V30 1816 C 169.447 2.61291 2.1267 0
M  V30 1817 O 169.977 2.41702 3.20847 0
M  V30 1818 N 168.183 2.20915 1.88798 0
M  V30 1819 H 167.73 2.37047 1.00829 0
M  V30 1820 H 167.688 1.74038 2.61836 0
M  V30 1821 N 171.46 0.379036 1.52974 0
M  V30 1822 C 172.37 -0.468639 2.29872 0
M  V30 1823 C 173.386 -1.08067 1.36373 0
M  V30 1824 O 174.562 -1.08871 1.69438 0
M  V30 1825 C 171.627 -1.58594 3.083 0
M  V30 1826 C 170.688 -1.00007 4.17489 0
M  V30 1827 C 169.921 -2.06413 4.92168 0
M  V30 1828 O 170.144 -3.27751 4.66835 0
M  V30 1829 O 169.078 -1.68717 5.7777 0
M  V30 1830 H 172.904 0.157508 3.03291 0
M  V30 1831 H 170.489 0.143035 1.48714 0
M  V30 1832 H 172.371 -2.23525 3.57232 0
M  V30 1833 H 171.046 -2.19724 2.37703 0
M  V30 1834 H 169.953 -0.314299 3.72777 0
M  V30 1835 H 171.286 -0.433135 4.90291 0
M  V30 1836 N 172.938 -1.57226 0.108567 0
M  V30 1837 C 173.848 -2.18292 -0.859401 0
M  V30 1838 C 174.864 -1.15612 -1.30038 0
M  V30 1839 O 176.04 -1.48039 -1.36552 0
M  V30 1840 C 173.105 -2.762 -2.09558 0
M  V30 1841 C 172.166 -3.93881 -1.70752 0
M  V30 1842 C 171.399 -4.49018 -2.88477 0
M  V30 1843 O 171.622 -4.03068 -4.036 0
M  V30 1844 O 170.556 -5.39852 -2.66164 0
M  V30 1845 H 174.382 -3.01441 -0.369769 0
M  V30 1846 H 171.967 -1.48945 -0.1165 0
M  V30 1847 H 173.849 -3.13156 -2.81978 0
M  V30 1848 H 172.524 -1.96089 -2.57548 0
M  V30 1849 H 171.431 -3.61713 -0.954714 0
M  V30 1850 H 172.764 -4.75396 -1.27513 0
M  V30 1851 N 174.416 0.165178 -1.56732 0
M  V30 1852 C 175.832 0.517174 -1.50988 0
M  V30 1853 C 176.032 1.84331 -0.813894 0
M  V30 1854 O 175.088 2.49672 -0.37682 0
M  V30 1855 C 176.401 0.544261 -2.95733 0
M  V30 1856 C 177.949 0.631039 -3.06573 0
M  V30 1857 C 178.424 0.68896 -4.52788 0
M  V30 1858 N 179.915 0.751683 -4.5706 0
M  V30 1859 C 180.65 0.817177 -5.67547 0
M  V30 1860 N 180.146 0.843129 -6.8765 0
M  V30 1861 N 181.939 0.856668 -5.55534 0
M  V30 1862 H 174.09 -0.704318 -2.00382 0
M  V30 1863 H 176.353 -0.254687 -0.913148 0
M  V30 1864 H 176.059 -0.361607 -3.49836 0
M  V30 1865 H 175.933 1.3886 -3.5071 0
M  V30 1866 H 178.32 1.52733 -2.52501 0
M  V30 1867 H 178.401 -0.240095 -2.54671 0
M  V30 1868 H 178.045 -0.2031 -5.07494 0
M  V30 1869 H 177.975 1.57633 -5.02454 0
M  V30 1870 H 180.466 0.739661 -3.70591 0
M  V30 1871 H 180.779 0.894448 -7.67606 0
M  V30 1872 H 179.124 0.811304 -6.90248 0
M  V30 1873 H 182.315 0.833437 -4.60621 0
M  V30 1874 H 182.488 0.904247 -6.4166 0
M  V30 1875 N 175.894 1.51508 0.433938 0
M  V30 1876 C 177.141 1.64345 1.18309 0
M  V30 1877 C 177.469 0.361315 1.91115 0
M  V30 1878 O 176.724 -0.654753 1.84422 0
M  V30 1879 C 177.023 2.79928 2.22205 0
M  V30 1880 C 176.689 4.19078 1.66387 0
M  V30 1881 C 175.351 4.56932 1.50887 0
M  V30 1882 C 177.703 5.05894 1.25381 0
M  V30 1883 C 175.031 5.79305 0.928608 0
M  V30 1884 C 177.383 6.2885 0.687823 0
M  V30 1885 C 176.047 6.65473 0.519755 0
M  V30 1886 H 175.317 0.601381 0.432923 0
M  V30 1887 H 177.964 1.85549 0.473676 0
M  V30 1888 H 176.269 2.52959 2.99197 0
M  V30 1889 H 177.966 2.87059 2.79997 0
M  V30 1890 H 174.556 3.89234 1.79428 0
M  V30 1891 H 178.74 4.77253 1.36175 0
M  V30 1892 H 173.996 6.06324 0.786186 0
M  V30 1893 H 178.17 6.95461 0.361581 0
M  V30 1894 H 175.797 7.6017 0.0679979 0
M  V30 1895 N 177.372 -0.689602 1.41712 0
M  V30 1896 C 178.6 -1.47827 1.44758 0
M  V30 1897 C 179.015 -1.88721 0.0545703 0
M  V30 1898 O 178.372 -1.57176 -0.927463 0
M  V30 1899 C 178.423 -2.73698 2.3616 0
M  V30 1900 O 178.144 -2.34524 3.7004 0
M  V30 1901 C 179.645 -3.67389 2.48072 0
M  V30 1902 H 176.865 -0.455357 0.49284 0
M  V30 1903 H 179.409 -0.848574 1.86063 0
M  V30 1904 H 177.564 -3.32891 1.98148 0
M  V30 1905 H 177.978 -3.15701 4.18847 0
M  V30 1906 H 179.452 -4.52475 3.16181 0
M  V30 1907 H 179.929 -4.12284 1.51388 0
M  V30 1908 H 180.535 -3.14097 2.86746 0
M  V30 1909 N 178.85 -1.27639 -0.924453 0
M  V30 1910 C 180.098 -1.13941 -1.66918 0
M  V30 1911 C 180.419 0.314589 -1.92446 0
M  V30 1912 O 179.689 1.21964 -1.53303 0
M  V30 1913 H 178.269 -0.418678 -0.618642 0
M  V30 1914 H 180.931 -1.60213 -1.10985 0
M  V30 1915 H 180.027 -1.67094 -2.63602 0
M  V30 1916 N 180.328 1.1314 -1.09713 0
M  V30 1917 C 181.575 1.84484 -0.834987 0
M  V30 1918 C 181.903 1.83689 0.639418 0
M  V30 1919 O 181.158 1.2724 1.4869 0
M  V30 1920 C 181.457 3.32167 -1.3191 0
M  V30 1921 C 181.123 3.53139 -2.80363 0
M  V30 1922 C 179.785 3.58571 -3.20905 0
M  V30 1923 C 182.137 3.60866 -3.76065 0
M  V30 1924 C 179.465 3.69267 -4.55916 0
M  V30 1925 C 181.817 3.73089 -5.10869 0
M  V30 1926 C 180.481 3.76775 -5.50996 0
M  V30 1927 H 179.751 0.675073 -0.305544 0
M  V30 1928 H 182.398 1.33554 -1.37243 0
M  V30 1929 H 180.703 3.85469 -0.701517 0
M  V30 1930 H 182.4 3.85821 -1.09284 0
M  V30 1931 H 178.99 3.49569 -2.47991 0
M  V30 1932 H 183.174 3.55946 -3.45855 0
M  V30 1933 H 178.43 3.70388 -4.86438 0
M  V30 1934 H 182.604 3.78011 -5.84877 0
M  V30 1935 H 180.231 3.84815 -6.55608 0
M  V30 1936 N 181.806 0.884767 1.30421 0
M  V30 1937 C 182.769 0.356277 2.26414 0
M  V30 1938 C 183.769 -0.501124 1.52792 0
M  V30 1939 O 184.959 -0.30831 1.7145 0
M  V30 1940 C 182.091 -0.492316 3.37326 0
M  V30 1941 H 183.284 1.20389 2.74675 0
M  V30 1942 H 180.837 0.661607 1.41607 0
M  V30 1943 H 181.572 -1.36052 2.94381 0
M  V30 1944 H 181.357 0.121832 3.91911 0
M  V30 1945 H 182.847 -0.853871 4.08777 0
M  V30 1946 N 183.284 -1.43765 0.645699 0
M  V30 1947 C 184.247 -2.29163 -0.0409488 0
M  V30 1948 C 185.247 -1.41813 -0.757996 0
M  V30 1949 O 186.437 -1.63527 -0.600382 0
M  V30 1950 C 183.569 -3.23716 -1.06869 0
M  V30 1951 H 184.762 -2.91366 0.710345 0
M  V30 1952 H 182.315 -1.5092 0.406547 0
M  V30 1953 H 183.05 -2.66393 -1.84947 0
M  V30 1954 H 182.835 -3.88105 -0.558277 0
M  V30 1955 H 184.325 -3.87831 -1.54845 0
M  V30 1956 N 184.763 -0.387143 -1.52771 0
M  V30 1957 C 185.993 0.195585 -2.05672 0
M  V30 1958 C 186.401 1.41241 -1.25887 0
M  V30 1959 O 185.744 1.81265 -0.298081 0
M  V30 1960 C 185.806 0.632327 -3.53895 0
M  V30 1961 C 185.47 -0.470739 -4.54569 0
M  V30 1962 C 186.467 -1.32746 -5.02667 0
M  V30 1963 C 184.152 -0.637151 -4.98243 0
M  V30 1964 C 186.146 -2.33574 -5.93061 0
M  V30 1965 C 183.833 -1.64877 -5.88438 0
M  V30 1966 C 184.831 -2.49649 -6.35739 0
M  V30 1967 O 184.519 -3.49082 -7.24153 0
M  V30 1968 H 184.251 0.033658 -0.675162 0
M  V30 1969 H 186.805 -0.550221 -1.97893 0
M  V30 1970 H 185.035 1.43008 -3.59285 0
M  V30 1971 H 186.724 1.14048 -3.89548 0
M  V30 1972 H 187.49 -1.21019 -4.69659 0
M  V30 1973 H 183.369 0.0129567 -4.60998 0
M  V30 1974 H 186.913 -2.99777 -6.29904 0
M  V30 1975 H 182.81 -1.76643 -6.2086 0
M  V30 1976 H 183.578 -3.45065 -7.42208 0
M  V30 1977 N 186.241 1.57166 -0.116904 0
M  V30 1978 C 187.471 1.99184 0.548586 0
M  V30 1979 C 187.879 0.995436 1.60897 0
M  V30 1980 O 187.222 -0.0201293 1.83689 0
M  V30 1981 C 187.284 3.37611 1.23526 0
M  V30 1982 C 186.948 4.55857 0.323077 0
M  V30 1983 C 187.945 5.18056 -0.437476 0
M  V30 1984 C 185.63 5.01751 0.234761 0
M  V30 1985 C 187.624 6.24536 -1.2741 0
M  V30 1986 C 185.311 6.08093 -0.605496 0
M  V30 1987 C 186.309 6.69352 -1.35856 0
M  V30 1988 O 185.997 7.7364 -2.18487 0
M  V30 1989 H 185.729 0.659148 0.149999 0
M  V30 1990 H 188.283 2.0443 -0.199428 0
M  V30 1991 H 186.513 3.29113 2.0303 0
M  V30 1992 H 188.202 3.63932 1.79745 0
M  V30 1993 H 188.968 4.83516 -0.379105 0
M  V30 1994 H 184.847 4.53817 0.810601 0
M  V30 1995 H 188.391 6.72281 -1.86237 0
M  V30 1996 H 184.288 6.42063 -0.665268 0
M  V30 1997 H 185.056 7.90727 -2.11406 0
M  V30 1998 N 187.719 -0.156864 1.56817 0
M  V30 1999 C 188.965 -0.872416 1.83076 0
M  V30 2000 C 189.298 -1.81261 0.697001 0
M  V30 2001 O 188.573 -1.92171 -0.30008 0
M  V30 2002 C 188.856 -1.65551 3.19789 0
M  V30 2003 C 188.709 -0.737467 4.43713 0
M  V30 2004 C 190.028 -2.62012 3.53606 0
M  V30 2005 H 187.147 -0.315715 0.665953 0
M  V30 2006 H 189.789 -0.138004 1.89498 0
M  V30 2007 H 187.939 -2.28159 3.14445 0
M  V30 2008 H 189.611 -0.123143 4.61136 0
M  V30 2009 H 187.854 -0.0464067 4.33775 0
M  V30 2010 H 188.525 -1.32122 5.35955 0
M  V30 2011 H 191.001 -2.09525 3.59497 0
M  V30 2012 H 189.877 -3.13861 4.50314 0
M  V30 2013 H 190.138 -3.42902 2.79053 0
M  V30 2014 N 189.197 -1.51736 -0.425897 0
M  V30 2015 C 190.16 -1.73271 -1.50032 0
M  V30 2016 C 191.16 -0.602639 -1.4908 0
M  V30 2017 O 192.35 -0.87033 -1.509 0
M  V30 2018 C 189.482 -1.79969 -2.89523 0
M  V30 2019 H 190.675 -2.69172 -1.32237 0
M  V30 2020 H 188.228 -1.41899 -0.65532 0
M  V30 2021 H 188.963 -0.859241 -3.1271 0
M  V30 2022 H 188.748 -2.62109 -2.91619 0
M  V30 2023 H 190.238 -1.9843 -3.67444 0
M  V30 2024 N 190.675 0.682077 -1.42076 0
M  V30 2025 C 191.903 1.47057 -1.4554 0
M  V30 2026 C 192.318 1.8869 -0.0645779 0
M  V30 2027 O 191.675 1.57666 0.919115 0
M  V30 2028 C 191.726 2.72442 -2.37609 0
M  V30 2029 O 191.447 2.32559 -3.71279 0
M  V30 2030 C 192.948 3.66069 -2.50017 0
M  V30 2031 H 190.168 0.452737 -0.495248 0
M  V30 2032 H 192.712 0.838695 -1.8651 0
M  V30 2033 H 190.867 3.31835 -1.9991 0
M  V30 2034 H 191.281 3.13475 -4.20516 0
M  V30 2035 H 192.755 4.50792 -3.18576 0
M  V30 2036 H 193.232 4.11476 -1.53572 0
M  V30 2037 H 193.838 3.12572 -2.88407 0
M  V30 2038 N 192.153 1.28127 0.917671 0
M  V30 2039 C 193.43 1.05761 1.64542 0
M  V30 2040 C 193.81 -0.404344 2.07191 0
M  V30 2041 O 193.158 -1.38963 1.81388 0
M  V30 2042 C 193.368 2.02857 2.83989 0
M  V30 2043 C 194.716 2.32786 3.551 0
M  V30 2044 O 195.74 2.0091 2.94132 0
M  V30 2045 O 194.599 2.87169 4.64969 0
M  V30 2046 H 191.693 0.403916 0.721652 0
M  V30 2047 H 194.239 1.39431 0.967322 0
M  V30 2048 H 193.011 3.01407 2.49538 0
M  V30 2049 H 192.634 1.69809 3.59514 0
M  V30 2050 N 193.631 -1.12557 1.10312 0
M  V30 2051 C 194.88 -1.83395 0.839588 0
M  V30 2052 C 195.193 -1.84939 -0.636929 0
M  V30 2053 O 196.399 -2.51761 -1.01631 0
M  V30 2054 C 194.855 -3.29303 1.45215 0
M  V30 2055 C 194.463 -3.36122 2.96186 0
M  V30 2056 C 196.207 -4.05121 1.26796 0
M  V30 2057 C 194.114 -4.76357 3.50483 0
M  V30 2058 H 193.044 -0.687133 0.310425 0
M  V30 2059 H 195.695 -1.26746 1.32694 0
M  V30 2060 H 194.077 -3.85812 0.892469 0
M  V30 2061 H 195.251 -2.89559 3.58458 0
M  V30 2062 H 193.566 -2.73776 3.13745 0
M  V30 2063 H 196.163 -5.08668 1.64806 0
M  V30 2064 H 196.506 -4.15773 0.209409 0
M  V30 2065 H 197.039 -3.54967 1.79563 0
M  V30 2066 H 193.778 -4.70899 4.55998 0
M  V30 2067 H 193.298 -5.23377 2.92978 0
M  V30 2068 H 194.977 -5.45294 3.48228 0
M  V30 2069 N 195.109 -0.891671 -1.2995 0
M  V30 2070 C 196.057 -0.353066 -2.29905 0
M  V30 2071 C 197.051 0.543509 -1.60444 0
M  V30 2072 O 198.257 0.4272 -1.74857 0
M  V30 2073 H 194.632 -0.095531 -0.745907 0
M  V30 2074 H 196.603 -1.20961 -2.72784 0
M  V30 2075 C 195.352 0.411475 -3.45257 0
M  V30 2076 H 194.675 -0.269182 -3.98893 0
M  V30 2077 H 196.115 0.753328 -4.17254 0
M  V30 2078 C 194.574 1.6111 -2.9588 0
M  V30 2079 O 195.104 2.71045 -2.96475 0
M  V30 2080 N 193.31 1.45054 -2.51809 0
M  V30 2081 H 192.857 0.556175 -2.51524 0
M  V30 2082 H 192.815 2.25453 -2.1913 0
M  V30 2083 N 196.587 1.43421 -0.653314 0
M  V30 2084 C 197.497 2.34568 0.0388565 0
M  V30 2085 C 198.513 1.53888 0.81207 0
M  V30 2086 O 199.689 1.86539 0.759294 0
M  V30 2087 C 196.754 3.32167 0.993269 0
M  V30 2088 C 195.815 4.28751 0.216977 0
M  V30 2089 C 195.048 5.21688 1.12593 0
M  V30 2090 O 195.271 5.19052 2.36519 0
M  V30 2091 O 194.205 5.98919 0.598284 0
M  V30 2092 H 198.031 2.95251 -0.711386 0
M  V30 2093 H 195.616 1.43564 -0.413502 0
M  V30 2094 H 197.498 3.92183 1.54176 0
M  V30 2095 H 196.173 2.73987 1.72374 0
M  V30 2096 H 195.08 3.72215 -0.375101 0
M  V30 2097 H 196.413 4.89913 -0.473924 0
M  V30 2098 N 198.065 0.39524 1.52563 0
M  V30 2099 C 199.305 -0.184744 2.03563 0
M  V30 2100 C 199.669 -1.43548 1.27507 0
M  V30 2101 O 200.87 -2.093 1.68662 0
M  V30 2102 C 199.141 -0.440294 3.54678 0
M  V30 2103 S 200.7 -0.989712 4.27493 0
M  V30 2104 H 197.518 -0.0515075 0.709132 0
M  V30 2105 H 200.12 0.544957 1.87751 0
M  V30 2106 H 198.824 0.477005 4.07618 0
M  V30 2107 H 198.355 -1.19825 3.74707 0
M  V30 2108 H 200.37 -2.27155 4.41152 0
M  V30 2109 N 199.544 -1.57102 0.125237 0
M  V30 2110 C 200.772 -1.99761 -0.538797 0
M  V30 2111 C 201.187 -1.00503 -1.59827 0
M  V30 2112 O 200.544 0.00119474 -1.825 0
M  V30 2113 C 200.595 -3.42408 -1.15927 0
M  V30 2114 O 200.316 -4.37869 -0.142143 0
M  V30 2115 C 201.817 -4.00232 -1.90602 0
M  V30 2116 H 199.037 -0.655772 -0.14214 0
M  V30 2117 H 201.581 -2.03383 0.213413 0
M  V30 2118 H 199.736 -3.39706 -1.86223 0
M  V30 2119 H 200.15 -5.21128 -0.593775 0
M  V30 2120 H 201.624 -5.02105 -2.29335 0
M  V30 2121 H 202.101 -3.39721 -2.78363 0
M  V30 2122 H 202.707 -4.06499 -1.25055 0
M  V30 2123 N 201.022 0.148545 -1.56898 0
M  V30 2124 C 202.299 0.890019 -1.74178 0
M  V30 2125 C 202.679 1.99407 -0.692839 0
M  V30 2126 O 202.027 2.26671 0.288505 0
M  V30 2127 C 202.237 1.43389 -3.18183 0
M  V30 2128 C 203.585 1.89791 -3.79822 0
M  V30 2129 O 204.609 1.53134 -3.21603 0
M  V30 2130 O 203.468 2.57387 -4.82093 0
M  V30 2131 H 200.562 0.420496 -0.712118 0
M  V30 2132 H 203.108 0.134591 -1.69165 0
M  V30 2133 H 201.88 0.640383 -3.86024 0
M  V30 2134 H 201.503 2.25287 -3.27615 0
M  V30 2135 N 202.5 1.5196 0.417844 0
M  V30 2136 C 203.747 1.65591 1.16559 0
M  V30 2137 C 204.075 0.381565 1.90721 0
M  V30 2138 O 203.33 -0.635156 1.85106 0
M  V30 2139 C 203.629 2.82269 2.19223 0
M  V30 2140 C 203.295 4.20819 1.61933 0
M  V30 2141 C 201.957 4.58506 1.46033 0
M  V30 2142 C 204.309 5.07196 1.20008 0
M  V30 2143 C 201.637 5.80257 0.867113 0
M  V30 2144 C 203.989 6.29544 0.621086 0
M  V30 2145 C 202.653 6.65987 0.449144 0
M  V30 2146 H 201.923 0.605939 0.42652 0
M  V30 2147 H 204.57 1.86041 0.45397 0
M  V30 2148 H 202.875 2.56118 2.96498 0
M  V30 2149 H 204.572 2.90012 2.76936 0
M  V30 2150 H 201.162 3.91116 1.7529 0
M  V30 2151 H 205.346 4.7867 1.31105 0
M  V30 2152 H 200.602 6.07124 0.721833 0
M  V30 2153 H 204.776 6.95805 0.287798 0
M  V30 2154 H 202.403 7.60199 -0.012632 0
M  V30 2155 N 203.978 -0.674533 1.42435 0
M  V30 2156 C 205.224 -1.43671 1.43131 0
M  V30 2157 C 205.557 -1.94142 0.0476021 0
M  V30 2158 O 204.832 -1.70924 -0.928188 0
M  V30 2159 C 205.115 -2.63355 2.45594 0
M  V30 2160 C 204.968 -2.18514 3.93156 0
M  V30 2161 C 206.287 -3.65571 2.45043 0
M  V30 2162 H 203.406 -0.521077 0.521198 0
M  V30 2163 H 206.048 -0.766551 1.7385 0
M  V30 2164 H 204.198 -3.2053 2.19528 0
M  V30 2165 H 205.87 -1.66504 4.30202 0
M  V30 2166 H 204.113 -1.50086 4.07009 0
M  V30 2167 H 204.784 -3.04484 4.60428 0
M  V30 2168 H 207.26 -3.18113 2.68223 0
M  V30 2169 H 206.136 -4.46893 3.18713 0
M  V30 2170 H 206.397 -4.16716 1.47649 0
M  V30 2171 N 205.456 -1.28612 -0.910864 0
M  V30 2172 C 206.733 -1.06632 -1.63979 0
M  V30 2173 C 207.113 0.393351 -2.07403 0
M  V30 2174 O 206.461 1.37999 -1.82122 0
M  V30 2175 C 206.671 -2.0436 -2.8291 0
M  V30 2176 C 208.019 -2.34666 -3.5386 0
M  V30 2177 O 209.043 -2.02467 -2.93062 0
M  V30 2178 O 207.902 -2.89631 -4.63439 0
M  V30 2179 H 204.996 -0.407737 -0.7195 0
M  V30 2180 H 207.542 -1.39942 -0.959914 0
M  V30 2181 H 206.314 -3.02727 -2.47936 0
M  V30 2182 H 205.937 -1.71714 -3.58609 0
M  V30 2183 N 206.934 1.1197 -1.10907 0
M  V30 2184 C 208.18 1.8386 -0.855773 0
M  V30 2185 C 208.513 1.84134 0.617103 0
M  V30 2186 O 207.788 1.29041 1.45529 0
M  V30 2187 C 208.071 3.31305 -1.411 0
M  V30 2188 C 207.924 3.39456 -2.9511 0
M  V30 2189 C 209.243 4.2721 -1.05736 0
M  V30 2190 H 206.362 0.667545 -0.312334 0
M  V30 2191 H 209.004 1.31331 -1.37303 0
M  V30 2192 H 207.154 3.76169 -0.97105 0
M  V30 2193 H 208.826 3.03191 -3.47668 0
M  V30 2194 H 207.069 2.79849 -3.31462 0
M  V30 2195 H 207.74 4.43209 -3.29044 0
M  V30 2196 H 210.216 3.90497 -1.43706 0
M  V30 2197 H 209.092 5.28775 -1.47269 0
M  V30 2198 H 209.353 4.42088 0.0325958 0
M  V30 2199 N 208.412 0.89855 1.29475 0
M  V30 2200 C 209.823 0.572537 1.77705 0
M  V30 2201 C 210.174 -0.911778 1.73727 0
M  V30 2202 O 209.299 -1.71288 1.32247 0
M  V30 2203 C 209.894 1.03252 3.22683 0
M  V30 2204 C 208.453 0.757687 3.68695 0
M  V30 2205 C 207.6 1.20787 2.49612 0
M  V30 2206 H 210.551 1.08139 1.16153 0
M  V30 2207 H 210.572 0.367307 3.78723 0
M  V30 2208 H 210.084 2.11285 3.25546 0
M  V30 2209 H 208.185 -0.310079 3.71308 0
M  V30 2210 H 208.298 1.35476 4.59547 0
M  V30 2211 H 206.662 0.626888 2.46865 0
M  V30 2212 H 207.445 2.29622 2.55203 0
M  V30 2213 N 209.89 -1.43072 0.660911 0
M  V30 2214 C 211.13 -2.03596 0.181146 0
M  V30 2215 C 211.494 -1.51057 -1.18515 0
M  V30 2216 O 212.695 -2.03275 -1.75877 0
M  V30 2217 C 210.966 -3.56845 0.19911 0
M  V30 2218 S 212.525 -4.38289 -0.211684 0
M  V30 2219 H 209.343 -0.706954 0.0757479 0
M  V30 2220 H 211.945 -1.75027 0.870965 0
M  V30 2221 H 210.649 -3.92583 1.1961 0
M  V30 2222 H 210.18 -3.90067 -0.510996 0
M  V30 2223 H 212.195 -4.74583 -1.44863 0
M  V30 2224 N 211.368 -0.403325 -1.52352 0
M  V30 2225 C 212.593 0.176499 -2.06648 0
M  V30 2226 C 213.018 1.38577 -1.27193 0
M  V30 2227 O 212.376 1.7879 -0.300637 0
M  V30 2228 C 212.424 0.511061 -3.5696 0
M  V30 2229 O 211.528 1.60294 -3.79973 0
M  V30 2230 H 210.869 0.0167337 -0.663789 0
M  V30 2231 H 213.399 -0.574848 -1.96359 0
M  V30 2232 H 213.409 0.771362 -4.00642 0
M  V30 2233 H 212.084 -0.37296 -4.14224 0
M  V30 2234 H 210.661 1.33526 -3.48174 0
M  V30 2235 N 212.846 1.57033 -0.133567 0
M  V30 2236 C 213.796 2.12641 0.822671 0
M  V30 2237 C 214.78 1.05081 1.21847 0
M  V30 2238 O 215.972 1.31287 1.18713 0
M  V30 2239 C 213.101 2.74094 2.06706 0
M  V30 2240 C 212.187 3.88757 1.69497 0
M  V30 2241 N 212.578 4.95194 1.03037 0
M  V30 2242 C 210.876 3.99213 1.98859 0
M  V30 2243 C 211.577 5.75414 0.852873 0
M  V30 2244 N 210.553 5.25726 1.3825 0
M  V30 2245 H 214.355 2.92308 0.305537 0
M  V30 2246 H 211.869 1.62256 0.0684276 0
M  V30 2247 H 213.866 3.12285 2.76195 0
M  V30 2248 H 212.526 1.95896 2.5895 0
M  V30 2249 H 213.537 5.13247 0.692669 0
M  V30 2250 H 210.214 3.32075 2.53047 0
M  V30 2251 H 211.604 6.71089 0.330091 0
M  V30 2252 N 214.325 -0.140222 1.56975 0
M  V30 2253 C 215.572 -0.851687 1.83719 0
M  V30 2254 C 215.9 -1.80862 0.715485 0
M  V30 2255 O 215.155 -1.93464 -0.294956 0
M  V30 2256 C 215.454 -1.65386 3.16832 0
M  V30 2257 C 215.12 -0.843112 4.42947 0
M  V30 2258 C 213.782 -0.619464 4.77196 0
M  V30 2259 C 216.134 -0.276582 5.20466 0
M  V30 2260 C 213.462 0.181312 5.8642 0
M  V30 2261 C 215.814 0.51127 6.30531 0
M  V30 2262 C 214.478 0.745432 6.63325 0
M  V30 2263 H 213.748 -0.311654 0.672274 0
M  V30 2264 H 216.395 -0.115006 1.91154 0
M  V30 2265 H 214.7 -2.46084 3.04877 0
M  V30 2266 H 216.397 -2.20793 3.34741 0
M  V30 2267 H 212.987 -1.0275 4.16101 0
M  V30 2268 H 217.171 -0.436632 4.94376 0
M  V30 2269 H 212.427 0.372165 6.10266 0
M  V30 2270 H 216.601 0.957354 6.89788 0
M  V30 2271 H 214.228 1.36778 7.47794 0
M  V30 2272 N 215.803 -1.52179 -0.40978 0
M  V30 2273 C 217.043 -1.67882 -1.16597 0
M  V30 2274 C 217.407 -0.399795 -1.87791 0
M  V30 2275 O 218.608 -0.43292 -2.65291 0
M  V30 2276 C 216.879 -2.86662 -2.13448 0
M  V30 2277 S 218.438 -3.22843 -2.97183 0
M  V30 2278 H 215.256 -0.59118 -0.395002 0
M  V30 2279 H 217.858 -1.9017 -0.453373 0
M  V30 2280 H 216.562 -3.77998 -1.59831 0
M  V30 2281 H 216.093 -2.66645 -2.89247 0
M  V30 2282 H 218.108 -2.71415 -4.15389 0
M  V30 2283 N 217.281 0.66697 -1.42791 0
M  V30 2284 C 218.229 1.80157 -1.47127 0
M  V30 2285 C 219.223 1.65825 -0.346199 0
M  V30 2286 O 220.429 1.72338 -0.519572 0
M  V30 2287 H 216.804 0.594158 -0.460956 0
M  V30 2288 H 218.775 1.73619 -2.42692 0
M  V30 2289 C 217.524 3.18351 -1.39813 0
M  V30 2290 H 216.847 3.3001 -2.25684 0
M  V30 2291 H 218.287 3.97736 -1.46908 0
M  V30 2292 C 216.746 3.36707 -0.11391 0
M  V30 2293 O 217.276 3.93027 0.830241 0
M  V30 2294 N 215.482 2.90586 -0.0285295 0
M  V30 2295 H 215.029 2.4494 -0.79764 0
M  V30 2296 H 214.987 3.03245 0.830063 0
M  V30 2297 N 218.759 1.29093 0.90403 0
M  V30 2298 C 219.707 1.13727 2.02901 0
M  V30 2299 C 220.701 0.0539853 1.69314 0
M  V30 2300 O 221.907 0.213469 1.7873 0
M  V30 2301 H 218.282 0.35117 0.664969 0
M  V30 2302 H 220.253 2.08982 2.13001 0
M  V30 2303 C 219.002 0.826066 3.37745 0
M  V30 2304 H 218.325 1.65164 3.64089 0
M  V30 2305 H 219.765 0.758559 4.17159 0
M  V30 2306 C 218.224 -0.470541 3.33598 0
M  V30 2307 O 218.754 -1.49792 3.72727 0
M  V30 2308 N 216.96 -0.474812 2.86695 0
M  V30 2309 H 216.507 0.361692 2.55048 0
M  V30 2310 H 216.465 -1.34236 2.84303 0
M  V30 2311 N 220.237 -1.11381 1.11499 0
M  V30 2312 C 221.484 -1.83132 0.864231 0
M  V30 2313 C 221.812 -1.84683 -0.610114 0
M  V30 2314 O 221.067 -1.29589 -1.46646 0
M  V30 2315 C 221.366 -3.30026 1.37177 0
M  V30 2316 C 221.032 -3.48634 2.85946 0
M  V30 2317 C 219.694 -3.53421 3.26569 0
M  V30 2318 C 222.046 -3.54837 3.81759 0
M  V30 2319 C 219.374 -3.61967 4.61733 0
M  V30 2320 C 221.726 -3.64915 5.1674 0
M  V30 2321 C 220.39 -3.67962 5.5692 0
M  V30 2322 H 219.66 -0.670127 0.316245 0
M  V30 2323 H 222.307 -1.31354 1.3935 0
M  V30 2324 H 220.612 -3.84304 0.762753 0
M  V30 2325 H 222.309 -3.84034 1.15408 0
M  V30 2326 H 218.899 -3.45579 2.53521 0
M  V30 2327 H 223.083 -3.50399 3.51474 0
M  V30 2328 H 218.339 -3.62603 4.92269 0
M  V30 2329 H 222.513 -3.68658 5.90816 0
M  V30 2330 H 220.14 -3.74336 6.61647 0
M  V30 2331 N 221.715 -0.905404 -1.28997 0
M  V30 2332 C 222.964 -0.530191 -1.94607 0
M  V30 2333 C 223.277 0.929185 -1.72121 0
M  V30 2334 O 224.483 1.41218 -2.31883 0
M  V30 2335 C 222.939 -0.897333 -3.48534 0
M  V30 2336 C 222.547 -2.37587 -3.79811 0
M  V30 2337 C 224.291 -0.592304 -4.20347 0
M  V30 2338 C 222.198 -2.68357 -5.27009 0
M  V30 2339 H 221.128 -0.194558 -0.728466 0
M  V30 2340 H 223.779 -1.10318 -1.46636 0
M  V30 2341 H 222.161 -0.253214 -3.9519 0
M  V30 2342 H 223.335 -3.06602 -3.43994 0
M  V30 2343 H 221.65 -2.6505 -3.2115 0
M  V30 2344 H 224.247 -0.798975 -5.28697 0
M  V30 2345 H 224.59 0.469474 -4.13644 0
M  V30 2346 H 225.123 -1.19452 -3.79442 0
M  V30 2347 H 221.862 -3.73355 -5.38782 0
M  V30 2348 H 221.382 -2.03971 -5.64053 0
M  V30 2349 H 223.061 -2.54922 -5.94663 0
M  V30 2350 N 223.193 1.4272 -0.668489 0
M  V30 2351 C 224.441 2.01226 -0.187769 0
M  V30 2352 C 224.762 1.53092 1.2078 0
M  V30 2353 O 224.032 0.74993 1.80977 0
M  V30 2354 H 222.612 0.744041 -0.0664272 0
M  V30 2355 H 225.274 1.74723 -0.863583 0
M  V30 2356 H 224.37 3.11556 -0.184166 0
M  V30 2357 N 224.671 0.411399 1.52136 0
M  V30 2358 C 225.919 -0.163322 2.01439 0
M  V30 2359 C 226.24 -1.45453 1.29879 0
M  V30 2360 O 225.51 -1.91225 0.4254 0
M  V30 2361 H 224.09 -0.0633447 0.744309 0
M  V30 2362 H 226.752 0.548161 1.87033 0
M  V30 2363 H 225.848 -0.357817 3.10042 0
M  V30 2364 N 226.149 -1.5696 0.141893 0
M  V30 2365 C 227.379 -2.00031 -0.516828 0
M  V30 2366 C 227.787 -1.02091 -1.59293 0
M  V30 2367 O 227.13 -0.00909657 -1.83698 0
M  V30 2368 C 227.192 -3.39534 -1.1814 0
M  V30 2369 C 226.856 -4.56313 -0.250513 0
M  V30 2370 C 227.853 -5.17295 0.519839 0
M  V30 2371 C 225.538 -5.02061 -0.154907 0
M  V30 2372 C 227.532 -6.2243 1.3733 0
M  V30 2373 C 225.219 -6.07053 0.702161 0
M  V30 2374 C 226.217 -6.67106 1.46487 0
M  V30 2375 O 225.905 -7.70066 2.30767 0
M  V30 2376 H 225.637 -0.661451 -0.139493 0
M  V30 2377 H 228.191 -2.04086 0.231926 0
M  V30 2378 H 226.421 -3.32302 -1.97769 0
M  V30 2379 H 228.11 -3.66745 -1.73933 0
M  V30 2380 H 228.876 -4.82852 0.45598 0
M  V30 2381 H 224.755 -4.5505 -0.7383 0
M  V30 2382 H 228.299 -6.69233 1.96909 0
M  V30 2383 H 224.196 -6.40923 0.76733 0
M  V30 2384 H 224.964 -7.87264 2.23959 0
M  V30 2385 N 227.627 0.131896 -1.57047 0
M  V30 2386 C 228.874 0.841932 -1.84168 0
M  V30 2387 C 229.202 1.8048 -0.725066 0
M  V30 2388 O 228.457 1.93618 0.284692 0
M  V30 2389 C 228.756 1.63703 -3.17704 0
M  V30 2390 C 228.422 0.81961 -4.43388 0
M  V30 2391 C 227.084 0.594148 -4.77518 0
M  V30 2392 C 229.436 0.248977 -5.20605 0
M  V30 2393 C 226.764 -0.212409 -5.86315 0
M  V30 2394 C 229.116 -0.544701 -6.30251 0
M  V30 2395 C 227.78 -0.780599 -6.6292 0
M  V30 2396 H 227.05 0.308085 -0.673917 0
M  V30 2397 H 229.697 0.104867 -1.91213 0
M  V30 2398 H 228.002 2.44464 -3.06177 0
M  V30 2399 H 229.699 2.19015 -3.35907 0
M  V30 2400 H 226.289 1.00542 -4.16641 0
M  V30 2401 H 230.473 0.410408 -4.946 0
M  V30 2402 H 225.729 -0.404524 -6.1006 0
M  V30 2403 H 229.903 -0.993922 -6.89271 0
M  V30 2404 H 227.53 -1.40742 -7.47058 0
M  V30 2405 N 229.106 1.52395 0.401703 0
M  V30 2406 C 230.346 1.68498 1.15705 0
M  V30 2407 C 230.71 0.409748 1.87577 0
M  V30 2408 O 231.911 0.446983 2.65058 0
M  V30 2409 C 230.182 2.87789 2.11924 0
M  V30 2410 S 231.741 3.24415 2.95466 0
M  V30 2411 H 228.559 0.593267 0.391862 0
M  V30 2412 H 231.161 1.90408 0.443282 0
M  V30 2413 H 229.865 3.7884 1.57824 0
M  V30 2414 H 229.396 2.68175 2.87829 0
M  V30 2415 H 231.411 2.73614 4.13944 0
M  V30 2416 N 230.584 -0.659388 1.43143 0
M  V30 2417 C 231.809 -1.45221 1.48073 0
M  V30 2418 C 232.234 -1.87845 0.097995 0
M  V30 2419 O 231.592 -1.56985 -0.90694 0
M  V30 2420 C 231.64 -2.66748 2.42647 0
M  V30 2421 O 230.744 -3.65583 1.90848 0
M  V30 2422 H 230.085 -0.435669 0.501088 0
M  V30 2423 H 232.615 -0.807432 1.87994 0
M  V30 2424 H 232.625 -3.14637 2.59745 0
M  V30 2425 H 231.3 -2.35067 3.43098 0
M  V30 2426 H 229.877 -3.24693 1.83381 0
M  V30 2427 N 232.062 -1.29571 -0.897171 0
M  V30 2428 C 233.302 -1.18959 -1.66217 0
M  V30 2429 C 233.666 0.254271 -1.90309 0
M  V30 2430 O 234.867 0.483407 -2.64417 0
M  V30 2431 C 233.138 -1.98302 -2.9734 0
M  V30 2432 S 234.697 -2.04253 -3.88364 0
M  V30 2433 H 231.515 -0.424137 -0.570639 0
M  V30 2434 H 234.117 -1.6389 -1.06585 0
M  V30 2435 H 232.821 -3.02342 -2.77521 0
M  V30 2436 H 232.352 -1.53986 -3.62011 0
M  V30 2437 H 234.367 -1.16105 -4.82425 0
M  V30 2438 N 233.54 1.10788 -1.12088 0
M  V30 2439 C 234.951 1.64181 -0.88891 0
M  V30 2440 C 235.302 1.87508 0.577498 0
M  V30 2441 O 234.427 1.61434 1.44112 0
M  V30 2442 C 235.022 2.98257 -1.60712 0
M  V30 2443 C 233.581 3.4853 -1.42139 0
M  V30 2444 C 232.728 2.23208 -1.6454 0
M  V30 2445 H 235.679 0.943368 -1.27618 0
M  V30 2446 H 235.7 3.65552 -1.05604 0
M  V30 2447 H 235.212 2.81246 -2.67436 0
M  V30 2448 H 233.313 3.70692 -0.376552 0
M  V30 2449 H 233.426 4.26882 -2.17505 0
M  V30 2450 H 231.79 2.31169 -1.06925 0
M  V30 2451 H 232.573 2.08733 -2.72554 0
M  V30 2452 N 235.018 0.912232 1.28515 0
M  V30 2453 C 236.429 0.591352 1.77087 0
M  V30 2454 C 236.78 -0.8933 1.74684 0
M  V30 2455 O 235.905 -1.69876 1.34056 0
M  V30 2456 C 236.5 1.06668 3.2157 0
M  V30 2457 C 235.059 0.79675 3.67871 0
M  V30 2458 C 234.206 1.23427 2.48316 0
M  V30 2459 H 237.157 1.09365 1.15 0
M  V30 2460 H 237.178 0.407455 3.78312 0
M  V30 2461 H 236.69 2.14726 3.23287 0
M  V30 2462 H 234.791 -0.270679 3.71616 0
M  V30 2463 H 234.904 1.40343 4.58084 0
M  V30 2464 H 233.268 0.653036 2.46186 0
M  V30 2465 H 234.051 2.32316 2.52753 0
M  V30 2466 N 236.496 -1.42363 0.676048 0
M  V30 2467 C 237.406 -2.346 -0.00153389 0
M  V30 2468 C 238.422 -1.5516 -0.787485 0
M  V30 2469 O 239.598 -1.87723 -0.729521 0
M  V30 2470 C 236.663 -3.33705 -0.940298 0
M  V30 2471 C 235.724 -4.29042 -0.148739 0
M  V30 2472 C 234.957 -5.23413 -1.04279 0
M  V30 2473 O 235.18 -5.22749 -2.28232 0
M  V30 2474 O 234.114 -5.99795 -0.502925 0
M  V30 2475 H 237.94 -2.94082 0.758268 0
M  V30 2476 H 235.525 -1.42888 0.436289 0
M  V30 2477 H 237.407 -3.94586 -1.47917 0
M  V30 2478 H 236.082 -2.76695 -1.67993 0
M  V30 2479 H 234.989 -3.71571 0.43427 0
M  V30 2480 H 236.322 -4.89097 0.551805 0
M  V30 2481 N 237.974 -0.419461 -1.51915 0
M  V30 2482 C 239.204 0.151915 -2.06041 0
M  V30 2483 C 239.612 1.38539 -1.28855 0
M  V30 2484 O 238.955 1.80592 -0.336463 0
M  V30 2485 C 239.017 0.557119 -3.55157 0
M  V30 2486 C 238.681 -0.567054 -4.53468 0
M  V30 2487 C 239.678 -1.43379 -4.99738 0
M  V30 2488 C 237.363 -0.742693 -4.96779 0
M  V30 2489 C 239.357 -2.46102 -5.87973 0
M  V30 2490 C 237.044 -1.77322 -5.84808 0
M  V30 2491 C 238.042 -2.63078 -6.30301 0
M  V30 2492 O 237.73 -3.64364 -7.16585 0
M  V30 2493 H 237.462 0.0193293 -0.675724 0
M  V30 2494 H 240.016 -0.592073 -1.96682 0
M  V30 2495 H 238.246 1.35355 -3.62238 0
M  V30 2496 H 239.935 1.05759 -3.9188 0
M  V30 2497 H 240.701 -1.30954 -4.66986 0
M  V30 2498 H 236.58 -0.0848307 -4.60922 0
M  V30 2499 H 240.124 -3.13071 -6.23404 0
M  V30 2500 H 236.021 -1.89773 -6.16974 0
M  V30 2501 H 236.789 -3.60731 -7.34721 0
M  V30 2502 N 239.452 1.56882 -0.150215 0
M  V30 2503 C 240.699 1.96228 0.500093 0
M  V30 2504 C 241.027 1.03522 1.64661 0
M  V30 2505 O 240.282 0.0650683 1.95592 0
M  V30 2506 C 240.581 3.41801 1.04437 0
M  V30 2507 C 240.247 4.50897 0.0159671 0
M  V30 2508 C 238.909 4.8046 -0.266731 0
M  V30 2509 C 241.261 5.16703 -0.683192 0
M  V30 2510 C 238.589 5.73135 -1.25434 0
M  V30 2511 C 240.941 6.10441 -1.65964 0
M  V30 2512 C 239.605 6.38382 -1.95 0
M  V30 2513 H 238.875 0.718048 0.182997 0
M  V30 2514 H 241.522 1.90019 -0.237724 0
M  V30 2515 H 239.827 3.44857 1.85959 0
M  V30 2516 H 241.524 3.69573 1.55618 0
M  V30 2517 H 238.114 4.27891 0.246485 0
M  V30 2518 H 242.298 4.93993 -0.477983 0
M  V30 2519 H 237.554 5.93074 -1.48571 0
M  V30 2520 H 241.728 6.60507 -2.20689 0
M  V30 2521 H 239.355 7.09996 -2.71679 0
M  V30 2522 N 240.93 -0.123565 1.57115 0
M  V30 2523 C 241.86 -1.15309 2.03042 0
M  V30 2524 C 242.841 -1.43454 0.914061 0
M  V30 2525 O 244.026 -1.53973 1.18347 0
M  V30 2526 C 241.156 -2.48043 2.43089 0
M  V30 2527 C 240.11 -2.3437 3.58127 0
M  V30 2528 C 239.436 -3.72026 3.84059 0
M  V30 2529 C 240.736 -1.80804 4.90007 0
M  V30 2530 H 242.43 -0.771102 2.893 0
M  V30 2531 H 239.976 -0.369479 1.39179 0
M  V30 2532 H 241.929 -3.20311 2.73823 0
M  V30 2533 H 240.653 -2.88122 1.53796 0
M  V30 2534 H 239.312 -1.64551 3.27595 0
M  V30 2535 H 238.96 -4.09582 2.91979 0
M  V30 2536 H 238.66 -3.63732 4.6149 0
M  V30 2537 H 240.184 -4.45806 4.1724 0
M  V30 2538 H 241.598 -2.42886 5.19307 0
M  V30 2539 H 239.995 -1.83343 5.71407 0
M  V30 2540 H 241.065 -0.76528 4.78823 0
M  V30 2541 N 242.408 -1.52605 -0.393616 0
M  V30 2542 C 243.358 -1.73436 -1.48 0
M  V30 2543 C 244.342 -0.588386 -1.49756 0
M  V30 2544 O 245.534 -0.846047 -1.5547 0
M  V30 2545 C 242.663 -1.90247 -2.85764 0
M  V30 2546 C 241.749 -3.10763 -2.88595 0
M  V30 2547 N 242.14 -4.33196 -2.61103 0
M  V30 2548 C 240.438 -3.10914 -3.19763 0
M  V30 2549 C 241.139 -5.1477 -2.70899 0
M  V30 2550 N 240.115 -4.50356 -3.04435 0
M  V30 2551 H 243.917 -2.65727 -1.25563 0
M  V30 2552 H 241.431 -1.5085 -0.601513 0
M  V30 2553 H 243.428 -2.03291 -3.63976 0
M  V30 2554 H 242.088 -0.991663 -3.09186 0
M  V30 2555 H 243.099 -4.61408 -2.35209 0
M  V30 2556 H 239.776 -2.29626 -3.4868 0
M  V30 2557 H 241.166 -6.22355 -2.53227 0
M  V30 2558 N 243.887 0.651787 -1.4349 0
M  V30 2559 C 245.164 1.40909 -1.35661 0
M  V30 2560 C 245.544 2.11099 -0.00511733 0
M  V30 2561 O 244.892 2.04892 1.0115 0
M  V30 2562 C 245.102 2.3926 -2.54078 0
M  V30 2563 C 246.45 3.03217 -2.97228 0
M  V30 2564 O 247.474 2.49588 -2.54135 0
M  V30 2565 O 246.333 4.00455 -3.71885 0
M  V30 2566 H 243.427 0.629625 -0.536191 0
M  V30 2567 H 245.973 0.678575 -1.55542 0
M  V30 2568 H 244.745 1.86352 -3.44076 0
M  V30 2569 H 244.368 3.1976 -2.36303 0
M  V30 2570 N 245.365 1.30045 0.890287 0
M  V30 2571 C 246.642 1.09227 1.62262 0
M  V30 2572 C 247.022 -0.360305 2.08002 0
M  V30 2573 O 246.37 -1.35084 1.84295 0
M  V30 2574 C 246.58 2.08835 2.79623 0
M  V30 2575 C 247.928 2.40266 3.50082 0
M  V30 2576 O 248.952 2.07104 2.89804 0
M  V30 2577 O 247.811 2.96967 4.58773 0
M  V30 2578 H 244.905 0.419132 0.712922 0
M  V30 2579 H 247.451 1.41451 0.937529 0
M  V30 2580 H 246.223 3.06633 2.43089 0
M  V30 2581 H 245.846 1.77397 3.55832 0
M  V30 2582 N 246.843 -1.10192 1.12674 0
M  V30 2583 C 247.776 -2.15847 0.740625 0
M  V30 2584 C 248.754 -1.60352 -0.269421 0
M  V30 2585 O 249.938 -1.87796 -0.16278 0
M  V30 2586 C 247.065 -3.38562 0.096641 0
M  V30 2587 C 246.111 -4.12758 1.07391 0
M  V30 2588 S 246.944 -4.67997 2.60267 0
M  V30 2589 C 248.1 -5.94021 1.97206 0
M  V30 2590 H 248.333 -2.48266 1.63558 0
M  V30 2591 H 245.866 -1.22019 0.946087 0
M  V30 2592 H 247.824 -4.09621 -0.268535 0
M  V30 2593 H 246.485 -3.04377 -0.775462 0
M  V30 2594 H 245.678 -5.00755 0.570997 0
M  V30 2595 H 245.28 -3.47523 1.38216 0
M  V30 2596 H 247.572 -6.64589 1.31634 0
M  V30 2597 H 248.515 -6.48979 2.83253 0
M  V30 2598 H 248.923 -5.46169 1.42686 0
M  V30 2599 N 248.321 -0.919034 -1.28029 0
M  V30 2600 C 249.268 -0.410005 -2.27129 0
M  V30 2601 C 250.238 0.518405 -1.57803 0
M  V30 2602 O 251.423 0.439451 -1.8567 0
M  V30 2603 C 248.563 0.339054 -3.4343 0
M  V30 2604 C 247.676 -0.622468 -4.27492 0
M  V30 2605 C 246.811 0.145567 -5.31001 0
M  V30 2606 C 245.85 -0.809226 -6.06727 0
M  V30 2607 N 244.987 -0.0743728 -7.02061 0
M  V30 2608 H 249.827 -1.26011 -2.70047 0
M  V30 2609 H 247.364 -0.632663 -1.328 0
M  V30 2610 H 249.322 0.789586 -4.0966 0
M  V30 2611 H 247.952 1.15346 -3.01488 0
M  V30 2612 H 247.004 -1.19153 -3.61257 0
M  V30 2613 H 248.316 -1.35252 -4.80113 0
M  V30 2614 H 247.47 0.656417 -6.03139 0
M  V30 2615 H 246.209 0.908643 -4.79161 0
M  V30 2616 H 245.214 -1.3314 -5.33436 0
M  V30 2617 H 246.439 -1.57194 -6.60656 0
M  V30 2618 H 244.385 0.670616 -6.52563 0
M  V30 2619 H 244.302 -0.744157 -7.52329 0
M  V30 2620 H 245.57 0.416109 -7.78389 0
M  V30 2621 N 249.799 1.42003 -0.683588 0
M  V30 2622 C 250.747 2.326 0.000815408 0
M  V30 2623 C 251.741 1.50308 0.781278 0
M  V30 2624 O 252.947 1.66322 0.688251 0
M  V30 2625 H 249.322 0.751758 0.0190616 0
M  V30 2626 H 251.293 2.88011 -0.780528 0
M  V30 2627 C 250.042 3.34978 0.93195 0
M  V30 2628 H 249.365 3.98345 0.340817 0
M  V30 2629 H 250.805 4.00936 1.37936 0
M  V30 2630 C 249.264 2.67925 2.04249 0
M  V30 2631 O 249.794 2.51788 3.12995 0
M  V30 2632 N 248 2.2681 1.81675 0
M  V30 2633 H 247.547 2.40135 0.932363 0
M  V30 2634 H 247.505 1.8228 2.56167 0
M  V30 2635 N 251.277 0.427512 1.51691 0
M  V30 2636 C 252.517 -0.141524 2.03909 0
M  V30 2637 C 252.881 -1.40811 1.30523 0
M  V30 2638 O 254.082 -2.05676 1.73063 0
M  V30 2639 C 252.353 -0.364962 3.55532 0
M  V30 2640 S 253.912 -0.898812 4.29496 0
M  V30 2641 H 250.73 -0.0364542 0.710065 0
M  V30 2642 H 253.332 0.584659 1.86553 0
M  V30 2643 H 252.036 0.56336 4.06515 0
M  V30 2644 H 251.567 -1.1185 3.77164 0
M  V30 2645 H 253.582 -2.17747 4.45871 0
M  V30 2646 N 252.755 -1.56801 0.158532 0
M  V30 2647 C 254.003 -1.96102 -0.488712 0
M  V30 2648 C 254.324 -1.04498 -1.64636 0
M  V30 2649 O 253.594 -0.108783 -1.95598 0
M  V30 2650 H 252.174 -0.724102 -0.183535 0
M  V30 2651 H 254.836 -1.93457 0.236728 0
M  V30 2652 H 253.932 -3.00097 -0.857219 0
M  V30 2653 N 254.233 0.115231 -1.57178 0
M  V30 2654 C 255.479 0.82357 -1.85325 0
M  V30 2655 C 255.812 1.79349 -0.744814 0
M  V30 2656 O 255.087 1.92899 0.249024 0
M  V30 2657 C 255.37 1.57014 -3.24066 0
M  V30 2658 C 255.223 0.619565 -4.45513 0
M  V30 2659 C 256.542 2.52545 -3.60429 0
M  V30 2660 H 253.661 0.297948 -0.674089 0
M  V30 2661 H 256.303 0.0877138 -1.89797 0
M  V30 2662 H 254.453 2.19742 -3.20383 0
M  V30 2663 H 256.125 0.000837639 -4.613 0
M  V30 2664 H 254.368 -0.0686174 -4.33746 0
M  V30 2665 H 255.039 1.17866 -5.3927 0
M  V30 2666 H 257.515 1.9992 -3.64926 0
M  V30 2667 H 256.391 3.01811 -4.58477 0
M  V30 2668 H 256.652 3.35383 -2.88047 0
M  V30 2669 N 255.711 1.52812 0.385517 0
M  V30 2670 C 256.659 1.78482 1.49155 0
M  V30 2671 C 257.653 0.652914 1.56312 0
M  V30 2672 O 258.859 0.835464 1.59436 0
M  V30 2673 H 255.234 0.5648 0.496493 0
M  V30 2674 H 257.205 2.71095 1.24699 0
M  V30 2675 C 255.954 1.97378 2.86247 0
M  V30 2676 H 255.277 2.83907 2.81491 0
M  V30 2677 H 256.717 2.19327 3.62866 0
M  V30 2678 C 255.176 0.74728 3.28508 0
M  V30 2679 O 255.706 -0.0736232 4.01633 0
M  V30 2680 N 253.912 0.576396 2.84826 0
M  V30 2681 H 253.459 1.24555 2.25486 0
M  V30 2682 H 253.417 -0.24288 3.1346 0
M  V30 2683 N 257.189 -0.644168 1.43834 0
M  V30 2684 C 258.429 -1.41565 1.47441 0
M  V30 2685 C 258.793 -1.91743 0.0992723 0
M  V30 2686 O 259.994 -2.68798 0.0100192 0
M  V30 2687 C 258.265 -2.55902 2.49498 0
M  V30 2688 S 259.824 -3.44287 2.72051 0
M  V30 2689 H 256.642 -0.483118 0.521649 0
M  V30 2690 H 259.244 -0.747008 1.80666 0
M  V30 2691 H 257.948 -2.17327 3.48134 0
M  V30 2692 H 257.479 -3.27607 2.17801 0
M  V30 2693 H 259.494 -4.52927 2.0266 0
M  V30 2694 N 258.668 -1.30515 -0.883378 0
M  V30 2695 C 259.893 -1.22487 -1.67367 0
M  V30 2696 C 260.318 0.208767 -1.86938 0
M  V30 2697 O 259.676 1.15015 -1.40148 0
M  V30 2698 C 259.724 -1.96041 -3.02655 0
M  V30 2699 O 258.828 -1.28859 -3.91751 0
M  V30 2700 H 258.169 -0.423573 -0.511353 0
M  V30 2701 H 260.699 -1.72362 -1.10239 0
M  V30 2702 H 260.709 -2.05124 -3.52687 0
M  V30 2703 H 259.384 -3.00307 -2.8773 0
M  V30 2704 H 257.961 -1.28141 -3.50192 0
M  V30 2705 N 260.146 1.09593 -1.13257 0
M  V30 2706 C 261.394 1.81375 -0.891492 0
M  V30 2707 C 261.715 1.86049 0.584009 0
M  V30 2708 O 260.985 1.34481 1.42449 0
M  V30 2709 H 259.565 0.671708 -0.326828 0
M  V30 2710 H 262.227 1.3256 -1.42877 0
M  V30 2711 H 261.323 2.84612 -1.28071 0
M  V30 2712 N 261.624 0.925811 1.2754 0
M  V30 2713 C 262.901 0.483726 1.89524 0
M  V30 2714 C 263.281 -1.03809 1.83812 0
M  V30 2715 O 262.629 -1.89143 1.28207 0
M  V30 2716 C 262.839 1.02769 3.33526 0
M  V30 2717 C 264.187 1.08703 4.10449 0
M  V30 2718 O 265.211 0.977175 3.42534 0
M  V30 2719 O 264.07 1.25599 5.31871 0
M  V30 2720 H 261.164 0.15529 0.812289 0
M  V30 2721 H 263.71 1.01738 1.35822 0
M  V30 2722 H 262.482 2.07155 3.31967 0
M  V30 2723 H 262.105 0.475567 3.94746 0
M  V30 2724 N 263.102 -1.41638 0.69111 0
M  V30 2725 C 264.348 -2.01598 0.220519 0
M  V30 2726 C 264.681 -1.54594 -1.17535 0
M  V30 2727 O 263.956 -0.755177 -1.79241 0
M  V30 2728 C 264.239 -3.59062 0.273243 0
M  V30 2729 C 264.092 -4.16203 1.70573 0
M  V30 2730 C 265.411 -4.38546 -0.369457 0
M  V30 2731 H 262.53 -0.732468 0.0816045 0
M  V30 2732 H 265.172 -1.68445 0.878986 0
M  V30 2733 H 263.322 -3.87435 -0.287411 0
M  V30 2734 H 264.994 -3.98722 2.31989 0
M  V30 2735 H 263.237 -3.71414 2.2413 0
M  V30 2736 H 263.908 -5.25358 1.69419 0
M  V30 2737 H 266.384 -4.1596 0.107977 0
M  V30 2738 H 265.26 -5.48069 -0.302002 0
M  V30 2739 H 265.521 -4.17662 -1.44951 0
M  V30 2740 N 264.58 -0.43555 -1.51462 0
M  V30 2741 C 265.827 0.131514 -2.02072 0
M  V30 2742 C 266.155 1.42868 -1.31981 0
M  V30 2743 O 265.41 1.91076 -0.422883 0
M  V30 2744 C 265.709 0.39942 -3.55161 0
M  V30 2745 C 265.375 -0.81172 -4.43533 0
M  V30 2746 C 264.037 -1.14387 -4.67407 0
M  V30 2747 C 266.389 -1.61976 -4.95392 0
M  V30 2748 C 263.717 -2.28477 -5.40384 0
M  V30 2749 C 266.069 -2.75164 -5.6962 0
M  V30 2750 C 264.733 -3.08835 -5.91758 0
M  V30 2751 H 264.003 0.0481244 -0.739436 0
M  V30 2752 H 266.65 -0.58238 -1.8243 0
M  V30 2753 H 264.955 1.19519 -3.73125 0
M  V30 2754 H 266.652 0.85157 -3.91854 0
M  V30 2755 H 263.242 -0.542898 -4.25148 0
M  V30 2756 H 267.426 -1.37637 -4.76833 0
M  V30 2757 H 262.682 -2.5488 -5.55739 0
M  V30 2758 H 266.856 -3.38147 -6.08793 0
M  V30 2759 H 264.483 -3.97353 -6.48086 0
M  V30 2760 N 266.058 1.56714 -0.166846 0
M  V30 2761 C 267.286 2.0112 0.485644 0
M  V30 2762 C 267.701 1.04705 1.57106 0
M  V30 2763 O 267.058 0.0471923 1.82439 0
M  V30 2764 C 267.109 3.45361 1.06808 0
M  V30 2765 O 266.83 4.38092 0.0259995 0
M  V30 2766 C 268.331 4.05145 1.79924 0
M  V30 2767 H 265.551 0.65931 0.124704 0
M  V30 2768 H 268.095 2.02746 -0.267262 0
M  V30 2769 H 266.25 3.44524 1.7715 0
M  V30 2770 H 266.664 5.22519 0.455398 0
M  V30 2771 H 268.138 5.08009 2.15942 0
M  V30 2772 H 268.615 3.46982 2.69258 0
M  V30 2773 H 269.221 4.09672 1.14234 0
M  V30 2774 N 267.536 -0.106894 1.57237 0
M  V30 2775 C 268.499 -1.11466 2.0027 0
M  V30 2776 C 269.499 -1.33623 0.894519 0
M  V30 2777 O 270.689 -1.29935 1.16028 0
M  V30 2778 C 267.821 -2.46646 2.35327 0
M  V30 2779 H 269.014 -0.744516 2.90512 0
M  V30 2780 H 266.567 -0.351576 1.52295 0
M  V30 2781 H 267.302 -2.88558 1.48003 0
M  V30 2782 H 267.087 -2.31915 3.16161 0
M  V30 2783 H 268.577 -3.19151 2.69318 0
M  V30 2784 N 269.014 -1.53014 -0.377408 0
M  V30 2785 C 269.944 -1.81589 -1.46791 0
M  V30 2786 C 270.925 -0.668622 -1.56408 0
M  V30 2787 O 272.11 -0.917337 -1.71168 0
M  V30 2788 C 269.24 -1.99519 -2.8427 0
M  V30 2789 C 268.194 -3.15249 -2.89486 0
M  V30 2790 C 267.52 -3.18451 -4.29527 0
M  V30 2791 C 268.82 -4.54084 -2.58079 0
M  V30 2792 H 270.514 -2.7291 -1.23127 0
M  V30 2793 H 268.06 -1.31319 -0.590883 0
M  V30 2794 H 270.013 -2.18092 -3.60575 0
M  V30 2795 H 268.737 -1.04897 -3.09296 0
M  V30 2796 H 267.396 -2.96477 -2.15631 0
M  V30 2797 H 267.044 -2.2149 -4.5161 0
M  V30 2798 H 266.744 -3.962 -4.33934 0
M  V30 2799 H 268.268 -3.39193 -5.07721 0
M  V30 2800 H 269.682 -4.72899 -3.24098 0
M  V30 2801 H 268.079 -5.33987 -2.7382 0
M  V30 2802 H 269.149 -4.60006 -1.53372 0
M  V30 2803 N 270.492 0.636531 -1.44174 0
M  V30 2804 C 271.741 1.39213 -1.45954 0
M  V30 2805 C 272.054 1.95374 -0.0939119 0
M  V30 2806 O 273.26 2.71498 0.0107767 0
M  V30 2807 C 271.716 2.52025 -2.56927 0
M  V30 2808 C 271.324 2.024 -3.99673 0
M  V30 2809 C 273.068 3.29269 -2.67922 0
M  V30 2810 C 270.975 3.12521 -5.0208 0
M  V30 2811 H 269.905 0.523132 -0.542999 0
M  V30 2812 H 272.556 0.685349 -1.70221 0
M  V30 2813 H 270.938 3.25253 -2.25891 0
M  V30 2814 H 272.112 1.36073 -4.40251 0
M  V30 2815 H 270.427 1.37987 -3.92872 0
M  V30 2816 H 273.024 4.11352 -3.41605 0
M  V30 2817 H 273.367 3.78397 -1.73555 0
M  V30 2818 H 273.9 2.63129 -2.98342 0
M  V30 2819 H 270.639 2.68343 -5.98057 0
M  V30 2820 H 270.159 3.77507 -4.66099 0
M  V30 2821 H 271.838 3.77385 -5.25538 0
M  V30 2822 N 271.97 1.30982 0.876444 0
M  V30 2823 C 273.218 1.20058 1.62575 0
M  V30 2824 C 273.539 -0.242947 1.93481 0
M  V30 2825 O 272.809 -1.1619 1.57724 0
M  V30 2826 H 271.389 0.44135 0.602677 0
M  V30 2827 H 274.051 1.64222 1.04962 0
M  V30 2828 H 273.147 1.76762 2.57219 0
M  V30 2829 N 273.449 -1.08991 1.13837 0
M  V30 2830 C 274.359 -2.19301 0.833333 0
M  V30 2831 C 275.375 -1.73026 -0.183847 0
M  V30 2832 O 276.551 -2.01395 -0.0138092 0
M  V30 2833 C 273.616 -3.45323 0.308651 0
M  V30 2834 C 272.677 -4.06255 1.38764 0
M  V30 2835 C 271.91 -5.26262 0.887896 0
M  V30 2836 O 272.133 -5.69747 -0.27287 0
M  V30 2837 O 271.067 -5.78435 1.66421 0
M  V30 2838 H 274.893 -2.47854 1.75506 0
M  V30 2839 H 272.478 -1.18012 0.916166 0
M  V30 2840 H 274.36 -4.21394 0.0216739 0
M  V30 2841 H 273.035 -3.18362 -0.585431 0
M  V30 2842 H 271.942 -3.318 1.72799 0
M  V30 2843 H 273.275 -4.37452 2.25602 0
M  V30 2844 N 274.927 -0.932562 -1.27047 0
M  V30 2845 C 276.176 -0.571351 -1.93439 0
M  V30 2846 C 276.489 0.892467 -1.74053 0
M  V30 2847 O 277.695 1.36267 -2.34826 0
M  V30 2848 C 276.151 -0.97106 -3.46552 0
M  V30 2849 C 275.759 -2.4559 -3.74686 0
M  V30 2850 C 277.503 -0.681333 -4.18997 0
M  V30 2851 C 275.41 -2.79475 -5.21198 0
M  V30 2852 H 274.34 -0.209966 -0.724176 0
M  V30 2853 H 276.991 -1.13403 -1.44263 0
M  V30 2854 H 275.373 -0.336983 -3.94564 0
M  V30 2855 H 276.547 -3.13829 -3.37414 0
M  V30 2856 H 274.862 -2.71802 -3.15456 0
M  V30 2857 H 277.459 -0.910939 -5.26883 0
M  V30 2858 H 277.802 0.381628 -4.14547 0
M  V30 2859 H 278.335 -1.27473 -3.76823 0
M  V30 2860 H 275.074 -3.847 -5.30741 0
M  V30 2861 H 274.594 -2.1589 -5.596 0
M  V30 2862 H 276.273 -2.67478 -5.89122 0
M  V30 2863 N 276.405 1.4127 -0.698611 0
M  V30 2864 C 277.368 2.29158 -0.044132 0
M  V30 2865 C 278.368 1.44529 0.704841 0
M  V30 2866 O 279.558 1.65643 0.539276 0
M  V30 2867 C 276.69 3.27459 0.947809 0
M  V30 2868 H 277.883 2.88529 -0.817994 0
M  V30 2869 H 275.436 1.49307 -0.46228 0
M  V30 2870 H 276.171 2.73073 1.74933 0
M  V30 2871 H 275.956 3.8991 0.41385 0
M  V30 2872 H 277.446 3.93311 1.40344 0
M  V30 2873 N 277.883 0.443576 1.51229 0
M  V30 2874 C 279.108 -0.121648 2.07043 0
M  V30 2875 C 279.533 -1.35156 1.30823 0
M  V30 2876 O 278.891 -1.7793 0.347934 0
M  V30 2877 C 278.939 -0.41624 3.5819 0
M  V30 2878 O 278.043 -1.50163 3.8409 0
M  V30 2879 H 277.384 0.000871367 0.663999 0
M  V30 2880 H 279.914 0.626706 1.94765 0
M  V30 2881 H 279.924 -0.664867 4.02546 0
M  V30 2882 H 278.599 0.482653 4.1309 0
M  V30 2883 H 277.176 -1.24248 3.51592 0
M  V30 2884 N 279.361 -1.56624 0.175154 0
M  V30 2885 C 280.772 -1.83561 -0.340916 0
M  V30 2886 C 281.123 -1.09511 -1.62794 0
M  V30 2887 O 280.248 -0.349389 -2.13561 0
M  V30 2888 C 280.843 -3.32979 -0.625313 0
M  V30 2889 C 279.402 -3.60399 -1.08581 0
M  V30 2890 C 278.549 -2.77024 -0.123722 0
M  V30 2891 H 281.5 -1.53593 0.399344 0
M  V30 2892 H 281.521 -3.50666 -1.47694 0
M  V30 2893 H 281.033 -3.86847 0.311575 0
M  V30 2894 H 279.134 -3.11945 -2.03767 0
M  V30 2895 H 279.247 -4.68711 -0.992317 0
M  V30 2896 H 277.611 -2.46993 -0.621821 0
M  V30 2897 H 278.394 -3.33674 0.807256 0
M  V30 2898 N 280.839 0.0985539 -1.57292 0
M  V30 2899 C 281.787 1.1387 -2.02821 0
M  V30 2900 C 282.781 1.41676 -0.928666 0
M  V30 2901 O 283.987 1.41398 -1.11385 0
M  V30 2902 H 280.362 0.384419 -0.646317 0
M  V30 2903 H 282.333 0.728347 -2.89375 0
M  V30 2904 C 281.082 2.45166 -2.46554 0
M  V30 2905 H 280.405 2.24613 -3.3074 0
M  V30 2906 H 281.845 3.16456 -2.8219 0
M  V30 2907 C 280.304 3.09216 -1.33742 0
M  V30 2908 O 280.834 3.96163 -0.66464 0
M  V30 2909 N 279.04 2.69413 -1.08928 0
M  V30 2910 H 278.587 1.98801 -1.63817 0
M  V30 2911 H 278.545 3.12594 -0.336458 0
M  V30 2912 N 282.317 1.53212 0.369288 0
M  V30 2913 C 283.547 1.72868 1.13139 0
M  V30 2914 C 283.955 0.455754 1.83629 0
M  V30 2915 O 283.298 -0.580861 1.74275 0
M  V30 2916 C 283.36 2.83667 2.20847 0
M  V30 2917 C 283.024 4.24142 1.70155 0
M  V30 2918 C 284.021 5.06619 1.16763 0
M  V30 2919 C 281.706 4.70539 1.7578 0
M  V30 2920 C 283.7 6.33581 0.696678 0
M  V30 2921 C 281.387 5.97481 1.28297 0
M  V30 2922 C 282.385 6.78833 0.753307 0
M  V30 2923 O 282.073 8.03393 0.285475 0
M  V30 2924 H 281.805 0.581707 0.344373 0
M  V30 2925 H 284.359 2.00736 0.435243 0
M  V30 2926 H 282.589 2.51265 2.93944 0
M  V30 2927 H 284.278 2.91536 2.82421 0
M  V30 2928 H 285.044 4.71948 1.11758 0
M  V30 2929 H 280.923 4.07293 2.15949 0
M  V30 2930 H 284.467 6.97027 0.282581 0
M  V30 2931 H 280.364 6.31651 1.32994 0
M  V30 2932 H 281.132 8.17497 0.405145 0
M  V30 2933 N 283.795 -0.628877 1.44509 0
M  V30 2934 C 285.206 -1.21054 1.42137 0
M  V30 2935 C 285.557 -1.95715 0.137881 0
M  V30 2936 O 284.682 -2.02554 -0.761645 0
M  V30 2937 C 285.277 -2.20189 2.57493 0
M  V30 2938 C 283.836 -2.73777 2.58308 0
M  V30 2939 C 282.983 -1.48813 2.33987 0
M  V30 2940 H 285.934 -0.41942 1.53057 0
M  V30 2941 H 285.955 -3.02833 2.30375 0
M  V30 2942 H 285.467 -1.6582 3.50892 0
M  V30 2943 H 283.568 -3.32142 1.68856 0
M  V30 2944 H 283.681 -3.19662 3.56865 0
M  V30 2945 H 282.045 -1.77024 1.83124 0
M  V30 2946 H 282.828 -0.963442 3.29504 0
M  V30 2947 N 285.273 -1.31445 -0.869486 0
M  V30 2948 C 286.22 -1.19135 -1.97675 0
M  V30 2949 C 287.19 -0.0770266 -1.65921 0
M  V30 2950 O 288.375 -0.249972 -1.89155 0
M  V30 2951 C 285.515 -0.905149 -3.33018 0
M  V30 2952 C 284.628 -2.10285 -3.77365 0
M  V30 2953 C 283.763 -1.75339 -5.01427 0
M  V30 2954 C 282.802 -2.91515 -5.38224 0
M  V30 2955 N 281.939 -2.56762 -6.53466 0
M  V30 2956 H 286.779 -2.13853 -2.07535 0
M  V30 2957 H 284.316 -1.06379 -1.01597 0
M  V30 2958 H 286.274 -0.719765 -4.10944 0
M  V30 2959 H 284.904 0.00519624 -3.228 0
M  V30 2960 H 283.956 -2.39899 -2.95216 0
M  V30 2961 H 285.268 -2.97237 -4.00564 0
M  V30 2962 H 284.422 -1.53266 -5.87022 0
M  V30 2963 H 283.161 -0.855801 -4.80133 0
M  V30 2964 H 282.166 -3.14237 -4.51149 0
M  V30 2965 H 283.391 -3.81985 -5.61484 0
M  V30 2966 H 281.337 -1.69526 -6.33717 0
M  V30 2967 H 281.254 -3.37243 -6.76612 0
M  V30 2968 H 282.522 -2.38083 -7.42251 0
M  V30 2969 N 286.751 1.08385 -1.14413 0
M  V30 2970 C 288.162 1.62258 -0.923535 0
M  V30 2971 C 288.513 1.88691 0.537595 0
M  V30 2972 O 287.638 1.64454 1.40655 0
M  V30 2973 C 288.233 2.94781 -1.67002 0
M  V30 2974 C 286.792 3.45437 -1.495 0
M  V30 2975 C 285.939 2.19668 -1.69238 0
M  V30 2976 H 288.89 0.916086 -1.2959 0
M  V30 2977 H 288.911 3.63229 -1.13334 0
M  V30 2978 H 288.423 2.7551 -2.73342 0
M  V30 2979 H 286.524 3.6981 -0.455097 0
M  V30 2980 H 286.637 4.22173 -2.2651 0
M  V30 2981 H 285.001 2.28849 -1.11804 0
M  V30 2982 H 285.784 2.02905 -2.7692 0
M  V30 2983 N 288.23 0.939286 1.26551 0
M  V30 2984 C 289.46 0.601663 1.97645 0
M  V30 2985 C 289.868 -0.827206 1.70159 0
M  V30 2986 O 289.211 -1.56291 0.965338 0
M  V30 2987 C 289.273 0.761725 3.51337 0
M  V30 2988 C 288.937 2.16487 4.0247 0
M  V30 2989 C 289.934 3.14016 4.14355 0
M  V30 2990 C 287.619 2.48494 4.36527 0
M  V30 2991 C 289.613 4.41654 4.59587 0
M  V30 2992 C 287.3 3.76364 4.81449 0
M  V30 2993 C 288.298 4.72758 4.92939 0
M  V30 2994 O 287.986 5.98352 5.36871 0
M  V30 2995 H 287.718 0.225758 0.637189 0
M  V30 2996 H 290.272 1.26178 1.62075 0
M  V30 2997 H 288.502 0.0444808 3.86674 0
M  V30 2998 H 290.191 0.427442 4.03643 0
M  V30 2999 H 290.957 2.90613 3.8829 0
M  V30 3000 H 286.836 1.74202 4.26819 0
M  V30 3001 H 290.38 5.16896 4.68471 0
M  V30 3002 H 286.277 3.99582 5.06956 0
M  V30 3003 H 287.045 6.01507 5.55096 0
M  V30 3004 N 289.708 -1.40897 0.706093 0
M  V30 3005 C 291.119 -1.84023 0.315052 0
M  V30 3006 C 291.47 -1.5906 -1.14866 0
M  V30 3007 O 290.595 -1.06651 -1.88293 0
M  V30 3008 C 291.19 -3.34055 0.565038 0
M  V30 3009 C 289.749 -3.7571 0.227806 0
M  V30 3010 C 288.896 -2.64204 0.842122 0
M  V30 3011 H 291.847 -1.303 0.905963 0
M  V30 3012 H 291.868 -3.80107 -0.172843 0
M  V30 3013 H 291.38 -3.52192 1.63042 0
M  V30 3014 H 289.481 -3.63172 -0.832895 0
M  V30 3015 H 289.594 -4.74103 0.690174 0
M  V30 3016 H 287.958 -2.53255 0.270893 0
M  V30 3017 H 288.741 -2.85155 1.91158 0
M  V30 3018 N 291.186 -0.45159 -1.50991 0
M  V30 3019 C 292.096 0.358431 -2.31846 0
M  V30 3020 C 293.112 1.01438 -1.41373 0
M  V30 3021 O 294.288 1.00663 -1.74439 0
M  V30 3022 C 291.353 1.43704 -3.15515 0
M  V30 3023 C 290.414 0.799742 -4.21785 0
M  V30 3024 C 289.647 1.82696 -5.01456 0
M  V30 3025 O 289.87 3.05105 -4.81941 0
M  V30 3026 O 288.804 1.40958 -5.85162 0
M  V30 3027 H 292.63 -0.302032 -3.02194 0
M  V30 3028 H 290.215 -0.213825 -1.47862 0
M  V30 3029 H 292.097 2.06227 -3.67489 0
M  V30 3030 H 290.772 2.08133 -2.47916 0
M  V30 3031 H 289.679 0.136084 -3.73852 0
M  V30 3032 H 291.012 0.198718 -4.91799 0
M  V30 3033 N 292.664 1.56529 -0.183458 0
M  V30 3034 C 293.612 2.19873 0.758845 0
M  V30 3035 C 294.606 1.16638 1.22849 0
M  V30 3036 O 295.812 1.3481 1.19274 0
M  V30 3037 H 292.187 0.7045 0.263029 0
M  V30 3038 H 294.158 2.97724 0.200755 0
M  V30 3039 C 292.907 2.86314 1.9728 0
M  V30 3040 H 292.23 3.65487 1.62047 0
M  V30 3041 H 293.67 3.3409 2.61075 0
M  V30 3042 C 292.129 1.86729 2.80418 0
M  V30 3043 O 292.659 1.36031 3.77966 0
M  V30 3044 N 290.865 1.55216 2.45675 0
M  V30 3045 H 290.412 1.96636 1.66409 0
M  V30 3046 H 290.37 0.888388 3.01588 0
M  V30 3047 N 294.142 -0.090211 1.57342 0
M  V30 3048 C 295.367 -0.810082 1.90925 0
M  V30 3049 C 295.792 -1.71248 0.778187 0
M  V30 3050 O 295.15 -1.79278 -0.269991 0
M  V30 3051 C 295.198 -1.59529 3.23393 0
M  V30 3052 O 294.302 -2.70461 3.11327 0
M  V30 3053 H 293.643 -0.222231 0.625707 0
M  V30 3054 H 296.173 -0.0639716 2.045 0
M  V30 3055 H 296.183 -1.97847 3.5682 0
M  V30 3056 H 294.858 -0.933055 4.05299 0
M  V30 3057 H 293.435 -2.35135 2.89423 0
M  V30 3058 N 295.62 -1.53406 -0.361157 0
M  V30 3059 C 297.036 -1.43277 -0.703124 0
M  V30 3060 C 297.236 -0.575384 -1.9311 0
M  V30 3061 O 296.292 -0.0595362 -2.5243 0
M  V30 3062 C 297.605 -2.8653 -0.9122 0
M  V30 3063 C 299.153 -2.96191 -1.01193 0
M  V30 3064 C 299.628 -4.40514 -1.25345 0
M  V30 3065 N 301.119 -4.43962 -1.32105 0
M  V30 3066 C 301.854 -5.52746 -1.5251 0
M  V30 3067 N 301.35 -6.71567 -1.70203 0
M  V30 3068 N 303.143 -5.40331 -1.54916 0
M  V30 3069 H 295.294 -2.07654 0.446475 0
M  V30 3070 H 297.557 -0.937944 0.137715 0
M  V30 3071 H 297.263 -3.51605 -0.0816414 0
M  V30 3072 H 297.137 -3.30441 -1.81903 0
M  V30 3073 H 299.524 -2.31266 -1.83303 0
M  V30 3074 H 299.605 -2.55667 -0.0823929 0
M  V30 3075 H 299.249 -5.06014 -0.437346 0
M  V30 3076 H 299.179 -4.78614 -2.19627 0
M  V30 3077 H 301.67 -3.58332 -1.20028 0
M  V30 3078 H 301.983 -7.50241 -1.85359 0
M  V30 3079 H 300.328 -6.74545 -1.67373 0
M  V30 3080 H 303.519 -4.46465 -1.40663 0
M  V30 3081 H 303.692 -6.25173 -1.70477 0
M  V30 3082 N 297.098 0.621204 -1.44841 0
M  V30 3083 C 298.338 1.39201 -1.49674 0
M  V30 3084 C 298.702 1.91561 -0.129764 0
M  V30 3085 O 299.903 2.68748 -0.0527814 0
M  V30 3086 C 298.174 2.519 -2.53537 0
M  V30 3087 S 299.733 3.39916 -2.77494 0
M  V30 3088 H 296.551 0.474758 -0.529269 0
M  V30 3089 H 299.153 0.718171 -1.81831 0
M  V30 3090 H 297.857 2.11761 -3.51547 0
M  V30 3091 H 297.388 3.241 -2.22986 0
M  V30 3092 H 299.403 4.49646 -2.0984 0
M  V30 3093 N 298.576 1.31904 0.862503 0
M  V30 3094 C 299.486 1.22161 2.00285 0
M  V30 3095 C 300.502 0.136785 1.73462 0
M  V30 3096 O 301.678 0.355994 1.98229 0
M  V30 3097 C 298.743 0.937093 3.33796 0
M  V30 3098 C 297.804 2.10957 3.73893 0
M  V30 3099 C 297.037 1.83853 5.01033 0
M  V30 3100 O 297.26 0.777274 5.65079 0
M  V30 3101 O 296.194 2.69741 5.38074 0
M  V30 3102 H 300.02 2.18008 2.11439 0
M  V30 3103 H 297.605 1.11716 0.991957 0
M  V30 3104 H 299.487 0.794583 4.13841 0
M  V30 3105 H 298.162 0.00871894 3.23699 0
M  V30 3106 H 297.069 2.30752 2.94456 0
M  V30 3107 H 298.402 3.02046 3.88625 0
M  V30 3108 N 300.054 -1.07777 1.14986 0
M  V30 3109 C 301.284 -1.83752 0.944402 0
M  V30 3110 C 301.692 -1.8218 -0.51058 0
M  V30 3111 O 301.035 -1.22852 -1.36576 0
M  V30 3112 C 301.097 -3.32128 1.37592 0
M  V30 3113 C 300.761 -3.57425 2.84775 0
M  V30 3114 C 301.758 -3.5173 3.8286 0
M  V30 3115 C 299.443 -3.8523 3.2234 0
M  V30 3116 C 301.437 -3.73482 5.16517 0
M  V30 3117 C 299.124 -4.06634 4.56171 0
M  V30 3118 C 300.122 -4.00754 5.53069 0
M  V30 3119 O 299.81 -4.2159 6.84483 0
M  V30 3120 H 299.542 -0.58673 0.335744 0
M  V30 3121 H 302.096 -1.36982 1.53052 0
M  V30 3122 H 300.326 -3.79686 0.733165 0
M  V30 3123 H 302.015 -3.89555 1.14024 0
M  V30 3124 H 302.781 -3.30256 3.55184 0
M  V30 3125 H 298.66 -3.88923 2.47508 0
M  V30 3126 H 302.204 -3.68808 5.92137 0
M  V30 3127 H 298.101 -4.27593 4.83564 0
M  V30 3128 H 298.869 -4.38961 6.90837 0
M  V30 3129 N 301.532 -0.945985 -1.26051 0
M  V30 3130 C 302.464 -0.416662 -2.25381 0
M  V30 3131 C 303.477 0.462712 -1.56086 0
M  V30 3132 O 304.666 0.272383 -1.7641 0
M  V30 3133 C 301.766 0.419812 -3.3629 0
M  V30 3134 C 300.939 -0.444531 -4.35135 0
M  V30 3135 C 299.998 0.332305 -5.2515 0
M  V30 3136 O 299.024 -0.266324 -5.68577 0
M  V30 3137 N 300.226 1.62763 -5.57215 0
M  V30 3138 H 302.991 -1.27059 -2.71433 0
M  V30 3139 H 300.552 -0.815392 -1.39868 0
M  V30 3140 H 302.544 0.947013 -3.93464 0
M  V30 3141 H 301.114 1.17456 -2.89694 0
M  V30 3142 H 300.334 -1.15291 -3.76964 0
M  V30 3143 H 301.622 -1.03478 -4.98166 0
M  V30 3144 H 301.02 2.13603 -5.23823 0
M  V30 3145 H 299.577 2.10097 -6.17011 0
M  V30 3146 N 303.011 1.40521 -0.713556 0
M  V30 3147 C 304.26 2.00155 -0.249192 0
M  V30 3148 C 304.573 1.57224 1.16362 0
M  V30 3149 O 305.779 2.09542 1.72639 0
M  V30 3150 C 304.235 3.5773 -0.3946 0
M  V30 3151 C 303.843 4.09635 -1.81392 0
M  V30 3152 C 305.587 4.24499 0.00907364 0
M  V30 3153 C 303.494 5.59707 -1.91003 0
M  V30 3154 H 302.424 0.74868 -0.0894114 0
M  V30 3155 H 305.075 1.60784 -0.884352 0
M  V30 3156 H 303.457 3.94792 0.30911 0
M  V30 3157 H 304.631 3.83955 -2.54785 0
M  V30 3158 H 302.946 3.55456 -2.16888 0
M  V30 3159 H 305.543 5.34683 -0.0420404 0
M  V30 3160 H 305.886 4.02824 1.05065 0
M  V30 3161 H 306.419 3.92536 -0.645007 0
M  V30 3162 H 303.158 5.86234 -2.93275 0
M  V30 3163 H 302.678 5.87258 -1.22019 0
M  V30 3164 H 304.357 6.24776 -1.6812 0
M  V30 3165 N 304.489 0.459591 1.5075 0
M  V30 3166 C 305.905 0.113092 1.59199 0
M  V30 3167 C 306.105 -1.37951 1.46874 0
M  V30 3168 O 305.161 -2.15168 1.32132 0
M  V30 3169 C 306.474 0.653043 2.93523 0
M  V30 3170 C 308.022 0.615449 3.0689 0
M  V30 3171 C 308.497 1.13275 4.43771 0
M  V30 3172 N 309.988 1.09167 4.50152 0
M  V30 3173 C 310.723 1.46256 5.54434 0
M  V30 3174 N 310.219 1.90739 6.66026 0
M  V30 3175 N 312.012 1.37932 5.44914 0
M  V30 3176 H 304.163 1.43049 1.57005 0
M  V30 3177 H 306.426 0.590861 0.741341 0
M  V30 3178 H 306.132 1.69822 3.07983 0
M  V30 3179 H 306.006 0.0902132 3.77092 0
M  V30 3180 H 308.393 -0.420793 2.92084 0
M  V30 3181 H 308.474 1.21495 2.25106 0
M  V30 3182 H 308.118 2.16757 4.59324 0
M  V30 3183 H 308.048 0.509576 5.24129 0
M  V30 3184 H 310.539 0.76528 3.7007 0
M  V30 3185 H 310.852 2.17218 7.41644 0
M  V30 3186 H 309.197 1.94683 6.67176 0
M  V30 3187 H 312.388 1.0303 4.56621 0
M  V30 3188 H 312.561 1.67164 6.26067 0
M  V30 3189 N 305.967 -1.56429 0.191757 0
M  V30 3190 C 306.897 -2.21937 -0.725696 0
M  V30 3191 C 307.878 -1.1814 -1.2238 0
M  V30 3192 O 309.063 -1.46636 -1.27325 0
M  V30 3193 C 306.193 -2.87611 -1.94672 0
M  V30 3194 C 305.147 -3.97623 -1.58366 0
M  V30 3195 C 304.473 -4.50446 -2.88102 0
M  V30 3196 C 305.773 -5.16197 -0.796133 0
M  V30 3197 H 307.467 -2.98861 -0.179606 0
M  V30 3198 H 305.013 -1.43749 -0.0849464 0
M  V30 3199 H 306.966 -3.3212 -2.59373 0
M  V30 3200 H 305.69 -2.08087 -2.51728 0
M  V30 3201 H 304.349 -3.53801 -0.960247 0
M  V30 3202 H 303.997 -3.67688 -3.43241 0
M  V30 3203 H 303.697 -5.24675 -2.64556 0
M  V30 3204 H 305.221 -4.97654 -3.53798 0
M  V30 3205 H 306.635 -5.57271 -1.34618 0
M  V30 3206 H 305.032 -5.96471 -0.658928 0
M  V30 3207 H 306.102 -4.84473 0.203478 0
M  V30 3208 N 307.445 0.0818655 -1.57387 0
M  V30 3209 C 308.355 1.11642 -2.06333 0
M  V30 3210 C 309.371 1.43033 -0.99083 0
M  V30 3211 O 310.547 1.53411 -1.30488 0
M  V30 3212 C 307.612 2.41342 -2.48907 0
M  V30 3213 C 306.673 2.17014 -3.7041 0
M  V30 3214 C 305.906 3.4053 -4.10944 0
M  V30 3215 O 306.129 4.4927 -3.51444 0
M  V30 3216 O 305.063 3.29336 -5.03807 0
M  V30 3217 H 308.889 0.730657 -2.9478 0
M  V30 3218 H 306.474 0.295301 -1.46452 0
M  V30 3219 H 308.356 3.17691 -2.76858 0
M  V30 3220 H 307.031 2.79319 -1.63593 0
M  V30 3221 H 305.938 1.38403 -3.47556 0
M  V30 3222 H 307.271 1.83923 -4.56545 0
M  V30 3223 N 308.923 1.53595 0.353017 0
M  V30 3224 C 309.87 1.80919 1.43308 0
M  V30 3225 C 310.84 0.654288 1.5267 0
M  V30 3226 O 312.025 0.897759 1.6836 0
M  V30 3227 C 309.165 2.01605 2.80089 0
M  V30 3228 C 308.278 3.29321 2.79593 0
M  V30 3229 C 307.413 3.40125 4.0803 0
M  V30 3230 C 306.452 4.61826 4.01725 0
M  V30 3231 N 305.589 4.69716 5.21834 0
M  V30 3232 H 310.429 2.73074 1.19308 0
M  V30 3233 H 307.966 1.35263 0.578131 0
M  V30 3234 H 309.924 2.11586 3.59565 0
M  V30 3235 H 308.554 1.12772 3.0246 0
M  V30 3236 H 307.606 3.28229 1.92276 0
M  V30 3237 H 308.918 4.18884 2.70809 0
M  V30 3238 H 308.072 3.49488 4.95927 0
M  V30 3239 H 306.811 2.48601 4.19582 0
M  V30 3240 H 305.816 4.52552 3.12213 0
M  V30 3241 H 307.041 5.54705 3.91764 0
M  V30 3242 H 304.987 3.81097 5.33948 0
M  V30 3243 H 304.904 5.53202 5.1527 0
M  V30 3244 H 306.172 4.83376 6.11529 0
M  V30 3245 N 310.401 -0.613514 1.45168 0
M  V30 3246 C 311.649 -1.36997 1.48581 0
M  V30 3247 C 311.97 -1.94589 0.126545 0
M  V30 3248 O 311.24 -1.76816 -0.843372 0
M  V30 3249 H 309.82 -0.508558 0.547154 0
M  V30 3250 H 312.482 -0.720853 1.81079 0
M  V30 3251 H 311.578 -2.1924 2.22127 0
M  V30 3252 N 311.879 -1.3236 -0.855495 0
M  V30 3253 C 313.126 -1.22872 -1.60962 0
M  V30 3254 C 313.454 0.209658 -1.93367 0
M  V30 3255 O 312.709 1.16243 -1.57436 0
M  V30 3256 C 313.008 -2.03275 -2.93963 0
M  V30 3257 C 312.674 -3.5264 -2.80991 0
M  V30 3258 C 311.336 -3.93364 -2.7716 0
M  V30 3259 C 313.688 -4.47626 -2.66983 0
M  V30 3260 C 311.016 -5.27319 -2.572 0
M  V30 3261 C 313.368 -5.81723 -2.48558 0
M  V30 3262 C 312.032 -6.2165 -2.4312 0
M  V30 3263 H 311.302 -0.44962 -0.589001 0
M  V30 3264 H 313.949 -1.63777 -0.992442 0
M  V30 3265 H 312.254 -1.55095 -3.59795 0
M  V30 3266 H 313.951 -1.93303 -3.51333 0
M  V30 3267 H 310.541 -3.20295 -2.84797 0
M  V30 3268 H 314.725 -4.17084 -2.68988 0
M  V30 3269 H 309.981 -5.57311 -2.51424 0
M  V30 3270 H 314.155 -6.5494 -2.36699 0
M  V30 3271 H 311.782 -7.25388 -2.27412 0
M  V30 3272 N 313.357 1.07166 -1.15556 0
M  V30 3273 C 314.289 2.14341 -0.811815 0
M  V30 3274 C 315.302 1.61835 0.177015 0
M  V30 3275 O 316.491 1.78439 -0.0464996 0
M  V30 3276 C 313.591 3.38387 -0.186481 0
M  V30 3277 C 312.764 4.20238 -1.21321 0
M  V30 3278 C 311.823 5.2266 -0.609302 0
M  V30 3279 O 310.849 5.54719 -1.27576 0
M  V30 3280 N 312.051 5.77306 0.608099 0
M  V30 3281 H 314.816 2.44431 -1.73417 0
M  V30 3282 H 312.377 1.23089 -1.0517 0
M  V30 3283 H 314.369 4.04044 0.230339 0
M  V30 3284 H 312.939 3.05994 0.639249 0
M  V30 3285 H 312.159 3.50369 -1.80652 0
M  V30 3286 H 313.447 4.71736 -1.90638 0
M  V30 3287 H 312.845 5.53513 1.1679 0
M  V30 3288 H 311.402 6.44583 0.96725 0
M  V30 3289 N 314.835 0.952656 1.25548 0
M  V30 3290 C 316.081 0.607272 1.93494 0
M  V30 3291 C 316.414 -0.853245 1.74452 0
M  V30 3292 O 315.689 -1.61194 1.08843 0
M  V30 3293 C 315.972 0.96435 3.46947 0
M  V30 3294 C 315.825 2.48045 3.75225 0
M  V30 3295 C 317.144 0.487987 4.37386 0
M  V30 3296 H 314.263 0.222096 0.702739 0
M  V30 3297 H 316.905 1.18895 1.48203 0
M  V30 3298 H 315.055 0.469361 3.85654 0
M  V30 3299 H 316.727 3.04905 3.46166 0
M  V30 3300 H 314.97 2.919 3.209 0
M  V30 3301 H 315.641 2.6808 4.82532 0
M  V30 3302 H 318.117 0.912558 4.0597 0
M  V30 3303 H 316.993 0.766547 5.43521 0
M  V30 3304 H 317.254 -0.612063 4.37843 0
M  V30 3305 N 316.313 -1.40141 0.720998 0
M  V30 3306 C 317.559 -2.01084 0.263231 0
M  V30 3307 C 317.892 -1.57052 -1.14229 0
M  V30 3308 O 317.167 -0.793027 -1.77599 0
M  V30 3309 C 317.45 -3.58401 0.349344 0
M  V30 3310 C 317.303 -4.12491 1.79363 0
M  V30 3311 C 318.622 -4.39231 -0.276351 0
M  V30 3312 H 315.741 -0.730572 0.0971228 0
M  V30 3313 H 318.383 -1.66543 0.914518 0
M  V30 3314 H 316.533 -3.87958 -0.205165 0
M  V30 3315 H 318.205 -3.93711 2.40394 0
M  V30 3316 H 316.448 -3.66576 2.31958 0
M  V30 3317 H 317.119 -5.21646 1.80524 0
M  V30 3318 H 319.595 -4.15637 0.196184 0
M  V30 3319 H 318.471 -5.48586 -0.185681 0
M  V30 3320 H 318.732 -4.20643 -1.36059 0
M  V30 3321 N 317.792 -0.46758 -1.50504 0
M  V30 3322 C 319.038 0.0887532 -2.02606 0
M  V30 3323 C 319.371 1.39686 -1.34913 0
M  V30 3324 O 318.646 1.88644 -0.473694 0
M  V30 3325 C 318.929 0.276206 -3.59039 0
M  V30 3326 C 318.782 -1.05267 -4.37309 0
M  V30 3327 C 320.101 1.03235 -4.27821 0
M  V30 3328 H 317.22 0.0307814 -0.736357 0
M  V30 3329 H 319.862 -0.612485 -1.79857 0
M  V30 3330 H 318.012 0.8735 -3.78553 0
M  V30 3331 H 319.684 -1.68628 -4.29374 0
M  V30 3332 H 317.927 -1.65015 -4.01189 0
M  V30 3333 H 318.598 -0.875197 -5.45018 0
M  V30 3334 H 321.074 0.526111 -4.12761 0
M  V30 3335 H 319.95 1.1323 -5.37094 0
M  V30 3336 H 320.211 2.06806 -3.90748 0
M  V30 3337 N 319.27 1.56325 -0.20005 0
M  V30 3338 C 320.498 2.02105 0.442874 0
M  V30 3339 C 320.913 1.08014 1.5485 0
M  V30 3340 O 320.27 0.0858797 1.82298 0
M  V30 3341 C 320.321 3.47549 0.994583 0
M  V30 3342 O 320.042 4.38049 -0.0669322 0
M  V30 3343 C 321.543 4.0887 1.7129 0
M  V30 3344 H 318.763 0.661807 0.110691 0
M  V30 3345 H 321.307 2.02134 -0.310207 0
M  V30 3346 H 319.462 3.48204 1.69803 0
M  V30 3347 H 319.876 5.23368 0.344462 0
M  V30 3348 H 321.35 5.12475 2.05118 0
M  V30 3349 H 321.827 3.52615 2.61838 0
M  V30 3350 H 322.433 4.12002 1.05518 0
M  V30 3351 N 320.748 -0.0735177 1.57428 0
M  V30 3352 C 321.678 -1.0879 2.06608 0
M  V30 3353 C 322.659 -1.40473 0.959237 0
M  V30 3354 O 323.844 -1.5013 1.23185 0
M  V30 3355 C 320.974 -2.40183 2.50857 0
M  V30 3356 C 319.928 -2.22858 3.65402 0
M  V30 3357 C 319.254 -3.59619 3.957 0
M  V30 3358 C 320.554 -1.65123 4.95511 0
M  V30 3359 H 322.248 -0.678673 2.91607 0
M  V30 3360 H 319.794 -0.325013 1.40284 0
M  V30 3361 H 321.747 -3.11437 2.83874 0
M  V30 3362 H 320.471 -2.83083 1.62885 0
M  V30 3363 H 319.13 -1.54045 3.32664 0
M  V30 3364 H 318.778 -4.00086 3.04861 0
M  V30 3365 H 318.478 -3.48866 4.72828 0
M  V30 3366 H 320.002 -4.32306 4.31212 0
M  V30 3367 H 321.416 -2.26241 5.26771 0
M  V30 3368 H 319.813 -1.65071 5.7695 0
M  V30 3369 H 320.883 -0.612559 4.81015 0
M  V30 3370 N 322.226 -1.5378 -0.344866 0
M  V30 3371 C 323.642 -1.44015 -0.687888 0
M  V30 3372 C 323.842 -0.595834 -1.92489 0
M  V30 3373 O 322.898 -0.0863064 -2.52352 0
M  V30 3374 C 324.211 -2.87481 -0.881758 0
M  V30 3375 C 325.759 -2.97247 -0.980459 0
M  V30 3376 C 326.234 -4.41819 -1.20665 0
M  V30 3377 N 327.725 -4.45339 -1.27389 0
M  V30 3378 C 328.46 -5.54333 -1.46639 0
M  V30 3379 N 327.956 -6.73335 -1.63071 0
M  V30 3380 N 329.749 -5.41944 -1.49176 0
M  V30 3381 H 321.9 -2.07169 0.468475 0
M  V30 3382 H 324.163 -0.93643 0.147655 0
M  V30 3383 H 323.869 -3.51672 -0.0443444 0
M  V30 3384 H 323.743 -3.32352 -1.78388 0
M  V30 3385 H 326.13 -2.33197 -1.8084 0
M  V30 3386 H 326.211 -2.5574 -0.0552713 0
M  V30 3387 H 325.855 -5.06449 -0.383652 0
M  V30 3388 H 325.785 -4.80917 -2.14539 0
M  V30 3389 H 328.276 -3.59585 -1.1622 0
M  V30 3390 H 328.589 -7.52165 -1.77391 0
M  V30 3391 H 326.934 -6.76282 -1.60209 0
M  V30 3392 H 330.125 -4.47932 -1.3592 0
M  V30 3393 H 330.298 -6.26946 -1.63837 0
M  V30 3394 N 323.704 0.605807 -1.45491 0
M  V30 3395 C 325.12 0.926751 -1.29936 0
M  V30 3396 C 325.32 1.99896 -0.253706 0
M  V30 3397 O 324.376 2.50038 0.351737 0
M  V30 3398 C 325.689 1.36599 -2.67883 0
M  V30 3399 C 327.237 1.4801 -2.75793 0
M  V30 3400 C 327.712 1.95309 -4.14268 0
M  V30 3401 N 329.203 2.0254 -4.16571 0
M  V30 3402 C 329.938 2.40363 -5.20589 0
M  V30 3403 N 329.434 2.77143 -6.34952 0
M  V30 3404 N 331.227 2.40718 -5.07948 0
M  V30 3405 H 323.378 -0.102862 -2.12151 0
M  V30 3406 H 325.641 0.016639 -0.947854 0
M  V30 3407 H 325.347 0.652306 -3.45598 0
M  V30 3408 H 325.221 2.33215 -2.96463 0
M  V30 3409 H 327.608 2.1847 -1.98381 0
M  V30 3410 H 327.689 0.497041 -2.50925 0
M  V30 3411 H 327.333 1.25436 -4.92167 0
M  V30 3412 H 327.263 2.94532 -4.3653 0
M  V30 3413 H 329.754 1.76699 -3.34045 0
M  V30 3414 H 330.067 3.0489 -7.10114 0
M  V30 3415 H 328.412 2.74834 -6.3835 0
M  V30 3416 H 331.603 2.11392 -4.1765 0
M  V30 3417 H 331.776 2.69869 -5.89131 0
M  V30 3418 N 325.182 1.32811 0.848464 0
M  V30 3419 C 326.092 1.24278 1.98978 0
M  V30 3420 C 327.108 0.155176 1.73307 0
M  V30 3421 O 328.284 0.376999 1.9784 0
M  V30 3422 C 325.349 0.972444 3.32783 0
M  V30 3423 C 324.41 2.14911 3.71634 0
M  V30 3424 C 323.643 1.89157 4.99054 0
M  V30 3425 O 323.866 0.837165 5.64223 0
M  V30 3426 O 322.8 2.75433 5.35183 0
M  V30 3427 H 326.626 2.20238 2.09115 0
M  V30 3428 H 324.211 1.12762 0.980052 0
M  V30 3429 H 326.093 0.838432 4.12975 0
M  V30 3430 H 324.768 0.043051 3.23671 0
M  V30 3431 H 323.675 2.33862 2.91992 0
M  V30 3432 H 325.008 3.06151 3.85399 0
M  V30 3433 N 326.66 -1.06551 1.16123 0
M  V30 3434 C 327.937 -1.76097 0.85142 0
M  V30 3435 C 328.317 -2.00802 -0.6513 0
M  V30 3436 O 327.665 -1.63302 -1.59827 0
M  V30 3437 C 327.875 -3.06384 1.67122 0
M  V30 3438 C 329.223 -3.80585 1.88255 0
M  V30 3439 O 330.247 -3.16218 1.63966 0
M  V30 3440 O 329.106 -4.96212 2.2899 0
M  V30 3441 H 326.2 -0.765102 0.313923 0
M  V30 3442 H 328.746 -1.12844 1.26745 0
M  V30 3443 H 327.518 -2.84071 2.69108 0
M  V30 3444 H 327.141 -3.77371 1.25206 0
M  V30 3445 N 328.138 -0.959301 -1.25041 0
M  V30 3446 C 329.385 -0.616611 -1.92884 0
M  V30 3447 C 329.713 0.847036 -1.75087 0
M  V30 3448 O 328.968 1.62374 -1.09239 0
M  V30 3449 C 329.267 -0.927136 -3.45165 0
M  V30 3450 C 328.933 -2.37757 -3.83122 0
M  V30 3451 C 327.595 -2.77402 -3.93194 0
M  V30 3452 C 329.947 -3.31929 -4.01836 0
M  V30 3453 C 327.275 -4.10277 -4.19392 0
M  V30 3454 C 329.627 -4.64423 -4.29528 0
M  V30 3455 C 328.291 -5.03857 -4.37818 0
M  V30 3456 H 327.561 -0.225634 -0.705812 0
M  V30 3457 H 330.208 -1.20921 -1.48493 0
M  V30 3458 H 328.513 -0.252195 -3.90987 0
M  V30 3459 H 330.21 -0.6405 -3.95852 0
M  V30 3460 H 326.8 -2.06013 -3.75841 0
M  V30 3461 H 330.984 -3.02488 -3.93465 0
M  V30 3462 H 326.24 -4.40467 -4.24027 0
M  V30 3463 H 330.414 -5.37369 -4.42953 0
M  V30 3464 H 328.041 -6.06843 -4.57871 0
M  V30 3465 N 329.616 1.39756 -0.72842 0
M  V30 3466 C 330.893 1.94574 -0.200079 0
M  V30 3467 C 331.273 1.66569 1.29684 0
M  V30 3468 O 330.621 0.990326 2.05924 0
M  V30 3469 C 330.831 3.45004 -0.526608 0
M  V30 3470 C 332.179 4.21965 -0.472318 0
M  V30 3471 O 333.203 3.53173 -0.463413 0
M  V30 3472 O 332.062 5.44552 -0.461075 0
M  V30 3473 H 329.156 0.826289 -0.0342851 0
M  V30 3474 H 331.702 1.49293 -0.806829 0
M  V30 3475 H 330.474 3.58796 -1.56144 0
M  V30 3476 H 330.097 3.97449 0.109449 0
M  V30 3477 N 331.094 0.475555 1.50254 0
M  V30 3478 C 332.34 -0.0780073 2.0265 0
M  V30 3479 C 332.673 -1.38968 1.35652 0
M  V30 3480 O 331.948 -1.8839 0.483691 0
M  V30 3481 C 332.231 -0.257161 3.59181 0
M  V30 3482 C 332.084 1.07585 4.36744 0
M  V30 3483 C 333.403 -1.00965 4.28362 0
M  V30 3484 H 330.522 -0.0268758 0.73651 0
M  V30 3485 H 333.164 0.622015 1.7953 0
M  V30 3486 H 331.314 -0.853412 3.79011 0
M  V30 3487 H 332.986 1.70902 4.28474 0
M  V30 3488 H 331.229 1.6714 4.00308 0
M  V30 3489 H 331.9 0.904088 5.44546 0
M  V30 3490 H 334.376 -0.504214 4.13034 0
M  V30 3491 H 333.252 -1.10381 5.37687 0
M  V30 3492 H 333.513 -2.04731 3.91839 0
M  V30 3493 N 332.573 -1.56217 0.208337 0
M  V30 3494 C 333.483 -2.23316 -0.718836 0
M  V30 3495 C 334.499 -1.23648 -1.22422 0
M  V30 3496 O 335.675 -1.56423 -1.26861 0
M  V30 3497 C 332.74 -2.88968 -1.91568 0
M  V30 3498 C 331.801 -4.03943 -1.45357 0
M  V30 3499 C 331.034 -4.66455 -2.59337 0
M  V30 3500 O 331.257 -4.27919 -3.77149 0
M  V30 3501 O 330.191 -5.55686 -2.31293 0
M  V30 3502 H 334.017 -3.03182 -0.177315 0
M  V30 3503 H 331.602 -1.49384 -0.0215402 0
M  V30 3504 H 333.484 -3.30455 -2.61491 0
M  V30 3505 H 332.159 -2.12071 -2.44556 0
M  V30 3506 H 331.066 -3.67052 -0.722746 0
M  V30 3507 H 332.399 -4.82543 -0.970219 0
M  V30 3508 N 334.051 0.0651679 -1.57465 0
M  V30 3509 C 335.014 1.06117 -2.03155 0
M  V30 3510 C 336.014 1.31204 -0.929632 0
M  V30 3511 O 337.204 1.26813 -1.19432 0
M  V30 3512 C 334.336 2.4032 -2.41783 0
M  V30 3513 H 335.529 0.667231 -2.92383 0
M  V30 3514 H 333.082 0.311075 -1.53173 0
M  V30 3515 H 333.817 2.84532 -1.55601 0
M  V30 3516 H 333.602 2.23451 -3.22199 0
M  V30 3517 H 335.092 3.11898 -2.77685 0
M  V30 3518 N 335.529 1.53961 0.336706 0
M  V30 3519 C 336.492 1.81724 1.39675 0
M  V30 3520 C 337.492 0.688532 1.45313 0
M  V30 3521 O 338.682 0.956829 1.45569 0
M  V30 3522 C 335.814 1.96543 2.78538 0
M  V30 3523 H 337.007 2.76424 1.16318 0
M  V30 3524 H 334.56 1.45478 0.571474 0
M  V30 3525 H 335.295 1.0401 3.07168 0
M  V30 3526 H 335.08 2.78665 2.75841 0
M  V30 3527 H 336.57 2.19516 3.5525 0
M  V30 3528 N 337.007 -0.598083 1.45811 0
M  V30 3529 C 338.284 -1.35777 1.40797 0
M  V30 3530 C 338.664 -2.10935 0.083462 0
M  V30 3531 O 338.012 -2.08505 -0.934763 0
M  V30 3532 C 338.222 -2.29666 2.62783 0
M  V30 3533 C 339.57 -2.91977 3.08277 0
M  V30 3534 O 340.594 -2.39984 2.63223 0
M  V30 3535 O 339.453 -3.86376 3.86491 0
M  V30 3536 H 336.547 -0.609291 0.55919 0
M  V30 3537 H 339.093 -0.620379 1.57954 0
M  V30 3538 H 337.865 -1.73454 3.50756 0
M  V30 3539 H 337.488 -3.1077 2.48008 0
M  V30 3540 N 338.485 -1.33259 -0.841409 0
M  V30 3541 C 339.71 -1.2775 -1.63385 0
M  V30 3542 C 340.135 0.149188 -1.87507 0
M  V30 3543 O 339.493 1.10498 -1.43736 0
M  V30 3544 C 339.541 -2.05571 -2.96265 0
M  V30 3545 O 338.645 -1.41257 -3.87453 0
M  V30 3546 H 337.986 -0.439627 -0.497618 0
M  V30 3547 H 340.516 -1.75782 -1.04699 0
M  V30 3548 H 340.526 -2.16241 -3.45982 0
M  V30 3549 H 339.201 -3.09309 -2.7803 0
M  V30 3550 H 337.778 -1.39217 -3.45938 0
M  V30 3551 N 339.963 1.05934 -1.16686 0
M  V30 3552 C 340.926 2.11669 -0.879144 0
M  V30 3553 C 341.926 1.60294 0.127445 0
M  V30 3554 O 343.116 1.7389 -0.103865 0
M  V30 3555 C 340.248 3.39438 -0.315425 0
M  V30 3556 H 341.441 2.38626 -1.81653 0
M  V30 3557 H 338.994 1.22058 -0.976299 0
M  V30 3558 H 339.729 3.18132 0.629468 0
M  V30 3559 H 339.514 3.78034 -1.04079 0
M  V30 3560 H 341.004 4.17391 -0.132189 0
M  V30 3561 N 341.441 0.965919 1.2453 0
M  V30 3562 C 342.689 0.625593 1.92174 0
M  V30 3563 C 343.01 -0.841652 1.75901 0
M  V30 3564 O 342.28 -1.60061 1.12948 0
M  V30 3565 H 340.86 0.228388 0.71123 0
M  V30 3566 H 343.522 1.2266 1.51461 0
M  V30 3567 H 342.618 0.864653 2.99884 0
M  V30 3568 N 342.919 -1.39368 0.735821 0
M  V30 3569 C 343.867 -2.32443 0.0855131 0
M  V30 3570 C 344.861 -1.53104 -0.724954 0
M  V30 3571 O 346.067 -1.68762 -0.626047 0
M  V30 3572 H 342.442 -0.751948 0.00885257 0
M  V30 3573 H 344.413 -2.84916 0.886883 0
M  V30 3574 C 343.162 -3.38206 -0.806983 0
M  V30 3575 H 342.485 -3.99335 -0.19274 0
M  V30 3576 H 343.925 -4.05779 -1.2296 0
M  V30 3577 C 342.384 -2.75321 -1.94165 0
M  V30 3578 O 342.914 -2.63231 -3.03435 0
M  V30 3579 N 341.12 -2.33396 -1.73132 0
M  V30 3580 H 340.667 -2.4343 -0.842596 0
M  V30 3581 H 340.625 -1.91661 -2.49225 0
M  V30 3582 N 344.397 -0.483516 -1.5 0
M  V30 3583 C 345.637 0.0657469 -2.04294 0
M  V30 3584 C 346.001 1.35869 -1.35659 0
M  V30 3585 O 347.202 1.99111 -1.80578 0
M  V30 3586 C 345.473 0.232758 -3.56641 0
M  V30 3587 S 347.032 0.738788 -4.32536 0
M  V30 3588 H 343.85 0.0100755 -0.710929 0
M  V30 3589 H 346.452 -0.653494 -1.84254 0
M  V30 3590 H 345.156 -0.713847 -4.04144 0
M  V30 3591 H 344.687 0.977751 -3.81056 0
M  V30 3592 H 346.702 2.01048 -4.53645 0
M  V30 3593 N 345.875 1.56104 -0.216619 0
M  V30 3594 C 346.805 2.23063 0.690296 0
M  V30 3595 C 347.786 1.20072 1.20485 0
M  V30 3596 O 348.971 1.48643 1.24976 0
M  V30 3597 C 346.101 2.90672 1.90072 0
M  V30 3598 C 345.055 4.00092 1.5202 0
M  V30 3599 C 344.381 4.54972 2.80899 0
M  V30 3600 C 345.681 5.17398 0.71391 0
M  V30 3601 H 347.375 2.99109 0.132038 0
M  V30 3602 H 344.921 1.43866 0.0620664 0
M  V30 3603 H 346.874 3.36204 2.54057 0
M  V30 3604 H 345.598 2.12066 2.48386 0
M  V30 3605 H 344.257 3.55283 0.903839 0
M  V30 3606 H 343.905 3.73102 3.37348 0
M  V30 3607 H 343.605 5.28817 2.56176 0
M  V30 3608 H 345.129 5.0322 3.45836 0
M  V30 3609 H 346.543 5.59342 1.25735 0
M  V30 3610 H 344.94 5.97444 0.563951 0
M  V30 3611 H 346.01 4.84088 -0.280527 0
M  V30 3612 N 347.353 -0.0568162 1.57498 0
M  V30 3613 C 348.63 -0.786954 1.79071 0
M  V30 3614 C 349.01 -1.95028 0.80792 0
M  V30 3615 O 348.358 -2.27968 -0.155858 0
M  V30 3616 C 348.568 -1.24594 3.26002 0
M  V30 3617 C 349.916 -1.67323 3.90241 0
M  V30 3618 O 350.94 -1.34124 3.29984 0
M  V30 3619 O 349.799 -2.28842 4.9628 0
M  V30 3620 H 346.893 -0.378262 0.735423 0
M  V30 3621 H 349.439 -0.035734 1.69662 0
M  V30 3622 H 348.211 -0.41423 3.89101 0
M  V30 3623 H 347.834 -2.05803 3.40192 0
M  V30 3624 N 348.832 -1.54138 -0.328536 0
M  V30 3625 C 350.057 -1.76378 -1.09112 0
M  V30 3626 C 350.482 -0.508596 -1.81094 0
M  V30 3627 O 349.84 0.539598 -1.73084 0
M  V30 3628 C 349.888 -2.95358 -2.06872 0
M  V30 3629 O 348.992 -2.66556 -3.14677 0
M  V30 3630 H 348.333 -0.584614 -0.314838 0
M  V30 3631 H 350.863 -2.01146 -0.374348 0
M  V30 3632 H 350.873 -3.22566 -2.4983 0
M  V30 3633 H 349.548 -3.86385 -1.5388 0
M  V30 3634 H 348.125 -2.50282 -2.7643 0
M  V30 3635 N 350.31 0.590341 -1.46126 0
M  V30 3636 C 351.24 1.71032 -1.58966 0
M  V30 3637 C 352.221 1.64302 -0.440335 0
M  V30 3638 O 353.406 1.82436 -0.665634 0
M  V30 3639 C 350.536 3.09665 -1.57241 0
M  V30 3640 C 349.49 3.31221 -2.71066 0
M  V30 3641 C 348.816 4.70303 -2.54399 0
M  V30 3642 C 350.116 3.19796 -4.1295 0
M  V30 3643 H 351.81 1.60543 -2.52718 0
M  V30 3644 H 349.356 0.770933 -1.21625 0
M  V30 3645 H 351.309 3.87831 -1.64819 0
M  V30 3646 H 350.033 3.21036 -0.600289 0
M  V30 3647 H 348.692 2.55452 -2.62944 0
M  V30 3648 H 348.34 4.78429 -1.55288 0
M  V30 3649 H 348.04 4.85679 -3.30741 0
M  V30 3650 H 349.564 5.50647 -2.63857 0
M  V30 3651 H 350.978 3.87815 -4.22223 0
M  V30 3652 H 349.375 3.46696 -4.89818 0
M  V30 3653 H 350.445 2.16983 -4.33643 0
M  V30 3654 N 351.788 1.33704 0.83433 0
M  V30 3655 C 353.034 1.25603 1.59222 0
M  V30 3656 C 353.367 -0.176659 1.93395 0
M  V30 3657 O 352.642 -1.11915 1.59076 0
M  V30 3658 C 352.925 2.13576 2.89926 0
M  V30 3659 C 352.778 3.65326 2.62406 0
M  V30 3660 C 354.097 2.01238 3.91397 0
M  V30 3661 H 351.216 0.457613 0.577719 0
M  V30 3662 H 353.858 1.63848 0.961972 0
M  V30 3663 H 352.008 1.8109 3.43713 0
M  V30 3664 H 353.68 4.08124 2.15017 0
M  V30 3665 H 351.923 3.8698 1.96033 0
M  V30 3666 H 352.594 4.22232 3.55562 0
M  V30 3667 H 355.07 2.29738 3.46929 0
M  V30 3668 H 353.946 2.65036 4.80673 0
M  V30 3669 H 354.207 0.985951 4.30966 0
M  V30 3670 N 353.266 -1.05314 1.17247 0
M  V30 3671 C 354.513 -1.78293 0.960091 0
M  V30 3672 C 354.841 -1.87658 -0.51136 0
M  V30 3673 O 354.096 -1.3718 -1.39571 0
M  V30 3674 C 354.395 -3.2229 1.54479 0
M  V30 3675 C 354.061 -3.32987 3.04024 0
M  V30 3676 C 352.723 -3.35613 3.44844 0
M  V30 3677 C 355.075 -3.34102 4.00031 0
M  V30 3678 C 352.403 -3.36982 4.8027 0
M  V30 3679 C 354.755 -3.3701 5.35357 0
M  V30 3680 C 353.419 -3.37923 5.75642 0
M  V30 3681 H 352.689 -0.652422 0.351322 0
M  V30 3682 H 355.336 -1.23782 1.46117 0
M  V30 3683 H 353.641 -3.7972 0.965391 0
M  V30 3684 H 355.338 -3.77376 1.35603 0
M  V30 3685 H 351.928 -3.31655 2.71483 0
M  V30 3686 H 356.112 -3.31276 3.69554 0
M  V30 3687 H 351.368 -3.35999 5.10798 0
M  V30 3688 H 355.542 -3.36822 6.09528 0
M  V30 3689 H 353.169 -3.38738 6.80559 0
M  V30 3690 N 354.744 -0.972509 -1.24016 0
M  V30 3691 C 355.99 -0.637978 -1.92504 0
M  V30 3692 C 356.323 0.825383 -1.75787 0
M  V30 3693 O 355.598 1.59442 -1.11393 0
M  V30 3694 C 355.881 -1.01942 -3.45369 0
M  V30 3695 C 355.734 -2.53983 -3.71231 0
M  V30 3696 C 357.053 -0.55751 -4.36555 0
M  V30 3697 H 354.172 -0.233248 -0.699117 0
M  V30 3698 H 356.814 -1.21238 -1.46292 0
M  V30 3699 H 354.964 -0.530656 -3.84859 0
M  V30 3700 H 356.636 -3.10374 -3.41271 0
M  V30 3701 H 354.879 -2.96968 -3.16216 0
M  V30 3702 H 355.55 -2.75723 -4.78206 0
M  V30 3703 H 358.026 -0.977029 -4.04467 0
M  V30 3704 H 356.902 -0.85292 -5.42233 0
M  V30 3705 H 357.163 0.542328 -4.38761 0
M  V30 3706 N 356.222 1.38976 -0.743202 0
M  V30 3707 C 357.185 2.28901 -0.117014 0
M  V30 3708 C 358.185 1.46698 0.658503 0
M  V30 3709 O 359.375 1.67274 0.486305 0
M  V30 3710 C 356.507 3.30309 0.84315 0
M  V30 3711 H 357.7 2.8578 -0.909373 0
M  V30 3712 H 355.253 1.47761 -0.509547 0
M  V30 3713 H 355.988 2.785 1.66157 0
M  V30 3714 H 355.773 3.91029 0.289594 0
M  V30 3715 H 357.263 3.97577 1.2776 0
M  V30 3716 N 357.7 0.491464 1.49741 0
M  V30 3717 C 358.948 -0.0563141 2.02022 0
M  V30 3718 C 359.269 -1.38363 1.37407 0
M  V30 3719 O 358.539 -1.88702 0.526166 0
M  V30 3720 H 357.119 -0.0238014 0.746621 0
M  V30 3721 H 359.781 0.646533 1.83864 0
M  V30 3722 H 358.877 -0.192967 3.11503 0
M  V30 3723 N 359.178 -1.55987 0.224894 0
M  V30 3724 C 360.455 -1.90232 -0.455083 0
M  V30 3725 C 360.835 -1.14269 -1.77499 0
M  V30 3726 O 360.183 -0.253079 -2.27094 0
M  V30 3727 C 360.393 -3.42993 -0.644758 0
M  V30 3728 C 361.741 -4.13821 -0.950669 0
M  V30 3729 O 362.765 -3.4861 -0.731423 0
M  V30 3730 O 361.624 -5.29128 -1.36695 0
M  V30 3731 H 358.718 -0.79108 -0.241084 0
M  V30 3732 H 361.264 -1.67581 0.267327 0
M  V30 3733 H 360.036 -3.90252 0.28613 0
M  V30 3734 H 359.659 -3.71434 -1.41853 0
M  V30 3735 N 360.656 0.0484629 -1.57525 0
M  V30 3736 C 362.072 0.40375 -1.54409 0
M  V30 3737 C 362.272 1.77786 -0.948384 0
M  V30 3738 O 361.328 2.46189 -0.560983 0
M  V30 3739 C 362.641 0.323394 -2.98956 0
M  V30 3740 C 364.189 0.401892 -3.10409 0
M  V30 3741 C 364.664 0.351195 -4.56652 0
M  V30 3742 N 366.155 0.410576 -4.61377 0
M  V30 3743 C 366.89 0.393933 -5.72045 0
M  V30 3744 N 366.386 0.330724 -6.9201 0
M  V30 3745 N 368.179 0.442227 -5.60358 0
M  V30 3746 H 360.33 -0.851016 -1.94606 0
M  V30 3747 H 362.593 -0.321721 -0.89174 0
M  V30 3748 H 362.299 -0.62011 -3.4619 0
M  V30 3749 H 362.173 1.12463 -3.60044 0
M  V30 3750 H 364.56 1.33582 -2.63134 0
M  V30 3751 H 364.641 -0.428342 -2.52188 0
M  V30 3752 H 364.285 -0.578987 -5.04589 0
M  V30 3753 H 364.215 1.19928 -5.12762 0
M  V30 3754 H 366.706 0.462729 -3.75056 0
M  V30 3755 H 367.019 0.322592 -7.72126 0
M  V30 3756 H 365.364 0.29706 -6.94365 0
M  V30 3757 H 368.555 0.489464 -4.65534 0
M  V30 3758 H 368.728 0.425788 -6.466 0
M  V30 3759 N 362.134 1.5431 0.320358 0
M  V30 3760 C 363.066 1.80262 1.41556 0
M  V30 3761 C 364.079 0.684723 1.477 0
M  V30 3762 O 365.268 0.961886 1.50366 0
M  V30 3763 C 362.368 1.90825 2.8007 0
M  V30 3764 C 361.541 3.21023 2.97091 0
M  V30 3765 C 360.6 3.22247 4.15985 0
M  V30 3766 O 359.626 3.95871 4.08992 0
M  V30 3767 N 360.828 2.46258 5.25678 0
M  V30 3768 H 363.593 2.74778 1.19655 0
M  V30 3769 H 361.154 1.53646 0.510358 0
M  V30 3770 H 363.146 1.89067 3.57821 0
M  V30 3771 H 361.716 1.03392 2.95006 0
M  V30 3772 H 360.936 3.35715 2.06614 0
M  V30 3773 H 362.224 4.0698 3.05361 0
M  V30 3774 H 361.622 1.86037 5.34235 0
M  V30 3775 H 360.179 2.50275 6.01835 0
M  V30 3776 N 363.613 -0.582584 1.46437 0
M  V30 3777 C 364.86 -1.34079 1.51753 0
M  V30 3778 C 365.188 -1.93762 0.169299 0
M  V30 3779 O 364.443 -1.76989 -0.835062 0
M  V30 3780 C 364.742 -2.48964 2.56421 0
M  V30 3781 C 364.408 -2.07273 4.00436 0
M  V30 3782 C 363.07 -1.95618 4.39644 0
M  V30 3783 C 365.422 -1.75111 4.90903 0
M  V30 3784 C 362.75 -1.5006 5.67185 0
M  V30 3785 C 365.102 -1.31032 6.18881 0
M  V30 3786 C 363.766 -1.17954 6.56996 0
M  V30 3787 H 363.036 -0.49063 0.555304 0
M  V30 3788 H 365.683 -0.656007 1.79913 0
M  V30 3789 H 363.988 -3.22889 2.21923 0
M  V30 3790 H 365.685 -3.07178 2.57765 0
M  V30 3791 H 362.275 -2.17279 3.69443 0
M  V30 3792 H 366.459 -1.83001 4.61329 0
M  V30 3793 H 361.715 -1.38577 5.95488 0
M  V30 3794 H 365.889 -1.052 6.88408 0
M  V30 3795 H 363.516 -0.824279 7.55718 0
M  V30 3796 N 365.091 -1.34144 -0.827227 0
M  V30 3797 C 366.339 -1.26009 -1.58007 0
M  V30 3798 C 366.66 0.170971 -1.94249 0
M  V30 3799 O 365.93 1.10256 -1.61927 0
M  V30 3800 H 364.51 -0.463414 -0.585881 0
M  V30 3801 H 367.172 -1.68005 -0.987951 0
M  V30 3802 H 366.268 -1.86187 -2.50481 0
M  V30 3803 N 366.569 1.04691 -1.17803 0
M  V30 3804 C 367.98 1.59238 -0.974689 0
M  V30 3805 C 368.331 1.90306 0.477292 0
M  V30 3806 O 367.456 1.68846 1.35352 0
M  V30 3807 C 368.051 2.89318 -1.76296 0
M  V30 3808 C 366.61 3.40506 -1.60414 0
M  V30 3809 C 365.757 2.14172 -1.76141 0
M  V30 3810 H 368.708 0.874395 -1.32439 0
M  V30 3811 H 368.729 3.5944 -1.24833 0
M  V30 3812 H 368.241 2.66675 -2.81968 0
M  V30 3813 H 366.342 3.68175 -0.572519 0
M  V30 3814 H 366.455 4.14753 -2.39827 0
M  V30 3815 H 364.819 2.25176 -1.19028 0
M  V30 3816 H 365.602 1.93992 -2.83235 0
M  V30 3817 N 368.047 0.979072 1.23499 0
M  V30 3818 C 369.277 0.664237 1.95631 0
M  V30 3819 C 369.685 -0.772653 1.72704 0
M  V30 3820 O 369.028 -1.53141 1.01457 0
M  V30 3821 C 369.09 0.873115 3.48736 0
M  V30 3822 C 368.754 2.29182 3.95379 0
M  V30 3823 C 369.751 3.2704 4.04155 0
M  V30 3824 C 367.436 2.62256 4.28401 0
M  V30 3825 C 369.43 4.56052 4.45304 0
M  V30 3826 C 367.117 3.91491 4.69231 0
M  V30 3827 C 368.115 4.88201 4.77649 0
M  V30 3828 O 367.803 6.15129 5.17563 0
M  V30 3829 H 367.535 0.245915 0.629684 0
M  V30 3830 H 370.089 1.3127 1.57979 0
M  V30 3831 H 368.319 0.167476 3.86337 0
M  V30 3832 H 370.008 0.555642 4.02079 0
M  V30 3833 H 370.774 3.02819 3.78848 0
M  V30 3834 H 366.653 1.87692 4.21061 0
M  V30 3835 H 370.197 5.31538 4.51789 0
M  V30 3836 H 366.094 4.15508 4.93987 0
M  V30 3837 H 366.862 6.18862 5.35679 0
M  V30 3838 N 369.525 -1.3858 0.750561 0
M  V30 3839 C 370.765 -2.02032 0.310258 0
M  V30 3840 C 371.129 -1.58288 -1.08668 0
M  V30 3841 O 372.33 -2.14049 -1.62593 0
M  V30 3842 C 370.601 -3.54856 0.425647 0
M  V30 3843 S 372.16 -4.38748 0.0674797 0
M  V30 3844 H 368.978 -0.700705 0.120554 0
M  V30 3845 H 371.58 -1.69134 0.980512 0
M  V30 3846 H 370.284 -3.84182 1.44335 0
M  V30 3847 H 369.815 -3.92527 -0.261894 0
M  V30 3848 H 371.83 -4.82835 -1.14388 0
M  V30 3849 N 371.003 -0.499398 -1.49478 0
M  V30 3850 C 372.251 0.0455996 -2.02049 0
M  V30 3851 C 372.572 1.37633 -1.38138 0
M  V30 3852 O 371.842 1.8842 -0.536166 0
M  V30 3853 H 370.422 0.0198416 -0.746736 0
M  V30 3854 H 373.084 -0.656274 -1.83519 0
M  V30 3855 H 372.18 0.176445 -3.11601 0
M  V30 3856 N 372.481 1.55866 -0.233164 0
M  V30 3857 C 373.431 2.17442 0.685774 0
M  V30 3858 C 374.415 1.12617 1.14918 0
M  V30 3859 O 375.607 1.3857 1.10124 0
M  V30 3860 C 372.736 2.86685 1.88856 0
M  V30 3861 C 371.822 3.98749 1.4443 0
M  V30 3862 N 372.213 5.00744 0.713364 0
M  V30 3863 C 370.511 4.11052 1.73068 0
M  V30 3864 C 371.212 5.79673 0.485205 0
M  V30 3865 N 370.188 5.33454 1.04536 0
M  V30 3866 H 373.99 2.93659 0.119022 0
M  V30 3867 H 371.504 1.62362 -0.0348995 0
M  V30 3868 H 373.501 3.29218 2.55776 0
M  V30 3869 H 372.161 2.11967 2.45967 0
M  V30 3870 H 373.172 5.16613 0.364861 0
M  V30 3871 H 369.849 3.47495 2.31416 0
M  V30 3872 H 371.239 6.71829 -0.097365 0
M  V30 3873 N 373.959 -0.0401083 1.57549 0
M  V30 3874 C 375.207 -0.731677 1.8839 0
M  V30 3875 C 375.528 -1.76481 0.829425 0
M  V30 3876 O 374.798 -1.95411 -0.1383 0
M  V30 3877 H 373.378 -0.273225 0.695239 0
M  V30 3878 H 376.04 -0.00867725 1.94898 0
M  V30 3879 H 375.136 -1.22816 2.86919 0
M  V30 3880 N 375.437 -1.54477 -0.31217 0
M  V30 3881 C 376.684 -1.73227 -1.04875 0
M  V30 3882 C 377.012 -0.512042 -1.87639 0
M  V30 3883 O 376.267 0.506131 -1.89042 0
M  V30 3884 C 376.566 -2.967 -1.99258 0
M  V30 3885 C 376.232 -4.30974 -1.32559 0
M  V30 3886 C 374.894 -4.67477 -1.141 0
M  V30 3887 C 377.246 -5.14258 -0.847835 0
M  V30 3888 C 374.574 -5.84852 -0.465326 0
M  V30 3889 C 376.926 -6.32327 -0.185931 0
M  V30 3890 C 375.59 -6.67499 0.0107077 0
M  V30 3891 H 374.86 -0.633881 -0.383765 0
M  V30 3892 H 377.507 -1.88727 -0.324731 0
M  V30 3893 H 375.812 -2.75935 -2.7815 0
M  V30 3894 H 377.509 -3.08401 -2.563 0
M  V30 3895 H 374.099 -4.02262 -1.4793 0
M  V30 3896 H 378.283 -4.86565 -0.978192 0
M  V30 3897 H 373.539 -6.10654 -0.301883 0
M  V30 3898 H 377.713 -6.96135 0.192211 0
M  V30 3899 H 375.34 -7.58306 0.536287 0
M  V30 3900 N 376.915 0.57481 -1.46744 0
M  V30 3901 C 378.326 1.15695 -1.46532 0
M  V30 3902 C 378.677 1.95068 -0.210425 0
M  V30 3903 O 377.802 2.05241 0.685944 0
M  V30 3904 C 378.397 2.1048 -2.65487 0
M  V30 3905 C 376.956 2.64002 -2.68291 0
M  V30 3906 C 376.103 1.40026 -2.39349 0
M  V30 3907 H 379.054 0.362325 -1.54509 0
M  V30 3908 H 379.075 2.94074 -2.41455 0
M  V30 3909 H 378.587 1.52683 -3.56805 0
M  V30 3910 H 376.688 3.25646 -1.81067 0
M  V30 3911 H 376.801 3.06197 -3.68483 0
M  V30 3912 H 375.165 1.70106 -1.89568 0
M  V30 3913 H 375.948 0.840485 -3.32852 0
M  V30 3914 N 378.394 1.34581 0.820102 0
M  V30 3915 C 379.642 1.26845 1.57336 0
M  V30 3916 C 379.963 -0.160667 1.94337 0
M  V30 3917 O 379.233 -1.09396 1.6251 0
M  V30 3918 H 377.813 0.466514 0.583415 0
M  V30 3919 H 380.475 1.68526 0.979027 0
M  V30 3920 H 379.571 1.87513 2.4949 0
M  V30 3921 N 379.872 -1.04064 1.18357 0
M  V30 3922 C 381.283 -1.58719 0.98312 0
M  V30 3923 C 381.634 -1.90556 -0.467193 0
M  V30 3924 O 380.759 -1.69561 -1.34454 0
M  V30 3925 C 381.354 -2.88379 1.77828 0
M  V30 3926 C 379.913 -3.3965 1.62218 0
M  V30 3927 C 379.06 -2.13235 1.77274 0
M  V30 3928 H 382.011 -0.867359 1.32901 0
M  V30 3929 H 382.032 -3.58773 1.26737 0
M  V30 3930 H 381.544 -2.65176 2.83379 0
M  V30 3931 H 379.645 -3.67866 0.592036 0
M  V30 3932 H 379.758 -4.13475 2.42023 0
M  V30 3933 H 378.122 -2.24542 1.20221 0
M  V30 3934 H 378.905 -1.92487 2.8426 0
M  V30 3935 N 381.35 -0.985608 -1.22978 0
M  V30 3936 C 382.28 -0.549649 -2.26939 0
M  V30 3937 C 383.261 0.419803 -1.64838 0
M  V30 3938 O 384.446 0.31203 -1.91677 0
M  V30 3939 C 381.576 0.143652 -3.47003 0
M  V30 3940 C 380.53 -0.743606 -4.21491 0
M  V30 3941 C 379.856 0.0822027 -5.34637 0
M  V30 3942 C 381.156 -2.03694 -4.80943 0
M  V30 3943 H 382.85 -1.41862 -2.63658 0
M  V30 3944 H 380.396 -0.683571 -1.26741 0
M  V30 3945 H 382.349 0.459985 -4.18882 0
M  V30 3946 H 381.073 1.04711 -3.09359 0
M  V30 3947 H 379.732 -1.04347 -3.51436 0
M  V30 3948 H 379.38 0.986359 -4.93234 0
M  V30 3949 H 379.08 -0.508377 -5.85397 0
M  V30 3950 H 380.604 0.392797 -6.09335 0
M  V30 3951 H 382.018 -1.78504 -5.44802 0
M  V30 3952 H 380.415 -2.57573 -5.42011 0
M  V30 3953 H 381.485 -2.72042 -4.01399 0
M  V30 3954 N 382.828 1.3818 -0.7579 0
M  V30 3955 C 383.776 2.32277 -0.122482 0
M  V30 3956 C 384.77 1.54238 0.700505 0
M  V30 3957 O 385.976 1.69737 0.599119 0
M  V30 3958 H 382.351 0.751712 -0.0208143 0
M  V30 3959 H 384.322 2.83469 -0.932099 0
M  V30 3960 C 383.071 3.39447 0.753076 0
M  V30 3961 H 382.394 3.99591 0.129184 0
M  V30 3962 H 383.834 4.07684 1.16489 0
M  V30 3963 C 382.293 2.78375 1.8976 0
M  V30 3964 O 382.823 2.68025 2.99208 0
M  V30 3965 N 381.029 2.36121 1.69397 0
M  V30 3966 H 380.576 2.4474 0.803762 0
M  V30 3967 H 380.534 1.95602 2.46145 0
M  V30 3968 N 384.306 0.507319 1.49211 0
M  V30 3969 C 385.555 -0.0368315 2.01666 0
M  V30 3970 C 385.868 -1.37459 1.39156 0
M  V30 3971 O 387.074 -2.00579 1.82976 0
M  V30 3972 C 385.53 -0.116089 3.59713 0
M  V30 3973 C 385.138 1.2154 4.31198 0
M  V30 3974 C 386.882 -0.610268 4.2009 0
M  V30 3975 C 384.789 1.09796 5.81119 0
M  V30 3976 H 383.719 -0.0175376 0.753796 0
M  V30 3977 H 386.37 0.647691 1.71689 0
M  V30 3978 H 384.752 -0.8652 3.86433 0
M  V30 3979 H 385.926 1.9783 4.16173 0
M  V30 3980 H 384.241 1.64352 3.82593 0
M  V30 3981 H 386.838 -0.715742 5.29888 0
M  V30 3982 H 387.181 -1.61064 3.8388 0
M  V30 3983 H 387.714 0.0824916 3.97714 0
M  V30 3984 H 384.453 2.0728 6.21864 0
M  V30 3985 H 383.973 0.376058 5.9862 0
M  V30 3986 H 385.652 0.779281 6.4229 0
M  V30 3987 N 385.784 -1.5574 0.241426 0
M  V30 3988 C 386.694 -2.2479 -0.671305 0
M  V30 3989 C 387.71 -1.26217 -1.19772 0
M  V30 3990 O 388.886 -1.59079 -1.23514 0
M  V30 3991 C 385.951 -2.92966 -1.85396 0
M  V30 3992 C 385.012 -4.06935 -1.36756 0
M  V30 3993 C 384.245 -4.71851 -2.49384 0
M  V30 3994 O 384.468 -4.35823 -3.67987 0
M  V30 3995 O 383.402 -5.60467 -2.19454 0
M  V30 3996 H 387.228 -3.0349 -0.112966 0
M  V30 3997 H 384.813 -1.49397 0.0101513 0
M  V30 3998 H 386.695 -3.35927 -2.54423 0
M  V30 3999 H 385.37 -2.17211 -2.40002 0
M  V30 4000 H 384.277 -3.68503 -0.644726 0
M  V30 4001 H 385.61 -4.84492 -0.867647 0
M  V30 4002 N 387.262 0.0317525 -1.57568 0
M  V30 4003 C 388.49 0.734949 -1.93407 0
M  V30 4004 C 388.905 1.69036 -0.84096 0
M  V30 4005 O 388.262 1.81582 0.182836 0
M  V30 4006 C 388.313 1.49432 -3.29169 0
M  V30 4007 O 388.034 0.577261 -4.3428 0
M  V30 4008 C 389.535 2.29492 -3.79273 0
M  V30 4009 H 386.755 0.206706 -0.638368 0
M  V30 4010 H 389.299 -0.00992046 -2.04498 0
M  V30 4011 H 387.454 2.1911 -3.19483 0
M  V30 4012 H 387.868 1.10952 -5.1263 0
M  V30 4013 H 389.342 2.78172 -4.76785 0
M  V30 4014 H 389.819 3.10794 -3.10328 0
M  V30 4015 H 390.425 1.64894 -3.92033 0
M  V30 4016 N 388.74 1.54641 0.303973 0
M  V30 4017 C 389.687 1.85386 1.37479 0
M  V30 4018 C 390.657 0.702528 1.50512 0
M  V30 4019 O 391.842 0.950867 1.65418 0
M  V30 4020 C 388.982 2.10413 2.73533 0
M  V30 4021 C 388.095 3.38049 2.68974 0
M  V30 4022 C 387.23 3.52934 3.97002 0
M  V30 4023 C 386.269 4.74373 3.86829 0
M  V30 4024 N 385.406 4.8608 5.06627 0
M  V30 4025 H 390.246 2.76732 1.1056 0
M  V30 4026 H 387.783 1.37034 0.534805 0
M  V30 4027 H 389.741 2.22919 3.52652 0
M  V30 4028 H 388.371 1.22338 2.98719 0
M  V30 4029 H 387.423 3.3418 1.81736 0
M  V30 4030 H 388.735 4.27288 2.57346 0
M  V30 4031 H 387.889 3.65088 4.84557 0
M  V30 4032 H 386.628 2.61824 4.1146 0
M  V30 4033 H 385.633 4.62255 2.97658 0
M  V30 4034 H 386.858 5.66888 3.73918 0
M  V30 4035 H 384.804 3.97891 5.21554 0
M  V30 4036 H 384.721 5.69315 4.9741 0
M  V30 4037 H 385.989 5.02587 5.95841 0
M  V30 4038 N 390.218 -0.567019 1.47046 0
M  V30 4039 C 391.443 -1.3551 1.57009 0
M  V30 4040 C 391.868 -1.86841 0.217259 0
M  V30 4041 O 391.226 -1.62435 -0.805268 0
M  V30 4042 C 391.274 -2.50777 2.5912 0
M  V30 4043 O 390.378 -3.52706 2.13711 0
M  V30 4044 H 389.719 -0.402919 0.52778 0
M  V30 4045 H 392.249 -0.686241 1.92748 0
M  V30 4046 H 392.259 -2.97481 2.79229 0
M  V30 4047 H 390.934 -2.12771 3.57353 0
M  V30 4048 H 389.511 -3.12374 2.03659 0
M  V30 4049 N 391.696 -1.35014 -0.812953 0
M  V30 4050 C 392.644 -1.27435 -1.94585 0
M  V30 4051 C 393.638 -0.170494 -1.6854 0
M  V30 4052 O 394.844 -0.336085 -1.76835 0
M  V30 4053 H 391.219 -0.396144 -0.639198 0
M  V30 4054 H 393.19 -2.23158 -1.98098 0
M  V30 4055 C 391.939 -1.05677 -3.31252 0
M  V30 4056 H 391.262 -1.89853 -3.51846 0
M  V30 4057 H 392.702 -1.04413 -4.10943 0
M  V30 4058 C 391.161 0.239615 -3.36047 0
M  V30 4059 O 391.691 1.23759 -3.8216 0
M  V30 4060 N 389.897 0.276186 -2.89285 0
M  V30 4061 H 389.444 -0.53653 -2.51951 0
M  V30 4062 H 389.402 1.14332 -2.92875 0
M  V30 4063 N 393.175 1.03435 -1.18907 0
M  V30 4064 C 394.138 2.09756 -0.923844 0
M  V30 4065 C 395.138 1.60528 0.093416 0
M  V30 4066 O 396.328 1.73631 -0.140727 0
M  V30 4067 C 393.46 3.38692 -0.387354 0
M  V30 4068 H 394.653 2.34719 -1.86674 0
M  V30 4069 H 392.206 1.19959 -1.00197 0
M  V30 4070 H 392.941 3.19396 0.561845 0
M  V30 4071 H 392.726 3.75742 -1.12074 0
M  V30 4072 H 394.216 4.17016 -0.220694 0
M  V30 4073 N 394.653 0.992116 1.22453 0
M  V30 4074 C 395.583 0.561677 2.26644 0
M  V30 4075 C 396.564 -0.411055 1.65059 0
M  V30 4076 O 397.749 -0.301861 1.9184 0
M  V30 4077 C 394.879 -0.125247 3.47074 0
M  V30 4078 C 393.833 0.765948 4.21091 0
M  V30 4079 C 393.159 -0.0538484 5.34673 0
M  V30 4080 C 394.459 2.06242 4.79856 0
M  V30 4081 H 396.153 1.43259 2.62902 0
M  V30 4082 H 393.699 0.690283 1.26377 0
M  V30 4083 H 395.652 -0.437764 4.1912 0
M  V30 4084 H 394.376 -1.03069 3.0991 0
M  V30 4085 H 393.035 1.0621 3.50878 0
M  V30 4086 H 392.683 -0.960188 4.9375 0
M  V30 4087 H 392.383 0.539415 5.85119 0
M  V30 4088 H 393.907 -0.360477 6.09535 0
M  V30 4089 H 395.321 1.8139 5.43848 0
M  V30 4090 H 393.718 2.60444 5.40638 0
M  V30 4091 H 394.788 2.74167 3.99951 0
M  V30 4092 N 396.131 -1.37776 0.765217 0
M  V30 4093 C 397.408 -1.93975 0.251596 0
M  V30 4094 C 397.788 -1.69949 -1.25222 0
M  V30 4095 O 397.136 -1.04457 -2.03226 0
M  V30 4096 C 397.346 -3.43487 0.617895 0
M  V30 4097 C 398.694 -4.20564 0.584029 0
M  V30 4098 O 399.718 -3.5182 0.556888 0
M  V30 4099 O 398.577 -5.43138 0.605291 0
M  V30 4100 H 395.671 -0.82509 0.0561806 0
M  V30 4101 H 398.217 -1.47101 0.846128 0
M  V30 4102 H 396.989 -3.5453 1.65602 0
M  V30 4103 H 396.612 -3.976 -0.00403411 0
M  V30 4104 N 397.609 -0.515225 -1.4894 0
M  V30 4105 C 398.858 0.0261361 -2.01683 0
M  V30 4106 C 399.171 1.36719 -1.39883 0
M  V30 4107 O 400.377 1.99606 -1.84037 0
M  V30 4108 C 398.833 0.0970111 -3.59769 0
M  V30 4109 C 398.441 -1.23825 -4.30548 0
M  V30 4110 C 400.185 0.587981 -4.20408 0
M  V30 4111 C 398.092 -1.12877 -5.80528 0
M  V30 4112 H 397.022 0.0135398 -0.753878 0
M  V30 4113 H 399.673 -0.656787 -1.71343 0
M  V30 4114 H 398.055 0.844694 -3.86886 0
M  V30 4115 H 399.229 -2.00034 -4.15118 0
M  V30 4116 H 397.544 -1.66379 -3.81716 0
M  V30 4117 H 400.141 0.68763 -5.3026 0
M  V30 4118 H 400.484 1.59026 -3.84729 0
M  V30 4119 H 401.017 -0.103582 -3.97665 0
M  V30 4120 H 397.756 -2.10575 -6.20756 0
M  V30 4121 H 397.276 -0.407799 -5.98412 0
M  V30 4122 H 398.955 -0.813332 -6.41868 0
M  V30 4123 N 399.087 1.5561 -0.249682 0
M  V30 4124 C 400.336 1.98187 0.37479 0
M  V30 4125 C 400.649 1.14111 1.58865 0
M  V30 4126 O 401.855 1.46714 2.28445 0
M  V30 4127 C 400.311 3.52661 0.718192 0
M  V30 4128 C 399.919 4.45481 -0.474428 0
M  V30 4129 C 401.663 4.03888 1.3067 0
M  V30 4130 C 399.57 5.91303 -0.107026 0
M  V30 4131 H 398.5 0.740159 0.143808 0
M  V30 4132 H 401.151 1.80125 -0.350336 0
M  V30 4133 H 399.533 3.66429 1.50152 0
M  V30 4134 H 400.707 4.43473 -1.25172 0
M  V30 4135 H 399.022 4.04751 -0.978052 0
M  V30 4136 H 401.619 5.10358 1.59496 0
M  V30 4137 H 401.962 3.51401 2.23211 0
M  V30 4138 H 402.495 3.93457 0.586211 0
M  V30 4139 H 399.234 6.47833 -0.999642 0
M  V30 4140 H 398.754 5.9644 0.634013 0
M  V30 4141 H 400.433 6.46258 0.309807 0
M  V30 4142 N 400.565 -0.0233959 1.57583 0
M  V30 4143 C 401.812 -0.713063 1.8953 0
M  V30 4144 C 402.14 -1.75056 0.847673 0
M  V30 4145 O 401.395 -1.95119 -0.150636 0
M  V30 4146 C 401.694 -1.41428 3.28227 0
M  V30 4147 C 401.36 -0.512222 4.47981 0
M  V30 4148 C 400.022 -0.263785 4.80476 0
M  V30 4149 C 402.374 0.110248 5.21083 0
M  V30 4150 C 399.702 0.615804 5.83459 0
M  V30 4151 C 402.054 0.977573 6.25001 0
M  V30 4152 C 400.718 1.23542 6.55968 0
M  V30 4153 H 399.988 -0.260928 0.69354 0
M  V30 4154 H 402.635 0.0271047 1.91481 0
M  V30 4155 H 400.94 -2.22791 3.22291 0
M  V30 4156 H 402.637 -1.95355 3.50196 0
M  V30 4157 H 399.227 -0.716013 4.22577 0
M  V30 4158 H 403.411 -0.0687137 4.96252 0
M  V30 4159 H 398.667 0.82382 6.05824 0
M  V30 4160 H 402.841 1.46638 6.80786 0
M  V30 4161 H 400.468 1.91871 7.35588 0
M  V30 4162 N 402.043 -1.548 -0.295768 0
M  V30 4163 C 402.975 -1.82492 -1.3867 0
M  V30 4164 C 403.988 -0.708134 -1.46592 0
M  V30 4165 O 405.177 -0.985686 -1.48817 0
M  V30 4166 C 402.277 -1.95256 -2.76999 0
M  V30 4167 C 401.45 -3.25709 -2.91946 0
M  V30 4168 C 400.509 -3.28824 -4.10806 0
M  V30 4169 O 399.535 -4.02328 -4.02643 0
M  V30 4170 N 400.737 -2.5459 -5.21694 0
M  V30 4171 H 403.502 -2.76646 -1.15269 0
M  V30 4172 H 401.063 -1.54438 -0.485849 0
M  V30 4173 H 403.055 -1.94736 -3.54768 0
M  V30 4174 H 401.625 -1.08072 -2.93324 0
M  V30 4175 H 400.845 -3.38959 -2.01247 0
M  V30 4176 H 402.133 -4.11786 -2.98847 0
M  V30 4177 H 401.531 -1.94512 -5.31208 0
M  V30 4178 H 400.088 -2.59818 -5.97778 0
M  V30 4179 N 403.521 0.559213 -1.47345 0
M  V30 4180 C 404.749 1.34194 -1.57479 0
M  V30 4181 C 405.164 1.87463 -0.224261 0
M  V30 4182 O 404.521 1.64888 0.782185 0
M  V30 4183 C 404.572 2.51324 -2.59843 0
M  V30 4184 O 404.293 2.00256 -3.89653 0
M  V30 4185 C 405.794 3.43563 -2.80142 0
M  V30 4186 H 403.014 0.409136 -0.531835 0
M  V30 4187 H 405.558 0.677609 -1.92947 0
M  V30 4188 H 403.713 3.13699 -2.27314 0
M  V30 4189 H 404.127 2.76708 -4.4557 0
M  V30 4190 H 405.601 4.2217 -3.55635 0
M  V30 4191 H 406.078 3.9698 -1.87892 0
M  V30 4192 H 406.684 2.87005 -3.1386 0
M  V30 4193 N 404.999 1.35443 0.805782 0
M  V30 4194 C 406.276 1.19325 1.54987 0
M  V30 4195 C 406.656 -0.227294 2.09873 0
M  V30 4196 O 406.004 -1.2309 1.92512 0
M  V30 4197 C 406.214 2.26196 2.65775 0
M  V30 4198 C 407.562 2.62043 3.34094 0
M  V30 4199 O 408.586 2.25115 2.76046 0
M  V30 4200 O 407.445 3.25542 4.38958 0
M  V30 4201 H 404.539 0.463623 0.684823 0
M  V30 4202 H 407.085 1.47127 0.845674 0
M  V30 4203 H 405.857 3.21471 2.23096 0
M  V30 4204 H 405.48 1.99667 3.43829 0
M  V30 4205 N 406.477 -1.02803 1.19454 0
M  V30 4206 C 407.407 -2.12999 0.956758 0
M  V30 4207 C 408.388 -1.69743 -0.110188 0
M  V30 4208 O 409.573 -1.94148 0.0450038 0
M  V30 4209 C 406.703 -3.43746 0.495553 0
M  V30 4210 C 405.657 -4.00688 1.50443 0
M  V30 4211 C 404.983 -5.27067 0.900275 0
M  V30 4212 C 406.283 -4.35397 2.8849 0
M  V30 4213 H 407.977 -2.33148 1.87836 0
M  V30 4214 H 405.523 -1.12045 0.904539 0
M  V30 4215 H 407.476 -4.2021 0.316493 0
M  V30 4216 H 406.2 -3.23321 -0.461646 0
M  V30 4217 H 404.859 -3.2632 1.67065 0
M  V30 4218 H 404.507 -5.02959 -0.064503 0
M  V30 4219 H 404.207 -5.66127 1.57397 0
M  V30 4220 H 405.731 -6.06196 0.73203 0
M  V30 4221 H 407.145 -5.02795 2.75446 0
M  V30 4222 H 405.542 -4.85541 3.52661 0
M  V30 4223 H 406.612 -3.44662 3.41081 0
M  V30 4224 N 407.956 -0.998596 -1.21925 0
M  V30 4225 C 409.184 -0.696286 -1.94832 0
M  V30 4226 C 409.599 0.740032 -1.73692 0
M  V30 4227 O 408.956 1.5 -1.03953 0
M  V30 4228 C 409.007 -0.999833 -3.47398 0
M  V30 4229 O 408.728 -2.37972 -3.67833 0
M  V30 4230 C 410.229 -0.716025 -4.37479 0
M  V30 4231 H 407.449 -0.257111 -0.619786 0
M  V30 4232 H 409.993 -1.33491 -1.54921 0
M  V30 4233 H 408.148 -0.406918 -3.85257 0
M  V30 4234 H 408.562 -2.48338 -4.61983 0
M  V30 4235 H 410.036 -0.978642 -5.43256 0
M  V30 4236 H 410.513 0.349968 -4.37803 0
M  V30 4237 H 411.119 -1.29025 -4.05256 0
M  V30 4238 N 409.434 1.37368 -0.772513 0
M  V30 4239 C 410.682 1.99279 -0.336516 0
M  V30 4240 C 411.003 1.6163 1.09091 0
M  V30 4241 O 410.273 0.882109 1.74916 0
M  V30 4242 H 408.853 0.737063 -0.121435 0
M  V30 4243 H 411.515 1.67836 -0.990809 0
M  V30 4244 H 410.611 3.09332 -0.414763 0
M  V30 4245 N 410.912 0.523116 1.48665 0
M  V30 4246 C 411.844 -0.280421 2.27478 0
M  V30 4247 C 412.857 -0.910694 1.34945 0
M  V30 4248 O 414.046 -0.790295 1.60052 0
M  V30 4249 C 411.146 -1.41171 3.08097 0
M  V30 4250 C 410.319 -0.884642 4.28361 0
M  V30 4251 C 409.378 -1.89622 4.90846 0
M  V30 4252 O 408.404 -1.4559 5.50265 0
M  V30 4253 N 409.606 -3.22801 4.82472 0
M  V30 4254 H 412.371 0.395481 2.97079 0
M  V30 4255 H 409.932 0.357018 1.57915 0
M  V30 4256 H 411.924 -2.08645 3.4677 0
M  V30 4257 H 410.494 -1.99139 2.40961 0
M  V30 4258 H 409.714 -0.0341177 3.94185 0
M  V30 4259 H 411.002 -0.511268 5.06225 0
M  V30 4260 H 410.4 -3.61246 4.35336 0
M  V30 4261 H 408.957 -3.85927 5.25265 0
M  V30 4262 N 412.39 -1.55475 0.257931 0
M  V30 4263 C 413.337 -2.21837 -0.636939 0
M  V30 4264 C 414.307 -1.18596 -1.16294 0
M  V30 4265 O 415.492 -1.47081 -1.21539 0
M  V30 4266 C 412.632 -2.9301 -1.82317 0
M  V30 4267 C 411.745 -4.10931 -1.33265 0
M  V30 4268 C 410.88 -4.69791 -2.47931 0
M  V30 4269 C 409.919 -5.7994 -1.95796 0
M  V30 4270 N 409.056 -6.32935 -3.0387 0
M  V30 4271 H 413.896 -2.9793 -0.0643591 0
M  V30 4272 H 411.433 -1.47086 -0.0200031 0
M  V30 4273 H 413.391 -3.3248 -2.52018 0
M  V30 4274 H 412.021 -2.1937 -2.36805 0
M  V30 4275 H 411.073 -3.76699 -0.52931 0
M  V30 4276 H 412.385 -4.90417 -0.910654 0
M  V30 4277 H 411.539 -5.11892 -3.25656 0
M  V30 4278 H 410.278 -3.89545 -2.93438 0
M  V30 4279 H 409.283 -5.37305 -1.16546 0
M  V30 4280 H 410.508 -6.62043 -1.51246 0
M  V30 4281 H 408.454 -5.55591 -3.48791 0
M  V30 4282 H 408.371 -7.07645 -2.66035 0
M  V30 4283 H 409.639 -6.79695 -3.81621 0
M  V30 4284 N 413.868 0.0150385 -1.57593 0
M  V30 4285 C 414.815 1.01126 -2.07466 0
M  V30 4286 C 415.785 1.35064 -0.966794 0
M  V30 4287 O 416.97 1.4516 -1.23827 0
M  V30 4288 C 414.11 2.30276 -2.57035 0
M  V30 4289 C 413.223 2.02373 -3.81666 0
M  V30 4290 C 412.358 3.25496 -4.19793 0
M  V30 4291 C 411.397 2.93211 -5.37303 0
M  V30 4292 N 410.534 4.08826 -5.70794 0
M  V30 4293 H 415.374 0.57901 -2.92321 0
M  V30 4294 H 412.911 0.27426 -1.44521 0
M  V30 4295 H 414.869 3.05757 -2.83846 0
M  V30 4296 H 413.499 2.71197 -1.75077 0
M  V30 4297 H 412.551 1.17327 -3.61854 0
M  V30 4298 H 413.863 1.74567 -4.67256 0
M  V30 4299 H 413.017 4.09333 -4.47807 0
M  V30 4300 H 411.756 3.56428 -3.32882 0
M  V30 4301 H 410.761 2.07777 -5.09027 0
M  V30 4302 H 411.986 2.63542 -6.25877 0
M  V30 4303 H 409.932 4.39682 -4.86842 0
M  V30 4304 H 409.849 3.84491 -6.50924 0
M  V30 4305 H 411.117 4.93496 -6.03392 0
M  V30 4306 N 415.346 1.54954 0.287554 0
M  V30 4307 C 416.594 1.74528 1.01904 0
M  V30 4308 C 416.915 0.541349 1.87335 0
M  V30 4309 O 416.185 -0.444108 1.908 0
M  V30 4310 H 414.765 0.643576 0.379235 0
M  V30 4311 H 417.427 1.92333 0.315294 0
M  V30 4312 H 416.523 2.64015 1.6644 0
M  V30 4313 N 416.824 -0.551391 1.4764 0
M  V30 4314 C 418.07 -1.30789 1.55774 0
M  V30 4315 C 418.425 -1.91143 0.219562 0
M  V30 4316 O 417.718 -1.7521 -0.775375 0
M  V30 4317 C 417.912 -2.43469 2.61644 0
M  V30 4318 C 417.741 -1.94157 4.05627 0
M  V30 4319 C 416.511 -1.77734 4.7301 0
M  V30 4320 C 418.709 -1.48262 4.92466 0
M  V30 4321 N 416.691 -1.22823 6.01488 0
M  V30 4322 C 418.062 -1.05156 6.11017 0
M  V30 4323 C 420.117 -1.36367 4.78862 0
M  V30 4324 C 418.82 -0.513357 7.17466 0
M  V30 4325 C 420.846 -0.839484 5.85411 0
M  V30 4326 C 420.208 -0.418377 7.03156 0
M  V30 4327 H 416.307 -0.470406 0.624694 0
M  V30 4328 H 418.891 -0.624331 1.84419 0
M  V30 4329 H 417.062 -3.09348 2.34859 0
M  V30 4330 H 418.794 -3.10477 2.59589 0
M  V30 4331 H 415.549 -2.00623 4.29007 0
M  V30 4332 H 415.973 -0.974393 6.69951 0
M  V30 4333 H 420.615 -1.67535 3.88191 0
M  V30 4334 H 418.333 -0.189318 8.07878 0
M  V30 4335 H 421.919 -0.750921 5.76934 0
M  V30 4336 H 420.799 -0.0190538 7.84198 0
M  V30 4337 N 418.302 -1.35869 -0.798587 0
M  V30 4338 C 419.249 -1.29446 -1.91082 0
M  V30 4339 C 420.219 -0.16487 -1.6528 0
M  V30 4340 O 421.404 -0.349888 -1.87564 0
M  V30 4341 C 418.544 -1.0804 -3.27752 0
M  V30 4342 C 417.657 -2.29993 -3.65687 0
M  V30 4343 C 416.792 -2.01673 -4.91428 0
M  V30 4344 C 415.831 -3.19636 -5.22015 0
M  V30 4345 N 414.968 -2.91039 -6.38937 0
M  V30 4346 H 419.808 -2.24553 -1.95907 0
M  V30 4347 H 417.345 -1.11615 -0.958148 0
M  V30 4348 H 419.303 -0.936586 -4.06551 0
M  V30 4349 H 417.933 -0.16592 -3.22373 0
M  V30 4350 H 416.985 -2.55211 -2.82085 0
M  V30 4351 H 418.297 -3.18052 -3.84245 0
M  V30 4352 H 417.451 -1.84168 -5.78072 0
M  V30 4353 H 416.19 -1.10911 -4.74921 0
M  V30 4354 H 415.195 -3.37709 -4.33858 0
M  V30 4355 H 416.42 -4.11211 -5.40447 0
M  V30 4356 H 414.366 -2.0288 -6.2384 0
M  V30 4357 H 414.283 -3.72635 -6.57784 0
M  V30 4358 H 415.551 -2.77093 -7.28587 0
M  V30 4359 N 419.78 1.02168 -1.19998 0
M  V30 4360 C 420.71 2.12488 -0.96804 0
M  V30 4361 C 421.691 1.69799 0.101185 0
M  V30 4362 O 422.876 1.94121 -0.0552993 0
M  V30 4363 C 420.006 3.43479 -0.513776 0
M  V30 4364 C 418.96 3.99884 -1.52566 0
M  V30 4365 C 418.286 5.26582 -0.928214 0
M  V30 4366 C 419.586 4.33861 -2.90795 0
M  V30 4367 H 421.28 2.32149 -1.89069 0
M  V30 4368 H 418.826 1.11564 -0.910468 0
M  V30 4369 H 420.779 4.20036 -0.338774 0
M  V30 4370 H 419.503 3.23561 0.444493 0
M  V30 4371 H 418.162 3.25429 -1.68794 0
M  V30 4372 H 417.81 5.02986 0.0378289 0
M  V30 4373 H 417.51 5.65284 -1.60397 0
M  V30 4374 H 419.034 6.05799 -0.764167 0
M  V30 4375 H 420.448 5.01327 -2.78109 0
M  V30 4376 H 418.845 4.83664 -3.55231 0
M  V30 4377 H 419.915 3.42848 -3.42904 0
M  V30 4378 N 421.258 1.00505 1.21394 0
M  V30 4379 C 422.674 0.717873 1.42544 0
M  V30 4380 C 422.874 -0.706936 1.88692 0
M  V30 4381 O 421.93 -1.47627 2.04847 0
M  V30 4382 C 423.243 1.73377 2.45684 0
M  V30 4383 C 424.791 1.75059 2.59467 0
M  V30 4384 C 425.266 2.75545 3.6584 0
M  V30 4385 N 426.757 2.74213 3.73311 0
M  V30 4386 C 427.492 3.48626 4.55245 0
M  V30 4387 N 426.988 4.32678 5.41075 0
M  V30 4388 N 428.781 3.37276 4.49668 0
M  V30 4389 H 420.932 1.92506 0.897503 0
M  V30 4390 H 423.195 0.830919 0.456375 0
M  V30 4391 H 422.901 2.75395 2.18748 0
M  V30 4392 H 422.775 1.53647 3.44489 0
M  V30 4393 H 425.162 0.737337 2.8574 0
M  V30 4394 H 425.243 1.98861 1.60897 0
M  V30 4395 H 424.887 3.77028 3.40313 0
M  V30 4396 H 424.817 2.49009 4.64007 0
M  V30 4397 H 427.308 2.13234 3.11993 0
M  V30 4398 H 427.621 4.86253 6.00648 0
M  V30 4399 H 425.966 4.3676 5.40616 0
M  V30 4400 H 429.157 2.71043 3.81646 0
M  V30 4401 H 429.33 3.95524 5.13288 0
M  V30 4402 N 422.737 -1.36956 0.779787 0
M  V30 4403 C 423.967 -2.03459 0.358877 0
M  V30 4404 C 424.375 -1.58939 -1.02641 0
M  V30 4405 O 423.718 -0.769777 -1.66794 0
M  V30 4406 C 423.78 -3.5796 0.332393 0
M  V30 4407 C 423.444 -4.25644 1.66362 0
M  V30 4408 C 424.441 -4.49205 2.61746 0
M  V30 4409 C 422.126 -4.63313 1.94027 0
M  V30 4410 C 424.12 -5.09503 3.82996 0
M  V30 4411 C 421.807 -5.2333 3.15546 0
M  V30 4412 C 422.805 -5.46363 4.0985 0
M  V30 4413 O 422.493 -6.05122 5.29228 0
M  V30 4414 H 422.225 -0.659767 0.147254 0
M  V30 4415 H 424.779 -1.76111 1.05708 0
M  V30 4416 H 423.009 -3.84388 -0.422237 0
M  V30 4417 H 424.698 -4.05852 -0.0625389 0
M  V30 4418 H 425.464 -4.20508 2.41657 0
M  V30 4419 H 421.343 -4.44715 1.21448 0
M  V30 4420 H 424.887 -5.27397 4.56617 0
M  V30 4421 H 420.784 -5.51451 3.35517 0
M  V30 4422 H 421.552 -6.23595 5.30161 0
M  V30 4423 N 424.215 -0.530993 -1.48385 0
M  V30 4424 C 425.165 0.251092 -2.26613 0
M  V30 4425 C 426.149 0.908977 -1.32765 0
M  V30 4426 O 427.341 0.811616 -1.57295 0
M  V30 4427 C 424.47 1.29677 -3.17866 0
M  V30 4428 C 423.556 0.643627 -4.19188 0
M  V30 4429 N 423.947 -0.271223 -5.05072 0
M  V30 4430 C 422.245 0.900711 -4.3681 0
M  V30 4431 C 422.946 -0.648109 -5.78078 0
M  V30 4432 N 421.922 -0.00895987 -5.43599 0
M  V30 4433 H 425.724 -0.452702 -2.90393 0
M  V30 4434 H 423.238 -0.349091 -1.58604 0
M  V30 4435 H 425.235 1.87079 -3.72568 0
M  V30 4436 H 423.895 2.00193 -2.55642 0
M  V30 4437 H 424.906 -0.643883 -5.13882 0
M  V30 4438 H 421.583 1.59636 -3.85775 0
M  V30 4439 H 422.973 -1.39833 -6.57188 0
M  V30 4440 N 425.693 1.55336 -0.266172 0
M  V30 4441 C 426.941 1.99003 0.35246 0
M  V30 4442 C 427.262 1.15591 1.57047 0
M  V30 4443 O 426.532 0.243268 1.94384 0
M  V30 4444 H 425.112 0.735025 0.133217 0
M  V30 4445 H 427.774 1.91367 -0.369434 0
M  V30 4446 H 426.87 3.05289 0.648453 0
M  V30 4447 N 427.171 -0.0066808 1.57599 0
M  V30 4448 C 428.448 -0.729586 1.81484 0
M  V30 4449 C 428.828 -1.92359 0.869558 0
M  V30 4450 O 428.176 -2.28348 -0.0832533 0
M  V30 4451 C 428.386 -1.1416 3.29801 0
M  V30 4452 C 429.734 -1.54823 3.95367 0
M  V30 4453 O 430.758 -1.23558 3.34084 0
M  V30 4454 O 429.617 -2.12937 5.03309 0
M  V30 4455 H 426.711 -0.354674 0.747085 0
M  V30 4456 H 429.257 0.0182609 1.6969 0
M  V30 4457 H 428.029 -0.290231 3.90222 0
M  V30 4458 H 427.652 -1.94876 3.46568 0
M  V30 4459 N 428.649 -1.55105 -0.279332 0
M  V30 4460 C 430.06 -1.66186 -0.850832 0
M  V30 4461 C 430.411 -0.584707 -1.87285 0
M  V30 4462 O 429.536 0.274919 -2.14647 0
M  V30 4463 C 430.131 -3.01264 -1.55001 0
M  V30 4464 C 428.69 -3.14394 -2.06963 0
M  V30 4465 C 427.837 -2.61959 -0.909536 0
M  V30 4466 H 430.788 -1.58602 -0.0558235 0
M  V30 4467 H 430.809 -2.93899 -2.41669 0
M  V30 4468 H 430.321 -3.7964 -0.805931 0
M  V30 4469 H 428.422 -2.4078 -2.84352 0
M  V30 4470 H 428.535 -4.20867 -2.28928 0
M  V30 4471 H 426.899 -2.18957 -1.30116 0
M  V30 4472 H 427.682 -3.42833 -0.179062 0
M  V30 4473 N 430.127 0.543554 -1.4793 0
M  V30 4474 C 431.06 1.66556 -1.55995 0
M  V30 4475 C 432.038 1.57315 -0.411205 0
M  V30 4476 O 433.222 1.7798 -0.620922 0
M  V30 4477 C 430.349 3.04883 -1.47527 0
M  V30 4478 C 429.395 3.32526 -2.67074 0
M  V30 4479 S 430.228 3.20282 -4.29162 0
M  V30 4480 C 431.384 4.61079 -4.23269 0
M  V30 4481 H 431.617 1.59462 -2.50917 0
M  V30 4482 H 429.15 0.725456 -1.36296 0
M  V30 4483 H 431.108 3.84665 -1.43328 0
M  V30 4484 H 429.769 3.09429 -0.539665 0
M  V30 4485 H 428.962 4.33403 -2.5725 0
M  V30 4486 H 428.564 2.60389 -2.68466 0
M  V30 4487 H 430.856 5.52318 -3.92365 0
M  V30 4488 H 431.799 4.75959 -5.24279 0
M  V30 4489 H 432.207 4.39766 -3.5393 0
M  V30 4490 N 431.605 1.3629 0.791371 0
M  V30 4491 C 433.016 1.27225 1.36641 0
M  V30 4492 C 433.367 -0.0887968 1.95999 0
M  V30 4493 O 432.492 -0.990207 1.92416 0
M  V30 4494 C 433.087 2.30375 2.48421 0
M  V30 4495 C 431.646 2.25004 3.01746 0
M  V30 4496 C 430.793 2.15259 1.7481 0
M  V30 4497 H 433.744 1.47198 0.593173 0
M  V30 4498 H 433.765 1.93905 3.27385 0
M  V30 4499 H 433.277 3.29422 2.05189 0
M  V30 4500 H 431.378 1.29417 3.49403 0
M  V30 4501 H 431.491 3.1761 3.58693 0
M  V30 4502 H 429.855 1.61482 1.96966 0
M  V30 4503 H 430.638 3.16191 1.33709 0
M  V30 4504 N 433.083 -1.0153 1.20538 0
M  V30 4505 C 434.323 -1.76689 1.02763 0
M  V30 4506 C 434.687 -1.87065 -0.432513 0
M  V30 4507 O 435.888 -2.58684 -0.730481 0
M  V30 4508 C 434.159 -3.14707 1.69393 0
M  V30 4509 S 435.718 -4.05886 1.66738 0
M  V30 4510 H 432.536 -0.608076 0.368463 0
M  V30 4511 H 435.138 -1.21558 1.53114 0
M  V30 4512 H 433.842 -3.04782 2.74838 0
M  V30 4513 H 433.373 -3.74913 1.19179 0
M  V30 4514 H 435.388 -4.91221 0.70117 0
M  V30 4515 N 434.561 -1.01147 -1.20859 0
M  V30 4516 C 435.972 -0.730205 -1.71828 0
M  V30 4517 C 436.323 0.751662 -1.8123 0
M  V30 4518 O 435.448 1.58686 -1.47132 0
M  V30 4519 C 436.043 -1.31885 -3.12077 0
M  V30 4520 C 434.602 -1.08656 -3.60376 0
M  V30 4521 C 433.749 -1.42769 -2.37723 0
M  V30 4522 H 436.7 -1.18158 -1.05945 0
M  V30 4523 H 436.721 -0.706793 -3.73878 0
M  V30 4524 H 436.233 -2.39737 -3.05201 0
M  V30 4525 H 434.334 -0.0254814 -3.72591 0
M  V30 4526 H 434.447 -1.76301 -4.45483 0
M  V30 4527 H 432.811 -0.846603 -2.40218 0
M  V30 4528 H 433.594 -2.51666 -2.33493 0
M  V30 4529 N 436.039 1.36541 -0.78704 0
M  V30 4530 C 436.986 2.30082 -0.181901 0
M  V30 4531 C 437.956 1.5186 0.672896 0
M  V30 4532 O 439.141 1.80374 0.622072 0
M  V30 4533 C 436.281 3.3835 0.679197 0
M  V30 4534 C 435.394 4.31565 -0.193882 0
M  V30 4535 C 434.529 5.26915 0.673364 0
M  V30 4536 C 433.568 6.11769 -0.201315 0
M  V30 4537 N 432.705 6.99315 0.624777 0
M  V30 4538 H 437.545 2.81248 -0.985064 0
M  V30 4539 H 435.082 1.38437 -0.497342 0
M  V30 4540 H 437.04 3.99767 1.19341 0
M  V30 4541 H 435.67 2.8851 1.44781 0
M  V30 4542 H 434.722 3.71323 -0.826044 0
M  V30 4543 H 436.034 4.91191 -0.867937 0
M  V30 4544 H 435.188 5.9361 1.25348 0
M  V30 4545 H 433.927 4.67737 1.38105 0
M  V30 4546 H 432.932 5.44039 -0.793849 0
M  V30 4547 H 434.157 6.73022 -0.906568 0
M  V30 4548 H 432.103 6.42648 1.3168 0
M  V30 4549 H 432.02 7.56 0.00835237 0
M  V30 4550 H 433.288 7.70382 1.18879 0
M  V30 4551 N 437.518 0.538854 1.48102 0
M  V30 4552 C 438.428 -0.222648 2.33541 0
M  V30 4553 C 439.444 -0.930225 1.47047 0
M  V30 4554 O 440.62 -0.903211 1.80011 0
M  V30 4555 C 437.685 -1.25064 3.23357 0
M  V30 4556 C 436.746 -0.552469 4.2573 0
M  V30 4557 C 435.979 -1.53149 5.11254 0
M  V30 4558 O 436.202 -2.76487 4.9891 0
M  V30 4559 O 435.136 -1.06602 5.92385 0
M  V30 4560 H 438.962 0.477707 2.99919 0
M  V30 4561 H 436.547 0.299669 1.46364 0
M  V30 4562 H 438.429 -1.8445 3.78888 0
M  V30 4563 H 437.104 -1.93325 2.59629 0
M  V30 4564 H 436.011 0.082114 3.7401 0
M  V30 4565 H 437.344 0.0883526 4.92121 0
M  V30 4566 N 438.996 -1.55193 0.274407 0
M  V30 4567 C 440.273 -1.91584 -0.394331 0
M  V30 4568 C 440.653 -1.19858 -1.73774 0
M  V30 4569 O 440.001 -0.3252 -2.26174 0
M  V30 4570 C 440.211 -3.4487 -0.535311 0
M  V30 4571 C 441.559 -4.16636 -0.818534 0
M  V30 4572 O 442.583 -3.5076 -0.620146 0
M  V30 4573 O 441.442 -5.33209 -1.19792 0
M  V30 4574 H 438.536 -0.798349 -0.215794 0
M  V30 4575 H 441.082 -1.66646 0.320507 0
M  V30 4576 H 439.854 -3.89145 0.410141 0
M  V30 4577 H 439.477 -3.75759 -1.29964 0
M  V30 4578 N 440.474 -0.00167713 -1.576 0
M  V30 4579 C 441.702 0.693759 -1.94922 0
M  V30 4580 C 442.117 1.67215 -0.876626 0
M  V30 4581 O 441.474 1.81929 0.144279 0
M  V30 4582 C 441.525 1.42416 -3.32265 0
M  V30 4583 O 441.246 0.485014 -4.35407 0
M  V30 4584 C 442.747 2.21395 -3.84056 0
M  V30 4585 H 439.967 0.193118 -0.642609 0
M  V30 4586 H 442.511 -0.0532952 -2.04431 0
M  V30 4587 H 440.666 2.12284 -3.24059 0
M  V30 4588 H 441.08 1.00053 -5.14868 0
M  V30 4589 H 442.554 2.67996 -4.82578 0
M  V30 4590 H 443.031 3.04142 -3.16851 0
M  V30 4591 H 443.637 1.56542 -3.95443 0
M  V30 4592 N 441.952 1.55251 0.271103 0
M  V30 4593 C 443.363 1.66635 0.842007 0
M  V30 4594 C 443.714 0.594631 1.86972 0
M  V30 4595 O 442.839 -0.263532 2.14789 0
M  V30 4596 C 443.434 3.02082 1.53401 0
M  V30 4597 C 441.993 3.15487 2.05293 0
M  V30 4598 C 441.14 2.62438 0.895631 0
M  V30 4599 H 444.091 1.58629 0.0474117 0
M  V30 4600 H 444.112 2.95176 2.40107 0
M  V30 4601 H 443.624 3.80062 0.785786 0
M  V30 4602 H 441.725 2.42284 2.83071 0
M  V30 4603 H 441.838 4.22075 2.26693 0
M  V30 4604 H 440.202 2.19644 1.28953 0
M  V30 4605 H 440.985 3.42923 0.160878 0
M  V30 4606 N 443.43 -0.535701 1.48216 0
M  V30 4607 C 444.378 -1.66179 1.62749 0
M  V30 4608 C 445.372 -1.62034 0.49409 0
M  V30 4609 O 446.578 -1.6696 0.672624 0
M  V30 4610 H 442.953 -0.550244 0.512578 0
M  V30 4611 H 444.924 -1.51063 2.57337 0
M  V30 4612 C 443.673 -3.04471 1.67907 0
M  V30 4613 H 442.996 -3.08351 2.54479 0
M  V30 4614 H 444.436 -3.82894 1.82121 0
M  V30 4615 C 442.895 -3.34314 0.416596 0
M  V30 4616 O 443.425 -3.98905 -0.473014 0
M  V30 4617 N 441.631 -2.89149 0.290038 0
M  V30 4618 H 441.178 -2.36764 1.01493 0
M  V30 4619 H 441.136 -3.09486 -0.55367 0
M  V30 4620 N 444.908 -1.36708 -0.784132 0
M  V30 4621 C 446.133 -1.34565 -1.5782 0
M  V30 4622 C 446.558 0.0695257 -1.87971 0
M  V30 4623 O 445.916 1.04302 -1.48293 0
M  V30 4624 C 445.964 -2.17952 -2.87279 0
M  V30 4625 O 445.068 -1.57563 -3.81114 0
M  V30 4626 H 444.409 -0.460337 -0.478524 0
M  V30 4627 H 446.939 -1.80064 -0.971495 0
M  V30 4628 H 446.949 -2.30721 -3.365 0
M  V30 4629 H 445.624 -3.20823 -2.64661 0
M  V30 4630 H 444.201 -1.53764 -3.39722 0
M  V30 4631 N 446.386 1.0089 -1.21074 0
M  V30 4632 C 447.632 1.74866 -1.02712 0
M  V30 4633 C 447.965 1.89178 0.438787 0
M  V30 4634 O 447.24 1.42325 1.32567 0
M  V30 4635 C 447.523 3.16347 -1.72036 0
M  V30 4636 C 447.376 3.09782 -3.26121 0
M  V30 4637 C 448.695 4.15187 -1.45973 0
M  V30 4638 H 445.814 0.634736 -0.374539 0
M  V30 4639 H 448.456 1.17646 -1.49196 0
M  V30 4640 H 446.606 3.65201 -1.32517 0
M  V30 4641 H 448.278 2.68673 -3.74983 0
M  V30 4642 H 446.521 2.46982 -3.56626 0
M  V30 4643 H 447.192 4.09829 -3.6979 0
M  V30 4644 H 449.668 3.75022 -1.80272 0
M  V30 4645 H 448.544 5.12331 -1.96999 0
M  V30 4646 H 448.805 4.40386 -0.388924 0
M  V30 4647 N 447.864 1.01787 1.20321 0
M  V30 4648 C 449.11 0.718699 1.90279 0
M  V30 4649 C 449.465 -0.743669 1.77447 0
M  V30 4650 O 448.758 -1.53345 1.14874 0
M  V30 4651 C 448.952 1.09076 3.40349 0
M  V30 4652 C 448.781 2.58775 3.67784 0
M  V30 4653 C 447.551 3.25578 3.86428 0
M  V30 4654 C 449.749 3.56966 3.70243 0
M  V30 4655 N 447.731 4.64495 4.01395 0
M  V30 4656 C 449.102 4.8145 3.90649 0
M  V30 4657 C 451.157 3.5092 3.53213 0
M  V30 4658 C 449.86 6.00619 3.95789 0
M  V30 4659 C 451.886 4.69493 3.59625 0
M  V30 4660 C 451.248 5.92786 3.80505 0
M  V30 4661 H 447.347 0.31468 0.715891 0
M  V30 4662 H 449.931 1.30295 1.44677 0
M  V30 4663 H 448.102 0.534839 3.847 0
M  V30 4664 H 449.834 0.744997 3.97784 0
M  V30 4665 H 446.589 2.76003 3.84862 0
M  V30 4666 H 447.013 5.36624 4.12752 0
M  V30 4667 H 451.655 2.56593 3.36035 0
M  V30 4668 H 449.373 6.95326 4.11762 0
M  V30 4669 H 452.959 4.66432 3.47754 0
M  V30 4670 H 451.839 6.83003 3.85327 0
M  V30 4671 N 449.342 -1.36122 0.79427 0
M  V30 4672 C 450.252 -2.33769 0.197296 0
M  V30 4673 C 451.268 -1.61276 -0.653153 0
M  V30 4674 O 452.444 -1.9323 -0.5678 0
M  V30 4675 C 449.509 -3.40474 -0.654098 0
M  V30 4676 C 448.57 -4.28759 0.215411 0
M  V30 4677 C 447.803 -5.30368 -0.595443 0
M  V30 4678 O 448.026 -5.40211 -1.83107 0
M  V30 4679 O 446.96 -6.019 0.00721351 0
M  V30 4680 H 450.786 -2.86597 1.00478 0
M  V30 4681 H 448.371 -1.38676 0.555818 0
M  V30 4682 H 450.253 -4.05703 -1.13944 0
M  V30 4683 H 448.928 -2.89937 -1.43938 0
M  V30 4684 H 447.835 -3.66554 0.747615 0
M  V30 4685 H 449.168 -4.82661 0.964332 0
M  V30 4686 N 450.82 -0.546701 -1.47814 0
M  V30 4687 C 452.231 -0.110564 -1.86372 0
M  V30 4688 C 452.582 1.31678 -1.45449 0
M  V30 4689 O 451.707 1.98889 -0.852758 0
M  V30 4690 C 452.302 -0.193873 -3.38245 0
M  V30 4691 C 450.861 0.187164 -3.75934 0
M  V30 4692 C 450.008 -0.546166 -2.71868 0
M  V30 4693 H 452.959 -0.757022 -1.39481 0
M  V30 4694 H 452.98 0.590218 -3.75895 0
M  V30 4695 H 452.492 -1.23282 -3.67999 0
M  V30 4696 H 450.593 1.22762 -3.51796 0
M  V30 4697 H 450.706 -0.164083 -4.78819 0
M  V30 4698 H 449.07 0.00953904 -2.54698 0
M  V30 4699 H 449.853 -1.58606 -3.04465 0
M  V30 4700 N 452.299 1.55045 -0.282633 0
M  V30 4701 C 453.262 2.21515 0.588539 0
M  V30 4702 C 454.262 1.19535 1.07554 0
M  V30 4703 O 455.452 1.44391 0.974514 0
M  V30 4704 C 452.584 2.88704 1.8128 0
M  V30 4705 H 453.777 2.99899 0.00806397 0
M  V30 4706 H 451.33 1.56265 -0.0333067 0
M  V30 4707 H 452.065 2.14352 2.43359 0
M  V30 4708 H 451.85 3.63443 1.47144 0
M  V30 4709 H 453.34 3.39465 2.43214 0
M  V30 4710 N 453.777 0.010035 1.57597 0
M  V30 4711 C 454.724 -0.978122 2.09049 0
M  V30 4712 C 455.694 -1.33509 0.988159 0
M  V30 4713 O 456.879 -1.43172 1.26121 0
M  V30 4714 C 454.019 -2.26158 2.60666 0
M  V30 4715 C 453.132 -1.96275 3.84838 0
M  V30 4716 C 452.267 -3.18776 4.24918 0
M  V30 4717 C 451.306 -2.84625 5.41899 0
M  V30 4718 N 450.443 -3.99693 5.77226 0
M  V30 4719 H 455.283 -0.532431 2.93205 0
M  V30 4720 H 452.82 -0.251234 1.44939 0
M  V30 4721 H 454.778 -3.01202 2.88675 0
M  V30 4722 H 453.408 -2.68378 1.79369 0
M  V30 4723 H 452.46 -1.11555 3.63675 0
M  V30 4724 H 453.772 -1.67111 4.69974 0
M  V30 4725 H 452.926 -4.02157 4.54262 0
M  V30 4726 H 451.665 -3.51087 3.38511 0
M  V30 4727 H 450.67 -1.99653 5.12268 0
M  V30 4728 H 451.895 -2.53551 6.29991 0
M  V30 4729 H 449.841 -4.31882 4.93776 0
M  V30 4730 H 449.758 -3.74087 6.56959 0
M  V30 4731 H 451.026 -4.83834 6.11167 0
M  V30 4732 N 455.255 -1.55392 -0.262866 0
M  V30 4733 C 456.218 -1.88181 -1.30846 0
M  V30 4734 C 457.218 -0.757079 -1.41862 0
M  V30 4735 O 458.408 -1.02519 -1.40838 0
M  V30 4736 C 455.54 -2.09609 -2.68844 0
M  V30 4737 H 456.733 -2.81659 -1.02997 0
M  V30 4738 H 454.286 -1.48039 -0.501414 0
M  V30 4739 H 455.021 -1.18547 -3.01856 0
M  V30 4740 H 454.806 -2.91508 -2.62231 0
M  V30 4741 H 456.296 -2.36215 -3.44372 0
M  V30 4742 N 456.733 0.527833 -1.48498 0
M  V30 4743 C 457.68 1.6322 -1.6318 0
M  V30 4744 C 458.65 1.59199 -0.473815 0
M  V30 4745 O 459.835 1.77591 -0.697563 0
M  V30 4746 C 456.975 3.01474 -1.67951 0
M  V30 4747 C 456.088 3.15713 -2.94871 0
M  V30 4748 C 455.223 4.44539 -2.90789 0
M  V30 4749 C 454.262 4.52315 -4.12404 0
M  V30 4750 N 453.399 5.72533 -4.06387 0
M  V30 4751 H 458.239 1.50011 -2.57489 0
M  V30 4752 H 455.776 0.730298 -1.27691 0
M  V30 4753 H 457.734 3.81572 -1.68698 0
M  V30 4754 H 456.364 3.1345 -0.771306 0
M  V30 4755 H 455.416 2.28854 -3.03859 0
M  V30 4756 H 456.728 3.1732 -3.8485 0
M  V30 4757 H 455.882 5.3293 -2.89949 0
M  V30 4758 H 454.621 4.45457 -1.98542 0
M  V30 4759 H 453.626 3.62331 -4.13517 0
M  V30 4760 H 454.851 4.53134 -5.05812 0
M  V30 4761 H 452.797 5.74344 -3.16962 0
M  V30 4762 H 452.714 5.75643 -4.90073 0
M  V30 4763 H 453.982 6.63204 -4.0961 0
M  V30 4764 N 458.211 1.37122 0.776871 0
M  V30 4765 C 459.441 1.35034 1.56363 0
M  V30 4766 C 459.849 -0.0674681 1.8908 0
M  V30 4767 O 459.192 -1.03826 1.51545 0
M  V30 4768 C 459.254 2.11894 2.90415 0
M  V30 4769 C 458.918 3.60897 2.80362 0
M  V30 4770 C 459.915 4.54887 2.51742 0
M  V30 4771 C 457.6 4.03951 2.98545 0
M  V30 4772 C 459.594 5.89909 2.41426 0
M  V30 4773 C 457.281 5.3906 2.87849 0
M  V30 4774 C 458.279 6.31852 2.5933 0
M  V30 4775 O 457.967 7.64479 2.48651 0
M  V30 4776 H 457.699 0.464402 0.49123 0
M  V30 4777 H 460.253 1.80992 0.971127 0
M  V30 4778 H 458.483 1.60618 3.51765 0
M  V30 4779 H 460.172 2.02505 3.51776 0
M  V30 4780 H 460.938 4.22934 2.37385 0
M  V30 4781 H 456.817 3.3209 3.19746 0
M  V30 4782 H 460.361 6.62304 2.19086 0
M  V30 4783 H 456.258 5.70617 3.01773 0
M  V30 4784 H 457.026 7.74742 2.64039 0
M  V30 4785 N 459.689 -1.00246 1.21608 0
M  V30 4786 C 460.935 -1.74319 1.03638 0
M  V30 4787 C 461.268 -1.89408 -0.428749 0
M  V30 4788 O 460.543 -1.43026 -1.3181 0
M  V30 4789 C 460.826 -3.15431 1.73711 0
M  V30 4790 C 460.679 -3.08049 3.27759 0
M  V30 4791 C 461.998 -4.14407 1.48173 0
M  V30 4792 H 459.117 -0.632741 0.377899 0
M  V30 4793 H 461.759 -1.16853 1.49818 0
M  V30 4794 H 459.909 -3.64493 1.34452 0
M  V30 4795 H 461.581 -2.66681 3.76403 0
M  V30 4796 H 459.824 -2.45088 3.57931 0
M  V30 4797 H 460.495 -4.07862 3.71958 0
M  V30 4798 H 462.971 -3.74061 1.82258 0
M  V30 4799 H 461.847 -5.11279 1.99713 0
M  V30 4800 H 462.108 -4.40174 0.412273 0
M  V30 4801 N 461.167 -1.02423 -1.1978 0
M  V30 4802 C 462.414 -0.717988 -1.89344 0
M  V30 4803 C 462.742 0.753036 -1.79331 0
M  V30 4804 O 461.997 1.56355 -1.17692 0
M  V30 4805 C 462.296 -1.1088 -3.39765 0
M  V30 4806 C 461.962 -2.57731 -3.6998 0
M  V30 4807 C 460.624 -2.97854 -3.77937 0
M  V30 4808 C 462.976 -3.52763 -3.83677 0
M  V30 4809 C 460.304 -4.31931 -3.97054 0
M  V30 4810 C 462.656 -4.86538 -4.04306 0
M  V30 4811 C 461.32 -5.26356 -4.10494 0
M  V30 4812 H 460.59 -0.26273 -0.692859 0
M  V30 4813 H 463.237 -1.28623 -1.41875 0
M  V30 4814 H 461.542 -0.459094 -3.89101 0
M  V30 4815 H 463.239 -0.849432 -3.919 0
M  V30 4816 H 459.829 -2.25646 -3.64393 0
M  V30 4817 H 464.013 -3.2292 -3.76877 0
M  V30 4818 H 459.269 -4.62324 -4.00083 0
M  V30 4819 H 463.443 -5.60093 -4.13846 0
M  V30 4820 H 461.07 -6.3026 -4.2506 0
M  V30 4821 N 462.645 1.35699 -0.801477 0
M  V30 4822 C 464.061 1.52065 -0.484596 0
M  V30 4823 C 464.261 1.75215 0.995084 0
M  V30 4824 O 463.317 1.79061 1.78026 0
M  V30 4825 C 464.63 2.69908 -1.32552 0
M  V30 4826 C 466.178 2.83784 -1.32044 0
M  V30 4827 C 466.653 4.04646 -2.14536 0
M  V30 4828 N 468.144 4.11814 -2.12046 0
M  V30 4829 C 468.879 5.04437 -2.72636 0
M  V30 4830 N 468.375 6.02426 -3.42133 0
M  V30 4831 N 470.168 4.97144 -2.62305 0
M  V30 4832 H 462.319 1.18928 -1.75983 0
M  V30 4833 H 464.582 0.581455 -0.748741 0
M  V30 4834 H 464.288 2.59363 -2.37537 0
M  V30 4835 H 464.162 3.64376 -0.975181 0
M  V30 4836 H 466.549 2.93783 -0.27846 0
M  V30 4837 H 466.63 1.90188 -1.71062 0
M  V30 4838 H 466.274 3.95407 -3.18772 0
M  V30 4839 H 466.204 4.97413 -1.72882 0
M  V30 4840 H 468.695 3.41664 -1.61476 0
M  V30 4841 H 469.008 6.69688 -3.85666 0
M  V30 4842 H 467.353 6.02615 -3.46237 0
M  V30 4843 H 470.544 4.19546 -2.07603 0
M  V30 4844 H 470.717 5.69138 -3.09815 0
M  V30 4845 N 464.123 0.554532 1.47522 0
M  V30 4846 C 465.4 -0.0360704 1.95567 0
M  V30 4847 C 465.78 -1.48828 1.49711 0
M  V30 4848 O 465.128 -2.16366 0.734717 0
M  V30 4849 C 465.338 0.106631 3.48837 0
M  V30 4850 C 466.686 -0.0400899 4.24581 0
M  V30 4851 O 467.71 0.0340453 3.56184 0
M  V30 4852 O 466.569 -0.199111 5.46137 0
M  V30 4853 H 463.663 -0.0656294 0.824392 0
M  V30 4854 H 466.209 0.620867 1.57935 0
M  V30 4855 H 464.981 1.11727 3.7501 0
M  V30 4856 H 464.604 -0.58804 3.93227 0
M  V30 4857 N 465.601 -1.54893 0.290851 0
M  V30 4858 C 466.847 -2.0023 -0.321867 0
M  V30 4859 C 467.18 -1.179 -1.54316 0
M  V30 4860 O 466.455 -0.25293 -1.92848 0
M  V30 4861 C 466.738 -3.53456 -0.688515 0
M  V30 4862 C 466.591 -4.46532 0.541209 0
M  V30 4863 C 467.91 -4.13057 -1.51895 0
M  V30 4864 H 465.029 -0.727891 -0.115515 0
M  V30 4865 H 467.671 -1.85722 0.400931 0
M  V30 4866 H 465.821 -3.6595 -1.30433 0
M  V30 4867 H 467.493 -4.4596 1.17973 0
M  V30 4868 H 465.736 -4.17545 1.17636 0
M  V30 4869 H 466.407 -5.51475 0.240675 0
M  V30 4870 H 468.883 -4.03937 -0.99872 0
M  V30 4871 H 467.759 -5.20448 -1.74429 0
M  V30 4872 H 468.02 -3.64284 -2.50498 0
M  V30 4873 N 467.08 -0.0183926 -1.57589 0
M  V30 4874 C 468.326 0.663543 -1.91638 0
M  V30 4875 C 468.659 1.72392 -0.894134 0
M  V30 4876 O 467.934 1.94316 0.0846449 0
M  V30 4877 C 468.217 1.28984 -3.36207 0
M  V30 4878 C 468.07 0.239761 -4.49161 0
M  V30 4879 C 469.389 2.2109 -3.80536 0
M  V30 4880 H 466.508 0.239746 -0.696915 0
M  V30 4881 H 469.15 -0.073456 -1.89858 0
M  V30 4882 H 467.3 1.91799 -3.37854 0
M  V30 4883 H 468.972 -0.390119 -4.59647 0
M  V30 4884 H 467.215 -0.435972 -4.31604 0
M  V30 4885 H 467.886 0.717383 -5.47319 0
M  V30 4886 H 470.362 1.68273 -3.80557 0
M  V30 4887 H 469.238 2.61869 -4.82406 0
M  V30 4888 H 469.499 3.09764 -3.15434 0
M  V30 4889 N 468.558 1.5553 0.254621 0
M  V30 4890 C 469.49 1.86104 1.33783 0
M  V30 4891 C 470.503 0.746752 1.44663 0
M  V30 4892 O 471.692 1.0248 1.46151 0
M  V30 4893 C 468.792 2.02532 2.71724 0
M  V30 4894 C 467.965 3.33335 2.83208 0
M  V30 4895 C 467.024 3.396 4.01943 0
M  V30 4896 O 466.05 4.12862 3.91834 0
M  V30 4897 N 467.252 2.68332 5.1476 0
M  V30 4898 H 470.017 2.79605 1.07893 0
M  V30 4899 H 467.578 1.55672 0.444732 0
M  V30 4900 H 469.57 2.04074 3.4948 0
M  V30 4901 H 468.14 1.15811 2.90356 0
M  V30 4902 H 467.36 3.44176 1.92189 0
M  V30 4903 H 468.648 4.19565 2.87824 0
M  V30 4904 H 468.046 2.08528 5.25864 0
M  V30 4905 H 466.603 2.75575 5.90679 0
M  V30 4906 N 470.036 -0.519951 1.48776 0
M  V30 4907 C 471.285 -1.27175 1.56555 0
M  V30 4908 C 471.598 -1.9401 0.248869 0
M  V30 4909 O 472.804 -2.70725 0.205004 0
M  V30 4910 C 471.26 -2.30811 2.76142 0
M  V30 4911 C 470.868 -1.7 4.14493 0
M  V30 4912 C 472.612 -3.06937 2.9324 0
M  V30 4913 C 470.519 -2.71635 5.25327 0
M  V30 4914 H 469.449 -0.478329 0.582853 0
M  V30 4915 H 472.1 -0.547916 1.75129 0
M  V30 4916 H 470.482 -3.06274 2.51023 0
M  V30 4917 H 471.656 -1.00658 4.49672 0
M  V30 4918 H 469.971 -1.06331 4.02595 0
M  V30 4919 H 472.568 -3.82905 3.73213 0
M  V30 4920 H 472.911 -3.63409 2.03075 0
M  V30 4921 H 473.444 -2.38589 3.18308 0
M  V30 4922 H 470.183 -2.1997 6.1749 0
M  V30 4923 H 469.703 -3.39275 4.94624 0
M  V30 4924 H 471.382 -3.34429 5.53865 0
M  V30 4925 N 471.514 -1.37532 -0.769588 0
M  V30 4926 C 472.742 -1.36059 -1.55871 0
M  V30 4927 C 473.157 0.053544 -1.88724 0
M  V30 4928 O 472.514 1.01591 -1.5161 0
M  V30 4929 C 472.565 -2.20107 -2.86767 0
M  V30 4930 O 472.286 -3.56009 -2.55321 0
M  V30 4931 C 473.787 -2.26636 -3.80987 0
M  V30 4932 H 471.007 -0.465967 -0.482821 0
M  V30 4933 H 473.551 -1.80901 -0.953686 0
M  V30 4934 H 471.706 -1.78768 -3.43687 0
M  V30 4935 H 472.12 -4.0009 -3.39158 0
M  V30 4936 H 473.594 -2.89763 -4.69831 0
M  V30 4937 H 474.071 -1.2754 -4.20274 0
M  V30 4938 H 474.677 -2.68296 -3.29996 0
M  V30 4939 N 472.992 0.995999 -1.22138 0
M  V30 4940 C 474.232 1.75032 -1.05561 0
M  V30 4941 C 474.596 1.87729 0.402698 0
M  V30 4942 O 475.797 2.59813 0.689234 0
M  V30 4943 C 474.068 3.11973 -1.74379 0
M  V30 4944 S 475.627 4.03182 -1.73175 0
M  V30 4945 H 472.445 0.602137 -0.37809 0
M  V30 4946 H 475.047 1.19107 -1.55028 0
M  V30 4947 H 473.751 3.00371 -2.79652 0
M  V30 4948 H 473.282 3.7297 -1.25128 0
M  V30 4949 H 475.297 4.90043 -0.77923 0
M  V30 4950 N 474.47 1.03057 1.19235 0
M  V30 4951 C 475.4 0.633497 2.24742 0
M  V30 4952 C 476.381 -0.358335 1.66283 0
M  V30 4953 O 477.566 -0.240676 1.92703 0
M  V30 4954 C 474.696 -0.0147648 3.47297 0
M  V30 4955 C 473.65 0.899527 4.18441 0
M  V30 4956 C 472.976 0.116281 5.34574 0
M  V30 4957 C 474.276 2.21404 4.73051 0
M  V30 4958 H 475.97 1.5155 2.58211 0
M  V30 4959 H 473.516 0.73014 1.24117 0
M  V30 4960 H 475.469 -0.304202 4.20301 0
M  V30 4961 H 474.193 -0.931577 3.13032 0
M  V30 4962 H 472.852 1.17319 3.47321 0
M  V30 4963 H 472.5 -0.802619 4.96555 0
M  V30 4964 H 472.2 0.725293 5.83107 0
M  V30 4965 H 473.724 -0.166376 6.10373 0
M  V30 4966 H 475.138 1.98601 5.37802 0
M  V30 4967 H 473.535 2.77512 5.32078 0
M  V30 4968 H 474.605 2.86752 3.91026 0
M  V30 4969 N 475.948 -1.35272 0.808662 0
M  V30 4970 C 477.225 -1.93077 0.313181 0
M  V30 4971 C 477.605 -1.73847 -1.19752 0
M  V30 4972 O 476.953 -1.1087 -1.998 0
M  V30 4973 C 477.163 -3.41347 0.726859 0
M  V30 4974 C 478.511 -4.18493 0.717532 0
M  V30 4975 O 479.535 -3.4987 0.668535 0
M  V30 4976 O 478.394 -5.40937 0.777779 0
M  V30 4977 H 475.488 -0.822885 0.0824018 0
M  V30 4978 H 478.034 -1.44335 0.892499 0
M  V30 4979 H 476.806 -3.49082 1.76797 0
M  V30 4980 H 476.429 -3.97411 0.122461 0
M  V30 4981 N 477.426 -0.562348 -1.47226 0
M  V30 4982 C 478.674 -0.0401371 -2.0206 0
M  V30 4983 C 478.995 1.3165 -1.43852 0
M  V30 4984 O 478.265 1.85976 -0.615599 0
M  V30 4985 H 476.845 -0.0118479 -0.746906 0
M  V30 4986 H 479.507 -0.73352 -1.8057 0
M  V30 4987 H 478.603 0.0441254 -3.12069 0
M  V30 4988 N 478.904 1.54736 -0.299062 0
M  V30 4989 C 480.151 2.00101 0.310784 0
M  V30 4990 C 480.479 1.18746 1.54045 0
M  V30 4991 O 479.734 0.251198 1.94081 0
M  V30 4992 C 480.033 3.50199 0.713835 0
M  V30 4993 C 479.699 4.48997 -0.413873 0
M  V30 4994 C 478.361 4.7573 -0.723462 0
M  V30 4995 C 480.713 5.07839 -1.17257 0
M  V30 4996 C 478.041 5.5857 -1.79491 0
M  V30 4997 C 480.393 5.91844 -2.23392 0
M  V30 4998 C 479.057 6.16889 -2.54959 0
M  V30 4999 H 478.327 0.732221 0.113724 0
M  V30 5000 H 480.974 1.86888 -0.417756 0
M  V30 5001 H 479.279 3.61012 1.52243 0
M  V30 5002 H 480.976 3.82723 1.19684 0
M  V30 5003 H 477.566 4.28292 -0.162476 0
M  V30 5004 H 481.75 4.87188 -0.946651 0
M  V30 5005 H 477.006 5.76213 -2.04423 0
M  V30 5006 H 481.18 6.36465 -2.8264 0
M  V30 5007 H 478.807 6.80869 -3.38114 0
M  V30 5008 N 480.382 0.0267497 1.57577 0
M  V30 5009 C 481.292 -0.971633 2.13533 0
M  V30 5010 C 482.308 -1.35868 1.08701 0
M  V30 5011 O 483.484 -1.44058 1.40746 0
M  V30 5012 C 480.549 -2.23622 2.64941 0
M  V30 5013 C 479.61 -1.90982 3.8448 0
M  V30 5014 C 478.843 -3.11411 4.33427 0
M  V30 5015 O 479.066 -4.23992 3.81558 0
M  V30 5016 O 478 -2.93848 5.25297 0
M  V30 5017 H 481.826 -0.525853 2.99113 0
M  V30 5018 H 479.411 -0.193712 1.48139 0
M  V30 5019 H 481.293 -2.97864 2.98086 0
M  V30 5020 H 479.968 -2.67386 1.82446 0
M  V30 5021 H 478.875 -1.14132 3.56265 0
M  V30 5022 H 480.208 -1.52036 4.6813 0
M  V30 5023 N 481.861 -1.55662 -0.24637 0
M  V30 5024 C 483.107 -1.77782 -0.975779 0
M  V30 5025 C 483.44 -0.592103 -1.84953 0
M  V30 5026 O 482.715 0.409588 -1.90138 0
M  V30 5027 C 482.998 -3.09788 -1.83584 0
M  V30 5028 C 482.851 -4.38764 -0.990241 0
M  V30 5029 C 484.17 -3.38029 -2.81823 0
M  V30 5030 H 481.289 -0.646789 -0.353317 0
M  V30 5031 H 483.931 -1.88398 -0.246248 0
M  V30 5032 H 482.081 -3.00869 -2.45784 0
M  V30 5033 H 483.753 -4.59675 -0.386897 0
M  V30 5034 H 481.996 -4.32798 -0.294626 0
M  V30 5035 H 482.667 -5.27514 -1.62584 0
M  V30 5036 H 485.143 -3.46915 -2.2976 0
M  V30 5037 H 484.019 -4.3161 -3.39122 0
M  V30 5038 H 484.28 -2.58968 -3.58313 0
M  V30 5039 N 483.339 0.512053 -1.4905 0
M  V30 5040 C 484.585 1.26874 -1.58212 0
M  V30 5041 C 484.918 1.9241 -0.263073 0
M  V30 5042 O 484.193 1.80181 0.732476 0
M  V30 5043 C 484.476 2.34428 -2.73341 0
M  V30 5044 C 484.329 1.73466 -4.15006 0
M  V30 5045 C 485.648 3.36073 -2.84154 0
M  V30 5046 H 482.767 0.459924 -0.575881 0
M  V30 5047 H 485.409 0.568587 -1.81293 0
M  V30 5048 H 483.559 2.94146 -2.53792 0
M  V30 5049 H 485.231 1.17661 -4.46042 0
M  V30 5050 H 483.474 1.03921 -4.21168 0
M  V30 5051 H 484.145 2.51426 -4.91415 0
M  V30 5052 H 486.621 2.86332 -3.01916 0
M  V30 5053 H 485.497 4.08703 -3.66406 0
M  V30 5054 H 485.758 3.97725 -1.93048 0
M  V30 5055 N 484.817 1.37938 0.762283 0
M  V30 5056 C 485.727 1.36681 1.90671 0
M  V30 5057 C 486.743 0.265078 1.71969 0
M  V30 5058 O 487.919 0.502055 1.95042 0
M  V30 5059 C 484.984 1.18211 3.25925 0
M  V30 5060 C 484.045 2.3811 3.57214 0
M  V30 5061 C 483.278 2.20512 4.86014 0
M  V30 5062 O 483.501 1.19429 5.57757 0
M  V30 5063 O 482.435 3.08911 5.16583 0
M  V30 5064 H 486.261 2.33091 1.94685 0
M  V30 5065 H 483.846 1.18767 0.906356 0
M  V30 5066 H 485.728 1.09937 4.06807 0
M  V30 5067 H 484.403 0.248807 3.22742 0
M  V30 5068 H 483.31 2.51958 2.76529 0
M  V30 5069 H 484.643 3.30041 3.65149 0
M  V30 5070 N 486.295 -0.989507 1.22664 0
M  V30 5071 C 487.543 -1.72612 1.05117 0
M  V30 5072 C 487.864 -1.90552 -0.414131 0
M  V30 5073 O 487.134 -1.4676 -1.29762 0
M  V30 5074 H 485.714 -0.639555 0.385977 0
M  V30 5075 H 488.376 -1.19158 1.54232 0
M  V30 5076 H 487.472 -2.71926 1.53175 0
M  V30 5077 N 487.773 -1.03688 -1.18687 0
M  V30 5078 C 489.189 -0.755413 -1.4059 0
M  V30 5079 C 489.389 0.656659 -1.905 0
M  V30 5080 O 488.445 1.42144 -2.08689 0
M  V30 5081 C 489.758 -1.7983 -2.41001 0
M  V30 5082 C 491.306 -1.81877 -2.54735 0
M  V30 5083 C 491.781 -2.85148 -3.58406 0
M  V30 5084 N 493.272 -2.84015 -3.6591 0
M  V30 5085 C 494.007 -3.60573 -4.45841 0
M  V30 5086 N 493.503 -4.46871 -5.29413 0
M  V30 5087 N 495.296 -3.49079 -4.40568 0
M  V30 5088 H 487.447 -1.94818 -0.846148 0
M  V30 5089 H 489.71 -0.842727 -0.434184 0
M  V30 5090 H 489.416 -2.81097 -2.1137 0
M  V30 5091 H 489.29 -1.62727 -3.40294 0
M  V30 5092 H 491.677 -0.812836 -2.83685 0
M  V30 5093 H 491.758 -2.03057 -1.55568 0
M  V30 5094 H 491.402 -3.85918 -3.30197 0
M  V30 5095 H 491.332 -2.61224 -4.57241 0
M  V30 5096 H 493.823 -2.21431 -3.0623 0
M  V30 5097 H 494.136 -5.02007 -5.87545 0
M  V30 5098 H 492.481 -4.5094 -5.28846 0
M  V30 5099 H 495.672 -2.81066 -3.74325 0
M  V30 5100 H 495.845 -4.08994 -5.02621 0
M  V30 5101 N 489.251 1.34841 -0.815825 0
M  V30 5102 C 490.497 1.98793 -0.401129 0
M  V30 5103 C 490.83 1.64548 1.03139 0
M  V30 5104 O 490.105 0.913487 1.71714 0
M  V30 5105 C 490.388 3.55143 -0.595409 0
M  V30 5106 C 490.241 3.99155 -2.07352 0
M  V30 5107 C 491.56 4.40092 -0.0268823 0
M  V30 5108 H 488.679 0.722146 -0.14722 0
M  V30 5109 H 491.321 1.59847 -1.02707 0
M  V30 5110 H 489.471 3.8845 -0.0625779 0
M  V30 5111 H 491.143 3.76216 -2.66945 0
M  V30 5112 H 489.386 3.49726 -2.56659 0
M  V30 5113 H 490.057 5.07971 -2.1603 0
M  V30 5114 H 492.533 4.13298 -0.482042 0
M  V30 5115 H 491.409 5.48562 -0.19267 0
M  V30 5116 H 491.67 4.29016 1.06759 0
M  V30 5117 N 490.729 0.570148 1.46925 0
M  V30 5118 C 491.977 0.0508523 2.02036 0
M  V30 5119 C 492.298 -1.30885 1.44548 0
M  V30 5120 O 491.568 -1.85647 0.625453 0
M  V30 5121 H 490.148 0.0158088 0.746833 0
M  V30 5122 H 492.81 0.743086 1.80178 0
M  V30 5123 H 491.906 -0.027575 3.12088 0
M  V30 5124 N 492.207 -1.54576 0.307264 0
M  V30 5125 C 493.17 -2.22423 -0.553224 0
M  V30 5126 C 494.17 -1.21231 -1.05639 0
M  V30 5127 O 495.36 -1.45923 -0.951419 0
M  V30 5128 C 492.492 -2.91552 -1.76664 0
M  V30 5129 H 493.685 -2.99874 0.0396484 0
M  V30 5130 H 491.238 -1.56192 0.0581629 0
M  V30 5131 H 491.973 -2.18196 -2.39918 0
M  V30 5132 H 491.758 -3.65738 -1.41343 0
M  V30 5133 H 493.248 -3.43292 -2.37783 0
M  V30 5134 N 493.685 -0.035106 -1.57561 0
M  V30 5135 C 494.913 0.652258 -1.9635 0
M  V30 5136 C 495.328 1.65317 -0.911897 0
M  V30 5137 O 494.685 1.82194 0.105657 0
M  V30 5138 C 494.736 1.35337 -3.35211 0
M  V30 5139 O 494.457 0.392548 -4.36338 0
M  V30 5140 C 495.958 2.13199 -3.88666 0
M  V30 5141 H 493.178 0.179444 -0.646561 0
M  V30 5142 H 495.722 -0.0966459 -2.04271 0
M  V30 5143 H 493.877 2.05362 -3.28489 0
M  V30 5144 H 494.291 0.891097 -5.16875 0
M  V30 5145 H 495.765 2.577 -4.88154 0
M  V30 5146 H 496.242 2.97353 -3.23231 0
M  V30 5147 H 496.848 1.48118 -3.98674 0
M  V30 5148 N 495.163 1.55791 0.238111 0
M  V30 5149 C 496.388 1.8244 0.986432 0
M  V30 5150 C 496.813 0.613314 1.7782 0
M  V30 5151 O 496.171 -0.437767 1.75935 0
M  V30 5152 C 496.219 3.06917 1.893 0
M  V30 5153 O 495.323 2.84449 2.98601 0
M  V30 5154 H 494.664 0.601975 0.280218 0
M  V30 5155 H 497.194 2.02987 0.256437 0
M  V30 5156 H 497.204 3.36583 2.30598 0
M  V30 5157 H 495.879 3.947 1.31091 0
M  V30 5158 H 494.456 2.65972 2.61368 0
M  V30 5159 N 496.642 -0.504142 1.49319 0
M  V30 5160 C 497.889 -1.25846 1.58647 0
M  V30 5161 C 498.217 -1.92592 0.27177 0
M  V30 5162 O 497.472 -1.81167 -0.74007 0
M  V30 5163 C 497.771 -2.35021 2.69258 0
M  V30 5164 C 497.437 -1.85755 4.1086 0
M  V30 5165 C 496.099 -1.72038 4.49395 0
M  V30 5166 C 498.451 -1.48844 4.99495 0
M  V30 5167 C 495.779 -1.19783 5.74342 0
M  V30 5168 C 498.131 -0.980422 6.24956 0
M  V30 5169 C 496.795 -0.829622 6.62324 0
M  V30 5170 H 496.065 -0.460505 0.580531 0
M  V30 5171 H 498.712 -0.559716 1.83138 0
M  V30 5172 H 497.017 -3.10672 2.38726 0
M  V30 5173 H 498.714 -2.93083 2.73685 0
M  V30 5174 H 495.304 -1.9739 3.80441 0
M  V30 5175 H 499.488 -1.5829 4.70381 0
M  V30 5176 H 494.744 -1.06817 6.01997 0
M  V30 5177 H 498.918 -0.685608 6.93017 0
M  V30 5178 H 496.545 -0.42253 7.59025 0
M  V30 5179 N 498.12 -1.38341 -0.754957 0
M  V30 5180 C 499.35 -1.37504 -1.54195 0
M  V30 5181 C 499.758 0.0373787 -1.89163 0
M  V30 5182 O 499.101 1.01402 -1.53178 0
M  V30 5183 C 499.163 -2.16488 -2.87008 0
M  V30 5184 C 498.827 -3.65311 -2.74585 0
M  V30 5185 C 499.824 -4.58834 -2.44474 0
M  V30 5186 C 497.509 -4.08649 -2.9208 0
M  V30 5187 C 499.503 -5.93675 -2.32011 0
M  V30 5188 C 497.19 -5.43571 -2.79237 0
M  V30 5189 C 498.188 -6.35898 -2.49245 0
M  V30 5190 O 497.876 -7.68338 -2.36458 0
M  V30 5191 H 497.608 -0.472159 -0.483779 0
M  V30 5192 H 500.162 -1.82515 -0.94221 0
M  V30 5193 H 498.392 -1.66194 -3.49166 0
M  V30 5194 H 500.081 -2.08076 -3.4851 0
M  V30 5195 H 500.847 -4.26657 -2.30627 0
M  V30 5196 H 496.726 -3.37134 -3.14422 0
M  V30 5197 H 500.27 -6.65706 -2.08522 0
M  V30 5198 H 496.167 -5.75345 -2.92657 0
M  V30 5199 H 496.935 -7.78845 -2.5168 0
M  V30 5200 N 499.598 0.982988 -1.23187 0
M  V30 5201 C 500.823 1.76455 -1.08988 0
M  V30 5202 C 501.248 1.84726 0.354691 0
M  V30 5203 O 500.606 1.30699 1.25649 0
M  V30 5204 C 500.654 3.17094 -1.71708 0
M  V30 5205 O 499.758 4.00648 -0.977477 0
M  V30 5206 H 499.099 0.542988 -0.382177 0
M  V30 5207 H 501.629 1.23413 -1.63188 0
M  V30 5208 H 501.639 3.67684 -1.76841 0
M  V30 5209 H 500.314 3.10389 -2.76823 0
M  V30 5210 H 498.891 3.59161 -1.0029 0
M  V30 5211 N 501.076 1.04316 1.18135 0
M  V30 5212 C 502.304 0.768117 1.92113 0
M  V30 5213 C 502.719 -0.675057 1.76319 0
M  V30 5214 O 502.076 -1.46038 1.09449 0
M  V30 5215 C 502.127 1.12808 3.43448 0
M  V30 5216 O 501.848 2.5146 3.58747 0
M  V30 5217 C 503.349 0.8779 4.3452 0
M  V30 5218 H 500.569 0.279937 0.609817 0
M  V30 5219 H 503.113 1.39149 1.49859 0
M  V30 5220 H 501.268 0.549623 3.83481 0
M  V30 5221 H 501.682 2.65313 4.52448 0
M  V30 5222 H 503.156 1.17959 5.39249 0
M  V30 5223 H 503.633 -0.187239 4.38801 0
M  V30 5224 H 504.239 1.43977 4.00188 0
M  V30 5225 N 502.554 -1.34406 0.822964 0
M  V30 5226 C 503.794 -2.00103 0.416915 0
M  V30 5227 C 504.158 -1.63826 -1.00125 0
M  V30 5228 O 505.359 -2.22367 -1.51018 0
M  V30 5229 C 503.63 -3.52101 0.613151 0
M  V30 5230 S 505.189 -4.37774 0.299956 0
M  V30 5231 H 502.007 -0.69333 0.157527 0
M  V30 5232 H 504.609 -1.63698 1.06879 0
M  V30 5233 H 503.313 -3.75991 1.64496 0
M  V30 5234 H 502.844 -3.93364 -0.0534554 0
M  V30 5235 H 504.859 -4.8822 -0.886336 0
M  V30 5236 N 504.032 -0.577932 -1.46621 0
M  V30 5237 C 504.964 0.195801 -2.28362 0
M  V30 5238 C 505.977 0.859983 -1.38232 0
M  V30 5239 O 507.166 0.730349 -1.62875 0
M  V30 5240 C 504.266 1.29639 -3.13124 0
M  V30 5241 C 503.439 0.725049 -4.31349 0
M  V30 5242 C 502.498 1.71274 -4.97546 0
M  V30 5243 O 501.524 1.25067 -5.5529 0
M  V30 5244 N 502.726 3.04672 -4.94121 0
M  V30 5245 H 505.491 -0.505468 -2.95407 0
M  V30 5246 H 503.052 -0.415381 -1.56481 0
M  V30 5247 H 505.044 1.95631 -3.54275 0
M  V30 5248 H 503.614 1.90059 -2.48186 0
M  V30 5249 H 502.834 -0.112205 -3.9404 0
M  V30 5250 H 504.122 0.323034 -5.07774 0
M  V30 5251 H 503.52 3.4484 -4.48444 0
M  V30 5252 H 502.077 3.66166 -5.39227 0
M  V30 5253 N 505.51 1.54411 -0.315457 0
M  V30 5254 C 506.735 2.05299 0.294496 0
M  V30 5255 C 507.16 1.19052 1.4563 0
M  V30 5256 O 506.518 0.197804 1.80218 0
M  V30 5257 C 506.566 3.5345 0.714549 0
M  V30 5258 O 505.67 3.70175 1.81781 0
M  V30 5259 H 505.011 0.661743 0.0547019 0
M  V30 5260 H 507.541 1.99327 -0.461508 0
M  V30 5261 H 507.551 3.9557 0.999426 0
M  V30 5262 H 506.226 4.1568 -0.135244 0
M  V30 5263 H 504.803 3.3996 1.53236 0
M  V30 5264 N 506.988 0.0434614 1.5754 0
M  V30 5265 C 507.936 -0.951465 2.1225 0
M  V30 5266 C 508.93 -1.3274 1.05245 0
M  V30 5267 O 510.136 -1.30795 1.23663 0
M  V30 5268 H 506.511 -0.324667 0.678303 0
M  V30 5269 H 508.482 -0.464855 2.94757 0
M  V30 5270 C 507.231 -2.21972 2.67626 0
M  V30 5271 H 506.554 -1.93923 3.4962 0
M  V30 5272 H 507.994 -2.89765 3.09536 0
M  V30 5273 C 506.453 -2.95919 1.61038 0
M  V30 5274 O 506.983 -3.8857 1.01862 0
M  V30 5275 N 505.189 -2.58511 1.32741 0
M  V30 5276 H 504.736 -1.83244 1.81051 0
M  V30 5277 H 504.694 -3.08296 0.616531 0
M  V30 5278 N 508.466 -1.55915 -0.229846 0
M  V30 5279 C 509.714 -1.7819 -0.953565 0
M  V30 5280 C 510.035 -0.610504 -1.85197 0
M  V30 5281 O 509.305 0.372988 -1.92316 0
M  V30 5282 H 507.885 -0.657208 -0.355087 0
M  V30 5283 H 510.547 -1.9337 -0.243693 0
M  V30 5284 H 509.643 -2.70011 -1.56527 0
M  V30 5285 N 509.944 0.496216 -1.49584 0
M  V30 5286 C 510.891 1.59722 -1.66606 0
M  V30 5287 C 511.861 1.58158 -0.507477 0
M  V30 5288 O 513.046 1.76072 -0.735076 0
M  V30 5289 C 510.186 2.97844 -1.74308 0
M  V30 5290 C 509.299 3.09388 -3.01502 0
M  V30 5291 C 508.434 4.38271 -3.00153 0
M  V30 5292 C 507.473 4.43466 -4.21906 0
M  V30 5293 N 506.61 5.63784 -4.1844 0
M  V30 5294 H 511.45 1.44515 -2.60613 0
M  V30 5295 H 508.987 0.703048 -1.29212 0
M  V30 5296 H 510.945 3.77907 -1.76754 0
M  V30 5297 H 509.575 3.11743 -0.837619 0
M  V30 5298 H 508.627 2.22357 -3.08645 0
M  V30 5299 H 509.939 3.09085 -3.91494 0
M  V30 5300 H 509.093 5.2666 -3.01188 0
M  V30 5301 H 507.832 4.41146 -2.07947 0
M  V30 5302 H 506.837 3.53478 -4.21109 0
M  V30 5303 H 508.062 4.42303 -5.1531 0
M  V30 5304 H 506.008 5.67491 -3.29074 0
M  V30 5305 H 505.925 5.65118 -5.02173 0
M  V30 5306 H 507.193 6.54367 -4.23585 0
M  V30 5307 N 511.423 1.38739 0.74761 0
M  V30 5308 C 512.669 1.3648 1.50814 0
M  V30 5309 C 513.024 -0.0431982 1.92351 0
M  V30 5310 O 512.317 -1.0071 1.62997 0
M  V30 5311 C 512.511 2.25992 2.7688 0
M  V30 5312 C 512.34 3.75354 2.47668 0
M  V30 5313 C 511.11 4.44348 2.40589 0
M  V30 5314 C 513.308 4.67642 2.14046 0
M  V30 5315 N 511.29 5.79114 2.03715 0
M  V30 5316 C 512.661 5.90965 1.87512 0
M  V30 5317 C 514.716 4.55787 2.00407 0
M  V30 5318 C 513.419 7.03759 1.48714 0
M  V30 5319 C 515.445 5.68491 1.63011 0
M  V30 5320 C 514.807 6.90879 1.37353 0
M  V30 5321 H 510.906 0.554695 0.551214 0
M  V30 5322 H 513.49 1.7418 0.870033 0
M  V30 5323 H 511.661 1.9047 3.3849 0
M  V30 5324 H 513.393 2.14815 3.42982 0
M  V30 5325 H 510.148 3.97634 2.57262 0
M  V30 5326 H 510.572 6.504 1.87906 0
M  V30 5327 H 515.214 3.61712 2.18916 0
M  V30 5328 H 512.932 7.97746 1.28945 0
M  V30 5329 H 516.518 5.613 1.53081 0
M  V30 5330 H 515.398 7.76609 1.08848 0
M  V30 5331 N 512.901 -0.976442 1.23707 0
M  V30 5332 C 514.126 -1.75875 1.09922 0
M  V30 5333 C 514.551 -1.84911 -0.34489 0
M  V30 5334 O 513.909 -1.31363 -1.24954 0
M  V30 5335 C 513.957 -3.16179 1.73388 0
M  V30 5336 O 513.061 -4.00124 0.99871 0
M  V30 5337 H 512.402 -0.540954 0.385052 0
M  V30 5338 H 514.932 -1.22546 1.6384 0
M  V30 5339 H 514.942 -3.66741 1.78788 0
M  V30 5340 H 513.617 -3.08917 2.78466 0
M  V30 5341 H 512.194 -3.58624 1.02193 0
M  V30 5342 N 514.379 -1.04941 -1.1758 0
M  V30 5343 C 515.327 -0.64204 -2.23563 0
M  V30 5344 C 516.321 0.335453 -1.66045 0
M  V30 5345 O 517.527 0.20179 -1.78865 0
M  V30 5346 H 513.902 -0.18944 -0.727748 0
M  V30 5347 H 515.873 -1.54609 -2.55223 0
M  V30 5348 C 514.622 -0.0301051 -3.47687 0
M  V30 5349 H 513.945 -0.773339 -3.92249 0
M  V30 5350 H 515.385 0.217592 -4.23441 0
M  V30 5351 C 513.844 1.2225 -3.13937 0
M  V30 5352 O 514.374 2.3122 -3.28482 0
M  V30 5353 N 512.58 1.11917 -2.68185 0
M  V30 5354 H 512.127 0.232403 -2.5655 0
M  V30 5355 H 512.085 1.95814 -2.45976 0
M  V30 5356 N 515.857 1.33968 -0.830081 0
M  V30 5357 C 517.082 2.02813 -0.433796 0
M  V30 5358 C 517.507 1.62076 0.954614 0
M  V30 5359 O 516.865 0.808955 1.62252 0
M  V30 5360 C 516.913 3.56348 -0.552115 0
M  V30 5361 O 516.017 4.10202 0.425191 0
M  V30 5362 H 515.358 0.639817 -0.177567 0
M  V30 5363 H 517.888 1.7106 -1.12248 0
M  V30 5364 H 517.898 4.05722 -0.430513 0
M  V30 5365 H 516.573 3.85344 -1.56471 0
M  V30 5366 H 515.15 3.71979 0.261878 0
M  V30 5367 N 517.335 0.585699 1.46312 0
M  V30 5368 C 518.282 -0.145835 2.30339 0
M  V30 5369 C 519.252 -0.881215 1.40797 0
M  V30 5370 O 520.437 -0.871293 1.69744 0
M  V30 5371 C 517.577 -1.15161 3.25318 0
M  V30 5372 C 516.69 -0.419367 4.2996 0
M  V30 5373 C 515.825 -1.41293 5.12064 0
M  V30 5374 C 514.864 -0.667261 6.08452 0
M  V30 5375 N 514.001 -1.60903 6.83414 0
M  V30 5376 H 518.841 0.576755 2.92365 0
M  V30 5377 H 516.378 0.296237 1.44086 0
M  V30 5378 H 518.336 -1.74763 3.78832 0
M  V30 5379 H 516.966 -1.84188 2.65094 0
M  V30 5380 H 516.018 0.291751 3.7928 0
M  V30 5381 H 517.33 0.163433 4.98532 0
M  V30 5382 H 516.484 -2.08167 5.6987 0
M  V30 5383 H 515.223 -2.02966 4.43459 0
M  V30 5384 H 514.228 0.0152356 5.49798 0
M  V30 5385 H 515.453 -0.0558817 6.79077 0
M  V30 5386 H 513.399 -2.21381 6.17516 0
M  V30 5387 H 513.316 -1.07911 7.48259 0
M  V30 5388 H 514.584 -2.26802 7.45775 0
M  V30 5389 N 518.813 -1.54241 0.323641 0
M  V30 5390 C 519.743 -2.27289 -0.534993 0
M  V30 5391 C 520.724 -1.28087 -1.11927 0
M  V30 5392 O 521.909 -1.56899 -1.14439 0
M  V30 5393 C 519.039 -3.03075 -1.69596 0
M  V30 5394 C 517.993 -4.09614 -1.24098 0
M  V30 5395 C 517.319 -4.73242 -2.4889 0
M  V30 5396 C 518.619 -5.21087 -0.355789 0
M  V30 5397 H 520.313 -2.99308 0.0743257 0
M  V30 5398 H 517.859 -1.43952 0.0371874 0
M  V30 5399 H 519.812 -3.52907 -2.30293 0
M  V30 5400 H 518.536 -2.28673 -2.33187 0
M  V30 5401 H 517.195 -3.60666 -0.656945 0
M  V30 5402 H 516.843 -3.95455 -3.10845 0
M  V30 5403 H 516.543 -5.45209 -2.19138 0
M  V30 5404 H 518.067 -5.25848 -3.10348 0
M  V30 5405 H 519.481 -5.66675 -0.869042 0
M  V30 5406 H 517.878 -5.9991 -0.151045 0
M  V30 5407 H 518.948 -4.81005 0.613339 0
M  V30 5408 N 520.291 -0.0518155 -1.57515 0
M  V30 5409 C 521.238 0.922352 -2.11569 0
M  V30 5410 C 522.208 1.30842 -1.02321 0
M  V30 5411 O 523.393 1.39778 -1.29872 0
M  V30 5412 C 520.533 2.19167 -2.6657 0
M  V30 5413 C 519.646 1.86003 -3.89906 0
M  V30 5414 C 518.781 3.07398 -4.33221 0
M  V30 5415 C 517.82 2.70158 -5.49255 0
M  V30 5416 N 516.957 3.84248 -5.8762 0
M  V30 5417 H 521.797 0.454506 -2.94514 0
M  V30 5418 H 519.334 0.212718 -1.45554 0
M  V30 5419 H 521.292 2.93443 -2.96559 0
M  V30 5420 H 519.922 2.63528 -1.86421 0
M  V30 5421 H 518.974 1.01874 -3.66505 0
M  V30 5422 H 520.286 1.54592 -4.74239 0
M  V30 5423 H 519.44 3.89972 -4.64765 0
M  V30 5424 H 518.179 3.41988 -3.477 0
M  V30 5425 H 517.184 1.86001 -5.17382 0
M  V30 5426 H 518.409 2.36759 -6.36492 0
M  V30 5427 H 516.355 4.18638 -5.05053 0
M  V30 5428 H 516.272 3.56538 -6.66646 0
M  V30 5429 H 517.54 4.6746 -6.2378 0
M  V30 5430 N 521.769 1.56035 0.221574 0
M  V30 5431 C 523.009 1.80822 0.953038 0
M  V30 5432 C 523.373 0.625316 1.81532 0
M  V30 5433 O 524.574 0.752491 2.58052 0
M  V30 5434 C 522.845 3.10503 1.76983 0
M  V30 5435 S 524.404 3.56604 2.55693 0
M  V30 5436 H 521.222 0.634849 0.320137 0
M  V30 5437 H 523.824 1.94274 0.218619 0
M  V30 5438 H 522.528 3.94636 1.12651 0
M  V30 5439 H 522.059 2.99858 2.54655 0
M  V30 5440 H 524.074 3.1994 3.79279 0
M  V30 5441 N 523.247 -0.488276 1.49845 0
M  V30 5442 C 524.179 -1.60539 1.63584 0
M  V30 5443 C 525.192 -1.5434 0.517972 0
M  V30 5444 O 526.381 -1.60041 0.790516 0
M  V30 5445 C 523.481 -2.99374 1.58835 0
M  V30 5446 C 522.654 -3.30624 2.86368 0
M  V30 5447 C 521.713 -4.4893 2.74496 0
M  V30 5448 O 520.739 -4.50085 3.48443 0
M  V30 5449 N 521.941 -5.49591 1.86894 0
M  V30 5450 H 524.706 -1.49176 2.59936 0
M  V30 5451 H 522.267 -0.67639 1.47094 0
M  V30 5452 H 524.259 -3.76459 1.48529 0
M  V30 5453 H 522.829 -3.04595 0.702892 0
M  V30 5454 H 522.049 -2.42314 3.1093 0
M  V30 5455 H 523.337 -3.48305 3.70892 0
M  V30 5456 H 522.735 -5.51467 1.26097 0
M  V30 5457 H 521.292 -6.25728 1.82503 0
M  V30 5458 N 524.725 -1.39134 -0.740242 0
M  V30 5459 C 526.136 -1.32208 -1.31825 0
M  V30 5460 C 526.487 0.0159919 -1.96193 0
M  V30 5461 O 525.612 0.918111 -1.95958 0
M  V30 5462 C 526.207 -2.39436 -2.39699 0
M  V30 5463 C 524.766 -2.36048 -2.93187 0
M  V30 5464 C 523.913 -2.21599 -1.66701 0
M  V30 5465 H 526.864 -1.49298 -0.538133 0
M  V30 5466 H 526.885 -2.05922 -3.19963 0
M  V30 5467 H 526.397 -3.36811 -1.92821 0
M  V30 5468 H 524.498 -1.42295 -3.44359 0
M  V30 5469 H 524.611 -3.30704 -3.46658 0
M  V30 5470 H 522.975 -1.68681 -1.90837 0
M  V30 5471 H 523.758 -3.20936 -1.21882 0
M  V30 5472 N 526.204 0.969867 -1.24223 0
M  V30 5473 C 527.45 1.7151 -1.08223 0
M  V30 5474 C 527.783 1.90478 0.37838 0
M  V30 5475 O 527.058 1.4647 1.27971 0
M  V30 5476 C 527.341 3.10714 -1.82013 0
M  V30 5477 C 527.194 2.9925 -3.35811 0
M  V30 5478 C 528.513 4.10332 -1.59108 0
M  V30 5479 H 525.632 0.622499 -0.394543 0
M  V30 5480 H 528.274 1.1284 -1.52863 0
M  V30 5481 H 526.424 3.608 -1.44068 0
M  V30 5482 H 528.096 2.56608 -3.83341 0
M  V30 5483 H 526.339 2.35512 -3.64303 0
M  V30 5484 H 527.01 3.97857 -3.82641 0
M  V30 5485 H 529.486 3.69097 -1.92111 0
M  V30 5486 H 528.362 5.05804 -2.13198 0
M  V30 5487 H 528.623 4.38926 -0.528832 0
M  V30 5488 N 527.682 1.05563 1.17022 0
M  V30 5489 C 528.959 0.68165 1.83338 0
M  V30 5490 C 529.339 -0.837665 1.93769 0
M  V30 5491 O 528.687 -1.74507 1.47511 0
M  V30 5492 C 528.897 1.375 3.20772 0
M  V30 5493 C 530.245 1.51545 3.96635 0
M  V30 5494 O 531.269 1.33431 3.30264 0
M  V30 5495 O 530.128 1.812 5.15586 0
M  V30 5496 H 527.222 0.240412 0.791285 0
M  V30 5497 H 529.768 1.15545 1.24288 0
M  V30 5498 H 528.54 2.41135 3.08171 0
M  V30 5499 H 528.163 0.890798 3.87493 0
M  V30 5500 N 529.16 -1.33526 0.837174 0
M  V30 5501 C 530.4 -1.99649 0.438115 0
M  V30 5502 C 530.764 -1.64879 -0.983816 0
M  V30 5503 O 531.965 -2.23956 -1.48651 0
M  V30 5504 C 530.236 -3.51431 0.650461 0
M  V30 5505 S 531.795 -4.37431 0.346371 0
M  V30 5506 H 528.613 -0.69162 0.164872 0
M  V30 5507 H 531.215 -1.62556 1.08609 0
M  V30 5508 H 529.919 -3.74225 1.68475 0
M  V30 5509 H 529.45 -3.93398 -0.0117309 0
M  V30 5510 H 531.465 -4.89132 -0.834504 0
M  V30 5511 N 530.638 -0.59345 -1.46 0
M  V30 5512 C 531.886 -0.082988 -2.0193 0
M  V30 5513 C 532.207 1.28569 -1.46612 0
M  V30 5514 O 531.477 1.84629 -0.654909 0
M  V30 5515 H 530.057 -0.0276882 -0.746487 0
M  V30 5516 H 532.719 -0.771657 -1.78973 0
M  V30 5517 H 531.815 -0.022079 -3.12092 0
M  V30 5518 N 532.116 1.54067 -0.331816 0
M  V30 5519 C 533.365 1.99895 0.269209 0
M  V30 5520 C 533.678 1.22371 1.52593 0
M  V30 5521 O 534.884 1.58618 2.20347 0
M  V30 5522 C 533.34 3.55972 0.530244 0
M  V30 5523 C 532.948 4.4234 -0.709901 0
M  V30 5524 C 534.692 4.10247 1.09077 0
M  V30 5525 C 532.599 5.89905 -0.420312 0
M  V30 5526 H 531.529 0.746741 0.104371 0
M  V30 5527 H 534.18 1.78014 -0.445324 0
M  V30 5528 H 532.562 3.73873 1.30518 0
M  V30 5529 H 533.736 4.36215 -1.48504 0
M  V30 5530 H 532.051 3.98997 -1.19123 0
M  V30 5531 H 534.648 5.18095 1.32219 0
M  V30 5532 H 534.991 3.62739 2.0427 0
M  V30 5533 H 535.524 3.96011 0.376824 0
M  V30 5534 H 532.263 6.41623 -1.34164 0
M  V30 5535 H 531.783 5.98962 0.316962 0
M  V30 5536 H 533.462 6.46991 -0.0331956 0
M  V30 5537 N 533.594 0.0601682 1.57485 0
M  V30 5538 C 535.005 -0.474217 1.80577 0
M  V30 5539 C 535.356 -1.70365 0.973147 0
M  V30 5540 O 534.481 -2.15544 0.192306 0
M  V30 5541 C 535.076 -0.867102 3.27516 0
M  V30 5542 C 533.635 -1.34642 3.51495 0
M  V30 5543 C 532.782 -0.32594 2.75378 0
M  V30 5544 H 535.733 0.285973 1.56102 0
M  V30 5545 H 535.754 -1.72938 3.38929 0
M  V30 5546 H 535.266 0.0278927 3.8809 0
M  V30 5547 H 533.367 -2.2603 2.96212 0
M  V30 5548 H 533.48 -1.33237 4.60201 0
M  V30 5549 H 531.844 -0.800749 2.41785 0
M  V30 5550 H 532.627 0.561125 3.38683 0
M  V30 5551 N 535.072 -1.5615 -0.213296 0
M  V30 5552 C 535.982 -1.96265 -1.28519 0
M  V30 5553 C 536.998 -0.86765 -1.50824 0
M  V30 5554 O 538.174 -1.17191 -1.63793 0
M  V30 5555 C 535.239 -2.27836 -2.61327 0
M  V30 5556 C 534.3 -3.50949 -2.47252 0
M  V30 5557 C 533.533 -3.81004 -3.73727 0
M  V30 5558 O 533.756 -3.12612 -4.77106 0
M  V30 5559 O 532.69 -4.74477 -3.70344 0
M  V30 5560 H 536.516 -2.87631 -0.974795 0
M  V30 5561 H 534.101 -1.43467 -0.416832 0
M  V30 5562 H 535.983 -2.49299 -3.39747 0
M  V30 5563 H 534.658 -1.39643 -2.9203 0
M  V30 5564 H 533.565 -3.34754 -1.67004 0
M  V30 5565 H 534.898 -4.39551 -2.21486 0
M  V30 5566 N 536.55 0.480323 -1.50102 0
M  V30 5567 C 537.775 1.26126 -1.64642 0
M  V30 5568 C 538.2 1.85257 -0.325823 0
M  V30 5569 O 537.558 1.66854 0.709194 0
M  V30 5570 C 537.606 2.35243 -2.73301 0
M  V30 5571 O 536.71 3.39646 -2.33911 0
M  V30 5572 H 536.051 0.371463 -0.550374 0
M  V30 5573 H 538.581 0.572696 -1.96421 0
M  V30 5574 H 538.591 2.80695 -2.96098 0
M  V30 5575 H 537.266 1.91574 -3.6915 0
M  V30 5576 H 535.843 2.99969 -2.21525 0
M  V30 5577 N 538.028 1.39524 0.732853 0
M  V30 5578 C 539.277 1.36175 1.48792 0
M  V30 5579 C 539.59 -0.0388195 1.95561 0
M  V30 5580 O 540.796 -0.194899 2.708 0
M  V30 5581 C 539.252 2.39242 2.68871 0
M  V30 5582 C 538.86 3.85024 2.29042 0
M  V30 5583 C 540.604 2.44972 3.46683 0
M  V30 5584 C 538.511 4.79727 3.45856 0
M  V30 5585 H 537.441 0.506267 0.558757 0
M  V30 5586 H 540.092 1.65181 0.799226 0
M  V30 5587 H 538.474 2.0331 3.39825 0
M  V30 5588 H 539.648 4.30008 1.6562 0
M  V30 5589 H 537.963 3.82609 1.64316 0
M  V30 5590 H 540.56 3.12918 4.33574 0
M  V30 5591 H 540.903 1.4749 3.89297 0
M  V30 5592 H 541.436 2.79808 2.82759 0
M  V30 5593 H 538.175 5.78479 3.08289 0
M  V30 5594 H 537.695 4.39421 4.08251 0
M  V30 5595 H 539.374 4.98731 4.12161 0
M  V30 5596 N 539.506 -0.963266 1.24736 0
M  V30 5597 C 540.416 -2.09246 1.06082 0
M  V30 5598 C 541.432 -1.74 0.000363101 0
M  V30 5599 O 542.608 -2.0041 0.199479 0
M  V30 5600 C 539.673 -3.40115 0.672498 0
M  V30 5601 C 538.734 -3.89282 1.80993 0
M  V30 5602 C 537.967 -5.13905 1.44004 0
M  V30 5603 O 538.19 -5.69434 0.331835 0
M  V30 5604 O 537.124 -5.57566 2.26723 0
M  V30 5605 H 540.95 -2.27881 2.00759 0
M  V30 5606 H 538.535 -1.07649 1.03595 0
M  V30 5607 H 540.417 -4.18797 0.467668 0
M  V30 5608 H 539.092 -3.22771 -0.245102 0
M  V30 5609 H 537.999 -3.11642 2.06955 0
M  V30 5610 H 539.332 -4.1111 2.70646 0
M  V30 5611 N 540.985 -1.06182 -1.16461 0
M  V30 5612 C 541.933 -0.665716 -2.2287 0
M  V30 5613 C 542.927 0.317822 -1.66392 0
M  V30 5614 O 544.133 0.182807 -1.79069 0
M  V30 5615 H 540.508 -0.197148 -0.725697 0
M  V30 5616 H 542.479 -1.57307 -2.53569 0
M  V30 5617 C 541.228 -0.0669803 -3.47635 0
M  V30 5618 H 540.551 -0.814899 -3.91407 0
M  V30 5619 H 541.991 0.172669 -4.23648 0
M  V30 5620 C 540.45 1.18913 -3.15216 0
M  V30 5621 O 540.98 2.27723 -3.30916 0
M  V30 5622 N 539.186 1.09066 -2.69357 0
M  V30 5623 H 538.733 0.20518 -2.56782 0
M  V30 5624 H 538.691 1.93195 -2.48039 0
M  V30 5625 N 542.463 1.3308 -0.844243 0
M  V30 5626 C 543.711 1.97215 -0.441676 0
M  V30 5627 C 544.032 1.67185 1.0037 0
M  V30 5628 O 543.302 0.973588 1.69994 0
M  V30 5629 H 541.882 0.72959 -0.160335 0
M  V30 5630 H 544.544 1.62348 -1.07838 0
M  V30 5631 H 543.64 3.06698 -0.57815 0
M  V30 5632 N 543.941 0.601185 1.45683 0
M  V30 5633 C 544.888 -0.121396 2.30481 0
M  V30 5634 C 545.858 -0.866232 1.41724 0
M  V30 5635 O 547.043 -0.85324 1.70659 0
M  V30 5636 C 544.183 -1.11704 3.26521 0
M  V30 5637 C 543.296 -0.373741 4.3038 0
M  V30 5638 C 542.431 -1.35854 5.13534 0
M  V30 5639 C 541.47 -0.602689 6.09126 0
M  V30 5640 N 540.607 -1.53645 6.85082 0
M  V30 5641 H 545.447 0.607732 2.91737 0
M  V30 5642 H 542.984 0.311502 1.43764 0
M  V30 5643 H 544.942 -1.70735 3.80664 0
M  V30 5644 H 543.572 -1.81366 2.67032 0
M  V30 5645 H 542.624 0.331962 3.78949 0
M  V30 5646 H 543.936 0.2163 4.98331 0
M  V30 5647 H 543.09 -2.02111 5.72046 0
M  V30 5648 H 541.829 -1.98251 4.45587 0
M  V30 5649 H 540.834 0.0735482 5.49751 0
M  V30 5650 H 542.059 0.0161467 6.79098 0
M  V30 5651 H 540.005 -2.14819 6.1983 0
M  V30 5652 H 539.922 -0.999688 7.49361 0
M  V30 5653 H 541.19 -2.1888 7.48139 0
M  V30 5654 N 545.419 -1.53889 0.339982 0
M  V30 5655 C 546.665 -2.01152 -0.258003 0
M  V30 5656 C 546.998 -1.22749 -1.50487 0
M  V30 5657 O 546.273 -0.314156 -1.91946 0
M  V30 5658 C 546.556 -3.55468 -0.575717 0
M  V30 5659 C 546.409 -4.44584 0.682996 0
M  V30 5660 C 547.728 -4.1768 -1.38677 0
M  V30 5661 H 544.847 -0.731198 -0.0922992 0
M  V30 5662 H 547.489 -1.84352 0.459814 0
M  V30 5663 H 545.639 -3.69914 -1.18725 0
M  V30 5664 H 547.311 -4.41981 1.32102 0
M  V30 5665 H 545.554 -4.13592 1.3086 0
M  V30 5666 H 546.225 -5.5043 0.416001 0
M  V30 5667 H 548.701 -4.0691 -0.869705 0
M  V30 5668 H 547.577 -5.25734 -1.57783 0
M  V30 5669 H 547.838 -3.72069 -2.38782 0
M  V30 5670 N 546.897 -0.0685191 -1.57451 0
M  V30 5671 C 547.807 0.914677 -2.16034 0
M  V30 5672 C 548.823 1.32938 -1.12265 0
M  V30 5673 O 549.999 1.40275 -1.44516 0
M  V30 5674 C 547.064 2.16519 -2.70777 0
M  V30 5675 C 546.125 1.80721 -3.89408 0
M  V30 5676 C 545.358 2.9981 -4.41531 0
M  V30 5677 O 545.581 4.13727 -3.92666 0
M  V30 5678 O 544.515 2.79817 -5.32903 0
M  V30 5679 H 548.341 0.446364 -3.00402 0
M  V30 5680 H 545.926 0.154367 -1.486 0
M  V30 5681 H 547.808 2.89856 -3.05878 0
M  V30 5682 H 546.483 2.62454 -1.89471 0
M  V30 5683 H 545.39 1.04646 -3.59166 0
M  V30 5684 H 546.723 1.39571 -4.71997 0
M  V30 5685 N 548.375 1.56261 0.205012 0
M  V30 5686 C 549.652 1.70856 0.952233 0
M  V30 5687 C 550.032 0.620501 2.01775 0
M  V30 5688 O 549.38 -0.370035 2.25484 0
M  V30 5689 C 549.59 3.12807 1.54767 0
M  V30 5690 C 550.938 3.72733 2.0336 0
M  V30 5691 O 551.962 3.15873 1.64629 0
M  V30 5692 O 550.821 4.72501 2.746 0
M  V30 5693 H 547.915 0.696496 0.445895 0
M  V30 5694 H 550.461 1.6857 0.195489 0
M  V30 5695 H 549.233 3.83465 0.779132 0
M  V30 5696 H 548.856 3.1928 2.36951 0
M  V30 5697 N 549.853 -0.472356 1.50355 0
M  V30 5698 C 551.264 -1.05326 1.54154 0
M  V30 5699 C 551.615 -1.93155 0.344303 0
M  V30 5700 O 550.74 -2.09479 -0.542928 0
M  V30 5701 C 551.335 -1.91691 2.79356 0
M  V30 5702 C 549.894 -2.44892 2.8584 0
M  V30 5703 C 549.041 -1.23205 2.48426 0
M  V30 5704 H 551.992 -0.255027 1.56637 0
M  V30 5705 H 552.013 -2.76742 2.6114 0
M  V30 5706 H 551.525 -1.27741 3.66475 0
M  V30 5707 H 549.626 -3.12399 2.0307 0
M  V30 5708 H 549.739 -2.80086 3.88701 0
M  V30 5709 H 548.103 -1.56643 2.00836 0
M  V30 5710 H 548.886 -0.609194 3.37852 0
M  V30 5711 N 551.331 -1.39911 -0.725443 0
M  V30 5712 C 552.241 -1.41688 -1.8698 0
M  V30 5713 C 553.257 -0.310579 -1.71206 0
M  V30 5714 O 554.433 -0.55359 -1.93642 0
M  V30 5715 C 551.498 -1.26811 -3.22676 0
M  V30 5716 C 550.559 -2.47497 -3.50776 0
M  V30 5717 C 549.792 -2.3332 -4.79997 0
M  V30 5718 O 550.015 -1.34175 -5.54394 0
M  V30 5719 O 548.949 -3.22498 -5.08211 0
M  V30 5720 H 552.775 -2.38171 -1.88436 0
M  V30 5721 H 550.36 -1.21128 -0.874548 0
M  V30 5722 H 552.242 -1.20684 -4.03749 0
M  V30 5723 H 550.917 -0.334289 -3.21969 0
M  V30 5724 H 549.824 -2.59201 -2.69751 0
M  V30 5725 H 551.157 -3.39606 -3.5627 0
M  V30 5726 N 552.809 0.956637 -1.25245 0
M  V30 5727 C 554.034 1.74104 -1.12706 0
M  V30 5728 C 554.459 1.85436 0.315429 0
M  V30 5729 O 553.817 1.33334 1.22848 0
M  V30 5730 C 553.865 3.1338 -1.78396 0
M  V30 5731 O 552.969 3.98485 -1.06224 0
M  V30 5732 H 552.31 0.53476 -0.393609 0
M  V30 5733 H 554.84 1.19924 -1.65769 0
M  V30 5734 H 554.85 3.6385 -1.846 0
M  V30 5735 H 553.525 3.04448 -2.83345 0
M  V30 5736 H 552.102 3.56952 -1.07886 0
M  V30 5737 N 554.287 1.06798 1.15896 0
M  V30 5738 C 555.515 0.808694 1.90441 0
M  V30 5739 C 555.93 -0.637506 1.77711 0
M  V30 5740 O 555.287 -1.43684 1.12522 0
M  V30 5741 C 555.338 1.20068 3.40978 0
M  V30 5742 O 555.059 2.59013 3.53333 0
M  V30 5743 C 556.56 0.96987 4.3256 0
M  V30 5744 H 553.78 0.292809 0.603742 0
M  V30 5745 H 556.324 1.42296 1.46874 0
M  V30 5746 H 554.479 0.630842 3.82229 0
M  V30 5747 H 554.893 2.7485 4.46719 0
M  V30 5748 H 556.367 1.29371 5.36626 0
M  V30 5749 H 556.844 -0.0941209 4.39099 0
M  V30 5750 H 557.45 1.52433 3.97044 0
M  V30 5751 N 555.766 -1.3263 0.851289 0
M  V30 5752 C 556.696 -2.31449 0.308771 0
M  V30 5753 C 557.677 -1.59531 -0.590255 0
M  V30 5754 O 558.862 -1.87351 -0.511205 0
M  V30 5755 C 555.992 -3.43586 -0.506548 0
M  V30 5756 C 554.946 -4.26963 0.297753 0
M  V30 5757 C 554.272 -5.30831 -0.642094 0
M  V30 5758 C 555.572 -4.99643 1.52166 0
M  V30 5759 H 557.266 -2.77074 1.13447 0
M  V30 5760 H 554.812 -1.33207 0.546971 0
M  V30 5761 H 556.765 -4.11754 -0.896474 0
M  V30 5762 H 555.489 -2.96681 -1.36558 0
M  V30 5763 H 554.148 -3.60437 0.669391 0
M  V30 5764 H 553.796 -4.8018 -1.49788 0
M  V30 5765 H 553.496 -5.87501 -0.107968 0
M  V30 5766 H 555.02 -6.01862 -1.02927 0
M  V30 5767 H 556.434 -5.6051 1.20421 0
M  V30 5768 H 554.831 -5.66022 1.99347 0
M  V30 5769 H 555.901 -4.27701 2.28474 0
M  V30 5770 N 557.244 -0.608902 -1.45362 0
M  V30 5771 C 558.491 -0.104607 -2.0223 0
M  V30 5772 C 558.819 1.26534 -1.47714 0
M  V30 5773 O 558.074 1.84855 -0.642435 0
M  V30 5774 C 558.373 -0.0167296 -3.57396 0
M  V30 5775 C 558.039 -1.32251 -4.31069 0
M  V30 5776 C 556.701 -1.68019 -4.50914 0
M  V30 5777 C 559.053 -2.18542 -4.73169 0
M  V30 5778 C 556.381 -2.89828 -5.10114 0
M  V30 5779 C 558.733 -3.39602 -5.33717 0
M  V30 5780 C 557.397 -3.7562 -5.51784 0
M  V30 5781 H 556.667 -0.0382785 -0.740011 0
M  V30 5782 H 559.314 -0.790782 -1.7441 0
M  V30 5783 H 557.619 0.752715 -3.84502 0
M  V30 5784 H 559.316 0.389634 -3.99103 0
M  V30 5785 H 555.906 -1.03411 -4.15938 0
M  V30 5786 H 560.09 -1.92208 -4.5757 0
M  V30 5787 H 555.346 -3.17839 -5.22291 0
M  V30 5788 H 559.52 -4.06716 -5.65292 0
M  V30 5789 H 557.147 -4.70093 -5.97425 0
M  V30 5790 N 558.722 1.53707 -0.348139 0
M  V30 5791 C 559.97 2.00591 0.246478 0
M  V30 5792 C 560.291 1.23753 1.50699 0
M  V30 5793 O 559.561 0.345964 1.92821 0
M  V30 5794 H 558.141 0.741053 0.0940679 0
M  V30 5795 H 560.803 1.89139 -0.470354 0
M  V30 5796 H 559.899 3.08297 0.485714 0
M  V30 5797 N 560.2 0.0768682 1.57412 0
M  V30 5798 C 561.425 -0.603404 1.98428 0
M  V30 5799 C 561.85 -1.62047 0.955108 0
M  V30 5800 O 561.208 -1.81129 -0.0786778 0
M  V30 5801 C 561.256 -1.24396 3.38464 0
M  V30 5802 O 560.36 -2.35982 3.3821 0
M  V30 5803 H 559.701 -0.154741 0.645718 0
M  V30 5804 H 562.231 0.152885 2.04028 0
M  V30 5805 H 562.241 -1.5896 3.7576 0
M  V30 5806 H 560.916 -0.498735 4.12899 0
M  V30 5807 H 559.493 -2.03173 3.1269 0
M  V30 5808 N 561.678 -1.56367 -0.196722 0
M  V30 5809 C 562.924 -1.80796 -0.918725 0
M  V30 5810 C 563.257 -0.650645 -1.82976 0
M  V30 5811 O 562.532 0.348889 -1.91345 0
M  V30 5812 C 562.815 -3.15472 -1.73636 0
M  V30 5813 C 562.668 -4.41693 -0.85015 0
M  V30 5814 C 563.987 -3.46824 -2.70927 0
M  V30 5815 H 561.106 -0.657702 -0.332561 0
M  V30 5816 H 563.748 -1.89086 -0.186186 0
M  V30 5817 H 561.898 -3.08536 -2.36088 0
M  V30 5818 H 563.57 -4.60673 -0.240459 0
M  V30 5819 H 561.813 -4.33517 -0.156785 0
M  V30 5820 H 562.484 -5.32419 -1.45719 0
M  V30 5821 H 564.96 -3.54049 -2.18607 0
M  V30 5822 H 563.836 -4.4218 -3.25219 0
M  V30 5823 H 564.097 -2.70236 -3.49893 0
M  V30 5824 N 563.156 0.464375 -1.50603 0
M  V30 5825 C 564.405 1.21277 -1.61167 0
M  V30 5826 C 564.718 1.92953 -0.320704 0
M  V30 5827 O 565.924 2.69778 -0.30534 0
M  V30 5828 C 564.38 2.20403 -2.84518 0
M  V30 5829 C 563.988 1.54499 -4.20516 0
M  V30 5830 C 565.732 2.95843 -3.0443 0
M  V30 5831 C 563.639 2.51951 -5.35047 0
M  V30 5832 H 562.569 0.456367 -0.600204 0
M  V30 5833 H 565.22 0.48254 -1.77042 0
M  V30 5834 H 563.602 2.96746 -2.62217 0
M  V30 5835 H 564.776 0.83899 -4.53098 0
M  V30 5836 H 563.091 0.913152 -4.06264 0
M  V30 5837 H 565.688 3.6879 -3.87167 0
M  V30 5838 H 566.031 3.55622 -2.16423 0
M  V30 5839 H 566.564 2.26611 -3.26944 0
M  V30 5840 H 563.303 1.96901 -6.25228 0
M  V30 5841 H 562.823 3.20683 -5.06875 0
M  V30 5842 H 564.502 3.13643 -5.65895 0
M  V30 5843 N 564.634 1.40294 0.718013 0
M  V30 5844 C 566.05 1.2227 1.02577 0
M  V30 5845 C 566.25 0.0961976 2.0127 0
M  V30 5846 O 565.306 -0.546695 2.46511 0
M  V30 5847 C 566.619 2.56348 1.57182 0
M  V30 5848 C 568.167 2.6334 1.69178 0
M  V30 5849 C 568.642 3.9768 2.27188 0
M  V30 5850 N 570.133 3.99409 2.34578 0
M  V30 5851 C 570.868 5.00141 2.8044 0
M  V30 5852 N 570.364 6.11268 3.26073 0
M  V30 5853 N 572.157 4.87511 2.79802 0
M  V30 5854 H 564.308 2.12304 0.0637899 0
M  V30 5855 H 566.571 0.943632 0.0909036 0
M  V30 5856 H 566.277 3.3942 0.921262 0
M  V30 5857 H 566.151 2.77266 2.55741 0
M  V30 5858 H 568.538 1.80641 2.33351 0
M  V30 5859 H 568.619 2.46255 0.692247 0
M  V30 5860 H 568.263 4.80817 1.63638 0
M  V30 5861 H 568.193 4.12093 3.27852 0
M  V30 5862 H 570.684 3.19162 2.02346 0
M  V30 5863 H 570.997 6.84023 3.59628 0
M  V30 5864 H 569.342 6.14837 3.24038 0
M  V30 5865 H 572.533 3.9979 2.43487 0
M  V30 5866 H 572.706 5.66158 3.15228 0
M  V30 5867 N 566.112 -0.949982 1.2575 0
M  V30 5868 C 567.342 -1.72721 1.13363 0
M  V30 5869 C 567.75 -1.86562 -0.314842 0
M  V30 5870 O 567.093 -1.36621 -1.22803 0
M  V30 5871 C 567.155 -3.15695 1.7198 0
M  V30 5872 C 566.819 -3.25268 3.21014 0
M  V30 5873 C 567.816 -3.09222 4.17945 0
M  V30 5874 C 565.501 -3.4894 3.61312 0
M  V30 5875 C 567.495 -3.16701 5.53154 0
M  V30 5876 C 565.182 -3.56055 4.96657 0
M  V30 5877 C 566.18 -3.3995 5.92387 0
M  V30 5878 O 565.868 -3.46757 7.25269 0
M  V30 5879 H 565.6 -0.547888 0.395973 0
M  V30 5880 H 568.154 -1.20009 1.66694 0
M  V30 5881 H 566.384 -3.69791 1.13101 0
M  V30 5882 H 568.073 -3.75295 1.54624 0
M  V30 5883 H 568.839 -2.90798 3.88151 0
M  V30 5884 H 564.718 -3.60534 2.87291 0
M  V30 5885 H 568.262 -3.04048 6.27854 0
M  V30 5886 H 564.159 -3.73997 5.26115 0
M  V30 5887 H 564.927 -3.63358 7.33426 0
M  V30 5888 N 567.59 -1.07411 -1.15328 0
M  V30 5889 C 568.818 -0.818782 -1.90009 0
M  V30 5890 C 569.233 0.628072 -1.78047 0
M  V30 5891 O 568.59 1.43085 -1.13282 0
M  V30 5892 C 568.641 -1.21874 -3.40337 0
M  V30 5893 O 568.362 -2.60883 -3.51954 0
M  V30 5894 C 569.863 -0.992796 -4.3204 0
M  V30 5895 H 567.083 -0.296007 -0.60218 0
M  V30 5896 H 569.627 -1.43073 -1.46117 0
M  V30 5897 H 567.782 -0.651103 -3.81889 0
M  V30 5898 H 568.196 -2.77216 -4.45255 0
M  V30 5899 H 569.67 -1.32215 -5.35932 0
M  V30 5900 H 570.147 0.0708331 -4.39143 0
M  V30 5901 H 570.753 -1.54537 -3.9623 0
M  V30 5902 N 569.068 1.32177 -0.85831 0
M  V30 5903 C 570.308 1.98927 -0.469822 0
M  V30 5904 C 570.672 1.66423 0.95746 0
M  V30 5905 O 571.873 2.26293 1.45069 0
M  V30 5906 C 570.144 3.50352 -0.706288 0
M  V30 5907 S 571.703 4.36824 -0.415918 0
M  V30 5908 H 568.521 0.688909 -0.175855 0
M  V30 5909 H 571.123 1.60807 -1.11181 0
M  V30 5910 H 569.827 3.71497 -1.74407 0
M  V30 5911 H 569.358 3.93367 -0.0508568 0
M  V30 5912 H 571.373 4.90398 0.756581 0
M  V30 5913 N 570.547 0.616602 1.45037 0
M  V30 5914 C 571.457 -0.0985401 2.34393 0
M  V30 5915 C 572.473 -0.850971 1.51771 0
M  V30 5916 O 573.649 -0.806521 1.84546 0
M  V30 5917 C 570.714 -1.07748 3.29532 0
M  V30 5918 C 569.775 -0.326022 4.2806 0
M  V30 5919 C 569.008 -1.25833 5.18654 0
M  V30 5920 O 569.231 -2.49652 5.12864 0
M  V30 5921 O 568.165 -0.750512 5.97203 0
M  V30 5922 H 571.991 0.636016 2.96966 0
M  V30 5923 H 569.576 0.376832 1.44569 0
M  V30 5924 H 571.458 -1.64107 3.88133 0
M  V30 5925 H 570.133 -1.79291 2.69512 0
M  V30 5926 H 569.04 0.280253 3.73049 0
M  V30 5927 H 570.373 0.349091 4.9096 0
M  V30 5928 N 572.025 -1.5352 0.356285 0
M  V30 5929 C 572.935 -2.29151 -0.502712 0
M  V30 5930 C 573.951 -1.34753 -1.1008 0
M  V30 5931 O 575.127 -1.67803 -1.11374 0
M  V30 5932 C 572.192 -3.05911 -1.63154 0
M  V30 5933 C 571.253 -4.15958 -1.06194 0
M  V30 5934 C 570.486 -4.8905 -2.13696 0
M  V30 5935 O 570.709 -4.61919 -3.34645 0
M  V30 5936 O 569.643 -5.75202 -1.77275 0
M  V30 5937 H 573.469 -3.03492 0.112466 0
M  V30 5938 H 571.054 -1.4891 0.120942 0
M  V30 5939 H 572.936 -3.53874 -2.28804 0
M  V30 5940 H 571.611 -2.34415 -2.23229 0
M  V30 5941 H 570.518 -3.7227 -0.369603 0
M  V30 5942 H 571.851 -4.89593 -0.505872 0
M  V30 5943 N 573.503 -0.0852151 -1.57369 0
M  V30 5944 C 574.914 0.445428 -1.81309 0
M  V30 5945 C 575.265 1.68795 -1.00013 0
M  V30 5946 O 574.39 2.15211 -0.226573 0
M  V30 5947 C 574.985 0.814887 -3.28854 0
M  V30 5948 C 573.544 1.29032 -3.53592 0
M  V30 5949 C 572.691 0.282089 -2.75861 0
M  V30 5950 H 575.642 -0.310771 -1.55627 0
M  V30 5951 H 575.663 1.67524 -3.41637 0
M  V30 5952 H 575.175 -0.0896309 -3.87996 0
M  V30 5953 H 573.276 2.21289 -2.9977 0
M  V30 5954 H 573.389 1.25898 -4.62262 0
M  V30 5955 H 571.753 0.762182 -2.43029 0
M  V30 5956 H 572.536 -0.614936 -3.37748 0
M  V30 5957 N 574.981 1.5647 0.188427 0
M  V30 5958 C 576.211 1.84863 0.922463 0
M  V30 5959 C 576.619 0.666413 1.77075 0
M  V30 5960 O 575.962 -0.374044 1.79852 0
M  V30 5961 C 576.024 3.07447 1.86324 0
M  V30 5962 C 575.688 4.41066 1.19625 0
M  V30 5963 C 576.685 5.16767 0.569946 0
M  V30 5964 C 574.37 4.87802 1.19811 0
M  V30 5965 C 576.364 6.37384 -0.045594 0
M  V30 5966 C 574.051 6.08353 0.57874 0
M  V30 5967 C 575.049 6.82987 -0.0420259 0
M  V30 5968 O 574.737 8.01254 -0.651675 0
M  V30 5969 H 574.469 0.61784 0.274316 0
M  V30 5970 H 577.023 2.04437 0.198613 0
M  V30 5971 H 575.253 2.83774 2.62696 0
M  V30 5972 H 576.942 3.2243 2.46564 0
M  V30 5973 H 577.708 4.81749 0.560601 0
M  V30 5974 H 573.587 4.29662 1.67069 0
M  V30 5975 H 577.131 6.95578 -0.530731 0
M  V30 5976 H 573.028 6.42838 0.58561 0
M  V30 5977 H 573.796 8.16655 -0.549236 0
M  V30 5978 N 576.459 -0.456382 1.50847 0
M  V30 5979 C 577.689 -1.22848 1.66108 0
M  V30 5980 C 578.097 -1.85936 0.349897 0
M  V30 5981 O 577.44 -1.70664 -0.679665 0
M  V30 5982 C 577.502 -2.36722 2.70561 0
M  V30 5983 C 577.166 -1.94154 4.13707 0
M  V30 5984 C 578.163 -1.4557 4.99105 0
M  V30 5985 C 575.848 -2.02426 4.59705 0
M  V30 5986 C 577.842 -1.0582 6.28555 0
M  V30 5987 C 575.529 -1.62287 5.89157 0
M  V30 5988 C 576.527 -1.14064 6.73408 0
M  V30 5989 O 576.215 -0.744873 8.00442 0
M  V30 5990 H 575.947 -0.377105 0.561042 0
M  V30 5991 H 578.501 -0.549431 1.97915 0
M  V30 5992 H 576.731 -3.07844 2.34027 0
M  V30 5993 H 578.42 -2.98646 2.74892 0
M  V30 5994 H 579.186 -1.38589 4.64777 0
M  V30 5995 H 575.065 -2.38908 3.94264 0
M  V30 5996 H 578.609 -0.6811 6.94267 0
M  V30 5997 H 574.506 -1.68932 6.23003 0
M  V30 5998 H 575.274 -0.87242 8.13837 0
M  V30 5999 N 577.937 -1.40673 -0.710563 0
M  V30 6000 C 579.167 -1.4234 -1.49742 0
M  V30 6001 C 579.575 -0.022821 -1.89186 0
M  V30 6002 O 578.918 0.964773 -1.56326 0
M  V30 6003 C 578.98 -2.25509 -2.79975 0
M  V30 6004 C 578.644 -3.73862 -2.62824 0
M  V30 6005 C 579.641 -4.66379 -2.29752 0
M  V30 6006 C 577.326 -4.17735 -2.78932 0
M  V30 6007 C 579.32 -6.00756 -2.13006 0
M  V30 6008 C 577.007 -5.5218 -2.61802 0
M  V30 6009 C 578.005 -6.43505 -2.28888 0
M  V30 6010 O 577.693 -7.75472 -2.11894 0
M  V30 6011 H 577.425 -0.487311 -0.468513 0
M  V30 6012 H 579.979 -1.8542 -0.883668 0
M  V30 6013 H 578.209 -1.77218 -3.43701 0
M  V30 6014 H 579.898 -2.19058 -3.41714 0
M  V30 6015 H 580.664 -4.33778 -2.16936 0
M  V30 6016 H 576.543 -3.46967 -3.03537 0
M  V30 6017 H 580.087 -6.72003 -1.87237 0
M  V30 6018 H 575.984 -5.84365 -2.74204 0
M  V30 6019 H 576.752 -7.86458 -2.26775 0
M  V30 6020 N 579.415 0.9433 -1.26252 0
M  V30 6021 C 580.348 2.04162 -1.01946 0
M  V30 6022 C 581.326 1.62507 0.0550808 0
M  V30 6023 O 582.51 1.883 -0.0869025 0
M  V30 6024 C 579.637 3.34313 -0.54335 0
M  V30 6025 C 578.683 3.94939 -1.61013 0
M  V30 6026 S 579.516 4.29484 -3.19849 0
M  V30 6027 C 580.672 5.62738 -2.74001 0
M  V30 6028 H 580.905 2.24466 -1.94942 0
M  V30 6029 H 578.438 1.08441 -1.09909 0
M  V30 6030 H 580.396 4.09576 -0.275315 0
M  V30 6031 H 579.057 3.11957 0.36629 0
M  V30 6032 H 578.25 4.88812 -1.22795 0
M  V30 6033 H 577.852 3.26202 -1.82943 0
M  V30 6034 H 580.144 6.41356 -2.18333 0
M  V30 6035 H 581.087 6.05839 -3.66558 0
M  V30 6036 H 581.495 5.22514 -2.13634 0
M  V30 6037 N 580.893 1.08022 1.14757 0
M  V30 6038 C 581.803 0.718292 2.23333 0
M  V30 6039 C 582.819 -0.273477 1.71837 0
M  V30 6040 O 583.995 -0.118406 2.01052 0
M  V30 6041 C 581.06 0.128855 3.4646 0
M  V30 6042 C 580.121 1.17473 4.12915 0
M  V30 6043 C 579.354 0.61333 5.30164 0
M  V30 6044 O 579.577 -0.568458 5.6756 0
M  V30 6045 O 578.511 1.3615 5.86299 0
M  V30 6046 H 582.337 1.62394 2.56636 0
M  V30 6047 H 579.922 0.853628 1.22611 0
M  V30 6048 H 581.804 -0.197249 4.20938 0
M  V30 6049 H 580.479 -0.750014 3.14891 0
M  V30 6050 H 579.386 1.5533 3.40328 0
M  V30 6051 H 580.719 2.02574 4.48581 0
M  V30 6052 N 582.371 -1.3172 0.865308 0
M  V30 6053 C 583.319 -2.30569 0.306674 0
M  V30 6054 C 584.313 -1.59317 -0.575724 0
M  V30 6055 O 585.519 -1.73961 -0.462343 0
M  V30 6056 H 581.894 -0.747681 0.0804834 0
M  V30 6057 H 583.865 -2.75165 1.15441 0
M  V30 6058 C 582.614 -3.44358 -0.480952 0
M  V30 6059 H 581.937 -3.99354 0.18876 0
M  V30 6060 H 583.377 -4.15652 -0.837241 0
M  V30 6061 C 581.836 -2.92574 -1.67039 0
M  V30 6062 O 582.366 -2.90954 -2.76964 0
M  V30 6063 N 580.572 -2.48835 -1.50097 0
M  V30 6064 H 580.119 -2.50353 -0.606738 0
M  V30 6065 H 580.077 -2.14543 -2.29823 0
M  V30 6066 N 583.85 -0.624285 -1.44708 0
M  V30 6067 C 585.098 -0.125802 -2.01708 0
M  V30 6068 C 585.418 1.2543 -1.49306 0
M  V30 6069 O 584.689 1.83198 -0.693924 0
M  V30 6070 H 583.269 -0.0435161 -0.745731 0
M  V30 6071 H 585.931 -0.809446 -1.77296 0
M  V30 6072 H 585.027 -0.0882734 -3.11975 0
M  V30 6073 N 585.328 1.53329 -0.364422 0
M  V30 6074 C 586.576 2.00842 0.225189 0
M  V30 6075 C 586.897 1.25345 1.49378 0
M  V30 6076 O 586.167 0.366396 1.92443 0
M  V30 6077 H 584.747 0.742009 0.0862027 0
M  V30 6078 H 587.409 1.8863 -0.490389 0
M  V30 6079 H 586.505 3.08795 0.452987 0
M  V30 6080 N 586.806 0.0935595 1.57322 0
M  V30 6081 C 588.054 -0.569383 1.93913 0
M  V30 6082 C 588.375 -1.68817 0.976009 0
M  V30 6083 O 587.645 -1.9588 0.0278099 0
M  V30 6084 H 586.225 -0.21332 0.715894 0
M  V30 6085 H 588.887 0.156531 1.9427 0
M  V30 6086 H 587.983 -0.980577 2.96296 0
M  V30 6087 N 588.284 -1.56567 -0.180126 0
M  V30 6088 C 589.532 -1.81133 -0.896392 0
M  V30 6089 C 589.853 -0.669114 -1.83161 0
M  V30 6090 O 589.123 0.311616 -1.93406 0
M  V30 6091 H 587.703 -0.668172 -0.333999 0
M  V30 6092 H 590.365 -1.94048 -0.182051 0
M  V30 6093 H 589.461 -2.74854 -1.47857 0
M  V30 6094 N 589.762 0.448376 -1.51087 0
M  V30 6095 C 590.672 1.56882 -1.74428 0
M  V30 6096 C 591.688 1.62268 -0.62809 0
M  V30 6097 O 592.864 1.79716 -0.909075 0
M  V30 6098 C 589.929 2.92947 -1.85426 0
M  V30 6099 C 588.99 2.97766 -3.09247 0
M  V30 6100 C 588.223 4.27341 -3.19711 0
M  V30 6101 O 588.446 5.19112 -2.36387 0
M  V30 6102 O 587.38 4.38219 -4.12611 0
M  V30 6103 H 591.206 1.40104 -2.69452 0
M  V30 6104 H 588.791 0.630247 -1.35456 0
M  V30 6105 H 590.673 3.73719 -1.94709 0
M  V30 6106 H 589.348 3.09876 -0.935887 0
M  V30 6107 H 588.255 2.15989 -3.0545 0
M  V30 6108 H 589.588 2.8578 -4.00738 0
M  V30 6109 N 591.24 1.41047 0.703093 0
M  V30 6110 C 592.47 1.43133 1.48985 0
M  V30 6111 C 592.878 0.0328537 1.89171 0
M  V30 6112 O 592.221 -0.956469 1.56835 0
M  V30 6113 C 592.283 2.26991 2.78775 0
M  V30 6114 C 591.947 3.7525 2.60837 0
M  V30 6115 C 592.944 4.67591 2.27276 0
M  V30 6116 C 590.629 4.19208 2.76712 0
M  V30 6117 C 592.623 6.01877 2.09817 0
M  V30 6118 C 590.31 5.53561 2.5887 0
M  V30 6119 C 591.308 6.4471 2.25472 0
M  V30 6120 O 590.996 7.76584 2.07778 0
M  V30 6121 H 590.728 0.489788 0.465922 0
M  V30 6122 H 593.282 1.85886 0.873822 0
M  V30 6123 H 591.512 1.79038 3.42757 0
M  V30 6124 H 593.201 2.20867 3.40547 0
M  V30 6125 H 593.967 4.34923 2.14633 0
M  V30 6126 H 589.846 3.48572 3.01693 0
M  V30 6127 H 593.39 6.72986 1.83671 0
M  V30 6128 H 589.287 5.85811 2.71102 0
M  V30 6129 H 590.055 7.87649 2.22601 0
M  V30 6130 N 592.718 -0.936591 1.26751 0
M  V30 6131 C 593.668 -2.0219 1.05371 0
M  V30 6132 C 594.652 -1.60893 -0.0154112 0
M  V30 6133 O 595.844 -1.75843 0.202085 0
M  V30 6134 C 592.973 -3.36222 0.693541 0
M  V30 6135 C 592.059 -3.8399 1.80035 0
M  V30 6136 N 592.45 -4.0436 3.03852 0
M  V30 6137 C 590.748 -4.12945 1.685 0
M  V30 6138 C 591.449 -4.44 3.75818 0
M  V30 6139 N 590.425 -4.50966 3.03531 0
M  V30 6140 H 594.227 -2.15958 1.99347 0
M  V30 6141 H 591.741 -1.12277 1.17335 0
M  V30 6142 H 593.738 -4.13625 0.521513 0
M  V30 6143 H 592.398 -3.23821 -0.238693 0
M  V30 6144 H 593.409 -3.9092 3.39709 0
M  V30 6145 H 590.086 -4.09308 0.822986 0
M  V30 6146 H 591.476 -4.67914 4.82189 0
M  V30 6147 N 594.196 -1.08629 -1.14182 0
M  V30 6148 C 595.436 -0.826884 -1.86928 0
M  V30 6149 C 595.8 0.635808 -1.81167 0
M  V30 6150 O 597.001 1.0108 -2.49071 0
M  V30 6151 C 595.272 -1.33721 -3.31442 0
M  V30 6152 S 596.831 -1.21045 -4.21774 0
M  V30 6153 H 593.649 -0.299286 -0.644941 0
M  V30 6154 H 596.251 -1.38802 -1.37674 0
M  V30 6155 H 594.955 -2.39617 -3.33184 0
M  V30 6156 H 594.486 -0.771839 -3.85754 0
M  V30 6157 H 596.501 -0.156168 -4.95954 0
M  V30 6158 N 595.674 1.31259 -0.872281 0
M  V30 6159 C 596.637 2.26744 -0.334656 0
M  V30 6160 C 597.637 1.52307 0.515681 0
M  V30 6161 O 598.827 1.71148 0.324656 0
M  V30 6162 C 595.959 3.36841 0.524482 0
M  V30 6163 H 597.152 2.75812 -1.17762 0
M  V30 6164 H 594.705 1.42232 -0.648064 0
M  V30 6165 H 595.44 2.93069 1.38855 0
M  V30 6166 H 595.225 3.92009 -0.0844299 0
M  V30 6167 H 596.715 4.07944 0.892838 0
M  V30 6168 N 597.152 0.631951 1.44375 0
M  V30 6169 C 598.4 0.136497 2.01639 0
M  V30 6170 C 598.721 -1.24637 1.49969 0
M  V30 6171 O 597.991 -1.82827 0.70363 0
M  V30 6172 H 596.571 0.0474703 0.74549 0
M  V30 6173 H 599.233 0.818837 1.76865 0
M  V30 6174 H 598.329 0.104817 3.11924 0
M  V30 6175 N 598.631 -1.53133 0.372548 0
M  V30 6176 C 599.579 -2.27473 -0.485681 0
M  V30 6177 C 600.573 -1.30719 -1.07745 0
M  V30 6178 O 601.779 -1.48321 -1.01985 0
M  V30 6179 H 598.154 -0.731269 -0.175356 0
M  V30 6180 H 600.125 -2.97955 0.162986 0
M  V30 6181 C 598.874 -3.08191 -1.60978 0
M  V30 6182 H 598.197 -3.82488 -1.16373 0
M  V30 6183 H 599.637 -3.63373 -2.18485 0
M  V30 6184 C 598.096 -2.19461 -2.55614 0
M  V30 6185 O 598.626 -1.81008 -3.58607 0
M  V30 6186 N 596.832 -1.83955 -2.24965 0
M  V30 6187 H 596.379 -2.15423 -1.41247 0
M  V30 6188 H 596.337 -1.24874 -2.88538 0
M  V30 6189 N 600.109 -0.101901 -1.5727 0
M  V30 6190 C 601.357 0.559091 -1.94213 0
M  V30 6191 C 601.678 1.68297 -0.984948 0
M  V30 6192 O 600.948 1.95863 -0.0381975 0
M  V30 6193 H 599.528 0.20952 -0.717015 0
M  V30 6194 H 602.19 -0.166831 -1.94185 0
M  V30 6195 H 601.286 0.96485 -2.96811 0
M  V30 6196 N 601.587 1.56661 0.17182 0
M  V30 6197 C 602.812 1.86459 0.908165 0
M  V30 6198 C 603.237 0.688181 1.75059 0
M  V30 6199 O 602.595 -0.362753 1.77634 0
M  V30 6200 C 602.643 3.14669 1.76112 0
M  V30 6201 O 601.747 2.96858 2.86268 0
M  V30 6202 H 601.088 0.613318 0.254434 0
M  V30 6203 H 603.618 2.03892 0.170113 0
M  V30 6204 H 603.628 3.46061 2.16115 0
M  V30 6205 H 602.303 3.99905 1.14233 0
M  V30 6206 H 600.88 2.76819 2.49852 0
M  V30 6207 N 603.065 -0.440357 1.51323 0
M  V30 6208 C 604.311 -1.18874 1.65047 0
M  V30 6209 C 604.666 -1.88988 0.360742 0
M  V30 6210 O 603.959 -1.80479 -0.643272 0
M  V30 6211 C 604.153 -2.2339 2.78984 0
M  V30 6212 C 603.982 -1.63534 4.18911 0
M  V30 6213 C 602.752 -1.42158 4.84891 0
M  V30 6214 C 604.95 -1.11324 5.02107 0
M  V30 6215 N 602.932 -0.778679 6.08942 0
M  V30 6216 C 604.303 -0.595421 6.17134 0
M  V30 6217 C 606.358 -1.00471 4.87658 0
M  V30 6218 C 605.061 0.0202557 7.19297 0
M  V30 6219 C 607.087 -0.402928 5.90026 0
M  V30 6220 C 606.449 0.10436 7.04323 0
M  V30 6221 H 602.548 -0.422771 0.657866 0
M  V30 6222 H 605.132 -0.485814 1.88542 0
M  V30 6223 H 603.303 -2.91074 2.57158 0
M  V30 6224 H 605.035 -2.90366 2.81904 0
M  V30 6225 H 601.79 -1.68247 4.42707 0
M  V30 6226 H 602.214 -0.474755 6.75333 0
M  V30 6227 H 606.856 -1.38278 3.99548 0
M  V30 6228 H 604.574 0.410468 8.07057 0
M  V30 6229 H 608.16 -0.320897 5.80914 0
M  V30 6230 H 607.04 0.562697 7.82179 0
M  V30 6231 N 604.543 -1.41418 -0.695603 0
M  V30 6232 C 605.789 -1.40982 -1.4578 0
M  V30 6233 C 606.122 -0.0187763 -1.94191 0
M  V30 6234 O 605.397 0.95346 -1.69527 0
M  V30 6235 C 605.68 -2.41657 -2.66972 0
M  V30 6236 C 605.533 -3.89869 -2.24327 0
M  V30 6237 C 606.852 -2.39589 -3.69168 0
M  V30 6238 H 603.971 -0.513405 -0.528757 0
M  V30 6239 H 606.613 -1.72693 -0.792275 0
M  V30 6240 H 604.763 -2.14746 -3.23754 0
M  V30 6241 H 606.435 -4.27683 -1.72872 0
M  V30 6242 H 604.678 -4.04737 -1.56111 0
M  V30 6243 H 605.349 -4.55857 -3.11285 0
M  V30 6244 H 607.825 -2.63471 -3.2206 0
M  V30 6245 H 606.701 -3.12044 -4.51575 0
M  V30 6246 H 606.962 -1.41447 -4.18862 0
M  V30 6247 N 606.021 0.929856 -1.27246 0
M  V30 6248 C 606.969 2.05151 -1.09616 0
M  V30 6249 C 607.963 1.69388 -0.0198617 0
M  V30 6250 O 609.169 1.79124 -0.177417 0
M  V30 6251 H 605.544 0.671909 -0.337701 0
M  V30 6252 H 607.515 2.17168 -2.04648 0
M  V30 6253 C 606.264 3.3934 -0.757851 0
M  V30 6254 H 605.587 3.67343 -1.57795 0
M  V30 6255 H 607.027 4.18603 -0.674358 0
M  V30 6256 C 605.486 3.32582 0.537658 0
M  V30 6257 O 606.016 3.69633 1.57271 0
M  V30 6258 N 604.222 2.8568 0.532478 0
M  V30 6259 H 603.769 2.55725 -0.310233 0
M  V30 6260 H 603.727 2.81541 1.39936 0
M  V30 6261 N 607.499 1.09233 1.13605 0
M  V30 6262 C 608.409 0.741939 2.22559 0
M  V30 6263 C 609.425 -0.255236 1.72118 0
M  V30 6264 O 610.601 -0.0970747 2.01166 0
M  V30 6265 C 607.666 0.165595 3.46304 0
M  V30 6266 C 606.727 1.21846 4.11645 0
M  V30 6267 C 605.96 0.669526 5.29484 0
M  V30 6268 O 606.183 -0.508228 5.68131 0
M  V30 6269 O 605.117 1.42361 5.84822 0
M  V30 6270 H 608.943 1.65107 2.54899 0
M  V30 6271 H 606.528 0.866584 1.21699 0
M  V30 6272 H 608.41 -0.152592 4.21124 0
M  V30 6273 H 607.085 -0.716573 3.15669 0
M  V30 6274 H 605.992 1.58931 3.38662 0
M  V30 6275 H 607.325 2.07321 4.46407 0
M  V30 6276 N 608.977 -1.30795 0.87923 0
M  V30 6277 C 610.223 -1.96653 0.495519 0
M  V30 6278 C 610.556 -1.69282 -0.951703 0
M  V30 6279 O 609.831 -0.994374 -1.6716 0
M  V30 6280 C 610.114 -3.51898 0.764174 0
M  V30 6281 C 609.967 -3.88808 2.2616 0
M  V30 6282 C 611.286 -4.39462 0.236825 0
M  V30 6283 H 608.405 -0.7143 0.181507 0
M  V30 6284 H 611.047 -1.54765 1.10217 0
M  V30 6285 H 609.197 -3.87709 0.247841 0
M  V30 6286 H 610.869 -3.63051 2.8459 0
M  V30 6287 H 609.112 -3.37082 2.73053 0
M  V30 6288 H 609.783 -4.97086 2.4002 0
M  V30 6289 H 612.259 -4.10528 0.678683 0
M  V30 6290 H 611.135 -5.47018 0.454176 0
M  V30 6291 H 611.396 -4.33621 -0.861683 0
M  V30 6292 N 610.455 -0.639598 -1.44038 0
M  V30 6293 C 611.385 0.0469443 -2.33453 0
M  V30 6294 C 612.366 0.82609 -1.48694 0
M  V30 6295 O 613.551 0.790285 -1.77393 0
M  V30 6296 C 610.681 1.02338 -3.3188 0
M  V30 6297 C 609.635 0.355284 -4.26523 0
M  V30 6298 C 608.961 1.44221 -5.14883 0
M  V30 6299 C 610.261 -0.743798 -5.16977 0
M  V30 6300 H 611.955 -0.699735 -2.91108 0
M  V30 6301 H 609.501 -0.337946 -1.39978 0
M  V30 6302 H 611.454 1.51247 -3.93322 0
M  V30 6303 H 610.178 1.80105 -2.72451 0
M  V30 6304 H 608.837 -0.113239 -3.66425 0
M  V30 6305 H 608.485 2.21097 -4.51802 0
M  V30 6306 H 608.185 1.00052 -5.79019 0
M  V30 6307 H 609.709 1.93295 -5.79197 0
M  V30 6308 H 611.123 -0.337444 -5.72306 0
M  V30 6309 H 609.52 -1.10914 -5.89761 0
M  V30 6310 H 610.59 -1.60745 -4.57481 0
M  V30 6311 N 611.933 1.52934 -0.380664 0
M  V30 6312 C 613.181 2.01069 0.203874 0
M  V30 6313 C 613.502 1.26922 1.4804 0
M  V30 6314 O 612.772 0.386787 1.92044 0
M  V30 6315 H 611.352 0.742882 0.0783279 0
M  V30 6316 H 614.014 1.88099 -0.510368 0
M  V30 6317 H 613.11 3.09258 0.42021 0
M  V30 6318 N 613.412 0.11024 1.57214 0
M  V30 6319 C 614.823 -0.416527 1.81994 0
M  V30 6320 C 615.174 -1.67183 1.02686 0
M  V30 6321 O 614.299 -2.14823 0.260782 0
M  V30 6322 C 614.894 -0.762466 3.30109 0
M  V30 6323 C 613.453 -1.23391 3.556 0
M  V30 6324 C 612.6 -0.238166 2.76275 0
M  V30 6325 H 615.551 0.335491 1.55113 0
M  V30 6326 H 615.572 -1.62068 3.44259 0
M  V30 6327 H 615.084 0.151346 3.87805 0
M  V30 6328 H 613.185 -2.16492 3.03253 0
M  V30 6329 H 613.298 -1.18528 4.64207 0
M  V30 6330 H 611.662 -0.723421 2.4421 0
M  V30 6331 H 612.445 0.668591 3.36727 0
M  V30 6332 N 614.89 -1.56749 -0.16351 0
M  V30 6333 C 615.8 -2.00255 -1.2221 0
M  V30 6334 C 616.816 -0.915194 -1.47987 0
M  V30 6335 O 617.992 -1.22342 -1.59982 0
M  V30 6336 C 615.057 -2.36035 -2.53946 0
M  V30 6337 C 614.118 -3.58637 -2.35962 0
M  V30 6338 C 613.351 -3.92701 -3.61416 0
M  V30 6339 O 613.574 -3.27632 -4.66919 0
M  V30 6340 O 612.508 -4.86019 -3.55062 0
M  V30 6341 H 616.334 -2.90586 -0.882794 0
M  V30 6342 H 613.919 -1.44721 -0.370978 0
M  V30 6343 H 615.801 -2.59982 -3.31643 0
M  V30 6344 H 614.476 -1.48863 -2.8744 0
M  V30 6345 H 613.383 -3.39898 -1.5627 0
M  V30 6346 H 614.716 -4.46374 -2.0739 0
M  V30 6347 N 616.368 0.432326 -1.51554 0
M  V30 6348 C 617.298 1.53242 -1.76179 0
M  V30 6349 C 618.279 1.58717 -0.611801 0
M  V30 6350 O 619.464 1.74364 -0.855033 0
M  V30 6351 C 616.594 2.91278 -1.89141 0
M  V30 6352 C 615.548 3.00663 -3.04608 0
M  V30 6353 C 614.874 4.40728 -3.02759 0
M  V30 6354 C 616.174 2.74281 -4.44485 0
M  V30 6355 H 617.868 1.32886 -2.68294 0
M  V30 6356 H 615.414 0.637841 -1.29103 0
M  V30 6357 H 617.367 3.68203 -2.04951 0
M  V30 6358 H 616.091 3.12877 -0.936785 0
M  V30 6359 H 614.75 2.26179 -2.88511 0
M  V30 6360 H 614.398 4.59301 -2.05065 0
M  V30 6361 H 614.098 4.47936 -3.80299 0
M  V30 6362 H 615.622 5.19619 -3.20669 0
M  V30 6363 H 617.036 3.40936 -4.60907 0
M  V30 6364 H 615.433 2.92893 -5.23769 0
M  V30 6365 H 616.503 1.69856 -4.54177 0
M  V30 6366 N 617.846 1.41785 0.688094 0
M  V30 6367 C 619.257 1.3701 1.26828 0
M  V30 6368 C 619.608 0.056835 1.96118 0
M  V30 6369 O 618.733 -0.84475 1.99231 0
M  V30 6370 C 619.328 2.48168 2.30648 0
M  V30 6371 C 617.887 2.46766 2.84224 0
M  V30 6372 C 617.034 2.27633 1.58361 0
M  V30 6373 H 619.985 1.51192 0.482351 0
M  V30 6374 H 620.006 2.17655 3.121 0
M  V30 6375 H 619.518 3.43735 1.80188 0
M  V30 6376 H 617.619 1.54978 3.3884 0
M  V30 6377 H 617.732 3.43342 3.34145 0
M  V30 6378 H 616.096 1.75648 1.84445 0
M  V30 6379 H 616.879 3.25238 1.09887 0
M  V30 6380 N 619.324 -0.923095 1.27737 0
M  V30 6381 C 620.271 -2.02432 1.1086 0
M  V30 6382 C 621.241 -1.66098 0.00835195 0
M  V30 6383 O 622.426 -1.90027 0.171542 0
M  V30 6384 C 619.566 -3.36476 0.766671 0
M  V30 6385 C 618.679 -3.85737 1.94501 0
M  V30 6386 C 617.814 -5.08249 1.54455 0
M  V30 6387 C 616.853 -5.49818 2.6901 0
M  V30 6388 N 615.99 -6.63524 2.29521 0
M  V30 6389 H 620.83 -2.16201 2.05089 0
M  V30 6390 H 618.367 -1.05909 1.02087 0
M  V30 6391 H 620.325 -4.13569 0.549223 0
M  V30 6392 H 618.955 -3.22502 -0.13867 0
M  V30 6393 H 618.007 -3.04883 2.27487 0
M  V30 6394 H 619.319 -4.12513 2.80419 0
M  V30 6395 H 618.473 -5.92857 1.28862 0
M  V30 6396 H 617.212 -4.83261 0.656534 0
M  V30 6397 H 616.217 -4.63757 2.95313 0
M  V30 6398 H 617.442 -5.76799 3.5844 0
M  V30 6399 H 615.388 -6.40185 1.43177 0
M  V30 6400 H 615.305 -6.89978 3.08977 0
M  V30 6401 H 616.573 -7.51461 2.07187 0
M  V30 6402 N 620.802 -1.09834 -1.13024 0
M  V30 6403 C 622.042 -0.846664 -1.8604 0
M  V30 6404 C 622.406 0.616557 -1.81831 0
M  V30 6405 O 623.607 0.984329 -2.50129 0
M  V30 6406 C 621.878 -1.37228 -3.30005 0
M  V30 6407 S 623.437 -1.25511 -4.20467 0
M  V30 6408 H 620.255 -0.30611 -0.64173 0
M  V30 6409 H 622.857 -1.40255 -1.36194 0
M  V30 6410 H 621.561 -2.43138 -3.30624 0
M  V30 6411 H 621.092 -0.81271 -3.84914 0
M  V30 6412 H 623.107 -0.208762 -4.95761 0
M  V30 6413 N 622.28 1.30327 -0.886154 0
M  V30 6414 C 623.526 1.96388 -0.505941 0
M  V30 6415 C 623.859 1.69784 0.942712 0
M  V30 6416 O 623.134 1.00322 1.6663 0
M  V30 6417 C 623.417 3.51488 -0.782826 0
M  V30 6418 C 623.27 3.87603 -2.28219 0
M  V30 6419 C 624.589 4.39331 -0.260128 0
M  V30 6420 H 621.708 0.713327 -0.185292 0
M  V30 6421 H 624.35 1.54178 -1.11036 0
M  V30 6422 H 622.5 3.87572 -0.268399 0
M  V30 6423 H 624.172 3.61537 -2.86512 0
M  V30 6424 H 622.415 3.3563 -2.74837 0
M  V30 6425 H 623.086 4.95806 -2.42653 0
M  V30 6426 H 625.562 4.10162 -0.700444 0
M  V30 6427 H 624.438 5.46769 -0.483179 0
M  V30 6428 H 624.699 4.34072 0.838674 0
M  V30 6429 N 623.758 0.647228 1.43697 0
M  V30 6430 C 625.169 0.238689 1.85168 0
M  V30 6431 C 625.52 -1.21345 1.54175 0
M  V30 6432 O 624.645 -1.92542 0.987743 0
M  V30 6433 C 625.24 0.426422 3.36106 0
M  V30 6434 C 623.799 0.0722541 3.76331 0
M  V30 6435 C 622.946 0.732153 2.6746 0
M  V30 6436 H 625.897 0.851309 1.33934 0
M  V30 6437 H 625.918 -0.32987 3.79067 0
M  V30 6438 H 625.43 1.48339 3.58632 0
M  V30 6439 H 623.531 -0.982355 3.59417 0
M  V30 6440 H 623.644 0.493541 4.76551 0
M  V30 6441 H 622.008 0.16594 2.54159 0
M  V30 6442 H 622.791 1.79204 2.92816 0
M  V30 6443 N 625.236 -1.5273 0.388769 0
M  V30 6444 C 626.482 -2.01871 -0.193877 0
M  V30 6445 C 626.815 -1.27475 -1.46505 0
M  V30 6446 O 626.09 -0.375063 -1.90849 0
M  V30 6447 C 626.373 -3.5712 -0.462336 0
M  V30 6448 C 626.226 -4.42186 0.824091 0
M  V30 6449 C 627.545 -4.21881 -1.25319 0
M  V30 6450 H 624.664 -0.733764 -0.0689899 0
M  V30 6451 H 627.306 -1.82796 0.518231 0
M  V30 6452 H 625.456 -3.73504 -1.06896 0
M  V30 6453 H 627.128 -4.37554 1.46096 0
M  V30 6454 H 625.371 -4.09219 1.43952 0
M  V30 6455 H 626.042 -5.48828 0.590905 0
M  V30 6456 H 628.518 -4.0947 -0.73981 0
M  V30 6457 H 627.394 -5.30487 -1.40977 0
M  V30 6458 H 627.655 -3.79478 -2.26824 0
M  V30 6459 N 626.714 -0.118576 -1.57153 0
M  V30 6460 C 627.954 0.542618 -1.97066 0
M  V30 6461 C 628.318 1.63874 -1.00046 0
M  V30 6462 O 629.519 2.3588 -1.28895 0
M  V30 6463 C 627.79 1.06196 -3.41258 0
M  V30 6464 S 629.349 1.73174 -4.03183 0
M  V30 6465 H 626.167 0.17638 -0.688775 0
M  V30 6466 H 628.769 -0.203556 -1.94437 0
M  V30 6467 H 627.473 0.253016 -4.09619 0
M  V30 6468 H 627.004 1.84342 -3.47536 0
M  V30 6469 H 629.019 3.01749 -3.93906 0
M  V30 6470 N 628.193 1.56834 0.155195 0
M  V30 6471 C 629.441 1.82536 0.867462 0
M  V30 6472 C 629.762 0.698168 1.82073 0
M  V30 6473 O 629.032 -0.280807 1.93877 0
M  V30 6474 H 627.612 0.673401 0.323327 0
M  V30 6475 H 630.274 1.94313 0.151156 0
M  V30 6476 H 629.37 2.77171 1.43466 0
M  V30 6477 N 629.671 -0.424282 1.51781 0
M  V30 6478 C 630.917 -1.17434 1.6534 0
M  V30 6479 C 631.25 -1.90549 0.374806 0
M  V30 6480 O 630.525 -1.84145 -0.626179 0
M  V30 6481 C 630.808 -2.18093 2.86544 0
M  V30 6482 C 630.661 -1.48975 4.24413 0
M  V30 6483 C 631.98 -3.18934 3.03264 0
M  V30 6484 H 629.099 -0.425566 0.601716 0
M  V30 6485 H 631.741 -0.461921 1.84299 0
M  V30 6486 H 629.891 -2.78849 2.7051 0
M  V30 6487 H 631.563 -0.914551 4.52143 0
M  V30 6488 H 629.806 -0.791893 4.26511 0
M  V30 6489 H 630.477 -2.22347 5.05238 0
M  V30 6490 H 632.953 -2.68243 3.18096 0
M  V30 6491 H 631.829 -3.86645 3.89611 0
M  V30 6492 H 632.09 -3.85793 2.15908 0
M  V30 6493 N 631.149 -1.42148 -0.680565 0
M  V30 6494 C 632.56 -1.3768 -1.26099 0
M  V30 6495 C 632.911 -0.0672348 -1.96085 0
M  V30 6496 O 632.036 0.834172 -1.99676 0
M  V30 6497 C 632.631 -2.49387 -2.29328 0
M  V30 6498 C 631.19 -2.4827 -2.82911 0
M  V30 6499 C 630.337 -2.2847 -1.57152 0
M  V30 6500 H 633.288 -1.51446 -0.474326 0
M  V30 6501 H 633.309 -2.19307 -3.10941 0
M  V30 6502 H 632.821 -3.44686 -1.78363 0
M  V30 6503 H 630.922 -1.56773 -3.38013 0
M  V30 6504 H 631.035 -3.45109 -3.3232 0
M  V30 6505 H 629.399 -1.76623 -1.83511 0
M  V30 6506 H 630.182 -3.25816 -1.0816 0
M  V30 6507 N 632.627 0.916307 -1.28225 0
M  V30 6508 C 634.043 1.19425 -1.05876 0
M  V30 6509 C 634.243 2.005 0.2005 0
M  V30 6510 O 633.299 2.35806 0.902873 0
M  V30 6511 C 634.612 1.93133 -2.30478 0
M  V30 6512 C 636.16 2.06026 -2.35632 0
M  V30 6513 C 636.635 2.83141 -3.59994 0
M  V30 6514 N 638.126 2.90704 -3.60618 0
M  V30 6515 C 638.861 3.50865 -4.53521 0
M  V30 6516 N 638.357 4.12327 -5.56739 0
M  V30 6517 N 640.15 3.48379 -4.41122 0
M  V30 6518 H 632.301 0.37496 -2.09064 0
M  V30 6519 H 634.564 0.228531 -0.920042 0
M  V30 6520 H 634.27 1.40985 -3.22205 0
M  V30 6521 H 634.144 2.93696 -2.36691 0
M  V30 6522 H 636.531 2.57355 -1.44404 0
M  V30 6523 H 636.612 1.04647 -2.33415 0
M  V30 6524 H 636.256 2.32492 -4.51564 0
M  V30 6525 H 636.186 3.84829 -3.59464 0
M  V30 6526 H 638.677 2.47034 -2.85977 0
M  V30 6527 H 638.99 4.56205 -6.23776 0
M  V30 6528 H 637.335 4.10839 -5.60568 0
M  V30 6529 H 640.526 2.99572 -3.59686 0
M  V30 6530 H 640.699 3.94974 -5.13712 0
M  V30 6531 N 634.105 1.10431 1.1244 0
M  V30 6532 C 635.015 0.765502 2.21759 0
M  V30 6533 C 636.031 -0.236966 1.72379 0
M  V30 6534 O 637.207 -0.0757329 2.01258 0
M  V30 6535 C 634.272 0.202316 3.46109 0
M  V30 6536 C 633.333 1.26205 4.1033 0
M  V30 6537 C 632.566 0.725648 5.28744 0
M  V30 6538 O 632.789 -0.447942 5.68638 0
M  V30 6539 O 631.723 1.48555 5.83279 0
M  V30 6540 H 635.549 1.67801 2.53133 0
M  V30 6541 H 633.134 0.879443 1.20773 0
M  V30 6542 H 635.016 -0.107918 4.21262 0
M  V30 6543 H 633.691 -0.683052 3.16411 0
M  V30 6544 H 632.598 1.62514 3.36957 0
M  V30 6545 H 633.931 2.12044 4.44183 0
M  V30 6546 N 635.583 -1.29855 0.893053 0
M  V30 6547 C 636.994 -1.77946 0.564998 0
M  V30 6548 C 637.345 -1.73339 -0.919134 0
M  V30 6549 O 636.47 -1.3152 -1.71847 0
M  V30 6550 C 637.065 -3.23118 1.01883 0
M  V30 6551 C 635.624 -3.69013 0.742051 0
M  V30 6552 C 634.771 -2.50121 1.19727 0
M  V30 6553 H 637.722 -1.16611 1.07646 0
M  V30 6554 H 637.743 -3.78875 0.351249 0
M  V30 6555 H 637.255 -3.26439 2.09903 0
M  V30 6556 H 635.356 -3.71173 -0.325816 0
M  V30 6557 H 635.469 -4.60117 1.33527 0
M  V30 6558 H 633.833 -2.47128 0.616418 0
M  V30 6559 H 634.616 -2.56174 2.28538 0
M  V30 6560 N 637.061 -0.65484 -1.43351 0
M  V30 6561 C 638.308 -0.168892 -2.01794 0
M  V30 6562 C 638.636 1.2177 -1.51665 0
M  V30 6563 O 637.891 1.82717 -0.70092 0
M  V30 6564 C 638.19 -0.130424 -3.57162 0
M  V30 6565 C 637.856 -1.45898 -4.26643 0
M  V30 6566 C 636.518 -1.82279 -4.4534 0
M  V30 6567 C 638.87 -2.33485 -4.65976 0
M  V30 6568 C 636.198 -3.0591 -5.00635 0
M  V30 6569 C 638.55 -3.5641 -5.22642 0
M  V30 6570 C 637.214 -3.92985 -5.39555 0
M  V30 6571 H 636.484 -0.061802 -0.738418 0
M  V30 6572 H 639.131 -0.845869 -1.71806 0
M  V30 6573 H 637.436 0.630008 -3.86702 0
M  V30 6574 H 639.133 0.262465 -4.0014 0
M  V30 6575 H 635.723 -1.16591 -4.12437 0
M  V30 6576 H 639.907 -2.06668 -4.51223 0
M  V30 6577 H 635.163 -3.34295 -5.11915 0
M  V30 6578 H 639.337 -4.24495 -5.52066 0
M  V30 6579 H 636.964 -4.88862 -5.82167 0
M  V30 6580 N 638.539 1.52521 -0.396863 0
M  V30 6581 C 639.449 2.30403 0.44178 0
M  V30 6582 C 640.465 1.37625 1.06468 0
M  V30 6583 O 641.641 1.70697 1.06886 0
M  V30 6584 C 638.706 3.1013 1.54986 0
M  V30 6585 C 637.767 4.18628 0.951279 0
M  V30 6586 C 637 4.94543 2.00655 0
M  V30 6587 O 637.223 4.70629 3.22281 0
M  V30 6588 O 636.157 5.797 1.61962 0
M  V30 6589 H 639.983 3.03087 -0.192892 0
M  V30 6590 H 637.568 1.48537 -0.16038 0
M  V30 6591 H 639.45 3.59816 2.19341 0
M  V30 6592 H 638.125 2.40251 2.16935 0
M  V30 6593 H 637.032 3.73119 0.270773 0
M  V30 6594 H 638.365 4.90763 0.375887 0
M  V30 6595 N 640.017 0.126909 1.57088 0
M  V30 6596 C 640.927 -0.833867 2.1928 0
M  V30 6597 C 641.943 -1.2868 1.17122 0
M  V30 6598 O 643.119 -1.34815 1.49622 0
M  V30 6599 C 640.184 -2.0632 2.78627 0
M  V30 6600 C 639.245 -1.66143 3.95847 0
M  V30 6601 C 638.478 -2.83217 4.52354 0
M  V30 6602 O 638.701 -3.98868 4.0775 0
M  V30 6603 O 637.635 -2.59846 5.42922 0
M  V30 6604 H 641.461 -0.334564 3.01852 0
M  V30 6605 H 639.046 -0.0991091 1.49071 0
M  V30 6606 H 640.928 -2.78304 3.16425 0
M  V30 6607 H 639.603 -2.55242 1.99082 0
M  V30 6608 H 638.51 -0.912435 3.62802 0
M  V30 6609 H 639.843 -1.21957 4.76852 0
M  V30 6610 N 641.495 -1.56914 -0.146875 0
M  V30 6611 C 642.442 -1.98275 -1.18134 0
M  V30 6612 C 643.412 -0.850367 -1.42681 0
M  V30 6613 O 644.597 -1.11244 -1.55014 0
M  V30 6614 C 641.737 -2.36861 -2.5098 0
M  V30 6615 C 640.85 -3.63391 -2.33605 0
M  V30 6616 C 639.985 -3.91079 -3.59486 0
M  V30 6617 C 639.024 -5.10879 -3.37149 0
M  V30 6618 N 638.161 -5.34577 -4.55161 0
M  V30 6619 H 643.001 -2.8645 -0.821622 0
M  V30 6620 H 640.538 -1.41718 -0.394248 0
M  V30 6621 H 642.496 -2.57262 -3.28439 0
M  V30 6622 H 641.126 -1.51766 -2.84898 0
M  V30 6623 H 640.178 -3.50766 -1.47199 0
M  V30 6624 H 641.49 -4.51007 -2.13059 0
M  V30 6625 H 640.644 -4.11979 -4.45374 0
M  V30 6626 H 639.383 -3.01885 -3.83036 0
M  V30 6627 H 638.388 -4.89853 -2.49649 0
M  V30 6628 H 639.613 -6.01626 -3.14997 0
M  V30 6629 H 637.559 -4.48337 -4.78884 0
M  V30 6630 H 637.476 -6.16463 -4.37618 0
M  V30 6631 H 638.744 -5.59975 -5.42263 0
M  V30 6632 N 642.974 0.416227 -1.52004 0
M  V30 6633 C 643.906 1.52552 -1.71058 0
M  V30 6634 C 644.919 1.51693 -0.59102 0
M  V30 6635 O 646.108 1.56087 -0.865973 0
M  V30 6636 C 643.208 2.91455 -1.72937 0
M  V30 6637 C 642.381 3.16584 -3.01816 0
M  V30 6638 C 641.44 4.35322 -2.95603 0
M  V30 6639 O 640.466 4.32947 -3.6952 0
M  V30 6640 N 641.668 5.40049 -2.12903 0
M  V30 6641 H 644.433 1.36604 -2.66757 0
M  V30 6642 H 641.994 0.60544 -1.50153 0
M  V30 6643 H 643.986 3.68944 -1.66321 0
M  V30 6644 H 642.556 3.00895 -0.847418 0
M  V30 6645 H 641.776 2.27203 -3.22137 0
M  V30 6646 H 643.064 3.30213 -3.87088 0
M  V30 6647 H 642.462 5.44823 -1.52265 0
M  V30 6648 H 641.019 6.16308 -2.1215 0
M  V30 6649 N 644.452 1.42507 0.673017 0
M  V30 6650 C 645.868 1.25472 0.986355 0
M  V30 6651 C 646.068 0.160181 2.00862 0
M  V30 6652 O 645.124 -0.467993 2.48125 0
M  V30 6653 C 646.437 2.61219 1.48947 0
M  V30 6654 C 647.985 2.68589 1.60715 0
M  V30 6655 C 648.46 4.04707 2.14422 0
M  V30 6656 N 649.951 4.0667 2.21752 0
M  V30 6657 C 650.686 5.0881 2.64386 0
M  V30 6658 N 650.182 6.21332 3.0646 0
M  V30 6659 N 651.975 4.96166 2.64151 0
M  V30 6660 H 644.126 2.124 -0.00378532 0
M  V30 6661 H 646.389 0.946046 0.0608367 0
M  V30 6662 H 646.095 3.42179 0.812812 0
M  V30 6663 H 645.969 2.85261 2.46791 0
M  V30 6664 H 648.356 1.87974 2.27486 0
M  V30 6665 H 648.437 2.48333 0.613552 0
M  V30 6666 H 648.081 4.8578 1.48258 0
M  V30 6667 H 648.011 4.22315 3.14575 0
M  V30 6668 H 650.502 3.25438 1.92089 0
M  V30 6669 H 650.815 6.95118 3.37684 0
M  V30 6670 H 649.16 6.24835 3.04313 0
M  V30 6671 H 652.351 4.07334 2.30644 0
M  V30 6672 H 652.524 5.759 2.97057 0
M  V30 6673 N 645.93 -0.909495 1.28709 0
M  V30 6674 C 647.179 -1.65365 1.15487 0
M  V30 6675 C 647.492 -1.93364 -0.294941 0
M  V30 6676 O 648.698 -2.65905 -0.548338 0
M  V30 6677 C 647.154 -2.97923 2.01916 0
M  V30 6678 C 646.762 -2.77556 3.51663 0
M  V30 6679 C 648.506 -3.75814 1.97393 0
M  V30 6680 C 646.413 -4.0578 4.30229 0
M  V30 6681 H 645.343 -0.620323 0.42862 0
M  V30 6682 H 647.994 -1.00894 1.53273 0
M  V30 6683 H 646.376 -3.63552 1.5699 0
M  V30 6684 H 647.55 -2.2058 4.04575 0
M  V30 6685 H 645.865 -2.13072 3.57756 0
M  V30 6686 H 648.462 -4.70866 2.53357 0
M  V30 6687 H 648.805 -4.05277 0.951643 0
M  V30 6688 H 649.338 -3.1701 2.40311 0
M  V30 6689 H 646.077 -3.81488 5.33055 0
M  V30 6690 H 645.597 -4.62351 3.82089 0
M  V30 6691 H 647.276 -4.74004 4.40374 0
M  V30 6692 N 647.408 -1.11026 -1.11852 0
M  V30 6693 C 648.657 -0.851249 -1.82857 0
M  V30 6694 C 648.97 0.62514 -1.85341 0
M  V30 6695 O 650.176 1.00026 -2.52403 0
M  V30 6696 C 648.632 -1.47309 -3.28372 0
M  V30 6697 C 648.24 -2.9832 -3.34229 0
M  V30 6698 C 649.984 -1.29373 -4.04306 0
M  V30 6699 C 647.891 -3.53509 -4.74115 0
M  V30 6700 H 646.821 -0.314794 -0.685143 0
M  V30 6701 H 649.472 -1.33499 -1.25898 0
M  V30 6702 H 647.854 -0.917017 -3.85236 0
M  V30 6703 H 649.028 -3.60295 -2.87271 0
M  V30 6704 H 647.343 -3.15482 -2.71772 0
M  V30 6705 H 649.94 -1.68042 -5.07608 0
M  V30 6706 H 650.283 -0.235879 -4.15631 0
M  V30 6707 H 650.816 -1.8182 -3.53817 0
M  V30 6708 H 647.555 -4.58987 -4.67986 0
M  V30 6709 H 647.075 -2.96305 -5.21501 0
M  V30 6710 H 648.754 -3.51693 -5.43066 0
M  V30 6711 N 648.886 1.2938 -0.899927 0
M  V30 6712 C 650.134 1.95164 -0.524924 0
M  V30 6713 C 650.455 1.71292 0.931888 0
M  V30 6714 O 649.725 1.04481 1.65712 0
M  V30 6715 H 648.305 0.722133 -0.191135 0
M  V30 6716 H 650.967 1.57628 -1.14627 0
M  V30 6717 H 650.063 3.0397 -0.707711 0
M  V30 6718 N 650.364 0.662433 1.43002 0
M  V30 6719 C 651.612 0.179237 2.01304 0
M  V30 6720 C 651.933 -1.21428 1.52579 0
M  V30 6721 O 651.203 -1.81294 0.742252 0
M  V30 6722 H 649.783 0.0632725 0.744316 0
M  V30 6723 H 652.445 0.856169 1.75088 0
M  V30 6724 H 651.541 0.170957 3.11631 0
M  V30 6725 N 651.842 -1.52309 0.404946 0
M  V30 6726 C 653.067 -2.06666 -0.1743 0
M  V30 6727 C 653.492 -1.27341 -1.38441 0
M  V30 6728 O 652.85 -0.302539 -1.78758 0
M  V30 6729 C 652.898 -3.57014 -0.507262 0
M  V30 6730 O 652.002 -3.80144 -1.59889 0
M  V30 6731 H 651.343 -0.663807 -0.0160273 0
M  V30 6732 H 653.873 -1.96297 0.576937 0
M  V30 6733 H 653.883 -4.00724 -0.767098 0
M  V30 6734 H 652.558 -4.14184 0.377368 0
M  V30 6735 H 651.135 -3.48316 -1.33155 0
M  V30 6736 N 653.32 -0.135238 -1.57019 0
M  V30 6737 C 654.597 0.563227 -1.87316 0
M  V30 6738 C 654.977 1.83749 -1.03921 0
M  V30 6739 O 654.325 2.2817 -0.122675 0
M  V30 6740 C 654.535 0.840031 -3.3874 0
M  V30 6741 C 655.883 1.18598 -4.077 0
M  V30 6742 O 656.907 0.92977 -3.43851 0
M  V30 6743 O 655.766 1.66758 -5.20436 0
M  V30 6744 H 652.86 0.285971 -0.775983 0
M  V30 6745 H 655.406 -0.170965 -1.68837 0
M  V30 6746 H 654.178 -0.0622785 -3.9125 0
M  V30 6747 H 653.801 1.62882 -3.62706 0
M  V30 6748 N 654.798 1.5699 0.138552 0
M  V30 6749 C 655.761 1.97984 1.15478 0
M  V30 6750 C 656.761 0.867416 1.35398 0
M  V30 6751 O 657.951 1.13387 1.32246 0
M  V30 6752 C 655.083 2.3031 2.51337 0
M  V30 6753 H 656.276 2.88953 0.802896 0
M  V30 6754 H 653.829 1.51555 0.382189 0
M  V30 6755 H 654.564 1.42159 2.91481 0
M  V30 6756 H 654.349 3.11425 2.38237 0
M  V30 6757 H 655.839 2.62834 3.24512 0
M  V30 6758 N 656.276 -0.40816 1.52223 0
M  V30 6759 C 657.553 -1.16807 1.56893 0
M  V30 6760 C 657.933 -2.08169 0.350537 0
M  V30 6761 O 657.281 -2.18684 -0.662536 0
M  V30 6762 C 657.491 -1.94451 2.8981 0
M  V30 6763 C 658.839 -2.50484 3.42845 0
M  V30 6764 O 659.863 -2.0463 2.91556 0
M  V30 6765 O 658.722 -3.34192 4.3241 0
M  V30 6766 H 655.816 -0.533382 0.632007 0
M  V30 6767 H 658.362 -0.414862 1.64551 0
M  V30 6768 H 657.134 -1.27527 3.69936 0
M  V30 6769 H 656.757 -2.76775 2.85449 0
M  V30 6770 N 657.755 -1.42862 -0.66545 0
M  V30 6771 C 659.004 -1.43119 -1.42126 0
M  V30 6772 C 659.317 -0.0545297 -1.95524 0
M  V30 6773 O 660.523 0.0654747 -2.71421 0
M  V30 6774 C 658.979 -2.51797 -2.5715 0
M  V30 6775 C 658.587 -3.95514 -2.10411 0
M  V30 6776 C 660.331 -2.61233 -3.346 0
M  V30 6777 C 658.238 -4.95682 -3.22573 0
M  V30 6778 H 657.168 -0.532349 -0.533966 0
M  V30 6779 H 659.819 -1.68806 -0.719506 0
M  V30 6780 H 658.201 -2.19292 -3.29738 0
M  V30 6781 H 659.375 -4.3742 -1.44915 0
M  V30 6782 H 657.69 -3.90012 -1.45874 0
M  V30 6783 H 660.287 -3.33248 -4.18151 0
M  V30 6784 H 660.63 -1.65896 -3.81817 0
M  V30 6785 H 661.163 -2.9298 -2.69087 0
M  V30 6786 H 657.902 -5.92529 -2.80338 0
M  V30 6787 H 657.422 -4.58399 -3.86821 0
M  V30 6788 H 659.101 -5.17828 -3.87896 0
M  V30 6789 N 659.233 0.902656 -1.29189 0
M  V30 6790 C 660.18 2.00643 -1.14066 0
M  V30 6791 C 661.15 1.66064 -0.0347756 0
M  V30 6792 O 662.335 1.8973 -0.201752 0
M  V30 6793 C 659.475 3.35214 -0.820104 0
M  V30 6794 C 658.588 3.82594 -2.00614 0
M  V30 6795 C 657.723 5.05727 -1.62522 0
M  V30 6796 C 656.762 5.45469 -2.77724 0
M  V30 6797 N 655.899 6.59789 -2.40048 0
M  V30 6798 H 660.739 2.1291 -2.08502 0
M  V30 6799 H 658.276 1.04271 -1.03759 0
M  V30 6800 H 660.234 4.12643 -0.614949 0
M  V30 6801 H 658.864 3.22682 0.0873452 0
M  V30 6802 H 657.916 3.01226 -2.32308 0
M  V30 6803 H 659.228 4.07999 -2.86946 0
M  V30 6804 H 658.382 5.90732 -1.38277 0
M  V30 6805 H 657.121 4.82155 -0.733333 0
M  V30 6806 H 656.126 4.59 -3.02653 0
M  V30 6807 H 657.351 5.71024 -3.67572 0
M  V30 6808 H 655.297 6.37826 -1.53343 0
M  V30 6809 H 655.214 6.84975 -3.19914 0
M  V30 6810 H 656.482 7.4807 -2.19116 0
M  V30 6811 N 660.711 1.11618 1.11262 0
M  V30 6812 C 661.659 0.771291 2.1944 0
M  V30 6813 C 662.653 -0.238073 1.67719 0
M  V30 6814 O 663.859 -0.0971628 1.79738 0
M  V30 6815 H 660.234 0.231548 0.715465 0
M  V30 6816 H 662.205 1.69226 2.45775 0
M  V30 6817 C 660.954 0.232765 3.4692 0
M  V30 6818 H 660.277 1.00072 3.87073 0
M  V30 6819 H 661.717 0.0296561 4.2399 0
M  V30 6820 C 660.176 -1.03738 3.20531 0
M  V30 6821 O 660.706 -2.11675 3.41404 0
M  V30 6822 N 658.912 -0.960906 2.74253 0
M  V30 6823 H 658.459 -0.0824323 2.57468 0
M  V30 6824 H 658.417 -1.8114 2.56974 0
M  V30 6825 N 662.189 -1.289 0.906776 0
M  V30 6826 C 663.436 -1.95269 0.536326 0
M  V30 6827 C 663.764 -1.71435 -0.918711 0
M  V30 6828 O 663.019 -1.02431 -1.66752 0
M  V30 6829 C 663.318 -3.48704 0.783617 0
M  V30 6830 C 662.984 -3.92626 2.21711 0
M  V30 6831 C 661.646 -4.04329 2.60906 0
M  V30 6832 C 663.998 -4.15218 3.15029 0
M  V30 6833 C 661.326 -4.35998 3.92584 0
M  V30 6834 C 663.678 -4.48365 4.46264 0
M  V30 6835 C 662.342 -4.58278 4.85322 0
M  V30 6836 H 661.612 -0.714538 0.196256 0
M  V30 6837 H 664.259 -1.53366 1.14678 0
M  V30 6838 H 662.564 -3.91696 0.0903048 0
M  V30 6839 H 664.261 -3.98162 0.476267 0
M  V30 6840 H 660.851 -3.84038 1.90296 0
M  V30 6841 H 665.035 -4.05636 2.8596 0
M  V30 6842 H 660.291 -4.41878 4.22557 0
M  V30 6843 H 664.465 -4.64795 5.18593 0
M  V30 6844 H 662.092 -4.82573 5.87391 0
M  V30 6845 N 663.667 -0.670007 -1.42649 0
M  V30 6846 C 665.078 -0.268118 -1.84765 0
M  V30 6847 C 665.429 1.18877 -1.56086 0
M  V30 6848 O 664.554 1.90947 -1.01825 0
M  V30 6849 C 665.149 -0.47984 -3.35385 0
M  V30 6850 C 663.708 -0.132116 -3.76168 0
M  V30 6851 C 662.855 -0.774611 -2.66261 0
M  V30 6852 H 665.806 -0.872509 -1.32563 0
M  V30 6853 H 665.827 0.269522 -3.79544 0
M  V30 6854 H 665.339 -1.54026 -3.56227 0
M  V30 6855 H 663.44 0.92505 -3.60934 0
M  V30 6856 H 663.553 -0.569294 -4.75706 0
M  V30 6857 H 661.917 -0.206353 -2.53863 0
M  V30 6858 H 662.7 -1.83839 -2.89928 0
M  V30 6859 N 665.145 1.52092 -0.413018 0
M  V30 6860 C 666.391 2.02815 0.154104 0
M  V30 6861 C 666.746 1.293 1.42475 0
M  V30 6862 O 666.039 0.391835 1.87551 0
M  V30 6863 C 666.233 3.54529 0.4521 0
M  V30 6864 C 666.062 4.4274 -0.788116 0
M  V30 6865 C 664.832 4.87903 -1.31447 0
M  V30 6866 C 667.03 4.86522 -1.66735 0
M  V30 6867 N 665.012 5.60254 -2.50976 0
M  V30 6868 C 666.383 5.57692 -2.70886 0
M  V30 6869 C 668.438 4.68534 -1.68465 0
M  V30 6870 C 667.141 6.12783 -3.76682 0
M  V30 6871 C 669.167 5.24524 -2.73182 0
M  V30 6872 C 668.529 5.9562 -3.76054 0
M  V30 6873 H 664.628 0.781796 0.0178567 0
M  V30 6874 H 667.212 1.86223 -0.568237 0
M  V30 6875 H 665.383 3.71186 1.14348 0
M  V30 6876 H 667.115 3.91934 1.00844 0
M  V30 6877 H 663.87 4.65504 -0.871931 0
M  V30 6878 H 664.294 6.01069 -3.11521 0
M  V30 6879 H 668.936 4.13051 -0.902708 0
M  V30 6880 H 666.654 6.67335 -4.55729 0
M  V30 6881 H 670.24 5.12473 -2.75433 0
M  V30 6882 H 669.12 6.38169 -4.55752 0
M  V30 6883 N 666.623 0.143563 1.56945 0
M  V30 6884 C 667.555 -0.828353 2.13708 0
M  V30 6885 C 668.568 -1.21313 1.08568 0
M  V30 6886 O 669.757 -1.1578 1.35857 0
M  V30 6887 C 666.857 -2.12248 2.64204 0
M  V30 6888 C 666.03 -1.90561 3.93707 0
M  V30 6889 C 665.089 -3.03931 4.29549 0
M  V30 6890 O 664.115 -2.75772 4.97934 0
M  V30 6891 N 665.317 -4.31016 3.88852 0
M  V30 6892 H 668.082 -0.343242 2.97728 0
M  V30 6893 H 665.643 -0.0401152 1.6185 0
M  V30 6894 H 667.635 -2.87132 2.85197 0
M  V30 6895 H 666.205 -2.52033 1.84928 0
M  V30 6896 H 665.425 -0.997327 3.81375 0
M  V30 6897 H 666.713 -1.73405 4.78339 0
M  V30 6898 H 666.111 -4.56762 3.33743 0
M  V30 6899 H 664.668 -5.02691 4.14903 0
M  V30 6900 N 668.101 -1.57061 -0.130224 0
M  V30 6901 C 669.347 -1.8453 -0.841216 0
M  V30 6902 C 669.68 -0.727666 -1.80052 0
M  V30 6903 O 668.955 0.267419 -1.92653 0
M  V30 6904 C 669.238 -3.22553 -1.60099 0
M  V30 6905 C 669.091 -4.44901 -0.662048 0
M  V30 6906 C 670.41 -3.58003 -2.55973 0
M  V30 6907 H 667.529 -0.671215 -0.304366 0
M  V30 6908 H 670.171 -1.89705 -0.105821 0
M  V30 6909 H 668.321 -3.18272 -2.22789 0
M  V30 6910 H 669.993 -4.61278 -0.0448559 0
M  V30 6911 H 668.236 -4.33791 0.0272253 0
M  V30 6912 H 668.907 -5.3812 -1.23006 0
M  V30 6913 H 671.383 -3.63002 -2.03393 0
M  V30 6914 H 670.259 -4.55576 -3.06172 0
M  V30 6915 H 670.52 -2.84833 -3.38116 0
M  V30 6916 N 669.579 0.400081 -1.52437 0
M  V30 6917 C 670.826 1.14619 -1.6694 0
M  V30 6918 C 671.154 1.90262 -0.403797 0
M  V30 6919 O 670.409 1.85835 0.61351 0
M  V30 6920 C 670.708 2.15914 -2.84808 0
M  V30 6921 C 670.374 1.57011 -4.2268 0
M  V30 6922 C 669.036 1.40672 -4.60179 0
M  V30 6923 C 671.388 1.14081 -5.08562 0
M  V30 6924 C 668.716 0.799335 -5.81229 0
M  V30 6925 C 671.068 0.547573 -6.30226 0
M  V30 6926 C 669.732 0.371389 -6.66466 0
M  V30 6927 H 669.002 0.419419 -0.610875 0
M  V30 6928 H 671.649 0.432227 -1.86558 0
M  V30 6929 H 669.954 2.93488 -2.59561 0
M  V30 6930 H 671.651 2.73533 -2.93225 0
M  V30 6931 H 668.241 1.70713 -3.93135 0
M  V30 6932 H 672.425 1.2551 -4.80168 0
M  V30 6933 H 667.681 0.65093 -6.07925 0
M  V30 6934 H 671.855 0.206575 -6.96094 0
M  V30 6935 H 669.482 -0.10135 -7.60132 0
M  V30 6936 N 671.057 1.43213 0.657864 0
M  V30 6937 C 672.304 1.44584 1.41781 0
M  V30 6938 C 672.632 0.0684208 1.9438 0
M  V30 6939 O 671.887 -0.925872 1.72413 0
M  V30 6940 C 672.186 2.43143 2.61947 0
M  V30 6941 C 671.852 3.89128 2.27794 0
M  V30 6942 C 670.514 4.28889 2.18191 0
M  V30 6943 C 672.866 4.81144 2.00375 0
M  V30 6944 C 670.194 5.58625 1.79319 0
M  V30 6945 C 672.546 6.11239 1.63003 0
M  V30 6946 C 671.21 6.49981 1.51922 0
M  V30 6947 H 670.48 0.529069 0.518813 0
M  V30 6948 H 673.127 1.76263 0.748577 0
M  V30 6949 H 671.432 2.04851 3.33981 0
M  V30 6950 H 673.129 2.4146 3.20153 0
M  V30 6951 H 669.719 3.57657 2.36176 0
M  V30 6952 H 673.903 4.512 2.06718 0
M  V30 6953 H 669.159 5.87486 1.69323 0
M  V30 6954 H 673.333 6.82014 1.40817 0
M  V30 6955 H 670.96 7.50416 1.21572 0
M  V30 6956 N 672.536 -0.895792 1.29666 0
M  V30 6957 C 673.813 -1.62723 1.08538 0
M  V30 6958 C 674.193 -2.07848 -0.369119 0
M  V30 6959 O 673.541 -1.8372 -1.35864 0
M  V30 6960 C 673.751 -2.80505 2.07648 0
M  V30 6961 C 675.099 -3.51098 2.3878 0
M  V30 6962 O 676.123 -2.90679 2.05874 0
M  V30 6963 O 674.982 -4.60028 2.9502 0
M  V30 6964 H 672.076 -0.714692 0.416106 0
M  V30 6965 H 674.622 -0.943517 1.41053 0
M  V30 6966 H 673.394 -2.44386 3.05599 0
M  V30 6967 H 673.017 -3.5658 1.75887 0
M  V30 6968 N 674.014 -1.12206 -1.10668 0
M  V30 6969 C 674.962 -0.782918 -2.19028 0
M  V30 6970 C 675.956 0.229175 -1.67843 0
M  V30 6971 O 677.162 0.0876295 -1.79787 0
M  V30 6972 H 673.537 -0.235339 -0.714227 0
M  V30 6973 H 675.508 -1.70527 -2.44874 0
M  V30 6974 C 674.257 -0.25116 -3.46792 0
M  V30 6975 H 673.58 -1.02123 -3.86537 0
M  V30 6976 H 675.02 -0.0521409 -4.23968 0
M  V30 6977 C 673.479 1.02037 -3.21076 0
M  V30 6978 O 674.009 2.09862 -3.42522 0
M  V30 6979 N 672.215 0.946348 -2.74759 0
M  V30 6980 H 671.762 0.068777 -2.57508 0
M  V30 6981 H 671.72 1.79775 -2.57931 0
M  V30 6982 N 675.492 1.28418 -0.913599 0
M  V30 6983 C 676.903 1.77024 -0.593237 0
M  V30 6984 C 677.254 1.74779 0.891441 0
M  V30 6985 O 676.379 1.34237 1.69733 0
M  V30 6986 C 676.974 3.21456 -1.07011 0
M  V30 6987 C 675.533 3.67786 -0.800664 0
M  V30 6988 C 674.68 2.48185 -1.23691 0
M  V30 6989 H 677.631 1.14883 -1.09487 0
M  V30 6990 H 677.652 3.78269 -0.411481 0
M  V30 6991 H 677.164 3.23058 -2.1507 0
M  V30 6992 H 675.265 3.71644 0.266725 0
M  V30 6993 H 675.378 4.57934 -1.4083 0
M  V30 6994 H 673.742 2.46116 -0.655655 0
M  V30 6995 H 674.525 2.52506 -2.32585 0
M  V30 6996 N 676.97 0.677563 1.42291 0
M  V30 6997 C 678.216 0.209962 2.02313 0
M  V30 6998 C 678.571 -1.1714 1.52631 0
M  V30 6999 O 677.864 -1.7756 0.719938 0
M  V30 7000 C 678.058 0.187229 3.56909 0
M  V30 7001 C 677.887 1.56484 4.21595 0
M  V30 7002 C 676.657 2.16329 4.56651 0
M  V30 7003 C 678.855 2.50805 4.49 0
M  V30 7004 N 676.837 3.46842 5.06531 0
M  V30 7005 C 678.208 3.65976 5.00461 0
M  V30 7006 C 680.263 2.493 4.30992 0
M  V30 7007 C 678.966 4.79899 5.35807 0
M  V30 7008 C 680.992 3.62322 4.67415 0
M  V30 7009 C 680.354 4.76221 5.19031 0
M  V30 7010 H 676.453 0.121815 0.772454 0
M  V30 7011 H 679.037 0.891148 1.73109 0
M  V30 7012 H 677.208 -0.46338 3.85626 0
M  V30 7013 H 678.94 -0.293512 4.03634 0
M  V30 7014 H 675.695 1.6879 4.42501 0
M  V30 7015 H 676.119 4.13694 5.35898 0
M  V30 7016 H 680.761 1.62467 3.90339 0
M  V30 7017 H 678.479 5.67406 5.75392 0
M  V30 7018 H 682.065 3.62388 4.55155 0
M  V30 7019 H 680.945 5.62228 5.46689 0
M  V30 7020 N 678.448 -1.51871 0.421078 0
M  V30 7021 C 679.411 -2.25914 -0.386712 0
M  V30 7022 C 680.411 -1.28733 -0.963555 0
M  V30 7023 O 681.601 -1.52579 -0.840556 0
M  V30 7024 C 678.733 -3.03853 -1.54551 0
M  V30 7025 H 679.926 -2.98754 0.261978 0
M  V30 7026 H 677.479 -1.5533 0.173862 0
M  V30 7027 H 678.214 -2.35392 -2.23072 0
M  V30 7028 H 677.999 -3.75215 -1.13824 0
M  V30 7029 H 679.489 -3.59984 -2.11663 0
M  V30 7030 N 679.926 -0.151884 -1.56866 0
M  V30 7031 C 681.174 0.497021 -1.95893 0
M  V30 7032 C 681.495 1.65078 -1.03799 0
M  V30 7033 O 680.765 1.95642 -0.10049 0
M  V30 7034 H 679.345 0.186603 -0.723318 0
M  V30 7035 H 682.007 -0.228525 -1.93556 0
M  V30 7036 H 681.103 0.869933 -2.99731 0
M  V30 7037 N 681.404 1.57128 0.121893 0
M  V30 7038 C 682.652 1.84335 0.828548 0
M  V30 7039 C 682.973 0.736632 1.80551 0
M  V30 7040 O 682.243 -0.23962 1.94429 0
M  V30 7041 H 680.823 0.680108 0.30897 0
M  V30 7042 H 683.485 1.9459 0.109906 0
M  V30 7043 H 682.581 2.80152 1.37554 0
M  V30 7044 N 682.882 -0.391992 1.52647 0
M  V30 7045 C 683.845 -1.46135 1.7657 0
M  V30 7046 C 684.845 -1.47701 0.635698 0
M  V30 7047 O 686.035 -1.48924 0.903728 0
M  V30 7048 C 683.167 -2.85443 1.86374 0
M  V30 7049 H 684.36 -1.26208 2.72051 0
M  V30 7050 H 681.913 -0.623549 1.43323 0
M  V30 7051 H 682.648 -3.10718 0.928685 0
M  V30 7052 H 682.433 -2.85708 2.68539 0
M  V30 7053 H 683.923 -3.62933 2.06566 0
M  V30 7054 N 684.36 -1.4356 -0.65026 0
M  V30 7055 C 685.29 -1.51758 -1.77459 0
M  V30 7056 C 686.271 -0.372019 -1.65982 0
M  V30 7057 O 687.456 -0.589627 -1.85033 0
M  V30 7058 C 684.586 -1.44302 -3.15902 0
M  V30 7059 C 683.54 -2.57138 -3.42146 0
M  V30 7060 C 682.866 -2.34735 -4.8042 0
M  V30 7061 C 684.166 -3.99373 -3.36598 0
M  V30 7062 H 685.86 -2.45863 -1.70855 0
M  V30 7063 H 683.406 -1.18333 -0.820566 0
M  V30 7064 H 685.359 -1.48641 -3.94314 0
M  V30 7065 H 684.083 -0.467026 -3.23244 0
M  V30 7066 H 682.742 -2.52157 -2.66106 0
M  V30 7067 H 682.39 -1.35372 -4.84441 0
M  V30 7068 H 682.09 -3.10375 -4.9894 0
M  V30 7069 H 683.614 -2.40862 -5.61086 0
M  V30 7070 H 685.028 -4.05826 -4.04942 0
M  V30 7071 H 683.425 -4.75063 -3.66654 0
M  V30 7072 H 684.495 -4.243 -2.34729 0
M  V30 7073 N 685.838 0.888903 -1.30139 0
M  V30 7074 C 687.087 1.63507 -1.18103 0
M  V30 7075 C 687.4 1.93808 0.264141 0
M  V30 7076 O 688.606 2.66744 0.505966 0
M  V30 7077 C 687.062 2.94673 -2.0663 0
M  V30 7078 C 686.67 2.71926 -3.56034 0
M  V30 7079 C 688.414 3.72626 -2.03346 0
M  V30 7080 C 686.321 3.98884 -4.3663 0
M  V30 7081 H 685.251 0.613426 -0.438435 0
M  V30 7082 H 687.902 0.984427 -1.54859 0
M  V30 7083 H 686.284 3.61009 -1.62754 0
M  V30 7084 H 687.458 2.14116 -4.08033 0
M  V30 7085 H 685.773 2.07353 -3.61101 0
M  V30 7086 H 688.37 4.66775 -2.60816 0
M  V30 7087 H 688.713 4.03712 -1.016 0
M  V30 7088 H 689.246 3.13147 -2.45324 0
M  V30 7089 H 685.985 3.72959 -5.39056 0
M  V30 7090 H 685.505 4.56214 -3.89396 0
M  V30 7091 H 687.184 4.66938 -4.47859 0
M  V30 7092 N 687.317 1.12792 1.10072 0
M  V30 7093 C 688.265 0.794523 2.18609 0
M  V30 7094 C 689.259 -0.220271 1.67962 0
M  V30 7095 O 690.465 -0.0780938 1.79831 0
M  V30 7096 H 686.84 0.239123 0.712969 0
M  V30 7097 H 688.811 1.71823 2.43966 0
M  V30 7098 C 687.56 0.269548 3.46654 0
M  V30 7099 H 686.883 1.04171 3.8599 0
M  V30 7100 H 688.323 0.0746242 4.23934 0
M  V30 7101 C 686.782 -1.00333 3.21613 0
M  V30 7102 O 687.312 -2.08042 3.4363 0
M  V30 7103 N 685.518 -0.931763 2.75257 0
M  V30 7104 H 685.065 -0.0551197 2.57541 0
M  V30 7105 H 685.023 -1.78405 2.58881 0
M  V30 7106 N 688.795 -1.27931 0.920396 0
M  V30 7107 C 689.705 -2.30824 0.419212 0
M  V30 7108 C 690.721 -1.66767 -0.496461 0
M  V30 7109 O 691.897 -1.97763 -0.38104 0
M  V30 7110 C 688.962 -3.45158 -0.326601 0
M  V30 7111 C 688.023 -4.24754 0.623098 0
M  V30 7112 C 687.256 -5.33629 -0.0872172 0
M  V30 7113 O 687.479 -5.55204 -1.30784 0
M  V30 7114 O 686.413 -5.99091 0.580875 0
M  V30 7115 H 690.239 -2.75716 1.27337 0
M  V30 7116 H 687.824 -1.32747 0.685465 0
M  V30 7117 H 689.706 -4.14716 -0.747559 0
M  V30 7118 H 688.381 -3.02336 -1.15648 0
M  V30 7119 H 687.288 -3.57759 1.09359 0
M  V30 7120 H 688.621 -4.71272 1.41998 0
M  V30 7121 N 690.273 -0.685099 -1.4193 0
M  V30 7122 C 691.503 -0.220052 -2.05425 0
M  V30 7123 C 691.911 1.13185 -1.51611 0
M  V30 7124 O 691.254 1.71631 -0.654875 0
M  V30 7125 C 691.316 -0.0888364 -3.5939 0
M  V30 7126 C 690.98 -1.37109 -4.35947 0
M  V30 7127 C 691.977 -2.30675 -4.65924 0
M  V30 7128 C 689.662 -1.62155 -4.75406 0
M  V30 7129 C 691.656 -3.47556 -5.34306 0
M  V30 7130 C 689.343 -2.79324 -5.43527 0
M  V30 7131 C 690.341 -3.71848 -5.72903 0
M  V30 7132 O 690.029 -4.86966 -6.39624 0
M  V30 7133 H 689.761 -0.102165 -0.668235 0
M  V30 7134 H 692.315 -0.935194 -1.82875 0
M  V30 7135 H 690.545 0.681981 -3.80639 0
M  V30 7136 H 692.234 0.337669 -4.04493 0
M  V30 7137 H 693 -2.12579 -4.3593 0
M  V30 7138 H 688.879 -0.910053 -4.51928 0
M  V30 7139 H 692.423 -4.19794 -5.57153 0
M  V30 7140 H 688.32 -2.97342 -5.72938 0
M  V30 7141 H 689.088 -4.86644 -6.58118 0
M  V30 7142 N 691.751 1.51645 -0.429126 0
M  V30 7143 C 692.997 2.02967 0.132584 0
M  V30 7144 C 693.352 1.30804 1.41096 0
M  V30 7145 O 692.645 0.411705 1.87124 0
M  V30 7146 C 692.839 3.54989 0.414472 0
M  V30 7147 C 692.668 4.41879 -0.83503 0
M  V30 7148 C 691.438 4.86482 -1.36614 0
M  V30 7149 C 693.636 4.84727 -1.71886 0
M  V30 7150 N 691.618 5.5756 -2.56904 0
M  V30 7151 C 692.989 5.54788 -2.76786 0
M  V30 7152 C 695.044 4.66721 -1.73425 0
M  V30 7153 C 693.747 6.08753 -3.8316 0
M  V30 7154 C 695.773 5.21597 -2.7873 0
M  V30 7155 C 695.135 5.91598 -3.8235 0
M  V30 7156 H 691.234 0.781942 0.00956367 0
M  V30 7157 H 693.818 1.8561 -0.587957 0
M  V30 7158 H 691.989 3.72378 1.10405 0
M  V30 7159 H 693.721 3.92982 0.966817 0
M  V30 7160 H 690.476 4.64553 -0.921255 0
M  V30 7161 H 690.9 5.97731 -3.17879 0
M  V30 7162 H 695.542 4.1207 -0.946467 0
M  V30 7163 H 693.26 6.62464 -4.62782 0
M  V30 7164 H 696.846 5.09522 -2.80853 0
M  V30 7165 H 695.726 6.33299 -4.62495 0
M  V30 7166 N 693.229 0.160201 1.56784 0
M  V30 7167 C 694.475 -0.48831 1.96833 0
M  V30 7168 C 694.808 -1.63641 1.04571 0
M  V30 7169 O 694.083 -1.94289 0.0906481 0
M  V30 7170 C 694.366 -0.981908 3.46454 0
M  V30 7171 C 694.219 0.165607 4.49495 0
M  V30 7172 C 695.538 -1.85931 3.98896 0
M  V30 7173 H 692.657 -0.176027 0.71567 0
M  V30 7174 H 695.299 0.244093 1.88426 0
M  V30 7175 H 693.449 -1.60602 3.5375 0
M  V30 7176 H 695.121 0.802372 4.54268 0
M  V30 7177 H 693.364 0.822789 4.25926 0
M  V30 7178 H 694.035 -0.221699 5.51555 0
M  V30 7179 H 696.511 -1.33327 3.94161 0
M  V30 7180 H 695.387 -2.17373 5.04024 0
M  V30 7181 H 695.648 -2.80106 3.42042 0
M  V30 7182 N 694.707 -1.5719 -0.113559 0
M  V30 7183 C 695.637 -2.03772 -1.14013 0
M  V30 7184 C 696.618 -0.923176 -1.42869 0
M  V30 7185 O 697.803 -1.19325 -1.53216 0
M  V30 7186 C 694.933 -2.44663 -2.4649 0
M  V30 7187 C 693.887 -3.59612 -2.32085 0
M  V30 7188 C 693.213 -3.8642 -3.69573 0
M  V30 7189 C 694.513 -4.91149 -1.7768 0
M  V30 7190 H 696.207 -2.89785 -0.752665 0
M  V30 7191 H 693.753 -1.39412 -0.360609 0
M  V30 7192 H 695.706 -2.75857 -3.18561 0
M  V30 7193 H 694.43 -1.55628 -2.87137 0
M  V30 7194 H 693.089 -3.28636 -1.62461 0
M  V30 7195 H 692.737 -2.94581 -4.07715 0
M  V30 7196 H 692.437 -4.63797 -3.60786 0
M  V30 7197 H 693.961 -4.2007 -4.4314 0
M  V30 7198 H 695.375 -5.20843 -2.39574 0
M  V30 7199 H 693.772 -5.72562 -1.79701 0
M  V30 7200 H 694.842 -4.79301 -0.734776 0
M  V30 7201 N 696.185 0.383891 -1.52853 0
M  V30 7202 C 697.413 1.1495 -1.7203 0
M  V30 7203 C 697.828 1.83578 -0.440957 0
M  V30 7204 O 697.185 1.72872 0.584925 0
M  V30 7205 C 697.236 2.19368 -2.87333 0
M  V30 7206 O 696.957 1.53536 -4.10315 0
M  V30 7207 C 698.458 3.08616 -3.18231 0
M  V30 7208 H 695.678 0.344445 -0.575846 0
M  V30 7209 H 698.222 0.448397 -1.99524 0
M  V30 7210 H 696.377 2.85105 -2.62286 0
M  V30 7211 H 696.791 2.2296 -4.74752 0
M  V30 7212 H 698.265 3.77902 -4.02361 0
M  V30 7213 H 698.742 3.72409 -2.32826 0
M  V30 7214 H 699.348 2.48518 -3.45136 0
M  V30 7215 N 697.663 1.43903 0.642637 0
M  V30 7216 C 698.626 1.49538 1.73698 0
M  V30 7217 C 699.626 0.378776 1.56275 0
M  V30 7218 O 700.816 0.64095 1.6198 0
M  V30 7219 C 697.948 1.35821 3.12675 0
M  V30 7220 H 699.141 2.47008 1.70079 0
M  V30 7221 H 696.694 1.30824 0.85526 0
M  V30 7222 H 697.429 0.393994 3.21898 0
M  V30 7223 H 697.214 2.16776 3.26727 0
M  V30 7224 H 698.704 1.4272 3.92455 0
M  V30 7225 N 699.141 -0.881989 1.30609 0
M  V30 7226 C 700.104 -1.96957 1.1722 0
M  V30 7227 C 701.104 -1.60472 0.102598 0
M  V30 7228 O 702.294 -1.70628 0.350943 0
M  V30 7229 C 699.426 -3.31463 0.796572 0
M  V30 7230 H 700.619 -2.10262 2.13846 0
M  V30 7231 H 698.172 -1.06877 1.14048 0
M  V30 7232 H 698.907 -3.23859 -0.169053 0
M  V30 7233 H 698.692 -3.59314 1.56959 0
M  V30 7234 H 700.182 -4.11233 0.72645 0
M  V30 7235 N 700.619 -1.13374 -1.09472 0
M  V30 7236 C 701.569 -0.77946 -2.14263 0
M  V30 7237 C 702.553 0.226271 -1.59301 0
M  V30 7238 O 703.745 0.0302581 -1.76974 0
M  V30 7239 C 700.874 -0.246635 -3.42413 0
M  V30 7240 C 699.96 -1.28124 -4.04283 0
M  V30 7241 N 700.351 -2.48201 -4.40715 0
M  V30 7242 C 698.649 -1.12892 -4.31476 0
M  V30 7243 C 699.35 -3.14347 -4.8945 0
M  V30 7244 N 698.326 -2.41771 -4.86876 0
M  V30 7245 H 702.128 -1.69305 -2.40235 0
M  V30 7246 H 699.642 -1.01598 -1.26695 0
M  V30 7247 H 701.639 0.0254131 -4.16892 0
M  V30 7248 H 700.299 0.661287 -3.17895 0
M  V30 7249 H 701.31 -2.85511 -4.32093 0
M  V30 7250 H 697.987 -0.279117 -4.16566 0
M  V30 7251 H 699.377 -4.16663 -5.27107 0
M  V30 7252 N 702.098 1.27442 -0.927168 0
M  V30 7253 C 703.344 1.94679 -0.568164 0
M  V30 7254 C 703.677 1.72697 0.888219 0
M  V30 7255 O 702.952 1.05573 1.63354 0
M  V30 7256 C 703.235 3.4882 -0.894253 0
M  V30 7257 C 703.088 3.80146 -2.40435 0
M  V30 7258 C 704.407 4.38281 -0.399766 0
M  V30 7259 H 701.526 0.707071 -0.207892 0
M  V30 7260 H 704.168 1.50568 -1.15885 0
M  V30 7261 H 702.318 3.86522 -0.391566 0
M  V30 7262 H 703.99 3.52238 -2.97869 0
M  V30 7263 H 702.233 3.26716 -2.85375 0
M  V30 7264 H 702.904 4.87835 -2.58304 0
M  V30 7265 H 705.38 4.07726 -0.83058 0
M  V30 7266 H 704.256 5.44955 -0.656885 0
M  V30 7267 H 704.517 4.36521 0.700153 0
M  V30 7268 N 703.576 0.692616 1.41565 0
M  V30 7269 C 704.822 0.222664 2.01574 0
M  V30 7270 C 705.155 -1.1737 1.54719 0
M  V30 7271 O 704.43 -1.79161 0.757084 0
M  V30 7272 C 704.713 0.277064 3.59033 0
M  V30 7273 C 704.566 1.71016 4.16021 0
M  V30 7274 C 705.885 -0.36479 4.38586 0
M  V30 7275 H 703.004 0.0823839 0.732381 0
M  V30 7276 H 705.646 0.880778 1.68352 0
M  V30 7277 H 703.796 -0.283288 3.87466 0
M  V30 7278 H 705.468 2.32413 3.98475 0
M  V30 7279 H 703.711 2.24525 3.71175 0
M  V30 7280 H 704.382 1.69978 5.25178 0
M  V30 7281 H 706.858 0.112404 4.15948 0
M  V30 7282 H 705.734 -0.296169 5.481 0
M  V30 7283 H 705.995 -1.44506 4.17816 0
M  V30 7284 N 705.054 -1.51416 0.437162 0
M  V30 7285 C 705.964 -2.31493 -0.380537 0
M  V30 7286 C 706.98 -1.40399 -1.02782 0
M  V30 7287 O 708.156 -1.73471 -1.02323 0
M  V30 7288 C 705.221 -3.1413 -1.46709 0
M  V30 7289 C 704.282 -4.21003 -0.839953 0
M  V30 7290 C 703.515 -4.9969 -1.87473 0
M  V30 7291 O 703.738 -4.79008 -3.09689 0
M  V30 7292 O 702.672 -5.8379 -1.46536 0
M  V30 7293 H 706.498 -3.02469 0.273183 0
M  V30 7294 H 704.083 -1.48059 0.199706 0
M  V30 7295 H 705.965 -3.65505 -2.09724 0
M  V30 7296 H 704.64 -2.45919 -2.10489 0
M  V30 7297 H 703.547 -3.73706 -0.171752 0
M  V30 7298 H 704.88 -4.91587 -0.245638 0
M  V30 7299 N 706.532 -0.168513 -1.56696 0
M  V30 7300 C 707.78 0.476216 -1.96409 0
M  V30 7301 C 708.101 1.63968 -1.05544 0
M  V30 7302 O 707.371 1.95525 -0.121235 0
M  V30 7303 H 705.951 0.178921 -0.725256 0
M  V30 7304 H 708.613 -0.249042 -1.93302 0
M  V30 7305 H 707.709 0.838094 -3.00637 0
M  V30 7306 N 708.01 1.57248 0.105221 0
M  V30 7307 C 708.958 2.02337 1.14728 0
M  V30 7308 C 709.952 0.922652 1.42069 0
M  V30 7309 O 711.158 1.10785 1.41869 0
M  V30 7310 H 707.533 0.644682 0.387155 0
M  V30 7311 H 709.504 2.89063 0.740607 0
M  V30 7312 C 708.253 2.45513 2.46209 0
M  V30 7313 H 707.576 3.29785 2.26013 0
M  V30 7314 H 709.016 2.80846 3.1765 0
M  V30 7315 C 707.475 1.3243 3.09781 0
M  V30 7316 O 708.005 0.647841 3.96442 0
M  V30 7317 N 706.211 1.07785 2.69872 0
M  V30 7318 H 705.758 1.62973 1.99493 0
M  V30 7319 H 705.716 0.323204 3.12734 0
M  V30 7320 N 709.488 -0.375779 1.53054 0
M  V30 7321 C 710.904 -0.716764 1.426 0
M  V30 7322 C 711.104 -1.93651 0.556931 0
M  V30 7323 O 710.16 -2.52475 0.0354461 0
M  V30 7324 C 711.473 -0.939499 2.85646 0
M  V30 7325 C 713.021 -1.04015 2.95212 0
M  V30 7326 C 713.496 -1.29543 4.39298 0
M  V30 7327 N 714.987 -1.36335 4.42682 0
M  V30 7328 C 715.722 -1.57778 5.51266 0
M  V30 7329 N 715.218 -1.76604 6.69913 0
M  V30 7330 N 717.011 -1.60065 5.38828 0
M  V30 7331 H 709.162 0.42664 2.08071 0
M  V30 7332 H 711.425 0.128758 0.939215 0
M  V30 7333 H 711.131 -0.115189 3.51511 0
M  V30 7334 H 711.005 -1.85048 3.2869 0
M  V30 7335 H 713.392 -1.85501 2.29507 0
M  V30 7336 H 713.473 -0.106785 2.55577 0
M  V30 7337 H 713.117 -0.485611 5.05573 0
M  V30 7338 H 713.047 -2.24184 4.76497 0
M  V30 7339 H 715.538 -1.23441 3.5717 0
M  V30 7340 H 715.851 -1.9251 7.48438 0
M  V30 7341 H 714.196 -1.73802 6.72917 0
M  V30 7342 H 717.387 -1.44917 4.45103 0
M  V30 7343 H 717.56 -1.76435 6.23518 0
M  V30 7344 N 710.966 -1.44241 -0.634997 0
M  V30 7345 C 711.876 -1.53293 -1.77591 0
M  V30 7346 C 712.892 -0.418831 -1.68884 0
M  V30 7347 O 714.068 -0.675619 -1.8973 0
M  V30 7348 C 711.133 -1.47075 -3.13958 0
M  V30 7349 C 710.194 -2.69304 -3.34326 0
M  V30 7350 C 709.427 -2.63374 -4.64187 0
M  V30 7351 O 709.65 -1.69161 -5.44739 0
M  V30 7352 O 708.584 -3.54166 -4.86673 0
M  V30 7353 H 712.41 -2.49673 -1.72908 0
M  V30 7354 H 709.995 -1.26445 -0.795745 0
M  V30 7355 H 711.877 -1.46117 -3.95257 0
M  V30 7356 H 710.552 -0.538373 -3.19192 0
M  V30 7357 H 709.459 -2.75831 -2.52721 0
M  V30 7358 H 710.792 -3.61576 -3.33951 0
M  V30 7359 N 712.444 0.87505 -1.31075 0
M  V30 7360 C 713.855 1.4433 -1.18431 0
M  V30 7361 C 714.206 1.9506 0.211189 0
M  V30 7362 O 713.331 1.85847 1.10859 0
M  V30 7363 C 713.926 2.62341 -2.14389 0
M  V30 7364 C 712.485 3.15225 -2.05694 0
M  V30 7365 C 711.632 1.87929 -2.03907 0
M  V30 7366 H 714.583 0.684061 -1.432 0
M  V30 7367 H 714.604 3.3887 -1.73053 0
M  V30 7368 H 714.116 2.25388 -3.15946 0
M  V30 7369 H 712.217 3.56812 -1.07314 0
M  V30 7370 H 712.33 3.77853 -2.94558 0
M  V30 7371 H 710.694 2.06679 -1.48849 0
M  V30 7372 H 711.477 1.53221 -3.07211 0
M  V30 7373 N 713.922 1.13953 1.08869 0
M  V30 7374 C 715.15 0.92817 1.84912 0
M  V30 7375 C 715.565 -0.523197 1.81406 0
M  V30 7376 O 714.922 -1.36237 1.21432 0
M  V30 7377 C 714.973 1.41509 3.32652 0
M  V30 7378 O 714.694 2.80959 3.36145 0
M  V30 7379 C 716.195 1.243 4.25517 0
M  V30 7380 H 713.415 0.330612 0.583898 0
M  V30 7381 H 715.959 1.51349 1.37527 0
M  V30 7382 H 714.114 0.872648 3.77444 0
M  V30 7383 H 714.528 3.02704 4.28335 0
M  V30 7384 H 716.002 1.63237 5.27312 0
M  V30 7385 H 716.479 0.18532 4.38809 0
M  V30 7386 H 717.085 1.77375 3.86546 0
M  V30 7387 N 715.4 -1.26948 0.933913 0
M  V30 7388 C 716.333 -2.24977 0.382169 0
M  V30 7389 C 717.311 -1.53893 -0.524949 0
M  V30 7390 O 718.495 -1.82699 -0.464048 0
M  V30 7391 C 715.622 -3.35676 -0.451615 0
M  V30 7392 C 714.668 -4.24686 0.392947 0
M  V30 7393 S 715.501 -5.03898 1.81237 0
M  V30 7394 C 716.657 -6.18078 0.986443 0
M  V30 7395 H 716.89 -2.71429 1.21299 0
M  V30 7396 H 714.423 -1.35701 0.736523 0
M  V30 7397 H 716.381 -3.99901 -0.926797 0
M  V30 7398 H 715.042 -2.8785 -1.25703 0
M  V30 7399 H 714.235 -5.03402 -0.245533 0
M  V30 7400 H 713.837 -3.65288 0.802537 0
M  V30 7401 H 716.129 -6.77125 0.225321 0
M  V30 7402 H 717.072 -6.86216 1.74682 0
M  V30 7403 H 717.48 -5.62047 0.525711 0
M  V30 7404 N 716.879 -0.700114 -1.41195 0
M  V30 7405 C 718.109 -0.241828 -2.0518 0
M  V30 7406 C 718.517 1.1157 -1.52803 0
M  V30 7407 O 717.86 1.70926 -0.673042 0
M  V30 7408 C 717.922 -0.12695 -3.59276 0
M  V30 7409 C 717.586 -1.41725 -4.34469 0
M  V30 7410 C 718.583 -2.35604 -4.63451 0
M  V30 7411 C 716.268 -1.67189 -4.73659 0
M  V30 7412 C 718.262 -3.53204 -5.3059 0
M  V30 7413 C 715.949 -2.85073 -5.40534 0
M  V30 7414 C 716.947 -3.77904 -5.68927 0
M  V30 7415 O 716.635 -4.93723 -6.34424 0
M  V30 7416 H 716.367 -0.109247 -0.667114 0
M  V30 7417 H 718.921 -0.954538 -1.81873 0
M  V30 7418 H 717.151 0.641571 -3.81341 0
M  V30 7419 H 718.84 0.294748 -4.04828 0
M  V30 7420 H 719.606 -2.1719 -4.33651 0
M  V30 7421 H 715.485 -0.957935 -4.50937 0
M  V30 7422 H 719.029 -4.25679 -5.52669 0
M  V30 7423 H 714.926 -3.03402 -5.69752 0
M  V30 7424 H 715.694 -4.93597 -6.5292 0
M  V30 7425 N 718.357 1.51182 -0.445186 0
M  V30 7426 C 719.603 2.02452 0.11882 0
M  V30 7427 C 719.936 1.32824 1.41673 0
M  V30 7428 O 719.211 0.445637 1.89326 0
M  V30 7429 C 719.494 3.5859 0.329475 0
M  V30 7430 C 719.347 4.38823 -0.987638 0
M  V30 7431 C 720.666 4.26241 1.09575 0
M  V30 7432 H 717.785 0.735819 0.0417092 0
M  V30 7433 H 720.427 1.80747 -0.585718 0
M  V30 7434 H 718.577 3.77214 0.9296 0
M  V30 7435 H 720.249 4.3183 -1.62235 0
M  V30 7436 H 718.492 4.03594 -1.59041 0
M  V30 7437 H 719.163 5.46257 -0.794192 0
M  V30 7438 H 721.639 4.11934 0.587328 0
M  V30 7439 H 720.515 5.35354 1.21191 0
M  V30 7440 H 720.776 3.87635 2.12584 0
M  V30 7441 N 719.835 0.176821 1.56605 0
M  V30 7442 C 721.083 -0.465793 1.96659 0
M  V30 7443 C 721.404 -1.63406 1.06412 0
M  V30 7444 O 720.674 -1.95457 0.131603 0
M  V30 7445 H 719.254 -0.175072 0.726195 0
M  V30 7446 H 721.916 0.25929 1.93168 0
M  V30 7447 H 721.012 -0.822138 3.01077 0
M  V30 7448 N 721.313 -1.57302 -0.09688 0
M  V30 7449 C 722.538 -1.9058 -0.818169 0
M  V30 7450 C 722.963 -0.770921 -1.71576 0
M  V30 7451 O 722.321 0.277588 -1.79162 0
M  V30 7452 C 722.369 -3.22714 -1.60898 0
M  V30 7453 O 721.473 -3.10178 -2.71779 0
M  V30 7454 H 720.814 -0.624759 -0.224882 0
M  V30 7455 H 723.344 -2.04471 -0.07264 0
M  V30 7456 H 723.354 -3.55978 -1.99358 0
M  V30 7457 H 722.029 -4.04899 -0.950227 0
M  V30 7458 H 720.606 -2.88424 -2.3636 0
M  V30 7459 N 722.791 0.367657 -1.53252 0
M  V30 7460 C 724.019 1.13119 -1.73239 0
M  V30 7461 C 724.434 1.831 -0.460404 0
M  V30 7462 O 723.791 1.73483 0.566557 0
M  V30 7463 C 723.842 2.16308 -2.89643 0
M  V30 7464 O 723.563 1.49175 -4.1192 0
M  V30 7465 C 725.064 3.05224 -3.21486 0
M  V30 7466 H 722.284 0.338318 -0.579467 0
M  V30 7467 H 724.828 0.42721 -1.99988 0
M  V30 7468 H 722.983 2.82307 -2.65295 0
M  V30 7469 H 723.397 2.17912 -4.7709 0
M  V30 7470 H 724.871 3.73613 -4.06346 0
M  V30 7471 H 725.348 3.69919 -2.36763 0
M  V30 7472 H 725.954 2.44843 -3.47753 0
M  V30 7473 N 724.269 1.44576 0.627338 0
M  V30 7474 C 725.494 1.51271 1.41887 0
M  V30 7475 C 725.919 0.139814 1.8758 0
M  V30 7476 O 725.277 -0.871746 1.58966 0
M  V30 7477 C 725.325 2.48529 2.61277 0
M  V30 7478 O 724.429 1.98944 3.61241 0
M  V30 7479 H 723.77 0.510668 0.424399 0
M  V30 7480 H 726.3 1.89746 0.765356 0
M  V30 7481 H 726.31 2.66689 3.08773 0
M  V30 7482 H 724.985 3.48249 2.27366 0
M  V30 7483 H 723.562 1.90568 3.20528 0
M  V30 7484 N 725.747 -0.868086 1.31537 0
M  V30 7485 C 726.993 -1.62367 1.2151 0
M  V30 7486 C 727.326 -1.92883 -0.225819 0
M  V30 7487 O 726.601 -1.56176 -1.15927 0
M  V30 7488 C 726.884 -2.95268 2.06129 0
M  V30 7489 C 726.737 -2.71619 3.58529 0
M  V30 7490 C 728.056 -3.96391 1.91212 0
M  V30 7491 H 725.175 -0.589178 0.442762 0
M  V30 7492 H 727.817 -1.00336 1.61347 0
M  V30 7493 H 725.967 -3.4821 1.72284 0
M  V30 7494 H 727.639 -2.25334 4.0252 0
M  V30 7495 H 725.882 -2.05817 3.81866 0
M  V30 7496 H 726.553 -3.66192 4.13047 0
M  V30 7497 H 729.029 -3.52663 2.20834 0
M  V30 7498 H 727.905 -4.87263 2.52718 0
M  V30 7499 H 728.166 -4.33335 0.875953 0
M  V30 7500 N 727.225 -1.14528 -1.08264 0
M  V30 7501 C 728.157 -0.791325 -2.15106 0
M  V30 7502 C 729.17 0.192449 -1.61659 0
M  V30 7503 O 730.359 -0.0294704 -1.78476 0
M  V30 7504 C 727.459 -0.154183 -3.38549 0
M  V30 7505 C 726.632 -1.17305 -4.21377 0
M  V30 7506 C 725.691 -0.559401 -5.23218 0
M  V30 7507 O 724.717 -1.22277 -5.55911 0
M  V30 7508 N 725.919 0.663159 -5.767 0
M  V30 7509 H 728.684 -1.71076 -2.46075 0
M  V30 7510 H 726.245 -1.0399 -1.24087 0
M  V30 7511 H 728.237 0.268884 -4.03806 0
M  V30 7512 H 726.807 0.668418 -3.0537 0
M  V30 7513 H 726.027 -1.773 -3.52077 0
M  V30 7514 H 727.315 -1.86128 -4.73533 0
M  V30 7515 H 726.713 1.22066 -5.52373 0
M  V30 7516 H 725.27 1.02871 -6.43631 0
M  V30 7517 N 728.703 1.26451 -0.940633 0
M  V30 7518 C 729.931 1.97868 -0.604642 0
M  V30 7519 C 730.346 1.70051 0.820251 0
M  V30 7520 O 729.703 0.96843 1.54686 0
M  V30 7521 C 729.754 3.51684 -0.836689 0
M  V30 7522 O 729.475 3.78533 -2.20554 0
M  V30 7523 C 730.976 4.40343 -0.511169 0
M  V30 7524 H 728.196 0.631105 -0.227919 0
M  V30 7525 H 730.74 1.60979 -1.26119 0
M  V30 7526 H 728.895 3.86736 -0.226759 0
M  V30 7527 H 729.309 4.73065 -2.26517 0
M  V30 7528 H 730.783 5.47229 -0.724157 0
M  V30 7529 H 731.26 4.35694 0.553815 0
M  V30 7530 H 731.866 4.10834 -1.0998 0
M  V30 7531 N 730.181 0.707592 1.40822 0
M  V30 7532 C 731.406 0.251626 2.05868 0
M  V30 7533 C 731.831 -1.09503 1.5294 0
M  V30 7534 O 731.189 -1.68806 0.661385 0
M  V30 7535 C 731.237 0.23287 3.59847 0
M  V30 7536 O 730.341 -0.788477 4.04792 0
M  V30 7537 H 729.682 0.119936 0.653078 0
M  V30 7538 H 732.212 0.96583 1.80369 0
M  V30 7539 H 732.222 0.0678204 4.07944 0
M  V30 7540 H 730.897 1.21565 3.97737 0
M  V30 7541 H 729.474 -0.591802 3.68174 0
M  V30 7542 N 731.66 -1.50943 0.453197 0
M  V30 7543 C 733.076 -1.59245 0.106342 0
M  V30 7544 C 733.276 -1.46287 -1.38572 0
M  V30 7545 O 732.332 -1.31219 -2.15726 0
M  V30 7546 C 733.645 -2.93797 0.640595 0
M  V30 7547 C 735.193 -3.07148 0.602435 0
M  V30 7548 C 735.668 -4.44247 1.11393 0
M  V30 7549 N 737.159 -4.50611 1.07258 0
M  V30 7550 C 737.894 -5.55049 1.43905 0
M  V30 7551 N 737.39 -6.66828 1.87914 0
M  V30 7552 N 739.183 -5.45494 1.35621 0
M  V30 7553 H 731.334 -1.5761 1.42382 0
M  V30 7554 H 733.597 -0.74384 0.587713 0
M  V30 7555 H 733.303 -3.087 1.68515 0
M  V30 7556 H 733.177 -3.77127 0.0742272 0
M  V30 7557 H 735.564 -2.91903 -0.433171 0
M  V30 7558 H 735.645 -2.25619 1.20539 0
M  V30 7559 H 735.289 -4.60239 2.14808 0
M  V30 7560 H 735.219 -5.2434 0.487353 0
M  V30 7561 H 737.71 -3.70391 0.749585 0
M  V30 7562 H 738.023 -7.42558 2.14072 0
M  V30 7563 H 736.368 -6.67995 1.91853 0
M  V30 7564 H 739.559 -4.57053 1.01093 0
M  V30 7565 H 739.732 -6.2677 1.64508 0
M  V30 7566 N 733.138 -0.185124 -1.56509 0
M  V30 7567 C 734.068 0.735098 -2.21627 0
M  V30 7568 C 735.049 1.2288 -1.1762 0
M  V30 7569 O 736.234 1.27945 -1.46095 0
M  V30 7570 C 733.364 1.95889 -2.86783 0
M  V30 7571 C 732.318 1.6005 -3.96948 0
M  V30 7572 C 731.644 2.90009 -4.4922 0
M  V30 7573 C 732.944 0.818008 -5.15855 0
M  V30 7574 H 734.638 0.192274 -2.98782 0
M  V30 7575 H 732.184 0.0910393 -1.43712 0
M  V30 7576 H 734.137 2.60779 -3.31017 0
M  V30 7577 H 732.861 2.52608 -2.07018 0
M  V30 7578 H 731.52 0.975237 -3.5339 0
M  V30 7579 H 731.168 3.44797 -3.6623 0
M  V30 7580 H 730.868 2.66778 -5.23549 0
M  V30 7581 H 732.392 3.55904 -4.9615 0
M  V30 7582 H 733.806 1.36979 -5.56695 0
M  V30 7583 H 732.203 0.684207 -5.96187 0
M  V30 7584 H 733.273 -0.182939 -4.84555 0
M  V30 7585 N 734.616 1.57351 0.0885366 0
M  V30 7586 C 735.579 2.01557 1.09121 0
M  V30 7587 C 736.579 0.910052 1.3257 0
M  V30 7588 O 737.769 1.17537 1.28572 0
M  V30 7589 C 734.901 2.38189 2.43883 0
M  V30 7590 H 736.094 2.91361 0.710562 0
M  V30 7591 H 733.647 1.52694 0.333779 0
M  V30 7592 H 734.382 1.5136 2.86811 0
M  V30 7593 H 734.167 3.18846 2.28209 0
M  V30 7594 H 735.657 2.73025 3.15986 0
M  V30 7595 N 736.094 -0.359525 1.53444 0
M  V30 7596 C 737.041 -1.44073 1.8031 0
M  V30 7597 C 738.011 -1.52946 0.647811 0
M  V30 7598 O 739.196 -1.68739 0.890614 0
M  V30 7599 C 736.336 -2.80941 2.00416 0
M  V30 7600 C 735.449 -2.80986 3.28132 0
M  V30 7601 C 734.584 -4.09468 3.38393 0
M  V30 7602 C 733.623 -4.03679 4.60119 0
M  V30 7603 N 732.76 -5.23821 4.675 0
M  V30 7604 H 737.6 -1.20464 2.72566 0
M  V30 7605 H 735.137 -0.583859 1.35017 0
M  V30 7606 H 737.095 -3.60459 2.1006 0
M  V30 7607 H 735.725 -3.02936 1.11489 0
M  V30 7608 H 734.777 -1.93666 3.27411 0
M  V30 7609 H 736.089 -2.72583 4.17732 0
M  V30 7610 H 735.243 -4.97404 3.47382 0
M  V30 7611 H 733.982 -4.20632 2.4682 0
M  V30 7612 H 732.987 -3.14129 4.51224 0
M  V30 7613 H 734.212 -3.94112 5.5304 0
M  V30 7614 H 732.158 -5.35559 3.7883 0
M  V30 7615 H 732.075 -5.17611 5.51013 0
M  V30 7616 H 733.343 -6.13572 4.8078 0
M  V30 7617 N 737.572 -1.44907 -0.619662 0
M  V30 7618 C 738.797 -1.52021 -1.41083 0
M  V30 7619 C 739.222 -0.14976 -1.87503 0
M  V30 7620 O 738.58 0.863303 -1.59426 0
M  V30 7621 C 738.628 -2.49911 -2.59955 0
M  V30 7622 O 737.732 -2.00857 -3.60181 0
M  V30 7623 H 737.073 -0.512912 -0.421684 0
M  V30 7624 H 739.603 -1.90149 -0.755282 0
M  V30 7625 H 739.613 -2.68323 -3.07354 0
M  V30 7626 H 738.288 -3.4945 -2.25516 0
M  V30 7627 H 736.865 -1.92265 -3.19513 0
M  V30 7628 N 739.05 0.861098 -1.31996 0
M  V30 7629 C 739.997 1.96912 -1.20392 0
M  V30 7630 C 740.967 1.65869 -0.0875899 0
M  V30 7631 O 742.152 1.88992 -0.262011 0
M  V30 7632 C 739.292 3.32435 -0.926335 0
M  V30 7633 C 738.405 3.76018 -2.12684 0
M  V30 7634 C 737.54 5.00301 -1.78529 0
M  V30 7635 C 736.579 5.36357 -2.94937 0
M  V30 7636 N 735.716 6.51818 -2.60917 0
M  V30 7637 H 740.556 2.06169 -2.1517 0
M  V30 7638 H 738.093 1.00917 -1.07024 0
M  V30 7639 H 740.051 4.10478 -0.745917 0
M  V30 7640 H 738.681 3.22796 -0.0153578 0
M  V30 7641 H 737.733 2.93683 -2.41774 0
M  V30 7642 H 739.045 3.98664 -2.99781 0
M  V30 7643 H 738.199 5.86034 -1.57001 0
M  V30 7644 H 736.938 4.79578 -0.886356 0
M  V30 7645 H 735.943 4.49139 -3.17103 0
M  V30 7646 H 737.168 5.59041 -3.85552 0
M  V30 7647 H 735.114 6.32624 -1.73558 0
M  V30 7648 H 735.031 6.7445 -3.41544 0
M  V30 7649 H 736.299 7.4072 -2.42804 0
M  V30 7650 N 740.528 1.15101 1.07655 0
M  V30 7651 C 741.461 0.788522 2.14144 0
M  V30 7652 C 742.439 -0.233635 1.60913 0
M  V30 7653 O 743.623 -0.120908 1.88112 0
M  V30 7654 C 740.75 0.172033 3.38263 0
M  V30 7655 C 739.796 1.16559 4.10264 0
M  V30 7656 S 740.629 2.70627 4.62084 0
M  V30 7657 C 741.785 2.10389 5.8948 0
M  V30 7658 H 742.018 1.69047 2.44561 0
M  V30 7659 H 739.551 0.973033 1.19881 0
M  V30 7660 H 741.509 -0.177223 4.10117 0
M  V30 7661 H 740.17 -0.707468 3.06029 0
M  V30 7662 H 739.363 0.6824 4.99359 0
M  V30 7663 H 738.965 1.45923 3.44358 0
M  V30 7664 H 741.257 1.46405 6.61492 0
M  V30 7665 H 742.2 2.97639 6.42508 0
M  V30 7666 H 742.608 1.54816 5.42856 0
M  V30 7667 N 742.006 -1.2595 0.947325 0
M  V30 7668 C 742.936 -2.28521 0.479604 0
M  V30 7669 C 743.917 -1.63469 -0.470293 0
M  V30 7670 O 745.102 -1.90627 -0.370824 0
M  V30 7671 C 742.232 -3.46397 -0.250289 0
M  V30 7672 C 741.186 -4.23578 0.613643 0
M  V30 7673 C 740.512 -5.34131 -0.246568 0
M  V30 7674 C 741.812 -4.86979 1.88809 0
M  V30 7675 H 743.506 -2.67895 1.33688 0
M  V30 7676 H 741.052 -1.28783 0.644274 0
M  V30 7677 H 743.005 -4.17269 -0.588576 0
M  V30 7678 H 741.729 -3.05993 -1.14175 0
M  V30 7679 H 740.388 -3.54478 0.93491 0
M  V30 7680 H 740.036 -4.89968 -1.13756 0
M  V30 7681 H 739.736 -5.86683 0.328123 0
M  V30 7682 H 741.26 -6.07839 -0.579986 0
M  V30 7683 H 742.674 -5.50034 1.61666 0
M  V30 7684 H 741.071 -5.49675 2.40784 0
M  V30 7685 H 742.141 -4.09575 2.5957 0
M  V30 7686 N 743.484 -0.715051 -1.40445 0
M  V30 7687 C 744.712 -0.263959 -2.05209 0
M  V30 7688 C 745.127 1.09403 -1.53871 0
M  V30 7689 O 744.484 1.68746 -0.695064 0
M  V30 7690 C 744.535 -0.234545 -3.60738 0
M  V30 7691 O 744.256 -1.53891 -4.10182 0
M  V30 7692 C 745.757 0.235164 -4.42676 0
M  V30 7693 H 742.977 -0.11876 -0.660407 0
M  V30 7694 H 745.521 -0.973107 -1.79864 0
M  V30 7695 H 743.676 0.425563 -3.85055 0
M  V30 7696 H 744.09 -1.43903 -5.04373 0
M  V30 7697 H 745.564 0.204598 -5.51621 0
M  V30 7698 H 746.041 1.27724 -4.20218 0
M  V30 7699 H 746.647 -0.394649 -4.23465 0
M  V30 7700 N 744.962 1.50701 -0.461195 0
M  V30 7701 C 746.373 1.867 -0.00370227 0
M  V30 7702 C 746.724 1.37673 1.39787 0
M  V30 7703 O 745.849 0.737515 2.03445 0
M  V30 7704 C 746.444 3.388 5.75786e-05 0
M  V30 7705 C 745.003 3.74247 0.402044 0
M  V30 7706 C 744.15 2.74549 -0.389652 0
M  V30 7707 H 747.101 1.43585 -0.675942 0
M  V30 7708 H 747.122 3.719 0.804414 0
M  V30 7709 H 746.634 3.74452 -1.02015 0
M  V30 7710 H 744.735 3.44192 1.42697 0
M  V30 7711 H 744.848 4.78973 0.110265 0
M  V30 7712 H 743.212 2.54226 0.155314 0
M  V30 7713 H 743.995 3.13044 -1.40919 0
M  V30 7714 N 746.441 0.193421 1.56409 0
M  V30 7715 C 747.351 -0.740112 2.2262 0
M  V30 7716 C 748.367 -1.23597 1.22474 0
M  V30 7717 O 749.543 -1.28348 1.55206 0
M  V30 7718 C 746.608 -1.94317 2.87127 0
M  V30 7719 C 745.669 -1.49205 4.02538 0
M  V30 7720 C 744.902 -2.63776 4.63959 0
M  V30 7721 O 745.125 -3.81215 4.24301 0
M  V30 7722 O 744.059 -2.36585 5.53454 0
M  V30 7723 H 747.885 -0.206238 3.02999 0
M  V30 7724 H 745.47 -0.0357938 1.49357 0
M  V30 7725 H 747.352 -2.64633 3.27944 0
M  V30 7726 H 746.027 -2.46568 2.09728 0
M  V30 7727 H 744.934 -0.757738 3.66346 0
M  V30 7728 H 746.267 -1.01622 4.81595 0
M  V30 7729 N 747.919 -1.57396 -0.0801906 0
M  V30 7730 C 748.869 -1.9955 -1.10289 0
M  V30 7731 C 749.853 -0.876234 -1.34948 0
M  V30 7732 O 751.045 -1.14012 -1.35389 0
M  V30 7733 C 748.174 -2.43596 -2.419 0
M  V30 7734 C 747.26 -3.6224 -2.20551 0
M  V30 7735 N 747.651 -4.76693 -1.69109 0
M  V30 7736 C 745.949 -3.68627 -2.51059 0
M  V30 7737 C 746.65 -5.58577 -1.62379 0
M  V30 7738 N 745.626 -5.02178 -2.0813 0
M  V30 7739 H 749.428 -2.85483 -0.698335 0
M  V30 7740 H 746.942 -1.59837 -0.287395 0
M  V30 7741 H 748.939 -2.72031 -3.15919 0
M  V30 7742 H 747.599 -1.59047 -2.8308 0
M  V30 7743 H 748.61 -4.9915 -1.38092 0
M  V30 7744 H 745.287 -2.94772 -2.95661 0
M  V30 7745 H 746.677 -6.60447 -1.2353 0
M  V30 7746 N 749.397 0.351382 -1.53633 0
M  V30 7747 C 750.643 1.09411 -1.70754 0
M  V30 7748 C 750.976 1.88544 -0.465293 0
M  V30 7749 O 750.251 1.86923 0.537608 0
M  V30 7750 C 750.534 2.04173 -2.96623 0
M  V30 7751 C 750.387 1.28556 -4.31038 0
M  V30 7752 C 751.706 3.04102 -3.18136 0
M  V30 7753 H 748.825 0.396373 -0.621335 0
M  V30 7754 H 751.467 0.373464 -1.86293 0
M  V30 7755 H 749.617 2.65625 -2.83506 0
M  V30 7756 H 751.289 0.697786 -4.55992 0
M  V30 7757 H 749.532 0.587498 -4.29803 0
M  V30 7758 H 750.203 1.97989 -5.15271 0
M  V30 7759 H 752.679 2.5276 -3.30532 0
M  V30 7760 H 751.555 3.67616 -4.07615 0
M  V30 7761 H 751.816 3.75053 -2.34068 0
M  V30 7762 N 750.875 1.45233 0.611969 0
M  V30 7763 C 752.122 1.49021 1.37109 0
M  V30 7764 C 752.45 0.130227 1.94064 0
M  V30 7765 O 751.705 -0.870551 1.75271 0
M  V30 7766 C 752.004 2.51353 2.54079 0
M  V30 7767 C 751.67 3.96178 2.15299 0
M  V30 7768 C 750.332 4.35614 2.04436 0
M  V30 7769 C 752.684 4.87275 1.84966 0
M  V30 7770 C 750.012 5.64047 1.61456 0
M  V30 7771 C 752.364 6.16115 1.43474 0
M  V30 7772 C 751.028 6.54486 1.31167 0
M  V30 7773 H 750.298 0.545307 0.501719 0
M  V30 7774 H 752.945 1.78555 0.692122 0
M  V30 7775 H 751.25 2.15372 3.27295 0
M  V30 7776 H 752.947 2.51523 3.12309 0
M  V30 7777 H 749.537 3.6499 2.24678 0
M  V30 7778 H 753.721 4.57548 1.92258 0
M  V30 7779 H 748.977 5.92575 1.50547 0
M  V30 7780 H 753.151 6.86149 1.19048 0
M  V30 7781 H 750.778 7.53904 0.97637 0
M  V30 7782 N 752.353 -0.854086 1.3245 0
M  V30 7783 C 753.602 -1.60318 1.22397 0
M  V30 7784 C 753.915 -1.9444 -0.212664 0
M  V30 7785 O 755.121 -2.67991 -0.435066 0
M  V30 7786 C 753.577 -2.8909 2.1437 0
M  V30 7787 C 753.185 -2.62391 3.63119 0
M  V30 7788 C 754.929 -3.67104 2.13155 0
M  V30 7789 C 752.836 -3.87167 4.47052 0
M  V30 7790 H 751.766 -0.601586 0.454544 0
M  V30 7791 H 754.417 -0.943023 1.57415 0
M  V30 7792 H 752.799 -3.56567 1.72268 0
M  V30 7793 H 753.973 -2.03222 4.13567 0
M  V30 7794 H 752.288 -1.97706 3.66471 0
M  V30 7795 H 754.885 -4.59696 2.731 0
M  V30 7796 H 755.228 -4.00876 1.12268 0
M  V30 7797 H 755.761 -3.06533 2.5354 0
M  V30 7798 H 752.5 -3.58536 5.48755 0
M  V30 7799 H 752.02 -4.45729 4.01355 0
M  V30 7800 H 753.699 -4.549 4.60081 0
M  V30 7801 N 753.831 -1.1567 -1.07043 0
M  V30 7802 C 754.781 -0.824733 -2.12561 0
M  V30 7803 C 755.765 0.19243 -1.59745 0
M  V30 7804 O 756.957 -0.00728759 -1.76998 0
M  V30 7805 C 754.086 -0.31921 -3.41813 0
M  V30 7806 C 753.172 -1.36671 -4.01475 0
M  V30 7807 N 753.563 -2.57493 -4.35351 0
M  V30 7808 C 751.861 -1.22018 -4.28984 0
M  V30 7809 C 752.562 -3.24658 -4.82672 0
M  V30 7810 N 751.538 -2.52043 -4.81638 0
M  V30 7811 H 755.34 -1.74363 -2.3659 0
M  V30 7812 H 752.854 -1.04262 -1.24511 0
M  V30 7813 H 754.851 -0.0630216 -4.16852 0
M  V30 7814 H 753.511 0.593708 -3.19226 0
M  V30 7815 H 754.522 -2.94612 -4.25939 0
M  V30 7816 H 751.199 -0.367414 -4.1588 0
M  V30 7817 H 752.589 -4.2775 -5.1815 0
M  V30 7818 N 755.309 1.25446 -0.953992 0
M  V30 7819 C 756.72 1.75047 -0.649255 0
M  V30 7820 C 757.071 1.77527 0.835385 0
M  V30 7821 O 756.196 1.39569 1.65377 0
M  V30 7822 C 756.791 3.17889 -1.17183 0
M  V30 7823 C 755.35 3.65052 -0.917267 0
M  V30 7824 C 754.497 2.44124 -1.31525 0
M  V30 7825 H 757.448 1.11342 -1.13087 0
M  V30 7826 H 757.469 3.76768 -0.531616 0
M  V30 7827 H 756.981 3.16052 -2.25239 0
M  V30 7828 H 755.082 3.72305 0.148354 0
M  V30 7829 H 755.195 4.53222 -1.55328 0
M  V30 7830 H 753.559 2.43906 -0.733624 0
M  V30 7831 H 754.342 2.44979 -2.405 0
M  V30 7832 N 756.787 0.722489 1.40064 0
M  V30 7833 C 758.035 0.264455 2.00362 0
M  V30 7834 C 758.356 -1.14847 1.57592 0
M  V30 7835 O 757.626 -1.77982 0.818477 0
M  V30 7836 H 756.206 0.0947846 0.740962 0
M  V30 7837 H 758.868 0.929659 1.71299 0
M  V30 7838 H 757.964 0.302977 3.10626 0
M  V30 7839 N 758.265 -1.50454 0.469181 0
M  V30 7840 C 759.511 -2.03248 -0.0787241 0
M  V30 7841 C 759.866 -1.34499 -1.37578 0
M  V30 7842 O 759.159 -0.461173 -1.85967 0
M  V30 7843 C 759.353 -3.55963 -0.320207 0
M  V30 7844 C 759.182 -4.3951 0.951893 0
M  V30 7845 C 757.952 -4.82689 1.49465 0
M  V30 7846 C 760.15 -4.79999 1.84677 0
M  V30 7847 N 758.132 -5.50553 2.71597 0
M  V30 7848 C 759.503 -5.47254 2.91398 0
M  V30 7849 C 761.558 -4.61959 1.85738 0
M  V30 7850 C 760.261 -5.98381 3.99166 0
M  V30 7851 C 762.287 -5.14024 2.92461 0
M  V30 7852 C 761.649 -5.81253 3.97901 0
M  V30 7853 H 757.748 -0.78192 0.0111715 0
M  V30 7854 H 760.332 -1.83986 0.636961 0
M  V30 7855 H 758.503 -3.75174 -1.00493 0
M  V30 7856 H 760.235 -3.95407 -0.862285 0
M  V30 7857 H 756.99 -4.61948 1.0441 0
M  V30 7858 H 757.414 -5.89093 3.33615 0
M  V30 7859 H 762.056 -4.09416 1.05539 0
M  V30 7860 H 759.774 -6.49961 4.80183 0
M  V30 7861 H 763.36 -5.01897 2.94263 0
M  V30 7862 H 762.24 -6.20814 4.79123 0
M  V30 7863 N 759.743 -0.201713 -1.56304 0
M  V30 7864 C 760.69 0.716499 -2.19397 0
M  V30 7865 C 761.66 1.20494 -1.14326 0
M  V30 7866 O 762.845 1.26763 -1.42604 0
M  V30 7867 C 759.985 1.92762 -2.86246 0
M  V30 7868 C 759.098 1.47993 -4.0586 0
M  V30 7869 C 758.233 2.64706 -4.60547 0
M  V30 7870 C 757.272 2.16576 -5.72504 0
M  V30 7871 N 756.409 3.26491 -6.21569 0
M  V30 7872 H 761.249 0.171724 -2.97505 0
M  V30 7873 H 758.786 0.073016 -1.46919 0
M  V30 7874 H 760.744 2.6384 -3.23178 0
M  V30 7875 H 759.374 2.44559 -2.10691 0
M  V30 7876 H 758.426 0.66477 -3.74546 0
M  V30 7877 H 759.738 1.08686 -4.86815 0
M  V30 7878 H 758.892 3.43898 -4.99819 0
M  V30 7879 H 757.631 3.0729 -3.78713 0
M  V30 7880 H 756.636 1.3584 -5.32755 0
M  V30 7881 H 757.861 1.75015 -6.56161 0
M  V30 7882 H 755.807 3.68594 -5.42655 0
M  V30 7883 H 755.724 2.91374 -6.97594 0
M  V30 7884 H 756.992 4.05877 -6.65495 0
M  V30 7885 N 761.222 1.57436 0.0718424 0
M  V30 7886 C 762.152 2.06724 1.08571 0
M  V30 7887 C 763.133 0.960731 1.40371 0
M  V30 7888 O 764.318 1.23345 1.49999 0
M  V30 7889 C 761.448 2.51112 2.39916 0
M  V30 7890 C 760.402 3.65639 2.22469 0
M  V30 7891 C 759.728 3.96082 3.59198 0
M  V30 7892 C 761.028 4.95687 1.64596 0
M  V30 7893 H 762.722 2.91679 0.675569 0
M  V30 7894 H 760.268 1.40319 0.32352 0
M  V30 7895 H 762.221 2.84206 3.11135 0
M  V30 7896 H 760.945 1.63186 2.8291 0
M  V30 7897 H 759.604 3.32828 1.53691 0
M  V30 7898 H 759.252 3.05287 3.99761 0
M  V30 7899 H 758.952 4.73199 3.48362 0
M  V30 7900 H 760.476 4.31672 4.31847 0
M  V30 7901 H 761.89 5.27011 2.25681 0
M  V30 7902 H 760.287 5.77126 1.64457 0
M  V30 7903 H 761.357 4.8108 0.60744 0
M  V30 7904 N 762.7 -0.34323 1.53817 0
M  V30 7905 C 763.63 -1.42709 1.84814 0
M  V30 7906 C 764.611 -1.5488 0.703297 0
M  V30 7907 O 765.796 -1.69082 0.955237 0
M  V30 7908 C 762.926 -2.79756 2.05801 0
M  V30 7909 C 761.88 -2.82392 3.21619 0
M  V30 7910 C 761.206 -4.22326 3.2794 0
M  V30 7911 C 762.506 -2.479 4.59721 0
M  V30 7912 H 764.2 -1.17018 2.75585 0
M  V30 7913 H 761.746 -0.561485 1.32602 0
M  V30 7914 H 763.699 -3.55627 2.26069 0
M  V30 7915 H 762.423 -3.06883 1.11761 0
M  V30 7916 H 761.082 -2.08974 3.01207 0
M  V30 7917 H 760.73 -4.46564 2.31494 0
M  V30 7918 H 760.43 -4.25001 4.05768 0
M  V30 7919 H 761.954 -5.00039 3.50419 0
M  V30 7920 H 763.368 -3.13484 4.80001 0
M  V30 7921 H 761.765 -2.61857 5.39954 0
M  V30 7922 H 762.835 -1.43087 4.63308 0
M  V30 7923 N 764.178 -1.45556 -0.604258 0
M  V30 7924 C 765.088 -1.57025 -1.74299 0
M  V30 7925 C 766.104 -0.45456 -1.67958 0
M  V30 7926 O 767.28 -0.715711 -1.88254 0
M  V30 7927 C 764.345 -1.53702 -3.10768 0
M  V30 7928 C 763.406 -2.76335 -3.28538 0
M  V30 7929 C 762.639 -2.73161 -4.58496 0
M  V30 7930 O 762.862 -1.80678 -5.41028 0
M  V30 7931 O 761.796 -3.64409 -4.79051 0
M  V30 7932 H 765.622 -2.53284 -1.67573 0
M  V30 7933 H 763.207 -1.28104 -0.768745 0
M  V30 7934 H 765.089 -1.54468 -3.92068 0
M  V30 7935 H 763.764 -0.605957 -3.17978 0
M  V30 7936 H 762.671 -2.8113 -2.46813 0
M  V30 7937 H 764.004 -3.68578 -3.26207 0
M  V30 7938 N 765.656 0.84705 -1.32902 0
M  V30 7939 C 766.902 1.60414 -1.24078 0
M  V30 7940 C 767.235 1.93217 0.195105 0
M  V30 7941 O 766.51 1.58001 1.13428 0
M  V30 7942 C 766.793 2.91951 -2.108 0
M  V30 7943 C 766.646 2.6588 -3.62805 0
M  V30 7944 C 767.965 3.93299 -1.97494 0
M  V30 7945 H 765.084 0.58206 -0.452079 0
M  V30 7946 H 767.726 0.977562 -1.62922 0
M  V30 7947 H 765.876 3.45425 -1.77802 0
M  V30 7948 H 767.548 2.18902 -4.06054 0
M  V30 7949 H 765.791 1.99716 -3.85092 0
M  V30 7950 H 766.462 3.59574 -4.1882 0
M  V30 7951 H 768.938 3.49105 -2.26417 0
M  V30 7952 H 767.814 4.8318 -2.60438 0
M  V30 7953 H 768.075 4.31887 -0.944782 0
M  V30 7954 N 767.134 1.16236 1.06428 0
M  V30 7955 C 768.545 0.950942 1.60667 0
M  V30 7956 C 768.896 -0.505491 1.89576 0
M  V30 7957 O 768.021 -1.37843 1.66818 0
M  V30 7958 C 768.616 1.71982 2.91904 0
M  V30 7959 C 767.175 1.55342 3.4285 0
M  V30 7960 C 766.322 1.72942 2.16763 0
M  V30 7961 H 769.273 1.31126 0.893959 0
M  V30 7962 H 769.294 1.19483 3.61253 0
M  V30 7963 H 768.806 2.77978 2.70831 0
M  V30 7964 H 766.907 0.5178 3.68985 0
M  V30 7965 H 767.02 2.33643 4.18267 0
M  V30 7966 H 765.384 1.15673 2.26918 0
M  V30 7967 H 766.167 2.80324 1.98175 0
M  V30 7968 N 768.612 -1.24939 0.960631 0
M  V30 7969 C 769.522 -2.29374 0.492435 0
M  V30 7970 C 770.538 -1.68262 -0.443154 0
M  V30 7971 O 771.714 -1.98875 -0.31793 0
M  V30 7972 C 768.779 -3.46023 -0.216626 0
M  V30 7973 C 767.84 -4.22557 0.757915 0
M  V30 7974 C 767.073 -5.33636 0.0825969 0
M  V30 7975 O 767.296 -5.59084 -1.13054 0
M  V30 7976 O 766.23 -5.96939 0.771177 0
M  V30 7977 H 770.056 -2.71525 1.36044 0
M  V30 7978 H 767.641 -1.30499 0.72735 0
M  V30 7979 H 769.523 -4.16885 -0.615241 0
M  V30 7980 H 768.198 -3.05862 -1.05971 0
M  V30 7981 H 767.105 -3.54099 1.20685 0
M  V30 7982 H 768.438 -4.66516 1.5692 0
M  V30 7983 N 770.09 -0.729906 -1.39679 0
M  V30 7984 C 771.338 -0.275077 -2.00219 0
M  V30 7985 C 771.659 1.1401 -1.58199 0
M  V30 7986 O 770.929 1.77546 -0.827904 0
M  V30 7987 H 769.509 -0.0987127 -0.740449 0
M  V30 7988 H 772.171 -0.93873 -1.70804 0
M  V30 7989 H 771.267 -0.319446 -3.10461 0
M  V30 7990 N 771.568 1.50203 -0.477153 0
M  V30 7991 C 772.984 1.59056 -0.131663 0
M  V30 7992 C 773.184 1.48473 1.36227 0
M  V30 7993 O 772.24 1.34635 2.13611 0
M  V30 7994 C 773.553 2.92741 -0.687254 0
M  V30 7995 C 775.101 3.0615 -0.651223 0
M  V30 7996 C 775.576 4.42419 -1.18446 0
M  V30 7997 N 777.067 4.48847 -1.14413 0
M  V30 7998 C 777.802 5.52689 -1.52717 0
M  V30 7999 N 777.298 6.63754 -1.98499 0
M  V30 8000 N 779.091 5.43267 -1.44282 0
M  V30 8001 H 771.242 1.55325 -1.44872 0
M  V30 8002 H 773.505 0.734395 -0.599473 0
M  V30 8003 H 773.211 3.0598 -1.73405 0
M  V30 8004 H 773.085 3.76961 -0.134215 0
M  V30 8005 H 775.472 2.92556 0.386677 0
M  V30 8006 H 775.553 2.23673 -1.24114 0
M  V30 8007 H 775.197 4.56763 -2.22103 0
M  V30 8008 H 775.127 5.23498 -0.570709 0
M  V30 8009 H 777.618 3.69152 -0.808416 0
M  V30 8010 H 777.931 7.39059 -2.25859 0
M  V30 8011 H 776.276 6.64858 -2.02456 0
M  V30 8012 H 779.467 4.55387 -1.08352 0
M  V30 8013 H 779.64 6.24074 -1.74459 0
M  V30 8014 N 773.046 0.209999 1.56195 0
M  V30 8015 C 774.274 -0.429996 2.02382 0
M  V30 8016 C 774.689 -1.54159 1.08998 0
M  V30 8017 O 774.046 -1.82239 0.0974856 0
M  V30 8018 C 774.097 -0.972433 3.48175 0
M  V30 8019 O 773.818 0.0948231 4.37997 0
M  V30 8020 C 775.319 -1.68683 4.09952 0
M  V30 8021 H 772.539 -0.106475 0.662498 0
M  V30 8022 H 775.083 0.323072 2.01932 0
M  V30 8023 H 773.238 -1.67582 3.49278 0
M  V30 8024 H 773.652 -0.31113 5.23576 0
M  V30 8025 H 775.126 -2.01851 5.13771 0
M  V30 8026 H 775.603 -2.59587 3.54276 0
M  V30 8027 H 776.209 -1.02893 4.12666 0
M  V30 8028 N 774.524 -1.57472 -0.0634922 0
M  V30 8029 C 775.472 -2.05307 -1.09323 0
M  V30 8030 C 776.466 -0.959995 -1.39572 0
M  V30 8031 O 777.672 -1.14507 -1.38882 0
M  V30 8032 H 774.047 -0.65472 -0.369927 0
M  V30 8033 H 776.018 -2.90925 -0.663707 0
M  V30 8034 C 774.767 -2.51954 -2.39613 0
M  V30 8035 H 774.09 -3.35662 -2.1719 0
M  V30 8036 H 775.53 -2.89169 -3.10092 0
M  V30 8037 C 773.989 -1.40596 -3.06161 0
M  V30 8038 O 774.519 -0.752722 -3.94585 0
M  V30 8039 N 772.725 -1.14902 -2.66919 0
M  V30 8040 H 772.272 -1.68205 -1.95102 0
M  V30 8041 H 772.23 -0.406006 -3.11767 0
M  V30 8042 N 776.003 0.335068 -1.53997 0
M  V30 8043 C 777.25 1.07435 -1.71651 0
M  V30 8044 C 777.578 1.88378 -0.48413 0
M  V30 8045 O 776.833 1.8827 0.534139 0
M  V30 8046 C 777.132 2.0364 -2.9371 0
M  V30 8047 C 776.798 1.38942 -4.28959 0
M  V30 8048 C 775.46 1.21027 -4.65732 0
M  V30 8049 C 777.812 0.924083 -5.12943 0
M  V30 8050 C 775.14 0.552097 -5.84097 0
M  V30 8051 C 777.492 0.27978 -6.31981 0
M  V30 8052 C 776.156 0.0883843 -6.67441 0
M  V30 8053 H 775.426 0.393133 -0.628114 0
M  V30 8054 H 778.073 0.352712 -1.88224 0
M  V30 8055 H 776.378 2.82215 -2.71775 0
M  V30 8056 H 778.075 2.6085 -3.04562 0
M  V30 8057 H 774.665 1.53885 -4.00022 0
M  V30 8058 H 778.849 1.05032 -4.85059 0
M  V30 8059 H 774.105 0.392502 -6.10139 0
M  V30 8060 H 778.279 -0.0888479 -6.96343 0
M  V30 8061 H 775.906 -0.423657 -7.59019 0
M  V30 8062 N 777.481 1.45874 0.596531 0
M  V30 8063 C 778.758 1.40942 1.35627 0
M  V30 8064 C 779.138 0.0857066 2.10926 0
M  V30 8065 O 778.486 -0.932544 2.08605 0
M  V30 8066 C 778.696 2.63027 2.29386 0
M  V30 8067 C 780.044 3.08588 2.91649 0
M  V30 8068 O 781.068 2.63478 2.39704 0
M  V30 8069 O 779.927 3.86902 3.85965 0
M  V30 8070 H 777.021 0.559838 0.608696 0
M  V30 8071 H 779.567 1.5802 0.618698 0
M  V30 8072 H 778.339 3.5094 1.7308 0
M  V30 8073 H 777.962 2.48338 3.10506 0
M  V30 8074 N 778.959 -0.83999 1.33349 0
M  V30 8075 C 779.907 -1.97113 1.23488 0
M  V30 8076 C 780.901 -1.68849 0.136503 0
M  V30 8077 O 782.107 -1.77476 0.300389 0
M  V30 8078 H 778.482 -0.647049 0.383185 0
M  V30 8079 H 780.453 -2.02554 2.19122 0
M  V30 8080 C 779.202 -3.33314 0.989815 0
M  V30 8081 H 778.525 -3.556 1.82726 0
M  V30 8082 H 779.965 -4.12963 0.961123 0
M  V30 8083 C 778.424 -3.35496 -0.307272 0
M  V30 8084 O 778.954 -3.79589 -1.31434 0
M  V30 8085 N 777.16 -2.88669 -0.334414 0
M  V30 8086 H 776.707 -2.5298 0.485659 0
M  V30 8087 H 776.665 -2.90512 -1.20209 0
M  V30 8088 N 780.437 -1.16799 -1.0581 0
M  V30 8089 C 781.714 -0.862616 -1.75551 0
M  V30 8090 C 782.094 0.6385 -2.01212 0
M  V30 8091 O 781.442 1.58784 -1.64317 0
M  V30 8092 C 781.652 -1.6907 -3.05314 0
M  V30 8093 C 783 -1.90675 -3.79379 0
M  V30 8094 O 784.024 -1.65976 -3.15167 0
M  V30 8095 O 782.883 -2.32145 -4.94743 0
M  V30 8096 H 779.977 -0.318789 -0.763088 0
M  V30 8097 H 782.523 -1.27461 -1.12034 0
M  V30 8098 H 781.295 -2.70912 -2.82352 0
M  V30 8099 H 780.918 -1.27606 -3.76567 0
M  V30 8100 N 781.915 1.24427 -0.967243 0
M  V30 8101 C 783.164 1.91789 -0.624478 0
M  V30 8102 C 783.477 1.76448 0.844129 0
M  V30 8103 O 784.683 2.38495 1.2974 0
M  V30 8104 C 783.139 3.43743 -1.06626 0
M  V30 8105 C 782.747 3.67771 -2.55829 0
M  V30 8106 C 784.491 4.16958 -0.79662 0
M  V30 8107 C 782.398 5.13293 -2.93742 0
M  V30 8108 H 781.328 0.71811 -0.229856 0
M  V30 8109 H 783.979 1.41081 -1.17339 0
M  V30 8110 H 782.361 3.93484 -0.445663 0
M  V30 8111 H 783.535 3.28631 -3.23015 0
M  V30 8112 H 781.85 3.07841 -2.80398 0
M  V30 8113 H 784.447 5.24171 -1.05589 0
M  V30 8114 H 784.79 4.15442 0.267163 0
M  V30 8115 H 785.323 3.73164 -1.37816 0
M  V30 8116 H 782.062 5.19931 -3.9919 0
M  V30 8117 H 781.582 5.53433 -2.3124 0
M  V30 8118 H 783.261 5.81521 -2.83623 0
M  V30 8119 N 783.393 0.737304 1.3929 0
M  V30 8120 C 784.356 0.10731 2.28949 0
M  V30 8121 C 785.356 -0.664716 1.46418 0
M  V30 8122 O 786.546 -0.493392 1.67067 0
M  V30 8123 C 783.678 -0.857145 3.29948 0
M  V30 8124 H 784.871 0.89725 2.86163 0
M  V30 8125 H 782.424 0.503279 1.47976 0
M  V30 8126 H 783.159 -1.67336 2.77794 0
M  V30 8127 H 782.944 -0.306167 3.90903 0
M  V30 8128 H 784.434 -1.29444 3.97031 0
M  V30 8129 N 784.871 -1.49948 0.485112 0
M  V30 8130 C 785.801 -2.31675 -0.291364 0
M  V30 8131 C 786.782 -1.39216 -0.977383 0
M  V30 8132 O 787.967 -1.68133 -0.971855 0
M  V30 8133 C 785.097 -3.19326 -1.36558 0
M  V30 8134 C 784.051 -4.2045 -0.800359 0
M  V30 8135 C 783.377 -4.96931 -1.97391 0
M  V30 8136 C 784.677 -5.21925 0.197867 0
M  V30 8137 H 786.371 -2.96839 0.390775 0
M  V30 8138 H 783.917 -1.42749 0.189375 0
M  V30 8139 H 785.87 -3.75304 -1.91638 0
M  V30 8140 H 784.594 -2.52074 -2.07668 0
M  V30 8141 H 783.253 -3.65594 -0.271428 0
M  V30 8142 H 782.901 -4.26141 -2.67232 0
M  V30 8143 H 782.601 -5.65344 -1.60187 0
M  V30 8144 H 784.125 -5.55749 -2.52935 0
M  V30 8145 H 785.539 -5.72691 -0.264239 0
M  V30 8146 H 783.936 -5.98138 0.484908 0
M  V30 8147 H 785.006 -4.71809 1.11912 0
M  V30 8148 N 786.349 -0.21828 -1.56081 0
M  V30 8149 C 787.595 0.414921 -1.9851 0
M  V30 8150 C 787.928 1.59648 -1.10573 0
M  V30 8151 O 787.203 1.93818 -0.162695 0
M  V30 8152 C 787.486 0.852647 -3.4986 0
M  V30 8153 C 787.339 -0.33232 -4.48571 0
M  V30 8154 C 788.658 1.70998 -4.05521 0
M  V30 8155 H 785.777 0.149344 -0.72171 0
M  V30 8156 H 788.419 -0.313858 -1.8739 0
M  V30 8157 H 786.569 1.47362 -3.59467 0
M  V30 8158 H 788.241 -0.970418 -4.50977 0
M  V30 8159 H 786.484 -0.980302 -4.22578 0
M  V30 8160 H 787.155 0.0168407 -5.51997 0
M  V30 8161 H 789.631 1.18606 -3.98838 0
M  V30 8162 H 788.507 1.98517 -5.11744 0
M  V30 8163 H 788.768 2.67219 -3.52202 0
M  V30 8164 N 787.827 1.57504 0.0551401 0
M  V30 8165 C 789.243 1.54236 0.410292 0
M  V30 8166 C 789.443 0.940839 1.78187 0
M  V30 8167 O 788.499 0.550541 2.46425 0
M  V30 8168 C 789.812 2.98816 0.336064 0
M  V30 8169 C 791.36 3.10236 0.415047 0
M  V30 8170 C 791.835 4.56499 0.37055 0
M  V30 8171 N 793.326 4.61199 0.43013 0
M  V30 8172 C 794.061 5.71873 0.418179 0
M  V30 8173 N 793.557 6.91864 0.360056 0
M  V30 8174 N 795.35 5.60165 0.465977 0
M  V30 8175 H 787.501 1.94965 -0.842759 0
M  V30 8176 H 789.764 0.893096 -0.317937 0
M  V30 8177 H 789.47 3.4645 -0.605429 0
M  V30 8178 H 789.344 3.59564 1.13988 0
M  V30 8179 H 791.731 2.62566 1.34697 0
M  V30 8180 H 791.812 2.52367 -0.417648 0
M  V30 8181 H 791.456 5.0483 -0.557592 0
M  V30 8182 H 791.386 5.12249 1.221 0
M  V30 8183 H 793.877 3.74857 0.478623 0
M  V30 8184 H 794.19 7.71983 0.35532 0
M  V30 8185 H 792.535 6.94233 0.326492 0
M  V30 8186 H 795.726 4.65322 0.509194 0
M  V30 8187 H 795.899 6.46413 0.453194 0
M  V30 8188 N 789.305 -0.326896 1.54172 0
M  V30 8189 C 790.235 -1.40741 1.86317 0
M  V30 8190 C 791.216 -1.54125 0.719684 0
M  V30 8191 O 792.401 -1.6806 0.973117 0
M  V30 8192 C 789.531 -2.77557 2.08757 0
M  V30 8193 C 788.485 -2.78965 3.24596 0
M  V30 8194 C 787.811 -4.18824 3.32401 0
M  V30 8195 C 789.111 -2.4301 4.62324 0
M  V30 8196 H 790.805 -1.14088 2.76811 0
M  V30 8197 H 788.351 -0.547389 1.3319 0
M  V30 8198 H 790.304 -3.53209 2.29829 0
M  V30 8199 H 789.028 -3.0568 1.15009 0
M  V30 8200 H 787.687 -2.05767 3.03406 0
M  V30 8201 H 787.335 -4.44083 2.36218 0
M  V30 8202 H 787.035 -4.20673 4.10253 0
M  V30 8203 H 788.559 -4.96294 3.55703 0
M  V30 8204 H 789.973 -3.08375 4.83299 0
M  V30 8205 H 788.37 -2.56116 5.42701 0
M  V30 8206 H 789.44 -1.38165 4.64799 0
M  V30 8207 N 790.784 -1.46188 -0.588786 0
M  V30 8208 C 791.731 -1.56292 -1.69828 0
M  V30 8209 C 792.701 -0.407581 -1.61022 0
M  V30 8210 O 793.886 -0.623532 -1.80324 0
M  V30 8211 C 791.026 -1.55341 -3.08161 0
M  V30 8212 C 790.139 -2.81564 -3.27636 0
M  V30 8213 C 789.274 -2.72158 -4.56183 0
M  V30 8214 C 788.313 -3.93348 -4.68981 0
M  V30 8215 N 787.45 -3.82365 -5.88848 0
M  V30 8216 H 792.29 -2.51066 -1.6053 0
M  V30 8217 H 789.827 -1.24562 -0.782474 0
M  V30 8218 H 791.785 -1.52776 -3.88221 0
M  V30 8219 H 790.415 -0.641034 -3.16371 0
M  V30 8220 H 789.467 -2.94136 -2.41223 0
M  V30 8221 H 790.779 -3.714 -3.32962 0
M  V30 8222 H 789.933 -2.67665 -5.44464 0
M  V30 8223 H 788.672 -1.79953 -4.53286 0
M  V30 8224 H 787.677 -3.98181 -3.7912 0
M  V30 8225 H 788.902 -4.86643 -4.73662 0
M  V30 8226 H 786.848 -2.92942 -5.86959 0
M  V30 8227 H 786.765 -4.65851 -5.95415 0
M  V30 8228 H 788.033 -3.81836 -6.79575 0
M  V30 8229 N 792.262 0.832906 -1.33792 0
M  V30 8230 C 793.539 1.57359 -1.16178 0
M  V30 8231 C 793.919 2.09372 0.269532 0
M  V30 8232 O 793.267 1.89993 1.26944 0
M  V30 8233 C 793.477 2.70279 -2.20795 0
M  V30 8234 C 794.825 3.39305 -2.55259 0
M  V30 8235 O 795.849 2.80526 -2.19508 0
M  V30 8236 O 794.708 4.45428 -3.16632 0
M  V30 8237 H 791.802 0.694025 -0.449731 0
M  V30 8238 H 794.348 0.875144 -1.45394 0
M  V30 8239 H 793.12 2.29527 -3.16911 0
M  V30 8240 H 792.743 3.47782 -1.927 0
M  V30 8241 N 793.74 1.17359 1.05189 0
M  V30 8242 C 795.151 0.96793 1.5965 0
M  V30 8243 C 795.502 -0.485355 1.90102 0
M  V30 8244 O 794.627 -1.36066 1.6827 0
M  V30 8245 C 795.222 1.75068 2.90063 0
M  V30 8246 C 793.781 1.58969 3.41183 0
M  V30 8247 C 792.928 1.75231 2.14917 0
M  V30 8248 H 795.879 1.32067 0.880001 0
M  V30 8249 H 795.9 1.23308 3.59966 0
M  V30 8250 H 795.412 2.80835 2.67868 0
M  V30 8251 H 793.513 0.556906 3.68415 0
M  V30 8252 H 793.626 2.38067 4.15766 0
M  V30 8253 H 791.99 1.18073 2.25679 0
M  V30 8254 H 792.773 2.8241 1.95191 0
M  V30 8255 N 795.218 -1.23913 0.973828 0
M  V30 8256 C 796.464 -1.92436 0.640026 0
M  V30 8257 C 796.797 -1.75875 -0.823512 0
M  V30 8258 O 796.072 -1.11563 -1.59323 0
M  V30 8259 C 796.355 -3.4526 1.0231 0
M  V30 8260 C 796.208 -3.70961 2.54378 0
M  V30 8261 C 797.527 -4.36495 0.562155 0
M  V30 8262 H 794.646 -0.698868 0.233992 0
M  V30 8263 H 797.288 -1.46163 1.21393 0
M  V30 8264 H 795.438 -3.84802 0.534751 0
M  V30 8265 H 797.11 -3.40941 3.10737 0
M  V30 8266 H 795.353 -3.15899 2.97305 0
M  V30 8267 H 796.024 -4.77912 2.76232 0
M  V30 8268 H 798.5 -4.04363 0.981333 0
M  V30 8269 H 797.376 -5.42142 0.858689 0
M  V30 8270 H 797.637 -4.38818 -0.537659 0
M  V30 8271 N 796.696 -0.74468 -1.38897 0
M  V30 8272 C 797.643 -0.111064 -2.30533 0
M  V30 8273 C 798.613 0.719276 -1.49719 0
M  V30 8274 O 799.798 0.677244 -1.78376 0
M  V30 8275 C 796.938 0.78292 -3.36102 0
M  V30 8276 C 796.051 -0.0610817 -4.31957 0
M  V30 8277 C 795.186 0.835075 -5.24595 0
M  V30 8278 C 794.225 -0.0130974 -6.12099 0
M  V30 8279 N 793.362 0.839525 -6.97063 0
M  V30 8280 H 798.202 -0.898113 -2.84144 0
M  V30 8281 H 795.739 -0.454537 -1.39901 0
M  V30 8282 H 797.697 1.31578 -3.95908 0
M  V30 8283 H 796.327 1.53585 -2.83922 0
M  V30 8284 H 795.379 -0.711469 -3.73687 0
M  V30 8285 H 796.691 -0.716482 -4.93627 0
M  V30 8286 H 795.845 1.43542 -5.89475 0
M  V30 8287 H 794.584 1.52423 -4.63269 0
M  V30 8288 H 793.589 -0.626179 -5.46223 0
M  V30 8289 H 794.814 -0.699181 -6.75491 0
M  V30 8290 H 792.76 1.5138 -6.38295 0
M  V30 8291 H 792.677 0.240823 -7.55616 0
M  V30 8292 H 793.945 1.42513 -7.66362 0
M  V30 8293 N 798.174 1.49689 -0.493057 0
M  V30 8294 C 799.107 2.25712 0.336062 0
M  V30 8295 C 800.085 1.29953 0.977294 0
M  V30 8296 O 801.269 1.59225 1.00895 0
M  V30 8297 C 798.396 3.0501 1.47263 0
M  V30 8298 C 797.442 4.15863 0.946575 0
M  V30 8299 S 798.275 5.35272 -0.156323 0
M  V30 8300 C 799.431 6.18123 0.983601 0
M  V30 8301 H 799.664 2.95688 -0.309215 0
M  V30 8302 H 797.197 1.51872 -0.278238 0
M  V30 8303 H 799.155 3.51284 2.12391 0
M  V30 8304 H 797.816 2.34519 2.08949 0
M  V30 8305 H 797.009 4.70834 1.7981 0
M  V30 8306 H 796.611 3.72139 0.372647 0
M  V30 8307 H 798.903 6.50588 1.89056 0
M  V30 8308 H 799.846 7.06521 0.472687 0
M  V30 8309 H 800.254 5.50547 1.24735 0
M  V30 8310 N 799.652 0.226554 1.55963 0
M  V30 8311 C 800.9 -0.402991 1.98041 0
M  V30 8312 C 801.221 -1.59938 1.11557 0
M  V30 8313 O 800.491 -1.9494 0.193719 0
M  V30 8314 H 799.071 -0.15188 0.731397 0
M  V30 8315 H 801.733 0.320613 1.92245 0
M  V30 8316 H 800.829 -0.725937 3.0354 0
M  V30 8317 N 801.13 -1.57531 -0.0467866 0
M  V30 8318 C 802.541 -1.76945 -0.595603 0
M  V30 8319 C 802.892 -0.855354 -1.76573 0
M  V30 8320 O 802.017 -0.045668 -2.16352 0
M  V30 8321 C 802.612 -3.20881 -1.08725 0
M  V30 8322 C 801.171 -3.41553 -1.58172 0
M  V30 8323 C 800.318 -2.72533 -0.511968 0
M  V30 8324 H 803.269 -1.57682 0.179436 0
M  V30 8325 H 803.29 -3.26419 -1.95528 0
M  V30 8326 H 802.802 -3.87385 -0.235398 0
M  V30 8327 H 800.903 -2.80199 -2.456 0
M  V30 8328 H 801.016 -4.50104 -1.64143 0
M  V30 8329 H 799.38 -2.35797 -0.962899 0
M  V30 8330 H 800.163 -3.41709 0.330117 0
M  V30 8331 N 802.608 0.318715 -1.54344 0
M  V30 8332 C 803.836 1.0755 -1.7675 0
M  V30 8333 C 804.251 1.81543 -0.518422 0
M  V30 8334 O 803.608 1.75198 0.511078 0
M  V30 8335 C 803.659 2.06983 -2.96378 0
M  V30 8336 O 803.38 1.35995 -4.16458 0
M  V30 8337 C 804.881 2.94841 -3.31034 0
M  V30 8338 H 802.101 0.319711 -0.589937 0
M  V30 8339 H 804.645 0.363369 -2.01246 0
M  V30 8340 H 802.8 2.73724 -2.74142 0
M  V30 8341 H 803.214 2.02623 -4.83781 0
M  V30 8342 H 804.688 3.60496 -4.18027 0
M  V30 8343 H 805.165 3.62199 -2.48412 0
M  V30 8344 H 805.771 2.33656 -3.55366 0
M  V30 8345 N 804.086 1.46499 0.581025 0
M  V30 8346 C 805.332 1.52121 1.34116 0
M  V30 8347 C 805.665 0.173031 1.93428 0
M  V30 8348 O 804.94 -0.815729 1.76568 0
M  V30 8349 C 805.223 2.62108 2.46924 0
M  V30 8350 C 805.076 4.06462 1.92636 0
M  V30 8351 C 806.395 2.68167 3.48962 0
M  V30 8352 H 803.514 0.5538 0.486287 0
M  V30 8353 H 806.156 1.78443 0.652538 0
M  V30 8354 H 804.306 2.39794 3.05665 0
M  V30 8355 H 805.978 4.40068 1.3834 0
M  V30 8356 H 804.221 4.15862 1.23455 0
M  V30 8357 H 804.892 4.79152 2.74076 0
M  V30 8358 H 807.368 2.8823 3.00104 0
M  V30 8359 H 806.244 3.46942 4.2535 0
M  V30 8360 H 806.505 1.74284 4.06297 0
M  V30 8361 N 805.565 -0.825799 1.34232 0
M  V30 8362 C 806.79 -1.61883 1.29648 0
M  V30 8363 C 807.215 -1.87669 -0.127295 0
M  V30 8364 O 806.573 -1.45016 -1.08813 0
M  V30 8365 C 806.621 -2.93846 2.09014 0
M  V30 8366 O 805.725 -3.85778 1.4577 0
M  V30 8367 H 805.066 -0.492454 0.445405 0
M  V30 8368 H 807.596 -1.02641 1.76992 0
M  V30 8369 H 807.606 -3.43435 2.20264 0
M  V30 8370 H 806.281 -2.74401 3.12533 0
M  V30 8371 H 804.858 -3.4429 1.43245 0
M  V30 8372 N 807.043 -1.17915 -1.04565 0
M  V30 8373 C 808.454 -0.976383 -1.59134 0
M  V30 8374 C 808.805 0.475267 -1.90357 0
M  V30 8375 O 807.93 1.35172 -1.6899 0
M  V30 8376 C 808.525 -1.76604 -2.89131 0
M  V30 8377 C 807.084 -1.60777 -3.40335 0
M  V30 8378 C 806.231 -1.76369 -2.13985 0
M  V30 8379 H 809.182 -1.32532 -0.872985 0
M  V30 8380 H 809.203 -1.25215 -3.59307 0
M  V30 8381 H 808.715 -2.82252 -2.66375 0
M  V30 8382 H 806.816 -0.576436 -3.68114 0
M  V30 8383 H 806.929 -2.40268 -4.14497 0
M  V30 8384 H 805.293 -1.19268 -2.25049 0
M  V30 8385 H 806.076 -2.83441 -1.9369 0
M  V30 8386 N 808.521 1.23394 -0.980386 0
M  V30 8387 C 809.77 1.91116 -0.644785 0
M  V30 8388 C 810.083 1.77333 0.825367 0
M  V30 8389 O 811.289 2.39858 1.27203 0
M  V30 8390 C 809.745 3.42592 -1.10266 0
M  V30 8391 C 809.353 3.65037 -2.59715 0
M  V30 8392 C 811.097 4.1609 -0.8408 0
M  V30 8393 C 809.004 5.10148 -2.9917 0
M  V30 8394 H 807.934 0.715632 -0.23746 0
M  V30 8395 H 810.585 1.39829 -1.18828 0
M  V30 8396 H 808.967 3.92989 -0.487372 0
M  V30 8397 H 810.141 3.25186 -3.26482 0
M  V30 8398 H 808.456 3.04849 -2.83647 0
M  V30 8399 H 811.053 5.23021 -1.11143 0
M  V30 8400 H 811.396 4.15702 0.223085 0
M  V30 8401 H 811.929 3.71681 -1.41767 0
M  V30 8402 H 808.668 5.15668 -4.04682 0
M  V30 8403 H 808.188 5.50949 -2.37097 0
M  V30 8404 H 809.867 5.7848 -2.89775 0
M  V30 8405 N 809.999 0.752036 1.385 0
M  V30 8406 C 811.239 0.312408 2.01998 0
M  V30 8407 C 811.603 -1.085 1.58404 0
M  V30 8408 O 812.804 -1.62365 2.14222 0
M  V30 8409 C 811.075 0.429423 3.54811 0
M  V30 8410 S 812.634 0.0721487 4.38741 0
M  V30 8411 H 809.452 0.1213 0.700576 0
M  V30 8412 H 812.054 0.982312 1.69029 0
M  V30 8413 H 810.758 1.44743 3.84028 0
M  V30 8414 H 810.289 -0.257716 3.92555 0
M  V30 8415 H 812.304 -1.13875 4.82957 0
M  V30 8416 N 811.477 -1.49425 0.500989 0
M  V30 8417 C 812.407 -2.31971 -0.266775 0
M  V30 8418 C 813.388 -1.40245 -0.962563 0
M  V30 8419 O 814.573 -1.69154 -0.953968 0
M  V30 8420 C 811.703 -3.20757 -1.33163 0
M  V30 8421 C 810.657 -4.21275 -0.75572 0
M  V30 8422 C 809.983 -4.98997 -1.92109 0
M  V30 8423 C 811.283 -5.21686 0.253213 0
M  V30 8424 H 812.977 -2.96408 0.422237 0
M  V30 8425 H 810.523 -1.4254 0.204505 0
M  V30 8426 H 812.476 -3.77315 -1.87646 0
M  V30 8427 H 811.2 -2.54263 -2.04983 0
M  V30 8428 H 809.859 -3.65861 -0.232637 0
M  V30 8429 H 809.507 -4.28951 -2.62698 0
M  V30 8430 H 809.207 -5.67011 -1.54182 0
M  V30 8431 H 810.731 -5.584 -2.47026 0
M  V30 8432 H 812.145 -5.72939 -0.203483 0
M  V30 8433 H 810.542 -5.9759 0.548322 0
M  V30 8434 H 811.612 -4.70596 1.16909 0
M  V30 8435 N 812.955 -0.234822 -1.55841 0
M  V30 8436 C 814.366 0.270588 -1.84729 0
M  V30 8437 C 814.717 1.58494 -1.15646 0
M  V30 8438 O 813.842 2.12071 -0.430667 0
M  V30 8439 C 814.437 0.497733 -3.35124 0
M  V30 8440 C 812.996 0.947428 -3.64281 0
M  V30 8441 C 812.143 0.01787 -2.77294 0
M  V30 8442 H 815.094 -0.457691 -1.51957 0
M  V30 8443 H 815.115 1.34199 -3.56049 0
M  V30 8444 H 814.627 -0.459037 -3.85376 0
M  V30 8445 H 812.728 1.91709 -3.19497 0
M  V30 8446 H 812.841 0.812651 -4.72158 0
M  V30 8447 H 811.205 0.527071 -2.49187 0
M  V30 8448 H 811.988 -0.934056 -3.30349 0
M  V30 8449 N 814.433 1.57553 0.0384317 0
M  V30 8450 C 815.681 1.88468 0.729672 0
M  V30 8451 C 816.002 0.831302 1.76393 0
M  V30 8452 O 815.272 -0.13622 1.95426 0
M  V30 8453 H 813.852 0.695529 0.272485 0
M  V30 8454 H 816.514 1.94899 0.0066032 0
M  V30 8455 H 815.61 2.8705 1.22511 0
M  V30 8456 N 815.911 -0.310526 1.54511 0
M  V30 8457 C 817.139 -1.06611 1.77318 0
M  V30 8458 C 817.554 -1.81265 0.528043 0
M  V30 8459 O 816.911 -1.75466 -0.50178 0
M  V30 8460 C 816.962 -2.05409 2.97472 0
M  V30 8461 O 816.683 -1.33785 4.17173 0
M  V30 8462 C 818.184 -2.93082 3.32593 0
M  V30 8463 H 815.404 -0.316578 0.591624 0
M  V30 8464 H 817.948 -0.352691 2.01436 0
M  V30 8465 H 816.103 -2.72266 2.7559 0
M  V30 8466 H 816.517 -2.00055 4.84849 0
M  V30 8467 H 817.991 -3.58274 4.19933 0
M  V30 8468 H 818.468 -3.60877 2.50329 0
M  V30 8469 H 819.074 -2.31768 3.566 0
M  V30 8470 N 817.389 -1.46805 -0.573248 0
M  V30 8471 C 818.614 -1.56433 -1.36175 0
M  V30 8472 C 819.039 -0.209336 -1.86932 0
M  V30 8473 O 818.397 0.812146 -1.62092 0
M  V30 8474 C 818.445 -2.58055 -2.51873 0
M  V30 8475 O 817.549 -2.12214 -3.53609 0
M  V30 8476 H 816.89 -0.526068 -0.405153 0
M  V30 8477 H 819.42 -1.92456 -0.694405 0
M  V30 8478 H 819.43 -2.77966 -2.98662 0
M  V30 8479 H 818.105 -3.56448 -2.14284 0
M  V30 8480 H 816.682 -2.02333 -3.13234 0
M  V30 8481 N 818.867 0.818669 -1.34668 0
M  V30 8482 C 820.092 1.61193 -1.30505 0
M  V30 8483 C 820.517 1.87734 0.117341 0
M  V30 8484 O 819.875 1.45591 1.08042 0
M  V30 8485 C 819.923 2.92733 -2.1057 0
M  V30 8486 O 819.027 3.85 -1.47813 0
M  V30 8487 H 818.368 0.490085 -0.44801 0
M  V30 8488 H 820.898 1.01701 -1.77534 0
M  V30 8489 H 820.908 3.42262 -2.22082 0
M  V30 8490 H 819.583 2.7274 -3.13984 0
M  V30 8491 H 818.16 3.43525 -1.45069 0
M  V30 8492 N 820.346 1.18468 1.03938 0
M  V30 8493 C 821.623 0.890435 1.74157 0
M  V30 8494 C 822.003 -0.606409 2.02203 0
M  V30 8495 O 821.351 -1.5615 1.66822 0
M  V30 8496 C 821.561 1.73906 3.02585 0
M  V30 8497 C 822.909 1.96686 3.76297 0
M  V30 8498 O 823.933 1.70969 3.12487 0
M  V30 8499 O 822.792 2.39986 4.90988 0
M  V30 8500 H 819.886 0.330889 0.757919 0
M  V30 8501 H 822.432 1.29228 1.09992 0
M  V30 8502 H 821.204 2.75369 2.78006 0
M  V30 8503 H 820.827 1.33581 3.74489 0
M  V30 8504 N 821.824 -1.22873 0.986916 0
M  V30 8505 C 823.054 -1.95204 0.67668 0
M  V30 8506 C 823.462 -1.73193 -0.761641 0
M  V30 8507 O 822.805 -1.0243 -1.52492 0
M  V30 8508 C 822.867 -3.48173 0.895302 0
M  V30 8509 C 822.531 -3.93912 2.31695 0
M  V30 8510 C 823.528 -4.02064 3.29607 0
M  V30 8511 C 821.213 -4.26722 2.64978 0
M  V30 8512 C 823.207 -4.42391 4.58878 0
M  V30 8513 C 820.894 -4.66729 3.94471 0
M  V30 8514 C 821.892 -4.74531 4.91232 0
M  V30 8515 O 821.58 -5.13636 6.18412 0
M  V30 8516 H 821.312 -0.628105 0.24992 0
M  V30 8517 H 823.866 -1.5714 1.32274 0
M  V30 8518 H 822.096 -3.86223 0.192072 0
M  V30 8519 H 823.785 -4.01717 0.581233 0
M  V30 8520 H 824.551 -3.76912 3.05225 0
M  V30 8521 H 820.43 -4.19858 1.9037 0
M  V30 8522 H 823.974 -4.48395 5.34404 0
M  V30 8523 H 819.871 -4.91332 4.18645 0
M  V30 8524 H 820.639 -5.31728 6.2226 0
M  V30 8525 N 823.302 -0.75937 -1.38099 0
M  V30 8526 C 824.25 -0.124954 -2.32264 0
M  V30 8527 C 825.244 0.698863 -1.54312 0
M  V30 8528 O 826.45 0.597312 -1.698 0
M  V30 8529 H 822.825 -0.0216142 -0.751689 0
M  V30 8530 H 824.796 -0.935115 -2.83369 0
M  V30 8531 C 823.545 0.749463 -3.39527 0
M  V30 8532 H 822.868 0.124932 -3.99605 0
M  V30 8533 H 824.308 1.16055 -4.07808 0
M  V30 8534 C 822.767 1.89464 -2.78577 0
M  V30 8535 O 823.297 2.98923 -2.68343 0
M  V30 8536 N 821.503 1.69145 -2.36301 0
M  V30 8537 H 821.05 0.801157 -2.44825 0
M  V30 8538 H 821.008 2.45936 -1.95864 0
M  V30 8539 N 824.78 1.49157 -0.508906 0
M  V30 8540 C 825.71 2.32109 0.254469 0
M  V30 8541 C 826.691 1.40754 0.955111 0
M  V30 8542 O 827.876 1.69658 0.944983 0
M  V30 8543 C 825.006 3.21458 1.3146 0
M  V30 8544 C 823.96 4.2167 0.733368 0
M  V30 8545 C 823.286 5.00009 1.8946 0
M  V30 8546 C 824.586 5.21544 -0.280875 0
M  V30 8547 H 826.28 2.9618 -0.43795 0
M  V30 8548 H 823.826 1.4243 -0.212062 0
M  V30 8549 H 825.779 3.78305 1.85643 0
M  V30 8550 H 824.503 2.55346 2.03632 0
M  V30 8551 H 823.162 3.65979 0.213231 0
M  V30 8552 H 822.81 4.30338 2.60419 0
M  V30 8553 H 822.51 5.67821 1.51173 0
M  V30 8554 H 824.034 5.59702 2.44061 0
M  V30 8555 H 825.448 5.73039 0.173095 0
M  V30 8556 H 823.845 5.97291 -0.580006 0
M  V30 8557 H 824.915 4.69969 -1.19404 0
M  V30 8558 N 826.258 0.243083 1.55714 0
M  V30 8559 C 827.191 -0.698623 2.17243 0
M  V30 8560 C 828.169 -1.1756 1.12331 0
M  V30 8561 O 829.353 -1.25444 1.40699 0
M  V30 8562 C 826.48 -1.94901 2.77004 0
M  V30 8563 C 825.526 -1.61022 3.94936 0
M  V30 8564 S 826.359 -0.716173 5.30689 0
M  V30 8565 C 827.515 -1.97565 5.93901 0
M  V30 8566 H 827.748 -0.175724 2.9678 0
M  V30 8567 H 825.281 0.0275727 1.54375 0
M  V30 8568 H 827.239 -2.66687 3.12071 0
M  V30 8569 H 825.9 -2.44304 1.9742 0
M  V30 8570 H 825.093 -2.5398 4.35328 0
M  V30 8571 H 824.695 -0.972829 3.61126 0
M  V30 8572 H 826.987 -2.92333 6.11186 0
M  V30 8573 H 827.93 -1.61528 6.8943 0
M  V30 8574 H 828.338 -2.126 5.22935 0
M  V30 8575 N 827.736 -1.57571 -0.0300757 0
M  V30 8576 C 829.013 -1.80381 -0.756447 0
M  V30 8577 C 829.393 -0.840906 -1.93628 0
M  V30 8578 O 828.741 0.117143 -2.282 0
M  V30 8579 C 828.951 -3.2807 -1.19043 0
M  V30 8580 C 830.299 -3.93025 -1.60676 0
M  V30 8581 O 831.323 -3.32213 -1.28503 0
M  V30 8582 O 830.182 -5.00092 -2.20386 0
M  V30 8583 H 827.276 -0.741737 -0.365725 0
M  V30 8584 H 829.822 -1.69699 -0.00693177 0
M  V30 8585 H 828.594 -3.89748 -0.348128 0
M  V30 8586 H 828.217 -3.43637 -1.99999 0
M  V30 8587 N 829.214 0.302327 -1.54673 0
M  V30 8588 C 830.462 1.03565 -1.73547 0
M  V30 8589 C 830.783 1.87843 -0.523448 0
M  V30 8590 O 830.053 1.90367 0.462295 0
M  V30 8591 H 828.633 0.385358 -0.639928 0
M  V30 8592 H 831.295 0.333632 -1.92023 0
M  V30 8593 H 830.391 1.68952 -2.62415 0
M  V30 8594 N 830.692 1.47107 0.565454 0
M  V30 8595 C 831.969 1.43787 1.32607 0
M  V30 8596 C 832.349 0.130428 2.10697 0
M  V30 8597 O 831.697 -0.888086 2.10536 0
M  V30 8598 C 831.907 2.67833 2.23755 0
M  V30 8599 C 833.255 3.14704 2.85037 0
M  V30 8600 O 834.279 2.68503 2.34061 0
M  V30 8601 O 833.138 3.95002 3.77671 0
M  V30 8602 H 830.232 0.572623 0.596684 0
M  V30 8603 H 832.778 1.59296 0.58504 0
M  V30 8604 H 831.55 3.54532 1.65597 0
M  V30 8605 H 831.173 2.54869 3.05168 0
M  V30 8606 N 832.17 -0.811516 1.35101 0
M  V30 8607 C 833.1 -1.9378 1.30275 0
M  V30 8608 C 834.081 -1.69165 0.178075 0
M  V30 8609 O 835.266 -1.90599 0.372256 0
M  V30 8610 C 832.396 -3.30439 1.06899 0
M  V30 8611 C 831.35 -3.69523 2.15955 0
M  V30 8612 C 830.676 -5.0429 1.77751 0
M  V30 8613 C 831.976 -3.80419 3.57881 0
M  V30 8614 H 833.67 -1.98075 2.24514 0
M  V30 8615 H 831.216 -0.951586 1.08078 0
M  V30 8616 H 833.169 -4.08828 1.02164 0
M  V30 8617 H 831.893 -3.26473 0.0910462 0
M  V30 8618 H 830.552 -2.93416 2.19778 0
M  V30 8619 H 830.2 -4.96823 0.785876 0
M  V30 8620 H 829.9 -5.31411 2.5075 0
M  V30 8621 H 831.424 -5.85125 1.74533 0
M  V30 8622 H 832.838 -4.49051 3.56407 0
M  V30 8623 H 831.235 -4.19005 4.29598 0
M  V30 8624 H 832.305 -2.82105 3.94391 0
M  V30 8625 N 833.648 -1.19017 -1.03309 0
M  V30 8626 C 834.896 -0.988258 -1.76289 0
M  V30 8627 C 835.217 0.482557 -1.88935 0
M  V30 8628 O 834.487 1.34969 -1.41987 0
M  V30 8629 H 833.067 -0.36267 -0.653054 0
M  V30 8630 H 835.729 -1.49836 -1.2464 0
M  V30 8631 H 834.825 -1.43273 -2.77271 0
M  V30 8632 N 835.127 1.22348 -0.993418 0
M  V30 8633 C 836.057 2.26584 -0.564088 0
M  V30 8634 C 837.038 1.65102 0.409298 0
M  V30 8635 O 838.223 1.91872 0.299819 0
M  V30 8636 C 835.353 3.47087 0.121554 0
M  V30 8637 C 834.307 4.21009 -0.770429 0
M  V30 8638 C 833.633 5.34678 0.0481586 0
M  V30 8639 C 834.933 4.79636 -2.06752 0
M  V30 8640 H 836.627 2.62749 -1.43538 0
M  V30 8641 H 834.173 1.26303 -0.691628 0
M  V30 8642 H 836.126 4.19166 0.433303 0
M  V30 8643 H 834.85 3.1002 1.0274 0
M  V30 8644 H 833.509 3.50764 -1.06583 0
M  V30 8645 H 833.157 4.93852 0.954933 0
M  V30 8646 H 832.857 5.85061 -0.545641 0
M  V30 8647 H 834.381 6.09573 0.353991 0
M  V30 8648 H 835.795 5.43654 -1.81969 0
M  V30 8649 H 834.192 5.4036 -2.61019 0
M  V30 8650 H 835.262 3.99659 -2.74592 0
M  V30 8651 N 836.605 0.766683 1.37694 0
M  V30 8652 C 837.854 0.325425 1.99057 0
M  V30 8653 C 838.167 -1.10275 1.61551 0
M  V30 8654 O 839.373 -1.64513 2.1598 0
M  V30 8655 C 837.829 0.530886 3.55963 0
M  V30 8656 C 837.437 1.96899 4.02411 0
M  V30 8657 C 839.181 0.152997 4.24224 0
M  V30 8658 C 837.088 2.12232 5.52007 0
M  V30 8659 H 836.018 0.117929 0.744721 0
M  V30 8660 H 838.669 0.945091 1.5729 0
M  V30 8661 H 837.051 -0.158162 3.95684 0
M  V30 8662 H 838.225 2.69258 3.73948 0
M  V30 8663 H 836.54 2.303 3.46916 0
M  V30 8664 H 839.137 0.24614 5.34133 0
M  V30 8665 H 839.48 -0.896096 4.06541 0
M  V30 8666 H 840.013 0.794398 3.89787 0
M  V30 8667 H 836.752 3.15442 5.7461 0
M  V30 8668 H 836.272 1.4435 5.82171 0
M  V30 8669 H 837.951 1.9185 6.17902 0
M  V30 8670 N 838.083 -1.48885 0.516809 0
M  V30 8671 C 839.308 -2.0739 -0.0205201 0
M  V30 8672 C 839.733 -1.37259 -1.28614 0
M  V30 8673 O 839.091 -0.434304 -1.76021 0
M  V30 8674 C 839.139 -3.59793 -0.24104 0
M  V30 8675 O 838.243 -3.90957 -1.31251 0
M  V30 8676 H 837.584 -0.663167 0.0332564 0
M  V30 8677 H 840.114 -1.91477 0.720956 0
M  V30 8678 H 840.124 -4.0531 -0.467737 0
M  V30 8679 H 838.799 -4.10244 0.68356 0
M  V30 8680 H 837.376 -3.57234 -1.06951 0
M  V30 8681 N 839.561 -0.251338 -1.55583 0
M  V30 8682 C 840.809 0.371434 -1.98657 0
M  V30 8683 C 841.13 1.58143 -1.14087 0
M  V30 8684 O 840.4 1.94607 -0.224708 0
M  V30 8685 H 838.98 0.140225 -0.733721 0
M  V30 8686 H 841.642 -0.351157 -1.9171 0
M  V30 8687 H 840.738 0.677554 -3.04657 0
M  V30 8688 N 841.039 1.57585 0.0217189 0
M  V30 8689 C 842.285 1.90733 0.706582 0
M  V30 8690 C 842.64 0.850732 1.7257 0
M  V30 8691 O 841.933 -0.139715 1.9109 0
M  V30 8692 C 842.127 3.28377 1.41079 0
M  V30 8693 C 841.956 4.47327 0.461395 0
M  V30 8694 C 840.726 5.05237 0.0797404 0
M  V30 8695 C 842.924 5.13626 -0.263302 0
M  V30 8696 N 840.906 6.07702 -0.870139 0
M  V30 8697 C 842.277 6.10722 -1.06859 0
M  V30 8698 C 844.332 4.96809 -0.329461 0
M  V30 8699 C 843.035 6.92813 -1.93397 0
M  V30 8700 C 845.061 5.79468 -1.18199 0
M  V30 8701 C 844.423 6.7614 -1.97519 0
M  V30 8702 H 840.522 0.74666 0.232427 0
M  V30 8703 H 843.106 1.94671 -0.0335228 0
M  V30 8704 H 841.277 3.25354 2.12131 0
M  V30 8705 H 843.009 3.49018 2.04862 0
M  V30 8706 H 839.764 4.71519 0.443498 0
M  V30 8707 H 840.188 6.6361 -1.33981 0
M  V30 8708 H 844.83 4.2194 0.269485 0
M  V30 8709 H 842.548 7.67022 -2.54369 0
M  V30 8710 H 846.134 5.68502 -1.23681 0
M  V30 8711 H 845.014 7.38989 -2.62421 0
M  V30 8712 N 842.517 -0.29412 1.54831 0
M  V30 8713 C 843.765 -1.02643 1.74094 0
M  V30 8714 C 844.086 -1.87563 0.533402 0
M  V30 8715 O 843.356 -1.9061 -0.452192 0
M  V30 8716 H 841.936 -0.381959 0.641963 0
M  V30 8717 H 844.598 -0.323444 1.92197 0
M  V30 8718 H 843.694 -1.67558 2.63307 0
M  V30 8719 N 843.995 -1.47404 -0.557645 0
M  V30 8720 C 845.411 -1.32913 -0.88353 0
M  V30 8721 C 845.611 -0.31929 -1.98954 0
M  V30 8722 O 844.667 0.26934 -2.51059 0
M  V30 8723 C 845.98 -2.72229 -1.27718 0
M  V30 8724 C 847.528 -2.8051 -1.38863 0
M  V30 8725 C 848.003 -4.20466 -1.81583 0
M  V30 8726 N 849.494 -4.23005 -1.88735 0
M  V30 8727 C 850.229 -5.2821 -2.23118 0
M  V30 8728 N 849.725 -6.4372 -2.56117 0
M  V30 8729 N 851.518 -5.15588 -2.23888 0
M  V30 8730 H 843.669 -2.11698 0.172557 0
M  V30 8731 H 845.932 -0.947889 0.0145334 0
M  V30 8732 H 845.638 -3.47556 -0.538329 0
M  V30 8733 H 845.512 -3.03971 -2.23342 0
M  V30 8734 H 847.899 -2.05457 -2.11829 0
M  V30 8735 H 847.98 -2.52423 -0.414274 0
M  V30 8736 H 847.624 -4.96025 -1.09187 0
M  V30 8737 H 847.554 -4.45977 -2.80021 0
M  V30 8738 H 850.045 -3.39674 -1.65621 0
M  V30 8739 H 850.358 -7.19754 -2.81378 0
M  V30 8740 H 848.703 -6.47041 -2.53698 0
M  V30 8741 H 851.894 -4.24374 -1.97546 0
M  V30 8742 H 852.067 -5.97685 -2.50353 0
M  V30 8743 N 845.473 0.80434 -1.35529 0
M  V30 8744 C 846.701 1.59283 -1.32048 0
M  V30 8745 C 847.116 1.88527 0.101556 0
M  V30 8746 O 846.473 1.48975 1.05417 0
M  V30 8747 C 846.524 2.92276 -2.12737 0
M  V30 8748 O 846.245 2.64299 -3.49396 0
M  V30 8749 C 847.746 3.86631 -2.16867 0
M  V30 8750 H 844.966 0.494523 -0.453528 0
M  V30 8751 H 847.51 0.999415 -1.78415 0
M  V30 8752 H 845.665 3.48125 -1.69964 0
M  V30 8753 H 846.079 3.4923 -3.91329 0
M  V30 8754 H 847.553 4.77053 -2.77712 0
M  V30 8755 H 848.03 4.23384 -1.16803 0
M  V30 8756 H 848.636 3.36717 -2.59811 0
M  V30 8757 N 846.951 1.19563 1.02676 0
M  V30 8758 C 847.861 0.950691 2.14474 0
M  V30 8759 C 848.877 -0.0900219 1.73767 0
M  V30 8760 O 850.053 0.0951063 2.01175 0
M  V30 8761 C 847.118 0.494917 3.43149 0
M  V30 8762 C 846.179 1.60527 3.98158 0
M  V30 8763 C 845.412 1.17115 5.20692 0
M  V30 8764 O 845.635 0.0355937 5.70389 0
M  V30 8765 O 844.569 1.97454 5.68591 0
M  V30 8766 H 848.395 1.88651 2.38001 0
M  V30 8767 H 845.98 0.978635 1.12885 0
M  V30 8768 H 847.862 0.249492 4.20661 0
M  V30 8769 H 846.537 -0.412434 3.21062 0
M  V30 8770 H 845.444 1.90487 3.21971 0
M  V30 8771 H 846.777 2.48925 4.24614 0
M  V30 8772 N 848.429 -1.21819 0.999893 0
M  V30 8773 C 849.376 -2.24003 0.556005 0
M  V30 8774 C 850.346 -1.60825 -0.415287 0
M  V30 8775 O 851.531 -1.88123 -0.318481 0
M  V30 8776 C 848.671 -3.44904 -0.116289 0
M  V30 8777 C 847.784 -4.22573 0.897574 0
M  V30 8778 C 846.919 -5.30831 0.198073 0
M  V30 8779 C 845.958 -6.00225 1.19983 0
M  V30 8780 N 845.095 -7.00111 0.528157 0
M  V30 8781 H 849.935 -2.61334 1.43208 0
M  V30 8782 H 847.472 -1.28431 0.717205 0
M  V30 8783 H 849.43 -4.13908 -0.523055 0
M  V30 8784 H 848.06 -3.08315 -0.956108 0
M  V30 8785 H 847.112 -3.52797 1.42262 0
M  V30 8786 H 848.424 -4.70363 1.66013 0
M  V30 8787 H 847.578 -6.06121 -0.265065 0
M  V30 8788 H 846.317 -4.84033 -0.596924 0
M  V30 8789 H 845.322 -5.23711 1.67353 0
M  V30 8790 H 846.547 -6.4911 1.99582 0
M  V30 8791 H 844.493 -6.55534 -0.247276 0
M  V30 8792 H 844.41 -7.45943 1.22904 0
M  V30 8793 H 845.678 -7.7945 0.0880543 0
M  V30 8794 N 849.908 -0.773975 -1.37286 0
M  V30 8795 C 851.324 -0.45386 -1.53011 0
M  V30 8796 C 851.524 1.03018 -1.73175 0
M  V30 8797 O 850.58 1.81597 -1.75438 0
M  V30 8798 C 851.893 -1.27087 -2.72524 0
M  V30 8799 C 853.441 -1.26299 -2.86387 0
M  V30 8800 C 853.916 -2.0634 -4.08886 0
M  V30 8801 N 855.407 -2.03706 -4.16003 0
M  V30 8802 C 856.142 -2.62418 -5.09828 0
M  V30 8803 N 855.638 -3.29926 -6.09197 0
M  V30 8804 N 857.431 -2.52236 -5.02328 0
M  V30 8805 H 849.582 -1.73551 -1.22449 0
M  V30 8806 H 851.845 -0.736874 -0.596423 0
M  V30 8807 H 851.551 -2.32263 -2.64096 0
M  V30 8808 H 851.425 -0.90157 -3.66267 0
M  V30 8809 H 853.812 -0.219213 -2.94285 0
M  V30 8810 H 853.893 -1.67195 -1.93596 0
M  V30 8811 H 853.537 -3.10741 -4.01749 0
M  V30 8812 H 853.467 -1.62825 -5.00795 0
M  V30 8813 H 855.958 -1.54559 -3.44848 0
M  V30 8814 H 856.271 -3.72095 -6.77322 0
M  V30 8815 H 854.616 -3.34026 -6.09469 0
M  V30 8816 H 857.807 -1.99108 -4.23643 0
M  V30 8817 H 857.98 -2.98286 -5.75265 0
M  V30 8818 N 851.386 1.48609 -0.524698 0
M  V30 8819 C 852.663 1.95454 0.075465 0
M  V30 8820 C 853.043 1.46682 1.51814 0
M  V30 8821 O 852.391 0.690975 2.17802 0
M  V30 8822 C 852.601 3.48981 -0.0363273 0
M  V30 8823 C 853.949 4.24414 0.125624 0
M  V30 8824 O 854.973 3.5618 0.0377239 0
M  V30 8825 O 853.832 5.45625 0.309104 0
M  V30 8826 H 850.926 0.822902 0.0822256 0
M  V30 8827 H 853.472 1.59153 -0.588921 0
M  V30 8828 H 852.244 3.77185 -1.04149 0
M  V30 8829 H 851.867 3.91963 0.667146 0
M  V30 8830 N 852.864 0.259585 1.55447 0
M  V30 8831 C 854.28 -0.094961 1.59317 0
M  V30 8832 C 854.48 -1.55884 1.2768 0
M  V30 8833 O 853.536 -2.30528 1.0302 0
M  V30 8834 C 854.849 0.265669 2.99524 0
M  V30 8835 C 856.397 0.211007 3.12288 0
M  V30 8836 C 856.872 0.545851 4.54736 0
M  V30 8837 N 858.363 0.496823 4.60528 0
M  V30 8838 C 859.098 0.728909 5.68748 0
M  V30 8839 N 858.594 1.02479 6.85179 0
M  V30 8840 N 860.387 0.658756 5.58226 0
M  V30 8841 H 852.538 1.2141 1.7428 0
M  V30 8842 H 854.801 0.489404 0.811904 0
M  V30 8843 H 854.507 1.28316 3.27457 0
M  V30 8844 H 854.381 -0.401089 3.75061 0
M  V30 8845 H 856.768 -0.797172 2.84129 0
M  V30 8846 H 856.849 0.911799 2.38998 0
M  V30 8847 H 856.493 1.55164 4.83618 0
M  V30 8848 H 856.423 -0.17656 5.26304 0
M  V30 8849 H 858.914 0.277376 3.76881 0
M  V30 8850 H 859.227 1.18897 7.63599 0
M  V30 8851 H 857.572 1.0624 6.86832 0
M  V30 8852 H 860.763 0.427553 4.66143 0
M  V30 8853 H 860.936 0.84302 6.42493 0
M  V30 8854 N 854.342 -1.57594 -0.0133615 0
M  V30 8855 C 855.305 -2.06534 -0.993799 0
M  V30 8856 C 856.305 -0.972267 -1.28077 0
M  V30 8857 O 857.495 -1.23537 -1.22818 0
M  V30 8858 C 854.627 -2.49554 -2.3224 0
M  V30 8859 H 855.82 -2.94419 -0.570741 0
M  V30 8860 H 853.373 -1.54113 -0.260546 0
M  V30 8861 H 854.108 -1.64872 -2.79263 0
M  V30 8862 H 853.893 -3.29371 -2.12737 0
M  V30 8863 H 855.383 -2.8779 -3.026 0
M  V30 8864 N 855.82 0.285905 -1.54985 0
M  V30 8865 C 857.066 1.02071 -1.75241 0
M  V30 8866 C 857.399 1.864 -0.544842 0
M  V30 8867 O 856.674 1.89034 0.457844 0
M  V30 8868 C 856.957 1.91409 -3.05016 0
M  V30 8869 C 856.81 1.10158 -4.36102 0
M  V30 8870 C 858.129 2.90335 -3.30747 0
M  V30 8871 H 855.248 0.369663 -0.637588 0
M  V30 8872 H 857.89 0.294114 -1.8771 0
M  V30 8873 H 856.04 2.53362 -2.94517 0
M  V30 8874 H 857.712 0.503756 -4.58541 0
M  V30 8875 H 855.955 0.404675 -4.31908 0
M  V30 8876 H 856.626 1.75956 -5.23205 0
M  V30 8877 H 859.102 2.38514 -3.40955 0
M  V30 8878 H 857.978 3.49997 -4.2284 0
M  V30 8879 H 858.239 3.64787 -2.49765 0
M  V30 8880 N 857.298 1.47698 0.54982 0
M  V30 8881 C 858.714 1.3338 0.876468 0
M  V30 8882 C 858.914 0.329837 1.98782 0
M  V30 8883 O 857.97 -0.256022 2.51199 0
M  V30 8884 C 859.283 2.72903 1.26272 0
M  V30 8885 C 860.831 2.81243 1.37373 0
M  V30 8886 C 861.306 4.21423 1.79351 0
M  V30 8887 N 862.797 4.24 1.86489 0
M  V30 8888 C 863.532 5.29386 2.20313 0
M  V30 8889 N 863.028 6.4507 2.527 0
M  V30 8890 N 864.821 5.16768 2.2115 0
M  V30 8891 H 856.972 2.11603 -0.183781 0
M  V30 8892 H 859.235 0.947798 -0.0195601 0
M  V30 8893 H 858.941 3.47836 0.519889 0
M  V30 8894 H 858.815 3.05151 2.21727 0
M  V30 8895 H 861.202 2.06577 2.10737 0
M  V30 8896 H 861.283 2.52639 0.400882 0
M  V30 8897 H 860.927 4.96597 1.06555 0
M  V30 8898 H 860.857 4.47456 2.77652 0
M  V30 8899 H 863.348 3.40547 1.63817 0
M  V30 8900 H 863.661 7.21236 2.77557 0
M  V30 8901 H 862.006 6.48377 2.50263 0
M  V30 8902 H 865.197 4.25416 1.95293 0
M  V30 8903 H 865.37 5.99004 2.4718 0
M  V30 8904 N 858.776 -0.797141 1.35954 0
M  V30 8905 C 859.706 -1.92387 1.32323 0
M  V30 8906 C 860.687 -1.68967 0.196007 0
M  V30 8907 O 861.872 -1.90193 0.39245 0
M  V30 8908 C 859.002 -3.29286 1.10398 0
M  V30 8909 C 857.956 -3.67212 2.19862 0
M  V30 8910 C 857.282 -5.02377 1.8309 0
M  V30 8911 C 858.582 -3.76602 3.61896 0
M  V30 8912 H 860.276 -1.95683 2.26602 0
M  V30 8913 H 857.822 -0.94007 1.09081 0
M  V30 8914 H 859.775 -4.07721 1.06495 0
M  V30 8915 H 858.499 -3.26358 0.125668 0
M  V30 8916 H 857.158 -2.91069 2.22878 0
M  V30 8917 H 856.806 -4.95961 0.838527 0
M  V30 8918 H 856.506 -5.28722 2.56372 0
M  V30 8919 H 858.03 -5.8324 1.80729 0
M  V30 8920 H 859.444 -4.45246 3.6115 0
M  V30 8921 H 857.841 -4.14425 4.34018 0
M  V30 8922 H 858.911 -2.77906 3.97361 0
M  V30 8923 N 860.254 -1.20106 -1.0204 0
M  V30 8924 C 861.201 -0.946468 -2.10501 0
M  V30 8925 C 862.171 0.121902 -1.65652 0
M  V30 8926 O 863.356 -0.0220244 -1.90787 0
M  V30 8927 C 860.496 -0.500499 -3.41451 0
M  V30 8928 C 859.609 -1.63659 -3.998 0
M  V30 8929 C 858.744 -1.14131 -5.18794 0
M  V30 8930 C 857.783 -2.25074 -5.69217 0
M  V30 8931 N 856.92 -1.76791 -6.79477 0
M  V30 8932 H 861.76 -1.87506 -2.31615 0
M  V30 8933 H 859.297 -0.934693 -1.13587 0
M  V30 8934 H 861.255 -0.223276 -4.16602 0
M  V30 8935 H 859.885 0.391099 -3.20422 0
M  V30 8936 H 858.937 -2.02882 -3.21781 0
M  V30 8937 H 860.249 -2.47213 -4.33229 0
M  V30 8938 H 859.403 -0.819826 -6.01135 0
M  V30 8939 H 858.142 -0.275615 -4.86921 0
M  V30 8940 H 857.147 -2.58043 -4.85483 0
M  V30 8941 H 858.372 -3.12114 -6.03127 0
M  V30 8942 H 856.318 -0.925428 -6.4944 0
M  V30 8943 H 856.235 -2.53928 -7.12079 0
M  V30 8944 H 857.503 -1.47631 -7.65392 0
M  V30 8945 N 861.732 1.21287 -1.00634 0
M  V30 8946 C 862.695 2.21927 -0.572821 0
M  V30 8947 C 863.695 1.5691 0.351541 0
M  V30 8948 O 864.885 1.73623 0.141643 0
M  V30 8949 C 862.017 3.40501 0.164932 0
M  V30 8950 H 863.21 2.61795 -1.463 0
M  V30 8951 H 860.763 1.34571 -0.794998 0
M  V30 8952 H 861.498 3.06123 1.07049 0
M  V30 8953 H 861.283 3.88912 -0.498962 0
M  V30 8954 H 862.773 4.15103 0.455945 0
M  V30 8955 N 863.21 0.781244 1.36873 0
M  V30 8956 C 864.173 0.180094 2.28491 0
M  V30 8957 C 865.173 -0.617798 1.48458 0
M  V30 8958 O 866.363 -0.439991 1.68552 0
M  V30 8959 C 863.495 -0.751741 3.32508 0
M  V30 8960 H 864.688 0.987837 2.83164 0
M  V30 8961 H 862.241 0.550102 1.463 0
M  V30 8962 H 862.976 -1.58413 2.82977 0
M  V30 8963 H 862.761 -0.181649 3.91679 0
M  V30 8964 H 864.251 -1.16748 4.00949 0
M  V30 8965 N 864.689 -1.48329 0.532571 0
M  V30 8966 C 866.105 -1.58458 0.190605 0
M  V30 8967 C 866.305 -1.53427 -1.30623 0
M  V30 8968 O 865.361 -1.4247 -2.08467 0
M  V30 8969 C 866.674 -2.89989 0.79543 0
M  V30 8970 C 868.222 -3.03523 0.7644 0
M  V30 8971 C 868.697 -4.37718 1.34785 0
M  V30 8972 N 870.188 -4.44292 1.30993 0
M  V30 8973 C 870.923 -5.4664 1.73124 0
M  V30 8974 N 870.419 -6.5593 2.22997 0
M  V30 8975 N 872.212 -5.37538 1.64346 0
M  V30 8976 H 864.363 -1.49842 1.50537 0
M  V30 8977 H 866.626 -0.71164 0.626316 0
M  V30 8978 H 866.332 -2.99333 1.84642 0
M  V30 8979 H 866.206 -3.76203 0.27403 0
M  V30 8980 H 868.593 -2.93789 -0.277831 0
M  V30 8981 H 868.674 -2.18912 1.3233 0
M  V30 8982 H 868.318 -4.48206 2.38902 0
M  V30 8983 H 868.248 -5.21019 0.764609 0
M  V30 8984 H 870.739 -3.65897 0.944868 0
M  V30 8985 H 871.052 -7.30167 2.53133 0
M  V30 8986 H 869.397 -6.56886 2.26992 0
M  V30 8987 H 872.588 -4.51052 1.25178 0
M  V30 8988 H 872.761 -6.17169 1.97501 0
M  V30 8989 N 866.167 -0.267825 -1.55308 0
M  V30 8990 C 867.097 0.616585 -2.25212 0
M  V30 8991 C 868.078 1.16472 -1.23969 0
M  V30 8992 O 869.263 1.20021 -1.52672 0
M  V30 8993 C 866.393 1.80412 -2.96764 0
M  V30 8994 C 865.347 1.38784 -4.04874 0
M  V30 8995 C 864.673 2.65789 -4.63961 0
M  V30 8996 C 865.973 0.543415 -5.19465 0
M  V30 8997 H 867.667 0.0336257 -2.99381 0
M  V30 8998 H 865.213 0.0147328 -1.43992 0
M  V30 8999 H 867.166 2.42866 -3.44375 0
M  V30 9000 H 865.89 2.4128 -2.20118 0
M  V30 9001 H 864.549 0.786541 -3.58063 0
M  V30 9002 H 864.197 3.24899 -3.83992 0
M  V30 9003 H 863.897 2.38651 -5.36954 0
M  V30 9004 H 865.421 3.29104 -5.14318 0
M  V30 9005 H 866.835 1.07277 -5.63174 0
M  V30 9006 H 865.232 0.367219 -5.98975 0
M  V30 9007 H 866.302 -0.439534 -4.82904 0
M  V30 9008 N 867.645 1.57599 0.00500368 0
M  V30 9009 C 869.056 1.78462 0.54848 0
M  V30 9010 C 869.407 0.901869 1.74243 0
M  V30 9011 O 868.532 0.103014 2.16155 0
M  V30 9012 C 869.127 3.2365 1.00179 0
M  V30 9013 C 867.686 3.45627 1.49061 0
M  V30 9014 C 866.833 2.73794 0.439531 0
M  V30 9015 H 869.784 1.57151 -0.22118 0
M  V30 9016 H 869.805 3.31488 1.86805 0
M  V30 9017 H 869.317 3.87873 0.132607 0
M  V30 9018 H 867.418 2.86612 2.38085 0
M  V30 9019 H 867.531 4.54298 1.52152 0
M  V30 9020 H 865.895 2.38267 0.900043 0
M  V30 9021 H 866.678 3.40714 -0.420599 0
M  V30 9022 N 869.123 -0.277682 1.55134 0
M  V30 9023 C 870.369 -1.0114 1.7578 0
M  V30 9024 C 870.702 -1.86109 0.554719 0
M  V30 9025 O 869.977 -1.89275 -0.447813 0
M  V30 9026 C 870.26 -1.89789 3.06027 0
M  V30 9027 C 870.113 -1.07844 4.3668 0
M  V30 9028 C 871.432 -2.88577 3.32282 0
M  V30 9029 H 868.551 -0.366277 0.639539 0
M  V30 9030 H 871.193 -0.284155 1.87863 0
M  V30 9031 H 869.343 -2.51796 2.95856 0
M  V30 9032 H 871.015 -0.479432 4.58802 0
M  V30 9033 H 869.258 -0.381764 4.32117 0
M  V30 9034 H 869.929 -1.73179 5.24131 0
M  V30 9035 H 872.405 -2.36702 3.42215 0
M  V30 9036 H 871.281 -3.47749 4.2469 0
M  V30 9037 H 871.542 -3.63458 2.51696 0
M  V30 9038 N 870.601 -1.47988 -0.541979 0
M  V30 9039 C 871.564 -1.61148 -1.62984 0
M  V30 9040 C 872.564 -0.48553 -1.53295 0
M  V30 9041 O 873.754 -0.751012 -1.5718 0
M  V30 9042 C 870.886 -1.57038 -3.02576 0
M  V30 9043 H 872.079 -2.58138 -1.52659 0
M  V30 9044 H 869.632 -1.36405 -0.763106 0
M  V30 9045 H 870.367 -0.614807 -3.18419 0
M  V30 9046 H 870.152 -2.38769 -3.11018 0
M  V30 9047 H 871.642 -1.69416 -3.81691 0
M  V30 9048 N 872.079 0.78992 -1.36375 0
M  V30 9049 C 873.49 1.36506 -1.2737 0
M  V30 9050 C 873.841 1.96008 0.086711 0
M  V30 9051 O 872.966 1.92521 0.988159 0
M  V30 9052 C 873.561 2.48175 -2.30639 0
M  V30 9053 C 872.12 3.01506 -2.25325 0
M  V30 9054 C 871.267 1.74581 -2.15445 0
M  V30 9055 H 874.218 0.591606 -1.47261 0
M  V30 9056 H 874.239 3.27179 -1.94253 0
M  V30 9057 H 873.751 2.04838 -3.2964 0
M  V30 9058 H 871.852 3.49265 -1.29788 0
M  V30 9059 H 871.965 3.58355 -3.17992 0
M  V30 9060 H 870.329 1.96794 -1.61692 0
M  V30 9061 H 871.112 1.33373 -3.16333 0
M  V30 9062 N 873.557 1.20646 1.01402 0
M  V30 9063 C 874.487 0.98155 2.11867 0
M  V30 9064 C 875.468 -0.0903712 1.6986 0
M  V30 9065 O 876.653 0.0676586 1.94082 0
M  V30 9066 C 873.783 0.535636 3.43145 0
M  V30 9067 C 872.737 1.55109 3.98905 0
M  V30 9068 C 872.063 0.961725 5.2598 0
M  V30 9069 C 873.363 2.93552 4.32001 0
M  V30 9070 H 875.057 1.90544 2.3094 0
M  V30 9071 H 872.603 0.917554 1.10982 0
M  V30 9072 H 874.556 0.365512 4.19812 0
M  V30 9073 H 873.28 -0.423882 3.23838 0
M  V30 9074 H 871.939 1.70862 3.24348 0
M  V30 9075 H 871.587 -0.00580108 5.03 0
M  V30 9076 H 871.287 1.63993 5.64252 0
M  V30 9077 H 872.811 0.802726 6.053 0
M  V30 9078 H 874.225 2.81295 4.99546 0
M  V30 9079 H 872.622 3.58303 4.81393 0
M  V30 9080 H 873.692 3.4508 3.40658 0
M  V30 9081 N 875.035 -1.20752 1.01276 0
M  V30 9082 C 876.451 -1.42084 0.726934 0
M  V30 9083 C 876.651 -1.89138 -0.694907 0
M  V30 9084 O 875.707 -2.05783 -1.4632 0
M  V30 9085 C 877.02 -2.44575 1.74938 0
M  V30 9086 C 878.568 -2.58347 1.76708 0
M  V30 9087 C 879.043 -3.64078 2.77869 0
M  V30 9088 N 880.534 -3.71558 2.76585 0
M  V30 9089 C 881.269 -4.53016 3.51517 0
M  V30 9090 N 880.765 -5.38309 4.36114 0
M  V30 9091 N 882.558 -4.47512 3.40132 0
M  V30 9092 H 874.709 -0.885228 1.93074 0
M  V30 9093 H 876.972 -0.451075 0.833808 0
M  V30 9094 H 876.678 -2.1699 2.76782 0
M  V30 9095 H 876.552 -3.43503 1.55838 0
M  V30 9096 H 878.939 -2.85265 0.755516 0
M  V30 9097 H 879.02 -1.59628 1.99882 0
M  V30 9098 H 878.664 -3.37905 3.79187 0
M  V30 9099 H 878.594 -4.62412 2.51958 0
M  V30 9100 H 881.085 -3.10629 2.15216 0
M  V30 9101 H 881.398 -5.9754 4.90068 0
M  V30 9102 H 879.743 -5.37824 4.40194 0
M  V30 9103 H 882.934 -3.79912 2.73467 0
M  V30 9104 H 883.107 -5.10759 3.98784 0
M  V30 9105 N 876.513 -0.788492 -1.36457 0
M  V30 9106 C 877.46 -0.18435 -2.30063 0
M  V30 9107 C 878.43 0.67128 -1.51931 0
M  V30 9108 O 879.615 0.620152 -1.8044 0
M  V30 9109 C 876.755 0.675596 -3.38422 0
M  V30 9110 C 875.868 -0.198475 -4.31544 0
M  V30 9111 C 875.003 0.667757 -5.26986 0
M  V30 9112 C 874.042 -0.207825 -6.11747 0
M  V30 9113 N 873.179 0.617335 -6.99381 0
M  V30 9114 H 878.019 -0.988056 -2.81143 0
M  V30 9115 H 875.556 -0.498815 -1.38384 0
M  V30 9116 H 877.514 1.18916 -3.99894 0
M  V30 9117 H 876.144 1.44474 -2.88664 0
M  V30 9118 H 875.196 -0.829995 -3.71235 0
M  V30 9119 H 876.508 -0.873163 -4.91098 0
M  V30 9120 H 875.662 1.24716 -5.93743 0
M  V30 9121 H 874.401 1.37607 -4.67884 0
M  V30 9122 H 873.406 -0.799638 -5.43954 0
M  V30 9123 H 874.631 -0.913729 -6.72925 0
M  V30 9124 H 872.577 1.30996 -6.42788 0
M  V30 9125 H 872.494 0.000307255 -7.56 0
M  V30 9126 H 873.762 1.1806 -7.70508 0
M  V30 9127 N 877.991 1.48044 -0.54043 0
M  V30 9128 C 879.231 2.04396 -0.012296 0
M  V30 9129 C 879.595 1.40748 1.30591 0
M  V30 9130 O 880.796 1.88048 1.92072 0
M  V30 9131 C 879.067 3.5727 0.0964302 0
M  V30 9132 S 880.626 4.35041 0.573117 0
M  V30 9133 H 877.444 0.710795 -0.0170735 0
M  V30 9134 H 880.046 1.81625 -0.723362 0
M  V30 9135 H 878.75 4.01124 -0.86762 0
M  V30 9136 H 878.281 3.84511 0.83156 0
M  V30 9137 H 880.296 4.6099 1.83583 0
M  V30 9138 N 879.47 0.276058 1.55163 0
M  V30 9139 C 880.417 -0.611006 2.22565 0
M  V30 9140 C 881.387 -1.14902 1.19945 0
M  V30 9141 O 882.572 -1.19815 1.48489 0
M  V30 9142 C 879.712 -1.78885 2.95117 0
M  V30 9143 C 878.825 -1.2846 4.12458 0
M  V30 9144 C 877.96 -2.42432 4.72652 0
M  V30 9145 C 876.999 -1.89015 5.82185 0
M  V30 9146 N 876.136 -2.96463 6.36439 0
M  V30 9147 H 880.976 -0.0295849 2.97985 0
M  V30 9148 H 878.513 -0.00283607 1.471 0
M  V30 9149 H 880.471 -2.48121 3.35398 0
M  V30 9150 H 879.101 -2.34229 2.22119 0
M  V30 9151 H 878.153 -0.485312 3.77292 0
M  V30 9152 H 879.465 -0.853358 4.91446 0
M  V30 9153 H 878.619 -3.19659 5.15658 0
M  V30 9154 H 877.358 -2.88872 3.92943 0
M  V30 9155 H 876.363 -1.10267 5.38629 0
M  V30 9156 H 877.588 -1.43509 6.63763 0
M  V30 9157 H 875.534 -3.42283 5.59623 0
M  V30 9158 H 875.451 -2.57759 7.10701 0
M  V30 9159 H 876.719 -3.73663 6.84103 0
M  V30 9160 N 880.948 -1.576 0.00335426 0
M  V30 9161 C 881.858 -2.12067 -1.00322 0
M  V30 9162 C 882.874 -1.06672 -1.37467 0
M  V30 9163 O 884.05 -1.38592 -1.46131 0
M  V30 9164 C 881.115 -2.61593 -2.27531 0
M  V30 9165 C 880.176 -3.81602 -1.96668 0
M  V30 9166 C 879.409 -4.28756 -3.17811 0
M  V30 9167 O 879.632 -3.75222 -4.2961 0
M  V30 9168 O 878.566 -5.20877 -3.01613 0
M  V30 9169 H 882.392 -2.98299 -0.570199 0
M  V30 9170 H 879.977 -1.47835 -0.215682 0
M  V30 9171 H 881.859 -2.93631 -3.02256 0
M  V30 9172 H 880.534 -1.78457 -2.70065 0
M  V30 9173 H 879.441 -3.54531 -1.19408 0
M  V30 9174 H 880.774 -4.65822 -1.58968 0
M  V30 9175 N 882.426 0.269451 -1.5528 0
M  V30 9176 C 883.672 1.00206 -1.76314 0
M  V30 9177 C 884.005 1.85812 -0.564581 0
M  V30 9178 O 883.28 1.89509 0.437769 0
M  V30 9179 C 883.563 1.88163 -3.07029 0
M  V30 9180 C 883.416 1.05527 -4.37246 0
M  V30 9181 C 884.735 2.8681 -3.33808 0
M  V30 9182 H 881.854 0.36288 -0.641473 0
M  V30 9183 H 884.496 0.274188 -1.88011 0
M  V30 9184 H 882.646 2.50224 -2.97187 0
M  V30 9185 H 884.318 0.455094 -4.5905 0
M  V30 9186 H 882.561 0.358842 -4.32313 0
M  V30 9187 H 883.232 1.70397 -5.25042 0
M  V30 9188 H 885.708 2.34884 -3.43466 0
M  V30 9189 H 884.584 3.45492 -4.26528 0
M  V30 9190 H 884.845 3.62118 -2.5362 0
M  V30 9191 N 883.904 1.48273 0.534124 0
M  V30 9192 C 884.851 1.62487 1.6391 0
M  V30 9193 C 885.821 0.467062 1.59398 0
M  V30 9194 O 887.006 0.690029 1.77885 0
M  V30 9195 C 884.146 1.66671 3.02183 0
M  V30 9196 C 883.259 2.9353 3.16961 0
M  V30 9197 C 882.394 2.88902 4.45768 0
M  V30 9198 C 881.433 4.10483 4.54059 0
M  V30 9199 N 880.57 4.03956 5.74251 0
M  V30 9200 H 885.41 2.56851 1.51101 0
M  V30 9201 H 882.947 1.27381 0.735704 0
M  V30 9202 H 884.905 1.67079 3.82283 0
M  V30 9203 H 883.535 0.758011 3.13774 0
M  V30 9204 H 882.587 3.02886 2.3014 0
M  V30 9205 H 883.899 3.83501 3.18949 0
M  V30 9206 H 883.053 2.87688 5.34154 0
M  V30 9207 H 881.792 1.96652 4.46295 0
M  V30 9208 H 880.797 4.11977 3.64081 0
M  V30 9209 H 882.022 5.03887 4.55274 0
M  V30 9210 H 879.968 3.14525 5.75682 0
M  V30 9211 H 879.885 4.87628 5.77715 0
M  V30 9212 H 881.153 4.06795 6.64935 0
M  V30 9213 N 885.382 -0.782676 1.36792 0
M  V30 9214 C 886.628 -1.54311 1.3159 0
M  V30 9215 C 886.961 -1.93928 -0.102696 0
M  V30 9216 O 886.236 -1.63233 -1.05761 0
M  V30 9217 C 886.519 -2.81561 2.24489 0
M  V30 9218 C 886.372 -2.48268 3.75078 0
M  V30 9219 C 887.691 -3.83428 2.16034 0
M  V30 9220 H 884.81 -0.559828 0.479335 0
M  V30 9221 H 887.452 -0.898717 1.67401 0
M  V30 9222 H 885.602 -3.36549 1.9408 0
M  V30 9223 H 887.274 -1.99279 4.16036 0
M  V30 9224 H 885.517 -1.81116 3.94182 0
M  V30 9225 H 886.188 -3.39183 4.35499 0
M  V30 9226 H 888.664 -3.37905 2.42815 0
M  V30 9227 H 887.54 -4.70204 2.83194 0
M  V30 9228 H 887.801 -4.26887 1.14976 0
M  V30 9229 N 886.86 -1.21182 -1.00761 0
M  V30 9230 C 887.77 -0.984691 -2.12934 0
M  V30 9231 C 888.786 0.0623657 -1.73888 0
M  V30 9232 O 889.962 -0.1271 -2.00999 0
M  V30 9233 C 887.027 -0.549447 -3.42319 0
M  V30 9234 C 886.088 -1.66841 -3.95553 0
M  V30 9235 C 885.321 -1.25384 -5.18763 0
M  V30 9236 O 885.544 -0.126333 -5.7026 0
M  V30 9237 O 884.478 -2.06475 -5.65377 0
M  V30 9238 H 888.304 -1.92413 -2.3497 0
M  V30 9239 H 885.889 -0.99647 -1.11314 0
M  V30 9240 H 887.771 -0.316384 -4.20211 0
M  V30 9241 H 886.446 0.361304 -3.21677 0
M  V30 9242 H 885.353 -1.95585 -3.189 0
M  V30 9243 H 886.686 -2.55649 -4.206 0
M  V30 9244 N 888.338 1.20213 -1.01915 0
M  V30 9245 C 889.285 2.2309 -0.591571 0
M  V30 9246 C 890.255 1.61465 0.389649 0
M  V30 9247 O 891.44 1.88606 0.288511 0
M  V30 9248 C 888.58 3.45045 0.0614028 0
M  V30 9249 C 887.693 4.21091 -0.964688 0
M  V30 9250 C 886.828 5.30448 -0.282499 0
M  V30 9251 C 885.867 5.98241 -1.29517 0
M  V30 9252 N 885.004 6.99182 -0.639472 0
M  V30 9253 H 889.844 2.59023 -1.47347 0
M  V30 9254 H 887.381 1.27274 -0.737547 0
M  V30 9255 H 889.339 4.14688 0.45714 0
M  V30 9256 H 887.969 3.09797 0.906937 0
M  V30 9257 H 887.021 3.50489 -1.47857 0
M  V30 9258 H 888.333 4.67662 -1.73475 0
M  V30 9259 H 887.487 6.06466 0.168603 0
M  V30 9260 H 886.226 4.84922 0.519843 0
M  V30 9261 H 885.231 5.20982 -1.75663 0
M  V30 9262 H 886.456 6.45853 -2.09884 0
M  V30 9263 H 884.402 6.55844 0.142955 0
M  V30 9264 H 884.319 7.43893 -1.34756 0
M  V30 9265 H 885.587 7.79212 -0.212047 0
M  V30 9266 N 889.816 0.795718 1.36037 0
M  V30 9267 C 891.227 0.433379 1.816 0
M  V30 9268 C 891.578 -1.04341 1.66155 0
M  V30 9269 O 890.703 -1.81004 1.18603 0
M  V30 9270 C 891.298 0.77985 3.29703 0
M  V30 9271 C 889.857 0.470256 3.73451 0
M  V30 9272 C 889.004 1.01119 2.58206 0
M  V30 9273 H 891.955 0.988317 1.24169 0
M  V30 9274 H 891.976 0.0732898 3.80429 0
M  V30 9275 H 891.488 1.85473 3.40913 0
M  V30 9276 H 889.589 -0.596332 3.67797 0
M  V30 9277 H 889.702 0.995276 4.68648 0
M  V30 9278 H 888.066 0.434077 2.50974 0
M  V30 9279 H 888.849 2.09196 2.72198 0
M  V30 9280 N 891.294 -1.47756 0.548274 0
M  V30 9281 C 892.522 -2.06884 0.0254873 0
M  V30 9282 C 892.937 -1.40225 -1.26422 0
M  V30 9283 O 892.294 -0.495776 -1.75637 0
M  V30 9284 C 892.345 -3.61036 -0.183134 0
M  V30 9285 O 892.066 -4.25195 1.05549 0
M  V30 9286 C 893.567 -4.37008 -0.744222 0
M  V30 9287 H 890.787 -0.669697 0.041789 0
M  V30 9288 H 893.331 -1.89888 0.759138 0
M  V30 9289 H 891.486 -3.77576 -0.866886 0
M  V30 9290 H 891.9 -5.17606 0.847629 0
M  V30 9291 H 893.374 -5.45579 -0.839529 0
M  V30 9292 H 893.851 -4.0268 -1.75344 0
M  V30 9293 H 894.457 -4.25191 -0.0964542 0
M  V30 9294 N 892.772 -0.284283 -1.55015 0
M  V30 9295 C 893.735 0.586182 -2.21577 0
M  V30 9296 C 894.735 1.07427 -1.1965 0
M  V30 9297 O 895.925 0.972977 -1.44495 0
M  V30 9298 C 893.057 1.80973 -2.88897 0
M  V30 9299 H 894.25 0.00487253 -2.999 0
M  V30 9300 H 891.803 -0.0349696 -1.56261 0
M  V30 9301 H 892.538 2.43131 -2.14611 0
M  V30 9302 H 892.323 1.46757 -3.636 0
M  V30 9303 H 893.813 2.42853 -3.39724 0
M  V30 9304 N 894.251 1.57596 -0.0117121 0
M  V30 9305 C 895.528 1.82323 0.708356 0
M  V30 9306 C 895.908 0.891947 1.91331 0
M  V30 9307 O 895.256 -0.0565984 2.2843 0
M  V30 9308 C 895.466 3.31111 1.10303 0
M  V30 9309 C 896.814 3.97147 1.50199 0
M  V30 9310 O 897.838 3.35503 1.1965 0
M  V30 9311 O 896.697 5.0576 2.07049 0
M  V30 9312 H 893.791 0.751173 0.345931 0
M  V30 9313 H 896.337 1.69657 -0.0380632 0
M  V30 9314 H 895.109 3.90534 0.24467 0
M  V30 9315 H 894.732 3.48818 1.90818 0
M  V30 9316 N 895.729 -0.261212 1.5542 0
M  V30 9317 C 896.692 -1.30645 1.8832 0
M  V30 9318 C 897.692 -1.41782 0.758588 0
M  V30 9319 O 898.882 -1.40729 1.02669 0
M  V30 9320 C 896.014 -2.6862 2.09895 0
M  V30 9321 H 897.207 -1.02698 2.81768 0
M  V30 9322 H 894.76 -0.499838 1.48092 0
M  V30 9323 H 895.495 -3.0173 1.18868 0
M  V30 9324 H 895.28 -2.61921 2.91787 0
M  V30 9325 H 896.77 -3.44121 2.36581 0
M  V30 9326 N 897.207 -1.48554 -0.526253 0
M  V30 9327 C 898.117 -1.66044 -1.65731 0
M  V30 9328 C 899.133 -0.542951 -1.65312 0
M  V30 9329 O 900.309 -0.814495 -1.84195 0
M  V30 9330 C 897.374 -1.69959 -3.02184 0
M  V30 9331 C 896.435 -2.93362 -3.13428 0
M  V30 9332 C 895.668 -2.97081 -4.43372 0
M  V30 9333 O 895.891 -2.09103 -5.3069 0
M  V30 9334 O 894.825 -3.8929 -4.59061 0
M  V30 9335 H 898.651 -2.61811 -1.53912 0
M  V30 9336 H 896.236 -1.31999 -0.699759 0
M  V30 9337 H 898.118 -1.75033 -3.83329 0
M  V30 9338 H 896.793 -0.773658 -3.14319 0
M  V30 9339 H 895.7 -2.93818 -2.31564 0
M  V30 9340 H 897.033 -3.85352 -3.06211 0
M  V30 9341 N 898.685 0.775411 -1.37205 0
M  V30 9342 C 899.648 1.8702 -1.325 0
M  V30 9343 C 900.648 1.5915 -0.229793 0
M  V30 9344 O 901.838 1.673 -0.485423 0
M  V30 9345 C 898.97 3.24085 -1.05745 0
M  V30 9346 H 900.163 1.92604 -2.29878 0
M  V30 9347 H 897.716 0.97476 -1.22181 0
M  V30 9348 H 898.451 3.24178 -0.0888371 0
M  V30 9349 H 898.236 3.45705 -1.85016 0
M  V30 9350 H 899.726 4.0416 -1.05094 0
M  V30 9351 N 900.163 1.21714 1.00117 0
M  V30 9352 C 901.393 1.06124 1.77261 0
M  V30 9353 C 901.801 -0.391717 1.85101 0
M  V30 9354 O 901.144 -1.28347 1.31426 0
M  V30 9355 C 901.206 1.58778 3.22536 0
M  V30 9356 C 900.87 3.07289 3.38264 0
M  V30 9357 C 901.867 4.04801 3.26239 0
M  V30 9358 C 899.552 3.46574 3.63582 0
M  V30 9359 C 901.546 5.39585 3.39303 0
M  V30 9360 C 899.233 4.81509 3.76288 0
M  V30 9361 C 900.231 5.77824 3.64155 0
M  V30 9362 O 899.919 7.1031 3.7645 0
M  V30 9363 H 899.651 0.372979 0.563793 0
M  V30 9364 H 902.205 1.61589 1.26799 0
M  V30 9365 H 900.435 0.977129 3.74151 0
M  V30 9366 H 902.124 1.38974 3.81367 0
M  V30 9367 H 902.89 3.75795 3.066 0
M  V30 9368 H 898.769 2.72137 3.72106 0
M  V30 9369 H 902.313 6.14744 3.2975 0
M  V30 9370 H 898.21 5.102 3.95432 0
M  V30 9371 H 898.978 7.17774 3.93374 0
M  V30 9372 N 901.641 -1.19671 1.02551 0
M  V30 9373 C 902.887 -1.89548 0.721069 0
M  V30 9374 C 903.22 -1.79209 -0.748176 0
M  V30 9375 O 902.495 -1.1822 -1.54448 0
M  V30 9376 C 902.778 -3.4061 1.16861 0
M  V30 9377 C 902.631 -3.59838 2.69883 0
M  V30 9378 C 903.95 -4.33718 0.746782 0
M  V30 9379 H 901.069 -0.688315 0.263422 0
M  V30 9380 H 903.711 -1.40883 1.27483 0
M  V30 9381 H 901.861 -3.82188 0.697477 0
M  V30 9382 H 903.533 -3.27454 3.24917 0
M  V30 9383 H 901.776 -3.03005 3.10435 0
M  V30 9384 H 902.447 -4.65766 2.96253 0
M  V30 9385 H 904.923 -3.99837 1.15195 0
M  V30 9386 H 903.799 -5.38012 1.08786 0
M  V30 9387 H 904.06 -4.40704 -0.351057 0
M  V30 9388 N 903.119 -0.802921 -1.35613 0
M  V30 9389 C 904.366 -0.381576 -1.98872 0
M  V30 9390 C 904.694 1.0503 -1.63704 0
M  V30 9391 O 903.949 1.7427 -0.890418 0
M  V30 9392 C 904.248 -0.507806 -3.53774 0
M  V30 9393 C 903.914 -1.90245 -4.088 0
M  V30 9394 C 902.576 -2.28401 -4.2354 0
M  V30 9395 C 904.928 -2.81504 -4.3864 0
M  V30 9396 C 902.256 -3.57192 -4.65436 0
M  V30 9397 C 904.608 -4.09737 -4.81973 0
M  V30 9398 C 903.272 -4.47897 -4.94919 0
M  V30 9399 H 902.542 -0.139629 -0.727726 0
M  V30 9400 H 905.189 -1.023 -1.61886 0
M  V30 9401 H 903.494 0.21708 -3.91198 0
M  V30 9402 H 905.191 -0.162625 -4.0067 0
M  V30 9403 H 901.781 -1.596 -3.97776 0
M  V30 9404 H 905.965 -2.53276 -4.26808 0
M  V30 9405 H 901.221 -3.86611 -4.73648 0
M  V30 9406 H 905.395 -4.80555 -5.04024 0
M  V30 9407 H 903.022 -5.47747 -5.27141 0
M  V30 9408 N 904.597 1.47463 -0.556102 0
M  V30 9409 C 905.825 2.06868 -0.0364585 0
M  V30 9410 C 906.24 1.40893 1.25677 0
M  V30 9411 O 905.597 0.505083 1.75371 0
M  V30 9412 C 905.648 3.61128 0.163984 0
M  V30 9413 O 905.369 4.24629 -1.07803 0
M  V30 9414 C 906.87 4.37397 0.721036 0
M  V30 9415 H 904.09 0.669466 -0.0453399 0
M  V30 9416 H 906.634 1.89482 -0.769198 0
M  V30 9417 H 904.789 3.78031 0.84685 0
M  V30 9418 H 905.203 5.17149 -0.875067 0
M  V30 9419 H 906.677 5.46016 0.810584 0
M  V30 9420 H 907.154 4.03604 1.73206 0
M  V30 9421 H 907.76 4.25236 0.073904 0
M  V30 9422 N 906.075 0.2925 1.54862 0
M  V30 9423 C 907.486 -0.201841 1.85606 0
M  V30 9424 C 907.837 -1.54093 1.21449 0
M  V30 9425 O 906.962 -2.10327 0.509079 0
M  V30 9426 C 907.557 -0.373011 3.3674 0
M  V30 9427 C 906.116 -0.811574 3.67547 0
M  V30 9428 C 905.263 0.0850583 2.7717 0
M  V30 9429 H 908.214 0.513774 1.50153 0
M  V30 9430 H 908.235 -1.20892 3.60785 0
M  V30 9431 H 907.747 0.601751 3.83407 0
M  V30 9432 H 905.848 -1.79719 3.26392 0
M  V30 9433 H 905.961 -0.636853 4.74848 0
M  V30 9434 H 904.325 -0.434224 2.50971 0
M  V30 9435 H 905.108 1.05602 3.26654 0
M  V30 9436 N 907.553 -1.57587 0.0200696 0
M  V30 9437 C 908.501 -2.10814 -0.982868 0
M  V30 9438 C 909.495 -1.03263 -1.34287 0
M  V30 9439 O 910.701 -1.21708 -1.32617 0
M  V30 9440 H 907.076 -0.673409 -0.334701 0
M  V30 9441 H 909.047 -2.94034 -0.50856 0
M  V30 9442 C 907.796 -2.64301 -2.25921 0
M  V30 9443 H 907.119 -3.46703 -1.99091 0
M  V30 9444 H 908.559 -3.052 -2.94328 0
M  V30 9445 C 907.018 -1.56628 -2.98277 0
M  V30 9446 O 907.548 -0.960825 -3.9004 0
M  V30 9447 N 905.754 -1.28889 -2.60453 0
M  V30 9448 H 905.301 -1.7831 -1.85912 0
M  V30 9449 H 905.259 -0.570697 -3.09177 0
M  V30 9450 N 909.032 0.252966 -1.55557 0
M  V30 9451 C 909.965 1.33928 -1.84766 0
M  V30 9452 C 910.943 1.46653 -0.702254 0
M  V30 9453 O 912.127 1.62963 -0.947375 0
M  V30 9454 C 909.254 2.71348 -2.02701 0
M  V30 9455 C 908.3 2.75804 -3.25322 0
M  V30 9456 S 909.133 2.33025 -4.82141 0
M  V30 9457 C 910.289 3.72382 -5.03073 0
M  V30 9458 H 910.522 1.08951 -2.76617 0
M  V30 9459 H 908.055 0.45364 -1.47585 0
M  V30 9460 H 910.013 3.50478 -2.13718 0
M  V30 9461 H 908.674 2.93566 -1.11703 0
M  V30 9462 H 907.867 3.76713 -3.34819 0
M  V30 9463 H 907.469 2.04713 -3.12999 0
M  V30 9464 H 909.761 4.67828 -4.90044 0
M  V30 9465 H 910.704 3.67824 -6.05071 0
M  V30 9466 H 911.112 3.64614 -4.30949 0
M  V30 9467 N 910.51 1.48831 0.518367 0
M  V30 9468 C 911.759 1.5669 1.27008 0
M  V30 9469 C 912.072 0.250934 1.93984 0
M  V30 9470 O 913.278 0.207884 2.70703 0
M  V30 9471 C 911.734 2.76387 2.30517 0
M  V30 9472 C 911.342 4.14673 1.69559 0
M  V30 9473 C 913.086 2.93566 3.06625 0
M  V30 9474 C 910.993 5.25616 2.71076 0
M  V30 9475 H 909.923 0.583362 0.477708 0
M  V30 9476 H 912.574 1.75187 0.546052 0
M  V30 9477 H 910.956 2.51348 3.06006 0
M  V30 9478 H 912.13 4.49779 1.00179 0
M  V30 9479 H 910.445 4.02708 1.05902 0
M  V30 9480 H 913.042 3.7362 3.82508 0
M  V30 9481 H 913.385 2.03462 3.63193 0
M  V30 9482 H 913.918 3.18562 2.38251 0
M  V30 9483 H 910.657 6.17723 2.19313 0
M  V30 9484 H 910.177 4.94985 3.38748 0
M  V30 9485 H 911.856 5.5422 3.3384 0
M  V30 9486 N 911.988 -0.768124 1.37614 0
M  V30 9487 C 913.228 -1.53979 1.34424 0
M  V30 9488 C 913.592 -1.91874 -0.0696803 0
M  V30 9489 O 914.793 -2.67845 -0.22633 0
M  V30 9490 C 913.064 -2.76845 2.26034 0
M  V30 9491 S 914.623 -3.66871 2.4073 0
M  V30 9492 H 911.441 -0.527108 0.477157 0
M  V30 9493 H 914.043 -0.902945 1.73399 0
M  V30 9494 H 912.747 -2.47091 3.2768 0
M  V30 9495 H 912.278 -3.45486 1.88157 0
M  V30 9496 H 914.293 -4.6899 1.62057 0
M  V30 9497 N 913.466 -1.22244 -0.994698 0
M  V30 9498 C 914.429 -0.992308 -2.06606 0
M  V30 9499 C 915.429 0.0405872 -1.60749 0
M  V30 9500 O 916.619 -0.197737 -1.73074 0
M  V30 9501 C 913.751 -0.498499 -3.37236 0
M  V30 9502 H 914.944 -1.9429 -2.28455 0
M  V30 9503 H 912.497 -1.04087 -1.166 0
M  V30 9504 H 913.232 0.456531 -3.21071 0
M  V30 9505 H 913.017 -1.24367 -3.71854 0
M  V30 9506 H 914.507 -0.35768 -4.16065 0
M  V30 9507 N 914.944 1.19125 -1.03184 0
M  V30 9508 C 916.192 1.8851 -0.728587 0
M  V30 9509 C 916.513 1.80195 0.74531 0
M  V30 9510 O 915.783 1.21437 1.5372 0
M  V30 9511 H 914.363 0.69784 -0.266511 0
M  V30 9512 H 917.025 1.44607 -1.3067 0
M  V30 9513 H 916.121 2.9477 -1.02554 0
M  V30 9514 N 916.422 0.810101 1.35185 0
M  V30 9515 C 917.67 0.391343 1.98275 0
M  V30 9516 C 917.991 -1.04592 1.64577 0
M  V30 9517 O 917.261 -1.72417 0.93001 0
M  V30 9518 H 915.841 0.141715 0.733434 0
M  V30 9519 H 918.503 1.03672 1.6504 0
M  V30 9520 H 917.599 0.49991 3.0807 0
M  V30 9521 N 917.9 -1.47166 0.563914 0
M  V30 9522 C 918.81 -2.33885 -0.182977 0
M  V30 9523 C 919.826 -1.48605 -0.905132 0
M  V30 9524 O 921.002 -1.81518 -0.872527 0
M  V30 9525 C 918.067 -3.25433 -1.19558 0
M  V30 9526 C 917.128 -4.26607 -0.480129 0
M  V30 9527 C 916.361 -5.1378 -1.44449 0
M  V30 9528 O 916.584 -5.03531 -2.67979 0
M  V30 9529 O 915.518 -5.94109 -0.965321 0
M  V30 9530 H 919.344 -2.99065 0.528544 0
M  V30 9531 H 916.929 -1.45834 0.324468 0
M  V30 9532 H 918.811 -3.81964 -1.77993 0
M  V30 9533 H 917.486 -2.62873 -1.8889 0
M  V30 9534 H 916.393 -3.73817 0.145583 0
M  V30 9535 H 917.726 -4.919 0.171868 0
M  V30 9536 N 919.378 -0.300708 -1.54705 0
M  V30 9537 C 920.325 0.57552 -2.23509 0
M  V30 9538 C 921.295 1.12979 -1.21758 0
M  V30 9539 O 922.48 1.17437 -1.50377 0
M  V30 9540 C 919.62 1.74167 -2.97926 0
M  V30 9541 C 918.733 1.21882 -4.1445 0
M  V30 9542 C 917.868 2.34881 -4.7645 0
M  V30 9543 C 916.907 1.79729 -5.85119 0
M  V30 9544 N 916.044 2.863 -6.41075 0
M  V30 9545 H 920.884 -0.0178257 -2.97995 0
M  V30 9546 H 918.421 -0.0205666 -1.47086 0
M  V30 9547 H 920.379 2.42753 -3.39303 0
M  V30 9548 H 919.009 2.30665 -2.25817 0
M  V30 9549 H 918.061 0.425227 -3.78016 0
M  V30 9550 H 919.373 0.775065 -4.92741 0
M  V30 9551 H 918.527 3.11415 -5.20678 0
M  V30 9552 H 917.266 2.82584 -3.97489 0
M  V30 9553 H 916.271 1.01684 -5.40315 0
M  V30 9554 H 917.496 1.32931 -6.65963 0
M  V30 9555 H 915.442 3.33337 -5.64998 0
M  V30 9556 H 915.359 2.46419 -7.14712 0
M  V30 9557 H 916.627 3.62732 -6.89961 0
M  V30 9558 N 920.856 1.57574 -0.0284266 0
M  V30 9559 C 922.104 1.91393 0.649079 0
M  V30 9560 C 922.425 0.905368 1.72708 0
M  V30 9561 O 921.695 -0.0532107 1.95828 0
M  V30 9562 H 920.275 0.70646 0.24274 0
M  V30 9563 H 922.937 1.94752 -0.076066 0
M  V30 9564 H 922.033 2.91988 1.10226 0
M  V30 9565 N 922.334 -0.244713 1.55689 0
M  V30 9566 C 923.267 -1.32946 1.85474 0
M  V30 9567 C 924.245 -1.46279 0.710021 0
M  V30 9568 O 925.429 -1.62459 0.956004 0
M  V30 9569 C 922.556 -2.7027 2.04137 0
M  V30 9570 C 921.602 -2.74075 3.2678 0
M  V30 9571 S 922.435 -2.30465 4.8337 0
M  V30 9572 C 923.591 -3.69709 5.05041 0
M  V30 9573 H 923.824 -1.07482 2.77191 0
M  V30 9574 H 921.357 -0.445807 1.47824 0
M  V30 9575 H 923.315 -3.4934 2.15574 0
M  V30 9576 H 921.976 -2.9297 1.13259 0
M  V30 9577 H 921.169 -3.74932 3.36812 0
M  V30 9578 H 920.771 -2.03051 3.1408 0
M  V30 9579 H 923.063 -4.65222 4.92518 0
M  V30 9580 H 924.006 -3.6461 6.07014 0
M  V30 9581 H 924.414 -3.62323 4.32877 0
M  V30 9582 N 923.813 -1.49104 -0.510467 0
M  V30 9583 C 925.09 -1.48609 -1.27179 0
M  V30 9584 C 925.47 -0.208537 -2.10067 0
M  V30 9585 O 924.818 0.809335 -2.13687 0
M  V30 9586 C 925.028 -2.75953 -2.1366 0
M  V30 9587 C 926.376 -3.25067 -2.73161 0
M  V30 9588 O 927.4 -2.77005 -2.23934 0
M  V30 9589 O 926.259 -4.08747 -3.62751 0
M  V30 9590 H 923.353 -0.594374 -0.57502 0
M  V30 9591 H 925.899 -1.61358 -0.525515 0
M  V30 9592 H 924.671 -3.60434 -1.52325 0
M  V30 9593 H 924.294 -2.66019 -2.95499 0
M  V30 9594 N 925.291 0.760815 -1.38019 0
M  V30 9595 C 926.516 1.55513 -1.37224 0
M  V30 9596 C 926.941 1.88062 0.037611 0
M  V30 9597 O 926.299 1.50042 1.0177 0
M  V30 9598 C 926.347 2.83539 -2.22796 0
M  V30 9599 O 925.451 3.78384 -1.64009 0
M  V30 9600 H 924.792 0.470642 -0.468393 0
M  V30 9601 H 927.322 0.940792 -1.81687 0
M  V30 9602 H 927.332 3.32535 -2.36399 0
M  V30 9603 H 926.007 2.59178 -3.25269 0
M  V30 9604 H 924.584 3.37063 -1.59508 0
M  V30 9605 N 926.769 1.22769 0.988202 0
M  V30 9606 C 928.009 1.06673 1.74356 0
M  V30 9607 C 928.373 -0.390737 1.87982 0
M  V30 9608 O 929.574 -0.672677 2.60247 0
M  V30 9609 C 927.845 1.76361 3.10856 0
M  V30 9610 S 929.404 1.75738 4.02071 0
M  V30 9611 H 926.222 0.381917 0.599717 0
M  V30 9612 H 928.824 1.55784 1.18117 0
M  V30 9613 H 927.528 2.81559 2.98584 0
M  V30 9614 H 927.059 1.27501 3.72165 0
M  V30 9615 H 929.074 0.810418 4.89537 0
M  V30 9616 N 928.247 -1.18576 1.03814 0
M  V30 9617 C 929.194 -2.2212 0.626988 0
M  V30 9618 C 930.164 -1.62064 -0.363912 0
M  V30 9619 O 931.349 -1.89041 -0.258469 0
M  V30 9620 C 928.489 -3.45099 -0.00650133 0
M  V30 9621 C 927.602 -4.19503 1.03156 0
M  V30 9622 C 926.737 -5.29932 0.366852 0
M  V30 9623 C 925.776 -5.96104 1.39018 0
M  V30 9624 N 924.913 -6.98076 0.750625 0
M  V30 9625 H 929.753 -2.56646 1.51449 0
M  V30 9626 H 927.29 -1.26084 0.757702 0
M  V30 9627 H 929.248 -4.15363 -0.391108 0
M  V30 9628 H 927.878 -3.11201 -0.857536 0
M  V30 9629 H 926.93 -3.48092 1.53414 0
M  V30 9630 H 928.242 -4.64843 1.80893 0
M  V30 9631 H 927.396 -6.06657 -0.0720979 0
M  V30 9632 H 926.135 -4.85687 -0.442631 0
M  V30 9633 H 925.14 -5.18122 1.8393 0
M  V30 9634 H 926.365 -6.42432 2.20132 0
M  V30 9635 H 924.311 -6.55989 -0.0385981 0
M  V30 9636 H 924.228 -7.41655 1.46574 0
M  V30 9637 H 925.496 -7.78776 0.335986 0
M  V30 9638 N 929.725 -0.817259 -1.34754 0
M  V30 9639 C 930.973 -0.401852 -1.98065 0
M  V30 9640 C 931.294 1.03718 -1.65129 0
M  V30 9641 O 930.564 1.71921 -0.939141 0
M  V30 9642 H 929.144 -0.145603 -0.732672 0
M  V30 9643 H 931.806 -1.04545 -1.64488 0
M  V30 9644 H 930.902 -0.516241 -3.07801 0
M  V30 9645 N 931.203 1.46865 -0.571711 0
M  V30 9646 C 932.48 1.95596 0.0132445 0
M  V30 9647 C 932.86 1.51438 1.47071 0
M  V30 9648 O 932.208 0.759917 2.15494 0
M  V30 9649 C 932.418 3.48689 -0.147335 0
M  V30 9650 C 933.766 4.24599 -0.00946329 0
M  V30 9651 O 934.79 3.5612 -0.0756112 0
M  V30 9652 O 933.649 5.46332 0.135361 0
M  V30 9653 H 930.743 0.825102 0.0560039 0
M  V30 9654 H 933.289 1.57199 -0.639256 0
M  V30 9655 H 932.061 3.73681 -1.16096 0
M  V30 9656 H 931.684 3.93887 0.542109 0
M  V30 9657 N 932.681 0.308908 1.54543 0
M  V30 9658 C 933.906 -0.303196 2.05172 0
M  V30 9659 C 934.331 -1.46133 1.18434 0
M  V30 9660 O 933.689 -1.803 0.190162 0
M  V30 9661 C 933.737 -0.729526 3.53143 0
M  V30 9662 O 932.841 -1.83348 3.69401 0
M  V30 9663 H 932.182 -0.0575066 0.661505 0
M  V30 9664 H 934.712 0.453055 1.99521 0
M  V30 9665 H 934.722 -1.01619 3.95143 0
M  V30 9666 H 933.397 0.117622 4.15734 0
M  V30 9667 H 931.974 -1.54676 3.39308 0
M  V30 9668 N 934.159 -1.57557 0.0367827 0
M  V30 9669 C 935.407 -1.91735 -0.63892 0
M  V30 9670 C 935.728 -0.914515 -1.72226 0
M  V30 9671 O 934.998 0.0428248 -1.95853 0
M  V30 9672 H 933.578 -0.707738 -0.23899 0
M  V30 9673 H 936.24 -1.94708 0.0863931 0
M  V30 9674 H 935.336 -2.92568 -1.08676 0
M  V30 9675 N 935.637 0.236453 -1.55816 0
M  V30 9676 C 936.885 0.96111 -1.77784 0
M  V30 9677 C 937.206 1.85454 -0.602648 0
M  V30 9678 O 936.476 1.92157 0.381137 0
M  V30 9679 H 935.056 0.35787 -0.655697 0
M  V30 9680 H 937.718 0.251888 -1.93265 0
M  V30 9681 H 936.814 1.5767 -2.69345 0
M  V30 9682 N 937.115 1.49373 0.502552 0
M  V30 9683 C 938.078 1.65413 1.58654 0
M  V30 9684 C 939.078 0.526003 1.51953 0
M  V30 9685 O 940.268 0.792421 1.55133 0
M  V30 9686 C 937.4 1.65005 2.98306 0
M  V30 9687 H 938.593 2.62095 1.45762 0
M  V30 9688 H 936.146 1.38381 0.726672 0
M  V30 9689 H 936.881 0.699014 3.16677 0
M  V30 9690 H 936.666 2.46931 3.04578 0
M  V30 9691 H 938.156 1.79477 3.77065 0
M  V30 9692 N 938.594 -0.753485 1.38421 0
M  V30 9693 C 939.841 -1.51261 1.34634 0
M  V30 9694 C 940.169 -1.94396 -0.0635771 0
M  V30 9695 O 939.424 -1.65736 -1.04068 0
M  V30 9696 C 939.723 -2.77836 2.24816 0
M  V30 9697 C 939.389 -2.53662 3.72782 0
M  V30 9698 C 938.051 -2.46779 4.13103 0
M  V30 9699 C 940.403 -2.32548 4.66445 0
M  V30 9700 C 937.731 -2.16796 5.45176 0
M  V30 9701 C 940.083 -2.04085 5.98775 0
M  V30 9702 C 938.747 -1.95658 6.3818 0
M  V30 9703 H 938.017 -0.553503 0.492661 0
M  V30 9704 H 940.664 -0.866406 1.7078 0
M  V30 9705 H 938.969 -3.47106 1.81726 0
M  V30 9706 H 940.666 -3.35793 2.19189 0
M  V30 9707 H 937.256 -2.59891 3.40815 0
M  V30 9708 H 941.44 -2.36845 4.3614 0
M  V30 9709 H 936.696 -2.0878 5.74648 0
M  V30 9710 H 940.87 -1.86751 6.70893 0
M  V30 9711 H 938.497 -1.7219 7.40442 0
M  V30 9712 N 940.072 -1.23292 -0.981677 0
M  V30 9713 C 941.035 -1.01417 -2.05542 0
M  V30 9714 C 942.035 0.0235354 -1.60783 0
M  V30 9715 O 943.225 -0.216082 -1.72855 0
M  V30 9716 C 940.357 -0.534239 -3.36688 0
M  V30 9717 H 941.55 -1.96702 -2.26381 0
M  V30 9718 H 939.103 -1.05318 -1.1549 0
M  V30 9719 H 939.838 0.422452 -3.21537 0
M  V30 9720 H 939.623 -1.28304 -3.70514 0
M  V30 9721 H 941.113 -0.40179 -4.15663 0
M  V30 9722 N 941.55 1.18024 -1.04442 0
M  V30 9723 C 942.796 1.88377 -0.751133 0
M  V30 9724 C 943.129 1.80377 0.719571 0
M  V30 9725 O 942.404 1.20662 1.52548 0
M  V30 9726 C 942.687 3.38708 -1.22265 0
M  V30 9727 C 942.54 3.55499 -2.75574 0
M  V30 9728 C 943.859 4.32475 -0.815688 0
M  V30 9729 H 940.978 0.684037 -0.27434 0
M  V30 9730 H 943.62 1.38837 -1.29709 0
M  V30 9731 H 941.77 3.8103 -0.758192 0
M  V30 9732 H 943.442 3.22244 -3.30086 0
M  V30 9733 H 941.685 2.98028 -3.15217 0
M  V30 9734 H 942.356 4.60994 -3.03625 0
M  V30 9735 H 944.832 3.97953 -1.21542 0
M  V30 9736 H 943.708 5.36213 -1.17331 0
M  V30 9737 H 943.969 4.41207 0.280901 0
M  V30 9738 N 943.028 0.824394 1.34319 0
M  V30 9739 C 943.96 0.204805 2.28283 0
M  V30 9740 C 944.973 -0.606162 1.51094 0
M  V30 9741 O 946.162 -0.435602 1.73103 0
M  V30 9742 C 943.262 -0.73139 3.30914 0
M  V30 9743 C 942.435 0.0370723 4.37384 0
M  V30 9744 C 941.494 -0.820272 5.19767 0
M  V30 9745 O 940.52 -0.264721 5.68584 0
M  V30 9746 N 941.722 -2.13984 5.39621 0
M  V30 9747 H 944.487 1.0121 2.82093 0
M  V30 9748 H 942.048 0.681494 1.46858 0
M  V30 9749 H 944.04 -1.30958 3.82926 0
M  V30 9750 H 942.61 -1.43943 2.77487 0
M  V30 9751 H 941.83 0.796578 3.86068 0
M  V30 9752 H 943.118 0.566014 5.05642 0
M  V30 9753 H 942.516 -2.61492 5.01636 0
M  V30 9754 H 941.073 -2.66685 5.94746 0
M  V30 9755 N 944.506 -1.46559 0.579492 0
M  V30 9756 C 945.783 -1.956 -0.00287136 0
M  V30 9757 C 946.163 -1.52215 -1.46266 0
M  V30 9758 O 945.511 -0.771335 -2.15088 0
M  V30 9759 C 945.721 -3.48606 0.165824 0
M  V30 9760 C 947.069 -4.24588 0.0319807 0
M  V30 9761 O 948.093 -3.56075 0.094496 0
M  V30 9762 O 946.952 -5.46396 -0.106386 0
M  V30 9763 H 944.046 -0.825387 -0.0516274 0
M  V30 9764 H 946.592 -1.56858 0.647584 0
M  V30 9765 H 945.364 -3.7306 1.18076 0
M  V30 9766 H 944.987 -3.94169 -0.521212 0
M  V30 9767 N 945.984 -0.3171 -1.54377 0
M  V30 9768 C 947.395 0.172287 -1.85903 0
M  V30 9769 C 947.746 1.52141 -1.23885 0
M  V30 9770 O 946.871 2.0949 -0.542476 0
M  V30 9771 C 947.466 0.319392 -3.37291 0
M  V30 9772 C 946.025 0.752998 -3.68791 0
M  V30 9773 C 945.172 -0.129143 -2.76999 0
M  V30 9774 H 948.123 -0.537597 -1.49317 0
M  V30 9775 H 948.144 1.15137 -3.62662 0
M  V30 9776 H 947.656 -0.662671 -3.82401 0
M  V30 9777 H 945.757 1.74504 -3.2921 0
M  V30 9778 H 945.87 0.561228 -4.75801 0
M  V30 9779 H 944.234 0.394242 -2.5163 0
M  V30 9780 H 945.017 -1.10785 -3.24933 0
M  V30 9781 N 947.462 1.57535 -0.0451378 0
M  V30 9782 C 948.41 2.12351 0.949205 0
M  V30 9783 C 949.404 1.05386 1.32628 0
M  V30 9784 O 950.61 1.23802 1.30664 0
M  V30 9785 H 946.985 0.678648 0.323945 0
M  V30 9786 H 948.956 2.94806 0.461718 0
M  V30 9787 C 947.705 2.67862 2.21687 0
M  V30 9788 H 947.028 3.49826 1.93551 0
M  V30 9789 H 948.468 3.09844 2.89435 0
M  V30 9790 C 946.927 1.61353 2.95748 0
M  V30 9791 O 947.457 1.02276 3.88462 0
M  V30 9792 N 945.663 1.33017 2.5837 0
M  V30 9793 H 945.21 1.81246 1.83051 0
M  V30 9794 H 945.168 0.619812 3.0823 0
M  V30 9795 N 948.94 -0.228186 1.55939 0
M  V30 9796 C 950.217 -0.977492 1.69424 0
M  V30 9797 C 950.597 -2.02674 0.590479 0
M  V30 9798 O 949.945 -2.2491 -0.403467 0
M  V30 9799 C 950.155 -1.59394 3.10475 0
M  V30 9800 C 951.503 -2.08871 3.69673 0
M  V30 9801 O 952.527 -1.693 3.13394 0
M  V30 9802 O 951.386 -2.81584 4.68372 0
M  V30 9803 H 948.48 -0.456185 0.6898 0
M  V30 9804 H 951.026 -0.220492 1.68261 0
M  V30 9805 H 949.798 -0.835971 3.82266 0
M  V30 9806 H 949.421 -2.41665 3.15727 0
M  V30 9807 N 950.418 -1.49637 -0.494624 0
M  V30 9808 C 951.365 -1.66776 -1.59545 0
M  V30 9809 C 952.335 -0.509159 -1.58104 0
M  V30 9810 O 953.52 -0.736949 -1.75993 0
M  V30 9811 C 950.66 -1.74624 -2.97658 0
M  V30 9812 C 949.773 -3.01831 -3.09067 0
M  V30 9813 C 948.908 -3.00619 -4.37952 0
M  V30 9814 C 947.947 -4.22378 -4.43016 0
M  V30 9815 N 947.084 -4.1904 -5.63339 0
M  V30 9816 H 951.924 -2.60767 -1.44238 0
M  V30 9817 H 949.461 -1.29286 -0.701673 0
M  V30 9818 H 951.419 -1.77156 -3.77719 0
M  V30 9819 H 950.049 -0.840936 -3.11654 0
M  V30 9820 H 949.101 -3.08881 -2.22029 0
M  V30 9821 H 950.413 -3.91823 -3.08669 0
M  V30 9822 H 949.567 -3.01749 -5.26339 0
M  V30 9823 H 948.306 -2.08416 -4.40924 0
M  V30 9824 H 947.311 -4.21485 -3.5303 0
M  V30 9825 H 948.536 -5.15781 -4.41755 0
M  V30 9826 H 946.482 -3.29677 -5.67141 0
M  V30 9827 H 946.399 -5.02774 -5.64583 0
M  V30 9828 H 947.667 -4.24281 -6.53916 0
M  V30 9829 N 951.896 0.746133 -1.38819 0
M  V30 9830 C 953.124 1.53539 -1.38685 0
M  V30 9831 C 953.539 1.88788 0.0215039 0
M  V30 9832 O 952.896 1.53312 0.990031 0
M  V30 9833 C 952.947 2.8299 -2.24942 0
M  V30 9834 O 952.668 2.49242 -3.60292 0
M  V30 9835 C 954.169 3.77085 -2.3307 0
M  V30 9836 H 951.389 0.474842 -0.474095 0
M  V30 9837 H 953.933 0.922844 -1.82493 0
M  V30 9838 H 952.088 3.40603 -1.84576 0
M  V30 9839 H 952.502 3.32319 -4.05789 0
M  V30 9840 H 953.976 4.64845 -2.97696 0
M  V30 9841 H 954.453 4.18049 -1.34655 0
M  V30 9842 H 955.059 3.25394 -2.73859 0
M  V30 9843 N 953.375 1.23811 0.975125 0
M  V30 9844 C 954.322 1.02394 2.06843 0
M  V30 9845 C 955.292 -0.060337 1.6599 0
M  V30 9846 O 956.477 0.0928187 1.90574 0
M  V30 9847 C 953.617 0.626882 3.39359 0
M  V30 9848 C 952.73 1.78385 3.9345 0
M  V30 9849 C 951.865 1.33307 5.14201 0
M  V30 9850 C 950.904 2.46045 5.60471 0
M  V30 9851 N 950.041 2.01888 6.72448 0
M  V30 9852 H 954.881 1.95973 2.24496 0
M  V30 9853 H 952.418 0.976206 1.10039 0
M  V30 9854 H 954.376 0.377742 4.15486 0
M  V30 9855 H 953.006 -0.271907 3.21653 0
M  V30 9856 H 952.058 2.14685 3.14029 0
M  V30 9857 H 953.37 2.63122 4.23755 0
M  V30 9858 H 952.524 1.04237 5.97678 0
M  V30 9859 H 951.263 0.456143 4.85562 0
M  V30 9860 H 950.268 2.75884 4.75571 0
M  V30 9861 H 951.493 3.34283 5.91127 0
M  V30 9862 H 949.439 1.16583 6.45558 0
M  V30 9863 H 949.356 2.80182 7.02164 0
M  V30 9864 H 950.624 1.75937 7.59386 0
M  V30 9865 N 954.853 -1.17469 1.05066 0
M  V30 9866 C 956.1 -1.87698 0.759987 0
M  V30 9867 C 956.428 -1.80964 -0.712902 0
M  V30 9868 O 955.683 -1.21146 -1.53695 0
M  V30 9869 C 955.982 -3.37211 1.18421 0
M  V30 9870 C 955.648 -3.64148 2.65909 0
M  V30 9871 C 954.31 -3.71209 3.06199 0
M  V30 9872 C 956.662 -3.75724 3.61222 0
M  V30 9873 C 953.99 -3.87334 4.40669 0
M  V30 9874 C 956.342 -3.93368 4.95424 0
M  V30 9875 C 955.006 -3.98667 5.3537 0
M  V30 9876 H 954.276 -0.686835 0.278099 0
M  V30 9877 H 956.923 -1.38975 1.31751 0
M  V30 9878 H 955.228 -3.87982 0.545654 0
M  V30 9879 H 956.925 -3.89911 0.936518 0
M  V30 9880 H 953.515 -3.59276 2.33707 0
M  V30 9881 H 957.699 -3.69591 3.31235 0
M  V30 9882 H 952.955 -3.89685 4.71122 0
M  V30 9883 H 957.129 -4.01267 5.69173 0
M  V30 9884 H 954.756 -4.10915 6.39572 0
M  V30 9885 N 956.331 -0.831506 -1.3388 0
M  V30 9886 C 957.561 -0.436292 -2.01941 0
M  V30 9887 C 957.969 0.964979 -1.62741 0
M  V30 9888 O 957.312 1.63733 -0.832894 0
M  V30 9889 C 957.374 -0.468811 -3.5643 0
M  V30 9890 C 957.038 -1.82491 -4.18982 0
M  V30 9891 C 958.035 -2.78705 -4.38885 0
M  V30 9892 C 955.72 -2.11574 -4.55568 0
M  V30 9893 C 957.714 -4.02168 -4.94509 0
M  V30 9894 C 955.401 -3.35296 -5.10901 0
M  V30 9895 C 956.399 -4.3041 -5.30317 0
M  V30 9896 O 956.087 -5.51944 -5.84477 0
M  V30 9897 H 955.819 -0.172335 -0.653664 0
M  V30 9898 H 958.373 -1.12354 -1.71947 0
M  V30 9899 H 956.603 0.275179 -3.8572 0
M  V30 9900 H 958.292 -0.0924518 -4.05795 0
M  V30 9901 H 959.058 -2.57534 -4.10976 0
M  V30 9902 H 954.937 -1.38338 -4.39754 0
M  V30 9903 H 958.481 -4.76418 -5.09579 0
M  V30 9904 H 954.378 -3.56326 -5.3824 0
M  V30 9905 H 955.146 -5.53582 -6.029 0
M  V30 9906 N 957.809 1.4625 -0.587256 0
M  V30 9907 C 958.772 2.28812 0.133238 0
M  V30 9908 C 959.772 1.38645 0.814513 0
M  V30 9909 O 960.962 1.60975 0.665774 0
M  V30 9910 C 958.094 3.19147 1.19824 0
M  V30 9911 H 959.287 2.93991 -0.592386 0
M  V30 9912 H 956.84 1.52435 -0.345416 0
M  V30 9913 H 957.575 2.58725 1.95529 0
M  V30 9914 H 957.36 3.85541 0.71418 0
M  V30 9915 H 958.85 3.81278 1.70344 0
M  V30 9916 N 959.287 0.325282 1.54207 0
M  V30 9917 C 960.25 -0.527228 2.23054 0
M  V30 9918 C 961.25 -1.04217 1.22456 0
M  V30 9919 O 962.44 -0.934325 1.47024 0
M  V30 9920 C 959.572 -1.7325 2.93594 0
M  V30 9921 H 960.765 0.0746423 2.99807 0
M  V30 9922 H 958.318 0.0763872 1.56113 0
M  V30 9923 H 959.053 -2.37356 2.20981 0
M  V30 9924 H 958.838 -1.37065 3.67363 0
M  V30 9925 H 960.328 -2.3376 3.46043 0
M  V30 9926 N 960.765 -1.57509 0.0534917 0
M  V30 9927 C 962.013 -1.92402 -0.618548 0
M  V30 9928 C 962.334 -0.93273 -1.71246 0
M  V30 9929 O 961.604 0.0220495 -1.95888 0
M  V30 9930 H 960.184 -0.710233 -0.23147 0
M  V30 9931 H 962.846 -1.94606 0.10704 0
M  V30 9932 H 961.942 -2.93704 -1.05566 0
M  V30 9933 N 962.243 0.219913 -1.56058 0
M  V30 9934 C 963.173 1.27572 -1.9557 0
M  V30 9935 C 964.154 1.48801 -0.824148 0
M  V30 9936 O 965.339 1.60957 -1.08658 0
M  V30 9937 C 962.469 2.62517 -2.27381 0
M  V30 9938 C 961.423 2.55941 -3.43042 0
M  V30 9939 C 960.749 3.94931 -3.60463 0
M  V30 9940 C 962.049 2.10584 -4.77966 0
M  V30 9941 H 963.743 0.947482 -2.84013 0
M  V30 9942 H 961.289 0.454337 -1.36645 0
M  V30 9943 H 963.242 3.36538 -2.53615 0
M  V30 9944 H 961.966 2.97031 -1.35794 0
M  V30 9945 H 960.625 1.84377 -3.1686 0
M  V30 9946 H 960.273 4.26756 -2.66249 0
M  V30 9947 H 959.973 3.91413 -4.38258 0
M  V30 9948 H 961.497 4.70611 -3.89046 0
M  V30 9949 H 962.911 2.74349 -5.03394 0
M  V30 9950 H 961.308 2.18122 -5.59055 0
M  V30 9951 H 962.378 1.05818 -4.73213 0
M  V30 9952 N 963.721 1.49897 0.486681 0
M  V30 9953 C 964.967 1.60342 1.2417 0
M  V30 9954 C 965.3 0.295694 1.91936 0
M  V30 9955 O 964.575 -0.701788 1.81398 0
M  V30 9956 C 964.858 2.77281 2.29755 0
M  V30 9957 C 964.711 4.1789 1.66397 0
M  V30 9958 C 966.03 2.89817 3.31201 0
M  V30 9959 H 963.149 0.583605 0.450083 0
M  V30 9960 H 965.791 1.82232 0.537734 0
M  V30 9961 H 963.941 2.58748 2.89796 0
M  V30 9962 H 965.613 4.47975 1.10073 0
M  V30 9963 H 963.856 4.22872 0.967579 0
M  V30 9964 H 964.527 4.95612 2.43049 0
M  V30 9965 H 967.003 3.06732 2.81167 0
M  V30 9966 H 965.879 3.7329 4.02425 0
M  V30 9967 H 966.14 1.9977 3.94391 0
M  V30 9968 N 965.199 -0.738761 1.39212 0
M  V30 9969 C 966.424 -1.5331 1.39681 0
M  V30 9970 C 966.849 -1.88098 -0.00768715 0
M  V30 9971 O 966.207 -1.51642 -0.993699 0
M  V30 9972 C 966.255 -2.79958 2.27279 0
M  V30 9973 O 965.359 -3.75727 1.70008 0
M  V30 9974 H 964.7 -0.463131 0.475821 0
M  V30 9975 H 967.23 -0.911768 1.83161 0
M  V30 9976 H 967.24 -3.28732 2.41659 0
M  V30 9977 H 965.915 -2.5397 3.29351 0
M  V30 9978 H 964.492 -3.34483 1.64851 0
M  V30 9979 N 966.677 -1.24326 -0.968545 0
M  V30 9980 C 967.923 -1.09413 -1.71465 0
M  V30 9981 C 968.278 0.363422 -1.88937 0
M  V30 9982 O 967.571 1.26486 -1.43916 0
M  V30 9983 C 967.765 -1.76644 -3.10695 0
M  V30 9984 C 967.594 -3.28787 -3.06805 0
M  V30 9985 C 966.364 -3.97995 -3.11333 0
M  V30 9986 C 968.562 -4.25389 -2.89047 0
M  V30 9987 N 966.544 -5.37024 -2.97453 0
M  V30 9988 C 967.915 -5.51411 -2.83454 0
M  V30 9989 C 969.97 -4.15976 -2.73621 0
M  V30 9990 C 968.673 -6.69096 -2.64013 0
M  V30 9991 C 970.699 -5.33338 -2.55547 0
M  V30 9992 C 970.061 -6.58291 -2.50663 0
M  V30 9993 H 966.16 -0.454986 -0.636012 0
M  V30 9994 H 968.744 -1.57228 -1.14837 0
M  V30 9995 H 966.915 -1.31344 -3.65518 0
M  V30 9996 H 968.647 -1.54599 -3.74007 0
M  V30 9997 H 965.402 -3.49155 -3.19981 0
M  V30 9998 H 965.826 -6.09948 -2.93756 0
M  V30 9999 H 970.468 -3.20131 -2.76181 0
M  V30 10000 H 968.186 -7.65064 -2.60197 0
M  V30 10001 H 971.772 -5.27904 -2.44557 0
M  V30 10002 H 970.652 -7.47575 -2.36856 0
M  V30 10003 N 968.156 1.1691 -1.05688 0
M  V30 10004 C 969.404 1.86922 -0.768409 0
M  V30 10005 C 969.725 1.81735 0.706921 0
M  V30 10006 O 968.995 1.24671 1.51109 0
M  V30 10007 H 967.575 0.69203 -0.281253 0
M  V30 10008 H 970.237 1.41803 -1.33708 0
M  V30 10009 H 969.333 2.92528 -1.08783 0
M  V30 10010 N 969.634 0.838594 1.33437 0
M  V30 10011 C 971.045 0.490934 1.8013 0
M  V30 10012 C 971.396 -0.990024 1.6939 0
M  V30 10013 O 970.521 -1.77139 1.24302 0
M  V30 10014 C 971.116 0.884347 3.27055 0
M  V30 10015 C 969.675 0.588829 3.71766 0
M  V30 10016 C 968.822 1.09282 2.54858 0
M  V30 10017 H 971.773 1.02732 1.20962 0
M  V30 10018 H 971.794 0.194283 3.80004 0
M  V30 10019 H 971.306 1.96225 3.34839 0
M  V30 10020 H 969.407 -0.479018 3.69508 0
M  V30 10021 H 969.52 1.14387 4.65245 0
M  V30 10022 H 967.884 0.513702 2.49466 0
M  V30 10023 H 968.667 2.1775 2.65405 0
M  V30 10024 N 971.112 -1.45937 0.595003 0
M  V30 10025 C 972.044 -2.28575 -0.169137 0
M  V30 10026 C 973.057 -1.39226 -0.843792 0
M  V30 10027 O 974.246 -1.63716 -0.711291 0
M  V30 10028 C 971.346 -3.14616 -1.25976 0
M  V30 10029 C 970.519 -4.32166 -0.67466 0
M  V30 10030 C 969.578 -4.99511 -1.65456 0
M  V30 10031 O 968.604 -5.56712 -1.18578 0
M  V30 10032 N 969.806 -4.97643 -2.98885 0
M  V30 10033 H 972.571 -2.94797 0.539908 0
M  V30 10034 H 970.132 -1.55985 0.433614 0
M  V30 10035 H 972.124 -3.56534 -1.91483 0
M  V30 10036 H 970.694 -2.50387 -1.8715 0
M  V30 10037 H 969.914 -3.93882 0.158184 0
M  V30 10038 H 971.202 -5.08116 -0.263753 0
M  V30 10039 H 970.6 -4.52438 -3.39583 0
M  V30 10040 H 969.157 -5.43463 -3.59848 0
M  V30 10041 N 972.59 -0.333456 -1.54032 0
M  V30 10042 C 973.83 0.266604 -2.02654 0
M  V30 10043 C 974.194 1.48568 -1.21621 0
M  V30 10044 O 975.395 2.15925 -1.60093 0
M  V30 10045 C 973.666 0.582825 -3.52616 0
M  V30 10046 S 975.225 1.16113 -4.23159 0
M  V30 10047 H 972.043 0.0800344 -0.706481 0
M  V30 10048 H 974.645 -0.468876 -1.89794 0
M  V30 10049 H 973.349 -0.312401 -4.09209 0
M  V30 10050 H 972.88 1.34824 -3.69576 0
M  V30 10051 H 974.895 2.44743 -4.31642 0
M  V30 10052 N 974.068 1.57479 -0.061844 0
M  V30 10053 C 975.316 1.92727 0.608336 0
M  V30 10054 C 975.637 0.941799 1.70749 0
M  V30 10055 O 974.907 -0.0116608 1.95897 0
M  V30 10056 H 973.487 0.71145 0.2277 0
M  V30 10057 H 976.149 1.94546 -0.117359 0
M  V30 10058 H 975.245 2.9426 1.04007 0
M  V30 10059 N 975.546 -0.211634 1.56173 0
M  V30 10060 C 976.774 -0.951184 1.83739 0
M  V30 10061 C 977.189 -1.7754 0.642252 0
M  V30 10062 O 976.546 -1.78302 -0.389174 0
M  V30 10063 C 976.597 -1.86075 3.09933 0
M  V30 10064 O 976.318 -1.06983 4.24837 0
M  V30 10065 C 977.819 -2.71337 3.50559 0
M  V30 10066 H 975.039 -0.278312 0.61056 0
M  V30 10067 H 977.583 -0.223871 2.03271 0
M  V30 10068 H 975.738 -2.54189 2.92347 0
M  V30 10069 H 976.152 -1.68815 4.9659 0
M  V30 10070 H 977.626 -3.30843 4.41868 0
M  V30 10071 H 978.103 -3.44226 2.72773 0
M  V30 10072 H 978.709 -2.0862 3.70618 0
M  V30 10073 N 977.024 -1.50153 -0.478725 0
M  V30 10074 C 978.254 -1.64266 -1.253 0
M  V30 10075 C 978.662 -0.322256 -1.86435 0
M  V30 10076 O 978.005 0.704925 -1.69636 0
M  V30 10077 C 978.067 -2.67017 -2.40712 0
M  V30 10078 C 977.731 -4.10779 -2.00274 0
M  V30 10079 C 978.728 -4.96889 -1.52963 0
M  V30 10080 C 976.413 -4.5665 -2.09228 0
M  V30 10081 C 978.407 -6.26914 -1.15139 0
M  V30 10082 C 976.094 -5.86683 -1.71015 0
M  V30 10083 C 977.092 -6.71641 -1.24048 0
M  V30 10084 O 976.78 -7.99248 -0.863617 0
M  V30 10085 H 976.512 -0.555382 -0.385392 0
M  V30 10086 H 979.066 -1.97078 -0.578751 0
M  V30 10087 H 977.296 -2.29432 -3.11284 0
M  V30 10088 H 978.985 -2.70428 -3.02694 0
M  V30 10089 H 979.751 -4.62669 -1.45474 0
M  V30 10090 H 975.63 -3.90674 -2.44735 0
M  V30 10091 H 979.174 -6.93179 -0.784089 0
M  V30 10092 H 975.071 -6.20426 -1.78162 0
M  V30 10093 H 975.839 -8.12452 -0.993139 0
M  V30 10094 N 978.502 0.731368 -1.39602 0
M  V30 10095 C 979.75 1.48805 -1.36753 0
M  V30 10096 C 980.071 1.94969 0.034676 0
M  V30 10097 O 979.341 1.69243 0.986591 0
M  V30 10098 H 977.921 0.55203 -0.503261 0
M  V30 10099 H 980.583 0.868013 -1.74504 0
M  V30 10100 H 979.679 2.36844 -2.03252 0
M  V30 10101 N 979.98 1.24838 0.961938 0
M  V30 10102 C 980.91 1.07053 2.07514 0
M  V30 10103 C 981.891 -0.0182465 1.7009 0
M  V30 10104 O 983.076 0.149915 1.9362 0
M  V30 10105 C 980.206 0.680693 3.40564 0
M  V30 10106 C 979.16 1.71889 3.91967 0
M  V30 10107 C 978.486 1.18395 5.21428 0
M  V30 10108 C 979.786 3.1161 4.19161 0
M  V30 10109 H 981.48 2.00167 2.22651 0
M  V30 10110 H 979.026 0.963799 1.0699 0
M  V30 10111 H 980.979 0.54324 4.17884 0
M  V30 10112 H 979.703 -0.28615 3.25344 0
M  V30 10113 H 978.362 1.84465 3.16809 0
M  V30 10114 H 978.01 0.207543 5.02572 0
M  V30 10115 H 977.71 1.87778 5.56788 0
M  V30 10116 H 979.234 1.05873 6.01351 0
M  V30 10117 H 980.648 3.0223 4.87165 0
M  V30 10118 H 979.045 3.78398 4.65763 0
M  V30 10119 H 980.115 3.59218 3.25715 0
M  V30 10120 N 981.458 -1.16348 1.06306 0
M  V30 10121 C 982.688 -1.90505 0.799453 0
M  V30 10122 C 983.096 -1.77686 -0.649955 0
M  V30 10123 O 982.439 -1.11921 -1.45669 0
M  V30 10124 C 982.501 -3.41775 1.11492 0
M  V30 10125 C 982.165 -3.7838 2.56277 0
M  V30 10126 C 983.162 -3.80288 3.54509 0
M  V30 10127 C 980.847 -4.09007 2.9158 0
M  V30 10128 C 982.841 -4.12312 4.86084 0
M  V30 10129 C 980.528 -4.40697 4.23354 0
M  V30 10130 C 981.526 -4.4233 5.20416 0
M  V30 10131 O 981.214 -4.73267 6.49826 0
M  V30 10132 H 980.946 -0.61094 0.289359 0
M  V30 10133 H 983.5 -1.48409 1.41999 0
M  V30 10134 H 981.73 -3.84219 0.437306 0
M  V30 10135 H 983.419 -3.97207 0.835533 0
M  V30 10136 H 984.185 -3.56738 3.28577 0
M  V30 10137 H 980.064 -4.06901 2.16686 0
M  V30 10138 H 983.608 -4.13501 5.61838 0
M  V30 10139 H 979.505 -4.63713 4.49044 0
M  V30 10140 H 980.273 -4.91078 6.54817 0
M  V30 10141 N 982.937 -0.845659 -1.3299 0
M  V30 10142 C 984.165 -0.45835 -2.01759 0
M  V30 10143 C 984.58 0.94239 -1.63598 0
M  V30 10144 O 983.937 1.61353 -0.852738 0
M  V30 10145 C 983.988 -0.577311 -3.5686 0
M  V30 10146 O 983.709 -1.92287 -3.93646 0
M  V30 10147 C 985.21 -0.187839 -4.42902 0
M  V30 10148 H 982.43 -0.181165 -0.646081 0
M  V30 10149 H 984.974 -1.14011 -1.6977 0
M  V30 10150 H 983.129 0.0566146 -3.87359 0
M  V30 10151 H 983.543 -1.91322 -4.88361 0
M  V30 10152 H 985.017 -0.322105 -5.51059 0
M  V30 10153 H 985.494 0.870896 -4.30479 0
M  V30 10154 H 986.1 -0.796473 -4.17776 0
M  V30 10155 N 984.415 1.45619 -0.602734 0
M  V30 10156 C 985.831 1.57368 -0.26599 0
M  V30 10157 C 986.031 1.59485 1.23154 0
M  V30 10158 O 985.087 1.52254 2.01432 0
M  V30 10159 C 986.4 2.85863 -0.932881 0
M  V30 10160 C 987.948 2.9953 -0.908344 0
M  V30 10161 C 988.423 4.30789 -1.55515 0
M  V30 10162 N 989.914 4.37536 -1.52042 0
M  V30 10163 C 990.649 5.37758 -1.99008 0
M  V30 10164 N 990.145 6.44544 -2.54038 0
M  V30 10165 N 991.938 5.29085 -1.89805 0
M  V30 10166 H 984.089 1.42489 -1.57514 0
M  V30 10167 H 986.352 0.680948 -0.659556 0
M  V30 10168 H 986.058 2.90183 -1.98713 0
M  V30 10169 H 985.932 3.74467 -0.453209 0
M  V30 10170 H 988.319 2.9478 0.137344 0
M  V30 10171 H 988.4 2.12349 -1.42623 0
M  V30 10172 H 988.044 4.36297 -2.60014 0
M  V30 10173 H 987.974 5.16778 -1.01232 0
M  V30 10174 H 990.465 3.60972 -1.11837 0
M  V30 10175 H 990.778 7.17258 -2.87682 0
M  V30 10176 H 989.123 6.45308 -2.58075 0
M  V30 10177 H 992.314 4.44566 -1.46556 0
M  V30 10178 H 992.487 6.07043 -2.26722 0
M  V30 10179 N 985.893 0.34162 1.53853 0
M  V30 10180 C 987.139 -0.255862 2.01179 0
M  V30 10181 C 987.472 -1.50356 1.22909 0
M  V30 10182 O 986.747 -1.91913 0.316198 0
M  V30 10183 C 987.03 -0.571934 3.55529 0
M  V30 10184 C 986.883 0.687727 4.44511 0
M  V30 10185 C 988.202 -1.38233 4.17827 0
M  V30 10186 H 985.321 -0.091521 0.731295 0
M  V30 10187 H 987.963 0.461775 1.84303 0
M  V30 10188 H 986.113 -1.18331 3.70041 0
M  V30 10189 H 987.785 1.32572 4.4184 0
M  V30 10190 H 986.028 1.313 4.13452 0
M  V30 10191 H 986.699 0.421858 5.50386 0
M  V30 10192 H 989.175 -0.865374 4.07002 0
M  V30 10193 H 988.051 -1.57223 5.25901 0
M  V30 10194 H 988.312 -2.38386 3.72323 0
M  V30 10195 N 987.371 -1.57444 0.0701946 0
M  V30 10196 C 988.318 -2.12631 -0.897599 0
M  V30 10197 C 989.288 -1.03841 -1.29639 0
M  V30 10198 O 990.473 -1.31495 -1.38253 0
M  V30 10199 C 987.613 -2.6911 -2.16041 0
M  V30 10200 C 986.726 -3.9205 -1.8144 0
M  V30 10201 C 985.861 -4.36778 -3.02321 0
M  V30 10202 C 984.9 -5.52371 -2.63729 0
M  V30 10203 N 984.037 -5.92065 -3.77364 0
M  V30 10204 H 988.877 -2.95024 -0.420104 0
M  V30 10205 H 986.414 -1.45792 -0.195716 0
M  V30 10206 H 988.372 -2.99963 -2.89962 0
M  V30 10207 H 987.002 -1.89484 -2.61334 0
M  V30 10208 H 986.054 -3.67669 -0.975896 0
M  V30 10209 H 987.366 -4.76011 -1.49046 0
M  V30 10210 H 986.52 -4.69285 -3.84521 0
M  V30 10211 H 985.259 -3.51668 -3.37907 0
M  V30 10212 H 984.264 -5.19517 -1.7995 0
M  V30 10213 H 985.489 -6.39212 -2.29315 0
M  V30 10214 H 983.435 -5.09904 -4.12715 0
M  V30 10215 H 983.352 -6.70762 -3.48733 0
M  V30 10216 H 984.62 -6.29193 -4.60148 0
M  V30 10217 N 988.849 0.203349 -1.56283 0
M  V30 10218 C 989.797 1.27157 -1.94766 0
M  V30 10219 C 990.791 1.4756 -0.832005 0
M  V30 10220 O 991.997 1.48519 -1.01696 0
M  V30 10221 H 988.372 0.426712 -0.61921 0
M  V30 10222 H 990.343 0.919921 -2.83866 0
M  V30 10223 C 989.092 2.6108 -2.29636 0
M  V30 10224 H 988.415 2.46193 -3.15006 0
M  V30 10225 H 989.855 3.34591 -2.60433 0
M  V30 10226 C 988.314 3.17456 -1.12799 0
M  V30 10227 O 988.844 3.99717 -0.398661 0
M  V30 10228 N 987.05 2.76084 -0.906975 0
M  V30 10229 H 986.597 2.09294 -1.50179 0
M  V30 10230 H 986.555 3.14143 -0.127005 0
M  V30 10231 N 990.327 1.50405 0.470755 0
M  V30 10232 C 991.557 1.64928 1.24428 0
M  V30 10233 C 991.965 0.332139 1.86262 0
M  V30 10234 O 991.308 -0.695919 1.70008 0
M  V30 10235 C 991.37 2.6829 2.39293 0
M  V30 10236 C 991.034 4.11835 1.98093 0
M  V30 10237 C 992.031 4.97693 1.50326 0
M  V30 10238 C 989.716 4.57753 2.06803 0
M  V30 10239 C 991.71 6.27516 1.11813 0
M  V30 10240 C 989.397 5.87582 1.67902 0
M  V30 10241 C 990.395 6.72289 1.20485 0
M  V30 10242 O 990.083 7.99694 0.821219 0
M  V30 10243 H 989.815 0.557418 0.382442 0
M  V30 10244 H 992.369 1.97382 0.568292 0
M  V30 10245 H 990.599 2.31079 3.10063 0
M  V30 10246 H 992.288 2.7203 3.01255 0
M  V30 10247 H 993.054 4.63434 1.43018 0
M  V30 10248 H 988.933 3.91966 2.42659 0
M  V30 10249 H 992.477 6.93586 0.747317 0
M  V30 10250 H 988.374 6.21362 1.74869 0
M  V30 10251 H 989.142 8.12968 0.950038 0
M  V30 10252 N 991.805 -0.723954 1.39988 0
M  V30 10253 C 993.051 -1.48591 1.38017 0
M  V30 10254 C 993.384 -1.94189 -0.0203522 0
M  V30 10255 O 992.659 -1.67572 -0.987422 0
M  V30 10256 C 992.942 -2.71786 2.36229 0
M  V30 10257 C 992.795 -2.32136 3.8527 0
M  V30 10258 C 994.114 -3.73921 2.32102 0
M  V30 10259 H 991.233 -0.538993 0.502648 0
M  V30 10260 H 993.875 -0.826908 1.71062 0
M  V30 10261 H 992.025 -3.28015 2.0818 0
M  V30 10262 H 993.697 -1.81454 4.24113 0
M  V30 10263 H 991.94 -1.64234 4.01509 0
M  V30 10264 H 992.611 -3.20406 4.49493 0
M  V30 10265 H 995.087 -3.27303 2.56928 0
M  V30 10266 H 993.963 -4.5777 3.02882 0
M  V30 10267 H 994.224 -4.21627 1.32979 0
M  V30 10268 N 993.283 -1.25346 -0.955304 0
M  V30 10269 C 994.56 -1.00829 -1.67609 0
M  V30 10270 C 994.94 0.465675 -2.059 0
M  V30 10271 O 994.288 1.44287 -1.77182 0
M  V30 10272 C 994.498 -1.94337 -2.89886 0
M  V30 10273 C 995.846 -2.22142 -3.61854 0
M  V30 10274 O 996.87 -1.9209 -2.99967 0
M  V30 10275 O 995.729 -2.73239 -4.73289 0
M  V30 10276 H 992.823 -0.382314 -0.733325 0
M  V30 10277 H 995.369 -1.36498 -1.00829 0
M  V30 10278 H 994.141 -2.93867 -2.58376 0
M  V30 10279 H 993.764 -1.59062 -3.64397 0
M  V30 10280 N 994.761 1.15782 -1.06922 0
M  V30 10281 C 996.007 1.86975 -0.800747 0
M  V30 10282 C 996.362 1.80512 0.665818 0
M  V30 10283 O 995.655 1.21432 1.48205 0
M  V30 10284 C 995.849 3.35284 -1.2377 0
M  V30 10285 C 995.678 3.56186 -2.74521 0
M  V30 10286 C 994.448 3.71908 -3.42071 0
M  V30 10287 C 996.646 3.54373 -3.72725 0
M  V30 10288 N 994.628 3.80821 -4.81507 0
M  V30 10289 C 995.999 3.69347 -4.97978 0
M  V30 10290 C 998.054 3.37622 -3.65945 0
M  V30 10291 C 996.757 3.69302 -6.17259 0
M  V30 10292 C 998.783 3.38873 -4.84684 0
M  V30 10293 C 998.145 3.54373 -6.08769 0
M  V30 10294 H 994.244 0.701533 -0.345507 0
M  V30 10295 H 996.828 1.38875 -1.36462 0
M  V30 10296 H 994.999 3.82011 -0.701588 0
M  V30 10297 H 996.731 3.94169 -0.917235 0
M  V30 10298 H 993.486 3.72499 -2.92475 0
M  V30 10299 H 993.91 3.89031 -5.54061 0
M  V30 10300 H 998.552 3.24562 -2.7096 0
M  V30 10301 H 996.27 3.81142 -7.1257 0
M  V30 10302 H 999.856 3.27146 -4.8111 0
M  V30 10303 H 998.736 3.55268 -6.9911 0
M  V30 10304 N 996.239 0.8527 1.3254 0
M  V30 10305 C 997.488 0.45136 1.96585 0
M  V30 10306 C 997.801 -0.997773 1.68237 0
M  V30 10307 O 999.007 -1.50445 2.26006 0
M  V30 10308 C 997.463 0.75619 3.51866 0
M  V30 10309 C 997.071 2.22092 3.89075 0
M  V30 10310 C 998.815 0.422478 4.22392 0
M  V30 10311 C 996.722 2.46908 5.37392 0
M  V30 10312 H 995.652 0.165052 0.735713 0
M  V30 10313 H 998.303 1.04321 1.50962 0
M  V30 10314 H 996.685 0.0937988 3.95889 0
M  V30 10315 H 997.859 2.92494 3.56067 0
M  V30 10316 H 996.174 2.51896 3.31568 0
M  V30 10317 H 998.771 0.58533 5.31487 0
M  V30 10318 H 999.114 -0.635737 4.11417 0
M  V30 10319 H 999.647 1.04068 3.83946 0
M  V30 10320 H 996.386 3.51346 5.53386 0
M  V30 10321 H 995.906 1.81082 5.71812 0
M  V30 10322 H 997.585 2.30758 6.0445 0
M  V30 10323 N 997.718 -1.45297 0.610449 0
M  V30 10324 C 998.651 -2.27669 -0.155637 0
M  V30 10325 C 999.629 -1.37308 -0.870936 0
M  V30 10326 O 1000.81 -1.66739 -0.879228 0
M  V30 10327 C 997.94 -3.15748 -1.2256 0
M  V30 10328 C 996.986 -4.2207 -0.613116 0
M  V30 10329 S 997.819 -5.32337 0.581183 0
M  V30 10330 C 998.975 -6.23985 -0.489298 0
M  V30 10331 H 999.208 -2.92295 0.543205 0
M  V30 10332 H 996.741 -1.49181 0.398044 0
M  V30 10333 H 998.699 -3.67051 -1.83804 0
M  V30 10334 H 997.36 -2.50381 -1.89652 0
M  V30 10335 H 996.553 -4.83633 -1.41827 0
M  V30 10336 H 996.155 -3.73923 -0.0757482 0
M  V30 10337 H 998.447 -6.63553 -1.36759 0
M  V30 10338 H 999.39 -7.08042 0.0902456 0
M  V30 10339 H 999.798 -5.58718 -0.805911 0
M  V30 10340 N 999.196 -0.349774 -1.5367 0
M  V30 10341 C 1000.14 0.504121 -2.25227 0
M  V30 10342 C 1001.11 1.09048 -1.2529 0
M  V30 10343 O 1002.3 1.12594 -1.54037 0
M  V30 10344 C 999.438 1.64601 -3.03316 0
M  V30 10345 C 998.551 1.08635 -4.18118 0
M  V30 10346 C 997.686 2.19605 -4.83681 0
M  V30 10347 C 996.725 1.61023 -5.90541 0
M  V30 10348 N 995.862 2.6576 -6.49858 0
M  V30 10349 H 1000.7 -0.112621 -2.97787 0
M  V30 10350 H 998.239 -0.0673503 -1.46946 0
M  V30 10351 H 1000.2 2.31836 -3.46854 0
M  V30 10352 H 998.827 2.23364 -2.33041 0
M  V30 10353 H 997.879 0.304748 -3.79177 0
M  V30 10354 H 999.191 0.617911 -4.94958 0
M  V30 10355 H 998.345 2.94693 -5.30322 0
M  V30 10356 H 997.084 2.69795 -4.06278 0
M  V30 10357 H 996.089 0.844428 -5.43277 0
M  V30 10358 H 997.314 1.11677 -6.69855 0
M  V30 10359 H 995.26 3.15193 -5.75317 0
M  V30 10360 H 995.177 2.23557 -7.2219 0
M  V30 10361 H 996.445 3.40598 -7.01151 0
M  V30 10362 N 1000.67 1.57404 -0.0785433 0
M  V30 10363 C 1001.9 1.98074 0.597862 0
M  V30 10364 C 1002.32 0.95714 1.6274 0
M  V30 10365 O 1001.67 -0.0553728 1.82416 0
M  V30 10366 C 1001.72 3.38815 1.26041 0
M  V30 10367 O 1001.45 4.37254 0.27207 0
M  V30 10368 C 1002.95 3.94397 2.024 0
M  V30 10369 H 1000.17 0.651263 0.161546 0
M  V30 10370 H 1002.71 2.03927 -0.152941 0
M  V30 10371 H 1000.87 3.34028 1.96225 0
M  V30 10372 H 1001.28 5.19136 0.74822 0
M  V30 10373 H 1002.75 4.95075 2.4414 0
M  V30 10374 H 1003.23 3.31308 2.88326 0
M  V30 10375 H 1003.84 4.02607 1.37068 0
M  V30 10376 N 1002.15 -0.195058 1.56388 0
M  V30 10377 C 1003.08 -1.26978 1.8961 0
M  V30 10378 C 1004.06 -1.43946 0.756199 0
M  V30 10379 O 1005.25 -1.59335 1.0072 0
M  V30 10380 C 1002.37 -2.63638 2.12632 0
M  V30 10381 C 1001.42 -2.6354 3.35334 0
M  V30 10382 S 1002.25 -2.1497 4.90457 0
M  V30 10383 C 1003.41 -3.53454 5.16547 0
M  V30 10384 H 1003.64 -0.986091 2.8047 0
M  V30 10385 H 1001.17 -0.398552 1.49167 0
M  V30 10386 H 1003.13 -3.42304 2.26579 0
M  V30 10387 H 1001.79 -2.89218 1.22522 0
M  V30 10388 H 1000.99 -3.64027 3.48569 0
M  V30 10389 H 1000.59 -1.92956 3.20381 0
M  V30 10390 H 1002.88 -4.49318 5.0707 0
M  V30 10391 H 1003.82 -3.45113 6.18306 0
M  V30 10392 H 1004.23 -3.48368 4.44185 0
M  V30 10393 N 1003.63 -1.50653 -0.462772 0
M  V30 10394 C 1004.56 -1.66286 -1.5774 0
M  V30 10395 C 1005.57 -0.544094 -1.53439 0
M  V30 10396 O 1006.76 -0.817566 -1.58676 0
M  V30 10397 C 1003.86 -1.63893 -2.96635 0
M  V30 10398 C 1003.04 -2.91939 -3.25716 0
M  V30 10399 C 1002.1 -2.82076 -4.44206 0
M  V30 10400 O 1001.12 -3.56032 -4.44106 0
M  V30 10401 N 1002.32 -1.96196 -5.4634 0
M  V30 10402 H 1005.09 -2.6243 -1.44742 0
M  V30 10403 H 1002.65 -1.48221 -0.651326 0
M  V30 10404 H 1004.64 -1.54897 -3.73884 0
M  V30 10405 H 1003.21 -0.75449 -3.03358 0
M  V30 10406 H 1002.43 -3.14998 -2.37002 0
M  V30 10407 H 1003.72 -3.7675 -3.4196 0
M  V30 10408 H 1003.12 -1.35439 -5.49247 0
M  V30 10409 H 1001.67 -1.93097 -6.2254 0
M  V30 10410 N 1005.11 0.71652 -1.4037 0
M  V30 10411 C 1006.02 1.86074 -1.42876 0
M  V30 10412 C 1007.03 1.71005 -0.321475 0
M  V30 10413 O 1008.21 1.93286 -0.565909 0
M  V30 10414 C 1005.28 3.21862 -1.28863 0
M  V30 10415 C 1004.34 3.49193 -2.49726 0
M  V30 10416 C 1003.57 4.78502 -2.36372 0
M  V30 10417 O 1003.79 5.53529 -1.37703 0
M  V30 10418 O 1002.73 5.06147 -3.25728 0
M  V30 10419 H 1006.55 1.86916 -2.39366 0
M  V30 10420 H 1004.14 0.866818 -1.21683 0
M  V30 10421 H 1006.02 4.02972 -1.23253 0
M  V30 10422 H 1004.69 3.2175 -0.354783 0
M  V30 10423 H 1003.6 2.68095 -2.60913 0
M  V30 10424 H 1004.93 3.54101 -3.41868 0
M  V30 10425 N 1006.59 1.25851 0.948643 0
M  V30 10426 C 1007.53 1.06559 2.06756 0
M  V30 10427 C 1008.53 -0.00528632 1.69399 0
M  V30 10428 O 1009.73 0.150806 1.79367 0
M  V30 10429 H 1006.11 0.327689 0.676848 0
M  V30 10430 H 1008.08 2.01401 2.20182 0
M  V30 10431 C 1006.83 0.707392 3.40428 0
M  V30 10432 H 1006.15 1.52324 3.69645 0
M  V30 10433 H 1007.59 0.612142 4.19558 0
M  V30 10434 C 1006.05 -0.58697 3.31747 0
M  V30 10435 O 1006.58 -1.62741 3.67258 0
M  V30 10436 N 1004.79 -0.574828 2.84858 0
M  V30 10437 H 1004.33 0.272236 2.56157 0
M  V30 10438 H 1004.29 -1.441 2.79432 0
M  V30 10439 N 1008.06 -1.15214 1.07534 0
M  V30 10440 C 1009.29 -1.90463 0.820883 0
M  V30 10441 C 1009.71 -1.77578 -0.620305 0
M  V30 10442 O 1009.07 -1.10976 -1.43366 0
M  V30 10443 C 1009.12 -3.38746 1.23627 0
M  V30 10444 O 1008.22 -4.1062 0.382715 0
M  V30 10445 H 1007.57 -0.59292 0.298901 0
M  V30 10446 H 1010.1 -1.45893 1.43445 0
M  V30 10447 H 1010.11 -3.89543 1.21327 0
M  V30 10448 H 1008.78 -3.47443 2.28596 0
M  V30 10449 H 1007.36 -3.69947 0.468374 0
M  V30 10450 N 1009.54 -0.859717 -1.32086 0
M  V30 10451 C 1010.77 -0.479724 -2.01262 0
M  V30 10452 C 1011.19 0.924985 -1.64589 0
M  V30 10453 O 1010.54 1.60439 -0.869803 0
M  V30 10454 C 1010.59 -0.615128 -3.56228 0
M  V30 10455 O 1010.31 -1.96451 -3.91585 0
M  V30 10456 C 1011.82 -0.234804 -4.42678 0
M  V30 10457 H 1009.04 -0.188007 -0.644123 0
M  V30 10458 H 1011.58 -1.15805 -1.68551 0
M  V30 10459 H 1009.73 0.0155268 -3.87397 0
M  V30 10460 H 1010.15 -1.96491 -4.86304 0
M  V30 10461 H 1011.62 -0.380534 -5.50687 0
M  V30 10462 H 1012.1 0.825189 -4.31378 0
M  V30 10463 H 1012.71 -0.840739 -4.16907 0
M  V30 10464 N 1011.02 1.44971 -0.618145 0
M  V30 10465 C 1012.43 1.85611 -0.201334 0
M  V30 10466 C 1012.78 1.51698 1.24427 0
M  V30 10467 O 1011.91 0.94875 1.94493 0
M  V30 10468 C 1012.5 3.36897 -0.358619 0
M  V30 10469 C 1011.06 3.764 0.00358196 0
M  V30 10470 C 1010.21 2.68881 -0.678118 0
M  V30 10471 H 1013.16 1.35622 -0.824152 0
M  V30 10472 H 1013.18 3.78326 0.406176 0
M  V30 10473 H 1012.69 3.61548 -1.41084 0
M  V30 10474 H 1010.79 3.57365 1.05457 0
M  V30 10475 H 1010.91 4.77449 -0.397427 0
M  V30 10476 H 1009.27 2.54442 -0.114699 0
M  V30 10477 H 1010.05 2.96367 -1.73268 0
M  V30 10478 N 1012.5 0.357919 1.53482 0
M  V30 10479 C 1013.91 0.00655107 1.59599 0
M  V30 10480 C 1014.11 -1.47449 1.37336 0
M  V30 10481 O 1013.17 -2.2351 1.17472 0
M  V30 10482 C 1014.48 0.455617 2.97228 0
M  V30 10483 C 1016.03 0.409183 3.10314 0
M  V30 10484 C 1016.51 0.833941 4.50344 0
M  V30 10485 N 1018 0.788695 4.56436 0
M  V30 10486 C 1018.73 1.08914 5.62961 0
M  V30 10487 N 1018.23 1.45847 6.77274 0
M  V30 10488 N 1020.02 1.01243 5.52907 0
M  V30 10489 H 1012.17 1.32248 1.66206 0
M  V30 10490 H 1014.44 0.540047 0.779136 0
M  V30 10491 H 1014.14 1.48881 3.18634 0
M  V30 10492 H 1014.02 -0.161751 3.76853 0
M  V30 10493 H 1016.4 -0.614863 2.88623 0
M  V30 10494 H 1016.48 1.06195 2.32715 0
M  V30 10495 H 1016.13 1.85607 4.72771 0
M  V30 10496 H 1016.06 0.158507 5.26361 0
M  V30 10497 H 1018.55 0.516497 3.74354 0
M  V30 10498 H 1018.86 1.67218 7.54492 0
M  V30 10499 H 1017.21 1.49705 6.78685 0
M  V30 10500 H 1020.4 0.723137 4.62481 0
M  V30 10501 H 1020.57 1.24991 6.35831 0
M  V30 10502 N 1013.98 -1.5736 0.0868897 0
M  V30 10503 C 1014.89 -2.17087 -0.889402 0
M  V30 10504 C 1015.9 -1.13809 -1.31619 0
M  V30 10505 O 1017.08 -1.46143 -1.38579 0
M  V30 10506 C 1014.14 -2.73286 -2.13344 0
M  V30 10507 C 1013.2 -3.91491 -1.76164 0
M  V30 10508 C 1012.44 -4.45 -2.94637 0
M  V30 10509 O 1012.66 -3.97467 -4.09116 0
M  V30 10510 O 1011.59 -5.36133 -2.73579 0
M  V30 10511 H 1015.42 -3.00902 -0.411275 0
M  V30 10512 H 1013.01 -1.4877 -0.137015 0
M  V30 10513 H 1014.89 -3.0924 -2.86266 0
M  V30 10514 H 1013.56 -1.92521 -2.60225 0
M  V30 10515 H 1012.47 -3.60363 -1.00447 0
M  V30 10516 H 1013.8 -4.73593 -1.34053 0
M  V30 10517 N 1015.45 0.186762 -1.56489 0
M  V30 10518 C 1016.73 0.932229 -1.71956 0
M  V30 10519 C 1017.11 2.01037 -0.644006 0
M  V30 10520 O 1016.46 2.259 0.343694 0
M  V30 10521 C 1016.67 1.51106 -3.14592 0
M  V30 10522 C 1018.02 1.98997 -3.75081 0
M  V30 10523 O 1019.04 1.60931 -3.17773 0
M  V30 10524 O 1017.9 2.69067 -4.75673 0
M  V30 10525 H 1014.99 0.437736 -0.701652 0
M  V30 10526 H 1017.54 0.175803 -1.68787 0
M  V30 10527 H 1016.31 0.734327 -3.84348 0
M  V30 10528 H 1015.94 2.33209 -3.22024 0
M  V30 10529 O 1016.97 1.58053 0.331901 0
M  V30 10530 H 1017.66 1.67029 0.980866 0
M  V30 END ATOM
M  V30 BEGIN BOND
M  V30 END BOND
M  V30 END CTAB
M  END
$$$$
