drugbank_target|P09850 Endo-1,4-beta-xylanase (DB03389)
 OpenBabel12092120273D

  0  0  0     0  0            999 V3000
M  V30 BEGIN CTAB
M  V30 COUNTS 3201 3253 0 0 0
M  V30 BEGIN ATOM
M  V30 1 H -0.908 1.98254 -0.117106 0
M  V30 2 N 0 1.576 0 0
M  V30 3 C 0.933 2.03868 1.02534 0
M  V30 4 C 1.911 0.928543 1.3348 0
M  V30 5 O 3.095 1.19667 1.45644 0
M  V30 6 C 0.222 2.43627 2.35294 0
M  V30 7 C -0.732 3.65373 2.2001 0
M  V30 8 S 0.101 5.13292 1.52614 0
M  V30 9 C 1.257 5.56322 2.86805 0
M  V30 10 H 1.49 2.90518 0.631377 0
M  V30 11 H -0.977 1.52953 0.210867 0
M  V30 12 H 0.981 2.67203 3.11629 0
M  V30 13 H -0.358 1.57376 2.7183 0
M  V30 14 H -1.165 3.90944 3.18086 0
M  V30 15 H -1.563 3.418 1.51819 0
M  V30 16 H 0.729 5.58782 3.83104 0
M  V30 17 H 1.672 6.56266 2.65933 0
M  V30 18 H 2.08 4.83886 2.90714 0
M  V30 19 N 1.4781 -0.272755 1.55222 0
M  V30 20 C 2.7251 -1.00433 1.7584 0
M  V30 21 C 3.0531 -1.86275 0.559629 0
M  V30 22 O 2.3081 -1.90269 -0.457857 0
M  V30 23 C 2.6071 -1.91642 3.01675 0
M  V30 24 C 2.2731 -1.21548 4.34208 0
M  V30 25 C 0.9351 -1.02166 4.70229 0
M  V30 26 C 3.2871 -0.716684 5.16249 0
M  V30 27 C 0.6151 -0.316334 5.85847 0
M  V30 28 C 2.9671 -0.0249476 6.32595 0
M  V30 29 C 1.6311 0.180579 6.67256 0
M  V30 30 H 0.9011 -0.367509 0.643443 0
M  V30 31 H 3.5481 -0.276596 1.89492 0
M  V30 32 H 1.8531 -2.71037 2.82924 0
M  V30 33 H 3.5501 -2.48369 3.14824 0
M  V30 34 H 0.1401 -1.37645 4.05896 0
M  V30 35 H 4.3241 -0.854047 4.88896 0
M  V30 36 H -0.4199 -0.146378 6.11225 0
M  V30 37 H 3.7541 0.369311 6.9542 0
M  V30 38 H 1.3811 0.729098 7.56696 0
M  V30 39 N 2.9562 -1.48159 -0.537278 0
M  V30 40 C 3.9032 -1.62138 -1.64256 0
M  V30 41 C 4.8732 -0.463668 -1.59497 0
M  V30 42 O 6.0582 -0.686241 -1.78032 0
M  V30 43 C 3.1982 -1.66028 -3.02537 0
M  V30 44 C 2.3112 -2.92855 -3.17585 0
M  V30 45 C 1.4462 -2.87952 -4.46382 0
M  V30 46 C 0.4852 -4.09516 -4.54932 0
M  V30 47 N -0.3778 -4.02733 -5.75109 0
M  V30 48 H 4.4622 -2.56529 -1.51647 0
M  V30 49 H 1.9992 -1.27224 -0.738414 0
M  V30 50 H 3.9572 -1.66265 -3.82638 0
M  V30 51 H 2.5872 -0.751331 -3.13934 0
M  V30 52 H 1.6392 -3.02395 -2.30784 0
M  V30 53 H 2.9512 -3.82822 -3.19764 0
M  V30 54 H 2.1052 -2.8655 -5.34765 0
M  V30 55 H 0.8442 -1.95702 -4.46712 0
M  V30 56 H -0.1508 -4.11201 -3.64957 0
M  V30 57 H 1.0742 -5.02917 -4.56346 0
M  V30 58 H -0.9798 -3.13299 -5.76351 0
M  V30 59 H -1.0628 -4.86397 -5.78752 0
M  V30 60 H 0.2052 -4.05379 -6.65799 0
M  V30 61 N 4.4343 0.785586 -1.36625 0
M  V30 62 C 5.6813 1.54362 -1.31067 0
M  V30 63 C 6.0093 1.94195 0.10893 0
M  V30 64 O 5.2643 1.63262 1.07908 0
M  V30 65 C 5.5633 2.83007 -2.1827 0
M  V30 66 C 5.2293 2.62294 -3.6676 0
M  V30 67 C 3.8913 2.56353 -4.0723 0
M  V30 68 C 6.2433 2.43371 -4.6089 0
M  V30 69 C 3.5713 2.29461 -5.39967 0
M  V30 70 C 5.9233 2.18005 -5.93849 0
M  V30 71 C 4.5873 2.105 -6.3344 0
M  V30 72 H 3.8573 0.564851 -0.479609 0
M  V30 73 H 6.5043 0.906028 -1.68711 0
M  V30 74 H 4.8093 3.51253 -1.73576 0
M  V30 75 H 6.5063 3.40817 -2.11292 0
M  V30 76 H 3.0963 2.67774 -3.34656 0
M  V30 77 H 7.2803 2.46959 -4.30494 0
M  V30 78 H 2.5363 2.22135 -5.69619 0
M  V30 79 H 6.7103 2.02359 -6.66351 0
M  V30 80 H 4.3373 1.89425 -7.36222 0
M  V30 81 N 5.9124 1.20967 1.01018 0
M  V30 82 C 6.8594 0.964281 2.09691 0
M  V30 83 C 7.8294 -0.107853 1.65749 0
M  V30 84 O 9.0144 0.0381987 1.90762 0
M  V30 85 C 6.1544 0.52943 3.41015 0
M  V30 86 C 5.2674 1.67043 3.98398 0
M  V30 87 C 4.4024 1.18525 5.17808 0
M  V30 88 C 3.4414 2.29892 5.67288 0
M  V30 89 N 2.5784 1.82546 6.77954 0
M  V30 90 H 7.4184 1.89463 2.30017 0
M  V30 91 H 4.9554 0.944289 1.1279 0
M  V30 92 H 6.9134 0.258588 4.16398 0
M  V30 93 H 5.5434 -0.363919 3.20742 0
M  V30 94 H 4.5954 2.05603 3.20049 0
M  V30 95 H 5.9074 2.50877 4.31117 0
M  V30 96 H 5.0614 0.870762 6.00419 0
M  V30 97 H 3.8004 0.316887 4.86669 0
M  V30 98 H 2.8054 2.6215 4.83278 0
M  V30 99 H 4.0304 3.17216 6.00459 0
M  V30 100 H 1.9764 0.980454 6.48632 0
M  V30 101 H 1.8934 2.59956 7.09901 0
M  V30 102 H 3.1614 1.54115 7.64113 0
M  V30 103 N 7.3905 -1.2043 1.01659 0
M  V30 104 C 8.3375 -2.23215 0.586822 0
M  V30 105 C 9.3075 -1.61382 -0.393085 0
M  V30 106 O 10.4925 -1.88544 -0.292525 0
M  V30 107 C 7.6325 -3.45032 -0.0687464 0
M  V30 108 C 6.7455 -4.21296 0.955724 0
M  V30 109 C 5.8805 -5.30507 0.271208 0
M  V30 110 C 4.9195 -5.98515 1.28244 0
M  V30 111 N 4.0565 -6.99316 0.62459 0
M  V30 112 H 8.8965 -2.59336 1.46796 0
M  V30 113 H 6.4335 -1.27431 0.734836 0
M  V30 114 H 8.3915 -4.1459 -0.465965 0
M  V30 115 H 7.0215 -3.09604 -0.913529 0
M  V30 116 H 6.0735 -3.50803 1.4711 0
M  V30 117 H 7.3855 -4.6803 1.72479 0
M  V30 118 H 6.5395 -6.06428 -0.18151 0
M  V30 119 H 5.2785 -4.8481 -0.530163 0
M  V30 120 H 4.2835 -5.21355 1.74554 0
M  V30 121 H 5.5085 -6.46298 2.08509 0
M  V30 122 H 3.4545 -6.55812 -0.156914 0
M  V30 123 H 3.3715 -7.44178 1.33172 0
M  V30 124 H 4.6395 -7.79255 0.195462 0
M  V30 125 N 8.8686 -0.792821 -1.36206 0
M  V30 126 C 9.8166 -0.181555 -2.3189 0
M  V30 127 C 10.8106 0.661025 -1.55971 0
M  V30 128 O 12.0166 0.555728 -1.71206 0
M  V30 129 H 8.3916 -0.0399382 -0.750939 0
M  V30 130 H 10.3626 -1.00394 -2.81005 0
M  V30 131 C 9.1116 0.666444 -3.41253 0
M  V30 132 H 8.4346 0.0274489 -3.99791 0
M  V30 133 H 9.8746 1.06076 -4.10517 0
M  V30 134 C 8.3336 1.82614 -2.83114 0
M  V30 135 O 8.8636 2.9229 -2.75553 0
M  V30 136 N 7.0696 1.63333 -2.40356 0
M  V30 137 H 6.6166 0.741217 -2.46706 0
M  V30 138 H 6.5746 2.41087 -2.01803 0
M  V30 139 N 10.3467 1.47872 -0.545128 0
M  V30 140 C 11.5937 2.02493 -0.0165858 0
M  V30 141 C 11.9217 1.42073 1.32836 0
M  V30 142 O 11.1767 0.561459 1.87473 0
M  V30 143 C 11.4757 3.57131 0.13867 0
M  V30 144 C 11.1417 4.36411 -1.13384 0
M  V30 145 C 9.8037 4.57792 -1.48256 0
M  V30 146 C 12.1557 4.82223 -1.97764 0
M  V30 147 C 9.4837 5.22233 -2.67376 0
M  V30 148 C 11.8357 5.47977 -3.16076 0
M  V30 149 C 10.4997 5.67593 -3.51275 0
M  V30 150 H 9.7697 0.740975 -0.00606918 0
M  V30 151 H 12.4167 1.77683 -0.714207 0
M  V30 152 H 10.7217 3.80865 0.919172 0
M  V30 153 H 12.4187 3.97031 0.562782 0
M  V30 154 H 9.0087 4.2004 -0.852297 0
M  V30 155 H 13.1927 4.65493 -1.72132 0
M  V30 156 H 8.4487 5.35616 -2.94831 0
M  V30 157 H 12.6227 5.8244 -3.81755 0
M  V30 158 H 10.2497 6.17298 -4.43675 0
M  V30 159 N 11.8248 0.280983 1.55075 0
M  V30 160 C 12.7548 -0.597469 2.25727 0
M  V30 161 C 13.7358 -1.15417 1.24952 0
M  V30 162 O 14.9208 -1.18722 1.53684 0
M  V30 163 C 12.0508 -1.7789 2.98283 0
M  V30 164 C 11.0048 -1.35347 4.06036 0
M  V30 165 C 10.3308 -2.61846 4.66198 0
M  V30 166 C 11.6308 -0.499354 5.19907 0
M  V30 167 H 13.3248 -0.00824265 2.99399 0
M  V30 168 H 10.8708 -0.0025244 1.44 0
M  V30 169 H 12.8238 -2.39937 3.46422 0
M  V30 170 H 11.5478 -2.39405 2.22155 0
M  V30 171 H 10.2068 -0.756156 3.58717 0
M  V30 172 H 9.8548 -3.21632 3.86732 0
M  V30 173 H 9.5548 -2.3409 5.38958 0
M  V30 174 H 11.0788 -3.24732 5.1709 0
M  V30 175 H 12.4928 -1.02498 5.64063 0
M  V30 176 H 10.8898 -0.316424 5.99265 0
M  V30 177 H 11.9598 0.480459 4.82514 0
M  V30 178 N 13.3029 -1.57598 0.00835791 0
M  V30 179 C 14.5489 -1.91211 -0.675732 0
M  V30 180 C 14.8819 -0.883139 -1.72958 0
M  V30 181 O 14.1569 0.097016 -1.94258 0
M  V30 182 C 14.4399 -3.35379 -1.31123 0
M  V30 183 C 14.2929 -4.48999 -0.268356 0
M  V30 184 C 15.6119 -3.7912 -2.23508 0
M  V30 185 H 12.7309 -0.695374 -0.244179 0
M  V30 186 H 15.3729 -1.89901 0.0613655 0
M  V30 187 H 13.5229 -3.36626 -1.93946 0
M  V30 188 H 15.1949 -4.59887 0.360844 0
M  V30 189 H 13.4379 -4.31873 0.408482 0
M  V30 190 H 14.1089 -5.46851 -0.752218 0
M  V30 191 H 16.5849 -3.79477 -1.70693 0
M  V30 192 H 15.4609 -4.80729 -2.64936 0
M  V30 193 H 15.7219 -3.13455 -3.11766 0
M  V30 194 N 14.781 0.264519 -1.55364 0
M  V30 195 C 16.029 0.993021 -1.76021 0
M  V30 196 C 16.35 1.86511 -0.569099 0
M  V30 197 O 15.62 1.91438 0.415735 0
M  V30 198 H 14.2 0.369639 -0.649135 0
M  V30 199 H 16.862 0.286707 -1.9278 0
M  V30 200 H 15.958 1.62502 -2.66457 0
M  V30 201 N 16.2591 1.48442 0.529413 0
M  V30 202 C 17.1891 1.65902 1.64313 0
M  V30 203 C 18.1701 0.507897 1.6234 0
M  V30 204 O 19.3551 0.740503 1.79528 0
M  V30 205 C 16.4851 1.69911 3.02898 0
M  V30 206 C 15.4391 2.8453 3.19729 0
M  V30 207 C 14.7651 2.73629 4.59381 0
M  V30 208 C 16.0651 4.25821 3.02447 0
M  V30 209 H 17.7591 2.5914 1.49955 0
M  V30 210 H 15.3051 1.24709 0.719982 0
M  V30 211 H 17.2581 1.80715 3.80684 0
M  V30 212 H 15.9821 0.732524 3.18279 0
M  V30 213 H 14.6411 2.73283 2.44361 0
M  V30 214 H 14.2891 1.74938 4.71599 0
M  V30 215 H 13.9891 3.50541 4.71588 0
M  V30 216 H 15.5131 2.86401 5.39265 0
M  V30 217 H 16.9271 4.37898 3.70024 0
M  V30 218 H 15.3241 5.03735 3.26146 0
M  V30 219 H 16.3941 4.42244 1.98867 0
M  V30 220 N 17.7372 -0.778329 1.37039 0
M  V30 221 C 18.9622 -1.57248 1.35233 0
M  V30 222 C 19.3872 -1.87999 -0.0615568 0
M  V30 223 O 18.7452 -1.48734 -1.03672 0
M  V30 224 C 18.7932 -2.86353 2.19167 0
M  V30 225 O 17.8972 -3.80442 1.59178 0
M  V30 226 H 17.2382 -0.476569 0.462362 0
M  V30 227 H 19.7682 -0.963853 1.80474 0
M  V30 228 H 19.7782 -3.35519 2.32145 0
M  V30 229 H 18.4532 -2.63299 3.21942 0
M  V30 230 H 17.0302 -3.39067 1.55203 0
M  V30 231 N 19.2153 -1.21501 -1.00376 0
M  V30 232 C 20.1783 -0.976927 -2.07337 0
M  V30 233 C 21.1783 0.0525322 -1.60714 0
M  V30 234 O 22.3683 -0.184869 -1.73216 0
M  V30 235 C 19.5003 -0.473423 -3.37597 0
M  V30 236 H 20.6933 -1.92587 -2.29892 0
M  V30 237 H 18.2463 -1.03217 -1.17371 0
M  V30 238 H 18.9813 0.480379 -3.20722 0
M  V30 239 H 18.7663 -1.216 -3.72768 0
M  V30 240 H 20.2563 -0.32675 -4.1632 0
M  V30 241 N 20.6934 1.19889 -1.02296 0
M  V30 242 C 21.6564 2.21116 -0.603351 0
M  V30 243 C 22.6564 1.5738 0.329884 0
M  V30 244 O 23.8464 1.73802 0.117702 0
M  V30 245 C 20.9784 3.40696 0.117992 0
M  V30 246 H 22.1714 2.59754 -1.49893 0
M  V30 247 H 19.7244 1.33463 -0.813468 0
M  V30 248 H 20.4594 3.07569 1.0282 0
M  V30 249 H 20.2444 3.88188 -0.552511 0
M  V30 250 H 21.7344 4.15692 0.398696 0
M  V30 251 N 22.1715 0.800033 1.35784 0
M  V30 252 C 23.1015 0.220184 2.3246 0
M  V30 253 C 24.0825 -0.65073 1.57161 0
M  V30 254 O 25.2675 -0.582359 1.85263 0
M  V30 255 C 22.3975 -0.637353 3.41402 0
M  V30 256 C 21.3515 0.134531 4.27789 0
M  V30 257 C 20.6775 -0.844285 5.27992 0
M  V30 258 C 21.9775 1.32979 5.05088 0
M  V30 259 H 23.6715 1.02787 2.81203 0
M  V30 260 H 21.2175 0.495717 1.35199 0
M  V30 261 H 23.1705 -1.05302 4.08031 0
M  V30 262 H 21.8945 -1.47785 2.91251 0
M  V30 263 H 20.5535 0.531296 3.6273 0
M  V30 264 H 20.2015 -1.68011 4.74111 0
M  V30 265 H 19.9015 -0.332184 5.8666 0
M  V30 266 H 21.4255 -1.2583 5.97494 0
M  V30 267 H 22.8395 0.98934 5.64699 0
M  V30 268 H 21.2365 1.77593 5.7322 0
M  V30 269 H 22.3065 2.11978 4.36111 0
M  V30 270 N 23.6496 -1.47581 0.552962 0
M  V30 271 C 24.5826 -2.26883 -0.244857 0
M  V30 272 C 25.5606 -1.33784 -0.924147 0
M  V30 273 O 26.7446 -1.6316 -0.943981 0
M  V30 274 C 23.8716 -3.10695 -1.34856 0
M  V30 275 C 22.9176 -4.19339 -0.778268 0
M  V30 276 S 23.7506 -5.34207 0.37184 0
M  V30 277 C 24.9066 -6.21584 -0.733779 0
M  V30 278 H 25.1396 -2.94202 0.428087 0
M  V30 279 H 22.6726 -1.50628 0.339197 0
M  V30 280 H 24.6306 -3.59555 -1.98066 0
M  V30 281 H 23.2916 -2.42746 -1.99332 0
M  V30 282 H 22.4846 -4.77695 -1.60696 0
M  V30 283 H 22.0866 -3.73338 -0.222422 0
M  V30 284 H 24.3786 -6.57676 -1.62692 0
M  V30 285 H 25.3216 -7.07851 -0.187668 0
M  V30 286 H 25.7296 -5.55125 -1.02454 0
M  V30 287 N 25.1277 -0.289203 -1.54924 0
M  V30 288 C 26.3527 0.329299 -2.04769 0
M  V30 289 C 26.7777 1.4763 -1.16564 0
M  V30 290 O 26.1357 1.80527 -0.167186 0
M  V30 291 C 26.1837 0.774438 -3.52186 0
M  V30 292 O 25.2877 1.88038 -3.67036 0
M  V30 293 H 24.6287 0.0659259 -0.660719 0
M  V30 294 H 27.1587 -0.42761 -2.00082 0
M  V30 295 H 27.1687 1.06642 -3.93816 0
M  V30 296 H 25.8437 -0.0646707 -4.1585 0
M  V30 297 H 24.4207 1.58985 -3.3731 0
M  V30 298 N 26.6058 1.57591 -0.0167156 0
M  V30 299 C 27.8548 1.90461 0.663877 0
M  V30 300 C 28.1678 0.893515 1.73999 0
M  V30 301 O 29.3738 1.11302 2.47637 0
M  V30 302 C 27.8298 3.38155 1.23204 0
M  V30 303 C 27.4378 4.47597 0.189866 0
M  V30 304 C 29.1818 3.80111 1.88986 0
M  V30 305 C 27.0888 5.86379 0.768964 0
M  V30 306 H 26.0188 0.710738 0.251729 0
M  V30 307 H 28.6698 1.83326 -0.0799926 0
M  V30 308 H 27.0518 3.40182 2.02712 0
M  V30 309 H 28.2258 4.57112 -0.581846 0
M  V30 310 H 26.5408 4.14766 -0.368475 0
M  V30 311 H 29.1378 4.81145 2.33247 0
M  V30 312 H 29.4808 3.14511 2.72743 0
M  V30 313 H 30.0138 3.80454 1.16187 0
M  V30 314 H 26.7528 6.55493 -0.0301957 0
M  V30 315 H 26.2728 5.80496 1.50945 0
M  V30 316 H 27.9518 6.34563 1.26251 0
M  V30 317 N 28.0839 -0.256276 1.55502 0
M  V30 318 C 29.3089 -1.00766 1.81276 0
M  V30 319 C 29.7339 -1.78524 0.59252 0
M  V30 320 O 29.0919 -1.75413 -0.45827 0
M  V30 321 C 29.1399 -1.92869 3.04687 0
M  V30 322 O 28.2439 -3.019 2.80945 0
M  V30 323 H 27.5849 -0.287224 0.598664 0
M  V30 324 H 30.1149 -0.280109 2.02674 0
M  V30 325 H 30.1249 -2.34511 3.33869 0
M  V30 326 H 28.7999 -1.35689 3.93143 0
M  V30 327 H 27.3769 -2.64454 2.62904 0
M  V30 328 N 29.562 -1.4872 -0.521534 0
M  V30 329 C 30.492 -1.66771 -1.63431 0
M  V30 330 C 31.473 -0.516499 -1.62069 0
M  V30 331 O 32.658 -0.750013 -1.79132 0
M  V30 332 C 29.788 -1.71515 -3.01993 0
M  V30 333 C 28.742 -2.86222 -3.18216 0
M  V30 334 C 28.068 -2.76061 -4.57924 0
M  V30 335 C 29.368 -4.27419 -3.00184 0
M  V30 336 H 31.062 -2.59932 -1.48579 0
M  V30 337 H 28.608 -1.25089 -0.713358 0
M  V30 338 H 30.561 -1.82731 -3.7972 0
M  V30 339 H 29.285 -0.749393 -3.17886 0
M  V30 340 H 27.944 -2.74575 -2.42908 0
M  V30 341 H 27.592 -1.77437 -4.70665 0
M  V30 342 H 27.292 -3.53037 -4.69722 0
M  V30 343 H 28.816 -2.89256 -5.37739 0
M  V30 344 H 30.23 -4.39855 -3.67697 0
M  V30 345 H 28.627 -5.05458 -3.2347 0
M  V30 346 H 29.697 -4.43293 -1.96518 0
M  V30 347 N 31.0401 0.771051 -1.3745 0
M  V30 348 C 32.2871 1.52963 -1.32697 0
M  V30 349 C 32.6151 1.94299 0.0883274 0
M  V30 350 O 31.8701 1.64397 1.0617 0
M  V30 351 C 32.1691 2.80676 -2.2126 0
M  V30 352 C 31.8351 2.58389 -3.69521 0
M  V30 353 C 30.4971 2.52019 -4.09927 0
M  V30 354 C 32.8491 2.38469 -4.63446 0
M  V30 355 C 30.1771 2.23721 -5.42371 0
M  V30 356 C 32.5291 2.11694 -5.96128 0
M  V30 357 C 31.1931 2.03769 -6.35637 0
M  V30 358 H 30.4631 0.559732 -0.485573 0
M  V30 359 H 33.1101 0.888083 -1.69662 0
M  V30 360 H 31.4151 3.49392 -1.77291 0
M  V30 361 H 33.1121 3.38557 -2.14895 0
M  V30 362 H 29.7021 2.6421 -3.37478 0
M  V30 363 H 33.8861 2.4238 -4.33089 0
M  V30 364 H 29.1421 2.16081 -5.71943 0
M  V30 365 H 33.3161 1.9528 -6.6846 0
M  V30 366 H 30.9431 1.81606 -7.38189 0
M  V30 367 N 32.5182 1.22032 0.997298 0
M  V30 368 C 33.7432 1.06921 1.77715 0
M  V30 369 C 34.1682 -0.376226 1.84299 0
M  V30 370 O 33.5262 -1.27165 1.29223 0
M  V30 371 C 33.5742 1.67996 3.19076 0
M  V30 372 O 32.6782 0.930653 4.01762 0
M  V30 373 H 32.0192 0.375814 0.547412 0
M  V30 374 H 34.5492 1.61737 1.25309 0
M  V30 375 H 34.5592 1.72538 3.69723 0
M  V30 376 H 33.2342 2.73182 3.13599 0
M  V30 377 H 31.8112 0.960917 3.60307 0
M  V30 378 N 33.9963 -1.19345 1.0293 0
M  V30 379 C 34.9593 -2.20793 0.615069 0
M  V30 380 C 35.9593 -1.57553 -0.321533 0
M  V30 381 O 37.1493 -1.73862 -0.108483 0
M  V30 382 C 34.2813 -3.40754 -0.0999222 0
M  V30 383 H 35.4743 -2.58955 1.51269 0
M  V30 384 H 33.0273 -1.3303 0.820534 0
M  V30 385 H 33.7623 -3.0811 -1.01187 0
M  V30 386 H 33.5473 -3.87889 0.57309 0
M  V30 387 H 35.0373 -4.15898 -0.376645 0
M  V30 388 N 35.4744 -0.807222 -1.35358 0
M  V30 389 C 36.7024 -0.400377 -2.02989 0
M  V30 390 C 37.1174 0.988859 -1.60832 0
M  V30 391 O 36.4744 1.63729 -0.806175 0
M  V30 392 C 36.5254 -0.474867 -3.58368 0
M  V30 393 O 36.2464 -1.80933 -3.98992 0
M  V30 394 C 37.7474 -0.0609112 -4.43258 0
M  V30 395 H 34.9674 -0.162587 -0.651004 0
M  V30 396 H 37.5114 -1.09102 -1.72965 0
M  V30 397 H 35.6664 0.167534 -3.87038 0
M  V30 398 H 36.0804 -1.77256 -4.9364 0
M  V30 399 H 37.5544 -0.164145 -5.51756 0
M  V30 400 H 38.0314 0.993831 -4.27808 0
M  V30 401 H 38.6374 -0.676492 -4.19885 0
M  V30 402 N 36.9525 1.47285 -0.560781 0
M  V30 403 C 37.9155 2.28535 0.174488 0
M  V30 404 C 38.9155 1.37153 0.839388 0
M  V30 405 O 40.1055 1.59748 0.694702 0
M  V30 406 C 37.2375 3.16934 1.25561 0
M  V30 407 H 38.4305 2.95012 -0.539262 0
M  V30 408 H 35.9835 1.53034 -0.317865 0
M  V30 409 H 36.7185 2.55157 2.00164 0
M  V30 410 H 36.5035 3.8419 0.783604 0
M  V30 411 H 37.9935 3.78143 1.77193 0
M  V30 412 N 38.4306 0.297415 1.54768 0
M  V30 413 C 39.6556 -0.318435 2.04941 0
M  V30 414 C 40.0806 -1.4701 1.17345 0
M  V30 415 O 39.4386 -1.80436 0.176758 0
M  V30 416 C 39.4866 -0.755749 3.52592 0
M  V30 417 O 38.5906 -1.86088 3.68028 0
M  V30 418 H 37.9316 -0.062421 0.661059 0
M  V30 419 H 40.4616 0.438215 1.99852 0
M  V30 420 H 40.4716 -1.04552 3.94376 0
M  V30 421 H 39.1466 0.0867233 4.1581 0
M  V30 422 H 37.7236 -1.57193 3.38149 0
M  V30 423 N 39.9087 -1.5758 0.0250728 0
M  V30 424 C 40.8717 -2.08896 -0.943139 0
M  V30 425 C 41.8717 -1.00321 -1.25668 0
M  V30 426 O 43.0617 -1.26495 -1.19769 0
M  V30 427 C 40.1937 -2.55143 -2.26086 0
M  V30 428 H 41.3867 -2.95723 -0.498775 0
M  V30 429 H 38.9397 -1.54703 -0.222888 0
M  V30 430 H 39.6747 -1.71633 -2.75159 0
M  V30 431 H 39.4597 -3.34461 -2.04641 0
M  V30 432 H 40.9497 -2.95083 -2.95492 0
M  V30 433 N 41.3868 0.248026 -1.55636 0
M  V30 434 C 42.3498 1.29044 -1.89421 0
M  V30 435 C 43.3498 1.41134 -0.770581 0
M  V30 436 O 44.5398 1.39854 -1.03858 0
M  V30 437 C 41.6718 2.66831 -2.12165 0
M  V30 438 H 42.8648 1.00305 -2.82629 0
M  V30 439 H 40.4178 0.487265 -1.48511 0
M  V30 440 H 41.1528 3.00711 -1.21422 0
M  V30 441 H 40.9378 2.59438 -2.93997 0
M  V30 442 H 42.4278 3.42103 -2.3949 0
M  V30 443 N 42.8649 1.48995 0.513639 0
M  V30 444 C 44.0899 1.61792 1.29762 0
M  V30 445 C 44.5149 0.284475 1.85936 0
M  V30 446 O 43.8729 -0.746185 1.65232 0
M  V30 447 C 43.9209 2.67993 2.41272 0
M  V30 448 O 43.0249 2.26287 3.44772 0
M  V30 449 H 42.3659 0.541963 0.38363 0
M  V30 450 H 44.8959 1.95097 0.616307 0
M  V30 451 H 44.9059 2.89772 2.87221 0
M  V30 452 H 43.5809 3.64791 1.9975 0
M  V30 453 H 42.1579 2.14788 3.04829 0
M  V30 454 N 44.343 -0.763751 1.37857 0
M  V30 455 C 45.571 -1.55293 1.36718 0
M  V30 456 C 45.986 -1.88745 -0.0455434 0
M  V30 457 O 45.343 -1.52039 -1.00947 0
M  V30 458 C 45.394 -2.85831 2.2132 0
M  V30 459 O 45.115 -2.5381 3.57089 0
M  V30 460 C 46.616 -3.80023 2.28249 0
M  V30 461 H 43.836 -0.480841 0.468009 0
M  V30 462 H 46.38 -0.946009 1.81303 0
M  V30 463 H 44.535 -3.42926 1.80223 0
M  V30 464 H 44.949 -3.37459 4.01524 0
M  V30 465 H 46.423 -4.68599 2.91752 0
M  V30 466 H 46.9 -4.1973 1.2932 0
M  V30 467 H 47.506 -3.28855 2.69693 0
M  V30 468 N 45.8211 -1.22559 -0.990812 0
M  V30 469 C 47.0981 -0.959875 -1.70428 0
M  V30 470 C 47.4781 0.524455 -2.04481 0
M  V30 471 O 46.8261 1.49302 -1.72977 0
M  V30 472 C 47.0361 -1.85955 -2.95333 0
M  V30 473 C 48.3841 -2.11687 -3.68068 0
M  V30 474 O 49.4081 -1.8342 -3.05345 0
M  V30 475 O 48.2671 -2.59572 -4.80921 0
M  V30 476 H 45.3611 -0.361154 -0.743974 0
M  V30 477 H 47.9071 -1.33554 -1.04697 0
M  V30 478 H 46.6791 -2.86346 -2.66687 0
M  V30 479 H 46.3021 -1.4856 -3.68803 0
M  V30 480 N 47.2992 1.18797 -1.03562 0
M  V30 481 C 48.5292 1.92319 -0.754773 0
M  V30 482 C 48.9372 1.7612 0.691248 0
M  V30 483 O 48.2802 1.08491 1.48241 0
M  V30 484 C 48.3422 3.44284 -1.03484 0
M  V30 485 C 48.0062 3.84258 -2.47376 0
M  V30 486 C 49.0032 3.88459 -3.45537 0
M  V30 487 C 46.6882 4.15701 -2.81954 0
M  V30 488 C 48.6822 4.23545 -4.76328 0
M  V30 489 C 46.3692 4.50458 -4.12954 0
M  V30 490 C 47.3672 4.54356 -5.09951 0
M  V30 491 O 47.0552 4.88305 -6.38603 0
M  V30 492 H 46.7872 0.617527 -0.275021 0
M  V30 493 H 49.3412 1.51683 -1.38497 0
M  V30 494 H 47.5712 3.85135 -0.347513 0
M  V30 495 H 49.2602 3.99049 -0.7426 0
M  V30 496 H 50.0262 3.6431 -3.20162 0
M  V30 497 H 45.9052 4.11847 -2.0713 0
M  V30 498 H 49.4492 4.26502 -5.52035 0
M  V30 499 H 45.3462 4.74067 -4.38099 0
M  V30 500 H 46.1142 5.06227 -6.43177 0
M  V30 501 N 48.7773 0.814389 1.34928 0
M  V30 502 C 50.0233 0.408167 1.99263 0
M  V30 503 C 50.3783 -1.0154 1.63424 0
M  V30 504 O 49.6713 -1.69607 0.891289 0
M  V30 505 C 49.8653 0.537781 3.53331 0
M  V30 506 C 49.6943 1.9724 4.04137 0
M  V30 507 C 48.4643 2.60245 4.33129 0
M  V30 508 C 50.6623 2.93801 4.2212 0
M  V30 509 N 48.6443 3.95036 4.69914 0
M  V30 510 C 50.0153 4.1348 4.6199 0
M  V30 511 C 52.0703 2.9053 4.04348 0
M  V30 512 C 50.7733 5.3033 4.85945 0
M  V30 513 C 52.7993 4.06589 4.29464 0
M  V30 514 C 52.1613 5.25017 4.69613 0
M  V30 515 H 48.2603 0.197289 0.756704 0
M  V30 516 H 50.8443 1.05728 1.63492 0
M  V30 517 H 49.0153 -0.0813868 3.88315 0
M  V30 518 H 50.7473 0.105389 4.04563 0
M  V30 519 H 47.5023 2.11545 4.23728 0
M  V30 520 H 47.9263 4.64455 4.92555 0
M  V30 521 H 52.5683 2.00115 3.72443 0
M  V30 522 H 50.2863 6.21309 5.16721 0
M  V30 523 H 53.8723 4.05447 4.17257 0
M  V30 524 H 52.7523 6.1333 4.88667 0
M  V30 525 N 50.2554 -1.46986 0.568584 0
M  V30 526 C 51.1874 -2.28233 -0.210337 0
M  V30 527 C 52.2004 -1.37682 -0.868767 0
M  V30 528 O 53.3894 -1.62406 -0.740705 0
M  V30 529 C 50.4894 -3.12293 -1.3163 0
M  V30 530 C 49.6624 -4.30878 -0.7525 0
M  V30 531 C 48.7214 -4.96445 -1.74439 0
M  V30 532 O 47.7474 -5.54482 -1.286 0
M  V30 533 N 48.9494 -4.92171 -3.07812 0
M  V30 534 H 51.7144 -2.95723 0.486648 0
M  V30 535 H 49.2754 -1.56742 0.405409 0
M  V30 536 H 51.2674 -3.53022 -1.97883 0
M  V30 537 H 49.8374 -2.46971 -1.91636 0
M  V30 538 H 49.0574 -3.94104 0.0871128 0
M  V30 539 H 50.3454 -5.07558 -0.35536 0
M  V30 540 H 49.7434 -4.46239 -3.47688 0
M  V30 541 H 48.3004 -5.36884 -3.69592 0
M  V30 542 N 51.7335 -0.305618 -1.54608 0
M  V30 543 C 52.6815 0.584119 -2.25146 0
M  V30 544 C 53.6755 1.13326 -1.25911 0
M  V30 545 O 54.8815 1.08337 -1.43747 0
M  V30 546 H 51.2565 0.206983 -0.722954 0
M  V30 547 H 53.2275 -0.033291 -2.98381 0
M  V30 548 C 51.9765 1.74225 -3.009 0
M  V30 549 H 51.2995 1.32892 -3.77067 0
M  V30 550 H 52.7395 2.34077 -3.53531 0
M  V30 551 C 51.1985 2.64914 -2.0814 0
M  V30 552 O 51.7285 3.66137 -1.65246 0
M  V30 553 N 49.9345 2.3275 -1.74 0
M  V30 554 H 49.4815 1.50479 -2.09078 0
M  V30 555 H 49.4395 2.93694 -1.12211 0
M  V30 556 N 53.2116 1.57565 -0.0334293 0
M  V30 557 C 54.4576 1.93088 0.639417 0
M  V30 558 C 54.8126 0.910589 1.69488 0
M  V30 559 O 54.1056 -0.0727725 1.91462 0
M  V30 560 C 54.2996 3.33112 1.29504 0
M  V30 561 C 54.1286 4.48667 0.304604 0
M  V30 562 C 52.8986 5.05207 -0.0970777 0
M  V30 563 C 55.0966 5.1239 -0.442845 0
M  V30 564 N 53.0786 6.04286 -1.08223 0
M  V30 565 C 54.4496 6.06609 -1.28161 0
M  V30 566 C 56.5046 4.95352 -0.50308 0
M  V30 567 C 55.2076 6.85622 -2.17519 0
M  V30 568 C 57.2336 5.74978 -1.38401 0
M  V30 569 C 56.5956 6.68816 -2.21054 0
M  V30 570 H 52.6946 0.754335 0.206161 0
M  V30 571 H 55.2786 1.94435 -0.101613 0
M  V30 572 H 53.4496 3.32576 2.00618 0
M  V30 573 H 55.1816 3.55972 1.92525 0
M  V30 574 H 51.9366 4.72782 0.278255 0
M  V30 575 H 52.3606 6.58516 -1.57117 0
M  V30 576 H 57.0026 4.22625 0.121694 0
M  V30 577 H 54.7206 7.57652 -2.81049 0
M  V30 578 H 58.3066 5.63826 -1.43496 0
M  V30 579 H 57.1866 7.29355 -2.88116 0
M  V30 580 N 54.6897 -0.239769 1.55765 0
M  V30 581 C 55.9177 -0.98417 1.81994 0
M  V30 582 C 56.3327 -1.7867 0.610124 0
M  V30 583 O 55.6897 -1.77571 -0.421271 0
M  V30 584 C 55.7407 -1.91635 3.06526 0
M  V30 585 O 55.4617 -1.14629 4.22838 0
M  V30 586 C 56.9627 -2.77616 3.45607 0
M  V30 587 H 54.1827 -0.28928 0.605441 0
M  V30 588 H 56.7267 -0.260499 2.02834 0
M  V30 589 H 54.8817 -2.5942 2.87715 0
M  V30 590 H 55.2957 -1.77745 4.93464 0
M  V30 591 H 56.7697 -3.38759 4.35828 0
M  V30 592 H 57.2467 -3.4909 2.6652 0
M  V30 593 H 57.8527 -2.15271 3.66795 0
M  V30 594 N 56.1678 -1.49265 -0.50573 0
M  V30 595 C 57.4448 -1.49012 -1.26707 0
M  V30 596 C 57.8248 -0.215205 -2.1 0
M  V30 597 O 57.1728 0.802547 -2.13943 0
M  V30 598 C 57.3828 -2.7663 -2.12783 0
M  V30 599 C 58.7308 -3.25932 -2.72127 0
M  V30 600 O 59.7548 -2.77715 -2.23054 0
M  V30 601 O 58.6138 -4.09897 -3.61451 0
M  V30 602 H 55.7078 -0.596197 -0.57313 0
M  V30 603 H 58.2538 -1.61524 -0.52039 0
M  V30 604 H 57.0258 -3.60916 -1.5118 0
M  V30 605 H 56.6488 -2.66956 -2.94653 0
M  V30 606 N 57.6459 0.756429 -1.3826 0
M  V30 607 C 58.8939 1.51248 -1.34047 0
M  V30 608 C 59.2149 1.94875 0.0698372 0
M  V30 609 O 58.4849 1.67436 1.01696 0
M  V30 610 H 57.0649 0.561018 -0.493222 0
M  V30 611 H 59.7269 0.899347 -1.7291 0
M  V30 612 H 58.8229 2.40472 -1.98947 0
M  V30 613 N 59.124 1.23083 0.984299 0
M  V30 614 C 60.372 1.05848 1.72165 0
M  V30 615 C 60.693 -0.406049 1.90726 0
M  V30 616 O 59.963 -1.29139 1.47309 0
M  V30 617 H 58.543 0.388685 0.637913 0
M  V30 618 H 61.205 1.54736 1.18503 0
M  V30 619 H 60.301 1.54327 2.71274 0
M  V30 620 N 60.6021 -1.18246 1.0419 0
M  V30 621 C 61.8501 -1.87886 0.744543 0
M  V30 622 C 62.1711 -1.8082 -0.730006 0
M  V30 623 O 61.4411 -1.22736 -1.52685 0
M  V30 624 H 60.0211 -0.695556 0.272417 0
M  V30 625 H 62.6831 -1.43494 1.31892 0
M  V30 626 H 61.7791 -2.9389 1.05049 0
M  V30 627 N 62.0802 -0.821533 -1.34494 0
M  V30 628 C 63.3292 -0.405355 -1.97585 0
M  V30 629 C 63.6422 1.03677 -1.65863 0
M  V30 630 O 64.8482 1.55679 -2.22433 0
M  V30 631 C 63.3042 -0.673861 -3.53535 0
M  V30 632 C 62.9122 -2.12951 -3.94152 0
M  V30 633 C 64.6562 -0.32378 -4.23263 0
M  V30 634 C 62.5632 -2.34298 -5.43009 0
M  V30 635 H 61.4932 -0.147836 -0.739365 0
M  V30 636 H 64.1442 -1.00769 -1.53355 0
M  V30 637 H 62.5262 -0.00137554 -3.96 0
M  V30 638 H 63.7002 -2.84104 -3.62797 0
M  V30 639 H 62.0152 -2.44089 -3.37356 0
M  V30 640 H 64.6122 -0.461126 -5.32708 0
M  V30 641 H 64.9552 0.731586 -4.09821 0
M  V30 642 H 65.4882 -0.950786 -3.8627 0
M  V30 643 H 62.2272 -3.38335 -5.61435 0
M  V30 644 H 61.7472 -1.67687 -5.75883 0
M  V30 645 H 63.4262 -2.16588 -6.09671 0
M  V30 646 N 63.5583 1.46682 -0.576371 0
M  V30 647 C 64.8043 2.02712 -0.0596221 0
M  V30 648 C 65.1373 1.44765 1.29448 0
M  V30 649 O 64.4123 0.610355 1.84675 0
M  V30 650 C 64.6953 3.60098 0.0129503 0
M  V30 651 C 64.5483 4.28441 -1.3696 0
M  V30 652 C 65.8673 4.34224 0.71678 0
M  V30 653 H 62.9863 0.736637 -0.0231407 0
M  V30 654 H 65.6283 1.74898 -0.742351 0
M  V30 655 H 63.7783 3.83926 0.594378 0
M  V30 656 H 65.4503 4.15896 -1.9957 0
M  V30 657 H 63.6933 3.8805 -1.93907 0
M  V30 658 H 64.3643 5.3716 -1.27135 0
M  V30 659 H 66.8403 4.15503 0.222908 0
M  V30 660 H 65.7163 5.43936 0.73657 0
M  V30 661 H 65.9773 4.04823 1.77682 0
M  V30 662 N 65.0364 0.313813 1.54444 0
M  V30 663 C 65.9844 -0.572171 2.25453 0
M  V30 664 C 66.9784 -1.12657 1.2651 0
M  V30 665 O 68.1844 -1.07573 1.44319 0
M  V30 666 H 64.5594 -0.203146 0.724041 0
M  V30 667 H 66.5304 0.0491145 2.9836 0
M  V30 668 C 65.2794 -1.72626 3.0182 0
M  V30 669 H 64.6024 -1.30891 3.77767 0
M  V30 670 H 66.0424 -2.32199 3.54767 0
M  V30 671 C 64.5014 -2.63806 2.09542 0
M  V30 672 O 65.0314 -3.65256 1.67185 0
M  V30 673 N 63.2374 -2.31824 1.75232 0
M  V30 674 H 62.7844 -1.49368 2.09873 0
M  V30 675 H 62.7424 -2.93095 1.13767 0
M  V30 676 N 66.5145 -1.57545 0.0417849 0
M  V30 677 C 67.4775 -2.09885 -0.92093 0
M  V30 678 C 68.4775 -1.01648 -1.24596 0
M  V30 679 O 69.6675 -1.27759 -1.1842 0
M  V30 680 C 66.7995 -2.57527 -2.23367 0
M  V30 681 H 67.9925 -2.96236 -0.467382 0
M  V30 682 H 65.5455 -1.5493 -0.206467 0
M  V30 683 H 66.2805 -1.74542 -2.73323 0
M  V30 684 H 66.0655 -3.36613 -2.01083 0
M  V30 685 H 67.5555 -2.98201 -2.92346 0
M  V30 686 N 67.9926 0.231505 -1.5589 0
M  V30 687 C 69.2386 0.95877 -1.78705 0
M  V30 688 C 69.5716 1.8438 -0.609725 0
M  V30 689 O 68.8466 1.90521 0.391426 0
M  V30 690 C 69.1296 1.8062 -3.11526 0
M  V30 691 C 68.9826 0.948328 -4.39689 0
M  V30 692 C 70.3016 2.78585 -3.40703 0
M  V30 693 H 67.4206 0.347129 -0.650131 0
M  V30 694 H 70.0626 0.228259 -1.88624 0
M  V30 695 H 68.2126 2.42902 -3.03201 0
M  V30 696 H 69.8846 0.343016 -4.60023 0
M  V30 697 H 68.1276 0.253314 -4.3306 0
M  V30 698 H 68.7986 1.57543 -5.29041 0
M  V30 699 H 71.2746 2.26439 -3.49091 0
M  V30 700 H 70.1506 3.34988 -4.34826 0
M  V30 701 H 70.4116 3.55825 -2.62375 0
M  V30 702 N 69.4707 1.49531 0.497807 0
M  V30 703 C 70.4187 1.66926 1.61983 0
M  V30 704 C 71.4127 0.535167 1.60724 0
M  V30 705 O 72.6187 0.714896 1.65195 0
M  V30 706 H 68.9937 0.526415 0.537021 0
M  V30 707 H 70.9647 2.61098 1.44465 0
M  V30 708 C 69.7137 1.75602 3.00099 0
M  V30 709 H 69.0367 2.62244 3.01775 0
M  V30 710 H 70.4767 1.91807 3.78135 0
M  V30 711 C 68.9357 0.501543 3.33146 0
M  V30 712 O 69.4657 -0.371342 3.9998 0
M  V30 713 N 67.6717 0.363531 2.88317 0
M  V30 714 H 67.2187 1.07485 2.34104 0
M  V30 715 H 67.1767 -0.474728 3.10795 0
M  V30 716 N 70.9488 -0.749086 1.3866 0
M  V30 717 C 72.1968 -1.50535 1.34847 0
M  V30 718 C 72.5178 -1.94909 -0.0595016 0
M  V30 719 O 71.7878 -1.67973 -1.00806 0
M  V30 720 H 70.3678 -0.558395 0.49619 0
M  V30 721 H 73.0298 -0.890165 1.73384 0
M  V30 722 H 72.1258 -2.39413 2.00219 0
M  V30 723 N 72.4269 -1.23603 -0.977757 0
M  V30 724 C 73.6519 -1.09735 -1.75991 0
M  V30 725 C 74.0769 0.346858 -1.84874 0
M  V30 726 O 73.4349 1.25093 -1.3123 0
M  V30 727 C 73.4829 -1.73051 -3.16363 0
M  V30 728 O 72.5869 -0.994452 -4.0023 0
M  V30 729 H 71.9279 -0.384476 -0.541364 0
M  V30 730 H 74.4579 -1.6371 -1.2272 0
M  V30 731 H 74.4679 -1.78398 -3.66931 0
M  V30 732 H 73.1429 -2.78137 -3.09213 0
M  V30 733 H 71.7199 -1.01812 -3.58732 0
M  V30 734 N 73.905 1.17692 -1.04816 0
M  V30 735 C 75.153 1.87488 -0.754497 0
M  V30 736 C 75.474 1.81205 0.720407 0
M  V30 737 O 74.744 1.23544 1.52032 0
M  V30 738 H 73.324 0.694101 -0.276102 0
M  V30 739 H 75.986 1.42793 -1.32651 0
M  V30 740 H 75.082 2.93328 -1.06606 0
M  V30 741 N 75.3831 0.828654 1.34056 0
M  V30 742 C 76.6311 0.41863 1.97717 0
M  V30 743 C 76.9521 -1.02314 1.66002 0
M  V30 744 O 76.2221 -1.71119 0.953683 0
M  V30 745 H 74.8021 0.151809 0.731412 0
M  V30 746 H 77.4641 1.05936 1.63596 0
M  V30 747 H 76.5601 0.542318 3.07352 0
M  V30 748 N 76.8612 -1.46375 0.584142 0
M  V30 749 C 77.8092 -2.32042 -0.161047 0
M  V30 750 C 78.8032 -1.44569 -0.882966 0
M  V30 751 O 80.0092 -1.61186 -0.801191 0
M  V30 752 H 76.3842 -0.748659 -0.0708033 0
M  V30 753 H 78.3552 -2.92704 0.580269 0
M  V30 754 C 77.1042 -3.27762 -1.1605 0
M  V30 755 H 76.4272 -3.95051 -0.614419 0
M  V30 756 H 77.8672 -3.90481 -1.65228 0
M  V30 757 C 76.3262 -2.53218 -2.22221 0
M  V30 758 O 76.8562 -2.29628 -3.29597 0
M  V30 759 N 75.0622 -2.13756 -1.96868 0
M  V30 760 H 74.6092 -2.33142 -1.09557 0
M  V30 761 H 74.5672 -1.642 -2.68115 0
M  V30 762 N 78.3393 -0.321999 -1.54275 0
M  V30 763 C 79.5693 0.282642 -2.04658 0
M  V30 764 C 79.9773 1.46453 -1.19784 0
M  V30 765 O 79.3203 1.82367 -0.220932 0
M  V30 766 C 79.3823 0.781857 -3.50895 0
M  V30 767 C 79.0463 -0.277517 -4.56157 0
M  V30 768 C 80.0433 -1.11307 -5.07845 0
M  V30 769 C 77.7283 -0.425256 -5.00497 0
M  V30 770 C 79.7223 -2.08211 -6.02434 0
M  V30 771 C 77.4093 -1.39771 -5.94901 0
M  V30 772 C 78.4073 -2.2246 -6.45756 0
M  V30 773 O 78.0953 -3.18054 -7.38307 0
M  V30 774 H 77.8273 0.0622636 -0.673126 0
M  V30 775 H 80.3813 -0.465792 -2.00049 0
M  V30 776 H 78.6113 1.58118 -3.52896 0
M  V30 777 H 80.3003 1.30467 -3.84361 0
M  V30 778 H 81.0663 -1.00991 -4.74369 0
M  V30 779 H 76.9453 0.20847 -4.60528 0
M  V30 780 H 80.4893 -2.72791 -6.42052 0
M  V30 781 H 76.3863 -1.50152 -6.27794 0
M  V30 782 H 77.1543 -3.13275 -7.56175 0
M  V30 783 N 79.8174 1.5752 -0.0501392 0
M  V30 784 C 81.0424 1.97376 0.636997 0
M  V30 785 C 81.4674 0.927466 1.63645 0
M  V30 786 O 80.8254 -0.10941 1.8097 0
M  V30 787 C 80.8734 3.36304 1.30123 0
M  V30 788 O 79.9774 3.34156 2.41689 0
M  V30 789 H 79.3184 0.642998 0.165679 0
M  V30 790 H 81.8484 2.04258 -0.118233 0
M  V30 791 H 81.8584 3.73008 1.65315 0
M  V30 792 H 80.5334 4.11993 0.568746 0
M  V30 793 H 79.1104 3.09196 2.08451 0
M  V30 794 N 81.2955 -0.223234 1.56011 0
M  V30 795 C 82.5415 -0.949279 1.79211 0
M  V30 796 C 82.8745 -1.84054 0.619494 0
M  V30 797 O 82.1495 -1.90726 -0.381317 0
M  V30 798 C 82.4325 -1.78965 3.12479 0
M  V30 799 C 82.2855 -0.924997 4.40186 0
M  V30 800 C 83.6045 -2.76774 3.42175 0
M  V30 801 H 80.7235 -0.343676 0.651963 0
M  V30 802 H 83.3655 -0.218253 1.88742 0
M  V30 803 H 81.5155 -2.41291 3.04485 0
M  V30 804 H 83.1875 -0.318615 4.60198 0
M  V30 805 H 81.4305 -0.230344 4.33188 0
M  V30 806 H 82.1015 -1.54735 5.29869 0
M  V30 807 H 84.5775 -2.24584 3.50287 0
M  V30 808 H 83.4535 -3.32678 4.36597 0
M  V30 809 H 83.7145 -3.54429 2.64258 0
M  V30 810 N 82.7736 -1.49793 -0.48987 0
M  V30 811 C 83.7216 -1.67783 -1.61095 0
M  V30 812 C 84.7156 -0.543683 -1.60438 0
M  V30 813 O 85.9216 -0.723647 -1.64813 0
M  V30 814 H 82.2966 -0.529255 -0.534222 0
M  V30 815 H 84.2676 -2.61861 -1.43078 0
M  V30 816 C 83.0166 -1.77191 -2.99164 0
M  V30 817 H 82.3396 -2.63841 -3.0038 0
M  V30 818 H 83.7796 -1.93809 -3.77113 0
M  V30 819 C 82.2386 -0.519203 -3.32875 0
M  V30 820 O 82.7686 0.350124 -4.00171 0
M  V30 821 N 80.9746 -0.378816 -2.8812 0
M  V30 822 H 80.5216 -1.08725 -2.33531 0
M  V30 823 H 80.4796 0.458239 -3.11043 0
M  V30 824 N 84.2517 0.741722 -1.39055 0
M  V30 825 C 85.4977 1.50234 -1.37118 0
M  V30 826 C 85.8527 1.92368 0.0350439 0
M  V30 827 O 85.1457 1.63422 1.00019 0
M  V30 828 C 85.3397 2.7592 -2.27163 0
M  V30 829 C 85.1687 2.46074 -3.76401 0
M  V30 830 C 83.9387 2.38704 -4.45364 0
M  V30 831 C 86.1367 2.12062 -4.68545 0
M  V30 832 N 84.1187 2.01258 -5.79973 0
M  V30 833 C 85.4897 1.85005 -5.91754 0
M  V30 834 C 87.5447 1.98473 -4.56632 0
M  V30 835 C 86.2477 1.4573 -7.04383 0
M  V30 836 C 88.2737 1.60599 -5.69176 0
M  V30 837 C 87.6357 1.34423 -6.91455 0
M  V30 838 H 83.7347 0.548858 -0.557027 0
M  V30 839 H 86.3187 0.862642 -1.74547 0
M  V30 840 H 84.4897 3.3768 -1.91904 0
M  V30 841 H 86.2217 3.42068 -2.16267 0
M  V30 842 H 82.9767 2.55574 -3.98721 0
M  V30 843 H 83.4007 1.85147 -6.51191 0
M  V30 844 H 88.0427 2.17381 -3.62637 0
M  V30 845 H 85.7607 1.25562 -7.98286 0
M  V30 846 H 89.3467 1.507 -5.61944 0
M  V30 847 H 88.2267 1.05555 -7.77064 0
M  V30 848 N 85.7298 1.2412 0.971189 0
M  V30 849 C 86.9548 1.10667 1.75407 0
M  V30 850 C 87.3798 -0.337048 1.85056 0
M  V30 851 O 86.7378 -1.24396 1.31892 0
M  V30 852 C 86.7858 1.74726 3.15441 0
M  V30 853 O 85.8898 1.01566 3.99697 0
M  V30 854 H 85.2308 0.387341 0.539317 0
M  V30 855 H 87.7608 1.64358 1.2185 0
M  V30 856 H 87.7708 1.80341 3.6598 0
M  V30 857 H 86.4458 2.79773 3.07734 0
M  V30 858 H 85.0228 1.03713 3.58187 0
M  V30 859 N 87.2079 -1.17134 1.05439 0
M  V30 860 C 88.1559 -2.23289 0.651511 0
M  V30 861 C 89.1499 -1.66186 -0.328411 0
M  V30 862 O 90.3559 -1.78949 -0.194206 0
M  V30 863 H 86.7309 -0.726938 0.192523 0
M  V30 864 H 88.7019 -2.54565 1.55689 0
M  V30 865 C 87.4509 -3.47671 0.0448436 0
M  V30 866 H 86.7739 -3.91918 0.78996 0
M  V30 867 H 88.2139 -4.2353 -0.19964 0
M  V30 868 C 86.6729 -3.14453 -1.20918 0
M  V30 869 O 87.2029 -3.29459 -2.29825 0
M  V30 870 N 85.4089 -2.68657 -1.10779 0
M  V30 871 H 84.9559 -2.56646 -0.221526 0
M  V30 872 H 84.9139 -2.46804 -1.9477 0
M  V30 873 N 88.686 -0.835752 -1.33615 0
M  V30 874 C 89.914 -0.443344 -2.02094 0
M  V30 875 C 90.329 0.954522 -1.62894 0
M  V30 876 O 89.686 1.61982 -0.840723 0
M  V30 877 C 89.737 -0.550775 -3.5728 0
M  V30 878 O 89.458 -1.89356 -3.95065 0
M  V30 879 C 90.959 -0.154919 -4.43029 0
M  V30 880 H 88.179 -0.176359 -0.647409 0
M  V30 881 H 90.723 -1.12746 -1.70612 0
M  V30 882 H 88.878 0.0853997 -3.87306 0
M  V30 883 H 89.292 -1.87687 -4.89769 0
M  V30 884 H 90.766 -0.281144 -5.51284 0
M  V30 885 H 91.243 0.902863 -4.2982 0
M  V30 886 H 91.849 -0.765404 -4.18356 0
M  V30 887 N 90.1641 1.46063 -0.591896 0
M  V30 888 C 91.4121 2.01938 -0.0808391 0
M  V30 889 C 91.7331 1.46475 1.28725 0
M  V30 890 O 91.0031 0.652944 1.84698 0
M  V30 891 H 89.5831 0.746516 -0.0268938 0
M  V30 892 H 92.2451 1.79055 -0.769752 0
M  V30 893 H 91.3411 3.12094 -0.0187578 0
M  V30 894 N 91.6422 0.330177 1.54103 0
M  V30 895 C 92.5902 -0.548226 2.26047 0
M  V30 896 C 93.5842 -1.11309 1.27698 0
M  V30 897 O 94.7902 -1.06036 1.45452 0
M  V30 898 H 91.1652 -0.195456 0.726155 0
M  V30 899 H 93.1362 0.0807567 2.98291 0
M  V30 900 C 91.8852 -1.69415 3.03634 0
M  V30 901 H 91.2082 -1.26876 3.79134 0
M  V30 902 H 92.6482 -2.28423 3.5721 0
M  V30 903 C 91.1072 -2.61569 2.12328 0
M  V30 904 O 91.6372 -3.63462 1.7105 0
M  V30 905 N 89.8432 -2.29952 1.77681 0
M  V30 906 H 89.3902 -1.47134 2.11446 0
M  V30 907 H 89.3482 -2.91871 1.16869 0
M  V30 908 N 93.1203 -1.57491 0.0584922 0
M  V30 909 C 94.3673 -1.92978 -0.613648 0
M  V30 910 C 94.6953 -0.937461 -1.70417 0
M  V30 911 O 93.9503 0.049078 -1.95638 0
M  V30 912 C 94.2493 -3.3513 -1.24188 0
M  V30 913 C 93.9153 -4.50037 -0.278826 0
M  V30 914 C 92.5773 -4.81198 -0.0138447 0
M  V30 915 C 94.9293 -5.19807 0.380777 0
M  V30 916 C 92.2573 -5.79473 0.918052 0
M  V30 917 C 94.6093 -6.19079 1.30091 0
M  V30 918 C 93.2733 -6.48665 1.57449 0
M  V30 919 H 92.5433 -0.706157 -0.22455 0
M  V30 920 H 95.1903 -1.91082 0.126533 0
M  V30 921 H 93.4953 -3.33429 -2.05749 0
M  V30 922 H 95.1923 -3.59871 -1.769 0
M  V30 923 H 91.7823 -4.25726 -0.495539 0
M  V30 924 H 95.9663 -4.95939 0.189158 0
M  V30 925 H 91.2223 -6.00727 1.1374 0
M  V30 926 H 95.3963 -6.7225 1.81804 0
M  V30 927 H 93.0233 -7.24628 2.29822 0
M  V30 928 N 94.5984 0.214957 -1.56127 0
M  V30 929 C 95.8444 0.939762 -1.79712 0
M  V30 930 C 96.1774 1.83723 -0.629247 0
M  V30 931 O 95.4524 1.90925 0.371197 0
M  V30 932 C 95.7354 1.77306 -3.13424 0
M  V30 933 C 95.5884 0.90164 -4.40671 0
M  V30 934 C 96.9074 2.74956 -3.43638 0
M  V30 935 H 94.0264 0.340214 -0.653776 0
M  V30 936 H 96.6684 0.20824 -1.88855 0
M  V30 937 H 94.8184 2.39673 -3.0576 0
M  V30 938 H 96.4904 0.294206 -4.60361 0
M  V30 939 H 94.7334 0.207368 -4.33304 0
M  V30 940 H 95.4044 1.51923 -5.30682 0
M  V30 941 H 97.8804 2.22724 -3.51473 0
M  V30 942 H 96.7564 3.30358 -4.38355 0
M  V30 943 H 97.0174 3.53023 -2.66134 0
M  V30 944 N 96.0765 1.50051 0.48192 0
M  V30 945 C 97.3225 1.60736 1.2366 0
M  V30 946 C 97.6555 0.301786 1.91841 0
M  V30 947 O 96.9305 -0.696025 1.8162 0
M  V30 948 C 97.2135 2.78009 2.28874 0
M  V30 949 C 97.0665 4.18416 1.65069 0
M  V30 950 C 98.3855 2.90867 3.30279 0
M  V30 951 H 95.5045 0.585031 0.448228 0
M  V30 952 H 98.1465 1.82402 0.531946 0
M  V30 953 H 96.2965 2.59667 2.88973 0
M  V30 954 H 97.9685 4.48322 1.0865 0
M  V30 955 H 96.2115 4.23177 0.954148 0
M  V30 956 H 96.8825 4.96381 2.41474 0
M  V30 957 H 99.3585 3.07623 2.80191 0
M  V30 958 H 98.2345 3.74566 4.01238 0
M  V30 959 H 98.4955 2.01021 3.93755 0
M  V30 960 N 97.5546 -0.734337 1.39446 0
M  V30 961 C 98.8026 -1.49096 1.36436 0
M  V30 962 C 99.1236 -1.94961 -0.0388255 0
M  V30 963 O 98.3936 -1.69033 -0.990191 0
M  V30 964 H 96.9736 -0.5531 0.502085 0
M  V30 965 H 99.6356 -0.871725 1.74319 0
M  V30 966 H 98.7316 -2.37276 2.02747 0
M  V30 967 N 99.0327 -1.24633 -0.964593 0
M  V30 968 C 99.9797 -1.04144 -2.05968 0
M  V30 969 C 100.95 0.046262 -1.66036 0
M  V30 970 O 102.135 -0.108972 -1.90489 0
M  V30 971 C 99.2747 -0.65563 -3.38815 0
M  V30 972 C 98.3877 -1.81714 -3.91923 0
M  V30 973 C 97.5227 -1.37662 -5.13052 0
M  V30 974 C 96.5617 -2.50788 -5.58365 0
M  V30 975 N 95.6987 -2.07582 -6.70712 0
M  V30 976 H 100.539 -1.9787 -2.22827 0
M  V30 977 H 98.0757 -0.9855 -1.09208 0
M  V30 978 H 100.034 -0.412954 -4.15151 0
M  V30 979 H 98.6637 0.244627 -3.21872 0
M  V30 980 H 97.7157 -2.1734 -3.12198 0
M  V30 981 H 99.0277 -2.66705 -4.21509 0
M  V30 982 H 98.1817 -1.093 -5.96773 0
M  V30 983 H 96.9207 -0.497293 -4.85158 0
M  V30 984 H 95.9257 -2.79906 -4.73215 0
M  V30 985 H 97.1507 -3.39283 -5.88272 0
M  V30 986 H 95.0967 -1.22051 -6.44546 0
M  V30 987 H 95.0137 -2.86125 -6.99763 0
M  V30 988 H 96.2817 -1.82369 -7.57867 0
M  V30 989 N 100.511 1.16574 -1.06058 0
M  V30 990 C 101.759 1.86677 -0.77434 0
M  V30 991 C 102.08 1.81959 0.701147 0
M  V30 992 O 101.35 1.2515 1.50713 0
M  V30 993 H 99.9298 0.691134 -0.283449 0
M  V30 994 H 102.592 1.41378 -1.34158 0
M  V30 995 H 101.688 2.92181 -1.09711 0
M  V30 996 N 101.989 0.842826 1.3317 0
M  V30 997 C 103.235 0.450342 1.98352 0
M  V30 998 C 103.59 -0.980508 1.65541 0
M  V30 999 O 102.883 -1.67678 0.927065 0
M  V30 1000 C 103.077 0.612607 3.52111 0
M  V30 1001 C 102.906 2.05768 3.99862 0
M  V30 1002 C 101.676 2.69374 4.27511 0
M  V30 1003 C 103.874 3.02688 4.15794 0
M  V30 1004 N 101.856 4.04915 4.61429 0
M  V30 1005 C 103.227 4.23186 4.53115 0
M  V30 1006 C 105.282 2.99041 3.98094 0
M  V30 1007 C 103.985 5.40518 4.74587 0
M  V30 1008 C 106.011 4.15607 4.20743 0
M  V30 1009 C 105.373 5.3486 4.58371 0
M  V30 1010 H 101.472 0.213296 0.752349 0
M  V30 1011 H 104.056 1.09173 1.61212 0
M  V30 1012 H 102.227 0.000998822 3.884 0
M  V30 1013 H 103.959 0.191179 4.04248 0
M  V30 1014 H 100.714 2.20485 4.19146 0
M  V30 1015 H 101.138 4.74798 4.82593 0
M  V30 1016 H 105.78 2.0797 3.68114 0
M  V30 1017 H 103.498 6.3213 5.03425 0
M  V30 1018 H 107.084 4.14207 4.08563 0
M  V30 1019 H 105.964 6.23558 4.75547 0
M  V30 1020 N 103.467 -1.45747 0.599634 0
M  V30 1021 C 104.695 -2.06668 0.0978551 0
M  V30 1022 C 105.11 -1.44562 -1.21439 0
M  V30 1023 O 104.467 -0.556923 -1.73795 0
M  V30 1024 C 104.518 -3.61456 -0.0567044 0
M  V30 1025 O 104.239 -4.21242 1.20361 0
M  V30 1026 C 105.74 -4.39345 -0.590869 0
M  V30 1027 H 102.96 -0.667825 0.0651943 0
M  V30 1028 H 105.504 -1.87115 0.82511 0
M  V30 1029 H 103.659 -3.80378 -0.734251 0
M  V30 1030 H 104.073 -5.14323 1.02821 0
M  V30 1031 H 105.547 -5.48182 -0.648131 0
M  V30 1032 H 106.024 -4.08568 -1.61147 0
M  V30 1033 H 106.63 -4.25268 0.0523679 0
M  V30 1034 N 104.945 -0.338344 -1.53925 0
M  V30 1035 C 106.173 0.261298 -2.05243 0
M  V30 1036 C 106.588 1.44625 -1.21363 0
M  V30 1037 O 105.945 1.80811 -0.247736 0
M  V30 1038 C 105.996 0.681412 -3.5502 0
M  V30 1039 O 105.717 -0.456414 -4.35716 0
M  V30 1040 C 107.218 1.34232 -4.22489 0
M  V30 1041 H 104.438 0.0513685 -0.669031 0
M  V30 1042 H 106.982 -0.488822 -1.98572 0
M  V30 1043 H 105.137 1.38148 -3.61931 0
M  V30 1044 H 105.551 -0.122564 -5.24357 0
M  V30 1045 H 107.025 1.58708 -5.28693 0
M  V30 1046 H 107.502 2.29426 -3.74514 0
M  V30 1047 H 108.108 0.684424 -4.19757 0
M  V30 1048 N 106.423 1.57458 -0.0668435 0
M  V30 1049 C 107.671 1.92919 0.602214 0
M  V30 1050 C 107.992 0.947215 1.70449 0
M  V30 1051 O 107.262 -0.00544117 1.95899 0
M  V30 1052 H 105.842 0.71217 0.22544 0
M  V30 1053 H 108.504 1.94508 -0.123535 0
M  V30 1054 H 107.6 2.94589 1.03073 0
M  V30 1055 N 107.901 -0.206675 1.56239 0
M  V30 1056 C 109.126 -0.949474 1.8439 0
M  V30 1057 C 109.551 -1.76549 0.649016 0
M  V30 1058 O 108.909 -1.76782 -0.402231 0
M  V30 1059 C 108.957 -1.83078 3.10668 0
M  V30 1060 O 108.061 -2.9281 2.90407 0
M  V30 1061 H 107.402 -0.268033 0.607499 0
M  V30 1062 H 109.932 -0.215488 2.03462 0
M  V30 1063 H 109.942 -2.2377 3.41161 0
M  V30 1064 H 108.617 -1.23112 3.97261 0
M  V30 1065 H 107.194 -2.55956 2.71184 0
M  V30 1066 N 109.379 -1.50304 -0.473955 0
M  V30 1067 C 110.79 -1.54042 -1.0549 0
M  V30 1068 C 111.141 -0.342248 -1.93192 0
M  V30 1069 O 110.266 0.545157 -2.09421 0
M  V30 1070 C 110.861 -2.79152 -1.91989 0
M  V30 1071 C 109.42 -2.8558 -2.45196 0
M  V30 1072 C 108.567 -2.48295 -1.2347 0
M  V30 1073 H 111.518 -1.5661 -0.256693 0
M  V30 1074 H 111.539 -2.60845 -2.7702 0
M  V30 1075 H 111.051 -3.66339 -1.28131 0
M  V30 1076 H 109.152 -2.02738 -3.12615 0
M  V30 1077 H 109.265 -3.88403 -2.80499 0
M  V30 1078 H 107.629 -2.00669 -1.56856 0
M  V30 1079 H 108.412 -3.37787 -0.612789 0
M  V30 1080 N 110.857 0.726932 -1.39834 0
M  V30 1081 C 112.104 1.48664 -1.37496 0
M  V30 1082 C 112.432 1.94482 0.0264678 0
M  V30 1083 O 111.687 1.67692 1.00886 0
M  V30 1084 C 111.986 2.73495 -2.30077 0
M  V30 1085 C 111.652 2.46502 -3.77555 0
M  V30 1086 C 110.314 2.3885 -4.17737 0
M  V30 1087 C 112.666 2.23604 -4.70798 0
M  V30 1088 C 109.994 2.06352 -5.49214 0
M  V30 1089 C 112.346 1.92622 -6.02561 0
M  V30 1090 C 111.01 1.83444 -6.41798 0
M  V30 1091 H 110.28 0.544001 -0.503135 0
M  V30 1092 H 112.927 0.833657 -1.72402 0
M  V30 1093 H 111.232 3.43575 -1.88317 0
M  V30 1094 H 112.929 3.31549 -2.25558 0
M  V30 1095 H 109.519 2.5334 -3.45712 0
M  V30 1096 H 113.703 2.28479 -4.40581 0
M  V30 1097 H 108.959 1.97776 -5.78528 0
M  V30 1098 H 113.133 1.73914 -6.74334 0
M  V30 1099 H 110.76 1.58029 -7.43593 0
M  V30 1100 N 112.336 1.25143 0.95797 0
M  V30 1101 C 113.752 1.01892 1.22842 0
M  V30 1102 C 113.952 -0.266311 1.99732 0
M  V30 1103 O 113.008 -0.979913 2.3271 0
M  V30 1104 C 114.321 2.24004 2.00606 0
M  V30 1105 C 115.869 2.28731 2.13662 0
M  V30 1106 C 116.344 3.5049 2.94823 0
M  V30 1107 N 117.835 3.50866 3.02403 0
M  V30 1108 C 118.57 4.4174 3.65586 0
M  V30 1109 N 118.066 5.42882 4.30408 0
M  V30 1110 N 119.859 4.29429 3.62694 0
M  V30 1111 H 112.01 2.07718 0.443493 0
M  V30 1112 H 114.273 0.912031 0.258657 0
M  V30 1113 H 113.979 3.17395 1.51503 0
M  V30 1114 H 113.853 2.26907 3.01319 0
M  V30 1115 H 116.24 1.35865 2.61963 0
M  V30 1116 H 116.321 2.29848 1.12265 0
M  V30 1117 H 115.965 4.43676 2.47213 0
M  V30 1118 H 115.895 3.46617 3.96439 0
M  V30 1119 H 118.386 2.777 2.56302 0
M  V30 1120 H 118.699 6.0844 4.76467 0
M  V30 1121 H 117.044 5.46758 4.29047 0
M  V30 1122 H 120.235 3.49643 3.11236 0
M  V30 1123 H 120.408 5.00448 4.1165 0
M  V30 1124 N 113.814 -1.1601 1.06675 0
M  V30 1125 C 115.042 -1.90527 0.806667 0
M  V30 1126 C 115.457 -1.77643 -0.639396 0
M  V30 1127 O 114.814 -1.12369 -1.43803 0
M  V30 1128 C 114.865 -3.41106 1.19705 0
M  V30 1129 O 114.586 -3.53608 2.58636 0
M  V30 1130 C 116.087 -4.32663 0.965266 0
M  V30 1131 H 113.307 -0.604053 0.292166 0
M  V30 1132 H 115.851 -1.47026 1.4214 0
M  V30 1133 H 114.006 -3.82296 0.626774 0
M  V30 1134 H 114.42 -4.47011 2.74375 0
M  V30 1135 H 115.894 -5.36763 1.288 0
M  V30 1136 H 116.371 -4.39089 -0.0987936 0
M  V30 1137 H 116.977 -3.97206 1.52011 0
M  V30 1138 N 115.292 -0.849877 -1.32721 0
M  V30 1139 C 116.541 -0.447175 -1.96681 0
M  V30 1140 C 116.854 1.00135 -1.68025 0
M  V30 1141 O 118.06 1.50926 -2.25685 0
M  V30 1142 C 116.516 -0.7487 -3.52026 0
M  V30 1143 C 116.124 -2.21264 -3.89546 0
M  V30 1144 C 117.868 -0.413487 -4.22481 0
M  V30 1145 C 115.775 -2.45763 -5.37917 0
M  V30 1146 H 114.705 -0.163486 -0.736063 0
M  V30 1147 H 117.356 -1.03999 -1.51183 0
M  V30 1148 H 115.738 -0.0853727 -3.95908 0
M  V30 1149 H 116.912 -2.91736 -3.56689 0
M  V30 1150 H 115.227 -2.5119 -3.32103 0
M  V30 1151 H 117.824 -0.574017 -5.3161 0
M  V30 1152 H 118.167 0.644492 -4.11281 0
M  V30 1153 H 118.7 -1.03251 -3.84167 0
M  V30 1154 H 115.439 -3.50168 -5.54132 0
M  V30 1155 H 114.959 -1.79864 -5.72197 0
M  V30 1156 H 116.638 -2.29471 -6.0494 0
M  V30 1157 N 116.77 1.45427 -0.607355 0
M  V30 1158 C 117.718 2.32269 0.12411 0
M  V30 1159 C 118.712 1.45955 0.859854 0
M  V30 1160 O 119.918 1.6244 0.775447 0
M  V30 1161 H 116.293 0.749691 0.0588839 0
M  V30 1162 H 118.264 2.91743 -0.626762 0
M  V30 1163 C 117.013 3.29567 1.1082 0
M  V30 1164 H 116.336 3.95978 0.551492 0
M  V30 1165 H 117.776 3.93061 1.58995 0
M  V30 1166 C 116.235 2.56722 2.18164 0
M  V30 1167 O 116.765 2.34842 3.25902 0
M  V30 1168 N 114.971 2.16861 1.93442 0
M  V30 1169 H 114.518 2.34855 1.05834 0
M  V30 1170 H 114.476 1.68444 2.65469 0
M  V30 1171 N 118.248 0.346503 1.53744 0
M  V30 1172 C 119.478 -0.250047 2.05081 0
M  V30 1173 C 119.886 -1.44529 1.22098 0
M  V30 1174 O 119.229 -1.81992 0.249917 0
M  V30 1175 C 119.291 -0.725934 3.52094 0
M  V30 1176 C 118.955 0.350053 4.55657 0
M  V30 1177 C 119.952 1.19372 5.0601 0
M  V30 1178 C 117.637 0.504827 4.99757 0
M  V30 1179 C 119.631 2.17768 5.99046 0
M  V30 1180 C 117.318 1.49218 5.92602 0
M  V30 1181 C 118.316 2.32706 6.42135 0
M  V30 1182 O 118.004 3.2976 7.33153 0
M  V30 1183 H 117.736 -0.0515469 0.674032 0
M  V30 1184 H 120.29 0.497559 1.99282 0
M  V30 1185 H 118.52 -1.52483 3.55367 0
M  V30 1186 H 120.209 -1.24336 3.86388 0
M  V30 1187 H 120.975 1.08525 4.72702 0
M  V30 1188 H 116.854 -0.135178 4.60802 0
M  V30 1189 H 120.398 2.82971 6.37631 0
M  V30 1190 H 116.295 1.6012 6.25325 0
M  V30 1191 H 117.063 3.25265 7.51096 0
M  V30 1192 N 119.726 -1.57421 0.075193 0
M  V30 1193 C 120.674 -2.14124 -0.908508 0
M  V30 1194 C 121.668 -1.07898 -1.30592 0
M  V30 1195 O 122.874 -1.26273 -1.28277 0
M  V30 1196 H 119.249 -0.684707 -0.310935 0
M  V30 1197 H 121.22 -2.95634 -0.405374 0
M  V30 1198 C 119.969 -2.72044 -2.16535 0
M  V30 1199 H 119.292 -3.53456 -1.86839 0
M  V30 1200 H 120.732 -3.15311 -2.83469 0
M  V30 1201 C 119.191 -1.66968 -2.92615 0
M  V30 1202 O 119.721 -1.0967 -3.86439 0
M  V30 1203 N 117.927 -1.37923 -2.55784 0
M  V30 1204 H 117.474 -1.84706 -1.79559 0
M  V30 1205 H 117.432 -0.67852 -3.06991 0
M  V30 1206 N 121.204 0.198386 -1.56346 0
M  V30 1207 C 122.167 1.22952 -1.93431 0
M  V30 1208 C 123.167 1.38611 -0.815092 0
M  V30 1209 O 124.357 1.36479 -1.08255 0
M  V30 1210 C 121.489 2.59946 -2.20546 0
M  V30 1211 H 122.682 0.912626 -2.85677 0
M  V30 1212 H 120.235 0.43977 -1.49986 0
M  V30 1213 H 120.97 2.96696 -1.30927 0
M  V30 1214 H 120.755 2.49953 -3.02102 0
M  V30 1215 H 122.245 3.3431 -2.50253 0
M  V30 1216 N 122.682 1.50554 0.465978 0
M  V30 1217 C 123.93 1.61479 1.21528 0
M  V30 1218 C 124.251 0.319596 1.92363 0
M  V30 1219 O 123.521 -0.663194 1.84333 0
M  V30 1220 H 122.101 0.595055 0.451573 0
M  V30 1221 H 124.763 1.87355 0.53704 0
M  V30 1222 H 123.859 2.42846 1.96042 0
M  V30 1223 N 124.16 -0.719506 1.40217 0
M  V30 1224 C 125.406 -1.48152 1.38488 0
M  V30 1225 C 125.739 -1.94195 -0.0141867 0
M  V30 1226 O 125.014 -1.67884 -0.982096 0
M  V30 1227 C 125.297 -2.71035 2.37091 0
M  V30 1228 C 125.15 -2.30912 3.86005 0
M  V30 1229 C 126.469 -3.73182 2.33288 0
M  V30 1230 H 123.588 -0.537395 0.504357 0
M  V30 1231 H 126.23 -0.821472 1.71324 0
M  V30 1232 H 124.38 -3.27352 2.0922 0
M  V30 1233 H 126.052 -1.80107 4.24687 0
M  V30 1234 H 124.295 -1.62958 4.02029 0
M  V30 1235 H 124.966 -3.18978 4.50508 0
M  V30 1236 H 127.442 -3.26485 2.57966 0
M  V30 1237 H 126.318 -4.56806 3.04334 0
M  V30 1238 H 126.579 -4.21202 1.34317 0
M  V30 1239 N 125.638 -1.25649 -0.95132 0
M  V30 1240 C 126.884 -1.11766 -1.69941 0
M  V30 1241 C 127.239 0.33735 -1.89419 0
M  V30 1242 O 126.532 1.24491 -1.45645 0
M  V30 1243 C 126.726 -1.80909 -3.08231 0
M  V30 1244 C 126.555 -3.32984 -3.02245 0
M  V30 1245 C 125.325 -4.02247 -3.05819 0
M  V30 1246 C 127.523 -4.29332 -2.83157 0
M  V30 1247 N 125.505 -5.41072 -2.90024 0
M  V30 1248 C 126.876 -5.55265 -2.75828 0
M  V30 1249 C 128.931 -4.19707 -2.67863 0
M  V30 1250 C 127.634 -6.72671 -2.54767 0
M  V30 1251 C 129.66 -5.36809 -2.48173 0
M  V30 1252 C 129.022 -6.61683 -2.41567 0
M  V30 1253 H 125.121 -0.463708 -0.629682 0
M  V30 1254 H 127.705 -1.58796 -1.12659 0
M  V30 1255 H 125.876 -1.36369 -3.63673 0
M  V30 1256 H 127.608 -1.59739 -3.71841 0
M  V30 1257 H 124.363 -3.53531 -3.15139 0
M  V30 1258 H 124.787 -6.13938 -2.85323 0
M  V30 1259 H 129.429 -3.23907 -2.71743 0
M  V30 1260 H 127.147 -7.68577 -2.49629 0
M  V30 1261 H 130.733 -5.31224 -2.37259 0
M  V30 1262 H 129.613 -7.50768 -2.26531 0
M  V30 1263 N 127.117 1.15442 -1.07289 0
M  V30 1264 C 128.08 2.18358 -0.696591 0
M  V30 1265 C 129.08 1.58637 0.262837 0
M  V30 1266 O 130.27 1.74145 0.0438809 0
M  V30 1267 C 127.402 3.4089 -0.0266151 0
M  V30 1268 H 128.595 2.53162 -1.60776 0
M  V30 1269 H 126.148 1.29893 -0.869342 0
M  V30 1270 H 126.883 3.11653 0.896822 0
M  V30 1271 H 126.668 3.85495 -0.716657 0
M  V30 1272 H 128.158 4.17009 0.222028 0
M  V30 1273 N 128.595 0.856903 1.32268 0
M  V30 1274 C 130.006 0.515711 1.79436 0
M  V30 1275 C 130.357 -0.966586 1.70738 0
M  V30 1276 O 129.482 -1.75409 1.26731 0
M  V30 1277 C 130.077 0.929335 3.25805 0
M  V30 1278 C 128.636 0.640006 3.70919 0
M  V30 1279 C 127.783 1.12784 2.53328 0
M  V30 1280 H 130.734 1.04389 1.19535 0
M  V30 1281 H 130.755 0.246633 3.797 0
M  V30 1282 H 130.267 2.00821 3.32103 0
M  V30 1283 H 128.368 -0.428051 3.70133 0
M  V30 1284 H 128.481 1.20788 4.63624 0
M  V30 1285 H 126.845 0.548033 2.48734 0
M  V30 1286 H 127.628 2.21387 2.62379 0
M  V30 1287 N 130.073 -1.45103 0.615059 0
M  V30 1288 C 131.021 -2.32331 -0.111791 0
M  V30 1289 C 132.015 -1.46409 -0.852102 0
M  V30 1290 O 133.221 -1.62849 -0.766821 0
M  V30 1291 H 129.596 -0.749993 -0.0549072 0
M  V30 1292 H 131.567 -2.91407 0.642225 0
M  V30 1293 C 130.316 -3.3015 -1.09071 0
M  V30 1294 H 129.639 -3.96265 -0.530485 0
M  V30 1295 H 131.079 -3.93898 -1.56908 0
M  V30 1296 C 129.538 -2.57875 -2.168 0
M  V30 1297 O 130.068 -2.36567 -3.24652 0
M  V30 1298 N 128.274 -2.17884 -1.92289 0
M  V30 1299 H 127.821 -2.35413 -1.04587 0
M  V30 1300 H 127.779 -1.6985 -2.64572 0
M  V30 1301 N 131.551 -0.354651 -1.53558 0
M  V30 1302 C 132.799 0.237972 -2.00694 0
M  V30 1303 C 133.12 1.50173 -1.24391 0
M  V30 1304 O 132.39 1.92673 -0.354135 0
M  V30 1305 H 130.97 0.0909256 -0.741446 0
M  V30 1306 H 133.632 -0.478368 -1.88938 0
M  V30 1307 H 132.728 0.47264 -3.085 0
M  V30 1308 N 133.029 1.57378 -0.0835403 0
M  V30 1309 C 133.977 2.14602 0.89714 0
M  V30 1310 C 134.971 1.08589 1.30018 0
M  V30 1311 O 136.177 1.26952 1.27606 0
M  V30 1312 H 132.552 0.686346 0.3073 0
M  V30 1313 H 134.523 2.95845 0.38969 0
M  V30 1314 C 133.272 2.73188 2.15089 0
M  V30 1315 H 132.595 3.54442 1.84962 0
M  V30 1316 H 134.035 3.1681 2.81793 0
M  V30 1317 C 132.494 1.68517 2.91725 0
M  V30 1318 O 133.024 1.11718 3.85852 0
M  V30 1319 N 131.23 1.39277 2.55049 0
M  V30 1320 H 130.777 1.85655 1.78577 0
M  V30 1321 H 130.735 0.694791 3.06627 0
M  V30 1322 N 134.507 -0.190092 1.56449 0
M  V30 1323 C 135.755 -0.907908 1.80559 0
M  V30 1324 C 136.076 -1.83583 0.657438 0
M  V30 1325 O 135.346 -1.93203 -0.323924 0
M  V30 1326 H 133.926 -0.338247 0.666032 0
M  V30 1327 H 136.588 -0.194403 1.93928 0
M  V30 1328 H 135.684 -1.49604 2.73907 0
M  V30 1329 N 135.985 -1.50799 -0.457987 0
M  V30 1330 C 137.215 -1.65977 -1.23025 0
M  V30 1331 C 137.623 -0.347918 -1.85974 0
M  V30 1332 O 136.966 0.68148 -1.70592 0
M  V30 1333 C 137.028 -2.70309 -2.3701 0
M  V30 1334 C 136.692 -4.135 -1.94594 0
M  V30 1335 C 137.689 -4.98949 -1.46101 0
M  V30 1336 C 135.374 -4.5949 -2.02915 0
M  V30 1337 C 137.368 -6.28442 -1.06489 0
M  V30 1338 C 135.055 -5.88984 -1.62914 0
M  V30 1339 C 136.053 -6.73286 -1.1478 0
M  V30 1340 O 135.741 -8.00362 -0.75339 0
M  V30 1341 H 135.473 -0.56064 -0.377702 0
M  V30 1342 H 138.027 -1.97857 -0.551537 0
M  V30 1343 H 136.257 -2.337 -3.08093 0
M  V30 1344 H 137.946 -2.74574 -2.98938 0
M  V30 1345 H 138.712 -4.6463 -1.39084 0
M  V30 1346 H 134.591 -3.94009 -2.39328 0
M  V30 1347 H 138.135 -6.94194 -0.688488 0
M  V30 1348 H 134.032 -6.22822 -1.69595 0
M  V30 1349 H 134.8 -8.13744 -0.88108 0
M  V30 1350 N 137.463 0.71206 -1.40597 0
M  V30 1351 C 138.393 1.83889 -1.43899 0
M  V30 1352 C 139.374 1.67442 -0.299504 0
M  V30 1353 O 140.559 1.87421 -0.508624 0
M  V30 1354 C 137.689 3.21877 -1.30431 0
M  V30 1355 C 136.643 3.53002 -2.42019 0
M  V30 1356 C 135.969 4.90172 -2.13626 0
M  V30 1357 C 137.269 3.53643 -3.84362 0
M  V30 1358 H 138.963 1.81383 -2.38203 0
M  V30 1359 H 136.509 0.871237 -1.14654 0
M  V30 1360 H 138.462 4.00404 -1.31357 0
M  V30 1361 H 137.186 3.24968 -0.326049 0
M  V30 1362 H 135.845 2.76818 -2.40349 0
M  V30 1363 H 135.493 4.89869 -1.14182 0
M  V30 1364 H 135.193 5.11962 -2.88389 0
M  V30 1365 H 136.717 5.71028 -2.1624 0
M  V30 1366 H 138.131 4.22203 -3.87837 0
M  V30 1367 H 136.528 3.86961 -4.58673 0
M  V30 1368 H 137.598 2.52954 -4.13693 0
M  V30 1369 N 138.941 1.26152 0.944643 0
M  V30 1370 C 140.169 1.14259 1.72489 0
M  V30 1371 C 140.584 -0.302555 1.8636 0
M  V30 1372 O 139.941 -1.20741 1.36849 0
M  V30 1373 C 139.992 1.80266 3.13347 0
M  V30 1374 O 139.713 3.19133 3.00143 0
M  V30 1375 C 141.214 1.74283 4.07603 0
M  V30 1376 H 138.434 0.398051 0.540181 0
M  V30 1377 H 140.978 1.66706 1.18446 0
M  V30 1378 H 139.133 1.31766 3.64303 0
M  V30 1379 H 139.547 3.51744 3.89071 0
M  V30 1380 H 141.021 2.25111 5.04013 0
M  V30 1381 H 141.498 0.708631 4.33446 0
M  V30 1382 H 142.104 2.22319 3.62567 0
M  V30 1383 N 140.419 -1.14872 1.07899 0
M  V30 1384 C 141.349 -2.2193 0.725887 0
M  V30 1385 C 142.33 -1.67622 -0.28927 0
M  V30 1386 O 143.515 -1.93533 -0.160787 0
M  V30 1387 C 140.645 -3.47061 0.128856 0
M  V30 1388 C 139.599 -4.14363 1.07178 0
M  V30 1389 C 138.925 -5.33636 0.337229 0
M  V30 1390 C 140.225 -4.63492 2.40775 0
M  V30 1391 H 141.919 -2.51724 1.62097 0
M  V30 1392 H 139.465 -1.20991 0.780838 0
M  V30 1393 H 141.418 -4.21199 -0.130147 0
M  V30 1394 H 140.142 -3.16617 -0.80134 0
M  V30 1395 H 138.801 -3.42173 1.3158 0
M  V30 1396 H 138.449 -4.99449 -0.596606 0
M  V30 1397 H 138.149 -5.79609 0.965788 0
M  V30 1398 H 139.673 -6.10539 0.0861567 0
M  V30 1399 H 141.087 -5.2913 2.20669 0
M  V30 1400 H 139.484 -5.20148 2.99276 0
M  V30 1401 H 140.554 -3.78834 3.02676 0
M  V30 1402 N 141.898 -0.863906 -1.31812 0
M  V30 1403 C 143.128 -0.485406 -2.00817 0
M  V30 1404 C 143.536 0.925007 -1.65046 0
M  V30 1405 O 142.879 1.61653 -0.872574 0
M  V30 1406 C 142.941 -0.555589 -3.55181 0
M  V30 1407 C 142.605 -1.92654 -4.14407 0
M  V30 1408 C 143.602 -2.89324 -4.31958 0
M  V30 1409 C 141.287 -2.2262 -4.50273 0
M  V30 1410 C 143.281 -4.14108 -4.84555 0
M  V30 1411 C 140.968 -3.47654 -5.02573 0
M  V30 1412 C 141.966 -4.43214 -5.19664 0
M  V30 1413 O 141.654 -5.66033 -5.70843 0
M  V30 1414 H 141.386 -0.188224 -0.649267 0
M  V30 1415 H 143.94 -1.16514 -1.69156 0
M  V30 1416 H 142.17 0.181037 -3.86276 0
M  V30 1417 H 143.859 -0.19138 -4.05449 0
M  V30 1418 H 144.625 -2.6748 -4.04573 0
M  V30 1419 H 140.504 -1.4902 -4.3625 0
M  V30 1420 H 144.048 -4.88703 -4.9781 0
M  V30 1421 H 139.945 -3.69345 -5.29391 0
M  V30 1422 H 140.713 -5.6812 -5.89222 0
M  V30 1423 N 143.376 1.44774 -0.622745 0
M  V30 1424 C 144.624 2.01721 -0.123655 0
M  V30 1425 C 144.945 1.49172 1.25589 0
M  V30 1426 O 144.215 0.691974 1.83272 0
M  V30 1427 H 142.795 0.745777 -0.0427225 0
M  V30 1428 H 145.457 1.77382 -0.807559 0
M  V30 1429 H 144.553 3.11984 -0.0849534 0
M  V30 1430 N 144.854 0.36279 1.53368 0
M  V30 1431 C 146.1 -0.220702 2.02199 0
M  V30 1432 C 146.455 -1.46649 1.24546 0
M  V30 1433 O 145.748 -1.88737 0.32996 0
M  V30 1434 C 145.942 -0.568417 3.52851 0
M  V30 1435 C 145.771 0.642126 4.45092 0
M  V30 1436 C 144.541 1.15335 4.91961 0
M  V30 1437 C 146.739 1.50649 4.91741 0
M  V30 1438 N 144.721 2.3242 5.68202 0
M  V30 1439 C 146.092 2.52404 5.66297 0
M  V30 1440 C 148.147 1.52969 4.73819 0
M  V30 1441 C 146.85 3.56331 6.24836 0
M  V30 1442 C 148.876 2.55789 5.33222 0
M  V30 1443 C 148.238 3.56268 6.07662 0
M  V30 1444 H 144.337 -0.0435508 0.780786 0
M  V30 1445 H 146.921 0.506704 1.87991 0
M  V30 1446 H 145.092 -1.2649 3.67226 0
M  V30 1447 H 146.824 -1.13676 3.88407 0
M  V30 1448 H 143.579 0.718412 4.68119 0
M  V30 1449 H 144.003 2.91591 6.10986 0
M  V30 1450 H 148.645 0.766418 4.15795 0
M  V30 1451 H 146.363 4.33543 6.81958 0
M  V30 1452 H 149.949 2.58435 5.21251 0
M  V30 1453 H 148.829 4.34524 6.52808 0
M  V30 1454 N 146.332 -1.57332 0.0918853 0
M  V30 1455 C 147.56 -1.98574 -0.581048 0
M  V30 1456 C 147.975 -0.970903 -1.61923 0
M  V30 1457 O 147.332 0.0399054 -1.82456 0
M  V30 1458 C 147.383 -3.39872 -1.23164 0
M  V30 1459 O 147.104 -4.37469 -0.234989 0
M  V30 1460 C 148.605 -3.96099 -1.99049 0
M  V30 1461 H 145.825 -0.65261 -0.156018 0
M  V30 1462 H 148.369 -2.0379 0.170225 0
M  V30 1463 H 146.524 -3.35679 -1.93386 0
M  V30 1464 H 146.938 -5.19751 -0.70418 0
M  V30 1465 H 148.412 -4.97127 -2.39934 0
M  V30 1466 H 148.889 -3.3374 -2.85507 0
M  V30 1467 H 149.495 -4.03755 -1.3365 0
M  V30 1468 N 147.81 0.181792 -1.56548 0
M  V30 1469 C 149.226 0.53316 -1.50431 0
M  V30 1470 C 149.426 1.85184 -0.794297 0
M  V30 1471 O 148.482 2.50058 -0.350318 0
M  V30 1472 C 149.795 0.575597 -2.9514 0
M  V30 1473 C 151.343 0.663519 -3.05886 0
M  V30 1474 C 151.818 0.736946 -4.52032 0
M  V30 1475 N 153.309 0.800118 -4.56237 0
M  V30 1476 C 154.044 0.877327 -5.66649 0
M  V30 1477 N 153.54 0.916016 -6.86718 0
M  V30 1478 N 155.333 0.915542 -5.54594 0
M  V30 1479 H 147.484 -0.683025 -2.01118 0
M  V30 1480 H 149.747 -0.244988 -0.915797 0
M  V30 1481 H 149.453 -0.324482 -3.502 0
M  V30 1482 H 149.327 1.42572 -3.49218 0
M  V30 1483 H 151.714 1.55403 -2.50867 0
M  V30 1484 H 151.795 -0.21307 -2.54911 0
M  V30 1485 H 151.439 -0.149262 -5.07681 0
M  V30 1486 H 151.369 1.62953 -5.00753 0
M  V30 1487 H 153.86 0.778926 -3.69785 0
M  V30 1488 H 154.173 0.975813 -7.66614 0
M  V30 1489 H 152.518 0.884469 -6.89349 0
M  V30 1490 H 155.709 0.882245 -4.59711 0
M  V30 1491 H 155.882 0.972253 -6.40665 0
M  V30 1492 N 149.288 1.51039 0.449983 0
M  V30 1493 C 150.513 1.6715 1.22783 0
M  V30 1494 C 150.938 0.363081 1.84563 0
M  V30 1495 O 150.296 -0.675433 1.68249 0
M  V30 1496 C 150.344 2.77985 2.29689 0
M  V30 1497 O 149.448 2.40707 3.34864 0
M  V30 1498 H 148.789 0.557746 0.360299 0
M  V30 1499 H 151.319 1.97535 0.533005 0
M  V30 1500 H 151.329 3.01693 2.74673 0
M  V30 1501 H 150.004 3.72935 1.84098 0
M  V30 1502 H 148.581 2.27523 2.95445 0
M  V30 1503 N 150.766 -0.704594 1.40972 0
M  V30 1504 C 152.177 -1.28418 1.3552 0
M  V30 1505 C 152.528 -1.96171 0.0339434 0
M  V30 1506 O 151.653 -1.98231 -0.867944 0
M  V30 1507 C 152.248 -2.33528 2.45459 0
M  V30 1508 C 150.807 -2.87085 2.43433 0
M  V30 1509 C 149.954 -1.61007 2.2577 0
M  V30 1510 H 152.905 -0.499963 1.50619 0
M  V30 1511 H 152.926 -3.14619 2.13998 0
M  V30 1512 H 152.438 -1.84187 3.41609 0
M  V30 1513 H 150.539 -3.40626 1.51013 0
M  V30 1514 H 150.652 -3.3813 3.39419 0
M  V30 1515 H 149.016 -1.86482 1.73483 0
M  V30 1516 H 149.799 -1.13675 3.23933 0
M  V30 1517 N 152.244 -1.26651 -0.937939 0
M  V30 1518 C 153.174 -1.10993 -2.05433 0
M  V30 1519 C 154.155 -0.0142161 -1.70094 0
M  V30 1520 O 155.34 -0.186837 -1.93299 0
M  V30 1521 C 152.47 -0.745561 -3.39203 0
M  V30 1522 C 151.424 -1.79337 -3.88616 0
M  V30 1523 C 150.75 -1.28324 -5.19073 0
M  V30 1524 C 152.05 -3.19553 -4.13138 0
M  V30 1525 H 153.744 -2.0438 -2.1879 0
M  V30 1526 H 151.29 -0.984041 -1.05131 0
M  V30 1527 H 153.243 -0.622888 -4.16771 0
M  V30 1528 H 151.967 0.22401 -3.25831 0
M  V30 1529 H 150.626 -1.90477 -3.13231 0
M  V30 1530 H 150.274 -0.303414 -5.02084 0
M  V30 1531 H 149.974 -1.98369 -5.53103 0
M  V30 1532 H 151.498 -1.1733 -5.99221 0
M  V30 1533 H 152.912 -3.11471 -4.81309 0
M  V30 1534 H 151.309 -3.87218 -4.58457 0
M  V30 1535 H 152.379 -3.65368 -3.18801 0
M  V30 1536 N 153.722 1.14298 -1.08507 0
M  V30 1537 C 154.971 1.84708 -0.810305 0
M  V30 1538 C 155.284 1.83903 0.666271 0
M  V30 1539 O 156.49 2.50112 1.05624 0
M  V30 1540 C 154.946 3.31572 -1.39957 0
M  V30 1541 C 154.554 3.40791 -2.90801 0
M  V30 1542 C 156.298 4.07087 -1.20334 0
M  V30 1543 C 154.205 4.81872 -3.4286 0
M  V30 1544 H 153.135 0.691985 -0.299454 0
M  V30 1545 H 155.786 1.28841 -1.30661 0
M  V30 1546 H 154.168 3.87183 -0.830976 0
M  V30 1547 H 155.342 2.95225 -3.53806 0
M  V30 1548 H 153.657 2.78732 -3.0935 0
M  V30 1549 H 156.254 5.11225 -1.56693 0
M  V30 1550 H 156.597 4.16054 -0.143237 0
M  V30 1551 H 157.13 3.57779 -1.73893 0
M  V30 1552 H 153.869 4.78094 -4.48449 0
M  V30 1553 H 153.389 5.27972 -2.84615 0
M  V30 1554 H 155.068 5.50765 -3.39509 0
M  V30 1555 N 155.201 0.870884 1.31352 0
M  V30 1556 C 156.111 0.330783 2.32256 0
M  V30 1557 C 157.127 -0.559767 1.6475 0
M  V30 1558 O 158.303 -0.456263 1.96164 0
M  V30 1559 C 155.368 -0.458137 3.4366 0
M  V30 1560 C 154.429 0.460482 4.26823 0
M  V30 1561 C 153.662 -0.290881 5.32907 0
M  V30 1562 O 153.885 -1.51885 5.49806 0
M  V30 1563 O 152.819 0.351732 6.00871 0
M  V30 1564 H 156.645 1.16718 2.80376 0
M  V30 1565 H 154.23 0.634285 1.35267 0
M  V30 1566 H 156.112 -0.905343 4.1156 0
M  V30 1567 H 154.787 -1.27106 2.97701 0
M  V30 1568 H 153.694 0.956207 3.61673 0
M  V30 1569 H 155.027 1.23903 4.7635 0
M  V30 1570 N 156.679 -1.44442 0.630414 0
M  V30 1571 C 157.909 -2.06115 0.141465 0
M  V30 1572 C 158.317 -1.47179 -1.1889 0
M  V30 1573 O 157.66 -0.588873 -1.74006 0
M  V30 1574 C 157.722 -3.59467 -0.0484355 0
M  V30 1575 C 157.386 -4.40864 1.20366 0
M  V30 1576 C 158.383 -4.74391 2.12719 0
M  V30 1577 C 156.068 -4.8125 1.43887 0
M  V30 1578 C 158.062 -5.47186 3.26904 0
M  V30 1579 C 155.749 -5.53795 2.5837 0
M  V30 1580 C 156.747 -5.86682 3.49705 0
M  V30 1581 O 156.435 -6.57749 4.62191 0
M  V30 1582 H 156.167 -0.671648 0.0765792 0
M  V30 1583 H 158.721 -1.86312 0.864695 0
M  V30 1584 H 156.951 -3.77758 -0.826803 0
M  V30 1585 H 158.64 -4.02909 -0.491849 0
M  V30 1586 H 159.406 -4.43728 1.95781 0
M  V30 1587 H 155.285 -4.55073 0.736853 0
M  V30 1588 H 158.829 -5.72773 3.98217 0
M  V30 1589 H 154.726 -5.83872 2.75251 0
M  V30 1590 H 155.494 -6.76217 4.61164 0
M  V30 1591 N 158.157 -0.370918 -1.53173 0
M  V30 1592 C 159.387 0.217389 -2.05453 0
M  V30 1593 C 159.795 1.42568 -1.24382 0
M  V30 1594 O 159.138 1.81571 -0.278839 0
M  V30 1595 C 159.2 0.669827 -3.53205 0
M  V30 1596 C 158.864 -0.4225 -4.55043 0
M  V30 1597 C 159.861 -1.27407 -5.04047 0
M  V30 1598 C 157.546 -0.58427 -4.9889 0
M  V30 1599 C 159.54 -2.27271 -5.95505 0
M  V30 1600 C 157.227 -1.58627 -5.90153 0
M  V30 1601 C 158.225 -2.42892 -6.38351 0
M  V30 1602 O 157.913 -3.41382 -7.27814 0
M  V30 1603 H 157.645 0.0408171 -0.674767 0
M  V30 1604 H 160.199 -0.5292 -1.98466 0
M  V30 1605 H 158.429 1.4681 -3.57748 0
M  V30 1606 H 160.118 1.18173 -3.88317 0
M  V30 1607 H 160.884 -1.16031 -4.70916 0
M  V30 1608 H 156.763 0.061851 -4.60959 0
M  V30 1609 H 160.307 -2.93079 -6.33049 0
M  V30 1610 H 156.204 -1.70048 -6.22699 0
M  V30 1611 H 156.972 -3.37173 -7.45826 0
M  V30 1612 N 159.635 1.57281 -0.100228 0
M  V30 1613 C 160.881 1.94826 0.563101 0
M  V30 1614 C 161.214 0.982475 1.67514 0
M  V30 1615 O 160.489 0.0164069 1.94493 0
M  V30 1616 C 160.772 3.42453 1.11346 0
M  V30 1617 C 160.625 4.498 0.00612081 0
M  V30 1618 C 161.944 3.91506 2.01024 0
M  V30 1619 H 159.063 0.708428 0.203221 0
M  V30 1620 H 161.705 1.8922 -0.171979 0
M  V30 1621 H 159.855 3.47361 1.7399 0
M  V30 1622 H 161.527 4.57 -0.628357 0
M  V30 1623 H 159.77 4.28756 -0.659581 0
M  V30 1624 H 160.441 5.50306 0.432109 0
M  V30 1625 H 162.917 3.88784 1.48278 0
M  V30 1626 H 161.793 4.95358 2.36457 0
M  V30 1627 H 162.054 3.31099 2.92961 0
M  V30 1628 N 161.113 -0.173488 1.56642 0
M  V30 1629 C 162.359 -0.891784 1.8214 0
M  V30 1630 C 162.692 -1.8199 0.677736 0
M  V30 1631 O 161.967 -1.91842 -0.320446 0
M  V30 1632 C 162.25 -1.68933 3.18015 0
M  V30 1633 C 162.103 -0.784487 4.42906 0
M  V30 1634 C 163.422 -2.65748 3.50808 0
M  V30 1635 H 160.541 -0.322761 0.662567 0
M  V30 1636 H 163.183 -0.158095 1.89341 0
M  V30 1637 H 161.333 -2.31482 3.12007 0
M  V30 1638 H 163.005 -0.172046 4.60979 0
M  V30 1639 H 161.248 -0.0924117 4.33702 0
M  V30 1640 H 161.919 -1.37799 5.34524 0
M  V30 1641 H 164.395 -2.13327 3.57255 0
M  V30 1642 H 163.271 -3.18619 4.4696 0
M  V30 1643 H 163.532 -3.45842 2.75401 0
M  V30 1644 N 162.591 -1.51276 -0.441967 0
M  V30 1645 C 163.868 -1.54252 -1.20273 0
M  V30 1646 C 164.248 -0.30408 -2.08898 0
M  V30 1647 O 163.596 0.711084 -2.17154 0
M  V30 1648 C 163.806 -2.85406 -2.00859 0
M  V30 1649 C 165.154 -3.37181 -2.58059 0
M  V30 1650 O 166.178 -2.86925 -2.11074 0
M  V30 1651 O 165.037 -4.24858 -3.43741 0
M  V30 1652 H 162.131 -0.619969 -0.547328 0
M  V30 1653 H 164.677 -1.63586 -0.451413 0
M  V30 1654 H 163.449 -3.67003 -1.35736 0
M  V30 1655 H 163.072 -2.79213 -2.83065 0
M  V30 1656 N 164.069 0.697108 -1.41344 0
M  V30 1657 C 165.294 1.49096 -1.44171 0
M  V30 1658 C 165.719 1.88038 -0.0481568 0
M  V30 1659 O 165.077 1.54525 0.948243 0
M  V30 1660 C 165.125 2.73088 -2.3549 0
M  V30 1661 O 164.229 3.70514 -1.81088 0
M  V30 1662 H 163.57 0.448801 -0.489361 0
M  V30 1663 H 166.1 0.856992 -1.85787 0
M  V30 1664 H 166.11 3.21413 -2.51312 0
M  V30 1665 H 164.785 2.44081 -3.36745 0
M  V30 1666 H 163.362 3.29441 -1.74708 0
M  V30 1667 N 165.547 1.27147 0.931209 0
M  V30 1668 C 166.793 1.14455 1.68141 0
M  V30 1669 C 167.148 -0.307172 1.89932 0
M  V30 1670 O 166.441 -1.22158 1.47607 0
M  V30 1671 C 166.635 1.8579 3.05314 0
M  V30 1672 C 166.464 3.3775 2.96909 0
M  V30 1673 C 165.234 4.07062 2.99381 0
M  V30 1674 C 167.432 4.33783 2.76291 0
M  V30 1675 N 165.414 5.45618 2.8138 0
M  V30 1676 C 166.785 5.59582 2.6696 0
M  V30 1677 C 168.84 4.23915 2.61152 0
M  V30 1678 C 167.543 6.76639 2.44033 0
M  V30 1679 C 169.569 5.40689 2.39602 0
M  V30 1680 C 168.931 6.65443 2.3101 0
M  V30 1681 H 165.03 0.473667 0.622225 0
M  V30 1682 H 167.614 1.60568 1.10118 0
M  V30 1683 H 165.785 1.42138 3.61457 0
M  V30 1684 H 167.517 1.65634 3.69253 0
M  V30 1685 H 164.272 3.585 3.09475 0
M  V30 1686 H 164.696 6.184 2.75519 0
M  V30 1687 H 169.338 3.28189 2.66555 0
M  V30 1688 H 167.056 7.72451 2.3737 0
M  V30 1689 H 170.642 5.34932 2.28778 0
M  V30 1690 H 169.522 7.54277 2.14558 0
M  V30 1691 N 167.025 -1.13721 1.09112 0
M  V30 1692 C 168.273 -1.84559 0.823562 0
M  V30 1693 C 168.594 -1.83754 -0.652658 0
M  V30 1694 O 167.864 -1.29102 -1.47342 0
M  V30 1695 H 166.444 -0.683376 0.301673 0
M  V30 1696 H 169.106 -1.37771 1.37859 0
M  V30 1697 H 168.202 -2.8917 1.17419 0
M  V30 1698 N 168.503 -0.877838 -1.30888 0
M  V30 1699 C 169.731 -0.507414 -2.00581 0
M  V30 1700 C 170.146 0.902216 -1.65848 0
M  V30 1701 O 169.503 1.59225 -0.891831 0
M  V30 1702 C 169.554 -0.664162 -3.55347 0
M  V30 1703 O 169.275 -2.01829 -3.8884 0
M  V30 1704 C 170.776 -0.295787 -4.42312 0
M  V30 1705 H 167.996 -0.196866 -0.641471 0
M  V30 1706 H 170.54 -1.18117 -1.66939 0
M  V30 1707 H 168.695 -0.0378619 -3.87381 0
M  V30 1708 H 169.109 -2.03174 -4.8355 0
M  V30 1709 H 170.583 -0.456388 -5.5011 0
M  V30 1710 H 171.06 0.765663 -4.32475 0
M  V30 1711 H 171.666 -0.898113 -4.15709 0
M  V30 1712 N 169.982 1.44106 -0.638065 0
M  V30 1713 C 171.212 2.06037 -0.152394 0
M  V30 1714 C 171.62 1.47808 1.18108 0
M  V30 1715 O 170.963 0.598092 1.73691 0
M  V30 1716 C 171.025 3.59488 0.0293714 0
M  V30 1717 C 170.689 4.4022 -1.22702 0
M  V30 1718 C 171.686 4.73256 -2.15232 0
M  V30 1719 C 169.371 4.8048 -1.46437 0
M  V30 1720 C 171.365 5.45444 -3.29802 0
M  V30 1721 C 169.052 5.52417 -2.61303 0
M  V30 1722 C 170.05 5.84819 -3.52811 0
M  V30 1723 O 169.738 6.55289 -4.65673 0
M  V30 1724 H 169.47 0.671233 -0.0801401 0
M  V30 1725 H 172.024 1.85851 -0.874563 0
M  V30 1726 H 170.254 3.78191 0.806758 0
M  V30 1727 H 171.943 4.03164 0.470475 0
M  V30 1728 H 172.709 4.42684 -1.98131 0
M  V30 1729 H 168.588 4.54676 -0.760977 0
M  V30 1730 H 172.132 5.70653 -4.01249 0
M  V30 1731 H 168.029 5.82404 -2.78344 0
M  V30 1732 H 168.797 6.73762 -4.64744 0
M  V30 1733 N 171.46 0.379036 1.52974 0
M  V30 1734 C 172.876 0.0285448 1.59574 0
M  V30 1735 C 173.076 -1.45542 1.39355 0
M  V30 1736 O 172.132 -2.2187 1.20541 0
M  V30 1737 C 173.445 0.496535 2.96572 0
M  V30 1738 C 174.993 0.451909 3.0972 0
M  V30 1739 C 175.468 0.895924 4.49152 0
M  V30 1740 N 176.959 0.851522 4.55306 0
M  V30 1741 C 177.694 1.16661 5.61407 0
M  V30 1742 N 177.19 1.55166 6.752 0
M  V30 1743 N 178.983 1.08853 5.51459 0
M  V30 1744 H 171.134 1.34525 1.64367 0
M  V30 1745 H 173.397 0.550733 0.771619 0
M  V30 1746 H 173.103 1.53258 3.16552 0
M  V30 1747 H 172.977 -0.109802 3.7704 0
M  V30 1748 H 175.364 -0.575029 2.89443 0
M  V30 1749 H 175.445 1.09392 2.3123 0
M  V30 1750 H 175.089 1.92104 4.70168 0
M  V30 1751 H 175.019 0.23103 5.26093 0
M  V30 1752 H 177.51 0.568038 3.73606 0
M  V30 1753 H 177.823 1.776 7.52116 0
M  V30 1754 H 176.168 1.59044 6.76557 0
M  V30 1755 H 179.359 0.786803 4.6144 0
M  V30 1756 H 179.532 1.33742 6.34048 0
M  V30 1757 N 172.938 -1.57226 0.108567 0
M  V30 1758 C 174.349 -1.8195 -0.418464 0
M  V30 1759 C 174.7 -1.02508 -1.67292 0
M  V30 1760 O 173.825 -0.258496 -2.14851 0
M  V30 1761 C 174.42 -3.30028 -0.765979 0
M  V30 1762 C 172.979 -3.55469 -1.23769 0
M  V30 1763 C 172.126 -2.7625 -0.241106 0
M  V30 1764 H 175.077 -1.55149 0.33384 0
M  V30 1765 H 175.098 -3.44086 -1.62434 0
M  V30 1766 H 174.61 -3.87821 0.147219 0
M  V30 1767 H 172.711 -3.03022 -2.16814 0
M  V30 1768 H 172.824 -4.6408 -1.19022 0
M  V30 1769 H 171.188 -2.44133 -0.72602 0
M  V30 1770 H 171.971 -3.36797 0.665007 0
M  V30 1771 N 174.416 0.165178 -1.56732 0
M  V30 1772 C 175.644 0.896218 -1.86482 0
M  V30 1773 C 176.059 1.75555 -0.694675 0
M  V30 1774 O 175.416 1.79379 0.33607 0
M  V30 1775 C 175.467 1.76792 -3.1532 0
M  V30 1776 O 175.188 0.943239 -4.27825 0
M  V30 1777 C 176.689 2.6081 -3.58459 0
M  V30 1778 H 173.909 0.260064 -0.618553 0
M  V30 1779 H 176.453 0.163428 -2.03846 0
M  V30 1780 H 174.608 2.45398 -2.99764 0
M  V30 1781 H 175.022 1.53998 -5.01383 0
M  V30 1782 H 176.496 3.17579 -4.51495 0
M  V30 1783 H 176.973 3.35977 -2.82872 0
M  V30 1784 H 177.579 1.97526 -3.76648 0
M  V30 1785 N 175.894 1.51508 0.433938 0
M  V30 1786 C 177.142 1.6402 1.18075 0
M  V30 1787 C 177.463 0.360328 1.91642 0
M  V30 1788 O 176.733 -0.623945 1.85698 0
M  V30 1789 H 175.313 0.6045 0.43885 0
M  V30 1790 H 177.975 1.88452 0.497178 0
M  V30 1791 H 177.071 2.46949 1.90847 0
M  V30 1792 N 177.372 -0.689602 1.41712 0
M  V30 1793 C 178.6 -1.47827 1.44758 0
M  V30 1794 C 179.015 -1.88721 0.0545703 0
M  V30 1795 O 178.372 -1.57176 -0.927463 0
M  V30 1796 C 178.423 -2.73698 2.3616 0
M  V30 1797 O 178.144 -2.34524 3.7004 0
M  V30 1798 C 179.645 -3.67389 2.48072 0
M  V30 1799 H 176.865 -0.455357 0.49284 0
M  V30 1800 H 179.409 -0.848574 1.86063 0
M  V30 1801 H 177.564 -3.32891 1.98148 0
M  V30 1802 H 177.978 -3.15701 4.18847 0
M  V30 1803 H 179.452 -4.52475 3.16181 0
M  V30 1804 H 179.929 -4.12284 1.51388 0
M  V30 1805 H 180.535 -3.14097 2.86746 0
M  V30 1806 N 178.85 -1.27639 -0.924453 0
M  V30 1807 C 180.08 -1.16819 -1.70402 0
M  V30 1808 C 180.488 0.277191 -1.87158 0
M  V30 1809 O 179.831 1.20025 -1.39067 0
M  V30 1810 C 179.893 -1.78305 -3.12166 0
M  V30 1811 C 179.557 -3.27502 -3.18734 0
M  V30 1812 C 180.554 -4.2409 -3.00738 0
M  V30 1813 C 178.239 -3.68269 -3.4159 0
M  V30 1814 C 180.233 -5.59422 -3.05492 0
M  V30 1815 C 177.92 -5.0373 -3.45977 0
M  V30 1816 C 178.918 -5.99116 -3.27946 0
M  V30 1817 O 178.606 -7.32108 -3.32074 0
M  V30 1818 H 178.338 -0.406931 -0.539799 0
M  V30 1819 H 180.892 -1.69078 -1.16626 0
M  V30 1820 H 179.122 -1.20528 -3.67437 0
M  V30 1821 H 180.811 -1.62154 -3.72103 0
M  V30 1822 H 181.577 -3.93931 -2.82919 0
M  V30 1823 H 177.456 -2.94496 -3.54673 0
M  V30 1824 H 181 -6.33852 -2.91337 0
M  V30 1825 H 176.897 -5.33543 -3.63321 0
M  V30 1826 H 177.665 -7.40598 -3.48507 0
M  V30 1827 N 180.328 1.1314 -1.09713 0
M  V30 1828 C 181.275 2.18642 -0.739196 0
M  V30 1829 C 182.245 1.63706 0.280978 0
M  V30 1830 O 183.43 1.90111 0.161946 0
M  V30 1831 C 180.57 3.44685 -0.169102 0
M  V30 1832 C 179.683 4.13711 -1.24367 0
M  V30 1833 C 178.818 5.27379 -0.636019 0
M  V30 1834 C 177.857 5.88259 -1.69169 0
M  V30 1835 N 176.994 6.93352 -1.10485 0
M  V30 1836 H 181.834 2.48607 -1.64312 0
M  V30 1837 H 179.371 1.22066 -0.820875 0
M  V30 1838 H 181.329 4.16815 0.179256 0
M  V30 1839 H 179.959 3.15161 0.698079 0
M  V30 1840 H 179.011 3.39835 -1.70927 0
M  V30 1841 H 180.323 4.55037 -2.04311 0
M  V30 1842 H 179.477 6.06238 -0.236677 0
M  V30 1843 H 178.216 4.8731 0.194928 0
M  V30 1844 H 177.221 5.08092 -2.10055 0
M  V30 1845 H 178.446 6.30399 -2.52536 0
M  V30 1846 H 176.392 6.55335 -0.295234 0
M  V30 1847 H 176.309 7.33236 -1.84121 0
M  V30 1848 H 177.577 7.76057 -0.73181 0
M  V30 1849 N 181.806 0.884767 1.30421 0
M  V30 1850 C 183.054 0.502112 1.95763 0
M  V30 1851 C 183.375 -0.951815 1.70192 0
M  V30 1852 O 182.645 -1.6692 1.0254 0
M  V30 1853 H 181.225 0.182694 0.724315 0
M  V30 1854 H 183.887 1.1278 1.58955 0
M  V30 1855 H 182.983 0.672188 3.04775 0
M  V30 1856 N 183.284 -1.43765 0.645699 0
M  V30 1857 C 184.512 -2.06253 0.163556 0
M  V30 1858 C 184.927 -1.48352 -1.16778 0
M  V30 1859 O 184.284 -0.611932 -1.71935 0
M  V30 1860 C 184.335 -3.61453 0.0583186 0
M  V30 1861 O 184.056 -4.172 1.33702 0
M  V30 1862 C 185.557 -4.41002 -0.450795 0
M  V30 1863 H 182.777 -0.665413 0.0864077 0
M  V30 1864 H 185.321 -1.84396 0.884222 0
M  V30 1865 H 183.476 -3.82522 -0.612865 0
M  V30 1866 H 183.89 -5.10791 1.19131 0
M  V30 1867 H 185.364 -5.49966 -0.473403 0
M  V30 1868 H 185.841 -4.13488 -1.48068 0
M  V30 1869 H 186.447 -4.24886 0.187637 0
M  V30 1870 N 184.763 -0.387143 -1.52771 0
M  V30 1871 C 186.009 0.196025 -2.0185 0
M  V30 1872 C 186.342 1.46641 -1.27319 0
M  V30 1873 O 185.617 1.90889 -0.373032 0
M  V30 1874 C 185.9 0.466136 -3.5707 0
M  V30 1875 C 185.753 -0.819385 -4.42274 0
M  V30 1876 C 187.072 1.25768 -4.21747 0
M  V30 1877 H 184.191 0.0697708 -0.73369 0
M  V30 1878 H 186.833 -0.516286 -1.82851 0
M  V30 1879 H 184.983 1.07293 -3.7339 0
M  V30 1880 H 186.655 -1.4563 -4.37709 0
M  V30 1881 H 184.898 -1.43517 -4.09372 0
M  V30 1882 H 185.569 -0.585065 -5.48891 0
M  V30 1883 H 188.045 0.744167 -4.09391 0
M  V30 1884 H 186.921 1.41541 -5.30337 0
M  V30 1885 H 187.182 2.27228 -3.79236 0
M  V30 1886 N 186.241 1.57166 -0.116904 0
M  V30 1887 C 187.188 2.15202 0.83408 0
M  V30 1888 C 188.158 1.07644 1.26499 0
M  V30 1889 O 189.343 1.35541 1.34288 0
M  V30 1890 C 186.483 2.75405 2.07957 0
M  V30 1891 C 185.596 3.97264 1.69721 0
M  V30 1892 C 184.731 4.45561 2.89221 0
M  V30 1893 C 183.77 5.59956 2.47215 0
M  V30 1894 N 182.907 6.03006 3.59622 0
M  V30 1895 H 187.747 2.96141 0.332335 0
M  V30 1896 H 185.284 1.46309 0.152349 0
M  V30 1897 H 187.242 3.08439 2.80929 0
M  V30 1898 H 185.872 1.97159 2.55594 0
M  V30 1899 H 184.924 3.70404 0.866316 0
M  V30 1900 H 186.236 4.80226 1.34849 0
M  V30 1901 H 185.39 4.80493 3.7042 0
M  V30 1902 H 184.129 3.61544 3.27318 0
M  V30 1903 H 183.134 5.2463 1.64448 0
M  V30 1904 H 184.359 6.45738 2.10238 0
M  V30 1905 H 182.305 5.21931 3.97396 0
M  V30 1906 H 182.222 6.80819 3.28667 0
M  V30 1907 H 183.49 6.42576 4.41267 0
M  V30 1908 N 187.719 -0.156864 1.56817 0
M  V30 1909 C 188.944 -0.890331 1.87318 0
M  V30 1910 C 189.369 -1.74394 0.704855 0
M  V30 1911 O 188.727 -1.77972 -0.345786 0
M  V30 1912 C 188.775 -1.73102 3.16336 0
M  V30 1913 O 187.879 -2.83422 2.99576 0
M  V30 1914 H 187.22 -0.24857 0.615718 0
M  V30 1915 H 189.75 -0.150649 2.04045 0
M  V30 1916 H 189.76 -2.12803 3.48107 0
M  V30 1917 H 188.435 -1.10412 4.00976 0
M  V30 1918 H 187.012 -2.47199 2.7919 0
M  V30 1919 N 189.197 -1.51736 -0.425897 0
M  V30 1920 C 190.474 -1.55519 -1.1863 0
M  V30 1921 C 190.854 -0.326219 -2.08564 0
M  V30 1922 O 190.202 0.688012 -2.17896 0
M  V30 1923 C 190.412 -2.87521 -1.9782 0
M  V30 1924 C 191.76 -3.39899 -2.54468 0
M  V30 1925 O 192.784 -2.89148 -2.08019 0
M  V30 1926 O 191.643 -4.2848 -3.39215 0
M  V30 1927 H 188.737 -0.625739 -0.540721 0
M  V30 1928 H 191.283 -1.64055 -0.434038 0
M  V30 1929 H 190.055 -3.68422 -1.31836 0
M  V30 1930 H 189.678 -2.822 -2.80088 0
M  V30 1931 N 190.675 0.682077 -1.42076 0
M  V30 1932 C 191.923 1.4393 -1.41876 0
M  V30 1933 C 192.244 1.94971 -0.0335599 0
M  V30 1934 O 191.514 1.72591 0.926773 0
M  V30 1935 H 190.094 0.534085 -0.522267 0
M  V30 1936 H 192.756 0.806427 -1.77434 0
M  V30 1937 H 191.852 2.29588 -2.11414 0
M  V30 1938 N 192.153 1.28127 0.917671 0
M  V30 1939 C 193.401 1.14825 1.66312 0
M  V30 1940 C 193.722 -0.304379 1.9261 0
M  V30 1941 O 192.992 -1.21149 1.53947 0
M  V30 1942 H 191.572 0.421953 0.616413 0
M  V30 1943 H 194.234 1.608 1.10134 0
M  V30 1944 H 193.33 1.68489 2.62712 0
M  V30 1945 N 193.631 -1.12557 1.10312 0
M  V30 1946 C 194.859 -1.87864 0.866873 0
M  V30 1947 C 195.274 -1.79588 -0.582557 0
M  V30 1948 O 194.631 -1.16887 -1.40156 0
M  V30 1949 C 194.682 -3.37125 1.30496 0
M  V30 1950 O 194.403 -3.45201 2.69755 0
M  V30 1951 C 195.904 -4.29373 1.10243 0
M  V30 1952 H 193.124 -0.594452 0.311236 0
M  V30 1953 H 195.668 -1.42429 1.46745 0
M  V30 1954 H 193.823 -3.80109 0.748081 0
M  V30 1955 H 194.237 -4.38056 2.88457 0
M  V30 1956 H 195.711 -5.32394 1.45811 0
M  V30 1957 H 196.188 -4.39181 0.0409492 0
M  V30 1958 H 196.794 -3.92169 1.64571 0
M  V30 1959 N 195.109 -0.891671 -1.2995 0
M  V30 1960 C 196.339 -0.527893 -1.99742 0
M  V30 1961 C 196.747 0.88979 -1.66971 0
M  V30 1962 O 196.09 1.59766 -0.906667 0
M  V30 1963 C 196.152 -0.630804 -3.53922 0
M  V30 1964 C 195.816 -2.01401 -4.10228 0
M  V30 1965 C 196.813 -2.98422 -4.25724 0
M  V30 1966 C 194.498 -2.32121 -4.45449 0
M  V30 1967 C 196.492 -4.24293 -4.75662 0
M  V30 1968 C 194.179 -3.58237 -4.95086 0
M  V30 1969 C 195.177 -4.54137 -5.10146 0
M  V30 1970 O 194.865 -5.78014 -5.58708 0
M  V30 1971 H 194.597 -0.201953 -0.645129 0
M  V30 1972 H 197.151 -1.20076 -1.66646 0
M  V30 1973 H 195.381 0.0990616 -3.86573 0
M  V30 1974 H 197.07 -0.277338 -4.04951 0
M  V30 1975 H 197.836 -2.76001 -3.98809 0
M  V30 1976 H 193.715 -1.5824 -4.32991 0
M  V30 1977 H 197.259 -4.99153 -4.87332 0
M  V30 1978 H 193.156 -3.80491 -5.21437 0
M  V30 1979 H 193.924 -5.8049 -5.77039 0
M  V30 1980 N 196.587 1.43421 -0.653314 0
M  V30 1981 C 197.864 1.95361 -0.0966581 0
M  V30 1982 C 198.244 1.59461 1.38331 0
M  V30 1983 O 197.592 0.879777 2.10884 0
M  V30 1984 C 197.802 3.47311 -0.342988 0
M  V30 1985 C 199.15 4.23875 -0.24798 0
M  V30 1986 O 200.174 3.55133 -0.275553 0
M  V30 1987 O 199.033 5.4623 -0.171771 0
M  V30 1988 H 196.127 0.826945 0.00956291 0
M  V30 1989 H 198.673 1.5336 -0.726558 0
M  V30 1990 H 197.445 3.66569 -1.36906 0
M  V30 1991 H 197.068 3.9631 0.319975 0
M  V30 1992 N 198.065 0.39524 1.52563 0
M  V30 1993 C 199.314 -0.186321 2.00838 0
M  V30 1994 C 199.627 -1.47402 1.28577 0
M  V30 1995 O 200.833 -2.13599 1.67593 0
M  V30 1996 C 199.289 -0.382595 3.57861 0
M  V30 1997 C 198.897 0.892202 4.39026 0
M  V30 1998 C 200.641 -0.9202 4.14406 0
M  V30 1999 C 198.548 0.66388 5.87662 0
M  V30 2000 H 197.478 -0.0734041 0.750418 0
M  V30 2001 H 200.129 0.518552 1.76021 0
M  V30 2002 H 198.511 -1.14946 3.7895 0
M  V30 2003 H 199.685 1.66414 4.29701 0
M  V30 2004 H 198 1.35519 3.9373 0
M  V30 2005 H 200.597 -1.10683 5.23119 0
M  V30 2006 H 200.94 -1.89096 3.70875 0
M  V30 2007 H 201.473 -0.212751 3.97231 0
M  V30 2008 H 198.212 1.6058 6.35527 0
M  V30 2009 H 197.732 -0.0690193 5.9976 0
M  V30 2010 H 199.411 0.300699 6.46301 0
M  V30 2011 N 199.544 -1.57102 0.125237 0
M  V30 2012 C 200.774 -1.99472 -0.538015 0
M  V30 2013 C 201.182 -1.00395 -1.60366 0
M  V30 2014 O 200.525 0.0103875 -1.83697 0
M  V30 2015 C 200.587 -3.38262 -1.21734 0
M  V30 2016 C 200.251 -4.56021 -0.298897 0
M  V30 2017 C 201.248 -5.17817 0.464943 0
M  V30 2018 C 198.933 -5.01869 -0.208149 0
M  V30 2019 C 200.927 -6.23852 1.3072 0
M  V30 2020 C 198.614 -6.07763 0.637736 0
M  V30 2021 C 199.612 -6.68622 1.39403 0
M  V30 2022 O 199.3 -7.7247 2.22586 0
M  V30 2023 H 199.032 -0.659934 -0.146501 0
M  V30 2024 H 201.586 -2.04321 0.210267 0
M  V30 2025 H 199.816 -3.30185 -2.01282 0
M  V30 2026 H 201.505 -3.6488 -1.77813 0
M  V30 2027 H 202.271 -4.83308 0.404741 0
M  V30 2028 H 198.15 -4.54241 -0.786522 0
M  V30 2029 H 201.694 -6.71284 1.898 0
M  V30 2030 H 197.591 -6.41701 0.699309 0
M  V30 2031 H 198.359 -7.89595 2.15596 0
M  V30 2032 N 201.022 0.148545 -1.56898 0
M  V30 2033 C 202.25 0.876389 -1.87422 0
M  V30 2034 C 202.665 1.74809 -0.713256 0
M  V30 2035 O 202.022 1.79725 0.317025 0
M  V30 2036 C 202.073 1.73438 -3.17178 0
M  V30 2037 O 201.794 0.897809 -4.28802 0
M  V30 2038 C 203.295 2.56993 -3.61205 0
M  V30 2039 H 200.515 0.253489 -0.621277 0
M  V30 2040 H 203.059 0.141798 -2.04008 0
M  V30 2041 H 201.214 2.42205 -3.0235 0
M  V30 2042 H 201.628 1.48672 -5.02988 0
M  V30 2043 H 203.102 3.12773 -4.54838 0
M  V30 2044 H 203.579 3.32958 -2.86419 0
M  V30 2045 H 204.185 1.9352 -3.78722 0
M  V30 2046 N 202.5 1.5196 0.417844 0
M  V30 2047 C 203.728 1.69426 1.18753 0
M  V30 2048 C 204.143 0.399955 1.84515 0
M  V30 2049 O 203.5 -0.623288 1.71527 0
M  V30 2050 C 203.551 2.82375 2.25714 0
M  V30 2051 O 203.272 4.06793 1.62638 0
M  V30 2052 C 204.773 3.11277 3.15628 0
M  V30 2053 H 201.993 0.568031 0.357186 0
M  V30 2054 H 204.537 1.98475 0.49273 0
M  V30 2055 H 202.692 2.5587 2.90877 0
M  V30 2056 H 203.106 4.69667 2.3348 0
M  V30 2057 H 204.58 3.93843 3.86771 0
M  V30 2058 H 205.057 2.24473 3.77503 0
M  V30 2059 H 205.663 3.39515 2.56144 0
M  V30 2060 N 203.978 -0.674533 1.42435 0
M  V30 2061 C 205.206 -1.46283 1.46317 0
M  V30 2062 C 205.621 -1.88653 0.0745836 0
M  V30 2063 O 204.978 -1.58151 -0.91074 0
M  V30 2064 C 205.029 -2.71178 2.3905 0
M  V30 2065 O 204.75 -2.30586 3.72507 0
M  V30 2066 C 206.251 -3.64738 2.51955 0
M  V30 2067 H 203.471 -0.450104 0.497642 0
M  V30 2068 H 206.015 -0.828792 1.86953 0
M  V30 2069 H 204.17 -3.3077 2.01667 0
M  V30 2070 H 204.584 -3.11241 4.22172 0
M  V30 2071 H 206.058 -4.49096 3.20962 0
M  V30 2072 H 206.535 -4.10656 1.55752 0
M  V30 2073 H 207.141 -3.11038 2.90061 0
M  V30 2074 N 205.456 -1.28612 -0.910864 0
M  V30 2075 C 206.872 -1.06381 -1.18976 0
M  V30 2076 C 207.072 0.191998 -2.00583 0
M  V30 2077 O 206.128 0.892869 -2.36187 0
M  V30 2078 C 207.441 -2.31295 -1.92154 0
M  V30 2079 C 208.989 -2.36503 -2.05025 0
M  V30 2080 C 209.464 -3.61191 -2.81612 0
M  V30 2081 N 210.955 -3.61847 -2.89172 0
M  V30 2082 C 211.69 -4.55004 -3.4894 0
M  V30 2083 N 211.186 -5.58482 -4.09963 0
M  V30 2084 N 212.979 -4.42594 -3.46506 0
M  V30 2085 H 205.13 -2.09221 -0.366094 0
M  V30 2086 H 207.393 -0.921003 -0.224629 0
M  V30 2087 H 207.099 -3.228 -1.39618 0
M  V30 2088 H 206.973 -2.37934 -2.9269 0
M  V30 2089 H 209.36 -1.45494 -2.5674 0
M  V30 2090 H 209.441 -2.33857 -1.03657 0
M  V30 2091 H 209.085 -4.52545 -2.30576 0
M  V30 2092 H 209.015 -3.61092 -3.83302 0
M  V30 2093 H 211.506 -2.87022 -2.45819 0
M  V30 2094 H 211.819 -6.25704 -4.53557 0
M  V30 2095 H 210.164 -5.62305 -4.08459 0
M  V30 2096 H 213.355 -3.60953 -2.98045 0
M  V30 2097 H 213.528 -5.15381 -3.92793 0
M  V30 2098 N 206.934 1.1197 -1.10907 0
M  V30 2099 C 208.164 1.8713 -0.875553 0
M  V30 2100 C 208.572 1.8016 0.577843 0
M  V30 2101 O 207.915 1.17699 1.41042 0
M  V30 2102 C 207.977 3.37005 -1.2517 0
M  V30 2103 C 207.641 3.67748 -2.71313 0
M  V30 2104 C 208.638 3.65698 -3.69542 0
M  V30 2105 C 206.323 3.96928 -3.07821 0
M  V30 2106 C 208.317 3.92395 -5.023 0
M  V30 2107 C 206.004 4.23284 -4.40765 0
M  V30 2108 C 207.002 4.21005 -5.37814 0
M  V30 2109 O 206.69 4.46704 -6.68364 0
M  V30 2110 H 206.422 0.598786 -0.313737 0
M  V30 2111 H 208.976 1.42568 -1.47863 0
M  V30 2112 H 207.206 3.82146 -0.591741 0
M  V30 2113 H 208.895 3.93519 -0.994877 0
M  V30 2114 H 209.661 3.43211 -3.42682 0
M  V30 2115 H 205.54 3.97841 -2.32902 0
M  V30 2116 H 209.084 3.90531 -5.78041 0
M  V30 2117 H 204.981 4.45246 -4.67361 0
M  V30 2118 H 205.749 4.64299 -6.74069 0
M  V30 2119 N 208.412 0.89855 1.29475 0
M  V30 2120 C 209.36 0.365253 2.29714 0
M  V30 2121 C 210.354 -0.534993 1.6073 0
M  V30 2122 O 211.56 -0.417921 1.75081 0
M  V30 2123 H 207.935 0.0994853 0.74539 0
M  V30 2124 H 209.906 1.22406 2.72138 0
M  V30 2125 C 208.655 -0.393159 3.4547 0
M  V30 2126 H 207.978 0.290332 3.98744 0
M  V30 2127 H 209.418 -0.731189 4.17648 0
M  V30 2128 C 207.877 -1.59539 2.9673 0
M  V30 2129 O 208.407 -2.69469 2.97908 0
M  V30 2130 N 206.613 -1.43716 2.52575 0
M  V30 2131 H 206.16 -0.542828 2.51816 0
M  V30 2132 H 206.118 -2.24288 2.20323 0
M  V30 2133 N 209.89 -1.43072 0.660911 0
M  V30 2134 C 210.853 -2.29194 -0.0166406 0
M  V30 2135 C 211.853 -1.42609 -0.742912 0
M  V30 2136 O 213.043 -1.64155 -0.583004 0
M  V30 2137 C 210.175 -3.24831 -1.0343 0
M  V30 2138 H 211.368 -2.90596 0.741208 0
M  V30 2139 H 208.921 -1.5048 0.422532 0
M  V30 2140 H 209.656 -2.68339 -1.82111 0
M  V30 2141 H 209.441 -3.88676 -0.517082 0
M  V30 2142 H 210.931 -3.89451 -1.50723 0
M  V30 2143 N 211.368 -0.403325 -1.52352 0
M  V30 2144 C 212.779 0.0675782 -1.86578 0
M  V30 2145 C 213.13 1.44941 -1.32236 0
M  V30 2146 O 212.255 2.06112 -0.659307 0
M  V30 2147 C 212.85 0.129404 -3.38553 0
M  V30 2148 C 211.409 0.544629 -3.72439 0
M  V30 2149 C 210.556 -0.284551 -2.75836 0
M  V30 2150 H 213.507 -0.620631 -1.46061 0
M  V30 2151 H 213.528 0.94581 -3.68558 0
M  V30 2152 H 213.04 -0.87645 -3.78074 0
M  V30 2153 H 211.141 1.55734 -3.38493 0
M  V30 2154 H 211.254 0.293046 -4.78203 0
M  V30 2155 H 209.618 0.252258 -2.53448 0
M  V30 2156 H 210.401 -1.28865 -3.18196 0
M  V30 2157 N 212.846 1.57033 -0.133567 0
M  V30 2158 C 214.071 2.00475 0.531477 0
M  V30 2159 C 214.496 1.01291 1.58499 0
M  V30 2160 O 213.854 -0.0133279 1.81295 0
M  V30 2161 C 213.902 3.42729 1.12113 0
M  V30 2162 O 213.006 3.46498 2.23636 0
M  V30 2163 H 212.347 0.650876 0.131362 0
M  V30 2164 H 214.877 2.03344 -0.22634 0
M  V30 2165 H 214.887 3.81246 1.4531 0
M  V30 2166 H 213.562 4.14428 0.349557 0
M  V30 2167 H 212.139 3.19811 1.91769 0
M  V30 2168 N 214.325 -0.140222 1.56975 0
M  V30 2169 C 215.574 -0.850152 1.82908 0
M  V30 2170 C 215.887 -1.82028 0.715892 0
M  V30 2171 O 217.093 -2.57485 0.861016 0
M  V30 2172 C 215.549 -1.5625 3.24213 0
M  V30 2173 C 215.157 -0.63443 4.43485 0
M  V30 2174 C 216.901 -2.25881 3.59413 0
M  V30 2175 C 214.808 -1.34879 5.75814 0
M  V30 2176 H 213.738 -0.321221 0.682153 0
M  V30 2177 H 216.389 -0.102874 1.83211 0
M  V30 2178 H 214.771 -2.35565 3.18316 0
M  V30 2179 H 215.945 0.12398 4.60633 0
M  V30 2180 H 214.26 -0.0461836 4.16374 0
M  V30 2181 H 216.857 -2.79978 4.5554 0
M  V30 2182 H 217.2 -3.02693 2.85802 0
M  V30 2183 H 217.733 -1.53477 3.67001 0
M  V30 2184 H 214.472 -0.622385 6.52539 0
M  V30 2185 H 213.992 -2.07974 5.6259 0
M  V30 2186 H 215.671 -1.88784 6.18845 0
M  V30 2187 N 215.803 -1.52179 -0.40978 0
M  V30 2188 C 217.08 -1.56769 -1.16974 0
M  V30 2189 C 217.46 -0.348322 -2.08206 0
M  V30 2190 O 216.808 0.664862 -2.18613 0
M  V30 2191 C 217.018 -2.89603 -1.9476 0
M  V30 2192 C 218.366 -3.42579 -2.50849 0
M  V30 2193 O 219.39 -2.91338 -2.04941 0
M  V30 2194 O 218.249 -4.32054 -3.34652 0
M  V30 2195 H 215.343 -0.631439 -0.534054 0
M  V30 2196 H 217.889 -1.64507 -0.416613 0
M  V30 2197 H 216.661 -3.698 -1.27921 0
M  V30 2198 H 216.284 -2.85155 -2.77079 0
M  V30 2199 N 217.281 0.66697 -1.42791 0
M  V30 2200 C 218.529 1.42417 -1.43394 0
M  V30 2201 C 218.85 1.94925 -0.0542373 0
M  V30 2202 O 218.12 1.73564 0.908415 0
M  V30 2203 H 216.7 0.528515 -0.527902 0
M  V30 2204 H 219.362 0.787562 -1.78279 0
M  V30 2205 H 218.458 2.27333 -2.13837 0
M  V30 2206 N 218.759 1.29093 0.90403 0
M  V30 2207 C 220.036 1.075 1.63411 0
M  V30 2208 C 220.416 -0.382346 2.07609 0
M  V30 2209 O 219.764 -1.37031 1.82851 0
M  V30 2210 C 219.974 2.05858 2.81822 0
M  V30 2211 C 221.322 2.36539 3.52611 0
M  V30 2212 O 222.346 2.04019 2.91984 0
M  V30 2213 O 221.205 2.92085 4.61897 0
M  V30 2214 H 218.299 0.411547 0.717327 0
M  V30 2215 H 220.845 1.40449 0.952479 0
M  V30 2216 H 219.617 3.04037 2.46327 0
M  V30 2217 H 219.24 1.73613 3.57693 0
M  V30 2218 N 220.237 -1.11381 1.11499 0
M  V30 2219 C 221.653 -1.35143 0.849031 0
M  V30 2220 C 221.853 -1.94515 -0.525938 0
M  V30 2221 O 220.909 -2.1785 -1.27662 0
M  V30 2222 C 222.222 -2.28249 1.95762 0
M  V30 2223 C 223.77 -2.41812 1.98736 0
M  V30 2224 C 224.245 -3.3824 3.088 0
M  V30 2225 N 225.736 -3.45803 3.08179 0
M  V30 2226 C 226.471 -4.20358 3.89982 0
M  V30 2227 N 225.967 -4.97884 4.8175 0
M  V30 2228 N 227.76 -4.15877 3.78157 0
M  V30 2229 H 219.911 -0.712062 2.00109 0
M  V30 2230 H 222.174 -0.376025 0.870235 0
M  V30 2231 H 221.88 -1.91817 2.94787 0
M  V30 2232 H 221.754 -3.28473 1.85433 0
M  V30 2233 H 224.141 -2.77518 1.00338 0
M  V30 2234 H 224.222 -1.41437 2.13141 0
M  V30 2235 H 223.866 -3.03261 4.07425 0
M  V30 2236 H 223.796 -4.38471 2.91635 0
M  V30 2237 H 226.287 -2.90506 2.41691 0
M  V30 2238 H 226.6 -5.52142 5.40702 0
M  V30 2239 H 224.945 -4.97043 4.85771 0
M  V30 2240 H 228.136 -3.544 3.05808 0
M  V30 2241 H 228.309 -4.73723 4.42143 0
M  V30 2242 N 221.715 -0.905404 -1.28997 0
M  V30 2243 C 222.943 -0.549846 -1.9946 0
M  V30 2244 C 223.358 0.866834 -1.67724 0
M  V30 2245 O 222.715 1.57298 -0.925404 0
M  V30 2246 C 222.766 -0.739387 -3.53858 0
M  V30 2247 O 222.487 -2.10031 -3.84472 0
M  V30 2248 C 223.988 -0.389541 -4.41585 0
M  V30 2249 H 221.208 -0.210429 -0.637151 0
M  V30 2250 H 223.752 -1.21632 -1.64396 0
M  V30 2251 H 221.907 -0.120023 -3.87214 0
M  V30 2252 H 222.321 -2.13385 -4.79132 0
M  V30 2253 H 223.795 -0.572972 -5.49018 0
M  V30 2254 H 224.272 0.673756 -4.34001 0
M  V30 2255 H 224.878 -0.986089 -4.1371 0
M  V30 2256 N 223.193 1.4272 -0.668489 0
M  V30 2257 C 224.421 2.05966 -0.196348 0
M  V30 2258 C 224.836 1.50191 1.14403 0
M  V30 2259 O 224.193 0.639208 1.7094 0
M  V30 2260 C 224.244 3.61314 -0.115815 0
M  V30 2261 O 223.965 4.1502 -1.40322 0
M  V30 2262 C 225.466 4.41663 0.380579 0
M  V30 2263 H 222.686 0.663954 -0.0969829 0
M  V30 2264 H 225.23 1.82966 -0.913446 0
M  V30 2265 H 223.385 3.83448 0.551931 0
M  V30 2266 H 223.799 5.08832 -1.27243 0
M  V30 2267 H 225.273 5.5065 0.385848 0
M  V30 2268 H 225.75 4.15792 1.41471 0
M  V30 2269 H 226.356 4.24534 -0.255209 0
M  V30 2270 N 224.671 0.411399 1.52136 0
M  V30 2271 C 225.918 -0.163645 2.01838 0
M  V30 2272 C 226.246 -1.4495 1.29691 0
M  V30 2273 O 225.501 -1.91725 0.392431 0
M  V30 2274 C 225.8 -0.455872 3.54481 0
M  V30 2275 C 225.466 0.741055 4.44769 0
M  V30 2276 C 224.128 1.06936 4.69167 0
M  V30 2277 C 226.48 1.54075 4.97906 0
M  V30 2278 C 223.808 2.19851 5.43951 0
M  V30 2279 C 226.16 2.66067 5.73926 0
M  V30 2280 C 224.824 2.99381 5.96596 0
M  V30 2281 H 224.094 -0.0598821 0.738576 0
M  V30 2282 H 226.741 0.553283 1.83333 0
M  V30 2283 H 225.046 -1.2544 3.71177 0
M  V30 2284 H 226.743 -0.913802 3.90449 0
M  V30 2285 H 223.333 0.475192 4.25958 0
M  V30 2286 H 227.517 1.30033 4.78963 0
M  V30 2287 H 222.773 2.46006 5.59724 0
M  V30 2288 H 226.947 3.28419 6.14096 0
M  V30 2289 H 224.574 3.86992 6.54325 0
M  V30 2290 N 226.149 -1.5696 0.141893 0
M  V30 2291 C 227.377 -2.00322 -0.517579 0
M  V30 2292 C 227.792 -1.02193 -1.58752 0
M  V30 2293 O 227.149 -0.0181619 -1.82491 0
M  V30 2294 C 227.2 -3.43618 -1.12289 0
M  V30 2295 O 226.921 -4.37995 -0.0956929 0
M  V30 2296 C 228.422 -4.02231 -1.86347 0
M  V30 2297 H 225.642 -0.657243 -0.135177 0
M  V30 2298 H 228.186 -2.03146 0.234973 0
M  V30 2299 H 226.341 -3.41662 -1.82609 0
M  V30 2300 H 226.755 -5.21729 -0.538469 0
M  V30 2301 H 228.229 -5.04509 -2.23997 0
M  V30 2302 H 228.706 -3.42655 -2.74744 0
M  V30 2303 H 229.312 -4.07802 -1.20737 0
M  V30 2304 N 227.627 0.131896 -1.57047 0
M  V30 2305 C 228.559 1.1878 -1.9602 0
M  V30 2306 C 229.572 1.38363 -0.857875 0
M  V30 2307 O 230.761 1.37666 -1.13623 0
M  V30 2308 C 227.861 2.55008 -2.23213 0
M  V30 2309 C 227.034 2.56201 -3.54513 0
M  V30 2310 C 226.093 3.7408 -3.70069 0
M  V30 2311 O 225.119 3.58258 -4.42312 0
M  V30 2312 N 226.321 4.92137 -3.07866 0
M  V30 2313 H 229.086 0.85639 -2.87204 0
M  V30 2314 H 226.647 0.321309 -1.5868 0
M  V30 2315 H 228.639 3.32404 -2.30846 0
M  V30 2316 H 227.209 2.80382 -1.3822 0
M  V30 2317 H 226.429 1.64613 -3.58185 0
M  V30 2318 H 227.717 2.54043 -4.4084 0
M  V30 2319 H 227.115 5.07895 -2.49116 0
M  V30 2320 H 225.672 5.67254 -3.21039 0
M  V30 2321 N 229.106 1.52395 0.401703 0
M  V30 2322 C 230.336 1.70429 1.1678 0
M  V30 2323 C 230.744 0.416702 1.84554 0
M  V30 2324 O 230.087 -0.617697 1.73003 0
M  V30 2325 C 230.149 2.78919 2.26814 0
M  V30 2326 C 229.813 4.20437 1.79113 0
M  V30 2327 C 230.81 5.04028 1.27482 0
M  V30 2328 C 228.495 4.66704 1.85722 0
M  V30 2329 C 230.489 6.31961 0.830913 0
M  V30 2330 C 228.176 5.94625 1.40942 0
M  V30 2331 C 229.174 6.77082 0.897128 0
M  V30 2332 O 228.862 8.02607 0.455822 0
M  V30 2333 H 228.594 0.574272 0.356634 0
M  V30 2334 H 231.148 1.99767 0.477724 0
M  V30 2335 H 229.378 2.44973 2.99207 0
M  V30 2336 H 231.067 2.8548 2.88541 0
M  V30 2337 H 231.833 4.69471 1.21744 0
M  V30 2338 H 227.712 4.0262 2.24539 0
M  V30 2339 H 231.256 6.96271 0.430368 0
M  V30 2340 H 227.153 6.28688 1.46362 0
M  V30 2341 H 227.921 8.16453 0.578457 0
M  V30 2342 N 230.584 -0.659388 1.43143 0
M  V30 2343 C 231.83 -1.41984 1.45644 0
M  V30 2344 C 232.185 -1.92245 0.0771718 0
M  V30 2345 O 231.478 -1.68976 -0.903205 0
M  V30 2346 C 231.672 -2.62206 2.42864 0
M  V30 2347 C 231.501 -2.23711 3.90107 0
M  V30 2348 C 230.271 -2.12332 4.58523 0
M  V30 2349 C 232.469 -1.84384 4.80112 0
M  V30 2350 N 230.451 -1.67102 5.9072 0
M  V30 2351 C 231.822 -1.5019 6.01534 0
M  V30 2352 C 233.877 -1.71512 4.67427 0
M  V30 2353 C 232.58 -1.04414 7.11681 0
M  V30 2354 C 234.606 -1.27142 5.77572 0
M  V30 2355 C 233.968 -0.938808 6.98116 0
M  V30 2356 H 230.067 -0.515448 0.588079 0
M  V30 2357 H 232.651 -0.759409 1.79279 0
M  V30 2358 H 230.822 -3.25917 2.11265 0
M  V30 2359 H 232.554 -3.28877 2.35843 0
M  V30 2360 H 229.309 -2.31893 4.12944 0
M  V30 2361 H 229.733 -1.46866 6.60878 0
M  V30 2362 H 234.375 -1.95868 3.74694 0
M  V30 2363 H 232.093 -0.788061 8.04248 0
M  V30 2364 H 235.679 -1.17681 5.69774 0
M  V30 2365 H 234.559 -0.6007 7.81896 0
M  V30 2366 N 232.062 -1.29571 -0.897171 0
M  V30 2367 C 233.287 -1.20705 -1.68656 0
M  V30 2368 C 233.712 0.228582 -1.86706 0
M  V30 2369 O 233.07 1.16494 -1.3892 0
M  V30 2370 C 233.118 -1.9282 -3.04717 0
M  V30 2371 O 232.222 -1.24697 -3.93096 0
M  V30 2372 H 231.563 -0.418126 -0.515816 0
M  V30 2373 H 234.093 -1.71183 -1.12061 0
M  V30 2374 H 234.103 -2.01372 -3.54843 0
M  V30 2375 H 232.778 -2.97239 -2.90899 0
M  V30 2376 H 231.355 -1.2442 -3.51531 0
M  V30 2377 N 233.54 1.10788 -1.12088 0
M  V30 2378 C 234.786 1.82942 -0.875226 0
M  V30 2379 C 235.119 1.84779 0.597538 0
M  V30 2380 O 234.394 1.30578 1.44152 0
M  V30 2381 C 234.677 3.29789 -1.44606 0
M  V30 2382 C 234.53 3.36307 -2.98693 0
M  V30 2383 C 235.849 4.26064 -1.10261 0
M  V30 2384 H 232.968 0.664195 -0.319397 0
M  V30 2385 H 235.61 1.29867 -1.38689 0
M  V30 2386 H 233.76 3.75118 -1.01089 0
M  V30 2387 H 235.432 2.99487 -3.50864 0
M  V30 2388 H 233.675 2.76318 -3.34411 0
M  V30 2389 H 234.346 4.39694 -3.33726 0
M  V30 2390 H 236.822 3.88951 -1.4784 0
M  V30 2391 H 235.698 5.27183 -1.52869 0
M  V30 2392 H 235.959 4.42098 -0.0142953 0
M  V30 2393 N 235.018 0.912232 1.28515 0
M  V30 2394 C 236.434 0.610159 1.47476 0
M  V30 2395 C 236.634 -0.844955 1.82928 0
M  V30 2396 O 235.69 -1.62416 1.93332 0
M  V30 2397 C 237.003 1.54675 2.57868 0
M  V30 2398 C 238.551 1.55331 2.71738 0
M  V30 2399 C 239.026 2.47649 3.85272 0
M  V30 2400 N 240.517 2.45767 3.92623 0
M  V30 2401 C 241.252 3.13896 4.79851 0
M  V30 2402 N 240.748 3.9135 5.71679 0
M  V30 2403 N 242.541 3.02991 4.73448 0
M  V30 2404 H 234.692 1.85318 1.03783 0
M  V30 2405 H 236.955 0.794777 0.516753 0
M  V30 2406 H 236.661 2.5841 2.38574 0
M  V30 2407 H 236.535 1.27671 3.54937 0
M  V30 2408 H 238.922 0.52335 2.90422 0
M  V30 2409 H 239.003 1.86378 1.75205 0
M  V30 2410 H 238.647 3.50745 3.67342 0
M  V30 2411 H 238.577 2.13904 4.81199 0
M  V30 2412 H 241.068 1.89503 3.26951 0
M  V30 2413 H 241.381 4.40359 6.35062 0
M  V30 2414 H 239.726 3.95455 5.71524 0
M  V30 2415 H 242.917 2.41987 4.007 0
M  V30 2416 H 243.09 3.5636 5.41213 0
M  V30 2417 N 236.496 -1.42363 0.676048 0
M  V30 2418 C 237.428 -2.29164 -0.0404605 0
M  V30 2419 C 238.441 -1.43747 -0.764245 0
M  V30 2420 O 239.63 -1.67453 -0.618195 0
M  V30 2421 C 236.73 -3.21196 -1.08103 0
M  V30 2422 C 235.903 -4.35273 -0.430812 0
M  V30 2423 C 234.962 -5.08017 -1.37133 0
M  V30 2424 O 233.988 -5.62494 -0.87116 0
M  V30 2425 N 235.19 -5.13647 -2.70456 0
M  V30 2426 H 237.955 -2.91298 0.704667 0
M  V30 2427 H 235.516 -1.53303 0.520559 0
M  V30 2428 H 237.508 -3.66728 -1.71152 0
M  V30 2429 H 236.078 -2.60505 -1.72788 0
M  V30 2430 H 235.298 -3.92372 0.379209 0
M  V30 2431 H 236.586 -5.08795 0.0221132 0
M  V30 2432 H 235.984 -4.708 -3.1363 0
M  V30 2433 H 234.541 -5.62821 -3.28749 0
M  V30 2434 N 237.974 -0.419461 -1.51915 0
M  V30 2435 C 239.199 0.154572 -2.06823 0
M  V30 2436 C 239.624 1.3722 -1.28656 0
M  V30 2437 O 238.982 1.78461 -0.319583 0
M  V30 2438 C 239.03 0.473172 -3.57482 0
M  V30 2439 O 238.134 1.56255 -3.81652 0
M  V30 2440 H 237.475 0.0096924 -0.663929 0
M  V30 2441 H 240.005 -0.595642 -1.95738 0
M  V30 2442 H 240.015 0.728825 -4.01438 0
M  V30 2443 H 238.69 -0.416873 -4.13805 0
M  V30 2444 H 237.267 1.29825 -3.49571 0
M  V30 2445 N 239.452 1.56882 -0.150215 0
M  V30 2446 C 240.399 2.16922 0.788244 0
M  V30 2447 C 241.369 1.10303 1.24187 0
M  V30 2448 O 242.554 1.38359 1.31383 0
M  V30 2449 C 239.694 2.79754 2.02068 0
M  V30 2450 C 238.807 4.00775 1.61257 0
M  V30 2451 C 237.942 4.51595 2.79705 0
M  V30 2452 C 236.981 5.65074 2.35282 0
M  V30 2453 N 236.118 6.10499 3.4675 0
M  V30 2454 H 240.958 2.96779 0.269444 0
M  V30 2455 H 238.495 1.46599 0.12128 0
M  V30 2456 H 240.453 3.14329 2.74323 0
M  V30 2457 H 239.083 2.02536 2.51354 0
M  V30 2458 H 238.135 3.72158 0.787553 0
M  V30 2459 H 239.447 4.82978 1.24633 0
M  V30 2460 H 238.601 4.88242 3.60145 0
M  V30 2461 H 237.34 3.68406 3.19576 0
M  V30 2462 H 236.345 5.28 1.53283 0
M  V30 2463 H 237.57 6.50052 1.96493 0
M  V30 2464 H 235.516 5.30243 3.86236 0
M  V30 2465 H 235.433 6.87637 3.14152 0
M  V30 2466 H 236.701 6.51791 4.27537 0
M  V30 2467 N 240.93 -0.123565 1.57115 0
M  V30 2468 C 242.346 -0.476961 1.52306 0
M  V30 2469 C 242.546 -1.82109 0.86248 0
M  V30 2470 O 241.602 -2.48586 0.442884 0
M  V30 2471 C 242.915 -0.465661 2.97073 0
M  V30 2472 C 244.463 -0.549534 3.08138 0
M  V30 2473 C 244.938 -0.568669 4.54456 0
M  V30 2474 N 246.429 -0.630237 4.58892 0
M  V30 2475 C 247.164 -0.666415 5.69514 0
M  V30 2476 N 246.66 -0.660514 6.89644 0
M  V30 2477 N 248.453 -0.709077 5.5761 0
M  V30 2478 H 240.604 0.757198 1.98445 0
M  V30 2479 H 242.867 0.278808 0.906074 0
M  V30 2480 H 242.573 0.454232 3.48754 0
M  V30 2481 H 242.447 -1.29513 3.54269 0
M  V30 2482 H 244.834 -1.45985 2.56461 0
M  V30 2483 H 244.915 0.307532 2.53945 0
M  V30 2484 H 244.559 0.337581 5.06777 0
M  V30 2485 H 244.489 -1.44256 5.06456 0
M  V30 2486 H 246.98 -0.641146 3.72421 0
M  V30 2487 H 247.293 -0.690616 7.69708 0
M  V30 2488 H 245.638 -0.628012 6.92157 0
M  V30 2489 H 248.829 -0.711019 4.62668 0
M  V30 2490 H 249.002 -0.733804 6.43832 0
M  V30 2491 N 242.408 -1.52605 -0.393616 0
M  V30 2492 C 243.819 -1.59417 -0.971761 0
M  V30 2493 C 244.17 -0.444173 -1.91106 0
M  V30 2494 O 243.295 0.433382 -2.12016 0
M  V30 2495 C 243.89 -2.88936 -1.76921 0
M  V30 2496 C 242.449 -2.98175 -2.29714 0
M  V30 2497 C 241.596 -2.54491 -1.10135 0
M  V30 2498 H 244.547 -1.57751 -0.173317 0
M  V30 2499 H 244.568 -2.75163 -2.62804 0
M  V30 2500 H 244.08 -3.72616 -1.08532 0
M  V30 2501 H 242.181 -2.19024 -3.01429 0
M  V30 2502 H 242.294 -4.02726 -2.59517 0
M  V30 2503 H 240.658 -2.08702 -1.45999 0
M  V30 2504 H 241.441 -3.4056 -0.432874 0
M  V30 2505 N 243.887 0.651787 -1.4349 0
M  V30 2506 C 245.115 1.43937 -1.48626 0
M  V30 2507 C 245.53 1.8851 -0.104587 0
M  V30 2508 O 244.887 1.5958 0.885464 0
M  V30 2509 C 244.938 2.6734 -2.43334 0
M  V30 2510 O 244.659 2.24631 -3.76128 0
M  V30 2511 C 246.16 3.60683 -2.57726 0
M  V30 2512 H 243.38 0.44213 -0.504739 0
M  V30 2513 H 245.924 0.798944 -1.88248 0
M  V30 2514 H 244.079 3.2752 -2.06904 0
M  V30 2515 H 244.493 3.04485 -4.2707 0
M  V30 2516 H 245.967 4.43933 -3.28067 0
M  V30 2517 H 246.444 4.08126 -1.62265 0
M  V30 2518 H 247.05 3.06384 -2.94973 0
M  V30 2519 N 245.365 1.30045 0.890287 0
M  V30 2520 C 246.613 1.18327 1.63839 0
M  V30 2521 C 246.934 -0.263455 1.93212 0
M  V30 2522 O 246.204 -1.17856 1.56482 0
M  V30 2523 H 244.784 0.434933 0.607324 0
M  V30 2524 H 247.446 1.631 1.06698 0
M  V30 2525 H 246.542 1.74024 2.59079 0
M  V30 2526 N 246.843 -1.10192 1.12674 0
M  V30 2527 C 248.068 -1.86523 0.906853 0
M  V30 2528 C 248.493 -1.80221 -0.538711 0
M  V30 2529 O 247.851 -1.17396 -1.38158 0
M  V30 2530 C 247.899 -3.32758 1.3894 0
M  V30 2531 O 247.003 -4.08449 0.5695 0
M  V30 2532 H 246.344 -0.578678 0.325619 0
M  V30 2533 H 248.874 -1.39203 1.49946 0
M  V30 2534 H 248.884 -3.83608 1.38958 0
M  V30 2535 H 247.559 -3.36661 2.44197 0
M  V30 2536 H 246.136 -3.67427 0.636528 0
M  V30 2537 N 248.321 -0.919034 -1.28029 0
M  V30 2538 C 249.269 -0.401753 -2.29104 0
M  V30 2539 C 250.263 0.509354 -1.61561 0
M  V30 2540 O 251.469 0.390014 -1.75724 0
M  V30 2541 H 247.844 -0.111331 -0.743713 0
M  V30 2542 H 249.815 -1.2672 -2.70156 0
M  V30 2543 C 248.564 0.338148 -3.46052 0
M  V30 2544 H 247.887 -0.353732 -3.98232 0
M  V30 2545 H 249.327 0.664653 -4.18758 0
M  V30 2546 C 247.786 1.54798 -2.99231 0
M  V30 2547 O 248.316 2.64696 -3.02157 0
M  V30 2548 N 246.522 1.3968 -2.54829 0
M  V30 2549 H 246.069 0.502698 -2.52647 0
M  V30 2550 H 246.027 2.20755 -2.23863 0
M  V30 2551 N 249.799 1.42003 -0.683588 0
M  V30 2552 C 250.762 2.29191 -0.0198243 0
M  V30 2553 C 251.762 1.43773 0.72013 0
M  V30 2554 O 252.952 1.65061 0.556815 0
M  V30 2555 C 250.084 3.26435 0.982487 0
M  V30 2556 H 251.277 2.8938 -0.787345 0
M  V30 2557 H 248.83 1.49789 -0.446418 0
M  V30 2558 H 249.565 2.71203 1.77819 0
M  V30 2559 H 249.35 3.89449 0.455182 0
M  V30 2560 H 250.84 3.918 1.44508 0
M  V30 2561 N 251.277 0.427512 1.51691 0
M  V30 2562 C 252.505 -0.141191 2.06418 0
M  V30 2563 C 252.92 -1.37303 1.29589 0
M  V30 2564 O 252.277 -1.79059 0.352732 0
M  V30 2565 C 252.328 -0.473266 3.58389 0
M  V30 2566 O 252.049 0.709673 4.32314 0
M  V30 2567 C 253.55 -1.09371 4.29596 0
M  V30 2568 H 250.77 -0.0122747 0.670888 0
M  V30 2569 H 253.314 0.603764 1.95384 0
M  V30 2570 H 251.469 -1.16812 3.69369 0
M  V30 2571 H 251.883 0.42807 5.2275 0
M  V30 2572 H 253.357 -1.27613 5.37046 0
M  V30 2573 H 253.834 -2.072 3.87253 0
M  V30 2574 H 254.44 -0.43853 4.23033 0
M  V30 2575 N 252.755 -1.56801 0.158532 0
M  V30 2576 C 254.004 -1.95665 -0.489702 0
M  V30 2577 C 254.317 -1.04654 -1.65248 0
M  V30 2578 O 255.523 -1.33146 -2.3661 0
M  V30 2579 C 253.979 -3.47874 -0.922582 0
M  V30 2580 C 253.587 -4.47489 0.213893 0
M  V30 2581 C 255.331 -3.95583 -1.53996 0
M  V30 2582 C 253.238 -5.90921 -0.237903 0
M  V30 2583 H 252.168 -0.730516 -0.186716 0
M  V30 2584 H 254.819 -1.81861 0.244722 0
M  V30 2585 H 253.201 -3.57051 -1.71261 0
M  V30 2586 H 254.375 -4.50017 0.991036 0
M  V30 2587 H 252.69 -4.09764 0.740407 0
M  V30 2588 H 255.287 -5.0019 -1.8898 0
M  V30 2589 H 255.63 -3.37789 -2.43319 0
M  V30 2590 H 256.163 -3.8937 -0.814611 0
M  V30 2591 H 252.902 -6.52559 0.620236 0
M  V30 2592 H 252.422 -5.91729 -0.980676 0
M  V30 2593 H 254.101 -6.43352 -0.686067 0
M  V30 2594 N 254.233 0.115231 -1.57178 0
M  V30 2595 C 255.461 0.836437 -1.89239 0
M  V30 2596 C 255.876 1.73256 -0.750175 0
M  V30 2597 O 255.233 1.80357 0.278832 0
M  V30 2598 C 255.284 1.66671 -3.20785 0
M  V30 2599 O 255.005 0.806652 -4.3061 0
M  V30 2600 C 256.506 2.49274 -3.66575 0
M  V30 2601 H 253.726 0.240253 -0.626514 0
M  V30 2602 H 256.27 0.0984932 -2.04263 0
M  V30 2603 H 254.425 2.35737 -3.0742 0
M  V30 2604 H 254.839 1.37969 -5.06028 0
M  V30 2605 H 256.313 3.03055 -4.6137 0
M  V30 2606 H 256.79 3.26807 -2.93417 0
M  V30 2607 H 257.396 1.85443 -3.82741 0
M  V30 2608 N 255.711 1.52812 0.385517 0
M  V30 2609 C 256.958 1.68026 1.1302 0
M  V30 2610 C 257.286 0.421934 1.89868 0
M  V30 2611 O 256.541 -0.595749 1.86412 0
M  V30 2612 C 256.84 2.86856 2.13187 0
M  V30 2613 C 256.506 4.24159 1.5297 0
M  V30 2614 C 255.168 4.61501 1.36274 0
M  V30 2615 C 257.52 5.09627 1.09223 0
M  V30 2616 C 254.848 5.81966 0.743837 0
M  V30 2617 C 257.2 6.30719 0.487411 0
M  V30 2618 C 255.864 6.6679 0.307777 0
M  V30 2619 H 255.134 0.614849 0.413571 0
M  V30 2620 H 257.781 1.86962 0.414405 0
M  V30 2621 H 256.086 2.6235 2.90998 0
M  V30 2622 H 257.783 2.95821 2.70722 0
M  V30 2623 H 254.373 3.94746 1.66954 0
M  V30 2624 H 258.557 4.81343 1.20922 0
M  V30 2625 H 253.813 6.08519 0.592891 0
M  V30 2626 H 257.987 6.96259 0.140143 0
M  V30 2627 H 255.614 7.60001 -0.173879 0
M  V30 2628 N 257.189 -0.644168 1.43834 0
M  V30 2629 C 258.417 -1.43147 1.49387 0
M  V30 2630 C 258.832 -1.88452 0.114583 0
M  V30 2631 O 258.189 -1.60047 -0.876989 0
M  V30 2632 C 258.24 -2.66046 2.44748 0
M  V30 2633 O 257.961 -2.22633 3.77314 0
M  V30 2634 C 259.462 -3.59311 2.59635 0
M  V30 2635 H 256.682 -0.439447 0.507077 0
M  V30 2636 H 259.226 -0.78895 1.88669 0
M  V30 2637 H 257.381 -3.26418 2.08638 0
M  V30 2638 H 257.795 -3.02216 4.28679 0
M  V30 2639 H 259.269 -4.42187 3.30416 0
M  V30 2640 H 259.746 -4.07259 1.64427 0
M  V30 2641 H 260.352 -3.04816 2.96593 0
M  V30 2642 N 258.668 -1.30515 -0.883378 0
M  V30 2643 C 259.616 -1.16941 -2.01066 0
M  V30 2644 C 260.61 -0.0809148 -1.69207 0
M  V30 2645 O 261.816 -0.241877 -1.78367 0
M  V30 2646 H 258.191 -0.361705 -0.659298 0
M  V30 2647 H 260.162 -2.12344 -2.09649 0
M  V30 2648 C 258.911 -0.879694 -3.36388 0
M  V30 2649 H 258.234 -1.70936 -3.61415 0
M  V30 2650 H 259.674 -0.82483 -4.159 0
M  V30 2651 C 258.133 0.417409 -3.34304 0
M  V30 2652 O 258.663 1.43843 -3.75063 0
M  V30 2653 N 256.869 0.429141 -2.87414 0
M  V30 2654 H 256.416 -0.402222 -2.5444 0
M  V30 2655 H 256.374 1.29696 -2.86403 0
M  V30 2656 N 260.146 1.09593 -1.13257 0
M  V30 2657 C 261.096 2.14345 -0.777179 0
M  V30 2658 C 262.08 1.59277 0.227966 0
M  V30 2659 O 263.272 1.76971 0.0321413 0
M  V30 2660 C 260.401 3.42439 -0.242991 0
M  V30 2661 C 259.487 4.04419 -1.27694 0
M  V30 2662 N 259.878 4.40979 -2.47732 0
M  V30 2663 C 258.176 4.31596 -1.12432 0
M  V30 2664 C 258.877 4.89784 -3.13826 0
M  V30 2665 N 257.853 4.87133 -2.41252 0
M  V30 2666 H 261.655 2.40415 -1.69049 0
M  V30 2667 H 259.169 1.26803 -1.01463 0
M  V30 2668 H 261.166 4.16889 0.0298496 0
M  V30 2669 H 259.826 3.17824 0.66467 0
M  V30 2670 H 260.837 4.32396 -2.85051 0
M  V30 2671 H 257.514 4.16595 -0.274684 0
M  V30 2672 H 258.904 5.2755 -4.16102 0
M  V30 2673 N 261.624 0.925811 1.2754 0
M  V30 2674 C 262.87 0.566092 1.94739 0
M  V30 2675 C 263.203 -0.890057 1.72603 0
M  V30 2676 O 262.478 -1.63467 1.05399 0
M  V30 2677 C 262.761 0.89054 3.48915 0
M  V30 2678 C 262.614 2.4003 3.80402 0
M  V30 2679 C 263.933 0.395101 4.38323 0
M  V30 2680 H 261.052 0.20714 0.707292 0
M  V30 2681 H 263.694 1.15725 1.50691 0
M  V30 2682 H 261.844 0.387452 3.86563 0
M  V30 2683 H 263.516 2.97494 3.52555 0
M  V30 2684 H 261.759 2.85028 3.2702 0
M  V30 2685 H 262.43 2.57785 4.8811 0
M  V30 2686 H 264.906 0.826241 4.07814 0
M  V30 2687 H 263.782 0.651086 5.45025 0
M  V30 2688 H 264.043 -0.704798 4.36446 0
M  V30 2689 N 263.102 -1.41638 0.69111 0
M  V30 2690 C 264.05 -2.32597 0.0115199 0
M  V30 2691 C 265.044 -1.5072 -0.773296 0
M  V30 2692 O 266.25 -1.66685 -0.67942 0
M  V30 2693 H 262.625 -0.751849 -0.0150746 0
M  V30 2694 H 264.596 -2.87593 0.795791 0
M  V30 2695 C 263.345 -3.35467 -0.914172 0
M  V30 2696 H 262.668 -3.9852 -0.319687 0
M  V30 2697 H 264.108 -4.01662 -1.35808 0
M  V30 2698 C 262.567 -2.69004 -2.02826 0
M  V30 2699 O 263.097 -2.53444 -3.11655 0
M  V30 2700 N 261.303 -2.2777 -1.80469 0
M  V30 2701 H 260.85 -2.40626 -0.919615 0
M  V30 2702 H 260.808 -1.83635 -2.55197 0
M  V30 2703 N 264.58 -0.43555 -1.51462 0
M  V30 2704 C 265.543 0.365137 -2.26273 0
M  V30 2705 C 266.543 0.951227 -1.29647 0
M  V30 2706 O 267.733 0.825958 -1.53374 0
M  V30 2707 C 264.865 1.51645 -3.05314 0
M  V30 2708 H 266.058 -0.290474 -2.9849 0
M  V30 2709 H 263.611 -0.188676 -1.55157 0
M  V30 2710 H 264.346 2.20816 -2.3751 0
M  V30 2711 H 264.131 1.10238 -3.76284 0
M  V30 2712 H 265.621 2.08218 -3.61987 0
M  V30 2713 N 266.058 1.56714 -0.166846 0
M  V30 2714 C 267.304 1.97813 0.473473 0
M  V30 2715 C 267.659 1.05095 1.61161 0
M  V30 2716 O 266.952 0.0897541 1.9139 0
M  V30 2717 C 267.146 3.42889 1.00806 0
M  V30 2718 C 266.975 4.49635 -0.0767392 0
M  V30 2719 C 265.745 5.02566 -0.524894 0
M  V30 2720 C 267.943 5.06793 -0.875504 0
M  V30 2721 N 265.925 5.9294 -1.59047 0
M  V30 2722 C 267.296 5.93565 -1.79111 0
M  V30 2723 C 269.351 4.89306 -0.921083 0
M  V30 2724 C 268.054 6.64721 -2.74843 0
M  V30 2725 C 270.08 5.61179 -1.86633 0
M  V30 2726 C 269.442 6.47675 -2.76942 0
M  V30 2727 H 265.541 0.769093 0.141489 0
M  V30 2728 H 268.125 1.92874 -0.266031 0
M  V30 2729 H 266.296 3.48382 1.7171 0
M  V30 2730 H 268.028 3.71008 1.61664 0
M  V30 2731 H 264.783 4.73439 -0.123432 0
M  V30 2732 H 265.207 6.42831 -2.12361 0
M  V30 2733 H 269.849 4.22136 -0.23692 0
M  V30 2734 H 267.567 7.31107 -3.44249 0
M  V30 2735 H 271.153 5.49636 -1.90764 0
M  V30 2736 H 270.033 7.02313 -3.48893 0
M  V30 2737 N 267.536 -0.106894 1.57237 0
M  V30 2738 C 268.483 -1.13049 2.01217 0
M  V30 2739 C 269.453 -1.40471 0.886403 0
M  V30 2740 O 270.638 -1.52133 1.15153 0
M  V30 2741 C 267.778 -2.4487 2.43172 0
M  V30 2742 C 266.891 -2.24281 3.69218 0
M  V30 2743 C 266.026 -3.49417 4.00101 0
M  V30 2744 C 265.065 -3.24038 5.19294 0
M  V30 2745 N 264.202 -4.41409 5.45988 0
M  V30 2746 H 269.042 -0.748456 2.88448 0
M  V30 2747 H 266.579 -0.358054 1.42676 0
M  V30 2748 H 268.537 -3.21786 2.65537 0
M  V30 2749 H 267.167 -2.80944 1.58967 0
M  V30 2750 H 266.219 -1.38224 3.54398 0
M  V30 2751 H 267.531 -2.01512 4.56283 0
M  V30 2752 H 266.685 -4.34746 4.2318 0
M  V30 2753 H 265.424 -3.75229 3.11535 0
M  V30 2754 H 264.429 -2.37102 4.96047 0
M  V30 2755 H 265.654 -2.99584 6.09447 0
M  V30 2756 H 263.6 -4.67319 4.60379 0
M  V30 2757 H 263.517 -4.21788 6.274 0
M  V30 2758 H 264.785 -5.27836 5.73593 0
M  V30 2759 N 269.014 -1.53014 -0.377408 0
M  V30 2760 C 270.239 -1.72818 -1.14668 0
M  V30 2761 C 270.664 -0.450725 -1.8262 0
M  V30 2762 O 270.022 0.59439 -1.7128 0
M  V30 2763 C 270.07 -2.88627 -2.16164 0
M  V30 2764 O 269.174 -2.56409 -3.22998 0
M  V30 2765 H 268.515 -0.574301 -0.333278 0
M  V30 2766 H 271.045 -1.99853 -0.438152 0
M  V30 2767 H 271.055 -3.14455 -2.59966 0
M  V30 2768 H 269.73 -3.81294 -1.66095 0
M  V30 2769 H 268.307 -2.4136 -2.84253 0
M  V30 2770 N 270.492 0.636531 -1.44174 0
M  V30 2771 C 271.442 1.74233 -1.47061 0
M  V30 2772 C 272.426 1.57331 -0.337034 0
M  V30 2773 O 273.618 1.67159 -0.581973 0
M  V30 2774 C 270.747 3.12897 -1.41246 0
M  V30 2775 C 269.833 3.35288 -2.59698 0
M  V30 2776 N 270.224 3.2807 -3.84972 0
M  V30 2777 C 268.522 3.66065 -2.54778 0
M  V30 2778 C 269.223 3.51001 -4.63867 0
M  V30 2779 N 268.199 3.73616 -3.94857 0
M  V30 2780 H 272.001 1.67103 -2.41773 0
M  V30 2781 H 269.515 0.838806 -1.3906 0
M  V30 2782 H 271.512 3.92189 -1.41398 0
M  V30 2783 H 270.172 3.21197 -0.47569 0
M  V30 2784 H 271.183 3.07109 -4.17019 0
M  V30 2785 H 267.86 3.81379 -1.6987 0
M  V30 2786 H 269.25 3.51059 -5.72894 0
M  V30 2787 N 271.97 1.30982 0.876444 0
M  V30 2788 C 273.218 1.20058 1.62575 0
M  V30 2789 C 273.539 -0.242947 1.93481 0
M  V30 2790 O 272.809 -1.1619 1.57724 0
M  V30 2791 H 271.389 0.44135 0.602677 0
M  V30 2792 H 274.051 1.64222 1.04962 0
M  V30 2793 H 273.147 1.76762 2.57219 0
M  V30 2794 N 273.449 -1.08991 1.13837 0
M  V30 2795 C 274.382 -2.15049 0.763477 0
M  V30 2796 C 275.36 -1.60629 -0.252398 0
M  V30 2797 O 276.544 -1.87958 -0.142853 0
M  V30 2798 C 273.671 -3.38441 0.132545 0
M  V30 2799 C 272.717 -4.11596 1.11763 0
M  V30 2800 S 273.55 -4.6521 2.65216 0
M  V30 2801 C 274.706 -5.91896 2.03495 0
M  V30 2802 H 274.939 -2.46518 1.66182 0
M  V30 2803 H 272.472 -1.21008 0.958976 0
M  V30 2804 H 274.43 -4.09883 -0.225074 0
M  V30 2805 H 273.091 -3.05182 -0.743135 0
M  V30 2806 H 272.284 -5.00121 0.624076 0
M  V30 2807 H 271.886 -3.46038 1.41894 0
M  V30 2808 H 274.178 -6.63156 1.38675 0
M  V30 2809 H 275.121 -6.45938 2.9012 0
M  V30 2810 H 275.529 -5.44625 1.48471 0
M  V30 2811 N 274.927 -0.932562 -1.27047 0
M  V30 2812 C 275.875 -0.42603 -2.28665 0
M  V30 2813 C 276.869 0.49219 -1.62092 0
M  V30 2814 O 278.075 0.371355 -1.76128 0
M  V30 2815 H 274.45 -0.119213 -0.742491 0
M  V30 2816 H 276.421 -1.29579 -2.68797 0
M  V30 2817 C 275.17 0.301426 -3.46391 0
M  V30 2818 H 274.493 -0.39595 -3.97834 0
M  V30 2819 H 275.933 0.6202 -4.1944 0
M  V30 2820 C 274.392 1.51616 -3.00856 0
M  V30 2821 O 274.922 2.61476 -3.04948 0
M  V30 2822 N 273.128 1.36969 -2.56296 0
M  V30 2823 H 272.675 0.475873 -2.53166 0
M  V30 2824 H 272.633 2.18368 -2.26192 0
M  V30 2825 N 276.405 1.4127 -0.698611 0
M  V30 2826 C 277.335 2.33447 -0.049629 0
M  V30 2827 C 278.316 1.51982 0.763898 0
M  V30 2828 O 279.501 1.80509 0.716257 0
M  V30 2829 C 276.631 3.35828 0.885267 0
M  V30 2830 C 275.585 4.27627 0.178613 0
M  V30 2831 C 274.911 5.20406 1.22807 0
M  V30 2832 C 276.211 5.13459 -0.956933 0
M  V30 2833 H 277.905 2.87966 -0.81951 0
M  V30 2834 H 275.451 1.38461 -0.395538 0
M  V30 2835 H 277.404 3.9924 1.34854 0
M  V30 2836 H 276.128 2.79666 1.68685 0
M  V30 2837 H 274.787 3.65643 -0.26466 0
M  V30 2838 H 274.435 4.60558 2.02226 0
M  V30 2839 H 274.135 5.82661 0.760239 0
M  V30 2840 H 275.659 5.86695 1.69179 0
M  V30 2841 H 277.073 5.70421 -0.573805 0
M  V30 2842 H 275.47 5.8467 -1.35205 0
M  V30 2843 H 276.54 4.50443 -1.79524 0
M  V30 2844 N 277.883 0.443576 1.51229 0
M  V30 2845 C 279.131 -0.120557 2.0174 0
M  V30 2846 C 279.452 -1.42665 1.32935 0
M  V30 2847 O 278.722 -1.9028 0.465866 0
M  V30 2848 H 277.302 -0.0475426 0.745486 0
M  V30 2849 H 279.964 0.587711 1.85828 0
M  V30 2850 H 279.06 -0.291972 3.10731 0
M  V30 2851 N 279.361 -1.56624 0.175154 0
M  V30 2852 C 280.586 -2.01813 -0.478137 0
M  V30 2853 C 281.011 -1.05457 -1.55757 0
M  V30 2854 O 280.369 -0.0347439 -1.81267 0
M  V30 2855 C 280.417 -3.45581 -1.02987 0
M  V30 2856 O 279.521 -3.52305 -2.14371 0
M  V30 2857 H 278.862 -0.65413 -0.114059 0
M  V30 2858 H 281.392 -2.02673 0.280173 0
M  V30 2859 H 281.402 -3.84965 -1.35151 0
M  V30 2860 H 280.077 -4.1521 -0.239556 0
M  V30 2861 H 278.654 -3.24783 -1.83222 0
M  V30 2862 N 280.839 0.0985539 -1.57292 0
M  V30 2863 C 281.787 1.1387 -2.02821 0
M  V30 2864 C 282.781 1.41676 -0.928666 0
M  V30 2865 O 283.987 1.41398 -1.11385 0
M  V30 2866 H 280.362 0.384419 -0.646317 0
M  V30 2867 H 282.333 0.728347 -2.89375 0
M  V30 2868 C 281.082 2.45166 -2.46554 0
M  V30 2869 H 280.405 2.24613 -3.3074 0
M  V30 2870 H 281.845 3.16456 -2.8219 0
M  V30 2871 C 280.304 3.09216 -1.33742 0
M  V30 2872 O 280.834 3.96163 -0.66464 0
M  V30 2873 N 279.04 2.69413 -1.08928 0
M  V30 2874 H 278.587 1.98801 -1.63817 0
M  V30 2875 H 278.545 3.12594 -0.336458 0
M  V30 2876 N 282.317 1.53212 0.369288 0
M  V30 2877 C 283.563 1.70413 1.11046 0
M  V30 2878 C 283.918 0.448509 1.87099 0
M  V30 2879 O 283.211 -0.558382 1.83283 0
M  V30 2880 C 283.405 2.89101 2.10132 0
M  V30 2881 C 283.234 4.26084 1.43814 0
M  V30 2882 C 282.004 4.90994 1.19384 0
M  V30 2883 C 284.202 5.06754 0.877802 0
M  V30 2884 N 282.184 6.11911 0.49377 0
M  V30 2885 C 283.555 6.1924 0.306891 0
M  V30 2886 C 285.61 4.91814 0.776129 0
M  V30 2887 C 284.313 7.1842 -0.355774 0
M  V30 2888 C 286.339 5.91263 0.127252 0
M  V30 2889 C 285.701 7.03069 -0.432801 0
M  V30 2890 H 281.8 0.676872 0.391623 0
M  V30 2891 H 284.384 1.90603 0.397334 0
M  V30 2892 H 282.555 2.70456 2.78761 0
M  V30 2893 H 284.287 2.95142 2.76899 0
M  V30 2894 H 281.042 4.50074 1.47413 0
M  V30 2895 H 281.466 6.76813 0.159207 0
M  V30 2896 H 286.108 4.05564 1.19489 0
M  V30 2897 H 283.826 8.04264 -0.786499 0
M  V30 2898 H 287.412 5.81779 0.0495613 0
M  V30 2899 H 286.292 7.78702 -0.926958 0
M  V30 2900 N 283.795 -0.628877 1.44509 0
M  V30 2901 C 284.758 -1.72263 1.51188 0
M  V30 2902 C 285.758 -1.55907 0.39367 0
M  V30 2903 O 286.948 -1.61361 0.656377 0
M  V30 2904 C 284.08 -3.11365 1.38798 0
M  V30 2905 H 285.273 -1.67714 2.4862 0
M  V30 2906 H 282.826 -0.842737 1.31634 0
M  V30 2907 H 283.561 -3.21507 0.424693 0
M  V30 2908 H 283.346 -3.24644 2.19884 0
M  V30 2909 H 284.836 -3.91075 1.46458 0
M  V30 2910 N 285.273 -1.31445 -0.869486 0
M  V30 2911 C 286.503 -1.23942 -1.65294 0
M  V30 2912 C 286.911 0.197561 -1.88166 0
M  V30 2913 O 286.254 1.14019 -1.44033 0
M  V30 2914 C 286.316 -1.91385 -3.04322 0
M  V30 2915 C 285.98 -3.40726 -3.04557 0
M  V30 2916 C 286.977 -4.36464 -2.82481 0
M  V30 2917 C 284.662 -3.82425 -3.25663 0
M  V30 2918 C 286.656 -5.71876 -2.8149 0
M  V30 2919 C 284.343 -5.1795 -3.243 0
M  V30 2920 C 285.341 -6.12486 -3.02241 0
M  V30 2921 O 285.029 -7.45534 -3.00724 0
M  V30 2922 H 284.761 -0.429459 -0.522054 0
M  V30 2923 H 287.315 -1.73873 -1.0935 0
M  V30 2924 H 285.545 -1.36004 -3.61994 0
M  V30 2925 H 287.234 -1.77791 -3.64891 0
M  V30 2926 H 288 -4.05576 -2.65956 0
M  V30 2927 H 283.879 -3.09274 -3.41863 0
M  V30 2928 H 287.423 -6.45638 -2.64191 0
M  V30 2929 H 283.32 -5.48473 -3.40365 0
M  V30 2930 H 284.088 -7.54713 -3.16782 0
M  V30 2931 N 286.751 1.08385 -1.14413 0
M  V30 2932 C 287.683 2.1519 -0.789036 0
M  V30 2933 C 288.696 1.61638 0.19417 0
M  V30 2934 O 289.885 1.78479 -0.0275711 0
M  V30 2935 C 286.985 3.38565 -0.15058 0
M  V30 2936 C 286.158 4.21501 -1.16857 0
M  V30 2937 C 285.217 5.23277 -0.553832 0
M  V30 2938 O 284.243 5.56041 -1.21686 0
M  V30 2939 N 285.445 5.76629 0.669296 0
M  V30 2940 H 288.21 2.46257 -1.70814 0
M  V30 2941 H 285.771 1.24198 -1.03858 0
M  V30 2942 H 287.763 4.03777 0.273181 0
M  V30 2943 H 286.333 3.05299 0.671667 0
M  V30 2944 H 285.553 3.52265 -1.76926 0
M  V30 2945 H 286.841 4.73731 -1.85624 0
M  V30 2946 H 286.239 5.52243 1.22654 0
M  V30 2947 H 284.796 6.43521 1.03556 0
M  V30 2948 N 288.23 0.939286 1.26551 0
M  V30 2949 C 289.476 0.586715 1.94128 0
M  V30 2950 C 289.809 -0.8717 1.73537 0
M  V30 2951 O 289.084 -1.62339 1.07127 0
M  V30 2952 C 289.367 0.927497 3.4795 0
M  V30 2953 C 289.22 2.44052 3.77834 0
M  V30 2954 C 290.539 0.441569 4.37879 0
M  V30 2955 H 287.658 0.21463 0.705055 0
M  V30 2956 H 290.3 1.17316 1.49455 0
M  V30 2957 H 288.45 0.428431 3.8613 0
M  V30 2958 H 290.122 3.01216 3.4938 0
M  V30 2959 H 288.365 2.8848 3.23978 0
M  V30 2960 H 289.036 2.62947 4.85348 0
M  V30 2961 H 291.512 0.869448 4.06915 0
M  V30 2962 H 290.388 0.708856 5.44304 0
M  V30 2963 H 290.649 -0.658467 4.37169 0
M  V30 2964 N 289.708 -1.40897 0.706093 0
M  V30 2965 C 290.641 -2.282 -0.00328781 0
M  V30 2966 C 291.619 -1.42816 -0.77732 0
M  V30 2967 O 292.803 -1.72237 -0.765944 0
M  V30 2968 C 289.93 -3.23226 -1.01205 0
M  V30 2969 C 288.976 -4.25222 -0.329955 0
M  V30 2970 S 289.809 -5.27269 0.935298 0
M  V30 2971 C 290.965 -6.25859 -0.0716061 0
M  V30 2972 H 291.198 -2.88016 0.737143 0
M  V30 2973 H 288.731 -1.46191 0.496756 0
M  V30 2974 H 290.689 -3.78503 -1.58888 0
M  V30 2975 H 289.35 -2.62485 -1.72513 0
M  V30 2976 H 288.543 -4.92023 -1.09221 0
M  V30 2977 H 288.145 -3.73595 0.174069 0
M  V30 2978 H 290.437 -6.71204 -0.921521 0
M  V30 2979 H 291.38 -7.0586 0.562765 0
M  V30 2980 H 291.788 -5.62852 -0.431088 0
M  V30 2981 N 291.186 -0.45159 -1.50991 0
M  V30 2982 C 292.149 0.341117 -2.26647 0
M  V30 2983 C 293.149 0.937422 -1.30649 0
M  V30 2984 O 294.339 0.809644 -1.54241 0
M  V30 2985 C 291.471 1.48398 -3.06905 0
M  V30 2986 H 292.664 -0.322117 -2.98165 0
M  V30 2987 H 290.217 -0.205122 -1.54948 0
M  V30 2988 H 290.952 2.18284 -2.39838 0
M  V30 2989 H 290.737 1.06241 -3.77432 0
M  V30 2990 H 292.227 2.04367 -3.64176 0
M  V30 2991 N 292.664 1.56529 -0.183458 0
M  V30 2992 C 293.892 2.01623 0.464285 0
M  V30 2993 C 294.307 1.06366 1.55986 0
M  V30 2994 O 293.664 0.0665398 1.82379 0
M  V30 2995 C 293.715 3.46475 1.03139 0
M  V30 2996 O 293.436 4.38095 -0.0204675 0
M  V30 2997 C 294.937 4.0703 1.75617 0
M  V30 2998 H 292.157 0.660596 0.117704 0
M  V30 2999 H 294.701 2.02451 -0.288751 0
M  V30 3000 H 292.856 3.46383 1.73486 0
M  V30 3001 H 293.27 5.22973 0.399952 0
M  V30 3002 H 294.744 5.10271 2.10542 0
M  V30 3003 H 295.221 3.49819 2.65563 0
M  V30 3004 H 295.827 4.1086 1.09882 0
M  V30 3005 N 294.142 -0.090211 1.57342 0
M  V30 3006 C 295.052 -1.12735 2.05738 0
M  V30 3007 C 296.068 -1.43557 0.983231 0
M  V30 3008 O 297.244 -1.54101 1.29672 0
M  V30 3009 C 294.309 -2.42659 2.47624 0
M  V30 3010 C 293.37 -2.18975 3.69254 0
M  V30 3011 C 292.603 -3.42704 4.09133 0
M  V30 3012 O 292.826 -4.51127 3.49057 0
M  V30 3013 O 291.76 -3.32003 5.02053 0
M  V30 3014 H 295.586 -0.746279 2.94388 0
M  V30 3015 H 293.171 -0.303064 1.46294 0
M  V30 3016 H 295.053 -3.19155 2.7517 0
M  V30 3017 H 293.728 -2.80182 1.62109 0
M  V30 3018 H 292.635 -1.40244 3.46818 0
M  V30 3019 H 293.968 -1.86342 4.55563 0
M  V30 3020 N 295.62 -1.53406 -0.361157 0
M  V30 3021 C 296.868 -1.69467 -1.10115 0
M  V30 3022 C 297.189 -0.451352 -1.89705 0
M  V30 3023 O 296.459 0.534636 -1.88463 0
M  V30 3024 H 295.039 -0.624749 -0.409508 0
M  V30 3025 H 297.701 -1.90609 -0.406699 0
M  V30 3026 H 296.797 -2.55774 -1.78847 0
M  V30 3027 N 297.098 0.621204 -1.44841 0
M  V30 3028 C 298.328 1.40548 -1.51426 0
M  V30 3029 C 298.736 1.88673 -0.141083 0
M  V30 3030 O 298.079 1.62053 0.865128 0
M  V30 3031 C 298.141 2.65325 -2.42576 0
M  V30 3032 C 297.805 2.3893 -3.89566 0
M  V30 3033 C 298.802 2.00138 -4.79834 0
M  V30 3034 C 296.487 2.52263 -4.3436 0
M  V30 3035 C 298.481 1.75021 -6.129 0
M  V30 3036 C 296.168 2.2676 -5.67471 0
M  V30 3037 C 297.166 1.88199 -6.56559 0
M  V30 3038 O 296.854 1.62986 -7.87204 0
M  V30 3039 H 296.586 0.437122 -0.515655 0
M  V30 3040 H 299.14 0.765987 -1.90583 0
M  V30 3041 H 297.37 3.31947 -1.98364 0
M  V30 3042 H 299.059 3.27347 -2.39998 0
M  V30 3043 H 299.825 1.89386 -4.46495 0
M  V30 3044 H 295.704 2.81246 -3.65269 0
M  V30 3045 H 299.248 1.44848 -6.82396 0
M  V30 3046 H 295.145 2.37125 -6.00368 0
M  V30 3047 H 295.913 1.7715 -7.991 0
M  V30 3048 N 298.576 1.31904 0.862503 0
M  V30 3049 C 299.508 1.16005 1.97675 0
M  V30 3050 C 300.521 0.0971234 1.6251 0
M  V30 3051 O 301.71 0.345337 1.75128 0
M  V30 3052 C 298.81 0.751791 3.30456 0
M  V30 3053 C 297.983 1.90133 3.93914 0
M  V30 3054 C 297.042 1.4779 5.05019 0
M  V30 3055 O 296.068 2.18872 5.25437 0
M  V30 3056 N 297.27 0.369491 5.79323 0
M  V30 3057 H 300.035 2.11982 2.11857 0
M  V30 3058 H 297.596 1.24337 1.03691 0
M  V30 3059 H 299.588 0.451084 4.02178 0
M  V30 3060 H 298.158 -0.116593 3.12382 0
M  V30 3061 H 297.378 2.36896 3.15078 0
M  V30 3062 H 298.666 2.67111 4.33047 0
M  V30 3063 H 298.064 -0.222299 5.65263 0
M  V30 3064 H 296.621 0.128354 6.51674 0
M  V30 3065 N 300.054 -1.07777 1.14986 0
M  V30 3066 C 301.279 -1.84558 0.946213 0
M  V30 3067 C 301.704 -1.81323 -0.500362 0
M  V30 3068 O 301.062 -1.20301 -1.35637 0
M  V30 3069 C 301.11 -3.29736 1.45968 0
M  V30 3070 O 300.214 -4.07149 0.65601 0
M  V30 3071 H 299.555 -0.571641 0.33782 0
M  V30 3072 H 302.085 -1.35991 1.52865 0
M  V30 3073 H 302.095 -3.80574 1.47063 0
M  V30 3074 H 300.77 -3.31406 2.51283 0
M  V30 3075 H 299.347 -3.65994 0.714322 0
M  V30 3076 N 301.532 -0.945985 -1.26051 0
M  V30 3077 C 302.757 -0.612525 -1.98149 0
M  V30 3078 C 303.182 0.806623 -1.69927 0
M  V30 3079 O 302.54 1.54411 -0.950108 0
M  V30 3080 C 302.588 -0.866981 -3.50023 0
M  V30 3081 O 301.692 0.0585333 -4.12358 0
M  V30 3082 H 301.033 -0.23379 -0.621481 0
M  V30 3083 H 303.563 -1.27023 -1.60395 0
M  V30 3084 H 303.573 -0.789792 -4.00283 0
M  V30 3085 H 302.248 -1.90135 -3.69894 0
M  V30 3086 H 300.825 -0.0701241 -3.72834 0
M  V30 3087 N 303.011 1.40521 -0.713556 0
M  V30 3088 C 304.259 2.00527 -0.251692 0
M  V30 3089 C 304.58 1.56857 1.15848 0
M  V30 3090 O 303.85 0.807127 1.785 0
M  V30 3091 H 302.43 0.741551 -0.0900646 0
M  V30 3092 H 305.092 1.71887 -0.918733 0
M  V30 3093 H 304.188 3.10813 -0.283192 0
M  V30 3094 N 304.489 0.459591 1.5075 0
M  V30 3095 C 305.714 -0.0996819 2.0716 0
M  V30 3096 C 306.139 -1.33761 1.32249 0
M  V30 3097 O 305.497 -1.77551 0.366786 0
M  V30 3098 C 305.545 -0.378226 3.58611 0
M  V30 3099 O 304.649 -1.46081 3.85661 0
M  V30 3100 H 303.99 0.00791392 0.663953 0
M  V30 3101 H 306.52 0.647329 1.9409 0
M  V30 3102 H 306.53 -0.622135 4.03229 0
M  V30 3103 H 305.205 0.526439 4.12555 0
M  V30 3104 H 303.782 -1.20511 3.5289 0
M  V30 3105 N 305.967 -1.56429 0.191757 0
M  V30 3106 C 307.192 -2.02309 -0.456706 0
M  V30 3107 C 307.617 -1.07103 -1.5463 0
M  V30 3108 O 306.975 -0.0539677 -1.8122 0
M  V30 3109 C 307.023 -3.46654 -0.993159 0
M  V30 3110 O 306.127 -3.54559 -2.10622 0
M  V30 3111 H 305.468 -0.655303 -0.107114 0
M  V30 3112 H 307.998 -2.02364 0.301653 0
M  V30 3113 H 308.008 -3.86377 -1.31061 0
M  V30 3114 H 306.683 -4.1544 -0.195504 0
M  V30 3115 H 305.26 -3.26708 -1.79767 0
M  V30 3116 N 307.445 0.0818655 -1.57387 0
M  V30 3117 C 308.393 1.11712 -2.04018 0
M  V30 3118 C 309.387 1.40683 -0.94364 0
M  V30 3119 O 310.593 1.40209 -1.12878 0
M  V30 3120 H 306.968 0.377542 -0.650358 0
M  V30 3121 H 308.939 0.697614 -2.90131 0
M  V30 3122 C 307.688 2.42537 -2.49141 0
M  V30 3123 H 307.011 2.21092 -3.33104 0
M  V30 3124 H 308.451 3.13446 -2.85531 0
M  V30 3125 C 306.91 3.0778 -1.37014 0
M  V30 3126 O 307.44 3.95436 -0.706621 0
M  V30 3127 N 305.646 2.68242 -1.11779 0
M  V30 3128 H 305.193 1.97052 -1.65917 0
M  V30 3129 H 305.151 3.1222 -0.369594 0
M  V30 3130 N 308.923 1.53595 0.353017 0
M  V30 3131 C 310.169 1.70638 1.09593 0
M  V30 3132 C 310.502 0.463286 1.88593 0
M  V30 3133 O 309.777 -0.539597 1.86865 0
M  V30 3134 C 310.06 2.96406 2.04489 0
M  V30 3135 C 309.913 4.30901 1.29014 0
M  V30 3136 C 311.232 3.17812 3.0444 0
M  V30 3137 H 308.351 0.620913 0.397034 0
M  V30 3138 H 310.993 1.86254 0.375446 0
M  V30 3139 H 309.143 2.83223 2.65927 0
M  V30 3140 H 310.815 4.55917 0.702638 0
M  V30 3141 H 309.058 4.29741 0.592071 0
M  V30 3142 H 309.729 5.1506 1.98537 0
M  V30 3143 H 312.205 3.30263 2.53112 0
M  V30 3144 H 311.081 4.07223 3.6805 0
M  V30 3145 H 311.342 2.33669 3.75301 0
M  V30 3146 N 310.401 -0.613514 1.45168 0
M  V30 3147 C 311.629 -1.39946 1.5239 0
M  V30 3148 C 312.044 -1.88167 0.154531 0
M  V30 3149 O 311.401 -1.61872 -0.842843 0
M  V30 3150 C 311.452 -2.60795 2.50337 0
M  V30 3151 O 311.173 -2.1458 3.81952 0
M  V30 3152 C 312.674 -3.53723 2.67198 0
M  V30 3153 H 309.894 -0.428593 0.516284 0
M  V30 3154 H 312.438 -0.748753 1.903 0
M  V30 3155 H 310.593 -3.21919 2.15515 0
M  V30 3156 H 311.007 -2.93055 4.34993 0
M  V30 3157 H 312.481 -4.35079 3.39721 0
M  V30 3158 H 312.958 -4.0368 1.73029 0
M  V30 3159 H 313.564 -2.98456 3.02992 0
M  V30 3160 N 311.879 -1.3236 -0.855495 0
M  V30 3161 C 313.125 -1.23054 -1.612 0
M  V30 3162 C 313.458 0.207404 -1.93089 0
M  V30 3163 O 312.733 1.14432 -1.57275 0
M  V30 3164 C 313.016 -2.08937 -2.93287 0
M  V30 3165 C 312.869 -3.61105 -2.68185 0
M  V30 3166 C 314.188 -1.94986 -3.94549 0
M  V30 3167 H 311.307 -0.448364 -0.584926 0
M  V30 3168 H 313.949 -1.62297 -0.987917 0
M  V30 3169 H 312.099 -1.75599 -3.46551 0
M  V30 3170 H 313.771 -4.04652 -2.21483 0
M  V30 3171 H 312.014 -3.83813 -2.02164 0
M  V30 3172 H 312.685 -4.16522 -3.62234 0
M  V30 3173 H 315.161 -2.24189 -3.5054 0
M  V30 3174 H 314.037 -2.57356 -4.84829 0
M  V30 3175 H 314.298 -0.917263 -4.3248 0
M  V30 3176 N 313.357 1.07166 -1.15556 0
M  V30 3177 C 314.603 1.80222 -0.942961 0
M  V30 3178 C 314.958 1.85121 0.524209 0
M  V30 3179 O 314.251 1.32531 1.38369 0
M  V30 3180 C 314.445 3.24707 -1.49332 0
M  V30 3181 C 314.274 3.33887 -3.01247 0
M  V30 3182 C 313.044 3.44337 -3.69811 0
M  V30 3183 C 315.242 3.24484 -3.99017 0
M  V30 3184 N 313.224 3.42439 -5.09518 0
M  V30 3185 C 314.595 3.29726 -5.25053 0
M  V30 3186 C 316.65 3.08307 -3.90962 0
M  V30 3187 C 315.353 3.20455 -6.43973 0
M  V30 3188 C 317.379 3.00371 -5.09442 0
M  V30 3189 C 316.741 3.06227 -6.34354 0
M  V30 3190 H 312.84 0.672709 -0.398731 0
M  V30 3191 H 315.424 1.27905 -1.46794 0
M  V30 3192 H 313.595 3.7544 -0.994946 0
M  V30 3193 H 315.327 3.85894 -1.21935 0
M  V30 3194 H 312.082 3.48762 -3.20409 0
M  V30 3195 H 312.506 3.45013 -5.8249 0
M  V30 3196 H 317.148 3.02633 -2.95251 0
M  V30 3197 H 314.866 3.24888 -7.39914 0
M  V30 3198 H 318.452 2.88955 -5.04971 0
M  V30 3199 H 317.332 3.00132 -7.24493 0
M  V30 3200 O 314.874 1.08282 1.19822 0
M  V30 3201 H 315.565 0.773615 1.77581 0
M  V30 END ATOM
M  V30 BEGIN BOND
M  V30 END BOND
M  V30 END CTAB
M  END
$$$$
