drugbank_target|P09958 Furin (DB03600)
 OpenBabel12092120143D

  0  0  0     0  0            999 V3000
M  V30 BEGIN CTAB
M  V30 COUNTS 11980 12130 0 0 0
M  V30 BEGIN ATOM
M  V30 1 H -0.908 1.98254 -0.117106 0
M  V30 2 N 0 1.576 0 0
M  V30 3 C 0.933 2.03868 1.02534 0
M  V30 4 C 1.911 0.928543 1.3348 0
M  V30 5 O 3.095 1.19667 1.45644 0
M  V30 6 C 0.222 2.43627 2.35294 0
M  V30 7 C -0.732 3.65373 2.2001 0
M  V30 8 S 0.101 5.13292 1.52614 0
M  V30 9 C 1.257 5.56322 2.86805 0
M  V30 10 H 1.49 2.90518 0.631377 0
M  V30 11 H -0.977 1.52953 0.210867 0
M  V30 12 H 0.981 2.67203 3.11629 0
M  V30 13 H -0.358 1.57376 2.7183 0
M  V30 14 H -1.165 3.90944 3.18086 0
M  V30 15 H -1.563 3.418 1.51819 0
M  V30 16 H 0.729 5.58782 3.83104 0
M  V30 17 H 1.672 6.56266 2.65933 0
M  V30 18 H 2.08 4.83886 2.90714 0
M  V30 19 N 1.4781 -0.272755 1.55222 0
M  V30 20 C 2.3881 -1.35918 1.91216 0
M  V30 21 C 3.4041 -1.54026 0.809436 0
M  V30 22 O 4.5801 -1.68148 1.10852 0
M  V30 23 C 1.6451 -2.69834 2.17693 0
M  V30 24 C 0.7061 -2.6047 3.41253 0
M  V30 25 C -0.0609 -3.88 3.66458 0
M  V30 26 O 0.1621 -4.88693 2.94169 0
M  V30 27 O -0.9039 -3.88189 4.59992 0
M  V30 28 H 2.9221 -1.0839 2.83699 0
M  V30 29 H 0.5071 -0.471301 1.41771 0
M  V30 30 H 2.3891 -3.49017 2.36147 0
M  V30 31 H 1.0641 -2.97148 1.28392 0
M  V30 32 H -0.0289 -1.79663 3.28134 0
M  V30 33 H 1.3041 -2.38106 4.30774 0
M  V30 34 N 2.9562 -1.48159 -0.537278 0
M  V30 35 C 3.8862 -1.65029 -1.6519 0
M  V30 36 C 4.8672 -0.499281 -1.62607 0
M  V30 37 O 6.0522 -0.730972 -1.79918 0
M  V30 38 C 3.1822 -1.68303 -3.03795 0
M  V30 39 C 2.1362 -2.8283 -3.21234 0
M  V30 40 C 1.4622 -2.71189 -4.60826 0
M  V30 41 C 2.7622 -4.24211 -3.04701 0
M  V30 42 H 4.4562 -2.58341 -1.51328 0
M  V30 43 H 2.0022 -1.24325 -0.726585 0
M  V30 44 H 3.9552 -1.78693 -3.81637 0
M  V30 45 H 2.6792 -0.715635 -3.18663 0
M  V30 46 H 1.3382 -2.71983 -2.45807 0
M  V30 47 H 0.9862 -1.72435 -4.7252 0
M  V30 48 H 0.6862 -3.48035 -4.7344 0
M  V30 49 H 2.2102 -2.83537 -5.40777 0
M  V30 50 H 3.6242 -4.3593 -3.72341 0
M  V30 51 H 2.0212 -5.01998 -3.28813 0
M  V30 52 H 3.0912 -4.41184 -2.01209 0
M  V30 53 N 4.4343 0.785586 -1.36625 0
M  V30 54 C 5.8503 1.08419 -1.17122 0
M  V30 55 C 6.0503 2.015 0.00208491 0
M  V30 56 O 5.1063 2.43551 0.666278 0
M  V30 57 C 6.4193 1.69498 -2.48377 0
M  V30 58 C 7.9673 1.81821 -2.54775 0
M  V30 59 C 8.4423 2.46315 -3.86126 0
M  V30 60 N 9.9333 2.53779 -3.87492 0
M  V30 61 C 10.6683 3.045 -4.85868 0
M  V30 62 N 10.1643 3.55499 -5.94637 0
M  V30 63 N 11.9573 3.03247 -4.73284 0
M  V30 64 H 4.1083 0.167264 -2.1174 0
M  V30 65 H 6.3713 0.13682 -0.938075 0
M  V30 66 H 6.0773 1.08571 -3.34522 0
M  V30 67 H 5.9513 2.6896 -2.64462 0
M  V30 68 H 8.3383 2.41884 -1.69045 0
M  V30 69 H 8.4193 0.811532 -2.42586 0
M  V30 70 H 8.0633 1.86895 -4.72263 0
M  V30 71 H 7.9933 3.47561 -3.95612 0
M  V30 72 H 10.4843 2.17672 -3.08913 0
M  V30 73 H 10.7973 3.92562 -6.65669 0
M  V30 74 H 9.1423 3.5364 -5.98301 0
M  V30 75 H 12.3333 2.62696 -3.87438 0
M  V30 76 H 12.5063 3.42467 -5.50109 0
M  V30 77 N 5.9124 1.20967 1.01018 0
M  V30 78 C 7.3234 1.02319 1.56165 0
M  V30 79 C 7.6744 -0.418546 1.91684 0
M  V30 80 O 6.7994 -1.30096 1.72928 0
M  V30 81 C 7.3944 1.85109 2.8376 0
M  V30 82 C 5.9534 1.70809 3.35412 0
M  V30 83 C 5.1004 1.82643 2.08655 0
M  V30 84 H 8.0514 1.35065 0.833255 0
M  V30 85 H 8.0724 1.35827 3.55431 0
M  V30 86 H 7.5844 2.90035 2.57878 0
M  V30 87 H 5.6854 0.685464 3.66241 0
M  V30 88 H 5.7984 2.52467 4.07182 0
M  V30 89 H 4.1624 1.25896 2.21409 0
M  V30 90 H 4.9454 2.89066 1.85191 0
M  V30 91 N 7.3905 -1.2043 1.01659 0
M  V30 92 C 8.6365 -1.90356 0.716674 0
M  V30 93 C 8.9915 -1.77367 -0.745557 0
M  V30 94 O 8.2845 -1.1471 -1.53467 0
M  V30 95 C 8.4785 -3.40464 1.08714 0
M  V30 96 C 8.3075 -3.6806 2.58384 0
M  V30 97 C 7.0775 -3.86775 3.25167 0
M  V30 98 C 9.2755 -3.70623 3.56572 0
M  V30 99 N 7.2575 -4.01889 4.64067 0
M  V30 100 C 8.6285 -3.91161 4.81034 0
M  V30 101 C 10.6835 -3.53586 3.50544 0
M  V30 102 C 9.3865 -3.96428 6.00198 0
M  V30 103 C 11.4125 -3.60125 4.6911 0
M  V30 104 C 10.7745 -3.81135 5.92381 0
M  V30 105 H 6.8735 -0.716226 0.313918 0
M  V30 106 H 9.4575 -1.44815 1.30141 0
M  V30 107 H 7.6285 -3.84757 0.530745 0
M  V30 108 H 9.3605 -3.97863 0.740763 0
M  V30 109 H 6.1155 -3.85156 2.75594 0
M  V30 110 H 6.5395 -4.13323 5.36184 0
M  V30 111 H 11.1815 -3.36308 2.56235 0
M  V30 112 H 8.8995 -4.12502 6.94887 0
M  V30 113 H 12.4855 -3.4825 4.66062 0
M  V30 114 H 11.3655 -3.86054 6.82592 0
M  V30 115 N 8.8686 -0.792821 -1.36206 0
M  V30 116 C 9.7986 -0.207853 -2.32573 0
M  V30 117 C 10.7796 0.659055 -1.56813 0
M  V30 118 O 11.9646 0.592176 -1.84951 0
M  V30 119 C 9.0946 0.655449 -3.41059 0
M  V30 120 C 8.0486 -0.111842 -4.27854 0
M  V30 121 C 7.3746 0.872274 -5.27537 0
M  V30 122 C 8.6746 -1.30299 -5.05786 0
M  V30 123 H 10.3686 -1.01294 -2.81744 0
M  V30 124 H 7.9146 -0.48854 -1.3546 0
M  V30 125 H 9.8676 1.07464 -4.07467 0
M  V30 126 H 8.5916 1.49328 -2.90463 0
M  V30 127 H 7.2506 -0.512053 -3.63006 0
M  V30 128 H 6.8986 1.70523 -4.73214 0
M  V30 129 H 6.5986 0.363291 -5.86476 0
M  V30 130 H 8.1226 1.28996 -5.96818 0
M  V30 131 H 9.5366 -0.959379 -5.65216 0
M  V30 132 H 7.9336 -1.7455 -5.74154 0
M  V30 133 H 9.0036 -2.09663 -4.37229 0
M  V30 134 N 10.3467 1.47872 -0.545128 0
M  V30 135 C 11.2767 2.32661 0.197793 0
M  V30 136 C 12.2577 1.43041 0.920504 0
M  V30 137 O 13.4427 1.71912 0.90333 0
M  V30 138 C 10.5727 3.24569 1.23582 0
M  V30 139 C 9.5267 4.23333 0.630323 0
M  V30 140 C 8.8527 5.0448 1.77211 0
M  V30 141 C 10.1527 5.20704 -0.407974 0
M  V30 142 H 11.8467 2.95024 -0.510045 0
M  V30 143 H 9.3927 1.4187 -0.246731 0
M  V30 144 H 11.3457 3.8272 1.76362 0
M  V30 145 H 10.0697 2.60236 1.97344 0
M  V30 146 H 8.7287 3.6639 0.123922 0
M  V30 147 H 8.3767 4.36561 2.49847 0
M  V30 148 H 8.0767 5.71339 1.37281 0
M  V30 149 H 9.6007 5.65487 2.3034 0
M  V30 150 H 11.0147 5.7329 0.033305 0
M  V30 151 H 9.4117 5.95699 -0.725486 0
M  V30 152 H 10.4817 4.66917 -1.30828 0
M  V30 153 N 11.8248 0.280983 1.55075 0
M  V30 154 C 13.0708 -0.327573 2.00745 0
M  V30 155 C 13.4258 -1.53045 1.16598 0
M  V30 156 O 12.7188 -1.90221 0.229451 0
M  V30 157 C 12.9128 -0.754656 3.49342 0
M  V30 158 C 12.7418 0.40529 4.4787 0
M  V30 159 C 11.5118 0.890947 4.97383 0
M  V30 160 C 13.7098 1.24371 4.99035 0
M  V30 161 N 11.6918 2.01975 5.79724 0
M  V30 162 C 13.0628 2.22031 5.7888 0
M  V30 163 C 15.1178 1.27638 4.81262 0
M  V30 164 C 13.8208 3.22709 6.42846 0
M  V30 165 C 15.8468 2.27164 5.46031 0
M  V30 166 C 15.2088 3.23556 6.25692 0
M  V30 167 H 11.3078 -0.0848774 0.77738 0
M  V30 168 H 13.8918 0.406342 1.90413 0
M  V30 169 H 12.0628 -1.45778 3.60005 0
M  V30 170 H 13.7948 -1.34105 3.81835 0
M  V30 171 H 10.5498 0.469262 4.71269 0
M  V30 172 H 10.9738 2.58794 6.25584 0
M  V30 173 H 15.6158 0.544936 4.19274 0
M  V30 174 H 13.3338 3.96784 7.0398 0
M  V30 175 H 16.9198 2.30441 5.34217 0
M  V30 176 H 15.7998 3.99309 6.74924 0
M  V30 177 N 13.3029 -1.57598 0.00835791 0
M  V30 178 C 14.5489 -1.91211 -0.675732 0
M  V30 179 C 14.8819 -0.883139 -1.72958 0
M  V30 180 O 14.1569 0.097016 -1.94258 0
M  V30 181 C 14.4399 -3.35379 -1.31123 0
M  V30 182 C 14.2929 -4.48999 -0.268356 0
M  V30 183 C 15.6119 -3.7912 -2.23508 0
M  V30 184 H 12.7309 -0.695374 -0.244179 0
M  V30 185 H 15.3729 -1.89901 0.0613655 0
M  V30 186 H 13.5229 -3.36626 -1.93946 0
M  V30 187 H 15.1949 -4.59887 0.360844 0
M  V30 188 H 13.4379 -4.31873 0.408482 0
M  V30 189 H 14.1089 -5.46851 -0.752218 0
M  V30 190 H 16.5849 -3.79477 -1.70693 0
M  V30 191 H 15.4609 -4.80729 -2.64936 0
M  V30 192 H 15.7219 -3.13455 -3.11766 0
M  V30 193 N 14.781 0.264519 -1.55364 0
M  V30 194 C 16.027 0.99646 -1.76631 0
M  V30 195 C 16.36 1.85632 -0.570478 0
M  V30 196 O 15.635 1.89647 0.43175 0
M  V30 197 C 15.918 1.87187 -3.07625 0
M  V30 198 C 15.771 1.04138 -4.37579 0
M  V30 199 C 17.09 2.85749 -3.34717 0
M  V30 200 H 14.209 0.360841 -0.642622 0
M  V30 201 H 16.851 0.268218 -1.88097 0
M  V30 202 H 15.001 2.49279 -2.9798 0
M  V30 203 H 16.673 0.440517 -4.59192 0
M  V30 204 H 14.916 0.345115 -4.32425 0
M  V30 205 H 15.587 1.68729 -5.2558 0
M  V30 206 H 18.063 2.33793 -3.4421 0
M  V30 207 H 16.939 3.44136 -4.27623 0
M  V30 208 H 17.2 3.61311 -2.54768 0
M  V30 209 N 16.2591 1.48442 0.529413 0
M  V30 210 C 17.2221 1.62524 1.61612 0
M  V30 211 C 18.2221 0.498509 1.52877 0
M  V30 212 O 19.4121 0.76431 1.56537 0
M  V30 213 C 16.5441 1.59597 3.01233 0
M  V30 214 H 17.7371 2.59423 1.50465 0
M  V30 215 H 15.2901 1.37047 0.751514 0
M  V30 216 H 16.0251 0.641781 3.17886 0
M  V30 217 H 15.8101 2.41397 3.08982 0
M  V30 218 H 17.3001 1.72646 3.80241 0
M  V30 219 N 17.7372 -0.778329 1.37039 0
M  V30 220 C 18.7002 -1.87301 1.32102 0
M  V30 221 C 19.7002 -1.59198 0.226405 0
M  V30 222 O 20.8902 -1.67403 0.481861 0
M  V30 223 C 18.0222 -3.24309 1.05055 0
M  V30 224 H 19.2152 -1.93093 2.29467 0
M  V30 225 H 16.7682 -0.977358 1.21973 0
M  V30 226 H 17.5032 -3.24196 0.0819373 0
M  V30 227 H 17.2882 -3.46098 1.84279 0
M  V30 228 H 18.7782 -4.04382 1.04234 0
M  V30 229 N 19.2153 -1.21501 -1.00376 0
M  V30 230 C 20.4433 -1.059 -1.77744 0
M  V30 231 C 20.8583 0.391125 -1.84704 0
M  V30 232 O 20.2153 1.27133 -1.30933 0
M  V30 233 C 20.2663 -1.65111 -3.21591 0
M  V30 234 O 19.9873 -3.0445 -3.15027 0
M  V30 235 C 21.4883 -1.54637 -4.15454 0
M  V30 236 H 18.7083 -0.371825 -0.558558 0
M  V30 237 H 21.2523 -1.60865 -1.26264 0
M  V30 238 H 19.4073 -1.14235 -3.70175 0
M  V30 239 H 19.8213 -3.3278 -4.0541 0
M  V30 240 H 21.2953 -2.00808 -5.14179 0
M  V30 241 H 21.7723 -0.501022 -4.36333 0
M  V30 242 H 22.3783 -2.04767 -3.72761 0
M  V30 243 N 20.6934 1.19889 -1.02296 0
M  V30 244 C 21.9414 1.89046 -0.714558 0
M  V30 245 C 22.2624 1.79636 0.758681 0
M  V30 246 O 21.5324 1.20292 1.54618 0
M  V30 247 H 20.1124 0.699802 -0.261317 0
M  V30 248 H 22.7744 1.45574 -1.29592 0
M  V30 249 H 21.8704 2.95524 -1.0036 0
M  V30 250 N 22.1715 0.800033 1.35784 0
M  V30 251 C 23.3995 0.389606 2.03199 0
M  V30 252 C 23.8145 -0.997375 1.60306 0
M  V30 253 O 23.1715 -1.64154 0.797481 0
M  V30 254 C 23.2225 0.455855 3.58614 0
M  V30 255 O 22.9435 1.78815 3.99946 0
M  V30 256 C 24.4445 0.0374032 4.43284 0
M  V30 257 H 21.6645 0.159132 0.651857 0
M  V30 258 H 24.2085 1.08183 1.73541 0
M  V30 259 H 22.3635 -0.188057 3.86943 0
M  V30 260 H 22.7775 1.74636 4.94573 0
M  V30 261 H 24.2515 0.134882 5.51835 0
M  V30 262 H 24.7285 -1.01651 4.27275 0
M  V30 263 H 25.3345 0.654215 4.20238 0
M  V30 264 N 23.6496 -1.47581 0.552962 0
M  V30 265 C 24.5796 -2.32762 -0.185451 0
M  V30 266 C 25.5606 -1.43527 -0.912905 0
M  V30 267 O 26.7456 -1.72388 -0.894201 0
M  V30 268 C 23.8756 -3.25219 -1.21859 0
M  V30 269 C 22.8296 -4.23661 -0.607864 0
M  V30 270 C 22.1556 -5.05413 -1.74533 0
M  V30 271 C 23.4556 -5.20481 0.435582 0
M  V30 272 H 25.1496 -2.94749 0.525684 0
M  V30 273 H 22.6956 -1.41738 0.254251 0
M  V30 274 H 24.6486 -3.8365 -1.7433 0
M  V30 275 H 23.3726 -2.61279 -1.95961 0
M  V30 276 H 22.0316 -3.66451 -0.104489 0
M  V30 277 H 21.6796 -4.3788 -2.47529 0
M  V30 278 H 21.3796 -5.72059 -1.34249 0
M  V30 279 H 22.9036 -5.66701 -2.27338 0
M  V30 280 H 24.3176 -5.733 -0.00290157 0
M  V30 281 H 22.7146 -5.95305 0.757067 0
M  V30 282 H 23.7846 -4.66217 1.33303 0
M  V30 283 N 25.1277 -0.289203 -1.54924 0
M  V30 284 C 26.3737 0.323998 -2.00195 0
M  V30 285 C 26.7067 1.54441 -1.17735 0
M  V30 286 O 25.9817 1.92875 -0.250878 0
M  V30 287 C 26.2647 0.692276 -3.53383 0
M  V30 288 C 26.1177 -0.536457 -4.46589 0
M  V30 289 C 27.4367 1.52335 -4.12895 0
M  V30 290 H 24.5557 0.116289 -0.727768 0
M  V30 291 H 27.1977 -0.398954 -1.85764 0
M  V30 292 H 25.3477 1.30822 -3.65811 0
M  V30 293 H 27.0197 -1.17499 -4.46085 0
M  V30 294 H 25.2627 -1.17192 -4.1767 0
M  V30 295 H 25.9337 -0.234806 -5.515 0
M  V30 296 H 28.4097 1.00302 -4.0383 0
M  V30 297 H 27.2857 1.74982 -5.20262 0
M  V30 298 H 27.5467 2.50886 -3.64018 0
M  V30 299 N 26.6058 1.57591 -0.0167156 0
M  V30 300 C 27.5358 2.12496 0.967858 0
M  V30 301 C 28.5168 1.03807 1.34752 0
M  V30 302 O 29.7018 1.31577 1.42833 0
M  V30 303 C 26.8318 2.64194 2.25431 0
M  V30 304 C 25.7858 3.77559 2.01576 0
M  V30 305 C 25.1118 4.15636 3.36379 0
M  V30 306 C 26.4118 5.04151 1.36489 0
M  V30 307 H 28.1058 2.95013 0.510643 0
M  V30 308 H 25.6518 1.41915 0.244181 0
M  V30 309 H 27.6048 3.01236 2.94678 0
M  V30 310 H 26.3288 1.78821 2.73296 0
M  V30 311 H 24.9878 3.40937 1.34751 0
M  V30 312 H 24.6358 3.27263 3.81979 0
M  V30 313 H 24.3358 4.92022 3.21229 0
M  V30 314 H 25.8598 4.5525 4.06915 0
M  V30 315 H 27.2738 5.38857 1.95718 0
M  V30 316 H 25.6708 5.85453 1.31776 0
M  V30 317 H 26.7408 4.83733 0.336219 0
M  V30 318 N 28.0839 -0.256276 1.55502 0
M  V30 319 C 29.0139 -1.32102 1.92539 0
M  V30 320 C 29.9949 -1.50684 0.789194 0
M  V30 321 O 31.1799 -1.63449 1.04872 0
M  V30 322 C 28.3099 -2.67752 2.21192 0
M  V30 323 C 27.2639 -2.63878 3.36975 0
M  V30 324 C 26.5899 -4.03236 3.51147 0
M  V30 325 C 27.8899 -2.21682 4.72921 0
M  V30 326 H 29.5839 -1.01351 2.81724 0
M  V30 327 H 27.1299 -0.486105 1.35547 0
M  V30 328 H 29.0829 -3.42365 2.45691 0
M  V30 329 H 27.8069 -3.0012 1.28824 0
M  V30 330 H 26.4659 -1.91722 3.12471 0
M  V30 331 H 26.1139 -4.32854 2.56216 0
M  V30 332 H 25.8139 -4.01535 4.29003 0
M  V30 333 H 27.3379 -4.79563 3.77957 0
M  V30 334 H 28.7519 -2.86023 4.96854 0
M  V30 335 H 27.1489 -2.3111 5.53812 0
M  V30 336 H 28.2189 -1.16833 4.70615 0
M  V30 337 N 29.562 -1.4872 -0.521534 0
M  V30 338 C 30.525 -1.63379 -1.60748 0
M  V30 339 C 31.525 -0.50661 -1.52611 0
M  V30 340 O 32.715 -0.772601 -1.5613 0
M  V30 341 C 29.847 -1.61192 -3.00383 0
M  V30 342 H 31.04 -2.60217 -1.49087 0
M  V30 343 H 28.593 -1.37444 -0.744235 0
M  V30 344 H 29.328 -0.65863 -3.17541 0
M  V30 345 H 29.113 -2.43032 -3.07698 0
M  V30 346 H 30.603 -1.7466 -3.7932 0
M  V30 347 N 31.0401 0.771051 -1.3745 0
M  V30 348 C 32.0031 1.86598 -1.33093 0
M  V30 349 C 33.0031 1.59076 -0.234845 0
M  V30 350 O 34.1931 1.67145 -0.490732 0
M  V30 351 C 31.3251 3.23747 -1.06773 0
M  V30 352 H 32.5181 1.91873 -2.30488 0
M  V30 353 H 30.0711 0.970876 -1.2249 0
M  V30 354 H 30.8061 3.24148 -0.099129 0
M  V30 355 H 30.5911 3.45115 -1.86112 0
M  V30 356 H 32.0811 4.03824 -1.06377 0
M  V30 357 N 32.5182 1.22032 0.997298 0
M  V30 358 C 33.7952 0.950823 1.70935 0
M  V30 359 C 34.1752 -0.535292 2.042 0
M  V30 360 O 33.5232 -1.50217 1.72183 0
M  V30 361 C 33.7332 1.84386 2.96315 0
M  V30 362 C 35.0812 2.09732 3.69185 0
M  V30 363 O 36.1052 1.81798 3.06314 0
M  V30 364 O 34.9642 2.57018 4.82291 0
M  V30 365 H 32.0582 0.357204 0.745878 0
M  V30 366 H 34.6042 1.32997 1.05404 0
M  V30 367 H 33.3762 2.84928 2.68201 0
M  V30 368 H 32.9992 1.46602 3.69586 0
M  V30 369 N 33.9963 -1.19345 1.0293 0
M  V30 370 C 34.9593 -2.20793 0.615069 0
M  V30 371 C 35.9593 -1.57553 -0.321533 0
M  V30 372 O 37.1493 -1.73862 -0.108483 0
M  V30 373 C 34.2813 -3.40754 -0.0999222 0
M  V30 374 H 35.4743 -2.58955 1.51269 0
M  V30 375 H 33.0273 -1.3303 0.820534 0
M  V30 376 H 33.7623 -3.0811 -1.01187 0
M  V30 377 H 33.5473 -3.87889 0.57309 0
M  V30 378 H 35.0373 -4.15898 -0.376645 0
M  V30 379 N 35.4744 -0.807222 -1.35358 0
M  V30 380 C 36.4064 -0.175717 -2.28525 0
M  V30 381 C 37.4194 0.625354 -1.5031 0
M  V30 382 O 38.6084 0.457611 -1.72535 0
M  V30 383 C 35.7084 0.773471 -3.29956 0
M  V30 384 C 34.8814 0.0186296 -4.37396 0
M  V30 385 C 33.9404 0.886395 -5.18681 0
M  V30 386 O 32.9664 0.337106 -5.68201 0
M  V30 387 N 34.1684 2.20839 -5.36852 0
M  V30 388 H 36.9334 -0.976091 -2.83359 0
M  V30 389 H 34.4944 -0.662737 -1.47714 0
M  V30 390 H 36.4864 1.35824 -3.81227 0
M  V30 391 H 35.0564 1.47465 -2.75632 0
M  V30 392 H 34.2764 -0.747349 -3.87051 0
M  V30 393 H 35.5644 -0.501577 -5.06322 0
M  V30 394 H 34.9624 2.67858 -4.98265 0
M  V30 395 H 33.5194 2.74237 -5.91301 0
M  V30 396 N 36.9525 1.47285 -0.560781 0
M  V30 397 C 38.2005 2.02064 -0.0379868 0
M  V30 398 C 38.5215 1.43711 1.31803 0
M  V30 399 O 37.7915 0.61362 1.86042 0
M  V30 400 H 36.3715 0.746918 -0.0110531 0
M  V30 401 H 39.0335 1.80648 -0.731598 0
M  V30 402 H 38.1295 3.12064 0.0474463 0
M  V30 403 N 38.4306 0.297415 1.54768 0
M  V30 404 C 39.3626 -0.613881 2.20826 0
M  V30 405 C 40.3756 -1.10032 1.19987 0
M  V30 406 O 41.5646 -1.01839 1.46598 0
M  V30 407 C 38.6646 -1.852 2.83821 0
M  V30 408 C 37.8376 -1.50865 4.10559 0
M  V30 409 C 36.8966 -2.60154 4.57391 0
M  V30 410 O 35.9226 -2.25398 5.2267 0
M  V30 411 N 37.1246 -3.90629 4.29406 0
M  V30 412 H 39.8896 -0.048389 2.99661 0
M  V30 413 H 37.4506 0.11946 1.61459 0
M  V30 414 H 39.4426 -2.57652 3.12086 0
M  V30 415 H 38.0126 -2.32597 2.08847 0
M  V30 416 H 37.2326 -0.616925 3.89343 0
M  V30 417 H 38.5206 -1.25458 4.9309 0
M  V30 418 H 37.9186 -4.21677 3.77101 0
M  V30 419 H 36.4756 -4.59391 4.62388 0
M  V30 420 N 39.9087 -1.5758 0.0250728 0
M  V30 421 C 40.8557 -2.09973 -0.958129 0
M  V30 422 C 41.8257 -1.00085 -1.3256 0
M  V30 423 O 43.0107 -1.27481 -1.41962 0
M  V30 424 C 40.1507 -2.62812 -2.2366 0
M  V30 425 C 39.2637 -3.86693 -1.92594 0
M  V30 426 C 38.3987 -4.27941 -3.14707 0
M  V30 427 C 37.4377 -5.44591 -2.79442 0
M  V30 428 N 36.5747 -5.81014 -3.94167 0
M  V30 429 H 41.4147 -2.937 -0.504428 0
M  V30 430 H 38.9517 -1.45172 -0.237392 0
M  V30 431 H 40.9097 -2.91536 -2.98434 0
M  V30 432 H 39.5397 -1.81922 -2.66654 0
M  V30 433 H 38.5917 -3.64723 -1.0808 0
M  V30 434 H 39.9037 -4.71547 -1.62619 0
M  V30 435 H 39.0577 -4.58079 -3.97804 0
M  V30 436 H 37.7967 -3.41845 -3.4784 0
M  V30 437 H 36.8017 -5.1415 -1.94755 0
M  V30 438 H 38.0267 -6.32382 -2.47528 0
M  V30 439 H 35.9727 -4.97874 -4.2715 0
M  V30 440 H 35.8897 -6.60498 -3.67801 0
M  V30 441 H 37.1577 -6.15756 -4.7798 0
M  V30 442 N 41.3868 0.248026 -1.55636 0
M  V30 443 C 42.6328 0.97767 -1.77678 0
M  V30 444 C 42.9658 1.85016 -0.590135 0
M  V30 445 O 42.2408 1.90095 0.411611 0
M  V30 446 C 42.5238 1.83914 -3.09593 0
M  V30 447 C 42.3768 0.99491 -4.38659 0
M  V30 448 C 43.6958 2.82183 -3.37729 0
M  V30 449 H 40.8148 0.354005 -0.646413 0
M  V30 450 H 43.4568 0.248253 -1.88371 0
M  V30 451 H 41.6068 2.46104 -3.00608 0
M  V30 452 H 43.2788 0.391789 -4.59633 0
M  V30 453 H 41.5218 0.299231 -4.32767 0
M  V30 454 H 42.1928 1.63145 -5.2734 0
M  V30 455 H 44.6688 2.30129 -3.4667 0
M  V30 456 H 43.5448 3.39582 -4.31249 0
M  V30 457 H 43.8058 3.58588 -2.58586 0
M  V30 458 N 42.8649 1.48995 0.513639 0
M  V30 459 C 44.1119 1.57843 1.26854 0
M  V30 460 C 44.4399 0.259501 1.92761 0
M  V30 461 O 43.6949 -0.75159 1.80692 0
M  V30 462 C 43.9939 2.67756 2.36731 0
M  V30 463 C 43.6599 4.09669 1.88368 0
M  V30 464 C 42.3219 4.48291 1.74896 0
M  V30 465 C 44.6739 4.98537 1.52021 0
M  V30 466 C 42.0019 5.73568 1.23438 0
M  V30 467 C 44.3539 6.24319 1.0202 0
M  V30 468 C 43.0179 6.61783 0.871778 0
M  V30 469 H 42.2879 0.577587 0.464192 0
M  V30 470 H 44.9349 1.82778 0.571366 0
M  V30 471 H 43.2399 2.36743 3.12185 0
M  V30 472 H 44.9369 2.71813 2.9482 0
M  V30 473 H 41.5269 3.79176 1.99808 0
M  V30 474 H 45.7109 4.69363 1.61281 0
M  V30 475 H 40.9669 6.01304 1.10648 0
M  V30 476 H 45.1409 6.92566 0.729722 0
M  V30 477 H 42.7679 7.5874 0.470852 0
M  V30 478 N 44.343 -0.763751 1.37857 0
M  V30 479 C 45.571 -1.55293 1.36718 0
M  V30 480 C 45.986 -1.88745 -0.0455434 0
M  V30 481 O 45.343 -1.52039 -1.00947 0
M  V30 482 C 45.394 -2.85831 2.2132 0
M  V30 483 O 45.115 -2.5381 3.57089 0
M  V30 484 C 46.616 -3.80023 2.28249 0
M  V30 485 H 43.836 -0.480841 0.468009 0
M  V30 486 H 46.38 -0.946009 1.81303 0
M  V30 487 H 44.535 -3.42926 1.80223 0
M  V30 488 H 44.949 -3.37459 4.01524 0
M  V30 489 H 46.423 -4.68599 2.91752 0
M  V30 490 H 46.9 -4.1973 1.2932 0
M  V30 491 H 47.506 -3.28855 2.69693 0
M  V30 492 N 45.8211 -1.22559 -0.990812 0
M  V30 493 C 46.7691 -0.994798 -2.10253 0
M  V30 494 C 47.7631 0.0627798 -1.69284 0
M  V30 495 O 48.9691 -0.0898392 -1.79776 0
M  V30 496 H 45.3441 -0.304527 -0.687581 0
M  V30 497 H 47.3151 -1.93812 -2.26891 0
M  V30 498 C 46.0641 -0.591439 -3.42633 0
M  V30 499 H 45.3871 -1.3969 -3.74602 0
M  V30 500 H 46.8271 -0.469385 -4.21394 0
M  V30 501 C 45.2861 0.699232 -3.29564 0
M  V30 502 O 45.8161 1.75112 -3.61523 0
M  V30 503 N 44.0221 0.671182 -2.82743 0
M  V30 504 H 43.5691 -0.185136 -2.56934 0
M  V30 505 H 43.5271 1.53502 -2.7438 0
M  V30 506 N 47.2992 1.18797 -1.03562 0
M  V30 507 C 48.5272 1.92599 -0.755869 0
M  V30 508 C 48.9422 1.75886 0.686271 0
M  V30 509 O 48.2992 1.08517 1.46732 0
M  V30 510 C 48.3502 3.44159 -1.10619 0
M  V30 511 O 48.0712 3.60341 -2.4917 0
M  V30 512 C 49.5722 4.3507 -0.850214 0
M  V30 513 H 46.7922 0.611587 -0.276048 0
M  V30 514 H 49.3362 1.50742 -1.38192 0
M  V30 515 H 47.4912 3.83823 -0.525194 0
M  V30 516 H 47.9052 4.54128 -2.62427 0
M  V30 517 H 49.3792 5.39989 -1.14523 0
M  V30 518 H 49.8562 4.38673 0.215176 0
M  V30 519 H 50.4622 4.01097 -1.41426 0
M  V30 520 N 48.7773 0.814389 1.34928 0
M  V30 521 C 50.0233 0.408167 1.99263 0
M  V30 522 C 50.3783 -1.0154 1.63424 0
M  V30 523 O 49.6713 -1.69607 0.891289 0
M  V30 524 C 49.8653 0.537781 3.53331 0
M  V30 525 C 49.6943 1.9724 4.04137 0
M  V30 526 C 48.4643 2.60245 4.33129 0
M  V30 527 C 50.6623 2.93801 4.2212 0
M  V30 528 N 48.6443 3.95036 4.69914 0
M  V30 529 C 50.0153 4.1348 4.6199 0
M  V30 530 C 52.0703 2.9053 4.04348 0
M  V30 531 C 50.7733 5.3033 4.85945 0
M  V30 532 C 52.7993 4.06589 4.29464 0
M  V30 533 C 52.1613 5.25017 4.69613 0
M  V30 534 H 48.2603 0.197289 0.756704 0
M  V30 535 H 50.8443 1.05728 1.63492 0
M  V30 536 H 49.0153 -0.0813868 3.88315 0
M  V30 537 H 50.7473 0.105389 4.04563 0
M  V30 538 H 47.5023 2.11545 4.23728 0
M  V30 539 H 47.9263 4.64455 4.92555 0
M  V30 540 H 52.5683 2.00115 3.72443 0
M  V30 541 H 50.2863 6.21309 5.16721 0
M  V30 542 H 53.8723 4.05447 4.17257 0
M  V30 543 H 52.7523 6.1333 4.88667 0
M  V30 544 N 50.2554 -1.46986 0.568584 0
M  V30 545 C 51.2184 -2.28624 -0.162366 0
M  V30 546 C 52.2184 -1.37596 -0.832103 0
M  V30 547 O 53.4084 -1.60115 -0.68622 0
M  V30 548 C 50.5404 -3.17596 -1.23878 0
M  V30 549 H 51.7334 -2.94722 0.554899 0
M  V30 550 H 49.2864 -1.52863 0.325976 0
M  V30 551 H 50.0214 -2.56214 -1.98808 0
M  V30 552 H 49.8064 -3.846 -0.763219 0
M  V30 553 H 51.2964 -3.79078 -1.75185 0
M  V30 554 N 51.7335 -0.305618 -1.54608 0
M  V30 555 C 52.9795 0.302746 -2.00528 0
M  V30 556 C 53.3125 1.53184 -1.19367 0
M  V30 557 O 52.5875 1.92598 -0.271321 0
M  V30 558 C 52.8705 0.654756 -3.54097 0
M  V30 559 C 52.7235 -0.583793 -4.45995 0
M  V30 560 C 54.0425 1.47947 -4.14487 0
M  V30 561 H 51.1615 0.108564 -0.72896 0
M  V30 562 H 53.8035 -0.418634 -1.85331 0
M  V30 563 H 51.9535 1.26935 -3.67178 0
M  V30 564 H 53.6255 -1.22224 -4.44814 0
M  V30 565 H 51.8685 -1.21615 -4.16404 0
M  V30 566 H 52.5395 -0.293287 -5.5122 0
M  V30 567 H 55.0155 0.96013 -4.04871 0
M  V30 568 H 53.8915 1.69454 -5.22088 0
M  V30 569 H 54.1525 2.47011 -3.66658 0
M  V30 570 N 53.2116 1.57565 -0.0334293 0
M  V30 571 C 54.6276 1.56297 0.322997 0
M  V30 572 C 54.8276 1.03945 1.7262 0
M  V30 573 O 53.8836 0.688109 2.42943 0
M  V30 574 C 55.1966 3.00232 0.167664 0
M  V30 575 C 56.7446 3.12078 0.240107 0
M  V30 576 C 57.2196 4.57859 0.113513 0
M  V30 577 N 58.7106 4.62887 0.170359 0
M  V30 578 C 59.4456 5.73319 0.0962517 0
M  V30 579 N 58.9416 6.92794 -0.0291881 0
M  V30 580 N 60.7346 5.61898 0.150551 0
M  V30 581 H 52.8856 1.89923 -0.950956 0
M  V30 582 H 55.1486 0.873824 -0.367608 0
M  V30 583 H 54.8546 3.42501 -0.799102 0
M  V30 584 H 54.7286 3.654 0.936083 0
M  V30 585 H 57.1156 2.69718 1.19733 0
M  V30 586 H 57.1966 2.49623 -0.558763 0
M  V30 587 H 56.8406 5.009 -0.840314 0
M  V30 588 H 56.7706 5.18299 0.931302 0
M  V30 589 H 59.2616 3.76954 0.26728 0
M  V30 590 H 59.5746 7.7276 -0.0789252 0
M  V30 591 H 57.9196 6.94971 -0.0640299 0
M  V30 592 H 61.1106 4.67448 0.246981 0
M  V30 593 H 61.2836 6.47938 0.0893365 0
M  V30 594 N 54.6897 -0.239769 1.55765 0
M  V30 595 C 55.9387 -0.964754 1.77131 0
M  V30 596 C 56.2517 -1.86213 0.59868 0
M  V30 597 O 57.4577 -2.6244 0.695522 0
M  V30 598 C 55.9137 -1.76552 3.1362 0
M  V30 599 C 55.5217 -0.915185 4.38553 0
M  V30 600 C 57.2657 -2.48281 3.44321 0
M  V30 601 C 55.1727 -1.71225 5.66071 0
M  V30 602 H 54.1027 -0.363953 0.660344 0
M  V30 603 H 56.7537 -0.219181 1.82186 0
M  V30 604 H 55.1357 -2.55331 3.02691 0
M  V30 605 H 56.3097 -0.169217 4.60489 0
M  V30 606 H 54.6247 -0.310889 4.15238 0
M  V30 607 H 57.2217 -3.08382 4.36812 0
M  V30 608 H 57.5647 -3.20256 2.65973 0
M  V30 609 H 58.0977 -1.76507 3.56497 0
M  V30 610 H 54.8367 -1.03612 6.4726 0
M  V30 611 H 54.3567 -2.43331 5.48224 0
M  V30 612 H 56.0357 -2.27758 6.05587 0
M  V30 613 N 56.1678 -1.49265 -0.50573 0
M  V30 614 C 57.5788 -1.51769 -1.08734 0
M  V30 615 C 57.9298 -0.301192 -1.93874 0
M  V30 616 O 57.0548 0.589456 -2.08217 0
M  V30 617 C 57.6498 -2.75017 -1.97867 0
M  V30 618 C 56.2088 -2.80314 -2.51199 0
M  V30 619 C 55.3558 -2.4562 -1.28709 0
M  V30 620 H 58.3068 -1.56031 -0.289855 0
M  V30 621 H 58.3278 -2.5491 -2.82491 0
M  V30 622 H 57.8398 -3.63539 -1.35873 0
M  V30 623 H 55.9408 -1.96061 -3.16845 0
M  V30 624 H 56.0538 -3.82366 -2.88675 0
M  V30 625 H 54.4178 -1.97297 -1.61078 0
M  V30 626 H 55.2008 -3.36411 -0.6843 0
M  V30 627 N 57.6459 0.756429 -1.3826 0
M  V30 628 C 58.8939 1.51248 -1.34047 0
M  V30 629 C 59.2149 1.94875 0.0698372 0
M  V30 630 O 58.4849 1.67436 1.01696 0
M  V30 631 H 57.0649 0.561018 -0.493222 0
M  V30 632 H 59.7269 0.899347 -1.7291 0
M  V30 633 H 58.8229 2.40472 -1.98947 0
M  V30 634 N 59.124 1.23083 0.984299 0
M  V30 635 C 60.372 1.05848 1.72165 0
M  V30 636 C 60.693 -0.406049 1.90726 0
M  V30 637 O 59.963 -1.29139 1.47309 0
M  V30 638 H 58.543 0.388685 0.637913 0
M  V30 639 H 61.205 1.54736 1.18503 0
M  V30 640 H 60.301 1.54327 2.71274 0
M  V30 641 N 60.6021 -1.18246 1.0419 0
M  V30 642 C 62.0131 -1.69914 0.773698 0
M  V30 643 C 62.3641 -1.83085 -0.705297 0
M  V30 644 O 61.4891 -1.51123 -1.5489 0
M  V30 645 C 62.0841 -3.08619 1.39784 0
M  V30 646 C 60.6431 -3.57494 1.17792 0
M  V30 647 C 59.7901 -2.34013 1.48773 0
M  V30 648 H 62.7411 -1.02904 1.20816 0
M  V30 649 H 62.7621 -3.71958 0.801714 0
M  V30 650 H 62.2741 -2.99001 2.47426 0
M  V30 651 H 60.3751 -3.72406 0.120295 0
M  V30 652 H 60.4881 -4.40852 1.87581 0
M  V30 653 H 58.8521 -2.37986 0.907463 0
M  V30 654 H 59.6351 -2.27013 2.57527 0
M  V30 655 N 62.0802 -0.821533 -1.34494 0
M  V30 656 C 63.0432 -0.247847 -2.27856 0
M  V30 657 C 64.0432 0.573453 -1.50227 0
M  V30 658 O 65.2332 0.389759 -1.69784 0
M  V30 659 C 62.3652 0.652698 -3.34593 0
M  V30 660 H 63.5582 -1.07146 -2.80107 0
M  V30 661 H 61.1112 -0.593291 -1.44602 0
M  V30 662 H 61.8462 1.49943 -2.87555 0
M  V30 663 H 61.6312 0.065292 -3.92046 0
M  V30 664 H 63.1212 1.04793 -4.04238 0
M  V30 665 N 63.5583 1.46682 -0.576371 0
M  V30 666 C 64.8043 2.02712 -0.0596221 0
M  V30 667 C 65.1373 1.44765 1.29448 0
M  V30 668 O 64.4123 0.610355 1.84675 0
M  V30 669 C 64.6953 3.60098 0.0129503 0
M  V30 670 C 64.5483 4.28441 -1.3696 0
M  V30 671 C 65.8673 4.34224 0.71678 0
M  V30 672 H 62.9863 0.736637 -0.0231407 0
M  V30 673 H 65.6283 1.74898 -0.742351 0
M  V30 674 H 63.7783 3.83926 0.594378 0
M  V30 675 H 65.4503 4.15896 -1.9957 0
M  V30 676 H 63.6933 3.8805 -1.93907 0
M  V30 677 H 64.3643 5.3716 -1.27135 0
M  V30 678 H 66.8403 4.15503 0.222908 0
M  V30 679 H 65.7163 5.43936 0.73657 0
M  V30 680 H 65.9773 4.04823 1.77682 0
M  V30 681 N 65.0364 0.313813 1.54444 0
M  V30 682 C 65.9994 -0.54379 2.22656 0
M  V30 683 C 66.9994 -1.05124 1.21678 0
M  V30 684 O 68.1894 -0.945225 1.46325 0
M  V30 685 C 65.3214 -1.75427 2.92298 0
M  V30 686 H 66.5144 0.0523599 2.99854 0
M  V30 687 H 64.0674 0.0647834 1.56166 0
M  V30 688 H 64.8024 -2.38991 2.19211 0
M  V30 689 H 64.5874 -1.39791 3.66334 0
M  V30 690 H 66.0774 -2.36325 3.44297 0
M  V30 691 N 66.5145 -1.57545 0.0417849 0
M  V30 692 C 67.4625 -2.12148 -0.953723 0
M  V30 693 C 68.4565 -1.05104 -1.32852 0
M  V30 694 O 69.6625 -1.23524 -1.30927 0
M  V30 695 H 66.0375 -0.677957 -0.325389 0
M  V30 696 H 68.0085 -2.94707 -0.467991 0
M  V30 697 C 66.7575 -2.6739 -2.22257 0
M  V30 698 H 66.0805 -3.49413 -1.94295 0
M  V30 699 H 67.5205 -3.09227 -2.90094 0
M  V30 700 C 65.9795 -1.60723 -2.96091 0
M  V30 701 O 66.5095 -1.01449 -3.88679 0
M  V30 702 N 64.7155 -1.32466 -2.58652 0
M  V30 703 H 64.2625 -1.80856 -1.83437 0
M  V30 704 H 64.2205 -0.61325 -3.08361 0
M  V30 705 N 67.9926 0.231505 -1.5589 0
M  V30 706 C 69.2176 0.978689 -1.82856 0
M  V30 707 C 69.6426 1.77559 -0.620846 0
M  V30 708 O 69.0006 1.76119 0.430305 0
M  V30 709 C 69.0486 1.87997 -3.07716 0
M  V30 710 O 68.1526 2.97393 -2.85712 0
M  V30 711 H 67.4936 0.277663 -0.603158 0
M  V30 712 H 70.0236 0.24783 -2.03093 0
M  V30 713 H 70.0336 2.2917 -3.37558 0
M  V30 714 H 68.7086 1.29417 -3.95252 0
M  V30 715 H 67.2856 2.60238 -2.67078 0
M  V30 716 N 69.4707 1.49531 0.497807 0
M  V30 717 C 70.7167 1.59415 1.25358 0
M  V30 718 C 71.0497 0.281422 1.9215 0
M  V30 719 O 70.3247 -0.715249 1.80871 0
M  V30 720 C 70.6077 2.75566 2.3181 0
M  V30 721 C 70.4607 4.16642 1.69498 0
M  V30 722 C 71.7797 2.87347 3.33346 0
M  V30 723 H 68.8987 0.580244 0.454408 0
M  V30 724 H 71.5407 1.81827 0.551262 0
M  V30 725 H 69.6907 2.56587 2.91711 0
M  V30 726 H 71.3627 4.47145 1.13399 0
M  V30 727 H 69.6057 4.22141 0.998978 0
M  V30 728 H 70.2767 4.93792 2.46725 0
M  V30 729 H 72.7527 3.04634 2.83438 0
M  V30 730 H 71.6287 3.70289 4.05188 0
M  V30 731 H 71.8897 1.96834 3.95865 0
M  V30 732 N 70.9488 -0.749086 1.3866 0
M  V30 733 C 71.9118 -1.84457 1.36045 0
M  V30 734 C 72.9118 -1.58682 0.260122 0
M  V30 735 O 74.1018 -1.66343 0.517261 0
M  V30 736 C 71.2338 -3.22008 1.11911 0
M  V30 737 H 72.4268 -1.88182 2.33512 0
M  V30 738 H 69.9798 -0.951266 1.24019 0
M  V30 739 H 70.7148 -3.2395 0.150686 0
M  V30 740 H 70.4998 -3.42111 1.91579 0
M  V30 741 H 71.9898 -4.0208 1.12788 0
M  V30 742 N 72.4269 -1.23603 -0.977757 0
M  V30 743 C 73.8429 -0.999251 -1.24447 0
M  V30 744 C 74.0429 0.298053 -1.99283 0
M  V30 745 O 73.0989 1.01681 -2.31122 0
M  V30 746 C 74.4119 -2.20784 -2.04144 0
M  V30 747 C 75.9599 -2.25303 -2.17273 0
M  V30 748 C 76.4349 -3.45755 -3.00362 0
M  V30 749 N 77.9259 -3.4601 -3.07947 0
M  V30 750 C 78.6609 -4.35868 -3.72568 0
M  V30 751 N 78.1569 -5.35966 -4.38991 0
M  V30 752 N 79.9499 -4.23605 -3.6948 0
M  V30 753 H 72.1009 -2.06986 -0.476483 0
M  V30 754 H 74.3639 -0.907801 -0.273134 0
M  V30 755 H 74.0699 -3.14945 -1.56533 0
M  V30 756 H 73.9439 -2.22085 -3.04891 0
M  V30 757 H 76.3309 -1.3168 -2.64092 0
M  V30 758 H 76.4119 -2.28033 -1.15907 0
M  V30 759 H 76.0559 -4.39687 -2.5424 0
M  V30 760 H 75.9859 -3.40266 -4.01904 0
M  V30 761 H 78.4769 -2.73588 -2.60688 0
M  V30 762 H 78.7899 -6.00783 -4.86086 0
M  V30 763 H 77.1349 -5.39863 -4.37691 0
M  V30 764 H 80.3259 -3.44647 -3.16759 0
M  V30 765 H 80.4989 -4.93836 -4.1956 0
M  V30 766 N 73.905 1.17692 -1.04816 0
M  V30 767 C 74.852 2.21581 -0.645797 0
M  V30 768 C 75.822 1.62367 0.350159 0
M  V30 769 O 77.007 1.89254 0.242433 0
M  V30 770 C 74.147 3.45092 -0.0227568 0
M  V30 771 C 73.26 4.18613 -1.06709 0
M  V30 772 C 72.395 5.29602 -0.411767 0
M  V30 773 C 71.434 5.94904 -1.44067 0
M  V30 774 N 70.571 6.97414 -0.809781 0
M  V30 775 H 75.411 2.55353 -1.5362 0
M  V30 776 H 72.948 1.25438 -0.768364 0
M  V30 777 H 74.906 4.15679 0.35588 0
M  V30 778 H 73.536 3.11917 0.831122 0
M  V30 779 H 72.588 3.46779 -1.5636 0
M  V30 780 H 73.9 4.63293 -1.84827 0
M  V30 781 H 73.054 6.06696 0.0206623 0
M  V30 782 H 71.793 4.86045 0.401438 0
M  V30 783 H 70.798 5.16544 -1.88316 0
M  V30 784 H 72.023 6.40542 -2.25571 0
M  V30 785 H 69.969 6.55998 -0.0170186 0
M  V30 786 H 69.886 7.40386 -1.52856 0
M  V30 787 H 71.154 7.78463 -0.401999 0
M  V30 788 N 75.3831 0.828654 1.34056 0
M  V30 789 C 76.3331 0.226828 2.26869 0
M  V30 790 C 77.3171 -0.612243 1.48796 0
M  V30 791 O 78.5091 -0.465884 1.70759 0
M  V30 792 C 75.6381 -0.605654 3.37915 0
M  V30 793 C 74.7241 0.244361 4.23395 0
M  V30 794 N 75.1151 1.31815 4.88322 0
M  V30 795 C 73.4131 0.0296616 4.4599 0
M  V30 796 C 74.1141 1.83895 5.51867 0
M  V30 797 N 73.0901 1.14196 5.3147 0
M  V30 798 H 76.8921 1.04811 2.74576 0
M  V30 799 H 74.4061 0.67205 1.47842 0
M  V30 800 H 76.4031 -1.05302 4.03382 0
M  V30 801 H 75.0631 -1.42504 2.91758 0
M  V30 802 H 76.0741 1.70099 4.8917 0
M  V30 803 H 72.7511 -0.757097 4.10578 0
M  V30 804 H 74.1411 2.7376 6.136 0
M  V30 805 N 76.8612 -1.46375 0.584142 0
M  V30 806 C 78.1092 -2.01978 0.0701287 0
M  V30 807 C 78.4302 -1.4579 -1.295 0
M  V30 808 O 77.7002 -0.64314 -1.85042 0
M  V30 809 H 76.2802 -0.746648 0.0229345 0
M  V30 810 H 78.9422 -1.79461 0.760245 0
M  V30 811 H 78.0382 -3.121 0.0022064 0
M  V30 812 N 78.3393 -0.321999 -1.54275 0
M  V30 813 C 79.5863 0.281044 -2.0054 0
M  V30 814 C 79.9143 1.52265 -1.21019 0
M  V30 815 O 79.1693 1.93687 -0.279982 0
M  V30 816 C 79.4683 0.661769 -3.5122 0
M  V30 817 C 79.1343 -0.480482 -4.48333 0
M  V30 818 C 77.7963 -0.794005 -4.74604 0
M  V30 819 C 80.1483 -1.24783 -5.06042 0
M  V30 820 C 77.4763 -1.87763 -5.55844 0
M  V30 821 C 79.8283 -2.32153 -5.88462 0
M  V30 822 C 78.4923 -2.64089 -6.13036 0
M  V30 823 H 77.7623 0.102841 -0.733829 0
M  V30 824 H 80.4093 -0.445453 -1.86247 0
M  V30 825 H 78.7143 1.46867 -3.63232 0
M  V30 826 H 80.4113 1.13989 -3.84457 0
M  V30 827 H 77.0013 -0.226039 -4.28004 0
M  V30 828 H 81.1853 -1.01887 -4.85729 0
M  V30 829 H 76.4413 -2.12954 -5.73115 0
M  V30 830 H 80.6153 -2.92057 -6.32199 0
M  V30 831 H 78.2423 -3.48185 -6.75775 0
M  V30 832 N 79.8174 1.5752 -0.0501392 0
M  V30 833 C 80.7474 2.14502 0.922566 0
M  V30 834 C 81.7284 1.06642 1.3252 0
M  V30 835 O 82.9134 1.34577 1.4001 0
M  V30 836 C 80.0434 2.68916 2.19776 0
M  V30 837 C 78.9974 3.8175 1.93523 0
M  V30 838 C 78.3234 4.22677 3.27487 0
M  V30 839 C 79.6234 5.06932 1.25765 0
M  V30 840 H 81.3174 2.9603 0.447952 0
M  V30 841 H 78.8634 1.42401 0.214024 0
M  V30 842 H 80.8164 3.07419 2.88222 0
M  V30 843 H 79.5404 1.84578 2.69441 0
M  V30 844 H 78.1994 3.43718 1.27489 0
M  V30 845 H 77.8474 3.35291 3.74952 0
M  V30 846 H 77.5474 4.98725 3.1072 0
M  V30 847 H 79.0714 4.63779 3.97166 0
M  V30 848 H 80.4854 5.42888 1.84244 0
M  V30 849 H 78.8824 5.88116 1.19328 0
M  V30 850 H 79.9524 4.84337 0.233536 0
M  V30 851 N 81.2955 -0.223234 1.56011 0
M  V30 852 C 82.2435 -1.29627 1.93131 0
M  V30 853 C 83.2375 -1.48608 0.813146 0
M  V30 854 O 84.4435 -1.49802 0.997966 0
M  V30 855 H 80.8185 -0.434563 0.613726 0
M  V30 856 H 82.7895 -0.955995 2.82672 0
M  V30 857 C 81.5385 -2.63983 2.26292 0
M  V30 858 H 80.8615 -2.50185 3.11846 0
M  V30 859 H 82.3015 -3.3788 2.56151 0
M  V30 860 C 80.7605 -3.18866 1.08747 0
M  V30 861 O 81.2905 -4.00192 0.347727 0
M  V30 862 N 79.4965 -2.77217 0.871743 0
M  V30 863 H 79.0435 -2.1119 1.47501 0
M  V30 864 H 79.0015 -3.1428 0.0869905 0
M  V30 865 N 82.7736 -1.49793 -0.48987 0
M  V30 866 C 83.7036 -1.70201 -1.59856 0
M  V30 867 C 84.6846 -0.55076 -1.60937 0
M  V30 868 O 85.8696 -0.787841 -1.77501 0
M  V30 869 C 82.9996 -1.77882 -2.98287 0
M  V30 870 C 81.9536 -2.92907 -3.12073 0
M  V30 871 C 81.2796 -2.85712 -4.51965 0
M  V30 872 C 82.5796 -4.3369 -2.91051 0
M  V30 873 H 84.2736 -2.63025 -1.43032 0
M  V30 874 H 81.8196 -1.26574 -0.686664 0
M  V30 875 H 83.7726 -1.90744 -3.75759 0
M  V30 876 H 82.4966 -0.816653 -3.16225 0
M  V30 877 H 81.1556 -2.79665 -2.37029 0
M  V30 878 H 80.8036 -1.8738 -4.66795 0
M  V30 879 H 80.5036 -3.62921 -4.62128 0
M  V30 880 H 82.0276 -3.00598 -5.31482 0
M  V30 881 H 83.4416 -4.47555 -3.58284 0
M  V30 882 H 81.8386 -5.12205 -3.12675 0
M  V30 883 H 82.9086 -4.47362 -1.87071 0
M  V30 884 N 84.2517 0.741722 -1.39055 0
M  V30 885 C 85.4997 1.49818 -1.35643 0
M  V30 886 C 85.8207 1.94938 0.0491642 0
M  V30 887 O 85.0907 1.68505 0.999141 0
M  V30 888 H 83.6707 0.555755 -0.499144 0
M  V30 889 H 86.3327 0.880957 -1.73854 0
M  V30 890 H 85.4287 2.38348 -2.01486 0
M  V30 891 N 85.7298 1.2412 0.971189 0
M  V30 892 C 86.6618 0.988349 2.06795 0
M  V30 893 C 87.6748 -0.0409541 1.62748 0
M  V30 894 O 88.8638 0.195673 1.77424 0
M  V30 895 C 85.9638 0.469023 3.35639 0
M  V30 896 C 85.1368 1.56065 4.08611 0
M  V30 897 C 84.1958 1.04458 5.15728 0
M  V30 898 O 83.2218 1.73553 5.42096 0
M  V30 899 N 84.4238 -0.122817 5.8037 0
M  V30 900 H 87.1888 1.93265 2.29061 0
M  V30 901 H 84.7498 1.15102 1.13856 0
M  V30 902 H 86.7418 0.108613 4.04554 0
M  V30 903 H 85.3118 -0.380919 3.1027 0
M  V30 904 H 84.5318 2.09341 3.34021 0
M  V30 905 H 85.8198 2.29449 4.54126 0
M  V30 906 H 85.2178 -0.700563 5.61345 0
M  V30 907 H 83.7748 -0.424404 6.50417 0
M  V30 908 N 87.2079 -1.17134 1.05439 0
M  V30 909 C 88.4569 -1.86791 0.761049 0
M  V30 910 C 88.7699 -1.82072 -0.714795 0
M  V30 911 O 89.9759 -2.47223 -1.12218 0
M  V30 912 C 88.4319 -3.35166 1.31117 0
M  V30 913 C 88.0399 -3.48381 2.81664 0
M  V30 914 C 89.7839 -4.10134 1.09499 0
M  V30 915 C 87.6909 -4.90793 3.29964 0
M  V30 916 H 86.6209 -0.699681 0.281002 0
M  V30 917 H 89.2719 -1.3226 1.27199 0
M  V30 918 H 87.6539 -3.8925 0.72803 0
M  V30 919 H 88.8279 -3.04502 3.45855 0
M  V30 920 H 87.1429 -2.86836 3.01851 0
M  V30 921 H 89.7399 -5.152 1.43084 0
M  V30 922 H 90.0829 -4.16287 0.0328772 0
M  V30 923 H 90.6159 -3.62264 1.64346 0
M  V30 924 H 87.3549 -4.89816 4.35616 0
M  V30 925 H 86.8749 -5.35333 2.70516 0
M  V30 926 H 88.5539 -5.59573 3.24787 0
M  V30 927 N 88.686 -0.835752 -1.33615 0
M  V30 928 C 89.933 -0.429959 -1.97883 0
M  V30 929 C 90.261 1.01006 -1.66217 0
M  V30 930 O 89.516 1.72047 -0.93265 0
M  V30 931 C 89.815 -0.593925 -3.52431 0
M  V30 932 C 89.481 -2.00158 -4.04039 0
M  V30 933 C 88.143 -2.38662 -4.17844 0
M  V30 934 C 90.495 -2.92117 -4.31644 0
M  V30 935 C 87.823 -3.68435 -4.56588 0
M  V30 936 C 90.175 -4.21368 -4.71838 0
M  V30 937 C 88.839 -4.59833 -4.83849 0
M  V30 938 H 88.109 -0.157333 -0.724104 0
M  V30 939 H 90.756 -1.06217 -1.59343 0
M  V30 940 H 89.061 0.121619 -3.91611 0
M  V30 941 H 90.758 -0.260282 -4.00154 0
M  V30 942 H 87.348 -1.69252 -3.93766 0
M  V30 943 H 91.532 -2.63608 -4.20505 0
M  V30 944 H 86.788 -3.98046 -4.64079 0
M  V30 945 H 90.962 -4.92703 -4.92155 0
M  V30 946 H 88.589 -5.60438 -5.13627 0
M  V30 947 N 90.1641 1.46063 -0.591896 0
M  V30 948 C 91.4121 2.01938 -0.0808391 0
M  V30 949 C 91.7331 1.46475 1.28725 0
M  V30 950 O 91.0031 0.652944 1.84698 0
M  V30 951 H 89.5831 0.746516 -0.0268938 0
M  V30 952 H 92.2451 1.79055 -0.769752 0
M  V30 953 H 91.3411 3.12094 -0.0187578 0
M  V30 954 N 91.6422 0.330177 1.54103 0
M  V30 955 C 92.9192 -0.325007 1.92881 0
M  V30 956 C 93.2992 -1.6934 1.26045 0
M  V30 957 O 92.6472 -2.24855 0.406526 0
M  V30 958 C 92.8572 -0.410634 3.46576 0
M  V30 959 C 94.2052 -0.667801 4.19316 0
M  V30 960 O 95.2292 -0.49329 3.52768 0
M  V30 961 O 94.0882 -1.00491 5.37181 0
M  V30 962 H 91.1822 -0.186873 0.80561 0
M  V30 963 H 93.7282 0.380376 1.65382 0
M  V30 964 H 92.5002 0.550164 3.87413 0
M  V30 965 H 92.1232 -1.16333 3.802 0
M  V30 966 N 93.1203 -1.57491 0.0584922 0
M  V30 967 C 94.3503 -1.9701 -0.622134 0
M  V30 968 C 94.7583 -0.935034 -1.6448 0
M  V30 969 O 94.1013 0.0882904 -1.83488 0
M  V30 970 C 94.1633 -3.32794 -1.35972 0
M  V30 971 C 93.8273 -4.54343 -0.492043 0
M  V30 972 C 94.8243 -5.19323 0.244901 0
M  V30 973 C 92.5093 -5.00534 -0.420821 0
M  V30 974 C 94.5033 -6.28835 1.04143 0
M  V30 975 C 92.1903 -6.09921 0.379389 0
M  V30 976 C 93.1883 -6.73933 1.10919 0
M  V30 977 O 92.8763 -7.81216 1.89623 0
M  V30 978 H 92.6083 -0.653127 -0.174359 0
M  V30 979 H 95.1623 -2.05029 0.123418 0
M  V30 980 H 93.3923 -3.21351 -2.15105 0
M  V30 981 H 95.0813 -3.5701 -1.93129 0
M  V30 982 H 95.8473 -4.8459 0.19939 0
M  V30 983 H 91.7263 -4.50496 -0.978474 0
M  V30 984 H 95.2703 -6.7873 1.61157 0
M  V30 985 H 91.1673 -6.44089 0.426512 0
M  V30 986 H 91.9353 -7.98029 1.81913 0
M  V30 987 N 94.5984 0.214957 -1.56127 0
M  V30 988 C 95.8284 0.953707 -1.8327 0
M  V30 989 C 96.2364 1.78181 -0.636262 0
M  V30 990 O 95.5794 1.79191 0.404516 0
M  V30 991 C 95.6414 1.91516 -3.0424 0
M  V30 992 C 95.3054 1.27094 -4.38972 0
M  V30 993 C 96.3024 0.657575 -5.15725 0
M  V30 994 C 93.9874 1.28073 -4.85698 0
M  V30 995 C 95.9814 0.0625968 -6.37369 0
M  V30 996 C 93.6684 0.681914 -6.07283 0
M  V30 997 C 94.6664 0.0739046 -6.8296 0
M  V30 998 O 94.3544 -0.515582 -8.02245 0
M  V30 999 H 94.0864 0.284764 -0.613095 0
M  V30 1000 H 96.6404 0.233283 -2.04071 0
M  V30 1001 H 94.8704 2.67475 -2.79274 0
M  V30 1002 H 96.5594 2.52001 -3.18198 0
M  V30 1003 H 97.3254 0.642288 -4.80728 0
M  V30 1004 H 93.2044 1.74337 -4.26764 0
M  V30 1005 H 96.7484 -0.412593 -6.96379 0
M  V30 1006 H 92.6454 0.694636 -6.41752 0
M  V30 1007 H 93.4134 -0.410544 -8.1747 0
M  V30 1008 N 96.0765 1.50051 0.48192 0
M  V30 1009 C 97.0265 1.64512 1.5786 0
M  V30 1010 C 98.0105 0.500073 1.52932 0
M  V30 1011 O 99.2025 0.753964 1.60139 0
M  V30 1012 C 96.3315 1.73263 2.9637 0
M  V30 1013 C 95.4175 2.93409 3.06222 0
M  V30 1014 N 95.8085 4.17236 2.85915 0
M  V30 1015 C 94.1065 2.91742 3.37346 0
M  V30 1016 C 94.8075 4.981 3.00451 0
M  V30 1017 N 93.7835 4.3184 3.30174 0
M  V30 1018 H 97.5855 2.57955 1.40842 0
M  V30 1019 H 95.0995 1.47086 0.688439 0
M  V30 1020 H 97.0965 1.81724 3.75209 0
M  V30 1021 H 95.7565 0.809711 3.14442 0
M  V30 1022 H 96.7675 4.46909 2.6171 0
M  V30 1023 H 93.4445 2.08907 3.61475 0
M  V30 1024 H 94.8345 6.06532 2.89082 0
M  V30 1025 N 97.5546 -0.734337 1.39446 0
M  V30 1026 C 98.8016 -1.49391 1.36706 0
M  V30 1027 C 99.1296 -1.94465 -0.0367813 0
M  V30 1028 O 98.3846 -1.67154 -1.01774 0
M  V30 1029 C 98.6836 -2.74711 2.28623 0
M  V30 1030 C 98.3496 -2.48501 3.76242 0
M  V30 1031 C 97.0116 -2.41062 4.16464 0
M  V30 1032 C 99.3636 -2.26098 4.69606 0
M  V30 1033 C 96.6916 -2.09262 5.48112 0
M  V30 1034 C 99.0436 -1.95814 6.01531 0
M  V30 1035 C 97.7076 -1.86845 6.40816 0
M  V30 1036 H 96.9776 -0.546661 0.500243 0
M  V30 1037 H 99.6246 -0.842788 1.71957 0
M  V30 1038 H 97.9296 -3.44569 1.86492 0
M  V30 1039 H 99.6266 -3.32741 2.23796 0
M  V30 1040 H 96.2166 -2.55169 3.44364 0
M  V30 1041 H 100.401 -2.30812 4.39363 0
M  V30 1042 H 95.6566 -2.00841 5.77471 0
M  V30 1043 H 99.8306 -1.77488 6.73403 0
M  V30 1044 H 97.4576 -1.6197 7.42745 0
M  V30 1045 N 99.0327 -1.24633 -0.964593 0
M  V30 1046 C 100.279 -1.09957 -1.71117 0
M  V30 1047 C 100.634 0.357422 -1.89051 0
M  V30 1048 O 99.9267 1.26029 -1.44317 0
M  V30 1049 C 100.121 -1.7763 -3.10133 0
M  V30 1050 C 99.9497 -3.29759 -3.05759 0
M  V30 1051 C 98.7197 -3.98981 -3.10068 0
M  V30 1052 C 100.918 -4.26305 -2.87695 0
M  V30 1053 N 98.8997 -5.37966 -2.95747 0
M  V30 1054 C 100.271 -5.52308 -2.81702 0
M  V30 1055 C 102.326 -4.16842 -2.72299 0
M  V30 1056 C 101.029 -6.69931 -2.61887 0
M  V30 1057 C 103.055 -5.34147 -2.53853 0
M  V30 1058 C 102.417 -6.59084 -2.48572 0
M  V30 1059 H 98.5157 -0.457003 -0.634564 0
M  V30 1060 H 101.1 -1.57592 -1.14337 0
M  V30 1061 H 99.2707 -1.32504 -3.65099 0
M  V30 1062 H 101.003 -1.55786 -3.73514 0
M  V30 1063 H 97.7577 -3.50169 -3.18871 0
M  V30 1064 H 98.1817 -6.10877 -2.91818 0
M  V30 1065 H 102.824 -3.21007 -2.75163 0
M  V30 1066 H 100.542 -7.65886 -2.57767 0
M  V30 1067 H 104.128 -5.28678 -2.4288 0
M  V30 1068 H 103.008 -7.48324 -2.34481 0
M  V30 1069 N 100.511 1.16574 -1.06058 0
M  V30 1070 C 101.461 2.18854 -0.63929 0
M  V30 1071 C 102.445 1.57505 0.328798 0
M  V30 1072 O 103.637 1.76408 0.144623 0
M  V30 1073 C 100.766 3.43291 -0.0247203 0
M  V30 1074 C 99.8518 4.11722 -1.01716 0
M  V30 1075 N 100.243 4.55841 -2.19186 0
M  V30 1076 C 98.5408 4.37872 -0.847569 0
M  V30 1077 C 99.2418 5.08751 -2.82042 0
M  V30 1078 N 98.2178 5.01489 -2.09784 0
M  V30 1079 H 102.02 2.5068 -1.53417 0
M  V30 1080 H 99.5338 1.32999 -0.931935 0
M  V30 1081 H 101.531 4.15856 0.294915 0
M  V30 1082 H 100.191 3.12954 0.865448 0
M  V30 1083 H 101.202 4.49649 -2.56975 0
M  V30 1084 H 97.8788 4.17499 -0.00918848 0
M  V30 1085 H 99.2688 5.52944 -3.81709 0
M  V30 1086 N 101.989 0.842826 1.3317 0
M  V30 1087 C 103.405 0.531128 1.50503 0
M  V30 1088 C 103.605 -0.940734 1.78192 0
M  V30 1089 O 102.661 -1.72436 1.84451 0
M  V30 1090 C 103.974 1.40789 2.65705 0
M  V30 1091 C 105.522 1.40708 2.79589 0
M  V30 1092 C 105.997 2.26878 3.97857 0
M  V30 1093 N 107.488 2.24609 4.05099 0
M  V30 1094 C 108.223 2.88019 4.95815 0
M  V30 1095 N 107.719 3.60496 5.9162 0
M  V30 1096 N 109.512 2.77469 4.88843 0
M  V30 1097 H 101.663 1.79557 1.1346 0
M  V30 1098 H 103.926 0.766267 0.558156 0
M  V30 1099 H 103.632 2.454 2.51936 0
M  V30 1100 H 103.506 1.08677 3.61205 0
M  V30 1101 H 105.893 0.368668 2.92788 0
M  V30 1102 H 105.974 1.76829 1.84838 0
M  V30 1103 H 105.618 3.3078 3.85418 0
M  V30 1104 H 105.548 1.88096 4.91861 0
M  V30 1105 H 108.039 1.71906 3.36536 0
M  V30 1106 H 108.352 4.06076 6.57512 0
M  V30 1107 H 106.697 3.64604 5.91683 0
M  V30 1108 H 109.888 2.20406 4.12963 0
M  V30 1109 H 110.061 3.2717 5.59342 0
M  V30 1110 N 103.467 -1.45747 0.599634 0
M  V30 1111 C 104.715 -2.01893 0.0915472 0
M  V30 1112 C 105.036 -1.47155 -1.27946 0
M  V30 1113 O 104.306 -0.66273 -1.84349 0
M  V30 1114 H 102.886 -0.746363 0.0308524 0
M  V30 1115 H 105.548 -1.78645 0.779237 0
M  V30 1116 H 104.644 -3.1208 0.0353086 0
M  V30 1117 N 104.945 -0.338344 -1.53925 0
M  V30 1118 C 106.191 0.260143 -2.01125 0
M  V30 1119 C 106.524 1.50617 -1.22589 0
M  V30 1120 O 105.799 1.91979 -0.312113 0
M  V30 1121 C 106.082 0.579499 -3.55407 0
M  V30 1122 C 105.935 -0.678264 -4.44657 0
M  V30 1123 C 107.254 1.39122 -4.17532 0
M  V30 1124 H 104.373 0.0930772 -0.731099 0
M  V30 1125 H 107.015 -0.457852 -1.84401 0
M  V30 1126 H 105.165 1.19118 -3.69788 0
M  V30 1127 H 106.837 -1.31631 -4.42121 0
M  V30 1128 H 105.08 -1.3042 -4.13731 0
M  V30 1129 H 105.751 -0.410143 -5.50474 0
M  V30 1130 H 108.227 0.874035 -4.06817 0
M  V30 1131 H 107.103 1.58342 -5.25565 0
M  V30 1132 H 107.364 2.39178 -3.71815 0
M  V30 1133 N 106.423 1.57458 -0.0668435 0
M  V30 1134 C 107.651 1.97624 0.612565 0
M  V30 1135 C 108.066 0.94502 1.63447 0
M  V30 1136 O 107.423 -0.0689276 1.8237 0
M  V30 1137 C 107.474 3.37869 1.28555 0
M  V30 1138 O 107.195 4.3704 0.304557 0
M  V30 1139 C 108.696 3.92882 2.05325 0
M  V30 1140 H 105.916 0.650045 0.166381 0
M  V30 1141 H 108.46 2.04035 -0.137782 0
M  V30 1142 H 106.615 3.3256 1.98702 0
M  V30 1143 H 107.029 5.18565 0.786779 0
M  V30 1144 H 108.503 4.93247 2.47812 0
M  V30 1145 H 108.98 3.29156 2.9078 0
M  V30 1146 H 109.586 4.01577 1.40056 0
M  V30 1147 N 107.901 -0.206675 1.56239 0
M  V30 1148 C 108.848 -1.25617 1.93621 0
M  V30 1149 C 109.818 -1.45824 0.795274 0
M  V30 1150 O 111.003 -1.59148 1.05245 0
M  V30 1151 C 108.143 -2.59839 2.27107 0
M  V30 1152 C 107.256 -2.47308 3.54207 0
M  V30 1153 C 106.391 -3.74155 3.7707 0
M  V30 1154 C 105.43 -3.56407 4.97635 0
M  V30 1155 N 104.567 -4.75238 5.1681 0
M  V30 1156 H 109.407 -0.930383 2.83104 0
M  V30 1157 H 106.944 -0.448065 1.4011 0
M  V30 1158 H 108.902 -3.38021 2.44535 0
M  V30 1159 H 107.532 -2.90485 1.40778 0
M  V30 1160 H 106.584 -1.60483 3.4489 0
M  V30 1161 H 107.896 -2.30122 4.42544 0
M  V30 1162 H 107.05 -4.60778 3.94675 0
M  V30 1163 H 105.789 -3.94282 2.87042 0
M  V30 1164 H 104.794 -2.68168 4.79964 0
M  V30 1165 H 106.019 -3.37736 5.89161 0
M  V30 1166 H 103.965 -4.95651 4.29728 0
M  V30 1167 H 103.882 -4.60835 5.99306 0
M  V30 1168 H 105.15 -5.63246 5.38864 0
M  V30 1169 N 109.379 -1.50304 -0.473955 0
M  V30 1170 C 110.795 -1.37667 -0.807466 0
M  V30 1171 C 110.995 -0.430555 -1.96846 0
M  V30 1172 O 110.051 0.127874 -2.52176 0
M  V30 1173 C 111.364 -2.78974 -1.12223 0
M  V30 1174 C 112.912 -2.87868 -1.22885 0
M  V30 1175 C 113.387 -4.30003 -1.57676 0
M  V30 1176 N 114.878 -4.3294 -1.64673 0
M  V30 1177 C 115.613 -5.3991 -1.93091 0
M  V30 1178 N 115.109 -6.57092 -2.1955 0
M  V30 1179 N 116.902 -5.27351 -1.94569 0
M  V30 1180 H 109.053 -2.10394 0.291212 0
M  V30 1181 H 111.316 -0.945575 0.0677609 0
M  V30 1182 H 111.022 -3.50031 -0.342229 0
M  V30 1183 H 110.896 -3.16038 -2.05913 0
M  V30 1184 H 113.283 -2.17032 -1.99953 0
M  V30 1185 H 113.364 -2.54352 -0.271814 0
M  V30 1186 H 113.008 -5.01375 -0.81149 0
M  V30 1187 H 112.938 -4.61004 -2.54525 0
M  V30 1188 H 115.429 -3.48441 -1.46277 0
M  V30 1189 H 115.742 -7.34425 -2.405 0
M  V30 1190 H 114.087 -6.60272 -2.16948 0
M  V30 1191 H 117.278 -4.34801 -1.73394 0
M  V30 1192 H 117.451 -6.10805 -2.16381 0
M  V30 1193 N 110.857 0.726932 -1.39834 0
M  V30 1194 C 112.082 1.52121 -1.40976 0
M  V30 1195 C 112.507 1.88098 -0.00826029 0
M  V30 1196 O 111.865 1.52479 0.980807 0
M  V30 1197 C 111.913 2.78021 -2.29644 0
M  V30 1198 O 111.017 3.74272 -1.73188 0
M  V30 1199 H 110.358 0.45908 -0.479731 0
M  V30 1200 H 112.888 0.896207 -1.83927 0
M  V30 1201 H 112.898 3.26671 -2.44438 0
M  V30 1202 H 111.573 2.51169 -3.31492 0
M  V30 1203 H 110.15 3.33073 -1.6768 0
M  V30 1204 N 112.336 1.25143 0.95797 0
M  V30 1205 C 113.266 1.07711 2.07173 0
M  V30 1206 C 114.247 -0.0128462 1.70095 0
M  V30 1207 O 115.432 0.156061 1.93572 0
M  V30 1208 C 112.562 0.691503 3.40346 0
M  V30 1209 C 111.516 1.73132 3.9142 0
M  V30 1210 C 110.842 1.20049 5.21049 0
M  V30 1211 C 112.142 3.1294 4.1817 0
M  V30 1212 H 113.836 2.00873 2.22014 0
M  V30 1213 H 111.382 0.967191 1.06684 0
M  V30 1214 H 113.335 0.556505 4.17709 0
M  V30 1215 H 112.059 -0.275819 3.25433 0
M  V30 1216 H 110.718 1.8547 3.16222 0
M  V30 1217 H 110.366 0.223499 5.02503 0
M  V30 1218 H 110.066 1.89545 5.56189 0
M  V30 1219 H 111.59 1.07782 6.01012 0
M  V30 1220 H 113.004 3.03775 4.86203 0
M  V30 1221 H 111.401 3.79875 4.64559 0
M  V30 1222 H 112.471 3.6025 3.24573 0
M  V30 1223 N 113.814 -1.1601 1.06675 0
M  V30 1224 C 115.039 -1.91068 0.806706 0
M  V30 1225 C 115.464 -1.77112 -0.633485 0
M  V30 1226 O 114.822 -1.09908 -1.44187 0
M  V30 1227 C 114.87 -3.39655 1.21106 0
M  V30 1228 O 113.974 -4.10893 0.352189 0
M  V30 1229 H 113.315 -0.595125 0.294486 0
M  V30 1230 H 115.845 -1.46955 1.42356 0
M  V30 1231 H 115.855 -3.90434 1.18428 0
M  V30 1232 H 114.53 -3.49132 2.26008 0
M  V30 1233 H 113.107 -3.70285 0.440868 0
M  V30 1234 N 115.292 -0.849877 -1.32721 0
M  V30 1235 C 116.703 -0.506188 -1.79707 0
M  V30 1236 C 117.054 0.975627 -1.70223 0
M  V30 1237 O 116.179 1.76078 -1.25799 0
M  V30 1238 C 116.774 -0.912044 -3.26293 0
M  V30 1239 C 115.333 -0.620326 -3.71253 0
M  V30 1240 C 114.48 -1.11439 -2.53922 0
M  V30 1241 H 117.431 -1.03754 -1.20087 0
M  V30 1242 H 117.452 -0.226493 -3.79825 0
M  V30 1243 H 116.964 -1.99057 -3.33164 0
M  V30 1244 H 115.065 0.447674 -3.69901 0
M  V30 1245 H 115.178 -1.18327 -4.64258 0
M  V30 1246 H 113.542 -0.534834 -2.49021 0
M  V30 1247 H 114.325 -2.19992 -2.6355 0
M  V30 1248 N 116.77 1.45427 -0.607355 0
M  V30 1249 C 117.72 2.27612 0.133038 0
M  V30 1250 C 118.704 1.37307 0.838785 0
M  V30 1251 O 119.896 1.61299 0.728813 0
M  V30 1252 C 117.025 3.24173 1.12991 0
M  V30 1253 C 116.111 4.21965 0.425011 0
M  V30 1254 N 116.502 5.02982 -0.533217 0
M  V30 1255 C 114.8 4.40899 0.672593 0
M  V30 1256 C 115.501 5.73931 -0.947518 0
M  V30 1257 N 114.477 5.42819 -0.291321 0
M  V30 1258 H 118.279 2.87649 -0.602935 0
M  V30 1259 H 115.793 1.56576 -0.431006 0
M  V30 1260 H 117.79 3.81783 1.67473 0
M  V30 1261 H 116.45 2.65696 1.86644 0
M  V30 1262 H 117.461 5.09843 -0.90995 0
M  V30 1263 H 114.138 3.93547 1.39382 0
M  V30 1264 H 115.528 6.49037 -1.73782 0
M  V30 1265 N 118.248 0.346503 1.53744 0
M  V30 1266 C 119.664 -0.00530975 1.59599 0
M  V30 1267 C 119.864 -1.48465 1.36236 0
M  V30 1268 O 118.92 -2.24376 1.15808 0
M  V30 1269 C 120.233 0.433516 2.97559 0
M  V30 1270 C 121.781 0.386111 3.10609 0
M  V30 1271 C 122.256 0.800451 4.50951 0
M  V30 1272 N 123.747 0.754753 4.5701 0
M  V30 1273 C 124.482 1.04727 5.63755 0
M  V30 1274 N 123.978 1.4081 6.7834 0
M  V30 1275 N 125.771 0.971316 5.53644 0
M  V30 1276 H 117.922 1.31009 1.67184 0
M  V30 1277 H 120.185 0.534242 0.783128 0
M  V30 1278 H 119.891 1.46509 3.19731 0
M  V30 1279 H 119.765 -0.189753 3.76722 0
M  V30 1280 H 122.152 -0.636295 2.88158 0
M  V30 1281 H 122.233 1.04462 2.33498 0
M  V30 1282 H 121.877 1.82088 4.74137 0
M  V30 1283 H 121.807 0.119386 5.26465 0
M  V30 1284 H 124.298 0.488662 3.74727 0
M  V30 1285 H 124.611 1.61607 7.55714 0
M  V30 1286 H 122.956 1.44657 6.79779 0
M  V30 1287 H 126.147 0.688748 4.63005 0
M  V30 1288 H 126.32 1.20263 6.36742 0
M  V30 1289 N 119.726 -1.57421 0.075193 0
M  V30 1290 C 121.137 -1.81021 -0.456964 0
M  V30 1291 C 121.488 -0.98936 -1.69429 0
M  V30 1292 O 120.613 -0.212865 -2.15351 0
M  V30 1293 C 121.208 -3.28329 -0.83581 0
M  V30 1294 C 119.767 -3.52764 -1.31281 0
M  V30 1295 C 118.914 -2.75676 -0.299648 0
M  V30 1296 H 121.865 -1.55822 0.300856 0
M  V30 1297 H 121.886 -3.40564 -1.69696 0
M  V30 1298 H 121.398 -3.88046 0.0649238 0
M  V30 1299 H 119.499 -2.98355 -2.23193 0
M  V30 1300 H 119.612 -4.61451 -1.28839 0
M  V30 1301 H 117.976 -2.42538 -0.777641 0
M  V30 1302 H 118.759 -3.38132 0.593417 0
M  V30 1303 N 121.204 0.198386 -1.56346 0
M  V30 1304 C 122.62 0.549085 -1.49857 0
M  V30 1305 C 122.82 1.86016 -0.774611 0
M  V30 1306 O 121.876 2.50416 -0.323776 0
M  V30 1307 C 123.189 0.606868 -2.94512 0
M  V30 1308 C 124.737 0.695925 -3.05165 0
M  V30 1309 C 125.212 0.784848 -4.51225 0
M  V30 1310 N 126.703 0.848463 -4.55363 0
M  V30 1311 C 127.438 0.937378 -5.65686 0
M  V30 1312 N 126.934 0.9888 -6.85707 0
M  V30 1313 N 128.727 0.974312 -5.53592 0
M  V30 1314 H 120.878 -0.661655 -2.01831 0
M  V30 1315 H 123.141 -0.235261 -0.918344 0
M  V30 1316 H 122.847 -0.28732 -3.50524 0
M  V30 1317 H 122.721 1.46268 -3.47686 0
M  V30 1318 H 125.108 1.58055 -2.49204 0
M  V30 1319 H 125.189 -0.186022 -2.55123 0
M  V30 1320 H 124.833 -0.0954072 -5.0781 0
M  V30 1321 H 124.763 1.68255 -4.98997 0
M  V30 1322 H 127.254 0.818103 -3.68938 0
M  V30 1323 H 127.567 1.05707 -7.65536 0
M  V30 1324 H 125.912 0.957534 -6.88372 0
M  V30 1325 H 129.103 0.930954 -4.58749 0
M  V30 1326 H 129.276 1.04015 -6.39597 0
M  V30 1327 N 122.682 1.50554 0.465978 0
M  V30 1328 C 123.632 1.66177 1.56106 0
M  V30 1329 C 124.616 0.516265 1.52393 0
M  V30 1330 O 125.808 0.770906 1.5933 0
M  V30 1331 C 122.937 1.76396 2.94515 0
M  V30 1332 C 122.023 2.9664 3.03093 0
M  V30 1333 N 122.414 4.20245 2.81474 0
M  V30 1334 C 120.712 2.95304 3.34233 0
M  V30 1335 C 121.413 5.01259 2.95151 0
M  V30 1336 N 120.389 4.35318 3.25576 0
M  V30 1337 H 124.191 2.59434 1.38099 0
M  V30 1338 H 121.705 1.47808 0.6728 0
M  V30 1339 H 123.702 1.85694 3.73261 0
M  V30 1340 H 122.362 0.843017 3.13565 0
M  V30 1341 H 123.373 4.4966 2.56956 0
M  V30 1342 H 120.05 2.12729 3.59239 0
M  V30 1343 H 121.44 6.09564 2.82632 0
M  V30 1344 N 124.16 -0.719506 1.40217 0
M  V30 1345 C 125.385 -1.51371 1.4178 0
M  V30 1346 C 125.81 -1.88091 0.0182355 0
M  V30 1347 O 125.168 -1.52997 -0.972707 0
M  V30 1348 C 125.216 -2.768 2.31115 0
M  V30 1349 O 124.32 -3.73349 1.7517 0
M  V30 1350 H 123.661 -0.456529 0.482159 0
M  V30 1351 H 126.191 -0.88644 1.844 0
M  V30 1352 H 126.201 -3.25371 2.46167 0
M  V30 1353 H 124.876 -2.49407 3.3282 0
M  V30 1354 H 123.453 -3.32179 1.69444 0
M  V30 1355 N 125.638 -1.25649 -0.95132 0
M  V30 1356 C 127.054 -1.02542 -1.223 0
M  V30 1357 C 127.254 0.255715 -1.99871 0
M  V30 1358 O 126.31 0.967558 -2.33226 0
M  V30 1359 C 127.623 -2.25065 -1.99415 0
M  V30 1360 C 129.171 -2.29861 -2.12446 0
M  V30 1361 C 129.646 -3.52048 -2.92961 0
M  V30 1362 N 131.137 -3.52465 -3.00538 0
M  V30 1363 C 131.872 -4.43672 -3.63239 0
M  V30 1364 N 131.368 -5.45157 -4.27523 0
M  V30 1365 N 133.161 -4.31346 -3.60412 0
M  V30 1366 H 125.312 -2.07951 -0.432471 0
M  V30 1367 H 127.575 -0.91339 -0.253816 0
M  V30 1368 H 127.281 -3.18194 -1.49817 0
M  V30 1369 H 127.155 -2.28502 -3.00111 0
M  V30 1370 H 129.542 -1.37252 -2.61239 0
M  V30 1371 H 129.623 -2.3044 -1.11044 0
M  V30 1372 H 129.267 -4.44981 -2.44856 0
M  V30 1373 H 129.197 -3.48715 -3.94596 0
M  V30 1374 H 131.688 -2.79056 -2.54826 0
M  V30 1375 H 132.001 -6.10958 -4.73234 0
M  V30 1376 H 130.346 -5.49025 -4.26141 0
M  V30 1377 H 133.537 -3.51288 -3.09377 0
M  V30 1378 H 133.71 -5.02624 -4.0899 0
M  V30 1379 N 127.117 1.15442 -1.07289 0
M  V30 1380 C 128.047 2.22312 -0.714107 0
M  V30 1381 C 129.028 1.67467 0.298155 0
M  V30 1382 O 130.213 1.93445 0.171048 0
M  V30 1383 C 127.343 3.47124 -0.110448 0
M  V30 1384 C 126.297 4.14926 -1.04979 0
M  V30 1385 C 125.623 5.33807 -0.308924 0
M  V30 1386 C 126.923 4.64762 -2.38314 0
M  V30 1387 H 128.617 2.5258 -1.6076 0
M  V30 1388 H 126.163 1.21404 -0.77441 0
M  V30 1389 H 128.116 4.21124 0.152482 0
M  V30 1390 H 126.84 3.16187 0.81812 0
M  V30 1391 H 125.499 3.42866 -1.29764 0
M  V30 1392 H 125.147 4.99126 0.623084 0
M  V30 1393 H 124.847 5.80113 -0.935036 0
M  V30 1394 H 126.371 6.10576 -0.0537771 0
M  V30 1395 H 127.785 5.30292 -2.1786 0
M  V30 1396 H 126.182 5.21728 -2.96514 0
M  V30 1397 H 127.252 3.80434 -3.00663 0
M  V30 1398 N 128.595 0.856903 1.32268 0
M  V30 1399 C 129.527 0.260412 2.27716 0
M  V30 1400 C 130.54 -0.569137 1.52528 0
M  V30 1401 O 131.729 -0.39326 1.74114 0
M  V30 1402 C 128.829 -0.650477 3.32599 0
M  V30 1403 C 128.002 0.14372 4.37164 0
M  V30 1404 C 127.061 -0.69328 5.21613 0
M  V30 1405 O 126.087 -0.12599 5.69061 0
M  V30 1406 N 127.289 -2.00761 5.44679 0
M  V30 1407 H 130.054 1.08059 2.79541 0
M  V30 1408 H 127.615 0.717103 1.45152 0
M  V30 1409 H 129.607 -1.21581 3.86005 0
M  V30 1410 H 128.177 -1.37133 2.80915 0
M  V30 1411 H 127.397 0.890486 3.8401 0
M  V30 1412 H 128.685 0.68915 5.04111 0
M  V30 1413 H 128.083 -2.49181 5.07863 0
M  V30 1414 H 126.64 -2.52103 6.01072 0
M  V30 1415 N 130.073 -1.45103 0.615059 0
M  V30 1416 C 131.489 -1.57137 0.279322 0
M  V30 1417 C 131.689 -1.60523 -1.21797 0
M  V30 1418 O 130.745 -1.53956 -2.00134 0
M  V30 1419 C 132.058 -2.85062 0.957083 0
M  V30 1420 C 133.606 -2.98749 0.933706 0
M  V30 1421 C 134.081 -4.29455 1.59162 0
M  V30 1422 N 135.572 -4.36231 1.55746 0
M  V30 1423 C 136.307 -5.36051 2.0356 0
M  V30 1424 N 135.803 -6.42367 2.59494 0
M  V30 1425 N 137.596 -5.27456 1.94284 0
M  V30 1426 H 129.747 -1.41148 1.58717 0
M  V30 1427 H 132.01 -0.675331 0.665306 0
M  V30 1428 H 131.716 -2.88488 2.01166 0
M  V30 1429 H 131.59 -3.7407 0.48494 0
M  V30 1430 H 133.977 -2.94886 -0.112347 0
M  V30 1431 H 134.058 -2.11132 1.44419 0
M  V30 1432 H 133.702 -4.34077 2.63704 0
M  V30 1433 H 133.632 -5.15901 1.0561 0
M  V30 1434 H 136.123 -3.60011 1.14893 0
M  V30 1435 H 136.436 -7.14793 2.93752 0
M  V30 1436 H 134.781 -6.43097 2.63537 0
M  V30 1437 H 137.972 -4.43308 1.5032 0
M  V30 1438 H 138.145 -6.05099 2.3186 0
M  V30 1439 N 131.551 -0.354651 -1.53558 0
M  V30 1440 C 132.461 0.50515 -2.29097 0
M  V30 1441 C 133.477 1.10223 -1.34636 0
M  V30 1442 O 134.653 1.11553 -1.67684 0
M  V30 1443 C 131.718 1.63479 -3.05738 0
M  V30 1444 C 130.779 1.06636 -4.15845 0
M  V30 1445 C 130.012 2.14217 -4.88822 0
M  V30 1446 O 130.235 3.35137 -4.61562 0
M  V30 1447 O 129.169 1.77887 -5.75013 0
M  V30 1448 H 132.995 -0.109237 -3.03503 0
M  V30 1449 H 130.58 -0.119357 -1.48922 0
M  V30 1450 H 132.462 2.2918 -3.5363 0
M  V30 1451 H 131.137 2.23478 -2.34178 0
M  V30 1452 H 130.044 0.373565 -3.7223 0
M  V30 1453 H 131.377 0.511081 -4.89539 0
M  V30 1454 N 133.029 1.57378 -0.0835403 0
M  V30 1455 C 134.44 1.81261 0.447358 0
M  V30 1456 C 134.791 0.998331 1.68902 0
M  V30 1457 O 133.916 0.224282 2.15235 0
M  V30 1458 C 134.511 3.28767 0.818386 0
M  V30 1459 C 133.07 3.53455 1.29409 0
M  V30 1460 C 132.217 2.75831 0.285024 0
M  V30 1461 H 135.168 1.5566 -0.309115 0
M  V30 1462 H 135.189 3.41459 1.67887 0
M  V30 1463 H 134.701 3.88006 -0.0855019 0
M  V30 1464 H 132.802 2.99534 2.21608 0
M  V30 1465 H 132.915 4.62128 1.2639 0
M  V30 1466 H 131.279 2.42947 0.764767 0
M  V30 1467 H 132.062 3.37813 -0.611341 0
M  V30 1468 N 134.507 -0.190092 1.56449 0
M  V30 1469 C 135.439 -1.25973 1.91477 0
M  V30 1470 C 136.452 -1.41452 0.805931 0
M  V30 1471 O 137.641 -1.41789 1.08435 0
M  V30 1472 C 134.741 -2.63117 2.13594 0
M  V30 1473 C 133.914 -2.69182 3.4476 0
M  V30 1474 C 132.973 -3.87557 3.5593 0
M  V30 1475 O 131.999 -3.74427 4.28711 0
M  V30 1476 N 133.201 -5.03224 2.89388 0
M  V30 1477 H 135.966 -0.962394 2.83828 0
M  V30 1478 H 133.527 -0.379981 1.57378 0
M  V30 1479 H 135.519 -3.40742 2.1835 0
M  V30 1480 H 134.089 -2.85319 1.27719 0
M  V30 1481 H 133.309 -1.77793 3.51828 0
M  V30 1482 H 134.597 -2.70229 4.31107 0
M  V30 1483 H 133.995 -5.16791 2.30094 0
M  V30 1484 H 132.552 -5.78778 2.99764 0
M  V30 1485 N 135.985 -1.50799 -0.457987 0
M  V30 1486 C 137.231 -1.62683 -1.21088 0
M  V30 1487 C 137.564 -0.332268 -1.91336 0
M  V30 1488 O 136.839 0.667043 -1.82704 0
M  V30 1489 C 137.122 -2.81615 -2.24422 0
M  V30 1490 C 136.975 -4.20989 -1.58392 0
M  V30 1491 C 138.294 -2.96085 -3.2561 0
M  V30 1492 H 135.413 -0.592087 -0.438864 0
M  V30 1493 H 138.055 -1.83225 -0.50286 0
M  V30 1494 H 136.205 -2.64231 -2.84806 0
M  V30 1495 H 137.877 -4.49994 -1.01504 0
M  V30 1496 H 136.12 -4.24641 -0.886704 0
M  V30 1497 H 136.791 -5.0016 -2.33547 0
M  V30 1498 H 139.267 -3.12042 -2.75262 0
M  V30 1499 H 138.143 -3.80902 -3.95228 0
M  V30 1500 H 138.404 -2.0726 -3.90507 0
M  V30 1501 N 137.463 0.71206 -1.40597 0
M  V30 1502 C 138.395 1.83704 -1.37061 0
M  V30 1503 C 139.408 1.60453 -0.275426 0
M  V30 1504 O 140.597 1.70262 -0.53602 0
M  V30 1505 C 137.697 3.20172 -1.11099 0
M  V30 1506 C 136.87 3.7059 -2.3234 0
M  V30 1507 C 135.929 4.85681 -2.02485 0
M  V30 1508 O 134.955 4.9815 -2.75382 0
M  V30 1509 N 136.157 5.71735 -1.00497 0
M  V30 1510 H 138.922 1.87235 -2.34016 0
M  V30 1511 H 136.483 0.893739 -1.34996 0
M  V30 1512 H 138.475 3.94768 -0.891064 0
M  V30 1513 H 137.045 3.11767 -0.227989 0
M  V30 1514 H 136.265 2.87085 -2.7014 0
M  V30 1515 H 137.553 4.01011 -3.13157 0
M  V30 1516 H 136.951 5.64275 -0.401298 0
M  V30 1517 H 135.508 6.463 -0.844942 0
M  V30 1518 N 138.941 1.26152 0.944643 0
M  V30 1519 C 140.187 1.12665 1.69346 0
M  V30 1520 C 140.542 -0.3273 1.89596 0
M  V30 1521 O 139.835 -1.23717 1.46303 0
M  V30 1522 C 140.029 1.82541 3.07268 0
M  V30 1523 C 139.858 3.34582 3.00475 0
M  V30 1524 C 138.628 4.03863 3.03681 0
M  V30 1525 C 140.826 4.30828 2.80877 0
M  V30 1526 N 138.808 5.42603 2.87151 0
M  V30 1527 C 140.179 5.5672 2.7288 0
M  V30 1528 C 142.234 4.21122 2.65633 0
M  V30 1529 C 140.937 6.74013 2.51196 0
M  V30 1530 C 142.963 5.38118 2.45323 0
M  V30 1531 C 142.325 6.62955 2.38055 0
M  V30 1532 H 138.424 0.467041 0.627214 0
M  V30 1533 H 141.008 1.59391 1.11815 0
M  V30 1534 H 139.179 1.38296 3.62945 0
M  V30 1535 H 140.911 1.61708 3.70989 0
M  V30 1536 H 137.666 3.55198 3.1326 0
M  V30 1537 H 138.09 6.15443 2.82063 0
M  V30 1538 H 142.732 3.25344 2.70021 0
M  V30 1539 H 140.45 7.6989 2.4555 0
M  V30 1540 H 144.036 5.32475 2.34439 0
M  V30 1541 H 142.916 7.51959 2.22546 0
M  V30 1542 N 140.419 -1.14872 1.07899 0
M  V30 1543 C 141.349 -2.2193 0.725887 0
M  V30 1544 C 142.33 -1.67622 -0.28927 0
M  V30 1545 O 143.515 -1.93533 -0.160787 0
M  V30 1546 C 140.645 -3.47061 0.128856 0
M  V30 1547 C 139.599 -4.14363 1.07178 0
M  V30 1548 C 138.925 -5.33636 0.337229 0
M  V30 1549 C 140.225 -4.63492 2.40775 0
M  V30 1550 H 141.919 -2.51724 1.62097 0
M  V30 1551 H 139.465 -1.20991 0.780838 0
M  V30 1552 H 141.418 -4.21199 -0.130147 0
M  V30 1553 H 140.142 -3.16617 -0.80134 0
M  V30 1554 H 138.801 -3.42173 1.3158 0
M  V30 1555 H 138.449 -4.99449 -0.596606 0
M  V30 1556 H 138.149 -5.79609 0.965788 0
M  V30 1557 H 139.673 -6.10539 0.0861567 0
M  V30 1558 H 141.087 -5.2913 2.20669 0
M  V30 1559 H 139.484 -5.20148 2.99276 0
M  V30 1560 H 140.554 -3.78834 3.02676 0
M  V30 1561 N 141.898 -0.863906 -1.31812 0
M  V30 1562 C 142.808 -0.318461 -2.32428 0
M  V30 1563 C 143.824 0.568496 -1.64451 0
M  V30 1564 O 145 0.46666 -1.95919 0
M  V30 1565 C 142.065 0.476355 -3.43412 0
M  V30 1566 C 141.126 -0.43784 -4.27061 0
M  V30 1567 C 140.359 0.319138 -5.32745 0
M  V30 1568 O 140.582 1.54799 -5.48993 0
M  V30 1569 O 139.516 -0.319861 -6.01049 0
M  V30 1570 H 143.342 -1.15229 -2.80991 0
M  V30 1571 H 140.927 -0.627103 -1.35602 0
M  V30 1572 H 142.809 0.927156 -4.11074 0
M  V30 1573 H 141.484 1.28683 -2.97022 0
M  V30 1574 H 140.391 -0.937013 -3.62175 0
M  V30 1575 H 141.724 -1.21375 -4.77 0
M  V30 1576 N 143.376 1.44774 -0.622745 0
M  V30 1577 C 144.308 2.28856 0.125485 0
M  V30 1578 C 145.321 1.40811 0.817069 0
M  V30 1579 O 146.51 1.65044 0.679918 0
M  V30 1580 C 143.61 3.16963 1.19949 0
M  V30 1581 C 142.783 4.33374 0.592064 0
M  V30 1582 C 141.842 5.02577 1.55893 0
M  V30 1583 O 140.868 5.58873 1.07933 0
M  V30 1584 N 142.07 5.03256 2.89334 0
M  V30 1585 H 144.835 2.93713 -0.596068 0
M  V30 1586 H 142.396 1.55129 -0.463303 0
M  V30 1587 H 144.388 3.60123 1.84644 0
M  V30 1588 H 142.958 2.53913 1.82337 0
M  V30 1589 H 142.178 3.93509 -0.233322 0
M  V30 1590 H 143.466 5.08527 0.166738 0
M  V30 1591 H 142.864 4.58836 3.30887 0
M  V30 1592 H 141.421 5.50232 3.49412 0
M  V30 1593 N 144.854 0.36279 1.53368 0
M  V30 1594 C 145.786 -0.519668 2.23231 0
M  V30 1595 C 146.799 -1.04844 1.24546 0
M  V30 1596 O 147.988 -0.955296 1.50786 0
M  V30 1597 C 145.088 -1.72995 2.9142 0
M  V30 1598 C 144.261 -1.33316 4.16588 0
M  V30 1599 C 143.32 -2.40521 4.68013 0
M  V30 1600 O 142.346 -2.03027 5.3176 0
M  V30 1601 N 143.548 -3.72065 4.45587 0
M  V30 1602 H 146.313 0.078751 2.99597 0
M  V30 1603 H 143.874 0.187833 1.60807 0
M  V30 1604 H 145.866 -2.44184 3.22733 0
M  V30 1605 H 144.436 -2.2353 2.18525 0
M  V30 1606 H 143.656 -0.451236 3.91609 0
M  V30 1607 H 144.944 -1.04432 4.97967 0
M  V30 1608 H 144.342 -4.05304 3.94646 0
M  V30 1609 H 142.899 -4.39366 4.81457 0
M  V30 1610 N 146.332 -1.57332 0.0918853 0
M  V30 1611 C 147.578 -1.94524 -0.573425 0
M  V30 1612 C 147.911 -0.973578 -1.68033 0
M  V30 1613 O 147.186 -0.00609226 -1.94499 0
M  V30 1614 C 147.469 -3.41858 -1.13161 0
M  V30 1615 C 147.322 -4.4979 -0.0299747 0
M  V30 1616 C 148.641 -3.90435 -2.03098 0
M  V30 1617 H 145.76 -0.70734 -0.206975 0
M  V30 1618 H 148.402 -1.89309 0.161942 0
M  V30 1619 H 146.552 -3.46433 -1.7583 0
M  V30 1620 H 148.224 -4.57327 0.604112 0
M  V30 1621 H 146.467 -4.291 0.636833 0
M  V30 1622 H 147.138 -5.50069 -0.461287 0
M  V30 1623 H 149.614 -3.87992 -1.50338 0
M  V30 1624 H 148.49 -4.94097 -2.39081 0
M  V30 1625 H 148.751 -3.29541 -2.94712 0
M  V30 1626 N 147.81 0.181792 -1.56548 0
M  V30 1627 C 148.773 1.20894 -1.94724 0
M  V30 1628 C 149.773 1.37738 -0.829747 0
M  V30 1629 O 150.963 1.35323 -1.09697 0
M  V30 1630 C 148.095 2.57593 -2.23291 0
M  V30 1631 H 149.288 0.882275 -2.86629 0
M  V30 1632 H 146.841 0.423838 -1.50444 0
M  V30 1633 H 147.576 2.95291 -1.34067 0
M  V30 1634 H 147.361 2.46735 -3.04736 0
M  V30 1635 H 148.851 3.31637 -2.53785 0
M  V30 1636 N 149.288 1.51039 0.449983 0
M  V30 1637 C 150.235 1.71439 1.54523 0
M  V30 1638 C 151.205 0.555871 1.56522 0
M  V30 1639 O 152.39 0.788871 1.73728 0
M  V30 1640 C 149.53 1.83384 2.92343 0
M  V30 1641 C 148.643 3.10873 2.9997 0
M  V30 1642 C 147.778 3.13488 4.28834 0
M  V30 1643 C 146.817 4.35343 4.30282 0
M  V30 1644 N 145.954 4.35579 5.5065 0
M  V30 1645 H 150.794 2.64934 1.36433 0
M  V30 1646 H 148.331 1.31312 0.662982 0
M  V30 1647 H 150.289 1.88291 3.72293 0
M  V30 1648 H 148.919 0.933086 3.0902 0
M  V30 1649 H 147.971 3.15336 2.12761 0
M  V30 1650 H 149.283 4.00814 2.96901 0
M  V30 1651 H 148.437 3.17241 5.17149 0
M  V30 1652 H 147.176 2.21414 4.34543 0
M  V30 1653 H 146.181 4.3178 3.40362 0
M  V30 1654 H 147.406 5.28668 4.26248 0
M  V30 1655 H 145.352 3.46369 5.57104 0
M  V30 1656 H 145.269 5.19313 5.49409 0
M  V30 1657 H 146.537 4.43507 6.41032 0
M  V30 1658 N 150.766 -0.704594 1.40972 0
M  V30 1659 C 152.182 -1.01406 1.23244 0
M  V30 1660 C 152.382 -2.01169 0.115399 0
M  V30 1661 O 151.438 -2.47021 -0.523147 0
M  V30 1662 C 152.751 -1.54728 2.57836 0
M  V30 1663 C 154.299 -1.66658 2.64942 0
M  V30 1664 C 154.774 -2.23383 3.9983 0
M  V30 1665 N 156.265 -2.30756 4.01629 0
M  V30 1666 C 157 -2.75655 5.02794 0
M  V30 1667 N 156.496 -3.20225 6.14352 0
M  V30 1668 N 158.289 -2.75138 4.90159 0
M  V30 1669 H 150.44 -0.0435285 2.12355 0
M  V30 1670 H 152.703 -0.0818951 0.944456 0
M  V30 1671 H 152.409 -0.888832 3.40283 0
M  V30 1672 H 152.283 -2.53084 2.79693 0
M  V30 1673 H 154.67 -2.31617 1.8286 0
M  V30 1674 H 154.751 -0.668717 2.46904 0
M  V30 1675 H 154.395 -1.59043 4.82357 0
M  V30 1676 H 154.325 -3.23904 4.15203 0
M  V30 1677 H 156.816 -1.99291 3.21079 0
M  V30 1678 H 157.129 -3.53084 6.87424 0
M  V30 1679 H 155.474 -3.18156 6.17901 0
M  V30 1680 H 158.665 -2.39661 4.02095 0
M  V30 1681 H 158.838 -3.09812 5.6914 0
M  V30 1682 N 152.244 -1.26651 -0.937939 0
M  V30 1683 C 153.66 -1.03834 -1.21205 0
M  V30 1684 C 153.86 0.234502 -2.00131 0
M  V30 1685 O 152.916 0.942767 -2.3424 0
M  V30 1686 C 154.229 -2.27167 -1.97017 0
M  V30 1687 C 155.777 -2.32101 -2.09996 0
M  V30 1688 C 156.252 -3.55136 -2.8921 0
M  V30 1689 N 157.743 -3.55632 -2.96783 0
M  V30 1690 C 158.478 -4.475 -3.58512 0
M  V30 1691 N 157.974 -5.4966 -4.21717 0
M  V30 1692 N 159.767 -4.35145 -3.55816 0
M  V30 1693 H 151.918 -2.08398 -0.410391 0
M  V30 1694 H 154.181 -0.916031 -0.244114 0
M  V30 1695 H 153.887 -3.19765 -1.46434 0
M  V30 1696 H 153.761 -2.31672 -2.97671 0
M  V30 1697 H 156.148 -1.40015 -2.59769 0
M  V30 1698 H 156.229 -2.31605 -1.08594 0
M  V30 1699 H 155.873 -4.47553 -2.40123 0
M  V30 1700 H 155.803 -3.5288 -3.90875 0
M  V30 1701 H 158.294 -2.81743 -2.51852 0
M  V30 1702 H 158.607 -6.15943 -4.66727 0
M  V30 1703 H 156.952 -5.53514 -4.20294 0
M  V30 1704 H 160.143 -3.5455 -3.05634 0
M  V30 1705 H 160.316 -5.06934 -4.03636 0
M  V30 1706 N 153.722 1.14298 -1.08507 0
M  V30 1707 C 154.95 1.89219 -0.836876 0
M  V30 1708 C 155.365 1.78638 0.611054 0
M  V30 1709 O 154.722 1.14643 1.41998 0
M  V30 1710 C 154.773 3.39158 -1.25116 0
M  V30 1711 O 154.494 3.49449 -2.64229 0
M  V30 1712 C 155.995 4.31073 -1.03398 0
M  V30 1713 H 153.215 0.599328 -0.301739 0
M  V30 1714 H 155.759 1.44746 -1.44461 0
M  V30 1715 H 153.914 3.81251 -0.687514 0
M  V30 1716 H 154.328 4.42589 -2.81452 0
M  V30 1717 H 155.802 5.34646 -1.37323 0
M  V30 1718 H 156.279 4.3919 0.0289259 0
M  V30 1719 H 156.885 3.94738 -1.58311 0
M  V30 1720 N 155.201 0.870884 1.31352 0
M  V30 1721 C 156.148 0.325425 2.28494 0
M  V30 1722 C 157.118 -0.576615 1.5577 0
M  V30 1723 O 158.303 -0.508059 1.83911 0
M  V30 1724 C 155.443 -0.466283 3.41935 0
M  V30 1725 C 154.556 0.463378 4.29508 0
M  V30 1726 C 153.691 -0.342544 5.30094 0
M  V30 1727 C 152.73 0.583486 6.09313 0
M  V30 1728 N 151.867 -0.186244 7.01853 0
M  V30 1729 H 156.707 1.15901 2.74538 0
M  V30 1730 H 154.244 0.58294 1.35056 0
M  V30 1731 H 156.202 -0.941085 4.06447 0
M  V30 1732 H 154.832 -1.26456 2.97 0
M  V30 1733 H 153.884 1.05663 3.65431 0
M  V30 1734 H 155.196 1.1734 4.84802 0
M  V30 1735 H 154.35 -0.879816 6.00287 0
M  V30 1736 H 153.089 -1.08585 4.75458 0
M  V30 1737 H 152.094 1.13251 5.3801 0
M  V30 1738 H 153.319 1.32566 6.66035 0
M  V30 1739 H 151.265 -0.912348 6.49625 0
M  V30 1740 H 151.182 0.464422 7.54572 0
M  V30 1741 H 152.45 -0.704716 7.76308 0
M  V30 1742 N 156.679 -1.44442 0.630414 0
M  V30 1743 C 158.095 -1.56832 0.295973 0
M  V30 1744 C 158.295 -1.61806 -1.20088 0
M  V30 1745 O 157.351 -1.5607 -1.9849 0
M  V30 1746 C 158.664 -2.84031 0.987264 0
M  V30 1747 C 160.212 -2.97742 0.96534 0
M  V30 1748 C 160.687 -4.27743 1.63708 0
M  V30 1749 N 162.178 -4.34555 1.60364 0
M  V30 1750 C 162.913 -5.33862 2.09234 0
M  V30 1751 N 162.409 -6.39578 2.66292 0
M  V30 1752 N 164.202 -5.25366 1.99867 0
M  V30 1753 H 156.353 -1.39457 1.60205 0
M  V30 1754 H 158.616 -0.668237 0.672431 0
M  V30 1755 H 158.322 -2.86338 2.04215 0
M  V30 1756 H 158.196 -3.73534 0.524588 0
M  V30 1757 H 160.583 -2.94989 -0.0810639 0
M  V30 1758 H 160.664 -2.09589 1.4665 0
M  V30 1759 H 160.308 -4.31255 2.68293 0
M  V30 1760 H 160.238 -5.14752 1.11076 0
M  V30 1761 H 162.729 -3.58772 1.18705 0
M  V30 1762 H 163.042 -7.11637 3.01317 0
M  V30 1763 H 161.387 -6.40265 2.70343 0
M  V30 1764 H 164.578 -4.41688 1.55013 0
M  V30 1765 H 164.751 -6.02606 2.38265 0
M  V30 1766 N 158.157 -0.370918 -1.53173 0
M  V30 1767 C 159.434 0.273754 -1.93675 0
M  V30 1768 C 159.814 1.65938 -1.3049 0
M  V30 1769 O 159.162 2.23698 -0.465999 0
M  V30 1770 C 159.372 0.318602 -3.47543 0
M  V30 1771 C 160.72 0.556392 -4.20939 0
M  V30 1772 O 161.744 0.399587 -3.53952 0
M  V30 1773 O 160.603 0.862133 -5.39657 0
M  V30 1774 H 157.697 0.165448 -0.810281 0
M  V30 1775 H 160.243 -0.42409 -1.64315 0
M  V30 1776 H 159.015 -0.652687 -3.85818 0
M  V30 1777 H 158.638 1.06212 -3.83151 0
M  V30 1778 N 159.635 1.57281 -0.100228 0
M  V30 1779 C 160.881 1.94826 0.563101 0
M  V30 1780 C 161.214 0.982475 1.67514 0
M  V30 1781 O 160.489 0.0164069 1.94493 0
M  V30 1782 C 160.772 3.42453 1.11346 0
M  V30 1783 C 160.625 4.498 0.00612081 0
M  V30 1784 C 161.944 3.91506 2.01024 0
M  V30 1785 H 159.063 0.708428 0.203221 0
M  V30 1786 H 161.705 1.8922 -0.171979 0
M  V30 1787 H 159.855 3.47361 1.7399 0
M  V30 1788 H 161.527 4.57 -0.628357 0
M  V30 1789 H 159.77 4.28756 -0.659581 0
M  V30 1790 H 160.441 5.50306 0.432109 0
M  V30 1791 H 162.917 3.88784 1.48278 0
M  V30 1792 H 161.793 4.95358 2.36457 0
M  V30 1793 H 162.054 3.31099 2.92961 0
M  V30 1794 N 161.113 -0.173488 1.56642 0
M  V30 1795 C 162.343 -0.904781 1.85734 0
M  V30 1796 C 162.751 -1.76431 0.68328 0
M  V30 1797 O 162.094 -1.802 -0.356865 0
M  V30 1798 C 162.156 -1.83382 3.09211 0
M  V30 1799 C 161.82 -1.15411 4.42187 0
M  V30 1800 C 162.817 -0.520609 5.17287 0
M  V30 1801 C 160.502 -1.15151 4.88923 0
M  V30 1802 C 162.496 0.106412 6.37311 0
M  V30 1803 C 160.183 -0.520664 6.08878 0
M  V30 1804 C 161.181 0.107196 6.82916 0
M  V30 1805 O 160.869 0.728102 8.00596 0
M  V30 1806 H 160.601 -0.268408 0.62043 0
M  V30 1807 H 163.155 -0.179096 2.04618 0
M  V30 1808 H 161.385 -2.59976 2.86268 0
M  V30 1809 H 163.074 -2.43476 3.24768 0
M  V30 1810 H 163.84 -0.514606 4.82262 0
M  V30 1811 H 159.719 -1.62961 4.31236 0
M  V30 1812 H 163.263 0.597081 6.9504 0
M  V30 1813 H 159.16 -0.524242 6.43368 0
M  V30 1814 H 159.928 0.627138 8.16094 0
M  V30 1815 N 162.591 -1.51276 -0.441967 0
M  V30 1816 C 163.523 -1.68444 -1.55433 0
M  V30 1817 C 164.536 -0.565187 -1.52674 0
M  V30 1818 O 165.725 -0.839356 -1.57534 0
M  V30 1819 C 162.825 -1.67966 -2.94348 0
M  V30 1820 C 161.998 -2.964 -3.21661 0
M  V30 1821 C 161.057 -2.88171 -4.40277 0
M  V30 1822 O 160.083 -3.62119 -4.39157 0
M  V30 1823 N 161.285 -2.03706 -5.43584 0
M  V30 1824 H 164.05 -2.644 -1.41112 0
M  V30 1825 H 161.611 -1.49104 -0.630838 0
M  V30 1826 H 163.603 -1.60035 -3.71713 0
M  V30 1827 H 162.173 -0.796225 -3.0229 0
M  V30 1828 H 161.393 -3.18234 -2.32638 0
M  V30 1829 H 162.681 -3.81427 -3.36736 0
M  V30 1830 H 162.079 -1.42995 -5.47329 0
M  V30 1831 H 160.636 -2.01658 -6.1982 0
M  V30 1832 N 164.069 0.697108 -1.41344 0
M  V30 1833 C 164.979 1.84088 -1.45427 0
M  V30 1834 C 165.995 1.70545 -0.34501 0
M  V30 1835 O 167.171 1.92488 -0.592492 0
M  V30 1836 C 164.236 3.20056 -1.33286 0
M  V30 1837 C 163.297 3.45718 -2.54514 0
M  V30 1838 C 162.53 4.75199 -2.42944 0
M  V30 1839 O 162.753 5.51579 -1.45318 0
M  V30 1840 O 161.687 5.0161 -3.32672 0
M  V30 1841 H 165.513 1.836 -2.41919 0
M  V30 1842 H 163.098 0.849966 -1.22866 0
M  V30 1843 H 164.98 4.01236 -1.28794 0
M  V30 1844 H 163.655 3.2123 -0.39909 0
M  V30 1845 H 162.562 2.64474 -2.64583 0
M  V30 1846 H 163.895 3.49356 -3.46715 0
M  V30 1847 N 165.547 1.27147 0.931209 0
M  V30 1848 C 166.958 1.12044 1.49342 0
M  V30 1849 C 167.309 -0.295795 1.93957 0
M  V30 1850 O 166.434 -1.18835 1.80852 0
M  V30 1851 C 167.029 2.02781 2.71414 0
M  V30 1852 C 165.588 1.91794 3.2387 0
M  V30 1853 C 164.735 1.95543 1.96617 0
M  V30 1854 H 167.686 1.40091 0.745672 0
M  V30 1855 H 167.707 1.58156 3.46074 0
M  V30 1856 H 167.219 3.05848 2.38911 0
M  V30 1857 H 165.32 0.916992 3.6114 0
M  V30 1858 H 165.433 2.77852 3.90302 0
M  V30 1859 H 163.797 1.39722 2.12955 0
M  V30 1860 H 164.58 3.00259 1.66432 0
M  V30 1861 N 167.025 -1.13721 1.09112 0
M  V30 1862 C 168.253 -1.88773 0.846899 0
M  V30 1863 C 168.668 -1.7896 -0.601572 0
M  V30 1864 O 168.025 -1.15394 -1.41388 0
M  V30 1865 C 168.076 -3.3849 1.26913 0
M  V30 1866 O 167.797 -3.48043 2.66079 0
M  V30 1867 C 169.298 -4.30518 1.05682 0
M  V30 1868 H 166.518 -0.59772 0.304914 0
M  V30 1869 H 169.062 -1.43977 1.45227 0
M  V30 1870 H 167.217 -3.80881 0.707723 0
M  V30 1871 H 167.631 -4.4109 2.83795 0
M  V30 1872 H 169.105 -5.3391 1.40156 0
M  V30 1873 H 169.582 -4.392 -0.00563416 0
M  V30 1874 H 170.188 -3.93893 1.60402 0
M  V30 1875 N 168.503 -0.877838 -1.30888 0
M  V30 1876 C 169.78 -0.413052 -1.91189 0
M  V30 1877 C 170.16 1.1056 -1.79832 0
M  V30 1878 O 169.508 1.93771 -1.21099 0
M  V30 1879 C 169.718 -0.903191 -3.3711 0
M  V30 1880 C 171.066 -0.93395 -4.14201 0
M  V30 1881 O 172.09 -0.849373 -3.45925 0
M  V30 1882 O 170.949 -1.05772 -5.36167 0
M  V30 1883 H 168.043 -0.125035 -0.817493 0
M  V30 1884 H 170.589 -0.966269 -1.39504 0
M  V30 1885 H 169.361 -1.94692 -3.39427 0
M  V30 1886 H 168.984 -0.328732 -3.96239 0
M  V30 1887 N 169.982 1.44106 -0.638065 0
M  V30 1888 C 171.393 1.85316 -0.226894 0
M  V30 1889 C 171.744 1.53399 1.22324 0
M  V30 1890 O 170.869 0.975463 1.93167 0
M  V30 1891 C 171.464 3.3637 -0.405013 0
M  V30 1892 C 170.023 3.76369 -0.0482902 0
M  V30 1893 C 169.17 2.67921 -0.715108 0
M  V30 1894 H 172.121 1.34474 -0.842764 0
M  V30 1895 H 172.142 3.7885 0.354 0
M  V30 1896 H 171.654 3.59569 -1.46053 0
M  V30 1897 H 169.755 3.58784 1.00522 0
M  V30 1898 H 169.868 4.76856 -0.463187 0
M  V30 1899 H 168.232 2.54259 -0.149753 0
M  V30 1900 H 169.015 2.93951 -1.77335 0
M  V30 1901 N 171.46 0.379036 1.52974 0
M  V30 1902 C 172.407 -0.461048 2.26148 0
M  V30 1903 C 173.377 -1.06637 1.27349 0
M  V30 1904 O 174.562 -1.09633 1.56157 0
M  V30 1905 C 171.702 -1.58782 3.06402 0
M  V30 1906 C 170.815 -1.00636 4.20115 0
M  V30 1907 C 169.95 -2.10334 4.87784 0
M  V30 1908 C 168.989 -1.49724 5.93506 0
M  V30 1909 N 168.126 -2.5331 6.54812 0
M  V30 1910 H 172.966 0.169429 2.97518 0
M  V30 1911 H 170.503 0.0953806 1.4679 0
M  V30 1912 H 172.461 -2.25174 3.51215 0
M  V30 1913 H 171.091 -2.18876 2.37261 0
M  V30 1914 H 170.143 -0.232332 3.7969 0
M  V30 1915 H 171.455 -0.523343 4.96047 0
M  V30 1916 H 170.609 -2.84519 5.35849 0
M  V30 1917 H 169.348 -2.61992 4.11353 0
M  V30 1918 H 168.353 -0.740598 5.44789 0
M  V30 1919 H 169.578 -0.988732 6.71864 0
M  V30 1920 H 167.524 -3.04156 5.81227 0
M  V30 1921 H 167.441 -2.09734 7.26325 0
M  V30 1922 H 168.709 -3.27155 7.07524 0
M  V30 1923 N 172.938 -1.57226 0.108567 0
M  V30 1924 C 174.185 -1.94833 -0.551943 0
M  V30 1925 C 174.513 -0.991204 -1.67348 0
M  V30 1926 O 173.768 -0.0131878 -1.95696 0
M  V30 1927 C 174.067 -3.38911 -1.13463 0
M  V30 1928 C 173.733 -4.50696 -0.135509 0
M  V30 1929 C 172.395 -4.80998 0.139252 0
M  V30 1930 C 174.747 -5.18333 0.545957 0
M  V30 1931 C 172.075 -5.76259 1.10194 0
M  V30 1932 C 174.427 -6.14627 1.49721 0
M  V30 1933 C 173.091 -6.43327 1.78006 0
M  V30 1934 H 172.361 -0.712944 -0.20197 0
M  V30 1935 H 175.008 -1.90582 0.18726 0
M  V30 1936 H 173.313 -3.39805 -1.95037 0
M  V30 1937 H 175.01 -3.65317 -1.65362 0
M  V30 1938 H 171.6 -4.27087 -0.359846 0
M  V30 1939 H 175.784 -4.95087 0.346842 0
M  V30 1940 H 171.04 -5.96804 1.32795 0
M  V30 1941 H 175.214 -6.66126 2.03099 0
M  V30 1942 H 172.841 -7.1695 2.52759 0
M  V30 1943 N 174.416 0.165178 -1.56732 0
M  V30 1944 C 175.827 0.727046 -1.71962 0
M  V30 1945 C 176.178 1.82508 -0.720078 0
M  V30 1946 O 175.303 2.16082 0.117242 0
M  V30 1947 C 175.898 1.32559 -3.11791 0
M  V30 1948 C 174.457 1.83422 -3.28684 0
M  V30 1949 C 173.604 0.715567 -2.67908 0
M  V30 1950 H 176.555 -0.0602896 -1.58585 0
M  V30 1951 H 176.576 2.19533 -3.10782 0
M  V30 1952 H 176.088 0.526195 -3.84516 0
M  V30 1953 H 174.189 2.65986 -2.60926 0
M  V30 1954 H 174.302 1.97543 -4.36478 0
M  V30 1955 H 172.666 1.13758 -2.27884 0
M  V30 1956 H 173.449 -0.0720836 -3.43224 0
M  V30 1957 N 175.894 1.51508 0.433938 0
M  V30 1958 C 176.826 1.69266 1.54537 0
M  V30 1959 C 177.839 0.573276 1.52373 0
M  V30 1960 O 179.028 0.847698 1.57087 0
M  V30 1961 C 176.128 1.69524 2.93453 0
M  V30 1962 C 175.301 2.98101 3.20085 0
M  V30 1963 C 174.36 2.90502 4.38742 0
M  V30 1964 O 173.386 3.64442 4.3723 0
M  V30 1965 N 174.588 2.06586 5.42496 0
M  V30 1966 H 177.353 2.65145 1.39708 0
M  V30 1967 H 174.914 1.49437 0.622922 0
M  V30 1968 H 176.906 1.62004 3.70859 0
M  V30 1969 H 175.476 0.812245 3.01863 0
M  V30 1970 H 174.696 3.19464 2.30947 0
M  V30 1971 H 175.984 3.83207 3.34708 0
M  V30 1972 H 175.382 1.45896 5.46563 0
M  V30 1973 H 173.939 2.04943 6.18742 0
M  V30 1974 N 177.372 -0.689602 1.41712 0
M  V30 1975 C 178.304 -1.815 1.39966 0
M  V30 1976 C 179.317 -1.59995 0.300917 0
M  V30 1977 O 180.506 -1.69387 0.563039 0
M  V30 1978 C 177.606 -3.18364 1.16179 0
M  V30 1979 C 176.779 -3.66847 2.38206 0
M  V30 1980 C 175.838 -4.82398 2.10186 0
M  V30 1981 O 174.864 -4.93706 2.83272 0
M  V30 1982 N 176.066 -5.70064 1.0958 0
M  V30 1983 H 178.831 -1.83488 2.36965 0
M  V30 1984 H 176.392 -0.872149 1.36401 0
M  V30 1985 H 178.384 -3.93301 0.953756 0
M  V30 1986 H 176.954 -3.11365 0.27756 0
M  V30 1987 H 176.174 -2.82751 2.74673 0
M  V30 1988 H 177.462 -3.95978 3.19498 0
M  V30 1989 H 176.86 -5.63565 0.491019 0
M  V30 1990 H 175.417 -6.44874 0.947656 0
M  V30 1991 N 178.85 -1.27639 -0.924453 0
M  V30 1992 C 180.096 -1.15345 -1.67532 0
M  V30 1993 C 180.451 0.297096 -1.90092 0
M  V30 1994 O 179.744 1.21374 -1.48253 0
M  V30 1995 C 179.938 -1.87407 -3.04325 0
M  V30 1996 C 179.767 -3.3932 -2.95114 0
M  V30 1997 C 178.537 -4.08644 -2.97218 0
M  V30 1998 C 180.735 -4.35242 -2.73987 0
M  V30 1999 N 178.717 -5.47102 -2.78482 0
M  V30 2000 C 180.088 -5.6099 -2.63988 0
M  V30 2001 C 182.143 -4.25294 -2.589 0
M  V30 2002 C 180.846 -6.77924 -2.40442 0
M  V30 2003 C 182.872 -5.41952 -2.36731 0
M  V30 2004 C 182.234 -6.66658 -2.27478 0
M  V30 2005 H 178.333 -0.47696 -0.619704 0
M  V30 2006 H 180.917 -1.6115 -1.09265 0
M  V30 2007 H 179.088 -1.44053 -3.60699 0
M  V30 2008 H 180.82 -1.6759 -3.68369 0
M  V30 2009 H 177.575 -3.60136 -3.07569 0
M  V30 2010 H 177.999 -6.19852 -2.72236 0
M  V30 2011 H 182.641 -3.29598 -2.64811 0
M  V30 2012 H 180.359 -7.73699 -2.3327 0
M  V30 2013 H 183.945 -5.36137 -2.25938 0
M  V30 2014 H 182.825 -7.55405 -2.10555 0
M  V30 2015 N 180.328 1.1314 -1.09713 0
M  V30 2016 C 181.558 1.88048 -0.855656 0
M  V30 2017 C 181.966 1.79537 0.596919 0
M  V30 2018 O 181.309 1.16196 1.42282 0
M  V30 2019 C 181.371 3.38314 -1.21589 0
M  V30 2020 C 181.035 3.70605 -2.67397 0
M  V30 2021 C 182.032 3.69596 -3.65643 0
M  V30 2022 C 179.717 4.0017 -3.03593 0
M  V30 2023 C 181.711 3.977 -4.9811 0
M  V30 2024 C 179.398 4.27935 -4.36251 0
M  V30 2025 C 180.396 4.26685 -5.33318 0
M  V30 2026 O 180.084 4.53767 -6.63589 0
M  V30 2027 H 179.816 0.60208 -0.307368 0
M  V30 2028 H 182.37 1.44128 -1.46343 0
M  V30 2029 H 180.6 3.82752 -0.551177 0
M  V30 2030 H 182.289 3.94552 -0.953083 0
M  V30 2031 H 183.055 3.46826 -3.39023 0
M  V30 2032 H 178.934 4.00289 -2.2867 0
M  V30 2033 H 182.478 3.9664 -5.73866 0
M  V30 2034 H 178.375 4.50178 -4.62613 0
M  V30 2035 H 179.143 4.71422 -6.69107 0
M  V30 2036 N 181.806 0.884767 1.30421 0
M  V30 2037 C 182.736 0.367574 2.30589 0
M  V30 2038 C 183.717 -0.549464 1.60981 0
M  V30 2039 O 184.902 -0.46336 1.88591 0
M  V30 2040 C 182.032 -0.418944 3.44764 0
M  V30 2041 C 180.986 0.406316 4.26067 0
M  V30 2042 C 180.312 -0.506793 5.32293 0
M  V30 2043 C 181.612 1.64832 4.95608 0
M  V30 2044 H 183.306 1.20462 2.74097 0
M  V30 2045 H 180.852 0.580695 1.31772 0
M  V30 2046 H 182.805 -0.791395 4.13902 0
M  V30 2047 H 181.529 -1.28964 3.0006 0
M  V30 2048 H 180.188 0.760903 3.58617 0
M  V30 2049 H 179.836 -1.37519 4.83836 0
M  V30 2050 H 179.536 0.0415828 5.87585 0
M  V30 2051 H 181.06 -0.875764 6.04287 0
M  V30 2052 H 182.474 1.34646 5.57264 0
M  V30 2053 H 180.871 2.13688 5.60765 0
M  V30 2054 H 181.941 2.39284 4.21748 0
M  V30 2055 N 183.284 -1.43765 0.645699 0
M  V30 2056 C 184.509 -2.06767 0.161883 0
M  V30 2057 C 184.934 -1.48034 -1.16049 0
M  V30 2058 O 184.292 -0.587369 -1.71522 0
M  V30 2059 C 184.34 -3.60519 0.0762003 0
M  V30 2060 O 183.444 -4.00982 -0.963721 0
M  V30 2061 H 182.785 -0.657675 0.091429 0
M  V30 2062 H 185.315 -1.84397 0.886499 0
M  V30 2063 H 185.325 -4.07853 -0.109604 0
M  V30 2064 H 184 -4.02646 1.04157 0
M  V30 2065 H 182.577 -3.65253 -0.751312 0
M  V30 2066 N 184.763 -0.387143 -1.52771 0
M  V30 2067 C 186.011 0.195349 -2.01154 0
M  V30 2068 C 186.332 1.475 -1.27549 0
M  V30 2069 O 185.602 1.91878 -0.394924 0
M  V30 2070 H 184.182 0.075178 -0.743207 0
M  V30 2071 H 186.844 -0.518337 -1.87881 0
M  V30 2072 H 185.94 0.407096 -3.09434 0
M  V30 2073 N 186.241 1.57166 -0.116904 0
M  V30 2074 C 187.487 1.95412 0.542405 0
M  V30 2075 C 187.82 1.00019 1.66463 0
M  V30 2076 O 187.095 0.0370346 1.94465 0
M  V30 2077 C 187.378 3.43615 1.07708 0
M  V30 2078 C 187.231 4.49781 -0.0415868 0
M  V30 2079 C 188.55 3.93616 1.96861 0
M  V30 2080 H 185.669 0.710543 0.195696 0
M  V30 2081 H 188.311 1.89027 -0.192038 0
M  V30 2082 H 186.461 3.49187 1.70296 0
M  V30 2083 H 188.133 4.56308 -0.676793 0
M  V30 2084 H 186.376 4.28033 -0.705019 0
M  V30 2085 H 187.047 5.50733 0.373717 0
M  V30 2086 H 189.523 3.90335 1.44146 0
M  V30 2087 H 188.399 4.97838 2.3119 0
M  V30 2088 H 188.66 3.34188 2.89432 0
M  V30 2089 N 187.719 -0.156864 1.56817 0
M  V30 2090 C 188.947 -0.886316 1.86955 0
M  V30 2091 C 189.362 -1.75185 0.703975 0
M  V30 2092 O 188.719 -1.79555 -0.326552 0
M  V30 2093 C 188.77 -1.75117 3.16253 0
M  V30 2094 O 188.491 -0.920537 4.2832 0
M  V30 2095 C 189.992 -2.58905 3.59837 0
M  V30 2096 H 187.212 -0.25678 0.619923 0
M  V30 2097 H 189.756 -0.152615 2.0393 0
M  V30 2098 H 187.911 -2.43805 3.01062 0
M  V30 2099 H 188.325 -1.51337 5.02192 0
M  V30 2100 H 189.799 -3.1518 4.53172 0
M  V30 2101 H 190.276 -3.34472 2.84649 0
M  V30 2102 H 190.882 -1.95526 3.7769 0
M  V30 2103 N 189.197 -1.51736 -0.425897 0
M  V30 2104 C 190.129 -1.70083 -1.53638 0
M  V30 2105 C 191.142 -0.581349 -1.52066 0
M  V30 2106 O 192.331 -0.856017 -1.56635 0
M  V30 2107 C 189.431 -1.71078 -2.9255 0
M  V30 2108 C 188.604 -2.99795 -3.185 0
M  V30 2109 C 187.663 -2.92825 -4.37196 0
M  V30 2110 O 186.689 -3.66756 -4.35291 0
M  V30 2111 N 187.891 -2.0946 -5.41393 0
M  V30 2112 H 190.656 -2.65882 -1.383 0
M  V30 2113 H 188.217 -1.49765 -0.614988 0
M  V30 2114 H 190.209 -1.63969 -3.69995 0
M  V30 2115 H 188.779 -0.828242 -3.01428 0
M  V30 2116 H 187.999 -3.20684 -2.2925 0
M  V30 2117 H 189.287 -3.84977 -3.32671 0
M  V30 2118 H 188.685 -1.48792 -5.45781 0
M  V30 2119 H 187.242 -2.08221 -6.17647 0
M  V30 2120 N 190.675 0.682077 -1.42076 0
M  V30 2121 C 192.091 0.994324 -1.24841 0
M  V30 2122 C 192.291 2.0096 -0.147389 0
M  V30 2123 O 191.347 2.47822 0.483782 0
M  V30 2124 C 192.66 1.50607 -2.60265 0
M  V30 2125 C 194.208 1.62421 -2.6756 0
M  V30 2126 C 194.683 2.16994 -4.03333 0
M  V30 2127 N 196.174 2.24337 -4.0525 0
M  V30 2128 C 196.909 2.67621 -5.07116 0
M  V30 2129 N 196.405 3.1041 -6.19368 0
M  V30 2130 N 198.198 2.67305 -4.94474 0
M  V30 2131 H 190.349 0.00973908 -2.12398 0
M  V30 2132 H 192.612 0.0668593 -0.945639 0
M  V30 2133 H 192.318 0.834583 -3.41654 0
M  V30 2134 H 192.192 2.48602 -2.83684 0
M  V30 2135 H 194.579 2.28678 -1.86521 0
M  V30 2136 H 194.66 0.629352 -2.47937 0
M  V30 2137 H 194.304 1.51349 -4.84826 0
M  V30 2138 H 194.234 3.17258 -4.20304 0
M  V30 2139 H 196.725 1.94158 -3.24209 0
M  V30 2140 H 197.038 3.42103 -6.92954 0
M  V30 2141 H 195.383 3.08286 -6.22884 0
M  V30 2142 H 198.574 2.33233 -4.05857 0
M  V30 2143 H 198.747 3.00718 -5.73997 0
M  V30 2144 N 192.153 1.28127 0.917671 0
M  V30 2145 C 193.43 1.05761 1.64542 0
M  V30 2146 C 193.81 -0.404344 2.07191 0
M  V30 2147 O 193.158 -1.38963 1.81388 0
M  V30 2148 C 193.368 2.02857 2.83989 0
M  V30 2149 C 194.716 2.32786 3.551 0
M  V30 2150 O 195.74 2.0091 2.94132 0
M  V30 2151 O 194.599 2.87169 4.64969 0
M  V30 2152 H 191.693 0.403916 0.721652 0
M  V30 2153 H 194.239 1.39431 0.967322 0
M  V30 2154 H 193.011 3.01407 2.49538 0
M  V30 2155 H 192.634 1.69809 3.59514 0
M  V30 2156 N 193.631 -1.12557 1.10312 0
M  V30 2157 C 194.561 -2.20341 0.772798 0
M  V30 2158 C 195.542 -1.68198 -0.25365 0
M  V30 2159 O 196.727 -1.93831 -0.119699 0
M  V30 2160 C 193.857 -3.46709 0.202443 0
M  V30 2161 C 192.811 -4.11996 1.15943 0
M  V30 2162 C 192.137 -5.328 0.450345 0
M  V30 2163 C 193.437 -4.5828 2.50552 0
M  V30 2164 H 195.131 -2.48229 1.674 0
M  V30 2165 H 192.677 -1.19308 0.806326 0
M  V30 2166 H 194.63 -4.2138 -0.0407752 0
M  V30 2167 H 193.354 -3.18245 -0.734001 0
M  V30 2168 H 192.013 -3.39305 1.38808 0
M  V30 2169 H 191.661 -5.00602 -0.490531 0
M  V30 2170 H 191.361 -5.7743 1.08851 0
M  V30 2171 H 192.885 -6.10219 0.215642 0
M  V30 2172 H 194.299 -5.2433 2.31843 0
M  V30 2173 H 192.696 -5.13683 3.10242 0
M  V30 2174 H 193.766 -3.72329 3.10643 0
M  V30 2175 N 195.109 -0.891671 -1.2995 0
M  V30 2176 C 196.057 -0.353066 -2.29905 0
M  V30 2177 C 197.051 0.543509 -1.60444 0
M  V30 2178 O 198.257 0.4272 -1.74857 0
M  V30 2179 H 194.632 -0.095531 -0.745907 0
M  V30 2180 H 196.603 -1.20961 -2.72784 0
M  V30 2181 C 195.352 0.411475 -3.45257 0
M  V30 2182 H 194.675 -0.269182 -3.98893 0
M  V30 2183 H 196.115 0.753328 -4.17254 0
M  V30 2184 C 194.574 1.6111 -2.9588 0
M  V30 2185 O 195.104 2.71045 -2.96475 0
M  V30 2186 N 193.31 1.45054 -2.51809 0
M  V30 2187 H 192.857 0.556175 -2.51524 0
M  V30 2188 H 192.815 2.25453 -2.1913 0
M  V30 2189 N 196.587 1.43421 -0.653314 0
M  V30 2190 C 197.833 2.02111 -0.166992 0
M  V30 2191 C 198.166 1.51423 1.21592 0
M  V30 2192 O 197.441 0.707389 1.8118 0
M  V30 2193 C 197.724 3.5966 -0.177948 0
M  V30 2194 C 197.577 4.20579 -1.59478 0
M  V30 2195 C 198.896 4.37413 0.4856 0
M  V30 2196 H 196.015 0.734374 -0.0621557 0
M  V30 2197 H 198.657 1.70717 -0.834016 0
M  V30 2198 H 196.807 3.86537 0.390032 0
M  V30 2199 H 198.479 4.04732 -2.21336 0
M  V30 2200 H 196.722 3.77226 -2.14204 0
M  V30 2201 H 197.393 5.29665 -1.5543 0
M  V30 2202 H 199.869 4.161 0.00234528 0
M  V30 2203 H 198.745 5.47075 0.447207 0
M  V30 2204 H 199.006 4.13672 1.55974 0
M  V30 2205 N 198.065 0.39524 1.52563 0
M  V30 2206 C 199.012 -0.437036 2.26624 0
M  V30 2207 C 199.982 -1.05281 1.28472 0
M  V30 2208 O 201.167 -1.07971 1.57311 0
M  V30 2209 C 198.307 -1.55524 3.08069 0
M  V30 2210 C 197.42 -0.961745 4.21158 0
M  V30 2211 C 196.555 -2.05149 4.89987 0
M  V30 2212 C 195.594 -1.4342 5.95061 0
M  V30 2213 N 194.731 -2.46351 6.57462 0
M  V30 2214 H 199.571 0.200976 2.97322 0
M  V30 2215 H 197.108 0.110944 1.46681 0
M  V30 2216 H 199.066 -2.21437 3.53584 0
M  V30 2217 H 197.696 -2.16348 2.3957 0
M  V30 2218 H 196.748 -0.192048 3.79915 0
M  V30 2219 H 198.06 -0.470701 4.96574 0
M  V30 2220 H 197.214 -2.78819 5.38837 0
M  V30 2221 H 195.953 -2.57615 4.14109 0
M  V30 2222 H 194.958 -0.682774 5.45544 0
M  V30 2223 H 196.183 -0.917416 6.72875 0
M  V30 2224 H 194.129 -2.97975 5.8442 0
M  V30 2225 H 194.046 -2.02019 7.28508 0
M  V30 2226 H 195.314 -3.19633 7.10954 0
M  V30 2227 N 199.544 -1.57102 0.125237 0
M  V30 2228 C 200.507 -2.14471 -0.80838 0
M  V30 2229 C 201.507 -1.0811 -1.19033 0
M  V30 2230 O 202.697 -1.33856 -1.11482 0
M  V30 2231 C 199.829 -2.69005 -2.09402 0
M  V30 2232 H 201.022 -2.98297 -0.309696 0
M  V30 2233 H 198.575 -1.55807 -0.124051 0
M  V30 2234 H 199.31 -1.88785 -2.63687 0
M  V30 2235 H 199.095 -3.46799 -1.82957 0
M  V30 2236 H 200.585 -3.13278 -2.76128 0
M  V30 2237 N 201.022 0.148545 -1.56898 0
M  V30 2238 C 201.985 1.16736 -1.97244 0
M  V30 2239 C 202.985 1.35947 -0.858777 0
M  V30 2240 O 204.175 1.32966 -1.12542 0
M  V30 2241 C 201.307 2.52798 -2.28705 0
M  V30 2242 H 202.5 0.821279 -2.88435 0
M  V30 2243 H 200.053 0.391831 -1.51309 0
M  V30 2244 H 200.788 2.92381 -1.403 0
M  V30 2245 H 200.573 2.40216 -3.09901 0
M  V30 2246 H 202.063 3.26179 -2.60762 0
M  V30 2247 N 202.5 1.5196 0.417844 0
M  V30 2248 C 203.746 1.66793 1.16411 0
M  V30 2249 C 204.101 0.388758 1.88432 0
M  V30 2250 O 203.394 -0.616409 1.81414 0
M  V30 2251 C 203.588 2.82269 2.19223 0
M  V30 2252 C 203.417 4.21293 1.57297 0
M  V30 2253 C 202.187 4.86948 1.34944 0
M  V30 2254 C 204.385 5.03704 1.03858 0
M  V30 2255 N 202.367 6.1003 0.688195 0
M  V30 2256 C 203.738 6.1795 0.503742 0
M  V30 2257 C 205.793 4.89095 0.932203 0
M  V30 2258 C 204.496 7.19188 -0.127034 0
M  V30 2259 C 206.522 5.90559 0.315293 0
M  V30 2260 C 205.884 7.0409 -0.208906 0
M  V30 2261 H 201.983 0.66407 0.412959 0
M  V30 2262 H 204.567 1.89242 0.457772 0
M  V30 2263 H 202.738 2.61451 2.87225 0
M  V30 2264 H 204.47 2.86183 2.86149 0
M  V30 2265 H 201.225 4.45156 1.61657 0
M  V30 2266 H 201.649 6.75964 0.374449 0
M  V30 2267 H 206.291 4.01557 1.32332 0
M  V30 2268 H 204.009 8.06359 -0.530231 0
M  V30 2269 H 207.595 5.81327 0.234625 0
M  V30 2270 H 206.475 7.81257 -0.67875 0
M  V30 2271 N 203.978 -0.674533 1.42435 0
M  V30 2272 C 204.941 -1.76986 1.45632 0
M  V30 2273 C 205.941 -1.5708 0.343871 0
M  V30 2274 O 207.131 -1.63367 0.604709 0
M  V30 2275 C 204.263 -3.15623 1.28822 0
M  V30 2276 H 205.456 -1.75539 2.43158 0
M  V30 2277 H 203.009 -0.884189 1.28887 0
M  V30 2278 H 203.744 -3.22696 0.322193 0
M  V30 2279 H 203.529 -3.31475 2.09444 0
M  V30 2280 H 205.019 -3.95537 1.33942 0
M  V30 2281 N 205.456 -1.28612 -0.910864 0
M  V30 2282 C 206.388 -1.08589 -2.01844 0
M  V30 2283 C 207.401 -0.0367419 -1.62759 0
M  V30 2284 O 208.59 -0.280101 -1.76289 0
M  V30 2285 C 205.69 -0.628626 -3.33019 0
M  V30 2286 C 204.863 -1.75382 -4.00699 0
M  V30 2287 C 203.922 -1.28945 -5.10156 0
M  V30 2288 O 202.948 -1.9922 -5.33198 0
M  V30 2289 N 204.15 -0.154224 -5.80295 0
M  V30 2290 H 206.915 -2.03973 -2.19579 0
M  V30 2291 H 204.476 -1.20403 -1.08234 0
M  V30 2292 H 206.468 -0.301508 -4.03575 0
M  V30 2293 H 205.038 0.232451 -3.11735 0
M  V30 2294 H 204.258 -2.25039 -3.23653 0
M  V30 2295 H 205.546 -2.50854 -4.42662 0
M  V30 2296 H 204.944 0.43194 -5.64049 0
M  V30 2297 H 203.501 0.113599 -6.51701 0
M  V30 2298 N 206.934 1.1197 -1.10907 0
M  V30 2299 C 208.182 1.83225 -0.852819 0
M  V30 2300 C 208.503 1.84769 0.623341 0
M  V30 2301 O 207.773 1.3143 1.45269 0
M  V30 2302 H 206.353 0.67849 -0.312507 0
M  V30 2303 H 209.015 1.3556 -1.40033 0
M  V30 2304 H 208.111 2.87265 -1.22005 0
M  V30 2305 N 208.412 0.89855 1.29475 0
M  V30 2306 C 209.642 0.538479 1.99459 0
M  V30 2307 C 210.05 -0.880922 1.67441 0
M  V30 2308 O 209.393 -1.59283 0.915127 0
M  V30 2309 C 209.455 0.649564 3.53583 0
M  V30 2310 C 209.119 2.03573 4.09154 0
M  V30 2311 C 210.116 3.00675 4.24135 0
M  V30 2312 C 207.801 2.3448 4.44212 0
M  V30 2313 C 209.795 4.26809 4.73405 0
M  V30 2314 C 207.482 3.60857 4.93179 0
M  V30 2315 C 208.48 4.56836 5.0773 0
M  V30 2316 O 208.168 5.80969 5.55635 0
M  V30 2317 H 207.9 0.205372 0.644048 0
M  V30 2318 H 210.454 1.20958 1.66007 0
M  V30 2319 H 208.684 -0.0785592 3.8662 0
M  V30 2320 H 210.373 0.29881 4.04799 0
M  V30 2321 H 211.139 2.78112 3.97339 0
M  V30 2322 H 207.018 1.60534 4.32145 0
M  V30 2323 H 210.562 5.0173 4.84678 0
M  V30 2324 H 206.459 3.83251 5.19412 0
M  V30 2325 H 207.227 5.83542 5.73952 0
M  V30 2326 N 209.89 -1.43072 0.660911 0
M  V30 2327 C 211.118 -2.06067 0.185422 0
M  V30 2328 C 211.533 -1.49582 -1.15198 0
M  V30 2329 O 210.89 -0.630134 -1.71276 0
M  V30 2330 C 210.941 -3.61371 0.0966523 0
M  V30 2331 O 210.662 -4.15758 1.38119 0
M  V30 2332 C 212.163 -4.41455 -0.403996 0
M  V30 2333 H 209.383 -0.664459 0.0934604 0
M  V30 2334 H 211.927 -1.83447 0.90373 0
M  V30 2335 H 210.082 -3.8315 -0.572259 0
M  V30 2336 H 210.496 -5.09499 1.24542 0
M  V30 2337 H 211.97 -5.50437 -0.415045 0
M  V30 2338 H 212.447 -4.15036 -1.43674 0
M  V30 2339 H 213.053 -4.24663 0.232691 0
M  V30 2340 N 211.368 -0.403325 -1.52352 0
M  V30 2341 C 212.616 0.174003 -2.0135 0
M  V30 2342 C 212.937 1.46139 -1.29106 0
M  V30 2343 O 212.207 1.91448 -0.415253 0
M  V30 2344 H 210.787 0.0672911 -0.743963 0
M  V30 2345 H 213.449 -0.538235 -1.87321 0
M  V30 2346 H 212.545 0.374254 -3.09848 0
M  V30 2347 N 212.846 1.57033 -0.133567 0
M  V30 2348 C 213.796 2.12641 0.822671 0
M  V30 2349 C 214.78 1.05081 1.21847 0
M  V30 2350 O 215.972 1.31287 1.18713 0
M  V30 2351 C 213.101 2.74094 2.06706 0
M  V30 2352 C 212.187 3.88757 1.69497 0
M  V30 2353 N 212.578 4.95194 1.03037 0
M  V30 2354 C 210.876 3.99213 1.98859 0
M  V30 2355 C 211.577 5.75414 0.852873 0
M  V30 2356 N 210.553 5.25726 1.3825 0
M  V30 2357 H 214.355 2.92308 0.305537 0
M  V30 2358 H 211.869 1.62256 0.0684276 0
M  V30 2359 H 213.866 3.12285 2.76195 0
M  V30 2360 H 212.526 1.95896 2.5895 0
M  V30 2361 H 213.537 5.13247 0.692669 0
M  V30 2362 H 210.214 3.32075 2.53047 0
M  V30 2363 H 211.604 6.71089 0.330091 0
M  V30 2364 N 214.325 -0.140222 1.56975 0
M  V30 2365 C 215.573 -0.850005 1.83356 0
M  V30 2366 C 215.894 -1.81399 0.71551 0
M  V30 2367 O 215.164 -1.94136 -0.262294 0
M  V30 2368 H 213.744 -0.316886 0.676456 0
M  V30 2369 H 216.406 -0.132608 1.94448 0
M  V30 2370 H 215.502 -1.40814 2.78528 0
M  V30 2371 N 215.803 -1.52179 -0.40978 0
M  V30 2372 C 217.052 -1.65434 -1.15388 0
M  V30 2373 C 217.365 -0.390056 -1.91671 0
M  V30 2374 O 218.571 -0.402399 -2.68501 0
M  V30 2375 C 217.027 -2.92279 -2.10003 0
M  V30 2376 C 216.635 -4.25813 -1.39239 0
M  V30 2377 C 218.379 -3.14897 -2.84675 0
M  V30 2378 C 216.286 -5.43782 -2.32498 0
M  V30 2379 H 215.216 -0.616267 -0.434432 0
M  V30 2380 H 217.867 -1.78666 -0.418401 0
M  V30 2381 H 216.249 -2.72744 -2.871 0
M  V30 2382 H 217.423 -4.55828 -0.675099 0
M  V30 2383 H 215.738 -4.09292 -0.766097 0
M  V30 2384 H 218.335 -4.0021 -3.54593 0
M  V30 2385 H 218.678 -2.29103 -3.47588 0
M  V30 2386 H 219.211 -3.34901 -2.14677 0
M  V30 2387 H 215.95 -6.3192 -1.74233 0
M  V30 2388 H 215.47 -5.18106 -3.02201 0
M  V30 2389 H 217.149 -5.76834 -2.93038 0
M  V30 2390 N 217.281 0.66697 -1.42791 0
M  V30 2391 C 218.527 1.4291 -1.43891 0
M  V30 2392 C 218.86 1.94114 -0.0578972 0
M  V30 2393 O 218.135 1.71414 0.91911 0
M  V30 2394 C 218.418 2.62049 -2.46987 0
M  V30 2395 C 218.271 2.16426 -3.94309 0
M  V30 2396 C 219.59 3.64266 -2.46978 0
M  V30 2397 H 216.709 0.518306 -0.523954 0
M  V30 2398 H 219.351 0.757321 -1.74255 0
M  V30 2399 H 217.501 3.19361 -2.21225 0
M  V30 2400 H 219.173 1.64221 -4.31079 0
M  V30 2401 H 217.416 1.47925 -4.078 0
M  V30 2402 H 218.087 3.02038 -4.62036 0
M  V30 2403 H 220.563 3.16686 -2.69906 0
M  V30 2404 H 219.439 4.45196 -3.21079 0
M  V30 2405 H 219.7 4.15927 -1.49857 0
M  V30 2406 N 218.759 1.29093 0.90403 0
M  V30 2407 C 220.005 1.16986 1.65656 0
M  V30 2408 C 220.338 -0.278925 1.92186 0
M  V30 2409 O 219.613 -1.2019 1.5292 0
M  V30 2410 C 219.896 1.97908 3.0084 0
M  V30 2411 C 219.749 3.50903 2.81403 0
M  V30 2412 C 221.068 1.80208 4.01513 0
M  V30 2413 H 218.187 0.426346 0.601164 0
M  V30 2414 H 220.829 1.58518 1.04747 0
M  V30 2415 H 218.979 1.62616 3.52829 0
M  V30 2416 H 220.651 3.96153 2.36348 0
M  V30 2417 H 218.894 3.76045 2.1627 0
M  V30 2418 H 219.565 4.02791 3.77443 0
M  V30 2419 H 222.041 2.11025 3.58619 0
M  V30 2420 H 220.917 2.39184 4.94047 0
M  V30 2421 H 221.178 0.756119 4.35586 0
M  V30 2422 N 220.237 -1.11381 1.11499 0
M  V30 2423 C 221.462 -1.87475 0.887019 0
M  V30 2424 C 221.887 -1.79639 -0.557796 0
M  V30 2425 O 221.245 -1.15924 -1.39396 0
M  V30 2426 C 221.293 -3.34213 1.35403 0
M  V30 2427 O 220.397 -4.0903 0.526146 0
M  V30 2428 H 219.738 -0.582099 0.319463 0
M  V30 2429 H 222.268 -1.40785 1.48461 0
M  V30 2430 H 222.278 -3.8506 1.34881 0
M  V30 2431 H 220.953 -3.39232 2.40612 0
M  V30 2432 H 219.53 -3.68082 0.597522 0
M  V30 2433 N 221.715 -0.905404 -1.28997 0
M  V30 2434 C 222.964 -0.530191 -1.94607 0
M  V30 2435 C 223.277 0.929185 -1.72121 0
M  V30 2436 O 224.483 1.41218 -2.31883 0
M  V30 2437 C 222.939 -0.897333 -3.48534 0
M  V30 2438 C 222.547 -2.37587 -3.79811 0
M  V30 2439 C 224.291 -0.592304 -4.20347 0
M  V30 2440 C 222.198 -2.68357 -5.27009 0
M  V30 2441 H 221.128 -0.194558 -0.728466 0
M  V30 2442 H 223.779 -1.10318 -1.46636 0
M  V30 2443 H 222.161 -0.253214 -3.9519 0
M  V30 2444 H 223.335 -3.06602 -3.43994 0
M  V30 2445 H 221.65 -2.6505 -3.2115 0
M  V30 2446 H 224.247 -0.798975 -5.28697 0
M  V30 2447 H 224.59 0.469474 -4.13644 0
M  V30 2448 H 225.123 -1.19452 -3.79442 0
M  V30 2449 H 221.862 -3.73355 -5.38782 0
M  V30 2450 H 221.382 -2.03971 -5.64053 0
M  V30 2451 H 223.061 -2.54922 -5.94663 0
M  V30 2452 N 223.193 1.4272 -0.668489 0
M  V30 2453 C 224.123 2.335 -0.000100175 0
M  V30 2454 C 225.104 1.50328 0.795964 0
M  V30 2455 O 226.289 1.78949 0.754385 0
M  V30 2456 C 223.419 3.33874 0.956302 0
M  V30 2457 C 222.373 4.27152 0.269278 0
M  V30 2458 C 221.699 5.17684 1.33818 0
M  V30 2459 C 222.999 5.15373 -0.847805 0
M  V30 2460 H 224.693 2.89639 -0.758244 0
M  V30 2461 H 222.239 1.39269 -0.366079 0
M  V30 2462 H 224.192 3.9629 1.43292 0
M  V30 2463 H 222.916 2.76025 1.74579 0
M  V30 2464 H 221.575 3.66123 -0.187042 0
M  V30 2465 H 221.223 4.56165 2.1195 0
M  V30 2466 H 220.923 5.80918 0.883659 0
M  V30 2467 H 222.447 5.82974 1.81586 0
M  V30 2468 H 223.861 5.7151 -0.452681 0
M  V30 2469 H 222.258 5.87407 -1.22773 0
M  V30 2470 H 223.328 4.5415 -1.69929 0
M  V30 2471 N 224.671 0.411399 1.52136 0
M  V30 2472 C 225.948 -0.222308 1.94333 0
M  V30 2473 C 226.328 -1.6242 1.34844 0
M  V30 2474 O 225.676 -2.22384 0.525145 0
M  V30 2475 C 225.886 -0.226345 3.48265 0
M  V30 2476 C 227.234 -0.444592 4.22266 0
M  V30 2477 O 228.258 -0.305602 3.54887 0
M  V30 2478 O 227.117 -0.718749 5.41753 0
M  V30 2479 H 224.211 -0.143907 0.814383 0
M  V30 2480 H 226.757 0.467506 1.63133 0
M  V30 2481 H 225.529 0.75475 3.83952 0
M  V30 2482 H 225.152 -0.960163 3.85832 0
M  V30 2483 N 226.149 -1.5696 0.141893 0
M  V30 2484 C 227.426 -1.87553 -0.555281 0
M  V30 2485 C 227.806 -1.04699 -1.83306 0
M  V30 2486 O 227.154 -0.132346 -2.28116 0
M  V30 2487 C 227.364 -3.39093 -0.825664 0
M  V30 2488 C 228.712 -4.08199 -1.16869 0
M  V30 2489 O 229.736 -3.44242 -0.915185 0
M  V30 2490 O 228.595 -5.21139 -1.6455 0
M  V30 2491 H 225.689 -0.777188 -0.282679 0
M  V30 2492 H 228.235 -1.68763 0.17812 0
M  V30 2493 H 227.007 -3.91221 0.0788633 0
M  V30 2494 H 226.63 -3.63393 -1.61343 0
M  V30 2495 N 227.627 0.131896 -1.57047 0
M  V30 2496 C 228.875 0.840269 -1.83804 0
M  V30 2497 C 229.196 1.81017 -0.72512 0
M  V30 2498 O 228.466 1.94272 0.251995 0
M  V30 2499 H 227.046 0.313294 -0.678127 0
M  V30 2500 H 229.708 0.122294 -1.94516 0
M  V30 2501 H 228.804 1.39335 -2.79271 0
M  V30 2502 N 229.106 1.52395 0.401703 0
M  V30 2503 C 230.355 1.66044 1.14509 0
M  V30 2504 C 230.668 0.400216 1.91462 0
M  V30 2505 O 231.874 0.416632 2.68284 0
M  V30 2506 C 230.33 2.93388 2.0845 0
M  V30 2507 C 229.938 4.26545 1.36978 0
M  V30 2508 C 231.682 3.16402 2.83001 0
M  V30 2509 C 229.589 5.45007 2.29611 0
M  V30 2510 H 228.519 0.618562 0.431158 0
M  V30 2511 H 231.17 1.78886 0.40892 0
M  V30 2512 H 229.552 2.74263 2.8565 0
M  V30 2513 H 230.726 4.56179 0.650916 0
M  V30 2514 H 229.041 4.09692 0.74438 0
M  V30 2515 H 231.638 4.02085 3.52465 0
M  V30 2516 H 231.981 2.30943 3.46368 0
M  V30 2517 H 232.514 3.36034 2.12898 0
M  V30 2518 H 229.253 6.32835 1.70879 0
M  V30 2519 H 228.773 5.19702 2.9945 0
M  V30 2520 H 230.452 5.7838 2.89974 0
M  V30 2521 N 230.584 -0.659388 1.43143 0
M  V30 2522 C 231.494 -1.80167 1.50256 0
M  V30 2523 C 232.51 -1.69571 0.390106 0
M  V30 2524 O 233.686 -1.90849 0.643319 0
M  V30 2525 C 230.751 -3.16409 1.41725 0
M  V30 2526 C 229.812 -3.38848 2.63591 0
M  V30 2527 C 229.045 -4.68591 2.55458 0
M  V30 2528 O 229.268 -5.47532 1.59891 0
M  V30 2529 O 228.202 -4.92614 3.45854 0
M  V30 2530 H 232.028 -1.77121 2.46702 0
M  V30 2531 H 229.613 -0.817092 1.25076 0
M  V30 2532 H 231.495 -3.9768 1.39387 0
M  V30 2533 H 230.17 -3.20059 0.484118 0
M  V30 2534 H 229.077 -2.57366 2.71502 0
M  V30 2535 H 230.41 -3.4004 3.55856 0
M  V30 2536 N 232.062 -1.29571 -0.897171 0
M  V30 2537 C 233.009 -1.14916 -2.00158 0
M  V30 2538 C 233.979 -0.0418149 -1.66047 0
M  V30 2539 O 235.164 -0.209793 -1.89643 0
M  V30 2540 C 232.304 -0.834307 -3.34863 0
M  V30 2541 C 231.417 -2.02234 -3.8174 0
M  V30 2542 C 230.552 -1.64664 -5.05034 0
M  V30 2543 C 229.591 -2.80033 -5.44286 0
M  V30 2544 N 228.728 -2.42843 -6.58765 0
M  V30 2545 H 233.568 -2.09403 -2.12025 0
M  V30 2546 H 231.105 -1.042 -1.0383 0
M  V30 2547 H 233.063 -0.632436 -4.12379 0
M  V30 2548 H 231.693 0.0736656 -3.22716 0
M  V30 2549 H 230.745 -2.33583 -3.00238 0
M  V30 2550 H 232.057 -2.88673 -4.06779 0
M  V30 2551 H 231.211 -1.4078 -5.9014 0
M  V30 2552 H 229.95 -0.753766 -4.8184 0
M  V30 2553 H 228.955 -3.04596 -4.57713 0
M  V30 2554 H 230.18 -3.69989 -5.6946 0
M  V30 2555 H 228.126 -1.56046 -6.3717 0
M  V30 2556 H 228.043 -3.22815 -6.83613 0
M  V30 2557 H 229.311 -2.22285 -7.47134 0
M  V30 2558 N 233.54 1.10788 -1.12088 0
M  V30 2559 C 234.488 2.19111 -0.780587 0
M  V30 2560 C 235.482 1.67818 0.230961 0
M  V30 2561 O 236.688 1.79777 0.0895427 0
M  V30 2562 H 233.063 0.714477 -0.234578 0
M  V30 2563 H 235.034 2.45055 -1.70266 0
M  V30 2564 C 233.783 3.46818 -0.24747 0
M  V30 2565 H 233.106 3.86646 -1.01712 0
M  V30 2566 H 234.546 4.23973 -0.0476291 0
M  V30 2567 C 233.005 3.20968 1.02378 0
M  V30 2568 O 233.535 3.42298 2.10226 0
M  V30 2569 N 231.741 2.74658 0.949271 0
M  V30 2570 H 231.288 2.57501 0.0715173 0
M  V30 2571 H 231.246 2.57739 1.80049 0
M  V30 2572 N 235.018 0.912232 1.28515 0
M  V30 2573 C 235.968 0.370649 2.24967 0
M  V30 2574 C 236.952 -0.516375 1.52389 0
M  V30 2575 O 238.144 -0.356345 1.73376 0
M  V30 2576 C 235.273 -0.389526 3.41083 0
M  V30 2577 C 234.359 0.51313 4.20984 0
M  V30 2578 N 234.75 1.62604 4.78951 0
M  V30 2579 C 233.048 0.313235 4.44899 0
M  V30 2580 C 233.749 2.18619 5.39055 0
M  V30 2581 N 232.725 1.47765 5.23132 0
M  V30 2582 H 236.527 1.22061 2.67354 0
M  V30 2583 H 234.041 0.764712 1.43269 0
M  V30 2584 H 236.038 -0.794353 4.09262 0
M  V30 2585 H 234.698 -1.2366 3.0023 0
M  V30 2586 H 235.709 2.00864 4.77362 0
M  V30 2587 H 232.386 -0.494452 4.14562 0
M  V30 2588 H 233.776 3.12228 5.94948 0
M  V30 2589 N 236.496 -1.42363 0.676048 0
M  V30 2590 C 237.907 -1.84649 0.275948 0
M  V30 2591 C 238.258 -1.56588 -1.18214 0
M  V30 2592 O 237.383 -1.02634 -1.90513 0
M  V30 2593 C 237.978 -3.35178 0.494053 0
M  V30 2594 C 236.537 -3.76109 0.148061 0
M  V30 2595 C 235.684 -2.65931 0.785891 0
M  V30 2596 H 238.635 -1.32192 0.878121 0
M  V30 2597 H 238.656 -3.79655 -0.25343 0
M  V30 2598 H 238.168 -3.55571 1.55535 0
M  V30 2599 H 236.269 -3.61323 -0.909742 0
M  V30 2600 H 236.382 -4.7546 0.589454 0
M  V30 2601 H 234.746 -2.53773 0.217113 0
M  V30 2602 H 235.529 -2.89146 1.85067 0
M  V30 2603 N 237.974 -0.419461 -1.51915 0
M  V30 2604 C 239.251 0.211999 -1.94448 0
M  V30 2605 C 239.631 1.61703 -1.35703 0
M  V30 2606 O 238.979 2.22102 -0.536931 0
M  V30 2607 C 239.189 0.207872 -3.4838 0
M  V30 2608 C 240.537 0.422192 -4.22496 0
M  V30 2609 O 241.561 0.286778 -3.55044 0
M  V30 2610 O 240.42 0.690009 -5.42126 0
M  V30 2611 H 237.514 0.139586 -0.815135 0
M  V30 2612 H 240.06 -0.476151 -1.62883 0
M  V30 2613 H 238.832 -0.775102 -3.83546 0
M  V30 2614 H 238.455 0.939688 -3.86336 0
M  V30 2615 N 239.452 1.56882 -0.150215 0
M  V30 2616 C 240.382 2.19935 0.784284 0
M  V30 2617 C 241.363 1.14854 1.25469 0
M  V30 2618 O 242.548 1.43209 1.31168 0
M  V30 2619 C 239.678 2.82349 2.02229 0
M  V30 2620 C 238.632 3.93285 1.68853 0
M  V30 2621 C 237.958 4.42649 2.99944 0
M  V30 2622 C 239.258 5.13904 0.932714 0
M  V30 2623 H 240.952 2.9828 0.258781 0
M  V30 2624 H 238.498 1.43473 0.123029 0
M  V30 2625 H 240.451 3.25126 2.68088 0
M  V30 2626 H 239.175 2.0134 2.57157 0
M  V30 2627 H 237.834 3.5113 1.05371 0
M  V30 2628 H 237.482 3.58458 3.52869 0
M  V30 2629 H 237.182 5.17476 2.78374 0
M  V30 2630 H 238.706 4.88099 3.66868 0
M  V30 2631 H 240.12 5.53506 1.49345 0
M  V30 2632 H 238.517 5.94515 0.81684 0
M  V30 2633 H 239.587 4.84842 -0.0749568 0
M  V30 2634 N 240.93 -0.123565 1.57115 0
M  V30 2635 C 241.893 -1.13583 1.99076 0
M  V30 2636 C 242.893 -1.34564 0.880296 0
M  V30 2637 O 244.083 -1.31158 1.14644 0
M  V30 2638 C 241.215 -2.49128 2.32698 0
M  V30 2639 H 242.408 -0.775287 2.89706 0
M  V30 2640 H 239.961 -0.36771 1.51913 0
M  V30 2641 H 240.696 -2.90111 1.44934 0
M  V30 2642 H 240.481 -2.35255 3.13684 0
M  V30 2643 H 241.971 -3.2199 2.65918 0
M  V30 2644 N 242.408 -1.52605 -0.393616 0
M  V30 2645 C 243.656 -1.67093 -1.13685 0
M  V30 2646 C 243.977 -0.411011 -1.90619 0
M  V30 2647 O 243.247 0.574491 -1.87287 0
M  V30 2648 H 241.827 -0.615923 -0.422668 0
M  V30 2649 H 244.489 -1.89704 -0.447039 0
M  V30 2650 H 243.585 -2.51922 -1.84232 0
M  V30 2651 N 243.887 0.651787 -1.4349 0
M  V30 2652 C 244.835 1.78586 -1.49029 0
M  V30 2653 C 245.829 1.65448 -0.363767 0
M  V30 2654 O 247.035 1.71777 -0.537821 0
M  V30 2655 H 243.41 0.589236 -0.467231 0
M  V30 2656 H 245.381 1.71035 -2.44519 0
M  V30 2657 C 244.13 3.16851 -1.43181 0
M  V30 2658 H 243.453 3.27598 -2.29171 0
M  V30 2659 H 244.893 3.96156 -1.51118 0
M  V30 2660 C 243.352 3.36568 -0.149616 0
M  V30 2661 O 243.882 3.93885 0.788509 0
M  V30 2662 N 242.088 2.90539 -0.0593484 0
M  V30 2663 H 241.635 2.4408 -0.823575 0
M  V30 2664 H 241.593 3.04108 0.797853 0
M  V30 2665 N 245.365 1.30045 0.890287 0
M  V30 2666 C 246.595 1.21296 1.67245 0
M  V30 2667 C 247.003 -0.227471 1.87828 0
M  V30 2668 O 246.346 -1.16296 1.422 0
M  V30 2669 C 246.408 1.86519 3.07329 0
M  V30 2670 C 246.072 3.35837 3.09939 0
M  V30 2671 C 247.069 4.31915 2.89389 0
M  V30 2672 C 244.754 3.77196 3.31706 0
M  V30 2673 C 246.748 5.67325 2.90552 0
M  V30 2674 C 244.435 5.12725 3.32499 0
M  V30 2675 C 245.433 6.076 3.11947 0
M  V30 2676 O 245.121 7.40655 3.12547 0
M  V30 2677 H 244.853 0.4211 0.528821 0
M  V30 2678 H 247.407 1.72111 1.12103 0
M  V30 2679 H 245.637 1.30228 3.64112 0
M  V30 2680 H 247.326 1.71963 3.67673 0
M  V30 2681 H 248.092 4.01294 2.72375 0
M  V30 2682 H 243.971 3.03796 3.4674 0
M  V30 2683 H 247.515 6.41354 2.74429 0
M  V30 2684 H 243.412 5.42988 3.49047 0
M  V30 2685 H 244.18 7.49577 3.28749 0
M  V30 2686 N 246.843 -1.10192 1.12674 0
M  V30 2687 C 248.12 -1.78717 0.794965 0
M  V30 2688 C 248.5 -1.98628 -0.714853 0
M  V30 2689 O 247.848 -1.58135 -1.64941 0
M  V30 2690 C 248.058 -3.11546 1.5729 0
M  V30 2691 C 249.406 -3.86382 1.76052 0
M  V30 2692 O 250.43 -3.21274 1.53823 0
M  V30 2693 O 249.289 -5.03246 2.13087 0
M  V30 2694 H 246.383 -0.774702 0.289423 0
M  V30 2695 H 248.929 -1.16819 1.23091 0
M  V30 2696 H 247.701 -2.92489 2.59935 0
M  V30 2697 H 247.324 -3.81164 1.13137 0
M  V30 2698 N 248.321 -0.919034 -1.28029 0
M  V30 2699 C 249.732 -0.600735 -1.76771 0
M  V30 2700 C 250.083 0.884024 -1.75156 0
M  V30 2701 O 249.208 1.69163 -1.34956 0
M  V30 2702 C 249.803 -1.08372 -3.21 0
M  V30 2703 C 248.362 -0.816248 -3.67443 0
M  V30 2704 C 247.509 -1.24742 -2.47658 0
M  V30 2705 H 250.46 -1.09974 -1.14418 0
M  V30 2706 H 250.481 -0.427512 -3.78091 0
M  V30 2707 H 249.993 -2.16437 -3.22144 0
M  V30 2708 H 248.094 0.250968 -3.71754 0
M  V30 2709 H 248.207 -1.4277 -4.57333 0
M  V30 2710 H 246.571 -0.666083 -2.45836 0
M  V30 2711 H 247.354 -2.33653 -2.51518 0
M  V30 2712 N 249.799 1.42003 -0.683588 0
M  V30 2713 C 251.047 2.01015 -0.209101 0
M  V30 2714 C 251.368 1.54365 1.19149 0
M  V30 2715 O 250.638 0.769083 1.80172 0
M  V30 2716 H 249.218 0.743294 -0.074315 0
M  V30 2717 H 251.88 1.73798 -0.882066 0
M  V30 2718 H 250.976 3.11343 -0.2172 0
M  V30 2719 N 251.277 0.427512 1.51691 0
M  V30 2720 C 252.24 -0.377132 2.26076 0
M  V30 2721 C 253.24 -0.958089 1.29141 0
M  V30 2722 O 254.43 -0.83408 1.52934 0
M  V30 2723 C 251.562 -1.53262 3.04506 0
M  V30 2724 H 252.755 0.27464 2.9864 0
M  V30 2725 H 250.308 0.180445 1.55255 0
M  V30 2726 H 251.043 -2.22072 2.36335 0
M  V30 2727 H 250.828 -1.12232 3.75694 0
M  V30 2728 H 252.318 -2.10135 3.60878 0
M  V30 2729 N 252.755 -1.56801 0.158532 0
M  V30 2730 C 253.98 -2.01295 -0.499516 0
M  V30 2731 C 254.405 -1.03799 -1.56867 0
M  V30 2732 O 253.763 -0.0155162 -1.81293 0
M  V30 2733 C 253.811 -3.44469 -1.06647 0
M  V30 2734 O 252.915 -3.50012 -2.18095 0
M  V30 2735 H 252.256 -0.652884 -0.12099 0
M  V30 2736 H 254.786 -2.02958 0.258661 0
M  V30 2737 H 254.796 -3.8351 -1.39227 0
M  V30 2738 H 253.471 -4.14932 -0.283581 0
M  V30 2739 H 252.048 -3.22822 -1.86656 0
M  V30 2740 N 254.233 0.115231 -1.57178 0
M  V30 2741 C 255.48 0.822351 -1.8505 0
M  V30 2742 C 255.808 1.79701 -0.744168 0
M  V30 2743 O 255.063 1.93909 0.26414 0
M  V30 2744 C 255.362 1.60324 -3.19423 0
M  V30 2745 C 255.028 0.772536 -4.44233 0
M  V30 2746 C 253.69 0.543468 -4.78121 0
M  V30 2747 C 256.042 0.193746 -5.2084 0
M  V30 2748 C 253.37 -0.274583 -5.86057 0
M  V30 2749 C 255.722 -0.611517 -6.29637 0
M  V30 2750 C 254.386 -0.850867 -6.62055 0
M  V30 2751 H 253.656 0.30092 -0.677147 0
M  V30 2752 H 256.303 0.0845802 -1.91313 0
M  V30 2753 H 254.608 2.41203 -3.08753 0
M  V30 2754 H 256.305 2.1544 -3.38211 0
M  V30 2755 H 252.895 0.96117 -4.17683 0
M  V30 2756 H 257.079 0.357926 -4.95008 0
M  V30 2757 H 252.335 -0.469206 -6.09597 0
M  V30 2758 H 256.509 -1.06697 -6.88178 0
M  V30 2759 H 254.136 -1.48657 -7.45523 0
M  V30 2760 N 255.711 1.52812 0.385517 0
M  V30 2761 C 256.988 1.5861 1.14465 0
M  V30 2762 C 257.368 0.381402 2.07626 0
M  V30 2763 O 256.716 -0.629999 2.19643 0
M  V30 2764 C 256.926 2.92664 1.90128 0
M  V30 2765 C 258.274 3.46526 2.45367 0
M  V30 2766 O 259.298 2.94562 2.0028 0
M  V30 2767 O 258.157 4.37323 3.27736 0
M  V30 2768 H 255.251 0.639855 0.523941 0
M  V30 2769 H 257.797 1.65149 0.390389 0
M  V30 2770 H 256.569 3.71788 1.22022 0
M  V30 2771 H 256.192 2.89527 2.72507 0
M  V30 2772 N 257.189 -0.644168 1.43834 0
M  V30 2773 C 258.435 -1.40603 1.46146 0
M  V30 2774 C 258.768 -1.93997 0.0887717 0
M  V30 2775 O 258.043 -1.72854 -0.891724 0
M  V30 2776 C 258.326 -2.58086 2.51124 0
M  V30 2777 C 258.179 -2.10126 3.97702 0
M  V30 2778 C 259.498 -3.60291 2.52742 0
M  V30 2779 H 256.617 -0.509905 0.532134 0
M  V30 2780 H 259.259 -0.729502 1.75437 0
M  V30 2781 H 257.409 -3.15801 2.26278 0
M  V30 2782 H 259.081 -1.57342 4.33637 0
M  V30 2783 H 257.324 -1.41419 4.10101 0
M  V30 2784 H 257.995 -2.94649 4.66783 0
M  V30 2785 H 260.471 -3.12352 2.7491 0
M  V30 2786 H 259.347 -4.40032 3.28121 0
M  V30 2787 H 259.608 -4.1349 1.56455 0
M  V30 2788 N 258.668 -1.30515 -0.883378 0
M  V30 2789 C 259.616 -1.16941 -2.01066 0
M  V30 2790 C 260.61 -0.0809148 -1.69207 0
M  V30 2791 O 261.816 -0.241877 -1.78367 0
M  V30 2792 H 258.191 -0.361705 -0.659298 0
M  V30 2793 H 260.162 -2.12344 -2.09649 0
M  V30 2794 C 258.911 -0.879694 -3.36388 0
M  V30 2795 H 258.234 -1.70936 -3.61415 0
M  V30 2796 H 259.674 -0.82483 -4.159 0
M  V30 2797 C 258.133 0.417409 -3.34304 0
M  V30 2798 O 258.663 1.43843 -3.75063 0
M  V30 2799 N 256.869 0.429141 -2.87414 0
M  V30 2800 H 256.416 -0.402222 -2.5444 0
M  V30 2801 H 256.374 1.29696 -2.86403 0
M  V30 2802 N 260.146 1.09593 -1.13257 0
M  V30 2803 C 261.423 1.78293 -0.804432 0
M  V30 2804 C 261.803 1.99004 0.70431 0
M  V30 2805 O 261.151 1.59007 1.641 0
M  V30 2806 C 261.361 3.10707 -1.5894 0
M  V30 2807 C 262.709 3.85443 -1.78099 0
M  V30 2808 O 263.733 3.20454 -1.55525 0
M  V30 2809 O 262.592 5.02108 -2.15753 0
M  V30 2810 H 259.686 0.773156 -0.293528 0
M  V30 2811 H 262.232 1.16164 -1.23709 0
M  V30 2812 H 261.004 2.91106 -2.61482 0
M  V30 2813 H 260.627 3.80558 -1.15157 0
M  V30 2814 N 261.624 0.925811 1.2754 0
M  V30 2815 C 262.556 0.380753 2.26015 0
M  V30 2816 C 263.569 -0.487485 1.5533 0
M  V30 2817 O 264.758 -0.300413 1.75954 0
M  V30 2818 C 261.858 -0.473259 3.35579 0
M  V30 2819 C 261.031 0.375249 4.35787 0
M  V30 2820 C 260.09 -0.415809 5.24555 0
M  V30 2821 O 259.116 0.175834 5.68928 0
M  V30 2822 N 260.318 -1.71607 5.54555 0
M  V30 2823 H 263.083 1.22725 2.73421 0
M  V30 2824 H 260.644 0.793037 1.41147 0
M  V30 2825 H 262.636 -1.00949 3.91907 0
M  V30 2826 H 261.206 -1.2205 2.87789 0
M  V30 2827 H 260.426 1.09279 3.7875 0
M  V30 2828 H 261.714 0.955399 4.99749 0
M  V30 2829 H 261.112 -2.2191 5.20358 0
M  V30 2830 H 259.669 -2.19887 6.1359 0
M  V30 2831 N 263.102 -1.41638 0.69111 0
M  V30 2832 C 264.379 -1.95036 0.148421 0
M  V30 2833 C 264.759 -1.63072 -1.34055 0
M  V30 2834 O 264.107 -0.93538 -2.08478 0
M  V30 2835 C 264.317 -3.46279 0.434951 0
M  V30 2836 C 265.665 -4.23069 0.360275 0
M  V30 2837 O 266.689 -3.54277 0.369613 0
M  V30 2838 O 265.548 -5.45583 0.316534 0
M  V30 2839 H 262.642 -0.826908 0.0123654 0
M  V30 2840 H 265.188 -1.5138 0.766963 0
M  V30 2841 H 263.96 -3.6281 1.46576 0
M  V30 2842 H 263.583 -3.97019 -0.214787 0
M  V30 2843 N 264.58 -0.43555 -1.51462 0
M  V30 2844 C 265.991 0.0279871 -1.86679 0
M  V30 2845 C 266.342 1.42104 -1.35281 0
M  V30 2846 O 265.467 2.04667 -0.702878 0
M  V30 2847 C 266.062 0.0575626 -3.38751 0
M  V30 2848 C 264.621 0.465507 -3.7351 0
M  V30 2849 C 263.768 -0.342996 -2.75171 0
M  V30 2850 H 266.719 -0.651473 -1.44712 0
M  V30 2851 H 266.74 0.867421 -3.70481 0
M  V30 2852 H 266.252 -0.956448 -3.7613 0
M  V30 2853 H 264.353 1.48519 -3.41721 0
M  V30 2854 H 264.466 0.191546 -4.78717 0
M  V30 2855 H 262.83 0.198442 -2.53926 0
M  V30 2856 H 263.613 -1.35585 -3.15391 0
M  V30 2857 N 266.058 1.56714 -0.166846 0
M  V30 2858 C 267.335 1.88412 0.525373 0
M  V30 2859 C 267.715 1.07602 1.81618 0
M  V30 2860 O 267.063 0.168621 2.27877 0
M  V30 2861 C 267.273 3.40363 0.771613 0
M  V30 2862 C 268.621 4.10007 1.1036 0
M  V30 2863 O 269.645 3.45655 0.860304 0
M  V30 2864 O 268.504 5.2369 1.56239 0
M  V30 2865 H 265.598 0.781587 0.270278 0
M  V30 2866 H 268.144 1.68458 -0.204946 0
M  V30 2867 H 266.916 3.91046 -0.141093 0
M  V30 2868 H 266.539 3.65914 1.55541 0
M  V30 2869 N 267.536 -0.106894 1.57237 0
M  V30 2870 C 268.947 -0.662723 1.74542 0
M  V30 2871 C 269.298 -1.7971 0.787319 0
M  V30 2872 O 268.423 -2.16368 -0.0369636 0
M  V30 2873 C 269.018 -1.20896 3.16496 0
M  V30 2874 C 267.577 -1.71096 3.35266 0
M  V30 2875 C 266.724 -0.615642 2.7038 0
M  V30 2876 H 269.675 0.119106 1.58252 0
M  V30 2877 H 269.696 -2.07847 3.18716 0
M  V30 2878 H 269.208 -0.383122 3.86204 0
M  V30 2879 H 267.309 -2.56119 2.70618 0
M  V30 2880 H 267.422 -1.81208 4.43509 0
M  V30 2881 H 265.786 -1.05222 2.31949 0
M  V30 2882 H 266.569 0.199419 3.4272 0
M  V30 2883 N 269.014 -1.53014 -0.377408 0
M  V30 2884 C 269.946 -1.74884 -1.48149 0
M  V30 2885 C 270.959 -0.629433 -1.5014 0
M  V30 2886 O 272.148 -0.905416 -1.53833 0
M  V30 2887 C 269.248 -1.80299 -2.86959 0
M  V30 2888 C 268.421 -3.09776 -3.08801 0
M  V30 2889 C 267.48 -3.06586 -4.27658 0
M  V30 2890 O 266.506 -3.80419 -4.23403 0
M  V30 2891 N 267.708 -2.26578 -5.34455 0
M  V30 2892 H 270.473 -2.70147 -1.29771 0
M  V30 2893 H 268.034 -1.51646 -0.56703 0
M  V30 2894 H 270.026 -1.75657 -3.64591 0
M  V30 2895 H 268.596 -0.92372 -2.98641 0
M  V30 2896 H 267.816 -3.27815 -2.18931 0
M  V30 2897 H 269.104 -3.95366 -3.20255 0
M  V30 2898 H 268.502 -1.66081 -5.40771 0
M  V30 2899 H 267.059 -2.27766 -6.10709 0
M  V30 2900 N 270.492 0.636531 -1.44174 0
M  V30 2901 C 271.903 1.21806 -1.41493 0
M  V30 2902 C 272.254 1.95785 -0.1275 0
M  V30 2903 O 271.379 2.02147 0.772376 0
M  V30 2904 C 271.974 2.21551 -2.56321 0
M  V30 2905 C 270.533 2.75143 -2.56853 0
M  V30 2906 C 269.68 1.50052 -2.33195 0
M  V30 2907 H 272.631 0.427531 -1.52833 0
M  V30 2908 H 272.652 3.0405 -2.28765 0
M  V30 2909 H 272.164 1.67679 -3.50008 0
M  V30 2910 H 270.265 3.33033 -1.67093 0
M  V30 2911 H 270.378 3.2155 -3.55165 0
M  V30 2912 H 268.742 1.77993 -1.82183 0
M  V30 2913 H 269.525 0.980903 -3.28988 0
M  V30 2914 N 271.97 1.30982 0.876444 0
M  V30 2915 C 273.386 1.09498 1.16113 0
M  V30 2916 C 273.586 -0.13875 2.01022 0
M  V30 2917 O 272.642 -0.829935 2.38471 0
M  V30 2918 C 273.955 2.36308 1.85954 0
M  V30 2919 C 275.503 2.41856 1.98683 0
M  V30 2920 C 275.978 3.6853 2.71937 0
M  V30 2921 N 277.469 3.69387 2.79477 0
M  V30 2922 C 278.204 4.64096 3.36753 0
M  V30 2923 N 277.7 5.69155 3.95012 0
M  V30 2924 N 279.493 4.51626 3.3465 0
M  V30 2925 H 271.644 2.10118 0.310494 0
M  V30 2926 H 273.907 0.926634 0.200131 0
M  V30 2927 H 273.613 3.26388 1.31011 0
M  V30 2928 H 273.487 2.4561 2.86278 0
M  V30 2929 H 275.874 1.52249 2.52793 0
M  V30 2930 H 275.955 2.36523 0.9742 0
M  V30 2931 H 275.599 4.58499 2.18496 0
M  V30 2932 H 275.529 3.71127 3.73593 0
M  V30 2933 H 278.02 2.93438 2.38123 0
M  V30 2934 H 278.333 6.3751 4.36808 0
M  V30 2935 H 276.678 5.72937 3.93406 0
M  V30 2936 H 279.869 3.68728 2.8837 0
M  V30 2937 H 280.042 5.25614 3.7899 0
M  V30 2938 N 273.449 -1.08991 1.13837 0
M  V30 2939 C 274.679 -1.84743 0.924859 0
M  V30 2940 C 275.087 -1.81629 -0.529874 0
M  V30 2941 O 274.43 -1.21397 -1.37872 0
M  V30 2942 C 274.492 -3.33568 1.34061 0
M  V30 2943 C 274.156 -3.60425 2.80968 0
M  V30 2944 C 275.153 -3.55771 3.79108 0
M  V30 2945 C 272.838 -3.88627 3.18236 0
M  V30 2946 C 274.832 -3.78939 5.12527 0
M  V30 2947 C 272.519 -4.11449 4.51833 0
M  V30 2948 C 273.517 -4.06598 5.48787 0
M  V30 2949 O 273.205 -4.28826 6.79973 0
M  V30 2950 H 272.937 -0.590258 0.329502 0
M  V30 2951 H 275.491 -1.38598 1.51591 0
M  V30 2952 H 273.721 -3.80442 0.692853 0
M  V30 2953 H 275.41 -3.90743 1.09886 0
M  V30 2954 H 276.176 -3.34005 3.51661 0
M  V30 2955 H 272.055 -3.91526 2.43369 0
M  V30 2956 H 275.599 -3.75068 5.88192 0
M  V30 2957 H 271.496 -4.32698 4.79002 0
M  V30 2958 H 272.264 -4.46264 6.86142 0
M  V30 2959 N 274.927 -0.932562 -1.27047 0
M  V30 2960 C 276.155 -0.592031 -1.98249 0
M  V30 2961 C 276.57 0.831062 -1.69525 0
M  V30 2962 O 275.927 1.55299 -0.958561 0
M  V30 2963 C 275.978 -0.814279 -3.5221 0
M  V30 2964 O 275.699 -2.18139 -3.7993 0
M  V30 2965 C 277.2 -0.483121 -4.4066 0
M  V30 2966 H 274.42 -0.223896 -0.632544 0
M  V30 2967 H 276.964 -1.25091 -1.61779 0
M  V30 2968 H 275.119 -0.20213 -3.86872 0
M  V30 2969 H 275.533 -2.235 -4.74498 0
M  V30 2970 H 277.007 -0.689298 -5.47679 0
M  V30 2971 H 277.484 0.581546 -4.35333 0
M  V30 2972 H 278.09 -1.07362 -4.11526 0
M  V30 2973 N 276.405 1.4127 -0.698611 0
M  V30 2974 C 277.337 2.292 0.00399731 0
M  V30 2975 C 278.35 1.44944 0.741279 0
M  V30 2976 O 279.539 1.68416 0.591477 0
M  V30 2977 C 276.639 3.22875 1.02979 0
M  V30 2978 C 275.812 4.35904 0.36151 0
M  V30 2979 C 274.871 5.10134 1.29033 0
M  V30 2980 O 273.897 5.63809 0.781562 0
M  V30 2981 N 275.099 5.17885 2.6225 0
M  V30 2982 H 277.864 2.9014 -0.750921 0
M  V30 2983 H 275.425 1.52455 -0.544882 0
M  V30 2984 H 277.417 3.69404 1.65296 0
M  V30 2985 H 275.987 2.63221 1.68622 0
M  V30 2986 H 275.207 3.91719 -0.441584 0
M  V30 2987 H 276.495 5.08696 -0.103055 0
M  V30 2988 H 275.893 4.7573 3.061 0
M  V30 2989 H 274.45 5.6798 3.19754 0
M  V30 2990 N 277.883 0.443576 1.51229 0
M  V30 2991 C 278.816 -0.410089 2.24485 0
M  V30 2992 C 279.794 -1.01949 1.26669 0
M  V30 2993 O 280.978 -1.06075 1.55821 0
M  V30 2994 C 278.105 -1.57211 3.00004 0
M  V30 2995 C 277.151 -1.08279 4.12526 0
M  V30 2996 S 277.984 -0.0197476 5.35496 0
M  V30 2997 C 279.14 -1.18629 6.14555 0
M  V30 2998 H 279.373 0.211832 2.96544 0
M  V30 2999 H 276.906 0.228156 1.52705 0
M  V30 3000 H 278.864 -2.23825 3.44111 0
M  V30 3001 H 277.525 -2.16547 2.27522 0
M  V30 3002 H 276.718 -1.95193 4.64667 0
M  V30 3003 H 276.32 -0.494797 3.70713 0
M  V30 3004 H 278.612 -2.10344 6.4402 0
M  V30 3005 H 279.555 -0.70472 7.04584 0
M  V30 3006 H 279.963 -1.42768 5.46148 0
M  V30 3007 N 279.361 -1.56624 0.175154 0
M  V30 3008 C 280.309 -2.19468 -0.770495 0
M  V30 3009 C 281.303 -1.15985 -1.23466 0
M  V30 3010 O 282.509 -1.34176 -1.19987 0
M  V30 3011 H 278.884 -0.703095 -0.266761 0
M  V30 3012 H 280.855 -2.97613 -0.216542 0
M  V30 3013 C 279.604 -2.85264 -1.98796 0
M  V30 3014 H 278.927 -3.64623 -1.63983 0
M  V30 3015 H 280.367 -3.327 -2.62843 0
M  V30 3016 C 278.826 -1.85239 -2.81404 0
M  V30 3017 O 279.356 -1.34024 -3.78682 0
M  V30 3018 N 277.562 -1.53911 -2.46495 0
M  V30 3019 H 277.109 -1.95751 -1.67449 0
M  V30 3020 H 277.067 -0.872382 -3.02054 0
M  V30 3021 N 280.839 0.0985539 -1.57292 0
M  V30 3022 C 282.116 0.834155 -1.76921 0
M  V30 3023 C 282.496 1.97101 -0.755928 0
M  V30 3024 O 281.844 2.27474 0.216245 0
M  V30 3025 C 282.054 1.33194 -3.22584 0
M  V30 3026 C 283.402 1.77611 -3.85668 0
M  V30 3027 O 284.426 1.42825 -3.26312 0
M  V30 3028 O 283.285 2.4192 -4.90038 0
M  V30 3029 H 280.379 0.397628 -0.725135 0
M  V30 3030 H 282.925 0.0807044 -1.69508 0
M  V30 3031 H 281.697 0.517248 -3.87866 0
M  V30 3032 H 281.32 2.1475 -3.34616 0
M  V30 3033 N 282.317 1.53212 0.369288 0
M  V30 3034 C 283.265 1.80054 1.47253 0
M  V30 3035 C 284.259 0.669456 1.55611 0
M  V30 3036 O 285.465 0.852328 1.58541 0
M  V30 3037 H 281.84 0.570034 0.490475 0
M  V30 3038 H 283.811 2.72403 1.21817 0
M  V30 3039 C 282.56 2.00403 2.84137 0
M  V30 3040 H 281.883 2.86876 2.78464 0
M  V30 3041 H 283.323 2.23164 3.60519 0
M  V30 3042 C 281.782 0.782081 3.27697 0
M  V30 3043 O 282.312 -0.0310205 4.01688 0
M  V30 3044 N 280.518 0.606573 2.84199 0
M  V30 3045 H 280.065 1.26939 2.24152 0
M  V30 3046 H 280.023 -0.20962 3.137 0
M  V30 3047 N 283.795 -0.628877 1.44509 0
M  V30 3048 C 285.211 -0.947305 1.28446 0
M  V30 3049 C 285.411 -2.00275 0.221872 0
M  V30 3050 O 284.467 -2.49447 -0.391471 0
M  V30 3051 C 285.78 -1.40843 2.65676 0
M  V30 3052 C 287.328 -1.52379 2.73404 0
M  V30 3053 C 287.803 -2.01875 4.11109 0
M  V30 3054 N 289.294 -2.09142 4.13296 0
M  V30 3055 C 290.029 -2.48615 5.16699 0
M  V30 3056 N 289.525 -2.87209 6.30462 0
M  V30 3057 N 291.318 -2.48768 5.04054 0
M  V30 3058 H 283.469 0.0690977 2.12288 0
M  V30 3059 H 285.732 -0.0317164 0.947469 0
M  V30 3060 H 285.438 -0.707206 3.44516 0
M  V30 3061 H 285.312 -2.37902 2.92716 0
M  V30 3062 H 287.699 -2.21598 1.9488 0
M  V30 3063 H 287.78 -0.536898 2.50102 0
M  V30 3064 H 287.424 -1.3325 4.90109 0
M  V30 3065 H 287.354 -3.0144 4.31789 0
M  V30 3066 H 289.845 -1.81991 3.31191 0
M  V30 3067 H 290.158 -3.16149 7.05174 0
M  V30 3068 H 288.503 -2.84955 6.33897 0
M  V30 3069 H 291.694 -2.18009 4.14234 0
M  V30 3070 H 291.867 -2.79207 5.84763 0
M  V30 3071 N 285.273 -1.31445 -0.869486 0
M  V30 3072 C 286.223 -1.15731 -1.96444 0
M  V30 3073 C 287.207 -0.0681855 -1.60755 0
M  V30 3074 O 288.399 -0.293154 -1.74555 0
M  V30 3075 C 285.528 -0.867255 -3.32165 0
M  V30 3076 C 284.614 -1.99738 -3.74119 0
M  V30 3077 N 285.005 -3.24447 -3.88031 0
M  V30 3078 C 283.303 -1.89723 -4.03635 0
M  V30 3079 C 284.004 -3.98374 -4.23879 0
M  V30 3080 N 282.98 -3.26547 -4.3459 0
M  V30 3081 H 286.782 -2.10296 -2.05312 0
M  V30 3082 H 284.296 -1.23009 -1.06031 0
M  V30 3083 H 286.293 -0.735668 -4.10358 0
M  V30 3084 H 284.953 0.0701614 -3.24624 0
M  V30 3085 H 285.964 -3.59557 -3.72746 0
M  V30 3086 H 282.641 -1.03449 -4.04481 0
M  V30 3087 H 284.031 -5.05844 -4.42235 0
M  V30 3088 N 286.751 1.08385 -1.14413 0
M  V30 3089 C 287.999 1.80419 -0.910679 0
M  V30 3090 C 288.32 1.86658 0.564243 0
M  V30 3091 O 287.59 1.35985 1.41014 0
M  V30 3092 H 286.17 0.668204 -0.333934 0
M  V30 3093 H 288.832 1.31037 -1.44275 0
M  V30 3094 H 287.928 2.83238 -1.31082 0
M  V30 3095 N 288.23 0.939286 1.26551 0
M  V30 3096 C 289.458 0.602536 1.97932 0
M  V30 3097 C 289.873 -0.82206 1.69964 0
M  V30 3098 O 289.23 -1.54789 0.966784 0
M  V30 3099 C 289.281 0.832946 3.51773 0
M  V30 3100 O 289.002 2.20151 3.78768 0
M  V30 3101 C 290.503 0.506483 4.40397 0
M  V30 3102 H 287.723 0.227248 0.631347 0
M  V30 3103 H 290.267 1.25948 1.61113 0
M  V30 3104 H 288.422 0.222644 3.8676 0
M  V30 3105 H 288.836 2.26013 4.73306 0
M  V30 3106 H 290.31 0.718333 5.47306 0
M  V30 3107 H 290.787 -0.558451 4.35635 0
M  V30 3108 H 291.393 1.09543 4.10951 0
M  V30 3109 N 289.708 -1.40897 0.706093 0
M  V30 3110 C 291.124 -1.55042 0.37869 0
M  V30 3111 C 291.324 -1.67944 -1.11342 0
M  V30 3112 O 290.38 -1.66372 -1.89938 0
M  V30 3113 C 291.693 -2.78398 1.13643 0
M  V30 3114 C 293.241 -2.92206 1.12181 0
M  V30 3115 C 293.716 -4.18463 1.86152 0
M  V30 3116 N 295.207 -4.25443 1.83173 0
M  V30 3117 C 295.942 -5.2202 2.37239 0
M  V30 3118 N 295.438 -6.24563 2.99821 0
M  V30 3119 N 297.231 -5.14033 2.27435 0
M  V30 3120 H 289.382 -1.30769 1.67372 0
M  V30 3121 H 291.645 -0.631653 0.706907 0
M  V30 3122 H 291.351 -2.7511 2.19106 0
M  V30 3123 H 291.225 -3.70228 0.721853 0
M  V30 3124 H 293.612 -2.95004 0.0754171 0
M  V30 3125 H 293.693 -2.01521 1.57554 0
M  V30 3126 H 293.337 -4.16427 2.90776 0
M  V30 3127 H 293.267 -5.08141 1.38206 0
M  V30 3128 H 295.758 -3.51976 1.37556 0
M  V30 3129 H 296.071 -6.94665 3.38616 0
M  V30 3130 H 294.416 -6.25035 3.03902 0
M  V30 3131 H 297.607 -4.3285 1.78208 0
M  V30 3132 H 297.78 -5.89129 2.69873 0
M  V30 3133 N 291.186 -0.45159 -1.50991 0
M  V30 3134 C 292.426 0.109066 -2.04109 0
M  V30 3135 C 292.79 1.38716 -1.32747 0
M  V30 3136 O 293.991 2.02896 -1.76314 0
M  V30 3137 C 292.262 0.308354 -3.56067 0
M  V30 3138 S 293.821 0.830369 -4.30872 0
M  V30 3139 H 290.639 0.0251531 -0.710555 0
M  V30 3140 H 293.241 -0.614264 -1.85599 0
M  V30 3141 H 291.945 -0.627962 -4.05567 0
M  V30 3142 H 291.476 1.05836 -3.78896 0
M  V30 3143 H 293.491 2.10626 -4.49279 0
M  V30 3144 N 292.664 1.56529 -0.183458 0
M  V30 3145 C 293.627 2.17324 0.728223 0
M  V30 3146 C 294.627 1.12453 1.14939 0
M  V30 3147 O 295.817 1.37902 1.06437 0
M  V30 3148 C 292.949 2.76591 1.99274 0
M  V30 3149 H 294.142 2.99241 0.198772 0
M  V30 3150 H 291.695 1.5616 0.0661391 0
M  V30 3151 H 292.43 1.98441 2.56499 0
M  V30 3152 H 292.215 3.5335 1.69959 0
M  V30 3153 H 293.705 3.23311 2.6431 0
M  V30 3154 N 294.142 -0.090211 1.57342 0
M  V30 3155 C 295.39 -0.791241 1.85967 0
M  V30 3156 C 295.711 -1.7903 0.772859 0
M  V30 3157 O 294.981 -1.94872 -0.200398 0
M  V30 3158 H 293.561 -0.295205 0.686195 0
M  V30 3159 H 296.223 -0.0706782 1.94772 0
M  V30 3160 H 295.319 -1.31882 2.82867 0
M  V30 3161 N 295.62 -1.53406 -0.361157 0
M  V30 3162 C 296.53 -1.83122 -1.4664 0
M  V30 3163 C 297.546 -0.719943 -1.58407 0
M  V30 3164 O 298.722 -1.01046 -1.74218 0
M  V30 3165 C 295.787 -2.01891 -2.81853 0
M  V30 3166 C 294.848 -3.25784 -2.79577 0
M  V30 3167 C 294.081 -3.43648 -4.0834 0
M  V30 3168 O 294.304 -2.65714 -5.0473 0
M  V30 3169 O 293.238 -4.37018 -4.13883 0
M  V30 3170 H 297.064 -2.7703 -1.24451 0
M  V30 3171 H 294.649 -1.38841 -0.551678 0
M  V30 3172 H 296.531 -2.15782 -3.61962 0
M  V30 3173 H 295.206 -1.11173 -3.0401 0
M  V30 3174 H 294.113 -3.17312 -1.98151 0
M  V30 3175 H 295.446 -4.16439 -2.62373 0
M  V30 3176 N 297.098 0.621204 -1.44841 0
M  V30 3177 C 298.344 1.3826 -1.48365 0
M  V30 3178 C 298.677 1.93831 -0.119624 0
M  V30 3179 O 297.952 1.74251 0.864111 0
M  V30 3180 C 298.235 2.54058 -2.55199 0
M  V30 3181 C 298.088 2.03772 -4.00995 0
M  V30 3182 C 299.407 3.56225 -2.58442 0
M  V30 3183 H 296.526 0.501374 -0.540179 0
M  V30 3184 H 299.168 0.7015 -1.76576 0
M  V30 3185 H 297.318 3.12162 -2.31274 0
M  V30 3186 H 298.99 1.50423 -4.36086 0
M  V30 3187 H 297.233 1.34876 -4.12299 0
M  V30 3188 H 297.904 2.87185 -4.71411 0
M  V30 3189 H 300.38 3.07939 -2.79844 0
M  V30 3190 H 299.256 4.34756 -3.3508 0
M  V30 3191 H 299.517 4.10949 -1.63013 0
M  V30 3192 N 298.576 1.31904 0.862503 0
M  V30 3193 C 299.539 1.20131 1.95195 0
M  V30 3194 C 300.539 0.126409 1.60302 0
M  V30 3195 O 301.729 0.376234 1.70089 0
M  V30 3196 C 298.861 0.845691 3.30244 0
M  V30 3197 H 300.054 2.16943 2.07064 0
M  V30 3198 H 297.607 1.15622 1.05172 0
M  V30 3199 H 298.342 -0.120957 3.24074 0
M  V30 3200 H 298.127 1.62276 3.56944 0
M  V30 3201 H 299.617 0.787418 4.10109 0
M  V30 3202 N 300.054 -1.07777 1.14986 0
M  V30 3203 C 301.017 -2.13041 0.845358 0
M  V30 3204 C 302.017 -1.60071 -0.152931 0
M  V30 3205 O 303.207 -1.74033 0.0761879 0
M  V30 3206 C 300.339 -3.39896 0.261383 0
M  V30 3207 H 301.532 -2.41485 1.77834 0
M  V30 3208 H 299.085 -1.23595 0.956757 0
M  V30 3209 H 299.82 -3.17091 -0.68 0
M  V30 3210 H 299.605 -3.79642 0.980514 0
M  V30 3211 H 301.095 -4.17548 0.0657687 0
M  V30 3212 N 301.532 -0.945985 -1.26051 0
M  V30 3213 C 302.778 -0.597002 -1.93814 0
M  V30 3214 C 303.111 0.862484 -1.73997 0
M  V30 3215 O 302.386 1.61769 -1.07986 0
M  V30 3216 C 302.669 -0.945937 -3.47454 0
M  V30 3217 C 302.522 -2.46052 -3.76535 0
M  V30 3218 C 303.841 -0.464785 -4.37639 0
M  V30 3219 H 300.96 -0.218366 -0.703907 0
M  V30 3220 H 303.602 -1.18107 -1.48831 0
M  V30 3221 H 301.752 -0.448902 -3.85898 0
M  V30 3222 H 303.424 -3.03065 -3.47778 0
M  V30 3223 H 301.667 -2.90194 -3.22444 0
M  V30 3224 H 302.338 -2.65517 -4.83947 0
M  V30 3225 H 304.814 -0.891016 -4.06448 0
M  V30 3226 H 303.69 -0.737712 -5.4392 0
M  V30 3227 H 303.951 0.635274 -4.37512 0
M  V30 3228 N 303.011 1.40521 -0.713556 0
M  V30 3229 C 303.974 2.29098 -0.0684347 0
M  V30 3230 C 304.974 1.45268 0.689472 0
M  V30 3231 O 306.164 1.66205 0.521677 0
M  V30 3232 C 303.296 3.28446 0.913024 0
M  V30 3233 H 304.489 2.87645 -0.84855 0
M  V30 3234 H 302.042 1.48809 -0.47809 0
M  V30 3235 H 302.777 2.74913 1.72027 0
M  V30 3236 H 302.562 3.90327 0.372472 0
M  V30 3237 H 304.052 3.94777 1.36165 0
M  V30 3238 N 304.489 0.459591 1.5075 0
M  V30 3239 C 305.437 -0.354678 2.2988 0
M  V30 3240 C 306.431 -1.00086 1.36672 0
M  V30 3241 O 307.637 -0.933277 1.53915 0
M  V30 3242 H 304.012 -0.13321 0.740107 0
M  V30 3243 H 305.983 0.333269 2.96533 0
M  V30 3244 C 304.732 -1.43073 3.169 0
M  V30 3245 H 304.055 -0.942882 3.88523 0
M  V30 3246 H 305.495 -1.97328 3.75284 0
M  V30 3247 C 303.954 -2.42633 2.33732 0
M  V30 3248 O 304.484 -3.47658 2.01238 0
M  V30 3249 N 302.69 -2.14066 1.9653 0
M  V30 3250 H 302.237 -1.28685 2.23155 0
M  V30 3251 H 302.195 -2.80917 1.41185 0
M  V30 3252 N 305.967 -1.56429 0.191757 0
M  V30 3253 C 306.915 -2.20273 -0.747174 0
M  V30 3254 C 307.909 -1.17288 -1.22229 0
M  V30 3255 O 309.115 -1.35441 -1.18557 0
M  V30 3256 H 305.49 -0.705885 -0.259289 0
M  V30 3257 H 307.461 -2.97826 -0.184963 0
M  V30 3258 C 306.21 -2.87356 -1.95759 0
M  V30 3259 H 305.533 -3.66341 -1.60106 0
M  V30 3260 H 306.973 -3.3547 -2.59299 0
M  V30 3261 C 305.432 -1.88213 -2.79423 0
M  V30 3262 O 305.962 -1.38033 -3.7724 0
M  V30 3263 N 304.168 -1.56516 -2.44849 0
M  V30 3264 H 303.715 -1.97516 -1.65364 0
M  V30 3265 H 303.673 -0.904369 -3.01112 0
M  V30 3266 N 307.445 0.0818655 -1.57387 0
M  V30 3267 C 308.693 0.781368 -1.86384 0
M  V30 3268 C 309.014 1.78618 -0.782342 0
M  V30 3269 O 308.284 1.94976 0.190061 0
M  V30 3270 H 306.864 0.291562 -0.687751 0
M  V30 3271 H 309.526 0.060348 -1.94807 0
M  V30 3272 H 308.622 1.3038 -2.83562 0
M  V30 3273 N 308.923 1.53595 0.353017 0
M  V30 3274 C 310.169 1.70638 1.09593 0
M  V30 3275 C 310.502 0.463286 1.88593 0
M  V30 3276 O 309.777 -0.539597 1.86865 0
M  V30 3277 C 310.06 2.96406 2.04489 0
M  V30 3278 C 309.913 4.30901 1.29014 0
M  V30 3279 C 311.232 3.17812 3.0444 0
M  V30 3280 H 308.351 0.620913 0.397034 0
M  V30 3281 H 310.993 1.86254 0.375446 0
M  V30 3282 H 309.143 2.83223 2.65927 0
M  V30 3283 H 310.815 4.55917 0.702638 0
M  V30 3284 H 309.058 4.29741 0.592071 0
M  V30 3285 H 309.729 5.1506 1.98537 0
M  V30 3286 H 312.205 3.30263 2.53112 0
M  V30 3287 H 311.081 4.07223 3.6805 0
M  V30 3288 H 311.342 2.33669 3.75301 0
M  V30 3289 N 310.401 -0.613514 1.45168 0
M  V30 3290 C 311.641 -1.38405 1.5041 0
M  V30 3291 C 312.005 -1.91489 0.139922 0
M  V30 3292 O 313.206 -2.68716 0.067033 0
M  V30 3293 C 311.477 -2.50552 2.5487 0
M  V30 3294 S 313.036 -3.38439 2.79292 0
M  V30 3295 H 309.854 -0.471945 0.531779 0
M  V30 3296 H 312.456 -0.708518 1.82209 0
M  V30 3297 H 311.16 -2.09894 3.52665 0
M  V30 3298 H 310.691 -3.22913 2.24701 0
M  V30 3299 H 312.706 -4.48527 2.12222 0
M  V30 3300 N 311.879 -1.3236 -0.855495 0
M  V30 3301 C 313.127 -1.22629 -1.60644 0
M  V30 3302 C 313.448 0.212136 -1.93843 0
M  V30 3303 O 312.718 1.13666 -1.59552 0
M  V30 3304 H 311.298 -0.450882 -0.595579 0
M  V30 3305 H 313.96 -1.65871 -1.02337 0
M  V30 3306 H 313.056 -1.80832 -2.54374 0
M  V30 3307 N 313.357 1.07166 -1.15556 0
M  V30 3308 C 314.603 1.80065 -0.932984 0
M  V30 3309 C 314.936 1.86586 0.53845 0
M  V30 3310 O 314.211 1.35098 1.39924 0
M  V30 3311 C 314.494 3.25022 -1.55025 0
M  V30 3312 C 314.347 3.26634 -3.09242 0
M  V30 3313 C 315.666 4.22341 -1.2376 0
M  V30 3314 H 312.785 0.653697 -0.340366 0
M  V30 3315 H 315.427 1.25389 -1.4275 0
M  V30 3316 H 313.577 3.71712 -1.12972 0
M  V30 3317 H 315.249 2.88173 -3.60214 0
M  V30 3318 H 313.492 2.65539 -3.43033 0
M  V30 3319 H 314.163 4.28854 -3.47546 0
M  V30 3320 H 316.639 3.8405 -1.60139 0
M  V30 3321 H 315.515 5.22053 -1.69564 0
M  V30 3322 H 315.776 4.41828 -0.154938 0
M  V30 3323 N 314.835 0.952656 1.25548 0
M  V30 3324 C 316.083 0.605176 1.92826 0
M  V30 3325 C 316.404 -0.860261 1.74999 0
M  V30 3326 O 315.674 -1.6125 1.11244 0
M  V30 3327 H 314.254 0.220832 0.713612 0
M  V30 3328 H 316.916 1.21047 1.52754 0
M  V30 3329 H 316.012 0.832798 3.00784 0
M  V30 3330 N 316.313 -1.40141 0.720998 0
M  V30 3331 C 317.559 -2.01084 0.263231 0
M  V30 3332 C 317.892 -1.57052 -1.14229 0
M  V30 3333 O 317.167 -0.793027 -1.77599 0
M  V30 3334 C 317.45 -3.58401 0.349344 0
M  V30 3335 C 317.303 -4.12491 1.79363 0
M  V30 3336 C 318.622 -4.39231 -0.276351 0
M  V30 3337 H 315.741 -0.730572 0.0971228 0
M  V30 3338 H 318.383 -1.66543 0.914518 0
M  V30 3339 H 316.533 -3.87958 -0.205165 0
M  V30 3340 H 318.205 -3.93711 2.40394 0
M  V30 3341 H 316.448 -3.66576 2.31958 0
M  V30 3342 H 317.119 -5.21646 1.80524 0
M  V30 3343 H 319.595 -4.15637 0.196184 0
M  V30 3344 H 318.471 -5.48586 -0.185681 0
M  V30 3345 H 318.732 -4.20643 -1.36059 0
M  V30 3346 N 317.792 -0.46758 -1.50504 0
M  V30 3347 C 318.755 0.317059 -2.26996 0
M  V30 3348 C 319.755 0.923513 -1.31635 0
M  V30 3349 O 320.945 0.793239 -1.55091 0
M  V30 3350 C 318.077 1.45134 -3.08462 0
M  V30 3351 H 319.27 -0.353723 -2.97807 0
M  V30 3352 H 316.823 -0.221545 -1.54722 0
M  V30 3353 H 317.558 2.15728 -2.4214 0
M  V30 3354 H 317.343 1.02232 -3.78538 0
M  V30 3355 H 318.833 2.00493 -3.66323 0
M  V30 3356 N 319.27 1.56325 -0.20005 0
M  V30 3357 C 320.5 2.01811 0.442232 0
M  V30 3358 C 320.908 1.07932 1.55394 0
M  V30 3359 O 320.251 0.0772685 1.83537 0
M  V30 3360 C 320.313 3.43685 1.05457 0
M  V30 3361 C 319.977 4.56928 0.0809833 0
M  V30 3362 C 320.974 5.15009 -0.711471 0
M  V30 3363 C 318.659 5.0229 -0.0315364 0
M  V30 3364 C 320.653 6.16904 -1.60336 0
M  V30 3365 C 318.34 6.04028 -0.926981 0
M  V30 3366 C 319.338 6.6121 -1.71146 0
M  V30 3367 O 319.026 7.60971 -2.59189 0
M  V30 3368 H 318.758 0.666173 0.114848 0
M  V30 3369 H 321.312 2.03085 -0.307511 0
M  V30 3370 H 319.542 3.39413 1.85299 0
M  V30 3371 H 321.231 3.72948 1.60201 0
M  V30 3372 H 321.997 4.80827 -0.634873 0
M  V30 3373 H 317.876 4.57476 0.568902 0
M  V30 3374 H 321.42 6.61464 -2.21611 0
M  V30 3375 H 317.317 6.37634 -1.00468 0
M  V30 3376 H 318.085 7.7841 -2.53023 0
M  V30 3377 N 320.748 -0.0735177 1.57428 0
M  V30 3378 C 321.696 -1.10628 2.04607 0
M  V30 3379 C 322.69 -1.40181 0.951088 0
M  V30 3380 O 323.896 -1.39608 1.1362 0
M  V30 3381 H 320.271 -0.374088 0.652351 0
M  V30 3382 H 322.242 -0.682218 2.90497 0
M  V30 3383 C 320.991 -2.41212 2.50423 0
M  V30 3384 H 320.314 -2.19322 3.34272 0
M  V30 3385 H 321.754 -3.11927 2.87189 0
M  V30 3386 C 320.213 -3.0705 1.38644 0
M  V30 3387 O 320.743 -3.95056 0.727582 0
M  V30 3388 N 318.949 -2.67645 1.132 0
M  V30 3389 H 318.496 -1.96169 1.66959 0
M  V30 3390 H 318.454 -3.1202 0.386147 0
M  V30 3391 N 322.226 -1.5378 -0.344866 0
M  V30 3392 C 323.189 -1.80981 -1.40637 0
M  V30 3393 C 324.189 -0.680816 -1.45676 0
M  V30 3394 O 325.379 -0.949095 -1.46075 0
M  V30 3395 C 322.511 -1.95063 -2.79577 0
M  V30 3396 H 323.704 -2.75803 -1.17783 0
M  V30 3397 H 321.257 -1.45173 -0.579181 0
M  V30 3398 H 321.992 -1.02379 -3.07716 0
M  V30 3399 H 321.777 -2.77198 -2.77315 0
M  V30 3400 H 323.267 -2.17629 -3.56409 0
M  V30 3401 N 323.704 0.605807 -1.45491 0
M  V30 3402 C 325.12 0.926751 -1.29936 0
M  V30 3403 C 325.32 1.99896 -0.253706 0
M  V30 3404 O 324.376 2.50038 0.351737 0
M  V30 3405 C 325.689 1.36599 -2.67883 0
M  V30 3406 C 327.237 1.4801 -2.75793 0
M  V30 3407 C 327.712 1.95309 -4.14268 0
M  V30 3408 N 329.203 2.0254 -4.16571 0
M  V30 3409 C 329.938 2.40363 -5.20589 0
M  V30 3410 N 329.434 2.77143 -6.34952 0
M  V30 3411 N 331.227 2.40718 -5.07948 0
M  V30 3412 H 323.378 -0.102862 -2.12151 0
M  V30 3413 H 325.641 0.016639 -0.947854 0
M  V30 3414 H 325.347 0.652306 -3.45598 0
M  V30 3415 H 325.221 2.33215 -2.96463 0
M  V30 3416 H 327.608 2.1847 -1.98381 0
M  V30 3417 H 327.689 0.497041 -2.50925 0
M  V30 3418 H 327.333 1.25436 -4.92167 0
M  V30 3419 H 327.263 2.94532 -4.3653 0
M  V30 3420 H 329.754 1.76699 -3.34045 0
M  V30 3421 H 330.067 3.0489 -7.10114 0
M  V30 3422 H 328.412 2.74834 -6.3835 0
M  V30 3423 H 331.603 2.11392 -4.1765 0
M  V30 3424 H 331.776 2.69869 -5.89131 0
M  V30 3425 N 325.182 1.32811 0.848464 0
M  V30 3426 C 326.431 1.23075 1.59798 0
M  V30 3427 C 326.744 -0.204419 1.94529 0
M  V30 3428 O 327.95 -0.423701 2.68173 0
M  V30 3429 C 326.406 2.15594 2.88179 0
M  V30 3430 C 326.014 3.64228 2.60849 0
M  V30 3431 C 327.758 2.14709 3.66197 0
M  V30 3432 C 325.665 4.48689 3.85269 0
M  V30 3433 H 324.595 0.457091 0.599653 0
M  V30 3434 H 327.246 1.57813 0.936342 0
M  V30 3435 H 325.628 1.73778 3.55833 0
M  V30 3436 H 326.802 4.14424 2.01467 0
M  V30 3437 H 325.117 3.67306 1.96151 0
M  V30 3438 H 327.714 2.75046 4.58534 0
M  V30 3439 H 328.057 1.13966 4.00397 0
M  V30 3440 H 328.59 2.54837 3.05455 0
M  V30 3441 H 325.329 5.5027 3.56207 0
M  V30 3442 H 324.849 4.03241 4.44024 0
M  V30 3443 H 326.528 4.62006 4.52946 0
M  V30 3444 N 326.66 -1.06551 1.16123 0
M  V30 3445 C 327.908 -1.78947 0.939267 0
M  V30 3446 C 328.229 -1.87532 -0.534476 0
M  V30 3447 O 327.499 -1.38211 -1.38833 0
M  V30 3448 H 326.079 -0.662807 0.344523 0
M  V30 3449 H 328.741 -1.28725 1.46342 0
M  V30 3450 H 327.837 -2.81117 1.35572 0
M  V30 3451 N 328.138 -0.959301 -1.25041 0
M  V30 3452 C 329.386 -0.615393 -1.92503 0
M  V30 3453 C 329.707 0.850969 -1.75452 0
M  V30 3454 O 328.977 1.60658 -1.12098 0
M  V30 3455 H 327.557 -0.224613 -0.712431 0
M  V30 3456 H 330.219 -1.21855 -1.5211 0
M  V30 3457 H 329.315 -0.848738 -3.00338 0
M  V30 3458 N 329.616 1.39756 -0.72842 0
M  V30 3459 C 330.862 2.00942 -0.273892 0
M  V30 3460 C 331.195 1.57656 1.13394 0
M  V30 3461 O 330.47 0.802434 1.77176 0
M  V30 3462 C 330.753 3.58211 -0.368346 0
M  V30 3463 C 330.606 4.11534 -1.81548 0
M  V30 3464 C 331.925 4.39372 0.253054 0
M  V30 3465 H 329.044 0.730047 -0.100996 0
M  V30 3466 H 331.686 1.66056 -0.923337 0
M  V30 3467 H 329.836 3.88061 0.184588 0
M  V30 3468 H 331.508 3.92431 -2.42478 0
M  V30 3469 H 329.751 3.65341 -2.33898 0
M  V30 3470 H 330.422 5.20682 -1.83288 0
M  V30 3471 H 332.898 4.15527 -0.218224 0
M  V30 3472 H 331.774 5.48677 0.156585 0
M  V30 3473 H 332.035 4.21358 1.33826 0
M  V30 3474 N 331.094 0.475555 1.50254 0
M  V30 3475 C 332.51 0.12997 1.5907 0
M  V30 3476 C 332.71 -1.36385 1.48328 0
M  V30 3477 O 331.766 -2.13754 1.34407 0
M  V30 3478 C 333.079 0.684139 2.92814 0
M  V30 3479 C 334.627 0.647965 3.0622 0
M  V30 3480 C 335.102 1.17975 4.42545 0
M  V30 3481 N 336.593 1.13936 4.48969 0
M  V30 3482 C 337.328 1.52129 5.52851 0
M  V30 3483 N 336.824 1.97793 6.63965 0
M  V30 3484 N 338.617 1.43704 5.4342 0
M  V30 3485 H 330.768 1.44706 1.55479 0
M  V30 3486 H 333.031 0.598691 0.735033 0
M  V30 3487 H 332.737 1.73079 3.06164 0
M  V30 3488 H 332.611 0.130204 3.76975 0
M  V30 3489 H 334.998 -0.38979 2.92514 0
M  V30 3490 H 335.079 1.23876 2.23805 0
M  V30 3491 H 334.723 2.21616 4.57 0
M  V30 3492 H 334.653 0.565138 5.23559 0
M  V30 3493 H 337.144 0.804488 3.69238 0
M  V30 3494 H 337.457 2.25072 7.39299 0
M  V30 3495 H 335.802 2.01749 6.65073 0
M  V30 3496 H 338.993 1.07867 4.55502 0
M  V30 3497 H 339.166 1.73794 6.24259 0
M  V30 3498 N 332.573 -1.56217 0.208337 0
M  V30 3499 C 333.506 -2.15633 -0.746842 0
M  V30 3500 C 334.484 -1.09685 -1.20034 0
M  V30 3501 O 335.668 -1.3787 -1.28547 0
M  V30 3502 C 332.795 -2.72594 -2.01023 0
M  V30 3503 C 331.841 -3.91251 -1.69779 0
M  V30 3504 S 332.674 -5.28962 -0.834209 0
M  V30 3505 C 333.83 -5.89353 -2.10745 0
M  V30 3506 H 334.063 -2.96315 -0.241789 0
M  V30 3507 H 331.596 -1.54398 -0.00682183 0
M  V30 3508 H 333.554 -3.06053 -2.73572 0
M  V30 3509 H 332.215 -1.91929 -2.48641 0
M  V30 3510 H 331.408 -4.29562 -2.63614 0
M  V30 3511 H 331.01 -3.58869 -1.05303 0
M  V30 3512 H 333.302 -6.04522 -3.05875 0
M  V30 3513 H 334.245 -6.85661 -1.76845 0
M  V30 3514 H 334.653 -5.1807 -2.24196 0
M  V30 3515 N 334.051 0.0651679 -1.57465 0
M  V30 3516 C 334.981 1.07693 -2.07182 0
M  V30 3517 C 335.962 1.39962 -0.966673 0
M  V30 3518 O 337.147 1.49475 -1.2398 0
M  V30 3519 C 334.277 2.3885 -2.52127 0
M  V30 3520 C 333.231 2.20917 -3.66579 0
M  V30 3521 C 332.557 3.57515 -3.97601 0
M  V30 3522 C 333.857 1.62493 -4.9638 0
M  V30 3523 H 335.551 0.663199 -2.91962 0
M  V30 3524 H 333.097 0.317569 -1.40455 0
M  V30 3525 H 335.05 3.09928 -2.85522 0
M  V30 3526 H 333.774 2.82215 -1.64384 0
M  V30 3527 H 332.433 1.52279 -3.33477 0
M  V30 3528 H 332.081 3.98463 -3.06979 0
M  V30 3529 H 331.781 3.46353 -4.74672 0
M  V30 3530 H 333.305 4.30013 -4.33499 0
M  V30 3531 H 334.719 2.23445 -5.27963 0
M  V30 3532 H 333.116 1.62009 -5.77818 0
M  V30 3533 H 334.186 0.587041 -4.81333 0
M  V30 3534 N 335.529 1.53961 0.336706 0
M  V30 3535 C 336.806 1.62171 1.09361 0
M  V30 3536 C 337.186 0.447263 2.06307 0
M  V30 3537 O 336.534 -0.559802 2.21537 0
M  V30 3538 C 336.744 2.98565 1.80721 0
M  V30 3539 C 338.092 3.54157 2.34218 0
M  V30 3540 O 339.116 3.00784 1.90807 0
M  V30 3541 O 337.975 4.47528 3.13657 0
M  V30 3542 H 335.069 0.6562 0.503319 0
M  V30 3543 H 337.615 1.66307 0.33765 0
M  V30 3544 H 336.387 3.75482 1.10132 0
M  V30 3545 H 336.01 2.9805 2.63158 0
M  V30 3546 N 337.007 -0.598083 1.45811 0
M  V30 3547 C 338.255 -1.35413 1.50026 0
M  V30 3548 C 338.576 -1.94444 0.147177 0
M  V30 3549 O 337.846 -1.77701 -0.824571 0
M  V30 3550 H 336.426 -0.502727 0.552517 0
M  V30 3551 H 339.088 -0.701606 1.81834 0
M  V30 3552 H 338.184 -2.16871 2.2444 0
M  V30 3553 N 338.485 -1.33259 -0.841409 0
M  V30 3554 C 339.395 -1.25332 -1.98316 0
M  V30 3555 C 340.411 -0.164364 -1.73222 0
M  V30 3556 O 341.587 -0.387486 -1.97637 0
M  V30 3557 C 338.652 -0.990078 -3.32262 0
M  V30 3558 C 337.713 -2.16879 -3.70489 0
M  V30 3559 C 336.946 -1.91801 -4.98044 0
M  V30 3560 O 337.169 -0.867075 -5.63771 0
M  V30 3561 O 336.103 -2.78267 -5.33714 0
M  V30 3562 H 339.929 -2.21344 -2.07944 0
M  V30 3563 H 337.514 -1.1328 -0.974058 0
M  V30 3564 H 339.396 -0.860321 -4.12524 0
M  V30 3565 H 338.071 -0.0602155 -3.23644 0
M  V30 3566 H 336.978 -2.35407 -2.90748 0
M  V30 3567 H 338.311 -3.0819 -3.8377 0
M  V30 3568 N 339.963 1.05934 -1.16686 0
M  V30 3569 C 341.209 1.79065 -0.95203 0
M  V30 3570 C 341.542 1.87147 0.518629 0
M  V30 3571 O 340.817 1.36574 1.38484 0
M  V30 3572 C 341.1 3.23359 -1.58464 0
M  V30 3573 C 340.953 3.23336 -3.12689 0
M  V30 3574 C 342.272 4.21004 -1.28232 0
M  V30 3575 H 339.391 0.65005 -0.34728 0
M  V30 3576 H 342.033 1.23868 -1.44072 0
M  V30 3577 H 340.183 3.70493 -1.16908 0
M  V30 3578 H 341.855 2.84336 -3.6325 0
M  V30 3579 H 340.098 2.61886 -3.4583 0
M  V30 3580 H 340.769 4.25144 -3.52075 0
M  V30 3581 H 343.245 3.8233 -1.64203 0
M  V30 3582 H 342.121 5.20225 -1.75092 0
M  V30 3583 H 342.382 4.41639 -0.201791 0
M  V30 3584 N 341.441 0.965919 1.2453 0
M  V30 3585 C 342.669 0.644385 1.96609 0
M  V30 3586 C 343.084 -0.785823 1.71669 0
M  V30 3587 O 342.441 -1.52703 0.999399 0
M  V30 3588 C 342.492 0.907375 3.49927 0
M  V30 3589 O 342.213 2.28136 3.74013 0
M  V30 3590 C 343.714 0.599784 4.39224 0
M  V30 3591 H 340.934 0.240588 0.626385 0
M  V30 3592 H 343.478 1.29337 1.58405 0
M  V30 3593 H 341.633 0.304631 3.862 0
M  V30 3594 H 342.047 2.36002 4.68405 0
M  V30 3595 H 343.521 0.834263 5.45659 0
M  V30 3596 H 343.998 -0.465921 4.36722 0
M  V30 3597 H 344.604 1.18235 4.08535 0
M  V30 3598 N 342.919 -1.39368 0.735821 0
M  V30 3599 C 344.196 -1.94465 0.210395 0
M  V30 3600 C 344.576 -1.67254 -1.28799 0
M  V30 3601 O 343.924 -1.00123 -2.05396 0
M  V30 3602 C 344.134 -3.4472 0.544897 0
M  V30 3603 C 345.482 -4.21708 0.494689 0
M  V30 3604 O 346.506 -3.52922 0.482136 0
M  V30 3605 O 345.365 -5.44299 0.489947 0
M  V30 3606 H 342.459 -0.826096 0.0386666 0
M  V30 3607 H 345.005 -1.48863 0.814735 0
M  V30 3608 H 343.777 -3.57963 1.58045 0
M  V30 3609 H 343.4 -3.97502 -0.08837 0
M  V30 3610 N 344.397 -0.483516 -1.5 0
M  V30 3611 C 345.36 0.292965 -2.2732 0
M  V30 3612 C 346.36 0.909499 -1.32608 0
M  V30 3613 O 347.55 0.776745 -1.55924 0
M  V30 3614 C 344.682 1.41854 -3.09984 0
M  V30 3615 H 345.875 -0.385289 -2.97415 0
M  V30 3616 H 343.428 -0.237942 -1.54478 0
M  V30 3617 H 344.163 2.13148 -2.44414 0
M  V30 3618 H 343.948 0.982114 -3.79601 0
M  V30 3619 H 345.438 1.96597 -3.68429 0
M  V30 3620 N 345.875 1.56104 -0.216619 0
M  V30 3621 C 347.121 1.98466 0.417033 0
M  V30 3622 C 347.454 1.10403 1.59765 0
M  V30 3623 O 346.729 0.160632 1.93836 0
M  V30 3624 C 347.012 3.49769 0.85637 0
M  V30 3625 C 346.865 4.48606 -0.327546 0
M  V30 3626 C 348.184 4.05339 1.7143 0
M  V30 3627 H 345.303 0.721551 0.150112 0
M  V30 3628 H 347.945 1.87423 -0.311864 0
M  V30 3629 H 346.095 3.5931 1.47745 0
M  V30 3630 H 347.767 4.5108 -0.965618 0
M  V30 3631 H 346.01 4.22682 -0.975805 0
M  V30 3632 H 346.681 5.51995 0.0227149 0
M  V30 3633 H 349.157 3.98712 1.19031 0
M  V30 3634 H 348.033 5.11533 1.99061 0
M  V30 3635 H 348.294 3.51918 2.67593 0
M  V30 3636 N 347.353 -0.0568162 1.57498 0
M  V30 3637 C 348.263 -1.08346 2.08083 0
M  V30 3638 C 349.279 -1.41439 1.01346 0
M  V30 3639 O 350.455 -1.51316 1.32912 0
M  V30 3640 C 347.52 -2.37352 2.52715 0
M  V30 3641 C 346.581 -2.11093 3.73816 0
M  V30 3642 C 345.814 -3.33949 4.1631 0
M  V30 3643 O 346.037 -4.43622 3.58547 0
M  V30 3644 O 344.971 -3.21279 5.08983 0
M  V30 3645 H 348.797 -0.683667 2.95905 0
M  V30 3646 H 346.382 -0.271965 1.46904 0
M  V30 3647 H 348.264 -3.13246 2.81877 0
M  V30 3648 H 346.939 -2.76681 1.68016 0
M  V30 3649 H 345.846 -1.32856 3.49714 0
M  V30 3650 H 347.179 -1.76637 4.59413 0
M  V30 3651 N 348.832 -1.54138 -0.328536 0
M  V30 3652 C 349.795 -1.82462 -1.38709 0
M  V30 3653 C 350.795 -0.696229 -1.44946 0
M  V30 3654 O 351.985 -0.964535 -1.4506 0
M  V30 3655 C 349.117 -1.98018 -2.77492 0
M  V30 3656 H 350.31 -2.77037 -1.14851 0
M  V30 3657 H 347.863 -1.45779 -0.563751 0
M  V30 3658 H 348.598 -1.05637 -3.06613 0
M  V30 3659 H 348.383 -2.80124 -2.74359 0
M  V30 3660 H 349.873 -2.21396 -3.54081 0
M  V30 3661 N 350.31 0.590341 -1.46126 0
M  V30 3662 C 351.726 0.912917 -1.30912 0
M  V30 3663 C 351.926 1.99616 -0.274893 0
M  V30 3664 O 350.982 2.50397 0.325197 0
M  V30 3665 C 352.295 1.3375 -2.69317 0
M  V30 3666 C 353.843 1.45077 -2.77348 0
M  V30 3667 C 354.318 1.90904 -4.16317 0
M  V30 3668 N 355.809 1.9811 -4.18696 0
M  V30 3669 C 356.544 2.34828 -5.23109 0
M  V30 3670 N 356.04 2.70393 -6.37856 0
M  V30 3671 N 357.833 2.35317 -5.10473 0
M  V30 3672 H 349.984 -0.125358 -2.1203 0
M  V30 3673 H 352.247 0.00658481 -0.947977 0
M  V30 3674 H 351.953 0.615614 -3.4627 0
M  V30 3675 H 351.827 2.30058 -2.9892 0
M  V30 3676 H 354.214 2.16353 -2.00687 0
M  V30 3677 H 354.295 0.4704 -2.51438 0
M  V30 3678 H 353.939 1.20209 -4.9347 0
M  V30 3679 H 353.869 2.89886 -4.39629 0
M  V30 3680 H 356.36 1.73146 -3.359 0
M  V30 3681 H 356.673 2.97341 -7.13308 0
M  V30 3682 H 355.018 2.68048 -6.41229 0
M  V30 3683 H 358.209 2.0695 -4.19868 0
M  V30 3684 H 358.382 2.63605 -5.9196 0
M  V30 3685 N 351.788 1.33704 0.83433 0
M  V30 3686 C 353.013 1.28615 1.62705 0
M  V30 3687 C 353.438 -0.139242 1.87584 0
M  V30 3688 O 352.796 -1.09734 1.4432 0
M  V30 3689 C 352.844 2.07139 2.95171 0
M  V30 3690 O 351.948 1.4331 3.86699 0
M  V30 3691 H 351.289 0.44226 0.49528 0
M  V30 3692 H 353.819 1.76335 1.03766 0
M  V30 3693 H 353.829 2.18073 3.44831 0
M  V30 3694 H 352.504 3.10779 2.76386 0
M  V30 3695 H 351.081 1.4105 3.45195 0
M  V30 3696 N 353.266 -1.05314 1.17247 0
M  V30 3697 C 354.196 -2.1498 0.911362 0
M  V30 3698 C 355.177 -1.69471 -0.146169 0
M  V30 3699 O 356.362 -1.942 0.003812 0
M  V30 3700 C 353.492 -3.4472 0.422528 0
M  V30 3701 C 352.446 -4.03789 1.4191 0
M  V30 3702 C 351.772 -5.28858 0.788274 0
M  V30 3703 C 353.072 -4.41418 2.7919 0
M  V30 3704 H 354.766 -2.3708 1.82848 0
M  V30 3705 H 352.312 -1.13938 0.880569 0
M  V30 3706 H 354.265 -4.20787 0.227289 0
M  V30 3707 H 352.989 -3.22269 -0.530123 0
M  V30 3708 H 351.648 -3.2979 1.60106 0
M  V30 3709 H 351.296 -5.02709 -0.171173 0
M  V30 3710 H 350.996 -5.69338 1.45353 0
M  V30 3711 H 352.52 -6.07612 0.603282 0
M  V30 3712 H 353.934 -5.08524 2.64719 0
M  V30 3713 H 352.331 -4.92913 3.42282 0
M  V30 3714 H 353.401 -3.51819 3.33693 0
M  V30 3715 N 354.744 -0.972509 -1.24016 0
M  V30 3716 C 355.992 -0.635776 -1.91839 0
M  V30 3717 C 356.313 0.832312 -1.76345 0
M  V30 3718 O 355.583 1.5946 -1.13795 0
M  V30 3719 H 354.163 -0.232157 -0.710009 0
M  V30 3720 H 356.825 -1.23462 -1.50809 0
M  V30 3721 H 355.921 -0.880545 -2.99421 0
M  V30 3722 N 356.222 1.38976 -0.743202 0
M  V30 3723 C 357.152 2.33171 -0.123873 0
M  V30 3724 C 358.133 1.54336 0.71516 0
M  V30 3725 O 359.318 1.82696 0.658467 0
M  V30 3726 C 356.448 3.38474 0.777978 0
M  V30 3727 C 355.402 4.27979 0.0424758 0
M  V30 3728 C 354.728 5.2405 1.06189 0
M  V30 3729 C 356.028 5.10155 -1.1198 0
M  V30 3730 H 357.722 2.85213 -0.910709 0
M  V30 3731 H 355.268 1.37133 -0.439388 0
M  V30 3732 H 357.221 4.03328 1.22084 0
M  V30 3733 H 355.945 2.84891 1.59702 0
M  V30 3734 H 354.604 3.64616 -0.380853 0
M  V30 3735 H 354.252 4.66758 1.87472 0
M  V30 3736 H 353.952 5.84785 0.574485 0
M  V30 3737 H 355.476 5.9178 1.50428 0
M  V30 3738 H 356.89 5.68307 -0.75499 0
M  V30 3739 H 355.287 5.80073 -1.53738 0
M  V30 3740 H 356.357 4.44504 -1.93764 0
M  V30 3741 N 357.7 0.491464 1.49741 0
M  V30 3742 C 358.648 -0.305837 2.30581 0
M  V30 3743 C 359.642 -0.971642 1.38764 0
M  V30 3744 O 360.848 -0.90042 1.5586 0
M  V30 3745 H 357.223 -0.117482 0.742767 0
M  V30 3746 H 359.194 0.396093 2.95759 0
M  V30 3747 C 357.943 -1.36319 3.19863 0
M  V30 3748 H 357.266 -0.860258 3.90435 0
M  V30 3749 H 358.706 -1.89323 3.79385 0
M  V30 3750 C 357.165 -2.37621 2.38826 0
M  V30 3751 O 357.695 -3.43311 2.08567 0
M  V30 3752 N 355.901 -2.09849 2.01026 0
M  V30 3753 H 355.448 -1.23922 2.25834 0
M  V30 3754 H 355.406 -2.77859 1.47112 0
M  V30 3755 N 359.178 -1.55987 0.224894 0
M  V30 3756 C 360.589 -1.84553 -0.282345 0
M  V30 3757 C 360.94 -1.14634 -1.59227 0
M  V30 3758 O 360.065 -0.417155 -2.12341 0
M  V30 3759 C 360.66 -3.348 -0.519062 0
M  V30 3760 C 359.219 -3.63671 -0.970604 0
M  V30 3761 C 358.366 -2.77277 -0.0355261 0
M  V30 3762 H 361.317 -1.52245 0.448006 0
M  V30 3763 H 361.338 -3.55187 -1.36463 0
M  V30 3764 H 360.85 -3.8566 0.43449 0
M  V30 3765 H 358.951 -3.1827 -1.9374 0
M  V30 3766 H 359.064 -4.71631 -0.842698 0
M  V30 3767 H 357.428 -2.48846 -0.542927 0
M  V30 3768 H 358.211 -3.30937 0.913003 0
M  V30 3769 N 360.656 0.0484629 -1.57525 0
M  V30 3770 C 361.604 1.07359 -2.06341 0
M  V30 3771 C 362.598 1.3865 -0.973269 0
M  V30 3772 O 363.804 1.37783 -1.15827 0
M  V30 3773 H 360.179 0.363662 -0.65822 0
M  V30 3774 H 362.15 0.635916 -2.91545 0
M  V30 3775 C 360.899 2.37198 -2.54229 0
M  V30 3776 H 360.222 2.13977 -3.37719 0
M  V30 3777 H 361.662 3.07319 -2.92115 0
M  V30 3778 C 360.121 3.04805 -1.43511 0
M  V30 3779 O 360.651 3.93848 -0.79034 0
M  V30 3780 N 358.857 2.65811 -1.17444 0
M  V30 3781 H 358.404 1.93488 -1.70059 0
M  V30 3782 H 358.362 3.11366 -0.435737 0
M  V30 3783 N 362.134 1.5431 0.320358 0
M  V30 3784 C 363.084 1.803 1.39556 0
M  V30 3785 C 364.068 0.659166 1.46778 0
M  V30 3786 O 365.26 0.91926 1.51257 0
M  V30 3787 C 362.389 2.03665 2.76361 0
M  V30 3788 C 361.475 3.24178 2.73439 0
M  V30 3789 N 361.866 4.4516 2.40137 0
M  V30 3790 C 360.164 3.25816 3.04565 0
M  V30 3791 C 360.865 5.27109 2.4603 0
M  V30 3792 N 359.841 4.64368 2.82601 0
M  V30 3793 H 363.643 2.71416 1.12742 0
M  V30 3794 H 361.157 1.53548 0.528856 0
M  V30 3795 H 363.154 2.20425 3.53862 0
M  V30 3796 H 361.814 1.13805 3.04103 0
M  V30 3797 H 362.825 4.72104 2.12927 0
M  V30 3798 H 359.502 2.46001 3.37328 0
M  V30 3799 H 360.892 6.33728 2.23246 0
M  V30 3800 N 363.613 -0.582584 1.46437 0
M  V30 3801 C 364.862 -1.337 1.5102 0
M  V30 3802 C 365.175 -1.94891 0.166359 0
M  V30 3803 O 366.381 -2.71351 0.0899954 0
M  V30 3804 C 364.837 -2.42315 2.66104 0
M  V30 3805 C 364.445 -1.87427 4.06909 0
M  V30 3806 C 366.189 -3.19099 2.79958 0
M  V30 3807 C 364.096 -2.93672 5.13333 0
M  V30 3808 H 363.026 -0.502619 0.562041 0
M  V30 3809 H 365.677 -0.621701 1.72647 0
M  V30 3810 H 364.059 -3.16645 2.37807 0
M  V30 3811 H 365.233 -1.19639 4.44998 0
M  V30 3812 H 363.548 -1.2331 3.97723 0
M  V30 3813 H 366.145 -3.9839 3.56636 0
M  V30 3814 H 366.488 -3.71695 1.87479 0
M  V30 3815 H 367.021 -2.51875 3.07902 0
M  V30 3816 H 363.76 -2.45962 6.07604 0
M  V30 3817 H 363.28 -3.59948 4.79789 0
M  V30 3818 H 364.959 -3.5762 5.39182 0
M  V30 3819 N 365.091 -1.34144 -0.827227 0
M  V30 3820 C 366.041 -1.21923 -1.92663 0
M  V30 3821 C 367.025 -0.119294 -1.60457 0
M  V30 3822 O 368.217 -0.348539 -1.73534 0
M  V30 3823 C 365.346 -0.972492 -3.29238 0
M  V30 3824 C 364.432 -2.1154 -3.67576 0
M  V30 3825 N 364.823 -3.36627 -3.77512 0
M  V30 3826 C 363.121 -2.02468 -3.97395 0
M  V30 3827 C 363.822 -4.11658 -4.1099 0
M  V30 3828 N 362.798 -3.40207 -4.23981 0
M  V30 3829 H 366.6 -2.16721 -1.98517 0
M  V30 3830 H 364.114 -1.2632 -1.02064 0
M  V30 3831 H 366.111 -0.865847 -4.0781 0
M  V30 3832 H 364.771 -0.0331509 -3.24683 0
M  V30 3833 H 365.782 -3.71234 -3.61118 0
M  V30 3834 H 362.459 -1.16265 -4.00985 0
M  V30 3835 H 363.849 -5.19657 -4.25918 0
M  V30 3836 N 366.569 1.04691 -1.17803 0
M  V30 3837 C 367.818 1.77176 -0.963931 0
M  V30 3838 C 368.131 1.88888 0.508015 0
M  V30 3839 O 369.337 2.58164 0.840465 0
M  V30 3840 C 367.793 3.18518 -1.67555 0
M  V30 3841 C 367.401 3.14919 -3.18637 0
M  V30 3842 C 369.145 3.95424 -1.54402 0
M  V30 3843 C 367.052 4.51081 -3.82466 0
M  V30 3844 H 365.982 0.664116 -0.357023 0
M  V30 3845 H 368.633 1.17303 -1.4111 0
M  V30 3846 H 367.015 3.78748 -1.15613 0
M  V30 3847 H 368.189 2.64178 -3.77554 0
M  V30 3848 H 366.504 2.51512 -3.31859 0
M  V30 3849 H 369.101 4.96106 -1.99456 0
M  V30 3850 H 369.444 4.13343 -0.495329 0
M  V30 3851 H 369.977 3.41754 -2.0359 0
M  V30 3852 H 366.716 4.38368 -4.87354 0
M  V30 3853 H 366.236 5.01951 -3.28337 0
M  V30 3854 H 367.915 5.2001 -3.84965 0
M  V30 3855 N 368.047 0.979072 1.23499 0
M  V30 3856 C 369.277 0.664237 1.95631 0
M  V30 3857 C 369.685 -0.772653 1.72704 0
M  V30 3858 O 369.028 -1.53141 1.01457 0
M  V30 3859 C 369.09 0.873115 3.48736 0
M  V30 3860 C 368.754 2.29182 3.95379 0
M  V30 3861 C 369.751 3.2704 4.04155 0
M  V30 3862 C 367.436 2.62256 4.28401 0
M  V30 3863 C 369.43 4.56052 4.45304 0
M  V30 3864 C 367.117 3.91491 4.69231 0
M  V30 3865 C 368.115 4.88201 4.77649 0
M  V30 3866 O 367.803 6.15129 5.17563 0
M  V30 3867 H 367.535 0.245915 0.629684 0
M  V30 3868 H 370.089 1.3127 1.57979 0
M  V30 3869 H 368.319 0.167476 3.86337 0
M  V30 3870 H 370.008 0.555642 4.02079 0
M  V30 3871 H 370.774 3.02819 3.78848 0
M  V30 3872 H 366.653 1.87692 4.21061 0
M  V30 3873 H 370.197 5.31538 4.51789 0
M  V30 3874 H 366.094 4.15508 4.93987 0
M  V30 3875 H 366.862 6.18862 5.35679 0
M  V30 3876 N 369.525 -1.3858 0.750561 0
M  V30 3877 C 370.75 -2.04997 0.314812 0
M  V30 3878 C 371.175 -1.56235 -1.04749 0
M  V30 3879 O 370.533 -0.712981 -1.66692 0
M  V30 3880 C 370.581 -3.58961 0.343415 0
M  V30 3881 O 369.685 -4.07025 -0.663628 0
M  V30 3882 H 369.026 -0.649081 0.139962 0
M  V30 3883 H 371.556 -1.77313 1.02084 0
M  V30 3884 H 371.566 -4.07542 0.193233 0
M  V30 3885 H 370.241 -3.93811 1.33738 0
M  V30 3886 H 368.818 -3.6982 -0.478307 0
M  V30 3887 N 371.003 -0.499398 -1.49478 0
M  V30 3888 C 371.966 0.268838 -2.27618 0
M  V30 3889 C 372.966 0.895383 -1.33565 0
M  V30 3890 O 374.156 0.760164 -1.56739 0
M  V30 3891 C 371.288 1.38559 -3.11471 0
M  V30 3892 H 372.481 -0.416812 -2.96989 0
M  V30 3893 H 370.034 -0.254313 -1.54217 0
M  V30 3894 H 370.769 2.10544 -2.46661 0
M  V30 3895 H 370.554 0.941797 -3.80621 0
M  V30 3896 H 372.044 1.92678 -3.70493 0
M  V30 3897 N 372.481 1.55866 -0.233164 0
M  V30 3898 C 373.706 2.03449 0.402906 0
M  V30 3899 C 374.131 1.11166 1.51736 0
M  V30 3900 O 373.489 0.101996 1.81013 0
M  V30 3901 C 373.537 3.49165 0.9009 0
M  V30 3902 O 372.641 3.60019 2.01147 0
M  V30 3903 H 371.982 0.657913 0.0897025 0
M  V30 3904 H 374.512 2.01493 -0.355201 0
M  V30 3905 H 374.522 3.89716 1.2077 0
M  V30 3906 H 373.197 4.15813 0.0852889 0
M  V30 3907 H 371.774 3.3136 1.71042 0
M  V30 3908 N 373.959 -0.0401083 1.57549 0
M  V30 3909 C 375.205 -0.728793 1.89895 0
M  V30 3910 C 375.56 -1.73551 0.830535 0
M  V30 3911 O 374.853 -1.90914 -0.162007 0
M  V30 3912 C 375.047 -1.44902 3.26708 0
M  V30 3913 C 374.876 -0.513568 4.46758 0
M  V30 3914 C 373.646 -0.138698 5.0511 0
M  V30 3915 C 375.844 0.203341 5.13898 0
M  V30 3916 N 373.826 0.799159 6.08676 0
M  V30 3917 C 375.197 0.997246 6.11927 0
M  V30 3918 C 377.252 0.271459 4.97159 0
M  V30 3919 C 375.955 1.85299 6.95023 0
M  V30 3920 C 377.981 1.11429 5.80808 0
M  V30 3921 C 377.343 1.89615 6.78399 0
M  V30 3922 H 373.442 -0.241125 0.743897 0
M  V30 3923 H 376.026 0.0108016 1.94697 0
M  V30 3924 H 374.197 -2.15914 3.22856 0
M  V30 3925 H 375.929 -2.08921 3.46603 0
M  V30 3926 H 372.684 -0.498496 4.70969 0
M  V30 3927 H 373.108 1.26227 6.65128 0
M  V30 3928 H 377.75 -0.318709 4.21597 0
M  V30 3929 H 375.468 2.454 7.69938 0
M  V30 3930 H 379.054 1.17038 5.69906 0
M  V30 3931 H 377.934 2.53779 7.42001 0
M  V30 3932 N 375.437 -1.54477 -0.31217 0
M  V30 3933 C 376.685 -1.72884 -1.04668 0
M  V30 3934 C 377.006 -0.511477 -1.88173 0
M  V30 3935 O 376.276 0.474407 -1.90069 0
M  V30 3936 H 374.856 -0.637461 -0.389425 0
M  V30 3937 H 377.518 -1.91807 -0.345852 0
M  V30 3938 H 376.614 -2.61334 -1.70619 0
M  V30 3939 N 376.915 0.57481 -1.46744 0
M  V30 3940 C 378.326 1.15695 -1.46532 0
M  V30 3941 C 378.677 1.95068 -0.210425 0
M  V30 3942 O 377.802 2.05241 0.685944 0
M  V30 3943 C 378.397 2.1048 -2.65487 0
M  V30 3944 C 376.956 2.64002 -2.68291 0
M  V30 3945 C 376.103 1.40026 -2.39349 0
M  V30 3946 H 379.054 0.362325 -1.54509 0
M  V30 3947 H 379.075 2.94074 -2.41455 0
M  V30 3948 H 378.587 1.52683 -3.56805 0
M  V30 3949 H 376.688 3.25646 -1.81067 0
M  V30 3950 H 376.801 3.06197 -3.68483 0
M  V30 3951 H 375.165 1.70106 -1.89568 0
M  V30 3952 H 375.948 0.840485 -3.32852 0
M  V30 3953 N 378.394 1.34581 0.820102 0
M  V30 3954 C 379.304 1.28471 1.96297 0
M  V30 3955 C 380.32 0.191902 1.72939 0
M  V30 3956 O 381.496 0.418879 1.96996 0
M  V30 3957 C 378.561 1.04281 3.30645 0
M  V30 3958 C 377.622 2.22745 3.66992 0
M  V30 3959 C 376.855 1.997 4.9493 0
M  V30 3960 O 377.078 0.956656 5.6232 0
M  V30 3961 O 376.012 2.86723 5.2922 0
M  V30 3962 H 379.838 2.24624 2.04396 0
M  V30 3963 H 377.423 1.14816 0.955913 0
M  V30 3964 H 379.305 0.925841 4.11104 0
M  V30 3965 H 377.98 0.111697 3.23507 0
M  V30 3966 H 376.887 2.40003 2.86966 0
M  V30 3967 H 378.22 3.14257 3.78819 0
M  V30 3968 N 379.872 -1.04064 1.18357 0
M  V30 3969 C 381.149 -1.74252 0.888581 0
M  V30 3970 C 381.529 -2.02138 -0.60856 0
M  V30 3971 O 380.877 -1.66656 -1.56327 0
M  V30 3972 C 381.087 -3.0277 1.73584 0
M  V30 3973 C 382.435 -3.76506 1.96286 0
M  V30 3974 O 383.459 -3.12668 1.70637 0
M  V30 3975 O 382.318 -4.91243 2.39464 0
M  V30 3976 H 379.412 -0.758271 0.330082 0
M  V30 3977 H 381.958 -1.1013 1.2911 0
M  V30 3978 H 380.73 -2.78299 2.75073 0
M  V30 3979 H 380.353 -3.74631 1.33183 0
M  V30 3980 N 381.35 -0.985608 -1.22978 0
M  V30 3981 C 382.627 -0.573599 -1.87001 0
M  V30 3982 C 383.007 0.949213 -1.88555 0
M  V30 3983 O 382.355 1.82811 -1.37086 0
M  V30 3984 C 382.565 -1.18564 -3.28243 0
M  V30 3985 C 383.913 -1.28163 -4.04796 0
M  V30 3986 O 384.937 -1.13949 -3.37482 0
M  V30 3987 O 383.796 -1.50832 -5.25273 0
M  V30 3988 H 380.89 -0.193868 -0.803955 0
M  V30 3989 H 383.436 -1.08102 -1.30813 0
M  V30 3990 H 382.208 -2.22758 -3.21706 0
M  V30 3991 H 381.831 -0.663363 -3.92027 0
M  V30 3992 N 382.828 1.3818 -0.7579 0
M  V30 3993 C 384.076 1.99624 -0.315361 0
M  V30 3994 C 384.397 1.60464 1.10799 0
M  V30 3995 O 383.667 0.863507 1.75842 0
M  V30 3996 H 382.247 0.73831 -0.113611 0
M  V30 3997 H 384.909 1.68878 -0.972952 0
M  V30 3998 H 384.005 3.09754 -0.381931 0
M  V30 3999 N 384.306 0.507319 1.49211 0
M  V30 4000 C 385.253 -0.267728 2.29242 0
M  V30 4001 C 386.223 -0.954609 1.35928 0
M  V30 4002 O 387.408 -0.960046 1.64887 0
M  V30 4003 C 384.548 -1.32243 3.18756 0
M  V30 4004 C 383.661 -0.64669 4.27132 0
M  V30 4005 C 382.796 -1.68238 5.03855 0
M  V30 4006 C 381.835 -0.98885 6.0406 0
M  V30 4007 N 380.972 -1.96903 6.73924 0
M  V30 4008 H 385.812 0.420968 2.95012 0
M  V30 4009 H 383.349 0.219443 1.45454 0
M  V30 4010 H 385.307 -1.94599 3.69036 0
M  V30 4011 H 383.937 -1.97981 2.54958 0
M  V30 4012 H 382.989 0.0902926 3.80293 0
M  V30 4013 H 384.301 -0.101058 4.98698 0
M  V30 4014 H 383.455 -2.38081 5.58034 0
M  V30 4015 H 382.194 -2.26187 4.32077 0
M  V30 4016 H 381.199 -0.276222 5.49106 0
M  V30 4017 H 382.424 -0.415767 6.77826 0
M  V30 4018 H 380.37 -2.53803 6.04913 0
M  V30 4019 H 380.287 -1.47423 7.41487 0
M  V30 4020 H 381.555 -2.66015 7.32705 0
M  V30 4021 N 385.784 -1.5574 0.241426 0
M  V30 4022 C 387.012 -2.03208 -0.389134 0
M  V30 4023 C 387.427 -1.12082 -1.51931 0
M  V30 4024 O 386.784 -0.134183 -1.82006 0
M  V30 4025 C 386.835 -3.50064 -0.902087 0
M  V30 4026 O 386.556 -4.37717 0.18305 0
M  V30 4027 C 388.057 -4.13268 -1.60389 0
M  V30 4028 H 385.277 -0.664509 -0.0931053 0
M  V30 4029 H 387.821 -2.0124 0.36369 0
M  V30 4030 H 385.976 -3.52583 -1.60511 0
M  V30 4031 H 386.39 -5.24097 -0.205579 0
M  V30 4032 H 387.864 -5.17733 -1.91458 0
M  V30 4033 H 388.341 -3.59434 -2.52397 0
M  V30 4034 H 388.947 -4.14655 -0.945576 0
M  V30 4035 N 387.262 0.0317525 -1.57568 0
M  V30 4036 C 388.508 0.724175 -1.8943 0
M  V30 4037 C 388.841 1.75149 -0.838836 0
M  V30 4038 O 388.116 1.93948 0.146422 0
M  V30 4039 C 388.399 1.39615 -3.31933 0
M  V30 4040 C 388.252 0.382537 -4.4817 0
M  V30 4041 C 389.571 2.33084 -3.73309 0
M  V30 4042 H 386.69 0.261797 -0.688935 0
M  V30 4043 H 389.332 -0.013017 -1.89996 0
M  V30 4044 H 387.482 2.02451 -3.31581 0
M  V30 4045 H 389.154 -0.243689 -4.60656 0
M  V30 4046 H 387.397 -0.29844 -4.32772 0
M  V30 4047 H 388.068 0.891145 -5.44759 0
M  V30 4048 H 390.544 1.80295 -3.7501 0
M  V30 4049 H 389.42 2.77084 -4.73831 0
M  V30 4050 H 389.681 3.19643 -3.05419 0
M  V30 4051 N 388.74 1.54641 0.303973 0
M  V30 4052 C 390.017 1.64455 1.05896 0
M  V30 4053 C 390.397 0.490923 2.05312 0
M  V30 4054 O 389.745 -0.512685 2.22674 0
M  V30 4055 C 389.955 3.02331 1.74347 0
M  V30 4056 C 391.303 3.59045 2.26653 0
M  V30 4057 O 392.327 3.04764 1.84384 0
M  V30 4058 O 391.186 4.54081 3.04093 0
M  V30 4059 H 388.28 0.666729 0.489287 0
M  V30 4060 H 390.826 1.66986 0.302298 0
M  V30 4061 H 389.598 3.77734 1.02142 0
M  V30 4062 H 389.221 3.03565 2.56777 0
M  V30 4063 N 390.218 -0.567019 1.47046 0
M  V30 4064 C 391.466 -1.322 1.52864 0
M  V30 4065 C 391.787 -1.94088 0.188388 0
M  V30 4066 O 391.057 -1.7941 -0.786693 0
M  V30 4067 H 389.637 -0.490894 0.563056 0
M  V30 4068 H 392.299 -0.662879 1.83281 0
M  V30 4069 H 391.395 -2.12062 2.2899 0
M  V30 4070 N 391.696 -1.35014 -0.812953 0
M  V30 4071 C 393.107 -1.25035 -1.38648 0
M  V30 4072 C 393.458 0.119967 -1.95833 0
M  V30 4073 O 392.583 1.02069 -1.90816 0
M  V30 4074 C 393.178 -2.26394 -2.52054 0
M  V30 4075 C 391.737 -2.20175 -3.05287 0
M  V30 4076 C 390.884 -2.12451 -1.78213 0
M  V30 4077 H 393.835 -1.46235 -0.616516 0
M  V30 4078 H 393.856 -1.88672 -3.30429 0
M  V30 4079 H 393.368 -3.26116 -2.10404 0
M  V30 4080 H 391.469 -1.23841 -3.51417 0
M  V30 4081 H 391.582 -3.11863 -3.63701 0
M  V30 4082 H 389.946 -1.58328 -1.9951 0
M  V30 4083 H 390.729 -3.14024 -1.38723 0
M  V30 4084 N 393.175 1.03435 -1.18907 0
M  V30 4085 C 394.138 2.09756 -0.923844 0
M  V30 4086 C 395.138 1.60528 0.093416 0
M  V30 4087 O 396.328 1.73631 -0.140727 0
M  V30 4088 C 393.46 3.38692 -0.387354 0
M  V30 4089 H 394.653 2.34719 -1.86674 0
M  V30 4090 H 392.206 1.19959 -1.00197 0
M  V30 4091 H 392.941 3.19396 0.561845 0
M  V30 4092 H 392.726 3.75742 -1.12074 0
M  V30 4093 H 394.216 4.17016 -0.220694 0
M  V30 4094 N 394.653 0.992116 1.22453 0
M  V30 4095 C 396.069 0.702713 1.43297 0
M  V30 4096 C 396.269 -0.726909 1.87932 0
M  V30 4097 O 395.325 -1.49792 2.0327 0
M  V30 4098 C 396.638 1.70762 2.47509 0
M  V30 4099 C 398.186 1.72298 2.61309 0
M  V30 4100 C 398.661 2.71649 3.68742 0
M  V30 4101 N 400.152 2.70239 3.76199 0
M  V30 4102 C 400.887 3.43778 4.58917 0
M  V30 4103 N 400.383 4.26914 5.45633 0
M  V30 4104 N 402.176 3.32487 4.5322 0
M  V30 4105 H 394.327 1.91543 0.917871 0
M  V30 4106 H 396.59 0.826031 0.465162 0
M  V30 4107 H 396.296 2.73059 2.21657 0
M  V30 4108 H 396.17 1.49985 3.46099 0
M  V30 4109 H 398.557 0.706989 2.86506 0
M  V30 4110 H 398.638 1.97143 1.62997 0
M  V30 4111 H 398.282 3.73397 3.44292 0
M  V30 4112 H 398.212 2.44074 4.66622 0
M  V30 4113 H 400.703 2.09912 3.14237 0
M  V30 4114 H 401.016 4.79855 6.05771 0
M  V30 4115 H 399.361 4.31002 5.45218 0
M  V30 4116 H 402.552 2.6698 3.84499 0
M  V30 4117 H 402.725 3.90058 5.17454 0
M  V30 4118 N 396.131 -1.37776 0.765217 0
M  V30 4119 C 397.061 -2.32945 0.160953 0
M  V30 4120 C 398.042 -1.55454 -0.690516 0
M  V30 4121 O 399.227 -1.83721 -0.629318 0
M  V30 4122 C 396.357 -3.39669 -0.724031 0
M  V30 4123 C 395.311 -4.27992 0.0256173 0
M  V30 4124 C 394.637 -5.25673 -0.978383 0
M  V30 4125 C 395.937 -5.08309 1.20082 0
M  V30 4126 H 397.631 -2.83728 0.955969 0
M  V30 4127 H 395.177 -1.36416 0.461149 0
M  V30 4128 H 397.13 -4.05219 -1.15652 0
M  V30 4129 H 395.854 -2.87396 -1.5515 0
M  V30 4130 H 394.513 -3.63964 0.438812 0
M  V30 4131 H 394.161 -4.69682 -1.80022 0
M  V30 4132 H 393.861 -5.85625 -0.481378 0
M  V30 4133 H 395.385 -5.94098 -1.40995 0
M  V30 4134 H 396.799 -5.67034 0.845307 0
M  V30 4135 H 395.196 -5.77554 1.62947 0
M  V30 4136 H 396.266 -4.41365 2.00811 0
M  V30 4137 N 397.609 -0.515225 -1.4894 0
M  V30 4138 C 398.572 0.244681 -2.2789 0
M  V30 4139 C 399.572 0.881166 -1.34507 0
M  V30 4140 O 400.762 0.743497 -1.57537 0
M  V30 4141 C 397.894 1.35247 -3.12923 0
M  V30 4142 H 399.087 -0.448289 -2.96531 0
M  V30 4143 H 396.64 -0.270656 -1.53939 0
M  V30 4144 H 397.375 2.07916 -2.48881 0
M  V30 4145 H 397.16 0.901374 -3.81599 0
M  V30 4146 H 398.65 1.88737 -3.72516 0
M  V30 4147 N 399.087 1.5561 -0.249682 0
M  V30 4148 C 399.997 2.25143 0.659375 0
M  V30 4149 C 401.013 1.2685 1.19101 0
M  V30 4150 O 402.189 1.59732 1.22669 0
M  V30 4151 C 399.254 2.93945 1.8384 0
M  V30 4152 C 398.315 4.07655 1.34596 0
M  V30 4153 C 397.548 4.73167 2.46878 0
M  V30 4154 O 397.771 4.37768 3.65671 0
M  V30 4155 O 396.705 5.61623 2.16478 0
M  V30 4156 H 400.531 3.03545 0.0968698 0
M  V30 4157 H 398.116 1.49389 -0.018074 0
M  V30 4158 H 399.998 3.37271 2.52638 0
M  V30 4159 H 398.673 2.18481 2.38847 0
M  V30 4160 H 397.58 3.68839 0.625174 0
M  V30 4161 H 398.913 4.84946 0.841941 0
M  V30 4162 N 400.565 -0.0233959 1.57583 0
M  V30 4163 C 401.475 -1.03907 2.10334 0
M  V30 4164 C 402.491 -1.39257 1.04323 0
M  V30 4165 O 403.667 -1.48462 1.36091 0
M  V30 4166 C 400.732 -2.31938 2.57693 0
M  V30 4167 C 399.793 -2.03117 3.78209 0
M  V30 4168 C 399.026 -3.25043 4.233 0
M  V30 4169 O 399.249 -4.35916 3.67876 0
M  V30 4170 O 398.183 -3.10411 5.15683 0
M  V30 4171 H 402.009 -0.620748 2.97288 0
M  V30 4172 H 399.594 -0.240743 1.47448 0
M  V30 4173 H 401.476 -3.07196 2.88458 0
M  V30 4174 H 400.151 -2.73055 1.73847 0
M  V30 4175 H 399.058 -1.25408 3.52454 0
M  V30 4176 H 400.391 -1.66852 4.63056 0
M  V30 4177 N 402.043 -1.548 -0.295768 0
M  V30 4178 C 403.006 -1.85363 -1.34808 0
M  V30 4179 C 404.006 -0.726817 -1.43436 0
M  V30 4180 O 405.196 -0.995088 -1.42981 0
M  V30 4181 C 402.328 -2.03859 -2.73229 0
M  V30 4182 H 403.521 -2.7941 -1.08949 0
M  V30 4183 H 401.074 -1.46942 -0.532702 0
M  V30 4184 H 401.809 -1.12117 -3.04303 0
M  V30 4185 H 401.594 -2.8588 -2.68356 0
M  V30 4186 H 403.084 -2.28857 -3.49305 0
M  V30 4187 N 403.521 0.559213 -1.47345 0
M  V30 4188 C 404.768 1.31648 -1.53867 0
M  V30 4189 C 405.096 1.93468 -0.200104 0
M  V30 4190 O 404.351 1.78295 0.806799 0
M  V30 4191 C 404.65 2.44853 -2.6035 0
M  V30 4192 C 404.316 2.00876 -4.03683 0
M  V30 4193 C 402.978 1.88599 -4.42701 0
M  V30 4194 C 405.33 1.67279 -4.93626 0
M  V30 4195 C 402.658 1.41017 -5.69501 0
M  V30 4196 C 405.01 1.21169 -6.20887 0
M  V30 4197 C 403.674 1.07487 -6.58789 0
M  V30 4198 H 402.944 0.481734 -0.56304 0
M  V30 4199 H 405.591 0.627301 -1.80934 0
M  V30 4200 H 403.896 3.19318 -2.27032 0
M  V30 4201 H 405.593 3.03039 -2.62619 0
M  V30 4202 H 402.183 2.11374 -3.72853 0
M  V30 4203 H 406.367 1.75638 -4.64182 0
M  V30 4204 H 401.623 1.29086 -5.97618 0
M  V30 4205 H 405.797 0.942345 -6.89995 0
M  V30 4206 H 403.424 0.703946 -7.56934 0
M  V30 4207 N 404.999 1.35443 0.805782 0
M  V30 4208 C 406.246 1.28761 1.56291 0
M  V30 4209 C 406.574 -0.137747 1.94012 0
M  V30 4210 O 405.829 -1.1032 1.61642 0
M  V30 4211 C 406.128 2.14045 2.86216 0
M  V30 4212 C 405.794 3.62826 2.67709 0
M  V30 4213 C 404.456 4.0338 2.6237 0
M  V30 4214 C 406.808 4.57227 2.50186 0
M  V30 4215 C 404.136 5.36501 2.37451 0
M  V30 4216 C 406.488 5.90547 2.26797 0
M  V30 4217 C 405.152 6.30245 2.1988 0
M  V30 4218 H 404.422 0.471171 0.571908 0
M  V30 4219 H 407.069 1.67347 0.930974 0
M  V30 4220 H 405.374 1.68342 3.53791 0
M  V30 4221 H 407.071 2.0621 3.43917 0
M  V30 4222 H 403.661 3.30644 2.72713 0
M  V30 4223 H 407.845 4.2678 2.53323 0
M  V30 4224 H 403.101 5.66259 2.30567 0
M  V30 4225 H 407.275 6.63274 2.12228 0
M  V30 4226 H 404.902 7.33328 2.00333 0
M  V30 4227 N 406.477 -1.02803 1.19454 0
M  V30 4228 C 407.893 -1.28473 0.946937 0
M  V30 4229 C 408.093 -1.97881 -0.380202 0
M  V30 4230 O 407.149 -2.26719 -1.11151 0
M  V30 4231 C 408.462 -2.13099 2.12154 0
M  V30 4232 C 410.01 -2.26404 2.16126 0
M  V30 4233 C 410.485 -3.14402 3.33039 0
M  V30 4234 N 411.976 -3.21991 3.32981 0
M  V30 4235 C 412.711 -3.90272 4.20089 0
M  V30 4236 N 412.207 -4.60777 5.17355 0
M  V30 4237 N 414 -3.8668 4.07964 0
M  V30 4238 H 406.151 -0.561665 2.04839 0
M  V30 4239 H 408.414 -0.310438 0.89573 0
M  V30 4240 H 408.12 -1.69422 3.08203 0
M  V30 4241 H 407.994 -3.13813 2.09287 0
M  V30 4242 H 410.381 -2.69311 1.20647 0
M  V30 4243 H 410.462 -1.25237 2.23045 0
M  V30 4244 H 410.106 -2.72204 4.28798 0
M  V30 4245 H 410.036 -4.1563 3.23356 0
M  V30 4246 H 412.527 -2.71778 2.62574 0
M  V30 4247 H 412.84 -5.10513 5.80169 0
M  V30 4248 H 411.185 -4.5964 5.21302 0
M  V30 4249 H 414.376 -3.30739 3.31254 0
M  V30 4250 H 414.549 -4.39621 4.76064 0
M  V30 4251 N 407.956 -0.998596 -1.21925 0
M  V30 4252 C 409.204 -0.676325 -1.90448 0
M  V30 4253 C 409.525 0.794719 -1.78071 0
M  V30 4254 O 408.795 1.5701 -1.17152 0
M  V30 4255 H 407.375 -0.247165 -0.704925 0
M  V30 4256 H 410.037 -1.26633 -1.48156 0
M  V30 4257 H 409.133 -0.943858 -2.97486 0
M  V30 4258 N 409.434 1.37368 -0.772513 0
M  V30 4259 C 410.68 1.99969 -0.337681 0
M  V30 4260 C 411.013 1.61184 1.08321 0
M  V30 4261 O 410.288 0.858395 1.74533 0
M  V30 4262 C 410.571 3.56858 -0.482121 0
M  V30 4263 C 410.424 4.0555 -1.94549 0
M  V30 4264 C 411.743 4.39955 0.113143 0
M  V30 4265 H 408.862 0.726464 -0.124171 0
M  V30 4266 H 411.504 1.63034 -0.975699 0
M  V30 4267 H 409.654 3.88452 0.0610361 0
M  V30 4268 H 411.326 3.84518 -2.54841 0
M  V30 4269 H 409.569 3.57715 -2.45403 0
M  V30 4270 H 410.24 5.14587 -1.9976 0
M  V30 4271 H 412.716 4.14623 -0.35031 0
M  V30 4272 H 411.592 5.48897 -0.0180514 0
M  V30 4273 H 411.853 4.25403 1.20354 0
M  V30 4274 N 410.912 0.523116 1.48665 0
M  V30 4275 C 412.137 -0.0117284 2.07397 0
M  V30 4276 C 412.562 -1.28031 1.37803 0
M  V30 4277 O 411.92 -1.75836 0.441762 0
M  V30 4278 C 411.968 -0.225786 3.59892 0
M  V30 4279 O 411.072 -1.29592 3.91509 0
M  V30 4280 H 410.413 0.0360673 0.66302 0
M  V30 4281 H 412.943 0.729066 1.9117 0
M  V30 4282 H 412.953 -0.450552 4.05505 0
M  V30 4283 H 411.628 0.700944 4.09951 0
M  V30 4284 H 410.205 -1.05436 3.57684 0
M  V30 4285 N 412.39 -1.55475 0.257931 0
M  V30 4286 C 413.322 -2.19192 -0.669881 0
M  V30 4287 C 414.335 -1.17148 -1.1305 0
M  V30 4288 O 415.524 -1.43959 -1.05537 0
M  V30 4289 C 412.624 -2.79016 -1.92363 0
M  V30 4290 C 411.797 -4.06586 -1.61265 0
M  V30 4291 C 410.856 -4.50622 -2.7171 0
M  V30 4292 O 409.882 -5.16765 -2.38627 0
M  V30 4293 N 411.084 -4.19325 -4.01431 0
M  V30 4294 H 413.849 -2.99441 -0.124635 0
M  V30 4295 H 411.41 -1.6171 0.0783311 0
M  V30 4296 H 413.402 -3.05427 -2.65511 0
M  V30 4297 H 411.972 -2.0286 -2.37837 0
M  V30 4298 H 411.192 -3.87646 -0.715811 0
M  V30 4299 H 412.48 -4.89737 -1.37967 0
M  V30 4300 H 411.878 -3.66247 -4.31138 0
M  V30 4301 H 410.435 -4.50547 -4.7101 0
M  V30 4302 N 413.868 0.0150385 -1.57593 0
M  V30 4303 C 415.116 0.701613 -1.8953 0
M  V30 4304 C 415.437 1.75139 -0.857396 0
M  V30 4305 O 414.707 1.95607 0.107194 0
M  V30 4306 H 413.287 0.26213 -0.699498 0
M  V30 4307 H 415.949 -0.0223304 -1.94887 0
M  V30 4308 H 415.045 1.18236 -2.88837 0
M  V30 4309 N 415.346 1.54954 0.287554 0
M  V30 4310 C 416.762 1.46469 0.633964 0
M  V30 4311 C 416.962 0.666865 1.90145 0
M  V30 4312 O 416.018 0.179906 2.51858 0
M  V30 4313 C 417.331 2.90556 0.774454 0
M  V30 4314 C 418.879 3.00681 0.869462 0
M  V30 4315 C 419.354 4.45993 1.04184 0
M  V30 4316 N 420.845 4.4976 1.10772 0
M  V30 4317 C 421.58 5.59393 1.25964 0
M  V30 4318 N 421.076 6.78923 1.37968 0
M  V30 4319 N 422.869 5.47107 1.28959 0
M  V30 4320 H 415.02 2.05288 -0.545041 0
M  V30 4321 H 417.283 0.930305 -0.182308 0
M  V30 4322 H 416.989 3.51594 -0.086207 0
M  V30 4323 H 416.863 3.38743 1.6593 0
M  V30 4324 H 419.25 2.39749 1.7206 0
M  V30 4325 H 419.331 2.55769 -0.0396831 0
M  V30 4326 H 418.975 5.07524 0.195422 0
M  V30 4327 H 418.905 4.88548 1.96542 0
M  V30 4328 H 421.396 3.63651 1.02794 0
M  V30 4329 H 421.709 7.58231 1.49353 0
M  V30 4330 H 420.054 6.81763 1.34999 0
M  V30 4331 H 423.245 4.52668 1.19202 0
M  V30 4332 H 423.418 6.32595 1.40455 0
M  V30 4333 N 416.824 -0.551391 1.4764 0
M  V30 4334 C 418.072 -1.30572 1.54258 0
M  V30 4335 C 418.393 -1.93877 0.208963 0
M  V30 4336 O 417.663 -1.80234 -0.767619 0
M  V30 4337 H 416.243 -0.484894 0.568231 0
M  V30 4338 H 418.905 -0.643402 1.83974 0
M  V30 4339 H 418.001 -2.09621 2.31226 0
M  V30 4340 N 418.302 -1.35869 -0.798587 0
M  V30 4341 C 419.55 -1.29332 -1.55298 0
M  V30 4342 C 419.871 0.129729 -1.94568 0
M  V30 4343 O 419.141 1.06796 -1.6423 0
M  V30 4344 H 417.721 -0.475737 -0.57592 0
M  V30 4345 H 420.383 -1.70062 -0.952093 0
M  V30 4346 H 419.479 -1.91458 -2.46476 0
M  V30 4347 N 419.78 1.02168 -1.19998 0
M  V30 4348 C 420.71 2.12488 -0.96804 0
M  V30 4349 C 421.691 1.69799 0.101185 0
M  V30 4350 O 422.876 1.94121 -0.0552993 0
M  V30 4351 C 420.006 3.43479 -0.513776 0
M  V30 4352 C 418.96 3.99884 -1.52566 0
M  V30 4353 C 418.286 5.26582 -0.928214 0
M  V30 4354 C 419.586 4.33861 -2.90795 0
M  V30 4355 H 421.28 2.32149 -1.89069 0
M  V30 4356 H 418.826 1.11564 -0.910468 0
M  V30 4357 H 420.779 4.20036 -0.338774 0
M  V30 4358 H 419.503 3.23561 0.444493 0
M  V30 4359 H 418.162 3.25429 -1.68794 0
M  V30 4360 H 417.81 5.02986 0.0378289 0
M  V30 4361 H 417.51 5.65284 -1.60397 0
M  V30 4362 H 419.034 6.05799 -0.764167 0
M  V30 4363 H 420.448 5.01327 -2.78109 0
M  V30 4364 H 418.845 4.83664 -3.55231 0
M  V30 4365 H 419.915 3.42848 -3.42904 0
M  V30 4366 N 421.258 1.00505 1.21394 0
M  V30 4367 C 422.506 0.686415 1.90086 0
M  V30 4368 C 422.827 -0.785264 1.7849 0
M  V30 4369 O 422.097 -1.56387 1.17983 0
M  V30 4370 H 420.677 0.2509 0.703604 0
M  V30 4371 H 423.339 1.27417 1.47482 0
M  V30 4372 H 422.435 0.959621 2.96981 0
M  V30 4373 N 422.737 -1.36956 0.779787 0
M  V30 4374 C 423.962 -2.04283 0.358224 0
M  V30 4375 C 424.387 -1.58422 -1.01411 0
M  V30 4376 O 423.745 -0.748179 -1.65142 0
M  V30 4377 C 423.793 -3.58152 0.419479 0
M  V30 4378 O 422.897 -4.08342 -0.577142 0
M  V30 4379 H 422.238 -0.645967 0.153698 0
M  V30 4380 H 424.768 -1.75108 1.05822 0
M  V30 4381 H 424.778 -4.07041 0.279636 0
M  V30 4382 H 423.453 -3.90886 1.42061 0
M  V30 4383 H 422.03 -3.70751 -0.399755 0
M  V30 4384 N 424.215 -0.530993 -1.48385 0
M  V30 4385 C 425.464 0.00474348 -2.01699 0
M  V30 4386 C 425.777 1.35227 -1.41325 0
M  V30 4387 O 426.983 1.97643 -1.86144 0
M  V30 4388 C 425.439 0.0588473 -3.59852 0
M  V30 4389 C 425.047 -1.28385 -4.2921 0
M  V30 4390 C 426.791 0.543358 -4.21008 0
M  V30 4391 C 424.698 -1.19028 -5.79298 0
M  V30 4392 H 423.628 0.00554317 -0.75398 0
M  V30 4393 H 426.279 -0.674924 -1.70637 0
M  V30 4394 H 424.661 0.803612 -3.8776 0
M  V30 4395 H 425.835 -2.04426 -4.12973 0
M  V30 4396 H 424.15 -1.70418 -3.7993 0
M  V30 4397 H 426.747 0.631351 -5.3096 0
M  V30 4398 H 427.09 1.54937 -3.86394 0
M  V30 4399 H 427.623 -0.145754 -3.97533 0
M  V30 4400 H 424.362 -2.17147 -6.18488 0
M  V30 4401 H 423.882 -0.471246 -5.97946 0
M  V30 4402 H 425.561 -0.881365 -6.40969 0
M  V30 4403 N 425.693 1.55336 -0.266172 0
M  V30 4404 C 426.94 1.99397 0.353158 0
M  V30 4405 C 427.268 1.15451 1.56529 0
M  V30 4406 O 426.523 0.209974 1.9457 0
M  V30 4407 C 426.822 3.48606 0.787957 0
M  V30 4408 C 426.488 4.49773 -0.318541 0
M  V30 4409 C 425.15 4.77158 -0.62239 0
M  V30 4410 C 427.502 5.10212 -1.06459 0
M  V30 4411 C 424.83 5.62251 -1.67602 0
M  V30 4412 C 427.182 5.96449 -2.10788 0
M  V30 4413 C 425.846 6.22158 -2.41817 0
M  V30 4414 H 425.116 0.729644 0.12923 0
M  V30 4415 H 427.763 1.87732 -0.37802 0
M  V30 4416 H 426.068 3.57701 1.59866 0
M  V30 4417 H 427.765 3.80098 1.27775 0
M  V30 4418 H 424.355 4.2854 -0.0715925 0
M  V30 4419 H 428.539 4.89086 -0.843098 0
M  V30 4420 H 423.795 5.80419 -1.92155 0
M  V30 4421 H 427.969 6.42317 -2.69076 0
M  V30 4422 H 425.596 6.87888 -3.23596 0
M  V30 4423 N 427.171 -0.0066808 1.57599 0
M  V30 4424 C 428.417 -0.693947 1.90558 0
M  V30 4425 C 428.75 -1.73792 0.866594 0
M  V30 4426 O 428.025 -1.94156 -0.115548 0
M  V30 4427 C 428.308 -1.34317 3.34112 0
M  V30 4428 C 428.161 -0.311189 4.48722 0
M  V30 4429 C 429.48 -2.27116 3.7697 0
M  V30 4430 H 426.599 -0.250803 0.693013 0
M  V30 4431 H 429.241 0.043242 1.89951 0
M  V30 4432 H 427.391 -1.9715 3.3476 0
M  V30 4433 H 429.063 0.316944 4.6021 0
M  V30 4434 H 427.306 0.367253 4.32243 0
M  V30 4435 H 427.977 -0.804366 5.46108 0
M  V30 4436 H 430.453 -1.74306 3.77831 0
M  V30 4437 H 429.329 -2.69511 4.78179 0
M  V30 4438 H 429.59 -3.14743 3.10466 0
M  V30 4439 N 428.649 -1.55105 -0.279332 0
M  V30 4440 C 429.895 -1.76597 -1.00921 0
M  V30 4441 C 430.25 -0.556831 -1.84166 0
M  V30 4442 O 429.543 0.450573 -1.86227 0
M  V30 4443 C 429.737 -3.0086 -1.92919 0
M  V30 4444 C 429.566 -4.33744 -1.18728 0
M  V30 4445 C 428.336 -4.9712 -0.905545 0
M  V30 4446 C 430.534 -5.11009 -0.580857 0
M  V30 4447 N 428.516 -6.13749 -0.136169 0
M  V30 4448 C 429.887 -6.19976 0.0546661 0
M  V30 4449 C 431.942 -4.95502 -0.488067 0
M  V30 4450 C 430.645 -7.15123 0.774028 0
M  V30 4451 C 432.671 -5.90999 0.217688 0
M  V30 4452 C 432.033 -6.9935 0.841975 0
M  V30 4453 H 428.132 -0.698553 -0.351493 0
M  V30 4454 H 430.716 -1.92595 -0.285531 0
M  V30 4455 H 428.887 -2.86249 -2.62519 0
M  V30 4456 H 430.619 -3.10784 -2.59221 0
M  V30 4457 H 427.374 -4.57903 -1.20921 0
M  V30 4458 H 427.798 -6.7659 0.235665 0
M  V30 4459 H 432.44 -4.11841 -0.956406 0
M  V30 4460 H 430.158 -7.9831 1.25407 0
M  V30 4461 H 433.744 -5.81078 0.289717 0
M  V30 4462 H 432.624 -7.71973 1.37939 0
M  V30 4463 N 430.127 0.543554 -1.4793 0
M  V30 4464 C 431.09 1.63156 -1.60975 0
M  V30 4465 C 432.09 1.53346 -0.483899 0
M  V30 4466 O 433.28 1.5726 -0.749339 0
M  V30 4467 C 430.412 3.02743 -1.56716 0
M  V30 4468 H 431.605 1.52934 -2.57975 0
M  V30 4469 H 429.158 0.764557 -1.36324 0
M  V30 4470 H 429.893 3.18484 -0.611418 0
M  V30 4471 H 429.678 3.11272 -2.38438 0
M  V30 4472 H 431.168 3.81871 -1.6901 0
M  V30 4473 N 431.605 1.3629 0.791371 0
M  V30 4474 C 432.83 1.33726 1.58531 0
M  V30 4475 C 433.255 -0.0794933 1.87932 0
M  V30 4476 O 432.613 -1.05087 1.47738 0
M  V30 4477 C 432.661 2.16425 2.88431 0
M  V30 4478 O 431.765 1.5554 3.81944 0
M  V30 4479 H 431.106 0.457793 0.480959 0
M  V30 4480 H 433.636 1.79547 0.981031 0
M  V30 4481 H 433.646 2.28933 3.37718 0
M  V30 4482 H 432.321 3.19415 2.66359 0
M  V30 4483 H 430.898 1.51961 3.40532 0
M  V30 4484 N 433.083 -1.0153 1.20538 0
M  V30 4485 C 434.331 -1.74803 1.01432 0
M  V30 4486 C 434.652 -1.8963 -0.454456 0
M  V30 4487 O 433.922 -1.43975 -1.32846 0
M  V30 4488 H 432.502 -0.647598 0.372324 0
M  V30 4489 H 435.164 -1.22402 1.5167 0
M  V30 4490 H 434.26 -2.75114 1.47373 0
M  V30 4491 N 434.561 -1.01147 -1.20859 0
M  V30 4492 C 435.509 -0.57059 -2.25493 0
M  V30 4493 C 436.503 0.388109 -1.64894 0
M  V30 4494 O 437.709 0.258592 -1.78133 0
M  V30 4495 H 434.084 -0.166191 -0.733406 0
M  V30 4496 H 436.055 -1.46411 -2.60012 0
M  V30 4497 C 434.804 0.0805241 -3.47607 0
M  V30 4498 H 434.127 -0.648156 -3.94511 0
M  V30 4499 H 435.567 0.352197 -4.22535 0
M  V30 4500 C 434.026 1.32175 -3.09889 0
M  V30 4501 O 434.556 2.41553 -3.20959 0
M  V30 4502 N 432.762 1.20392 -2.64488 0
M  V30 4503 H 432.309 0.313905 -2.5568 0
M  V30 4504 H 432.267 2.03541 -2.39621 0
M  V30 4505 N 436.039 1.36541 -0.78704 0
M  V30 4506 C 437.287 1.98911 -0.357633 0
M  V30 4507 C 437.608 1.62778 1.07371 0
M  V30 4508 O 436.878 0.900612 1.73971 0
M  V30 4509 H 435.458 0.735734 -0.129246 0
M  V30 4510 H 438.12 1.66776 -1.00855 0
M  V30 4511 H 437.216 3.08874 -0.447549 0
M  V30 4512 N 437.518 0.538854 1.48102 0
M  V30 4513 C 438.766 0.00798599 2.02098 0
M  V30 4514 C 439.087 -1.33922 1.41739 0
M  V30 4515 O 438.357 -1.86932 0.585934 0
M  V30 4516 H 436.937 -3.62179e-05 0.747 0
M  V30 4517 H 439.599 0.7047 1.81714 0
M  V30 4518 H 438.695 -0.0937672 3.11959 0
M  V30 4519 N 438.996 -1.55193 0.274407 0
M  V30 4520 C 440.412 -1.59401 -0.0797543 0
M  V30 4521 C 440.612 -1.29162 -1.54659 0
M  V30 4522 O 439.668 -1.05215 -2.29534 0
M  V30 4523 C 440.981 -2.99257 0.294238 0
M  V30 4524 C 442.529 -3.12072 0.240796 0
M  V30 4525 C 443.004 -4.54194 0.589218 0
M  V30 4526 N 444.495 -4.60033 0.540744 0
M  V30 4527 C 445.23 -5.68027 0.783147 0
M  V30 4528 N 444.726 -6.8417 1.09013 0
M  V30 4529 N 446.519 -5.57572 0.711993 0
M  V30 4530 H 438.67 -1.73113 1.23067 0
M  V30 4531 H 440.933 -0.807197 0.497129 0
M  V30 4532 H 440.639 -3.26217 1.31435 0
M  V30 4533 H 440.513 -3.75427 -0.365281 0
M  V30 4534 H 442.9 -2.84877 -0.770024 0
M  V30 4535 H 442.981 -2.38117 0.934563 0
M  V30 4536 H 442.625 -4.82115 1.59772 0
M  V30 4537 H 442.555 -5.26448 -0.126331 0
M  V30 4538 H 445.046 -3.76599 0.313327 0
M  V30 4539 H 445.359 -7.6243 1.26178 0
M  V30 4540 H 443.704 -6.85787 1.12789 0
M  V30 4541 H 446.895 -4.65714 0.472014 0
M  V30 4542 H 447.068 -6.41659 0.90429 0
M  V30 4543 N 440.474 -0.00167713 -1.576 0
M  V30 4544 C 441.384 1.00548 -2.1196 0
M  V30 4545 C 442.4 1.3758 -1.06526 0
M  V30 4546 O 443.576 1.46278 -1.38436 0
M  V30 4547 C 440.641 2.27809 -2.6135 0
M  V30 4548 C 439.702 1.97074 -3.81393 0
M  V30 4549 C 438.935 3.18267 -4.28417 0
M  V30 4550 O 439.158 4.30009 -3.74765 0
M  V30 4551 O 438.092 3.02167 -5.20556 0
M  V30 4552 H 441.918 0.573373 -2.98238 0
M  V30 4553 H 439.503 0.217255 -1.47812 0
M  V30 4554 H 441.385 3.02568 -2.93309 0
M  V30 4555 H 440.06 2.70254 -1.78169 0
M  V30 4556 H 438.967 1.19785 -3.54404 0
M  V30 4557 H 440.3 1.59464 -4.65652 0
M  V30 4558 N 441.952 1.55251 0.271103 0
M  V30 4559 C 442.902 1.84649 1.33749 0
M  V30 4560 C 443.886 0.705529 1.44607 0
M  V30 4561 O 445.078 0.966916 1.48256 0
M  V30 4562 C 442.207 2.12354 2.69742 0
M  V30 4563 C 441.293 3.32714 2.62988 0
M  V30 4564 N 441.684 4.52575 2.25853 0
M  V30 4565 C 439.982 3.35341 2.94045 0
M  V30 4566 C 440.683 5.34669 2.29136 0
M  V30 4567 N 439.659 4.73123 2.67685 0
M  V30 4568 H 443.461 2.74865 1.0405 0
M  V30 4569 H 440.975 1.55152 0.479738 0
M  V30 4570 H 442.972 2.31572 3.4667 0
M  V30 4571 H 441.632 1.23422 3.00328 0
M  V30 4572 H 442.643 4.78639 1.978 0
M  V30 4573 H 439.32 2.56608 3.2933 0
M  V30 4574 H 440.71 6.40509 2.02971 0
M  V30 4575 N 443.43 -0.535701 1.48216 0
M  V30 4576 C 444.707 -1.29683 1.46429 0
M  V30 4577 C 445.087 -2.10391 0.172852 0
M  V30 4578 O 444.435 -2.12282 -0.845488 0
M  V30 4579 C 444.645 -2.18313 2.72287 0
M  V30 4580 C 445.993 -2.78639 3.20383 0
M  V30 4581 O 447.017 -2.28604 2.73164 0
M  V30 4582 O 445.876 -3.69636 4.02531 0
M  V30 4583 H 442.97 -0.585026 0.584529 0
M  V30 4584 H 445.516 -0.552827 1.60443 0
M  V30 4585 H 444.288 -1.58421 3.57797 0
M  V30 4586 H 443.911 -2.99971 2.60966 0
M  V30 4587 N 444.908 -1.36708 -0.784132 0
M  V30 4588 C 446.133 -1.34565 -1.5782 0
M  V30 4589 C 446.558 0.0695257 -1.87971 0
M  V30 4590 O 445.916 1.04302 -1.48293 0
M  V30 4591 C 445.964 -2.17952 -2.87279 0
M  V30 4592 O 445.068 -1.57563 -3.81114 0
M  V30 4593 H 444.409 -0.460337 -0.478524 0
M  V30 4594 H 446.939 -1.80064 -0.971495 0
M  V30 4595 H 446.949 -2.30721 -3.365 0
M  V30 4596 H 445.624 -3.20823 -2.64661 0
M  V30 4597 H 444.201 -1.53764 -3.39722 0
M  V30 4598 N 446.386 1.0089 -1.21074 0
M  V30 4599 C 447.626 1.76142 -1.03699 0
M  V30 4600 C 447.99 1.87292 0.422587 0
M  V30 4601 O 449.191 2.59068 0.716752 0
M  V30 4602 C 447.462 3.13805 -1.7106 0
M  V30 4603 S 449.021 4.04996 -1.68889 0
M  V30 4604 H 445.839 0.606113 -0.371683 0
M  V30 4605 H 448.441 1.20744 -1.53756 0
M  V30 4606 H 447.145 3.0332 -2.76451 0
M  V30 4607 H 446.676 3.74276 -1.21166 0
M  V30 4608 H 448.691 4.90842 -0.727211 0
M  V30 4609 N 447.864 1.01787 1.20321 0
M  V30 4610 C 448.812 0.58254 2.25187 0
M  V30 4611 C 449.806 -0.379359 1.65098 0
M  V30 4612 O 451.012 -0.249142 1.78267 0
M  V30 4613 H 447.387 0.170078 0.732514 0
M  V30 4614 H 449.358 1.47788 2.59232 0
M  V30 4615 C 448.107 -0.0620885 3.47645 0
M  V30 4616 H 447.43 0.669069 3.94162 0
M  V30 4617 H 448.87 -0.329784 4.22716 0
M  V30 4618 C 447.329 -1.3053 3.10586 0
M  V30 4619 O 447.859 -2.39848 3.22236 0
M  V30 4620 N 446.065 -1.18988 2.65123 0
M  V30 4621 H 445.612 -0.300341 2.55843 0
M  V30 4622 H 445.57 -2.02267 2.40698 0
M  V30 4623 N 449.342 -1.36122 0.79427 0
M  V30 4624 C 450.582 -2.00942 0.374376 0
M  V30 4625 C 450.946 -1.61666 -1.03577 0
M  V30 4626 O 452.147 -2.19113 -1.55701 0
M  V30 4627 C 450.418 -3.53323 0.538327 0
M  V30 4628 S 451.977 -4.38311 0.20703 0
M  V30 4629 H 448.795 -0.696515 0.142785 0
M  V30 4630 H 451.397 -1.65929 1.03382 0
M  V30 4631 H 450.101 -3.79395 1.56484 0
M  V30 4632 H 449.632 -3.93162 -0.136882 0
M  V30 4633 H 451.647 -4.8623 -0.989695 0
M  V30 4634 N 450.82 -0.546701 -1.47814 0
M  V30 4635 C 452.097 0.0464413 -1.95545 0
M  V30 4636 C 452.477 1.4962 -1.48919 0
M  V30 4637 O 451.825 2.16752 -0.723232 0
M  V30 4638 C 452.035 -0.0881298 -3.48889 0
M  V30 4639 C 453.383 0.0626059 -4.24554 0
M  V30 4640 O 454.407 -0.0151555 -3.56197 0
M  V30 4641 O 453.266 0.228071 -5.46024 0
M  V30 4642 H 450.36 0.0700004 -0.824032 0
M  V30 4643 H 452.906 -0.612482 -1.58262 0
M  V30 4644 H 451.678 -1.09737 -3.75597 0
M  V30 4645 H 451.301 0.608886 -3.9291 0
M  V30 4646 N 452.299 1.55045 -0.282633 0
M  V30 4647 C 453.547 1.99365 0.331334 0
M  V30 4648 C 453.868 1.1725 1.55812 0
M  V30 4649 O 453.138 0.263871 1.94115 0
M  V30 4650 H 451.718 0.736397 0.125414 0
M  V30 4651 H 454.38 1.90964 -0.389711 0
M  V30 4652 H 453.476 3.0596 0.616036 0
M  V30 4653 N 453.777 0.010035 1.57597 0
M  V30 4654 C 455.007 -0.682422 1.95004 0
M  V30 4655 C 455.415 -1.67278 0.884014 0
M  V30 4656 O 454.758 -1.83129 -0.144672 0
M  V30 4657 C 454.82 -1.46141 3.28456 0
M  V30 4658 C 454.484 -0.631523 4.52615 0
M  V30 4659 C 455.481 0.0850905 5.1983 0
M  V30 4660 C 453.166 -0.574539 4.99003 0
M  V30 4661 C 455.16 0.847566 6.3174 0
M  V30 4662 C 452.847 0.191655 6.10799 0
M  V30 4663 C 453.845 0.901432 6.77025 0
M  V30 4664 O 453.533 1.65511 7.86677 0
M  V30 4665 H 453.265 -0.194361 0.647456 0
M  V30 4666 H 455.819 0.060312 2.05311 0
M  V30 4667 H 454.049 -2.24885 3.14585 0
M  V30 4668 H 455.738 -2.04016 3.50902 0
M  V30 4669 H 456.504 0.0502812 4.84974 0
M  V30 4670 H 452.383 -1.11654 4.47274 0
M  V30 4671 H 455.927 1.4021 6.83364 0
M  V30 4672 H 451.824 0.228249 6.45096 0
M  V30 4673 H 452.592 1.57287 8.03245 0
M  V30 4674 N 455.255 -1.55392 -0.262866 0
M  V30 4675 C 456.483 -1.80513 -1.01108 0
M  V30 4676 C 456.898 -0.583533 -1.79556 0
M  V30 4677 O 456.255 0.447585 -1.76926 0
M  V30 4678 C 456.306 -3.03648 -1.96164 0
M  V30 4679 O 456.027 -4.2109 -1.20893 0
M  V30 4680 C 457.528 -3.41448 -2.82715 0
M  V30 4681 H 454.748 -0.601079 -0.298236 0
M  V30 4682 H 457.292 -2.02425 -0.290582 0
M  V30 4683 H 455.447 -2.83832 -2.63663 0
M  V30 4684 H 455.861 -4.90771 -1.85051 0
M  V30 4685 H 457.335 -4.30751 -3.45192 0
M  V30 4686 H 457.812 -2.61308 -3.53008 0
M  V30 4687 H 458.418 -3.63559 -2.20693 0
M  V30 4688 N 456.733 0.527833 -1.48498 0
M  V30 4689 C 457.681 1.65313 -1.63628 0
M  V30 4690 C 458.675 1.6177 -0.502676 0
M  V30 4691 O 459.881 1.66601 -0.681469 0
M  V30 4692 H 456.256 0.547518 -0.515488 0
M  V30 4693 H 458.227 1.49696 -2.58135 0
M  V30 4694 C 456.976 3.03576 -1.6952 0
M  V30 4695 H 456.299 3.06997 -2.56111 0
M  V30 4696 H 457.739 3.81923 -1.84149 0
M  V30 4697 C 456.198 3.34089 -0.43432 0
M  V30 4698 O 456.728 3.99151 0.451852 0
M  V30 4699 N 454.934 2.88991 -0.305368 0
M  V30 4700 H 454.481 2.36222 -1.02747 0
M  V30 4701 H 454.439 3.09776 0.537249 0
M  V30 4702 N 458.211 1.37122 0.776871 0
M  V30 4703 C 459.436 1.354 1.57104 0
M  V30 4704 C 459.861 -0.0595562 1.88006 0
M  V30 4705 O 459.219 -1.03514 1.48844 0
M  V30 4706 C 459.267 2.19472 2.8612 0
M  V30 4707 O 458.371 1.59582 3.80273 0
M  V30 4708 H 457.712 0.462869 0.476076 0
M  V30 4709 H 460.242 1.80577 0.961932 0
M  V30 4710 H 460.252 2.32502 3.35271 0
M  V30 4711 H 458.927 3.22222 2.62956 0
M  V30 4712 H 457.504 1.55564 3.38902 0
M  V30 4713 N 459.689 -1.00246 1.21608 0
M  V30 4714 C 460.938 -1.73476 1.02902 0
M  V30 4715 C 461.251 -1.90643 -0.437561 0
M  V30 4716 O 462.457 -2.61105 -0.74407 0
M  V30 4717 C 460.913 -3.12079 1.79261 0
M  V30 4718 C 460.521 -3.02877 3.30106 0
M  V30 4719 C 462.265 -3.89421 1.68972 0
M  V30 4720 C 460.172 -4.36575 3.98944 0
M  V30 4721 H 459.102 -0.650408 0.381425 0
M  V30 4722 H 461.753 -1.11985 1.45367 0
M  V30 4723 H 460.135 -3.74196 1.2959 0
M  V30 4724 H 461.309 -2.49983 3.87098 0
M  V30 4725 H 459.624 -2.39022 3.40965 0
M  V30 4726 H 462.221 -4.88362 2.17731 0
M  V30 4727 H 462.564 -4.1122 0.648397 0
M  V30 4728 H 463.097 -3.33963 2.16133 0
M  V30 4729 H 459.836 -4.19978 5.03288 0
M  V30 4730 H 459.356 -4.8942 3.4674 0
M  V30 4731 H 461.035 -5.05364 4.04 0
M  V30 4732 N 461.167 -1.02423 -1.1978 0
M  V30 4733 C 462.397 -0.736387 -1.93031 0
M  V30 4734 C 462.805 0.708023 -1.75453 0
M  V30 4735 O 462.148 1.4927 -1.07071 0
M  V30 4736 C 462.21 -1.00194 -3.45255 0
M  V30 4737 C 461.874 -2.43698 -3.86601 0
M  V30 4738 C 462.871 -3.41814 -3.91738 0
M  V30 4739 C 460.556 -2.77975 -4.18372 0
M  V30 4740 C 462.55 -4.72265 -4.28071 0
M  V30 4741 C 460.237 -4.08636 -4.54378 0
M  V30 4742 C 461.235 -5.05592 -4.59201 0
M  V30 4743 O 460.923 -6.33914 -4.94376 0
M  V30 4744 H 460.655 -0.269116 -0.620123 0
M  V30 4745 H 463.209 -1.37043 -1.52998 0
M  V30 4746 H 461.439 -0.310747 -3.85449 0
M  V30 4747 H 463.128 -0.704488 -3.9974 0
M  V30 4748 H 463.894 -3.16671 -3.67348 0
M  V30 4749 H 459.773 -2.0319 -4.13805 0
M  V30 4750 H 463.317 -5.4794 -4.3175 0
M  V30 4751 H 459.214 -4.33556 -4.78226 0
M  V30 4752 H 459.982 -6.38317 -5.12341 0
M  V30 4753 N 462.645 1.35699 -0.801477 0
M  V30 4754 C 463.873 2.03157 -0.391768 0
M  V30 4755 C 464.288 1.60412 0.995668 0
M  V30 4756 O 463.645 0.799228 1.64069 0
M  V30 4757 C 463.696 3.58566 -0.459671 0
M  V30 4758 O 463.417 3.99756 -1.7924 0
M  V30 4759 C 464.918 4.4328 -0.0421205 0
M  V30 4760 H 462.138 0.651688 -0.159825 0
M  V30 4761 H 464.682 1.73426 -1.08368 0
M  V30 4762 H 462.837 3.86963 0.183939 0
M  V30 4763 H 463.251 4.94387 -1.75162 0
M  V30 4764 H 464.725 5.51821 -0.140754 0
M  V30 4765 H 465.202 4.27383 1.01196 0
M  V30 4766 H 465.808 4.20168 -0.658687 0
M  V30 4767 N 464.123 0.554532 1.47522 0
M  V30 4768 C 465.053 -0.182974 2.32782 0
M  V30 4769 C 466.034 -0.911377 1.43624 0
M  V30 4770 O 467.219 -0.892366 1.72483 0
M  V30 4771 C 464.349 -1.21513 3.25349 0
M  V30 4772 C 463.303 -0.603355 4.23726 0
M  V30 4773 C 462.629 -1.73995 5.05598 0
M  V30 4774 C 463.929 0.441121 5.20434 0
M  V30 4775 H 465.623 0.52882 2.94693 0
M  V30 4776 H 463.169 0.255759 1.41711 0
M  V30 4777 H 465.122 -1.73922 3.83835 0
M  V30 4778 H 463.846 -1.95683 2.61487 0
M  V30 4779 H 462.505 -0.10059 3.66462 0
M  V30 4780 H 462.153 -2.47063 4.38143 0
M  V30 4781 H 461.853 -1.3364 5.72201 0
M  V30 4782 H 463.377 -2.26735 5.66942 0
M  V30 4783 H 464.791 0.00319931 5.733 0
M  V30 4784 H 463.188 0.763402 5.95224 0
M  V30 4785 H 464.258 1.33799 4.66075 0
M  V30 4786 N 465.601 -1.54893 0.290851 0
M  V30 4787 C 466.826 -2.04804 -0.32712 0
M  V30 4788 C 467.251 -1.16721 -1.47506 0
M  V30 4789 O 466.609 -0.169107 -1.8051 0
M  V30 4790 C 466.657 -3.52268 -0.770689 0
M  V30 4791 O 465.761 -3.67236 -1.87647 0
M  V30 4792 H 465.102 -0.660789 -0.0652227 0
M  V30 4793 H 467.632 -2.00036 0.429739 0
M  V30 4794 H 467.642 -3.9393 -1.06223 0
M  V30 4795 H 466.317 -4.15843 0.069096 0
M  V30 4796 H 464.894 -3.37479 -1.58626 0
M  V30 4797 N 467.08 -0.0183926 -1.57589 0
M  V30 4798 C 468.329 0.66185 -1.90532 0
M  V30 4799 C 468.642 1.73904 -0.895366 0
M  V30 4800 O 469.848 2.47518 -1.11566 0
M  V30 4801 C 468.304 1.22844 -3.38286 0
M  V30 4802 C 467.912 0.185103 -4.47617 0
M  V30 4803 C 469.656 1.88581 -3.80312 0
M  V30 4804 C 467.563 0.762723 -5.86461 0
M  V30 4805 H 466.493 0.250972 -0.711006 0
M  V30 4806 H 469.144 -0.0819435 -1.83317 0
M  V30 4807 H 467.526 2.0235 -3.40398 0
M  V30 4808 H 468.7 -0.58671 -4.5705 0
M  V30 4809 H 467.015 -0.372889 -4.14727 0
M  V30 4810 H 469.612 2.32735 -4.81392 0
M  V30 4811 H 469.955 2.72408 -3.14801 0
M  V30 4812 H 470.488 1.15782 -3.80578 0
M  V30 4813 H 467.227 -0.0371713 -6.55489 0
M  V30 4814 H 466.747 1.50327 -5.80656 0
M  V30 4815 H 468.426 1.25576 -6.34697 0
M  V30 4816 N 468.558 1.5553 0.254621 0
M  V30 4817 C 469.783 1.81383 1.00573 0
M  V30 4818 C 470.208 0.594419 1.78461 0
M  V30 4819 O 469.566 -0.456403 1.75461 0
M  V30 4820 C 469.614 3.04892 1.92545 0
M  V30 4821 O 468.718 2.81266 3.01601 0
M  V30 4822 H 468.059 0.598969 0.286587 0
M  V30 4823 H 470.589 2.02703 0.277952 0
M  V30 4824 H 470.599 3.34119 2.34155 0
M  V30 4825 H 469.274 3.93287 1.3527 0
M  V30 4826 H 467.851 2.63185 2.64174 0
M  V30 4827 N 470.036 -0.519951 1.48776 0
M  V30 4828 C 471.261 -1.30447 1.6124 0
M  V30 4829 C 471.686 -1.86055 0.276591 0
M  V30 4830 O 471.044 -1.64915 -0.753183 0
M  V30 4831 C 471.092 -2.42406 2.66967 0
M  V30 4832 O 470.196 -3.45728 2.24824 0
M  V30 4833 H 469.537 -0.385924 0.540332 0
M  V30 4834 H 472.067 -0.624572 1.94834 0
M  V30 4835 H 472.077 -2.88447 2.88552 0
M  V30 4836 H 470.752 -2.01294 3.63941 0
M  V30 4837 H 469.329 -3.05737 2.13494 0
M  V30 4838 N 471.514 -1.37532 -0.769588 0
M  V30 4839 C 472.477 -1.33292 -1.86456 0
M  V30 4840 C 473.477 -0.236537 -1.59051 0
M  V30 4841 O 474.667 -0.492511 -1.67093 0
M  V30 4842 C 471.799 -1.07118 -3.23633 0
M  V30 4843 H 472.992 -2.30692 -1.91628 0
M  V30 4844 H 470.545 -1.22593 -0.969572 0
M  V30 4845 H 471.28 -0.102578 -3.24138 0
M  V30 4846 H 471.065 -1.86479 -3.44917 0
M  V30 4847 H 472.555 -1.06806 -4.03711 0
M  V30 4848 N 472.992 0.995999 -1.22138 0
M  V30 4849 C 474.22 1.77066 -1.07029 0
M  V30 4850 C 474.635 1.8495 0.379357 0
M  V30 4851 O 473.992 1.3174 1.26297 0
M  V30 4852 C 474.043 3.20533 -1.67155 0
M  V30 4853 O 473.764 3.13082 -3.06449 0
M  V30 4854 C 475.265 4.14461 -1.5728 0
M  V30 4855 H 472.485 0.556179 -0.375374 0
M  V30 4856 H 475.029 1.25238 -1.61666 0
M  V30 4857 H 473.184 3.6944 -1.16589 0
M  V30 4858 H 473.598 4.03283 -3.35355 0
M  V30 4859 H 475.072 5.1289 -2.04078 0
M  V30 4860 H 475.549 4.36005 -0.528795 0
M  V30 4861 H 476.155 3.71449 -2.07136 0
M  V30 4862 N 474.47 1.03057 1.19235 0
M  V30 4863 C 475.402 0.570932 2.21975 0
M  V30 4864 C 476.415 -0.354088 1.58903 0
M  V30 4865 O 477.604 -0.150211 1.77867 0
M  V30 4866 C 474.704 -0.187152 3.38383 0
M  V30 4867 C 473.877 0.743231 4.31039 0
M  V30 4868 C 472.936 0.0302493 5.26191 0
M  V30 4869 O 471.962 0.657371 5.65391 0
M  V30 4870 N 473.164 -1.23991 5.67104 0
M  V30 4871 H 475.929 1.45456 2.62036 0
M  V30 4872 H 473.49 0.909807 1.33918 0
M  V30 4873 H 475.482 -0.673715 3.99053 0
M  V30 4874 H 474.052 -0.972205 2.97098 0
M  V30 4875 H 473.272 1.40985 3.68126 0
M  V30 4876 H 474.56 1.3755 4.89854 0
M  V30 4877 H 473.958 -1.77011 5.37293 0
M  V30 4878 H 472.515 -1.67093 6.30018 0
M  V30 4879 N 475.948 -1.35272 0.808662 0
M  V30 4880 C 477.195 -1.98709 0.390003 0
M  V30 4881 C 477.523 -1.64148 -1.04335 0
M  V30 4882 O 476.778 -0.897797 -1.73891 0
M  V30 4883 C 477.077 -3.53556 0.522798 0
M  V30 4884 C 476.743 -4.0799 1.91977 0
M  V30 4885 C 475.405 -4.22568 2.30195 0
M  V30 4886 C 477.757 -4.37442 2.83361 0
M  V30 4887 C 475.085 -4.63918 3.59162 0
M  V30 4888 C 477.437 -4.80232 4.11776 0
M  V30 4889 C 476.101 -4.93016 4.49991 0
M  V30 4890 H 475.371 -0.727127 0.142712 0
M  V30 4891 H 478.018 -1.6145 1.02985 0
M  V30 4892 H 476.323 -3.91287 -0.200494 0
M  V30 4893 H 478.02 -4.00598 0.179608 0
M  V30 4894 H 474.61 -3.97096 1.61284 0
M  V30 4895 H 478.794 -4.25731 2.55083 0
M  V30 4896 H 474.05 -4.72005 3.88615 0
M  V30 4897 H 478.224 -5.01982 4.82687 0
M  V30 4898 H 475.851 -5.24814 5.49976 0
M  V30 4899 N 477.426 -0.562348 -1.47226 0
M  V30 4900 C 478.674 -0.0401371 -2.0206 0
M  V30 4901 C 478.995 1.3165 -1.43852 0
M  V30 4902 O 478.265 1.85976 -0.615599 0
M  V30 4903 H 476.845 -0.0118479 -0.746906 0
M  V30 4904 H 479.507 -0.73352 -1.8057 0
M  V30 4905 H 478.603 0.0441254 -3.12069 0
M  V30 4906 N 478.904 1.54736 -0.299062 0
M  V30 4907 C 479.852 2.24897 0.593658 0
M  V30 4908 C 480.846 1.25429 1.13859 0
M  V30 4909 O 482.052 1.43286 1.08945 0
M  V30 4910 H 478.427 0.72207 0.210046 0
M  V30 4911 H 480.398 2.98393 -0.0206421 0
M  V30 4912 C 479.147 3.00159 1.75499 0
M  V30 4913 H 478.47 3.76501 1.34489 0
M  V30 4914 H 479.91 3.52535 2.35574 0
M  V30 4915 C 478.369 2.07015 2.65794 0
M  V30 4916 O 478.899 1.63692 3.66835 0
M  V30 4917 N 477.105 1.73012 2.33485 0
M  V30 4918 H 476.652 2.08439 1.51364 0
M  V30 4919 H 476.61 1.10965 2.94167 0
M  V30 4920 N 480.382 0.0267497 1.57577 0
M  V30 4921 C 481.628 -0.653371 1.91987 0
M  V30 4922 C 481.961 -1.71915 0.903263 0
M  V30 4923 O 481.236 -1.94358 -0.0743387 0
M  V30 4924 C 481.519 -1.272 3.36886 0
M  V30 4925 C 481.372 -0.215938 4.49281 0
M  V30 4926 C 482.691 -2.19069 3.81703 0
M  V30 4927 H 479.81 -0.236047 0.698177 0
M  V30 4928 H 482.452 0.0835236 1.89816 0
M  V30 4929 H 480.602 -1.90005 3.38866 0
M  V30 4930 H 482.274 0.41449 4.59434 0
M  V30 4931 H 480.517 0.458855 4.31366 0
M  V30 4932 H 481.188 -0.688347 5.47691 0
M  V30 4933 H 483.664 -1.66253 3.81444 0
M  V30 4934 H 482.54 -2.59307 4.83788 0
M  V30 4935 H 482.801 -3.08087 3.17072 0
M  V30 4936 N 481.861 -1.55662 -0.24637 0
M  V30 4937 C 483.272 -1.67953 -0.81539 0
M  V30 4938 C 483.623 -0.624302 -1.86002 0
M  V30 4939 O 482.748 0.229328 -2.15181 0
M  V30 4940 C 483.343 -3.04484 -1.48576 0
M  V30 4941 C 481.902 -3.18713 -2.00248 0
M  V30 4942 C 481.049 -2.6383 -0.853766 0
M  V30 4943 H 484 -1.58685 -0.0221692 0
M  V30 4944 H 484.021 -2.98959 -2.3538 0
M  V30 4945 H 483.533 -3.81264 -0.725222 0
M  V30 4946 H 481.634 -2.46757 -2.79181 0
M  V30 4947 H 481.747 -4.25628 -2.1995 0
M  V30 4948 H 480.111 -2.21667 -1.25442 0
M  V30 4949 H 480.894 -3.43135 -0.106302 0
M  V30 4950 N 483.339 0.512053 -1.4905 0
M  V30 4951 C 484.585 1.26613 -1.59187 0
M  V30 4952 C 484.94 1.90494 -0.270163 0
M  V30 4953 O 484.233 1.77204 0.728648 0
M  V30 4954 C 484.427 2.36446 -2.68008 0
M  V30 4955 C 484.256 1.83334 -4.10632 0
M  V30 4956 C 483.026 1.65131 -4.77556 0
M  V30 4957 C 485.224 1.35153 -4.96224 0
M  V30 4958 N 483.206 1.06833 -6.04533 0
M  V30 4959 C 484.577 0.889186 -6.13591 0
M  V30 4960 C 486.632 1.23623 -4.82309 0
M  V30 4961 C 485.335 0.322953 -7.18575 0
M  V30 4962 C 487.361 0.683978 -5.87431 0
M  V30 4963 C 486.723 0.2318 -7.04018 0
M  V30 4964 H 482.822 0.453678 -0.636946 0
M  V30 4965 H 485.406 0.575217 -1.86009 0
M  V30 4966 H 483.577 3.03012 -2.42978 0
M  V30 4967 H 485.309 3.03485 -2.67729 0
M  V30 4968 H 482.064 1.89178 -4.34176 0
M  V30 4969 H 482.488 0.796425 -6.72299 0
M  V30 4970 H 487.13 1.57184 -3.92496 0
M  V30 4971 H 484.848 -0.024943 -8.08096 0
M  V30 4972 H 488.434 0.597694 -5.78722 0
M  V30 4973 H 487.314 -0.188869 -7.83973 0
M  V30 4974 N 484.817 1.37938 0.762283 0
M  V30 4975 C 486.047 1.36685 1.54922 0
M  V30 4976 C 486.455 -0.0474099 1.89141 0
M  V30 4977 O 485.798 -1.02213 1.52638 0
M  V30 4978 C 485.86 2.14963 2.88152 0
M  V30 4979 C 485.524 3.6385 2.76518 0
M  V30 4980 C 486.521 4.57531 2.46904 0
M  V30 4981 C 484.206 4.07095 2.94243 0
M  V30 4982 C 486.2 5.92436 2.35156 0
M  V30 4983 C 483.887 5.42083 2.82116 0
M  V30 4984 C 484.885 6.34567 2.52614 0
M  V30 4985 O 484.573 7.67073 2.40529 0
M  V30 4986 H 484.305 0.469586 0.486276 0
M  V30 4987 H 486.859 1.82012 0.951876 0
M  V30 4988 H 485.089 1.6434 3.50042 0
M  V30 4989 H 486.778 2.06224 3.49609 0
M  V30 4990 H 487.544 4.25428 2.32886 0
M  V30 4991 H 483.423 3.35462 3.16206 0
M  V30 4992 H 486.967 6.64591 2.12049 0
M  V30 4993 H 482.864 5.73785 2.95704 0
M  V30 4994 H 483.632 7.77499 2.55807 0
M  V30 4995 N 486.295 -0.989507 1.22664 0
M  V30 4996 C 487.52 -1.77031 1.08051 0
M  V30 4997 C 487.945 -1.84535 -0.364483 0
M  V30 4998 O 487.303 -1.3003 -1.2634 0
M  V30 4999 C 487.351 -3.18 1.70024 0
M  V30 5000 O 486.455 -4.01161 0.956216 0
M  V30 5001 H 485.796 -0.545008 0.379292 0
M  V30 5002 H 488.326 -1.24277 1.62531 0
M  V30 5003 H 488.336 -3.68616 1.74888 0
M  V30 5004 H 487.011 -3.11853 2.75174 0
M  V30 5005 H 485.588 -3.59687 0.98384 0
M  V30 5006 N 487.773 -1.03688 -1.18687 0
M  V30 5007 C 488.683 -0.634908 -2.25845 0
M  V30 5008 C 489.699 0.337065 -1.70704 0
M  V30 5009 O 490.875 0.192943 -2.00474 0
M  V30 5010 C 487.94 -0.000180054 -3.467 0
M  V30 5011 C 487.001 -1.02067 -4.1699 0
M  V30 5012 C 486.234 -0.41614 -5.32075 0
M  V30 5013 O 486.457 0.778712 -5.65059 0
M  V30 5014 O 485.391 -1.14296 -5.90948 0
M  V30 5015 H 489.217 -1.52757 -2.62486 0
M  V30 5016 H 486.802 -0.807533 -1.25695 0
M  V30 5017 H 488.684 0.353342 -4.19916 0
M  V30 5018 H 487.359 0.866367 -3.11891 0
M  V30 5019 H 486.266 -1.42592 -3.45859 0
M  V30 5020 H 487.599 -1.85786 -4.5579 0
M  V30 5021 N 489.251 1.34841 -0.815825 0
M  V30 5022 C 490.214 2.27959 -0.238185 0
M  V30 5023 C 491.214 1.49983 0.579816 0
M  V30 5024 O 492.404 1.69617 0.396953 0
M  V30 5025 C 489.536 3.34314 0.666876 0
M  V30 5026 H 490.729 2.80558 -1.05958 0
M  V30 5027 H 488.282 1.44852 -0.587156 0
M  V30 5028 H 489.017 2.86916 1.5116 0
M  V30 5029 H 488.802 3.92014 0.0819106 0
M  V30 5030 H 490.292 4.0379 1.06506 0
M  V30 5031 N 490.729 0.570148 1.46925 0
M  V30 5032 C 491.969 0.0534743 2.0433 0
M  V30 5033 C 492.333 -1.27729 1.4335 0
M  V30 5034 O 493.534 -1.88244 1.91879 0
M  V30 5035 C 491.805 -0.0244296 3.57392 0
M  V30 5036 S 493.364 -0.485351 4.36108 0
M  V30 5037 H 490.182 0.0313908 0.710307 0
M  V30 5038 H 492.784 0.759808 1.80131 0
M  V30 5039 H 491.488 0.948261 3.99295 0
M  V30 5040 H 491.019 -0.753922 3.86108 0
M  V30 5041 H 493.034 -1.74258 4.64595 0
M  V30 5042 N 492.207 -1.54576 0.307264 0
M  V30 5043 C 493.432 -2.05139 -0.305379 0
M  V30 5044 C 493.857 -1.18278 -1.46259 0
M  V30 5045 O 493.215 -0.188243 -1.8032 0
M  V30 5046 C 493.263 -3.53066 -0.733283 0
M  V30 5047 O 492.367 -3.69206 -1.83741 0
M  V30 5048 H 491.708 -0.661444 -0.0582105 0
M  V30 5049 H 494.238 -1.99569 0.450931 0
M  V30 5050 H 494.248 -3.95034 -1.02039 0
M  V30 5051 H 492.923 -4.15746 0.113198 0
M  V30 5052 H 491.5 -3.39143 -1.55037 0
M  V30 5053 N 493.685 -0.035106 -1.57561 0
M  V30 5054 C 494.91 0.655802 -1.96759 0
M  V30 5055 C 495.335 1.64523 -0.911809 0
M  V30 5056 O 494.693 1.80857 0.126673 0
M  V30 5057 C 494.741 1.33326 -3.35047 0
M  V30 5058 O 493.845 2.44866 -3.31835 0
M  V30 5059 H 493.186 0.171807 -0.641388 0
M  V30 5060 H 495.716 -0.0987369 -2.04362 0
M  V30 5061 H 495.726 1.68867 -3.71413 0
M  V30 5062 H 494.401 0.608033 -4.11431 0
M  V30 5063 H 492.978 2.11392 -3.07193 0
M  V30 5064 N 495.163 1.55791 0.238111 0
M  V30 5065 C 496.391 1.82098 0.982233 0
M  V30 5066 C 496.806 0.612025 1.78605 0
M  V30 5067 O 496.163 -0.419381 1.77616 0
M  V30 5068 C 496.214 3.0673 1.91309 0
M  V30 5069 O 495.935 4.2296 1.14179 0
M  V30 5070 C 497.436 3.45903 2.77248 0
M  V30 5071 H 494.656 0.605748 0.288635 0
M  V30 5072 H 497.2 2.02862 0.258341 0
M  V30 5073 H 495.355 2.87991 2.59114 0
M  V30 5074 H 495.769 4.93653 1.7722 0
M  V30 5075 H 497.243 4.36189 3.38295 0
M  V30 5076 H 497.72 2.66891 3.48806 0
M  V30 5077 H 498.326 3.67024 2.14881 0
M  V30 5078 N 496.642 -0.504142 1.49319 0
M  V30 5079 C 497.572 -1.61473 1.68667 0
M  V30 5080 C 498.553 -1.61455 0.535378 0
M  V30 5081 O 499.738 -1.78245 0.770868 0
M  V30 5082 C 496.868 -2.99971 1.75028 0
M  V30 5083 C 495.822 -3.14854 2.89916 0
M  V30 5084 C 495.148 -4.54671 2.81387 0
M  V30 5085 C 496.448 -2.95176 4.30893 0
M  V30 5086 H 498.142 -1.45535 2.61648 0
M  V30 5087 H 495.688 -0.698711 1.25913 0
M  V30 5088 H 497.641 -3.77562 1.8715 0
M  V30 5089 H 496.365 -3.1699 0.786441 0
M  V30 5090 H 495.024 -2.39687 2.77391 0
M  V30 5091 H 494.672 -4.68562 1.82917 0
M  V30 5092 H 494.372 -4.6557 3.58494 0
M  V30 5093 H 495.896 -5.34327 2.95512 0
M  V30 5094 H 497.31 -3.62538 4.44116 0
M  V30 5095 H 495.707 -3.17549 5.09198 0
M  V30 5096 H 496.777 -1.91332 4.45556 0
M  V30 5097 N 498.12 -1.38341 -0.754957 0
M  V30 5098 C 499.083 -1.35262 -1.85032 0
M  V30 5099 C 500.083 -0.253393 -1.58791 0
M  V30 5100 O 501.273 -0.510205 -1.66561 0
M  V30 5101 C 498.405 -1.10544 -3.22479 0
M  V30 5102 H 499.598 -2.32712 -1.8917 0
M  V30 5103 H 497.151 -1.23614 -0.956515 0
M  V30 5104 H 497.886 -0.136952 -3.24011 0
M  V30 5105 H 497.671 -1.90127 -3.4292 0
M  V30 5106 H 499.161 -1.11082 -4.02555 0
M  V30 5107 N 499.598 0.982988 -1.23187 0
M  V30 5108 C 500.826 1.75921 -1.08901 0
M  V30 5109 C 501.241 1.85341 0.359719 0
M  V30 5110 O 500.598 1.33072 1.24892 0
M  V30 5111 C 500.649 3.18742 -1.70545 0
M  V30 5112 O 500.37 3.09814 -3.09753 0
M  V30 5113 C 501.871 4.1277 -1.61667 0
M  V30 5114 H 499.091 0.552166 -0.381252 0
M  V30 5115 H 501.635 1.23516 -1.62985 0
M  V30 5116 H 499.79 3.68182 -1.20501 0
M  V30 5117 H 500.204 3.99703 -3.39614 0
M  V30 5118 H 501.678 5.10697 -2.09506 0
M  V30 5119 H 502.155 4.3542 -0.575009 0
M  V30 5120 H 502.761 3.69232 -2.11064 0
M  V30 5121 N 501.076 1.04316 1.18135 0
M  V30 5122 C 502.304 0.768117 1.92113 0
M  V30 5123 C 502.719 -0.675057 1.76319 0
M  V30 5124 O 502.076 -1.46038 1.09449 0
M  V30 5125 C 502.127 1.12808 3.43448 0
M  V30 5126 O 501.848 2.5146 3.58747 0
M  V30 5127 C 503.349 0.8779 4.3452 0
M  V30 5128 H 500.569 0.279937 0.609817 0
M  V30 5129 H 503.113 1.39149 1.49859 0
M  V30 5130 H 501.268 0.549623 3.83481 0
M  V30 5131 H 501.682 2.65313 4.52448 0
M  V30 5132 H 503.156 1.17959 5.39249 0
M  V30 5133 H 503.633 -0.187239 4.38801 0
M  V30 5134 H 504.239 1.43977 4.00188 0
M  V30 5135 N 502.554 -1.34406 0.822964 0
M  V30 5136 C 503.784 -2.02214 0.423424 0
M  V30 5137 C 504.192 -1.62124 -0.975322 0
M  V30 5138 O 503.535 -0.822452 -1.6426 0
M  V30 5139 C 503.597 -3.56721 0.446107 0
M  V30 5140 C 503.261 -4.20136 1.79819 0
M  V30 5141 C 504.258 -4.4065 2.75904 0
M  V30 5142 C 501.943 -4.56906 2.08669 0
M  V30 5143 C 503.937 -4.9706 3.99012 0
M  V30 5144 C 501.624 -5.13026 3.32036 0
M  V30 5145 C 502.622 -5.33047 4.27024 0
M  V30 5146 O 502.31 -5.87979 5.48211 0
M  V30 5147 H 502.042 -0.654748 0.168169 0
M  V30 5148 H 504.596 -1.72659 1.11257 0
M  V30 5149 H 502.826 -3.85537 -0.299734 0
M  V30 5150 H 504.515 -4.05845 0.0666114 0
M  V30 5151 H 505.281 -4.12607 2.54912 0
M  V30 5152 H 501.16 -4.40626 1.35535 0
M  V30 5153 H 504.704 -5.12603 4.73164 0
M  V30 5154 H 500.601 -5.40498 3.52891 0
M  V30 5155 H 501.369 -6.06413 5.49732 0
M  V30 5156 N 504.032 -0.577932 -1.46621 0
M  V30 5157 C 505.257 -0.0652536 -2.07297 0
M  V30 5158 C 505.682 1.22828 -1.4246 0
M  V30 5159 O 505.04 1.74075 -0.506718 0
M  V30 5160 C 505.088 0.0920589 -3.60482 0
M  V30 5161 O 504.192 1.14972 -3.96049 0
M  V30 5162 H 503.533 -0.06065 -0.661224 0
M  V30 5163 H 506.063 -0.799515 -1.88332 0
M  V30 5164 H 506.073 0.299741 -4.06897 0
M  V30 5165 H 504.748 -0.852612 -4.07067 0
M  V30 5166 H 503.325 0.920879 -3.61351 0
M  V30 5167 N 505.51 1.54411 -0.315457 0
M  V30 5168 C 506.735 2.05299 0.294496 0
M  V30 5169 C 507.16 1.19052 1.4563 0
M  V30 5170 O 506.518 0.197804 1.80218 0
M  V30 5171 C 506.566 3.5345 0.714549 0
M  V30 5172 O 505.67 3.70175 1.81781 0
M  V30 5173 H 505.011 0.661743 0.0547019 0
M  V30 5174 H 507.541 1.99327 -0.461508 0
M  V30 5175 H 507.551 3.9557 0.999426 0
M  V30 5176 H 506.226 4.1568 -0.135244 0
M  V30 5177 H 504.803 3.3996 1.53236 0
M  V30 5178 N 506.988 0.0434614 1.5754 0
M  V30 5179 C 508.236 -0.630786 1.92004 0
M  V30 5180 C 508.557 -1.71836 0.921807 0
M  V30 5181 O 507.827 -1.9587 -0.034522 0
M  V30 5182 H 506.407 -0.235988 0.708745 0
M  V30 5183 H 509.069 0.0946462 1.9467 0
M  V30 5184 H 508.165 -1.07434 2.93026 0
M  V30 5185 N 508.466 -1.55915 -0.229846 0
M  V30 5186 C 509.414 -1.9258 -1.30444 0
M  V30 5187 C 510.408 -0.806839 -1.48951 0
M  V30 5188 O 511.614 -0.991606 -1.50224 0
M  V30 5189 H 507.989 -0.611878 -0.437161 0
M  V30 5190 H 509.96 -2.82264 -0.96797 0
M  V30 5191 C 508.709 -2.25171 -2.6494 0
M  V30 5192 H 508.032 -3.10782 -2.51504 0
M  V30 5193 H 509.472 -2.54716 -3.38963 0
M  V30 5194 C 507.931 -1.07394 -3.19324 0
M  V30 5195 O 508.461 -0.330759 -4.00336 0
M  V30 5196 N 506.667 -0.859984 -2.77584 0
M  V30 5197 H 506.214 -1.46605 -2.11813 0
M  V30 5198 H 506.172 -0.0736671 -3.14314 0
M  V30 5199 N 509.944 0.496216 -1.49584 0
M  V30 5200 C 510.876 1.61404 -1.62731 0
M  V30 5201 C 511.889 1.54613 -0.50978 0
M  V30 5202 O 513.078 1.60458 -0.782017 0
M  V30 5203 C 510.178 3.00212 -1.57245 0
M  V30 5204 C 509.351 3.32138 -2.84611 0
M  V30 5205 C 508.41 4.5038 -2.72112 0
M  V30 5206 O 507.436 4.51926 -3.46051 0
M  V30 5207 N 508.638 5.50575 -1.83977 0
M  V30 5208 H 511.403 1.50552 -2.59141 0
M  V30 5209 H 508.964 0.684182 -1.46733 0
M  V30 5210 H 510.956 3.77241 -1.4653 0
M  V30 5211 H 509.526 3.04964 -0.686729 0
M  V30 5212 H 508.746 2.4396 -3.09641 0
M  V30 5213 H 510.034 3.50268 -3.69039 0
M  V30 5214 H 509.432 5.52128 -1.23171 0
M  V30 5215 H 507.989 6.26687 -1.79182 0
M  V30 5216 N 511.423 1.38739 0.74761 0
M  V30 5217 C 512.371 1.36573 1.88283 0
M  V30 5218 C 513.365 0.250712 1.67534 0
M  V30 5219 O 514.571 0.420073 1.7503 0
M  V30 5220 H 510.946 0.42619 0.619569 0
M  V30 5221 H 512.917 2.32356 1.87226 0
M  V30 5222 C 511.666 1.21361 3.25832 0
M  V30 5223 H 510.989 2.06424 3.42388 0
M  V30 5224 H 512.429 1.23901 4.05493 0
M  V30 5225 C 510.888 -0.0790099 3.36807 0
M  V30 5226 O 511.418 -1.05385 3.8763 0
M  V30 5227 N 509.624 -0.13785 2.90273 0
M  V30 5228 H 509.171 0.656128 2.49104 0
M  V30 5229 H 509.129 -1.00228 2.97996 0
M  V30 5230 N 512.901 -0.976442 1.23707 0
M  V30 5231 C 513.811 -2.10359 1.03856 0
M  V30 5232 C 514.827 -1.73991 -0.0180919 0
M  V30 5233 O 516.003 -2.0061 0.178211 0
M  V30 5234 C 513.068 -3.40809 0.636387 0
M  V30 5235 C 512.129 -3.91179 1.76854 0
M  V30 5236 C 511.362 -5.15404 1.38546 0
M  V30 5237 O 511.585 -5.69754 0.27142 0
M  V30 5238 O 510.519 -5.5994 2.20797 0
M  V30 5239 H 514.345 -2.29997 1.98331 0
M  V30 5240 H 511.93 -1.08742 1.02448 0
M  V30 5241 H 513.812 -4.19269 0.423223 0
M  V30 5242 H 512.487 -3.22493 -0.279322 0
M  V30 5243 H 511.394 -3.13819 2.03638 0
M  V30 5244 H 512.727 -4.13958 2.6627 0
M  V30 5245 N 514.379 -1.04941 -1.1758 0
M  V30 5246 C 515.326 -0.648155 -2.21512 0
M  V30 5247 C 516.296 0.348431 -1.62404 0
M  V30 5248 O 517.481 0.240419 -1.89279 0
M  V30 5249 C 514.621 -0.0264291 -3.4509 0
M  V30 5250 C 513.734 -1.07154 -4.185 0
M  V30 5251 C 512.869 -0.417403 -5.29558 0
M  V30 5252 C 511.908 -1.447 -5.94751 0
M  V30 5253 N 511.045 -0.817203 -6.97328 0
M  V30 5254 H 515.885 -1.53891 -2.55189 0
M  V30 5255 H 513.422 -0.769699 -1.25356 0
M  V30 5256 H 515.38 0.351456 -4.15717 0
M  V30 5257 H 514.01 0.827802 -3.12005 0
M  V30 5258 H 513.062 -1.56728 -3.46613 0
M  V30 5259 H 514.374 -1.8532 -4.63096 0
M  V30 5260 H 513.528 0.0142061 -6.06698 0
M  V30 5261 H 512.267 0.396265 -4.86087 0
M  V30 5262 H 511.272 -1.88865 -5.16343 0
M  V30 5263 H 512.497 -2.26252 -6.40302 0
M  V30 5264 H 510.443 -0.0239995 -6.55996 0
M  V30 5265 H 510.36 -1.53644 -7.40223 0
M  V30 5266 H 511.628 -0.410283 -7.7842 0
M  V30 5267 N 515.857 1.33968 -0.830081 0
M  V30 5268 C 516.789 2.28194 -0.21448 0
M  V30 5269 C 517.802 1.5135 0.599752 0
M  V30 5270 O 518.991 1.73286 0.42826 0
M  V30 5271 C 516.091 3.31221 0.717356 0
M  V30 5272 C 515.264 4.37365 -0.055613 0
M  V30 5273 C 514.323 5.2011 0.798231 0
M  V30 5274 O 513.349 5.68691 0.240616 0
M  V30 5275 N 514.551 5.40523 2.11695 0
M  V30 5276 H 517.316 2.81662 -1.02405 0
M  V30 5277 H 514.877 1.46568 -0.687713 0
M  V30 5278 H 516.869 3.83477 1.29334 0
M  V30 5279 H 515.439 2.78095 1.42765 0
M  V30 5280 H 514.659 3.85727 -0.812936 0
M  V30 5281 H 515.947 5.05397 -0.587444 0
M  V30 5282 H 515.345 5.0274 2.59363 0
M  V30 5283 H 513.902 5.95871 2.64162 0
M  V30 5284 N 517.335 0.585699 1.46312 0
M  V30 5285 C 518.584 0.0701192 2.01578 0
M  V30 5286 C 518.897 -1.29889 1.46247 0
M  V30 5287 O 520.103 -1.90598 1.93351 0
M  V30 5288 C 518.559 0.0747499 3.59822 0
M  V30 5289 C 518.167 1.44226 4.24149 0
M  V30 5290 C 519.911 -0.38673 4.22735 0
M  V30 5291 C 517.818 1.40446 5.74481 0
M  V30 5292 H 516.748 0.0224441 0.753666 0
M  V30 5293 H 519.399 0.737789 1.68015 0
M  V30 5294 H 517.781 -0.659144 3.90476 0
M  V30 5295 H 518.955 2.19612 4.05101 0
M  V30 5296 H 517.27 1.84401 3.73343 0
M  V30 5297 H 519.867 -0.433853 5.32937 0
M  V30 5298 H 520.21 -1.40489 3.91878 0
M  V30 5299 H 520.743 0.293195 3.96718 0
M  V30 5300 H 517.482 2.39952 6.10003 0
M  V30 5301 H 517.002 0.692845 5.95785 0
M  V30 5302 H 518.681 1.11865 6.37256 0
M  V30 5303 N 518.813 -1.54241 0.323641 0
M  V30 5304 C 520.059 -2.00867 -0.279323 0
M  V30 5305 C 520.392 -1.21146 -1.5178 0
M  V30 5306 O 519.667 -0.29378 -1.92269 0
M  V30 5307 C 519.95 -3.54837 -0.613387 0
M  V30 5308 C 519.803 -4.45284 0.635803 0
M  V30 5309 C 521.122 -4.16186 -1.43099 0
M  V30 5310 H 518.241 -0.730177 -0.100049 0
M  V30 5311 H 520.883 -1.84829 0.440235 0
M  V30 5312 H 519.033 -3.68634 -1.22641 0
M  V30 5313 H 520.705 -4.43357 1.27406 0
M  V30 5314 H 518.948 -4.14956 1.26466 0
M  V30 5315 H 519.619 -5.5084 0.357597 0
M  V30 5316 H 522.095 -4.05964 -0.912814 0
M  V30 5317 H 520.971 -5.24031 -1.6335 0
M  V30 5318 H 521.232 -3.69516 -2.42715 0
M  V30 5319 N 520.291 -0.0518155 -1.57515 0
M  V30 5320 C 521.519 0.631395 -1.9703 0
M  V30 5321 C 521.934 1.64341 -0.92938 0
M  V30 5322 O 521.291 1.82296 0.0863266 0
M  V30 5323 C 521.342 1.31774 -3.36627 0
M  V30 5324 O 521.063 0.346247 -4.3673 0
M  V30 5325 C 522.564 2.09065 -3.90905 0
M  V30 5326 H 519.784 0.172576 -0.648428 0
M  V30 5327 H 522.328 -0.118306 -2.04158 0
M  V30 5328 H 520.483 2.01867 -3.30649 0
M  V30 5329 H 520.897 0.836226 -5.17791 0
M  V30 5330 H 522.371 2.52508 -4.9086 0
M  V30 5331 H 522.848 2.93908 -3.26366 0
M  V30 5332 H 523.454 1.43882 -4.00223 0
M  V30 5333 N 521.769 1.56035 0.221574 0
M  V30 5334 C 522.997 1.8313 0.962864 0
M  V30 5335 C 523.412 0.630934 1.77946 0
M  V30 5336 O 522.769 -0.400519 1.78051 0
M  V30 5337 C 522.82 3.08742 1.88045 0
M  V30 5338 O 522.541 4.24147 1.09686 0
M  V30 5339 C 524.042 3.48824 2.73563 0
M  V30 5340 H 521.262 0.608775 0.282194 0
M  V30 5341 H 523.806 2.03124 0.23681 0
M  V30 5342 H 521.961 2.90723 2.56045 0
M  V30 5343 H 522.375 4.95505 1.71974 0
M  V30 5344 H 523.849 4.39752 3.3365 0
M  V30 5345 H 524.326 2.70575 3.45956 0
M  V30 5346 H 524.932 3.69282 2.10976 0
M  V30 5347 N 523.247 -0.488276 1.49845 0
M  V30 5348 C 524.524 -1.24959 1.50481 0
M  V30 5349 C 524.904 -2.09735 0.239698 0
M  V30 5350 O 524.252 -2.14865 -0.777524 0
M  V30 5351 C 524.462 -2.0954 2.79095 0
M  V30 5352 C 525.81 -2.68305 3.29086 0
M  V30 5353 O 526.834 -2.19797 2.80299 0
M  V30 5354 O 525.693 -3.56643 4.14087 0
M  V30 5355 H 522.787 -0.566133 0.602845 0
M  V30 5356 H 525.333 -0.501504 1.6212 0
M  V30 5357 H 524.105 -1.46958 3.62656 0
M  V30 5358 H 523.728 -2.91517 2.70377 0
M  V30 5359 N 524.725 -1.39134 -0.740242 0
M  V30 5360 C 525.655 -1.40165 -1.86751 0
M  V30 5361 C 526.636 -0.265708 -1.68012 0
M  V30 5362 O 527.821 -0.47076 -1.88408 0
M  V30 5363 C 524.951 -1.2392 -3.2444 0
M  V30 5364 C 523.905 -2.34858 -3.57807 0
M  V30 5365 C 523.231 -2.03707 -4.94376 0
M  V30 5366 C 524.531 -3.77159 -3.61315 0
M  V30 5367 H 526.225 -2.345 -1.86145 0
M  V30 5368 H 523.771 -1.12875 -0.89416 0
M  V30 5369 H 525.724 -1.23263 -4.02969 0
M  V30 5370 H 524.448 -0.26051 -3.25559 0
M  V30 5371 H 523.107 -2.34723 -2.81604 0
M  V30 5372 H 522.755 -1.04289 -4.9207 0
M  V30 5373 H 522.455 -2.78016 -5.17669 0
M  V30 5374 H 523.979 -2.04691 -5.75268 0
M  V30 5375 H 525.393 -3.79252 -4.29931 0
M  V30 5376 H 523.79 -4.50784 -3.96124 0
M  V30 5377 H 524.86 -4.08513 -2.61238 0
M  V30 5378 N 526.204 0.969867 -1.24223 0
M  V30 5379 C 527.62 1.23809 -1.00716 0
M  V30 5380 C 527.82 1.99469 0.285358 0
M  V30 5381 O 526.876 2.31764 1.00207 0
M  V30 5382 C 528.189 2.02734 -2.2208 0
M  V30 5383 C 529.737 2.15834 -2.26681 0
M  V30 5384 C 530.212 2.98154 -3.47661 0
M  V30 5385 N 531.703 3.05737 -3.47964 0
M  V30 5386 C 532.438 3.69785 -4.38231 0
M  V30 5387 N 531.934 4.35569 -5.3875 0
M  V30 5388 N 533.727 3.66775 -4.25949 0
M  V30 5389 H 525.878 0.463294 -2.07286 0
M  V30 5390 H 528.141 0.267348 -0.909521 0
M  V30 5391 H 527.847 1.54524 -3.15935 0
M  V30 5392 H 527.721 3.0347 -2.24021 0
M  V30 5393 H 530.108 2.63248 -1.33359 0
M  V30 5394 H 530.189 1.14453 -2.28767 0
M  V30 5395 H 529.833 2.51435 -4.41297 0
M  V30 5396 H 529.763 3.99729 -3.42818 0
M  V30 5397 H 532.254 2.58941 -2.75242 0
M  V30 5398 H 532.567 4.82251 -6.03866 0
M  V30 5399 H 530.912 4.34244 -5.42639 0
M  V30 5400 H 534.103 3.14558 -3.46657 0
M  V30 5401 H 534.276 4.16407 -4.96497 0
M  V30 5402 N 527.682 1.05563 1.17022 0
M  V30 5403 C 528.614 0.617888 2.20714 0
M  V30 5404 C 529.627 -0.320303 1.59618 0
M  V30 5405 O 530.816 -0.112449 1.78145 0
M  V30 5406 C 527.916 -0.115333 3.38704 0
M  V30 5407 C 527.089 0.834493 4.29366 0
M  V30 5408 C 526.148 0.141855 5.26009 0
M  V30 5409 O 525.174 0.777151 5.6387 0
M  V30 5410 N 526.376 -1.11934 5.69606 0
M  V30 5411 H 529.141 1.50981 2.58892 0
M  V30 5412 H 526.702 0.938008 1.31958 0
M  V30 5413 H 528.694 -0.588918 4.00392 0
M  V30 5414 H 527.264 -0.908967 2.99093 0
M  V30 5415 H 526.484 1.48762 3.65053 0
M  V30 5416 H 527.772 1.4791 4.86827 0
M  V30 5417 H 527.17 -1.65574 5.40927 0
M  V30 5418 H 525.727 -1.53692 6.33421 0
M  V30 5419 N 529.16 -1.33526 0.837174 0
M  V30 5420 C 530.107 -2.29248 0.267169 0
M  V30 5421 C 531.077 -1.54252 -0.616071 0
M  V30 5422 O 532.262 -1.82559 -0.554699 0
M  V30 5423 C 529.402 -3.40638 -0.553152 0
M  V30 5424 C 528.515 -4.30548 0.353921 0
M  V30 5425 C 527.65 -5.29051 -0.477339 0
M  V30 5426 C 526.689 -6.106 0.42823 0
M  V30 5427 N 525.826 -7.01152 -0.364801 0
M  V30 5428 H 530.666 -2.77398 1.08877 0
M  V30 5429 H 528.203 -1.36496 0.54838 0
M  V30 5430 H 530.161 -4.03921 -1.04422 0
M  V30 5431 H 528.791 -2.93685 -1.33973 0
M  V30 5432 H 527.843 -3.68001 0.963289 0
M  V30 5433 H 529.155 -4.87631 1.04964 0
M  V30 5434 H 528.309 -5.97853 -1.0323 0
M  V30 5435 H 527.048 -4.72541 -1.2065 0
M  V30 5436 H 526.053 -5.40718 0.995219 0
M  V30 5437 H 527.278 -6.69193 1.15573 0
M  V30 5438 H 525.224 -6.47092 -1.07738 0
M  V30 5439 H 525.141 -7.5551 0.272238 0
M  V30 5440 H 526.409 -7.74263 -0.902054 0
M  V30 5441 N 530.638 -0.59345 -1.46 0
M  V30 5442 C 531.878 -0.0859747 -2.04219 0
M  V30 5443 C 532.242 1.25432 -1.45364 0
M  V30 5444 O 533.443 1.85168 -1.9485 0
M  V30 5445 C 531.714 -0.0324314 -3.57385 0
M  V30 5446 S 533.273 0.415908 -4.36824 0
M  V30 5447 H 530.091 -0.0426872 -0.709717 0
M  V30 5448 H 532.693 -0.788369 -1.78899 0
M  V30 5449 H 531.397 -1.01166 -3.97735 0
M  V30 5450 H 530.928 0.6924 -3.87259 0
M  V30 5451 H 532.943 1.66844 -4.67309 0
M  V30 5452 N 532.116 1.54067 -0.331816 0
M  V30 5453 C 533.344 2.05131 0.269996 0
M  V30 5454 C 533.759 1.20749 1.45138 0
M  V30 5455 O 533.116 0.240069 1.80914 0
M  V30 5456 C 533.167 3.54728 0.696456 0
M  V30 5457 O 532.888 4.35906 -0.43794 0
M  V30 5458 C 534.389 4.21916 1.36021 0
M  V30 5459 H 531.609 0.668807 0.0542042 0
M  V30 5460 H 534.153 1.98777 -0.4804 0
M  V30 5461 H 532.308 3.61342 1.39681 0
M  V30 5462 H 532.722 5.24404 -0.100334 0
M  V30 5463 H 534.196 5.28015 1.60947 0
M  V30 5464 H 534.673 3.73538 2.31011 0
M  V30 5465 H 535.279 4.19463 0.702212 0
M  V30 5466 N 533.594 0.0601682 1.57485 0
M  V30 5467 C 534.504 -0.926121 2.15546 0
M  V30 5468 C 535.52 -1.33532 1.11558 0
M  V30 5469 O 536.696 -1.4104 1.4377 0
M  V30 5470 C 533.761 -2.17952 2.69625 0
M  V30 5471 C 532.822 -1.82783 3.88444 0
M  V30 5472 C 532.055 -3.02148 4.39935 0
M  V30 5473 O 532.278 -4.15803 3.90466 0
M  V30 5474 O 531.212 -2.82639 5.31412 0
M  V30 5475 H 535.038 -0.462289 3.00161 0
M  V30 5476 H 532.623 -0.162246 1.48516 0
M  V30 5477 H 534.505 -2.91474 3.04337 0
M  V30 5478 H 533.18 -2.63456 1.88077 0
M  V30 5479 H 532.087 -1.06549 3.58606 0
M  V30 5480 H 533.42 -1.42072 4.7125 0
M  V30 5481 N 535.072 -1.5615 -0.213296 0
M  V30 5482 C 536.297 -1.83986 -0.957282 0
M  V30 5483 C 536.722 -0.641526 -1.76822 0
M  V30 5484 O 536.08 0.409722 -1.7661 0
M  V30 5485 C 536.128 -3.09889 -1.84393 0
M  V30 5486 O 535.232 -2.89163 -2.94038 0
M  V30 5487 H 534.573 -0.606357 -0.270605 0
M  V30 5488 H 537.103 -2.03369 -0.224111 0
M  V30 5489 H 537.113 -3.40209 -2.25215 0
M  V30 5490 H 535.788 -3.96735 -1.24795 0
M  V30 5491 H 534.365 -2.70097 -2.57103 0
M  V30 5492 N 536.55 0.480323 -1.50102 0
M  V30 5493 C 537.5 1.57685 -1.6468 0
M  V30 5494 C 538.484 1.52878 -0.5017 0
M  V30 5495 O 539.676 1.60058 -0.755668 0
M  V30 5496 C 536.805 2.96185 -1.73578 0
M  V30 5497 C 535.891 3.0591 -2.93734 0
M  V30 5498 N 536.282 2.85471 -4.1754 0
M  V30 5499 C 534.58 3.37036 -2.92101 0
M  V30 5500 C 535.281 2.99921 -4.9842 0
M  V30 5501 N 534.257 3.29715 -4.32191 0
M  V30 5502 H 538.059 1.40568 -2.58104 0
M  V30 5503 H 535.573 0.686874 -1.47159 0
M  V30 5504 H 537.57 3.75015 -1.82124 0
M  V30 5505 H 536.23 3.14356 -0.813057 0
M  V30 5506 H 537.241 2.61235 -4.47188 0
M  V30 5507 H 533.918 3.61253 -2.09291 0
M  V30 5508 H 535.308 2.88436 -6.06839 0
M  V30 5509 N 538.028 1.39524 0.732853 0
M  V30 5510 C 539.256 1.40143 1.52209 0
M  V30 5511 C 539.671 -0.00348836 1.888 0
M  V30 5512 O 539.028 -0.975357 1.5425 0
M  V30 5513 C 539.079 2.27632 2.8083 0
M  V30 5514 O 538.8 3.62654 2.45792 0
M  V30 5515 C 540.301 2.36658 3.74844 0
M  V30 5516 H 537.521 0.478604 0.470297 0
M  V30 5517 H 540.065 1.83366 0.905388 0
M  V30 5518 H 538.22 1.87818 3.38826 0
M  V30 5519 H 538.634 4.08941 3.28431 0
M  V30 5520 H 540.108 3.02118 4.61984 0
M  V30 5521 H 540.585 1.38638 4.16745 0
M  V30 5522 H 541.191 2.76951 3.22766 0
M  V30 5523 N 539.506 -0.963266 1.24736 0
M  V30 5524 C 540.754 -1.70343 1.08755 0
M  V30 5525 C 541.075 -1.91387 -0.373619 0
M  V30 5526 O 540.345 -1.4948 -1.2662 0
M  V30 5527 H 538.925 -0.631224 0.399456 0
M  V30 5528 H 541.587 -1.15859 1.56725 0
M  V30 5529 H 540.683 -2.68616 1.58909 0
M  V30 5530 N 540.985 -1.06182 -1.16461 0
M  V30 5531 C 542.213 -0.798583 -1.90867 0
M  V30 5532 C 542.628 0.646921 -1.77371 0
M  V30 5533 O 541.985 1.44279 -1.11758 0
M  V30 5534 C 542.036 -1.18258 -3.4161 0
M  V30 5535 O 541.757 -2.57135 -3.54701 0
M  V30 5536 C 543.258 -0.946917 -4.33069 0
M  V30 5537 H 540.478 -0.289603 -0.605286 0
M  V30 5538 H 543.022 -1.41515 -1.47627 0
M  V30 5539 H 541.177 -0.610562 -3.82558 0
M  V30 5540 H 541.591 -2.72477 -4.4817 0
M  V30 5541 H 543.065 -1.26523 -5.37304 0
M  V30 5542 H 543.542 0.117406 -4.39043 0
M  V30 5543 H 544.148 -1.50326 -3.97847 0
M  V30 5544 N 542.463 1.3308 -0.844243 0
M  V30 5545 C 543.688 2.02341 -0.455282 0
M  V30 5546 C 544.113 1.6308 0.93737 0
M  V30 5547 O 543.471 0.826118 1.61385 0
M  V30 5548 C 543.519 3.55743 -0.58988 0
M  V30 5549 O 542.623 4.1063 0.38166 0
M  V30 5550 H 541.964 0.637898 -0.184343 0
M  V30 5551 H 544.494 1.6986 -1.14056 0
M  V30 5552 H 544.504 4.05243 -0.473522 0
M  V30 5553 H 543.179 3.83662 -1.60549 0
M  V30 5554 H 541.756 3.72236 0.22241 0
M  V30 5555 N 543.941 0.601185 1.45683 0
M  V30 5556 C 544.904 -0.111398 2.28929 0
M  V30 5557 C 545.904 -0.801246 1.39416 0
M  V30 5558 O 547.094 -0.650383 1.61603 0
M  V30 5559 C 544.226 -1.16773 3.20276 0
M  V30 5560 H 545.419 0.620412 2.93413 0
M  V30 5561 H 542.972 0.359946 1.52099 0
M  V30 5562 H 543.707 -1.93051 2.60579 0
M  V30 5563 H 543.492 -0.677358 3.86205 0
M  V30 5564 H 544.982 -1.66698 3.82886 0
M  V30 5565 N 545.419 -1.53889 0.339982 0
M  V30 5566 C 546.644 -2.05741 -0.261798 0
M  V30 5567 C 547.069 -1.21354 -1.43718 0
M  V30 5568 O 546.427 -0.22645 -1.7988 0
M  V30 5569 C 546.475 -3.54542 -0.658228 0
M  V30 5570 O 545.579 -3.7302 -1.75869 0
M  V30 5571 H 544.92 -0.662529 -0.0441672 0
M  V30 5572 H 547.45 -1.98568 0.493161 0
M  V30 5573 H 547.46 -3.9711 -0.936368 0
M  V30 5574 H 546.135 -4.15412 0.201358 0
M  V30 5575 H 544.712 -3.42355 -1.47809 0
M  V30 5576 N 546.897 -0.0685191 -1.57451 0
M  V30 5577 C 547.86 0.885173 -2.11417 0
M  V30 5578 C 548.86 1.22853 -1.03748 0
M  V30 5579 O 550.05 1.16235 -1.2975 0
M  V30 5580 C 547.182 2.18964 -2.61281 0
M  V30 5581 H 548.375 0.417034 -2.96986 0
M  V30 5582 H 545.928 0.18014 -1.55258 0
M  V30 5583 H 546.663 2.70321 -1.79156 0
M  V30 5584 H 546.448 1.9534 -3.39977 0
M  V30 5585 H 547.938 2.87242 -3.0312 0
M  V30 5586 N 548.375 1.56261 0.205012 0
M  V30 5587 C 549.786 1.70056 0.770574 0
M  V30 5588 C 550.137 0.673398 1.84282 0
M  V30 5589 O 549.262 -0.172196 2.15714 0
M  V30 5590 C 549.857 3.08316 1.40451 0
M  V30 5591 C 548.416 3.2391 1.91727 0
M  V30 5592 C 547.563 2.66001 0.783516 0
M  V30 5593 H 550.514 1.58688 -0.019911 0
M  V30 5594 H 550.535 3.05094 2.27371 0
M  V30 5595 H 550.047 3.83053 0.623882 0
M  V30 5596 H 548.148 2.54072 2.7254 0
M  V30 5597 H 548.261 4.3131 2.08588 0
M  V30 5598 H 546.625 2.24915 1.19521 0
M  V30 5599 H 547.408 3.43297 0.0152883 0
M  V30 5600 N 549.853 -0.472356 1.50355 0
M  V30 5601 C 550.783 -1.57859 1.72055 0
M  V30 5602 C 551.764 -1.60283 0.569505 0
M  V30 5603 O 552.949 -1.7657 0.808503 0
M  V30 5604 C 550.079 -2.96191 1.81351 0
M  V30 5605 C 549.033 -3.08633 2.96529 0
M  V30 5606 C 548.359 -4.486 2.90968 0
M  V30 5607 C 549.659 -2.85969 4.37057 0
M  V30 5608 H 551.353 -1.39953 2.64676 0
M  V30 5609 H 548.899 -0.671846 1.27367 0
M  V30 5610 H 550.852 -3.73507 1.95117 0
M  V30 5611 H 549.576 -3.15251 0.853502 0
M  V30 5612 H 548.235 -2.33749 2.82413 0
M  V30 5613 H 547.883 -4.64577 1.92815 0
M  V30 5614 H 547.583 -4.57861 3.68289 0
M  V30 5615 H 549.107 -5.27938 3.0678 0
M  V30 5616 H 550.521 -3.53036 4.51706 0
M  V30 5617 H 548.918 -3.06677 5.15819 0
M  V30 5618 H 549.988 -1.81838 4.49514 0
M  V30 5619 N 551.331 -1.39911 -0.725443 0
M  V30 5620 C 552.294 -1.39156 -1.82121 0
M  V30 5621 C 553.294 -0.287018 -1.58218 0
M  V30 5622 O 554.484 -0.545421 -1.65441 0
M  V30 5623 C 551.616 -1.1736 -3.20062 0
M  V30 5624 H 552.809 -2.36672 -1.84191 0
M  V30 5625 H 550.362 -1.25615 -0.930079 0
M  V30 5626 H 551.097 -0.205648 -3.23647 0
M  V30 5627 H 550.882 -1.97358 -3.3881 0
M  V30 5628 H 552.372 -1.19596 -4.00108 0
M  V30 5629 N 552.809 0.956637 -1.25245 0
M  V30 5630 C 553.772 2.03457 -1.05537 0
M  V30 5631 C 554.772 1.60798 -0.00886317 0
M  V30 5632 O 555.962 1.72384 -0.250865 0
M  V30 5633 C 553.094 3.35543 -0.601965 0
M  V30 5634 H 554.287 2.22372 -2.01223 0
M  V30 5635 H 551.84 1.13344 -1.07623 0
M  V30 5636 H 552.575 3.22323 0.357584 0
M  V30 5637 H 552.36 3.67854 -1.35743 0
M  V30 5638 H 553.85 4.14769 -0.485454 0
M  V30 5639 N 554.287 1.06798 1.15896 0
M  V30 5640 C 555.535 0.786211 1.8618 0
M  V30 5641 C 555.856 -0.689547 1.82401 0
M  V30 5642 O 555.126 -1.49913 1.26107 0
M  V30 5643 H 553.706 0.287843 0.689315 0
M  V30 5644 H 556.368 1.35055 1.40521 0
M  V30 5645 H 555.464 1.1157 2.91477 0
M  V30 5646 N 555.766 -1.3263 0.851289 0
M  V30 5647 C 557.015 -1.96633 0.449267 0
M  V30 5648 C 557.328 -1.68131 -0.999562 0
M  V30 5649 O 558.534 -2.25845 -1.50685 0
M  V30 5650 C 556.99 -3.51946 0.752446 0
M  V30 5651 C 556.598 -3.89311 2.21678 0
M  V30 5652 C 558.342 -4.22437 0.417983 0
M  V30 5653 C 556.249 -5.37655 2.46336 0
M  V30 5654 H 555.179 -0.735888 0.164269 0
M  V30 5655 H 557.83 -1.51073 1.0416 0
M  V30 5656 H 556.212 -3.95899 0.0895858 0
M  V30 5657 H 557.386 -3.56378 2.92115 0
M  V30 5658 H 555.701 -3.31836 2.51543 0
M  V30 5659 H 558.298 -5.31549 0.579674 0
M  V30 5660 H 558.641 -4.11349 -0.640115 0
M  V30 5661 H 559.174 -3.84057 1.03659 0
M  V30 5662 H 555.913 -5.5376 3.50757 0
M  V30 5663 H 555.433 -5.72005 1.80473 0
M  V30 5664 H 557.112 -6.04695 2.30115 0
M  V30 5665 N 557.244 -0.608902 -1.45362 0
M  V30 5666 C 558.493 -0.10218 -2.01441 0
M  V30 5667 C 558.806 1.27546 -1.48295 0
M  V30 5668 O 560.012 1.87498 -1.96359 0
M  V30 5669 C 558.468 -0.131985 -3.59658 0
M  V30 5670 C 558.076 -1.50956 -4.21801 0
M  V30 5671 C 559.82 0.319427 -4.23296 0
M  V30 5672 C 557.727 -1.49568 -5.72174 0
M  V30 5673 H 556.657 -0.0344314 -0.753213 0
M  V30 5674 H 559.308 -0.764426 -1.6682 0
M  V30 5675 H 557.69 0.596939 -3.91475 0
M  V30 5676 H 558.864 -2.26029 -4.01556 0
M  V30 5677 H 557.179 -1.90318 -3.70362 0
M  V30 5678 H 559.776 0.349013 -5.3356 0
M  V30 5679 H 560.119 1.34237 -3.94064 0
M  V30 5680 H 560.652 -0.356273 -3.96201 0
M  V30 5681 H 557.391 -2.49626 -6.06108 0
M  V30 5682 H 556.911 -0.787542 -5.94607 0
M  V30 5683 H 558.59 -1.21989 -6.35396 0
M  V30 5684 N 558.722 1.53707 -0.348139 0
M  V30 5685 C 559.685 2.23812 0.494058 0
M  V30 5686 C 560.685 1.23989 1.02388 0
M  V30 5687 O 561.875 1.48395 0.912396 0
M  V30 5688 C 559.007 2.96133 1.68872 0
M  V30 5689 H 560.2 2.99663 -0.119141 0
M  V30 5690 H 557.753 1.55983 -0.0995539 0
M  V30 5691 H 558.488 2.24481 2.34049 0
M  V30 5692 H 558.273 3.69357 1.31596 0
M  V30 5693 H 559.763 3.49475 2.28597 0
M  V30 5694 N 560.2 0.0768682 1.57412 0
M  V30 5695 C 561.13 -0.886026 2.16037 0
M  V30 5696 C 562.111 -1.30691 1.08876 0
M  V30 5697 O 563.296 -1.37705 1.36934 0
M  V30 5698 C 560.426 -2.1518 2.72608 0
M  V30 5699 C 559.38 -1.87015 3.8498 0
M  V30 5700 C 558.706 -3.20266 4.28175 0
M  V30 5701 C 560.006 -1.17143 5.08994 0
M  V30 5702 H 561.7 -0.397642 2.96748 0
M  V30 5703 H 559.246 -0.189823 1.42743 0
M  V30 5704 H 561.199 -2.82962 3.12266 0
M  V30 5705 H 559.923 -2.66269 1.89125 0
M  V30 5706 H 558.582 -1.21636 3.45833 0
M  V30 5707 H 558.23 -3.69207 3.41607 0
M  V30 5708 H 557.93 -3.0221 5.03927 0
M  V30 5709 H 559.454 -3.89237 4.70454 0
M  V30 5710 H 560.868 -1.75003 5.45937 0
M  V30 5711 H 559.265 -1.09328 5.90057 0
M  V30 5712 H 560.335 -0.151295 4.84664 0
M  V30 5713 N 561.678 -1.56367 -0.196722 0
M  V30 5714 C 562.906 -1.84639 -0.933608 0
M  V30 5715 C 563.321 -0.659164 -1.76919 0
M  V30 5716 O 562.678 0.372142 -1.78665 0
M  V30 5717 C 562.729 -3.11694 -1.83109 0
M  V30 5718 O 562.45 -4.25838 -1.02924 0
M  V30 5719 C 563.951 -3.53132 -2.67979 0
M  V30 5720 H 561.171 -0.613188 -0.272473 0
M  V30 5721 H 563.715 -2.03475 -0.204465 0
M  V30 5722 H 561.87 -2.94759 -2.51387 0
M  V30 5723 H 562.284 -4.98178 -1.64069 0
M  V30 5724 H 563.758 -4.45005 -3.26611 0
M  V30 5725 H 564.235 -2.76045 -3.41608 0
M  V30 5726 H 564.841 -3.72592 -2.05074 0
M  V30 5727 N 563.156 0.464375 -1.50603 0
M  V30 5728 C 564.086 1.56944 -1.72889 0
M  V30 5729 C 565.067 1.59979 -0.577997 0
M  V30 5730 O 566.252 1.76138 -0.817855 0
M  V30 5731 C 563.382 2.95225 -1.8292 0
M  V30 5732 C 562.336 3.07056 -2.98162 0
M  V30 5733 C 561.662 4.47051 -2.93343 0
M  V30 5734 C 562.962 2.83648 -4.38567 0
M  V30 5735 H 564.656 1.38547 -2.65415 0
M  V30 5736 H 562.202 0.665082 -1.27721 0
M  V30 5737 H 564.155 3.72467 -1.97095 0
M  V30 5738 H 562.879 3.14793 -0.870209 0
M  V30 5739 H 561.538 2.32248 -2.83648 0
M  V30 5740 H 561.186 4.63547 -1.95276 0
M  V30 5741 H 560.886 4.55902 -3.70712 0
M  V30 5742 H 562.41 5.26304 -3.09575 0
M  V30 5743 H 563.824 3.50636 -4.53572 0
M  V30 5744 H 562.221 3.03937 -5.17438 0
M  V30 5745 H 563.291 1.79451 -4.50472 0
M  V30 5746 N 564.634 1.40294 0.718013 0
M  V30 5747 C 565.544 1.42678 1.86226 0
M  V30 5748 C 566.56 0.319655 1.71039 0
M  V30 5749 O 567.736 0.563852 1.93346 0
M  V30 5750 C 564.801 1.2852 3.21999 0
M  V30 5751 C 563.862 2.49354 3.49458 0
M  V30 5752 C 563.095 2.35863 4.78753 0
M  V30 5753 O 563.318 1.37114 5.53675 0
M  V30 5754 O 562.252 3.25189 5.06494 0
M  V30 5755 H 566.078 2.39167 1.87171 0
M  V30 5756 H 563.663 1.2159 0.868112 0
M  V30 5757 H 565.545 1.22824 4.03103 0
M  V30 5758 H 564.22 0.351359 3.21787 0
M  V30 5759 H 563.127 2.60628 2.68373 0
M  V30 5760 H 564.46 3.41491 3.54464 0
M  V30 5761 N 566.112 -0.949982 1.2575 0
M  V30 5762 C 567.075 -2.02894 1.06615 0
M  V30 5763 C 568.075 -1.60791 0.0173905 0
M  V30 5764 O 569.265 -1.72249 0.260003 0
M  V30 5765 C 566.397 -3.35219 0.619751 0
M  V30 5766 H 567.59 -2.21302 2.02399 0
M  V30 5767 H 565.143 -1.12772 1.08223 0
M  V30 5768 H 565.878 -3.22508 -0.340486 0
M  V30 5769 H 565.663 -3.67129 1.37692 0
M  V30 5770 H 567.153 -4.14505 0.507443 0
M  V30 5771 N 567.59 -1.07411 -1.15328 0
M  V30 5772 C 568.538 -0.689316 -2.22151 0
M  V30 5773 C 569.532 0.300156 -1.6672 0
M  V30 5774 O 570.738 0.163804 -1.79253 0
M  V30 5775 H 567.113 -0.204834 -0.723566 0
M  V30 5776 H 569.084 -1.59988 -2.51886 0
M  V30 5777 C 567.833 -0.103848 -3.47545 0
M  V30 5778 H 567.156 -0.856367 -3.90521 0
M  V30 5779 H 568.596 0.127725 -4.23808 0
M  V30 5780 C 567.055 1.15563 -3.1646 0
M  V30 5781 O 567.585 2.242 -3.33312 0
M  V30 5782 N 565.791 1.06203 -2.70498 0
M  V30 5783 H 565.338 0.177933 -2.56985 0
M  V30 5784 H 565.296 1.90553 -2.50074 0
M  V30 5785 N 569.068 1.32177 -0.85831 0
M  V30 5786 C 570.015 2.28794 -0.303607 0
M  V30 5787 C 570.985 1.55213 0.591453 0
M  V30 5788 O 572.17 1.83418 0.525585 0
M  V30 5789 C 569.31 3.41475 0.49889 0
M  V30 5790 C 568.423 4.2993 -0.422373 0
M  V30 5791 C 567.558 5.29743 0.393111 0
M  V30 5792 C 566.597 6.09842 -0.525317 0
M  V30 5793 N 565.734 7.01643 0.253208 0
M  V30 5794 H 570.574 2.75631 -1.13276 0
M  V30 5795 H 568.111 1.35606 -0.570026 0
M  V30 5796 H 570.069 4.05531 0.979826 0
M  V30 5797 H 568.699 2.95779 1.29284 0
M  V30 5798 H 567.751 3.66422 -1.02171 0
M  V30 5799 H 569.063 4.85899 -1.12709 0
M  V30 5800 H 568.217 5.9942 0.937056 0
M  V30 5801 H 566.956 4.744 1.13117 0
M  V30 5802 H 565.961 5.39066 -1.08112 0
M  V30 5803 H 567.186 6.6727 -1.26205 0
M  V30 5804 H 565.132 6.48725 0.974295 0
M  V30 5805 H 565.049 7.54981 -0.392398 0
M  V30 5806 H 566.317 7.756 0.778761 0
M  V30 5807 N 570.547 0.616602 1.45037 0
M  V30 5808 C 571.495 -0.109318 2.32343 0
M  V30 5809 C 572.489 -0.850543 1.465 0
M  V30 5810 O 573.695 -0.765088 1.62931 0
M  V30 5811 H 570.07 -0.0541091 0.750051 0
M  V30 5812 H 572.041 0.645326 2.91338 0
M  V30 5813 C 570.79 -1.0872 3.30266 0
M  V30 5814 H 570.113 -0.526267 3.96321 0
M  V30 5815 H 571.553 -1.56489 3.94065 0
M  V30 5816 C 570.012 -2.16525 2.58105 0
M  V30 5817 O 570.542 -3.244 2.36913 0
M  V30 5818 N 568.748 -1.92057 2.18088 0
M  V30 5819 H 568.295 -1.04337 2.35524 0
M  V30 5820 H 568.253 -2.64391 1.70131 0
M  V30 5821 N 572.025 -1.5352 0.356285 0
M  V30 5822 C 572.955 -2.28372 -0.486661 0
M  V30 5823 C 573.936 -1.30432 -1.09185 0
M  V30 5824 O 575.121 -1.59291 -1.11085 0
M  V30 5825 C 572.251 -3.06604 -1.63129 0
M  V30 5826 C 571.205 -4.12154 -1.15381 0
M  V30 5827 C 570.531 -4.78415 -2.38796 0
M  V30 5828 C 571.831 -5.21724 -0.245179 0
M  V30 5829 H 573.525 -2.99083 0.137797 0
M  V30 5830 H 571.071 -1.43841 0.0677134 0
M  V30 5831 H 573.024 -3.57712 -2.22755 0
M  V30 5832 H 571.748 -2.33568 -2.28284 0
M  V30 5833 H 570.407 -3.61978 -0.580294 0
M  V30 5834 H 570.055 -4.01959 -3.02387 0
M  V30 5835 H 569.755 -5.49734 -2.07524 0
M  V30 5836 H 571.279 -5.32313 -2.99125 0
M  V30 5837 H 572.693 -5.68391 -0.748646 0
M  V30 5838 H 571.09 -6.00095 -0.0237608 0
M  V30 5839 H 572.16 -4.79596 0.715229 0
M  V30 5840 N 573.503 -0.0852151 -1.57369 0
M  V30 5841 C 574.731 0.58946 -1.98325 0
M  V30 5842 C 575.146 1.62333 -0.96403 0
M  V30 5843 O 574.503 1.82438 0.0476395 0
M  V30 5844 C 574.554 1.24604 -3.39347 0
M  V30 5845 O 574.275 0.253532 -4.37366 0
M  V30 5846 C 575.776 2.00726 -3.95252 0
M  V30 5847 H 572.996 0.158783 -0.651942 0
M  V30 5848 H 575.54 -0.161584 -2.03861 0
M  V30 5849 H 573.695 1.94808 -3.34856 0
M  V30 5850 H 574.109 0.726207 -5.19448 0
M  V30 5851 H 575.583 2.42039 -4.96106 0
M  V30 5852 H 576.06 2.86919 -3.32527 0
M  V30 5853 H 576.666 1.3536 -4.03185 0
M  V30 5854 N 574.981 1.5647 0.188427 0
M  V30 5855 C 576.227 1.82181 0.904534 0
M  V30 5856 C 576.582 0.663258 1.80606 0
M  V30 5857 O 575.875 -0.341231 1.88537 0
M  V30 5858 C 576.069 3.11596 1.7505 0
M  V30 5859 C 575.898 4.39928 0.932372 0
M  V30 5860 C 574.668 5.01554 0.61417 0
M  V30 5861 C 576.866 5.13527 0.281936 0
M  V30 5862 N 574.848 6.13499 -0.221896 0
M  V30 5863 C 576.219 6.18603 -0.416037 0
M  V30 5864 C 578.274 4.97505 0.198345 0
M  V30 5865 C 576.977 7.09394 -1.18965 0
M  V30 5866 C 579.003 5.88725 -0.561887 0
M  V30 5867 C 578.365 6.93251 -1.24828 0
M  V30 5868 H 574.464 0.717858 0.310168 0
M  V30 5869 H 577.048 1.93932 0.172757 0
M  V30 5870 H 575.219 3.01068 2.45383 0
M  V30 5871 H 576.951 3.25369 2.4066 0
M  V30 5872 H 573.706 4.64174 0.940187 0
M  V30 5873 H 574.13 6.74065 -0.629735 0
M  V30 5874 H 578.772 4.16716 0.714665 0
M  V30 5875 H 576.49 7.8964 -1.71737 0
M  V30 5876 H 580.076 5.78401 -0.628009 0
M  V30 5877 H 578.956 7.62618 -1.82712 0
M  V30 5878 N 576.459 -0.456382 1.50847 0
M  V30 5879 C 577.875 -0.791345 1.386 0
M  V30 5880 C 578.075 -1.9633 0.453498 0
M  V30 5881 O 577.131 -2.52308 -0.0984353 0
M  V30 5882 C 578.444 -1.08959 2.80265 0
M  V30 5883 C 579.992 -1.19517 2.89283 0
M  V30 5884 C 580.467 -1.52647 4.31814 0
M  V30 5885 N 581.958 -1.59609 4.34832 0
M  V30 5886 C 582.693 -1.86777 5.42127 0
M  V30 5887 N 582.189 -2.11866 6.59609 0
M  V30 5888 N 583.982 -1.88402 5.29586 0
M  V30 5889 H 576.133 0.315746 2.1004 0
M  V30 5890 H 578.396 0.0787916 0.94472 0
M  V30 5891 H 578.102 -0.301355 3.50407 0
M  V30 5892 H 577.976 -2.02211 3.18419 0
M  V30 5893 H 580.363 -1.97406 2.19351 0
M  V30 5894 H 580.444 -0.242111 2.54652 0
M  V30 5895 H 580.088 -0.752922 5.02288 0
M  V30 5896 H 580.018 -2.49127 4.63943 0
M  V30 5897 H 582.509 -1.42201 3.50125 0
M  V30 5898 H 582.822 -2.31912 7.37182 0
M  V30 5899 H 581.167 -2.09228 6.62758 0
M  V30 5900 H 584.358 -1.68307 4.36795 0
M  V30 5901 H 584.531 -2.09238 6.13289 0
M  V30 5902 N 577.937 -1.40673 -0.710563 0
M  V30 5903 C 579.214 -1.29718 -1.46398 0
M  V30 5904 C 579.594 0.082177 -2.1094 0
M  V30 5905 O 578.942 1.09536 -2.00534 0
M  V30 5906 C 579.152 -2.43967 -2.49562 0
M  V30 5907 C 580.5 -2.84436 -3.15248 0
M  V30 5908 O 581.524 -2.43597 -2.59883 0
M  V30 5909 O 580.383 -3.55008 -4.1549 0
M  V30 5910 H 577.477 -0.509697 -0.651258 0
M  V30 5911 H 580.023 -1.52603 -0.742312 0
M  V30 5912 H 578.795 -3.36076 -2.0042 0
M  V30 5913 H 578.418 -2.22879 -3.29258 0
M  V30 5914 N 579.415 0.9433 -1.26252 0
M  V30 5915 C 580.348 2.04162 -1.01946 0
M  V30 5916 C 581.326 1.62507 0.0550808 0
M  V30 5917 O 582.51 1.883 -0.0869025 0
M  V30 5918 C 579.637 3.34313 -0.54335 0
M  V30 5919 C 578.683 3.94939 -1.61013 0
M  V30 5920 S 579.516 4.29484 -3.19849 0
M  V30 5921 C 580.672 5.62738 -2.74001 0
M  V30 5922 H 580.905 2.24466 -1.94942 0
M  V30 5923 H 578.438 1.08441 -1.09909 0
M  V30 5924 H 580.396 4.09576 -0.275315 0
M  V30 5925 H 579.057 3.11957 0.36629 0
M  V30 5926 H 578.25 4.88812 -1.22795 0
M  V30 5927 H 577.852 3.26202 -1.82943 0
M  V30 5928 H 580.144 6.41356 -2.18333 0
M  V30 5929 H 581.087 6.05839 -3.66558 0
M  V30 5930 H 581.495 5.22514 -2.13634 0
M  V30 5931 N 580.893 1.08022 1.14757 0
M  V30 5932 C 581.825 0.664566 2.19354 0
M  V30 5933 C 582.838 -0.286374 1.60261 0
M  V30 5934 O 584.027 -0.0746362 1.78344 0
M  V30 5935 C 581.127 -0.0434634 3.38872 0
M  V30 5936 C 580.3 0.925381 4.27499 0
M  V30 5937 C 579.359 0.253398 5.2559 0
M  V30 5938 O 578.385 0.896581 5.62094 0
M  V30 5939 N 579.587 -0.998263 5.71852 0
M  V30 5940 H 582.352 1.56438 2.55631 0
M  V30 5941 H 579.913 0.965788 1.29939 0
M  V30 5942 H 581.905 -0.503857 4.01551 0
M  V30 5943 H 580.475 -0.845321 3.00954 0
M  V30 5944 H 579.695 1.56472 3.61815 0
M  V30 5945 H 580.983 1.58203 4.8358 0
M  V30 5946 H 580.381 -1.54063 5.44317 0
M  V30 5947 H 578.938 -1.40222 6.36538 0
M  V30 5948 N 582.371 -1.3172 0.865308 0
M  V30 5949 C 583.321 -2.26157 0.289305 0
M  V30 5950 C 584.305 -1.50428 -0.570977 0
M  V30 5951 O 585.497 -1.71978 -0.418617 0
M  V30 5952 C 582.626 -3.39457 -0.512237 0
M  V30 5953 C 581.712 -4.22561 0.361028 0
M  V30 5954 N 582.103 -4.84501 1.45231 0
M  V30 5955 C 580.401 -4.45739 0.152641 0
M  V30 5956 C 581.102 -5.46586 1.99043 0
M  V30 5957 N 580.078 -5.28119 1.28809 0
M  V30 5958 H 583.88 -2.71581 1.12344 0
M  V30 5959 H 581.394 -1.45932 0.712565 0
M  V30 5960 H 583.391 -4.06133 -0.941379 0
M  V30 5961 H 582.051 -2.95577 -1.34404 0
M  V30 5962 H 583.062 -4.84293 1.83524 0
M  V30 5963 H 579.739 -4.1251 -0.643583 0
M  V30 5964 H 581.129 -6.05817 2.90577 0
M  V30 5965 N 583.85 -0.624285 -1.44708 0
M  V30 5966 C 584.779 0.0717025 -2.3339 0
M  V30 5967 C 585.76 0.841814 -1.47809 0
M  V30 5968 O 586.946 0.809056 -1.76544 0
M  V30 5969 C 584.076 1.05852 -3.30776 0
M  V30 5970 C 583.029 0.400503 -4.26122 0
M  V30 5971 C 582.356 1.49674 -5.13324 0
M  V30 5972 C 583.656 -0.688924 -5.17737 0
M  V30 5973 H 585.35 -0.668819 -2.91834 0
M  V30 5974 H 582.896 -0.32308 -1.40329 0
M  V30 5975 H 584.849 1.5541 -3.91696 0
M  V30 5976 H 583.572 1.82984 -2.70526 0
M  V30 5977 H 582.231 -0.0743687 -3.66525 0
M  V30 5978 H 581.88 2.25877 -4.49431 0
M  V30 5979 H 581.58 1.06188 -5.77926 0
M  V30 5980 H 583.104 1.99427 -5.77115 0
M  V30 5981 H 584.518 -0.276724 -5.72632 0
M  V30 5982 H 582.915 -1.04652 -5.90904 0
M  V30 5983 H 583.985 -1.55884 -4.5916 0
M  V30 5984 N 585.328 1.53329 -0.364422 0
M  V30 5985 C 586.574 2.01537 0.225969 0
M  V30 5986 C 586.907 1.25128 1.48515 0
M  V30 5987 O 586.182 0.344653 1.91422 0
M  V30 5988 C 586.465 3.56339 0.519092 0
M  V30 5989 C 586.318 4.43441 -0.753639 0
M  V30 5990 C 587.637 4.19833 1.32015 0
M  V30 5991 H 584.756 0.732573 0.0806548 0
M  V30 5992 H 587.398 1.83597 -0.489084 0
M  V30 5993 H 585.548 3.71756 1.12825 0
M  V30 5994 H 587.22 4.39823 -1.39116 0
M  V30 5995 H 585.463 4.11457 -1.37424 0
M  V30 5996 H 586.134 5.49699 -0.503517 0
M  V30 5997 H 588.61 4.08242 0.804859 0
M  V30 5998 H 587.486 5.28177 1.49399 0
M  V30 5999 H 587.747 3.75821 2.32832 0
M  V30 6000 N 586.806 0.0935595 1.57322 0
M  V30 6001 C 588.052 -0.571355 1.94585 0
M  V30 6002 C 588.385 -1.67929 0.975366 0
M  V30 6003 O 587.66 -1.94498 0.00816206 0
M  V30 6004 C 587.943 -1.12797 3.41978 0
M  V30 6005 C 587.796 -0.0251881 4.49793 0
M  V30 6006 C 589.115 -2.02682 3.90651 0
M  V30 6007 H 586.234 -0.206223 0.70756 0
M  V30 6008 H 588.876 0.163956 1.89291 0
M  V30 6009 H 587.026 -1.75461 3.4662 0
M  V30 6010 H 588.698 0.608979 4.57263 0
M  V30 6011 H 586.941 0.641399 4.29032 0
M  V30 6012 H 587.612 -0.455433 5.50118 0
M  V30 6013 H 590.088 -1.49925 3.88152 0
M  V30 6014 H 588.964 -2.38555 4.94351 0
M  V30 6015 H 589.225 -2.94362 3.29854 0
M  V30 6016 N 588.284 -1.56567 -0.180126 0
M  V30 6017 C 589.216 -1.92275 -1.24751 0
M  V30 6018 C 590.229 -0.814922 -1.40936 0
M  V30 6019 O 591.418 -1.09336 -1.41095 0
M  V30 6020 C 588.518 -2.15265 -2.61752 0
M  V30 6021 C 587.691 -3.46467 -2.66981 0
M  V30 6022 C 586.75 -3.58391 -3.85283 0
M  V30 6023 O 585.776 -4.31086 -3.7169 0
M  V30 6024 N 586.978 -2.92587 -5.01371 0
M  V30 6025 H 589.743 -2.84435 -0.944302 0
M  V30 6026 H 587.304 -1.57617 -0.369952 0
M  V30 6027 H 589.296 -2.20515 -3.39345 0
M  V30 6028 H 587.866 -1.29533 -2.845 0
M  V30 6029 H 587.086 -3.52953 -1.75549 0
M  V30 6030 H 588.374 -4.32819 -2.67479 0
M  V30 6031 H 587.772 -2.3338 -5.15316 0
M  V30 6032 H 586.329 -3.03444 -5.76858 0
M  V30 6033 N 589.762 0.448376 -1.51087 0
M  V30 6034 C 590.99 1.22143 -1.66999 0
M  V30 6035 C 591.405 1.85283 -0.362699 0
M  V30 6036 O 590.762 1.70236 0.65772 0
M  V30 6037 C 590.813 2.31357 -2.7777 0
M  V30 6038 O 590.534 1.70801 -4.03434 0
M  V30 6039 C 592.035 3.21836 -3.04855 0
M  V30 6040 H 589.255 0.368558 -0.560719 0
M  V30 6041 H 591.799 0.532618 -1.97442 0
M  V30 6042 H 589.954 2.95973 -2.49958 0
M  V30 6043 H 590.368 2.42895 -4.64868 0
M  V30 6044 H 591.842 3.94627 -3.85971 0
M  V30 6045 H 592.319 3.81949 -2.16821 0
M  V30 6046 H 592.925 2.62933 -3.34285 0
M  V30 6047 N 591.24 1.41047 0.703093 0
M  V30 6048 C 592.465 1.43537 1.49706 0
M  V30 6049 C 592.89 0.0401853 1.88057 0
M  V30 6050 O 592.248 -0.954785 1.54122 0
M  V30 6051 C 592.296 2.3433 2.74084 0
M  V30 6052 O 591.4 1.79515 3.71279 0
M  V30 6053 H 590.741 0.487454 0.450871 0
M  V30 6054 H 593.271 1.85422 0.86486 0
M  V30 6055 H 593.281 2.49947 3.22476 0
M  V30 6056 H 591.956 3.35708 2.45506 0
M  V30 6057 H 590.533 1.7331 3.30179 0
M  V30 6058 N 592.718 -0.936591 1.26751 0
M  V30 6059 C 593.665 -2.03597 1.08706 0
M  V30 6060 C 594.635 -1.66097 -0.00926542 0
M  V30 6061 O 595.82 -1.90199 0.151377 0
M  V30 6062 C 592.96 -3.3727 0.73094 0
M  V30 6063 C 592.073 -3.87778 1.90399 0
M  V30 6064 C 591.208 -5.09859 1.49056 0
M  V30 6065 C 590.247 -5.5264 2.63164 0
M  V30 6066 N 589.384 -6.65921 2.22471 0
M  V30 6067 H 594.224 -2.18364 2.02784 0
M  V30 6068 H 591.761 -1.06985 1.00958 0
M  V30 6069 H 593.719 -4.14128 0.505328 0
M  V30 6070 H 592.349 -3.22337 -0.172868 0
M  V30 6071 H 591.401 -3.07279 2.2424 0
M  V30 6072 H 592.713 -4.15464 2.76028 0
M  V30 6073 H 591.867 -5.9419 1.22567 0
M  V30 6074 H 590.606 -4.8393 0.60524 0
M  V30 6075 H 589.611 -4.66863 2.90377 0
M  V30 6076 H 590.836 -5.80568 3.52303 0
M  V30 6077 H 588.782 -6.41667 1.36379 0
M  V30 6078 H 588.699 -6.93216 3.01641 0
M  V30 6079 H 589.967 -7.53616 1.99205 0
M  V30 6080 N 594.196 -1.08629 -1.14182 0
M  V30 6081 C 595.607 -0.838003 -1.66836 0
M  V30 6082 C 595.958 0.634885 -1.85644 0
M  V30 6083 O 595.083 1.49008 -1.56926 0
M  V30 6084 C 595.678 -1.51465 -3.03058 0
M  V30 6085 C 594.237 -1.31355 -3.52736 0
M  V30 6086 C 593.384 -1.57599 -2.28162 0
M  V30 6087 H 596.335 -1.24656 -0.982165 0
M  V30 6088 H 596.356 -0.943134 -3.68626 0
M  V30 6089 H 595.868 -2.58661 -2.89337 0
M  V30 6090 H 593.969 -0.262384 -3.71675 0
M  V30 6091 H 594.082 -2.04275 -4.33369 0
M  V30 6092 H 592.446 -0.997659 -2.34348 0
M  V30 6093 H 593.229 -2.66006 -2.17015 0
M  V30 6094 N 595.674 1.31259 -0.872281 0
M  V30 6095 C 596.637 2.26744 -0.334656 0
M  V30 6096 C 597.637 1.52307 0.515681 0
M  V30 6097 O 598.827 1.71148 0.324656 0
M  V30 6098 C 595.959 3.36841 0.524482 0
M  V30 6099 H 597.152 2.75812 -1.17762 0
M  V30 6100 H 594.705 1.42232 -0.648064 0
M  V30 6101 H 595.44 2.93069 1.38855 0
M  V30 6102 H 595.225 3.92009 -0.0844299 0
M  V30 6103 H 596.715 4.07944 0.892838 0
M  V30 6104 N 597.152 0.631951 1.44375 0
M  V30 6105 C 598.102 -0.0943862 2.27805 0
M  V30 6106 C 599.086 -0.815359 1.38711 0
M  V30 6107 O 600.278 -0.701331 1.62513 0
M  V30 6108 C 597.407 -1.07472 3.26044 0
M  V30 6109 C 596.493 -0.353329 4.22626 0
M  V30 6110 N 596.884 0.618512 5.02004 0
M  V30 6111 C 595.182 -0.597662 4.41977 0
M  V30 6112 C 595.883 1.0448 5.7224 0
M  V30 6113 N 594.859 0.383413 5.42246 0
M  V30 6114 H 598.661 0.651672 2.86584 0
M  V30 6115 H 596.175 0.45752 1.55822 0
M  V30 6116 H 598.172 -1.60969 3.84571 0
M  V30 6117 H 596.832 -1.82107 2.68825 0
M  V30 6118 H 597.843 0.996356 5.08226 0
M  V30 6119 H 594.52 -1.32682 3.95856 0
M  V30 6120 H 595.91 1.84773 6.45994 0
M  V30 6121 N 598.631 -1.53133 0.372548 0
M  V30 6122 C 599.561 -2.28876 -0.462412 0
M  V30 6123 C 600.542 -1.31583 -1.07796 0
M  V30 6124 O 601.727 -1.60461 -1.09389 0
M  V30 6125 C 598.857 -3.08317 -1.59868 0
M  V30 6126 C 597.811 -4.13355 -1.11003 0
M  V30 6127 C 597.137 -4.8092 -2.33708 0
M  V30 6128 C 598.437 -5.21955 -0.18983 0
M  V30 6129 H 600.131 -2.9892 0.169511 0
M  V30 6130 H 597.677 -1.43761 0.0829658 0
M  V30 6131 H 599.63 -3.60055 -2.18949 0
M  V30 6132 H 598.354 -2.35976 -2.25794 0
M  V30 6133 H 597.013 -3.62573 -0.541869 0
M  V30 6134 H 596.661 -4.05144 -2.98106 0
M  V30 6135 H 596.361 -5.51904 -2.01682 0
M  V30 6136 H 597.885 -5.35455 -2.93462 0
M  V30 6137 H 599.299 -5.69153 -0.688319 0
M  V30 6138 H 597.696 -6.00087 0.0398887 0
M  V30 6139 H 598.766 -4.78811 0.766057 0
M  V30 6140 N 600.109 -0.101901 -1.5727 0
M  V30 6141 C 601.057 0.872034 -2.15635 0
M  V30 6142 C 602.051 1.28742 -1.10099 0
M  V30 6143 O 603.257 1.26116 -1.28432 0
M  V30 6144 H 599.632 0.299269 -0.689886 0
M  V30 6145 H 601.603 0.355137 -2.96279 0
M  V30 6146 C 600.352 2.11886 -2.7568 0
M  V30 6147 H 599.675 1.80813 -3.56576 0
M  V30 6148 H 601.115 2.78077 -3.20077 0
M  V30 6149 C 599.574 2.89739 -1.7191 0
M  V30 6150 O 600.104 3.84522 -1.16213 0
M  V30 6151 N 598.31 2.53407 -1.42245 0
M  V30 6152 H 597.857 1.76398 -1.87727 0
M  V30 6153 H 597.815 3.05795 -0.730529 0
M  V30 6154 N 601.587 1.56661 0.17182 0
M  V30 6155 C 602.55 1.9549 1.19651 0
M  V30 6156 C 603.55 0.838501 1.37207 0
M  V30 6157 O 604.74 1.10556 1.34622 0
M  V30 6158 C 601.872 2.24927 2.56166 0
M  V30 6159 H 603.065 2.87184 0.864007 0
M  V30 6160 H 600.618 1.50711 0.41425 0
M  V30 6161 H 601.353 1.35944 2.94431 0
M  V30 6162 H 601.138 3.06301 2.4479 0
M  V30 6163 H 602.628 2.55891 3.30014 0
M  V30 6164 N 603.065 -0.440357 1.51323 0
M  V30 6165 C 604.013 -1.55492 1.72988 0
M  V30 6166 C 605.007 -1.58564 0.596138 0
M  V30 6167 O 606.213 -1.62345 0.777443 0
M  V30 6168 H 602.588 -0.516532 0.546533 0
M  V30 6169 H 604.559 -1.34392 2.66423 0
M  V30 6170 C 603.308 -2.93176 1.86931 0
M  V30 6171 H 602.631 -2.91543 2.73574 0
M  V30 6172 H 604.071 -3.70537 2.06103 0
M  V30 6173 C 602.53 -3.30988 0.628365 0
M  V30 6174 O 603.06 -4.01106 -0.218367 0
M  V30 6175 N 601.266 -2.86719 0.473339 0
M  V30 6176 H 600.813 -2.2983 1.16345 0
M  V30 6177 H 600.771 -3.12381 -0.355727 0
M  V30 6178 N 604.543 -1.41418 -0.695603 0
M  V30 6179 C 605.82 -1.31264 -1.45014 0
M  V30 6180 C 606.2 0.0597994 -2.11015 0
M  V30 6181 O 605.548 1.07403 -2.01685 0
M  V30 6182 C 605.758 -2.466 -2.4696 0
M  V30 6183 C 607.106 -2.87763 -3.12214 0
M  V30 6184 O 608.13 -2.46339 -2.57285 0
M  V30 6185 O 606.989 -3.59395 -4.11701 0
M  V30 6186 H 604.083 -0.516576 -0.645816 0
M  V30 6187 H 606.629 -1.53382 -0.726084 0
M  V30 6188 H 605.401 -3.38183 -1.96845 0
M  V30 6189 H 605.024 -2.26358 -3.26876 0
M  V30 6190 N 606.021 0.929856 -1.27246 0
M  V30 6191 C 607.267 1.6802 -1.14634 0
M  V30 6192 C 607.622 1.89965 0.305151 0
M  V30 6193 O 606.915 1.47737 1.22001 0
M  V30 6194 C 607.109 3.05116 -1.86115 0
M  V30 6195 C 606.938 2.96549 -3.38066 0
M  V30 6196 C 605.708 2.98947 -4.0738 0
M  V30 6197 C 607.906 2.7583 -4.34077 0
M  V30 6198 N 605.888 2.80799 -5.45917 0
M  V30 6199 C 607.259 2.66364 -5.59866 0
M  V30 6200 C 609.314 2.60701 -4.24193 0
M  V30 6201 C 608.017 2.43313 -6.76898 0
M  V30 6202 C 610.043 2.39026 -5.40944 0
M  V30 6203 C 609.405 2.30302 -6.65688 0
M  V30 6204 H 605.504 0.62172 -0.474329 0
M  V30 6205 H 608.088 1.09947 -1.60685 0
M  V30 6206 H 606.259 3.61306 -1.42522 0
M  V30 6207 H 607.991 3.69076 -1.66027 0
M  V30 6208 H 604.746 3.09093 -3.58829 0
M  V30 6209 H 605.17 2.74861 -6.18692 0
M  V30 6210 H 609.812 2.66206 -3.28473 0
M  V30 6211 H 607.53 2.36548 -7.72704 0
M  V30 6212 H 611.116 2.28208 -5.35175 0
M  V30 6213 H 609.996 2.13756 -7.54505 0
M  V30 6214 N 607.499 1.09233 1.13605 0
M  V30 6215 C 608.462 0.733553 2.17144 0
M  V30 6216 C 609.462 -0.235873 1.59061 0
M  V30 6217 O 610.652 -0.0143167 1.74194 0
M  V30 6218 C 607.784 0.084471 3.40795 0
M  V30 6219 H 608.977 1.65049 2.50397 0
M  V30 6220 H 606.53 0.891264 1.28399 0
M  V30 6221 H 607.265 -0.843795 3.1313 0
M  V30 6222 H 607.05 0.781985 3.84223 0
M  V30 6223 H 608.54 -0.151216 4.17326 0
M  V30 6224 N 608.977 -1.30795 0.87923 0
M  V30 6225 C 610.205 -2.00527 0.509548 0
M  V30 6226 C 610.62 -1.65944 -0.90045 0
M  V30 6227 O 609.977 -0.893525 -1.5913 0
M  V30 6228 C 610.028 -3.55276 0.667943 0
M  V30 6229 O 609.749 -3.88625 2.02242 0
M  V30 6230 C 611.25 -4.4228 0.300494 0
M  V30 6231 H 608.47 -0.641261 0.197549 0
M  V30 6232 H 611.014 -1.66813 1.18295 0
M  V30 6233 H 609.169 -3.87377 0.0419843 0
M  V30 6234 H 609.583 -4.83334 2.03688 0
M  V30 6235 H 611.057 -5.50061 0.462242 0
M  V30 6236 H 611.534 -4.32556 -0.76106 0
M  V30 6237 H 612.14 -4.15613 0.902536 0
M  V30 6238 N 610.455 -0.639598 -1.44038 0
M  V30 6239 C 611.403 0.0723409 -2.32487 0
M  V30 6240 C 612.397 0.827129 -1.47834 0
M  V30 6241 O 613.603 0.73907 -1.64127 0
M  V30 6242 H 609.978 0.0421696 -0.750817 0
M  V30 6243 H 611.949 -0.691593 -2.90275 0
M  V30 6244 C 610.698 1.03452 -3.31953 0
M  V30 6245 H 610.021 0.46315 -3.97108 0
M  V30 6246 H 611.461 1.502 -3.96505 0
M  V30 6247 C 609.92 2.12392 -2.61518 0
M  V30 6248 O 610.45 3.2059 -2.42044 0
M  V30 6249 N 608.656 1.88563 -2.21116 0
M  V30 6250 H 608.203 1.00577 -2.37154 0
M  V30 6251 H 608.161 2.61651 -1.74316 0
M  V30 6252 N 611.933 1.52934 -0.380664 0
M  V30 6253 C 613.181 2.01069 0.203874 0
M  V30 6254 C 613.502 1.26922 1.4804 0
M  V30 6255 O 612.772 0.386787 1.92044 0
M  V30 6256 H 611.352 0.742882 0.0783279 0
M  V30 6257 H 614.014 1.88099 -0.510368 0
M  V30 6258 H 613.11 3.09258 0.42021 0
M  V30 6259 N 613.412 0.11024 1.57214 0
M  V30 6260 C 614.658 -0.550684 1.9518 0
M  V30 6261 C 614.991 -1.66885 0.993122 0
M  V30 6262 O 614.266 -1.94479 0.0287907 0
M  V30 6263 C 614.549 -1.09163 3.43155 0
M  V30 6264 C 614.402 0.0225198 4.49794 0
M  V30 6265 C 615.721 -1.98527 3.92778 0
M  V30 6266 H 612.84 -0.198706 0.709708 0
M  V30 6267 H 615.482 0.184024 1.89107 0
M  V30 6268 H 613.632 -1.71775 3.48462 0
M  V30 6269 H 615.304 0.657443 4.56591 0
M  V30 6270 H 613.547 0.686868 4.28328 0
M  V30 6271 H 614.218 -0.39706 5.5057 0
M  V30 6272 H 616.694 -1.458 3.8972 0
M  V30 6273 H 615.57 -2.33298 4.96853 0
M  V30 6274 H 615.831 -2.90846 3.32958 0
M  V30 6275 N 614.89 -1.56749 -0.16351 0
M  V30 6276 C 616.138 -1.82074 -0.87713 0
M  V30 6277 C 616.459 -0.688503 -1.82441 0
M  V30 6278 O 615.729 0.291085 -1.93725 0
M  V30 6279 H 614.309 -0.671677 -0.326893 0
M  V30 6280 H 616.971 -1.9423 -0.161459 0
M  V30 6281 H 616.067 -2.76407 -1.44934 0
M  V30 6282 N 616.368 0.432326 -1.51554 0
M  V30 6283 C 617.784 0.769195 -1.39841 0
M  V30 6284 C 617.984 1.95584 -0.484675 0
M  V30 6285 O 617.04 2.52433 0.0582829 0
M  V30 6286 C 618.353 1.04487 -2.81963 0
M  V30 6287 C 619.901 1.149 -2.91148 0
M  V30 6288 C 620.376 1.45758 -4.34187 0
M  V30 6289 N 621.867 1.52671 -4.37317 0
M  V30 6290 C 622.602 1.78129 -5.4503 0
M  V30 6291 N 622.098 2.01345 -6.62897 0
M  V30 6292 N 623.891 1.79953 -5.32516 0
M  V30 6293 H 616.042 -0.349122 -2.09511 0
M  V30 6294 H 618.305 -0.0938113 -0.943347 0
M  V30 6295 H 618.011 0.24557 -3.50842 0
M  V30 6296 H 617.885 1.97119 -3.21596 0
M  V30 6297 H 620.272 1.93891 -2.22464 0
M  V30 6298 H 620.353 0.201568 -2.55005 0
M  V30 6299 H 619.997 0.672917 -5.03423 0
M  V30 6300 H 619.927 2.41715 -4.67848 0
M  V30 6301 H 622.418 1.36612 -3.52343 0
M  V30 6302 H 622.731 2.20155 -7.40778 0
M  V30 6303 H 621.076 1.98657 -6.66003 0
M  V30 6304 H 624.267 1.61337 -4.39418 0
M  V30 6305 H 624.44 1.99455 -6.1654 0
M  V30 6306 N 617.846 1.41785 0.688094 0
M  V30 6307 C 618.793 1.44221 1.80191 0
M  V30 6308 C 619.763 0.295688 1.63447 0
M  V30 6309 O 620.948 0.49783 1.84191 0
M  V30 6310 C 618.088 1.33743 3.1813 0
M  V30 6311 C 617.201 2.58325 3.46254 0
M  V30 6312 C 616.336 2.40086 4.73848 0
M  V30 6313 C 615.375 3.60107 4.94964 0
M  V30 6314 N 614.512 3.40892 6.13789 0
M  V30 6315 H 619.352 2.39411 1.77444 0
M  V30 6316 H 616.889 1.18876 0.866423 0
M  V30 6317 H 618.847 1.25669 3.97823 0
M  V30 6318 H 617.477 0.42157 3.20035 0
M  V30 6319 H 616.529 2.7682 2.60912 0
M  V30 6320 H 617.841 3.4758 3.57756 0
M  V30 6321 H 616.995 2.29522 5.61609 0
M  V30 6322 H 615.734 1.483 4.64606 0
M  V30 6323 H 614.739 3.71118 4.05649 0
M  V30 6324 H 615.964 4.52857 5.06061 0
M  V30 6325 H 613.91 2.51812 6.05745 0
M  V30 6326 H 613.827 4.23727 6.26092 0
M  V30 6327 H 615.095 3.34114 7.04264 0
M  V30 6328 N 619.324 -0.923095 1.27737 0
M  V30 6329 C 620.57 -1.67375 1.14514 0
M  V30 6330 C 620.903 -1.91751 -0.307424 0
M  V30 6331 O 620.178 -1.51119 -1.22447 0
M  V30 6332 C 620.461 -3.03745 1.9342 0
M  V30 6333 C 620.314 -2.86581 3.46686 0
M  V30 6334 C 621.633 -4.04144 1.74228 0
M  V30 6335 H 618.752 -0.607427 0.417374 0
M  V30 6336 H 621.394 -1.07089 1.56946 0
M  V30 6337 H 619.544 -3.55204 1.5736 0
M  V30 6338 H 621.216 -2.42203 3.92601 0
M  V30 6339 H 619.459 -2.21829 3.72793 0
M  V30 6340 H 620.13 -3.83381 3.97143 0
M  V30 6341 H 622.606 -3.61712 2.05678 0
M  V30 6342 H 621.482 -4.97543 2.31824 0
M  V30 6343 H 621.743 -4.36661 0.691373 0
M  V30 6344 N 620.802 -1.09834 -1.13024 0
M  V30 6345 C 622.027 -0.85909 -1.88771 0
M  V30 6346 C 622.452 0.584402 -1.78791 0
M  V30 6347 O 621.81 1.41101 -1.13842 0
M  V30 6348 C 621.858 -1.30427 -3.36186 0
M  V30 6349 O 620.962 -0.465368 -4.09766 0
M  V30 6350 H 620.303 -0.310786 -0.586778 0
M  V30 6351 H 622.833 -1.46355 -1.42973 0
M  V30 6352 H 622.843 -1.2915 -3.8702 0
M  V30 6353 H 621.518 -2.3555 -3.42767 0
M  V30 6354 H 620.095 -0.542814 -3.68928 0
M  V30 6355 N 622.28 1.30327 -0.886154 0
M  V30 6356 C 623.23 2.25668 -0.325248 0
M  V30 6357 C 624.214 1.51318 0.546972 0
M  V30 6358 O 625.406 1.72623 0.391203 0
M  V30 6359 C 622.535 3.40229 0.458167 0
M  V30 6360 C 621.621 4.21933 -0.428208 0
M  V30 6361 N 622.012 4.82129 -1.52921 0
M  V30 6362 C 620.31 4.45439 -0.223535 0
M  V30 6363 C 621.011 5.43351 -2.07714 0
M  V30 6364 N 619.987 5.26002 -1.37195 0
M  V30 6365 H 623.789 2.69759 -1.1665 0
M  V30 6366 H 621.303 1.4478 -0.735691 0
M  V30 6367 H 623.3 4.07579 0.876648 0
M  V30 6368 H 621.96 2.97678 1.29684 0
M  V30 6369 H 622.971 4.81312 -1.91205 0
M  V30 6370 H 619.648 4.13481 0.577875 0
M  V30 6371 H 621.038 6.01118 -3.00178 0
M  V30 6372 N 623.758 0.647228 1.43697 0
M  V30 6373 C 624.983 0.164083 2.0675 0
M  V30 6374 C 625.408 -1.15892 1.48158 0
M  V30 6375 O 624.766 -1.71459 0.589194 0
M  V30 6376 C 624.814 0.0800368 3.60511 0
M  V30 6377 O 623.918 -0.959453 4.01084 0
M  V30 6378 H 623.259 0.0921288 0.657578 0
M  V30 6379 H 625.789 0.88846 1.84303 0
M  V30 6380 H 625.799 -0.105263 4.07864 0
M  V30 6381 H 624.474 1.04586 4.02535 0
M  V30 6382 H 623.051 -0.747425 3.65333 0
M  V30 6383 N 625.236 -1.5273 0.388769 0
M  V30 6384 C 626.466 -2.05693 -0.193397 0
M  V30 6385 C 626.874 -1.26038 -1.41107 0
M  V30 6386 O 626.217 -0.30001 -1.81234 0
M  V30 6387 C 626.279 -3.53962 -0.628561 0
M  V30 6388 C 625.943 -4.54519 0.475576 0
M  V30 6389 C 626.94 -5.02526 1.33281 0
M  V30 6390 C 624.625 -4.98174 0.642453 0
M  V30 6391 C 626.619 -5.92812 2.34205 0
M  V30 6392 C 624.306 -5.88262 1.65503 0
M  V30 6393 C 625.304 -6.35473 2.50325 0
M  V30 6394 O 624.992 -7.23781 3.49852 0
M  V30 6395 H 624.724 -0.675197 -0.0329395 0
M  V30 6396 H 627.278 -1.97835 0.552326 0
M  V30 6397 H 625.508 -3.59437 -1.42625 0
M  V30 6398 H 627.197 -3.89669 -1.13633 0
M  V30 6399 H 627.963 -4.6953 1.21519 0
M  V30 6400 H 623.842 -4.60999 -0.00805093 0
M  V30 6401 H 627.386 -6.29585 3.00447 0
M  V30 6402 H 623.283 -6.20672 1.77304 0
M  V30 6403 H 624.051 -7.4184 3.45855 0
M  V30 6404 N 626.714 -0.118576 -1.57153 0
M  V30 6405 C 627.962 0.538461 -1.94795 0
M  V30 6406 C 628.283 1.67243 -1.00274 0
M  V30 6407 O 627.553 1.95811 -0.0589692 0
M  V30 6408 H 626.133 0.201904 -0.719197 0
M  V30 6409 H 628.795 -0.187418 -1.93997 0
M  V30 6410 H 627.891 0.933315 -2.97818 0
M  V30 6411 N 628.193 1.56834 0.155195 0
M  V30 6412 C 629.423 1.86778 0.883044 0
M  V30 6413 C 629.831 0.703824 1.75622 0
M  V30 6414 O 629.174 -0.33581 1.80605 0
M  V30 6415 C 629.236 3.1133 1.79761 0
M  V30 6416 C 628.9 4.43504 1.10242 0
M  V30 6417 C 629.897 5.17859 0.460204 0
M  V30 6418 C 627.582 4.90233 1.09437 0
M  V30 6419 C 629.576 6.37144 -0.180782 0
M  V30 6420 C 627.263 6.09444 0.449569 0
M  V30 6421 C 628.261 6.82744 -0.186888 0
M  V30 6422 O 627.949 7.99692 -0.821486 0
M  V30 6423 H 627.681 0.62352 0.261149 0
M  V30 6424 H 630.235 2.04813 0.155204 0
M  V30 6425 H 628.465 2.89282 2.56618 0
M  V30 6426 H 630.154 3.27587 2.39669 0
M  V30 6427 H 630.92 4.8283 0.458289 0
M  V30 6428 H 626.799 4.33109 1.57917 0
M  V30 6429 H 630.343 6.94296 -0.678154 0
M  V30 6430 H 626.24 6.43936 0.449123 0
M  V30 6431 H 627.008 8.15306 -0.722337 0
M  V30 6432 N 629.671 -0.424282 1.51781 0
M  V30 6433 C 630.919 -1.17028 1.64769 0
M  V30 6434 C 631.24 -1.91409 0.372523 0
M  V30 6435 O 630.51 -1.86091 -0.612108 0
M  V30 6436 H 629.09 -0.434992 0.607282 0
M  V30 6437 H 631.752 -0.485169 1.88765 0
M  V30 6438 H 630.848 -1.8927 2.4816 0
M  V30 6439 N 631.149 -1.42148 -0.680565 0
M  V30 6440 C 632.079 -1.4796 -1.80638 0
M  V30 6441 C 633.06 -0.336728 -1.66734 0
M  V30 6442 O 634.245 -0.550247 -1.86242 0
M  V30 6443 C 631.375 -1.37569 -3.18892 0
M  V30 6444 C 630.329 -2.49823 -3.47524 0
M  V30 6445 C 629.655 -2.24491 -4.85291 0
M  V30 6446 C 630.955 -3.92144 -3.44994 0
M  V30 6447 H 632.649 -2.42184 -1.76032 0
M  V30 6448 H 630.195 -1.16566 -0.845481 0
M  V30 6449 H 632.148 -1.40243 -3.97379 0
M  V30 6450 H 630.872 -0.398357 -3.24162 0
M  V30 6451 H 629.531 -2.46455 -2.71395 0
M  V30 6452 H 629.179 -1.25066 -4.87204 0
M  V30 6453 H 628.879 -2.99722 -5.05411 0
M  V30 6454 H 630.403 -2.28906 -5.66069 0
M  V30 6455 H 631.817 -3.97145 -4.13459 0
M  V30 6456 H 630.214 -4.67179 -3.76648 0
M  V30 6457 H 631.284 -4.19225 -2.43676 0
M  V30 6458 N 632.627 0.916307 -1.28225 0
M  V30 6459 C 633.557 2.0352 -1.14464 0
M  V30 6460 C 634.538 1.70045 -0.0430844 0
M  V30 6461 O 635.723 1.92954 -0.219619 0
M  V30 6462 C 632.853 3.37889 -0.803027 0
M  V30 6463 C 631.807 3.85516 -1.85908 0
M  V30 6464 C 631.133 5.1682 -1.37116 0
M  V30 6465 C 632.433 4.07655 -3.26519 0
M  V30 6466 H 634.127 2.1529 -2.08064 0
M  V30 6467 H 631.673 1.03446 -1.00174 0
M  V30 6468 H 633.626 4.15654 -0.693537 0
M  V30 6469 H 632.35 3.26164 0.168674 0
M  V30 6470 H 631.009 3.09953 -1.95767 0
M  V30 6471 H 630.657 5.01497 -0.38859 0
M  V30 6472 H 630.357 5.49657 -2.07728 0
M  V30 6473 H 631.881 5.97143 -1.27484 0
M  V30 6474 H 633.295 4.75953 -3.19596 0
M  V30 6475 H 631.692 4.51818 -3.94943 0
M  V30 6476 H 632.762 3.12553 -3.70727 0
M  V30 6477 N 634.105 1.10431 1.1244 0
M  V30 6478 C 635.382 0.758797 1.80282 0
M  V30 6479 C 635.762 -0.754727 1.97147 0
M  V30 6480 O 635.11 -1.68094 1.54779 0
M  V30 6481 C 635.32 1.50982 3.14651 0
M  V30 6482 C 636.668 1.68232 3.8985 0
M  V30 6483 O 637.692 1.47319 3.24308 0
M  V30 6484 O 636.551 2.02905 5.07437 0
M  V30 6485 H 633.645 0.273756 0.780376 0
M  V30 6486 H 636.191 1.20713 1.19275 0
M  V30 6487 H 634.963 2.53989 2.97666 0
M  V30 6488 H 634.586 1.05435 3.83366 0
M  V30 6489 N 635.583 -1.29855 0.893053 0
M  V30 6490 C 636.546 -2.26183 0.370687 0
M  V30 6491 C 637.546 -1.53108 -0.491385 0
M  V30 6492 O 638.736 -1.71643 -0.297386 0
M  V30 6493 C 635.868 -3.37633 -0.470827 0
M  V30 6494 H 637.061 -2.73903 1.22135 0
M  V30 6495 H 634.614 -1.41183 0.67061 0
M  V30 6496 H 635.349 -2.95241 -1.34175 0
M  V30 6497 H 635.134 -3.91825 0.146784 0
M  V30 6498 H 636.624 -4.09313 -0.827825 0
M  V30 6499 N 637.061 -0.65484 -1.43351 0
M  V30 6500 C 638.309 -0.168559 -2.01396 0
M  V30 6501 C 638.63 1.22235 -1.51933 0
M  V30 6502 O 637.9 1.81685 -0.732627 0
M  V30 6503 H 636.48 -0.0593244 -0.744641 0
M  V30 6504 H 639.142 -0.846871 -1.75539 0
M  V30 6505 H 638.238 -0.154428 -3.11718 0
M  V30 6506 N 638.539 1.52521 -0.396863 0
M  V30 6507 C 639.502 2.2527 0.422604 0
M  V30 6508 C 640.502 1.27184 0.983913 0
M  V30 6509 O 641.692 1.51222 0.864723 0
M  V30 6510 C 638.824 3.01356 1.59365 0
M  V30 6511 H 640.017 2.99133 -0.214416 0
M  V30 6512 H 637.57 1.55587 -0.149128 0
M  V30 6513 H 638.305 2.31813 2.26789 0
M  V30 6514 H 638.09 3.73357 1.19779 0
M  V30 6515 H 639.58 3.56571 2.17363 0
M  V30 6516 N 640.017 0.126909 1.57088 0
M  V30 6517 C 640.95 -0.857844 2.11462 0
M  V30 6518 C 641.928 -1.25569 1.03301 0
M  V30 6519 O 643.112 -1.35535 1.31006 0
M  V30 6520 C 640.239 -2.14912 2.61784 0
M  V30 6521 C 639.285 -1.89874 3.81903 0
M  V30 6522 S 640.118 -1.10785 5.23915 0
M  V30 6523 C 641.274 -2.41075 5.7761 0
M  V30 6524 H 641.507 -0.395384 2.94659 0
M  V30 6525 H 639.04 -0.0870151 1.54155 0
M  V30 6526 H 640.998 -2.89101 2.91429 0
M  V30 6527 H 639.659 -2.58275 1.78754 0
M  V30 6528 H 638.852 -2.85572 4.15289 0
M  V30 6529 H 638.454 -1.23802 3.52915 0
M  V30 6530 H 640.746 -3.36864 5.87817 0
M  V30 6531 H 641.689 -2.12223 6.75549 0
M  V30 6532 H 642.097 -2.50804 5.05725 0
M  V30 6533 N 641.495 -1.56914 -0.146875 0
M  V30 6534 C 642.741 -1.83628 -0.860741 0
M  V30 6535 C 643.074 -0.708528 -1.80813 0
M  V30 6536 O 642.349 0.287838 -1.92358 0
M  V30 6537 C 642.632 -3.20836 -1.63511 0
M  V30 6538 C 642.485 -4.44174 -0.709199 0
M  V30 6539 C 643.804 -3.55268 -2.59756 0
M  V30 6540 H 640.923 -0.667949 -0.311468 0
M  V30 6541 H 643.565 -1.89582 -0.125936 0
M  V30 6542 H 641.715 -3.15891 -2.26153 0
M  V30 6543 H 643.387 -4.61205 -0.0937781 0
M  V30 6544 H 641.63 -4.33796 -0.0187856 0
M  V30 6545 H 642.301 -5.36785 -1.28707 0
M  V30 6546 H 644.777 -3.60824 -2.07232 0
M  V30 6547 H 643.653 -4.52303 -3.10987 0
M  V30 6548 H 643.914 -2.81231 -3.41118 0
M  V30 6549 N 642.974 0.416227 -1.52004 0
M  V30 6550 C 643.937 1.48926 -1.74223 0
M  V30 6551 C 644.937 1.48693 -0.612119 0
M  V30 6552 O 646.127 1.50343 -0.879921 0
M  V30 6553 C 643.259 2.88372 -1.81809 0
M  V30 6554 H 644.452 1.3052 -2.70008 0
M  V30 6555 H 642.005 0.646271 -1.42313 0
M  V30 6556 H 642.74 3.12157 -0.879135 0
M  V30 6557 H 642.525 2.89944 -2.6396 0
M  V30 6558 H 644.015 3.66173 -2.00766 0
M  V30 6559 N 644.452 1.42507 0.673017 0
M  V30 6560 C 645.382 1.48916 1.79851 0
M  V30 6561 C 646.363 0.345566 1.66553 0
M  V30 6562 O 647.548 0.560116 1.85947 0
M  V30 6563 C 644.678 1.39258 3.18158 0
M  V30 6564 C 643.632 2.51662 3.46194 0
M  V30 6565 C 642.958 2.27062 4.84094 0
M  V30 6566 C 644.258 3.93968 3.42909 0
M  V30 6567 H 645.952 2.43114 1.74745 0
M  V30 6568 H 643.498 1.17013 0.839288 0
M  V30 6569 H 645.451 1.42349 3.96629 0
M  V30 6570 H 644.175 0.415542 3.23946 0
M  V30 6571 H 642.834 2.47891 2.70084 0
M  V30 6572 H 642.482 1.27648 4.86534 0
M  V30 6573 H 642.182 3.02398 5.03815 0
M  V30 6574 H 643.706 2.31905 5.64847 0
M  V30 6575 H 645.12 3.99332 4.11347 0
M  V30 6576 H 643.517 4.6917 3.74165 0
M  V30 6577 H 644.587 4.20512 2.41449 0
M  V30 6578 N 645.93 -0.909495 1.28709 0
M  V30 6579 C 646.893 -1.99399 1.13016 0
M  V30 6580 C 647.893 -1.60654 0.068536 0
M  V30 6581 O 649.083 -1.71334 0.314671 0
M  V30 6582 C 646.215 -3.33078 0.726085 0
M  V30 6583 H 647.408 -2.14751 2.09338 0
M  V30 6584 H 644.961 -1.09272 1.11756 0
M  V30 6585 H 645.696 -3.23428 -0.23771 0
M  V30 6586 H 645.481 -3.62562 1.49302 0
M  V30 6587 H 646.971 -4.12681 0.639058 0
M  V30 6588 N 647.408 -1.11026 -1.11852 0
M  V30 6589 C 648.34 -0.72249 -2.17515 0
M  V30 6590 C 649.353 0.243782 -1.60964 0
M  V30 6591 O 650.542 0.0273252 -1.78479 0
M  V30 6592 C 647.642 -0.0463979 -3.38868 0
M  V30 6593 C 646.815 -1.0384 -4.24895 0
M  V30 6594 C 645.874 -0.392659 -5.24733 0
M  V30 6595 O 644.9 -1.0453 -5.5952 0
M  V30 6596 N 646.102 0.846296 -5.74298 0
M  V30 6597 H 648.867 -1.63161 -2.51393 0
M  V30 6598 H 646.428 -0.999899 -1.27333 0
M  V30 6599 H 648.42 0.397215 -4.02746 0
M  V30 6600 H 646.99 0.765231 -3.03089 0
M  V30 6601 H 646.21 -1.6601 -3.57539 0
M  V30 6602 H 647.498 -1.70968 -4.79215 0
M  V30 6603 H 646.896 1.39578 -5.4821 0
M  V30 6604 H 645.453 1.23296 -6.40032 0
M  V30 6605 N 648.886 1.2938 -0.899927 0
M  V30 6606 C 649.834 2.29675 -0.367698 0
M  V30 6607 C 650.828 1.60787 0.533282 0
M  V30 6608 O 652.034 1.75126 0.416058 0
M  V30 6609 H 648.409 0.745284 -0.100279 0
M  V30 6610 H 650.38 2.72008 -1.22696 0
M  V30 6611 C 649.129 3.45512 0.389483 0
M  V30 6612 H 648.452 3.98713 -0.294575 0
M  V30 6613 H 649.892 4.17725 0.726744 0
M  V30 6614 C 648.351 2.969 1.59223 0
M  V30 6615 O 648.881 2.98195 2.69152 0
M  V30 6616 N 647.087 2.52728 1.43447 0
M  V30 6617 H 646.634 2.51873 0.540148 0
M  V30 6618 H 646.592 2.20561 2.24054 0
M  V30 6619 N 650.364 0.662433 1.43002 0
M  V30 6620 C 651.61 0.188492 2.02525 0
M  V30 6621 C 651.965 -1.18752 1.51379 0
M  V30 6622 O 651.258 -1.78313 0.701065 0
M  V30 6623 C 651.452 0.149363 3.57088 0
M  V30 6624 C 651.281 1.52004 4.23231 0
M  V30 6625 C 650.051 2.11473 4.5892 0
M  V30 6626 C 652.249 2.46028 4.51635 0
M  V30 6627 N 650.231 3.4145 5.10181 0
M  V30 6628 C 651.602 3.60647 5.04315 0
M  V30 6629 C 653.657 2.44715 4.33612 0
M  V30 6630 C 652.36 4.74189 5.40867 0
M  V30 6631 C 654.386 3.57344 4.71232 0
M  V30 6632 C 653.748 4.70689 5.24053 0
M  V30 6633 H 649.847 0.113615 0.773703 0
M  V30 6634 H 652.431 0.872738 1.74044 0
M  V30 6635 H 650.602 -0.504255 3.85113 0
M  V30 6636 H 652.334 -0.336307 4.033 0
M  V30 6637 H 649.089 1.64087 4.44266 0
M  V30 6638 H 649.513 4.07987 5.40255 0
M  V30 6639 H 654.155 1.58318 3.9204 0
M  V30 6640 H 651.873 5.61271 5.81378 0
M  V30 6641 H 655.459 3.5754 4.58973 0
M  V30 6642 H 654.339 5.56398 5.52621 0
M  V30 6643 N 651.842 -1.52309 0.404946 0
M  V30 6644 C 653.07 -2.06185 -0.171818 0
M  V30 6645 C 653.485 -1.27536 -1.39212 0
M  V30 6646 O 652.842 -0.326112 -1.79563 0
M  V30 6647 C 652.893 -3.57647 -0.526417 0
M  V30 6648 O 652.614 -4.3332 0.645417 0
M  V30 6649 C 654.115 -4.27925 -1.15736 0
M  V30 6650 H 651.335 -0.670632 -0.0222328 0
M  V30 6651 H 653.879 -1.96259 0.574692 0
M  V30 6652 H 652.034 -3.67595 -1.22282 0
M  V30 6653 H 652.448 -5.23328 0.35042 0
M  V30 6654 H 653.922 -5.35093 -1.35572 0
M  V30 6655 H 654.399 -3.84134 -2.12926 0
M  V30 6656 H 655.005 -4.22335 -0.501281 0
M  V30 6657 N 653.32 -0.135238 -1.57019 0
M  V30 6658 C 654.548 0.526066 -2.001 0
M  V30 6659 C 654.963 1.59184 -1.01519 0
M  V30 6660 O 654.32 1.82497 -0.0104258 0
M  V30 6661 C 654.371 1.13744 -3.43139 0
M  V30 6662 O 654.092 0.114259 -4.37951 0
M  V30 6663 C 655.593 1.8805 -4.01438 0
M  V30 6664 H 652.813 0.137962 -0.656664 0
M  V30 6665 H 655.357 -0.226359 -2.03243 0
M  V30 6666 H 653.512 1.84056 -3.40885 0
M  V30 6667 H 653.926 0.56058 -5.21496 0
M  V30 6668 H 655.4 2.26133 -5.03555 0
M  V30 6669 H 655.877 2.76194 -3.41487 0
M  V30 6670 H 656.483 1.22464 -4.07287 0
M  V30 6671 N 654.798 1.5699 0.138552 0
M  V30 6672 C 656.044 1.84081 0.85099 0
M  V30 6673 C 656.377 0.718107 1.80435 0
M  V30 6674 O 655.652 -0.277633 1.92508 0
M  V30 6675 C 655.935 3.21699 1.61808 0
M  V30 6676 C 655.788 4.44544 0.685633 0
M  V30 6677 C 657.107 3.5664 2.57868 0
M  V30 6678 H 654.226 0.669592 0.307922 0
M  V30 6679 H 656.868 1.89646 0.11588 0
M  V30 6680 H 655.018 3.17086 2.24474 0
M  V30 6681 H 656.69 4.61248 0.0693179 0
M  V30 6682 H 654.933 4.338 -0.00421993 0
M  V30 6683 H 655.604 5.3746 1.25858 0
M  V30 6684 H 658.08 3.61918 2.05316 0
M  V30 6685 H 656.956 4.53946 3.08584 0
M  V30 6686 H 657.217 2.83036 3.39622 0
M  V30 6687 N 656.276 -0.40816 1.52223 0
M  V30 6688 C 657.239 -1.48 1.7501 0
M  V30 6689 C 658.239 -1.48367 0.619996 0
M  V30 6690 O 659.429 -1.49874 0.887881 0
M  V30 6691 C 656.561 -2.87403 1.83336 0
M  V30 6692 H 657.754 -1.29086 2.70697 0
M  V30 6693 H 655.307 -0.638715 1.42654 0
M  V30 6694 H 656.042 -3.11686 0.895677 0
M  V30 6695 H 655.827 -2.8854 2.65494 0
M  V30 6696 H 657.317 -3.65103 2.02705 0
M  V30 6697 N 657.755 -1.42862 -0.66545 0
M  V30 6698 C 659.166 -1.3901 -1.24632 0
M  V30 6699 C 659.517 -0.0880285 -1.96002 0
M  V30 6700 O 658.642 0.812947 -2.0055 0
M  V30 6701 C 659.237 -2.51806 -2.2667 0
M  V30 6702 C 657.796 -2.51257 -2.80262 0
M  V30 6703 C 656.943 -2.30124 -1.5472 0
M  V30 6704 H 659.894 -1.5194 -0.458237 0
M  V30 6705 H 659.915 -2.22593 -3.08598 0
M  V30 6706 H 659.427 -3.46558 -1.74697 0
M  V30 6707 H 657.528 -1.60349 -3.36332 0
M  V30 6708 H 657.641 -3.48614 -3.28641 0
M  V30 6709 H 656.005 -1.7856 -1.81627 0
M  V30 6710 H 656.788 -3.26945 -1.04699 0
M  V30 6711 N 659.233 0.902656 -1.29189 0
M  V30 6712 C 660.165 2.01149 -1.09872 0
M  V30 6713 C 661.178 1.62732 -0.0471046 0
M  V30 6714 O 662.367 1.76107 -0.29132 0
M  V30 6715 C 659.467 3.32612 -0.649818 0
M  V30 6716 C 658.64 3.99574 -1.7793 0
M  V30 6717 C 657.699 5.09325 -1.32191 0
M  V30 6718 O 656.725 5.31919 -2.02611 0
M  V30 6719 N 657.927 5.80185 -0.191171 0
M  V30 6720 H 660.692 2.18276 -2.05368 0
M  V30 6721 H 658.253 1.07466 -1.2109 0
M  V30 6722 H 660.245 4.03375 -0.327199 0
M  V30 6723 H 658.815 3.11876 0.212597 0
M  V30 6724 H 658.035 3.22213 -2.27095 0
M  V30 6725 H 659.323 4.41056 -2.53668 0
M  V30 6726 H 658.721 5.64312 0.396016 0
M  V30 6727 H 657.278 6.5176 0.0721001 0
M  V30 6728 N 660.711 1.11618 1.11262 0
M  V30 6729 C 662.127 0.850468 1.35053 0
M  V30 6730 C 662.327 -0.523868 1.94571 0
M  V30 6731 O 661.383 -1.2743 2.17986 0
M  V30 6732 C 662.696 1.96005 2.28041 0
M  V30 6733 C 664.244 1.98993 2.416 0
M  V30 6734 C 664.719 3.0916 3.37911 0
M  V30 6735 N 666.21 3.08547 3.45475 0
M  V30 6736 C 666.945 3.9043 4.19943 0
M  V30 6737 N 666.441 4.8228 4.97371 0
M  V30 6738 N 668.234 3.786 4.15474 0
M  V30 6739 H 660.385 2.00184 0.709932 0
M  V30 6740 H 662.648 0.870635 0.375099 0
M  V30 6741 H 662.354 2.9499 1.91503 0
M  V30 6742 H 662.228 1.85782 3.28275 0
M  V30 6743 H 664.615 1.00633 2.77411 0
M  V30 6744 H 664.696 2.13292 1.4121 0
M  V30 6745 H 664.34 4.07748 3.02827 0
M  V30 6746 H 664.27 2.92102 4.3816 0
M  V30 6747 H 666.761 2.42 2.90249 0
M  V30 6748 H 667.074 5.41289 5.51567 0
M  V30 6749 H 665.419 4.863 4.96525 0
M  V30 6750 H 668.61 3.06185 3.54074 0
M  V30 6751 H 668.783 4.42647 4.73253 0
M  V30 6752 N 662.189 -1.289 0.906776 0
M  V30 6753 C 663.136 -2.2751 0.388313 0
M  V30 6754 C 664.106 -1.57301 -0.533439 0
M  V30 6755 O 665.291 -1.85243 -0.457148 0
M  V30 6756 C 662.431 -3.43091 -0.37181 0
M  V30 6757 C 661.544 -4.28066 0.581647 0
M  V30 6758 C 660.679 -5.30837 -0.19623 0
M  V30 6759 C 659.718 -6.07472 0.751294 0
M  V30 6760 N 658.855 -7.021 0.00737727 0
M  V30 6761 H 663.695 -2.71237 1.23428 0
M  V30 6762 H 661.232 -1.33397 0.619962 0
M  V30 6763 H 663.19 -4.08888 -0.828641 0
M  V30 6764 H 661.82 -3.00374 -1.18218 0
M  V30 6765 H 660.872 -3.62378 1.157 0
M  V30 6766 H 662.184 -4.81382 1.30665 0
M  V30 6767 H 661.338 -6.02485 -0.71394 0
M  V30 6768 H 660.077 -4.78272 -0.954324 0
M  V30 6769 H 659.082 -5.34682 1.28044 0
M  V30 6770 H 660.307 -6.62126 1.50883 0
M  V30 6771 H 658.253 -6.51894 -0.732854 0
M  V30 6772 H 658.17 -7.53004 0.672334 0
M  V30 6773 H 659.438 -7.77956 -0.490365 0
M  V30 6774 N 663.667 -0.670007 -1.42649 0
M  V30 6775 C 664.907 -0.194106 -2.03476 0
M  V30 6776 C 665.271 1.1755 -1.51809 0
M  V30 6777 O 666.472 1.74579 -2.04391 0
M  V30 6778 C 664.743 -0.221828 -3.56711 0
M  V30 6779 S 666.302 0.183772 -4.38415 0
M  V30 6780 H 663.12 -0.0802478 -0.706457 0
M  V30 6781 H 665.722 -0.882092 -1.74469 0
M  V30 6782 H 664.426 -1.22107 -3.91814 0
M  V30 6783 H 663.957 0.486149 -3.90385 0
M  V30 6784 H 665.972 1.41839 -4.75496 0
M  V30 6785 N 665.145 1.52092 -0.413018 0
M  V30 6786 C 666.394 2.01041 0.16287 0
M  V30 6787 C 666.707 1.30288 1.45892 0
M  V30 6788 O 667.913 1.70075 2.11629 0
M  V30 6789 C 666.369 3.58283 0.340806 0
M  V30 6790 C 665.977 4.37955 -0.943377 0
M  V30 6791 C 667.721 4.15452 0.871774 0
M  V30 6792 C 665.628 5.86847 -0.732417 0
M  V30 6793 H 664.558 0.751224 0.0646414 0
M  V30 6794 H 667.209 1.75404 -0.539059 0
M  V30 6795 H 665.591 3.80266 1.10516 0
M  V30 6796 H 666.765 4.2773 -1.71418 0
M  V30 6797 H 665.08 3.92122 -1.40105 0
M  V30 6798 H 667.677 5.24375 1.0457 0
M  V30 6799 H 668.02 3.73057 1.84755 0
M  V30 6800 H 668.553 3.97452 0.166377 0
M  V30 6801 H 665.292 6.33609 -1.67986 0
M  V30 6802 H 664.812 5.998 -0.000980058 0
M  V30 6803 H 666.491 6.45906 -0.376105 0
M  V30 6804 N 666.623 0.143563 1.56945 0
M  V30 6805 C 667.872 -0.50835 1.95189 0
M  V30 6806 C 668.185 -1.66239 1.03073 0
M  V30 6807 O 669.391 -2.3787 1.30882 0
M  V30 6808 C 667.847 -0.955735 3.46978 0
M  V30 6809 C 667.455 0.171183 4.47673 0
M  V30 6810 C 669.199 -1.57763 3.94095 0
M  V30 6811 C 667.106 -0.294279 5.90667 0
M  V30 6812 H 666.036 -0.193679 0.728701 0
M  V30 6813 H 668.687 0.227357 1.82086 0
M  V30 6814 H 667.069 -1.7466 3.55401 0
M  V30 6815 H 668.243 0.948049 4.50942 0
M  V30 6816 H 666.558 0.701273 4.10452 0
M  V30 6817 H 669.155 -1.93745 4.98364 0
M  V30 6818 H 669.498 -2.46531 3.35452 0
M  V30 6819 H 670.031 -0.851728 3.88575 0
M  V30 6820 H 666.77 0.557939 6.53121 0
M  V30 6821 H 666.29 -1.0371 5.90766 0
M  V30 6822 H 667.969 -0.747426 6.42668 0
M  V30 6823 N 668.101 -1.57061 -0.130224 0
M  V30 6824 C 669.378 -1.75205 -0.869631 0
M  V30 6825 C 669.758 -0.716063 -1.98584 0
M  V30 6826 O 669.106 0.262032 -2.26993 0
M  V30 6827 C 669.316 -3.19835 -1.39666 0
M  V30 6828 C 670.664 -3.82011 -1.85345 0
M  V30 6829 O 671.688 -3.23368 -1.49371 0
M  V30 6830 O 670.547 -4.85064 -2.51744 0
M  V30 6831 H 667.641 -0.716977 -0.412157 0
M  V30 6832 H 670.187 -1.69311 -0.11484 0
M  V30 6833 H 668.959 -3.86745 -0.595288 0
M  V30 6834 H 668.582 -3.30222 -2.21448 0
M  V30 6835 N 669.579 0.400081 -1.52437 0
M  V30 6836 C 670.828 1.14332 -1.66166 0
M  V30 6837 C 671.141 1.91419 -0.402253 0
M  V30 6838 O 672.347 2.6824 -0.419487 0
M  V30 6839 C 670.803 2.08137 -2.9361 0
M  V30 6840 C 670.411 1.36524 -4.26691 0
M  V30 6841 C 672.155 2.82664 -3.16703 0
M  V30 6842 C 670.062 2.29031 -5.45251 0
M  V30 6843 H 668.992 0.430499 -0.61902 0
M  V30 6844 H 671.643 0.407017 -1.78929 0
M  V30 6845 H 670.025 2.85358 -2.74567 0
M  V30 6846 H 671.199 0.646061 -4.56249 0
M  V30 6847 H 669.514 0.74002 -4.09771 0
M  V30 6848 H 672.111 3.52037 -4.0246 0
M  V30 6849 H 672.454 3.46122 -2.31312 0
M  V30 6850 H 672.987 2.12541 -3.36261 0
M  V30 6851 H 669.726 1.70206 -6.33017 0
M  V30 6852 H 669.246 2.98896 -5.2002 0
M  V30 6853 H 670.925 2.89359 -5.78689 0
M  V30 6854 N 671.057 1.43213 0.657864 0
M  V30 6855 C 671.987 1.50815 1.78262 0
M  V30 6856 C 672.968 0.363211 1.66177 0
M  V30 6857 O 674.153 0.579806 1.85343 0
M  V30 6858 C 671.283 1.42625 3.16663 0
M  V30 6859 C 670.237 2.5532 3.43505 0
M  V30 6860 C 669.563 2.32184 4.81658 0
M  V30 6861 C 670.863 3.97583 3.38711 0
M  V30 6862 H 672.557 2.44954 1.72157 0
M  V30 6863 H 670.103 1.17896 0.82683 0
M  V30 6864 H 672.056 1.46548 3.95097 0
M  V30 6865 H 670.78 0.449877 3.23487 0
M  V30 6866 H 669.439 2.50742 2.6744 0
M  V30 6867 H 669.087 1.32801 4.85153 0
M  V30 6868 H 668.787 3.07724 5.00579 0
M  V30 6869 H 670.311 2.37883 5.62356 0
M  V30 6870 H 671.725 4.03673 4.07089 0
M  V30 6871 H 670.122 4.73112 3.69168 0
M  V30 6872 H 671.192 4.23049 2.36976 0
M  V30 6873 N 672.536 -0.895792 1.29666 0
M  V30 6874 C 673.764 -1.68001 1.20761 0
M  V30 6875 C 674.179 -1.87379 -0.231187 0
M  V30 6876 O 673.536 -1.41359 -1.15429 0
M  V30 6877 C 673.587 -3.06236 1.92098 0
M  V30 6878 O 673.308 -2.8774 3.30359 0
M  V30 6879 C 674.809 -4.00652 1.89717 0
M  V30 6880 H 672.029 -0.524591 0.418384 0
M  V30 6881 H 674.573 -1.11995 1.71106 0
M  V30 6882 H 672.728 -3.59007 1.45578 0
M  V30 6883 H 673.142 -3.75359 3.66342 0
M  V30 6884 H 674.616 -4.95051 2.44189 0
M  V30 6885 H 675.093 -4.30424 0.873595 0
M  V30 6886 H 675.699 -3.53815 2.35998 0
M  V30 6887 N 674.014 -1.12206 -1.10668 0
M  V30 6888 C 674.924 -0.800686 -2.20513 0
M  V30 6889 C 675.94 0.209512 -1.72734 0
M  V30 6890 O 677.116 0.043705 -2.01353 0
M  V30 6891 C 674.181 -0.257353 -3.45744 0
M  V30 6892 C 673.242 -1.32718 -4.0827 0
M  V30 6893 C 672.475 -0.809674 -5.27522 0
M  V30 6894 O 672.698 0.35742 -5.69279 0
M  V30 6895 O 671.632 -1.57816 -5.80842 0
M  V30 6896 H 675.458 -1.71807 -2.50432 0
M  V30 6897 H 673.043 -0.898546 -1.19359 0
M  V30 6898 H 674.925 0.0408849 -4.2138 0
M  V30 6899 H 673.6 0.632627 -3.17458 0
M  V30 6900 H 672.507 -1.67855 -3.34329 0
M  V30 6901 H 673.84 -2.19083 -4.40753 0
M  V30 6902 N 675.492 1.28418 -0.913599 0
M  V30 6903 C 676.903 1.77024 -0.593237 0
M  V30 6904 C 677.254 1.74779 0.891441 0
M  V30 6905 O 676.379 1.34237 1.69733 0
M  V30 6906 C 676.974 3.21456 -1.07011 0
M  V30 6907 C 675.533 3.67786 -0.800664 0
M  V30 6908 C 674.68 2.48185 -1.23691 0
M  V30 6909 H 677.631 1.14883 -1.09487 0
M  V30 6910 H 677.652 3.78269 -0.411481 0
M  V30 6911 H 677.164 3.23058 -2.1507 0
M  V30 6912 H 675.265 3.71644 0.266725 0
M  V30 6913 H 675.378 4.57934 -1.4083 0
M  V30 6914 H 673.742 2.46116 -0.655655 0
M  V30 6915 H 674.525 2.52506 -2.32585 0
M  V30 6916 N 676.97 0.677563 1.42291 0
M  V30 6917 C 677.917 0.000947061 2.308 0
M  V30 6918 C 678.887 -0.789889 1.46116 0
M  V30 6919 O 680.072 -0.761578 1.74942 0
M  V30 6920 C 677.212 -0.942387 3.31984 0
M  V30 6921 C 676.325 -0.14508 4.31756 0
M  V30 6922 C 675.46 -1.08442 5.20013 0
M  V30 6923 C 674.499 -0.278958 6.11464 0
M  V30 6924 N 673.636 -1.17115 6.92263 0
M  V30 6925 H 678.476 0.761521 2.88106 0
M  V30 6926 H 676.013 0.38727 1.41911 0
M  V30 6927 H 677.971 -1.50317 3.89179 0
M  V30 6928 H 676.601 -1.66956 2.76271 0
M  V30 6929 H 675.653 0.532368 3.76656 0
M  V30 6930 H 676.965 0.48015 4.96484 0
M  V30 6931 H 676.119 -1.71504 5.81955 0
M  V30 6932 H 674.858 -1.74353 4.55469 0
M  V30 6933 H 673.863 0.364856 5.48588 0
M  V30 6934 H 675.088 0.376099 6.78058 0
M  V30 6935 H 673.034 -1.81661 6.30345 0
M  V30 6936 H 672.951 -0.601063 7.53607 0
M  V30 6937 H 674.219 -1.78915 7.58689 0
M  V30 6938 N 678.448 -1.51871 0.421078 0
M  V30 6939 C 679.725 -1.9447 -0.20993 0
M  V30 6940 C 680.105 -1.35875 -1.61558 0
M  V30 6941 O 679.453 -0.539294 -2.22045 0
M  V30 6942 C 679.663 -3.48402 -0.204165 0
M  V30 6943 C 681.011 -4.2254 -0.417696 0
M  V30 6944 O 682.035 -3.55074 -0.282999 0
M  V30 6945 O 680.894 -5.422 -0.684239 0
M  V30 6946 H 677.988 -0.815283 -0.138718 0
M  V30 6947 H 680.534 -1.62832 0.477884 0
M  V30 6948 H 679.306 -3.83464 0.779183 0
M  V30 6949 H 678.929 -3.86436 -0.935576 0
M  V30 6950 N 679.926 -0.151884 -1.56866 0
M  V30 6951 C 681.175 0.497992 -1.95456 0
M  V30 6952 C 681.488 1.6569 -1.03953 0
M  V30 6953 O 682.694 2.37173 -1.32142 0
M  V30 6954 C 681.15 0.93732 -3.4748 0
M  V30 6955 C 680.758 -0.194921 -4.47576 0
M  V30 6956 C 682.502 1.55671 -3.94926 0
M  V30 6957 C 680.409 0.26295 -5.90815 0
M  V30 6958 H 679.339 0.189811 -0.729717 0
M  V30 6959 H 681.99 -0.237011 -1.81963 0
M  V30 6960 H 680.372 1.72773 -3.56322 0
M  V30 6961 H 681.546 -0.971951 -4.50433 0
M  V30 6962 H 679.861 -0.72303 -4.10075 0
M  V30 6963 H 682.458 1.91099 -4.99385 0
M  V30 6964 H 682.801 2.44748 -3.36755 0
M  V30 6965 H 683.334 0.831109 -3.89021 0
M  V30 6966 H 680.073 -0.592568 -6.52816 0
M  V30 6967 H 679.593 1.00575 -5.91308 0
M  V30 6968 H 681.272 0.713333 -6.43056 0
M  V30 6969 N 681.404 1.57128 0.121893 0
M  V30 6970 C 682.652 1.84335 0.828548 0
M  V30 6971 C 682.973 0.736632 1.80551 0
M  V30 6972 O 682.243 -0.23962 1.94429 0
M  V30 6973 H 680.823 0.680108 0.30897 0
M  V30 6974 H 683.485 1.9459 0.109906 0
M  V30 6975 H 682.581 2.80152 1.37554 0
M  V30 6976 N 682.882 -0.391992 1.52647 0
M  V30 6977 C 683.829 -1.47866 1.77213 0
M  V30 6978 C 684.799 -1.54286 0.615223 0
M  V30 6979 O 685.984 -1.7059 0.854622 0
M  V30 6980 C 683.124 -2.85129 1.94411 0
M  V30 6981 C 682.237 -2.87883 3.22098 0
M  V30 6982 C 681.372 -4.16553 3.29631 0
M  V30 6983 C 680.411 -4.13348 4.51453 0
M  V30 6984 N 679.548 -5.33619 4.56284 0
M  V30 6985 H 684.388 -1.26219 2.6995 0
M  V30 6986 H 681.925 -0.612367 1.33748 0
M  V30 6987 H 683.883 -3.64833 2.02367 0
M  V30 6988 H 682.513 -3.05232 1.05038 0
M  V30 6989 H 681.565 -2.00567 3.23229 0
M  V30 6990 H 682.877 -2.81382 4.11856 0
M  V30 6991 H 682.031 -5.0466 3.36753 0
M  V30 6992 H 680.77 -4.25773 2.37842 0
M  V30 6993 H 679.775 -3.23629 4.44459 0
M  V30 6994 H 681 -4.05754 5.44555 0
M  V30 6995 H 678.946 -5.43474 3.67385 0
M  V30 6996 H 678.863 -5.29182 5.3991 0
M  V30 6997 H 680.131 -6.23632 4.67657 0
M  V30 6998 N 684.36 -1.4356 -0.65026 0
M  V30 6999 C 685.776 -1.27025 -0.966269 0
M  V30 7000 C 685.976 -0.192117 -2.00582 0
M  V30 7001 O 685.032 0.428459 -2.48838 0
M  V30 7002 C 686.345 -2.63556 -1.44772 0
M  V30 7003 C 687.893 -2.71111 -1.56421 0
M  V30 7004 C 688.368 -4.08067 -2.07956 0
M  V30 7005 N 689.859 -4.10146 -2.15254 0
M  V30 7006 C 690.594 -5.12952 -2.56258 0
M  V30 7007 N 690.09 -6.26129 -2.96537 0
M  V30 7008 N 691.883 -5.00306 -2.56224 0
M  V30 7009 H 684.034 -2.12367 0.0375758 0
M  V30 7010 H 686.297 -0.946894 -0.0457782 0
M  V30 7011 H 686.003 -3.43429 -0.758271 0
M  V30 7012 H 685.877 -2.89152 -2.42221 0
M  V30 7013 H 688.264 -1.91569 -2.24467 0
M  V30 7014 H 688.345 -2.49277 -0.573967 0
M  V30 7015 H 687.989 -4.88077 -1.40511 0
M  V30 7016 H 687.919 -4.27266 -3.07817 0
M  V30 7017 H 690.41 -3.28453 -1.86887 0
M  V30 7018 H 690.723 -7.00403 -3.26582 0
M  V30 7019 H 689.068 -6.29597 -2.94334 0
M  V30 7020 H 692.259 -4.10952 -2.24135 0
M  V30 7021 H 692.432 -5.80553 -2.87857 0
M  V30 7022 N 685.838 0.888903 -1.30139 0
M  V30 7023 C 686.768 2.01046 -1.18755 0
M  V30 7024 C 687.749 1.69916 -0.0791438 0
M  V30 7025 O 688.934 1.92445 -0.260498 0
M  V30 7026 C 686.064 3.36109 -0.874518 0
M  V30 7027 C 685.018 3.81486 -1.94043 0
M  V30 7028 C 684.344 5.13796 -1.48047 0
M  V30 7029 C 685.644 4.00637 -3.35093 0
M  V30 7030 H 687.338 2.10828 -2.12584 0
M  V30 7031 H 684.884 1.01298 -1.02346 0
M  V30 7032 H 686.837 4.14089 -0.781548 0
M  V30 7033 H 685.561 3.26449 0.0994519 0
M  V30 7034 H 684.22 3.05731 -2.02297 0
M  V30 7035 H 683.868 5.0056 -0.494878 0
M  V30 7036 H 683.568 5.45127 -2.19341 0
M  V30 7037 H 685.092 5.94305 -1.40121 0
M  V30 7038 H 686.506 4.69067 -3.2962 0
M  V30 7039 H 684.903 4.43339 -4.04438 0
M  V30 7040 H 685.973 3.0462 -3.77273 0
M  V30 7041 N 687.317 1.12792 1.10072 0
M  V30 7042 C 688.227 0.812369 2.20086 0
M  V30 7043 C 689.243 -0.200349 1.72843 0
M  V30 7044 O 690.419 -0.0330262 2.01373 0
M  V30 7045 C 687.484 0.275685 3.45602 0
M  V30 7046 C 686.545 1.34881 4.07561 0
M  V30 7047 C 685.778 0.837639 5.27086 0
M  V30 7048 O 686.001 -0.327224 5.69461 0
M  V30 7049 O 684.935 1.60894 5.79997 0
M  V30 7050 H 688.761 1.73133 2.49517 0
M  V30 7051 H 686.346 0.904863 1.18881 0
M  V30 7052 H 688.228 -0.0185375 4.21396 0
M  V30 7053 H 686.903 -0.615783 3.17789 0
M  V30 7054 H 685.81 1.69625 3.33434 0
M  V30 7055 H 687.143 2.21418 4.39585 0
M  V30 7056 N 688.795 -1.27931 0.920396 0
M  V30 7057 C 690.041 -1.94977 0.557832 0
M  V30 7058 C 690.374 -1.72224 -0.897365 0
M  V30 7059 O 689.649 -1.04705 -1.63912 0
M  V30 7060 C 689.932 -3.49289 0.875741 0
M  V30 7061 C 689.785 -3.81416 2.38416 0
M  V30 7062 C 691.104 -4.38486 0.376517 0
M  V30 7063 H 688.223 -0.708164 0.20414 0
M  V30 7064 H 690.865 -1.5118 1.15085 0
M  V30 7065 H 689.015 -3.86724 0.371062 0
M  V30 7066 H 690.687 -3.53813 2.95997 0
M  V30 7067 H 688.93 -3.28225 2.83639 0
M  V30 7068 H 689.601 -4.89198 2.55713 0
M  V30 7069 H 692.077 -4.08161 0.808945 0
M  V30 7070 H 690.953 -5.45296 0.627976 0
M  V30 7071 H 691.214 -4.36143 -0.723293 0
M  V30 7072 N 690.273 -0.685099 -1.4193 0
M  V30 7073 C 691.689 -0.355632 -1.55587 0
M  V30 7074 C 691.889 1.13823 -1.66273 0
M  V30 7075 O 690.945 1.92387 -1.63534 0
M  V30 7076 C 692.258 -1.09498 -2.80055 0
M  V30 7077 C 693.806 -1.07831 -2.93839 0
M  V30 7078 C 694.281 -1.79919 -4.21181 0
M  V30 7079 N 695.772 -1.76837 -4.28115 0
M  V30 7080 C 696.507 -2.29463 -5.25485 0
M  V30 7081 N 696.003 -2.90516 -6.28945 0
M  V30 7082 N 697.796 -2.19779 -5.17353 0
M  V30 7083 H 689.947 -1.65412 -1.33239 0
M  V30 7084 H 692.21 -0.697453 -0.642078 0
M  V30 7085 H 691.916 -2.14997 -2.78333 0
M  V30 7086 H 691.79 -0.666813 -3.71259 0
M  V30 7087 H 694.177 -0.0316152 -2.95083 0
M  V30 7088 H 694.258 -1.54545 -2.03837 0
M  V30 7089 H 693.902 -2.84562 -4.20698 0
M  V30 7090 H 693.832 -1.30647 -5.10136 0
M  V30 7091 H 696.323 -1.32315 -3.53979 0
M  V30 7092 H 696.636 -3.28266 -6.99615 0
M  V30 7093 H 694.981 -2.94589 -6.29478 0
M  V30 7094 H 698.172 -1.71763 -4.35448 0
M  V30 7095 H 698.345 -2.61097 -5.9307 0
M  V30 7096 N 691.751 1.51645 -0.429126 0
M  V30 7097 C 692.698 2.27542 0.386446 0
M  V30 7098 C 693.668 1.30786 1.02393 0
M  V30 7099 O 694.853 1.59678 1.0444 0
M  V30 7100 C 691.993 3.11457 1.48623 0
M  V30 7101 C 691.106 4.23196 0.867691 0
M  V30 7102 C 690.241 4.94435 1.94183 0
M  V30 7103 C 689.28 5.98108 1.30129 0
M  V30 7104 N 688.417 6.62786 2.31644 0
M  V30 7105 H 693.257 2.968 -0.267155 0
M  V30 7106 H 690.794 1.46397 -0.143591 0
M  V30 7107 H 692.752 3.58429 2.13506 0
M  V30 7108 H 691.382 2.44329 2.10957 0
M  V30 7109 H 690.434 3.80248 0.107373 0
M  V30 7110 H 691.746 4.97499 0.35997 0
M  V30 7111 H 690.9 5.44914 2.66747 0
M  V30 7112 H 689.639 4.19744 2.48326 0
M  V30 7113 H 688.644 5.4693 0.561082 0
M  V30 7114 H 689.869 6.74751 0.767303 0
M  V30 7115 H 687.815 5.90913 2.84883 0
M  V30 7116 H 687.732 7.32828 1.85741 0
M  V30 7117 H 689 7.17897 3.03717 0
M  V30 7118 N 693.229 0.160201 1.56784 0
M  V30 7119 C 694.457 -0.494165 2.00912 0
M  V30 7120 C 694.872 -1.57548 1.04038 0
M  V30 7121 O 694.229 -1.82457 0.0394581 0
M  V30 7122 C 694.28 -1.08271 3.44905 0
M  V30 7123 O 694.001 -0.0445704 4.38077 0
M  V30 7124 C 695.502 -1.8164 4.04378 0
M  V30 7125 H 692.722 -0.127498 0.658776 0
M  V30 7126 H 695.266 0.258665 2.02858 0
M  V30 7127 H 693.421 -1.78609 3.4377 0
M  V30 7128 H 693.835 -0.477544 5.22322 0
M  V30 7129 H 695.309 -2.18094 5.07089 0
M  V30 7130 H 695.786 -2.70727 3.45838 0
M  V30 7131 H 696.392 -1.15969 4.09184 0
M  V30 7132 N 694.707 -1.5719 -0.113559 0
M  V30 7133 C 695.953 -1.85412 -0.821597 0
M  V30 7134 C 696.286 -0.746722 -1.7927 0
M  V30 7135 O 695.561 0.246971 -1.92926 0
M  V30 7136 C 695.844 -3.24233 -1.56669 0
M  V30 7137 C 695.697 -4.45578 -0.614823 0
M  V30 7138 C 697.016 -3.60697 -2.52161 0
M  V30 7139 H 694.135 -0.674406 -0.29723 0
M  V30 7140 H 696.777 -1.89807 -0.085694 0
M  V30 7141 H 694.927 -3.20617 -2.19401 0
M  V30 7142 H 696.599 -4.613 0.00407137 0
M  V30 7143 H 694.842 -4.33738 0.0732332 0
M  V30 7144 H 695.513 -5.39395 -1.17292 0
M  V30 7145 H 697.989 -3.65139 -1.99532 0
M  V30 7146 H 696.865 -4.58798 -3.01323 0
M  V30 7147 H 697.126 -2.88403 -3.35076 0
M  V30 7148 N 696.185 0.383891 -1.52853 0
M  V30 7149 C 697.413 1.1495 -1.7203 0
M  V30 7150 C 697.828 1.83578 -0.440957 0
M  V30 7151 O 697.185 1.72872 0.584925 0
M  V30 7152 C 697.236 2.19368 -2.87333 0
M  V30 7153 O 696.957 1.53536 -4.10315 0
M  V30 7154 C 698.458 3.08616 -3.18231 0
M  V30 7155 H 695.678 0.344445 -0.575846 0
M  V30 7156 H 698.222 0.448397 -1.99524 0
M  V30 7157 H 696.377 2.85105 -2.62286 0
M  V30 7158 H 696.791 2.2296 -4.74752 0
M  V30 7159 H 698.265 3.77902 -4.02361 0
M  V30 7160 H 698.742 3.72409 -2.32826 0
M  V30 7161 H 699.348 2.48518 -3.45136 0
M  V30 7162 N 697.663 1.43903 0.642637 0
M  V30 7163 C 698.626 1.49538 1.73698 0
M  V30 7164 C 699.626 0.378776 1.56275 0
M  V30 7165 O 700.816 0.64095 1.6198 0
M  V30 7166 C 697.948 1.35821 3.12675 0
M  V30 7167 H 699.141 2.47008 1.70079 0
M  V30 7168 H 696.694 1.30824 0.85526 0
M  V30 7169 H 697.429 0.393994 3.21898 0
M  V30 7170 H 697.214 2.16776 3.26727 0
M  V30 7171 H 698.704 1.4272 3.92455 0
M  V30 7172 N 699.141 -0.881989 1.30609 0
M  V30 7173 C 700.381 -1.64817 1.20891 0
M  V30 7174 C 700.745 -1.90593 -0.232043 0
M  V30 7175 O 701.946 -2.64964 -0.452516 0
M  V30 7176 C 700.217 -2.95006 2.01758 0
M  V30 7177 S 701.776 -3.85953 2.08771 0
M  V30 7178 H 698.594 -0.565651 0.430767 0
M  V30 7179 H 701.196 -1.04665 1.65122 0
M  V30 7180 H 699.9 -2.73973 3.0556 0
M  V30 7181 H 699.431 -3.60189 1.582 0
M  V30 7182 H 701.446 -4.81037 1.21727 0
M  V30 7183 N 700.619 -1.13374 -1.09472 0
M  V30 7184 C 701.549 -0.833268 -2.18126 0
M  V30 7185 C 702.53 0.207169 -1.68834 0
M  V30 7186 O 703.715 0.0662012 -1.94087 0
M  V30 7187 C 700.845 -0.297979 -3.46019 0
M  V30 7188 C 699.799 -1.27261 -4.08642 0
M  V30 7189 C 699.125 -0.597104 -5.31356 0
M  V30 7190 C 700.425 -2.63095 -4.51197 0
M  V30 7191 H 702.119 -1.74182 -2.43518 0
M  V30 7192 H 699.665 -0.838921 -1.17039 0
M  V30 7193 H 701.618 -0.0754444 -4.21332 0
M  V30 7194 H 700.342 0.645959 -3.20148 0
M  V30 7195 H 699.001 -1.48113 -3.35348 0
M  V30 7196 H 698.649 0.352293 -5.01765 0
M  V30 7197 H 698.349 -1.24734 -5.74208 0
M  V30 7198 H 699.873 -0.38384 -6.09392 0
M  V30 7199 H 701.287 -2.46214 -5.17737 0
M  V30 7200 H 699.684 -3.2429 -5.04932 0
M  V30 7201 H 700.754 -3.20793 -3.6362 0
M  V30 7202 N 702.098 1.27442 -0.927168 0
M  V30 7203 C 703.346 1.94007 -0.566203 0
M  V30 7204 C 703.667 1.7323 0.895345 0
M  V30 7205 O 702.937 1.07973 1.63459 0
M  V30 7206 H 701.517 0.717917 -0.206409 0
M  V30 7207 H 704.179 1.55161 -1.17945 0
M  V30 7208 H 703.275 3.02401 -0.772028 0
M  V30 7209 N 703.576 0.692616 1.41565 0
M  V30 7210 C 704.486 0.0258451 2.34586 0
M  V30 7211 C 705.502 -0.769324 1.56069 0
M  V30 7212 O 706.678 -0.707563 1.88562 0
M  V30 7213 C 703.743 -0.901289 3.3478 0
M  V30 7214 C 702.804 -0.0986579 4.29187 0
M  V30 7215 C 702.037 -0.981634 5.24595 0
M  V30 7216 O 702.26 -2.22115 5.25377 0
M  V30 7217 O 701.194 -0.432892 6.00341 0
M  V30 7218 H 705.02 0.792537 2.93177 0
M  V30 7219 H 702.605 0.452935 1.42369 0
M  V30 7220 H 704.487 -1.43302 3.96286 0
M  V30 7221 H 703.162 -1.64752 2.78637 0
M  V30 7222 H 702.069 0.477604 3.71039 0
M  V30 7223 H 703.402 0.608848 4.8842 0
M  V30 7224 N 705.054 -1.51416 0.437162 0
M  V30 7225 C 706.465 -1.86682 -0.0260005 0
M  V30 7226 C 706.816 -1.35432 -1.4196 0
M  V30 7227 O 705.941 -0.705055 -2.04592 0
M  V30 7228 C 706.536 -3.38757 -0.0539577 0
M  V30 7229 C 705.095 -3.7356 -0.461532 0
M  V30 7230 C 704.242 -2.75134 0.345924 0
M  V30 7231 H 707.193 -1.44642 0.653013 0
M  V30 7232 H 707.214 -3.70573 -0.863478 0
M  V30 7233 H 706.726 -3.76028 0.96045 0
M  V30 7234 H 704.827 -3.41878 -1.48155 0
M  V30 7235 H 704.94 -4.78737 -0.186451 0
M  V30 7236 H 703.304 -2.53947 -0.195739 0
M  V30 7237 H 704.087 -3.15247 1.35921 0
M  V30 7238 N 706.532 -0.168513 -1.56696 0
M  V30 7239 C 707.48 0.779791 -2.19139 0
M  V30 7240 C 708.474 1.23957 -1.1546 0
M  V30 7241 O 709.68 1.20555 -1.33666 0
M  V30 7242 H 706.055 0.269739 -0.701958 0
M  V30 7243 H 708.026 0.229156 -2.97519 0
M  V30 7244 C 706.775 2.00003 -2.84419 0
M  V30 7245 H 706.098 1.65527 -3.63924 0
M  V30 7246 H 707.538 2.64251 -3.31583 0
M  V30 7247 C 705.997 2.82187 -1.84044 0
M  V30 7248 O 706.527 3.79247 -1.32418 0
M  V30 7249 N 704.733 2.47145 -1.52864 0
M  V30 7250 H 704.28 1.68277 -1.9504 0
M  V30 7251 H 704.238 3.02422 -0.859569 0
M  V30 7252 N 708.01 1.57248 0.105221 0
M  V30 7253 C 708.96 1.9777 1.1345 0
M  V30 7254 C 709.944 0.854654 1.36325 0
M  V30 7255 O 711.136 1.11844 1.37186 0
M  V30 7256 C 708.265 2.39717 2.45745 0
M  V30 7257 C 707.351 3.58686 2.26286 0
M  V30 7258 N 707.742 4.73942 1.76671 0
M  V30 7259 C 706.04 3.64586 2.56891 0
M  V30 7260 C 706.741 5.55923 1.71245 0
M  V30 7261 N 705.717 4.98803 2.16093 0
M  V30 7262 H 709.519 2.84336 0.743664 0
M  V30 7263 H 707.033 1.59359 0.312787 0
M  V30 7264 H 709.03 2.66971 3.20206 0
M  V30 7265 H 707.69 1.54523 2.85574 0
M  V30 7266 H 708.701 4.9689 1.46016 0
M  V30 7267 H 705.378 2.90031 3.00314 0
M  V30 7268 H 706.768 6.58398 1.34022 0
M  V30 7269 N 709.488 -0.375779 1.53054 0
M  V30 7270 C 710.737 -1.11674 1.67964 0
M  V30 7271 C 711.05 -1.90755 0.432655 0
M  V30 7272 O 712.256 -2.67538 0.462109 0
M  V30 7273 C 710.712 -2.0344 2.96884 0
M  V30 7274 C 710.32 -1.29719 4.28809 0
M  V30 7275 C 712.064 -2.7759 3.2116 0
M  V30 7276 C 709.971 -2.20327 5.48826 0
M  V30 7277 H 708.901 -0.420597 0.625791 0
M  V30 7278 H 711.552 -0.378499 1.79554 0
M  V30 7279 H 709.934 -2.80953 2.79072 0
M  V30 7280 H 711.108 -0.573394 4.57219 0
M  V30 7281 H 709.423 -0.674735 4.10897 0
M  V30 7282 H 712.02 -3.4559 4.0801 0
M  V30 7283 H 712.363 -3.42399 2.36789 0
M  V30 7284 H 712.896 -2.07164 3.396 0
M  V30 7285 H 709.635 -1.60113 6.35645 0
M  V30 7286 H 709.155 -2.90585 5.2471 0
M  V30 7287 H 710.834 -2.80116 5.83219 0
M  V30 7288 N 710.966 -1.44241 -0.634997 0
M  V30 7289 C 712.194 -1.50296 -1.42193 0
M  V30 7290 C 712.609 -0.12658 -1.88375 0
M  V30 7291 O 711.966 0.86678 -1.60603 0
M  V30 7292 C 712.017 -2.46437 -2.64482 0
M  V30 7293 O 711.738 -3.78724 -2.20226 0
M  V30 7294 C 713.239 -2.61918 -3.57651 0
M  V30 7295 H 710.459 -0.509865 -0.43621 0
M  V30 7296 H 713.003 -1.89167 -0.776921 0
M  V30 7297 H 711.158 -2.10712 -3.25083 0
M  V30 7298 H 711.572 -4.30595 -2.9948 0
M  V30 7299 H 713.046 -3.33225 -4.40074 0
M  V30 7300 H 713.523 -1.67017 -4.06204 0
M  V30 7301 H 714.129 -2.98528 -3.02921 0
M  V30 7302 N 712.444 0.87505 -1.31075 0
M  V30 7303 C 713.86 1.15997 -1.09622 0
M  V30 7304 C 714.06 2.01036 0.136611 0
M  V30 7305 O 713.116 2.38559 0.827397 0
M  V30 7306 C 714.429 1.85702 -2.36506 0
M  V30 7307 C 715.977 1.98425 -2.42067 0
M  V30 7308 C 716.452 2.71544 -3.68819 0
M  V30 7309 N 717.943 2.79084 -3.69684 0
M  V30 7310 C 718.678 3.36259 -4.64454 0
M  V30 7311 N 718.174 3.94406 -5.69575 0
M  V30 7312 N 719.967 3.34169 -4.51982 0
M  V30 7313 H 712.118 0.308258 -2.10151 0
M  V30 7314 H 714.381 0.199145 -0.926847 0
M  V30 7315 H 714.087 1.30663 -3.26527 0
M  V30 7316 H 713.961 2.86017 -2.45915 0
M  V30 7317 H 716.348 2.5263 -1.52518 0
M  V30 7318 H 716.429 0.971682 -2.36626 0
M  V30 7319 H 716.073 2.18008 -4.58732 0
M  V30 7320 H 716.003 3.73198 -3.71525 0
M  V30 7321 H 718.494 2.3781 -2.93691 0
M  V30 7322 H 718.807 4.36129 -6.37974 0
M  V30 7323 H 717.152 3.92797 -5.73355 0
M  V30 7324 H 720.343 2.87977 -3.69035 0
M  V30 7325 H 720.516 3.78431 -5.26017 0
M  V30 7326 N 713.922 1.13953 1.08869 0
M  V30 7327 C 714.852 0.844824 2.17681 0
M  V30 7328 C 715.833 -0.198213 1.68941 0
M  V30 7329 O 717.018 -0.0559073 1.9412 0
M  V30 7330 C 714.148 0.316325 3.45856 0
M  V30 7331 C 713.102 1.29426 4.07962 0
M  V30 7332 C 712.428 0.625275 5.31031 0
M  V30 7333 C 713.728 2.65484 4.49795 0
M  V30 7334 H 715.422 1.75471 2.42591 0
M  V30 7335 H 712.968 0.845116 1.16592 0
M  V30 7336 H 714.921 0.0977876 4.21287 0
M  V30 7337 H 713.645 -0.628972 3.20486 0
M  V30 7338 H 712.304 1.49889 3.34558 0
M  V30 7339 H 711.952 -0.325678 5.01945 0
M  V30 7340 H 711.652 1.27777 5.73539 0
M  V30 7341 H 713.176 0.416152 6.0918 0
M  V30 7342 H 714.59 2.48957 5.16424 0
M  V30 7343 H 712.987 3.26963 5.03205 0
M  V30 7344 H 714.057 3.22717 3.61914 0
M  V30 7345 N 715.4 -1.26948 0.933913 0
M  V30 7346 C 716.31 -2.30366 0.443671 0
M  V30 7347 C 717.326 -1.67284 -0.478745 0
M  V30 7348 O 718.502 -1.98156 -0.360043 0
M  V30 7349 C 715.567 -3.45485 -0.289974 0
M  V30 7350 C 714.628 -4.24069 0.668114 0
M  V30 7351 C 713.861 -5.33691 -0.0306138 0
M  V30 7352 O 714.084 -5.5656 -1.24888 0
M  V30 7353 O 713.018 -5.98441 0.644384 0
M  V30 7354 H 716.844 -2.74349 1.30254 0
M  V30 7355 H 714.429 -1.32012 0.699506 0
M  V30 7356 H 716.311 -4.15486 -0.70353 0
M  V30 7357 H 714.986 -3.03546 -1.12435 0
M  V30 7358 H 713.893 -3.56579 1.13147 0
M  V30 7359 H 715.226 -4.69739 1.46989 0
M  V30 7360 N 716.879 -0.700114 -1.41195 0
M  V30 7361 C 717.829 -0.0144098 -2.27995 0
M  V30 7362 C 718.813 0.748249 -1.42443 0
M  V30 7363 O 720.005 0.622995 -1.65674 0
M  V30 7364 C 717.134 0.917938 -3.308 0
M  V30 7365 C 716.22 0.151286 -4.2383 0
M  V30 7366 N 716.611 -0.85732 -4.98481 0
M  V30 7367 C 714.909 0.386108 -4.44326 0
M  V30 7368 C 715.61 -1.31663 -5.66604 0
M  V30 7369 N 714.586 -0.641689 -5.39799 0
M  V30 7370 H 718.388 -0.787662 -2.83149 0
M  V30 7371 H 715.902 -0.531344 -1.53462 0
M  V30 7372 H 717.899 1.42437 -3.91813 0
M  V30 7373 H 716.559 1.69074 -2.77208 0
M  V30 7374 H 717.57 -1.2377 -5.02893 0
M  V30 7375 H 714.247 1.13644 -4.01735 0
M  V30 7376 H 715.637 -2.15384 -6.36443 0
M  V30 7377 N 718.357 1.51182 -0.445186 0
M  V30 7378 C 719.32 2.26501 0.350722 0
M  V30 7379 C 720.32 1.3025 0.942952 0
M  V30 7380 O 721.51 1.53897 0.816175 0
M  V30 7381 C 718.642 3.06274 1.49697 0
M  V30 7382 H 719.835 2.98299 -0.309474 0
M  V30 7383 H 717.388 1.55034 -0.198551 0
M  V30 7384 H 718.123 2.38911 2.19299 0
M  V30 7385 H 717.908 3.76979 1.0784 0
M  V30 7386 H 719.398 3.63306 2.05909 0
M  V30 7387 N 719.835 0.176821 1.56605 0
M  V30 7388 C 720.767 -0.782836 2.15417 0
M  V30 7389 C 721.78 -1.18982 1.11117 0
M  V30 7390 O 722.969 -1.12872 1.38283 0
M  V30 7391 C 720.069 -2.06596 2.68647 0
M  V30 7392 C 719.242 -1.82167 3.9766 0
M  V30 7393 C 718.301 -2.94751 4.35899 0
M  V30 7394 O 717.327 -2.65148 5.03672 0
M  V30 7395 N 718.529 -4.2267 3.97907 0
M  V30 7396 H 721.294 -0.280012 2.98389 0
M  V30 7397 H 718.855 -0.00577529 1.61899 0
M  V30 7398 H 720.847 -2.81018 2.91223 0
M  V30 7399 H 719.417 -2.48054 1.90232 0
M  V30 7400 H 718.637 -0.916208 3.83405 0
M  V30 7401 H 719.925 -1.6322 4.81909 0
M  V30 7402 H 719.323 -4.4958 3.43357 0
M  V30 7403 H 717.88 -4.93778 4.25472 0
M  V30 7404 N 721.313 -1.57302 -0.09688 0
M  V30 7405 C 722.276 -2.00976 -1.10188 0
M  V30 7406 C 723.276 -0.903009 -1.3305 0
M  V30 7407 O 724.466 -1.16853 -1.29194 0
M  V30 7408 C 721.598 -2.36893 -2.45142 0
M  V30 7409 H 722.791 -2.9098 -0.726003 0
M  V30 7410 H 720.344 -1.52515 -0.341872 0
M  V30 7411 H 721.079 -1.49837 -2.8761 0
M  V30 7412 H 720.864 -3.17632 -2.29897 0
M  V30 7413 H 722.354 -2.71345 -3.1743 0
M  V30 7414 N 722.791 0.367657 -1.53252 0
M  V30 7415 C 724.207 0.709191 -1.42978 0
M  V30 7416 C 724.407 1.93352 -0.567193 0
M  V30 7417 O 723.463 2.52453 -0.0488349 0
M  V30 7418 C 724.776 0.924338 -2.86141 0
M  V30 7419 C 726.324 1.02448 -2.95759 0
M  V30 7420 C 726.799 1.27211 -4.39979 0
M  V30 7421 N 728.29 1.33986 -4.43398 0
M  V30 7422 C 729.025 1.54852 -5.52095 0
M  V30 7423 N 728.521 1.73049 -6.7084 0
M  V30 7424 N 730.314 1.57205 -5.39669 0
M  V30 7425 H 722.465 -0.437669 -2.07842 0
M  V30 7426 H 724.728 -0.133737 -0.938519 0
M  V30 7427 H 724.434 0.0965455 -3.51567 0
M  V30 7428 H 724.308 1.83302 -3.29667 0
M  V30 7429 H 726.695 1.84282 -2.30487 0
M  V30 7430 H 726.776 0.0932301 -2.5563 0
M  V30 7431 H 726.42 0.458792 -5.05824 0
M  V30 7432 H 726.35 2.21654 -4.77679 0
M  V30 7433 H 728.841 1.21545 -3.5782 0
M  V30 7434 H 729.154 1.88538 -7.49449 0
M  V30 7435 H 727.499 1.70231 -6.7383 0
M  V30 7436 H 730.69 1.42555 -4.45865 0
M  V30 7437 H 730.863 1.73126 -6.24445 0
M  V30 7438 N 724.269 1.44576 0.627338 0
M  V30 7439 C 725.199 1.54562 1.75022 0
M  V30 7440 C 726.18 0.398378 1.65369 0
M  V30 7441 O 727.365 0.61899 1.84071 0
M  V30 7442 C 724.495 1.49309 3.13567 0
M  V30 7443 C 723.449 2.62549 3.38012 0
M  V30 7444 C 722.775 2.42348 4.76625 0
M  V30 7445 C 724.075 4.04678 3.30202 0
M  V30 7446 H 725.769 2.4855 1.66922 0
M  V30 7447 H 723.315 1.19624 0.801636 0
M  V30 7448 H 725.268 1.54895 3.919 0
M  V30 7449 H 723.992 0.518392 3.2246 0
M  V30 7450 H 722.651 2.56358 2.62061 0
M  V30 7451 H 722.299 1.43062 4.82226 0
M  V30 7452 H 721.999 3.18273 4.93939 0
M  V30 7453 H 723.523 2.49758 5.57183 0
M  V30 7454 H 724.937 4.12217 3.98435 0
M  V30 7455 H 723.334 4.80836 3.5905 0
M  V30 7456 H 724.404 4.2798 2.27949 0
M  V30 7457 N 725.747 -0.868086 1.31537 0
M  V30 7458 C 726.975 -1.65402 1.24298 0
M  V30 7459 C 727.39 -1.87827 -0.191389 0
M  V30 7460 O 726.747 -1.43776 -1.12404 0
M  V30 7461 C 726.798 -3.02093 1.9855 0
M  V30 7462 O 726.519 -2.80668 3.36388 0
M  V30 7463 C 728.02 -3.96538 1.98173 0
M  V30 7464 H 725.24 -0.515598 0.429417 0
M  V30 7465 H 727.784 -1.0834 1.73444 0
M  V30 7466 H 725.939 -3.55838 1.53161 0
M  V30 7467 H 726.353 -3.67504 3.74221 0
M  V30 7468 H 727.827 -4.8976 2.54635 0
M  V30 7469 H 728.304 -4.28474 0.964697 0
M  V30 7470 H 728.91 -3.48729 2.4345 0
M  V30 7471 N 727.225 -1.14528 -1.08264 0
M  V30 7472 C 728.155 -0.856356 -2.1723 0
M  V30 7473 C 729.136 0.189251 -1.69044 0
M  V30 7474 O 730.321 0.0456119 -1.94146 0
M  V30 7475 C 727.451 -0.334662 -3.45684 0
M  V30 7476 C 726.405 -1.31588 -4.0727 0
M  V30 7477 C 725.731 -0.653428 -5.30692 0
M  V30 7478 C 727.031 -2.67866 -4.48381 0
M  V30 7479 H 728.725 -1.76755 -2.41657 0
M  V30 7480 H 726.271 -0.851287 -1.16143 0
M  V30 7481 H 728.224 -0.120128 -4.21229 0
M  V30 7482 H 726.948 0.611967 -3.20815 0
M  V30 7483 H 725.607 -1.51661 -3.33758 0
M  V30 7484 H 725.255 0.299054 -5.0211 0
M  V30 7485 H 724.955 -1.30817 -5.72853 0
M  V30 7486 H 726.479 -0.448453 -6.08951 0
M  V30 7487 H 727.893 -2.51692 -5.15096 0
M  V30 7488 H 726.29 -3.29627 -5.01464 0
M  V30 7489 H 727.36 -3.24632 -3.60198 0
M  V30 7490 N 728.703 1.26451 -0.940633 0
M  V30 7491 C 729.928 1.98407 -0.60412 0
M  V30 7492 C 730.353 1.69584 0.81382 0
M  V30 7493 O 729.711 0.943553 1.54812 0
M  V30 7494 C 729.759 3.50387 -0.852136 0
M  V30 7495 O 728.863 4.1233 0.076013 0
M  V30 7496 H 728.204 0.622466 -0.231153 0
M  V30 7497 H 730.734 1.60932 -1.26342 0
M  V30 7498 H 730.744 4.00614 -0.772816 0
M  V30 7499 H 729.419 3.70696 -1.88566 0
M  V30 7500 H 727.996 3.7286 -0.0543187 0
M  V30 7501 N 730.181 0.707592 1.40822 0
M  V30 7502 C 731.411 0.252706 2.05049 0
M  V30 7503 C 731.819 -1.10758 1.53393 0
M  V30 7504 O 731.162 -1.70567 0.682097 0
M  V30 7505 C 731.224 0.146001 3.59203 0
M  V30 7506 C 730.888 1.44027 4.33711 0
M  V30 7507 C 731.885 2.38058 4.62195 0
M  V30 7508 C 729.57 1.69698 4.72766 0
M  V30 7509 C 731.564 3.56013 5.28709 0
M  V30 7510 C 729.251 2.87936 5.39014 0
M  V30 7511 C 730.249 3.80915 5.66915 0
M  V30 7512 O 729.937 4.9708 6.31796 0
M  V30 7513 H 729.669 0.112784 0.666525 0
M  V30 7514 H 732.223 0.96417 1.81364 0
M  V30 7515 H 730.453 -0.621338 3.81676 0
M  V30 7516 H 732.142 -0.273275 4.04979 0
M  V30 7517 H 732.908 2.19487 4.32493 0
M  V30 7518 H 728.787 0.981835 4.50423 0
M  V30 7519 H 732.331 4.28604 5.50404 0
M  V30 7520 H 728.228 3.06419 5.68135 0
M  V30 7521 H 728.996 4.97053 6.50293 0
M  V30 7522 N 731.66 -1.50943 0.453197 0
M  V30 7523 C 732.608 -2.29728 -0.364419 0
M  V30 7524 C 733.602 -1.36246 -1.00664 0
M  V30 7525 O 734.808 -1.53518 -0.939794 0
M  V30 7526 H 731.183 -0.739536 -0.136347 0
M  V30 7527 H 733.154 -2.96672 0.320696 0
M  V30 7528 C 731.903 -3.1629 -1.44415 0
M  V30 7529 H 731.226 -3.88119 -0.959343 0
M  V30 7530 H 732.666 -3.74444 -1.98917 0
M  V30 7531 C 731.125 -2.32702 -2.43622 0
M  V30 7532 O 731.655 -1.99763 -3.48508 0
M  V30 7533 N 729.861 -1.95621 -2.14897 0
M  V30 7534 H 729.408 -2.22607 -1.29629 0
M  V30 7535 H 729.366 -1.39993 -2.81513 0
M  V30 7536 N 733.138 -0.185124 -1.56509 0
M  V30 7537 C 734.554 0.170865 -1.58683 0
M  V30 7538 C 734.754 1.61799 -1.20098 0
M  V30 7539 O 733.81 2.35181 -0.919038 0
M  V30 7540 C 735.123 -0.122459 -3.00451 0
M  V30 7541 C 736.671 -0.0617699 -3.12939 0
M  V30 7542 C 737.146 -0.328269 -4.56822 0
M  V30 7543 N 738.637 -0.276533 -4.62374 0
M  V30 7544 C 739.372 -0.456722 -5.71578 0
M  V30 7545 N 738.868 -0.69672 -6.89288 0
M  V30 7546 N 740.661 -0.391669 -5.60734 0
M  V30 7547 H 732.812 -1.12956 -1.79874 0
M  V30 7548 H 735.075 -0.45011 -0.834329 0
M  V30 7549 H 734.781 -1.12546 -3.33206 0
M  V30 7550 H 734.655 0.579578 -3.72721 0
M  V30 7551 H 737.042 0.931826 -2.80002 0
M  V30 7552 H 737.123 -0.796732 -2.43076 0
M  V30 7553 H 736.767 -1.31914 -4.9047 0
M  V30 7554 H 736.697 0.427465 -5.24862 0
M  V30 7555 H 739.188 -0.0972458 -3.77775 0
M  V30 7556 H 739.501 -0.823291 -7.68402 0
M  V30 7557 H 737.846 -0.733497 -6.91119 0
M  V30 7558 H 741.037 -0.204663 -4.67652 0
M  V30 7559 H 741.21 -0.535518 -6.45783 0
M  V30 7560 N 734.616 1.57351 0.0885366 0
M  V30 7561 C 736.032 1.53331 0.442916 0
M  V30 7562 C 736.232 0.902831 1.80142 0
M  V30 7563 O 735.288 0.498147 2.47537 0
M  V30 7564 C 736.601 2.98036 0.399372 0
M  V30 7565 C 738.149 3.09286 0.480759 0
M  V30 7566 C 738.624 4.5561 0.467296 0
M  V30 7567 N 740.115 4.60182 0.52786 0
M  V30 7568 C 740.85 5.70857 0.539388 0
M  V30 7569 N 740.346 6.90944 0.506729 0
M  V30 7570 N 742.139 5.59051 0.584691 0
M  V30 7571 H 734.29 1.96709 -0.801215 0
M  V30 7572 H 736.553 0.899639 -0.298922 0
M  V30 7573 H 736.259 3.47656 -0.531806 0
M  V30 7574 H 736.133 3.57066 1.21589 0
M  V30 7575 H 738.52 2.5965 1.40236 0
M  V30 7576 H 738.601 2.53197 -0.364023 0
M  V30 7577 H 738.245 5.05899 -0.450384 0
M  V30 7578 H 738.175 5.09544 1.32938 0
M  V30 7579 H 740.666 3.73757 0.558028 0
M  V30 7580 H 740.979 7.71055 0.518989 0
M  V30 7581 H 739.324 6.93384 0.473675 0
M  V30 7582 H 742.515 4.64138 0.607781 0
M  V30 7583 H 742.688 6.45307 0.590206 0
M  V30 7584 N 736.094 -0.359525 1.53444 0
M  V30 7585 C 737.342 -1.09935 1.69584 0
M  V30 7586 C 737.663 -1.89656 0.453371 0
M  V30 7587 O 736.933 -1.8852 -0.53263 0
M  V30 7588 H 735.513 -0.408843 0.625185 0
M  V30 7589 H 738.175 -0.40467 1.90653 0
M  V30 7590 H 737.271 -1.78575 2.55964 0
M  V30 7591 N 737.572 -1.44907 -0.619662 0
M  V30 7592 C 738.849 -1.38766 -1.37852 0
M  V30 7593 C 739.229 -0.0521393 -2.11036 0
M  V30 7594 O 738.577 0.965613 -2.07095 0
M  V30 7595 C 738.787 -2.59344 -2.33541 0
M  V30 7596 C 740.135 -3.03909 -2.96521 0
M  V30 7597 O 741.159 -2.59631 -2.43865 0
M  V30 7598 O 740.018 -3.80713 -3.92071 0
M  V30 7599 H 737.112 -0.550083 -0.617525 0
M  V30 7600 H 739.658 -1.57015 -0.643759 0
M  V30 7601 H 738.43 -3.48142 -1.78642 0
M  V30 7602 H 738.053 -2.43367 -3.14417 0
M  V30 7603 N 739.05 0.861098 -1.31996 0
M  V30 7604 C 739.98 1.98482 -1.22993 0
M  V30 7605 C 740.961 1.6971 -0.115168 0
M  V30 7606 O 742.146 1.91849 -0.30126 0
M  V30 7607 C 739.276 3.34179 -0.945615 0
M  V30 7608 C 738.23 3.77284 -2.02091 0
M  V30 7609 C 737.556 5.1054 -1.58912 0
M  V30 7610 C 738.856 3.93439 -3.43515 0
M  V30 7611 H 740.55 2.06271 -2.17008 0
M  V30 7612 H 738.096 0.991043 -1.04472 0
M  V30 7613 H 740.049 4.12338 -0.869206 0
M  V30 7614 H 738.773 3.26586 0.0301849 0
M  V30 7615 H 737.432 3.01371 -2.08737 0
M  V30 7616 H 737.08 4.99397 -0.600942 0
M  V30 7617 H 736.78 5.40352 -2.30854 0
M  V30 7618 H 738.304 5.91199 -1.52696 0
M  V30 7619 H 739.718 4.6197 -3.39495 0
M  V30 7620 H 738.115 4.34661 -4.13751 0
M  V30 7621 H 739.185 2.96548 -3.8365 0
M  V30 7622 N 740.528 1.15101 1.07655 0
M  V30 7623 C 741.491 0.847625 2.12951 0
M  V30 7624 C 742.491 -0.151227 1.60087 0
M  V30 7625 O 743.681 0.0780399 1.74025 0
M  V30 7626 C 740.813 0.265 3.39868 0
M  V30 7627 H 742.006 1.7809 2.41296 0
M  V30 7628 H 739.559 0.958072 1.23494 0
M  V30 7629 H 740.294 -0.676625 3.17163 0
M  V30 7630 H 740.079 0.984554 3.79538 0
M  V30 7631 H 741.569 0.0702121 4.17541 0
M  V30 7632 N 742.006 -1.2595 0.947325 0
M  V30 7633 C 743.255 -1.92759 0.593887 0
M  V30 7634 C 743.568 -1.75083 -0.872093 0
M  V30 7635 O 744.774 -2.36401 -1.33518 0
M  V30 7636 C 743.23 -3.45395 1.01144 0
M  V30 7637 C 742.838 -3.71795 2.49946 0
M  V30 7638 C 744.582 -4.18173 0.730185 0
M  V30 7639 C 742.489 -5.17901 2.85539 0
M  V30 7640 H 741.419 -0.721676 0.218403 0
M  V30 7641 H 744.07 -1.4293 1.15079 0
M  V30 7642 H 742.452 -3.94143 0.383007 0
M  V30 7643 H 743.626 -3.33728 3.17746 0
M  V30 7644 H 741.941 -3.12263 2.75465 0
M  V30 7645 H 744.538 -5.25784 0.972367 0
M  V30 7646 H 744.881 -4.14964 -0.333223 0
M  V30 7647 H 745.414 -3.75309 1.31862 0
M  V30 7648 H 742.153 -5.26216 3.90867 0
M  V30 7649 H 741.673 -5.57042 2.22406 0
M  V30 7650 H 743.352 -5.8596 2.74336 0
M  V30 7651 N 743.484 -0.715051 -1.40445 0
M  V30 7652 C 744.434 -0.038591 -2.27967 0
M  V30 7653 C 745.418 0.733099 -1.43229 0
M  V30 7654 O 746.61 0.605388 -1.66325 0
M  V30 7655 C 743.739 0.882801 -3.31755 0
M  V30 7656 C 742.825 0.106325 -4.23967 0
M  V30 7657 N 743.216 -0.910143 -4.97544 0
M  V30 7658 C 741.514 0.33896 -4.4471 0
M  V30 7659 C 742.215 -1.37665 -5.65175 0
M  V30 7660 N 741.191 -0.698905 -5.39088 0
M  V30 7661 H 744.993 -0.81765 -2.82297 0
M  V30 7662 H 742.507 -0.547591 -1.5289 0
M  V30 7663 H 744.504 1.38273 -3.93302 0
M  V30 7664 H 743.164 1.66124 -2.78985 0
M  V30 7665 H 744.175 -1.29097 -5.01552 0
M  V30 7666 H 740.852 1.09377 -4.02918 0
M  V30 7667 H 742.242 -2.22122 -6.34123 0
M  V30 7668 N 744.962 1.50701 -0.461195 0
M  V30 7669 C 745.892 2.31182 0.328184 0
M  V30 7670 C 746.873 1.37644 0.999408 0
M  V30 7671 O 748.058 1.66565 0.99848 0
M  V30 7672 C 745.188 3.17113 1.41621 0
M  V30 7673 C 744.142 4.19124 0.867148 0
M  V30 7674 C 743.468 4.93728 2.05272 0
M  V30 7675 C 744.768 5.22174 -0.114808 0
M  V30 7676 H 746.462 2.97423 -0.343501 0
M  V30 7677 H 744.008 1.43033 -0.166641 0
M  V30 7678 H 745.961 3.72208 1.97584 0
M  V30 7679 H 744.685 2.48739 2.11652 0
M  V30 7680 H 743.344 3.65116 0.329557 0
M  V30 7681 H 742.992 4.21835 2.73978 0
M  V30 7682 H 742.692 5.62724 1.69161 0
M  V30 7683 H 744.216 5.51654 2.61744 0
M  V30 7684 H 745.63 5.72198 0.355316 0
M  V30 7685 H 744.027 5.98833 -0.389689 0
M  V30 7686 H 745.097 4.7353 -1.04391 0
M  V30 7687 N 746.441 0.193421 1.56409 0
M  V30 7688 C 747.687 -0.446449 1.97825 0
M  V30 7689 C 748.02 -1.61386 1.08019 0
M  V30 7690 O 747.295 -1.94053 0.131839 0
M  V30 7691 C 747.578 -0.908199 3.48459 0
M  V30 7692 C 747.431 0.260914 4.49043 0
M  V30 7693 C 748.75 -1.77428 4.0275 0
M  V30 7694 H 745.869 -0.160807 0.719243 0
M  V30 7695 H 748.511 0.284006 1.87865 0
M  V30 7696 H 746.661 -1.53062 3.57077 0
M  V30 7697 H 748.333 0.898548 4.52464 0
M  V30 7698 H 746.576 0.912949 4.24085 0
M  V30 7699 H 747.247 -0.104657 5.51901 0
M  V30 7700 H 749.723 -1.24936 3.96901 0
M  V30 7701 H 748.599 -2.06633 5.08521 0
M  V30 7702 H 748.86 -2.72788 3.47907 0
M  V30 7703 N 747.919 -1.57396 -0.0801906 0
M  V30 7704 C 749.144 -1.91437 -0.797909 0
M  V30 7705 C 749.569 -0.789075 -1.70749 0
M  V30 7706 O 748.927 0.25857 -1.79447 0
M  V30 7707 C 748.975 -3.24402 -1.57467 0
M  V30 7708 O 748.079 -3.13043 -2.68473 0
M  V30 7709 H 747.42 -0.627109 -0.218243 0
M  V30 7710 H 749.95 -2.04537 -0.050949 0
M  V30 7711 H 749.96 -3.58072 -1.95571 0
M  V30 7712 H 748.635 -4.05884 -0.907229 0
M  V30 7713 H 747.212 -2.90915 -2.33287 0
M  V30 7714 N 749.397 0.351382 -1.53633 0
M  V30 7715 C 750.808 0.927429 -1.62036 0
M  V30 7716 C 751.159 1.89809 -0.496706 0
M  V30 7717 O 750.284 2.1313 0.374749 0
M  V30 7718 C 750.879 1.68886 -2.93706 0
M  V30 7719 C 749.438 2.21404 -3.04397 0
M  V30 7720 C 748.585 1.03075 -2.57431 0
M  V30 7721 H 751.536 0.129748 -1.58169 0
M  V30 7722 H 751.557 2.55116 -2.82305 0
M  V30 7723 H 751.069 0.982149 -3.75467 0
M  V30 7724 H 749.17 2.95274 -2.27253 0
M  V30 7725 H 749.283 2.48312 -4.09729 0
M  V30 7726 H 747.647 1.40188 -2.12649 0
M  V30 7727 H 748.43 0.338793 -3.41624 0
M  V30 7728 N 750.875 1.45233 0.611969 0
M  V30 7729 C 751.808 1.48056 1.73651 0
M  V30 7730 C 752.786 0.337373 1.59061 0
M  V30 7731 O 753.97 0.537222 1.80683 0
M  V30 7732 C 751.097 1.33144 3.11433 0
M  V30 7733 C 750.143 2.51272 3.44623 0
M  V30 7734 S 750.976 4.13754 3.39953 0
M  V30 7735 C 752.132 4.013 4.80322 0
M  V30 7736 H 752.365 2.43205 1.70993 0
M  V30 7737 H 749.898 1.32763 0.788246 0
M  V30 7738 H 751.856 1.25228 3.90932 0
M  V30 7739 H 750.517 0.394734 3.1161 0
M  V30 7740 H 749.71 2.36753 4.44932 0
M  V30 7741 H 749.312 2.56027 2.72629 0
M  V30 7742 H 751.604 3.66174 5.7002 0
M  V30 7743 H 752.547 5.01506 4.99897 0
M  V30 7744 H 752.955 3.3303 4.55797 0
M  V30 7745 N 752.353 -0.854086 1.3245 0
M  V30 7746 C 753.601 -1.60513 1.228 0
M  V30 7747 C 753.922 -1.93865 -0.210073 0
M  V30 7748 O 753.192 -1.59673 -1.13496 0
M  V30 7749 H 751.772 -0.595099 0.451516 0
M  V30 7750 H 754.434 -1.0216 1.6598 0
M  V30 7751 H 753.53 -2.54182 1.81102 0
M  V30 7752 N 753.831 -1.1567 -1.07043 0
M  V30 7753 C 755.059 -0.957471 -1.83412 0
M  V30 7754 C 755.474 0.494271 -1.82215 0
M  V30 7755 O 754.831 1.34288 -1.23584 0
M  V30 7756 C 754.882 -1.46784 -3.30359 0
M  V30 7757 O 754.603 -2.86271 -3.31633 0
M  V30 7758 C 756.104 -1.31054 -4.23485 0
M  V30 7759 H 753.324 -0.33986 -0.578564 0
M  V30 7760 H 755.868 -1.53518 -1.35102 0
M  V30 7761 H 754.023 -0.932586 -3.76007 0
M  V30 7762 H 754.437 -3.0948 -4.23465 0
M  V30 7763 H 755.911 -1.71605 -5.24648 0
M  V30 7764 H 756.388 -0.255107 -4.38458 0
M  V30 7765 H 756.994 -1.83503 -3.83676 0
M  V30 7766 N 755.309 1.25446 -0.953992 0
M  V30 7767 C 756.725 1.4539 -0.658316 0
M  V30 7768 C 756.925 1.85607 0.784356 0
M  V30 7769 O 755.981 1.98568 1.55972 0
M  V30 7770 C 757.294 2.52643 -1.6307 0
M  V30 7771 C 758.842 2.66484 -1.64181 0
M  V30 7772 C 759.317 3.76921 -2.60182 0
M  V30 7773 N 760.808 3.84331 -2.58542 0
M  V30 7774 C 761.543 4.69271 -3.29503 0
M  V30 7775 N 761.039 5.58503 -4.09934 0
M  V30 7776 N 762.832 4.6323 -3.18393 0
M  V30 7777 H 754.983 0.976337 -1.8863 0
M  V30 7778 H 757.246 0.490343 -0.811337 0
M  V30 7779 H 756.952 2.29949 -2.66114 0
M  V30 7780 H 756.826 3.50547 -1.39271 0
M  V30 7781 H 759.213 2.88545 -0.618552 0
M  V30 7782 H 759.294 1.68982 -1.92038 0
M  V30 7783 H 758.938 3.55612 -3.62633 0
M  V30 7784 H 758.868 4.73906 -2.29609 0
M  V30 7785 H 761.359 3.20544 -2.0015 0
M  V30 7786 H 761.672 6.20241 -4.61 0
M  V30 7787 H 760.017 5.58214 -4.14032 0
M  V30 7788 H 763.208 3.92527 -2.5503 0
M  V30 7789 H 763.381 5.29204 -3.73961 0
M  V30 7790 N 756.787 0.722489 1.40064 0
M  V30 7791 C 758.012 0.273446 2.05589 0
M  V30 7792 C 758.437 -1.07875 1.54093 0
M  V30 7793 O 757.795 -1.68095 0.679252 0
M  V30 7794 C 757.843 0.271023 3.5958 0
M  V30 7795 O 756.947 -0.745499 4.05606 0
M  V30 7796 H 756.288 0.126856 0.65177 0
M  V30 7797 H 758.818 0.984906 1.79334 0
M  V30 7798 H 758.828 0.111084 4.07849 0
M  V30 7799 H 757.503 1.25776 3.96425 0
M  V30 7800 H 756.08 -0.552719 3.68781 0
M  V30 7801 N 758.265 -1.50454 0.469181 0
M  V30 7802 C 759.493 -2.06729 -0.0842134 0
M  V30 7803 C 759.908 -1.33326 -1.33677 0
M  V30 7804 O 759.265 -0.401977 -1.78018 0
M  V30 7805 C 759.316 -3.59557 -0.374253 0
M  V30 7806 O 759.037 -4.30192 0.828622 0
M  V30 7807 C 760.538 -4.32449 -0.974824 0
M  V30 7808 H 757.758 -0.670971 0.006231 0
M  V30 7809 H 760.302 -1.93645 0.657415 0
M  V30 7810 H 758.457 -3.7245 -1.06581 0
M  V30 7811 H 758.871 -5.21371 0.572066 0
M  V30 7812 H 760.345 -5.40361 -1.12755 0
M  V30 7813 H 760.822 -3.92819 -1.96442 0
M  V30 7814 H 761.428 -4.24082 -0.321703 0
M  V30 7815 N 759.743 -0.201713 -1.56304 0
M  V30 7816 C 760.673 0.71155 -2.22394 0
M  V30 7817 C 761.654 1.21625 -1.18917 0
M  V30 7818 O 762.839 1.26388 -1.47444 0
M  V30 7819 C 759.969 1.92837 -2.88845 0
M  V30 7820 C 758.923 1.55831 -3.98623 0
M  V30 7821 C 758.249 2.85228 -4.52271 0
M  V30 7822 C 759.549 0.763249 -5.16693 0
M  V30 7823 H 761.243 0.160573 -2.98969 0
M  V30 7824 H 758.789 0.0757916 -1.438 0
M  V30 7825 H 760.742 2.57253 -3.33764 0
M  V30 7826 H 759.466 2.50398 -2.09686 0
M  V30 7827 H 758.125 0.9377 -3.54405 0
M  V30 7828 H 757.773 3.40893 -3.69866 0
M  V30 7829 H 757.473 2.6121 -5.26349 0
M  V30 7830 H 758.997 3.50622 -4.99897 0
M  V30 7831 H 760.411 1.31066 -5.58117 0
M  V30 7832 H 758.808 0.620935 -5.96879 0
M  V30 7833 H 759.878 -0.234322 -4.84334 0
M  V30 7834 N 761.222 1.57436 0.0718424 0
M  V30 7835 C 762.152 2.06724 1.08571 0
M  V30 7836 C 763.133 0.960731 1.40371 0
M  V30 7837 O 764.318 1.23345 1.49999 0
M  V30 7838 C 761.448 2.51112 2.39916 0
M  V30 7839 C 760.402 3.65639 2.22469 0
M  V30 7840 C 759.728 3.96082 3.59198 0
M  V30 7841 C 761.028 4.95687 1.64596 0
M  V30 7842 H 762.722 2.91679 0.675569 0
M  V30 7843 H 760.268 1.40319 0.32352 0
M  V30 7844 H 762.221 2.84206 3.11135 0
M  V30 7845 H 760.945 1.63186 2.8291 0
M  V30 7846 H 759.604 3.32828 1.53691 0
M  V30 7847 H 759.252 3.05287 3.99761 0
M  V30 7848 H 758.952 4.73199 3.48362 0
M  V30 7849 H 760.476 4.31672 4.31847 0
M  V30 7850 H 761.89 5.27011 2.25681 0
M  V30 7851 H 760.287 5.77126 1.64457 0
M  V30 7852 H 761.357 4.8108 0.60744 0
M  V30 7853 N 762.7 -0.34323 1.53817 0
M  V30 7854 C 763.663 -1.40444 1.8113 0
M  V30 7855 C 764.663 -1.45604 0.682366 0
M  V30 7856 O 765.853 -1.45974 0.950649 0
M  V30 7857 C 762.985 -2.79369 1.95361 0
M  V30 7858 H 764.178 -1.17489 2.75928 0
M  V30 7859 H 761.731 -0.577636 1.45234 0
M  V30 7860 H 762.466 -3.07607 1.02707 0
M  V30 7861 H 762.251 -2.7702 2.77493 0
M  V30 7862 H 763.741 -3.56178 2.18008 0
M  V30 7863 N 764.178 -1.45556 -0.604258 0
M  V30 7864 C 765.141 -1.54091 -1.69672 0
M  V30 7865 C 766.141 -0.420076 -1.55216 0
M  V30 7866 O 767.331 -0.683671 -1.60224 0
M  V30 7867 C 764.463 -1.44063 -3.08964 0
M  V30 7868 H 765.656 -2.51431 -1.6347 0
M  V30 7869 H 763.209 -1.33046 -0.820273 0
M  V30 7870 H 763.944 -0.479201 -3.2074 0
M  V30 7871 H 763.729 -2.25362 -3.20865 0
M  V30 7872 H 765.219 -1.53075 -3.88533 0
M  V30 7873 N 765.656 0.84705 -1.32902 0
M  V30 7874 C 767.072 1.13645 -1.12058 0
M  V30 7875 C 767.272 2.01281 0.093937 0
M  V30 7876 O 766.328 2.4026 0.776608 0
M  V30 7877 C 767.641 1.80644 -2.40392 0
M  V30 7878 C 769.189 1.93246 -2.46221 0
M  V30 7879 C 769.664 2.6366 -3.74496 0
M  V30 7880 N 771.155 2.71179 -3.75521 0
M  V30 7881 C 771.89 3.26332 -4.71482 0
M  V30 7882 N 771.386 3.82236 -5.77813 0
M  V30 7883 N 773.179 3.24507 -4.58968 0
M  V30 7884 H 765.33 0.263612 -2.10758 0
M  V30 7885 H 767.593 0.17944 -0.930863 0
M  V30 7886 H 767.299 1.23708 -3.29225 0
M  V30 7887 H 767.173 2.80736 -2.51926 0
M  V30 7888 H 769.56 2.49338 -1.57843 0
M  V30 7889 H 769.641 0.921272 -2.38634 0
M  V30 7890 H 769.285 2.08229 -4.63253 0
M  V30 7891 H 769.215 3.65234 -3.79357 0
M  V30 7892 H 771.706 2.31527 -2.9867 0
M  V30 7893 H 772.019 4.22499 -6.47082 0
M  V30 7894 H 770.364 3.80546 -5.81558 0
M  V30 7895 H 773.555 2.80085 -3.7506 0
M  V30 7896 H 773.728 3.67188 -5.33926 0
M  V30 7897 N 767.134 1.16236 1.06428 0
M  V30 7898 C 768.545 0.950942 1.60667 0
M  V30 7899 C 768.896 -0.505491 1.89576 0
M  V30 7900 O 768.021 -1.37843 1.66818 0
M  V30 7901 C 768.616 1.71982 2.91904 0
M  V30 7902 C 767.175 1.55342 3.4285 0
M  V30 7903 C 766.322 1.72942 2.16763 0
M  V30 7904 H 769.273 1.31126 0.893959 0
M  V30 7905 H 769.294 1.19483 3.61253 0
M  V30 7906 H 768.806 2.77978 2.70831 0
M  V30 7907 H 766.907 0.5178 3.68985 0
M  V30 7908 H 767.02 2.33643 4.18267 0
M  V30 7909 H 765.384 1.15673 2.26918 0
M  V30 7910 H 766.167 2.80324 1.98175 0
M  V30 7911 N 768.612 -1.24939 0.960631 0
M  V30 7912 C 769.562 -2.23388 0.456266 0
M  V30 7913 C 770.546 -1.54249 -0.45782 0
M  V30 7914 O 771.738 -1.7461 -0.289894 0
M  V30 7915 C 768.867 -3.42321 -0.259024 0
M  V30 7916 C 767.953 -4.18718 0.673478 0
M  V30 7917 N 768.344 -4.72394 1.8077 0
M  V30 7918 C 766.642 -4.43378 0.482859 0
M  V30 7919 C 767.343 -5.30316 2.3904 0
M  V30 7920 N 766.319 -5.17109 1.67629 0
M  V30 7921 H 770.121 -2.62499 1.32179 0
M  V30 7922 H 767.635 -1.40245 0.818851 0
M  V30 7923 H 769.632 -4.11997 -0.637527 0
M  V30 7924 H 768.292 -3.04732 -1.12108 0
M  V30 7925 H 769.303 -4.69345 2.18942 0
M  V30 7926 H 765.98 -4.16147 -0.335821 0
M  V30 7927 H 767.37 -5.82594 3.34715 0
M  V30 7928 N 770.09 -0.729906 -1.39679 0
M  V30 7929 C 771.367 -0.202149 -1.94553 0
M  V30 7930 C 771.747 1.29507 -1.66707 0
M  V30 7931 O 771.095 2.05819 -0.992517 0
M  V30 7932 C 771.305 -0.530279 -3.44948 0
M  V30 7933 C 772.653 -0.476808 -4.21914 0
M  V30 7934 O 773.677 -0.467171 -3.53123 0
M  V30 7935 O 772.536 -0.466869 -5.44502 0
M  V30 7936 H 769.63 -0.0351644 -0.826252 0
M  V30 7937 H 772.176 -0.808417 -1.49207 0
M  V30 7938 H 770.948 -1.56526 -3.5863 0
M  V30 7939 H 770.571 0.10522 -3.97461 0
M  V30 7940 N 771.568 1.50203 -0.477153 0
M  V30 7941 C 772.798 2.0647 0.0731427 0
M  V30 7942 C 773.206 1.3405 1.33518 0
M  V30 7943 O 772.549 0.405164 1.79176 0
M  V30 7944 C 772.611 3.57025 0.421121 0
M  V30 7945 C 772.275 4.50973 -0.739765 0
M  V30 7946 C 773.272 4.939 -1.62353 0
M  V30 7947 C 770.957 4.93581 -0.93181 0
M  V30 7948 C 772.951 5.78149 -2.6837 0
M  V30 7949 C 770.638 5.77612 -1.99519 0
M  V30 7950 C 771.636 6.19798 -2.86949 0
M  V30 7951 O 771.324 7.02152 -3.91456 0
M  V30 7952 H 771.056 0.675969 -0.00648243 0
M  V30 7953 H 773.61 1.94278 -0.66673 0
M  V30 7954 H 771.84 3.67141 1.21426 0
M  V30 7955 H 773.529 3.95632 0.907213 0
M  V30 7956 H 774.295 4.61646 -1.48687 0
M  V30 7957 H 770.174 4.60262 -0.260739 0
M  V30 7958 H 773.718 6.10997 -3.36643 0
M  V30 7959 H 769.615 6.09279 -2.13189 0
M  V30 7960 H 770.383 7.20414 -3.88518 0
M  V30 7961 N 773.046 0.209999 1.56195 0
M  V30 7962 C 774.271 -0.433064 2.02828 0
M  V30 7963 C 774.696 -1.5337 1.08901 0
M  V30 7964 O 774.054 -1.81144 0.0751132 0
M  V30 7965 C 774.102 -0.952635 3.47789 0
M  V30 7966 O 773.206 -2.0647 3.56993 0
M  V30 7967 H 772.547 -0.0994594 0.656509 0
M  V30 7968 H 775.077 0.32525 2.01998 0
M  V30 7969 H 775.087 -1.26542 3.8788 0
M  V30 7970 H 773.762 -0.147007 4.1564 0
M  V30 7971 H 772.339 -1.75942 3.28784 0
M  V30 7972 N 774.524 -1.57472 -0.0634922 0
M  V30 7973 C 775.487 -2.03268 -1.059 0
M  V30 7974 C 776.487 -0.931028 -1.31105 0
M  V30 7975 O 777.677 -1.19567 -1.26686 0
M  V30 7976 C 774.809 -2.42039 -2.40062 0
M  V30 7977 H 776.002 -2.92454 -0.664119 0
M  V30 7978 H 773.555 -1.53206 -0.309444 0
M  V30 7979 H 774.29 -1.55904 -2.84367 0
M  V30 7980 H 774.075 -3.22437 -2.23108 0
M  V30 7981 H 775.565 -2.78017 -3.11603 0
M  V30 7982 N 776.003 0.335068 -1.53997 0
M  V30 7983 C 777.28 1.09188 -1.62288 0
M  V30 7984 C 777.66 2.0626 -0.449458 0
M  V30 7985 O 777.008 2.21596 0.557444 0
M  V30 7986 C 777.218 1.80403 -2.98757 0
M  V30 7987 C 778.566 2.33841 -3.54406 0
M  V30 7988 O 779.59 1.90487 -3.00987 0
M  V30 7989 O 778.449 3.1318 -4.47862 0
M  V30 7990 H 775.543 0.502621 -0.656736 0
M  V30 7991 H 778.089 0.33588 -1.66343 0
M  V30 7992 H 776.861 1.09732 -3.75599 0
M  V30 7993 H 776.484 2.62841 -2.9833 0
M  V30 7994 N 777.481 1.45874 0.596531 0
M  V30 7995 C 778.729 1.5017 1.35253 0
M  V30 7996 C 779.05 0.149246 1.94428 0
M  V30 7997 O 778.32 -0.82268 1.77789 0
M  V30 7998 H 776.9 0.553052 0.502138 0
M  V30 7999 H 779.562 1.81908 0.699671 0
M  V30 8000 H 778.658 2.24671 2.16632 0
M  V30 8001 N 778.959 -0.83999 1.33349 0
M  V30 8002 C 780.206 -1.59517 1.24742 0
M  V30 8003 C 780.534 -1.93598 -0.187077 0
M  V30 8004 O 779.789 -1.58782 -1.14398 0
M  V30 8005 C 780.088 -2.91571 2.06691 0
M  V30 8006 C 779.754 -2.76856 3.55895 0
M  V30 8007 C 778.416 -2.72551 3.96572 0
M  V30 8008 C 780.768 -2.61741 4.50712 0
M  V30 8009 C 778.096 -2.51028 5.30285 0
M  V30 8010 C 780.448 -2.41752 5.84584 0
M  V30 8011 C 779.112 -2.35848 6.24445 0
M  V30 8012 H 778.382 -0.583714 0.456463 0
M  V30 8013 H 781.029 -0.973261 1.64924 0
M  V30 8014 H 779.334 -3.57961 1.59284 0
M  V30 8015 H 781.031 -3.49053 1.9739 0
M  V30 8016 H 777.621 -2.81039 3.23597 0
M  V30 8017 H 781.805 -2.64102 4.20195 0
M  V30 8018 H 777.061 -2.44903 5.60208 0
M  V30 8019 H 781.235 -2.2904 6.57658 0
M  V30 8020 H 778.862 -2.18931 7.27993 0
M  V30 8021 N 780.437 -1.16799 -1.0581 0
M  V30 8022 C 781.385 -0.875111 -2.1551 0
M  V30 8023 C 782.379 0.157781 -1.68664 0
M  V30 8024 O 783.585 0.011297 -1.79996 0
M  V30 8025 H 779.96 -0.26542 -0.703602 0
M  V30 8026 H 781.931 -1.8076 -2.37421 0
M  V30 8027 C 780.68 -0.39802 -3.45414 0
M  V30 8028 H 780.003 -1.18425 -3.81858 0
M  V30 8029 H 781.443 -0.231913 -4.23365 0
M  V30 8030 C 779.902 0.88327 -3.25115 0
M  V30 8031 O 780.432 1.95145 -3.51114 0
M  V30 8032 N 778.638 0.828961 -2.78526 0
M  V30 8033 H 778.185 -0.0405029 -2.57568 0
M  V30 8034 H 778.143 1.68673 -2.65324 0
M  V30 8035 N 781.915 1.24427 -0.967243 0
M  V30 8036 C 783.192 1.87831 -0.545776 0
M  V30 8037 C 783.572 1.87126 0.977099 0
M  V30 8038 O 782.92 1.34357 1.84826 0
M  V30 8039 C 783.13 3.29967 -1.13679 0
M  V30 8040 C 784.478 4.06654 -1.22139 0
M  V30 8041 O 785.502 3.39136 -1.08926 0
M  V30 8042 O 784.361 5.27455 -1.43017 0
M  V30 8043 H 781.455 0.806745 -0.181912 0
M  V30 8044 H 784.001 1.32403 -1.06148 0
M  V30 8045 H 782.773 3.24977 -2.17958 0
M  V30 8046 H 782.396 3.92969 -0.605093 0
M  V30 8047 N 783.393 0.737304 1.3929 0
M  V30 8048 C 784.639 0.295581 2.01241 0
M  V30 8049 C 784.994 -1.10561 1.57461 0
M  V30 8050 O 784.287 -1.74346 0.7946 0
M  V30 8051 C 784.481 0.338438 3.55794 0
M  V30 8052 C 784.31 1.74225 4.14579 0
M  V30 8053 C 783.08 2.35502 4.47065 0
M  V30 8054 C 785.278 2.69623 4.37959 0
M  V30 8055 N 783.26 3.68014 4.91365 0
M  V30 8056 C 784.631 3.86873 4.84489 0
M  V30 8057 C 786.686 2.67355 4.2003 0
M  V30 8058 C 785.389 5.02193 5.14971 0
M  V30 8059 C 787.415 3.8182 4.51627 0
M  V30 8060 C 786.777 4.97806 4.98366 0
M  V30 8061 H 782.876 0.154468 0.766592 0
M  V30 8062 H 785.46 0.963768 1.69173 0
M  V30 8063 H 783.631 -0.299406 3.87244 0
M  V30 8064 H 785.363 -0.122053 4.04516 0
M  V30 8065 H 782.118 1.87406 4.34943 0
M  V30 8066 H 782.542 4.36051 5.17869 0
M  V30 8067 H 787.184 1.78876 3.83097 0
M  V30 8068 H 784.902 5.913 5.50809 0
M  V30 8069 H 788.488 3.81366 4.39376 0
M  V30 8070 H 787.368 5.84909 5.22351 0
M  V30 8071 N 784.871 -1.49948 0.485112 0
M  V30 8072 C 785.834 -2.27351 -0.290546 0
M  V30 8073 C 786.834 -1.32704 -0.908087 0
M  V30 8074 O 788.024 -1.56007 -0.775085 0
M  V30 8075 C 785.156 -3.10135 -1.41524 0
M  V30 8076 H 786.349 -2.97374 0.388454 0
M  V30 8077 H 783.902 -1.54453 0.239586 0
M  V30 8078 H 784.637 -2.44641 -2.12888 0
M  V30 8079 H 784.422 -3.79705 -0.978074 0
M  V30 8080 H 785.912 -3.68638 -1.96204 0
M  V30 8081 N 786.349 -0.21828 -1.56081 0
M  V30 8082 C 787.596 0.414307 -1.98216 0
M  V30 8083 C 787.924 1.60005 -1.10584 0
M  V30 8084 O 787.179 1.95124 -0.150043 0
M  V30 8085 C 787.478 0.894782 -3.46018 0
M  V30 8086 C 787.144 -0.180083 -4.5054 0
M  V30 8087 C 785.806 -0.475367 -4.78846 0
M  V30 8088 C 788.158 -0.907191 -5.13244 0
M  V30 8089 C 785.486 -1.50233 -5.67139 0
M  V30 8090 C 787.838 -1.92347 -6.02649 0
M  V30 8091 C 786.502 -2.22571 -6.293 0
M  V30 8092 H 785.772 0.151606 -0.725325 0
M  V30 8093 H 788.419 -0.320113 -1.88806 0
M  V30 8094 H 786.724 1.7079 -3.52616 0
M  V30 8095 H 788.421 1.39403 -3.75989 0
M  V30 8096 H 785.011 0.06022 -4.28558 0
M  V30 8097 H 789.195 -0.692303 -4.91448 0
M  V30 8098 H 784.451 -1.74215 -5.86054 0
M  V30 8099 H 788.625 -2.49197 -6.50288 0
M  V30 8100 H 786.252 -3.0229 -6.97513 0
M  V30 8101 N 787.827 1.57504 0.0551401 0
M  V30 8102 C 788.76 2.00155 1.09604 0
M  V30 8103 C 789.738 0.881274 1.36647 0
M  V30 8104 O 790.922 1.14498 1.49742 0
M  V30 8105 C 788.049 2.35246 2.43674 0
M  V30 8106 C 787.095 3.57452 2.32659 0
M  V30 8107 S 787.928 5.07639 1.7048 0
M  V30 8108 C 789.084 5.45947 3.06093 0
M  V30 8109 H 789.317 2.88131 0.732635 0
M  V30 8110 H 786.85 1.52122 0.264252 0
M  V30 8111 H 788.808 2.56136 3.20787 0
M  V30 8112 H 787.469 1.47769 2.7717 0
M  V30 8113 H 786.662 3.79576 3.31569 0
M  V30 8114 H 786.264 3.36279 1.63685 0
M  V30 8115 H 788.556 5.45036 4.0242 0
M  V30 8116 H 789.499 6.4656 2.88732 0
M  V30 8117 H 789.907 4.73419 3.07466 0
M  V30 8118 N 789.305 -0.326896 1.54172 0
M  V30 8119 C 790.533 -1.08486 1.76177 0
M  V30 8120 C 790.948 -1.81815 0.508788 0
M  V30 8121 O 790.305 -1.74924 -0.520362 0
M  V30 8122 C 790.356 -2.08552 2.95276 0
M  V30 8123 O 790.077 -1.38202 4.15731 0
M  V30 8124 C 791.578 -2.96593 3.29466 0
M  V30 8125 H 788.798 -0.322835 0.588233 0
M  V30 8126 H 791.342 -0.374036 2.0105 0
M  V30 8127 H 789.497 -2.75174 2.72687 0
M  V30 8128 H 789.911 -2.05186 4.827 0
M  V30 8129 H 791.385 -3.62708 4.16109 0
M  V30 8130 H 791.862 -3.63511 2.46487 0
M  V30 8131 H 792.468 -2.35537 3.54122 0
M  V30 8132 N 790.784 -1.46188 -0.588786 0
M  V30 8133 C 792.012 -1.54743 -1.37339 0
M  V30 8134 C 792.427 -0.186446 -1.87877 0
M  V30 8135 O 791.784 0.815247 -1.63279 0
M  V30 8136 C 791.835 -2.54727 -2.56508 0
M  V30 8137 O 791.556 -3.85539 -2.08066 0
M  V30 8138 C 793.057 -2.73163 -3.49137 0
M  V30 8139 H 790.277 -0.523484 -0.419768 0
M  V30 8140 H 792.821 -1.91543 -0.716345 0
M  V30 8141 H 790.976 -2.20948 -3.18215 0
M  V30 8142 H 791.39 -4.39905 -2.85629 0
M  V30 8143 H 792.864 -3.47057 -4.2925 0
M  V30 8144 H 793.341 -1.79856 -4.00685 0
M  V30 8145 H 793.947 -3.08014 -2.9327 0
M  V30 8146 N 792.262 0.832906 -1.33792 0
M  V30 8147 C 793.212 1.93178 -1.21105 0
M  V30 8148 C 794.196 1.60506 -0.112491 0
M  V30 8149 O 795.388 1.73681 -0.341179 0
M  V30 8150 C 792.517 3.29647 -0.958526 0
M  V30 8151 C 791.603 3.68469 -2.0998 0
M  V30 8152 N 791.994 3.78936 -3.35024 0
M  V30 8153 C 790.292 3.98249 -2.00782 0
M  V30 8154 C 790.993 4.12731 -4.09912 0
M  V30 8155 N 789.969 4.25419 -3.38407 0
M  V30 8156 H 793.771 1.99434 -2.15878 0
M  V30 8157 H 791.285 1.02598 -1.25886 0
M  V30 8158 H 793.282 4.08173 -0.848552 0
M  V30 8159 H 791.942 3.24694 -0.019387 0
M  V30 8160 H 792.953 3.62688 -3.69699 0
M  V30 8161 H 789.63 4.01474 -1.14564 0
M  V30 8162 H 791.02 4.28117 -5.17847 0
M  V30 8163 N 793.74 1.17359 1.05189 0
M  V30 8164 C 794.965 0.98709 1.82404 0
M  V30 8165 C 795.39 -0.459848 1.82392 0
M  V30 8166 O 794.748 -1.32924 1.23292 0
M  V30 8167 C 794.796 1.53276 3.26403 0
M  V30 8168 O 793.9 0.746541 4.05587 0
M  V30 8169 H 793.241 0.35047 0.563974 0
M  V30 8170 H 795.771 1.55856 1.32552 0
M  V30 8171 H 795.781 1.55504 3.77203 0
M  V30 8172 H 794.456 2.58603 3.25726 0
M  V30 8173 H 793.033 0.795671 3.64312 0
M  V30 8174 N 795.218 -1.23913 0.973828 0
M  V30 8175 C 796.464 -1.92747 0.649635 0
M  V30 8176 C 796.819 -1.7465 -0.807157 0
M  V30 8177 O 796.112 -1.09271 -1.57386 0
M  V30 8178 C 796.306 -3.4406 0.967356 0
M  V30 8179 C 796.135 -3.76874 2.45348 0
M  V30 8180 C 794.905 -3.97915 3.11435 0
M  V30 8181 C 797.103 -3.82871 3.43386 0
M  V30 8182 N 795.085 -4.1788 4.49722 0
M  V30 8183 C 796.456 -4.07751 4.67053 0
M  V30 8184 C 798.511 -3.65634 3.37958 0
M  V30 8185 C 797.214 -4.17185 5.8596 0
M  V30 8186 C 799.24 -3.76317 4.56223 0
M  V30 8187 C 798.602 -4.01628 5.78683 0
M  V30 8188 H 794.701 -0.72677 0.288667 0
M  V30 8189 H 797.285 -1.4928 1.24994 0
M  V30 8190 H 795.456 -3.86378 0.395804 0
M  V30 8191 H 797.188 -4.00211 0.601108 0
M  V30 8192 H 793.943 -3.94562 2.61949 0
M  V30 8193 H 794.367 -4.31829 5.21395 0
M  V30 8194 H 799.009 -3.45067 2.44312 0
M  V30 8195 H 796.727 -4.36562 6.80029 0
M  V30 8196 H 800.313 -3.64343 4.53592 0
M  V30 8197 H 799.193 -4.09699 6.68667 0
M  V30 8198 N 796.696 -0.74468 -1.38897 0
M  V30 8199 C 797.973 -0.222773 -1.94327 0
M  V30 8200 C 798.353 1.27731 -1.68071 0
M  V30 8201 O 797.701 2.04754 -1.01429 0
M  V30 8202 C 797.911 -0.566836 -3.44366 0
M  V30 8203 C 799.259 -0.521531 -4.21385 0
M  V30 8204 O 800.283 -0.504599 -3.52608 0
M  V30 8205 O 799.142 -0.524595 -5.43976 0
M  V30 8206 H 796.236 -0.0439259 -0.825833 0
M  V30 8207 H 798.782 -0.824197 -1.48341 0
M  V30 8208 H 797.554 -1.60321 -3.56949 0
M  V30 8209 H 797.177 0.0630577 -3.9755 0
M  V30 8210 N 798.174 1.49689 -0.493057 0
M  V30 8211 C 799.084 2.32746 0.294358 0
M  V30 8212 C 800.1 1.44117 0.975003 0
M  V30 8213 O 801.276 1.77149 0.958138 0
M  V30 8214 C 798.341 3.19358 1.34949 0
M  V30 8215 C 797.402 4.2383 0.683122 0
M  V30 8216 C 796.635 5.06303 1.68798 0
M  V30 8217 O 796.858 4.90172 2.91698 0
M  V30 8218 O 795.792 5.88826 1.24768 0
M  V30 8219 H 799.618 3.01247 -0.385254 0
M  V30 8220 H 797.203 1.47216 -0.254519 0
M  V30 8221 H 799.085 3.73037 1.96014 0
M  V30 8222 H 797.76 2.53561 2.01217 0
M  V30 8223 H 796.667 3.74086 0.0329351 0
M  V30 8224 H 798 4.9216 0.0630192 0
M  V30 8225 N 799.652 0.226554 1.55963 0
M  V30 8226 C 800.929 -0.453058 1.90281 0
M  V30 8227 C 801.309 -1.77377 1.14458 0
M  V30 8228 O 800.657 -2.27067 0.255496 0
M  V30 8229 C 800.867 -0.641108 3.43061 0
M  V30 8230 C 802.215 -0.946265 4.13921 0
M  V30 8231 O 803.239 -0.727713 3.48687 0
M  V30 8232 O 802.098 -1.36131 5.29274 0
M  V30 8233 H 799.192 -0.240242 0.791336 0
M  V30 8234 H 801.738 0.26911 1.67553 0
M  V30 8235 H 800.51 0.290283 3.90222 0
M  V30 8236 H 800.133 -1.41458 3.71585 0
M  V30 8237 N 801.13 -1.57531 -0.0467866 0
M  V30 8238 C 802.541 -1.76945 -0.595603 0
M  V30 8239 C 802.892 -0.855354 -1.76573 0
M  V30 8240 O 802.017 -0.045668 -2.16352 0
M  V30 8241 C 802.612 -3.20881 -1.08725 0
M  V30 8242 C 801.171 -3.41553 -1.58172 0
M  V30 8243 C 800.318 -2.72533 -0.511968 0
M  V30 8244 H 803.269 -1.57682 0.179436 0
M  V30 8245 H 803.29 -3.26419 -1.95528 0
M  V30 8246 H 802.802 -3.87385 -0.235398 0
M  V30 8247 H 800.903 -2.80199 -2.456 0
M  V30 8248 H 801.016 -4.50104 -1.64143 0
M  V30 8249 H 799.38 -2.35797 -0.962899 0
M  V30 8250 H 800.163 -3.41709 0.330117 0
M  V30 8251 N 802.608 0.318715 -1.54344 0
M  V30 8252 C 803.833 1.07987 -1.77069 0
M  V30 8253 C 804.258 1.80766 -0.520117 0
M  V30 8254 O 803.616 1.73424 0.528566 0
M  V30 8255 C 803.664 2.04987 -2.96669 0
M  V30 8256 O 802.768 3.12974 -2.68554 0
M  V30 8257 H 802.109 0.311109 -0.586606 0
M  V30 8258 H 804.639 0.361533 -2.0138 0
M  V30 8259 H 804.649 2.47771 -3.2415 0
M  V30 8260 H 803.324 1.51417 -3.87357 0
M  V30 8261 H 801.901 2.74831 -2.52037 0
M  V30 8262 N 804.086 1.46499 0.581025 0
M  V30 8263 C 805.334 1.51596 1.33653 0
M  V30 8264 C 805.655 0.169859 1.94259 0
M  V30 8265 O 804.925 -0.803776 1.78651 0
M  V30 8266 H 803.505 0.558346 0.496244 0
M  V30 8267 H 806.167 1.8264 0.680338 0
M  V30 8268 H 805.263 2.26956 2.14237 0
M  V30 8269 N 805.565 -0.825799 1.34232 0
M  V30 8270 C 806.475 -1.9684 1.27638 0
M  V30 8271 C 807.491 -1.73018 0.184569 0
M  V30 8272 O 808.667 -1.97172 0.410525 0
M  V30 8273 C 805.732 -3.31084 1.02879 0
M  V30 8274 C 804.793 -3.67933 2.21188 0
M  V30 8275 C 804.026 -4.95772 1.976 0
M  V30 8276 O 804.249 -5.62721 0.93281 0
M  V30 8277 O 803.183 -5.30431 2.84477 0
M  V30 8278 H 807.009 -2.05346 2.23756 0
M  V30 8279 H 804.594 -0.960772 1.1441 0
M  V30 8280 H 806.476 -4.11492 0.908406 0
M  V30 8281 H 805.151 -3.23552 0.0979821 0
M  V30 8282 H 804.058 -2.87981 2.38784 0
M  V30 8283 H 805.391 -3.80147 3.12648 0
M  V30 8284 N 807.043 -1.17915 -1.04565 0
M  V30 8285 C 808.289 -0.982872 -1.78076 0
M  V30 8286 C 808.644 0.482843 -1.86243 0
M  V30 8287 O 807.937 1.35383 -1.3558 0
M  V30 8288 C 808.131 -1.56528 -3.213 0
M  V30 8289 C 807.96 -3.0861 -3.27093 0
M  V30 8290 C 806.73 -3.77389 -3.36014 0
M  V30 8291 C 808.928 -4.06146 -3.15515 0
M  V30 8292 N 806.91 -5.1702 -3.31004 0
M  V30 8293 C 808.281 -5.32268 -3.17948 0
M  V30 8294 C 810.336 -3.97732 -2.99522 0
M  V30 8295 C 809.039 -6.50951 -3.06031 0
M  V30 8296 C 811.065 -5.16007 -2.88948 0
M  V30 8297 C 810.427 -6.41018 -2.9202 0
M  V30 8298 H 806.526 -0.413617 -0.66366 0
M  V30 8299 H 809.11 -1.49607 -1.24603 0
M  V30 8300 H 807.281 -1.07833 -3.73131 0
M  V30 8301 H 809.013 -1.30501 -3.83082 0
M  V30 8302 H 805.768 -3.28098 -3.41538 0
M  V30 8303 H 806.192 -5.90031 -3.31952 0
M  V30 8304 H 810.834 -3.01919 -2.95981 0
M  V30 8305 H 808.552 -7.46968 -3.08326 0
M  V30 8306 H 812.138 -5.11283 -2.77635 0
M  V30 8307 H 811.018 -7.30999 -2.83919 0
M  V30 8308 N 808.521 1.23394 -0.980386 0
M  V30 8309 C 809.767 1.92094 -0.650223 0
M  V30 8310 C 810.1 1.76309 0.814173 0
M  V30 8311 O 809.375 1.12406 1.5873 0
M  V30 8312 C 809.658 3.44713 -1.04139 0
M  V30 8313 C 809.511 3.69606 -2.56342 0
M  V30 8314 C 810.83 4.36191 -0.585296 0
M  V30 8315 H 807.949 0.697618 -0.237695 0
M  V30 8316 H 810.591 1.45517 -1.22167 0
M  V30 8317 H 808.741 3.84513 -0.55515 0
M  V30 8318 H 810.413 3.39288 -3.1254 0
M  V30 8319 H 808.656 3.14318 -2.98976 0
M  V30 8320 H 809.327 4.76441 -2.78762 0
M  V30 8321 H 811.803 4.03836 -1.00276 0
M  V30 8322 H 810.679 5.41679 -0.887428 0
M  V30 8323 H 810.94 4.39097 0.51438 0
M  V30 8324 N 809.999 0.752036 1.385 0
M  V30 8325 C 810.929 0.138718 2.33088 0
M  V30 8326 C 811.91 -0.705318 1.54788 0
M  V30 8327 O 813.095 -0.646821 1.83112 0
M  V30 8328 C 810.225 -0.75641 3.38963 0
M  V30 8329 C 809.179 -0.0152239 4.27997 0
M  V30 8330 C 808.505 -1.0285 5.24715 0
M  V30 8331 C 809.805 1.15226 5.09431 0
M  V30 8332 H 811.499 0.928852 2.84627 0
M  V30 8333 H 809.045 0.448111 1.3685 0
M  V30 8334 H 810.998 -1.19513 4.04097 0
M  V30 8335 H 809.722 -1.57885 2.85902 0
M  V30 8336 H 808.381 0.404061 3.64366 0
M  V30 8337 H 808.029 -1.84496 4.67943 0
M  V30 8338 H 807.729 -0.537238 5.85139 0
M  V30 8339 H 809.253 -1.46657 5.92726 0
M  V30 8340 H 810.667 0.791161 5.67815 0
M  V30 8341 H 809.064 1.57428 5.79082 0
M  V30 8342 H 810.134 1.9659 4.43261 0
M  V30 8343 N 811.477 -1.49425 0.500989 0
M  V30 8344 C 812.387 -2.32899 -0.282011 0
M  V30 8345 C 813.403 -1.44632 -0.967346 0
M  V30 8346 O 814.579 -1.77654 -0.94873 0
M  V30 8347 C 811.644 -3.20069 -1.33253 0
M  V30 8348 C 810.705 -4.24186 -0.660636 0
M  V30 8349 C 809.938 -5.07191 -1.6611 0
M  V30 8350 O 810.161 -4.91712 -2.89094 0
M  V30 8351 O 809.095 -5.8948 -1.21643 0
M  V30 8352 H 812.921 -3.01038 0.401224 0
M  V30 8353 H 810.506 -1.47079 0.262323 0
M  V30 8354 H 812.388 -3.74071 -1.94033 0
M  V30 8355 H 811.063 -2.54625 -1.9987 0
M  V30 8356 H 809.97 -3.74098 -0.0130959 0
M  V30 8357 H 811.303 -4.92186 -0.0369179 0
M  V30 8358 N 812.955 -0.234822 -1.55841 0
M  V30 8359 C 814.204 0.393685 -1.97821 0
M  V30 8360 C 814.517 1.59947 -1.1259 0
M  V30 8361 O 815.723 2.29835 -1.44528 0
M  V30 8362 C 814.179 0.751811 -3.5196 0
M  V30 8363 C 813.787 -0.431898 -4.45913 0
M  V30 8364 C 815.531 1.34518 -4.02623 0
M  V30 8365 C 813.438 -0.0505976 -5.91378 0
M  V30 8366 H 812.368 0.150864 -0.738753 0
M  V30 8367 H 815.019 -0.333132 -1.80451 0
M  V30 8368 H 813.401 1.53642 -3.6498 0
M  V30 8369 H 814.575 -1.20935 -4.44647 0
M  V30 8370 H 812.89 -0.939385 -4.05666 0
M  V30 8371 H 815.487 1.64359 -5.08813 0
M  V30 8372 H 815.83 2.26554 -3.49255 0
M  V30 8373 H 816.363 0.623729 -3.9288 0
M  V30 8374 H 813.102 -0.937779 -6.48757 0
M  V30 8375 H 812.622 0.690898 -5.95808 0
M  V30 8376 H 814.301 0.37146 -6.45933 0
M  V30 8377 N 814.433 1.57553 0.0384317 0
M  V30 8378 C 815.343 2.09333 1.0591 0
M  V30 8379 C 816.359 1.0299 1.40247 0
M  V30 8380 O 817.535 1.34669 1.49754 0
M  V30 8381 C 814.6 2.55468 2.34386 0
M  V30 8382 C 813.661 3.76254 2.06716 0
M  V30 8383 C 812.894 4.20179 3.29067 0
M  V30 8384 O 813.117 3.637 4.39407 0
M  V30 8385 O 812.051 5.12697 3.15317 0
M  V30 8386 H 815.877 2.96683 0.649087 0
M  V30 8387 H 813.462 1.47211 0.254802 0
M  V30 8388 H 815.344 2.85514 3.09935 0
M  V30 8389 H 814.019 1.71234 2.74701 0
M  V30 8390 H 812.926 3.51241 1.28766 0
M  V30 8391 H 814.259 4.61443 1.71263 0
M  V30 8392 N 815.911 -0.310526 1.54511 0
M  V30 8393 C 816.859 -1.40272 1.85544 0
M  V30 8394 C 817.853 -1.52941 0.728377 0
M  V30 8395 O 819.059 -1.55172 0.912234 0
M  V30 8396 H 815.434 -0.468355 0.588343 0
M  V30 8397 H 817.405 -1.11329 2.76855 0
M  V30 8398 C 816.154 -2.76279 2.11105 0
M  V30 8399 H 815.477 -2.67308 2.97298 0
M  V30 8400 H 816.917 -3.51736 2.36765 0
M  V30 8401 C 815.376 -3.24472 0.906618 0
M  V30 8402 O 815.906 -4.01514 0.122358 0
M  V30 8403 N 814.112 -2.81676 0.714632 0
M  V30 8404 H 813.659 -2.19143 1.35404 0
M  V30 8405 H 813.617 -3.14272 -0.089703 0
M  V30 8406 N 817.389 -1.46805 -0.573248 0
M  V30 8407 C 818.617 -1.56191 -1.3569 0
M  V30 8408 C 819.032 -0.206362 -1.87669 0
M  V30 8409 O 818.389 0.797883 -1.64134 0
M  V30 8410 C 818.44 -2.57433 -2.53792 0
M  V30 8411 O 818.161 -3.87724 -2.03965 0
M  V30 8412 C 819.662 -2.76851 -3.4622 0
M  V30 8413 H 816.882 -0.527907 -0.414192 0
M  V30 8414 H 819.426 -1.92292 -0.695989 0
M  V30 8415 H 817.581 -2.24311 -3.15854 0
M  V30 8416 H 817.995 -4.42909 -2.80948 0
M  V30 8417 H 819.469 -3.5159 -4.25545 0
M  V30 8418 H 819.946 -1.84095 -3.98755 0
M  V30 8419 H 820.552 -3.11107 -2.89987 0
M  V30 8420 N 818.867 0.818669 -1.34668 0
M  V30 8421 C 820.092 1.61193 -1.30505 0
M  V30 8422 C 820.517 1.87734 0.117341 0
M  V30 8423 O 819.875 1.45591 1.08042 0
M  V30 8424 C 819.923 2.92733 -2.1057 0
M  V30 8425 O 819.027 3.85 -1.47813 0
M  V30 8426 H 818.368 0.490085 -0.44801 0
M  V30 8427 H 820.898 1.01701 -1.77534 0
M  V30 8428 H 820.908 3.42262 -2.22082 0
M  V30 8429 H 819.583 2.7274 -3.13984 0
M  V30 8430 H 818.16 3.43525 -1.45069 0
M  V30 8431 N 820.346 1.18468 1.03938 0
M  V30 8432 C 821.256 0.927889 2.1547 0
M  V30 8433 C 822.272 -0.108447 1.73662 0
M  V30 8434 O 823.448 0.0737636 2.01265 0
M  V30 8435 C 820.513 0.458494 3.43655 0
M  V30 8436 C 819.574 1.56295 3.99838 0
M  V30 8437 C 818.807 1.11586 5.21904 0
M  V30 8438 O 819.03 -0.0249057 5.70395 0
M  V30 8439 O 817.964 1.91412 5.70653 0
M  V30 8440 H 821.79 1.86116 2.39989 0
M  V30 8441 H 819.375 0.966607 1.13917 0
M  V30 8442 H 821.257 0.204861 4.20902 0
M  V30 8443 H 819.932 -0.446464 3.20606 0
M  V30 8444 H 818.839 1.87061 3.23974 0
M  V30 8445 H 820.172 2.44408 4.2723 0
M  V30 8446 N 821.824 -1.22873 0.986916 0
M  V30 8447 C 822.787 -2.2281 0.537442 0
M  V30 8448 C 823.787 -1.56331 -0.37646 0
M  V30 8449 O 824.977 -1.73376 -0.169247 0
M  V30 8450 C 822.109 -3.40195 -0.219082 0
M  V30 8451 H 823.302 -2.64089 1.42116 0
M  V30 8452 H 820.855 -1.35819 0.773488 0
M  V30 8453 H 821.59 -3.04381 -1.11905 0
M  V30 8454 H 821.375 -3.89657 0.437026 0
M  V30 8455 H 822.865 -4.14326 -0.521926 0
M  V30 8456 N 823.302 -0.75937 -1.38099 0
M  V30 8457 C 824.25 -0.124954 -2.32264 0
M  V30 8458 C 825.244 0.698863 -1.54312 0
M  V30 8459 O 826.45 0.597312 -1.698 0
M  V30 8460 H 822.825 -0.0216142 -0.751689 0
M  V30 8461 H 824.796 -0.935115 -2.83369 0
M  V30 8462 C 823.545 0.749463 -3.39527 0
M  V30 8463 H 822.868 0.124932 -3.99605 0
M  V30 8464 H 824.308 1.16055 -4.07808 0
M  V30 8465 C 822.767 1.89464 -2.78577 0
M  V30 8466 O 823.297 2.98923 -2.68343 0
M  V30 8467 N 821.503 1.69145 -2.36301 0
M  V30 8468 H 821.05 0.801157 -2.44825 0
M  V30 8469 H 821.008 2.45936 -1.95864 0
M  V30 8470 N 824.78 1.49157 -0.508906 0
M  V30 8471 C 825.728 2.30922 0.278906 0
M  V30 8472 C 826.722 1.39889 0.955382 0
M  V30 8473 O 827.928 1.56901 0.882169 0
M  V30 8474 H 824.303 0.744087 0.108805 0
M  V30 8475 H 826.274 2.95277 -0.430583 0
M  V30 8476 C 825.023 3.21432 1.32576 0
M  V30 8477 H 824.346 3.91413 0.814634 0
M  V30 8478 H 825.786 3.81568 1.84882 0
M  V30 8479 C 824.245 2.41583 2.34817 0
M  V30 8480 O 824.775 2.1256 3.40854 0
M  V30 8481 N 822.981 2.03462 2.07489 0
M  V30 8482 H 822.528 2.27265 1.21278 0
M  V30 8483 H 822.486 1.50345 2.76123 0
M  V30 8484 N 826.258 0.243083 1.55714 0
M  V30 8485 C 827.488 -0.38641 2.02954 0
M  V30 8486 C 827.896 -1.52358 1.12177 0
M  V30 8487 O 827.239 -1.83255 0.127853 0
M  V30 8488 C 827.301 -0.959388 3.46462 0
M  V30 8489 C 826.965 0.0450546 4.56978 0
M  V30 8490 C 827.962 0.853224 5.12851 0
M  V30 8491 C 825.647 0.170041 5.02012 0
M  V30 8492 C 827.641 1.77288 6.12248 0
M  V30 8493 C 825.328 1.0932 6.01242 0
M  V30 8494 C 826.326 1.89315 6.56238 0
M  V30 8495 O 826.014 2.80075 7.53534 0
M  V30 8496 H 825.746 -0.0964333 0.669086 0
M  V30 8497 H 828.3 0.363399 2.0216 0
M  V30 8498 H 826.53 -1.75869 3.44394 0
M  V30 8499 H 828.219 -1.49856 3.77224 0
M  V30 8500 H 828.985 0.767229 4.78893 0
M  V30 8501 H 824.864 -0.442528 4.58871 0
M  V30 8502 H 828.408 2.39768 6.55101 0
M  V30 8503 H 824.305 1.18013 6.3462 0
M  V30 8504 H 825.073 2.74393 7.71136 0
M  V30 8505 N 827.736 -1.57571 -0.0300757 0
M  V30 8506 C 828.984 -1.88852 -0.719666 0
M  V30 8507 C 829.305 -0.840645 -1.75949 0
M  V30 8508 O 828.575 0.125854 -1.95495 0
M  V30 8509 H 827.155 -0.696965 -0.268792 0
M  V30 8510 H 829.817 -1.949 0.00373285 0
M  V30 8511 H 828.913 -2.87695 -1.20987 0
M  V30 8512 N 829.214 0.302327 -1.54673 0
M  V30 8513 C 830.442 1.05669 -1.77881 0
M  V30 8514 C 830.857 1.80983 -0.537648 0
M  V30 8515 O 830.214 1.7573 0.492467 0
M  V30 8516 C 830.265 2.03828 -2.98557 0
M  V30 8517 O 829.986 1.3157 -4.17877 0
M  V30 8518 C 831.487 2.91314 -3.34143 0
M  V30 8519 H 828.707 0.313436 -0.593295 0
M  V30 8520 H 831.251 0.342003 -2.0162 0
M  V30 8521 H 829.406 2.70801 -2.7703 0
M  V30 8522 H 829.82 1.97481 -4.85903 0
M  V30 8523 H 831.294 3.56042 -4.21827 0
M  V30 8524 H 831.771 3.59544 -2.52239 0
M  V30 8525 H 832.377 2.29874 -3.57824 0
M  V30 8526 N 830.692 1.47107 0.565454 0
M  V30 8527 C 831.622 1.61846 1.68309 0
M  V30 8528 C 832.603 0.468159 1.63531 0
M  V30 8529 O 833.788 0.696504 1.8128 0
M  V30 8530 C 830.918 1.62474 3.06952 0
M  V30 8531 C 829.872 2.76649 3.26572 0
M  V30 8532 C 829.198 2.62345 4.65917 0
M  V30 8533 C 830.498 4.18319 3.12741 0
M  V30 8534 H 832.192 2.55407 1.5623 0
M  V30 8535 H 829.738 1.22916 0.750179 0
M  V30 8536 H 831.691 1.71378 3.84977 0
M  V30 8537 H 830.415 0.654692 3.19971 0
M  V30 8538 H 829.074 2.67242 2.50952 0
M  V30 8539 H 828.722 1.63386 4.75725 0
M  V30 8540 H 828.422 3.38936 4.79996 0
M  V30 8541 H 829.946 2.73165 5.46089 0
M  V30 8542 H 831.36 4.28745 3.80593 0
M  V30 8543 H 829.757 4.95632 3.38333 0
M  V30 8544 H 830.827 4.37263 2.09592 0
M  V30 8545 N 832.17 -0.811516 1.35101 0
M  V30 8546 C 833.398 -1.59981 1.31201 0
M  V30 8547 C 833.813 -1.8847 -0.111552 0
M  V30 8548 O 833.17 -1.48414 -1.06205 0
M  V30 8549 C 833.221 -2.934 2.11184 0
M  V30 8550 O 832.942 -2.66148 3.4799 0
M  V30 8551 C 834.443 -3.87776 2.14813 0
M  V30 8552 H 831.663 -0.496921 0.450899 0
M  V30 8553 H 834.207 -1.00886 1.77883 0
M  V30 8554 H 832.362 -3.49022 1.68115 0
M  V30 8555 H 832.776 -3.51301 3.89471 0
M  V30 8556 H 834.25 -4.7852 2.75178 0
M  V30 8557 H 834.727 -4.23997 1.14556 0
M  V30 8558 H 835.333 -3.3809 2.58022 0
M  V30 8559 N 833.648 -1.19017 -1.03309 0
M  V30 8560 C 834.595 -0.924088 -2.11493 0
M  V30 8561 C 835.565 0.139464 -1.65513 0
M  V30 8562 O 836.75 -0.00178761 -1.908 0
M  V30 8563 C 833.89 -0.464255 -3.41963 0
M  V30 8564 C 833.003 -1.5941 -4.01513 0
M  V30 8565 C 832.138 -1.08622 -5.19976 0
M  V30 8566 C 831.177 -2.19024 -5.71572 0
M  V30 8567 N 830.314 -1.69575 -6.81314 0
M  V30 8568 H 835.154 -1.85039 -2.33591 0
M  V30 8569 H 832.691 -0.922593 -1.14572 0
M  V30 8570 H 834.649 -0.179078 -4.16815 0
M  V30 8571 H 833.279 0.425062 -3.19989 0
M  V30 8572 H 832.331 -1.99458 -3.23915 0
M  V30 8573 H 833.643 -2.42604 -4.35826 0
M  V30 8574 H 832.797 -0.756022 -6.01971 0
M  V30 8575 H 831.536 -0.223955 -4.87186 0
M  V30 8576 H 830.541 -2.5288 -4.88193 0
M  V30 8577 H 831.766 -3.05699 -6.06403 0
M  V30 8578 H 829.712 -0.856494 -6.50385 0
M  V30 8579 H 829.629 -2.46361 -7.14732 0
M  V30 8580 H 830.897 -1.39505 -7.66915 0
M  V30 8581 N 835.127 1.22348 -0.993418 0
M  V30 8582 C 836.374 1.9111 -0.669568 0
M  V30 8583 C 836.702 1.77357 0.79843 0
M  V30 8584 O 835.957 1.13675 1.593 0
M  V30 8585 C 836.256 3.42477 -1.02197 0
M  V30 8586 C 835.922 3.7642 -2.48232 0
M  V30 8587 C 834.584 3.85395 -2.88139 0
M  V30 8588 C 836.936 3.9253 -3.42884 0
M  V30 8589 C 834.264 4.07918 -4.21687 0
M  V30 8590 C 836.616 4.16557 -4.76091 0
M  V30 8591 C 835.28 4.23757 -5.15739 0
M  V30 8592 H 834.55 0.699321 -0.245012 0
M  V30 8593 H 837.197 1.45102 -1.2497 0
M  V30 8594 H 835.502 3.90143 -0.359921 0
M  V30 8595 H 837.199 3.93935 -0.74942 0
M  V30 8596 H 833.789 3.70017 -2.16299 0
M  V30 8597 H 837.973 3.84974 -3.13224 0
M  V30 8598 H 833.229 4.11719 -4.51993 0
M  V30 8599 H 837.403 4.27966 -5.4938 0
M  V30 8600 H 835.03 4.40962 -6.19239 0
M  V30 8601 N 836.605 0.766683 1.37694 0
M  V30 8602 C 837.833 0.339939 2.04088 0
M  V30 8603 C 838.248 -1.03617 1.57826 0
M  V30 8604 O 837.605 -1.6605 0.757214 0
M  V30 8605 C 837.656 0.368269 3.59619 0
M  V30 8606 O 837.377 1.69009 4.04188 0
M  V30 8607 C 838.878 -0.0707053 4.43244 0
M  V30 8608 H 836.098 0.143189 0.655544 0
M  V30 8609 H 838.642 1.03919 1.76128 0
M  V30 8610 H 836.797 -0.282359 3.8637 0
M  V30 8611 H 837.211 1.62523 4.98685 0
M  V30 8612 H 838.685 0.000273538 5.52 0
M  V30 8613 H 839.162 -1.1204 4.24669 0
M  V30 8614 H 839.768 0.551543 4.21709 0
M  V30 8615 N 838.083 -1.48885 0.516809 0
M  V30 8616 C 839.013 -2.32241 -0.242157 0
M  V30 8617 C 839.994 -1.41258 -0.947633 0
M  V30 8618 O 841.179 -1.70156 -0.935973 0
M  V30 8619 C 838.309 -3.22151 -1.29754 0
M  V30 8620 C 837.263 -4.22053 -0.710995 0
M  V30 8621 C 836.589 -5.01007 -1.86806 0
M  V30 8622 C 837.889 -5.21388 0.30853 0
M  V30 8623 H 839.583 -2.95943 0.453651 0
M  V30 8624 H 837.129 -1.42316 0.219612 0
M  V30 8625 H 839.082 -3.79284 -1.83634 0
M  V30 8626 H 837.806 -2.56423 -2.02274 0
M  V30 8627 H 836.465 -3.66087 -0.193819 0
M  V30 8628 H 836.113 -4.31713 -2.58133 0
M  V30 8629 H 835.813 -5.68615 -1.48159 0
M  V30 8630 H 837.337 -5.60989 -2.4109 0
M  V30 8631 H 838.751 -5.73122 -0.142703 0
M  V30 8632 H 837.148 -5.96975 0.611673 0
M  V30 8633 H 838.218 -4.69329 1.21894 0
M  V30 8634 N 839.561 -0.251338 -1.55583 0
M  V30 8635 C 840.807 0.37272 -1.99346 0
M  V30 8636 C 841.14 1.57266 -1.13934 0
M  V30 8637 O 840.415 1.9343 -0.20377 0
M  V30 8638 C 840.698 0.778245 -3.5159 0
M  V30 8639 C 840.551 -0.427394 -4.47765 0
M  V30 8640 C 841.87 1.62358 -4.09057 0
M  V30 8641 H 838.989 0.134002 -0.724715 0
M  V30 8642 H 841.631 -0.353536 -1.86682 0
M  V30 8643 H 839.781 1.39704 -3.62512 0
M  V30 8644 H 841.453 -1.06586 -4.48818 0
M  V30 8645 H 839.696 -1.06972 -4.20404 0
M  V30 8646 H 840.367 -0.10025 -5.51909 0
M  V30 8647 H 842.843 1.1012 -4.01264 0
M  V30 8648 H 841.719 1.87617 -5.1584 0
M  V30 8649 H 841.98 2.59688 -3.57791 0
M  V30 8650 N 841.039 1.57585 0.0217189 0
M  V30 8651 C 841.969 2.10073 1.01939 0
M  V30 8652 C 842.95 1.0049 1.37243 0
M  V30 8653 O 844.135 1.28055 1.45999 0
M  V30 8654 C 841.265 2.58618 2.31806 0
M  V30 8655 C 840.219 3.72531 2.10724 0
M  V30 8656 C 839.545 4.07309 3.46415 0
M  V30 8657 C 840.845 5.00672 1.48743 0
M  V30 8658 H 842.539 2.9368 0.582432 0
M  V30 8659 H 840.085 1.41277 0.278715 0
M  V30 8660 H 842.038 2.9396 3.01936 0
M  V30 8661 H 840.762 1.72104 2.77575 0
M  V30 8662 H 839.421 3.37549 1.43025 0
M  V30 8663 H 839.069 3.17851 3.89846 0
M  V30 8664 H 838.769 4.84042 3.33132 0
M  V30 8665 H 840.293 4.45192 4.17895 0
M  V30 8666 H 841.707 5.33925 2.088 0
M  V30 8667 H 840.104 5.82065 1.46013 0
M  V30 8668 H 841.174 4.82769 0.45408 0
M  V30 8669 N 842.517 -0.29412 1.54831 0
M  V30 8670 C 843.747 -1.04572 1.7818 0
M  V30 8671 C 844.155 -1.81187 0.544776 0
M  V30 8672 O 843.498 -1.769 -0.495169 0
M  V30 8673 C 843.56 -2.06748 2.94101 0
M  V30 8674 C 843.224 -1.49265 4.31936 0
M  V30 8675 C 844.221 -0.919136 5.11711 0
M  V30 8676 C 841.906 -1.52621 4.78552 0
M  V30 8677 C 843.9 -0.386824 6.36225 0
M  V30 8678 C 841.587 -0.990031 6.03027 0
M  V30 8679 C 842.585 -0.421315 6.81699 0
M  V30 8680 O 842.273 0.106713 8.03829 0
M  V30 8681 H 842.005 -0.31559 0.597812 0
M  V30 8682 H 844.559 -0.336817 2.0262 0
M  V30 8683 H 842.789 -2.81339 2.65303 0
M  V30 8684 H 844.478 -2.67865 3.04964 0
M  V30 8685 H 845.244 -0.886062 4.76837 0
M  V30 8686 H 841.123 -1.95826 4.17341 0
M  V30 8687 H 844.667 0.0577248 6.97576 0
M  V30 8688 H 840.564 -1.02027 6.37386 0
M  V30 8689 H 841.332 -0.00593526 8.185 0
M  V30 8690 N 843.995 -1.47404 -0.557645 0
M  V30 8691 C 845.243 -1.53703 -1.31224 0
M  V30 8692 C 845.564 -0.200742 -1.93964 0
M  V30 8693 O 844.834 0.775253 -1.79907 0
M  V30 8694 H 843.414 -0.566171 -0.487299 0
M  V30 8695 H 846.076 -1.83699 -0.651195 0
M  V30 8696 H 845.172 -2.30335 -2.10599 0
M  V30 8697 N 845.473 0.80434 -1.35529 0
M  V30 8698 C 846.701 1.59283 -1.32048 0
M  V30 8699 C 847.116 1.88527 0.101556 0
M  V30 8700 O 846.473 1.48975 1.05417 0
M  V30 8701 C 846.524 2.92276 -2.12737 0
M  V30 8702 O 846.245 2.64299 -3.49396 0
M  V30 8703 C 847.746 3.86631 -2.16867 0
M  V30 8704 H 844.966 0.494523 -0.453528 0
M  V30 8705 H 847.51 0.999415 -1.78415 0
M  V30 8706 H 845.665 3.48125 -1.69964 0
M  V30 8707 H 846.079 3.4923 -3.91329 0
M  V30 8708 H 847.553 4.77053 -2.77712 0
M  V30 8709 H 848.03 4.23384 -1.16803 0
M  V30 8710 H 848.636 3.36717 -2.59811 0
M  V30 8711 N 846.951 1.19563 1.02676 0
M  V30 8712 C 847.914 0.937182 2.09164 0
M  V30 8713 C 848.914 -0.0831927 1.60585 0
M  V30 8714 O 850.104 0.15178 1.73538 0
M  V30 8715 C 847.236 0.408912 3.38439 0
M  V30 8716 H 848.429 1.88164 2.33526 0
M  V30 8717 H 845.982 1.00959 1.19319 0
M  V30 8718 H 846.717 -0.541497 3.19747 0
M  V30 8719 H 846.502 1.14464 3.7502 0
M  V30 8720 H 847.992 0.247242 4.16867 0
M  V30 8721 N 848.429 -1.21819 0.999893 0
M  V30 8722 C 849.84 -1.72517 0.713775 0
M  V30 8723 C 850.191 -1.80505 -0.768922 0
M  V30 8724 O 849.316 -1.45611 -1.60083 0
M  V30 8725 C 849.911 -3.13321 1.28901 0
M  V30 8726 C 848.47 -3.61396 1.05212 0
M  V30 8727 C 847.617 -2.39074 1.40494 0
M  V30 8728 H 850.568 -1.07068 1.17141 0
M  V30 8729 H 850.589 -3.74535 0.671084 0
M  V30 8730 H 850.101 -3.07475 2.36814 0
M  V30 8731 H 848.202 -3.72599 -0.0100732 0
M  V30 8732 H 848.315 -4.47145 1.72042 0
M  V30 8733 H 846.679 -2.41015 0.823642 0
M  V30 8734 H 847.462 -2.35884 2.49427 0
M  V30 8735 N 849.908 -0.773975 -1.37286 0
M  V30 8736 C 850.818 -0.162571 -2.34036 0
M  V30 8737 C 851.834 0.677022 -1.60289 0
M  V30 8738 O 853.01 0.596423 -1.92366 0
M  V30 8739 C 850.075 0.70457 -3.39465 0
M  V30 8740 C 849.136 -0.151738 -4.29032 0
M  V30 8741 C 848.369 0.674111 -5.29426 0
M  V30 8742 O 848.592 1.91107 -5.37433 0
M  V30 8743 O 847.526 0.0821398 -6.01844 0
M  V30 8744 H 851.352 -0.962119 -2.88057 0
M  V30 8745 H 848.937 -0.53517 -1.39486 0
M  V30 8746 H 850.819 1.19954 -4.03967 0
M  V30 8747 H 849.494 1.48227 -2.87768 0
M  V30 8748 H 848.401 -0.693118 -3.67623 0
M  V30 8749 H 849.734 -0.892575 -4.84039 0
M  V30 8750 N 851.386 1.48609 -0.524698 0
M  V30 8751 C 852.634 2.02097 0.0112991 0
M  V30 8752 C 852.955 1.40455 1.35268 0
M  V30 8753 O 852.225 0.56807 1.87483 0
M  V30 8754 H 850.805 0.746966 0.00716426 0
M  V30 8755 H 853.467 1.82378 -0.687329 0
M  V30 8756 H 852.563 3.11855 0.123531 0
M  V30 8757 N 852.864 0.259585 1.55447 0
M  V30 8758 C 853.794 -0.62852 2.24882 0
M  V30 8759 C 854.775 -1.17128 1.23349 0
M  V30 8760 O 855.96 -1.20829 1.52033 0
M  V30 8761 C 853.09 -1.81983 2.95803 0
M  V30 8762 C 852.044 -1.40929 4.04132 0
M  V30 8763 C 851.37 -2.68246 4.62545 0
M  V30 8764 C 852.67 -0.570956 5.1917 0
M  V30 8765 H 854.364 -0.0495021 2.99359 0
M  V30 8766 H 851.91 -0.0223688 1.43983 0
M  V30 8767 H 853.863 -2.44689 3.43082 0
M  V30 8768 H 852.587 -2.42444 2.18835 0
M  V30 8769 H 851.246 -0.805519 3.57641 0
M  V30 8770 H 850.894 -3.26931 3.82263 0
M  V30 8771 H 850.594 -2.41495 5.35681 0
M  V30 8772 H 852.118 -3.31827 5.12565 0
M  V30 8773 H 853.532 -1.10262 5.62597 0
M  V30 8774 H 851.929 -0.398979 5.98772 0
M  V30 8775 H 852.999 0.413918 4.8313 0
M  V30 8776 N 854.342 -1.57594 -0.0133615 0
M  V30 8777 C 855.753 -1.78168 -0.557937 0
M  V30 8778 C 856.104 -0.892616 -1.74719 0
M  V30 8779 O 855.229 -0.0915491 -2.16206 0
M  V30 8780 C 855.824 -3.23115 -1.01894 0
M  V30 8781 C 854.383 -3.44831 -1.50892 0
M  V30 8782 C 853.53 -2.73558 -0.454044 0
M  V30 8783 H 856.481 -1.57266 0.212843 0
M  V30 8784 H 856.502 -3.30493 -1.8856 0
M  V30 8785 H 856.014 -3.87798 -0.153175 0
M  V30 8786 H 854.115 -2.85345 -2.39602 0
M  V30 8787 H 854.228 -4.53485 -1.54559 0
M  V30 8788 H 852.592 -2.37787 -0.912666 0
M  V30 8789 H 853.375 -3.40932 0.402524 0
M  V30 8790 N 855.82 0.285905 -1.54985 0
M  V30 8791 C 857.066 1.02071 -1.75241 0
M  V30 8792 C 857.399 1.864 -0.544842 0
M  V30 8793 O 856.674 1.89034 0.457844 0
M  V30 8794 C 856.957 1.91409 -3.05016 0
M  V30 8795 C 856.81 1.10158 -4.36102 0
M  V30 8796 C 858.129 2.90335 -3.30747 0
M  V30 8797 H 855.248 0.369663 -0.637588 0
M  V30 8798 H 857.89 0.294114 -1.8771 0
M  V30 8799 H 856.04 2.53362 -2.94517 0
M  V30 8800 H 857.712 0.503756 -4.58541 0
M  V30 8801 H 855.955 0.404675 -4.31908 0
M  V30 8802 H 856.626 1.75956 -5.23205 0
M  V30 8803 H 859.102 2.38514 -3.40955 0
M  V30 8804 H 857.978 3.49997 -4.2284 0
M  V30 8805 H 858.239 3.64787 -2.49765 0
M  V30 8806 N 857.298 1.47698 0.54982 0
M  V30 8807 C 858.709 1.48474 1.13191 0
M  V30 8808 C 859.06 0.243504 1.94683 0
M  V30 8809 O 858.185 -0.651009 2.06375 0
M  V30 8810 C 858.78 2.69022 2.05944 0
M  V30 8811 C 857.339 2.72733 2.5941 0
M  V30 8812 C 856.486 2.41691 1.35944 0
M  V30 8813 H 859.437 1.55101 0.336048 0
M  V30 8814 H 859.458 2.46412 2.89934 0
M  V30 8815 H 858.97 3.59345 1.46605 0
M  V30 8816 H 857.071 1.86568 3.22526 0
M  V30 8817 H 857.184 3.73628 2.99899 0
M  V30 8818 H 855.548 1.92428 1.66864 0
M  V30 8819 H 856.331 3.34231 0.783869 0
M  V30 8820 N 858.776 -0.797141 1.35954 0
M  V30 8821 C 860.187 -1.37179 1.26644 0
M  V30 8822 C 860.538 -1.9596 -0.0971046 0
M  V30 8823 O 859.663 -1.91994 -0.998355 0
M  V30 8824 C 860.258 -2.49395 2.2932 0
M  V30 8825 C 858.817 -3.02697 2.23722 0
M  V30 8826 C 857.964 -1.75721 2.14517 0
M  V30 8827 H 860.915 -0.599407 1.46945 0
M  V30 8828 H 860.936 -3.28204 1.92515 0
M  V30 8829 H 860.448 -2.06584 3.2855 0
M  V30 8830 H 858.549 -3.49948 1.27934 0
M  V30 8831 H 858.662 -3.60036 3.16087 0
M  V30 8832 H 857.026 -1.97649 1.60646 0
M  V30 8833 H 857.809 -1.35049 3.15621 0
M  V30 8834 N 860.254 -1.20106 -1.0204 0
M  V30 8835 C 861.164 -0.962051 -2.13967 0
M  V30 8836 C 862.18 0.0808053 -1.73812 0
M  V30 8837 O 863.356 -0.105774 -2.01122 0
M  V30 8838 C 860.421 -0.513108 -3.42882 0
M  V30 8839 C 859.482 -1.62636 -3.97301 0
M  V30 8840 C 858.715 -1.19875 -5.20063 0
M  V30 8841 O 858.938 -0.0658423 -5.70362 0
M  V30 8842 O 857.872 -2.00467 -5.67536 0
M  V30 8843 H 861.698 -1.8991 -2.36998 0
M  V30 8844 H 859.283 -0.984608 -1.12365 0
M  V30 8845 H 861.165 -0.271797 -4.20523 0
M  V30 8846 H 859.84 0.395402 -3.21276 0
M  V30 8847 H 858.747 -1.92192 -3.20957 0
M  V30 8848 H 860.08 -2.51174 -4.23288 0
M  V30 8849 N 861.732 1.21287 -1.00634 0
M  V30 8850 C 862.957 1.94925 -0.708441 0
M  V30 8851 C 863.382 1.73659 0.722783 0
M  V30 8852 O 862.74 1.02429 1.49593 0
M  V30 8853 C 862.788 3.45377 -1.03667 0
M  V30 8854 O 861.892 4.12153 -0.142661 0
M  V30 8855 H 861.233 0.609338 -0.263824 0
M  V30 8856 H 863.763 1.54008 -1.34695 0
M  V30 8857 H 863.773 3.95954 -0.984086 0
M  V30 8858 H 862.448 3.6018 -2.0795 0
M  V30 8859 H 861.025 3.72048 -0.251888 0
M  V30 8860 N 863.21 0.781244 1.36873 0
M  V30 8861 C 864.435 0.360398 2.04245 0
M  V30 8862 C 864.86 -1.01242 1.58529 0
M  V30 8863 O 864.218 -1.65063 0.749936 0
M  V30 8864 C 864.266 0.42329 3.58107 0
M  V30 8865 O 863.37 -0.572796 4.08403 0
M  V30 8866 H 862.711 0.154386 0.645803 0
M  V30 8867 H 865.241 1.06008 1.74996 0
M  V30 8868 H 865.251 0.283967 4.07011 0
M  V30 8869 H 863.926 1.42477 3.90734 0
M  V30 8870 H 862.503 -0.395809 3.70793 0
M  V30 8871 N 864.689 -1.48329 0.532571 0
M  V30 8872 C 865.937 -2.021 -0.000581206 0
M  V30 8873 C 866.258 -1.4117 -1.34522 0
M  V30 8874 O 865.528 -0.578005 -1.87179 0
M  V30 8875 H 864.108 -0.746993 -0.00320281 0
M  V30 8876 H 866.77 -1.82011 0.696991 0
M  V30 8877 H 865.866 -3.11917 -0.106991 0
M  V30 8878 N 866.167 -0.267825 -1.55308 0
M  V30 8879 C 867.407 0.352316 -2.01341 0
M  V30 8880 C 867.771 1.53593 -1.1521 0
M  V30 8881 O 868.972 2.22521 -1.50791 0
M  V30 8882 C 867.243 0.731857 -3.49827 0
M  V30 8883 S 868.802 1.33956 -4.17853 0
M  V30 8884 H 865.62 0.109927 -0.702451 0
M  V30 8885 H 868.222 -0.387955 -1.91612 0
M  V30 8886 H 866.926 -0.138561 -4.10166 0
M  V30 8887 H 866.457 1.50378 -3.63525 0
M  V30 8888 H 868.472 2.62831 -4.20874 0
M  V30 8889 N 867.645 1.57599 0.00500368 0
M  V30 8890 C 868.592 2.08106 0.998025 0
M  V30 8891 C 869.562 0.975374 1.34446 0
M  V30 8892 O 870.747 1.24749 1.44369 0
M  V30 8893 C 867.887 2.58496 2.28635 0
M  V30 8894 C 867 3.82947 1.99939 0
M  V30 8895 C 866.135 4.21857 3.22816 0
M  V30 8896 C 865.174 5.39159 2.89783 0
M  V30 8897 N 864.311 5.73386 4.05183 0
M  V30 8898 H 869.151 2.92684 0.560385 0
M  V30 8899 H 866.688 1.44692 0.265053 0
M  V30 8900 H 868.646 2.85787 3.03943 0
M  V30 8901 H 867.276 1.768 2.70077 0
M  V30 8902 H 866.328 3.62594 1.1502 0
M  V30 8903 H 867.64 4.68358 1.71588 0
M  V30 8904 H 866.794 4.50404 4.06474 0
M  V30 8905 H 865.533 3.35145 3.54301 0
M  V30 8906 H 864.538 5.1034 2.04532 0
M  V30 8907 H 865.763 6.27543 2.59551 0
M  V30 8908 H 863.709 4.89632 4.36574 0
M  V30 8909 H 863.626 6.53359 3.80339 0
M  V30 8910 H 864.894 6.06522 4.89644 0
M  V30 8911 N 869.123 -0.277682 1.55134 0
M  V30 8912 C 870.351 -1.02826 1.7954 0
M  V30 8913 C 870.766 -1.80105 0.566373 0
M  V30 8914 O 870.123 -1.76491 -0.464448 0
M  V30 8915 C 870.174 -1.99053 3.01762 0
M  V30 8916 O 869.895 -1.24906 4.19917 0
M  V30 8917 C 871.396 -2.85961 3.38735 0
M  V30 8918 H 868.616 -0.303958 0.598206 0
M  V30 8919 H 871.16 -0.309884 2.02138 0
M  V30 8920 H 869.315 -2.66359 2.81303 0
M  V30 8921 H 869.729 -1.89725 4.88983 0
M  V30 8922 H 871.203 -3.49286 4.27438 0
M  V30 8923 H 871.68 -3.55486 2.57928 0
M  V30 8924 H 872.286 -2.24152 3.61436 0
M  V30 8925 N 870.601 -1.47988 -0.541979 0
M  V30 8926 C 871.531 -1.64503 -1.65713 0
M  V30 8927 C 872.512 -0.494116 -1.62765 0
M  V30 8928 O 873.697 -0.725256 -1.80149 0
M  V30 8929 C 870.827 -1.67337 -3.04328 0
M  V30 8930 C 869.781 -2.81809 -3.2213 0
M  V30 8931 C 869.107 -2.69724 -4.61685 0
M  V30 8932 C 870.407 -4.23241 -3.06046 0
M  V30 8933 H 872.101 -2.5786 -1.52147 0
M  V30 8934 H 869.647 -1.24094 -0.730529 0
M  V30 8935 H 871.6 -1.77481 -3.82202 0
M  V30 8936 H 870.324 -0.705514 -3.18889 0
M  V30 8937 H 868.983 -2.71201 -2.46669 0
M  V30 8938 H 868.631 -1.70934 -4.73065 0
M  V30 8939 H 868.331 -3.4653 -4.74543 0
M  V30 8940 H 869.855 -2.81818 -5.41674 0
M  V30 8941 H 871.269 -4.34746 -3.73723 0
M  V30 8942 H 869.666 -5.00952 -3.30405 0
M  V30 8943 H 870.736 -4.40543 -2.02609 0
M  V30 8944 N 872.079 0.78992 -1.36375 0
M  V30 8945 C 873.307 1.57873 -1.3373 0
M  V30 8946 C 873.722 1.88624 0.0815544 0
M  V30 8947 O 873.079 1.50085 1.03831 0
M  V30 8948 C 873.13 2.90003 -2.15825 0
M  V30 8949 O 872.851 2.60578 -3.5218 0
M  V30 8950 C 874.352 3.84309 -2.20955 0
M  V30 8951 H 871.572 0.489685 -0.458748 0
M  V30 8952 H 874.116 0.980436 -1.79465 0
M  V30 8953 H 872.271 3.46303 -1.73646 0
M  V30 8954 H 872.685 3.4506 -3.95011 0
M  V30 8955 H 874.159 4.74081 -2.82756 0
M  V30 8956 H 874.636 4.22121 -1.21287 0
M  V30 8957 H 875.242 3.33942 -2.63368 0
M  V30 8958 N 873.557 1.20646 1.01402 0
M  V30 8959 C 874.782 1.04462 1.79172 0
M  V30 8960 C 875.207 -0.401588 1.83763 0
M  V30 8961 O 874.565 -1.28934 1.27459 0
M  V30 8962 C 874.613 1.63583 3.21361 0
M  V30 8963 O 873.717 0.875198 4.03006 0
M  V30 8964 H 873.058 0.368235 0.552539 0
M  V30 8965 H 875.588 1.59994 1.27526 0
M  V30 8966 H 875.598 1.67426 3.72065 0
M  V30 8967 H 874.273 2.68835 3.17334 0
M  V30 8968 H 872.85 0.911172 3.61597 0
M  V30 8969 N 875.035 -1.20752 1.01276 0
M  V30 8970 C 876.26 -1.94547 0.718769 0
M  V30 8971 C 876.685 -1.7404 -0.713563 0
M  V30 8972 O 876.043 -1.03221 -1.49047 0
M  V30 8973 C 876.091 -3.44823 1.05497 0
M  V30 8974 O 875.195 -4.12072 0.164516 0
M  V30 8975 H 874.536 -0.607931 0.267051 0
M  V30 8976 H 877.066 -1.53292 1.35509 0
M  V30 8977 H 877.076 -3.95427 1.00507 0
M  V30 8978 H 875.751 -3.59072 2.09858 0
M  V30 8979 H 874.328 -3.71909 0.271615 0
M  V30 8980 N 876.513 -0.788492 -1.36457 0
M  V30 8981 C 877.445 -0.144208 -2.28746 0
M  V30 8982 C 878.458 0.646009 -1.49434 0
M  V30 8983 O 879.647 0.481344 -1.71888 0
M  V30 8984 C 876.747 0.818869 -3.28858 0
M  V30 8985 C 875.92 0.0789055 -4.37329 0
M  V30 8986 C 874.979 0.957791 -5.1741 0
M  V30 8987 O 874.005 0.415378 -5.67682 0
M  V30 8988 N 875.207 2.28216 -5.33758 0
M  V30 8989 H 877.972 -0.936949 -2.84678 0
M  V30 8990 H 875.533 -0.642317 -1.48613 0
M  V30 8991 H 877.525 1.41065 -3.79319 0
M  V30 8992 H 876.095 1.51249 -2.73573 0
M  V30 8993 H 875.315 -0.693939 -3.88044 0
M  V30 8994 H 876.603 -0.431753 -5.06965 0
M  V30 8995 H 876.001 2.747 -4.94527 0
M  V30 8996 H 874.558 2.8236 -5.87466 0
M  V30 8997 N 877.991 1.48044 -0.54043 0
M  V30 8998 C 878.954 2.28273 0.205966 0
M  V30 8999 C 879.954 1.35983 0.858209 0
M  V30 9000 O 881.144 1.58776 0.716651 0
M  V30 9001 C 878.276 3.15174 1.29917 0
M  V30 9002 H 879.469 2.95727 -0.498555 0
M  V30 9003 H 877.022 1.53457 -0.296745 0
M  V30 9004 H 877.757 2.52374 2.03661 0
M  V30 9005 H 877.542 3.83074 0.836475 0
M  V30 9006 H 879.032 3.75666 1.82387 0
M  V30 9007 N 879.47 0.276058 1.55163 0
M  V30 9008 C 880.71 -0.341634 2.01525 0
M  V30 9009 C 881.074 -1.52979 1.16023 0
M  V30 9010 O 882.275 -2.21718 1.51968 0
M  V30 9011 C 880.546 -0.713294 3.5021 0
M  V30 9012 S 882.105 -1.31739 4.18558 0
M  V30 9013 H 878.923 -0.1062 0.703024 0
M  V30 9014 H 881.525 0.398112 1.91404 0
M  V30 9015 H 880.229 0.160311 4.10087 0
M  V30 9016 H 879.76 -1.48448 3.64317 0
M  V30 9017 H 881.775 -2.60595 4.22261 0
M  V30 9018 N 880.948 -1.576 0.00335426 0
M  V30 9019 C 882.194 -1.90996 -0.681799 0
M  V30 9020 C 882.527 -0.877643 -1.73237 0
M  V30 9021 O 881.802 0.103183 -1.94226 0
M  V30 9022 C 882.085 -3.34961 -1.32187 0
M  V30 9023 C 881.938 -4.48911 -0.28261 0
M  V30 9024 C 883.257 -3.78408 -2.24711 0
M  V30 9025 H 880.376 -0.694596 -0.246386 0
M  V30 9026 H 883.018 -1.89919 0.055336 0
M  V30 9027 H 881.168 -3.36008 -1.95014 0
M  V30 9028 H 882.84 -4.59999 0.346241 0
M  V30 9029 H 881.083 -4.32 0.394768 0
M  V30 9030 H 881.754 -5.46609 -0.769576 0
M  V30 9031 H 884.23 -3.78934 -1.71897 0
M  V30 9032 H 883.106 -4.79885 -2.66461 0
M  V30 9033 H 883.367 -3.12464 -3.1276 0
M  V30 9034 N 882.426 0.269451 -1.5528 0
M  V30 9035 C 883.672 1.00206 -1.76314 0
M  V30 9036 C 884.005 1.85812 -0.564581 0
M  V30 9037 O 883.28 1.89509 0.437769 0
M  V30 9038 C 883.563 1.88163 -3.07029 0
M  V30 9039 C 883.416 1.05527 -4.37246 0
M  V30 9040 C 884.735 2.8681 -3.33808 0
M  V30 9041 H 881.854 0.36288 -0.641473 0
M  V30 9042 H 884.496 0.274188 -1.88011 0
M  V30 9043 H 882.646 2.50224 -2.97187 0
M  V30 9044 H 884.318 0.455094 -4.5905 0
M  V30 9045 H 882.561 0.358842 -4.32313 0
M  V30 9046 H 883.232 1.70397 -5.25042 0
M  V30 9047 H 885.708 2.34884 -3.43466 0
M  V30 9048 H 884.584 3.45492 -4.26528 0
M  V30 9049 H 884.845 3.62118 -2.5362 0
M  V30 9050 N 883.904 1.48273 0.534124 0
M  V30 9051 C 885.144 1.57674 1.3007 0
M  V30 9052 C 885.508 0.243256 1.90453 0
M  V30 9053 O 886.709 0.212231 2.67961 0
M  V30 9054 C 884.98 2.68044 2.36405 0
M  V30 9055 S 886.539 2.97183 3.22843 0
M  V30 9056 H 883.357 0.55652 0.442501 0
M  V30 9057 H 885.959 1.85774 0.60896 0
M  V30 9058 H 884.663 3.63498 1.90518 0
M  V30 9059 H 884.194 2.41833 3.10291 0
M  V30 9060 H 886.209 2.36164 4.36396 0
M  V30 9061 N 885.382 -0.782676 1.36792 0
M  V30 9062 C 886.292 -1.92679 1.33835 0
M  V30 9063 C 887.308 -1.72344 0.23952 0
M  V30 9064 O 888.484 -1.95766 0.473045 0
M  V30 9065 C 885.549 -3.27644 1.1336 0
M  V30 9066 C 884.61 -3.6071 2.32781 0
M  V30 9067 C 883.843 -4.89234 2.13273 0
M  V30 9068 O 884.066 -5.59468 1.11136 0
M  V30 9069 O 883 -5.21112 3.01208 0
M  V30 9070 H 886.826 -1.98124 2.30175 0
M  V30 9071 H 884.411 -0.923887 1.17408 0
M  V30 9072 H 886.293 -4.08394 1.03886 0
M  V30 9073 H 884.968 -3.23076 0.200868 0
M  V30 9074 H 883.875 -2.80238 2.47825 0
M  V30 9075 H 885.208 -3.70008 3.24584 0
M  V30 9076 N 886.86 -1.21182 -1.00761 0
M  V30 9077 C 887.77 -0.984691 -2.12934 0
M  V30 9078 C 888.786 0.0623657 -1.73888 0
M  V30 9079 O 889.962 -0.1271 -2.00999 0
M  V30 9080 C 887.027 -0.549447 -3.42319 0
M  V30 9081 C 886.088 -1.66841 -3.95553 0
M  V30 9082 C 885.321 -1.25384 -5.18763 0
M  V30 9083 O 885.544 -0.126333 -5.7026 0
M  V30 9084 O 884.478 -2.06475 -5.65377 0
M  V30 9085 H 888.304 -1.92413 -2.3497 0
M  V30 9086 H 885.889 -0.99647 -1.11314 0
M  V30 9087 H 887.771 -0.316384 -4.20211 0
M  V30 9088 H 886.446 0.361304 -3.21677 0
M  V30 9089 H 885.353 -1.95585 -3.189 0
M  V30 9090 H 886.686 -2.55649 -4.206 0
M  V30 9091 N 888.338 1.20213 -1.01915 0
M  V30 9092 C 889.586 1.89272 -0.708552 0
M  V30 9093 C 889.907 1.79394 0.76438 0
M  V30 9094 O 889.177 1.198 1.54999 0
M  V30 9095 H 887.757 0.700628 -0.259094 0
M  V30 9096 H 890.419 1.45985 -1.29129 0
M  V30 9097 H 889.515 2.95841 -0.994215 0
M  V30 9098 N 889.816 0.795718 1.36037 0
M  V30 9099 C 891.063 0.371024 1.99072 0
M  V30 9100 C 891.391 -1.05896 1.63145 0
M  V30 9101 O 890.646 -1.7474 0.881163 0
M  V30 9102 C 890.945 0.489038 3.54038 0
M  V30 9103 C 890.611 1.88075 4.09803 0
M  V30 9104 C 889.273 2.26152 4.24745 0
M  V30 9105 C 891.625 2.79174 4.40126 0
M  V30 9106 C 888.953 3.54718 4.67324 0
M  V30 9107 C 891.305 4.07175 4.8414 0
M  V30 9108 C 889.969 4.45266 4.97287 0
M  V30 9109 H 889.239 0.135767 0.728456 0
M  V30 9110 H 891.886 1.0144 1.62426 0
M  V30 9111 H 890.191 -0.237823 3.91078 0
M  V30 9112 H 891.888 0.141374 4.00751 0
M  V30 9113 H 888.478 1.57488 3.98617 0
M  V30 9114 H 892.662 2.51009 4.28145 0
M  V30 9115 H 887.918 3.84093 4.75691 0
M  V30 9116 H 892.092 4.77875 5.06565 0
M  V30 9117 H 889.719 5.44943 5.30038 0
M  V30 9118 N 891.294 -1.47756 0.548274 0
M  V30 9119 C 892.519 -2.07387 0.023475 0
M  V30 9120 C 892.944 -1.39956 -1.25674 0
M  V30 9121 O 892.302 -0.471543 -1.7506 0
M  V30 9122 C 892.35 -3.60224 -0.164669 0
M  V30 9123 O 891.454 -3.93653 -1.22928 0
M  V30 9124 H 890.795 -0.662312 0.0473156 0
M  V30 9125 H 893.325 -1.89905 0.761409 0
M  V30 9126 H 893.335 -4.06211 -0.38166 0
M  V30 9127 H 892.01 -4.08702 0.770425 0
M  V30 9128 H 890.587 -3.59422 -0.993495 0
M  V30 9129 N 892.772 -0.284283 -1.55015 0
M  V30 9130 C 893.702 0.592663 -2.25853 0
M  V30 9131 C 894.683 1.15151 -1.25197 0
M  V30 9132 O 895.868 1.18395 -1.53936 0
M  V30 9133 C 892.998 1.77254 -2.98661 0
M  V30 9134 C 891.952 1.34482 -4.06323 0
M  V30 9135 C 891.278 2.60853 -4.66754 0
M  V30 9136 C 892.578 0.488288 -5.20013 0
M  V30 9137 H 894.272 0.00187041 -2.994 0
M  V30 9138 H 891.818 -0.000540402 -1.44 0
M  V30 9139 H 893.771 2.39199 -3.46932 0
M  V30 9140 H 892.495 2.38931 -2.22664 0
M  V30 9141 H 891.154 0.748519 -3.58877 0
M  V30 9142 H 890.802 3.20808 -3.87416 0
M  V30 9143 H 890.502 2.32942 -5.39455 0
M  V30 9144 H 892.026 3.23631 -5.1778 0
M  V30 9145 H 893.44 1.01298 -5.6428 0
M  V30 9146 H 891.837 0.303669 -5.99331 0
M  V30 9147 H 892.907 -0.490727 -4.8241 0
M  V30 9148 N 894.251 1.57596 -0.0117121 0
M  V30 9149 C 895.201 2.05641 0.98467 0
M  V30 9150 C 896.185 0.953422 1.2961 0
M  V30 9151 O 897.377 1.21712 1.28512 0
M  V30 9152 C 894.506 2.57285 2.27286 0
M  V30 9153 C 893.592 3.74483 1.99057 0
M  V30 9154 N 893.983 4.85741 1.41029 0
M  V30 9155 C 892.281 3.82637 2.2914 0
M  V30 9156 C 892.982 5.67094 1.29536 0
M  V30 9157 N 891.958 5.13459 1.78497 0
M  V30 9158 H 895.76 2.89069 0.530702 0
M  V30 9159 H 893.274 1.6124 0.193717 0
M  V30 9160 H 895.271 2.89988 2.99521 0
M  V30 9161 H 893.931 1.75281 2.73325 0
M  V30 9162 H 894.942 5.06352 1.08756 0
M  V30 9163 H 891.619 3.11509 2.77972 0
M  V30 9164 H 893.009 6.66525 0.848144 0
M  V30 9165 N 895.729 -0.261212 1.5542 0
M  V30 9166 C 896.661 -1.34571 1.85535 0
M  V30 9167 C 897.674 -1.44979 0.740612 0
M  V30 9168 O 898.863 -1.46584 1.01859 0
M  V30 9169 C 895.963 -2.7258 2.01378 0
M  V30 9170 C 895.136 -2.84618 3.32131 0
M  V30 9171 C 894.195 -4.03379 3.37893 0
M  V30 9172 O 893.221 -3.93581 4.11197 0
M  V30 9173 N 894.423 -5.15893 2.66148 0
M  V30 9174 H 897.188 -1.09078 2.79145 0
M  V30 9175 H 894.749 -0.451327 1.55482 0
M  V30 9176 H 896.741 -3.50342 2.0259 0
M  V30 9177 H 895.311 -2.90844 1.14579 0
M  V30 9178 H 894.531 -1.93647 3.43358 0
M  V30 9179 H 895.819 -2.896 4.18341 0
M  V30 9180 H 895.217 -5.26743 2.06297 0
M  V30 9181 H 893.774 -5.91842 2.73069 0
M  V30 9182 N 897.207 -1.48554 -0.526253 0
M  V30 9183 C 898.154 -1.63354 -1.63046 0
M  V30 9184 C 899.124 -0.475509 -1.59148 0
M  V30 9185 O 900.309 -0.699453 -1.77517 0
M  V30 9186 C 897.449 -1.68271 -3.01295 0
M  V30 9187 C 896.562 -2.95207 -3.15399 0
M  V30 9188 C 895.697 -2.91262 -4.4423 0
M  V30 9189 C 894.736 -4.12886 -4.51876 0
M  V30 9190 N 893.873 -4.06996 -5.721 0
M  V30 9191 H 898.713 -2.57649 -1.49737 0
M  V30 9192 H 896.25 -1.27769 -0.728938 0
M  V30 9193 H 898.208 -1.69104 -3.81392 0
M  V30 9194 H 896.838 -0.774641 -3.13367 0
M  V30 9195 H 895.89 -3.04102 -2.2853 0
M  V30 9196 H 897.202 -3.85187 -3.1691 0
M  V30 9197 H 896.356 -2.90516 -5.32621 0
M  V30 9198 H 895.095 -1.99016 -4.45246 0
M  V30 9199 H 894.1 -4.13902 -3.61891 0
M  V30 9200 H 895.325 -5.06294 -4.52596 0
M  V30 9201 H 893.271 -3.17573 -5.74006 0
M  V30 9202 H 893.188 -4.90685 -5.75121 0
M  V30 9203 H 894.456 -4.10315 -6.62768 0
M  V30 9204 N 898.685 0.775411 -1.37205 0
M  V30 9205 C 899.91 1.5696 -1.35567 0
M  V30 9206 C 900.335 1.88012 0.0575554 0
M  V30 9207 O 899.693 1.48954 1.03355 0
M  V30 9208 C 899.741 2.85886 -2.19776 0
M  V30 9209 O 898.845 3.80103 -1.59987 0
M  V30 9210 H 898.186 0.475583 -0.463375 0
M  V30 9211 H 900.716 0.96001 -1.80679 0
M  V30 9212 H 900.726 3.35024 -2.32859 0
M  V30 9213 H 899.401 2.62613 -3.22502 0
M  V30 9214 H 897.978 3.38736 -1.55924 0
M  V30 9215 N 900.163 1.21714 1.00117 0
M  V30 9216 C 901.403 1.04818 1.75478 0
M  V30 9217 C 901.767 -0.410653 1.87557 0
M  V30 9218 O 902.968 -0.700241 2.59519 0
M  V30 9219 C 901.239 1.73055 3.12709 0
M  V30 9220 S 902.798 1.71464 4.03913 0
M  V30 9221 H 899.616 0.375534 0.603734 0
M  V30 9222 H 902.218 1.54522 1.19763 0
M  V30 9223 H 900.922 2.78376 3.01554 0
M  V30 9224 H 900.453 1.23546 3.73497 0
M  V30 9225 H 902.468 0.75845 4.90369 0
M  V30 9226 N 901.641 -1.19671 1.02551 0
M  V30 9227 C 902.887 -1.89548 0.721069 0
M  V30 9228 C 903.22 -1.79209 -0.748176 0
M  V30 9229 O 902.495 -1.1822 -1.54448 0
M  V30 9230 C 902.778 -3.4061 1.16861 0
M  V30 9231 C 902.631 -3.59838 2.69883 0
M  V30 9232 C 903.95 -4.33718 0.746782 0
M  V30 9233 H 901.069 -0.688315 0.263422 0
M  V30 9234 H 903.711 -1.40883 1.27483 0
M  V30 9235 H 901.861 -3.82188 0.697477 0
M  V30 9236 H 903.533 -3.27454 3.24917 0
M  V30 9237 H 901.776 -3.03005 3.10435 0
M  V30 9238 H 902.447 -4.65766 2.96253 0
M  V30 9239 H 904.923 -3.99837 1.15195 0
M  V30 9240 H 903.799 -5.38012 1.08786 0
M  V30 9241 H 904.06 -4.40704 -0.351057 0
M  V30 9242 N 903.119 -0.802921 -1.35613 0
M  V30 9243 C 904.051 -0.168461 -2.2858 0
M  V30 9244 C 905.064 0.630123 -1.50111 0
M  V30 9245 O 906.253 0.463086 -1.72388 0
M  V30 9246 C 903.353 0.783943 -3.29708 0
M  V30 9247 C 902.526 0.0325165 -4.37388 0
M  V30 9248 C 901.585 0.902859 -5.18396 0
M  V30 9249 O 900.611 0.355144 -5.68091 0
M  V30 9250 N 901.813 2.22542 -5.36149 0
M  V30 9251 H 904.578 -0.96709 -2.83668 0
M  V30 9252 H 902.139 -0.658043 -1.47924 0
M  V30 9253 H 904.131 1.37034 -3.80794 0
M  V30 9254 H 902.701 1.48339 -2.75162 0
M  V30 9255 H 901.921 -0.735057 -3.87286 0
M  V30 9256 H 903.209 -0.485499 -5.06478 0
M  V30 9257 H 902.607 2.69439 -4.97412 0
M  V30 9258 H 901.164 2.76113 -5.90428 0
M  V30 9259 N 904.597 1.47463 -0.556102 0
M  V30 9260 C 905.547 2.27007 0.212592 0
M  V30 9261 C 906.531 1.34288 0.886312 0
M  V30 9262 O 907.723 1.5865 0.784801 0
M  V30 9263 C 904.852 3.20021 1.24263 0
M  V30 9264 C 903.938 4.2022 0.572385 0
M  V30 9265 N 904.329 5.04539 -0.35691 0
M  V30 9266 C 902.627 4.38276 0.826441 0
M  V30 9267 C 903.328 5.76895 -0.746134 0
M  V30 9268 N 902.304 5.43506 -0.101225 0
M  V30 9269 H 906.106 2.89582 -0.501925 0
M  V30 9270 H 903.62 1.57988 -0.375961 0
M  V30 9271 H 905.617 3.7569 1.80728 0
M  V30 9272 H 904.277 2.59003 1.95826 0
M  V30 9273 H 905.288 5.12715 -0.731012 0
M  V30 9274 H 901.965 3.88429 1.53066 0
M  V30 9275 H 903.355 6.5472 -1.50967 0
M  V30 9276 N 906.075 0.2925 1.54862 0
M  V30 9277 C 907.315 -0.32024 2.01876 0
M  V30 9278 C 907.679 -1.5174 1.17639 0
M  V30 9279 O 908.88 -2.20094 1.54312 0
M  V30 9280 C 907.151 -0.67611 3.50947 0
M  V30 9281 S 908.71 -1.27292 4.19931 0
M  V30 9282 H 905.528 -0.0987374 0.704111 0
M  V30 9283 H 908.13 0.41839 1.90971 0
M  V30 9284 H 906.834 0.203797 4.09894 0
M  V30 9285 H 906.365 -1.44575 3.65871 0
M  V30 9286 H 908.38 -2.56102 4.25002 0
M  V30 9287 N 907.553 -1.57587 0.0200696 0
M  V30 9288 C 908.964 -1.79312 -0.520019 0
M  V30 9289 C 909.315 -0.929475 -1.72787 0
M  V30 9290 O 908.44 -0.137389 -2.15963 0
M  V30 9291 C 909.035 -3.25203 -0.950172 0
M  V30 9292 C 907.594 -3.47954 -1.43543 0
M  V30 9293 C 906.741 -2.74459 -0.395917 0
M  V30 9294 H 909.692 -1.56779 0.246153 0
M  V30 9295 H 909.713 -3.34418 -1.81508 0
M  V30 9296 H 909.225 -3.88035 -0.070883 0
M  V30 9297 H 907.326 -2.90363 -2.33495 0
M  V30 9298 H 907.439 -4.56661 -1.44905 0
M  V30 9299 H 905.803 -2.39669 -0.862022 0
M  V30 9300 H 906.586 -3.40001 0.47475 0
M  V30 9301 N 909.032 0.252966 -1.55557 0
M  V30 9302 C 910.443 0.822503 -1.67606 0
M  V30 9303 C 910.794 1.86265 -0.616411 0
M  V30 9304 O 909.919 2.15082 0.238447 0
M  V30 9305 C 910.514 1.49866 -3.03852 0
M  V30 9306 C 909.073 2.01597 -3.17861 0
M  V30 9307 C 908.22 0.864943 -2.63465 0
M  V30 9308 H 911.171 0.0288958 -1.58674 0
M  V30 9309 H 911.192 2.36646 -2.97958 0
M  V30 9310 H 910.704 0.741378 -3.80953 0
M  V30 9311 H 908.805 2.80224 -2.45571 0
M  V30 9312 H 908.918 2.21752 -4.24692 0
M  V30 9313 H 907.282 1.2638 -2.21134 0
M  V30 9314 H 908.065 0.120847 -3.43087 0
M  V30 9315 N 910.51 1.48831 0.518367 0
M  V30 9316 C 911.758 1.57128 1.27103 0
M  V30 9317 C 912.079 0.252098 1.93364 0
M  V30 9318 O 911.349 -0.727281 1.819 0
M  V30 9319 H 909.929 0.578891 0.472116 0
M  V30 9320 H 912.591 1.85361 0.602262 0
M  V30 9321 H 911.687 2.35838 2.04418 0
M  V30 9322 N 911.988 -0.768124 1.37614 0
M  V30 9323 C 913.235 -1.5268 1.33022 0
M  V30 9324 C 913.563 -1.94318 -0.0841918 0
M  V30 9325 O 912.818 -1.64623 -1.0582 0
M  V30 9326 C 913.117 -2.80204 2.21856 0
M  V30 9327 C 912.783 -2.57602 3.7007 0
M  V30 9328 C 911.445 -2.51146 4.10462 0
M  V30 9329 C 913.797 -2.37482 4.63952 0
M  V30 9330 C 911.125 -2.22566 5.42846 0
M  V30 9331 C 913.477 -2.10425 5.96577 0
M  V30 9332 C 912.141 -2.02416 6.36069 0
M  V30 9333 H 911.411 -0.558697 0.486763 0
M  V30 9334 H 914.058 -0.88447 1.69851 0
M  V30 9335 H 912.363 -3.49014 1.78034 0
M  V30 9336 H 914.06 -3.38099 2.15615 0
M  V30 9337 H 910.65 -2.63491 3.38039 0
M  V30 9338 H 914.834 -2.41457 4.33604 0
M  V30 9339 H 910.09 -2.14863 5.72402 0
M  V30 9340 H 914.264 -1.93857 6.68874 0
M  V30 9341 H 911.891 -1.80034 7.38574 0
M  V30 9342 N 913.466 -1.22244 -0.994698 0
M  V30 9343 C 914.429 -0.992308 -2.06606 0
M  V30 9344 C 915.429 0.0405872 -1.60749 0
M  V30 9345 O 916.619 -0.197737 -1.73074 0
M  V30 9346 C 913.751 -0.498499 -3.37236 0
M  V30 9347 H 914.944 -1.9429 -2.28455 0
M  V30 9348 H 912.497 -1.04087 -1.166 0
M  V30 9349 H 913.232 0.456531 -3.21071 0
M  V30 9350 H 913.017 -1.24367 -3.71854 0
M  V30 9351 H 914.507 -0.35768 -4.16065 0
M  V30 9352 N 914.944 1.19125 -1.03184 0
M  V30 9353 C 916.355 1.70564 -0.759264 0
M  V30 9354 C 916.706 1.8248 0.720794 0
M  V30 9355 O 915.831 1.49804 1.56166 0
M  V30 9356 C 916.426 3.09793 -1.37163 0
M  V30 9357 C 914.985 3.5848 -1.14757 0
M  V30 9358 C 914.132 2.35265 -1.46784 0
M  V30 9359 H 917.083 1.03925 -1.19939 0
M  V30 9360 H 917.104 3.72624 -0.77015 0
M  V30 9361 H 916.616 3.01088 -2.44882 0
M  V30 9362 H 914.717 3.72494 -0.0887182 0
M  V30 9363 H 914.83 4.42426 -1.83836 0
M  V30 9364 H 913.194 2.38747 -0.887254 0
M  V30 9365 H 913.977 2.29188 -2.55593 0
M  V30 9366 N 916.422 0.810101 1.35185 0
M  V30 9367 C 917.354 0.180581 2.28488 0
M  V30 9368 C 918.367 -0.622154 1.50443 0
M  V30 9369 O 919.556 -0.453938 1.72632 0
M  V30 9370 C 916.656 -0.766447 3.30119 0
M  V30 9371 C 915.829 -0.00932028 4.37399 0
M  V30 9372 C 914.888 -0.875354 5.18868 0
M  V30 9373 O 913.914 -0.325012 5.68271 0
M  V30 9374 N 915.116 -2.19695 5.37321 0
M  V30 9375 H 917.881 0.98212 2.83151 0
M  V30 9376 H 915.442 0.665879 1.47573 0
M  V30 9377 H 917.434 -1.35012 3.81515 0
M  V30 9378 H 916.004 -1.46878 2.75945 0
M  V30 9379 H 915.224 0.755585 3.86891 0
M  V30 9380 H 916.512 0.512352 5.06214 0
M  V30 9381 H 915.91 -2.66797 4.98834 0
M  V30 9382 H 914.467 -2.72978 5.91884 0
M  V30 9383 N 917.9 -1.47166 0.563914 0
M  V30 9384 C 919.146 -2.02756 0.0424338 0
M  V30 9385 C 919.479 -1.43662 -1.3067 0
M  V30 9386 O 918.754 -0.594676 -1.85186 0
M  V30 9387 C 919.037 -3.60074 -0.0434793 0
M  V30 9388 C 918.89 -4.29587 1.33323 0
M  V30 9389 C 920.209 -4.336 -0.753568 0
M  V30 9390 H 917.328 -0.736806 0.0168946 0
M  V30 9391 H 919.97 -1.75521 0.727496 0
M  V30 9392 H 918.12 -3.83409 -0.626906 0
M  V30 9393 H 919.792 -4.17573 1.96037 0
M  V30 9394 H 918.035 -3.8968 1.9061 0
M  V30 9395 H 918.706 -5.38218 1.22576 0
M  V30 9396 H 921.182 -4.15299 -0.258126 0
M  V30 9397 H 920.058 -5.43291 -0.782659 0
M  V30 9398 H 920.319 -4.03302 -1.81108 0
M  V30 9399 N 919.378 -0.300708 -1.54705 0
M  V30 9400 C 920.308 0.568675 -2.26469 0
M  V30 9401 C 921.289 1.13817 -1.26411 0
M  V30 9402 O 922.474 1.16756 -1.55183 0
M  V30 9403 C 919.604 1.74077 -3.00524 0
M  V30 9404 C 918.558 1.30165 -4.07727 0
M  V30 9405 C 917.884 2.55888 -4.69495 0
M  V30 9406 C 919.184 0.433106 -5.20501 0
M  V30 9407 H 920.878 -0.0298851 -2.99385 0
M  V30 9408 H 918.424 -0.0158135 -1.43991 0
M  V30 9409 H 920.377 2.35506 -3.49449 0
M  V30 9410 H 919.101 2.36556 -2.25186 0
M  V30 9411 H 917.76 0.710414 -3.59651 0
M  V30 9412 H 917.408 3.16681 -3.90797 0
M  V30 9413 H 917.108 2.27207 -5.41895 0
M  V30 9414 H 918.632 3.18121 -5.21183 0
M  V30 9415 H 920.046 0.95307 -5.65322 0
M  V30 9416 H 918.443 0.240085 -5.9962 0
M  V30 9417 H 919.513 -0.541866 -4.81863 0
M  V30 9418 N 920.856 1.57574 -0.0284266 0
M  V30 9419 C 922.133 1.83064 0.688979 0
M  V30 9420 C 922.513 0.91219 1.90374 0
M  V30 9421 O 921.861 -0.0323672 2.28477 0
M  V30 9422 C 922.071 3.32262 1.06785 0
M  V30 9423 C 923.419 3.98717 1.45978 0
M  V30 9424 O 924.443 3.36753 1.16085 0
M  V30 9425 O 923.302 5.07927 2.01673 0
M  V30 9426 H 920.396 0.7548 0.337944 0
M  V30 9427 H 922.942 1.69607 -0.0560555 0
M  V30 9428 H 921.714 3.90772 0.203235 0
M  V30 9429 H 921.337 3.50823 1.87107 0
M  V30 9430 N 922.334 -0.244713 1.55689 0
M  V30 9431 C 923.562 -0.989944 1.8168 0
M  V30 9432 C 923.977 -1.78863 0.604449 0
M  V30 9433 O 923.334 -1.77437 -0.426907 0
M  V30 9434 C 923.385 -1.92607 3.05916 0
M  V30 9435 O 923.106 -1.1597 4.22472 0
M  V30 9436 C 924.607 -2.78711 3.44724 0
M  V30 9437 H 921.827 -0.2912 0.604519 0
M  V30 9438 H 924.371 -0.266938 2.0275 0
M  V30 9439 H 922.526 -2.60333 2.8689 0
M  V30 9440 H 922.94 -1.79311 4.92898 0
M  V30 9441 H 924.414 -3.40141 4.34751 0
M  V30 9442 H 924.891 -3.49935 2.6541 0
M  V30 9443 H 925.497 -2.16435 3.66109 0
M  V30 9444 N 923.813 -1.49104 -0.510467 0
M  V30 9445 C 924.763 -1.6147 -1.6097 0
M  V30 9446 C 925.747 -0.470797 -1.53858 0
M  V30 9447 O 926.939 -0.723266 -1.61548 0
M  V30 9448 C 924.068 -1.67575 -2.99622 0
M  V30 9449 C 923.154 -2.87511 -3.11766 0
M  V30 9450 N 923.545 -4.11704 -2.93826 0
M  V30 9451 C 921.843 -2.85251 -3.42852 0
M  V30 9452 C 922.544 -4.92276 -3.09902 0
M  V30 9453 N 921.52 -4.2546 -3.38355 0
M  V30 9454 H 925.322 -2.5522 -1.45739 0
M  V30 9455 H 922.836 -1.45745 -0.716383 0
M  V30 9456 H 924.833 -1.74531 -3.78609 0
M  V30 9457 H 923.493 -0.749557 -3.1593 0
M  V30 9458 H 924.504 -4.41834 -2.70191 0
M  V30 9459 H 921.181 -2.0197 -3.65396 0
M  V30 9460 H 922.571 -6.00905 -3.00604 0
M  V30 9461 N 925.291 0.760815 -1.38019 0
M  V30 9462 C 926.521 1.54776 -1.3685 0
M  V30 9463 C 926.929 1.89146 0.0453971 0
M  V30 9464 O 926.272 1.52746 1.0205 0
M  V30 9465 C 926.334 2.87923 -2.15269 0
M  V30 9466 C 925.998 2.76131 -3.64144 0
M  V30 9467 C 926.995 2.46417 -4.57794 0
M  V30 9468 C 924.68 2.9381 -4.07408 0
M  V30 9469 C 926.674 2.34525 -5.92686 0
M  V30 9470 C 924.361 2.81539 -5.42383 0
M  V30 9471 C 925.359 2.51938 -6.34836 0
M  V30 9472 O 925.047 2.39713 -7.67329 0
M  V30 9473 H 924.779 0.485776 -0.470104 0
M  V30 9474 H 927.333 0.949939 -1.82113 0
M  V30 9475 H 925.563 3.49867 -1.64712 0
M  V30 9476 H 927.252 3.49389 -2.06596 0
M  V30 9477 H 928.018 2.32433 -4.25676 0
M  V30 9478 H 923.897 3.15849 -3.35799 0
M  V30 9479 H 927.441 2.11342 -6.64816 0
M  V30 9480 H 923.338 2.95093 -5.741 0
M  V30 9481 H 924.106 2.5498 -7.77771 0
M  V30 9482 N 926.769 1.22769 0.988202 0
M  V30 9483 C 927.994 1.08239 1.76915 0
M  V30 9484 C 928.419 -0.362519 1.84574 0
M  V30 9485 O 927.777 -1.26202 1.30165 0
M  V30 9486 C 927.825 1.70363 3.17819 0
M  V30 9487 O 926.929 0.960484 4.01059 0
M  V30 9488 H 926.27 0.379872 0.544604 0
M  V30 9489 H 928.8 1.62663 1.24104 0
M  V30 9490 H 928.81 1.7528 3.6843 0
M  V30 9491 H 927.485 2.75505 3.1156 0
M  V30 9492 H 926.062 0.987667 3.59582 0
M  V30 9493 N 928.247 -1.18576 1.03814 0
M  V30 9494 C 929.475 -1.92437 0.759966 0
M  V30 9495 C 929.89 -1.76031 -0.682526 0
M  V30 9496 O 929.247 -1.08829 -1.46501 0
M  V30 9497 C 929.298 -3.43923 1.11351 0
M  V30 9498 O 929.019 -3.5981 2.49937 0
M  V30 9499 C 930.52 -4.34888 0.859472 0
M  V30 9500 H 927.74 -0.610998 0.277349 0
M  V30 9501 H 930.284 -1.50448 1.38512 0
M  V30 9502 H 928.439 -3.83711 0.533362 0
M  V30 9503 H 928.853 -4.53569 2.63393 0
M  V30 9504 H 930.327 -5.39744 1.15672 0
M  V30 9505 H 930.804 -4.38717 -0.205839 0
M  V30 9506 H 931.41 -4.00795 1.42279 0
M  V30 9507 N 929.725 -0.817259 -1.34754 0
M  V30 9508 C 930.635 -0.236946 -2.334 0
M  V30 9509 C 931.651 0.625685 -1.62361 0
M  V30 9510 O 932.827 0.534921 -1.94166 0
M  V30 9511 C 929.892 0.596215 -3.41535 0
M  V30 9512 C 928.953 -0.288154 -4.28332 0
M  V30 9513 C 928.186 0.505337 -5.31302 0
M  V30 9514 O 928.409 1.73912 -5.43241 0
M  V30 9515 O 927.343 -0.109374 -6.01801 0
M  V30 9516 H 931.169 -1.05327 -2.84851 0
M  V30 9517 H 928.754 -0.579275 -1.37713 0
M  V30 9518 H 930.636 1.07041 -4.07578 0
M  V30 9519 H 929.311 1.38997 -2.92338 0
M  V30 9520 H 928.218 -0.809724 -3.65232 0
M  V30 9521 H 929.551 -1.04612 -4.80955 0
M  V30 9522 N 931.203 1.46865 -0.571711 0
M  V30 9523 C 932.151 2.31897 0.180714 0
M  V30 9524 C 933.145 1.43815 0.895191 0
M  V30 9525 O 934.351 1.60501 0.814828 0
M  V30 9526 H 930.726 0.748032 0.077148 0
M  V30 9527 H 932.697 2.93185 -0.555432 0
M  V30 9528 C 931.446 3.26766 1.18824 0
M  V30 9529 H 930.769 3.94515 0.64789 0
M  V30 9530 H 932.209 3.89067 1.68532 0
M  V30 9531 C 930.668 2.51325 2.2436 0
M  V30 9532 O 931.198 2.26825 3.31532 0
M  V30 9533 N 929.404 2.12079 1.98673 0
M  V30 9534 H 928.951 2.32204 1.1153 0
M  V30 9535 H 928.909 1.61921 2.69498 0
M  V30 9536 N 932.681 0.308908 1.54543 0
M  V30 9537 C 933.958 -0.351558 1.92415 0
M  V30 9538 C 934.338 -1.71061 1.23699 0
M  V30 9539 O 933.686 -2.25394 0.3755 0
M  V30 9540 C 933.896 -0.458357 3.45977 0
M  V30 9541 C 935.244 -0.725524 4.18355 0
M  V30 9542 O 936.268 -0.541859 3.52054 0
M  V30 9543 O 935.127 -1.07884 5.35745 0
M  V30 9544 H 932.221 -0.197957 0.802958 0
M  V30 9545 H 934.767 0.357548 1.65891 0
M  V30 9546 H 933.539 0.496723 3.88134 0
M  V30 9547 H 933.162 -1.21562 3.78561 0
M  V30 9548 N 934.159 -1.57557 0.0367827 0
M  V30 9549 C 935.405 -1.92399 -0.641133 0
M  V30 9550 C 935.738 -0.914191 -1.71336 0
M  V30 9551 O 935.013 0.0619616 -1.94401 0
M  V30 9552 C 935.296 -3.37689 -1.25052 0
M  V30 9553 C 935.149 -4.4941 -0.187326 0
M  V30 9554 C 936.468 -3.8309 -2.16634 0
M  V30 9555 H 933.587 -0.699666 -0.231597 0
M  V30 9556 H 936.229 -1.89759 0.0956083 0
M  V30 9557 H 934.379 -3.40069 -1.87843 0
M  V30 9558 H 936.051 -4.59161 0.443736 0
M  V30 9559 H 934.294 -4.31065 0.486313 0
M  V30 9560 H 934.965 -5.48119 -0.653459 0
M  V30 9561 H 937.441 -3.82494 -1.63821 0
M  V30 9562 H 936.317 -4.85429 -2.56222 0
M  V30 9563 H 936.578 -3.19028 -3.06062 0
M  V30 9564 N 935.637 0.236453 -1.55816 0
M  V30 9565 C 936.547 1.31418 -1.94336 0
M  V30 9566 C 937.563 1.52095 -0.845164 0
M  V30 9567 O 938.739 1.65515 -1.14746 0
M  V30 9568 C 935.804 2.6468 -2.23932 0
M  V30 9569 C 934.865 2.52435 -3.47239 0
M  V30 9570 C 934.098 3.79342 -3.75414 0
M  V30 9571 O 934.321 4.81694 -3.05495 0
M  V30 9572 O 933.255 3.77347 -4.68927 0
M  V30 9573 H 937.081 1.01739 -2.86152 0
M  V30 9574 H 934.666 0.438084 -1.42833 0
M  V30 9575 H 936.548 3.4341 -2.44228 0
M  V30 9576 H 935.223 2.94071 -1.35292 0
M  V30 9577 H 934.13 1.71955 -3.32238 0
M  V30 9578 H 935.463 2.27987 -4.36214 0
M  V30 9579 N 937.115 1.49373 0.502552 0
M  V30 9580 C 938.343 1.62488 1.28084 0
M  V30 9581 C 938.758 0.295667 1.86471 0
M  V30 9582 O 938.115 -0.718664 1.67754 0
M  V30 9583 C 938.166 2.69249 2.4122 0
M  V30 9584 O 937.887 3.97014 1.85234 0
M  V30 9585 C 939.388 2.93054 3.32617 0
M  V30 9586 H 936.608 0.547068 0.388533 0
M  V30 9587 H 939.152 1.95394 0.603452 0
M  V30 9588 H 937.307 2.39125 3.04792 0
M  V30 9589 H 937.721 4.55809 2.59496 0
M  V30 9590 H 939.195 3.71493 4.08285 0
M  V30 9591 H 939.672 2.02911 3.89517 0
M  V30 9592 H 940.278 3.24589 2.74813 0
M  V30 9593 N 938.594 -0.753485 1.38421 0
M  V30 9594 C 939.843 -1.50797 1.33952 0
M  V30 9595 C 940.156 -1.95482 -0.0678464 0
M  V30 9596 O 941.362 -2.7048 -0.235078 0
M  V30 9597 C 939.818 -2.72393 2.35224 0
M  V30 9598 C 939.426 -2.34733 3.81582 0
M  V30 9599 C 941.17 -3.50281 2.39798 0
M  V30 9600 C 939.077 -3.52939 4.7454 0
M  V30 9601 H 938.007 -0.566211 0.497916 0
M  V30 9602 H 940.658 -0.823659 1.63976 0
M  V30 9603 H 939.04 -3.42806 1.98243 0
M  V30 9604 H 940.214 -1.71985 4.27502 0
M  V30 9605 H 938.529 -1.69978 3.80127 0
M  V30 9606 H 941.126 -4.38172 3.06447 0
M  V30 9607 H 941.469 -3.91444 1.41695 0
M  V30 9608 H 942.002 -2.86881 2.75579 0
M  V30 9609 H 938.741 -3.16843 5.73839 0
M  V30 9610 H 938.261 -4.1473 4.33312 0
M  V30 9611 H 939.94 -4.19519 4.92557 0
M  V30 9612 N 940.072 -1.23292 -0.981677 0
M  V30 9613 C 941.488 -0.995295 -1.24764 0
M  V30 9614 C 941.688 0.304379 -1.99188 0
M  V30 9615 O 940.744 1.02414 -2.30798 0
M  V30 9616 C 942.057 -2.20135 -2.04844 0
M  V30 9617 C 943.605 -2.24612 -2.17988 0
M  V30 9618 C 944.08 -3.448 -3.01458 0
M  V30 9619 N 945.571 -3.45031 -3.09044 0
M  V30 9620 C 946.306 -4.34683 -3.7395 0
M  V30 9621 N 945.802 -5.34569 -4.4069 0
M  V30 9622 N 947.595 -4.22429 -3.70823 0
M  V30 9623 H 939.746 -2.06834 -0.483052 0
M  V30 9624 H 942.009 -0.906929 -0.276014 0
M  V30 9625 H 941.715 -3.14446 -1.57532 0
M  V30 9626 H 941.589 -2.21115 -3.05594 0
M  V30 9627 H 943.976 -1.30841 -2.64508 0
M  V30 9628 H 944.057 -2.27664 -1.16631 0
M  V30 9629 H 943.701 -4.38877 -2.55635 0
M  V30 9630 H 943.631 -3.38988 -4.02982 0
M  V30 9631 H 946.122 -2.72759 -2.61555 0
M  V30 9632 H 946.435 -5.99236 -4.87991 0
M  V30 9633 H 944.78 -5.3847 -4.39403 0
M  V30 9634 H 947.971 -3.43639 -3.17851 0
M  V30 9635 H 948.144 -4.92501 -4.21126 0
M  V30 9636 N 941.55 1.18024 -1.04442 0
M  V30 9637 C 942.513 2.19992 -0.643136 0
M  V30 9638 C 943.513 1.57949 0.301444 0
M  V30 9639 O 944.703 1.73986 0.0863341 0
M  V30 9640 C 941.835 3.40853 0.0565208 0
M  V30 9641 H 943.028 2.57008 -1.54554 0
M  V30 9642 H 940.581 1.31974 -0.837408 0
M  V30 9643 H 941.316 3.09373 0.972553 0
M  V30 9644 H 941.101 3.87128 -0.622439 0
M  V30 9645 H 942.591 4.16344 0.323652 0
M  V30 9646 N 943.028 0.824394 1.34319 0
M  V30 9647 C 944.253 0.425194 2.02995 0
M  V30 9648 C 944.678 -0.961476 1.6167 0
M  V30 9649 O 944.036 -1.62593 0.80207 0
M  V30 9650 C 944.084 0.537004 3.56579 0
M  V30 9651 O 943.188 -0.442576 4.10018 0
M  V30 9652 H 942.529 0.174853 0.640564 0
M  V30 9653 H 945.059 1.11522 1.71534 0
M  V30 9654 H 945.069 0.413311 4.05901 0
M  V30 9655 H 943.744 1.54836 3.86004 0
M  V30 9656 H 942.321 -0.277644 3.71865 0
M  V30 9657 N 944.506 -1.46559 0.579492 0
M  V30 9658 C 945.752 -2.02699 0.0639363 0
M  V30 9659 C 946.085 -1.4504 -1.29139 0
M  V30 9660 O 945.36 -0.614284 -1.84545 0
M  V30 9661 C 945.643 -3.601 -0.00528618 0
M  V30 9662 C 945.496 -4.28149 1.37871 0
M  V30 9663 C 946.815 -4.34375 -0.707537 0
M  V30 9664 H 943.934 -0.736586 0.0247085 0
M  V30 9665 H 946.576 -1.74739 0.746071 0
M  V30 9666 H 944.726 -3.84052 -0.586206 0
M  V30 9667 H 946.398 -4.1547 2.00455 0
M  V30 9668 H 944.641 -3.87636 1.94732 0
M  V30 9669 H 945.312 -5.36888 1.28278 0
M  V30 9670 H 947.788 -4.15549 -0.214064 0
M  V30 9671 H 946.664 -5.44091 -0.724992 0
M  V30 9672 H 946.925 -4.052 -1.7682 0
M  V30 9673 N 945.984 -0.3171 -1.54377 0
M  V30 9674 C 947.224 0.288083 -2.0236 0
M  V30 9675 C 947.588 1.4985 -1.20038 0
M  V30 9676 O 948.789 2.17611 -1.57794 0
M  V30 9677 C 947.06 0.620192 -3.51978 0
M  V30 9678 S 948.619 1.20595 -4.21903 0
M  V30 9679 H 945.437 0.0875231 -0.705592 0
M  V30 9680 H 948.039 -0.448719 -1.90281 0
M  V30 9681 H 946.743 -0.268982 -4.09518 0
M  V30 9682 H 946.274 1.38736 -3.68125 0
M  V30 9683 H 948.289 2.49308 -4.29022 0
M  V30 9684 N 947.462 1.57535 -0.0451378 0
M  V30 9685 C 948.425 2.1008 0.916461 0
M  V30 9686 C 949.425 1.01913 1.2438 0
M  V30 9687 O 950.615 1.2801 1.18148 0
M  V30 9688 C 947.747 2.58001 2.22818 0
M  V30 9689 H 948.94 2.96334 0.461076 0
M  V30 9690 H 946.493 1.54974 0.203169 0
M  V30 9691 H 947.228 1.75123 2.72951 0
M  V30 9692 H 947.013 3.3704 2.00366 0
M  V30 9693 H 948.503 2.98822 2.9171 0
M  V30 9694 N 948.94 -0.228186 1.55939 0
M  V30 9695 C 950.351 -0.795734 1.68893 0
M  V30 9696 C 950.702 -1.85261 0.645967 0
M  V30 9697 O 949.827 -2.15434 -0.2042 0
M  V30 9698 C 950.422 -1.45013 3.06197 0
M  V30 9699 C 948.981 -1.96514 3.21028 0
M  V30 9700 C 948.128 -0.822918 2.64808 0
M  V30 9701 H 951.079 -0.0036485 1.587 0
M  V30 9702 H 951.1 -2.31875 3.01685 0
M  V30 9703 H 950.612 -0.680678 3.82084 0
M  V30 9704 H 948.713 -2.76282 2.49998 0
M  V30 9705 H 948.826 -2.14967 4.28166 0
M  V30 9706 H 947.19 -1.22846 2.23116 0
M  V30 9707 H 947.973 -0.0662493 3.43236 0
M  V30 9708 N 950.418 -1.49637 -0.494624 0
M  V30 9709 C 951.658 -1.61067 -1.25844 0
M  V30 9710 C 952.022 -0.293666 -1.89741 0
M  V30 9711 O 953.223 -0.283202 -2.67304 0
M  V30 9712 C 951.494 -2.74218 -2.29215 0
M  V30 9713 S 953.053 -3.05639 -3.1485 0
M  V30 9714 H 949.871 -0.568056 -0.42759 0
M  V30 9715 H 952.473 -1.87323 -0.559491 0
M  V30 9716 H 951.177 -3.68422 -1.80813 0
M  V30 9717 H 950.708 -2.49975 -3.0377 0
M  V30 9718 H 952.723 -2.47651 -4.29981 0
M  V30 9719 N 951.896 0.746133 -1.38819 0
M  V30 9720 C 952.846 1.85085 -1.33145 0
M  V30 9721 C 953.83 1.59466 -0.214339 0
M  V30 9722 O 955.022 1.71159 -0.450943 0
M  V30 9723 C 952.151 3.22884 -1.16623 0
M  V30 9724 C 951.237 3.54369 -2.32988 0
M  V30 9725 N 951.628 3.56863 -3.58445 0
M  V30 9726 C 949.926 3.84674 -2.25703 0
M  V30 9727 C 950.627 3.85827 -4.3533 0
M  V30 9728 N 949.603 4.03037 -3.64777 0
M  V30 9729 H 953.405 1.85301 -2.28124 0
M  V30 9730 H 950.919 0.943847 -1.32156 0
M  V30 9731 H 952.916 4.0195 -1.10642 0
M  V30 9732 H 951.576 3.23914 -0.225841 0
M  V30 9733 H 952.587 3.38443 -3.92017 0
M  V30 9734 H 949.264 3.93375 -1.39864 0
M  V30 9735 H 950.654 3.94317 -5.44025 0
M  V30 9736 N 953.375 1.23811 0.975125 0
M  V30 9737 C 954.338 1.02505 2.05001 0
M  V30 9738 C 955.338 -0.0150084 1.60793 0
M  V30 9739 O 956.528 0.225246 1.72738 0
M  V30 9740 C 953.66 0.552087 3.364 0
M  V30 9741 H 954.853 1.979 2.25335 0
M  V30 9742 H 952.406 1.05929 1.1493 0
M  V30 9743 H 953.141 -0.405394 3.21756 0
M  V30 9744 H 952.926 1.30267 3.69828 0
M  V30 9745 H 954.416 0.423828 4.15444 0
M  V30 9746 N 954.853 -1.17469 1.05066 0
M  V30 9747 C 956.078 -1.92162 0.780298 0
M  V30 9748 C 956.503 -1.76222 -0.657832 0
M  V30 9749 O 955.861 -1.0791 -1.45688 0
M  V30 9750 C 955.909 -3.41292 1.16414 0
M  V30 9751 O 955.013 -4.1134 0.295531 0
M  V30 9752 H 954.354 -0.599127 0.286257 0
M  V30 9753 H 956.884 -1.48903 1.40318 0
M  V30 9754 H 956.894 -3.92029 1.13036 0
M  V30 9755 H 955.569 -3.52214 2.21175 0
M  V30 9756 H 954.146 -3.70857 0.389797 0
M  V30 9757 N 956.331 -0.831506 -1.3388 0
M  V30 9758 C 957.571 -0.429648 -1.99833 0
M  V30 9759 C 957.935 0.990796 -1.6446 0
M  V30 9760 O 959.136 1.49599 -2.23324 0
M  V30 9761 C 957.407 -0.635558 -3.51704 0
M  V30 9762 S 958.966 -0.327824 -4.37574 0
M  V30 9763 H 955.784 -0.161939 -0.692313 0
M  V30 9764 H 958.386 -1.07919 -1.63015 0
M  V30 9765 H 957.09 -1.66887 -3.74936 0
M  V30 9766 H 956.621 0.0284073 -3.9339 0
M  V30 9767 H 958.636 0.855231 -4.88774 0
M  V30 9768 N 957.809 1.4625 -0.587256 0
M  V30 9769 C 958.772 2.28812 0.133238 0
M  V30 9770 C 959.772 1.38645 0.814513 0
M  V30 9771 O 960.962 1.60975 0.665774 0
M  V30 9772 C 958.094 3.19147 1.19824 0
M  V30 9773 H 959.287 2.93991 -0.592386 0
M  V30 9774 H 956.84 1.52435 -0.345416 0
M  V30 9775 H 957.575 2.58725 1.95529 0
M  V30 9776 H 957.36 3.85541 0.71418 0
M  V30 9777 H 958.85 3.81278 1.70344 0
M  V30 9778 N 959.287 0.325282 1.54207 0
M  V30 9779 C 960.515 -0.27869 2.05014 0
M  V30 9780 C 960.93 -1.45649 1.20133 0
M  V30 9781 O 960.287 -1.81014 0.232398 0
M  V30 9782 C 960.338 -0.711486 3.54429 0
M  V30 9783 O 960.059 0.419458 4.36087 0
M  V30 9784 C 961.56 -1.37809 4.21336 0
M  V30 9785 H 958.78 -0.0570388 0.668571 0
M  V30 9786 H 961.324 0.47197 1.98979 0
M  V30 9787 H 959.479 -1.41212 3.60746 0
M  V30 9788 H 959.893 0.0781037 5.24442 0
M  V30 9789 H 961.367 -1.63184 5.27328 0
M  V30 9790 H 961.844 -2.32593 3.72555 0
M  V30 9791 H 962.45 -0.719987 4.19161 0
M  V30 9792 N 960.765 -1.57509 0.0534917 0
M  V30 9793 C 962.005 -1.94654 -0.623641 0
M  V30 9794 C 962.369 -0.93184 -1.67871 0
M  V30 9795 O 963.57 -1.19031 -2.41009 0
M  V30 9796 C 961.841 -3.36575 -1.20216 0
M  V30 9797 S 963.4 -3.95677 -1.89697 0
M  V30 9798 H 960.218 -0.680893 -0.20471 0
M  V30 9799 H 962.82 -1.95113 0.122982 0
M  V30 9800 H 961.524 -4.08223 -0.422177 0
M  V30 9801 H 961.055 -3.39617 -1.98555 0
M  V30 9802 H 963.07 -3.81092 -3.17779 0
M  V30 9803 N 962.243 0.219913 -1.56058 0
M  V30 9804 C 963.175 1.29604 -1.89038 0
M  V30 9805 C 964.188 1.42964 -0.778791 0
M  V30 9806 O 965.377 1.43832 -1.0571 0
M  V30 9807 C 962.477 2.67145 -2.08534 0
M  V30 9808 C 961.65 2.75712 -3.39561 0
M  V30 9809 C 960.709 3.94279 -3.48469 0
M  V30 9810 O 959.735 3.8254 -4.21487 0
M  V30 9811 N 960.937 5.08655 -2.79732 0
M  V30 9812 H 963.702 1.01638 -2.81939 0
M  V30 9813 H 961.263 0.409945 -1.56624 0
M  V30 9814 H 963.255 3.44847 -2.11808 0
M  V30 9815 H 961.825 2.87704 -1.2225 0
M  V30 9816 H 961.045 1.84475 -3.48371 0
M  V30 9817 H 962.333 2.78407 -4.25872 0
M  V30 9818 H 961.731 5.21088 -2.2019 0
M  V30 9819 H 960.288 5.84394 -2.88665 0
M  V30 9820 N 963.721 1.49897 0.486681 0
M  V30 9821 C 964.969 1.59789 1.23742 0
M  V30 9822 C 965.29 0.293056 1.92785 0
M  V30 9823 O 964.56 -0.688534 1.83401 0
M  V30 9824 H 963.14 0.588775 0.459731 0
M  V30 9825 H 965.802 1.86597 0.562808 0
M  V30 9826 H 964.898 2.40121 1.9937 0
M  V30 9827 N 965.199 -0.738761 1.39212 0
M  V30 9828 C 966.61 -1.31684 1.32348 0
M  V30 9829 C 966.961 -1.96195 -0.0139041 0
M  V30 9830 O 966.086 -1.96056 -0.916025 0
M  V30 9831 C 966.681 -2.39444 2.39691 0
M  V30 9832 C 965.24 -2.92935 2.36359 0
M  V30 9833 C 964.387 -1.66465 2.21776 0
M  V30 9834 H 967.338 -0.536543 1.49355 0
M  V30 9835 H 967.359 -3.19744 2.06262 0
M  V30 9836 H 966.871 -1.92463 3.37016 0
M  V30 9837 H 964.972 -3.44207 1.42662 0
M  V30 9838 H 965.085 -3.46306 3.31073 0
M  V30 9839 H 963.449 -1.90657 1.68884 0
M  V30 9840 H 964.232 -1.21541 3.21065 0
M  V30 9841 N 966.677 -1.24326 -0.968545 0
M  V30 9842 C 967.64 -1.03591 -2.04454 0
M  V30 9843 C 968.64 0.0064809 -1.60799 0
M  V30 9844 O 969.83 -0.234404 -1.72616 0
M  V30 9845 C 966.962 -0.56992 -3.36102 0
M  V30 9846 H 968.155 -1.99092 -2.24282 0
M  V30 9847 H 965.708 -1.06537 -1.14366 0
M  V30 9848 H 966.443 0.388325 -3.21967 0
M  V30 9849 H 966.228 -1.32227 -3.69132 0
M  V30 9850 H 967.718 -0.445854 -4.15213 0
M  V30 9851 N 968.156 1.1691 -1.05688 0
M  V30 9852 C 969.086 2.23275 -0.683402 0
M  V30 9853 C 970.067 1.6704 0.321206 0
M  V30 9854 O 971.252 1.93191 0.197691 0
M  V30 9855 C 968.382 3.47244 -0.0626006 0
M  V30 9856 C 967.336 4.16333 -0.992513 0
M  V30 9857 C 966.662 5.34182 -0.23533 0
M  V30 9858 C 967.962 4.68002 -2.31886 0
M  V30 9859 H 969.656 2.54771 -1.57264 0
M  V30 9860 H 967.202 1.2246 -0.757606 0
M  V30 9861 H 969.155 4.20874 0.210503 0
M  V30 9862 H 967.879 3.1503 0.861616 0
M  V30 9863 H 966.538 3.44622 -1.25026 0
M  V30 9864 H 966.186 4.9822 0.69181 0
M  V30 9865 H 965.886 5.81346 -0.855002 0
M  V30 9866 H 967.41 6.10592 0.0303717 0
M  V30 9867 H 968.824 5.33244 -2.10531 0
M  V30 9868 H 967.221 5.25764 -2.89296 0
M  V30 9869 H 968.291 3.84541 -2.95391 0
M  V30 9870 N 969.634 0.838594 1.33437 0
M  V30 9871 C 970.862 0.447644 2.01999 0
M  V30 9872 C 971.277 -0.951053 1.63096 0
M  V30 9873 O 970.634 -1.61802 0.844169 0
M  V30 9874 C 970.685 0.558378 3.57162 0
M  V30 9875 O 970.406 1.90196 3.94661 0
M  V30 9876 C 971.907 0.164348 4.42995 0
M  V30 9877 H 969.127 0.177736 0.647032 0
M  V30 9878 H 971.671 1.13109 1.70372 0
M  V30 9879 H 969.826 -0.0771563 3.87323 0
M  V30 9880 H 970.24 1.88729 4.89369 0
M  V30 9881 H 971.714 0.292876 5.51222 0
M  V30 9882 H 972.191 -0.893713 4.30011 0
M  V30 9883 H 972.797 0.774306 4.18192 0
M  V30 9884 N 971.112 -1.45937 0.595003 0
M  V30 9885 C 972.389 -1.95592 0.0178748 0
M  V30 9886 C 972.769 -1.53758 -1.44643 0
M  V30 9887 O 972.117 -0.794104 -2.14257 0
M  V30 9888 C 972.327 -3.4841 0.202789 0
M  V30 9889 C 973.675 -4.2453 0.0770121 0
M  V30 9890 O 974.699 -3.55954 0.132257 0
M  V30 9891 O 973.558 -5.46479 -0.0484271 0
M  V30 9892 H 970.652 -0.825888 -0.0428702 0
M  V30 9893 H 973.198 -1.56162 0.664184 0
M  V30 9894 H 971.97 -3.71787 1.22027 0
M  V30 9895 H 971.593 -3.947 -0.479376 0
M  V30 9896 N 972.59 -0.333456 -1.54032 0
M  V30 9897 C 973.83 0.266604 -2.02654 0
M  V30 9898 C 974.194 1.48568 -1.21621 0
M  V30 9899 O 975.395 2.15925 -1.60093 0
M  V30 9900 C 973.666 0.582825 -3.52616 0
M  V30 9901 S 975.225 1.16113 -4.23159 0
M  V30 9902 H 972.043 0.0800344 -0.706481 0
M  V30 9903 H 974.645 -0.468876 -1.89794 0
M  V30 9904 H 973.349 -0.312401 -4.09209 0
M  V30 9905 H 972.88 1.34824 -3.69576 0
M  V30 9906 H 974.895 2.44743 -4.31642 0
M  V30 9907 N 974.068 1.57479 -0.061844 0
M  V30 9908 C 974.998 2.15181 0.9066 0
M  V30 9909 C 975.979 1.07624 1.31724 0
M  V30 9910 O 977.164 1.35614 1.39006 0
M  V30 9911 C 974.294 2.70542 2.17771 0
M  V30 9912 C 973.248 3.83178 1.9068 0
M  V30 9913 C 972.574 4.25099 3.24337 0
M  V30 9914 C 973.874 5.07853 1.21994 0
M  V30 9915 H 975.568 2.96355 0.42594 0
M  V30 9916 H 973.114 1.42556 0.203435 0
M  V30 9917 H 975.067 3.09552 2.85929 0
M  V30 9918 H 973.791 1.86575 2.68062 0
M  V30 9919 H 972.45 3.44656 1.24931 0
M  V30 9920 H 972.098 3.38069 3.72449 0
M  V30 9921 H 971.798 5.01021 3.07005 0
M  V30 9922 H 973.322 4.66718 3.93709 0
M  V30 9923 H 974.736 5.44242 1.80204 0
M  V30 9924 H 973.133 5.88987 1.14954 0
M  V30 9925 H 974.203 4.84497 0.197536 0
M  V30 9926 N 975.546 -0.211634 1.56173 0
M  V30 9927 C 976.771 -0.955324 1.84088 0
M  V30 9928 C 977.196 -1.76754 0.643407 0
M  V30 9929 O 976.554 -1.76653 -0.407842 0
M  V30 9930 C 976.602 -1.84063 3.10085 0
M  V30 9931 O 975.706 -2.9373 2.89476 0
M  V30 9932 H 975.047 -0.26996 0.606645 0
M  V30 9933 H 977.577 -0.221947 2.03393 0
M  V30 9934 H 977.587 -2.24852 3.40449 0
M  V30 9935 H 976.262 -1.24373 3.96868 0
M  V30 9936 H 974.839 -2.56816 2.7037 0
M  V30 9937 N 977.024 -1.50153 -0.478725 0
M  V30 9938 C 978.264 -1.62393 -1.24129 0
M  V30 9939 C 978.628 -0.313774 -1.89419 0
M  V30 9940 O 979.829 -0.311537 -2.66989 0
M  V30 9941 C 978.1 -2.76633 -2.26293 0
M  V30 9942 S 979.659 -3.08961 -3.11591 0
M  V30 9943 H 976.477 -0.572559 -0.421541 0
M  V30 9944 H 979.079 -1.87906 -0.539592 0
M  V30 9945 H 977.783 -3.70319 -1.76896 0
M  V30 9946 H 977.314 -2.53182 -3.01102 0
M  V30 9947 H 979.329 -2.52197 -4.2733 0
M  V30 9948 N 978.502 0.731368 -1.39602 0
M  V30 9949 C 979.913 1.30981 -1.33045 0
M  V30 9950 C 980.264 1.962 0.00349918 0
M  V30 9951 O 979.389 1.96539 0.905615 0
M  V30 9952 C 979.984 2.3817 -2.40958 0
M  V30 9953 C 978.543 2.91678 -2.3791 0
M  V30 9954 C 977.69 1.65286 -2.22656 0
M  V30 9955 H 980.641 0.528615 -1.49637 0
M  V30 9956 H 980.662 3.18645 -2.07955 0
M  V30 9957 H 980.174 1.90673 -3.38032 0
M  V30 9958 H 978.275 3.43446 -1.44485 0
M  V30 9959 H 978.388 3.44545 -3.32904 0
M  V30 9960 H 976.752 1.89759 -1.69893 0
M  V30 9961 H 977.535 1.19836 -3.21705 0
M  V30 9962 N 979.98 1.24838 0.961938 0
M  V30 9963 C 981.205 1.11967 1.7458 0
M  V30 9964 C 981.63 -0.323287 1.85301 0
M  V30 9965 O 980.988 -1.23412 1.32812 0
M  V30 9966 C 981.036 1.77066 3.14134 0
M  V30 9967 O 980.14 1.04534 3.98932 0
M  V30 9968 H 979.481 0.391338 0.536424 0
M  V30 9969 H 982.011 1.65259 1.20626 0
M  V30 9970 H 982.021 1.83056 3.64629 0
M  V30 9971 H 980.696 2.82052 3.05646 0
M  V30 9972 H 979.273 1.06372 3.57407 0
M  V30 9973 N 981.458 -1.16348 1.06306 0
M  V30 9974 C 982.408 -2.18717 0.643947 0
M  V30 9975 C 983.392 -1.57574 -0.325445 0
M  V30 9976 O 984.584 -1.76439 -0.140868 0
M  V30 9977 C 981.713 -3.43285 0.0320266 0
M  V30 9978 C 980.799 -4.11504 1.02592 0
M  V30 9979 N 981.19 -4.55374 2.20155 0
M  V30 9980 C 979.488 -4.37691 0.856887 0
M  V30 9981 C 980.189 -5.08149 2.83124 0
M  V30 9982 N 979.165 -5.01042 2.10851 0
M  V30 9983 H 982.967 -2.50353 1.53951 0
M  V30 9984 H 980.481 -1.328 0.934763 0
M  V30 9985 H 982.478 -4.15917 -0.286064 0
M  V30 9986 H 981.138 -3.13137 -0.858786 0
M  V30 9987 H 982.149 -4.49101 2.57931 0
M  V30 9988 H 978.826 -4.17496 0.0180742 0
M  V30 9989 H 980.216 -5.52131 3.82885 0
M  V30 9990 N 982.937 -0.845659 -1.3299 0
M  V30 9991 C 983.9 -0.288905 -2.27372 0
M  V30 9992 C 984.9 0.546263 -1.51237 0
M  V30 9993 O 986.09 0.359072 -1.70459 0
M  V30 9994 C 983.222 0.59224 -3.35716 0
M  V30 9995 H 984.415 -1.12181 -2.78128 0
M  V30 9996 H 981.968 -0.619276 -1.43508 0
M  V30 9997 H 982.703 1.44732 -2.90212 0
M  V30 9998 H 982.488 -0.00543255 -3.921 0
M  V30 9999 H 983.978 0.974848 -4.06062 0
M  V30 10000 N 984.415 1.45619 -0.602734 0
M  V30 10001 C 985.64 2.07157 -0.100429 0
M  V30 10002 C 986.065 1.44524 1.20393 0
M  V30 10003 O 985.423 0.536191 1.7319 0
M  V30 10004 C 985.471 3.60587 0.0308604 0
M  V30 10005 O 984.575 3.97944 1.08234 0
M  V30 10006 H 983.916 0.6601 -0.0718643 0
M  V30 10007 H 986.446 1.86948 -0.831366 0
M  V30 10008 H 986.456 4.07348 0.230634 0
M  V30 10009 H 985.131 4.05561 -0.921581 0
M  V30 10010 H 983.708 3.62862 0.859414 0
M  V30 10011 N 985.893 0.34162 1.53853 0
M  V30 10012 C 986.823 -0.508431 2.27897 0
M  V30 10013 C 987.804 -1.10425 1.29384 0
M  V30 10014 O 988.989 -1.126 1.58224 0
M  V30 10015 C 986.119 -1.66048 3.05034 0
M  V30 10016 C 985.073 -1.19309 4.11035 0
M  V30 10017 C 984.399 -2.4335 4.76114 0
M  V30 10018 C 985.699 -0.294952 5.21467 0
M  V30 10019 H 987.393 0.109251 2.99201 0
M  V30 10020 H 984.939 0.0539847 1.43899 0
M  V30 10021 H 986.892 -2.26158 3.5557 0
M  V30 10022 H 985.616 -2.30503 2.31379 0
M  V30 10023 H 984.275 -0.614809 3.61408 0
M  V30 10024 H 983.923 -3.06208 3.99056 0
M  V30 10025 H 983.623 -2.1276 5.47729 0
M  V30 10026 H 985.147 -3.0419 5.29434 0
M  V30 10027 H 986.561 -0.80285 5.67651 0
M  V30 10028 H 984.958 -0.0810221 6.00045 0
M  V30 10029 H 986.028 0.669433 4.80257 0
M  V30 10030 N 987.371 -1.57444 0.0701946 0
M  V30 10031 C 988.648 -1.84826 -0.6402 0
M  V30 10032 C 989.028 -0.962344 -1.87889 0
M  V30 10033 O 988.376 -0.0282209 -2.28483 0
M  V30 10034 C 988.586 -3.34976 -0.979382 0
M  V30 10035 C 989.934 -4.02448 -1.35355 0
M  V30 10036 O 990.958 -3.39713 -1.07116 0
M  V30 10037 O 989.817 -5.13096 -1.88136 0
M  V30 10038 H 986.911 -0.763494 -0.317813 0
M  V30 10039 H 989.457 -1.69399 0.101004 0
M  V30 10040 H 988.229 -3.91173 -0.0995576 0
M  V30 10041 H 987.852 -3.5566 -1.7774 0
M  V30 10042 N 988.849 0.203349 -1.56283 0
M  V30 10043 C 990.26 0.768764 -1.70138 0
M  V30 10044 C 990.611 1.8421 -0.675358 0
M  V30 10045 O 989.736 2.15732 0.1699 0
M  V30 10046 C 990.331 1.40123 -3.08466 0
M  V30 10047 C 988.89 1.91382 -3.24114 0
M  V30 10048 C 988.037 0.780685 -2.66084 0
M  V30 10049 H 990.988 -0.0215997 -1.58685 0
M  V30 10050 H 991.009 2.27046 -3.05336 0
M  V30 10051 H 990.521 0.619805 -3.83119 0
M  V30 10052 H 988.622 2.7227 -2.54362 0
M  V30 10053 H 988.735 2.08128 -4.31531 0
M  V30 10054 H 987.099 1.19281 -2.25042 0
M  V30 10055 H 987.882 0.0116351 -3.43298 0
M  V30 10056 N 990.327 1.50405 0.470755 0
M  V30 10057 C 991.573 1.6165 1.22462 0
M  V30 10058 C 991.906 0.316034 1.91611 0
M  V30 10059 O 991.181 -0.682509 1.82132 0
M  V30 10060 C 991.464 2.79702 2.26801 0
M  V30 10061 C 991.317 4.19631 1.61955 0
M  V30 10062 C 992.636 2.93313 3.28109 0
M  V30 10063 H 989.755 0.588345 0.443868 0
M  V30 10064 H 992.397 1.82792 0.518376 0
M  V30 10065 H 990.547 2.61807 2.87036 0
M  V30 10066 H 992.219 4.49117 1.05316 0
M  V30 10067 H 990.462 4.23874 0.922674 0
M  V30 10068 H 991.133 4.98162 2.37779 0
M  V30 10069 H 993.609 3.09697 2.77897 0
M  V30 10070 H 992.485 3.77537 3.98443 0
M  V30 10071 H 992.746 2.03942 3.9225 0
M  V30 10072 N 991.805 -0.723954 1.39988 0
M  V30 10073 C 992.715 -1.86829 1.41887 0
M  V30 10074 C 993.731 -1.71173 0.312401 0
M  V30 10075 O 994.907 -1.93583 0.555651 0
M  V30 10076 C 991.972 -3.22541 1.27154 0
M  V30 10077 C 991.033 -3.50512 2.47871 0
M  V30 10078 C 990.266 -4.79749 2.33831 0
M  V30 10079 O 990.489 -5.54251 1.34765 0
M  V30 10080 O 989.423 -5.07868 3.23039 0
M  V30 10081 H 993.249 -1.88183 2.38371 0
M  V30 10082 H 990.834 -0.873259 1.21221 0
M  V30 10083 H 992.716 -4.0362 1.21114 0
M  V30 10084 H 991.391 -3.21933 0.337715 0
M  V30 10085 H 990.298 -2.69475 2.59488 0
M  V30 10086 H 991.631 -3.55909 3.39985 0
M  V30 10087 N 993.283 -1.25346 -0.955304 0
M  V30 10088 C 994.215 -1.0146 -2.0552 0
M  V30 10089 C 995.228 0.0202256 -1.62787 0
M  V30 10090 O 996.417 -0.218251 -1.77161 0
M  V30 10091 C 993.517 -0.511727 -3.35014 0
M  V30 10092 C 992.69 -1.61256 -4.0659 0
M  V30 10093 C 991.749 -1.11017 -5.14356 0
M  V30 10094 O 990.775 -1.80443 -5.39842 0
M  V30 10095 N 991.977 0.0489001 -5.80479 0
M  V30 10096 H 994.742 -1.96166 -2.26581 0
M  V30 10097 H 992.303 -1.16543 -1.12381 0
M  V30 10098 H 994.295 -0.160123 -4.04383 0
M  V30 10099 H 992.865 0.341377 -3.1073 0
M  V30 10100 H 992.085 -2.13577 -3.31328 0
M  V30 10101 H 993.373 -2.35213 -4.51168 0
M  V30 10102 H 992.771 0.629021 -5.62192 0
M  V30 10103 H 991.328 0.341542 -6.50905 0
M  V30 10104 N 994.761 1.15782 -1.06922 0
M  V30 10105 C 995.989 1.90355 -0.81072 0
M  V30 10106 C 996.404 1.77779 0.635614 0
M  V30 10107 O 995.761 1.12675 1.43564 0
M  V30 10108 C 995.812 3.4085 -1.2043 0
M  V30 10109 O 995.533 3.53057 -2.59388 0
M  V30 10110 C 997.034 4.32457 -0.974473 0
M  V30 10111 H 994.254 0.60343 -0.293451 0
M  V30 10112 H 996.798 1.46723 -1.42452 0
M  V30 10113 H 994.953 3.82162 -0.634909 0
M  V30 10114 H 995.367 4.46426 -2.75326 0
M  V30 10115 H 996.841 5.36488 -1.29942 0
M  V30 10116 H 997.318 4.39109 0.0894481 0
M  V30 10117 H 997.924 3.96882 -1.52856 0
M  V30 10118 N 996.239 0.8527 1.3254 0
M  V30 10119 C 997.479 0.461385 1.99125 0
M  V30 10120 C 997.843 -0.964507 1.66016 0
M  V30 10121 O 999.044 -1.46027 2.25676 0
M  V30 10122 C 997.315 0.69143 3.50648 0
M  V30 10123 S 998.874 0.397397 4.36997 0
M  V30 10124 H 995.692 0.172933 0.689649 0
M  V30 10125 H 998.294 1.10499 1.61277 0
M  V30 10126 H 996.998 1.72831 3.72233 0
M  V30 10127 H 996.529 0.0341812 3.93385 0
M  V30 10128 H 998.544 -0.777363 4.90073 0
M  V30 10129 N 997.718 -1.45297 0.610449 0
M  V30 10130 C 998.943 -2.07101 0.111414 0
M  V30 10131 C 999.368 -1.45161 -1.19625 0
M  V30 10132 O 998.726 -0.545368 -1.72903 0
M  V30 10133 C 998.774 -3.60598 -0.0117372 0
M  V30 10134 O 997.878 -3.98512 -1.06122 0
M  V30 10135 H 997.219 -0.659709 0.075364 0
M  V30 10136 H 999.749 -1.86504 0.841269 0
M  V30 10137 H 999.759 -4.07464 -0.209028 0
M  V30 10138 H 998.434 -4.05067 0.943076 0
M  V30 10139 H 997.011 -3.63312 -0.840158 0
M  V30 10140 N 999.196 -0.349774 -1.5367 0
M  V30 10141 C 1000.61 0.00191293 -1.596 0
M  V30 10142 C 1000.81 1.48175 -1.36552 0
M  V30 10143 O 999.868 2.24129 -1.16285 0
M  V30 10144 C 1001.18 -0.439848 -2.97466 0
M  V30 10145 C 1002.73 -0.392721 -3.10526 0
M  V30 10146 C 1003.2 -0.810047 -4.5078 0
M  V30 10147 N 1004.69 -0.764478 -4.56848 0
M  V30 10148 C 1005.43 -1.05927 -5.63531 0
M  V30 10149 N 1004.93 -1.42253 -6.78038 0
M  V30 10150 N 1006.72 -0.983098 -5.53436 0
M  V30 10151 H 998.87 -1.31364 -1.66905 0
M  V30 10152 H 1001.13 -0.535908 -0.781989 0
M  V30 10153 H 1000.84 -1.47189 -3.19419 0
M  V30 10154 H 1000.71 0.181735 -3.76762 0
M  V30 10155 H 1003.1 0.630161 -2.88293 0
M  V30 10156 H 1003.18 -1.04959 -2.33275 0
M  V30 10157 H 1002.82 -1.83097 -4.73749 0
M  V30 10158 H 1002.75 -0.130591 -5.26438 0
M  V30 10159 H 1005.25 -0.496637 -3.74622 0
M  V30 10160 H 1005.56 -1.63215 -7.55368 0
M  V30 10161 H 1003.9 -1.46104 -6.79469 0
M  V30 10162 H 1007.09 -0.698601 -4.62858 0
M  V30 10163 H 1007.27 -1.21618 -6.36485 0
M  V30 10164 N 1000.67 1.57404 -0.0785433 0
M  V30 10165 C 1001.61 2.101 0.916013 0
M  V30 10166 C 1002.62 1.03459 1.25698 0
M  V30 10167 O 1003.81 1.30954 1.21299 0
M  V30 10168 C 1000.91 2.55202 2.22992 0
M  V30 10169 C 1000.08 3.85491 2.06678 0
M  V30 10170 C 999.14 4.16614 3.21433 0
M  V30 10171 O 998.166 4.86105 2.96126 0
M  V30 10172 N 999.368 3.70697 4.46726 0
M  V30 10173 H 1002.13 2.96054 0.466059 0
M  V30 10174 H 999.694 1.61546 0.107006 0
M  V30 10175 H 1001.69 2.7308 2.9868 0
M  V30 10176 H 1000.26 1.74348 2.59464 0
M  V30 10177 H 999.476 3.76925 1.15417 0
M  V30 10178 H 1000.76 4.70759 1.93036 0
M  V30 10179 H 1000.16 3.14571 4.70172 0
M  V30 10180 H 998.719 3.93762 5.19418 0
M  V30 10181 N 1002.15 -0.195058 1.56388 0
M  V30 10182 C 1003.38 -0.935745 1.85091 0
M  V30 10183 C 1003.8 -1.76061 0.662118 0
M  V30 10184 O 1003.16 -1.77076 -0.389083 0
M  V30 10185 C 1003.21 -1.80764 3.1202 0
M  V30 10186 O 1002.31 -2.90643 2.92575 0
M  V30 10187 H 1001.65 -0.26351 0.609474 0
M  V30 10188 H 1004.18 -0.200362 2.03617 0
M  V30 10189 H 1004.19 -2.21229 3.42815 0
M  V30 10190 H 1002.87 -1.20157 3.98165 0
M  V30 10191 H 1001.44 -2.53934 2.73079 0
M  V30 10192 N 1003.63 -1.50653 -0.462772 0
M  V30 10193 C 1004.56 -1.66286 -1.5774 0
M  V30 10194 C 1005.57 -0.544094 -1.53439 0
M  V30 10195 O 1006.76 -0.817566 -1.58676 0
M  V30 10196 C 1003.86 -1.63893 -2.96635 0
M  V30 10197 C 1003.04 -2.91939 -3.25716 0
M  V30 10198 C 1002.1 -2.82076 -4.44206 0
M  V30 10199 O 1001.12 -3.56032 -4.44106 0
M  V30 10200 N 1002.32 -1.96196 -5.4634 0
M  V30 10201 H 1005.09 -2.6243 -1.44742 0
M  V30 10202 H 1002.65 -1.48221 -0.651326 0
M  V30 10203 H 1004.64 -1.54897 -3.73884 0
M  V30 10204 H 1003.21 -0.75449 -3.03358 0
M  V30 10205 H 1002.43 -3.14998 -2.37002 0
M  V30 10206 H 1003.72 -3.7675 -3.4196 0
M  V30 10207 H 1003.12 -1.35439 -5.49247 0
M  V30 10208 H 1001.67 -1.93097 -6.2254 0
M  V30 10209 N 1005.11 0.71652 -1.4037 0
M  V30 10210 C 1006.33 1.51069 -1.42102 0
M  V30 10211 C 1006.76 1.88087 -0.0222387 0
M  V30 10212 O 1006.12 1.53204 0.969448 0
M  V30 10213 C 1006.16 2.76307 -2.31704 0
M  V30 10214 O 1005.27 3.72975 -1.75964 0
M  V30 10215 H 1004.61 0.455502 -0.483129 0
M  V30 10216 H 1007.14 0.882514 -1.84588 0
M  V30 10217 H 1007.15 3.24846 -2.46859 0
M  V30 10218 H 1005.82 2.48698 -3.3335 0
M  V30 10219 H 1004.4 3.31818 -1.70151 0
M  V30 10220 N 1006.59 1.25851 0.948643 0
M  V30 10221 C 1007.81 1.13813 1.73382 0
M  V30 10222 C 1008.24 -0.303615 1.85633 0
M  V30 10223 O 1007.59 -1.21997 1.34114 0
M  V30 10224 C 1007.64 1.80388 3.12238 0
M  V30 10225 O 1006.75 1.08759 3.978 0
M  V30 10226 H 1006.09 0.397006 0.532243 0
M  V30 10227 H 1008.62 1.66529 1.18866 0
M  V30 10228 H 1008.63 1.86913 3.62667 0
M  V30 10229 H 1007.3 2.85278 3.02637 0
M  V30 10230 H 1005.88 1.10157 3.56258 0
M  V30 10231 N 1008.06 -1.15214 1.07534 0
M  V30 10232 C 1009.48 -1.38031 0.801228 0
M  V30 10233 C 1009.68 -1.92556 -0.593672 0
M  V30 10234 O 1008.74 -2.1325 -1.35206 0
M  V30 10235 C 1010.05 -2.34958 1.87657 0
M  V30 10236 C 1011.6 -2.48617 1.90154 0
M  V30 10237 C 1012.07 -3.48837 2.96777 0
M  V30 10238 N 1013.56 -3.56374 2.95892 0
M  V30 10239 C 1014.3 -4.33746 3.75036 0
M  V30 10240 N 1013.79 -5.14435 4.64036 0
M  V30 10241 N 1015.59 -4.28853 3.63375 0
M  V30 10242 H 1007.74 -0.781639 1.97495 0
M  V30 10243 H 1010 -0.406243 0.856546 0
M  V30 10244 H 1009.71 -2.02013 2.87895 0
M  V30 10245 H 1009.58 -3.3476 1.73827 0
M  V30 10246 H 1011.97 -2.80859 0.905666 0
M  V30 10247 H 1012.05 -1.48808 2.08062 0
M  V30 10248 H 1011.69 -3.1733 3.96565 0
M  V30 10249 H 1011.62 -4.48406 2.76116 0
M  V30 10250 H 1014.11 -2.98784 2.31379 0
M  V30 10251 H 1014.43 -5.70722 5.21053 0
M  V30 10252 H 1012.77 -5.13734 4.68084 0
M  V30 10253 H 1015.96 -3.64882 2.93221 0
M  V30 10254 H 1016.14 -4.88903 4.25298 0
M  V30 10255 N 1009.54 -0.859717 -1.32086 0
M  V30 10256 C 1010.45 -0.31108 -2.32528 0
M  V30 10257 C 1011.47 0.573714 -1.6427 0
M  V30 10258 O 1012.64 0.472878 -1.9577 0
M  V30 10259 C 1009.71 0.487256 -3.43259 0
M  V30 10260 C 1008.77 -0.424279 -4.27198 0
M  V30 10261 C 1008 0.336051 -5.32641 0
M  V30 10262 O 1008.23 1.56541 -5.48499 0
M  V30 10263 O 1007.16 -0.300777 -6.01148 0
M  V30 10264 H 1010.99 -1.14336 -2.81355 0
M  V30 10265 H 1008.57 -0.622794 -1.358 0
M  V30 10266 H 1010.45 0.940203 -4.10777 0
M  V30 10267 H 1009.13 1.29626 -2.96612 0
M  V30 10268 H 1008.04 -0.925509 -3.62471 0
M  V30 10269 H 1009.37 -1.1986 -4.77383 0
M  V30 10270 N 1011.02 1.44971 -0.618145 0
M  V30 10271 C 1012.25 2.07039 -0.122395 0
M  V30 10272 C 1012.67 1.45793 1.18853 0
M  V30 10273 O 1012.03 0.55453 1.72611 0
M  V30 10274 C 1012.08 3.60599 -0.0073864 0
M  V30 10275 O 1011.18 3.99069 1.04007 0
M  V30 10276 H 1010.52 0.6593 -0.0788615 0
M  V30 10277 H 1013.05 1.86055 -0.851147 0
M  V30 10278 H 1013.06 4.07569 0.187417 0
M  V30 10279 H 1011.74 4.04561 -0.964544 0
M  V30 10280 H 1010.31 3.63753 0.820879 0
M  V30 10281 N 1012.5 0.357919 1.53482 0
M  V30 10282 C 1013.91 -0.122938 1.86295 0
M  V30 10283 C 1014.26 -1.48803 1.27875 0
M  V30 10284 O 1013.39 -2.07978 0.597828 0
M  V30 10285 C 1013.98 -0.229853 3.38019 0
M  V30 10286 C 1012.54 -0.654955 3.70658 0
M  V30 10287 C 1011.69 0.202539 2.76559 0
M  V30 10288 H 1014.64 0.576997 1.47839 0
M  V30 10289 H 1014.66 -1.05481 3.65587 0
M  V30 10290 H 1014.17 0.763825 3.80509 0
M  V30 10291 H 1012.27 -1.65714 3.33721 0
M  V30 10292 H 1012.38 -0.43488 4.77122 0
M  V30 10293 H 1010.75 -0.327388 2.52587 0
M  V30 10294 H 1011.53 1.19361 3.21882 0
M  V30 10295 N 1013.98 -1.5736 0.0868897 0
M  V30 10296 C 1015.39 -1.81356 -0.443499 0
M  V30 10297 C 1015.74 -1.00192 -1.68689 0
M  V30 10298 O 1014.86 -0.228863 -2.15186 0
M  V30 10299 C 1015.46 -3.28941 -0.811387 0
M  V30 10300 C 1014.02 -3.53729 -1.28656 0
M  V30 10301 C 1013.16 -2.75891 -0.279153 0
M  V30 10302 H 1016.12 -1.55594 0.312427 0
M  V30 10303 H 1016.14 -3.41815 -1.6716 0
M  V30 10304 H 1015.65 -3.87987 0.0937598 0
M  V30 10305 H 1013.75 -3.00005 -2.2097 0
M  V30 10306 H 1013.86 -4.62396 -1.25406 0
M  V30 10307 H 1012.23 -2.4311 -0.759595 0
M  V30 10308 H 1013.01 -3.37682 0.618529 0
M  V30 10309 N 1015.45 0.186762 -1.56489 0
M  V30 10310 C 1016.39 1.25565 -1.91745 0
M  V30 10311 C 1017.4 1.4128 -0.80894 0
M  V30 10312 O 1018.59 1.41558 -1.08737 0
M  V30 10313 C 1015.69 2.62662 -2.14154 0
M  V30 10314 C 1014.86 2.68448 -3.45333 0
M  V30 10315 C 1013.92 3.86798 -3.56754 0
M  V30 10316 O 1012.95 3.73514 -4.29507 0
M  V30 10317 N 1014.15 5.02607 -2.90459 0
M  V30 10318 H 1016.91 0.956351 -2.84032 0
M  V30 10319 H 1014.47 0.376631 -1.57458 0
M  V30 10320 H 1016.47 3.40277 -2.19075 0
M  V30 10321 H 1015.04 2.85046 -1.28326 0
M  V30 10322 H 1014.26 1.77044 -3.52206 0
M  V30 10323 H 1015.54 2.69311 -4.31682 0
M  V30 10324 H 1014.94 5.163 -2.31194 0
M  V30 10325 H 1013.5 5.78139 -3.00996 0
M  V30 10326 N 1016.93 1.50896 0.454776 0
M  V30 10327 C 1017.86 1.6712 1.56855 0
M  V30 10328 C 1018.88 0.552223 1.53148 0
M  V30 10329 O 1020.07 0.825969 1.5824 0
M  V30 10330 C 1017.17 1.65464 2.95762 0
M  V30 10331 C 1016.34 2.93662 3.24163 0
M  V30 10332 C 1015.4 2.84428 4.42704 0
M  V30 10333 O 1014.42 3.58382 4.42211 0
M  V30 10334 N 1015.63 1.9909 5.45292 0
M  V30 10335 H 1018.39 2.63194 1.43349 0
M  V30 10336 H 1015.95 1.48564 0.643457 0
M  V30 10337 H 1017.94 1.56878 3.73057 0
M  V30 10338 H 1016.51 0.770568 3.02954 0
M  V30 10339 H 1015.73 3.16251 2.35328 0
M  V30 10340 H 1017.02 3.78558 3.39957 0
M  V30 10341 H 1016.42 1.3835 5.48521 0
M  V30 10342 H 1014.98 1.96396 6.21508 0
M  V30 10343 N 1018.41 -0.709066 1.40748 0
M  V30 10344 C 1019.34 -1.83412 1.37451 0
M  V30 10345 C 1020.36 -1.60394 0.27884 0
M  V30 10346 O 1021.54 -1.70147 0.539642 0
M  V30 10347 C 1018.64 -3.19935 1.1178 0
M  V30 10348 C 1017.82 -3.70095 2.33128 0
M  V30 10349 C 1016.88 -4.85249 2.03518 0
M  V30 10350 O 1015.9 -4.97563 2.76442 0
M  V30 10351 N 1017.1 -5.7152 1.01714 0
M  V30 10352 H 1019.87 -1.86736 2.34414 0
M  V30 10353 H 1017.43 -0.890863 1.35186 0
M  V30 10354 H 1019.42 -3.94578 0.899464 0
M  V30 10355 H 1017.99 -3.11718 0.234624 0
M  V30 10356 H 1017.21 -2.8651 2.70751 0
M  V30 10357 H 1018.5 -4.00344 3.1401 0
M  V30 10358 H 1017.9 -5.64188 0.413307 0
M  V30 10359 H 1016.46 -6.46119 0.858696 0
M  V30 10360 N 1019.89 -1.26353 -0.941956 0
M  V30 10361 C 1021.3 -1.10774 -1.50287 0
M  V30 10362 C 1021.65 0.312229 -1.937 0
M  V30 10363 O 1020.78 1.20364 -1.79838 0
M  V30 10364 C 1021.37 -2.00473 -2.73123 0
M  V30 10365 C 1019.93 -1.89042 -3.25485 0
M  V30 10366 C 1019.08 -1.93869 -1.98267 0
M  V30 10367 H 1022.03 -1.39454 -0.757523 0
M  V30 10368 H 1022.05 -1.55216 -3.47402 0
M  V30 10369 H 1021.56 -3.03812 -2.41495 0
M  V30 10370 H 1019.66 -0.886341 -3.61904 0
M  V30 10371 H 1019.78 -2.74533 -3.92643 0
M  V30 10372 H 1018.14 -1.37912 -2.14132 0
M  V30 10373 H 1018.92 -2.98837 -1.68972 0
M  V30 10374 N 1021.37 1.14642 -1.08144 0
M  V30 10375 C 1022.78 1.6719 -0.830923 0
M  V30 10376 C 1023.13 1.85373 0.642749 0
M  V30 10377 O 1022.25 1.56293 1.49671 0
M  V30 10378 C 1022.85 3.03697 -1.50179 0
M  V30 10379 C 1021.41 3.5329 -1.29858 0
M  V30 10380 C 1020.56 2.28828 -1.5663 0
M  V30 10381 H 1023.51 0.987441 -1.24239 0
M  V30 10382 H 1023.53 3.69023 -0.9275 0
M  V30 10383 H 1023.04 2.90431 -2.57432 0
M  V30 10384 H 1021.14 3.71783 -0.246626 0
M  V30 10385 H 1021.25 4.34231 -2.02436 0
M  V30 10386 H 1019.62 2.34769 -0.987716 0
M  V30 10387 H 1020.4 2.18141 -2.65084 0
M  V30 10388 N 1022.85 0.866709 1.31628 0
M  V30 10389 C 1024.26 0.558188 1.49521 0
M  V30 10390 C 1024.46 -0.90844 1.7986 0
M  V30 10391 O 1023.52 -1.6908 1.87531 0
M  V30 10392 C 1024.83 1.45559 2.63122 0
M  V30 10393 C 1026.38 1.45728 2.77006 0
M  V30 10394 C 1026.85 2.34017 3.937 0
M  V30 10395 N 1028.34 2.31879 4.00982 0
M  V30 10396 C 1029.08 2.96915 4.90539 0
M  V30 10397 N 1028.58 3.71109 5.85021 0
M  V30 10398 N 1030.37 2.86241 4.83759 0
M  V30 10399 H 1022.52 1.81574 1.10203 0
M  V30 10400 H 1024.78 0.77621 0.544244 0
M  V30 10401 H 1024.49 2.49904 2.47469 0
M  V30 10402 H 1024.36 1.15174 3.59186 0
M  V30 10403 H 1026.75 0.421419 2.92075 0
M  V30 10404 H 1026.83 1.80134 1.81619 0
M  V30 10405 H 1026.47 3.37678 3.79389 0
M  V30 10406 H 1026.4 1.96937 4.88388 0
M  V30 10407 H 1028.9 1.77948 3.33381 0
M  V30 10408 H 1029.21 4.1787 6.5008 0
M  V30 10409 H 1027.55 3.75217 5.8501 0
M  V30 10410 H 1030.74 2.27819 4.08921 0
M  V30 10411 H 1030.92 3.37206 5.5335 0
M  V30 10412 N 1024.32 -1.44642 0.625825 0
M  V30 10413 C 1025.25 -2.33397 -0.0692188 0
M  V30 10414 C 1026.23 -1.47898 -0.840241 0
M  V30 10415 O 1027.42 -1.7663 -0.807176 0
M  V30 10416 C 1024.55 -3.30888 -1.055 0
M  V30 10417 C 1023.5 -4.26164 -0.395968 0
M  V30 10418 C 1022.83 -5.13483 -1.49128 0
M  V30 10419 C 1024.13 -5.17663 0.694433 0
M  V30 10420 H 1025.82 -2.91763 0.671925 0
M  V30 10421 H 1023.37 -1.40294 0.324573 0
M  V30 10422 H 1025.32 -3.91861 -1.54993 0
M  V30 10423 H 1024.05 -2.7072 -1.82696 0
M  V30 10424 H 1022.71 -3.66516 0.0782691 0
M  V30 10425 H 1022.35 -4.49672 -2.25399 0
M  V30 10426 H 1022.05 -5.78038 -1.05573 0
M  V30 10427 H 1023.58 -5.77327 -1.98813 0
M  V30 10428 H 1024.99 -5.72602 0.282818 0
M  V30 10429 H 1023.39 -5.90793 1.05281 0
M  V30 10430 H 1024.46 -4.58994 1.56372 0
M  V30 10431 N 1025.8 -0.366053 -1.5329 0
M  V30 10432 C 1027.21 0.113056 -1.86357 0
M  V30 10433 C 1027.56 1.48123 -1.28662 0
M  V30 10434 O 1026.69 2.07658 -0.608849 0
M  V30 10435 C 1027.28 0.211923 -3.38137 0
M  V30 10436 C 1025.84 0.635289 -3.71 0
M  V30 10437 C 1024.99 -0.217203 -2.76448 0
M  V30 10438 H 1027.94 -0.584829 -1.47531 0
M  V30 10439 H 1027.96 1.0354 -3.66142 0
M  V30 10440 H 1027.47 -0.783994 -3.80099 0
M  V30 10441 H 1025.57 1.63942 -3.34595 0
M  V30 10442 H 1025.69 0.409571 -4.77346 0
M  V30 10443 H 1024.05 0.313988 -2.52757 0
M  V30 10444 H 1024.83 -1.21067 -3.21244 0
M  V30 10445 N 1027.28 1.57312 -0.0952337 0
M  V30 10446 C 1028.69 1.81589 0.433875 0
M  V30 10447 C 1029.04 1.01086 1.68155 0
M  V30 10448 O 1028.17 0.240272 2.15062 0
M  V30 10449 C 1028.76 3.29366 0.793931 0
M  V30 10450 C 1027.32 3.54407 1.26778 0
M  V30 10451 C 1026.47 2.76035 0.264518 0
M  V30 10452 H 1029.42 1.55426 -0.320675 0
M  V30 10453 H 1029.44 3.42697 1.65345 0
M  V30 10454 H 1028.95 3.87932 -0.114334 0
M  V30 10455 H 1027.05 3.01173 2.19376 0
M  V30 10456 H 1027.17 4.63055 1.22952 0
M  V30 10457 H 1025.53 2.43509 0.746691 0
M  V30 10458 H 1026.31 3.37349 -0.636429 0
M  V30 10459 N 1028.76 -0.17846 1.56586 0
M  V30 10460 C 1029.67 -1.24115 1.9908 0
M  V30 10461 C 1030.68 -1.48854 0.901031 0
M  V30 10462 O 1031.86 -1.61142 1.2081 0
M  V30 10463 C 1028.92 -2.56187 2.33601 0
M  V30 10464 C 1027.99 -2.39373 3.56369 0
M  V30 10465 C 1027.22 -3.65147 3.89234 0
M  V30 10466 O 1027.44 -4.70024 3.23162 0
M  V30 10467 O 1026.38 -3.59683 4.82609 0
M  V30 10468 H 1030.2 -0.910482 2.89731 0
M  V30 10469 H 1027.79 -0.38477 1.4436 0
M  V30 10470 H 1029.67 -3.34109 2.56806 0
M  V30 10471 H 1028.34 -2.88847 1.46113 0
M  V30 10472 H 1027.25 -1.59506 3.38391 0
M  V30 10473 H 1028.58 -2.1164 4.44375 0
M  V30 10474 N 1030.24 -1.51135 -0.446768 0
M  V30 10475 C 1031.48 -1.63578 -1.19875 0
M  V30 10476 C 1031.81 -0.346478 -1.91084 0
M  V30 10477 O 1031.09 0.653447 -1.83195 0
M  V30 10478 C 1031.37 -2.83275 -2.22323 0
M  V30 10479 C 1031.23 -4.22155 -1.55259 0
M  V30 10480 C 1032.54 -2.98496 -3.23401 0
M  V30 10481 H 1029.66 -0.595333 -0.434452 0
M  V30 10482 H 1032.31 -1.83593 -0.48923 0
M  V30 10483 H 1030.46 -2.6634 -2.82834 0
M  V30 10484 H 1032.13 -4.50736 -0.981571 0
M  V30 10485 H 1030.37 -4.25288 -0.855122 0
M  V30 10486 H 1031.04 -5.01882 -2.29823 0
M  V30 10487 H 1033.52 -3.14079 -2.72935 0
M  V30 10488 H 1032.39 -3.83828 -3.92386 0
M  V30 10489 H 1032.65 -2.10157 -3.88956 0
M  V30 10490 N 1031.71 0.701592 -1.41122 0
M  V30 10491 C 1032.62 1.84548 -1.44841 0
M  V30 10492 C 1033.64 1.70654 -0.339594 0
M  V30 10493 O 1034.82 1.92675 -0.586378 0
M  V30 10494 C 1031.88 3.20477 -1.3227 0
M  V30 10495 C 1030.94 3.46524 -2.53415 0
M  V30 10496 C 1030.17 4.75968 -2.41434 0
M  V30 10497 O 1030.4 5.52037 -1.43566 0
M  V30 10498 O 1029.33 5.02664 -3.31078 0
M  V30 10499 H 1033.16 1.84367 -2.41335 0
M  V30 10500 H 1030.74 0.853863 -1.22595 0
M  V30 10501 H 1032.62 4.01642 -1.2752 0
M  V30 10502 H 1031.3 3.21355 -0.388889 0
M  V30 10503 H 1030.21 2.65313 -2.63742 0
M  V30 10504 H 1031.54 3.50455 -3.45604 0
M  V30 10505 N 1033.19 1.2685 0.935242 0
M  V30 10506 C 1034.15 1.08975 2.01636 0
M  V30 10507 C 1035.15 0.0361543 1.60759 0
M  V30 10508 O 1036.34 0.280087 1.71934 0
M  V30 10509 C 1033.48 0.658831 3.34473 0
M  V30 10510 H 1034.67 2.04968 2.18925 0
M  V30 10511 H 1032.22 1.09531 1.11501 0
M  V30 10512 H 1032.96 -0.302824 3.22883 0
M  V30 10513 H 1032.74 1.41967 3.65497 0
M  V30 10514 H 1034.23 0.555783 4.13885 0
M  V30 10515 N 1034.67 -1.14067 1.0875 0
M  V30 10516 C 1035.92 -1.84819 0.817698 0
M  V30 10517 C 1036.24 -1.83545 -0.658488 0
M  V30 10518 O 1035.51 -1.28633 -1.47751 0
M  V30 10519 H 1034.09 -0.68433 0.299502 0
M  V30 10520 H 1036.75 -1.38208 1.37421 0
M  V30 10521 H 1035.85 -2.89541 1.16501 0
M  V30 10522 N 1036.15 -0.873678 -1.31166 0
M  V30 10523 C 1037.08 -0.289389 -2.27366 0
M  V30 10524 C 1038.09 0.549667 -1.5324 0
M  V30 10525 O 1039.28 0.371056 -1.74601 0
M  V30 10526 C 1036.38 0.60807 -3.334 0
M  V30 10527 C 1035.56 -0.199379 -4.36945 0
M  V30 10528 C 1034.61 0.626798 -5.22454 0
M  V30 10529 O 1033.64 0.0535121 -5.69175 0
M  V30 10530 N 1034.84 1.93809 -5.47191 0
M  V30 10531 H 1037.61 -1.1161 -2.78143 0
M  V30 10532 H 1035.17 -0.735529 -1.44228 0
M  V30 10533 H 1037.16 1.16656 -3.87522 0
M  V30 10534 H 1035.73 1.33545 -2.82638 0
M  V30 10535 H 1034.95 -0.939316 -3.82845 0
M  V30 10536 H 1036.24 -0.75329 -5.03193 0
M  V30 10537 H 1035.64 2.42693 -5.10995 0
M  V30 10538 H 1034.19 2.44428 -6.04234 0
M  V30 10539 N 1037.63 1.44308 -0.633487 0
M  V30 10540 C 1039.04 1.56768 -0.29931 0
M  V30 10541 C 1039.24 1.62061 1.19743 0
M  V30 10542 O 1038.3 1.56492 1.98158 0
M  V30 10543 C 1039.61 2.8382 -0.993307 0
M  V30 10544 C 1041.16 2.97536 -0.971674 0
M  V30 10545 C 1041.63 4.27393 -1.64618 0
M  V30 10546 N 1043.13 4.34212 -1.61288 0
M  V30 10547 C 1043.86 5.33415 -2.1037 0
M  V30 10548 N 1043.36 6.3901 -2.67653 0
M  V30 10549 N 1045.15 5.24939 -2.00985 0
M  V30 10550 H 1037.3 1.39115 -1.60501 0
M  V30 10551 H 1039.56 0.666804 -0.673852 0
M  V30 10552 H 1039.27 2.85902 -2.04823 0
M  V30 10553 H 1039.14 3.73422 -0.532537 0
M  V30 10554 H 1041.53 2.95005 0.0747854 0
M  V30 10555 H 1041.61 2.09276 -1.47096 0
M  V30 10556 H 1041.26 4.30683 -2.6921 0
M  V30 10557 H 1041.19 5.14515 -1.12171 0
M  V30 10558 H 1043.68 3.58519 -1.19468 0
M  V30 10559 H 1043.99 7.10994 -3.02831 0
M  V30 10560 H 1042.33 6.39689 -2.71705 0
M  V30 10561 H 1045.53 4.41357 -1.55953 0
M  V30 10562 H 1045.7 6.02097 -2.39547 0
M  V30 10563 N 1039.1 0.374177 1.53094 0
M  V30 10564 C 1040.03 -0.459976 2.28925 0
M  V30 10565 C 1041.02 -1.07656 1.31698 0
M  V30 10566 O 1042.2 -1.09219 1.60577 0
M  V30 10567 C 1039.33 -1.5954 3.08487 0
M  V30 10568 C 1038.28 -1.10563 4.13473 0
M  V30 10569 C 1037.61 -2.33196 4.81169 0
M  V30 10570 C 1038.91 -0.184275 5.21975 0
M  V30 10571 H 1040.6 0.172692 2.98902 0
M  V30 10572 H 1038.15 0.0844956 1.43752 0
M  V30 10573 H 1040.1 -2.18565 3.60288 0
M  V30 10574 H 1038.83 -2.25543 2.36216 0
M  V30 10575 H 1037.49 -0.53801 3.62631 0
M  V30 10576 H 1037.13 -2.97675 4.05461 0
M  V30 10577 H 1036.83 -2.01094 5.52119 0
M  V30 10578 H 1038.36 -2.92892 5.35767 0
M  V30 10579 H 1039.77 -0.682262 5.69226 0
M  V30 10580 H 1038.17 0.0462746 6.00082 0
M  V30 10581 H 1039.24 0.771152 4.78729 0
M  V30 10582 N 1040.58 -1.57259 0.103575 0
M  V30 10583 C 1042 -1.57581 -0.253062 0
M  V30 10584 C 1042.2 -1.11531 -1.67819 0
M  V30 10585 O 1041.25 -0.795632 -2.39637 0
M  V30 10586 C 1042.57 -3.00681 -0.0337753 0
M  V30 10587 C 1044.12 -3.12837 -0.10087 0
M  V30 10588 C 1044.59 -4.57911 0.0905295 0
M  V30 10589 N 1046.08 -4.63186 0.0359789 0
M  V30 10590 C 1046.82 -5.73179 0.159199 0
M  V30 10591 N 1046.31 -6.91976 0.337728 0
M  V30 10592 N 1048.11 -5.62011 0.0998662 0
M  V30 10593 H 1040.26 -1.85499 1.0346 0
M  V30 10594 H 1042.52 -0.856584 0.406163 0
M  V30 10595 H 1042.23 -3.38602 0.950858 0
M  V30 10596 H 1042.1 -3.69207 -0.772406 0
M  V30 10597 H 1044.49 -2.74783 -1.07601 0
M  V30 10598 H 1044.57 -2.46886 0.66939 0
M  V30 10599 H 1044.21 -4.9666 1.06258 0
M  V30 10600 H 1044.14 -5.21933 -0.699528 0
M  V30 10601 H 1046.63 -3.7777 -0.099121 0
M  V30 10602 H 1046.95 -7.71641 0.423032 0
M  V30 10603 H 1045.29 -6.93996 0.373504 0
M  V30 10604 H 1048.48 -4.68084 -0.0385356 0
M  V30 10605 H 1048.65 -6.47693 0.199342 0
M  V30 10606 N 1042.06 0.170153 -1.56679 0
M  V30 10607 C 1043.02 1.19443 -1.95617 0
M  V30 10608 C 1044.02 1.37118 -0.83996 0
M  V30 10609 O 1045.21 1.34504 -1.10699 0
M  V30 10610 C 1042.35 2.55926 -2.25199 0
M  V30 10611 H 1043.54 0.86095 -2.87276 0
M  V30 10612 H 1041.09 0.412646 -1.50755 0
M  V30 10613 H 1041.83 2.94286 -1.36257 0
M  V30 10614 H 1041.61 2.44464 -3.06562 0
M  V30 10615 H 1043.1 3.29742 -2.56242 0
M  V30 10616 N 1043.54 1.5137 0.438746 0
M  V30 10617 C 1044.79 1.63645 1.18595 0
M  V30 10618 C 1045.11 0.354241 1.91755 0
M  V30 10619 O 1044.38 -0.629838 1.85499 0
M  V30 10620 H 1042.96 0.603103 0.440767 0
M  V30 10621 H 1045.62 1.88293 0.503159 0
M  V30 10622 H 1044.72 2.46342 1.9163 0
M  V30 10623 N 1045.02 -0.694098 1.41492 0
M  V30 10624 C 1045.95 -1.82042 1.46229 0
M  V30 10625 C 1046.93 -1.67047 0.320803 0
M  V30 10626 O 1048.11 -1.86758 0.53245 0
M  V30 10627 C 1045.24 -3.2019 1.34519 0
M  V30 10628 C 1044.2 -3.49892 2.46495 0
M  V30 10629 C 1043.52 -4.87411 2.1985 0
M  V30 10630 C 1044.82 -3.4872 3.88834 0
M  V30 10631 H 1046.52 -1.78335 2.40493 0
M  V30 10632 H 1044.06 -0.856566 1.15754 0
M  V30 10633 H 1046.02 -3.98699 1.36445 0
M  V30 10634 H 1044.74 -3.24527 0.367406 0
M  V30 10635 H 1043.4 -2.73734 2.43854 0
M  V30 10636 H 1043.05 -4.88375 1.20411 0
M  V30 10637 H 1042.75 -5.08248 2.94885 0
M  V30 10638 H 1044.27 -5.68228 2.23494 0
M  V30 10639 H 1045.68 -4.1723 3.93182 0
M  V30 10640 H 1044.08 -3.81089 4.63564 0
M  V30 10641 H 1045.15 -2.47665 4.16881 0
M  V30 10642 N 1046.49 -1.27344 -0.928501 0
M  V30 10643 C 1047.42 -1.12517 -2.04602 0
M  V30 10644 C 1048.41 -0.0268563 -1.70079 0
M  V30 10645 O 1049.59 -0.201197 -1.93155 0
M  V30 10646 C 1046.72 -0.770749 -3.3864 0
M  V30 10647 C 1045.67 -1.8222 -3.87272 0
M  V30 10648 C 1045 -1.32178 -5.18105 0
M  V30 10649 C 1046.3 -3.22614 -4.10752 0
M  V30 10650 H 1047.99 -2.06 -2.17265 0
M  V30 10651 H 1045.54 -0.991827 -1.04397 0
M  V30 10652 H 1047.49 -0.653843 -4.16297 0
M  V30 10653 H 1046.22 0.19979 -3.25988 0
M  V30 10654 H 1044.88 -1.928 -3.11807 0
M  V30 10655 H 1044.52 -0.340719 -5.01845 0
M  V30 10656 H 1044.22 -2.02474 -5.51614 0
M  V30 10657 H 1045.75 -1.2178 -5.98333 0
M  V30 10658 H 1047.16 -3.1504 -4.78981 0
M  V30 10659 H 1045.56 -3.90614 -4.55566 0
M  V30 10660 H 1046.63 -3.67727 -3.16077 0
M  V30 10661 N 1047.97 1.13488 -1.09353 0
M  V30 10662 C 1049.38 1.66299 -0.848609 0
M  V30 10663 C 1049.73 1.86044 0.623051 0
M  V30 10664 O 1048.86 1.57871 1.48005 0
M  V30 10665 C 1049.45 3.02087 -1.53391 0
M  V30 10666 C 1048.01 3.51893 -1.33598 0
M  V30 10667 C 1047.16 2.27154 -1.59048 0
M  V30 10668 H 1050.11 0.974208 -1.25279 0
M  V30 10669 H 1050.13 3.68018 -0.966587 0
M  V30 10670 H 1049.64 2.87684 -2.60498 0
M  V30 10671 H 1047.75 3.715 -0.286045 0
M  V30 10672 H 1047.86 4.32059 -2.0703 0
M  V30 10673 H 1046.22 2.33708 -1.01256 0
M  V30 10674 H 1047.01 2.15317 -2.67383 0
M  V30 10675 N 1049.45 0.880621 1.30701 0
M  V30 10676 C 1050.68 0.510909 2.01009 0
M  V30 10677 C 1051.1 -0.892041 1.65603 0
M  V30 10678 O 1050.46 -1.59045 0.870309 0
M  V30 10679 C 1050.51 0.687759 3.53981 0
M  V30 10680 O 1049.61 -0.268275 4.11526 0
M  V30 10681 H 1048.95 0.201864 0.632572 0
M  V30 10682 H 1051.48 1.18697 1.6665 0
M  V30 10683 H 1051.49 0.585095 4.03783 0
M  V30 10684 H 1050.17 1.71068 3.79089 0
M  V30 10685 H 1048.74 -0.119673 3.72708 0
M  V30 10686 N 1050.93 -1.4397 0.641131 0
M  V30 10687 C 1051.88 -2.2786 -0.079879 0
M  V30 10688 C 1052.86 -1.39227 -0.80651 0
M  V30 10689 O 1054.06 -1.62956 -0.690969 0
M  V30 10690 C 1051.18 -3.26722 -1.05394 0
M  V30 10691 C 1050.27 -4.22842 -0.326411 0
M  V30 10692 N 1050.66 -5.016 0.650464 0
M  V30 10693 C 1048.96 -4.42349 -0.569507 0
M  V30 10694 C 1049.66 -5.71563 1.08121 0
M  V30 10695 N 1048.64 -5.41991 0.417932 0
M  V30 10696 H 1052.44 -2.86163 0.669906 0
M  V30 10697 H 1049.95 -1.55528 0.467433 0
M  V30 10698 H 1051.95 -3.85588 -1.58517 0
M  V30 10699 H 1050.61 -2.69979 -1.80392 0
M  V30 10700 H 1051.62 -5.07581 1.0287 0
M  V30 10701 H 1048.3 -3.96693 -1.30159 0
M  V30 10702 H 1049.69 -6.44805 1.88883 0
M  V30 10703 N 1052.41 -0.382291 -1.52893 0
M  V30 10704 C 1053.34 0.447829 -2.29165 0
M  V30 10705 C 1054.32 1.06956 -1.32267 0
M  V30 10706 O 1055.5 1.08365 -1.61154 0
M  V30 10707 C 1052.63 1.57902 -3.09329 0
M  V30 10708 C 1051.59 1.08369 -4.14053 0
M  V30 10709 C 1050.91 2.30641 -4.82399 0
M  V30 10710 C 1052.21 0.156591 -5.22065 0
M  V30 10711 H 1053.91 -0.188541 -2.98806 0
M  V30 10712 H 1051.45 -0.0921179 -1.43705 0
M  V30 10713 H 1053.41 2.16652 -3.61442 0
M  V30 10714 H 1052.13 2.24287 -2.37409 0
M  V30 10715 H 1050.79 0.518772 -3.62911 0
M  V30 10716 H 1050.44 2.9552 -4.07034 0
M  V30 10717 H 1050.14 1.98163 -5.53177 0
M  V30 10718 H 1051.66 2.90047 -5.37313 0
M  V30 10719 H 1053.08 0.652065 -5.6958 0
M  V30 10720 H 1051.47 -0.0780978 -6.00049 0
M  V30 10721 H 1052.54 -0.796529 -4.78313 0
M  V30 10722 N 1053.89 1.57202 -0.111913 0
M  V30 10723 C 1055.3 1.82039 0.414591 0
M  V30 10724 C 1055.65 1.02863 1.67074 0
M  V30 10725 O 1054.77 0.263068 2.14795 0
M  V30 10726 C 1055.37 3.3019 0.758953 0
M  V30 10727 C 1053.93 3.55732 1.23012 0
M  V30 10728 C 1053.07 2.76301 0.235226 0
M  V30 10729 H 1056.02 1.55078 -0.337142 0
M  V30 10730 H 1056.05 3.44431 1.61701 0
M  V30 10731 H 1055.56 3.87788 -0.155473 0
M  V30 10732 H 1053.66 3.03483 2.16169 0
M  V30 10733 H 1053.77 4.64333 1.18034 0
M  V30 10734 H 1052.14 2.44287 0.720822 0
M  V30 10735 H 1052.92 3.36655 -0.672173 0
M  V30 10736 N 1055.36 -0.161842 1.56767 0
M  V30 10737 C 1056.27 -1.21996 2.00385 0
M  V30 10738 C 1057.29 -1.4789 0.916768 0
M  V30 10739 O 1058.47 -1.59852 1.22513 0
M  V30 10740 C 1055.53 -2.53695 2.36305 0
M  V30 10741 C 1054.59 -2.3558 3.58888 0
M  V30 10742 C 1053.82 -3.60998 3.93085 0
M  V30 10743 O 1054.05 -4.6657 3.28129 0
M  V30 10744 O 1052.98 -3.54544 4.86397 0
M  V30 10745 H 1056.81 -0.879701 2.9068 0
M  V30 10746 H 1054.39 -0.369437 1.4476 0
M  V30 10747 H 1056.27 -3.31366 2.60335 0
M  V30 10748 H 1054.95 -2.87281 1.49169 0
M  V30 10749 H 1053.86 -1.55908 3.40064 0
M  V30 10750 H 1055.19 -2.06915 4.46595 0
M  V30 10751 N 1056.84 -1.516 -0.430713 0
M  V30 10752 C 1058.09 -1.6484 -1.18134 0
M  V30 10753 C 1058.42 -0.366725 -1.90706 0
M  V30 10754 O 1057.7 0.63398 -1.83878 0
M  V30 10755 C 1057.98 -2.85617 -2.19306 0
M  V30 10756 C 1057.83 -4.23778 -1.50773 0
M  V30 10757 C 1059.15 -3.01909 -3.20217 0
M  V30 10758 H 1056.27 -0.599907 -0.428113 0
M  V30 10759 H 1058.91 -1.84102 -0.46973 0
M  V30 10760 H 1057.06 -2.69325 -2.79993 0
M  V30 10761 H 1058.73 -4.51752 -0.93371 0
M  V30 10762 H 1056.98 -4.26171 -0.809966 0
M  V30 10763 H 1057.65 -5.04291 -2.24487 0
M  V30 10764 H 1060.12 -3.16956 -2.69589 0
M  V30 10765 H 1059 -3.87968 -3.88293 0
M  V30 10766 H 1059.26 -2.1427 -3.86705 0
M  V30 10767 N 1058.32 0.686584 -1.41858 0
M  V30 10768 C 1059.57 1.44879 -1.41908 0
M  V30 10769 C 1059.9 1.94175 -0.0311408 0
M  V30 10770 O 1059.17 1.70131 0.942646 0
M  V30 10771 C 1059.46 2.65428 -2.43352 0
M  V30 10772 C 1059.31 2.2184 -3.91289 0
M  V30 10773 C 1060.63 3.67635 -2.41934 0
M  V30 10774 H 1057.75 0.525477 -0.516762 0
M  V30 10775 H 1060.39 0.781263 -1.73194 0
M  V30 10776 H 1058.54 3.2238 -2.16803 0
M  V30 10777 H 1060.21 1.70146 -4.28775 0
M  V30 10778 H 1058.45 1.53531 -4.05722 0
M  V30 10779 H 1059.13 3.08376 -4.5783 0
M  V30 10780 H 1061.6 3.20376 -2.65516 0
M  V30 10781 H 1060.48 4.49579 -3.14913 0
M  V30 10782 H 1060.74 4.17953 -1.44111 0
M  V30 10783 N 1059.8 1.27835 0.921735 0
M  V30 10784 C 1060.76 1.11108 2.00469 0
M  V30 10785 C 1061.76 0.053203 1.60712 0
M  V30 10786 O 1062.95 0.298308 1.71627 0
M  V30 10787 C 1060.08 0.694269 3.33755 0
M  V30 10788 H 1061.28 2.07279 2.16738 0
M  V30 10789 H 1058.83 1.10708 1.10333 0
M  V30 10790 H 1059.56 -0.268561 3.23186 0
M  V30 10791 H 1059.35 1.45836 3.6397 0
M  V30 10792 H 1060.84 0.59965 4.13272 0
M  V30 10793 N 1061.28 -1.12907 1.09954 0
M  V30 10794 C 1062.52 -1.83941 0.837255 0
M  V30 10795 C 1062.84 -1.84234 -0.638984 0
M  V30 10796 O 1062.11 -1.30193 -1.46378 0
M  V30 10797 H 1060.69 -0.681115 0.306743 0
M  V30 10798 H 1063.36 -1.36743 1.38879 0
M  V30 10799 H 1062.45 -2.88289 1.19565 0
M  V30 10800 N 1062.75 -0.88754 -1.30232 0
M  V30 10801 C 1063.68 -0.372481 -2.3051 0
M  V30 10802 C 1064.66 0.546037 -1.61098 0
M  V30 10803 O 1065.85 0.459345 -1.88689 0
M  V30 10804 C 1062.98 0.411605 -3.44852 0
M  V30 10805 C 1061.93 -0.415383 -4.2598 0
M  V30 10806 C 1061.26 0.495463 -5.324 0
M  V30 10807 C 1062.56 -1.65886 -4.95257 0
M  V30 10808 H 1064.25 -1.21045 -2.7384 0
M  V30 10809 H 1061.8 -0.583498 -1.31648 0
M  V30 10810 H 1063.75 0.782584 -4.1407 0
M  V30 10811 H 1062.48 1.28325 -3.00334 0
M  V30 10812 H 1061.14 -0.768534 -3.58454 0
M  V30 10813 H 1060.78 1.36489 -4.84128 0
M  V30 10814 H 1060.48 -0.0540885 -5.87575 0
M  V30 10815 H 1062.01 0.862901 -6.04472 0
M  V30 10816 H 1063.42 -1.35832 -5.56976 0
M  V30 10817 H 1061.82 -2.14881 -5.60309 0
M  V30 10818 H 1062.89 -2.40181 -4.21237 0
M  V30 10819 N 1064.23 1.43628 -0.648757 0
M  V30 10820 C 1065.46 2.06732 -0.166284 0
M  V30 10821 C 1065.88 1.48281 1.15734 0
M  V30 10822 O 1065.24 0.591018 1.71396 0
M  V30 10823 C 1065.29 3.60502 -0.0838732 0
M  V30 10824 O 1064.39 4.01186 0.955185 0
M  V30 10825 H 1063.73 0.657479 -0.0928285 0
M  V30 10826 H 1066.26 1.84208 -0.890421 0
M  V30 10827 H 1066.27 4.07875 0.100923 0
M  V30 10828 H 1064.95 4.02424 -1.05014 0
M  V30 10829 H 1063.53 3.65412 0.743537 0
M  V30 10830 N 1065.71 0.390394 1.52688 0
M  V30 10831 C 1066.95 -0.191207 2.03504 0
M  V30 10832 C 1067.31 -1.43952 1.27051 0
M  V30 10833 O 1068.52 -2.09835 1.67996 0
M  V30 10834 C 1066.79 -0.451552 3.54536 0
M  V30 10835 S 1068.35 -1.00328 4.27176 0
M  V30 10836 H 1065.16 -0.0537587 0.708965 0
M  V30 10837 H 1067.77 0.538993 1.87923 0
M  V30 10838 H 1066.47 0.464061 4.07768 0
M  V30 10839 H 1066 -1.21015 3.74325 0
M  V30 10840 H 1068.02 -2.28555 4.40428 0
M  V30 10841 N 1067.19 -1.57141 0.120249 0
M  V30 10842 C 1068.15 -2.14213 -0.815185 0
M  V30 10843 C 1069.15 -1.07731 -1.19376 0
M  V30 10844 O 1070.34 -1.33502 -1.11906 0
M  V30 10845 C 1067.47 -2.68339 -2.10255 0
M  V30 10846 H 1068.67 -2.98197 -0.319166 0
M  V30 10847 H 1066.22 -1.55767 -0.128997 0
M  V30 10848 H 1066.95 -1.87946 -2.64285 0
M  V30 10849 H 1066.74 -3.46216 -1.84057 0
M  V30 10850 H 1068.23 -3.124 -2.77121 0
M  V30 10851 N 1068.67 0.153526 -1.5685 0
M  V30 10852 C 1069.91 0.867232 -1.8299 0
M  V30 10853 C 1070.24 1.81462 -0.700125 0
M  V30 10854 O 1069.5 1.93207 0.311348 0
M  V30 10855 C 1069.8 1.68066 -3.15418 0
M  V30 10856 C 1069.46 0.880635 -4.42217 0
M  V30 10857 C 1068.12 0.659899 -4.76654 0
M  V30 10858 C 1070.48 0.320698 -5.20212 0
M  V30 10859 C 1067.8 -0.131588 -5.86552 0
M  V30 10860 C 1070.16 -0.457794 -6.30941 0
M  V30 10861 C 1068.82 -0.689168 -6.63933 0
M  V30 10862 H 1068.09 0.317343 -0.669608 0
M  V30 10863 H 1070.74 0.131208 -1.9105 0
M  V30 10864 H 1069.04 2.4866 -3.02779 0
M  V30 10865 H 1070.74 2.23623 -3.32857 0
M  V30 10866 H 1067.33 1.06274 -4.15215 0
M  V30 10867 H 1071.51 0.47853 -4.93988 0
M  V30 10868 H 1066.77 -0.320413 -6.1056 0
M  V30 10869 H 1070.94 -0.898839 -6.90575 0
M  V30 10870 H 1068.57 -1.30433 -7.48927 0
M  V30 10871 N 1070.14 1.51827 0.422667 0
M  V30 10872 C 1071.39 1.6445 1.16786 0
M  V30 10873 C 1071.71 0.373792 1.91995 0
M  V30 10874 O 1072.91 0.379621 2.68833 0
M  V30 10875 C 1071.37 2.90488 2.12473 0
M  V30 10876 C 1070.98 4.24617 1.42844 0
M  V30 10877 C 1072.72 3.12472 2.87335 0
M  V30 10878 C 1070.63 5.41791 2.371 0
M  V30 10879 H 1069.56 0.612561 0.439641 0
M  V30 10880 H 1072.21 1.78305 0.433534 0
M  V30 10881 H 1070.59 2.703 2.89402 0
M  V30 10882 H 1071.76 4.55239 0.71372 0
M  V30 10883 H 1070.08 4.08628 0.800769 0
M  V30 10884 H 1072.68 3.9719 3.57973 0
M  V30 10885 H 1073.02 2.26148 3.49518 0
M  V30 10886 H 1073.55 3.33069 2.17509 0
M  V30 10887 H 1070.29 6.3042 1.79584 0
M  V30 10888 H 1069.81 5.15526 3.06583 0
M  V30 10889 H 1071.49 5.74329 2.97918 0
M  V30 10890 N 1071.62 -0.679052 1.4222 0
M  V30 10891 C 1072.87 -1.44125 1.42674 0
M  V30 10892 C 1073.2 -1.94156 0.041438 0
M  V30 10893 O 1072.48 -1.70628 -0.93361 0
M  V30 10894 C 1072.76 -2.64133 2.44756 0
M  V30 10895 C 1072.61 -2.19761 3.9246 0
M  V30 10896 C 1073.93 -3.66347 2.43881 0
M  V30 10897 H 1071.05 -0.522729 0.519541 0
M  V30 10898 H 1073.69 -0.772067 1.73606 0
M  V30 10899 H 1071.84 -3.21225 2.1851 0
M  V30 10900 H 1073.51 -1.67869 4.29671 0
M  V30 10901 H 1071.76 -1.51377 4.06531 0
M  V30 10902 H 1072.43 -3.05944 4.59459 0
M  V30 10903 H 1074.9 -3.18963 2.67211 0
M  V30 10904 H 1073.78 -4.47902 3.17293 0
M  V30 10905 H 1074.04 -4.17183 1.46325 0
M  V30 10906 N 1073.1 -1.28322 -0.914942 0
M  V30 10907 C 1074.03 -1.14681 -2.03398 0
M  V30 10908 C 1075.01 -0.0448939 -1.70041 0
M  V30 10909 O 1076.2 -0.221672 -1.92931 0
M  V30 10910 C 1073.33 -0.806623 -3.37803 0
M  V30 10911 C 1072.28 -1.86318 -3.85318 0
M  V30 10912 C 1071.61 -1.37665 -5.16674 0
M  V30 10913 C 1072.91 -3.26953 -4.07307 0
M  V30 10914 H 1074.6 -2.08293 -2.15068 0
M  V30 10915 H 1072.15 -1.00284 -1.03339 0
M  V30 10916 H 1074.1 -0.69796 -4.1558 0
M  V30 10917 H 1072.82 0.165203 -3.26182 0
M  V30 10918 H 1071.48 -1.96096 -3.09745 0
M  V30 10919 H 1071.13 -0.393927 -5.01455 0
M  V30 10920 H 1070.83 -2.08313 -5.49435 0
M  V30 10921 H 1072.35 -1.28119 -5.97007 0
M  V30 10922 H 1073.77 -3.20102 -4.75613 0
M  V30 10923 H 1072.17 -3.95424 -4.51398 0
M  V30 10924 H 1073.24 -3.71059 -3.12159 0
M  V30 10925 N 1074.58 1.12322 -1.10551 0
M  V30 10926 C 1075.82 1.8413 -0.849932 0
M  V30 10927 C 1076.16 1.83938 0.622946 0
M  V30 10928 O 1075.43 1.28579 1.45937 0
M  V30 10929 C 1075.72 3.31751 -1.40048 0
M  V30 10930 C 1075.57 3.40391 -2.9403 0
M  V30 10931 C 1076.89 4.27543 -1.04379 0
M  V30 10932 H 1074.01 0.668533 -0.310213 0
M  V30 10933 H 1076.65 1.31766 -1.36886 0
M  V30 10934 H 1074.8 3.76475 -0.959102 0
M  V30 10935 H 1076.47 3.04294 -3.46703 0
M  V30 10936 H 1074.71 2.809 -3.30571 0
M  V30 10937 H 1075.38 4.44252 -3.27635 0
M  V30 10938 H 1077.86 3.90951 -1.42466 0
M  V30 10939 H 1076.74 5.2924 -1.4559 0
M  V30 10940 H 1077 4.42075 0.0466316 0
M  V30 10941 N 1076.06 0.894434 1.2976 0
M  V30 10942 C 1077.3 0.517669 1.95771 0
M  V30 10943 C 1077.63 -0.935028 1.70551 0
M  V30 10944 O 1076.89 -1.67722 1.00835 0
M  V30 10945 C 1077.19 0.750307 3.49435 0
M  V30 10946 C 1076.85 2.17955 3.94723 0
M  V30 10947 C 1075.51 2.57036 4.068 0
M  V30 10948 C 1077.87 3.11053 4.18205 0
M  V30 10949 C 1075.19 3.88406 4.39724 0
M  V30 10950 C 1077.55 4.41966 4.52602 0
M  V30 10951 C 1076.21 4.80927 4.62888 0
M  V30 10952 H 1075.48 0.189428 0.716378 0
M  V30 10953 H 1078.13 1.13209 1.54454 0
M  V30 10954 H 1076.43 0.0529242 3.91764 0
M  V30 10955 H 1078.13 0.438251 3.98598 0
M  V30 10956 H 1074.72 1.86622 3.85837 0
M  V30 10957 H 1078.9 2.82076 4.08347 0
M  V30 10958 H 1074.16 4.18321 4.4589 0
M  V30 10959 H 1078.33 5.14134 4.69722 0
M  V30 10960 H 1075.96 5.82759 4.88156 0
M  V30 10961 N 1077.53 -1.43282 0.656365 0
M  V30 10962 C 1078.78 -2.02075 0.171293 0
M  V30 10963 C 1079.11 -1.51682 -1.21269 0
M  V30 10964 O 1078.39 -0.711243 -1.81029 0
M  V30 10965 C 1078.67 -3.59621 0.185602 0
M  V30 10966 C 1078.52 -4.20239 1.60373 0
M  V30 10967 C 1079.84 -4.37515 -0.476289 0
M  V30 10968 H 1076.96 -0.73424 0.0637185 0
M  V30 10969 H 1079.6 -1.70539 0.837648 0
M  V30 10970 H 1077.75 -3.86619 -0.381804 0
M  V30 10971 H 1079.43 -4.0426 2.22197 0
M  V30 10972 H 1077.67 -3.76769 2.15006 0
M  V30 10973 H 1078.34 -5.29333 1.56557 0
M  V30 10974 H 1080.82 -4.16099 0.00651073 0
M  V30 10975 H 1079.69 -5.47169 -0.435562 0
M  V30 10976 H 1079.95 -4.14003 -1.55093 0
M  V30 10977 N 1079.01 -0.398486 -1.52479 0
M  V30 10978 C 1080.24 0.180557 -2.06111 0
M  V30 10979 C 1080.66 1.39751 -1.26945 0
M  V30 10980 O 1080.01 1.79699 -0.318497 0
M  V30 10981 C 1080.06 0.541573 -3.5742 0
M  V30 10982 O 1079.79 -0.627043 -4.33589 0
M  V30 10983 C 1081.29 1.17549 -4.27431 0
M  V30 10984 H 1078.51 0.0250754 -0.670531 0
M  V30 10985 H 1081.05 -0.566368 -1.96501 0
M  V30 10986 H 1079.21 1.23839 -3.67073 0
M  V30 10987 H 1079.62 -0.328233 -5.23472 0
M  V30 10988 H 1081.09 1.37839 -5.34513 0
M  V30 10989 H 1081.57 2.14553 -3.83228 0
M  V30 10990 H 1082.18 0.51918 -4.22119 0
M  V30 10991 N 1080.49 1.57075 -0.12858 0
M  V30 10992 C 1081.74 1.9581 0.527868 0
M  V30 10993 C 1082.07 1.01253 1.65715 0
M  V30 10994 O 1081.35 0.0514853 1.94432 0
M  V30 10995 C 1081.63 3.44406 1.05151 0
M  V30 10996 C 1081.48 4.49737 -0.0750113 0
M  V30 10997 C 1082.8 3.95069 1.9393 0
M  V30 10998 H 1079.92 0.711978 0.19041 0
M  V30 10999 H 1082.56 1.88879 -0.206081 0
M  V30 11000 H 1080.71 3.50443 1.67697 0
M  V30 11001 H 1082.38 4.55793 -0.710685 0
M  V30 11002 H 1080.63 4.27497 -0.736809 0
M  V30 11003 H 1081.3 5.50996 0.332779 0
M  V30 11004 H 1083.77 3.91395 1.41241 0
M  V30 11005 H 1082.65 4.99542 2.27484 0
M  V30 11006 H 1082.91 3.36329 2.86941 0
M  V30 11007 N 1081.97 -0.145205 1.5693 0
M  V30 11008 C 1083.22 -0.857516 1.83447 0
M  V30 11009 C 1083.54 -1.81088 0.709739 0
M  V30 11010 O 1082.8 -1.9337 -0.301097 0
M  V30 11011 C 1083.1 -1.66391 3.16305 0
M  V30 11012 C 1082.76 -0.857171 4.42678 0
M  V30 11013 C 1081.43 -0.634611 4.76997 0
M  V30 11014 C 1083.78 -0.293105 5.20375 0
M  V30 11015 C 1081.11 0.162693 5.86474 0
M  V30 11016 C 1083.46 0.491248 6.3069 0
M  V30 11017 C 1082.12 0.724368 6.63558 0
M  V30 11018 H 1081.39 -0.313787 0.671281 0
M  V30 11019 H 1084.04 -0.121074 1.91117 0
M  V30 11020 H 1082.34 -2.47051 3.04094 0
M  V30 11021 H 1084.04 -2.21855 3.34038 0
M  V30 11022 H 1080.63 -1.0407 4.15773 0
M  V30 11023 H 1084.82 -0.452326 4.94234 0
M  V30 11024 H 1080.07 0.352788 6.10381 0
M  V30 11025 H 1084.25 0.935449 6.90089 0
M  V30 11026 H 1081.87 1.34403 7.48224 0
M  V30 11027 N 1083.45 -1.52049 -0.414609 0
M  V30 11028 C 1084.38 -1.77956 -1.51175 0
M  V30 11029 C 1085.36 -0.630282 -1.57992 0
M  V30 11030 O 1086.54 -0.875324 -1.73354 0
M  V30 11031 C 1083.67 -1.92527 -2.89051 0
M  V30 11032 C 1082.63 -3.08096 -2.97087 0
M  V30 11033 C 1081.95 -3.07882 -4.37164 0
M  V30 11034 C 1083.25 -4.47656 -2.69075 0
M  V30 11035 H 1084.95 -2.69827 -1.29746 0
M  V30 11036 H 1082.49 -1.29839 -0.62273 0
M  V30 11037 H 1084.45 -2.09234 -3.65786 0
M  V30 11038 H 1083.17 -0.973235 -3.11762 0
M  V30 11039 H 1081.83 -2.91131 -2.22797 0
M  V30 11040 H 1081.48 -2.10411 -4.56877 0
M  V30 11041 H 1081.18 -3.85501 -4.43467 0
M  V30 11042 H 1082.7 -3.26712 -5.15841 0
M  V30 11043 H 1084.12 -4.64855 -3.35534 0
M  V30 11044 H 1082.51 -5.27151 -2.8676 0
M  V30 11045 H 1083.58 -4.56129 -1.64544 0
M  V30 11046 N 1084.93 0.6715 -1.42579 0
M  V30 11047 C 1086.17 1.43366 -1.43436 0
M  V30 11048 C 1086.5 1.94131 -0.0517339 0
M  V30 11049 O 1085.78 1.71121 0.924548 0
M  V30 11050 C 1086.06 2.62832 -2.46154 0
M  V30 11051 C 1085.92 2.17677 -3.9362 0
M  V30 11052 C 1087.23 3.65049 -2.4582 0
M  V30 11053 H 1084.35 0.519967 -0.522306 0
M  V30 11054 H 1087 0.762849 -1.74013 0
M  V30 11055 H 1085.15 3.20062 -2.2021 0
M  V30 11056 H 1086.82 1.65588 -4.30556 0
M  V30 11057 H 1085.06 1.49219 -4.07328 0
M  V30 11058 H 1085.73 3.03503 -4.61075 0
M  V30 11059 H 1088.21 3.17541 -2.68899 0
M  V30 11060 H 1087.08 4.46213 -3.19664 0
M  V30 11061 H 1087.34 4.16401 -1.48536 0
M  V30 11062 N 1086.4 1.28806 0.908124 0
M  V30 11063 C 1087.33 1.15758 2.02787 0
M  V30 11064 C 1088.31 0.053911 1.70015 0
M  V30 11065 O 1089.5 0.231901 1.9281 0
M  V30 11066 C 1086.63 0.824526 3.37371 0
M  V30 11067 C 1085.58 1.88359 3.84324 0
M  V30 11068 C 1084.91 1.40404 5.15937 0
M  V30 11069 C 1086.21 3.29108 4.05568 0
M  V30 11070 H 1087.9 2.09431 2.13961 0
M  V30 11071 H 1085.45 1.00831 1.02806 0
M  V30 11072 H 1087.4 0.71999 4.15204 0
M  V30 11073 H 1086.13 -0.147902 3.26265 0
M  V30 11074 H 1084.79 1.97736 3.087 0
M  V30 11075 H 1084.43 0.420515 5.01239 0
M  V30 11076 H 1084.13 2.11224 5.48323 0
M  V30 11077 H 1085.66 1.31283 5.9632 0
M  V30 11078 H 1087.07 3.2262 4.73909 0
M  V30 11079 H 1085.47 3.97812 4.49294 0
M  V30 11080 H 1086.54 3.72709 3.10187 0
M  V30 11081 N 1087.88 -1.11734 1.11145 0
M  V30 11082 C 1088.81 -2.17438 0.724804 0
M  V30 11083 C 1089.83 -1.6099 -0.242069 0
M  V30 11084 O 1091.02 -1.78482 -0.0254259 0
M  V30 11085 C 1088.12 -3.38863 0.050004 0
M  V30 11086 C 1087.29 -4.24785 1.04292 0
M  V30 11087 C 1086.35 -5.24691 0.398243 0
M  V30 11088 O 1085.37 -5.59408 1.05125 0
M  V30 11089 N 1086.58 -5.74388 -0.840184 0
M  V30 11090 H 1089.34 -2.51219 1.63429 0
M  V30 11091 H 1086.9 -1.27226 1.00125 0
M  V30 11092 H 1088.89 -4.02788 -0.392929 0
M  V30 11093 H 1087.46 -3.0317 -0.762005 0
M  V30 11094 H 1086.68 -3.57363 1.6639 0
M  V30 11095 H 1087.97 -4.79033 1.71478 0
M  V30 11096 H 1087.37 -5.48359 -1.38994 0
M  V30 11097 H 1085.93 -6.40163 -1.22615 0
M  V30 11098 N 1089.36 -0.901303 -1.29284 0
M  V30 11099 C 1090.29 -0.396909 -2.30102 0
M  V30 11100 C 1091.27 0.528919 -1.61668 0
M  V30 11101 O 1092.46 0.439306 -1.89166 0
M  V30 11102 C 1089.59 0.375006 -3.45269 0
M  V30 11103 C 1088.54 -0.46054 -4.25515 0
M  V30 11104 C 1087.87 0.438967 -5.32895 0
M  V30 11105 C 1089.17 -1.7113 -4.93469 0
M  V30 11106 H 1090.86 -1.23943 -2.72541 0
M  V30 11107 H 1088.41 -0.597428 -1.31022 0
M  V30 11108 H 1090.36 0.738622 -4.14876 0
M  V30 11109 H 1089.08 1.25132 -3.01678 0
M  V30 11110 H 1087.74 -0.80651 -3.57618 0
M  V30 11111 H 1087.39 1.31346 -4.85548 0
M  V30 11112 H 1087.09 -0.116406 -5.87485 0
M  V30 11113 H 1088.61 0.79874 -6.05353 0
M  V30 11114 H 1090.03 -1.41732 -5.55504 0
M  V30 11115 H 1088.42 -2.20811 -5.57999 0
M  V30 11116 H 1089.49 -2.44636 -4.18666 0
M  V30 11117 N 1090.84 1.42931 -0.663954 0
M  V30 11118 C 1092.25 1.56098 -0.332496 0
M  V30 11119 C 1092.45 1.64564 1.16279 0
M  V30 11120 O 1091.51 1.6066 1.94794 0
M  V30 11121 C 1092.82 2.81649 -1.05329 0
M  V30 11122 C 1094.37 2.95408 -1.03457 0
M  V30 11123 C 1094.85 4.23805 -1.73647 0
M  V30 11124 N 1096.34 4.30693 -1.70462 0
M  V30 11125 C 1097.07 5.28833 -2.21637 0
M  V30 11126 N 1096.57 6.33189 -2.81147 0
M  V30 11127 N 1098.36 5.20558 -2.12075 0
M  V30 11128 H 1090.51 1.3568 -1.63416 0
M  V30 11129 H 1092.77 0.652361 -0.687844 0
M  V30 11130 H 1092.48 2.81494 -2.10842 0
M  V30 11131 H 1092.35 3.72208 -0.611626 0
M  V30 11132 H 1094.74 2.95097 0.0121936 0
M  V30 11133 H 1094.82 2.06109 -1.51502 0
M  V30 11134 H 1094.47 4.24876 -2.78285 0
M  V30 11135 H 1094.4 5.12019 -1.2306 0
M  V30 11136 H 1096.89 3.55904 -1.27046 0
M  V30 11137 H 1097.2 7.04411 -3.17844 0
M  V30 11138 H 1095.55 6.33781 -2.85212 0
M  V30 11139 H 1098.74 4.3795 -1.6528 0
M  V30 11140 H 1098.91 5.96881 -2.52264 0
M  V30 11141 N 1092.32 0.406567 1.52266 0
M  V30 11142 C 1093.54 -0.172101 2.06685 0
M  V30 11143 C 1093.97 -1.38306 1.27488 0
M  V30 11144 O 1093.32 -1.78726 0.304441 0
M  V30 11145 C 1093.37 -0.503463 3.57068 0
M  V30 11146 O 1092.48 -1.59485 3.80314 0
M  V30 11147 H 1091.82 -0.0153209 0.663823 0
M  V30 11148 H 1094.35 0.579025 1.96236 0
M  V30 11149 H 1094.36 -0.762833 4.00805 0
M  V30 11150 H 1093.03 0.381775 4.14144 0
M  V30 11151 H 1091.61 -1.32784 3.48458 0
M  V30 11152 N 1093.79 -1.57004 0.136909 0
M  V30 11153 C 1095.04 -1.9541 -0.51569 0
M  V30 11154 C 1095.36 -1.02219 -1.66061 0
M  V30 11155 O 1094.63 -0.0818172 -1.95729 0
M  V30 11156 H 1093.21 -0.721504 -0.193497 0
M  V30 11157 H 1095.88 -1.93765 0.210046 0
M  V30 11158 H 1094.97 -2.98887 -0.898494 0
M  V30 11159 N 1095.27 0.136881 -1.57004 0
M  V30 11160 C 1096.52 0.847775 -1.83899 0
M  V30 11161 C 1096.85 1.80709 -0.719332 0
M  V30 11162 O 1096.1 1.93527 0.290838 0
M  V30 11163 C 1096.4 1.64711 -3.17183 0
M  V30 11164 C 1096.07 0.833683 -4.43126 0
M  V30 11165 C 1094.73 0.609306 -4.77327 0
M  V30 11166 C 1097.08 0.265504 -5.20523 0
M  V30 11167 C 1094.41 -0.193793 -5.8638 0
M  V30 11168 C 1096.76 -0.524688 -6.3042 0
M  V30 11169 C 1095.43 -0.759548 -6.63164 0
M  V30 11170 H 1094.7 0.310223 -0.672936 0
M  V30 11171 H 1097.34 0.110937 -1.91178 0
M  V30 11172 H 1095.65 2.45435 -3.054 0
M  V30 11173 H 1097.34 2.20081 -3.3521 0
M  V30 11174 H 1093.93 1.01864 -4.16319 0
M  V30 11175 H 1098.12 0.426109 -4.94467 0
M  V30 11176 H 1093.37 -0.385153 -6.10186 0
M  V30 11177 H 1097.55 -0.972033 -6.89583 0
M  V30 11178 H 1095.18 -1.38369 -7.47501 0
M  V30 11179 N 1096.75 1.52266 0.40654 0
M  V30 11180 C 1097.98 1.70598 1.17945 0
M  V30 11181 C 1098.4 0.415793 1.83447 0
M  V30 11182 O 1097.76 -0.626968 1.70114 0
M  V30 11183 C 1097.81 2.84449 2.21633 0
M  V30 11184 O 1096.91 2.50199 3.27833 0
M  V30 11185 H 1096.25 0.567837 0.344177 0
M  V30 11186 H 1098.78 1.98981 0.476211 0
M  V30 11187 H 1098.79 3.09436 2.65919 0
M  V30 11188 H 1097.47 3.78055 1.73341 0
M  V30 11189 H 1096.04 2.35892 2.88807 0
M  V30 11190 N 1098.23 -0.663929 1.42933 0
M  V30 11191 C 1099.48 -1.42393 1.43981 0
M  V30 11192 C 1099.8 -1.94407 0.0601802 0
M  V30 11193 O 1099.06 -1.72019 -0.933172 0
M  V30 11194 C 1099.36 -2.62976 2.4203 0
M  V30 11195 C 1099.02 -2.29441 3.88159 0
M  V30 11196 C 1097.69 -2.20007 4.27961 0
M  V30 11197 C 1100.04 -2.02413 4.8029 0
M  V30 11198 C 1097.37 -1.81686 5.57859 0
M  V30 11199 C 1099.72 -1.65592 6.10542 0
M  V30 11200 C 1098.38 -1.54676 6.49332 0
M  V30 11201 H 1097.65 -0.521051 0.526865 0
M  V30 11202 H 1100.3 -0.756042 1.75944 0
M  V30 11203 H 1098.6 -3.34847 2.03433 0
M  V30 11204 H 1100.3 -3.21174 2.40101 0
M  V30 11205 H 1096.89 -2.3769 3.56653 0
M  V30 11206 H 1101.07 -2.08628 4.5032 0
M  V30 11207 H 1096.33 -1.71812 5.86763 0
M  V30 11208 H 1100.5 -1.43707 6.81411 0
M  V30 11209 H 1098.13 -1.24752 7.49894 0
M  V30 11210 N 1099.71 -1.29285 -0.901281 0
M  V30 11211 C 1101.12 -1.07263 -1.18182 0
M  V30 11212 C 1101.32 0.177087 -2.0072 0
M  V30 11213 O 1100.38 0.875292 -2.36844 0
M  V30 11214 C 1101.69 -2.32717 -1.9043 0
M  V30 11215 C 1103.24 -2.3802 -2.03262 0
M  V30 11216 C 1103.71 -3.63273 -2.7892 0
M  V30 11217 N 1105.21 -3.63986 -2.86475 0
M  V30 11218 C 1105.94 -4.57585 -3.45549 0
M  V30 11219 N 1105.44 -5.61513 -4.05801 0
M  V30 11220 N 1107.23 -4.45157 -3.43208 0
M  V30 11221 H 1099.38 -2.09487 -0.350536 0
M  V30 11222 H 1101.64 -0.922647 -0.217778 0
M  V30 11223 H 1101.35 -3.23828 -1.37216 0
M  V30 11224 H 1101.22 -2.40102 -2.90913 0
M  V30 11225 H 1103.61 -1.47398 -2.55652 0
M  V30 11226 H 1103.69 -2.3462 -1.01916 0
M  V30 11227 H 1103.34 -4.54246 -2.27206 0
M  V30 11228 H 1103.27 -3.6393 -3.80608 0
M  V30 11229 H 1105.76 -2.8884 -2.43679 0
M  V30 11230 H 1106.07 -6.29058 -4.48894 0
M  V30 11231 H 1104.41 -5.65325 -4.04268 0
M  V30 11232 H 1107.61 -3.63158 -2.95354 0
M  V30 11233 H 1107.78 -5.18286 -3.88952 0
M  V30 11234 N 1101.18 1.11143 -1.11736 0
M  V30 11235 C 1102.43 1.82586 -0.866412 0
M  V30 11236 C 1102.75 1.85227 0.609593 0
M  V30 11237 O 1102.02 1.32505 1.44288 0
M  V30 11238 H 1100.6 0.676149 -0.31754 0
M  V30 11239 H 1103.27 1.34516 -1.41037 0
M  V30 11240 H 1102.36 2.8635 -1.24136 0
M  V30 11241 N 1102.66 0.908147 1.28804 0
M  V30 11242 C 1103.91 0.539201 1.95501 0
M  V30 11243 C 1104.24 -0.913759 1.7136 0
M  V30 11244 O 1103.52 -1.64904 1.03136 0
M  V30 11245 C 1103.8 0.842372 3.50109 0
M  V30 11246 C 1103.65 2.34765 3.83673 0
M  V30 11247 C 1104.97 0.334658 4.38826 0
M  V30 11248 H 1102.09 0.197373 0.71008 0
M  V30 11249 H 1104.73 1.13637 1.52272 0
M  V30 11250 H 1102.88 0.334143 3.8706 0
M  V30 11251 H 1104.55 2.92607 3.56621 0
M  V30 11252 H 1102.8 2.80494 3.30916 0
M  V30 11253 H 1103.47 2.51034 4.91616 0
M  V30 11254 H 1105.94 0.769961 4.08914 0
M  V30 11255 H 1104.82 0.575914 5.4587 0
M  V30 11256 H 1105.08 -0.764878 4.35433 0
M  V30 11257 N 1104.14 -1.42577 0.671525 0
M  V30 11258 C 1105.09 -2.30798 -0.00883676 0
M  V30 11259 C 1106.06 -1.4578 -0.796076 0
M  V30 11260 O 1107.24 -1.74617 -0.768987 0
M  V30 11261 C 1104.38 -3.31581 -0.956452 0
M  V30 11262 C 1103.5 -4.31691 -0.163381 0
M  V30 11263 C 1102.63 -5.19549 -1.10645 0
M  V30 11264 C 1101.67 -6.1134 -0.304876 0
M  V30 11265 N 1100.81 -6.91761 -1.20048 0
M  V30 11266 H 1105.65 -2.88426 0.749301 0
M  V30 11267 H 1103.18 -1.42074 0.381251 0
M  V30 11268 H 1105.14 -3.88539 -1.51966 0
M  V30 11269 H 1103.77 -2.75561 -1.68126 0
M  V30 11270 H 1102.82 -3.76879 0.516396 0
M  V30 11271 H 1104.14 -4.96683 0.459099 0
M  V30 11272 H 1103.29 -5.81223 -1.73969 0
M  V30 11273 H 1102.03 -4.54726 -1.76282 0
M  V30 11274 H 1101.03 -5.48738 0.341597 0
M  V30 11275 H 1102.26 -6.78211 0.347352 0
M  V30 11276 H 1100.2 -6.2957 -1.84331 0
M  V30 11277 H 1100.12 -7.53345 -0.633003 0
M  V30 11278 H 1101.39 -7.57924 -1.82129 0
M  V30 11279 N 1105.62 -0.414636 -1.52048 0
M  V30 11280 C 1106.86 0.159585 -2.02171 0
M  V30 11281 C 1107.2 1.44321 -1.29943 0
M  V30 11282 O 1106.47 1.90185 -0.407402 0
M  V30 11283 C 1106.76 0.401655 -3.57853 0
M  V30 11284 C 1106.61 -0.899026 -4.40724 0
M  V30 11285 C 1107.93 1.1814 -4.23947 0
M  V30 11286 H 1105.05 0.0565257 -0.734829 0
M  V30 11287 H 1107.69 -0.549183 -1.8189 0
M  V30 11288 H 1105.84 1.00541 -3.75265 0
M  V30 11289 H 1107.51 -1.53502 -4.35011 0
M  V30 11290 H 1105.75 -1.50877 -4.06717 0
M  V30 11291 H 1106.42 -0.683974 -5.47746 0
M  V30 11292 H 1108.9 0.670203 -4.10667 0
M  V30 11293 H 1107.78 1.31953 -5.32804 0
M  V30 11294 H 1108.04 2.2035 -3.83273 0
M  V30 11295 N 1107.1 1.56929 -0.145233 0
M  V30 11296 C 1108.33 2.00141 0.51257 0
M  V30 11297 C 1108.73 1.0243 1.59075 0
M  V30 11298 O 1108.08 0.0130063 1.83695 0
M  V30 11299 C 1108.14 3.39785 1.17417 0
M  V30 11300 C 1107.8 4.56365 0.240801 0
M  V30 11301 C 1108.8 5.17183 -0.530847 0
M  V30 11302 C 1106.49 5.02093 0.144221 0
M  V30 11303 C 1108.48 6.22136 -1.38654 0
M  V30 11304 C 1106.17 6.06902 -0.71508 0
M  V30 11305 C 1107.16 6.66793 -1.47907 0
M  V30 11306 O 1106.85 7.69573 -2.32405 0
M  V30 11307 H 1106.58 0.661747 0.138085 0
M  V30 11308 H 1109.14 2.04037 -0.236269 0
M  V30 11309 H 1107.37 3.32722 1.97061 0
M  V30 11310 H 1109.06 3.67115 1.73152 0
M  V30 11311 H 1109.82 4.82754 -0.466256 0
M  V30 11312 H 1105.7 4.55206 0.728613 0
M  V30 11313 H 1109.25 6.68812 -1.98333 0
M  V30 11314 H 1105.14 6.40758 -0.78097 0
M  V30 11315 H 1105.91 7.86786 -2.25634 0
M  V30 11316 N 1108.58 -0.128553 1.57075 0
M  V30 11317 C 1109.8 -0.85245 1.88523 0
M  V30 11318 C 1110.22 -1.73886 0.735459 0
M  V30 11319 O 1109.58 -1.80114 -0.294113 0
M  V30 11320 C 1109.63 -1.69384 3.19361 0
M  V30 11321 O 1109.35 -0.84313 4.2991 0
M  V30 11322 C 1110.85 -2.52373 3.64449 0
M  V30 11323 H 1108.07 -0.245556 0.624454 0
M  V30 11324 H 1110.61 -0.115807 2.04172 0
M  V30 11325 H 1108.77 -2.38335 3.0541 0
M  V30 11326 H 1109.18 -1.42255 5.0484 0
M  V30 11327 H 1110.66 -3.06955 4.58784 0
M  V30 11328 H 1111.13 -3.29283 2.90636 0
M  V30 11329 H 1111.74 -1.88681 3.81155 0
M  V30 11330 N 1110.05 -1.5248 -0.398459 0
M  V30 11331 C 1110.99 -1.71321 -1.50746 0
M  V30 11332 C 1111.96 -0.5609 -1.52619 0
M  V30 11333 O 1113.15 -0.789557 -1.71167 0
M  V30 11334 C 1110.28 -1.76223 -2.89246 0
M  V30 11335 C 1109.32 -2.97878 -3.05239 0
M  V30 11336 S 1110.15 -4.58031 -2.77431 0
M  V30 11337 C 1111.31 -4.65735 -4.18141 0
M  V30 11338 H 1111.54 -2.65117 -1.34538 0
M  V30 11339 H 1109.08 -1.42653 -0.590727 0
M  V30 11340 H 1111.03 -1.79733 -3.69062 0
M  V30 11341 H 1109.7 -0.83536 -3.02788 0
M  V30 11342 H 1108.89 -2.97821 -4.06594 0
M  V30 11343 H 1108.49 -2.92311 -2.33304 0
M  V30 11344 H 1110.78 -4.43768 -5.11934 0
M  V30 11345 H 1111.73 -5.67709 -4.23217 0
M  V30 11346 H 1112.13 -3.94664 -4.03609 0
M  V30 11347 N 1111.53 0.65634 -1.43283 0
M  V30 11348 C 1112.81 1.41339 -1.35213 0
M  V30 11349 C 1113.19 2.111 0.00158494 0
M  V30 11350 O 1112.54 2.0457 1.018 0
M  V30 11351 C 1112.75 2.40066 -2.53317 0
M  V30 11352 C 1114.09 3.04159 -2.96264 0
M  V30 11353 O 1115.12 2.50393 -2.53341 0
M  V30 11354 O 1113.98 4.01633 -3.70612 0
M  V30 11355 H 1111.07 0.631325 -0.534189 0
M  V30 11356 H 1113.62 0.68351 -1.55326 0
M  V30 11357 H 1112.39 1.87444 -3.43483 0
M  V30 11358 H 1112.01 3.20509 -2.35287 0
M  V30 11359 N 1113.01 1.29761 0.894412 0
M  V30 11360 C 1114.43 1.07888 1.17611 0
M  V30 11361 C 1114.63 -0.16644 2.00811 0
M  V30 11362 O 1113.68 -0.86272 2.37304 0
M  V30 11363 C 1114.99 2.33723 1.89193 0
M  V30 11364 C 1116.54 2.39095 2.01997 0
M  V30 11365 C 1117.02 3.64747 2.7699 0
M  V30 11366 N 1118.51 3.65501 2.84541 0
M  V30 11367 C 1119.24 4.59411 3.43117 0
M  V30 11368 N 1118.74 5.63657 4.02818 0
M  V30 11369 N 1120.53 4.46971 3.40842 0
M  V30 11370 H 1112.68 2.0967 0.339421 0
M  V30 11371 H 1114.95 0.923788 0.212882 0
M  V30 11372 H 1114.65 3.24551 1.35496 0
M  V30 11373 H 1114.53 2.41642 2.89636 0
M  V30 11374 H 1116.91 1.48751 2.54867 0
M  V30 11375 H 1116.99 2.35158 1.0067 0
M  V30 11376 H 1116.64 4.55445 2.24794 0
M  V30 11377 H 1116.57 3.65944 3.78672 0
M  V30 11378 H 1119.06 2.90129 2.42144 0
M  V30 11379 H 1119.37 6.31429 4.45552 0
M  V30 11380 H 1117.72 5.67461 4.01265 0
M  V30 11381 H 1120.91 3.64719 2.93424 0
M  V30 11382 H 1121.08 5.20341 3.86198 0
M  V30 11383 N 1114.49 -1.10549 1.12324 0
M  V30 11384 C 1115.74 -1.82124 0.876083 0
M  V30 11385 C 1116.06 -1.85547 -0.599761 0
M  V30 11386 O 1115.33 -1.33269 -1.43584 0
M  V30 11387 H 1113.91 -0.674455 0.321122 0
M  V30 11388 H 1116.57 -1.33766 1.41748 0
M  V30 11389 H 1115.66 -2.85688 1.25653 0
M  V30 11390 N 1115.97 -0.914965 -1.28321 0
M  V30 11391 C 1116.9 -0.421292 -2.29668 0
M  V30 11392 C 1117.88 0.511743 -1.6222 0
M  V30 11393 O 1119.06 0.419218 -1.89621 0
M  V30 11394 C 1116.19 0.338364 -3.45648 0
M  V30 11395 C 1115.15 -0.505646 -4.25003 0
M  V30 11396 C 1114.47 0.382421 -5.33331 0
M  V30 11397 C 1115.77 -1.76354 -4.91626 0
M  V30 11398 H 1117.47 -1.26826 -2.71211 0
M  V30 11399 H 1115.01 -0.611291 -1.30381 0
M  V30 11400 H 1116.96 0.694578 -4.15636 0
M  V30 11401 H 1115.69 1.21925 -3.02988 0
M  V30 11402 H 1114.35 -0.844395 -3.56743 0
M  V30 11403 H 1114 1.26189 -4.86914 0
M  V30 11404 H 1113.7 -0.17871 -5.87328 0
M  V30 11405 H 1115.22 0.73449 -6.06166 0
M  V30 11406 H 1116.63 -1.47616 -5.5397 0
M  V30 11407 H 1115.03 -2.26717 -5.55625 0
M  V30 11408 H 1116.1 -2.49063 -4.16048 0
M  V30 11409 N 1117.44 1.42219 -0.679077 0
M  V30 11410 C 1118.69 2.00703 -0.200309 0
M  V30 11411 C 1119.01 1.54339 1.20161 0
M  V30 11412 O 1120.21 2.0527 1.77698 0
M  V30 11413 C 1118.67 3.58586 -0.307248 0
M  V30 11414 C 1118.28 4.13937 -1.71349 0
M  V30 11415 C 1120.02 4.24351 0.112588 0
M  V30 11416 C 1117.93 5.64198 -1.77297 0
M  V30 11417 H 1116.86 0.750638 -0.0711279 0
M  V30 11418 H 1119.51 1.62893 -0.844881 0
M  V30 11419 H 1117.89 3.93921 0.40529 0
M  V30 11420 H 1119.06 3.90054 -2.45346 0
M  V30 11421 H 1117.38 3.60639 -2.08155 0
M  V30 11422 H 1119.98 5.34627 0.0883578 0
M  V30 11423 H 1120.32 4.00142 1.14857 0
M  V30 11424 H 1120.85 3.93992 -0.549093 0
M  V30 11425 H 1117.59 5.93211 -2.78892 0
M  V30 11426 H 1117.11 5.90058 -1.07662 0
M  V30 11427 H 1118.79 6.2869 -1.52835 0
M  V30 11428 N 1118.92 0.422693 1.51826 0
M  V30 11429 C 1120.15 -0.15017 2.06856 0
M  V30 11430 C 1120.57 -1.36946 1.28948 0
M  V30 11431 O 1119.93 -1.78393 0.32338 0
M  V30 11432 C 1119.98 -0.465563 3.57582 0
M  V30 11433 O 1119.08 -1.55442 3.81984 0
M  V30 11434 H 1118.42 -0.00827931 0.663948 0
M  V30 11435 H 1120.95 0.599806 1.95611 0
M  V30 11436 H 1120.96 -0.720279 4.01592 0
M  V30 11437 H 1119.64 0.425679 4.13716 0
M  V30 11438 H 1118.21 -1.29081 3.49846 0
M  V30 11439 N 1120.4 -1.5685 0.153553 0
M  V30 11440 C 1121.63 -2.0041 -0.501949 0
M  V30 11441 C 1122.04 -1.03272 -1.58529 0
M  V30 11442 O 1121.38 -0.0227479 -1.83686 0
M  V30 11443 C 1121.44 -3.40402 -1.15613 0
M  V30 11444 C 1121.11 -4.56486 -0.216596 0
M  V30 11445 C 1122.1 -5.16894 0.558267 0
M  V30 11446 C 1119.79 -5.02162 -0.117592 0
M  V30 11447 C 1121.78 -6.21392 1.41951 0
M  V30 11448 C 1119.47 -6.06514 0.747255 0
M  V30 11449 C 1120.47 -6.65999 1.51441 0
M  V30 11450 O 1120.16 -7.6833 2.36483 0
M  V30 11451 H 1119.89 -0.66247 -0.134574 0
M  V30 11452 H 1122.44 -2.03908 0.247086 0
M  V30 11453 H 1120.67 -3.33762 -1.95294 0
M  V30 11454 H 1122.36 -3.68028 -1.71202 0
M  V30 11455 H 1123.13 -4.825 0.491851 0
M  V30 11456 H 1119.01 -4.55586 -0.704462 0
M  V30 11457 H 1122.55 -6.67751 2.01877 0
M  V30 11458 H 1118.45 -6.40335 0.81494 0
M  V30 11459 H 1119.21 -7.85578 2.29803 0
M  V30 11460 N 1121.88 0.120221 -1.57141 0
M  V30 11461 C 1122.82 1.14751 -2.00252 0
M  V30 11462 C 1123.79 1.41217 -0.874462 0
M  V30 11463 O 1124.98 1.53104 -1.13859 0
M  V30 11464 C 1122.12 2.46923 -2.41087 0
M  V30 11465 C 1121.23 2.27403 -3.67303 0
M  V30 11466 C 1120.37 3.52797 -3.97125 0
M  V30 11467 C 1119.41 3.28429 -5.16528 0
M  V30 11468 N 1118.54 4.46022 -5.42226 0
M  V30 11469 H 1123.38 0.772884 -2.87803 0
M  V30 11470 H 1120.92 0.370137 -1.42367 0
M  V30 11471 H 1122.88 3.24025 -2.62799 0
M  V30 11472 H 1121.51 2.82281 -1.5658 0
M  V30 11473 H 1120.56 1.41224 -3.53214 0
M  V30 11474 H 1121.87 2.05373 -4.54558 0
M  V30 11475 H 1121.03 4.38318 -4.19479 0
M  V30 11476 H 1119.77 3.77857 -3.08343 0
M  V30 11477 H 1118.77 2.41299 -4.94019 0
M  V30 11478 H 1120 3.0474 -6.06886 0
M  V30 11479 H 1117.94 4.71205 -4.56401 0
M  V30 11480 H 1117.86 4.27092 -6.23802 0
M  V30 11481 H 1119.13 5.3268 -5.69098 0
M  V30 11482 N 1123.36 1.52689 0.390367 0
M  V30 11483 C 1124.6 1.67335 1.13329 0
M  V30 11484 C 1124.93 0.415068 1.90531 0
M  V30 11485 O 1124.2 -0.570504 1.87409 0
M  V30 11486 H 1122.78 0.616821 0.421356 0
M  V30 11487 H 1125.44 1.89799 0.443 0
M  V30 11488 H 1124.53 2.52314 1.83696 0
M  V30 11489 N 1124.83 -0.648732 1.43629 0
M  V30 11490 C 1125.76 -1.77298 1.51947 0
M  V30 11491 C 1126.75 -1.65942 0.373785 0
M  V30 11492 O 1127.93 -1.8497 0.591596 0
M  V30 11493 C 1125.06 -3.15749 1.44638 0
M  V30 11494 C 1124.01 -3.41872 2.57502 0
M  V30 11495 C 1123.34 -4.8017 2.35246 0
M  V30 11496 C 1124.64 -3.36173 3.99731 0
M  V30 11497 H 1126.33 -1.70594 2.46045 0
M  V30 11498 H 1123.88 -0.819306 1.1842 0
M  V30 11499 H 1125.83 -3.94156 1.4906 0
M  V30 11500 H 1124.56 -3.23194 0.470466 0
M  V30 11501 H 1123.22 -2.65838 2.5244 0
M  V30 11502 H 1122.86 -4.84297 1.35887 0
M  V30 11503 H 1122.56 -4.9861 3.10906 0
M  V30 11504 H 1124.09 -5.6083 2.41459 0
M  V30 11505 H 1125.5 -4.0451 4.06257 0
M  V30 11506 H 1123.9 -3.66148 4.75453 0
M  V30 11507 H 1124.97 -2.34277 4.24549 0
M  V30 11508 N 1126.31 -1.30234 -0.887518 0
M  V30 11509 C 1127.72 -1.17048 -1.45453 0
M  V30 11510 C 1128.07 0.229793 -1.9485 0
M  V30 11511 O 1127.2 1.12628 -1.84781 0
M  V30 11512 C 1127.79 -2.11876 -2.64375 0
M  V30 11513 C 1126.35 -2.02676 -3.17174 0
M  V30 11514 C 1125.5 -2.02104 -1.89866 0
M  V30 11515 H 1128.45 -1.42541 -0.697694 0
M  V30 11516 H 1128.47 -1.69811 -3.40506 0
M  V30 11517 H 1127.98 -3.13781 -2.28392 0
M  V30 11518 H 1126.09 -1.03904 -3.57819 0
M  V30 11519 H 1126.2 -2.90939 -3.80646 0
M  V30 11520 H 1124.56 -1.4687 -2.0809 0
M  V30 11521 H 1125.35 -3.05735 -1.56145 0
M  V30 11522 N 1127.79 1.09952 -1.12909 0
M  V30 11523 C 1129.2 1.63516 -0.901087 0
M  V30 11524 C 1129.55 1.87932 0.563547 0
M  V30 11525 O 1128.68 1.625 1.42908 0
M  V30 11526 C 1129.27 2.97054 -1.62924 0
M  V30 11527 C 1127.83 3.47464 -1.44725 0
M  V30 11528 C 1126.98 2.21979 -1.66194 0
M  V30 11529 H 1129.93 0.933858 -1.28315 0
M  V30 11530 H 1129.95 3.64757 -1.08318 0
M  V30 11531 H 1129.46 2.79251 -2.69519 0
M  V30 11532 H 1127.56 3.70402 -0.40409 0
M  V30 11533 H 1127.68 4.25254 -2.20671 0
M  V30 11534 H 1126.04 2.30368 -1.0864 0
M  V30 11535 H 1126.82 2.06702 -2.74097 0
M  V30 11536 N 1129.27 0.921757 1.27833 0
M  V30 11537 C 1130.18 0.421668 2.30779 0
M  V30 11538 C 1131.19 -0.494686 1.6682 0
M  V30 11539 O 1132.37 -0.378935 1.97803 0
M  V30 11540 C 1129.44 -0.322928 3.45193 0
M  V30 11541 C 1128.5 0.627618 4.24687 0
M  V30 11542 C 1127.73 -0.0815385 5.33638 0
M  V30 11543 O 1127.95 -1.30193 5.55343 0
M  V30 11544 O 1126.89 0.58725 5.99028 0
M  V30 11545 H 1130.71 1.2763 2.7558 0
M  V30 11546 H 1128.3 0.686877 1.32674 0
M  V30 11547 H 1130.18 -0.743145 4.14796 0
M  V30 11548 H 1128.85 -1.15326 3.02459 0
M  V30 11549 H 1127.76 1.09739 3.57642 0
M  V30 11550 H 1129.09 1.425 4.71121 0
M  V30 11551 N 1130.75 -1.41857 0.686609 0
M  V30 11552 C 1131.71 -2.29187 0.0247022 0
M  V30 11553 C 1132.71 -1.43926 -0.717069 0
M  V30 11554 O 1133.9 -1.65179 -0.5533 0
M  V30 11555 C 1131.03 -3.26644 -0.975537 0
M  V30 11556 H 1132.22 -2.89212 0.793503 0
M  V30 11557 H 1129.78 -1.49694 0.449605 0
M  V30 11558 H 1130.51 -2.7158 -1.77242 0
M  V30 11559 H 1130.3 -3.89545 -0.446892 0
M  V30 11560 H 1131.79 -3.92107 -1.43673 0
M  V30 11561 N 1132.22 -0.430739 -1.51599 0
M  V30 11562 C 1133.47 0.130424 -2.02981 0
M  V30 11563 C 1133.83 1.40956 -1.30954 0
M  V30 11564 O 1133.12 1.87081 -0.413696 0
M  V30 11565 C 1133.31 0.410694 -3.55032 0
M  V30 11566 C 1133.14 -0.839732 -4.4179 0
M  V30 11567 C 1131.91 -1.37132 -4.86336 0
M  V30 11568 C 1134.11 -1.72401 -4.84543 0
M  V30 11569 N 1132.09 -2.57497 -5.57287 0
M  V30 11570 C 1133.46 -2.77376 -5.54493 0
M  V30 11571 C 1135.52 -1.73921 -4.66536 0
M  V30 11572 C 1134.22 -3.83808 -6.08345 0
M  V30 11573 C 1136.25 -2.79285 -5.213 0
M  V30 11574 C 1135.61 -3.82979 -5.91191 0
M  V30 11575 H 1131.71 0.00873155 -0.781951 0
M  V30 11576 H 1134.29 -0.589932 -1.85548 0
M  V30 11577 H 1132.46 1.10009 -3.72495 0
M  V30 11578 H 1134.19 0.962635 -3.93085 0
M  V30 11579 H 1130.95 -0.926198 -4.64455 0
M  V30 11580 H 1131.37 -3.18515 -5.97392 0
M  V30 11581 H 1136.02 -0.950851 -4.11969 0
M  V30 11582 H 1133.73 -4.63487 -6.61971 0
M  V30 11583 H 1137.32 -2.81395 -5.09223 0
M  V30 11584 H 1136.2 -4.63169 -6.32807 0
M  V30 11585 N 1133.7 1.56767 -0.161869 0
M  V30 11586 C 1134.63 2.1466 0.803356 0
M  V30 11587 C 1135.65 1.09977 1.20037 0
M  V30 11588 O 1136.84 1.37199 1.14187 0
M  V30 11589 C 1133.94 2.66663 2.09151 0
M  V30 11590 C 1133.11 3.95904 1.85953 0
M  V30 11591 C 1132.17 4.33067 2.98897 0
M  V30 11592 O 1131.19 5.01119 2.69942 0
M  V30 11593 N 1132.4 3.93856 4.26448 0
M  V30 11594 H 1135.16 2.98108 0.308472 0
M  V30 11595 H 1132.72 1.61886 0.0212238 0
M  V30 11596 H 1134.71 2.88528 2.83784 0
M  V30 11597 H 1133.28 1.87856 2.49857 0
M  V30 11598 H 1132.5 3.82513 0.952751 0
M  V30 11599 H 1133.79 4.8033 1.67811 0
M  V30 11600 H 1133.19 3.39051 4.52836 0
M  V30 11601 H 1131.75 4.20741 4.97815 0
M  V30 11602 N 1135.18 -0.111886 1.57202 0
M  V30 11603 C 1136.09 -1.1556 2.04165 0
M  V30 11604 C 1137.11 -1.44898 0.963354 0
M  V30 11605 O 1138.28 -1.55873 1.27536 0
M  V30 11606 C 1135.35 -2.46048 2.44256 0
M  V30 11607 C 1134.41 -2.24043 3.66201 0
M  V30 11608 C 1133.64 -3.4831 4.04371 0
M  V30 11609 O 1133.86 -4.55895 3.42806 0
M  V30 11610 O 1132.8 -3.38891 4.9743 0
M  V30 11611 H 1136.62 -0.786778 2.93332 0
M  V30 11612 H 1134.21 -0.323196 1.45862 0
M  V30 11613 H 1136.09 -3.22916 2.70745 0
M  V30 11614 H 1134.77 -2.8239 1.58233 0
M  V30 11615 H 1133.67 -1.4501 3.44852 0
M  V30 11616 H 1135.01 -1.92602 4.52952 0
M  V30 11617 N 1136.66 -1.52894 -0.382264 0
M  V30 11618 C 1137.57 -1.81084 -1.4915 0
M  V30 11619 C 1138.58 -0.698045 -1.59384 0
M  V30 11620 O 1139.76 -0.98635 -1.75594 0
M  V30 11621 C 1136.83 -1.97987 -2.84608 0
M  V30 11622 C 1135.89 -3.219 -2.8404 0
M  V30 11623 C 1135.12 -3.37988 -4.13037 0
M  V30 11624 O 1135.34 -2.58733 -5.08344 0
M  V30 11625 O 1134.28 -4.31273 -4.19866 0
M  V30 11626 H 1138.1 -2.75289 -1.28257 0
M  V30 11627 H 1135.69 -1.38068 -0.57076 0
M  V30 11628 H 1137.57 -2.10773 -3.64901 0
M  V30 11629 H 1136.24 -1.06972 -3.05514 0
M  V30 11630 H 1135.15 -3.14551 -2.02505 0
M  V30 11631 H 1136.48 -4.12783 -2.68087 0
M  V30 11632 N 1138.14 0.641106 -1.43971 0
M  V30 11633 C 1139.38 1.41251 -1.47742 0
M  V30 11634 C 1139.74 1.91722 -0.103353 0
M  V30 11635 O 1140.94 2.68795 -0.0157401 0
M  V30 11636 C 1139.21 2.5537 -2.50042 0
M  V30 11637 S 1140.77 3.43708 -2.72783 0
M  V30 11638 H 1137.59 0.482007 -0.522676 0
M  V30 11639 H 1140.19 0.743161 -1.80824 0
M  V30 11640 H 1138.9 2.16586 -3.48596 0
M  V30 11641 H 1138.43 3.27142 -2.18498 0
M  V30 11642 H 1140.44 4.52495 -2.03624 0
M  V30 11643 N 1139.62 1.30703 0.880598 0
M  V30 11644 C 1141.03 1.17818 1.4483 0
M  V30 11645 C 1141.38 -0.219456 1.94969 0
M  V30 11646 O 1140.5 -1.11646 1.85375 0
M  V30 11647 C 1141.1 2.13275 2.63247 0
M  V30 11648 C 1139.66 2.04356 3.16094 0
M  V30 11649 C 1138.8 2.03108 1.88792 0
M  V30 11650 H 1141.75 1.42909 0.690125 0
M  V30 11651 H 1141.78 1.71615 3.39601 0
M  V30 11652 H 1141.29 3.14988 2.26725 0
M  V30 11653 H 1139.39 1.058 3.57263 0
M  V30 11654 H 1139.5 2.92953 3.79098 0
M  V30 11655 H 1137.87 1.47971 2.07308 0
M  V30 11656 H 1138.65 3.06558 1.54521 0
M  V30 11657 N 1141.09 -1.09351 1.1349 0
M  V30 11658 C 1142.32 -1.85844 0.92069 0
M  V30 11659 C 1142.74 -1.80616 -0.525303 0
M  V30 11660 O 1142.1 -1.1842 -1.37282 0
M  V30 11661 C 1142.15 -3.31716 1.4141 0
M  V30 11662 O 1141.25 -4.08014 0.599838 0
M  V30 11663 H 1140.59 -0.576242 0.32991 0
M  V30 11664 H 1143.12 -1.38084 1.50976 0
M  V30 11665 H 1143.13 -3.82564 1.41805 0
M  V30 11666 H 1141.81 -3.34837 2.46692 0
M  V30 11667 H 1140.39 -3.66944 0.663816 0
M  V30 11668 N 1142.57 -0.928524 -1.27343 0
M  V30 11669 C 1143.85 -0.487758 -1.89421 0
M  V30 11670 C 1144.23 1.03418 -1.84032 0
M  V30 11671 O 1143.58 1.8887 -1.2861 0
M  V30 11672 C 1143.79 -1.03478 -3.33307 0
M  V30 11673 C 1145.13 -1.09577 -4.10217 0
M  V30 11674 O 1146.16 -0.984463 -3.42326 0
M  V30 11675 O 1145.02 -1.2673 -5.31603 0
M  V30 11676 H 1142.11 -0.157018 -0.811957 0
M  V30 11677 H 1144.66 -1.02027 -1.35605 0
M  V30 11678 H 1143.43 -2.07861 -3.31526 0
M  V30 11679 H 1143.05 -0.483967 -3.94644 0
M  V30 11680 N 1144.05 1.41491 -0.694123 0
M  V30 11681 C 1145.27 2.06099 -0.23197 0
M  V30 11682 C 1145.7 1.51888 1.10958 0
M  V30 11683 O 1145.06 0.645247 1.69429 0
M  V30 11684 C 1145.11 3.60053 -0.198522 0
M  V30 11685 O 1144.21 4.04021 0.827067 0
M  V30 11686 H 1143.55 0.654193 -0.113699 0
M  V30 11687 H 1146.08 1.81282 -0.948575 0
M  V30 11688 H 1146.09 4.0799 -0.0288904 0
M  V30 11689 H 1144.77 3.98879 -1.17764 0
M  V30 11690 H 1143.34 3.67593 0.626908 0
M  V30 11691 N 1145.53 0.438773 1.51369 0
M  V30 11692 C 1146.44 -0.378074 2.31534 0
M  V30 11693 C 1147.45 -1.02632 1.40508 0
M  V30 11694 O 1148.63 -1.02138 1.73579 0
M  V30 11695 C 1145.69 -1.46374 3.14286 0
M  V30 11696 C 1144.76 -0.835473 4.21092 0
M  V30 11697 C 1143.99 -1.86941 4.99889 0
M  V30 11698 O 1144.21 -3.0918 4.79337 0
M  V30 11699 O 1143.15 -1.45914 5.83946 0
M  V30 11700 H 1146.97 0.276401 3.0244 0
M  V30 11701 H 1144.56 0.201281 1.48038 0
M  V30 11702 H 1146.44 -2.09335 3.65728 0
M  V30 11703 H 1145.11 -2.10227 2.46143 0
M  V30 11704 H 1144.02 -0.167775 3.73724 0
M  V30 11705 H 1145.35 -0.240406 4.91613 0
M  V30 11706 N 1147.01 -1.56678 0.170181 0
M  V30 11707 C 1147.92 -2.21496 -0.773079 0
M  V30 11708 C 1148.93 -1.20626 -1.25401 0
M  V30 11709 O 1150.11 -1.53283 -1.30638 0
M  V30 11710 C 1147.17 -2.8421 -1.98558 0
M  V30 11711 C 1146.23 -4.00278 -1.55164 0
M  V30 11712 C 1145.47 -4.59992 -2.70634 0
M  V30 11713 O 1145.69 -4.18595 -3.87472 0
M  V30 11714 O 1144.62 -5.49881 -2.44775 0
M  V30 11715 H 1148.45 -3.02659 -0.251195 0
M  V30 11716 H 1146.03 -1.49288 -0.0579621 0
M  V30 11717 H 1147.92 -3.2398 -2.69472 0
M  V30 11718 H 1146.59 -2.06045 -2.49654 0
M  V30 11719 H 1145.5 -3.6518 -0.812038 0
M  V30 11720 H 1146.83 -4.80033 -1.0876 0
M  V30 11721 N 1148.48 0.103547 -1.57259 0
M  V30 11722 C 1149.76 0.839768 -1.76656 0
M  V30 11723 C 1150.14 1.9734 -0.749666 0
M  V30 11724 O 1149.49 2.27405 0.223466 0
M  V30 11725 C 1149.7 1.34218 -3.22159 0
M  V30 11726 C 1151.05 1.78835 -3.85102 0
M  V30 11727 O 1152.07 1.43861 -3.25857 0
M  V30 11728 O 1150.93 2.43474 -4.89267 0
M  V30 11729 H 1148.02 0.399928 -0.723869 0
M  V30 11730 H 1150.57 0.0860857 -1.69482 0
M  V30 11731 H 1149.34 0.52956 -3.877 0
M  V30 11732 H 1148.96 2.15811 -3.33933 0
M  V30 11733 N 1149.96 1.53094 0.37415 0
M  V30 11734 C 1150.87 1.81872 1.48188 0
M  V30 11735 C 1151.89 0.706487 1.59012 0
M  V30 11736 O 1153.06 0.995648 1.75068 0
M  V30 11737 C 1150.13 1.99494 2.83554 0
M  V30 11738 C 1149.19 3.23402 2.82329 0
M  V30 11739 C 1148.42 3.40174 4.11239 0
M  V30 11740 O 1148.65 2.61425 5.06965 0
M  V30 11741 O 1147.58 4.33493 4.17573 0
M  V30 11742 H 1151.41 2.75965 1.26795 0
M  V30 11743 H 1148.99 1.38368 0.56343 0
M  V30 11744 H 1150.87 2.12705 3.63778 0
M  V30 11745 H 1149.55 1.08591 3.04942 0
M  V30 11746 H 1148.45 3.15621 2.00834 0
M  V30 11747 H 1149.79 4.14199 2.65894 0
M  V30 11748 N 1151.44 -0.633461 1.44309 0
M  V30 11749 C 1152.69 -1.39031 1.46679 0
M  V30 11750 C 1153.01 -1.94745 0.0997165 0
M  V30 11751 O 1152.28 -1.75637 -0.867659 0
M  V30 11752 H 1150.86 -0.516051 0.540093 0
M  V30 11753 H 1153.52 -0.745739 1.80069 0
M  V30 11754 H 1152.62 -2.2228 2.19085 0
M  V30 11755 N 1152.92 -1.31168 -0.873655 0
M  V30 11756 C 1154.33 -1.09745 -1.1588 0
M  V30 11757 C 1154.53 0.134471 -2.01051 0
M  V30 11758 O 1153.59 0.824857 -2.38647 0
M  V30 11759 C 1154.9 -2.36704 -1.85451 0
M  V30 11760 C 1156.45 -2.42278 -1.98167 0
M  V30 11761 C 1156.93 -3.69108 -2.71152 0
M  V30 11762 N 1158.42 -3.69981 -2.7869 0
M  V30 11763 C 1159.15 -4.64811 -3.35765 0
M  V30 11764 N 1158.65 -5.69995 -3.938 0
M  V30 11765 N 1160.44 -4.52337 -3.33688 0
M  V30 11766 H 1152.59 -2.10184 -0.306021 0
M  V30 11767 H 1154.86 -0.927058 -0.198159 0
M  V30 11768 H 1154.56 -3.26666 -1.30316 0
M  V30 11769 H 1154.44 -2.46219 -2.85755 0
M  V30 11770 H 1156.82 -1.52787 -2.52468 0
M  V30 11771 H 1156.9 -2.3673 -0.969164 0
M  V30 11772 H 1156.55 -4.58963 -2.1752 0
M  V30 11773 H 1156.48 -3.71922 -3.72803 0
M  V30 11774 H 1158.97 -2.93944 -2.37498 0
M  V30 11775 H 1159.28 -6.38438 -4.3545 0
M  V30 11776 H 1157.63 -5.73773 -3.92186 0
M  V30 11777 H 1160.82 -3.69341 -2.87584 0
M  V30 11778 H 1160.99 -5.2642 -3.77871 0
M  V30 11779 N 1154.4 1.08748 -1.14068 0
M  V30 11780 C 1155.64 1.80707 -0.904947 0
M  V30 11781 C 1155.97 1.86478 0.570167 0
M  V30 11782 O 1155.24 1.35536 1.41445 0
M  V30 11783 H 1153.82 0.669261 -0.331811 0
M  V30 11784 H 1156.48 1.31494 -1.43859 0
M  V30 11785 H 1155.57 2.83653 -1.30182 0
M  V30 11786 N 1155.87 0.935264 1.26849 0
M  V30 11787 C 1156.78 0.446122 2.30319 0
M  V30 11788 C 1157.8 -0.476965 1.67335 0
M  V30 11789 O 1158.98 -0.357934 1.98194 0
M  V30 11790 C 1156.04 -0.286297 3.45516 0
M  V30 11791 C 1155.1 0.672626 4.23998 0
M  V30 11792 C 1154.34 -0.0249345 5.33694 0
M  V30 11793 O 1154.56 -1.24296 5.56693 0
M  V30 11794 O 1153.49 0.650752 5.98372 0
M  V30 11795 H 1157.32 1.30546 2.74211 0
M  V30 11796 H 1154.9 0.70091 1.31938 0
M  V30 11797 H 1156.79 -0.699109 4.1556 0
M  V30 11798 H 1155.46 -1.12112 3.03665 0
M  V30 11799 H 1154.37 1.13527 3.56458 0
M  V30 11800 H 1155.7 1.47489 4.69583 0
M  V30 11801 N 1157.35 -1.41121 0.701616 0
M  V30 11802 C 1158.77 -1.55162 0.373766 0
M  V30 11803 C 1158.97 -1.6759 -1.11875 0
M  V30 11804 O 1158.02 -1.65768 -1.90465 0
M  V30 11805 C 1159.34 -2.78758 1.12759 0
M  V30 11806 C 1160.89 -2.92561 1.11253 0
M  V30 11807 C 1161.36 -4.19052 1.84822 0
M  V30 11808 N 1162.85 -4.26023 1.81821 0
M  V30 11809 C 1163.59 -5.22771 2.3558 0
M  V30 11810 N 1163.08 -6.25512 2.97836 0
M  V30 11811 N 1164.88 -5.14752 2.25802 0
M  V30 11812 H 1157.03 -1.31299 1.66956 0
M  V30 11813 H 1159.29 -0.633894 0.704898 0
M  V30 11814 H 1159 -2.75804 2.18231 0
M  V30 11815 H 1158.87 -3.70456 0.710095 0
M  V30 11816 H 1161.26 -2.95026 0.0660506 0
M  V30 11817 H 1161.34 -2.0202 1.56913 0
M  V30 11818 H 1160.98 -4.17349 2.89452 0
M  V30 11819 H 1160.91 -5.08577 1.36592 0
M  V30 11820 H 1163.4 -3.52411 1.36438 0
M  V30 11821 H 1163.72 -6.95736 3.36409 0
M  V30 11822 H 1162.06 -6.25997 3.01916 0
M  V30 11823 H 1165.25 -4.33414 1.76833 0
M  V30 11824 H 1165.42 -5.89983 2.68001 0
M  V30 11825 N 1158.83 -0.446794 -1.51134 0
M  V30 11826 C 1160.06 0.114893 -2.06581 0
M  V30 11827 C 1160.47 1.35642 -1.31327 0
M  V30 11828 O 1159.83 1.78595 -0.375506 0
M  V30 11829 C 1159.88 0.427589 -3.58962 0
M  V30 11830 O 1159.6 -0.764669 -4.31375 0
M  V30 11831 C 1161.1 1.03891 -4.30954 0
M  V30 11832 H 1158.32 0.00373031 -0.67099 0
M  V30 11833 H 1160.87 -0.628596 -1.94599 0
M  V30 11834 H 1159.02 1.12099 -3.70827 0
M  V30 11835 H 1159.44 -0.494605 -5.22163 0
M  V30 11836 H 1160.91 1.20764 -5.38628 0
M  V30 11837 H 1161.39 2.02252 -3.8986 0
M  V30 11838 H 1161.99 0.384623 -4.23557 0
M  V30 11839 N 1160.31 1.56586 -0.178487 0
M  V30 11840 C 1161.27 2.17091 0.73512 0
M  V30 11841 C 1162.27 1.12088 1.15295 0
M  V30 11842 O 1163.46 1.37563 1.06874 0
M  V30 11843 C 1160.59 2.75957 2.00151 0
M  V30 11844 H 1161.79 2.99176 0.208272 0
M  V30 11845 H 1159.34 1.56138 0.0710967 0
M  V30 11846 H 1160.07 1.97626 2.57127 0
M  V30 11847 H 1159.86 3.52809 1.7108 0
M  V30 11848 H 1161.35 3.2247 2.65335 0
M  V30 11849 N 1161.79 -0.095206 1.57312 0
M  V30 11850 C 1163.03 -0.798719 1.86083 0
M  V30 11851 C 1163.36 -1.78739 0.766991 0
M  V30 11852 O 1162.62 -1.9423 -0.239425 0
M  V30 11853 C 1162.92 -1.56244 3.21438 0
M  V30 11854 C 1162.58 -0.715903 4.4518 0
M  V30 11855 C 1161.24 -0.482537 4.78774 0
M  V30 11856 C 1163.6 -0.127404 5.21044 0
M  V30 11857 C 1160.92 0.349193 5.8566 0
M  V30 11858 C 1163.28 0.691649 6.28808 0
M  V30 11859 C 1161.94 0.935107 6.60918 0
M  V30 11860 H 1161.21 -0.292272 0.680924 0
M  V30 11861 H 1163.86 -0.0602105 1.91405 0
M  V30 11862 H 1162.16 -2.37251 3.118 0
M  V30 11863 H 1163.86 -2.11116 3.40927 0
M  V30 11864 H 1160.45 -0.907902 4.18874 0
M  V30 11865 H 1164.63 -0.29486 4.95423 0
M  V30 11866 H 1159.89 0.546797 6.0895 0
M  V30 11867 H 1164.06 1.15452 6.86763 0
M  V30 11868 H 1161.69 1.58139 7.4357 0
M  V30 11869 N 1163.26 -1.53291 -0.366026 0
M  V30 11870 C 1164.51 -1.68671 -1.10602 0
M  V30 11871 C 1164.83 -0.444793 -1.90476 0
M  V30 11872 O 1166.03 -0.479135 -2.67239 0
M  V30 11873 C 1164.49 -2.98174 -2.01545 0
M  V30 11874 C 1164.1 -4.29626 -1.26986 0
M  V30 11875 C 1165.84 -3.22921 -2.7554 0
M  V30 11876 C 1163.75 -5.50218 -2.16828 0
M  V30 11877 H 1162.68 -0.628456 -0.416604 0
M  V30 11878 H 1165.33 -1.79791 -0.367058 0
M  V30 11879 H 1163.71 -2.80855 -2.79171 0
M  V30 11880 H 1164.88 -4.57574 -0.544269 0
M  V30 11881 H 1163.2 -4.11318 -0.648558 0
M  V30 11882 H 1165.8 -4.10202 -3.42985 0
M  V30 11883 H 1166.14 -2.38964 -3.40884 0
M  V30 11884 H 1166.67 -3.40912 -2.04997 0
M  V30 11885 H 1163.41 -6.36651 -1.56063 0
M  V30 11886 H 1162.93 -5.26549 -2.87238 0
M  V30 11887 H 1164.61 -5.84991 -2.76396 0
M  V30 11888 N 1164.74 0.6258 -1.44643 0
M  V30 11889 C 1165.69 1.73751 -1.51919 0
M  V30 11890 C 1166.66 1.62007 -0.36647 0
M  V30 11891 O 1167.84 1.81852 -0.577439 0
M  V30 11892 C 1164.98 3.12015 -1.47448 0
M  V30 11893 C 1164.1 3.34696 -2.73135 0
M  V30 11894 C 1163.23 4.62962 -2.6046 0
M  V30 11895 C 1162.27 4.7884 -3.81286 0
M  V30 11896 N 1161.41 5.98388 -3.67255 0
M  V30 11897 H 1166.25 1.66867 -2.46899 0
M  V30 11898 H 1163.79 0.813921 -1.22531 0
M  V30 11899 H 1165.74 3.91983 -1.42846 0
M  V30 11900 H 1164.37 3.179 -0.560312 0
M  V30 11901 H 1163.43 2.4863 -2.87901 0
M  V30 11902 H 1164.74 3.42306 -3.62806 0
M  V30 11903 H 1163.89 5.51099 -2.53722 0
M  V30 11904 H 1162.63 4.57719 -1.68359 0
M  V30 11905 H 1161.64 3.89131 -3.88403 0
M  V30 11906 H 1162.86 4.85893 -4.74431 0
M  V30 11907 H 1160.81 5.94224 -2.77909 0
M  V30 11908 H 1160.72 6.07078 -4.50547 0
M  V30 11909 H 1161.99 6.89072 -3.64417 0
M  V30 11910 N 1166.22 1.31629 0.866686 0
M  V30 11911 C 1167.5 1.12136 1.60265 0
M  V30 11912 C 1167.88 -0.322729 2.08618 0
M  V30 11913 O 1167.23 -1.31738 1.86701 0
M  V30 11914 C 1167.44 2.13845 2.7581 0
M  V30 11915 C 1168.78 2.46541 3.45692 0
M  V30 11916 O 1169.81 2.12298 2.86021 0
M  V30 11917 O 1168.67 3.05194 4.53342 0
M  V30 11918 H 1165.76 0.431923 0.705246 0
M  V30 11919 H 1168.31 1.43119 0.911863 0
M  V30 11920 H 1167.08 3.10967 2.37518 0
M  V30 11921 H 1166.7 1.83786 3.52574 0
M  V30 11922 N 1167.7 -1.08142 1.14644 0
M  V30 11923 C 1168.63 -2.15022 0.793614 0
M  V30 11924 C 1169.64 -1.61679 -0.190729 0
M  V30 11925 O 1170.83 -1.78472 0.0313696 0
M  V30 11926 C 1167.93 -3.38532 0.157785 0
M  V30 11927 C 1167.11 -4.21252 1.17753 0
M  V30 11928 C 1166.17 -5.23158 0.564968 0
M  V30 11929 O 1165.19 -5.5578 1.22869 0
M  V30 11930 N 1166.39 -5.7677 -0.657022 0
M  V30 11931 H 1169.16 -2.45893 1.71338 0
M  V30 11932 H 1166.72 -1.23976 1.04122 0
M  V30 11933 H 1168.71 -4.03834 -0.264586 0
M  V30 11934 H 1167.28 -3.05441 -0.665168 0
M  V30 11935 H 1166.5 -3.51888 1.77675 0
M  V30 11936 H 1167.79 -4.73335 1.86632 0
M  V30 11937 H 1167.19 -5.52503 -1.21478 0
M  V30 11938 H 1165.74 -6.4374 -1.02186 0
M  V30 11939 N 1169.18 -0.941978 -1.26351 0
M  V30 11940 C 1170.4 -0.606231 -1.98342 0
M  V30 11941 C 1170.83 0.812014 -1.6967 0
M  V30 11942 O 1170.19 1.54712 -0.9452 0
M  V30 11943 C 1170.23 -0.855864 -3.50296 0
M  V30 11944 O 1169.34 0.0716251 -4.12338 0
M  V30 11945 H 1168.68 -0.231815 -0.62222 0
M  V30 11946 H 1171.21 -1.26513 -1.60797 0
M  V30 11947 H 1171.22 -0.777079 -4.00531 0
M  V30 11948 H 1169.89 -1.8896 -3.70496 0
M  V30 11949 H 1168.47 -0.0582866 -3.72854 0
M  V30 11950 N 1170.66 1.40747 -0.709091 0
M  V30 11951 C 1171.62 2.29118 -0.0611607 0
M  V30 11952 C 1172.62 1.45049 0.694081 0
M  V30 11953 O 1173.81 1.66039 0.526952 0
M  V30 11954 C 1170.94 3.28154 0.923447 0
M  V30 11955 H 1172.13 2.87913 -0.839413 0
M  V30 11956 H 1169.69 1.4896 -0.473363 0
M  V30 11957 H 1170.42 2.74366 1.72899 0
M  V30 11958 H 1170.21 3.90207 0.384862 0
M  V30 11959 H 1171.7 3.94343 1.37417 0
M  V30 11960 N 1172.13 0.454803 1.50895 0
M  V30 11961 C 1173.06 -0.337982 2.31041 0
M  V30 11962 C 1174.04 -1.00523 1.37219 0
M  V30 11963 O 1175.23 -1.00553 1.66141 0
M  V30 11964 C 1172.36 -1.42964 3.1651 0
M  V30 11965 C 1171.31 -0.884907 4.18752 0
M  V30 11966 C 1170.64 -2.07363 4.92854 0
M  V30 11967 C 1171.94 0.0926716 5.22218 0
M  V30 11968 H 1173.63 0.33089 2.97566 0
M  V30 11969 H 1171.18 0.160577 1.43102 0
M  V30 11970 H 1173.13 -1.9916 3.71367 0
M  V30 11971 H 1171.86 -2.12705 2.47839 0
M  V30 11972 H 1170.52 -0.345031 3.64973 0
M  V30 11973 H 1170.16 -2.75764 4.2067 0
M  V30 11974 H 1169.86 -1.71545 5.62002 0
M  V30 11975 H 1171.39 -2.6408 5.5054 0
M  V30 11976 H 1172.8 -0.379568 5.72042 0
M  V30 11977 H 1171.2 0.3643 5.98993 0
M  V30 11978 H 1172.27 1.02383 4.73968 0
M  V30 11979 O 1173.65 -1.58133 0.328034 0
M  V30 11980 H 1174.34 -1.9232 -0.230844 0
M  V30 END ATOM
M  V30 BEGIN BOND
M  V30 END BOND
M  V30 END CTAB
M  END
$$$$
