drugbank_target|P09936 Ubiquitin carboxyl-terminal hydrolase isozyme L1 (DB12695)
 OpenBabel12092121033D

  0  0  0     0  0            999 V3000
M  V30 BEGIN CTAB
M  V30 COUNTS 3465 3496 0 0 0
M  V30 BEGIN ATOM
M  V30 1 H -0.908 1.98254 -0.117106 0
M  V30 2 N 0 1.576 0 0
M  V30 3 C 0.933 2.03868 1.02534 0
M  V30 4 C 1.911 0.928543 1.3348 0
M  V30 5 O 3.095 1.19667 1.45644 0
M  V30 6 C 0.222 2.43627 2.35294 0
M  V30 7 C -0.732 3.65373 2.2001 0
M  V30 8 S 0.101 5.13292 1.52614 0
M  V30 9 C 1.257 5.56322 2.86805 0
M  V30 10 H 1.49 2.90518 0.631377 0
M  V30 11 H -0.977 1.52953 0.210867 0
M  V30 12 H 0.981 2.67203 3.11629 0
M  V30 13 H -0.358 1.57376 2.7183 0
M  V30 14 H -1.165 3.90944 3.18086 0
M  V30 15 H -1.563 3.418 1.51819 0
M  V30 16 H 0.729 5.58782 3.83104 0
M  V30 17 H 1.672 6.56266 2.65933 0
M  V30 18 H 2.08 4.83886 2.90714 0
M  V30 19 N 1.4781 -0.272755 1.55222 0
M  V30 20 C 2.4101 -1.35946 1.8453 0
M  V30 21 C 3.4231 -1.45525 0.729818 0
M  V30 22 O 4.6121 -1.47337 1.00767 0
M  V30 23 C 1.7121 -2.74069 1.99347 0
M  V30 24 C 0.8851 -2.87079 3.30007 0
M  V30 25 C -0.0559 -4.05879 3.34886 0
M  V30 26 O -1.0299 -3.96626 4.08261 0
M  V30 27 N 0.1721 -5.17857 2.62307 0
M  V30 28 H 2.9371 -1.11149 2.78327 0
M  V30 29 H 0.4981 -0.462869 1.55142 0
M  V30 30 H 2.4901 -3.51838 1.99981 0
M  V30 31 H 1.0601 -2.91688 1.12415 0
M  V30 32 H 0.2801 -1.96193 3.41909 0
M  V30 33 H 1.5681 -2.92701 4.16177 0
M  V30 34 H 0.9661 -5.28261 2.02377 0
M  V30 35 H -0.4769 -5.93855 2.68663 0
M  V30 36 N 2.9562 -1.48159 -0.537278 0
M  V30 37 C 3.8862 -1.65029 -1.6519 0
M  V30 38 C 4.8672 -0.499281 -1.62607 0
M  V30 39 O 6.0522 -0.730972 -1.79918 0
M  V30 40 C 3.1822 -1.68303 -3.03795 0
M  V30 41 C 2.1362 -2.8283 -3.21234 0
M  V30 42 C 1.4622 -2.71189 -4.60826 0
M  V30 43 C 2.7622 -4.24211 -3.04701 0
M  V30 44 H 4.4562 -2.58341 -1.51328 0
M  V30 45 H 2.0022 -1.24325 -0.726585 0
M  V30 46 H 3.9552 -1.78693 -3.81637 0
M  V30 47 H 2.6792 -0.715635 -3.18663 0
M  V30 48 H 1.3382 -2.71983 -2.45807 0
M  V30 49 H 0.9862 -1.72435 -4.7252 0
M  V30 50 H 0.6862 -3.48035 -4.7344 0
M  V30 51 H 2.2102 -2.83537 -5.40777 0
M  V30 52 H 3.6242 -4.3593 -3.72341 0
M  V30 53 H 2.0212 -5.01998 -3.28813 0
M  V30 54 H 3.0912 -4.41184 -2.01209 0
M  V30 55 N 4.4343 0.785586 -1.36625 0
M  V30 56 C 5.3813 1.89838 -1.31264 0
M  V30 57 C 6.3513 1.65115 -0.180633 0
M  V30 58 O 7.5363 1.87222 -0.36777 0
M  V30 59 C 4.6763 3.26706 -1.11163 0
M  V30 60 C 3.7893 3.63476 -2.33472 0
M  V30 61 C 2.9243 4.89481 -2.06353 0
M  V30 62 C 1.9633 5.18941 -3.24602 0
M  V30 63 N 1.1003 6.36131 -2.97123 0
M  V30 64 H 5.9403 1.93756 -2.26413 0
M  V30 65 H 3.4773 0.947454 -1.12524 0
M  V30 66 H 5.4353 4.05639 -0.975337 0
M  V30 67 H 4.0653 3.222 -0.196674 0
M  V30 68 H 3.1173 2.79636 -2.57891 0
M  V30 69 H 4.4293 3.81193 -3.21704 0
M  V30 70 H 3.5833 5.76288 -1.89675 0
M  V30 71 H 2.3223 4.73841 -1.15437 0
M  V30 72 H 1.3273 4.30615 -3.41834 0
M  V30 73 H 2.5523 5.36498 -4.16349 0
M  V30 74 H 0.4983 6.21875 -2.08823 0
M  V30 75 H 0.4153 6.54198 -3.78894 0
M  V30 76 H 1.6833 7.2591 -2.84033 0
M  V30 77 N 5.9124 1.20967 1.01018 0
M  V30 78 C 7.3234 1.02319 1.56165 0
M  V30 79 C 7.6744 -0.418546 1.91684 0
M  V30 80 O 6.7994 -1.30096 1.72928 0
M  V30 81 C 7.3944 1.85109 2.8376 0
M  V30 82 C 5.9534 1.70809 3.35412 0
M  V30 83 C 5.1004 1.82643 2.08655 0
M  V30 84 H 8.0514 1.35065 0.833255 0
M  V30 85 H 8.0724 1.35827 3.55431 0
M  V30 86 H 7.5844 2.90035 2.57878 0
M  V30 87 H 5.6854 0.685464 3.66241 0
M  V30 88 H 5.7984 2.52467 4.07182 0
M  V30 89 H 4.1624 1.25896 2.21409 0
M  V30 90 H 4.9454 2.89066 1.85191 0
M  V30 91 N 7.3905 -1.2043 1.01659 0
M  V30 92 C 8.3235 -2.21924 0.531521 0
M  V30 93 C 9.3015 -1.57054 -0.421032 0
M  V30 94 O 10.4855 -1.85389 -0.341035 0
M  V30 95 C 7.6125 -3.37942 -0.226496 0
M  V30 96 C 6.6585 -4.21115 0.67561 0
M  V30 97 S 7.4915 -4.90674 2.14475 0
M  V30 98 C 8.6475 -6.10113 1.3969 0
M  V30 99 H 8.8805 -2.62725 1.3915 0
M  V30 100 H 6.4135 -1.30481 0.825479 0
M  V30 101 H 8.3715 -4.05196 -0.657738 0
M  V30 102 H 7.0325 -2.956 -1.06205 0
M  V30 103 H 6.2255 -5.03918 0.091108 0
M  V30 104 H 5.8275 -3.59115 1.04463 0
M  V30 105 H 8.1195 -6.7411 0.676897 0
M  V30 106 H 9.0625 -6.73022 2.20107 0
M  V30 107 H 9.4705 -5.57283 0.899786 0
M  V30 108 N 8.8686 -0.792821 -1.36206 0
M  V30 109 C 9.7786 -0.194808 -2.3379 0
M  V30 110 C 10.7946 0.654869 -1.61206 0
M  V30 111 O 11.9706 0.569856 -1.9317 0
M  V30 112 C 9.0356 0.657721 -3.40404 0
M  V30 113 C 8.0966 -0.210849 -4.28782 0
M  V30 114 C 7.3296 0.601086 -5.30304 0
M  V30 115 O 7.5526 1.83682 -5.40016 0
M  V30 116 O 6.4866 -0.000808277 -6.019 0
M  V30 117 H 10.3126 -1.00172 -2.86704 0
M  V30 118 H 7.8976 -0.554341 -1.38735 0
M  V30 119 H 9.7796 1.14375 -4.05581 0
M  V30 120 H 8.4546 1.44247 -2.89784 0
M  V30 121 H 7.3616 -0.743714 -3.66633 0
M  V30 122 H 8.6946 -0.959195 -4.82763 0
M  V30 123 N 10.3467 1.47872 -0.545128 0
M  V30 124 C 11.5957 2.01695 -0.0145033 0
M  V30 125 C 11.9087 1.42609 1.33873 0
M  V30 126 O 13.1147 1.88021 1.95858 0
M  V30 127 C 11.5707 3.59892 0.0245068 0
M  V30 128 C 11.1787 4.27966 -1.32475 0
M  V30 129 C 12.9227 4.21507 0.50316 0
M  V30 130 C 10.8297 5.78136 -1.2455 0
M  V30 131 H 9.7597 0.753998 -0.00165172 0
M  V30 132 H 12.4107 1.69985 -0.691175 0
M  V30 133 H 10.7927 3.88509 0.766575 0
M  V30 134 H 11.9667 4.11003 -2.08357 0
M  V30 135 H 10.2817 3.78286 -1.74036 0
M  V30 136 H 12.8787 5.31538 0.580656 0
M  V30 137 H 13.2217 3.87855 1.51243 0
M  V30 138 H 13.7547 3.97376 -0.183681 0
M  V30 139 H 10.4937 6.16388 -2.23039 0
M  V30 140 H 10.0137 5.97469 -0.528282 0
M  V30 141 H 11.6927 6.40099 -0.942488 0
M  V30 142 N 11.8248 0.280983 1.55075 0
M  V30 143 C 12.7728 -0.619864 2.24188 0
M  V30 144 C 13.7668 -1.15315 1.24092 0
M  V30 145 O 14.9728 -1.1061 1.42005 0
M  V30 146 H 11.3478 -0.218459 0.719569 0
M  V30 147 H 13.3188 -0.0141831 2.98397 0
M  V30 148 C 12.0678 -1.7899 2.98091 0
M  V30 149 H 11.3908 -1.38874 3.74905 0
M  V30 150 H 12.8308 -2.39672 3.49762 0
M  V30 151 C 11.2898 -2.68192 2.03899 0
M  V30 152 O 11.8198 -3.6872 1.594 0
M  V30 153 N 10.0258 -2.35488 1.70275 0
M  V30 154 H 9.5728 -1.53787 2.06658 0
M  V30 155 H 9.5308 -2.95442 1.07524 0
M  V30 156 N 13.3029 -1.57598 0.00835791 0
M  V30 157 C 14.7139 -1.7892 -0.53333 0
M  V30 158 C 15.0649 -0.916609 -1.73473 0
M  V30 159 O 14.1899 -0.121336 -2.1606 0
M  V30 160 C 14.7849 -3.24488 -0.974313 0
M  V30 161 C 13.3439 -3.46878 -1.46125 0
M  V30 162 C 12.4909 -2.74157 -0.416302 0
M  V30 163 H 15.4419 -1.56958 0.234495 0
M  V30 164 H 15.4629 -3.3306 -1.83988 0
M  V30 165 H 14.9749 -3.87972 -0.099718 0
M  V30 166 H 13.0759 -2.8862 -2.35646 0
M  V30 167 H 13.1889 -4.55572 -1.48295 0
M  V30 168 H 11.5529 -2.39022 -0.87981 0
M  V30 169 H 12.3359 -3.40345 0.44947 0
M  V30 170 N 14.781 0.264519 -1.55364 0
M  V30 171 C 15.691 1.34902 -1.91934 0
M  V30 172 C 16.707 1.53595 -0.817593 0
M  V30 173 O 17.883 1.67558 -1.11742 0
M  V30 174 C 14.948 2.68676 -2.19121 0
M  V30 175 C 14.009 2.58657 -3.4263 0
M  V30 176 C 13.242 3.86051 -3.68511 0
M  V30 177 O 13.465 4.87126 -2.96757 0
M  V30 178 O 12.399 3.85744 -4.62045 0
M  V30 179 H 16.225 1.06883 -2.8427 0
M  V30 180 H 13.81 0.463775 -1.42019 0
M  V30 181 H 15.692 3.47759 -2.37995 0
M  V30 182 H 14.367 2.96463 -1.29966 0
M  V30 183 H 13.274 1.7792 -3.29082 0
M  V30 184 H 14.607 2.35818 -4.32031 0
M  V30 185 N 16.2591 1.48442 0.529413 0
M  V30 186 C 17.1921 1.57577 1.65059 0
M  V30 187 C 18.1701 0.426198 1.56915 0
M  V30 188 O 19.3541 0.637877 1.77379 0
M  V30 189 C 16.4811 1.5043 3.03461 0
M  V30 190 C 15.5271 2.70235 3.29962 0
M  V30 191 S 16.3601 4.32198 3.16172 0
M  V30 192 C 17.5161 4.2765 4.57019 0
M  V30 193 H 17.7491 2.52427 1.5706 0
M  V30 194 H 15.2821 1.36982 0.712417 0
M  V30 195 H 17.2401 1.46992 3.8328 0
M  V30 196 H 15.9011 0.569167 3.089 0
M  V30 197 H 15.0941 2.61374 4.30929 0
M  V30 198 H 14.6961 2.70938 2.57815 0
M  V30 199 H 16.9881 3.97618 5.48549 0
M  V30 200 H 17.9311 5.28797 4.70934 0
M  V30 201 H 18.3391 3.5811 4.36368 0
M  V30 202 N 17.7372 -0.778329 1.37039 0
M  V30 203 C 18.6672 -1.90546 1.34962 0
M  V30 204 C 19.6482 -1.68681 0.219274 0
M  V30 205 O 20.8332 -1.89634 0.418624 0
M  V30 206 C 17.9632 -3.27734 1.14925 0
M  V30 207 C 16.9172 -3.64147 2.24902 0
M  V30 208 C 16.2432 -4.99806 1.89996 0
M  V30 209 C 17.5432 -3.71579 3.67051 0
M  V30 210 H 19.2372 -1.92541 2.29277 0
M  V30 211 H 16.7832 -0.924948 1.10366 0
M  V30 212 H 18.7362 -4.06215 1.12104 0
M  V30 213 H 17.4602 -3.26154 0.170631 0
M  V30 214 H 16.1192 -2.8797 2.26868 0
M  V30 215 H 15.7672 -4.94759 0.906796 0
M  V30 216 H 15.4672 -5.25139 2.63634 0
M  V30 217 H 16.9912 -5.80694 1.88749 0
M  V30 218 H 18.4052 -4.40227 3.67251 0
M  V30 219 H 16.8022 -4.08405 4.39688 0
M  V30 220 H 17.8722 -2.72404 4.01154 0
M  V30 221 N 19.2153 -1.21501 -1.00376 0
M  V30 222 C 20.1633 -0.972442 -2.11297 0
M  V30 223 C 21.1573 0.080731 -1.69208 0
M  V30 224 O 22.3633 -0.0707666 -1.79861 0
M  V30 225 H 18.7383 -0.297218 -0.690772 0
M  V30 226 H 20.7093 -1.91394 -2.28934 0
M  V30 227 C 19.4583 -0.555065 -3.43241 0
M  V30 228 H 18.7813 -1.35709 -3.76062 0
M  V30 229 H 20.2213 -0.424664 -4.21868 0
M  V30 230 C 18.6803 0.734147 -3.28804 0
M  V30 231 O 19.2103 1.78937 -3.59645 0
M  V30 232 N 17.4163 0.701133 -2.82015 0
M  V30 233 H 16.9633 -0.157874 -2.57116 0
M  V30 234 H 16.9213 1.56403 -2.72737 0
M  V30 235 N 20.6934 1.19889 -1.02296 0
M  V30 236 C 21.6404 2.22901 -0.598651 0
M  V30 237 C 22.6104 1.61588 0.384521 0
M  V30 238 O 23.7954 1.88697 0.282522 0
M  V30 239 C 20.9354 3.45063 0.0504476 0
M  V30 240 C 20.0484 4.20783 -0.978053 0
M  V30 241 C 19.1834 5.30356 -0.299338 0
M  V30 242 C 18.2224 5.97826 -1.31416 0
M  V30 243 N 17.3594 6.98975 -0.661667 0
M  V30 244 H 22.1994 2.58554 -1.48169 0
M  V30 245 H 19.7364 1.27039 -0.741584 0
M  V30 246 H 21.6944 4.14831 0.443971 0
M  V30 247 H 20.3244 3.10084 0.897097 0
M  V30 248 H 19.3764 3.50018 -1.48969 0
M  V30 249 H 20.6884 4.67109 -1.74958 0
M  V30 250 H 19.8424 6.06516 0.149347 0
M  V30 251 H 18.5814 4.85084 0.504445 0
M  V30 252 H 17.5864 5.20422 -1.77317 0
M  V30 253 H 18.8114 6.45183 -2.11933 0
M  V30 254 H 16.7574 6.55886 0.122132 0
M  V30 255 H 16.6744 7.43461 -1.37117 0
M  V30 256 H 17.9424 7.7914 -0.236785 0
M  V30 257 N 22.1715 0.800033 1.35784 0
M  V30 258 C 23.4175 0.377901 1.99248 0
M  V30 259 C 23.7505 -1.05052 1.63333 0
M  V30 260 O 23.0255 -1.72768 0.893385 0
M  V30 261 C 23.3085 0.553922 3.55814 0
M  V30 262 C 23.1615 2.0268 4.01548 0
M  V30 263 C 24.4805 -0.0244802 4.40093 0
M  V30 264 H 21.5995 0.138782 0.723815 0
M  V30 265 H 24.2415 1.00835 1.61035 0
M  V30 266 H 22.3915 0.0172398 3.88496 0
M  V30 267 H 24.0635 2.62536 3.79305 0
M  V30 268 H 22.3065 2.5256 3.52698 0
M  V30 269 H 22.9775 2.10087 5.10458 0
M  V30 270 H 25.4535 0.433775 4.13833 0
M  V30 271 H 24.3295 0.128637 5.48749 0
M  V30 272 H 24.5905 -1.11758 4.27741 0
M  V30 273 N 23.6496 -1.47581 0.552962 0
M  V30 274 C 24.5796 -2.32762 -0.185451 0
M  V30 275 C 25.5606 -1.43527 -0.912905 0
M  V30 276 O 26.7456 -1.72388 -0.894201 0
M  V30 277 C 23.8756 -3.25219 -1.21859 0
M  V30 278 C 22.8296 -4.23661 -0.607864 0
M  V30 279 C 22.1556 -5.05413 -1.74533 0
M  V30 280 C 23.4556 -5.20481 0.435582 0
M  V30 281 H 25.1496 -2.94749 0.525684 0
M  V30 282 H 22.6956 -1.41738 0.254251 0
M  V30 283 H 24.6486 -3.8365 -1.7433 0
M  V30 284 H 23.3726 -2.61279 -1.95961 0
M  V30 285 H 22.0316 -3.66451 -0.104489 0
M  V30 286 H 21.6796 -4.3788 -2.47529 0
M  V30 287 H 21.3796 -5.72059 -1.34249 0
M  V30 288 H 22.9036 -5.66701 -2.27338 0
M  V30 289 H 24.3176 -5.733 -0.00290157 0
M  V30 290 H 22.7146 -5.95305 0.757067 0
M  V30 291 H 23.7846 -4.66217 1.33303 0
M  V30 292 N 25.1277 -0.289203 -1.54924 0
M  V30 293 C 26.3527 0.329299 -2.04769 0
M  V30 294 C 26.7777 1.4763 -1.16564 0
M  V30 295 O 26.1357 1.80527 -0.167186 0
M  V30 296 C 26.1837 0.774438 -3.52186 0
M  V30 297 O 25.2877 1.88038 -3.67036 0
M  V30 298 H 24.6287 0.0659259 -0.660719 0
M  V30 299 H 27.1587 -0.42761 -2.00082 0
M  V30 300 H 27.1687 1.06642 -3.93816 0
M  V30 301 H 25.8437 -0.0646707 -4.1585 0
M  V30 302 H 24.4207 1.58985 -3.3731 0
M  V30 303 N 26.6058 1.57591 -0.0167156 0
M  V30 304 C 28.0218 1.55946 0.339557 0
M  V30 305 C 28.2218 1.02109 1.73713 0
M  V30 306 O 27.2778 0.662303 2.43659 0
M  V30 307 C 28.5908 3.00037 0.199499 0
M  V30 308 C 30.1388 3.11805 0.273193 0
M  V30 309 C 30.6138 4.57713 0.162068 0
M  V30 310 N 32.1048 4.6268 0.219444 0
M  V30 311 C 32.8398 5.73185 0.157054 0
M  V30 312 N 32.3358 6.92786 0.0442936 0
M  V30 313 N 34.1288 5.61707 0.21014 0
M  V30 314 H 26.2798 1.90921 -0.930758 0
M  V30 315 H 28.5428 0.877674 -0.358319 0
M  V30 316 H 28.2488 3.4333 -0.76273 0
M  V30 317 H 28.1228 3.64387 0.974786 0
M  V30 318 H 30.5098 2.68433 1.22587 0
M  V30 319 H 30.5908 2.50201 -0.532256 0
M  V30 320 H 30.2348 5.01763 -0.78714 0
M  V30 321 H 30.1648 5.17283 0.986222 0
M  V30 322 H 32.6558 3.76649 0.307246 0
M  V30 323 H 32.9688 7.728 0.00304069 0
M  V30 324 H 31.3138 6.94999 0.00968457 0
M  V30 325 H 34.5048 4.6716 0.296546 0
M  V30 326 H 34.6778 6.47807 0.158054 0
M  V30 327 N 28.0839 -0.256276 1.55502 0
M  V30 328 C 29.0139 -1.32102 1.92539 0
M  V30 329 C 29.9949 -1.50684 0.789194 0
M  V30 330 O 31.1799 -1.63449 1.04872 0
M  V30 331 C 28.3099 -2.67752 2.21192 0
M  V30 332 C 27.2639 -2.63878 3.36975 0
M  V30 333 C 26.5899 -4.03236 3.51147 0
M  V30 334 C 27.8899 -2.21682 4.72921 0
M  V30 335 H 29.5839 -1.01351 2.81724 0
M  V30 336 H 27.1299 -0.486105 1.35547 0
M  V30 337 H 29.0829 -3.42365 2.45691 0
M  V30 338 H 27.8069 -3.0012 1.28824 0
M  V30 339 H 26.4659 -1.91722 3.12471 0
M  V30 340 H 26.1139 -4.32854 2.56216 0
M  V30 341 H 25.8139 -4.01535 4.29003 0
M  V30 342 H 27.3379 -4.79563 3.77957 0
M  V30 343 H 28.7519 -2.86023 4.96854 0
M  V30 344 H 27.1489 -2.3111 5.53812 0
M  V30 345 H 28.2189 -1.16833 4.70615 0
M  V30 346 N 29.562 -1.4872 -0.521534 0
M  V30 347 C 30.81 -1.56857 -1.27437 0
M  V30 348 C 31.131 -0.247982 -1.93417 0
M  V30 349 O 30.401 0.731151 -1.81744 0
M  V30 350 H 28.981 -0.577885 -0.473347 0
M  V30 351 H 31.643 -1.85233 -0.606205 0
M  V30 352 H 30.739 -2.35402 -2.0492 0
M  V30 353 N 31.0401 0.771051 -1.3745 0
M  V30 354 C 32.2861 1.5319 -1.32894 0
M  V30 355 C 32.6191 1.94008 0.0862511 0
M  V30 356 O 31.8941 1.64124 1.04373 0
M  V30 357 C 32.1771 2.79648 -2.26868 0
M  V30 358 C 32.0301 2.45079 -3.77169 0
M  V30 359 C 33.3491 3.81583 -2.19277 0
M  V30 360 H 30.4681 0.555744 -0.484064 0
M  V30 361 H 33.1101 0.884492 -1.68157 0
M  V30 362 H 31.2601 3.34891 -1.96926 0
M  V30 363 H 32.9321 1.95745 -4.1771 0
M  V30 364 H 31.1751 1.77767 -3.95704 0
M  V30 365 H 31.8461 3.35478 -4.38359 0
M  V30 366 H 34.3221 3.35835 -2.45671 0
M  V30 367 H 33.1981 4.67787 -2.87171 0
M  V30 368 H 33.4591 4.25897 -1.18592 0
M  V30 369 N 32.5182 1.22032 0.997298 0
M  V30 370 C 33.4812 0.987909 2.06816 0
M  V30 371 C 34.4812 -0.0440084 1.6074 0
M  V30 372 O 35.6712 0.194053 1.73116 0
M  V30 373 C 32.8032 0.49132 3.37341 0
M  V30 374 H 33.9962 1.93803 2.28868 0
M  V30 375 H 31.5492 1.03838 1.16822 0
M  V30 376 H 32.2842 -0.463364 3.20973 0
M  V30 377 H 32.0692 1.23575 3.72118 0
M  V30 378 H 33.5592 0.348824 4.16141 0
M  V30 379 N 33.9963 -1.19345 1.0293 0
M  V30 380 C 35.2443 -1.88665 0.724574 0
M  V30 381 C 35.5653 -1.80036 -0.749144 0
M  V30 382 O 34.8353 -1.2111 -1.53978 0
M  V30 383 H 33.4153 -0.698406 0.265025 0
M  V30 384 H 36.0773 -1.44885 1.30362 0
M  V30 385 H 35.1733 -2.94987 1.01926 0
M  V30 386 N 35.4744 -0.807222 -1.35358 0
M  V30 387 C 36.4064 -0.175717 -2.28525 0
M  V30 388 C 37.4194 0.625354 -1.5031 0
M  V30 389 O 38.6084 0.457611 -1.72535 0
M  V30 390 C 35.7084 0.773471 -3.29956 0
M  V30 391 C 34.8814 0.0186296 -4.37396 0
M  V30 392 C 33.9404 0.886395 -5.18681 0
M  V30 393 O 32.9664 0.337106 -5.68201 0
M  V30 394 N 34.1684 2.20839 -5.36852 0
M  V30 395 H 36.9334 -0.976091 -2.83359 0
M  V30 396 H 34.4944 -0.662737 -1.47714 0
M  V30 397 H 36.4864 1.35824 -3.81227 0
M  V30 398 H 35.0564 1.47465 -2.75632 0
M  V30 399 H 34.2764 -0.747349 -3.87051 0
M  V30 400 H 35.5644 -0.501577 -5.06322 0
M  V30 401 H 34.9624 2.67858 -4.98265 0
M  V30 402 H 33.5194 2.74237 -5.91301 0
M  V30 403 N 36.9525 1.47285 -0.560781 0
M  V30 404 C 38.1985 2.03347 -0.0463654 0
M  V30 405 C 38.5535 1.42702 1.2905 0
M  V30 406 O 37.8465 0.574619 1.8278 0
M  V30 407 C 38.0405 3.57258 0.100784 0
M  V30 408 C 37.8695 4.32827 -1.22027 0
M  V30 409 C 36.6395 4.72588 -1.78854 0
M  V30 410 C 38.8375 4.67739 -2.13834 0
M  V30 411 N 36.8195 5.32816 -3.04927 0
M  V30 412 C 38.1905 5.28307 -3.24487 0
M  V30 413 C 40.2455 4.49667 -2.13784 0
M  V30 414 C 38.9485 5.72711 -4.35194 0
M  V30 415 C 40.9745 4.95073 -3.23506 0
M  V30 416 C 40.3365 5.55693 -4.32879 0
M  V30 417 H 36.4355 0.779755 -0.0592166 0
M  V30 418 H 39.0195 1.79723 -0.748857 0
M  V30 419 H 37.1905 3.80642 0.772404 0
M  V30 420 H 38.9225 3.9996 0.617589 0
M  V30 421 H 35.6775 4.54656 -1.32609 0
M  V30 422 H 36.1015 5.67471 -3.69197 0
M  V30 423 H 40.7435 4.02154 -1.30507 0
M  V30 424 H 38.4615 6.19214 -5.1923 0
M  V30 425 H 42.0475 4.82859 -3.24559 0
M  V30 426 H 40.9275 5.90188 -5.1638 0
M  V30 427 N 38.4306 0.297415 1.54768 0
M  V30 428 C 39.8466 -0.0560823 1.59501 0
M  V30 429 C 40.0466 -1.52725 1.31444 0
M  V30 430 O 39.1026 -2.27947 1.08611 0
M  V30 431 C 40.4156 0.338631 2.98787 0
M  V30 432 C 41.9636 0.287097 3.11681 0
M  V30 433 C 42.4386 0.656579 4.53269 0
M  V30 434 N 43.9296 0.608977 4.59179 0
M  V30 435 C 44.6646 0.867385 5.66802 0
M  V30 436 N 44.1606 1.19157 6.82476 0
M  V30 437 N 45.9536 0.794687 5.56454 0
M  V30 438 H 38.1046 1.25624 1.71267 0
M  V30 439 H 40.3676 0.509057 0.799728 0
M  V30 440 H 40.0736 1.36263 3.2423 0
M  V30 441 H 39.9476 -0.309508 3.75928 0
M  V30 442 H 42.3346 -0.727649 2.85988 0
M  V30 443 H 42.4156 0.969809 2.36703 0
M  V30 444 H 42.0596 1.66912 4.7969 0
M  V30 445 H 41.9896 -0.0481649 5.26578 0
M  V30 446 H 44.4806 0.369198 3.76092 0
M  V30 447 H 44.7936 1.37482 7.60473 0
M  V30 448 H 43.1386 1.22958 6.84037 0
M  V30 449 H 46.3296 0.541098 4.64962 0
M  V30 450 H 46.5026 0.999445 6.40246 0
M  V30 451 N 39.9087 -1.5758 0.0250728 0
M  V30 452 C 41.1557 -1.91633 -0.654444 0
M  V30 453 C 41.4837 -0.901103 -1.72367 0
M  V30 454 O 40.7387 0.0905647 -1.9549 0
M  V30 455 C 41.0377 -3.32421 -1.31268 0
M  V30 456 C 40.7037 -4.49344 -0.374223 0
M  V30 457 C 39.3657 -4.8106 -0.115911 0
M  V30 458 C 41.7177 -5.20498 0.270432 0
M  V30 459 C 39.0457 -5.8129 0.79493 0
M  V30 460 C 41.3977 -6.21699 1.1693 0
M  V30 461 C 40.0617 -6.51859 1.43655 0
M  V30 462 H 39.3317 -0.701236 -0.239478 0
M  V30 463 H 41.9787 -1.91307 0.0859734 0
M  V30 464 H 40.2837 -3.28989 -2.12775 0
M  V30 465 H 41.9807 -3.56038 -1.84494 0
M  V30 466 H 38.5707 -4.24579 -0.58573 0
M  V30 467 H 42.7547 -4.96229 0.0839194 0
M  V30 468 H 38.0107 -6.03005 1.00973 0
M  V30 469 H 42.1847 -6.75955 1.67504 0
M  V30 470 H 39.8117 -7.2934 2.144 0
M  V30 471 N 41.3868 0.248026 -1.55636 0
M  V30 472 C 42.6328 0.97767 -1.77678 0
M  V30 473 C 42.9658 1.85016 -0.590135 0
M  V30 474 O 42.2408 1.90095 0.411611 0
M  V30 475 C 42.5238 1.83914 -3.09593 0
M  V30 476 C 42.3768 0.99491 -4.38659 0
M  V30 477 C 43.6958 2.82183 -3.37729 0
M  V30 478 H 40.8148 0.354005 -0.646413 0
M  V30 479 H 43.4568 0.248253 -1.88371 0
M  V30 480 H 41.6068 2.46104 -3.00608 0
M  V30 481 H 43.2788 0.391789 -4.59633 0
M  V30 482 H 41.5218 0.299231 -4.32767 0
M  V30 483 H 42.1928 1.63145 -5.2734 0
M  V30 484 H 44.6688 2.30129 -3.4667 0
M  V30 485 H 43.5448 3.39582 -4.31249 0
M  V30 486 H 43.8058 3.58588 -2.58586 0
M  V30 487 N 42.8649 1.48995 0.513639 0
M  V30 488 C 44.1419 1.48338 1.27495 0
M  V30 489 C 44.5219 0.204065 2.10111 0
M  V30 490 O 43.8699 -0.813881 2.13514 0
M  V30 491 C 44.0799 2.75498 2.14247 0
M  V30 492 C 45.4279 3.24484 2.73852 0
M  V30 493 O 46.4519 2.76528 2.24523 0
M  V30 494 O 45.3109 4.07974 3.6362 0
M  V30 495 H 42.4049 0.593149 0.576284 0
M  V30 496 H 44.9509 1.61246 0.528948 0
M  V30 497 H 43.7229 3.60109 1.53092 0
M  V30 498 H 43.3459 2.6539 2.96064 0
M  V30 499 N 44.343 -0.763751 1.37857 0
M  V30 500 C 45.589 -1.52483 1.33704 0
M  V30 501 C 45.922 -1.94051 -0.0759612 0
M  V30 502 O 45.197 -1.64675 -1.03501 0
M  V30 503 C 45.48 -2.78441 2.28348 0
M  V30 504 C 45.333 -2.43075 3.78463 0
M  V30 505 C 46.652 -3.80415 2.21298 0
M  V30 506 H 43.771 -0.553169 0.487005 0
M  V30 507 H 46.413 -0.875562 1.68624 0
M  V30 508 H 44.563 -3.33842 1.987 0
M  V30 509 H 46.235 -1.93527 4.18742 0
M  V30 510 H 44.478 -1.75666 3.96641 0
M  V30 511 H 45.149 -3.33149 4.40132 0
M  V30 512 H 47.625 -3.34527 2.47449 0
M  V30 513 H 46.501 -4.66257 2.89647 0
M  V30 514 H 46.762 -4.25262 1.20849 0
M  V30 515 N 45.8211 -1.22559 -0.990812 0
M  V30 516 C 46.7511 -1.0218 -2.09956 0
M  V30 517 C 47.7321 0.0579394 -1.70001 0
M  V30 518 O 48.9171 -0.104684 -1.93918 0
M  V30 519 C 46.0471 -0.601023 -3.4206 0
M  V30 520 C 45.0011 -1.62694 -3.95872 0
M  V30 521 C 44.3271 -1.06193 -5.24049 0
M  V30 522 C 45.6271 -3.01743 -4.2632 0
M  V30 523 H 47.3211 -1.94916 -2.27262 0
M  V30 524 H 44.8671 -0.938566 -1.09211 0
M  V30 525 H 46.8201 -0.445561 -4.19038 0
M  V30 526 H 45.5441 0.362005 -3.24588 0
M  V30 527 H 44.2031 -1.77021 -3.21028 0
M  V30 528 H 43.8511 -0.0901903 -5.02919 0
M  V30 529 H 43.5511 -1.74732 -5.61019 0
M  V30 530 H 45.0751 -0.918092 -6.03658 0
M  V30 531 H 46.4891 -2.90777 -4.94087 0
M  V30 532 H 44.8861 -3.67425 -4.74467 0
M  V30 533 H 45.9561 -3.51518 -3.34011 0
M  V30 534 N 47.2992 1.18797 -1.03562 0
M  V30 535 C 48.5472 1.88278 -0.734569 0
M  V30 536 C 48.8682 1.8043 0.739586 0
M  V30 537 O 48.1382 1.21925 1.53333 0
M  V30 538 H 46.7182 0.696991 -0.268725 0
M  V30 539 H 49.3802 1.44192 -1.31129 0
M  V30 540 H 48.4762 2.94443 -1.03489 0
M  V30 541 N 48.7773 0.814389 1.34928 0
M  V30 542 C 49.7073 0.244827 2.32213 0
M  V30 543 C 50.6883 -0.634024 1.57842 0
M  V30 544 O 51.8733 -0.562676 1.8587 0
M  V30 545 C 49.0033 -0.601106 3.42058 0
M  V30 546 C 47.9573 0.179896 4.27622 0
M  V30 547 C 47.2833 -0.788237 5.28858 0
M  V30 548 C 48.5833 1.38329 5.03649 0
M  V30 549 H 50.2773 1.05763 2.80097 0
M  V30 550 H 47.8233 0.510029 1.34665 0
M  V30 551 H 49.7763 -1.00968 4.09125 0
M  V30 552 H 48.5003 -1.44688 2.92802 0
M  V30 553 H 47.1593 0.569739 3.62146 0
M  V30 554 H 46.8073 -1.62973 4.75866 0
M  V30 555 H 46.5073 -0.269942 5.8698 0
M  V30 556 H 48.0313 -1.19485 5.98795 0
M  V30 557 H 49.4453 1.04918 5.63618 0
M  V30 558 H 47.8423 1.83662 5.71304 0
M  V30 559 H 48.9123 2.16592 4.33839 0
M  V30 560 N 50.2554 -1.46986 0.568584 0
M  V30 561 C 51.1654 -2.33942 -0.17555 0
M  V30 562 C 52.1814 -1.48891 -0.90041 0
M  V30 563 O 53.3574 -1.81794 -0.86676 0
M  V30 564 C 50.4224 -3.25811 -1.18524 0
M  V30 565 C 49.4834 -4.26757 -0.466582 0
M  V30 566 C 48.7164 -5.14236 -1.42817 0
M  V30 567 O 48.9394 -5.04379 -2.66379 0
M  V30 568 O 47.8734 -5.94412 -0.946453 0
M  V30 569 H 51.6994 -2.98896 0.538036 0
M  V30 570 H 49.2844 -1.4573 0.329097 0
M  V30 571 H 51.1664 -3.82527 -1.76779 0
M  V30 572 H 49.8414 -2.63471 -1.88055 0
M  V30 573 H 48.7484 -3.73769 0.157451 0
M  V30 574 H 50.0814 -4.91843 0.187485 0
M  V30 575 N 51.7335 -0.305618 -1.54608 0
M  V30 576 C 52.6435 0.57778 -2.27374 0
M  V30 577 C 53.6595 1.14451 -1.31061 0
M  V30 578 O 54.8355 1.16831 -1.6405 0
M  V30 579 C 51.9005 1.73123 -3.00382 0
M  V30 580 C 50.9615 1.19812 -4.12242 0
M  V30 581 C 50.1945 2.2966 -4.81759 0
M  V30 582 O 50.4175 3.49651 -4.50666 0
M  V30 583 O 49.3515 1.96091 -5.69062 0
M  V30 584 H 53.1775 -0.012624 -3.03697 0
M  V30 585 H 50.7625 -0.0719184 -1.49227 0
M  V30 586 H 52.6445 2.40315 -3.4616 0
M  V30 587 H 51.3195 2.30815 -2.26949 0
M  V30 588 H 50.2265 0.491798 -3.70853 0
M  V30 589 H 51.5595 0.666566 -4.87666 0
M  V30 590 N 53.2116 1.57565 -0.0334293 0
M  V30 591 C 54.1216 2.13943 0.962572 0
M  V30 592 C 55.1376 1.09276 1.35406 0
M  V30 593 O 56.3136 1.41355 1.4346 0
M  V30 594 C 53.3786 2.65887 2.22497 0
M  V30 595 C 52.4396 3.85286 1.8935 0
M  V30 596 C 51.6726 4.34743 3.09571 0
M  V30 597 O 51.8956 3.83352 4.22371 0
M  V30 598 O 50.8296 5.26538 2.91618 0
M  V30 599 H 54.6556 2.99333 0.513169 0
M  V30 600 H 52.2406 1.4822 0.18743 0
M  V30 601 H 54.1226 2.99346 2.96598 0
M  V30 602 H 52.7976 1.83578 2.6661 0
M  V30 603 H 51.7046 3.56746 1.1262 0
M  V30 604 H 53.0376 4.68771 1.5005 0
M  V30 605 N 54.6897 -0.239769 1.55765 0
M  V30 606 C 55.9147 -0.988373 1.82335 0
M  V30 607 C 56.3397 -1.77886 0.611421 0
M  V30 608 O 55.6977 -1.75889 -0.439639 0
M  V30 609 C 55.7457 -1.89627 3.06715 0
M  V30 610 O 54.8497 -2.98904 2.84131 0
M  V30 611 H 54.1907 -0.280858 0.601677 0
M  V30 612 H 56.7207 -0.258597 2.02959 0
M  V30 613 H 56.7307 -2.30957 3.36338 0
M  V30 614 H 55.4057 -1.31511 3.9456 0
M  V30 615 H 53.9827 -2.61651 2.65694 0
M  V30 616 N 56.1678 -1.49265 -0.50573 0
M  V30 617 C 57.0978 -1.68495 -1.61653 0
M  V30 618 C 58.0788 -0.53366 -1.61512 0
M  V30 619 O 59.2638 -0.76897 -1.78327 0
M  V30 620 C 56.3938 -1.74709 -3.00157 0
M  V30 621 C 55.3478 -2.89581 -3.15162 0
M  V30 622 C 54.6738 -2.80903 -4.5497 0
M  V30 623 C 55.9738 -4.30578 -2.95634 0
M  V30 624 H 57.6678 -2.61493 -1.45814 0
M  V30 625 H 55.2138 -1.25838 -0.70005 0
M  V30 626 H 57.1668 -1.86748 -3.77761 0
M  V30 627 H 55.8908 -0.783067 -3.17074 0
M  V30 628 H 54.5498 -2.77136 -2.39982 0
M  V30 629 H 54.1978 -1.82419 -4.68756 0
M  V30 630 H 53.8978 -3.57999 -4.65951 0
M  V30 631 H 55.4218 -2.94944 -5.34641 0
M  V30 632 H 56.8358 -4.4373 -3.63011 0
M  V30 633 H 55.2328 -5.0886 -3.18091 0
M  V30 634 H 56.3028 -4.45352 -1.91806 0
M  V30 635 N 57.6459 0.756429 -1.3826 0
M  V30 636 C 58.8939 1.51248 -1.34047 0
M  V30 637 C 59.2149 1.94875 0.0698372 0
M  V30 638 O 58.4849 1.67436 1.01696 0
M  V30 639 H 57.0649 0.561018 -0.493222 0
M  V30 640 H 59.7269 0.899347 -1.7291 0
M  V30 641 H 58.8229 2.40472 -1.98947 0
M  V30 642 N 59.124 1.23083 0.984299 0
M  V30 643 C 60.349 1.088 1.76571 0
M  V30 644 C 60.774 -0.356657 1.84688 0
M  V30 645 O 60.132 -1.25788 1.30565 0
M  V30 646 C 60.18 1.71371 3.17277 0
M  V30 647 O 59.284 0.973213 4.00752 0
M  V30 648 H 58.625 0.381599 0.543395 0
M  V30 649 H 61.155 1.63057 1.23587 0
M  V30 650 H 61.165 1.76449 3.67872 0
M  V30 651 H 59.84 2.76493 3.10684 0
M  V30 652 H 58.417 0.999078 3.59267 0
M  V30 653 N 60.6021 -1.18246 1.0419 0
M  V30 654 C 61.8481 -1.88536 0.747122 0
M  V30 655 C 62.1811 -1.80223 -0.723409 0
M  V30 656 O 61.4561 -1.20337 -1.52804 0
M  V30 657 C 61.7391 -3.38968 1.21544 0
M  V30 658 C 61.5921 -3.56084 2.74816 0
M  V30 659 C 62.9111 -4.32648 0.806482 0
M  V30 660 H 60.0301 -0.684619 0.272883 0
M  V30 661 H 62.6721 -1.39113 1.29413 0
M  V30 662 H 60.8221 -3.8119 0.750081 0
M  V30 663 H 62.4941 -3.22946 3.29399 0
M  V30 664 H 60.7371 -2.98699 3.14582 0
M  V30 665 H 61.4081 -4.61639 3.02644 0
M  V30 666 H 63.8841 -3.98211 1.20695 0
M  V30 667 H 62.7601 -5.36462 1.1619 0
M  V30 668 H 63.0211 -4.41146 -0.29029 0
M  V30 669 N 62.0802 -0.821533 -1.34494 0
M  V30 670 C 63.4912 -0.467956 -1.8074 0
M  V30 671 C 63.8422 1.01151 -1.68116 0
M  V30 672 O 62.9672 1.78707 -1.22036 0
M  V30 673 C 63.5622 -0.842627 -3.28154 0
M  V30 674 C 62.1212 -0.541439 -3.72485 0
M  V30 675 C 61.2682 -1.06028 -2.56229 0
M  V30 676 H 64.2192 -1.01183 -1.22261 0
M  V30 677 H 64.2402 -0.145876 -3.8022 0
M  V30 678 H 63.7522 -1.91945 -3.37311 0
M  V30 679 H 61.8532 0.526034 -3.68868 0
M  V30 680 H 61.9662 -1.08453 -4.66663 0
M  V30 681 H 60.3302 -0.481892 -2.501 0
M  V30 682 H 61.1132 -2.14352 -2.68157 0
M  V30 683 N 63.5583 1.46682 -0.576371 0
M  V30 684 C 64.5213 2.28707 0.150239 0
M  V30 685 C 65.5213 1.38035 0.824794 0
M  V30 686 O 66.7113 1.60476 0.677719 0
M  V30 687 C 63.8433 3.18248 1.22192 0
M  V30 688 H 65.0363 2.94423 -0.570521 0
M  V30 689 H 62.5893 1.52688 -0.334078 0
M  V30 690 H 63.3243 2.57265 1.97447 0
M  V30 691 H 63.1093 3.85 0.742812 0
M  V30 692 H 64.5993 3.80001 1.73172 0
M  V30 693 N 65.0364 0.313813 1.54444 0
M  V30 694 C 66.4474 -0.176243 1.85866 0
M  V30 695 C 66.7984 -1.52405 1.23561 0
M  V30 696 O 65.9234 -2.09605 0.538016 0
M  V30 697 C 66.5184 -0.32657 3.37222 0
M  V30 698 C 65.0774 -0.760846 3.6863 0
M  V30 699 C 64.2244 0.123247 2.77026 0
M  V30 700 H 67.1754 0.534418 1.49431 0
M  V30 701 H 67.1964 -1.15908 3.62416 0
M  V30 702 H 66.7084 0.654531 3.82541 0
M  V30 703 H 64.8094 -1.75204 3.28838 0
M  V30 704 H 64.9224 -0.571353 4.75681 0
M  V30 705 H 63.2864 -0.399597 2.51546 0
M  V30 706 H 64.0694 1.10094 3.25168 0
M  V30 707 N 66.5145 -1.57545 0.0417849 0
M  V30 708 C 67.4775 -2.09885 -0.92093 0
M  V30 709 C 68.4775 -1.01648 -1.24596 0
M  V30 710 O 69.6675 -1.27759 -1.1842 0
M  V30 711 C 66.7995 -2.57527 -2.23367 0
M  V30 712 H 67.9925 -2.96236 -0.467382 0
M  V30 713 H 65.5455 -1.5493 -0.206467 0
M  V30 714 H 66.2805 -1.74542 -2.73323 0
M  V30 715 H 66.0655 -3.36613 -2.01083 0
M  V30 716 H 67.5555 -2.98201 -2.92346 0
M  V30 717 N 67.9926 0.231505 -1.5589 0
M  V30 718 C 69.2326 0.964533 -1.80211 0
M  V30 719 C 69.5966 1.81926 -0.613744 0
M  V30 720 O 70.7976 2.58526 -0.736045 0
M  V30 721 C 69.0686 1.78956 -3.09369 0
M  V30 722 S 70.6276 2.57959 -3.54969 0
M  V30 723 H 67.4456 0.324173 -0.632798 0
M  V30 724 H 70.0476 0.230985 -1.94131 0
M  V30 725 H 68.7516 1.15161 -3.93911 0
M  V30 726 H 68.2826 2.56559 -2.9823 0
M  V30 727 H 70.2976 3.81309 -3.17519 0
M  V30 728 N 69.4707 1.49531 0.497807 0
M  V30 729 C 70.4337 1.65916 1.58128 0
M  V30 730 C 71.4337 0.530825 1.51786 0
M  V30 731 O 72.6237 0.797342 1.54881 0
M  V30 732 C 69.7557 1.65951 2.9778 0
M  V30 733 H 70.9487 2.62556 1.44929 0
M  V30 734 H 68.5017 1.38611 0.722275 0
M  V30 735 H 69.2367 0.709065 3.16453 0
M  V30 736 H 69.0217 2.47897 3.03792 0
M  V30 737 H 70.5117 1.80673 3.76493 0
M  V30 738 N 70.9488 -0.749086 1.3866 0
M  V30 739 C 71.8788 -1.8764 1.38973 0
M  V30 740 C 72.8598 -1.68178 0.255004 0
M  V30 741 O 74.0448 -1.88704 0.458754 0
M  V30 742 C 71.1748 -3.25222 1.21851 0
M  V30 743 C 70.1288 -3.59295 2.32575 0
M  V30 744 C 69.4548 -4.95663 2.00555 0
M  V30 745 C 70.7548 -3.63709 3.7485 0
M  V30 746 H 72.4488 -1.87635 2.3331 0
M  V30 747 H 69.9948 -0.901329 1.12303 0
M  V30 748 H 71.9478 -4.03746 1.20695 0
M  V30 749 H 70.6718 -3.25719 0.239775 0
M  V30 750 H 69.3308 -2.83093 2.32925 0
M  V30 751 H 68.9788 -4.92724 1.01154 0
M  V30 752 H 68.6788 -5.19429 2.74714 0
M  V30 753 H 70.2028 -5.7656 2.01024 0
M  V30 754 H 71.6168 -4.32338 3.76506 0
M  V30 755 H 70.0138 -3.98986 4.48252 0
M  V30 756 H 71.0838 -2.63834 4.06841 0
M  V30 757 N 72.4269 -1.23603 -0.977757 0
M  V30 758 C 73.3569 -1.04401 -2.0886 0
M  V30 759 C 74.3379 0.0399052 -1.70053 0
M  V30 760 O 75.5229 -0.125246 -1.93796 0
M  V30 761 C 72.6529 -0.637269 -3.41403 0
M  V30 762 C 71.6069 -1.66883 -3.94124 0
M  V30 763 C 70.9329 -1.11745 -5.22893 0
M  V30 764 C 72.2329 -3.06247 -4.23096 0
M  V30 765 H 73.9269 -1.97316 -2.25182 0
M  V30 766 H 71.4729 -0.950096 -1.08209 0
M  V30 767 H 73.4259 -0.48998 -4.18542 0
M  V30 768 H 72.1499 0.327557 -3.24953 0
M  V30 769 H 70.8089 -1.80416 -3.19133 0
M  V30 770 H 70.4569 -0.143527 -5.02795 0
M  V30 771 H 70.1569 -1.80672 -5.59134 0
M  V30 772 H 71.6809 -0.982067 -6.02651 0
M  V30 773 H 73.0949 -2.96001 -4.90975 0
M  V30 774 H 71.4919 -3.72436 -4.70544 0
M  V30 775 H 72.5619 -3.55041 -3.30263 0
M  V30 776 N 73.905 1.17692 -1.04816 0
M  V30 777 C 74.835 2.23777 -0.666791 0
M  V30 778 C 75.816 1.66796 0.33361 0
M  V30 779 O 77.001 1.93039 0.212042 0
M  V30 780 C 74.131 3.47281 -0.0367933 0
M  V30 781 C 73.085 4.17059 -0.961546 0
M  V30 782 C 72.411 5.34342 -0.195626 0
M  V30 783 C 73.711 4.69713 -2.28402 0
M  V30 784 H 75.405 2.55933 -1.55367 0
M  V30 785 H 72.951 1.23019 -0.748484 0
M  V30 786 H 74.904 4.20706 0.241775 0
M  V30 787 H 73.628 3.14381 0.885004 0
M  V30 788 H 72.287 3.45541 -1.22462 0
M  V30 789 H 71.935 4.97692 0.728816 0
M  V30 790 H 71.635 5.81966 -0.811775 0
M  V30 791 H 73.159 6.10553 0.0757473 0
M  V30 792 H 74.573 5.34794 -2.06563 0
M  V30 793 H 72.97 5.279 -2.8538 0
M  V30 794 H 74.04 3.86726 -2.92525 0
M  V30 795 N 75.3831 0.828654 1.34056 0
M  V30 796 C 76.3131 0.269443 2.3194 0
M  V30 797 C 77.2941 -0.617247 1.58506 0
M  V30 798 O 78.4791 -0.542931 1.86456 0
M  V30 799 C 75.6091 -0.564793 3.42677 0
M  V30 800 C 74.5631 0.225241 4.27407 0
M  V30 801 C 73.8891 -0.7321 5.29664 0
M  V30 802 C 75.1891 1.43663 5.02154 0
M  V30 803 H 76.8831 1.08728 2.7896 0
M  V30 804 H 74.4291 0.524283 1.34117 0
M  V30 805 H 76.3821 -0.966233 4.10173 0
M  V30 806 H 75.1061 -1.41574 2.9432 0
M  V30 807 H 73.7651 0.608117 3.61521 0
M  V30 808 H 73.4131 -1.57916 4.77568 0
M  V30 809 H 73.1131 -0.20767 5.87233 0
M  V30 810 H 74.6371 -1.13128 6.00029 0
M  V30 811 H 76.0511 1.1089 5.62473 0
M  V30 812 H 74.4481 1.89711 5.69324 0
M  V30 813 H 75.5181 2.21181 4.31517 0
M  V30 814 N 76.8612 -1.46375 0.584142 0
M  V30 815 C 78.1082 -2.02378 0.0702675 0
M  V30 816 C 78.4362 -1.45545 -1.29023 0
M  V30 817 O 77.6912 -0.610967 -1.85918 0
M  V30 818 C 77.9902 -3.57373 -0.0439342 0
M  V30 819 C 77.6562 -4.33252 1.24915 0
M  V30 820 C 76.3182 -4.53701 1.60341 0
M  V30 821 C 78.6702 -4.7681 2.1048 0
M  V30 822 C 75.9982 -5.1496 2.81128 0
M  V30 823 C 78.3502 -5.39404 3.30494 0
M  V30 824 C 77.0142 -5.5808 3.66201 0
M  V30 825 H 76.2842 -0.740554 0.0257127 0
M  V30 826 H 78.9312 -1.75727 0.761065 0
M  V30 827 H 77.2362 -3.83169 -0.817869 0
M  V30 828 H 78.9332 -3.98384 -0.457318 0
M  V30 829 H 75.5232 -4.17633 0.963364 0
M  V30 830 H 79.7072 -4.60766 1.84414 0
M  V30 831 H 74.9632 -5.27611 3.08928 0
M  V30 832 H 79.1372 -5.72114 3.97063 0
M  V30 833 H 76.7642 -6.05318 4.59885 0
M  V30 834 N 78.3393 -0.321999 -1.54275 0
M  V30 835 C 79.7503 0.166384 -1.85957 0
M  V30 836 C 80.1013 1.51747 -1.24367 0
M  V30 837 O 79.2263 2.09317 -0.549124 0
M  V30 838 C 79.8213 0.308681 -3.37391 0
M  V30 839 C 78.3803 0.741286 -3.69028 0
M  V30 840 C 77.5273 -0.137937 -2.76957 0
M  V30 841 H 80.4783 -0.542335 -1.49146 0
M  V30 842 H 80.4993 1.13984 -3.63026 0
M  V30 843 H 80.0113 -0.674809 -3.82188 0
M  V30 844 H 78.1123 1.73458 -3.29762 0
M  V30 845 H 78.2253 0.546118 -4.75977 0
M  V30 846 H 76.5893 0.386251 -2.51754 0
M  V30 847 H 77.3723 -1.11816 -3.2458 0
M  V30 848 N 79.8174 1.5752 -0.0501392 0
M  V30 849 C 80.7474 2.14502 0.922566 0
M  V30 850 C 81.7284 1.06642 1.3252 0
M  V30 851 O 82.9134 1.34577 1.4001 0
M  V30 852 C 80.0434 2.68916 2.19776 0
M  V30 853 C 78.9974 3.8175 1.93523 0
M  V30 854 C 78.3234 4.22677 3.27487 0
M  V30 855 C 79.6234 5.06932 1.25765 0
M  V30 856 H 81.3174 2.9603 0.447952 0
M  V30 857 H 78.8634 1.42401 0.214024 0
M  V30 858 H 80.8164 3.07419 2.88222 0
M  V30 859 H 79.5404 1.84578 2.69441 0
M  V30 860 H 78.1994 3.43718 1.27489 0
M  V30 861 H 77.8474 3.35291 3.74952 0
M  V30 862 H 77.5474 4.98725 3.1072 0
M  V30 863 H 79.0714 4.63779 3.97166 0
M  V30 864 H 80.4854 5.42888 1.84244 0
M  V30 865 H 78.8824 5.88116 1.19328 0
M  V30 866 H 79.9524 4.84337 0.233536 0
M  V30 867 N 81.2955 -0.223234 1.56011 0
M  V30 868 C 82.5235 -0.964812 1.83027 0
M  V30 869 C 82.9385 -1.78013 0.62904 0
M  V30 870 O 82.2955 -1.78008 -0.402414 0
M  V30 871 C 82.3465 -1.88373 3.08542 0
M  V30 872 O 82.0675 -1.10137 4.2403 0
M  V30 873 C 83.5685 -2.73934 3.48533 0
M  V30 874 H 80.7885 -0.282842 0.608475 0
M  V30 875 H 83.3325 -0.238971 2.03099 0
M  V30 876 H 81.4875 -2.56354 2.9045 0
M  V30 877 H 81.9015 -1.72501 4.95322 0
M  V30 878 H 83.3755 -3.34117 4.39397 0
M  V30 879 H 83.8525 -3.46244 2.70207 0
M  V30 880 H 84.4585 -2.11369 3.69057 0
M  V30 881 N 82.7736 -1.49793 -0.48987 0
M  V30 882 C 83.7366 -1.66752 -1.57246 0
M  V30 883 C 84.7366 -0.538867 -1.51502 0
M  V30 884 O 85.9266 -0.805545 -1.54456 0
M  V30 885 C 83.0586 -1.67528 -2.96896 0
M  V30 886 H 84.2516 -2.63321 -1.43534 0
M  V30 887 H 81.8046 -1.38992 -0.714914 0
M  V30 888 H 82.5396 -0.725837 -3.16073 0
M  V30 889 H 82.3246 -2.49504 -3.02473 0
M  V30 890 H 83.8146 -1.82667 -3.7553 0
M  V30 891 N 84.2517 0.741722 -1.39055 0
M  V30 892 C 85.1837 1.8657 -1.33133 0
M  V30 893 C 86.1967 1.61001 -0.241329 0
M  V30 894 O 87.3857 1.7136 -0.499784 0
M  V30 895 C 84.4857 3.22457 -1.04283 0
M  V30 896 C 83.6587 3.75435 -2.24427 0
M  V30 897 C 82.7177 4.89867 -1.92138 0
M  V30 898 O 81.7437 5.03879 -2.64754 0
M  V30 899 N 82.9457 5.73738 -0.88347 0
M  V30 900 H 85.7107 1.92156 -2.29991 0
M  V30 901 H 83.2717 0.922172 -1.3307 0
M  V30 902 H 85.2637 3.9657 -0.807128 0
M  V30 903 H 83.8337 3.12181 -0.161807 0
M  V30 904 H 83.0537 2.92751 -2.6399 0
M  V30 905 H 84.3417 4.07563 -3.04581 0
M  V30 906 H 83.7397 5.64999 -0.281517 0
M  V30 907 H 82.2967 6.47947 -0.707662 0
M  V30 908 N 85.7298 1.2412 0.971189 0
M  V30 909 C 86.6798 0.997551 2.05019 0
M  V30 910 C 87.6638 -0.0597747 1.60789 0
M  V30 911 O 88.8558 0.153516 1.76333 0
M  V30 912 C 85.9848 0.600557 3.38006 0
M  V30 913 C 85.0708 1.69377 3.88809 0
M  V30 914 N 85.4618 2.92586 4.12586 0
M  V30 915 C 83.7598 1.57048 4.17435 0
M  V30 916 C 84.4608 3.63431 4.54195 0
M  V30 917 N 83.4368 2.90979 4.59165 0
M  V30 918 H 87.2388 1.93316 2.21374 0
M  V30 919 H 84.7528 1.14194 1.1547 0
M  V30 920 H 86.7498 0.40725 4.14906 0
M  V30 921 H 85.4098 -0.327903 3.2304 0
M  V30 922 H 86.4208 3.288 4.00139 0
M  V30 923 H 83.0978 0.709798 4.11422 0
M  V30 924 H 84.4878 4.69102 4.81033 0
M  V30 925 N 87.2079 -1.17134 1.05439 0
M  V30 926 C 88.1179 -2.24878 0.668365 0
M  V30 927 C 89.1339 -1.71186 -0.311687 0
M  V30 928 O 90.3099 -2.00738 -0.163161 0
M  V30 929 C 87.3749 -3.46662 0.051648 0
M  V30 930 C 86.4359 -4.15429 1.08246 0
M  V30 931 C 85.6689 -5.31399 0.495082 0
M  V30 932 O 85.8919 -5.66153 -0.694743 0
M  V30 933 O 84.8259 -5.89187 1.23056 0
M  V30 934 H 88.6519 -2.60189 1.56637 0
M  V30 935 H 86.2369 -1.24482 0.826104 0
M  V30 936 H 88.1189 -4.20394 -0.290966 0
M  V30 937 H 86.7939 -3.13142 -0.819971 0
M  V30 938 H 85.7009 -3.43704 1.47711 0
M  V30 939 H 87.0339 -4.52982 1.92532 0
M  V30 940 N 88.686 -0.835752 -1.33615 0
M  V30 941 C 89.634 -0.255238 -2.31195 0
M  V30 942 C 90.628 0.61107 -1.57995 0
M  V30 943 O 91.834 0.500979 -1.72888 0
M  V30 944 H 88.209 -0.0638085 -0.749288 0
M  V30 945 H 90.18 -1.09283 -2.77669 0
M  V30 946 C 88.929 0.55754 -3.43201 0
M  V30 947 H 88.252 -0.0997553 -3.99676 0
M  V30 948 H 89.692 0.929622 -4.13683 0
M  V30 949 C 88.151 1.73515 -2.88781 0
M  V30 950 O 88.681 2.83376 -2.84712 0
M  V30 951 N 86.887 1.55603 -2.4543 0
M  V30 952 H 86.434 0.662354 -2.48939 0
M  V30 953 H 86.392 2.34545 -2.09371 0
M  V30 954 N 90.1641 1.46063 -0.591896 0
M  V30 955 C 91.4111 2.02338 -0.0809991 0
M  V30 956 C 91.7391 1.46228 1.28249 0
M  V30 957 O 90.9941 0.620818 1.85592 0
M  V30 958 C 91.2931 3.57391 0.0249813 0
M  V30 959 C 90.9591 4.32583 -1.27211 0
M  V30 960 C 89.6211 4.52844 -1.62745 0
M  V30 961 C 91.9731 4.75687 -2.13005 0
M  V30 962 C 89.3011 5.13462 -2.83855 0
M  V30 963 C 91.6531 5.37644 -3.3335 0
M  V30 964 C 90.3171 5.5613 -3.69155 0
M  V30 965 H 89.5871 0.740407 -0.0296397 0
M  V30 966 H 92.2341 1.75321 -0.770374 0
M  V30 967 H 90.5391 3.83597 0.797537 0
M  V30 968 H 92.2361 3.98621 0.436184 0
M  V30 969 H 88.8261 4.17116 -0.985499 0
M  V30 970 H 93.0101 4.59782 -1.86855 0
M  V30 971 H 88.2661 5.25965 -3.11722 0
M  V30 972 H 92.4401 5.7 -4.00092 0
M  V30 973 H 90.0671 6.0287 -4.63089 0
M  V30 974 N 91.6422 0.330177 1.54103 0
M  V30 975 C 93.0582 -0.0222371 1.59585 0
M  V30 976 C 93.2582 -1.49902 1.34654 0
M  V30 977 O 92.3142 -2.25592 1.13421 0
M  V30 978 C 93.6272 0.401932 2.98002 0
M  V30 979 C 95.1752 0.353145 3.11001 0
M  V30 980 C 95.6502 0.752576 4.51775 0
M  V30 981 N 97.1412 0.706239 4.57784 0
M  V30 982 C 97.8762 0.987417 5.64834 0
M  V30 983 N 97.3722 1.33607 6.79795 0
M  V30 984 N 99.1652 0.91254 5.54643 0
M  V30 985 H 91.3162 1.29228 1.68564 0
M  V30 986 H 93.5792 0.525906 0.78875 0
M  V30 987 H 93.2852 1.4311 3.21267 0
M  V30 988 H 93.1592 -0.229699 3.765 0
M  V30 989 H 95.5462 -0.666822 2.87467 0
M  V30 990 H 95.6272 1.0198 2.34593 0
M  V30 991 H 95.2712 1.77049 4.76042 0
M  V30 992 H 95.2012 0.0635409 5.26562 0
M  V30 993 H 97.6922 0.44889 3.75224 0
M  V30 994 H 98.0052 1.53582 7.57385 0
M  V30 995 H 96.3502 1.37439 6.81275 0
M  V30 996 H 99.5412 0.639601 4.6371 0
M  V30 997 H 99.7142 1.13503 6.37982 0
M  V30 998 N 93.1203 -1.57491 0.0584922 0
M  V30 999 C 94.0673 -2.11958 -0.913376 0
M  V30 1000 C 95.0373 -1.02875 -1.30407 0
M  V30 1001 O 96.2223 -1.30464 -1.39226 0
M  V30 1002 C 93.3623 -2.67497 -2.18035 0
M  V30 1003 C 92.4753 -3.90691 -1.84349 0
M  V30 1004 C 91.6103 -4.3452 -3.05559 0
M  V30 1005 C 90.6493 -5.50395 -2.67827 0
M  V30 1006 N 89.7863 -5.89244 -3.81754 0
M  V30 1007 H 94.6263 -2.94704 -0.442017 0
M  V30 1008 H 92.1633 -1.45643 -0.206545 0
M  V30 1009 H 94.1213 -2.978 -2.92183 0
M  V30 1010 H 92.7513 -1.87537 -2.62735 0
M  V30 1011 H 91.8033 -3.66934 -1.00319 0
M  V30 1012 H 93.1153 -4.7489 -1.5258 0
M  V30 1013 H 92.2693 -4.66414 -3.87998 0
M  V30 1014 H 91.0083 -3.49147 -3.40511 0
M  V30 1015 H 90.0133 -5.18165 -1.83806 0
M  V30 1016 H 91.2383 -6.3749 -2.34059 0
M  V30 1017 H 89.1843 -5.06823 -4.16493 0
M  V30 1018 H 89.1013 -6.68151 -3.53708 0
M  V30 1019 H 90.3693 -6.25756 -4.64811 0
M  V30 1020 N 94.5984 0.214957 -1.56127 0
M  V30 1021 C 95.5454 1.26642 -1.92952 0
M  V30 1022 C 96.5154 1.46244 -0.78753 0
M  V30 1023 O 97.7004 1.59704 -1.04399 0
M  V30 1024 C 94.8404 2.6104 -2.25726 0
M  V30 1025 C 93.9534 2.49183 -3.52891 0
M  V30 1026 C 93.0884 3.76149 -3.7508 0
M  V30 1027 C 92.1274 3.59041 -4.95738 0
M  V30 1028 N 91.2644 4.77972 -5.14283 0
M  V30 1029 H 96.1044 0.945384 -2.82607 0
M  V30 1030 H 93.6414 0.455489 -1.3987 0
M  V30 1031 H 95.5994 3.39313 -2.42739 0
M  V30 1032 H 94.2294 2.91227 -1.39236 0
M  V30 1033 H 93.2814 1.6231 -3.44034 0
M  V30 1034 H 94.5934 2.32466 -4.41318 0
M  V30 1035 H 93.7474 4.62865 -3.92226 0
M  V30 1036 H 92.4864 3.95799 -2.84947 0
M  V30 1037 H 91.4914 2.7071 -4.78535 0
M  V30 1038 H 92.7164 3.40856 -5.87362 0
M  V30 1039 H 90.6624 4.97923 -4.27093 0
M  V30 1040 H 90.5794 4.64006 -5.96853 0
M  V30 1041 H 91.8474 5.66096 -5.35869 0
M  V30 1042 N 96.0765 1.50051 0.48192 0
M  V30 1043 C 97.0085 1.64263 1.59844 0
M  V30 1044 C 98.0215 0.52451 1.54119 0
M  V30 1045 O 99.2105 0.797293 1.59704 0
M  V30 1046 C 96.3105 1.60102 2.98698 0
M  V30 1047 C 95.4835 2.87767 3.29407 0
M  V30 1048 C 94.5425 2.76397 4.47762 0
M  V30 1049 O 93.5685 3.50348 4.48603 0
M  V30 1050 N 94.7705 1.89222 5.48794 0
M  V30 1051 H 97.5355 2.60566 1.48073 0
M  V30 1052 H 95.0965 1.47379 0.670149 0
M  V30 1053 H 97.0885 1.50123 3.75826 0
M  V30 1054 H 95.6585 0.715798 3.04294 0
M  V30 1055 H 94.8785 3.11954 2.40994 0
M  V30 1056 H 96.1665 3.72365 3.4673 0
M  V30 1057 H 95.5645 1.28434 5.50928 0
M  V30 1058 H 94.1215 1.85154 6.24949 0
M  V30 1059 N 97.5546 -0.734337 1.39446 0
M  V30 1060 C 98.8036 -1.48937 1.36017 0
M  V30 1061 C 99.1166 -1.95557 -0.0409005 0
M  V30 1062 O 100.323 -2.70779 -0.19778 0
M  V30 1063 C 98.7786 -2.69125 2.38955 0
M  V30 1064 C 98.3866 -2.29452 3.8478 0
M  V30 1065 C 100.131 -3.46944 2.44603 0
M  V30 1066 C 98.0376 -3.46366 4.79358 0
M  V30 1067 H 96.9676 -0.559296 0.505672 0
M  V30 1068 H 99.6186 -0.800983 1.65095 0
M  V30 1069 H 98.0006 -3.40041 2.02948 0
M  V30 1070 H 99.1746 -1.66077 4.29831 0
M  V30 1071 H 97.4896 -1.64723 3.82433 0
M  V30 1072 H 100.087 -4.33907 3.12456 0
M  V30 1073 H 100.43 -3.89454 1.47076 0
M  V30 1074 H 100.963 -2.83056 2.79507 0
M  V30 1075 H 97.7016 -3.08905 5.78151 0
M  V30 1076 H 97.2216 -4.08719 4.38986 0
M  V30 1077 H 98.9006 -4.12691 4.98292 0
M  V30 1078 N 99.0327 -1.24633 -0.964593 0
M  V30 1079 C 99.9427 -1.05859 -2.09359 0
M  V30 1080 C 100.959 0.00148855 -1.74 0
M  V30 1081 O 102.135 -0.197346 -2.00431 0
M  V30 1082 C 99.1997 -0.668879 -3.40187 0
M  V30 1083 C 98.2607 -1.80578 -3.89474 0
M  V30 1084 C 97.4937 -1.43457 -5.14058 0
M  V30 1085 O 97.7167 -0.325775 -5.69469 0
M  V30 1086 O 96.6507 -2.2613 -5.57807 0
M  V30 1087 H 100.477 -2.00516 -2.28094 0
M  V30 1088 H 98.0617 -1.03481 -1.0776 0
M  V30 1089 H 99.9437 -0.463211 -4.18846 0
M  V30 1090 H 98.6187 0.248536 -3.22744 0
M  V30 1091 H 97.5257 -2.06623 -3.11862 0
M  V30 1092 H 98.8587 -2.70208 -4.11398 0
M  V30 1093 N 100.511 1.16574 -1.06058 0
M  V30 1094 C 101.421 2.2452 -0.680282 0
M  V30 1095 C 102.437 1.71348 0.302604 0
M  V30 1096 O 103.613 2.00822 0.152513 0
M  V30 1097 C 100.678 3.46629 -0.0700315 0
M  V30 1098 C 99.7388 4.14849 -1.10448 0
M  V30 1099 C 98.9718 5.31129 -0.523256 0
M  V30 1100 O 99.1948 5.66514 0.664709 0
M  V30 1101 O 98.1288 5.88526 -1.26179 0
M  V30 1102 H 101.955 2.59355 -1.58015 0
M  V30 1103 H 99.5398 1.24043 -0.832694 0
M  V30 1104 H 101.422 4.20543 0.268667 0
M  V30 1105 H 100.097 3.13573 0.803353 0
M  V30 1106 H 99.0038 3.42916 -1.49532 0
M  V30 1107 H 100.337 4.51954 -1.94931 0
M  V30 1108 N 101.989 0.842826 1.3317 0
M  V30 1109 C 102.919 0.294028 2.31641 0
M  V30 1110 C 103.9 -0.600401 1.59151 0
M  V30 1111 O 105.085 -0.523124 1.87022 0
M  V30 1112 C 102.215 -0.528416 3.43257 0
M  V30 1113 C 101.169 0.27056 4.27144 0
M  V30 1114 C 100.495 -0.675881 5.30411 0
M  V30 1115 C 101.795 1.48981 5.00602 0
M  V30 1116 H 103.489 1.11681 2.77791 0
M  V30 1117 H 101.035 0.538478 1.33553 0
M  V30 1118 H 102.988 -0.922674 4.11175 0
M  V30 1119 H 101.712 -1.38445 2.95805 0
M  V30 1120 H 100.371 0.646427 3.60856 0
M  V30 1121 H 100.019 -1.52842 4.79216 0
M  V30 1122 H 99.7189 -0.145374 5.8742 0
M  V30 1123 H 101.243 -1.06757 6.01195 0
M  V30 1124 H 102.657 1.16849 5.61266 0
M  V30 1125 H 101.054 1.95739 5.6728 0
M  V30 1126 H 102.124 2.25746 4.29147 0
M  V30 1127 N 103.467 -1.45747 0.599634 0
M  V30 1128 C 104.414 -2.30467 -0.123849 0
M  V30 1129 C 105.384 -1.41632 -0.86774 0
M  V30 1130 O 106.569 -1.70568 -0.855056 0
M  V30 1131 C 103.709 -3.26402 -1.12051 0
M  V30 1132 C 102.822 -4.3034 -0.37832 0
M  V30 1133 C 101.957 -5.13389 -1.364 0
M  V30 1134 C 100.996 -6.09061 -0.609171 0
M  V30 1135 N 100.133 -6.84918 -1.54374 0
M  V30 1136 H 104.973 -2.91802 0.604627 0
M  V30 1137 H 102.51 -1.43797 0.309972 0
M  V30 1138 H 104.468 -3.80482 -1.7114 0
M  V30 1139 H 103.098 -2.66839 -1.8165 0
M  V30 1140 H 102.15 -3.78984 0.327929 0
M  V30 1141 H 103.462 -4.98354 0.210997 0
M  V30 1142 H 102.616 -5.7183 -2.02719 0
M  V30 1143 H 101.355 -4.45376 -1.98725 0
M  V30 1144 H 100.36 -5.49758 0.0676979 0
M  V30 1145 H 101.585 -6.79099 0.00891991 0
M  V30 1146 H 99.531 -6.19601 -2.15478 0
M  V30 1147 H 99.448 -7.49254 -1.00766 0
M  V30 1148 H 100.716 -7.47906 -2.19676 0
M  V30 1149 N 104.945 -0.338344 -1.53925 0
M  V30 1150 C 106.193 0.259245 -2.0043 0
M  V30 1151 C 106.514 1.51484 -1.22791 0
M  V30 1152 O 105.784 1.93037 -0.33368 0
M  V30 1153 H 104.364 0.0987845 -0.740439 0
M  V30 1154 H 107.026 -0.458302 -1.89435 0
M  V30 1155 H 106.122 0.505334 -3.07982 0
M  V30 1156 N 106.423 1.57458 -0.0668435 0
M  V30 1157 C 107.355 2.09413 0.931601 0
M  V30 1158 C 108.368 1.02522 1.26464 0
M  V30 1159 O 109.557 1.30049 1.22269 0
M  V30 1160 C 106.657 2.53537 2.24882 0
M  V30 1161 C 105.83 3.83944 2.09537 0
M  V30 1162 C 104.889 4.14214 3.2452 0
M  V30 1163 O 103.915 4.83891 2.9973 0
M  V30 1164 N 105.117 3.67367 4.49469 0
M  V30 1165 H 107.882 2.95699 0.488048 0
M  V30 1166 H 105.443 1.61462 0.119009 0
M  V30 1167 H 107.435 2.70853 3.00701 0
M  V30 1168 H 106.005 1.72415 2.60753 0
M  V30 1169 H 105.225 3.76057 1.18215 0
M  V30 1170 H 106.513 4.69312 1.96529 0
M  V30 1171 H 105.911 3.11068 4.72497 0
M  V30 1172 H 104.468 3.89891 5.2233 0
M  V30 1173 N 107.901 -0.206675 1.56239 0
M  V30 1174 C 108.811 -1.27686 1.96808 0
M  V30 1175 C 109.827 -1.50455 0.874035 0
M  V30 1176 O 111.003 -1.63295 1.17884 0
M  V30 1177 C 108.068 -2.60358 2.28942 0
M  V30 1178 C 107.129 -2.45762 3.51994 0
M  V30 1179 C 106.362 -3.72108 3.82585 0
M  V30 1180 O 106.585 -4.75776 3.14631 0
M  V30 1181 O 105.519 -3.6833 4.76043 0
M  V30 1182 H 109.345 -0.962593 2.88041 0
M  V30 1183 H 106.93 -0.410746 1.43643 0
M  V30 1184 H 108.812 -3.38687 2.50737 0
M  V30 1185 H 107.487 -2.91435 1.4088 0
M  V30 1186 H 106.394 -1.65584 3.35459 0
M  V30 1187 H 107.727 -2.19621 4.40486 0
M  V30 1188 N 109.379 -1.50304 -0.473955 0
M  V30 1189 C 110.625 -1.61389 -1.22806 0
M  V30 1190 C 110.958 -0.311955 -1.91678 0
M  V30 1191 O 110.233 0.686384 -1.81986 0
M  V30 1192 C 110.516 -2.79219 -2.27396 0
M  V30 1193 C 110.369 -4.19286 -1.62848 0
M  V30 1194 C 111.688 -2.92614 -3.28732 0
M  V30 1195 H 108.807 -0.587399 -0.445119 0
M  V30 1196 H 111.449 -1.82681 -0.522265 0
M  V30 1197 H 109.599 -2.61195 -2.87592 0
M  V30 1198 H 111.271 -4.48892 -1.06271 0
M  V30 1199 H 109.514 -4.23677 -0.931693 0
M  V30 1200 H 110.185 -4.97655 -2.38838 0
M  V30 1201 H 112.661 -3.09105 -2.78556 0
M  V30 1202 H 111.537 -3.76688 -3.99246 0
M  V30 1203 H 111.798 -2.03107 -3.92683 0
M  V30 1204 N 110.857 0.726932 -1.39834 0
M  V30 1205 C 112.082 1.52121 -1.40976 0
M  V30 1206 C 112.507 1.88098 -0.00826029 0
M  V30 1207 O 111.865 1.52479 0.980807 0
M  V30 1208 C 111.913 2.78021 -2.29644 0
M  V30 1209 O 111.017 3.74272 -1.73188 0
M  V30 1210 H 110.358 0.45908 -0.479731 0
M  V30 1211 H 112.888 0.896207 -1.83927 0
M  V30 1212 H 112.898 3.26671 -2.44438 0
M  V30 1213 H 111.573 2.51169 -3.31492 0
M  V30 1214 H 110.15 3.33073 -1.6768 0
M  V30 1215 N 112.336 1.25143 0.95797 0
M  V30 1216 C 113.747 1.08851 1.51685 0
M  V30 1217 C 114.098 -0.33687 1.93286 0
M  V30 1218 O 113.223 -1.22644 1.7829 0
M  V30 1219 C 113.818 1.96978 2.75654 0
M  V30 1220 C 112.377 1.84881 3.27866 0
M  V30 1221 C 111.524 1.91329 2.0072 0
M  V30 1222 H 114.475 1.38478 0.77522 0
M  V30 1223 H 114.496 1.5078 3.4935 0
M  V30 1224 H 114.008 3.00712 2.45345 0
M  V30 1225 H 112.109 0.840182 3.63004 0
M  V30 1226 H 112.222 2.6951 3.96107 0
M  V30 1227 H 110.586 1.35174 2.15871 0
M  V30 1228 H 111.369 2.96661 1.72764 0
M  V30 1229 N 113.814 -1.1601 1.06675 0
M  V30 1230 C 114.761 -2.20525 0.680967 0
M  V30 1231 C 115.731 -1.62904 -0.324283 0
M  V30 1232 O 116.916 -1.89615 -0.212294 0
M  V30 1233 C 114.056 -3.45013 0.0776551 0
M  V30 1234 C 113.169 -4.16863 1.13355 0
M  V30 1235 C 112.304 -5.2888 0.49597 0
M  V30 1236 C 111.343 -5.92537 1.53513 0
M  V30 1237 N 110.48 -6.96038 0.920631 0
M  V30 1238 H 115.32 -2.52876 1.57663 0
M  V30 1239 H 112.857 -1.24199 0.788223 0
M  V30 1240 H 114.815 -4.16193 -0.289704 0
M  V30 1241 H 113.445 -3.132 -0.781393 0
M  V30 1242 H 112.497 -3.44248 1.61857 0
M  V30 1243 H 113.809 -4.60294 1.92174 0
M  V30 1244 H 112.963 -6.06653 0.0758604 0
M  V30 1245 H 111.702 -4.86622 -0.324062 0
M  V30 1246 H 110.707 -5.13482 1.9651 0
M  V30 1247 H 111.932 -6.36873 2.35733 0
M  V30 1248 H 109.878 -6.55888 0.12138 0
M  V30 1249 H 109.795 -7.3786 1.64616 0
M  V30 1250 H 111.063 -7.77725 0.525795 0
M  V30 1251 N 115.292 -0.849877 -1.32721 0
M  V30 1252 C 116.538 -0.451591 -1.97708 0
M  V30 1253 C 116.871 0.989175 -1.6712 0
M  V30 1254 O 116.146 1.69334 -0.956891 0
M  V30 1255 C 116.429 -0.685598 -3.53513 0
M  V30 1256 C 116.282 -2.17444 -3.93749 0
M  V30 1257 C 117.601 -0.138874 -4.39881 0
M  V30 1258 H 114.72 -0.16555 -0.718166 0
M  V30 1259 H 117.362 -1.06742 -1.57182 0
M  V30 1260 H 115.512 -0.161416 -3.88165 0
M  V30 1261 H 117.184 -2.76433 -3.693 0
M  V30 1262 H 115.427 -2.65476 -3.43081 0
M  V30 1263 H 116.098 -2.28888 -5.02309 0
M  V30 1264 H 118.574 -0.587068 -4.11938 0
M  V30 1265 H 117.45 -0.332213 -5.47894 0
M  V30 1266 H 117.711 0.95806 -4.31594 0
M  V30 1267 N 116.77 1.45427 -0.607355 0
M  V30 1268 C 118 2.06314 -0.108656 0
M  V30 1269 C 118.408 1.45269 1.21217 0
M  V30 1270 O 117.751 0.561115 1.74921 0
M  V30 1271 C 117.813 3.59345 0.105618 0
M  V30 1272 C 117.477 4.42723 -1.13337 0
M  V30 1273 C 118.474 4.77715 -2.05145 0
M  V30 1274 C 116.159 4.83478 -1.36213 0
M  V30 1275 C 118.153 5.52317 -3.18158 0
M  V30 1276 C 115.84 5.57835 -2.49527 0
M  V30 1277 C 116.838 5.92171 -3.40327 0
M  V30 1278 O 116.526 6.65019 -4.51669 0
M  V30 1279 H 116.258 0.672782 -0.0658842 0
M  V30 1280 H 118.812 1.87664 -0.834945 0
M  V30 1281 H 117.042 3.76394 0.886796 0
M  V30 1282 H 118.731 4.02076 0.555886 0
M  V30 1283 H 119.497 4.46787 -1.88697 0
M  V30 1284 H 115.376 4.56188 -0.664362 0
M  V30 1285 H 118.92 5.79036 -3.89054 0
M  V30 1286 H 114.817 5.88177 -2.65928 0
M  V30 1287 H 115.585 6.83469 -4.50348 0
M  V30 1288 N 118.248 0.346503 1.53744 0
M  V30 1289 C 119.495 -0.249104 2.00962 0
M  V30 1290 C 119.823 -1.5032 1.23426 0
M  V30 1291 O 119.078 -1.93217 0.310761 0
M  V30 1292 C 119.377 -0.605809 3.52228 0
M  V30 1293 C 119.043 0.551747 4.47512 0
M  V30 1294 C 117.705 0.86941 4.73281 0
M  V30 1295 C 120.057 1.32818 5.03993 0
M  V30 1296 C 117.385 1.96582 5.52786 0
M  V30 1297 C 119.737 2.41486 5.84694 0
M  V30 1298 C 118.401 2.73808 6.08757 0
M  V30 1299 H 117.671 -0.0911538 0.735372 0
M  V30 1300 H 120.318 0.475027 1.85515 0
M  V30 1301 H 118.623 -1.4107 3.65522 0
M  V30 1302 H 120.32 -1.07858 3.86222 0
M  V30 1303 H 116.91 0.294102 4.2759 0
M  V30 1304 H 121.094 1.09602 4.84047 0
M  V30 1305 H 116.35 2.22045 5.69654 0
M  V30 1306 H 120.524 3.02078 6.27473 0
M  V30 1307 H 118.151 3.58892 6.7015 0
M  V30 1308 N 119.726 -1.57421 0.075193 0
M  V30 1309 C 120.659 -2.08528 -0.926904 0
M  V30 1310 C 121.637 -0.991171 -1.28898 0
M  V30 1311 O 122.821 -1.26479 -1.39769 0
M  V30 1312 C 119.948 -2.54576 -2.23402 0
M  V30 1313 C 118.994 -3.75454 -2.02327 0
M  V30 1314 S 119.827 -5.19989 -1.27951 0
M  V30 1315 C 120.983 -5.69372 -2.59935 0
M  V30 1316 H 121.216 -2.932 -0.492048 0
M  V30 1317 H 118.749 -1.53785 -0.137651 0
M  V30 1318 H 120.707 -2.81767 -2.98526 0
M  V30 1319 H 119.368 -1.70166 -2.64012 0
M  V30 1320 H 118.561 -4.05675 -2.99071 0
M  V30 1321 H 118.163 -3.48654 -1.35339 0
M  V30 1322 H 120.455 -5.76424 -3.56008 0
M  V30 1323 H 121.398 -6.68207 -2.34319 0
M  V30 1324 H 121.806 -4.97205 -2.67296 0
M  V30 1325 N 121.204 0.198386 -1.56346 0
M  V30 1326 C 122.151 1.24589 -1.94284 0
M  V30 1327 C 123.121 1.454 -0.802997 0
M  V30 1328 O 124.306 1.58588 -1.06087 0
M  V30 1329 C 121.446 2.58631 -2.28482 0
M  V30 1330 C 120.559 2.45426 -3.55514 0
M  V30 1331 C 119.694 3.7215 -3.79049 0
M  V30 1332 C 118.733 3.53763 -4.99518 0
M  V30 1333 N 117.87 4.72491 -5.19323 0
M  V30 1334 H 122.71 0.915356 -2.83593 0
M  V30 1335 H 120.247 0.440629 -1.40346 0
M  V30 1336 H 122.205 3.3672 -2.46324 0
M  V30 1337 H 120.835 2.89734 -1.42317 0
M  V30 1338 H 119.887 1.58652 -3.45737 0
M  V30 1339 H 121.199 2.27772 -4.43758 0
M  V30 1340 H 120.353 4.58679 -3.97113 0
M  V30 1341 H 119.092 3.92754 -2.89129 0
M  V30 1342 H 118.097 2.65619 -4.8138 0
M  V30 1343 H 119.322 3.34607 -5.90944 0
M  V30 1344 H 117.268 4.93365 -4.3235 0
M  V30 1345 H 117.185 4.5765 -6.01741 0
M  V30 1346 H 118.453 5.6038 -5.41843 0
M  V30 1347 N 122.682 1.50554 0.465978 0
M  V30 1348 C 123.614 1.65949 1.58093 0
M  V30 1349 C 124.627 0.540827 1.53554 0
M  V30 1350 O 125.816 0.814187 1.5885 0
M  V30 1351 C 122.916 1.63261 2.96983 0
M  V30 1352 C 122.089 2.91245 3.26336 0
M  V30 1353 C 121.148 2.8113 4.44806 0
M  V30 1354 O 120.174 3.55086 4.44862 0
M  V30 1355 N 121.376 1.95032 5.46756 0
M  V30 1356 H 124.141 2.62122 1.45301 0
M  V30 1357 H 121.702 1.48082 0.65448 0
M  V30 1358 H 123.694 1.54101 3.74212 0
M  V30 1359 H 122.264 0.748032 3.03518 0
M  V30 1360 H 121.484 3.14493 2.37672 0
M  V30 1361 H 122.772 3.76022 3.42761 0
M  V30 1362 H 122.17 1.3427 5.49534 0
M  V30 1363 H 120.727 1.91772 6.2295 0
M  V30 1364 N 124.16 -0.719506 1.40217 0
M  V30 1365 C 125.388 -1.50864 1.41589 0
M  V30 1366 C 125.803 -1.88794 0.0145275 0
M  V30 1367 O 125.16 -1.55174 -0.960594 0
M  V30 1368 C 125.211 -2.78646 2.30302 0
M  V30 1369 O 124.932 -2.42321 3.64983 0
M  V30 1370 C 126.433 -3.72569 2.40224 0
M  V30 1371 H 123.653 -0.465709 0.48307 0
M  V30 1372 H 126.197 -0.88785 1.84221 0
M  V30 1373 H 124.352 -3.37019 1.91042 0
M  V30 1374 H 124.766 -3.24514 4.12057 0
M  V30 1375 H 126.24 -4.5908 3.06512 0
M  V30 1376 H 126.717 -4.15403 1.42608 0
M  V30 1377 H 127.323 -3.20109 2.80019 0
M  V30 1378 N 125.638 -1.25649 -0.95132 0
M  V30 1379 C 126.887 -1.09988 -1.69073 0
M  V30 1380 C 127.2 0.358355 -1.92289 0
M  V30 1381 O 128.406 0.635466 -2.63958 0
M  V30 1382 C 126.862 -1.92012 -3.044 0
M  V30 1383 C 126.47 -3.42347 -2.88968 0
M  V30 1384 C 128.214 -1.8493 -3.82101 0
M  V30 1385 C 126.121 -4.16655 -4.19705 0
M  V30 1386 H 125.051 -0.407993 -0.63408 0
M  V30 1387 H 127.702 -1.49873 -1.05879 0
M  V30 1388 H 126.084 -1.44952 -3.68517 0
M  V30 1389 H 127.258 -3.97104 -2.33762 0
M  V30 1390 H 125.573 -3.50557 -2.24719 0
M  V30 1391 H 128.17 -2.37739 -4.78941 0
M  V30 1392 H 128.513 -0.817883 -4.08187 0
M  V30 1393 H 129.046 -2.29758 -3.2474 0
M  V30 1394 H 125.785 -5.20224 -3.98807 0
M  V30 1395 H 125.305 -3.66681 -4.74663 0
M  V30 1396 H 126.984 -4.24551 -4.88227 0
M  V30 1397 N 127.117 1.15442 -1.07289 0
M  V30 1398 C 128.365 1.85845 -0.794096 0
M  V30 1399 C 128.686 1.82692 0.681809 0
M  V30 1400 O 127.956 1.26741 1.49377 0
M  V30 1401 H 126.536 0.688089 -0.290763 0
M  V30 1402 H 129.198 1.39947 -1.3565 0
M  V30 1403 H 128.294 2.91001 -1.12804 0
M  V30 1404 N 128.595 0.856903 1.32268 0
M  V30 1405 C 129.543 0.291987 2.3076 0
M  V30 1406 C 130.537 -0.585857 1.58947 0
M  V30 1407 O 131.743 -0.47341 1.73663 0
M  V30 1408 H 128.118 0.075721 0.748178 0
M  V30 1409 H 130.089 1.13687 2.75895 0
M  V30 1410 C 128.838 -0.502869 3.44044 0
M  V30 1411 H 128.161 0.163328 3.99466 0
M  V30 1412 H 129.601 -0.863691 4.1511 0
M  V30 1413 C 128.06 -1.68898 2.91505 0
M  V30 1414 O 128.59 -2.78811 2.89184 0
M  V30 1415 N 126.796 -1.51679 2.47875 0
M  V30 1416 H 126.343 -0.622666 2.49961 0
M  V30 1417 H 126.301 -2.31184 2.13076 0
M  V30 1418 N 130.073 -1.45103 0.615059 0
M  V30 1419 C 131.298 -2.07064 0.117988 0
M  V30 1420 C 131.723 -1.4554 -1.19163 0
M  V30 1421 O 131.081 -0.550855 -1.72729 0
M  V30 1422 C 131.129 -3.606 -0.000288387 0
M  V30 1423 O 130.233 -3.98847 -1.04856 0
M  V30 1424 H 129.574 -0.659467 0.0774581 0
M  V30 1425 H 132.104 -1.86236 0.847186 0
M  V30 1426 H 132.114 -4.07529 -0.196091 0
M  V30 1427 H 130.789 -4.04765 0.955932 0
M  V30 1428 H 129.366 -3.63577 -0.828619 0
M  V30 1429 N 131.551 -0.354651 -1.53558 0
M  V30 1430 C 132.791 0.238651 -2.03002 0
M  V30 1431 C 133.155 1.46878 -1.23656 0
M  V30 1432 O 134.356 2.13699 -1.63053 0
M  V30 1433 C 132.627 0.534175 -3.53386 0
M  V30 1434 S 134.186 1.10271 -4.24719 0
M  V30 1435 H 131.004 0.0702908 -0.707517 0
M  V30 1436 H 133.606 -0.494987 -1.8913 0
M  V30 1437 H 132.31 -0.368765 -4.0874 0
M  V30 1438 H 131.841 1.29718 -3.71398 0
M  V30 1439 H 133.856 2.38772 -4.34974 0
M  V30 1440 N 133.029 1.57378 -0.0835403 0
M  V30 1441 C 134.277 1.93547 0.581718 0
M  V30 1442 C 134.598 0.96524 1.69435 0
M  V30 1443 O 133.868 0.0153369 1.95894 0
M  V30 1444 H 132.448 0.714521 0.217874 0
M  V30 1445 H 135.11 1.94366 -0.144158 0
M  V30 1446 H 134.206 2.95665 0.999423 0
M  V30 1447 N 134.507 -0.190092 1.56449 0
M  V30 1448 C 135.735 -0.925772 1.85033 0
M  V30 1449 C 136.15 -1.76638 0.666658 0
M  V30 1450 O 135.507 -1.78822 -0.364565 0
M  V30 1451 C 135.558 -1.81786 3.12468 0
M  V30 1452 O 135.279 -1.01118 4.26271 0
M  V30 1453 C 136.78 -2.6648 3.54265 0
M  V30 1454 H 134 -0.269872 0.614337 0
M  V30 1455 H 136.544 -0.195837 2.0356 0
M  V30 1456 H 134.699 -2.50136 2.95822 0
M  V30 1457 H 135.113 -1.61956 4.98869 0
M  V30 1458 H 136.587 -3.24722 4.46385 0
M  V30 1459 H 137.064 -3.40434 2.77491 0
M  V30 1460 H 137.67 -2.03493 3.73458 0
M  V30 1461 N 135.985 -1.50799 -0.457987 0
M  V30 1462 C 137.234 -1.6168 -1.20593 0
M  V30 1463 C 137.547 -0.32888 -1.92815 0
M  V30 1464 O 138.753 -0.316773 -2.69646 0
M  V30 1465 C 137.209 -2.8545 -2.19195 0
M  V30 1466 C 136.817 -4.21168 -1.52715 0
M  V30 1467 C 138.561 -3.05681 -2.94549 0
M  V30 1468 C 136.468 -5.3611 -2.4968 0
M  V30 1469 H 135.398 -0.602134 -0.453818 0
M  V30 1470 H 138.049 -1.77245 -0.475031 0
M  V30 1471 H 136.431 -2.63472 -2.95632 0
M  V30 1472 H 137.605 -4.53449 -0.819775 0
M  V30 1473 H 135.92 -4.06648 -0.895922 0
M  V30 1474 H 138.517 -3.88727 -3.67145 0
M  V30 1475 H 138.86 -2.17929 -3.54701 0
M  V30 1476 H 139.393 -3.27901 -2.25223 0
M  V30 1477 H 136.132 -6.26057 -1.94249 0
M  V30 1478 H 135.652 -5.0823 -3.18532 0
M  V30 1479 H 137.331 -5.6722 -3.11241 0
M  V30 1480 N 137.463 0.71206 -1.40597 0
M  V30 1481 C 138.711 1.46907 -1.38791 0
M  V30 1482 C 139.032 1.94998 0.00780391 0
M  V30 1483 O 138.302 1.70587 0.963174 0
M  V30 1484 H 136.882 0.545043 -0.51082 0
M  V30 1485 H 139.544 0.843882 -1.75683 0
M  V30 1486 H 138.64 2.34021 -2.06496 0
M  V30 1487 N 138.941 1.26152 0.944643 0
M  V30 1488 C 139.871 1.09902 2.06019 0
M  V30 1489 C 140.852 0.00519538 1.70099 0
M  V30 1490 O 142.037 0.176583 1.93396 0
M  V30 1491 C 139.167 0.727562 3.39594 0
M  V30 1492 C 138.121 1.77274 3.89561 0
M  V30 1493 C 137.447 1.25569 5.19747 0
M  V30 1494 C 138.747 3.17357 4.14827 0
M  V30 1495 H 140.441 2.03217 2.19871 0
M  V30 1496 H 137.987 0.978452 1.05652 0
M  V30 1497 H 139.94 0.600777 4.17095 0
M  V30 1498 H 138.664 -0.241287 3.25707 0
M  V30 1499 H 137.323 1.88814 3.14237 0
M  V30 1500 H 136.971 0.276783 5.02238 0
M  V30 1501 H 136.671 1.95433 5.54148 0
M  V30 1502 H 138.195 1.1415 5.99835 0
M  V30 1503 H 139.609 3.08914 4.82954 0
M  V30 1504 H 138.006 3.84781 4.60504 0
M  V30 1505 H 139.076 3.63673 3.20734 0
M  V30 1506 N 140.419 -1.14872 1.07899 0
M  V30 1507 C 141.668 -1.85135 0.800499 0
M  V30 1508 C 141.981 -1.83547 -0.676014 0
M  V30 1509 O 143.187 -2.49548 -1.06948 0
M  V30 1510 C 141.643 -3.3231 1.38197 0
M  V30 1511 C 141.251 -3.42329 2.8899 0
M  V30 1512 C 142.995 -4.0772 1.18174 0
M  V30 1513 C 140.902 -4.83684 3.403 0
M  V30 1514 H 139.832 -0.693563 0.29578 0
M  V30 1515 H 142.483 -1.29532 1.29976 0
M  V30 1516 H 140.865 -3.87618 0.810431 0
M  V30 1517 H 142.039 -2.97097 3.52236 0
M  V30 1518 H 140.354 -2.80369 3.07867 0
M  V30 1519 H 142.951 -5.12049 1.5398 0
M  V30 1520 H 143.294 -4.16124 0.12117 0
M  V30 1521 H 143.827 -3.58696 1.71994 0
M  V30 1522 H 140.566 -4.80465 4.45907 0
M  V30 1523 H 140.086 -5.29474 2.81811 0
M  V30 1524 H 141.765 -5.52558 3.36584 0
M  V30 1525 N 141.898 -0.863906 -1.31812 0
M  V30 1526 C 142.848 -0.286898 -2.26188 0
M  V30 1527 C 143.832 0.572577 -1.50367 0
M  V30 1528 O 145.024 0.420447 -1.71934 0
M  V30 1529 C 142.153 0.515849 -3.39402 0
M  V30 1530 C 141.239 -0.356531 -4.22599 0
M  V30 1531 N 141.63 -1.44716 -4.84656 0
M  V30 1532 C 139.928 -0.147898 -4.45755 0
M  V30 1533 C 140.629 -1.98462 -5.46798 0
M  V30 1534 N 139.605 -1.28247 -5.28255 0
M  V30 1535 H 143.407 -1.12055 -2.717 0
M  V30 1536 H 140.921 -0.711012 -1.46008 0
M  V30 1537 H 142.918 0.945701 -4.06032 0
M  V30 1538 H 141.578 1.34718 -2.95434 0
M  V30 1539 H 142.589 -1.83008 -4.84488 0
M  V30 1540 H 139.266 0.647973 -4.12441 0
M  V30 1541 H 140.656 -2.89932 -6.06126 0
M  V30 1542 N 143.376 1.44774 -0.622745 0
M  V30 1543 C 144.339 2.29069 0.0774015 0
M  V30 1544 C 145.339 1.4059 0.780461 0
M  V30 1545 O 146.529 1.62551 0.626322 0
M  V30 1546 C 143.661 3.21974 1.12006 0
M  V30 1547 H 144.854 2.92459 -0.663901 0
M  V30 1548 H 142.407 1.51548 -0.382486 0
M  V30 1549 H 143.142 2.63417 1.89162 0
M  V30 1550 H 142.927 3.87168 0.619951 0
M  V30 1551 H 144.417 3.85318 1.60995 0
M  V30 1552 N 144.854 0.36279 1.53368 0
M  V30 1553 C 146.1 -0.228113 2.01513 0
M  V30 1554 C 146.433 -1.48648 1.2497 0
M  V30 1555 O 145.708 -1.91459 0.342616 0
M  V30 1556 C 145.991 -0.522884 3.56284 0
M  V30 1557 C 145.844 0.74892 4.43521 0
M  V30 1558 C 147.163 -1.32461 4.19693 0
M  V30 1559 H 144.282 -0.0814343 0.732487 0
M  V30 1560 H 146.924 0.48713 1.83649 0
M  V30 1561 H 145.074 -1.1322 3.71636 0
M  V30 1562 H 146.746 1.38648 4.39971 0
M  V30 1563 H 144.989 1.36986 4.11603 0
M  V30 1564 H 145.66 0.497667 5.49752 0
M  V30 1565 H 148.136 -0.809203 4.08156 0
M  V30 1566 H 147.012 -1.49961 5.28018 0
M  V30 1567 H 147.273 -2.33232 3.75573 0
M  V30 1568 N 146.332 -1.57332 0.0918853 0
M  V30 1569 C 147.295 -2.12708 -0.85369 0
M  V30 1570 C 148.295 -1.05561 -1.213 0
M  V30 1571 O 149.485 -1.31461 -1.14296 0
M  V30 1572 C 146.617 -2.64503 -2.15061 0
M  V30 1573 H 147.81 -2.97573 -0.3729 0
M  V30 1574 H 145.363 -1.55509 -0.157072 0
M  V30 1575 H 146.098 -1.83149 -2.67632 0
M  V30 1576 H 145.883 -3.4284 -1.90272 0
M  V30 1577 H 147.373 -3.07351 -2.82711 0
M  V30 1578 N 147.81 0.181792 -1.56548 0
M  V30 1579 C 148.758 1.24461 -1.965 0
M  V30 1580 C 149.752 1.464 -0.852261 0
M  V30 1581 O 150.958 1.47103 -1.03733 0
M  V30 1582 H 147.333 0.418138 -0.625031 0
M  V30 1583 H 149.304 0.880714 -2.85107 0
M  V30 1584 C 148.053 2.57891 -2.33212 0
M  V30 1585 H 147.376 2.41829 -3.18369 0
M  V30 1586 H 148.816 3.3097 -2.65019 0
M  V30 1587 C 147.275 3.15871 -1.17163 0
M  V30 1588 O 147.805 3.9913 -0.453708 0
M  V30 1589 N 146.011 2.74808 -0.944936 0
M  V30 1590 H 145.558 2.07205 -1.53049 0
M  V30 1591 H 145.516 3.13939 -0.170286 0
M  V30 1592 N 149.288 1.51039 0.449983 0
M  V30 1593 C 150.236 1.71995 1.5659 0
M  V30 1594 C 151.23 0.586029 1.5894 0
M  V30 1595 O 152.436 0.76709 1.62837 0
M  V30 1596 H 148.811 0.543233 0.520001 0
M  V30 1597 H 150.782 2.65562 1.36085 0
M  V30 1598 C 149.531 1.8506 2.9436 0
M  V30 1599 H 148.854 2.71712 2.93279 0
M  V30 1600 H 150.294 2.0374 3.71842 0
M  V30 1601 C 148.753 0.607277 3.31382 0
M  V30 1602 O 149.283 -0.243903 4.00959 0
M  V30 1603 N 147.489 0.455073 2.87015 0
M  V30 1604 H 147.036 1.14879 2.30566 0
M  V30 1605 H 146.994 -0.375611 3.12148 0
M  V30 1606 N 150.766 -0.704594 1.40972 0
M  V30 1607 C 151.698 -1.82974 1.38033 0
M  V30 1608 C 152.711 -1.60305 0.283931 0
M  V30 1609 O 153.9 -1.69975 0.545042 0
M  V30 1610 C 151 -3.19578 1.12795 0
M  V30 1611 C 150.173 -3.69352 2.34302 0
M  V30 1612 C 149.232 -4.84601 2.05058 0
M  V30 1613 O 148.258 -4.96682 2.7802 0
M  V30 1614 N 149.46 -5.71194 1.03528 0
M  V30 1615 H 152.225 -1.85991 2.35005 0
M  V30 1616 H 149.786 -0.886567 1.35468 0
M  V30 1617 H 151.778 -3.9429 0.911987 0
M  V30 1618 H 150.348 -3.11642 0.24452 0
M  V30 1619 H 149.568 -2.85649 2.71659 0
M  V30 1620 H 150.856 -3.99345 3.1528 0
M  V30 1621 H 150.254 -5.64054 0.431217 0
M  V30 1622 H 148.811 -6.45843 0.879205 0
M  V30 1623 N 152.244 -1.26651 -0.937939 0
M  V30 1624 C 153.521 -1.0313 -1.66204 0
M  V30 1625 C 153.901 0.437256 -2.06522 0
M  V30 1626 O 153.249 1.41831 -1.79154 0
M  V30 1627 C 153.459 -1.98314 -2.87181 0
M  V30 1628 C 154.807 -2.27107 -3.58758 0
M  V30 1629 O 155.831 -1.96205 -2.97291 0
M  V30 1630 O 154.69 -2.79736 -4.69479 0
M  V30 1631 H 151.784 -0.392384 -0.727986 0
M  V30 1632 H 154.33 -1.37874 -0.989382 0
M  V30 1633 H 153.102 -2.97399 -2.54302 0
M  V30 1634 H 152.725 -1.64068 -3.6217 0
M  V30 1635 N 153.722 1.14298 -1.08507 0
M  V30 1636 C 154.669 2.19414 -0.715965 0
M  V30 1637 C 155.639 1.63399 0.298326 0
M  V30 1638 O 156.824 1.89929 0.182101 0
M  V30 1639 C 153.964 3.44845 -0.132534 0
M  V30 1640 C 153.077 4.15007 -1.19973 0
M  V30 1641 C 152.212 5.28024 -0.580048 0
M  V30 1642 C 151.251 5.9002 -1.62921 0
M  V30 1643 N 150.388 6.94485 -1.03125 0
M  V30 1644 H 155.228 2.50336 -1.61666 0
M  V30 1645 H 152.765 1.2293 -0.807882 0
M  V30 1646 H 154.723 4.16601 0.223454 0
M  V30 1647 H 153.353 3.14403 0.731467 0
M  V30 1648 H 152.405 3.41629 -1.67313 0
M  V30 1649 H 153.717 4.57178 -1.99473 0
M  V30 1650 H 152.871 6.06455 -0.172364 0
M  V30 1651 H 151.61 4.87076 0.246603 0
M  V30 1652 H 150.615 5.10291 -2.04654 0
M  V30 1653 H 151.84 6.33042 -2.45835 0
M  V30 1654 H 149.786 6.55612 -0.225711 0
M  V30 1655 H 149.703 7.35148 -1.76334 0
M  V30 1656 H 150.971 7.7679 -0.649458 0
M  V30 1657 N 155.201 0.870884 1.31352 0
M  V30 1658 C 156.131 0.343096 2.30966 0
M  V30 1659 C 157.112 -0.566507 1.60389 0
M  V30 1660 O 158.297 -0.483336 1.88089 0
M  V30 1661 C 155.427 -0.455487 3.443 0
M  V30 1662 C 154.381 0.361103 4.26474 0
M  V30 1663 C 153.707 -0.563221 5.31725 0
M  V30 1664 C 155.007 1.59566 4.97329 0
M  V30 1665 H 156.701 1.17548 2.75359 0
M  V30 1666 H 154.247 0.566686 1.32381 0
M  V30 1667 H 156.2 -0.83525 4.13039 0
M  V30 1668 H 154.924 -1.32139 2.98675 0
M  V30 1669 H 153.583 0.722825 3.59403 0
M  V30 1670 H 153.231 -1.42643 4.82351 0
M  V30 1671 H 152.931 -0.0207409 5.87596 0
M  V30 1672 H 154.455 -0.939808 6.03324 0
M  V30 1673 H 155.869 1.28728 5.58661 0
M  V30 1674 H 154.266 2.07728 5.63 0
M  V30 1675 H 155.336 2.34798 4.24262 0
M  V30 1676 N 156.679 -1.44442 0.630414 0
M  V30 1677 C 157.927 -2.01653 0.134351 0
M  V30 1678 C 158.248 -1.49836 -1.24796 0
M  V30 1679 O 157.518 -0.701684 -1.82902 0
M  V30 1680 H 156.098 -0.74554 0.0466769 0
M  V30 1681 H 158.76 -1.76952 0.816955 0
M  V30 1682 H 157.856 -3.11935 0.101498 0
M  V30 1683 N 158.157 -0.370918 -1.53173 0
M  V30 1684 C 159.404 0.217102 -2.01333 0
M  V30 1685 C 159.732 1.48338 -1.25802 0
M  V30 1686 O 158.987 1.92698 -0.34146 0
M  V30 1687 C 159.286 0.549696 -3.53147 0
M  V30 1688 C 158.952 -0.622872 -4.46577 0
M  V30 1689 C 157.614 -0.944595 -4.71838 0
M  V30 1690 C 159.966 -1.40819 -5.01816 0
M  V30 1691 C 157.294 -2.05351 -5.49589 0
M  V30 1692 C 159.646 -2.50757 -5.80778 0
M  V30 1693 C 158.31 -2.83458 -6.04324 0
M  V30 1694 H 157.58 0.0794431 -0.736729 0
M  V30 1695 H 160.227 -0.504481 -1.84736 0
M  V30 1696 H 158.532 1.35237 -3.6772 0
M  V30 1697 H 160.229 1.017 -3.87889 0
M  V30 1698 H 156.819 -0.36209 -4.27068 0
M  V30 1699 H 161.003 -1.17289 -4.82242 0
M  V30 1700 H 156.259 -2.3108 -5.6605 0
M  V30 1701 H 160.433 -3.12022 -6.22588 0
M  V30 1702 H 158.06 -3.69508 -6.64355 0
M  V30 1703 N 159.635 1.57281 -0.100228 0
M  V30 1704 C 160.545 2.17833 0.870965 0
M  V30 1705 C 161.561 1.14921 1.30649 0
M  V30 1706 O 162.737 1.47313 1.37335 0
M  V30 1707 C 159.802 2.75085 2.1102 0
M  V30 1708 C 158.863 3.9297 1.72838 0
M  V30 1709 C 158.096 4.47482 2.90854 0
M  V30 1710 O 158.319 4.00922 4.05731 0
M  V30 1711 O 157.253 5.38433 2.69023 0
M  V30 1712 H 161.079 3.0124 0.38575 0
M  V30 1713 H 158.664 1.48881 0.124397 0
M  V30 1714 H 160.546 3.11656 2.83634 0
M  V30 1715 H 159.221 1.94721 2.58584 0
M  V30 1716 H 158.128 3.61201 0.973883 0
M  V30 1717 H 159.461 4.74713 1.30033 0
M  V30 1718 N 161.113 -0.173488 1.56642 0
M  V30 1719 C 162.39 -0.917617 1.7274 0
M  V30 1720 C 162.77 -2.00484 0.661027 0
M  V30 1721 O 162.118 -2.26184 -0.32453 0
M  V30 1722 C 162.328 -1.48433 3.15862 0
M  V30 1723 C 163.676 -1.95809 3.76754 0
M  V30 1724 O 164.7 -1.58231 3.19126 0
M  V30 1725 O 163.559 -2.65024 4.77938 0
M  V30 1726 H 160.653 -0.431772 0.705338 0
M  V30 1727 H 163.199 -0.161487 1.6893 0
M  V30 1728 H 161.971 -0.701715 3.84957 0
M  V30 1729 H 161.594 -2.30471 3.23989 0
M  V30 1730 N 162.591 -1.51276 -0.441967 0
M  V30 1731 C 163.839 -1.63392 -1.18943 0
M  V30 1732 C 164.16 -0.350159 -1.9183 0
M  V30 1733 O 163.43 0.633784 -1.85364 0
M  V30 1734 H 162.01 -0.602164 -0.442049 0
M  V30 1735 H 164.672 -1.88186 -0.507165 0
M  V30 1736 H 163.768 -2.45934 -1.92154 0
M  V30 1737 N 164.069 0.697108 -1.41344 0
M  V30 1738 C 165.294 1.49096 -1.44171 0
M  V30 1739 C 165.719 1.88038 -0.0481568 0
M  V30 1740 O 165.077 1.54525 0.948243 0
M  V30 1741 C 165.125 2.73088 -2.3549 0
M  V30 1742 O 164.229 3.70514 -1.81088 0
M  V30 1743 H 163.57 0.448801 -0.489361 0
M  V30 1744 H 166.1 0.856992 -1.85787 0
M  V30 1745 H 166.11 3.21413 -2.51312 0
M  V30 1746 H 164.785 2.44081 -3.36745 0
M  V30 1747 H 163.362 3.29441 -1.74708 0
M  V30 1748 N 165.547 1.27147 0.931209 0
M  V30 1749 C 166.793 1.13446 1.68101 0
M  V30 1750 C 167.126 -0.319628 1.91552 0
M  V30 1751 O 166.401 -1.23407 1.50336 0
M  V30 1752 C 166.684 1.91482 3.0497 0
M  V30 1753 C 166.537 3.44855 2.88782 0
M  V30 1754 C 167.856 1.71651 4.05246 0
M  V30 1755 H 164.975 0.413498 0.610072 0
M  V30 1756 H 167.617 1.56261 1.08086 0
M  V30 1757 H 165.767 1.55095 3.56199 0
M  V30 1758 H 167.439 3.9105 2.44698 0
M  V30 1759 H 165.682 3.71373 2.24198 0
M  V30 1760 H 166.353 3.94694 3.85902 0
M  V30 1761 H 168.829 2.0337 3.63015 0
M  V30 1762 H 167.705 2.28651 4.99009 0
M  V30 1763 H 167.966 0.663555 4.37092 0
M  V30 1764 N 167.025 -1.13721 1.09112 0
M  V30 1765 C 167.955 -2.21148 0.749385 0
M  V30 1766 C 168.936 -1.6792 -0.271475 0
M  V30 1767 O 170.121 -1.93693 -0.140251 0
M  V30 1768 C 167.251 -3.46905 0.165659 0
M  V30 1769 C 166.205 -4.13203 1.11567 0
M  V30 1770 C 165.531 -5.33248 0.393809 0
M  V30 1771 C 166.831 -4.60912 2.45678 0
M  V30 1772 H 168.525 -2.4999 1.64758 0
M  V30 1773 H 166.071 -1.20156 0.793626 0
M  V30 1774 H 168.024 -4.21313 -0.085466 0
M  V30 1775 H 166.748 -3.17449 -0.767714 0
M  V30 1776 H 165.407 -3.40758 1.35202 0
M  V30 1777 H 165.055 -5.00054 -0.543599 0
M  V30 1778 H 164.755 -5.78552 1.02721 0
M  V30 1779 H 166.279 -6.10413 0.150908 0
M  V30 1780 H 167.693 -5.26759 2.26269 0
M  V30 1781 H 166.09 -5.16944 3.04776 0
M  V30 1782 H 167.16 -3.75603 3.06677 0
M  V30 1783 N 168.503 -0.877838 -1.30888 0
M  V30 1784 C 169.45 -0.337538 -2.28318 0
M  V30 1785 C 170.42 0.568346 -1.56074 0
M  V30 1786 O 171.605 0.498298 -1.84178 0
M  V30 1787 C 168.745 0.448142 -3.42178 0
M  V30 1788 C 167.858 -0.48615 -4.29256 0
M  V30 1789 C 166.993 0.314427 -5.30269 0
M  V30 1790 C 166.032 -0.615791 -6.08995 0
M  V30 1791 N 165.169 0.14902 -7.01942 0
M  V30 1792 H 170.009 -1.17356 -2.73919 0
M  V30 1793 H 167.546 -0.590094 -1.34745 0
M  V30 1794 H 169.504 0.919517 -4.06941 0
M  V30 1795 H 168.134 1.24879 -2.97666 0
M  V30 1796 H 167.186 -1.076 -3.64865 0
M  V30 1797 H 168.498 -1.19909 -4.84173 0
M  V30 1798 H 167.652 0.847969 -6.00745 0
M  V30 1799 H 166.391 1.06062 -4.76027 0
M  V30 1800 H 165.396 -1.16102 -5.37401 0
M  V30 1801 H 166.621 -1.36097 -6.65323 0
M  V30 1802 H 164.567 0.877884 -6.50099 0
M  V30 1803 H 164.484 -0.504433 -7.54315 0
M  V30 1804 H 165.752 0.663537 -7.76671 0
M  V30 1805 N 169.982 1.44106 -0.638065 0
M  V30 1806 C 170.914 2.28976 0.101205 0
M  V30 1807 C 171.927 1.4167 0.802088 0
M  V30 1808 O 173.116 1.65755 0.662375 0
M  V30 1809 C 170.216 3.18217 1.16581 0
M  V30 1810 C 169.389 4.33978 0.546066 0
M  V30 1811 C 168.448 5.04202 1.50554 0
M  V30 1812 O 167.474 5.59986 1.01999 0
M  V30 1813 N 168.676 5.06296 2.8398 0
M  V30 1814 H 171.441 2.93064 -0.627186 0
M  V30 1815 H 169.002 1.54629 -0.479731 0
M  V30 1816 H 170.994 3.62061 1.80815 0
M  V30 1817 H 169.564 2.55833 1.79634 0
M  V30 1818 H 168.784 3.93239 -0.275046 0
M  V30 1819 H 170.072 5.08675 0.112793 0
M  V30 1820 H 169.47 4.62319 3.26002 0
M  V30 1821 H 168.027 5.53907 3.43556 0
M  V30 1822 N 171.46 0.379036 1.52974 0
M  V30 1823 C 172.707 -0.206421 2.01445 0
M  V30 1824 C 173.035 -1.47668 1.26587 0
M  V30 1825 O 172.29 -1.92514 0.351675 0
M  V30 1826 C 172.589 -0.53096 3.53434 0
M  V30 1827 C 172.255 0.646546 4.46241 0
M  V30 1828 C 170.917 0.969604 4.7133 0
M  V30 1829 C 173.269 1.43479 5.01062 0
M  V30 1830 C 170.597 2.08263 5.48492 0
M  V30 1831 C 172.949 2.53834 5.7944 0
M  V30 1832 C 171.613 2.86659 6.02812 0
M  V30 1833 H 170.883 -0.0755349 0.73714 0
M  V30 1834 H 173.53 0.514271 1.84465 0
M  V30 1835 H 171.835 -1.33285 3.68432 0
M  V30 1836 H 173.532 -0.996417 3.88423 0
M  V30 1837 H 170.122 0.384734 4.2687 0
M  V30 1838 H 174.306 1.19844 4.81613 0
M  V30 1839 H 169.562 2.34078 5.64816 0
M  V30 1840 H 173.736 3.15319 6.20924 0
M  V30 1841 H 171.363 3.73026 6.62387 0
M  V30 1842 N 172.938 -1.57226 0.108567 0
M  V30 1843 C 173.868 -2.17778 -0.84232 0
M  V30 1844 C 174.849 -1.11487 -1.2847 0
M  V30 1845 O 176.034 -1.39681 -1.34918 0
M  V30 1846 C 173.164 -2.76888 -2.09644 0
M  V30 1847 C 172.118 -3.88669 -1.79221 0
M  V30 1848 C 171.444 -4.34541 -3.11574 0
M  V30 1849 C 172.744 -5.11251 -1.06864 0
M  V30 1850 H 174.438 -2.97489 -0.337774 0
M  V30 1851 H 171.984 -1.43097 -0.161025 0
M  V30 1852 H 173.937 -3.17904 -2.76614 0
M  V30 1853 H 172.661 -1.94451 -2.62405 0
M  V30 1854 H 171.32 -3.48213 -1.14644 0
M  V30 1855 H 170.968 -3.48977 -3.62249 0
M  V30 1856 H 170.668 -5.09914 -2.91996 0
M  V30 1857 H 172.192 -4.782 -3.7968 0
M  V30 1858 H 173.606 -5.49352 -1.63968 0
M  V30 1859 H 172.003 -5.9214 -0.974178 0
M  V30 1860 H 173.073 -4.8487 -0.0536168 0
M  V30 1861 N 174.416 0.165178 -1.56732 0
M  V30 1862 C 175.641 0.900253 -1.86843 0
M  V30 1863 C 176.066 1.74766 -0.695596 0
M  V30 1864 O 175.424 1.77786 0.35522 0
M  V30 1865 C 175.472 1.74777 -3.15413 0
M  V30 1866 O 174.576 2.85007 -2.98068 0
M  V30 1867 H 173.917 0.251832 -0.614391 0
M  V30 1868 H 176.447 0.161468 -2.03962 0
M  V30 1869 H 176.457 2.14646 -3.46974 0
M  V30 1870 H 175.132 1.12537 -4.00385 0
M  V30 1871 H 173.709 2.48676 -2.77875 0
M  V30 1872 N 175.894 1.51508 0.433938 0
M  V30 1873 C 176.804 1.75917 1.5521 0
M  V30 1874 C 177.82 0.643545 1.61662 0
M  V30 1875 O 178.996 0.926183 1.7884 0
M  V30 1876 C 176.061 1.88213 2.91164 0
M  V30 1877 C 175.122 3.12074 2.94802 0
M  V30 1878 C 174.355 3.23774 4.24271 0
M  V30 1879 O 174.578 2.4133 5.16833 0
M  V30 1880 O 173.512 4.16774 4.34262 0
M  V30 1881 H 177.338 2.70777 1.37527 0
M  V30 1882 H 174.923 1.36051 0.617293 0
M  V30 1883 H 176.805 1.98267 3.71845 0
M  V30 1884 H 175.48 0.965413 3.08968 0
M  V30 1885 H 174.387 3.07497 2.13065 0
M  V30 1886 H 175.72 4.03446 2.81943 0
M  V30 1887 N 177.372 -0.689602 1.41712 0
M  V30 1888 C 178.6 -1.47827 1.44758 0
M  V30 1889 C 179.015 -1.88721 0.0545703 0
M  V30 1890 O 178.372 -1.57176 -0.927463 0
M  V30 1891 C 178.423 -2.73698 2.3616 0
M  V30 1892 O 178.144 -2.34524 3.7004 0
M  V30 1893 C 179.645 -3.67389 2.48072 0
M  V30 1894 H 176.865 -0.455357 0.49284 0
M  V30 1895 H 179.409 -0.848574 1.86063 0
M  V30 1896 H 177.564 -3.32891 1.98148 0
M  V30 1897 H 177.978 -3.15701 4.18847 0
M  V30 1898 H 179.452 -4.52475 3.16181 0
M  V30 1899 H 179.929 -4.12284 1.51388 0
M  V30 1900 H 180.535 -3.14097 2.86746 0
M  V30 1901 N 178.85 -1.27639 -0.924453 0
M  V30 1902 C 179.76 -1.12466 -2.05885 0
M  V30 1903 C 180.776 -0.053869 -1.73917 0
M  V30 1904 O 181.952 -0.261012 -1.99702 0
M  V30 1905 C 179.017 -0.776768 -3.37886 0
M  V30 1906 C 178.078 -1.92878 -3.83532 0
M  V30 1907 C 177.311 -1.59739 -5.09234 0
M  V30 1908 O 177.534 -0.506782 -5.68144 0
M  V30 1909 O 176.468 -2.43761 -5.50331 0
M  V30 1910 H 180.294 -2.07671 -2.21599 0
M  V30 1911 H 177.879 -1.06857 -1.04413 0
M  V30 1912 H 179.761 -0.596229 -4.17161 0
M  V30 1913 H 178.436 0.145732 -3.23372 0
M  V30 1914 H 177.343 -2.1644 -3.0513 0
M  V30 1915 H 178.676 -2.8316 -4.02593 0
M  V30 1916 N 180.328 1.1314 -1.09713 0
M  V30 1917 C 181.275 2.18642 -0.739196 0
M  V30 1918 C 182.245 1.63706 0.280978 0
M  V30 1919 O 183.43 1.90111 0.161946 0
M  V30 1920 C 180.57 3.44685 -0.169102 0
M  V30 1921 C 179.683 4.13711 -1.24367 0
M  V30 1922 C 178.818 5.27379 -0.636019 0
M  V30 1923 C 177.857 5.88259 -1.69169 0
M  V30 1924 N 176.994 6.93352 -1.10485 0
M  V30 1925 H 181.834 2.48607 -1.64312 0
M  V30 1926 H 179.371 1.22066 -0.820875 0
M  V30 1927 H 181.329 4.16815 0.179256 0
M  V30 1928 H 179.959 3.15161 0.698079 0
M  V30 1929 H 179.011 3.39835 -1.70927 0
M  V30 1930 H 180.323 4.55037 -2.04311 0
M  V30 1931 H 179.477 6.06238 -0.236677 0
M  V30 1932 H 178.216 4.8731 0.194928 0
M  V30 1933 H 177.221 5.08092 -2.10055 0
M  V30 1934 H 178.446 6.30399 -2.52536 0
M  V30 1935 H 176.392 6.55335 -0.295234 0
M  V30 1936 H 176.309 7.33236 -1.84121 0
M  V30 1937 H 177.577 7.76057 -0.73181 0
M  V30 1938 N 181.806 0.884767 1.30421 0
M  V30 1939 C 182.739 0.295999 2.26272 0
M  V30 1940 C 183.717 -0.58332 1.51777 0
M  V30 1941 O 184.901 -0.53346 1.80794 0
M  V30 1942 C 182.028 -0.57944 3.33707 0
M  V30 1943 C 181.074 0.230525 4.25877 0
M  V30 1944 S 181.907 1.61867 5.1045 0
M  V30 1945 C 183.063 0.749756 6.21393 0
M  V30 1946 H 183.296 1.10848 2.75862 0
M  V30 1947 H 180.829 0.684178 1.38414 0
M  V30 1948 H 182.787 -1.07879 3.96071 0
M  V30 1949 H 181.448 -1.36601 2.82841 0
M  V30 1950 H 180.641 -0.437542 5.02097 0
M  V30 1951 H 180.243 0.662493 3.68086 0
M  V30 1952 H 182.535 -0.0333547 6.77492 0
M  V30 1953 H 183.478 1.48356 6.92384 0
M  V30 1954 H 183.886 0.310751 5.63644 0
M  V30 1955 N 183.284 -1.43765 0.645699 0
M  V30 1956 C 184.509 -2.06767 0.161883 0
M  V30 1957 C 184.934 -1.48034 -1.16049 0
M  V30 1958 O 184.292 -0.587369 -1.71522 0
M  V30 1959 C 184.34 -3.60519 0.0762003 0
M  V30 1960 O 183.444 -4.00982 -0.963721 0
M  V30 1961 H 182.785 -0.657675 0.091429 0
M  V30 1962 H 185.315 -1.84397 0.886499 0
M  V30 1963 H 185.325 -4.07853 -0.109604 0
M  V30 1964 H 184 -4.02646 1.04157 0
M  V30 1965 H 182.577 -3.65253 -0.751312 0
M  V30 1966 N 184.763 -0.387143 -1.52771 0
M  V30 1967 C 186.174 0.0873634 -1.86495 0
M  V30 1968 C 186.525 1.46336 -1.30691 0
M  V30 1969 O 185.65 2.068 -0.637409 0
M  V30 1970 C 186.245 0.165305 -3.38396 0
M  V30 1971 C 184.804 0.584101 -3.7184 0
M  V30 1972 C 183.951 -0.255279 -2.76122 0
M  V30 1973 H 186.902 -0.605104 -1.46711 0
M  V30 1974 H 186.923 0.984848 -3.67534 0
M  V30 1975 H 186.435 -0.836301 -3.78982 0
M  V30 1976 H 184.536 1.59315 -3.36823 0
M  V30 1977 H 184.649 0.343749 -4.77865 0
M  V30 1978 H 183.013 0.279126 -2.53166 0
M  V30 1979 H 183.796 -1.25482 -3.19545 0
M  V30 1980 N 186.241 1.57166 -0.116904 0
M  V30 1981 C 187.151 2.18745 0.847812 0
M  V30 1982 C 188.167 1.163 1.29423 0
M  V30 1983 O 189.343 1.48761 1.35765 0
M  V30 1984 C 186.408 2.77307 2.0809 0
M  V30 1985 C 185.469 3.94781 1.68661 0
M  V30 1986 C 184.702 4.50541 2.86091 0
M  V30 1987 O 184.925 4.05202 4.01456 0
M  V30 1988 O 183.859 5.41256 2.63298 0
M  V30 1989 H 187.685 3.01632 0.353778 0
M  V30 1990 H 185.27 1.49005 0.108599 0
M  V30 1991 H 187.152 3.14647 2.80313 0
M  V30 1992 H 185.827 1.97452 2.56504 0
M  V30 1993 H 184.734 3.62214 0.935518 0
M  V30 1994 H 186.067 4.76065 1.24991 0
M  V30 1995 N 187.719 -0.156864 1.56817 0
M  V30 1996 C 188.996 -0.899244 1.73704 0
M  V30 1997 C 189.376 -1.99771 0.682254 0
M  V30 1998 O 188.724 -2.26515 -0.300522 0
M  V30 1999 C 188.934 -1.45075 3.17418 0
M  V30 2000 C 190.282 -1.91802 3.7881 0
M  V30 2001 O 191.306 -1.54838 3.20786 0
M  V30 2002 O 190.165 -2.5994 4.80722 0
M  V30 2003 H 187.259 -0.424267 0.709878 0
M  V30 2004 H 189.805 -0.143561 1.69092 0
M  V30 2005 H 188.577 -0.660846 3.85679 0
M  V30 2006 H 188.2 -2.27021 3.26416 0
M  V30 2007 N 189.197 -1.51736 -0.425897 0
M  V30 2008 C 190.613 -1.40166 -0.76326 0
M  V30 2009 C 190.813 -0.492962 -1.95377 0
M  V30 2010 O 189.869 0.0475815 -2.52455 0
M  V30 2011 C 191.182 -2.82403 -1.03291 0
M  V30 2012 C 192.73 -2.91632 -1.13665 0
M  V30 2013 C 193.205 -4.34801 -1.43916 0
M  V30 2014 N 194.696 -4.3796 -1.50816 0
M  V30 2015 C 195.431 -5.4578 -1.75817 0
M  V30 2016 N 194.927 -6.63744 -1.98534 0
M  V30 2017 N 196.72 -5.33274 -1.77694 0
M  V30 2018 H 188.871 -2.09361 0.358 0
M  V30 2019 H 191.134 -0.942941 0.0978094 0
M  V30 2020 H 190.84 -3.50943 -0.230696 0
M  V30 2021 H 190.714 -3.22428 -1.95754 0
M  V30 2022 H 193.101 -2.23284 -1.92947 0
M  V30 2023 H 193.182 -2.55088 -0.190756 0
M  V30 2024 H 192.826 -5.03703 -0.65157 0
M  V30 2025 H 192.756 -4.68868 -2.39729 0
M  V30 2026 H 195.247 -3.52919 -1.35118 0
M  V30 2027 H 195.56 -7.41704 -2.17013 0
M  V30 2028 H 193.905 -6.66839 -1.95832 0
M  V30 2029 H 197.096 -4.40098 -1.59473 0
M  V30 2030 H 197.269 -6.1738 -1.9684 0
M  V30 2031 N 190.675 0.682077 -1.42076 0
M  V30 2032 C 191.638 1.77756 -1.44691 0
M  V30 2033 C 192.638 1.5726 -0.335535 0
M  V30 2034 O 193.828 1.63686 -0.596037 0
M  V30 2035 C 190.96 3.16301 -1.27146 0
M  V30 2036 H 192.153 1.76826 -2.42224 0
M  V30 2037 H 189.706 0.891012 -1.28416 0
M  V30 2038 H 190.441 3.22862 -0.305075 0
M  V30 2039 H 190.226 3.32581 -2.07683 0
M  V30 2040 H 191.716 3.96241 -1.31843 0
M  V30 2041 N 192.153 1.28127 0.917671 0
M  V30 2042 C 193.1 1.11717 2.0196 0
M  V30 2043 C 194.07 0.0153929 1.66093 0
M  V30 2044 O 195.255 0.179596 1.89953 0
M  V30 2045 C 192.395 0.780927 3.36148 0
M  V30 2046 C 191.508 1.96135 3.84909 0
M  V30 2047 C 190.643 1.56609 5.0759 0
M  V30 2048 C 189.682 2.71339 5.48673 0
M  V30 2049 N 188.819 2.32332 6.62545 0
M  V30 2050 H 193.659 2.06003 2.15329 0
M  V30 2051 H 191.196 1.02535 1.05475 0
M  V30 2052 H 193.154 0.56675 4.13333 0
M  V30 2053 H 191.784 -0.124998 3.22558 0
M  V30 2054 H 190.836 2.28777 3.03916 0
M  V30 2055 H 192.148 2.82165 4.1132 0
M  V30 2056 H 191.302 1.31374 5.92305 0
M  V30 2057 H 190.041 0.677014 4.82978 0
M  V30 2058 H 189.046 2.97276 4.62501 0
M  V30 2059 H 190.271 3.60882 5.75274 0
M  V30 2060 H 188.217 1.45889 6.39572 0
M  V30 2061 H 188.134 3.11899 6.88662 0
M  V30 2062 H 189.402 2.10371 7.50576 0
M  V30 2063 N 193.631 -1.12557 1.10312 0
M  V30 2064 C 194.871 -1.8568 0.854543 0
M  V30 2065 C 195.235 -1.82091 -0.608843 0
M  V30 2066 O 196.436 -2.50544 -0.973717 0
M  V30 2067 C 194.707 -3.2942 1.38626 0
M  V30 2068 S 196.266 -4.19931 1.27293 0
M  V30 2069 H 193.084 -0.640427 0.308827 0
M  V30 2070 H 195.686 -1.35599 1.40831 0
M  V30 2071 H 194.39 -3.2959 2.44537 0
M  V30 2072 H 193.921 -3.84566 0.82902 0
M  V30 2073 H 195.936 -4.95668 0.229776 0
M  V30 2074 N 195.109 -0.891671 -1.2995 0
M  V30 2075 C 196.356 -0.513501 -1.95881 0
M  V30 2076 C 196.684 0.938655 -1.70351 0
M  V30 2077 O 195.939 1.67936 -1.00478 0
M  V30 2078 C 196.238 -0.742868 -3.49594 0
M  V30 2079 C 195.904 -2.17114 -3.95186 0
M  V30 2080 C 194.566 -2.56169 -4.07346 0
M  V30 2081 C 196.918 -3.10162 -4.18866 0
M  V30 2082 C 194.246 -3.87469 -4.4055 0
M  V30 2083 C 196.598 -4.41001 -4.53542 0
M  V30 2084 C 195.262 -4.79941 -4.63911 0
M  V30 2085 H 194.532 -0.187903 -0.71678 0
M  V30 2086 H 197.179 -1.1288 -1.54694 0
M  V30 2087 H 195.484 -0.044586 -3.91775 0
M  V30 2088 H 197.181 -0.429767 -3.9869 0
M  V30 2089 H 193.771 -1.85801 -3.86233 0
M  V30 2090 H 197.955 -2.81206 -4.08946 0
M  V30 2091 H 193.211 -4.17371 -4.46779 0
M  V30 2092 H 197.385 -5.13133 -4.70815 0
M  V30 2093 H 195.012 -5.81719 -4.89395 0
M  V30 2094 N 196.587 1.43421 -0.653314 0
M  V30 2095 C 197.497 2.34568 0.0388565 0
M  V30 2096 C 198.513 1.53888 0.81207 0
M  V30 2097 O 199.689 1.86539 0.759294 0
M  V30 2098 C 196.754 3.32167 0.993269 0
M  V30 2099 C 195.815 4.28751 0.216977 0
M  V30 2100 C 195.048 5.21688 1.12593 0
M  V30 2101 O 195.271 5.19052 2.36519 0
M  V30 2102 O 194.205 5.98919 0.598284 0
M  V30 2103 H 198.031 2.95251 -0.711386 0
M  V30 2104 H 195.616 1.43564 -0.413502 0
M  V30 2105 H 197.498 3.92183 1.54176 0
M  V30 2106 H 196.173 2.73987 1.72374 0
M  V30 2107 H 195.08 3.72215 -0.375101 0
M  V30 2108 H 196.413 4.89913 -0.473924 0
M  V30 2109 N 198.065 0.39524 1.52563 0
M  V30 2110 C 199.012 -0.437036 2.26624 0
M  V30 2111 C 199.982 -1.05281 1.28472 0
M  V30 2112 O 201.167 -1.07971 1.57311 0
M  V30 2113 C 198.307 -1.55524 3.08069 0
M  V30 2114 C 197.42 -0.961745 4.21158 0
M  V30 2115 C 196.555 -2.05149 4.89987 0
M  V30 2116 C 195.594 -1.4342 5.95061 0
M  V30 2117 N 194.731 -2.46351 6.57462 0
M  V30 2118 H 199.571 0.200976 2.97322 0
M  V30 2119 H 197.108 0.110944 1.46681 0
M  V30 2120 H 199.066 -2.21437 3.53584 0
M  V30 2121 H 197.696 -2.16348 2.3957 0
M  V30 2122 H 196.748 -0.192048 3.79915 0
M  V30 2123 H 198.06 -0.470701 4.96574 0
M  V30 2124 H 197.214 -2.78819 5.38837 0
M  V30 2125 H 195.953 -2.57615 4.14109 0
M  V30 2126 H 194.958 -0.682774 5.45544 0
M  V30 2127 H 196.183 -0.917416 6.72875 0
M  V30 2128 H 194.129 -2.97975 5.8442 0
M  V30 2129 H 194.046 -2.02019 7.28508 0
M  V30 2130 H 195.314 -3.19633 7.10954 0
M  V30 2131 N 199.544 -1.57102 0.125237 0
M  V30 2132 C 200.492 -2.16905 -0.839927 0
M  V30 2133 C 201.486 -1.11998 -1.27094 0
M  V30 2134 O 202.692 -1.3029 -1.24195 0
M  V30 2135 H 199.067 -0.694252 -0.288995 0
M  V30 2136 H 201.038 -2.96774 -0.311115 0
M  V30 2137 C 199.787 -2.78795 -2.07771 0
M  V30 2138 H 199.11 -3.59221 -1.755 0
M  V30 2139 H 200.55 -3.2417 -2.73295 0
M  V30 2140 C 199.009 -1.76193 -2.87155 0
M  V30 2141 O 199.539 -1.21909 -3.82755 0
M  V30 2142 N 197.745 -1.45991 -2.51267 0
M  V30 2143 H 197.292 -1.90325 -1.73592 0
M  V30 2144 H 197.25 -0.775844 -3.04677 0
M  V30 2145 N 201.022 0.148545 -1.56898 0
M  V30 2146 C 201.932 1.20293 -2.01412 0
M  V30 2147 C 202.948 1.47107 -0.929273 0
M  V30 2148 O 204.124 1.58807 -1.23863 0
M  V30 2149 C 201.189 2.51682 -2.38447 0
M  V30 2150 C 200.25 2.32529 -3.60872 0
M  V30 2151 C 199.483 3.57653 -3.96132 0
M  V30 2152 O 199.706 4.63771 -3.32073 0
M  V30 2153 O 198.64 3.50408 -4.89385 0
M  V30 2154 H 202.466 0.855025 -2.91416 0
M  V30 2155 H 200.051 0.357151 -1.45068 0
M  V30 2156 H 201.933 3.29147 -2.63135 0
M  V30 2157 H 200.608 2.86006 -1.51599 0
M  V30 2158 H 199.515 1.53019 -3.41373 0
M  V30 2159 H 200.848 2.03121 -4.48333 0
M  V30 2160 N 202.5 1.5196 0.417844 0
M  V30 2161 C 203.463 1.74065 1.49111 0
M  V30 2162 C 204.463 0.610537 1.48758 0
M  V30 2163 O 205.653 0.87832 1.50437 0
M  V30 2164 C 202.785 1.81502 2.88565 0
M  V30 2165 H 203.978 2.69869 1.30807 0
M  V30 2166 H 201.531 1.42244 0.647785 0
M  V30 2167 H 202.266 0.875813 3.1225 0
M  V30 2168 H 202.051 2.63651 2.90225 0
M  V30 2169 H 203.541 2.00376 3.66387 0
M  V30 2170 N 203.978 -0.674533 1.42435 0
M  V30 2171 C 205.227 -1.43034 1.42212 0
M  V30 2172 C 205.54 -1.95555 0.0420788 0
M  V30 2173 O 206.746 -2.71374 -0.0827558 0
M  V30 2174 C 205.202 -2.58748 2.50155 0
M  V30 2175 C 204.81 -2.12925 3.94166 0
M  V30 2176 C 206.554 -3.36257 2.59098 0
M  V30 2177 C 204.461 -3.25723 4.93618 0
M  V30 2178 H 203.391 -0.537345 0.528939 0
M  V30 2179 H 206.042 -0.73024 1.68344 0
M  V30 2180 H 204.424 -3.31128 2.17188 0
M  V30 2181 H 205.598 -1.47697 4.36488 0
M  V30 2182 H 203.913 -1.48354 3.89076 0
M  V30 2183 H 206.51 -4.20264 3.30578 0
M  V30 2184 H 206.853 -3.82866 1.63461 0
M  V30 2185 H 207.386 -2.70947 2.9126 0
M  V30 2186 H 204.125 -2.84105 5.90732 0
M  V30 2187 H 203.645 -3.89732 4.55926 0
M  V30 2188 H 205.324 -3.91186 5.15347 0
M  V30 2189 N 205.456 -1.28612 -0.910864 0
M  V30 2190 C 206.388 -1.08589 -2.01844 0
M  V30 2191 C 207.401 -0.0367419 -1.62759 0
M  V30 2192 O 208.59 -0.280101 -1.76289 0
M  V30 2193 C 205.69 -0.628626 -3.33019 0
M  V30 2194 C 204.863 -1.75382 -4.00699 0
M  V30 2195 C 203.922 -1.28945 -5.10156 0
M  V30 2196 O 202.948 -1.9922 -5.33198 0
M  V30 2197 N 204.15 -0.154224 -5.80295 0
M  V30 2198 H 206.915 -2.03973 -2.19579 0
M  V30 2199 H 204.476 -1.20403 -1.08234 0
M  V30 2200 H 206.468 -0.301508 -4.03575 0
M  V30 2201 H 205.038 0.232451 -3.11735 0
M  V30 2202 H 204.258 -2.25039 -3.23653 0
M  V30 2203 H 205.546 -2.50854 -4.42662 0
M  V30 2204 H 204.944 0.43194 -5.64049 0
M  V30 2205 H 203.501 0.113599 -6.51701 0
M  V30 2206 N 206.934 1.1197 -1.10907 0
M  V30 2207 C 207.897 2.16031 -0.765707 0
M  V30 2208 C 208.897 1.59393 0.212235 0
M  V30 2209 O 210.087 1.74196 -0.0115441 0
M  V30 2210 C 207.219 3.40632 -0.135053 0
M  V30 2211 H 208.412 2.47919 -1.68748 0
M  V30 2212 H 205.965 1.27061 -0.910226 0
M  V30 2213 H 206.7 3.14348 0.797218 0
M  V30 2214 H 206.485 3.8302 -0.838937 0
M  V30 2215 H 207.975 4.17505 0.0892469 0
M  V30 2216 N 208.412 0.89855 1.29475 0
M  V30 2217 C 209.375 0.380272 2.26023 0
M  V30 2218 C 210.375 -0.484891 1.53315 0
M  V30 2219 O 211.565 -0.290108 1.71767 0
M  V30 2220 C 208.697 -0.45651 3.3783 0
M  V30 2221 H 209.89 1.23295 2.73383 0
M  V30 2222 H 207.443 0.676589 1.40897 0
M  V30 2223 H 208.178 -1.32922 2.95808 0
M  V30 2224 H 207.963 0.163393 3.91759 0
M  V30 2225 H 209.453 -0.810466 4.0966 0
M  V30 2226 N 209.89 -1.43072 0.660911 0
M  V30 2227 C 210.84 -2.27948 -0.04847 0
M  V30 2228 C 211.824 -1.40325 -0.787246 0
M  V30 2229 O 213.016 -1.63893 -0.668446 0
M  V30 2230 C 210.145 -3.28143 -1.00881 0
M  V30 2231 C 209.231 -4.23252 -0.268108 0
M  V30 2232 N 209.622 -5.00656 0.719528 0
M  V30 2233 C 207.92 -4.43092 -0.508493 0
M  V30 2234 C 208.621 -5.70019 1.15988 0
M  V30 2235 N 207.597 -5.41364 0.492584 0
M  V30 2236 H 211.399 -2.85213 0.709279 0
M  V30 2237 H 208.913 -1.54869 0.488822 0
M  V30 2238 H 210.91 -3.87736 -1.53188 0
M  V30 2239 H 209.57 -2.7244 -1.76654 0
M  V30 2240 H 210.581 -5.06115 1.09855 0
M  V30 2241 H 207.258 -3.98449 -1.24679 0
M  V30 2242 H 208.648 -6.4214 1.97751 0
M  V30 2243 N 211.368 -0.403325 -1.52352 0
M  V30 2244 C 212.645 0.232611 -1.94212 0
M  V30 2245 C 213.025 1.63133 -1.33981 0
M  V30 2246 O 212.373 2.22659 -0.513344 0
M  V30 2247 C 212.583 0.244811 -3.4814 0
M  V30 2248 C 213.931 0.46698 -4.22024 0
M  V30 2249 O 214.955 0.324419 -3.5472 0
M  V30 2250 O 213.814 0.74747 -5.41364 0
M  V30 2251 H 210.908 0.148223 -0.813609 0
M  V30 2252 H 213.454 -0.458848 -1.63379 0
M  V30 2253 H 212.226 -0.734378 -3.84347 0
M  V30 2254 H 211.849 0.980611 -3.85318 0
M  V30 2255 N 212.846 1.57033 -0.133567 0
M  V30 2256 C 213.809 2.14897 0.796995 0
M  V30 2257 C 214.809 1.0874 1.18458 0
M  V30 2258 O 215.999 1.34446 1.1077 0
M  V30 2259 C 213.131 2.70112 2.07973 0
M  V30 2260 H 214.324 2.98457 0.293873 0
M  V30 2261 H 211.877 1.55871 0.115787 0
M  V30 2262 H 212.612 1.9018 2.62682 0
M  V30 2263 H 212.397 3.47764 1.81115 0
M  V30 2264 H 213.887 3.14738 2.74462 0
M  V30 2265 N 214.325 -0.140222 1.56975 0
M  V30 2266 C 215.571 -0.852949 1.83991 0
M  V30 2267 C 215.904 -1.80512 0.716187 0
M  V30 2268 O 215.179 -1.92479 -0.279681 0
M  V30 2269 C 215.462 -1.6215 3.21527 0
M  V30 2270 C 215.315 -0.690363 4.4447 0
M  V30 2271 C 216.634 -2.58247 3.56366 0
M  V30 2272 H 213.753 -0.308634 0.669264 0
M  V30 2273 H 216.395 -0.117898 1.89634 0
M  V30 2274 H 214.545 -2.24812 3.16847 0
M  V30 2275 H 216.217 -0.0742264 4.6124 0
M  V30 2276 H 214.46 -0.000396433 4.338 0
M  V30 2277 H 215.131 -1.2643 5.37326 0
M  V30 2278 H 217.607 -2.05701 3.61699 0
M  V30 2279 H 216.483 -3.09067 4.53617 0
M  V30 2280 H 216.744 -3.39923 2.82674 0
M  V30 2281 N 215.803 -1.52179 -0.40978 0
M  V30 2282 C 216.766 -1.74853 -1.48186 0
M  V30 2283 C 217.766 -0.618417 -1.48433 0
M  V30 2284 O 218.956 -0.886286 -1.49969 0
M  V30 2285 C 216.088 -1.8303 -2.87598 0
M  V30 2286 H 217.281 -2.70559 -1.29374 0
M  V30 2287 H 214.834 -1.42586 -0.640233 0
M  V30 2288 H 215.569 -0.89236 -3.11781 0
M  V30 2289 H 215.354 -2.65187 -2.88822 0
M  V30 2290 H 216.844 -2.02316 -3.65319 0
M  V30 2291 N 217.281 0.66697 -1.42791 0
M  V30 2292 C 218.213 1.7925 -1.42836 0
M  V30 2293 C 219.226 1.59496 -0.326333 0
M  V30 2294 O 220.415 1.6847 -0.589916 0
M  V30 2295 C 217.515 3.16476 -1.21229 0
M  V30 2296 C 216.688 3.63011 -2.44013 0
M  V30 2297 C 215.747 4.78993 -2.17834 0
M  V30 2298 O 214.773 4.89137 -2.91091 0
M  V30 2299 N 215.975 5.68248 -1.18635 0
M  V30 2300 H 218.74 1.79695 -2.39854 0
M  V30 2301 H 216.301 0.850338 -1.37771 0
M  V30 2302 H 218.293 3.91734 -1.01621 0
M  V30 2303 H 216.863 3.10884 -0.32706 0
M  V30 2304 H 216.083 2.78346 -2.79137 0
M  V30 2305 H 217.371 3.90845 -3.25757 0
M  V30 2306 H 216.769 5.62712 -0.580615 0
M  V30 2307 H 215.326 6.43285 -1.05013 0
M  V30 2308 N 218.759 1.29093 0.90403 0
M  V30 2309 C 219.669 1.15727 2.0407 0
M  V30 2310 C 220.685 0.0815308 1.73809 0
M  V30 2311 O 221.861 0.292749 1.99261 0
M  V30 2312 C 218.926 0.830424 3.36608 0
M  V30 2313 C 217.987 1.98955 3.80415 0
M  V30 2314 C 217.22 1.6782 5.06628 0
M  V30 2315 O 217.443 0.597105 5.67266 0
M  V30 2316 O 216.377 2.52486 5.46383 0
M  V30 2317 H 220.203 2.11171 2.18267 0
M  V30 2318 H 217.788 1.08504 1.027 0
M  V30 2319 H 219.67 0.662521 4.16159 0
M  V30 2320 H 218.345 -0.0942678 3.23563 0
M  V30 2321 H 217.252 2.21267 3.01648 0
M  V30 2322 H 218.585 2.89529 3.98037 0
M  V30 2323 N 220.237 -1.11381 1.11499 0
M  V30 2324 C 221.485 -1.8277 0.862524 0
M  V30 2325 C 221.806 -1.85097 -0.613534 0
M  V30 2326 O 221.076 -1.32198 -1.4457 0
M  V30 2327 H 219.656 -0.676823 0.316101 0
M  V30 2328 H 222.318 -1.34816 1.4075 0
M  V30 2329 H 221.414 -2.86614 1.23527 0
M  V30 2330 N 221.715 -0.905404 -1.28997 0
M  V30 2331 C 222.647 -0.344748 -2.26592 0
M  V30 2332 C 223.66 0.512135 -1.54535 0
M  V30 2333 O 224.849 0.328368 -1.75454 0
M  V30 2334 C 221.949 0.526587 -3.34784 0
M  V30 2335 C 221.122 -0.305871 -4.36329 0
M  V30 2336 C 220.181 0.499209 -5.23827 0
M  V30 2337 O 219.207 -0.0853004 -5.69136 0
M  V30 2338 N 220.409 1.80408 -5.51755 0
M  V30 2339 H 223.174 -1.18359 -2.75338 0
M  V30 2340 H 220.735 -0.770481 -1.42391 0
M  V30 2341 H 222.727 1.07171 -3.90252 0
M  V30 2342 H 221.297 1.26613 -2.85811 0
M  V30 2343 H 220.517 -1.0324 -3.80441 0
M  V30 2344 H 221.805 -0.875773 -5.01206 0
M  V30 2345 H 221.203 2.3016 -5.16762 0
M  V30 2346 H 219.76 2.29621 -6.10014 0
M  V30 2347 N 223.193 1.4272 -0.668489 0
M  V30 2348 C 224.433 2.03497 -0.19194 0
M  V30 2349 C 224.797 1.51684 1.17712 0
M  V30 2350 O 225.998 2.04205 1.74796 0
M  V30 2351 C 224.269 3.56734 -0.218032 0
M  V30 2352 S 225.828 4.38395 0.188438 0
M  V30 2353 H 222.646 0.706542 -0.0794959 0
M  V30 2354 H 225.248 1.74563 -0.880235 0
M  V30 2355 H 223.952 3.91943 -1.2169 0
M  V30 2356 H 223.483 3.90333 0.490303 0
M  V30 2357 H 225.498 4.75345 1.42345 0
M  V30 2358 N 224.671 0.411399 1.52136 0
M  V30 2359 C 226.087 0.0623865 1.59478 0
M  V30 2360 C 226.287 -1.42554 1.4241 0
M  V30 2361 O 225.343 -2.19263 1.2522 0
M  V30 2362 C 226.656 0.559331 2.95452 0
M  V30 2363 C 228.204 0.517503 3.08692 0
M  V30 2364 C 228.679 0.990994 4.4715 0
M  V30 2365 N 230.17 0.947908 4.53397 0
M  V30 2366 C 230.905 1.28544 5.58806 0
M  V30 2367 N 230.401 1.69454 6.71757 0
M  V30 2368 N 232.194 1.20526 5.49026 0
M  V30 2369 H 224.345 1.37982 1.61477 0
M  V30 2370 H 226.608 0.566977 0.759764 0
M  V30 2371 H 226.314 1.59938 3.1323 0
M  V30 2372 H 226.188 -0.0298014 3.77188 0
M  V30 2373 H 228.575 -0.513505 2.90598 0
M  V30 2374 H 228.656 1.14272 2.28857 0
M  V30 2375 H 228.3 2.02034 4.65988 0
M  V30 2376 H 228.23 0.34257 5.25485 0
M  V30 2377 H 230.721 0.647157 3.72317 0
M  V30 2378 H 231.034 1.93513 7.48179 0
M  V30 2379 H 229.379 1.73359 6.73032 0
M  V30 2380 H 232.57 0.884505 4.59667 0
M  V30 2381 H 232.743 1.47161 6.31069 0
M  V30 2382 N 226.149 -1.5696 0.141893 0
M  V30 2383 C 227.395 -1.9625 -0.511248 0
M  V30 2384 C 227.728 -1.02654 -1.64851 0
M  V30 2385 O 227.003 -0.0679676 -1.94381 0
M  V30 2386 C 227.286 -3.45285 -1.02227 0
M  V30 2387 C 227.139 -4.49658 0.113138 0
M  V30 2388 C 228.458 -3.96698 -1.90574 0
M  V30 2389 H 225.577 -0.713567 -0.184367 0
M  V30 2390 H 228.219 -1.88698 0.222087 0
M  V30 2391 H 226.369 -3.51852 -1.64719 0
M  V30 2392 H 228.041 -4.55174 0.749302 0
M  V30 2393 H 226.284 -4.26857 0.773026 0
M  V30 2394 H 226.955 -5.51258 -0.286053 0
M  V30 2395 H 229.431 -3.92578 -1.37918 0
M  V30 2396 H 228.307 -5.01453 -2.2324 0
M  V30 2397 H 228.568 -3.3875 -2.84079 0
M  V30 2398 N 227.627 0.131896 -1.57047 0
M  V30 2399 C 228.904 0.871495 -1.75112 0
M  V30 2400 C 229.284 1.9866 -0.713949 0
M  V30 2401 O 228.632 2.26965 0.264447 0
M  V30 2402 C 228.842 1.40007 -3.19686 0
M  V30 2403 C 230.19 1.85752 -3.81813 0
M  V30 2404 O 231.214 1.49715 -3.23209 0
M  V30 2405 O 230.073 2.5226 -4.84796 0
M  V30 2406 H 227.167 0.412919 -0.716538 0
M  V30 2407 H 229.713 0.116641 -1.69299 0
M  V30 2408 H 228.485 0.599404 -3.86682 0
M  V30 2409 H 228.108 2.218 -3.29986 0
M  V30 2410 N 229.106 1.52395 0.401703 0
M  V30 2411 C 230.383 1.57387 1.16141 0
M  V30 2412 C 230.763 0.359359 2.08019 0
M  V30 2413 O 230.111 -0.65326 2.18963 0
M  V30 2414 C 230.321 2.90631 1.93221 0
M  V30 2415 C 231.669 3.43904 2.49028 0
M  V30 2416 O 232.693 2.92421 2.03393 0
M  V30 2417 O 231.552 4.33823 3.32356 0
M  V30 2418 H 228.646 0.634262 0.530698 0
M  V30 2419 H 231.192 1.64725 0.407883 0
M  V30 2420 H 229.964 3.70473 1.25958 0
M  V30 2421 H 229.587 2.8662 2.75563 0
M  V30 2422 N 230.584 -0.659388 1.43143 0
M  V30 2423 C 231.531 -1.77249 1.47822 0
M  V30 2424 C 232.501 -1.62818 0.328558 0
M  V30 2425 O 233.686 -1.83151 0.534838 0
M  V30 2426 C 230.826 -3.15371 1.40126 0
M  V30 2427 C 229.939 -3.4098 2.65249 0
M  V30 2428 C 229.074 -4.68915 2.49584 0
M  V30 2429 C 228.113 -4.87608 3.70006 0
M  V30 2430 N 227.25 -6.06796 3.53189 0
M  V30 2431 H 232.09 -1.72584 2.42938 0
M  V30 2432 H 229.627 -0.842297 1.20598 0
M  V30 2433 H 231.585 -3.9521 1.33659 0
M  V30 2434 H 230.215 -3.19121 0.485964 0
M  V30 2435 H 229.267 -2.55282 2.8202 0
M  V30 2436 H 230.579 -3.50681 3.54717 0
M  V30 2437 H 229.733 -5.56871 2.4079 0
M  V30 2438 H 228.472 -4.61524 1.5763 0
M  V30 2439 H 227.477 -3.9809 3.79215 0
M  V30 2440 H 228.702 -4.96834 4.62961 0
M  V30 2441 H 226.648 -6.00549 2.63965 0
M  V30 2442 H 226.565 -6.17428 4.36255 0
M  V30 2443 H 227.833 -6.9739 3.48236 0
M  V30 2444 N 232.062 -1.29571 -0.897171 0
M  V30 2445 C 233.308 -1.17863 -1.65034 0
M  V30 2446 C 233.641 0.268729 -1.92332 0
M  V30 2447 O 232.916 1.19378 -1.53555 0
M  V30 2448 C 233.199 -1.995 -2.99786 0
M  V30 2449 C 233.052 -3.5239 -2.79538 0
M  V30 2450 C 234.371 -1.82335 -4.00552 0
M  V30 2451 H 231.49 -0.429528 -0.598895 0
M  V30 2452 H 234.132 -1.59072 -1.03905 0
M  V30 2453 H 232.282 -1.64485 -3.51962 0
M  V30 2454 H 233.954 -3.97401 -2.34244 0
M  V30 2455 H 232.197 -3.77187 -2.14273 0
M  V30 2456 H 232.868 -4.04787 -3.75302 0
M  V30 2457 H 235.344 -2.12924 -3.57495 0
M  V30 2458 H 234.22 -2.41801 -4.92771 0
M  V30 2459 H 234.481 -0.779209 -4.35179 0
M  V30 2460 N 233.54 1.10788 -1.12088 0
M  V30 2461 C 234.488 2.19111 -0.780587 0
M  V30 2462 C 235.482 1.67818 0.230961 0
M  V30 2463 O 236.688 1.79777 0.0895427 0
M  V30 2464 H 233.063 0.714477 -0.234578 0
M  V30 2465 H 235.034 2.45055 -1.70266 0
M  V30 2466 C 233.783 3.46818 -0.24747 0
M  V30 2467 H 233.106 3.86646 -1.01712 0
M  V30 2468 H 234.546 4.23973 -0.0476291 0
M  V30 2469 C 233.005 3.20968 1.02378 0
M  V30 2470 O 233.535 3.42298 2.10226 0
M  V30 2471 N 231.741 2.74658 0.949271 0
M  V30 2472 H 231.288 2.57501 0.0715173 0
M  V30 2473 H 231.246 2.57739 1.80049 0
M  V30 2474 N 235.018 0.912232 1.28515 0
M  V30 2475 C 236.265 0.544599 1.95039 0
M  V30 2476 C 236.593 -0.911435 1.71823 0
M  V30 2477 O 235.848 -1.66317 1.03137 0
M  V30 2478 C 236.147 0.798392 3.48368 0
M  V30 2479 C 235.813 2.23374 3.91682 0
M  V30 2480 C 234.475 2.62617 4.03219 0
M  V30 2481 C 236.827 3.16786 4.13879 0
M  V30 2482 C 234.155 3.94429 4.3433 0
M  V30 2483 C 236.507 4.48161 4.46469 0
M  V30 2484 C 235.171 4.8726 4.56217 0
M  V30 2485 H 234.441 0.199283 0.7137 0
M  V30 2486 H 237.088 1.15327 1.52879 0
M  V30 2487 H 235.393 0.106908 3.91654 0
M  V30 2488 H 237.09 0.493141 3.97956 0
M  V30 2489 H 233.68 1.91922 3.83228 0
M  V30 2490 H 237.864 2.87677 4.0442 0
M  V30 2491 H 233.12 4.24426 4.40082 0
M  V30 2492 H 237.294 5.20559 4.62592 0
M  V30 2493 H 234.921 5.89431 4.80078 0
M  V30 2494 N 236.496 -1.42363 0.676048 0
M  V30 2495 C 237.446 -2.27987 -0.0242903 0
M  V30 2496 C 238.43 -1.41153 -0.772319 0
M  V30 2497 O 239.622 -1.64592 -0.651025 0
M  V30 2498 C 236.751 -3.29195 -0.973953 0
M  V30 2499 C 235.837 -4.23512 -0.223202 0
M  V30 2500 N 236.228 -4.99865 0.772589 0
M  V30 2501 C 234.526 -4.43606 -0.461469 0
M  V30 2502 C 235.227 -5.68757 1.22027 0
M  V30 2503 N 234.203 -5.40811 0.549975 0
M  V30 2504 H 238.005 -2.84445 0.73949 0
M  V30 2505 H 235.519 -1.54341 0.50522 0
M  V30 2506 H 237.516 -3.89339 -1.49067 0
M  V30 2507 H 236.176 -2.74298 -1.73755 0
M  V30 2508 H 237.187 -5.04921 1.15217 0
M  V30 2509 H 233.864 -3.99749 -1.20446 0
M  V30 2510 H 235.254 -6.40007 2.0455 0
M  V30 2511 N 237.974 -0.419461 -1.51915 0
M  V30 2512 C 239.221 0.152939 -2.01922 0
M  V30 2513 C 239.549 1.4426 -1.30458 0
M  V30 2514 O 238.804 1.91514 -0.402593 0
M  V30 2515 C 239.103 0.437067 -3.54717 0
M  V30 2516 C 238.769 -0.764632 -4.44369 0
M  V30 2517 C 237.431 -1.09423 -4.68594 0
M  V30 2518 C 239.783 -1.56713 -4.97082 0
M  V30 2519 C 237.111 -2.22732 -5.42777 0
M  V30 2520 C 239.463 -2.69107 -5.72507 0
M  V30 2521 C 238.127 -3.02541 -5.95 0
M  V30 2522 H 237.397 0.0559644 -0.738884 0
M  V30 2523 H 240.044 -0.562998 -1.83037 0
M  V30 2524 H 238.349 1.23469 -3.71837 0
M  V30 2525 H 240.046 0.893083 -3.90928 0
M  V30 2526 H 236.636 -0.497775 -4.257 0
M  V30 2527 H 240.82 -1.32571 -4.78266 0
M  V30 2528 H 236.076 -2.48971 -5.58411 0
M  V30 2529 H 240.25 -3.31671 -6.12346 0
M  V30 2530 H 237.877 -3.90457 -6.52264 0
M  V30 2531 N 239.452 1.56882 -0.150215 0
M  V30 2532 C 240.701 1.95403 0.500071 0
M  V30 2533 C 241.014 1.03777 1.658 0
M  V30 2534 O 242.22 1.31889 2.37313 0
M  V30 2535 C 240.676 3.4738 0.941018 0
M  V30 2536 C 240.284 4.47596 -0.190158 0
M  V30 2537 C 242.028 3.9476 1.56091 0
M  V30 2538 C 239.935 5.90787 0.269237 0
M  V30 2539 H 238.865 0.729515 0.190588 0
M  V30 2540 H 241.516 1.81988 -0.235074 0
M  V30 2541 H 239.898 3.56138 1.73152 0
M  V30 2542 H 241.072 4.50536 -0.967157 0
M  V30 2543 H 239.387 4.10151 -0.718666 0
M  V30 2544 H 241.984 4.99181 1.9163 0
M  V30 2545 H 242.327 3.36494 2.45107 0
M  V30 2546 H 242.86 3.88932 0.835249 0
M  V30 2547 H 239.599 6.52879 -0.585621 0
M  V30 2548 H 239.119 5.912 1.01204 0
M  V30 2549 H 240.798 6.42979 0.720176 0
M  V30 2550 N 240.93 -0.123565 1.57115 0
M  V30 2551 C 241.86 -1.15309 2.03042 0
M  V30 2552 C 242.841 -1.43454 0.914061 0
M  V30 2553 O 244.026 -1.53973 1.18347 0
M  V30 2554 C 241.156 -2.48043 2.43089 0
M  V30 2555 C 240.11 -2.3437 3.58127 0
M  V30 2556 C 239.436 -3.72026 3.84059 0
M  V30 2557 C 240.736 -1.80804 4.90007 0
M  V30 2558 H 242.43 -0.771102 2.893 0
M  V30 2559 H 239.976 -0.369479 1.39179 0
M  V30 2560 H 241.929 -3.20311 2.73823 0
M  V30 2561 H 240.653 -2.88122 1.53796 0
M  V30 2562 H 239.312 -1.64551 3.27595 0
M  V30 2563 H 238.96 -4.09582 2.91979 0
M  V30 2564 H 238.66 -3.63732 4.6149 0
M  V30 2565 H 240.184 -4.45806 4.1724 0
M  V30 2566 H 241.598 -2.42886 5.19307 0
M  V30 2567 H 239.995 -1.83343 5.71407 0
M  V30 2568 H 241.065 -0.76528 4.78823 0
M  V30 2569 N 242.408 -1.52605 -0.393616 0
M  V30 2570 C 243.655 -1.67424 -1.1391 0
M  V30 2571 C 243.983 -0.411859 -1.90089 0
M  V30 2572 O 243.238 0.605626 -1.86093 0
M  V30 2573 C 243.537 -2.85721 -2.14705 0
M  V30 2574 C 243.203 -4.23342 -1.55218 0
M  V30 2575 C 241.865 -4.60771 -1.3872 0
M  V30 2576 C 244.217 -5.09041 -1.11924 0
M  V30 2577 C 241.545 -5.81563 -0.774689 0
M  V30 2578 C 243.897 -6.30452 -0.520853 0
M  V30 2579 C 242.561 -6.66617 -0.343134 0
M  V30 2580 H 241.831 -0.612648 -0.416826 0
M  V30 2581 H 244.478 -1.8674 -0.424315 0
M  V30 2582 H 242.783 -2.60803 -2.92385 0
M  V30 2583 H 244.48 -2.94382 -2.72288 0
M  V30 2584 H 241.07 -3.93855 -1.69045 0
M  V30 2585 H 245.254 -4.80695 -1.23473 0
M  V30 2586 H 240.51 -6.08196 -0.625154 0
M  V30 2587 H 244.684 -6.96175 -0.177065 0
M  V30 2588 H 242.311 -7.60083 0.133571 0
M  V30 2589 N 243.887 0.651787 -1.4349 0
M  V30 2590 C 244.835 1.78586 -1.49029 0
M  V30 2591 C 245.829 1.65448 -0.363767 0
M  V30 2592 O 247.035 1.71777 -0.537821 0
M  V30 2593 H 243.41 0.589236 -0.467231 0
M  V30 2594 H 245.381 1.71035 -2.44519 0
M  V30 2595 C 244.13 3.16851 -1.43181 0
M  V30 2596 H 243.453 3.27598 -2.29171 0
M  V30 2597 H 244.893 3.96156 -1.51118 0
M  V30 2598 C 243.352 3.36568 -0.149616 0
M  V30 2599 O 243.882 3.93885 0.788509 0
M  V30 2600 N 242.088 2.90539 -0.0593484 0
M  V30 2601 H 241.635 2.4408 -0.823575 0
M  V30 2602 H 241.593 3.04108 0.797853 0
M  V30 2603 N 245.365 1.30045 0.890287 0
M  V30 2604 C 246.313 1.15873 2.01683 0
M  V30 2605 C 247.307 0.0719403 1.69247 0
M  V30 2606 O 248.513 0.232414 1.78493 0
M  V30 2607 H 244.888 0.358203 0.661207 0
M  V30 2608 H 246.859 2.11229 2.10772 0
M  V30 2609 C 245.608 0.861842 3.36849 0
M  V30 2610 H 244.931 1.69016 3.62317 0
M  V30 2611 H 246.371 0.802762 4.16331 0
M  V30 2612 C 244.83 -0.435132 3.34078 0
M  V30 2613 O 245.36 -1.4583 3.74295 0
M  V30 2614 N 243.566 -0.444377 2.87182 0
M  V30 2615 H 243.113 0.388723 2.5465 0
M  V30 2616 H 243.071 -1.31213 2.85711 0
M  V30 2617 N 246.843 -1.10192 1.12674 0
M  V30 2618 C 248.089 -1.82475 0.884915 0
M  V30 2619 C 248.422 -1.85093 -0.58773 0
M  V30 2620 O 247.697 -1.3134 -1.43457 0
M  V30 2621 C 247.98 -3.29018 1.46353 0
M  V30 2622 C 247.833 -3.34718 3.00473 0
M  V30 2623 C 249.152 -4.25473 1.12519 0
M  V30 2624 H 246.271 -0.662492 0.322915 0
M  V30 2625 H 248.913 -1.2913 1.39375 0
M  V30 2626 H 247.063 -3.74576 1.03077 0
M  V30 2627 H 248.735 -2.97622 3.52447 0
M  V30 2628 H 246.978 -2.74541 3.35872 0
M  V30 2629 H 247.649 -4.37918 3.36053 0
M  V30 2630 H 250.125 -3.88161 1.499 0
M  V30 2631 H 249.001 -5.26365 1.55663 0
M  V30 2632 H 249.262 -4.42084 0.0377407 0
M  V30 2633 N 248.321 -0.919034 -1.28029 0
M  V30 2634 C 249.598 -0.473668 -1.89778 0
M  V30 2635 C 249.978 1.04783 -1.83259 0
M  V30 2636 O 249.326 1.8982 -1.27202 0
M  V30 2637 C 249.536 -1.00998 -3.34066 0
M  V30 2638 C 250.884 -1.06525 -4.1102 0
M  V30 2639 O 251.908 -0.958996 -3.43048 0
M  V30 2640 O 250.767 -1.22776 -5.3253 0
M  V30 2641 H 247.861 -0.15098 -0.813101 0
M  V30 2642 H 250.407 -1.01016 -1.36359 0
M  V30 2643 H 249.179 -2.05392 -3.33061 0
M  V30 2644 H 248.802 -0.454626 -3.94992 0
M  V30 2645 N 249.799 1.42003 -0.683588 0
M  V30 2646 C 251.047 2.01015 -0.209101 0
M  V30 2647 C 251.368 1.54365 1.19149 0
M  V30 2648 O 250.638 0.769083 1.80172 0
M  V30 2649 H 249.218 0.743294 -0.074315 0
M  V30 2650 H 251.88 1.73798 -0.882066 0
M  V30 2651 H 250.976 3.11343 -0.2172 0
M  V30 2652 N 251.277 0.427512 1.51691 0
M  V30 2653 C 252.227 -0.406604 2.24345 0
M  V30 2654 C 253.211 -0.998276 1.26187 0
M  V30 2655 O 254.403 -0.918045 1.51331 0
M  V30 2656 C 251.532 -1.51266 3.08177 0
M  V30 2657 C 250.618 -0.930868 4.13758 0
M  V30 2658 N 251.009 -0.0773552 5.05741 0
M  V30 2659 C 249.307 -1.19948 4.29568 0
M  V30 2660 C 250.008 0.248344 5.8117 0
M  V30 2661 N 248.984 -0.365535 5.4237 0
M  V30 2662 H 252.786 0.251581 2.92821 0
M  V30 2663 H 250.3 0.239003 1.60632 0
M  V30 2664 H 252.297 -2.123 3.58796 0
M  V30 2665 H 250.957 -2.17328 2.41244 0
M  V30 2666 H 251.968 0.288351 5.17097 0
M  V30 2667 H 248.645 -1.85832 3.73862 0
M  V30 2668 H 250.035 0.942286 6.6526 0
M  V30 2669 N 252.755 -1.56801 0.158532 0
M  V30 2670 C 253.685 -2.20347 -0.772609 0
M  V30 2671 C 254.666 -1.15518 -1.24859 0
M  V30 2672 O 255.851 -1.43902 -1.30406 0
M  V30 2673 C 252.981 -2.83417 -2.00729 0
M  V30 2674 C 251.935 -3.94174 -1.66765 0
M  V30 2675 C 251.261 -4.44233 -2.97592 0
M  V30 2676 C 252.561 -5.14392 -0.905447 0
M  V30 2677 H 254.255 -2.98413 -0.242959 0
M  V30 2678 H 251.801 -1.43537 -0.115419 0
M  V30 2679 H 253.754 -3.26543 -2.6636 0
M  V30 2680 H 252.478 -2.02701 -2.56086 0
M  V30 2681 H 251.137 -3.51684 -1.03508 0
M  V30 2682 H 250.785 -3.60325 -3.50963 0
M  V30 2683 H 250.485 -5.18945 -2.75626 0
M  V30 2684 H 252.009 -4.90037 -3.64274 0
M  V30 2685 H 253.423 -5.5429 -1.46408 0
M  V30 2686 H 251.82 -5.9494 -0.7853 0
M  V30 2687 H 252.89 -4.84795 0.100668 0
M  V30 2688 N 254.233 0.115231 -1.57178 0
M  V30 2689 C 255.463 0.835224 -1.88964 0
M  V30 2690 C 255.871 1.73774 -0.74829 0
M  V30 2691 O 255.214 1.81401 0.289739 0
M  V30 2692 C 255.276 1.7178 -3.15804 0
M  V30 2693 C 254.94 0.989198 -4.46166 0
M  V30 2694 C 255.937 0.328263 -5.18863 0
M  V30 2695 C 253.622 0.969256 -4.9286 0
M  V30 2696 C 255.616 -0.342873 -6.36477 0
M  V30 2697 C 253.303 0.294324 -6.10391 0
M  V30 2698 C 254.301 -0.360582 -6.82048 0
M  V30 2699 O 253.989 -1.02474 -7.97342 0
M  V30 2700 H 253.721 0.245197 -0.629964 0
M  V30 2701 H 256.275 0.10303 -2.05141 0
M  V30 2702 H 254.505 2.49173 -2.95719 0
M  V30 2703 H 256.194 2.31255 -3.33581 0
M  V30 2704 H 256.96 0.335263 -4.8384 0
M  V30 2705 H 252.839 1.46844 -4.36987 0
M  V30 2706 H 256.383 -0.854629 -6.92345 0
M  V30 2707 H 252.28 0.285099 -6.4487 0
M  V30 2708 H 253.048 -0.929594 -8.13204 0
M  V30 2709 N 255.711 1.52812 0.385517 0
M  V30 2710 C 256.621 1.80766 1.49535 0
M  V30 2711 C 257.637 0.694651 1.59532 0
M  V30 2712 O 258.813 0.982611 1.75803 0
M  V30 2713 C 255.878 1.97381 2.85029 0
M  V30 2714 C 254.939 3.21295 2.84724 0
M  V30 2715 C 254.172 3.37108 4.13756 0
M  V30 2716 O 254.395 2.5765 5.08893 0
M  V30 2717 O 253.329 4.30378 4.20783 0
M  V30 2718 H 257.155 2.75015 1.28842 0
M  V30 2719 H 254.74 1.37946 0.573697 0
M  V30 2720 H 256.622 2.09996 3.65349 0
M  V30 2721 H 255.297 1.06322 3.05741 0
M  V30 2722 H 254.204 3.1412 2.03174 0
M  V30 2723 H 255.537 4.12212 2.68965 0
M  V30 2724 N 257.189 -0.644168 1.43834 0
M  V30 2725 C 258.119 -1.76814 1.52509 0
M  V30 2726 C 259.1 -1.65823 0.379052 0
M  V30 2727 O 260.285 -1.84781 0.597466 0
M  V30 2728 C 257.415 -3.15288 1.4564 0
M  V30 2729 C 256.369 -3.41053 2.58586 0
M  V30 2730 C 255.695 -4.79421 2.36769 0
M  V30 2731 C 256.995 -3.34902 4.00797 0
M  V30 2732 H 258.689 -1.69812 2.46586 0
M  V30 2733 H 256.235 -0.815542 1.1868 0
M  V30 2734 H 258.188 -3.93681 1.50311 0
M  V30 2735 H 256.912 -3.23043 0.480725 0
M  V30 2736 H 255.571 -2.65035 2.53282 0
M  V30 2737 H 255.219 -4.83863 1.37424 0
M  V30 2738 H 254.919 -4.9762 3.12487 0
M  V30 2739 H 256.443 -5.6006 2.43238 0
M  V30 2740 H 257.857 -4.03218 4.07539 0
M  V30 2741 H 256.254 -3.64637 4.76613 0
M  V30 2742 H 257.324 -2.32928 4.25291 0
M  V30 2743 N 258.668 -1.30515 -0.883378 0
M  V30 2744 C 259.945 -1.10086 -1.6168 0
M  V30 2745 C 260.325 0.349269 -2.08191 0
M  V30 2746 O 259.673 1.34105 -1.85008 0
M  V30 2747 C 259.883 -2.10315 -2.78511 0
M  V30 2748 C 261.231 -2.42119 -3.48803 0
M  V30 2749 O 262.255 -2.08638 -2.88702 0
M  V30 2750 O 261.114 -2.99396 -4.57192 0
M  V30 2751 H 258.208 -0.422907 -0.710689 0
M  V30 2752 H 260.754 -1.41947 -0.930015 0
M  V30 2753 H 259.526 -3.07917 -2.41459 0
M  V30 2754 H 259.149 -1.79282 -3.54886 0
M  V30 2755 N 260.146 1.09593 -1.13257 0
M  V30 2756 C 261.394 1.81375 -0.891492 0
M  V30 2757 C 261.715 1.86049 0.584009 0
M  V30 2758 O 260.985 1.34481 1.42449 0
M  V30 2759 H 259.565 0.671708 -0.326828 0
M  V30 2760 H 262.227 1.3256 -1.42877 0
M  V30 2761 H 261.323 2.84612 -1.28071 0
M  V30 2762 N 261.624 0.925811 1.2754 0
M  V30 2763 C 263.04 0.625767 1.46821 0
M  V30 2764 C 263.24 -0.825506 1.83814 0
M  V30 2765 O 262.296 -1.60356 1.95044 0
M  V30 2766 C 263.609 1.57402 2.56213 0
M  V30 2767 C 265.157 1.58204 2.70075 0
M  V30 2768 C 265.632 2.51721 3.82623 0
M  V30 2769 N 267.123 2.49917 3.89994 0
M  V30 2770 C 267.858 3.18968 4.76494 0
M  V30 2771 N 267.354 3.97391 5.67496 0
M  V30 2772 N 269.147 3.07996 4.70208 0
M  V30 2773 H 261.298 1.86409 1.01811 0
M  V30 2774 H 263.561 0.800213 0.508295 0
M  V30 2775 H 263.267 2.60925 2.35819 0
M  V30 2776 H 263.141 1.31428 3.53563 0
M  V30 2777 H 265.528 0.554124 2.89851 0
M  V30 2778 H 265.609 1.88226 1.73218 0
M  V30 2779 H 265.253 3.54622 3.63601 0
M  V30 2780 H 265.183 2.18996 4.78903 0
M  V30 2781 H 267.674 1.9296 3.24923 0
M  V30 2782 H 267.987 4.4707 6.30356 0
M  V30 2783 H 266.332 4.01495 5.67298 0
M  V30 2784 H 269.523 2.46223 3.9811 0
M  V30 2785 H 269.696 3.6208 5.37403 0
M  V30 2786 N 263.102 -1.41638 0.69111 0
M  V30 2787 C 264.035 -2.28183 -0.0274913 0
M  V30 2788 C 265.013 -1.41984 -0.792424 0
M  V30 2789 O 266.197 -1.71415 -0.784169 0
M  V30 2790 C 263.324 -3.22135 -1.04628 0
M  V30 2791 C 262.37 -4.24848 -0.375037 0
M  V30 2792 S 263.203 -5.28231 0.879321 0
M  V30 2793 C 264.359 -6.25748 -0.137983 0
M  V30 2794 H 264.592 -2.88782 0.706553 0
M  V30 2795 H 262.125 -1.46709 0.481222 0
M  V30 2796 H 264.083 -3.76797 -1.62894 0
M  V30 2797 H 262.744 -2.6064 -1.75287 0
M  V30 2798 H 261.937 -4.90837 -1.14433 0
M  V30 2799 H 261.539 -3.73758 0.134434 0
M  V30 2800 H 263.831 -6.70188 -0.992659 0
M  V30 2801 H 264.774 -7.06417 0.487867 0
M  V30 2802 H 265.182 -5.62363 -0.490762 0
M  V30 2803 N 264.58 -0.43555 -1.51462 0
M  V30 2804 C 265.991 0.0279871 -1.86679 0
M  V30 2805 C 266.342 1.42104 -1.35281 0
M  V30 2806 O 265.467 2.04667 -0.702878 0
M  V30 2807 C 266.062 0.0575626 -3.38751 0
M  V30 2808 C 264.621 0.465507 -3.7351 0
M  V30 2809 C 263.768 -0.342996 -2.75171 0
M  V30 2810 H 266.719 -0.651473 -1.44712 0
M  V30 2811 H 266.74 0.867421 -3.70481 0
M  V30 2812 H 266.252 -0.956448 -3.7613 0
M  V30 2813 H 264.353 1.48519 -3.41721 0
M  V30 2814 H 264.466 0.191546 -4.78717 0
M  V30 2815 H 262.83 0.198442 -2.53926 0
M  V30 2816 H 263.613 -1.35585 -3.15391 0
M  V30 2817 N 266.058 1.56714 -0.166846 0
M  V30 2818 C 267.305 1.96747 0.479252 0
M  V30 2819 C 267.633 1.05263 1.63554 0
M  V30 2820 O 266.888 0.0858098 1.95512 0
M  V30 2821 C 267.187 3.42889 1.00806 0
M  V30 2822 C 266.853 4.50889 -0.0318574 0
M  V30 2823 C 265.515 4.8015 -0.317675 0
M  V30 2824 C 267.867 5.15949 -0.737956 0
M  V30 2825 C 265.195 5.71772 -1.31506 0
M  V30 2826 C 267.547 6.08647 -1.72429 0
M  V30 2827 C 266.211 6.36277 -2.0176 0
M  V30 2828 H 265.481 0.719949 0.175371 0
M  V30 2829 H 268.128 1.89756 -0.257864 0
M  V30 2830 H 266.433 3.4681 1.82291 0
M  V30 2831 H 268.13 3.71203 1.51689 0
M  V30 2832 H 264.72 4.28128 0.201088 0
M  V30 2833 H 268.904 4.93458 -0.530351 0
M  V30 2834 H 264.16 5.91465 -1.54853 0
M  V30 2835 H 268.334 6.58129 -2.27682 0
M  V30 2836 H 265.961 7.07075 -2.79194 0
M  V30 2837 N 267.536 -0.106894 1.57237 0
M  V30 2838 C 268.947 -0.662723 1.74542 0
M  V30 2839 C 269.298 -1.7971 0.787319 0
M  V30 2840 O 268.423 -2.16368 -0.0369636 0
M  V30 2841 C 269.018 -1.20896 3.16496 0
M  V30 2842 C 267.577 -1.71096 3.35266 0
M  V30 2843 C 266.724 -0.615642 2.7038 0
M  V30 2844 H 269.675 0.119106 1.58252 0
M  V30 2845 H 269.696 -2.07847 3.18716 0
M  V30 2846 H 269.208 -0.383122 3.86204 0
M  V30 2847 H 267.309 -2.56119 2.70618 0
M  V30 2848 H 267.422 -1.81208 4.43509 0
M  V30 2849 H 265.786 -1.05222 2.31949 0
M  V30 2850 H 266.569 0.199419 3.4272 0
M  V30 2851 N 269.014 -1.53014 -0.377408 0
M  V30 2852 C 270.26 -1.68872 -1.12294 0
M  V30 2853 C 270.593 -0.433224 -1.89306 0
M  V30 2854 O 269.868 0.569258 -1.85983 0
M  V30 2855 C 270.151 -2.93115 -2.09179 0
M  V30 2856 C 270.004 -4.28794 -1.35853 0
M  V30 2857 C 271.323 -3.12928 -3.09458 0
M  V30 2858 H 268.442 -0.614518 -0.406862 0
M  V30 2859 H 271.084 -1.85633 -0.40503 0
M  V30 2860 H 269.234 -2.78956 -2.70399 0
M  V30 2861 H 270.906 -4.54742 -0.775082 0
M  V30 2862 H 269.149 -4.28744 -0.660364 0
M  V30 2863 H 269.82 -5.11837 -2.06706 0
M  V30 2864 H 272.296 -3.26194 -2.58334 0
M  V30 2865 H 271.172 -4.01316 -3.74482 0
M  V30 2866 H 271.433 -2.27669 -3.78971 0
M  V30 2867 N 270.492 0.636531 -1.44174 0
M  V30 2868 C 271.44 1.76995 -1.50915 0
M  V30 2869 C 272.434 1.65053 -0.381295 0
M  V30 2870 O 273.64 1.71197 -0.55601 0
M  V30 2871 H 270.015 0.584247 -0.473455 0
M  V30 2872 H 271.986 1.68432 -2.4632 0
M  V30 2873 C 270.735 3.15314 -1.46534 0
M  V30 2874 H 270.058 3.25149 -2.32633 0
M  V30 2875 H 271.498 3.9453 -1.55312 0
M  V30 2876 C 269.957 3.3639 -0.185305 0
M  V30 2877 O 270.487 3.94699 0.746688 0
M  V30 2878 N 268.693 2.9046 -0.0901606 0
M  V30 2879 H 268.24 2.43193 -0.849416 0
M  V30 2880 H 268.198 3.04937 0.765553 0
M  V30 2881 N 271.97 1.30982 0.876444 0
M  V30 2882 C 272.92 1.14688 1.97055 0
M  V30 2883 C 273.904 0.0596593 1.60789 0
M  V30 2884 O 275.096 0.283892 1.74708 0
M  V30 2885 C 272.225 0.849627 3.3262 0
M  V30 2886 C 271.311 1.97752 3.75173 0
M  V30 2887 N 271.702 3.22384 3.89746 0
M  V30 2888 C 270 1.8758 4.04635 0
M  V30 2889 C 270.701 3.96121 4.25985 0
M  V30 2890 N 269.677 3.24237 4.36315 0
M  V30 2891 H 273.479 2.09204 2.06424 0
M  V30 2892 H 270.993 1.22445 1.06682 0
M  V30 2893 H 272.99 0.713895 4.10742 0
M  V30 2894 H 271.65 -0.087376 3.24582 0
M  V30 2895 H 272.661 3.57575 3.74647 0
M  V30 2896 H 269.338 1.01303 4.05024 0
M  V30 2897 H 270.728 5.03491 4.44911 0
M  V30 2898 N 273.449 -1.08991 1.13837 0
M  V30 2899 C 274.697 -1.80899 0.901098 0
M  V30 2900 C 275.018 -1.86356 -0.574134 0
M  V30 2901 O 274.288 -1.35235 -1.41733 0
M  V30 2902 H 272.868 -0.669966 0.330386 0
M  V30 2903 H 275.53 -1.318 1.43578 0
M  V30 2904 H 274.626 -2.83929 1.29578 0
M  V30 2905 N 274.927 -0.932562 -1.27047 0
M  V30 2906 C 275.89 -0.440064 -2.24936 0
M  V30 2907 C 276.89 0.444071 -1.54547 0
M  V30 2908 O 278.08 0.244465 -1.72476 0
M  V30 2909 C 275.212 0.36678 -3.38921 0
M  V30 2910 H 276.405 -1.305 -2.70018 0
M  V30 2911 H 273.958 -0.713707 -1.39054 0
M  V30 2912 H 274.693 1.25033 -2.99228 0
M  V30 2913 H 274.478 -0.267204 -3.91188 0
M  V30 2914 H 275.968 0.701567 -4.11665 0
M  V30 2915 N 276.405 1.4127 -0.698611 0
M  V30 2916 C 277.63 2.06024 -0.238512 0
M  V30 2917 C 278.055 1.5224 1.10475 0
M  V30 2918 O 277.413 0.650623 1.69223 0
M  V30 2919 C 277.461 3.59988 -0.209952 0
M  V30 2920 O 276.565 4.04282 0.814235 0
M  V30 2921 H 275.906 0.653829 -0.115775 0
M  V30 2922 H 278.436 1.8098 -0.954326 0
M  V30 2923 H 278.446 4.07979 -0.0418436 0
M  V30 2924 H 277.121 3.98503 -1.1903 0
M  V30 2925 H 275.698 3.6779 0.615234 0
M  V30 2926 N 277.883 0.443576 1.51229 0
M  V30 2927 C 279.108 -0.121648 2.07043 0
M  V30 2928 C 279.533 -1.35156 1.30823 0
M  V30 2929 O 278.891 -1.7793 0.347934 0
M  V30 2930 C 278.939 -0.41624 3.5819 0
M  V30 2931 O 278.043 -1.50163 3.8409 0
M  V30 2932 H 277.384 0.000871367 0.663999 0
M  V30 2933 H 279.914 0.626706 1.94765 0
M  V30 2934 H 279.924 -0.664867 4.02546 0
M  V30 2935 H 278.599 0.482653 4.1309 0
M  V30 2936 H 277.176 -1.24248 3.51592 0
M  V30 2937 N 279.361 -1.56624 0.175154 0
M  V30 2938 C 280.271 -2.21741 -0.766042 0
M  V30 2939 C 281.287 -1.21023 -1.25018 0
M  V30 2940 O 282.463 -1.53697 -1.3015 0
M  V30 2941 C 279.528 -2.84839 -1.97655 0
M  V30 2942 C 278.589 -4.00769 -1.53892 0
M  V30 2943 C 277.822 -4.60849 -2.69173 0
M  V30 2944 O 278.045 -4.19823 -3.86141 0
M  V30 2945 O 276.979 -5.50655 -2.43028 0
M  V30 2946 H 280.805 -3.02738 -0.241585 0
M  V30 2947 H 278.39 -1.49305 -0.053222 0
M  V30 2948 H 280.272 -3.24834 -2.68442 0
M  V30 2949 H 278.947 -2.06836 -2.48999 0
M  V30 2950 H 277.854 -3.65436 -0.80044 0
M  V30 2951 H 279.187 -4.80376 -1.07236 0
M  V30 2952 N 280.839 0.0985539 -1.57292 0
M  V30 2953 C 282.116 0.834155 -1.76921 0
M  V30 2954 C 282.496 1.97101 -0.755928 0
M  V30 2955 O 281.844 2.27474 0.216245 0
M  V30 2956 C 282.054 1.33194 -3.22584 0
M  V30 2957 C 283.402 1.77611 -3.85668 0
M  V30 2958 O 284.426 1.42825 -3.26312 0
M  V30 2959 O 283.285 2.4192 -4.90038 0
M  V30 2960 H 280.379 0.397628 -0.725135 0
M  V30 2961 H 282.925 0.0807044 -1.69508 0
M  V30 2962 H 281.697 0.517248 -3.87866 0
M  V30 2963 H 281.32 2.1475 -3.34616 0
M  V30 2964 N 282.317 1.53212 0.369288 0
M  V30 2965 C 283.545 1.73119 1.13303 0
M  V30 2966 C 283.96 0.458455 1.83149 0
M  V30 2967 O 283.317 -0.568403 1.73423 0
M  V30 2968 C 283.368 2.89413 2.16616 0
M  V30 2969 O 283.089 4.11761 1.49614 0
M  V30 2970 C 284.59 3.21161 3.05566 0
M  V30 2971 H 281.81 0.579107 0.338934 0
M  V30 2972 H 284.354 1.99942 0.429338 0
M  V30 2973 H 282.509 2.64994 2.82589 0
M  V30 2974 H 282.923 4.76858 2.18419 0
M  V30 2975 H 284.397 4.05949 3.74045 0
M  V30 2976 H 284.874 2.36369 3.70171 0
M  V30 2977 H 285.48 3.47492 2.45213 0
M  V30 2978 N 283.795 -0.628877 1.44509 0
M  V30 2979 C 284.725 -1.75187 1.54376 0
M  V30 2980 C 285.706 -1.65411 0.396618 0
M  V30 2981 O 286.891 -1.84137 0.617031 0
M  V30 2982 C 284.021 -3.13725 1.48976 0
M  V30 2983 C 282.975 -3.38291 2.62189 0
M  V30 2984 C 282.301 -4.76883 2.41841 0
M  V30 2985 C 283.601 -3.30632 4.04326 0
M  V30 2986 H 285.295 -1.67187 2.48373 0
M  V30 2987 H 282.841 -0.802909 1.19538 0
M  V30 2988 H 284.794 -3.92064 1.54478 0
M  V30 2989 H 283.518 -3.22515 0.514961 0
M  V30 2990 H 282.177 -2.62334 2.56079 0
M  V30 2991 H 281.825 -4.82378 1.42548 0
M  V30 2992 H 281.525 -4.94278 3.17747 0
M  V30 2993 H 283.049 -5.57449 2.49165 0
M  V30 2994 H 284.463 -3.98873 4.11793 0
M  V30 2995 H 282.86 -3.59561 4.80454 0
M  V30 2996 H 283.93 -2.28404 4.27738 0
M  V30 2997 N 285.273 -1.31445 -0.869486 0
M  V30 2998 C 286.203 -1.21727 -1.99261 0
M  V30 2999 C 287.184 -0.104359 -1.6978 0
M  V30 3000 O 288.369 -0.289038 -1.92037 0
M  V30 3001 C 285.499 -0.924317 -3.34774 0
M  V30 3002 C 284.453 -1.99685 -3.78563 0
M  V30 3003 C 283.779 -1.55658 -5.11541 0
M  V30 3004 C 285.079 -3.41003 -3.95619 0
M  V30 3005 H 286.773 -2.1569 -2.07649 0
M  V30 3006 H 284.319 -1.03839 -0.997675 0
M  V30 3007 H 286.272 -0.842934 -4.12883 0
M  V30 3008 H 284.996 0.0509793 -3.2656 0
M  V30 3009 H 283.655 -2.06813 -3.02694 0
M  V30 3010 H 283.303 -0.569132 -4.9977 0
M  V30 3011 H 283.003 -2.27409 -5.41811 0
M  V30 3012 H 284.527 -1.48928 -5.92159 0
M  V30 3013 H 285.941 -3.36547 -4.64122 0
M  V30 3014 H 284.338 -4.10975 -4.37286 0
M  V30 3015 H 285.408 -3.81754 -2.98985 0
M  V30 3016 N 286.751 1.08385 -1.14413 0
M  V30 3017 C 287.698 2.15311 -0.831265 0
M  V30 3018 C 288.668 1.64751 0.211292 0
M  V30 3019 O 289.853 1.90627 0.0811674 0
M  V30 3020 C 286.993 3.43658 -0.315143 0
M  V30 3021 C 286.106 4.08064 -1.41802 0
M  V30 3022 C 285.241 5.24207 -0.859126 0
M  V30 3023 C 284.28 5.80554 -1.93967 0
M  V30 3024 N 283.417 6.88042 -1.39793 0
M  V30 3025 H 288.257 2.41415 -1.74708 0
M  V30 3026 H 285.794 1.18474 -0.871909 0
M  V30 3027 H 287.752 4.172 0.00230884 0
M  V30 3028 H 286.382 3.17839 0.56378 0
M  V30 3029 H 285.434 3.3228 -1.85187 0
M  V30 3030 H 286.746 4.45962 -2.23427 0
M  V30 3031 H 285.9 6.04689 -0.49359 0
M  V30 3032 H 284.639 4.87699 -0.011932 0
M  V30 3033 H 283.644 4.98725 -2.31415 0
M  V30 3034 H 284.869 6.19121 -2.79046 0
M  V30 3035 H 282.815 6.53493 -0.572919 0
M  V30 3036 H 282.732 7.24767 -2.15054 0
M  V30 3037 H 284 7.72255 -1.0603 0
M  V30 3038 N 288.23 0.939286 1.26551 0
M  V30 3039 C 289.507 0.5038 1.89001 0
M  V30 3040 C 289.887 -1.01854 1.84903 0
M  V30 3041 O 289.235 -1.87773 1.30206 0
M  V30 3042 C 289.445 1.063 3.32417 0
M  V30 3043 C 290.793 1.13051 4.09273 0
M  V30 3044 O 291.817 1.01345 3.41479 0
M  V30 3045 O 290.676 1.31233 5.30509 0
M  V30 3046 H 287.77 0.163897 0.810597 0
M  V30 3047 H 290.316 1.03173 1.34735 0
M  V30 3048 H 289.088 2.10665 3.29752 0
M  V30 3049 H 288.711 0.517408 3.94219 0
M  V30 3050 N 289.708 -1.40897 0.706093 0
M  V30 3051 C 290.671 -2.29131 0.0562841 0
M  V30 3052 C 291.671 -1.44901 -0.697166 0
M  V30 3053 O 292.861 -1.65926 -0.530484 0
M  V30 3054 C 289.993 -3.27957 -0.93043 0
M  V30 3055 H 291.186 -2.88091 0.833284 0
M  V30 3056 H 288.739 -1.4906 0.470192 0
M  V30 3057 H 289.474 -2.73997 -1.73482 0
M  V30 3058 H 289.259 -3.90124 -0.393166 0
M  V30 3059 H 290.749 -3.94049 -1.38256 0
M  V30 3060 N 291.186 -0.45159 -1.50991 0
M  V30 3061 C 292.149 0.341117 -2.26647 0
M  V30 3062 C 293.149 0.937422 -1.30649 0
M  V30 3063 O 294.339 0.809644 -1.54241 0
M  V30 3064 C 291.471 1.48398 -3.06905 0
M  V30 3065 H 292.664 -0.322117 -2.98165 0
M  V30 3066 H 290.217 -0.205122 -1.54948 0
M  V30 3067 H 290.952 2.18284 -2.39838 0
M  V30 3068 H 290.737 1.06241 -3.77432 0
M  V30 3069 H 292.227 2.04367 -3.64176 0
M  V30 3070 N 292.664 1.56529 -0.183458 0
M  V30 3071 C 293.611 2.18546 0.742055 0
M  V30 3072 C 294.581 1.12912 1.2182 0
M  V30 3073 O 295.766 1.41115 1.28418 0
M  V30 3074 C 292.906 2.83977 1.96089 0
M  V30 3075 C 292.019 4.04105 1.52719 0
M  V30 3076 C 291.154 4.57427 2.70063 0
M  V30 3077 C 290.193 5.69938 2.23243 0
M  V30 3078 N 289.33 6.17717 3.33722 0
M  V30 3079 H 294.17 2.97284 0.206432 0
M  V30 3080 H 291.707 1.46823 0.0901571 0
M  V30 3081 H 293.665 3.20077 2.67594 0
M  V30 3082 H 292.295 2.07822 2.47002 0
M  V30 3083 H 291.347 3.73745 0.708436 0
M  V30 3084 H 292.659 4.85513 1.1436 0
M  V30 3085 H 291.813 4.95772 3.49708 0
M  V30 3086 H 290.552 3.75101 3.11689 0
M  V30 3087 H 289.557 5.31133 1.42048 0
M  V30 3088 H 290.782 6.54073 1.82661 0
M  V30 3089 H 288.728 5.38317 3.74902 0
M  V30 3090 H 288.645 6.94146 2.99495 0
M  V30 3091 H 289.913 6.60713 4.13616 0
M  V30 3092 N 294.142 -0.090211 1.57342 0
M  V30 3093 C 295.388 -0.793982 1.86611 0
M  V30 3094 C 295.721 -1.78142 0.773252 0
M  V30 3095 O 294.996 -1.93271 -0.218304 0
M  V30 3096 C 295.279 -1.51839 3.26523 0
M  V30 3097 C 295.132 -0.548609 4.46442 0
M  V30 3098 C 296.451 -2.46779 3.64401 0
M  V30 3099 H 293.57 -0.287186 0.678744 0
M  V30 3100 H 296.212 -0.0575076 1.89913 0
M  V30 3101 H 294.362 -2.14617 3.23839 0
M  V30 3102 H 296.034 0.0725513 4.61243 0
M  V30 3103 H 294.277 0.137614 4.33582 0
M  V30 3104 H 294.948 -1.09271 5.41076 0
M  V30 3105 H 297.424 -1.94089 3.68061 0
M  V30 3106 H 296.3 -2.94479 4.63221 0
M  V30 3107 H 296.561 -3.30758 2.93346 0
M  V30 3108 N 295.62 -1.53406 -0.361157 0
M  V30 3109 C 296.86 -1.71507 -1.11197 0
M  V30 3110 C 297.224 -0.459337 -1.86425 0
M  V30 3111 O 298.425 -0.517102 -2.63779 0
M  V30 3112 C 296.696 -2.93307 -2.0422 0
M  V30 3113 S 298.255 -3.32135 -2.86761 0
M  V30 3114 H 295.073 -0.603448 -0.375995 0
M  V30 3115 H 297.675 -1.91516 -0.392642 0
M  V30 3116 H 296.379 -3.82891 -1.47724 0
M  V30 3117 H 295.91 -2.75712 -2.80618 0
M  V30 3118 H 297.925 -2.84493 -4.06544 0
M  V30 3119 N 297.098 0.621204 -1.44841 0
M  V30 3120 C 298.514 0.94048 -1.28946 0
M  V30 3121 C 298.714 2.00154 -0.23249 0
M  V30 3122 O 297.77 2.49651 0.378237 0
M  V30 3123 C 299.083 1.39433 -2.66419 0
M  V30 3124 C 300.631 1.50927 -2.74208 0
M  V30 3125 C 301.106 1.99692 -4.12174 0
M  V30 3126 N 302.597 2.06947 -4.144 0
M  V30 3127 C 303.332 2.45871 -5.1801 0
M  V30 3128 N 302.828 2.83862 -6.31977 0
M  V30 3129 N 304.621 2.46092 -5.05366 0
M  V30 3130 H 296.772 -0.0803548 -2.12248 0
M  V30 3131 H 299.035 0.0266913 -0.947624 0
M  V30 3132 H 298.741 0.688925 -3.44887 0
M  V30 3133 H 298.615 2.36347 -2.93973 0
M  V30 3134 H 301.002 2.20561 -1.96053 0
M  V30 3135 H 301.083 0.523627 -2.50383 0
M  V30 3136 H 300.727 1.30649 -4.90809 0
M  V30 3137 H 300.657 2.99146 -4.33381 0
M  V30 3138 H 303.148 1.80232 -3.32152 0
M  V30 3139 H 303.461 3.12405 -7.0684 0
M  V30 3140 H 301.806 2.8159 -6.35399 0
M  V30 3141 H 304.997 2.1581 -4.15384 0
M  V30 3142 H 305.17 2.76102 -5.86235 0
M  V30 3143 N 298.576 1.31904 0.862503 0
M  V30 3144 C 299.486 1.22161 2.00285 0
M  V30 3145 C 300.502 0.136785 1.73462 0
M  V30 3146 O 301.678 0.355994 1.98229 0
M  V30 3147 C 298.743 0.937093 3.33796 0
M  V30 3148 C 297.804 2.10957 3.73893 0
M  V30 3149 C 297.037 1.83853 5.01033 0
M  V30 3150 O 297.26 0.777274 5.65079 0
M  V30 3151 O 296.194 2.69741 5.38074 0
M  V30 3152 H 300.02 2.18008 2.11439 0
M  V30 3153 H 297.605 1.11716 0.991957 0
M  V30 3154 H 299.487 0.794583 4.13841 0
M  V30 3155 H 298.162 0.00871894 3.23699 0
M  V30 3156 H 297.069 2.30752 2.94456 0
M  V30 3157 H 298.402 3.02046 3.88625 0
M  V30 3158 N 300.054 -1.07777 1.14986 0
M  V30 3159 C 301.301 -1.8029 0.922056 0
M  V30 3160 C 301.629 -1.86531 -0.55105 0
M  V30 3161 O 300.884 -1.34189 -1.42449 0
M  V30 3162 C 301.183 -3.25495 1.47608 0
M  V30 3163 C 300.849 -3.39361 2.96893 0
M  V30 3164 C 299.511 -3.42852 3.37647 0
M  V30 3165 C 301.863 -3.42512 3.92854 0
M  V30 3166 C 299.191 -3.47094 4.73015 0
M  V30 3167 C 301.543 -3.4829 5.28088 0
M  V30 3168 C 300.207 -3.50058 5.68345 0
M  V30 3169 H 299.477 -0.659727 0.337404 0
M  V30 3170 H 302.124 -1.26854 1.43459 0
M  V30 3171 H 300.429 -3.81683 0.88463 0
M  V30 3172 H 302.126 -3.80168 1.27568 0
M  V30 3173 H 298.716 -3.37339 2.64387 0
M  V30 3174 H 302.9 -3.3904 3.62444 0
M  V30 3175 H 298.156 -3.46758 5.03556 0
M  V30 3176 H 302.33 -3.49675 6.02246 0
M  V30 3177 H 299.957 -3.53097 6.73221 0
M  V30 3178 N 301.532 -0.945985 -1.26051 0
M  V30 3179 C 302.76 -0.613025 -1.9761 0
M  V30 3180 C 303.175 0.813035 -1.70397 0
M  V30 3181 O 302.532 1.54274 -0.974979 0
M  V30 3182 C 302.583 -0.85159 -3.51326 0
M  V30 3183 O 302.304 -2.22157 -3.77595 0
M  V30 3184 C 303.805 -0.529831 -4.40122 0
M  V30 3185 H 301.025 -0.230593 -0.630133 0
M  V30 3186 H 303.569 -1.268 -1.60443 0
M  V30 3187 H 301.724 -0.243151 -3.86636 0
M  V30 3188 H 302.138 -2.2852 -4.721 0
M  V30 3189 H 303.612 -0.747348 -5.46917 0
M  V30 3190 H 304.089 0.535341 -4.35925 0
M  V30 3191 H 304.695 -1.11721 -4.10364 0
M  V30 3192 N 303.011 1.40521 -0.713556 0
M  V30 3193 C 303.921 2.34522 -0.0606667 0
M  V30 3194 C 304.937 1.57193 0.74607 0
M  V30 3195 O 306.113 1.89591 0.679493 0
M  V30 3196 C 303.178 3.36081 0.851491 0
M  V30 3197 C 302.239 4.29286 0.0349339 0
M  V30 3198 C 301.472 5.25994 0.903649 0
M  V30 3199 O 301.695 5.28616 2.14292 0
M  V30 3200 O 300.629 6.00918 0.343723 0
M  V30 3201 H 304.455 2.91968 -0.835972 0
M  V30 3202 H 302.04 1.41681 -0.47402 0
M  V30 3203 H 303.922 3.98369 1.37404 0
M  V30 3204 H 302.597 2.81052 1.60598 0
M  V30 3205 H 301.504 3.70289 -0.532633 0
M  V30 3206 H 302.837 4.87462 -0.681287 0
M  V30 3207 N 304.489 0.459591 1.5075 0
M  V30 3208 C 305.905 0.113092 1.59199 0
M  V30 3209 C 306.105 -1.37951 1.46874 0
M  V30 3210 O 305.161 -2.15168 1.32132 0
M  V30 3211 C 306.474 0.653043 2.93523 0
M  V30 3212 C 308.022 0.615449 3.0689 0
M  V30 3213 C 308.497 1.13275 4.43771 0
M  V30 3214 N 309.988 1.09167 4.50152 0
M  V30 3215 C 310.723 1.46256 5.54434 0
M  V30 3216 N 310.219 1.90739 6.66026 0
M  V30 3217 N 312.012 1.37932 5.44914 0
M  V30 3218 H 304.163 1.43049 1.57005 0
M  V30 3219 H 306.426 0.590861 0.741341 0
M  V30 3220 H 306.132 1.69822 3.07983 0
M  V30 3221 H 306.006 0.0902132 3.77092 0
M  V30 3222 H 308.393 -0.420793 2.92084 0
M  V30 3223 H 308.474 1.21495 2.25106 0
M  V30 3224 H 308.118 2.16757 4.59324 0
M  V30 3225 H 308.048 0.509576 5.24129 0
M  V30 3226 H 310.539 0.76528 3.7007 0
M  V30 3227 H 310.852 2.17218 7.41644 0
M  V30 3228 H 309.197 1.94683 6.67176 0
M  V30 3229 H 312.388 1.0303 4.56621 0
M  V30 3230 H 312.561 1.67164 6.26067 0
M  V30 3231 N 305.967 -1.56429 0.191757 0
M  V30 3232 C 306.877 -2.22541 -0.742481 0
M  V30 3233 C 307.893 -1.22342 -1.23727 0
M  V30 3234 O 309.069 -1.55069 -1.28513 0
M  V30 3235 C 306.134 -2.8692 -1.94623 0
M  V30 3236 C 305.195 -4.02378 -1.49633 0
M  V30 3237 C 304.428 -4.63678 -2.6427 0
M  V30 3238 O 304.651 -4.23895 -3.81666 0
M  V30 3239 O 303.585 -5.53202 -2.37174 0
M  V30 3240 H 307.411 -3.02977 -0.209462 0
M  V30 3241 H 304.996 -1.49353 -0.0373832 0
M  V30 3242 H 306.878 -3.27663 -2.64982 0
M  V30 3243 H 305.553 -2.09466 -2.46791 0
M  V30 3244 H 304.46 -3.66265 -0.761636 0
M  V30 3245 H 305.793 -4.81487 -1.02134 0
M  V30 3246 N 307.445 0.0818655 -1.57387 0
M  V30 3247 C 308.377 1.12484 -1.997 0
M  V30 3248 C 309.39 1.35564 -0.90146 0
M  V30 3249 O 310.579 1.33982 -1.17945 0
M  V30 3250 C 307.679 2.47778 -2.31213 0
M  V30 3251 C 306.852 2.44793 -3.62485 0
M  V30 3252 C 305.911 3.62117 -3.81782 0
M  V30 3253 O 304.937 3.44005 -4.53486 0
M  V30 3254 N 306.139 4.82094 -3.23367 0
M  V30 3255 H 308.904 0.764585 -2.89783 0
M  V30 3256 H 306.465 0.270664 -1.59621 0
M  V30 3257 H 308.457 3.24891 -2.41304 0
M  V30 3258 H 307.027 2.75843 -1.4707 0
M  V30 3259 H 306.247 1.53134 -3.6324 0
M  V30 3260 H 307.535 2.39889 -4.48699 0
M  V30 3261 H 306.933 4.99713 -2.65148 0
M  V30 3262 H 305.49 5.56753 -3.38923 0
M  V30 3263 N 308.923 1.53595 0.353017 0
M  V30 3264 C 310.171 1.70049 1.09215 0
M  V30 3265 C 310.492 0.461406 1.89463 0
M  V30 3266 O 309.762 -0.524633 1.88744 0
M  V30 3267 H 308.342 0.626912 0.40619 0
M  V30 3268 H 311.004 1.90822 0.396585 0
M  V30 3269 H 310.1 2.56718 1.77488 0
M  V30 3270 N 310.401 -0.613514 1.45168 0
M  V30 3271 C 311.311 -1.75296 1.55912 0
M  V30 3272 C 312.327 -1.68244 0.443856 0
M  V30 3273 O 313.503 -1.88706 0.70371 0
M  V30 3274 C 310.568 -3.1174 1.5172 0
M  V30 3275 C 309.629 -3.30291 2.74238 0
M  V30 3276 C 308.862 -4.60226 2.70236 0
M  V30 3277 O 309.085 -5.42168 1.77229 0
M  V30 3278 O 308.019 -4.81361 3.61352 0
M  V30 3279 H 311.845 -1.69183 2.52212 0
M  V30 3280 H 309.43 -0.776886 1.27612 0
M  V30 3281 H 311.312 -3.93044 1.51968 0
M  V30 3282 H 309.987 -3.18357 0.585697 0
M  V30 3283 H 308.894 -2.48598 2.79553 0
M  V30 3284 H 310.227 -3.28547 3.66494 0
M  V30 3285 N 311.879 -1.3236 -0.855495 0
M  V30 3286 C 313.125 -1.23054 -1.612 0
M  V30 3287 C 313.458 0.207404 -1.93089 0
M  V30 3288 O 312.733 1.14432 -1.57275 0
M  V30 3289 C 313.016 -2.08937 -2.93287 0
M  V30 3290 C 312.869 -3.61105 -2.68185 0
M  V30 3291 C 314.188 -1.94986 -3.94549 0
M  V30 3292 H 311.307 -0.448364 -0.584926 0
M  V30 3293 H 313.949 -1.62297 -0.987917 0
M  V30 3294 H 312.099 -1.75599 -3.46551 0
M  V30 3295 H 313.771 -4.04652 -2.21483 0
M  V30 3296 H 312.014 -3.83813 -2.02164 0
M  V30 3297 H 312.685 -4.16522 -3.62234 0
M  V30 3298 H 315.161 -2.24189 -3.5054 0
M  V30 3299 H 314.037 -2.57356 -4.84829 0
M  V30 3300 H 314.298 -0.917263 -4.3248 0
M  V30 3301 N 313.357 1.07166 -1.15556 0
M  V30 3302 C 314.773 1.31899 -0.898603 0
M  V30 3303 C 314.973 1.96333 0.453383 0
M  V30 3304 O 314.029 2.22438 1.19489 0
M  V30 3305 C 315.342 2.20826 -2.04099 0
M  V30 3306 C 316.89 2.34269 -2.07574 0
M  V30 3307 C 317.365 3.26546 -3.21141 0
M  V30 3308 N 318.856 3.34127 -3.20801 0
M  V30 3309 C 319.591 4.05595 -4.05315 0
M  V30 3310 N 319.087 4.79661 -4.99897 0
M  V30 3311 N 320.88 4.01555 -3.93332 0
M  V30 3312 H 313.031 0.637302 -2.02613 0
M  V30 3313 H 315.294 0.343468 -0.883591 0
M  V30 3314 H 315 1.80744 -3.01703 0
M  V30 3315 H 314.874 3.21364 -1.97496 0
M  V30 3316 H 317.261 2.73603 -1.10568 0
M  V30 3317 H 317.342 1.33429 -2.18244 0
M  V30 3318 H 316.986 2.87931 -4.184 0
M  V30 3319 H 316.916 4.27345 -3.07708 0
M  V30 3320 H 319.407 2.81336 -2.52306 0
M  V30 3321 H 319.72 5.31694 -5.60822 0
M  V30 3322 H 318.065 4.78671 -5.03884 0
M  V30 3323 H 321.256 3.42806 -3.18751 0
M  V30 3324 H 321.429 4.56987 -4.5942 0
M  V30 3325 N 314.835 0.952656 1.25548 0
M  V30 3326 C 316.082 0.606373 1.93208 0
M  V30 3327 C 316.41 -0.85631 1.74636 0
M  V30 3328 O 315.665 -1.62951 1.08376 0
M  V30 3329 C 315.964 0.908818 3.45652 0
M  V30 3330 C 315.63 2.35722 3.84378 0
M  V30 3331 C 314.292 2.75312 3.9466 0
M  V30 3332 C 316.644 3.29793 4.03591 0
M  V30 3333 C 313.972 4.08047 4.21562 0
M  V30 3334 C 316.324 4.62138 4.31985 0
M  V30 3335 C 314.988 5.01528 4.40484 0
M  V30 3336 H 314.258 0.221888 0.706998 0
M  V30 3337 H 316.905 1.20132 1.49133 0
M  V30 3338 H 315.21 0.231456 3.91116 0
M  V30 3339 H 316.907 0.619498 3.96186 0
M  V30 3340 H 313.497 2.04017 3.76928 0
M  V30 3341 H 317.681 3.00397 3.95064 0
M  V30 3342 H 312.937 4.38212 4.26357 0
M  V30 3343 H 317.111 5.35012 4.45797 0
M  V30 3344 H 314.738 6.04406 4.61083 0
M  V30 3345 N 316.313 -1.40141 0.720998 0
M  V30 3346 C 317.538 -2.05618 0.271258 0
M  V30 3347 C 317.963 -1.53978 -1.08039 0
M  V30 3348 O 317.321 -0.677463 -1.68167 0
M  V30 3349 C 317.369 -3.59609 0.267197 0
M  V30 3350 O 316.473 -4.05526 -0.749814 0
M  V30 3351 H 315.814 -0.651904 0.126162 0
M  V30 3352 H 318.344 -1.79439 0.982997 0
M  V30 3353 H 318.354 -4.0786 0.106744 0
M  V30 3354 H 317.029 -3.96559 1.25354 0
M  V30 3355 H 315.606 -3.68722 -0.556644 0
M  V30 3356 N 317.792 -0.46758 -1.50504 0
M  V30 3357 C 318.755 0.317059 -2.26996 0
M  V30 3358 C 319.755 0.923513 -1.31635 0
M  V30 3359 O 320.945 0.793239 -1.55091 0
M  V30 3360 C 318.077 1.45134 -3.08462 0
M  V30 3361 H 319.27 -0.353723 -2.97807 0
M  V30 3362 H 316.823 -0.221545 -1.54722 0
M  V30 3363 H 317.558 2.15728 -2.4214 0
M  V30 3364 H 317.343 1.02232 -3.78538 0
M  V30 3365 H 318.833 2.00493 -3.66323 0
M  V30 3366 N 319.27 1.56325 -0.20005 0
M  V30 3367 C 320.516 1.98012 0.438059 0
M  V30 3368 C 320.849 1.08702 1.60927 0
M  V30 3369 O 320.124 0.140064 1.93995 0
M  V30 3370 C 320.407 3.48841 0.893419 0
M  V30 3371 C 320.26 4.48928 -0.279947 0
M  V30 3372 C 321.579 4.03498 1.75719 0
M  V30 3373 H 318.698 0.719918 0.157757 0
M  V30 3374 H 321.34 1.87743 -0.291968 0
M  V30 3375 H 319.49 3.57723 1.51547 0
M  V30 3376 H 321.162 4.52079 -0.91772 0
M  V30 3377 H 319.405 4.23694 -0.930919 0
M  V30 3378 H 320.076 5.5194 0.0812601 0
M  V30 3379 H 322.552 3.97427 1.23253 0
M  V30 3380 H 321.428 5.09393 2.04476 0
M  V30 3381 H 321.689 3.4906 2.71311 0
M  V30 3382 N 320.748 -0.0735177 1.57428 0
M  V30 3383 C 321.711 -1.07192 2.02589 0
M  V30 3384 C 322.711 -1.31695 0.922661 0
M  V30 3385 O 323.901 -1.27445 1.18758 0
M  V30 3386 C 321.033 -2.41599 2.40506 0
M  V30 3387 H 322.226 -0.682727 2.92025 0
M  V30 3388 H 319.779 -0.319193 1.53006 0
M  V30 3389 H 320.514 -2.85354 1.5409 0
M  V30 3390 H 320.299 -2.25156 3.21009 0
M  V30 3391 H 321.789 -3.13367 2.76027 0
M  V30 3392 N 322.226 -1.5378 -0.344866 0
M  V30 3393 C 323.156 -1.84662 -1.42906 0
M  V30 3394 C 324.137 -0.701648 -1.54955 0
M  V30 3395 O 325.322 -0.953438 -1.69184 0
M  V30 3396 C 322.452 -2.05503 -2.79974 0
M  V30 3397 C 321.406 -3.21318 -2.82734 0
M  V30 3398 C 320.732 -3.2749 -4.22675 0
M  V30 3399 C 322.032 -4.59456 -2.48389 0
M  V30 3400 H 323.726 -2.75461 -1.17311 0
M  V30 3401 H 321.272 -1.32542 -0.562896 0
M  V30 3402 H 323.225 -2.25691 -3.55867 0
M  V30 3403 H 321.949 -1.11434 -3.07002 0
M  V30 3404 H 320.608 -3.00984 -2.09294 0
M  V30 3405 H 320.256 -2.31019 -4.4681 0
M  V30 3406 H 319.956 -4.05316 -4.25433 0
M  V30 3407 H 321.48 -3.49887 -5.00412 0
M  V30 3408 H 322.894 -4.79667 -3.13995 0
M  V30 3409 H 321.291 -5.39675 -2.62432 0
M  V30 3410 H 322.361 -4.63155 -1.4358 0
M  V30 3411 N 323.704 0.605807 -1.45491 0
M  V30 3412 C 324.944 1.37606 -1.51142 0
M  V30 3413 C 325.308 1.91413 -0.150075 0
M  V30 3414 O 326.509 2.68677 -0.0812828 0
M  V30 3415 C 324.78 2.49197 -2.56195 0
M  V30 3416 S 326.339 3.36953 -2.81083 0
M  V30 3417 H 323.157 0.469118 -0.534275 0
M  V30 3418 H 325.759 0.698845 -1.82583 0
M  V30 3419 H 324.463 2.0802 -3.53773 0
M  V30 3420 H 323.994 3.21717 -2.26411 0
M  V30 3421 H 326.009 4.47395 -2.14598 0
M  V30 3422 N 325.182 1.32811 0.848464 0
M  V30 3423 C 326.129 1.22265 1.95755 0
M  V30 3424 C 327.099 0.103413 1.65778 0
M  V30 3425 O 328.284 0.280033 1.88734 0
M  V30 3426 C 325.424 0.958014 3.31536 0
M  V30 3427 C 324.537 2.16262 3.73971 0
M  V30 3428 C 323.672 1.83295 4.98575 0
M  V30 3429 C 322.711 3.00041 5.33518 0
M  V30 3430 N 321.848 2.67125 6.49299 0
M  V30 3431 H 326.688 2.17128 2.04107 0
M  V30 3432 H 324.225 1.07982 0.998913 0
M  V30 3433 H 326.183 0.785052 4.09747 0
M  V30 3434 H 324.813 0.046159 3.22767 0
M  V30 3435 H 323.865 2.44565 2.91362 0
M  V30 3436 H 325.177 3.03572 3.95785 0
M  V30 3437 H 324.331 1.62586 5.84509 0
M  V30 3438 H 323.07 0.932078 4.7871 0
M  V30 3439 H 322.075 3.21374 4.46093 0
M  V30 3440 H 323.3 3.90869 5.55336 0
M  V30 3441 H 321.246 1.79586 6.3094 0
M  V30 3442 H 321.163 3.47965 6.71161 0
M  V30 3443 H 322.431 2.49861 7.3837 0
M  V30 3444 N 326.66 -1.06551 1.16123 0
M  V30 3445 C 327.623 -2.12132 0.867906 0
M  V30 3446 C 328.623 -1.60224 -0.135944 0
M  V30 3447 O 329.813 -1.73943 0.0946422 0
M  V30 3448 C 326.945 -3.396 0.297419 0
M  V30 3449 H 328.138 -2.39586 1.80385 0
M  V30 3450 H 325.691 -1.22574 0.969812 0
M  V30 3451 H 326.426 -3.17794 -0.64633 0
M  V30 3452 H 326.211 -3.78581 1.02073 0
M  V30 3453 H 327.701 -4.17455 0.110052 0
M  V30 3454 N 328.138 -0.959301 -1.25041 0
M  V30 3455 C 329.101 -0.487677 -2.23952 0
M  V30 3456 C 330.101 0.41119 -1.55454 0
M  V30 3457 O 331.291 0.207825 -1.72956 0
M  V30 3458 C 328.423 0.294807 -3.39623 0
M  V30 3459 H 329.616 -1.36198 -2.67189 0
M  V30 3460 H 327.169 -0.743042 -1.37508 0
M  V30 3461 H 327.904 1.18658 -3.01813 0
M  V30 3462 H 327.689 -0.35012 -3.90534 0
M  V30 3463 H 329.179 0.614089 -4.1306 0
M  V30 3464 O 329.655 1.36296 -0.866345 0
M  V30 3465 H 330.346 1.88046 -0.464585 0
M  V30 END ATOM
M  V30 BEGIN BOND
M  V30 END BOND
M  V30 END CTAB
M  END
$$$$
