drugbank_target|P0A006 Protein ArsC (DB02763; DB03138; DB03352)
 OpenBabel12092120013D

  0  0  0     0  0            999 V3000
M  V30 BEGIN CTAB
M  V30 COUNTS 2052 2073 0 0 0
M  V30 BEGIN ATOM
M  V30 1 H -0.908 1.98254 -0.117106 0
M  V30 2 N 0 1.576 0 0
M  V30 3 C 0.933 2.03868 1.02534 0
M  V30 4 C 1.911 0.928543 1.3348 0
M  V30 5 O 3.095 1.19667 1.45644 0
M  V30 6 C 0.222 2.43627 2.35294 0
M  V30 7 C -0.732 3.65373 2.2001 0
M  V30 8 S 0.101 5.13292 1.52614 0
M  V30 9 C 1.257 5.56322 2.86805 0
M  V30 10 H 1.49 2.90518 0.631377 0
M  V30 11 H -0.977 1.52953 0.210867 0
M  V30 12 H 0.981 2.67203 3.11629 0
M  V30 13 H -0.358 1.57376 2.7183 0
M  V30 14 H -1.165 3.90944 3.18086 0
M  V30 15 H -1.563 3.418 1.51819 0
M  V30 16 H 0.729 5.58782 3.83104 0
M  V30 17 H 1.672 6.56266 2.65933 0
M  V30 18 H 2.08 4.83886 2.90714 0
M  V30 19 N 1.4781 -0.272755 1.55222 0
M  V30 20 C 2.7551 -1.02562 1.66555 0
M  V30 21 C 3.1351 -2.04282 0.532189 0
M  V30 22 O 2.4831 -2.23662 -0.467717 0
M  V30 23 C 2.6931 -1.6822 3.05782 0
M  V30 24 C 4.0411 -2.19373 3.63539 0
M  V30 25 O 5.0651 -1.78206 3.08417 0
M  V30 26 O 3.9241 -2.94883 4.60115 0
M  V30 27 H 1.0181 -0.475755 0.676451 0
M  V30 28 H 3.5641 -0.268593 1.67561 0
M  V30 29 H 2.3361 -0.945112 3.79715 0
M  V30 30 H 1.9591 -2.50609 3.08676 0
M  V30 31 N 2.9562 -1.48159 -0.537278 0
M  V30 32 C 3.9032 -1.62138 -1.64256 0
M  V30 33 C 4.8732 -0.463668 -1.59497 0
M  V30 34 O 6.0582 -0.686241 -1.78032 0
M  V30 35 C 3.1982 -1.66028 -3.02537 0
M  V30 36 C 2.3112 -2.92855 -3.17585 0
M  V30 37 C 1.4462 -2.87952 -4.46382 0
M  V30 38 C 0.4852 -4.09516 -4.54932 0
M  V30 39 N -0.3778 -4.02733 -5.75109 0
M  V30 40 H 4.4622 -2.56529 -1.51647 0
M  V30 41 H 1.9992 -1.27224 -0.738414 0
M  V30 42 H 3.9572 -1.66265 -3.82638 0
M  V30 43 H 2.5872 -0.751331 -3.13934 0
M  V30 44 H 1.6392 -3.02395 -2.30784 0
M  V30 45 H 2.9512 -3.82822 -3.19764 0
M  V30 46 H 2.1052 -2.8655 -5.34765 0
M  V30 47 H 0.8442 -1.95702 -4.46712 0
M  V30 48 H -0.1508 -4.11201 -3.64957 0
M  V30 49 H 1.0742 -5.02917 -4.56346 0
M  V30 50 H -0.9798 -3.13299 -5.76351 0
M  V30 51 H -1.0628 -4.86397 -5.78752 0
M  V30 52 H 0.2052 -4.05379 -6.65799 0
M  V30 53 N 4.4343 0.785586 -1.36625 0
M  V30 54 C 5.3813 1.89838 -1.31264 0
M  V30 55 C 6.3513 1.65115 -0.180633 0
M  V30 56 O 7.5363 1.87222 -0.36777 0
M  V30 57 C 4.6763 3.26706 -1.11163 0
M  V30 58 C 3.7893 3.63476 -2.33472 0
M  V30 59 C 2.9243 4.89481 -2.06353 0
M  V30 60 C 1.9633 5.18941 -3.24602 0
M  V30 61 N 1.1003 6.36131 -2.97123 0
M  V30 62 H 5.9403 1.93756 -2.26413 0
M  V30 63 H 3.4773 0.947454 -1.12524 0
M  V30 64 H 5.4353 4.05639 -0.975337 0
M  V30 65 H 4.0653 3.222 -0.196674 0
M  V30 66 H 3.1173 2.79636 -2.57891 0
M  V30 67 H 4.4293 3.81193 -3.21704 0
M  V30 68 H 3.5833 5.76288 -1.89675 0
M  V30 69 H 2.3223 4.73841 -1.15437 0
M  V30 70 H 1.3273 4.30615 -3.41834 0
M  V30 71 H 2.5523 5.36498 -4.16349 0
M  V30 72 H 0.4983 6.21875 -2.08823 0
M  V30 73 H 0.4153 6.54198 -3.78894 0
M  V30 74 H 1.6833 7.2591 -2.84033 0
M  V30 75 N 5.9124 1.20967 1.01018 0
M  V30 76 C 7.1404 1.04956 1.78303 0
M  V30 77 C 7.5554 -0.400915 1.84494 0
M  V30 78 O 6.9124 -1.27826 1.30257 0
M  V30 79 C 6.9634 1.63403 3.22462 0
M  V30 80 O 6.6844 3.02775 3.16637 0
M  V30 81 C 8.1854 1.52432 4.16268 0
M  V30 82 H 5.4054 0.368858 0.560522 0
M  V30 83 H 7.9494 1.60193 1.27116 0
M  V30 84 H 6.1044 1.1227 3.70775 0
M  V30 85 H 6.5184 3.30626 4.07169 0
M  V30 86 H 7.9924 1.98078 5.15237 0
M  V30 87 H 8.4694 0.477875 4.36592 0
M  V30 88 H 9.0754 2.02787 3.73841 0
M  V30 89 N 7.3905 -1.2043 1.01659 0
M  V30 90 C 8.6395 -1.89118 0.701237 0
M  V30 91 C 8.9525 -1.79705 -0.772358 0
M  V30 92 O 10.1585 -2.43528 -1.20026 0
M  V30 93 C 8.6145 -3.39168 1.20388 0
M  V30 94 C 8.2225 -3.57166 2.70438 0
M  V30 95 C 9.9665 -4.1341 0.963953 0
M  V30 96 C 7.8735 -5.01042 3.14183 0
M  V30 97 H 6.8035 -0.708267 0.2586 0
M  V30 98 H 9.4545 -1.36239 1.22927 0
M  V30 99 H 7.8365 -3.91369 0.603824 0
M  V30 100 H 9.0105 -3.15351 3.35992 0
M  V30 101 H 7.3255 -2.96294 2.92572 0
M  V30 102 H 9.9225 -5.19491 1.26621 0
M  V30 103 H 10.2655 -4.16181 -0.099578 0
M  V30 104 H 10.7985 -3.67309 1.52738 0
M  V30 105 H 7.5375 -5.03426 4.19812 0
M  V30 106 H 7.0575 -5.43668 2.53348 0
M  V30 107 H 8.7365 -5.69623 3.0682 0
M  V30 108 N 8.8686 -0.792821 -1.36206 0
M  V30 109 C 10.0986 -0.378275 -2.03107 0
M  V30 110 C 10.5066 1.01119 -1.59911 0
M  V30 111 O 9.8496 1.66052 -0.785658 0
M  V30 112 C 9.9116 -0.366535 -3.57627 0
M  V30 113 C 9.5756 -1.70416 -4.24037 0
M  V30 114 C 10.5726 -2.6602 -4.46687 0
M  V30 115 C 8.2576 -1.98439 -4.6144 0
M  V30 116 C 10.2516 -3.8784 -5.05825 0
M  V30 117 C 7.9386 -3.20525 -5.20295 0
M  V30 118 C 8.9366 -4.15044 -5.42427 0
M  V30 119 O 8.6246 -5.34978 -6.00045 0
M  V30 120 H 8.3566 -0.153543 -0.658332 0
M  V30 121 H 10.9106 -1.07383 -1.75094 0
M  V30 122 H 9.1406 0.385539 -3.84773 0
M  V30 123 H 10.8296 0.0238088 -4.05893 0
M  V30 124 H 11.5956 -2.45658 -4.18183 0
M  V30 125 H 7.4746 -1.25686 -4.43536 0
M  V30 126 H 11.0186 -4.61628 -5.23015 0
M  V30 127 H 6.9156 -3.40764 -5.48225 0
M  V30 128 H 7.6836 -5.36088 -6.18508 0
M  V30 129 N 10.3467 1.47872 -0.545128 0
M  V30 130 C 11.5937 2.02493 -0.0165858 0
M  V30 131 C 11.9217 1.42073 1.32836 0
M  V30 132 O 11.1767 0.561459 1.87473 0
M  V30 133 C 11.4757 3.57131 0.13867 0
M  V30 134 C 11.1417 4.36411 -1.13384 0
M  V30 135 C 9.8037 4.57792 -1.48256 0
M  V30 136 C 12.1557 4.82223 -1.97764 0
M  V30 137 C 9.4837 5.22233 -2.67376 0
M  V30 138 C 11.8357 5.47977 -3.16076 0
M  V30 139 C 10.4997 5.67593 -3.51275 0
M  V30 140 H 9.7697 0.740975 -0.00606918 0
M  V30 141 H 12.4167 1.77683 -0.714207 0
M  V30 142 H 10.7217 3.80865 0.919172 0
M  V30 143 H 12.4187 3.97031 0.562782 0
M  V30 144 H 9.0087 4.2004 -0.852297 0
M  V30 145 H 13.1927 4.65493 -1.72132 0
M  V30 146 H 8.4487 5.35616 -2.94831 0
M  V30 147 H 12.6227 5.8244 -3.81755 0
M  V30 148 H 10.2497 6.17298 -4.43675 0
M  V30 149 N 11.8248 0.280983 1.55075 0
M  V30 150 C 13.0738 -0.334784 1.98902 0
M  V30 151 C 13.3868 -1.56534 1.17288 0
M  V30 152 O 14.5928 -2.25443 1.51287 0
M  V30 153 C 13.0488 -0.646994 3.54037 0
M  V30 154 C 12.6568 0.564085 4.44435 0
M  V30 155 C 14.4008 -1.22506 4.06439 0
M  V30 156 C 12.3078 0.226137 5.90967 0
M  V30 157 H 11.2378 -0.128866 0.742906 0
M  V30 158 H 13.8888 0.386556 1.79382 0
M  V30 159 H 12.2708 -1.42739 3.6938 0
M  V30 160 H 13.4448 1.34082 4.40861 0
M  V30 161 H 11.7598 1.0594 4.02698 0
M  V30 162 H 14.3568 -1.49182 5.13468 0
M  V30 163 H 14.6998 -2.16085 3.55827 0
M  V30 164 H 15.2328 -0.50682 3.94558 0
M  V30 165 H 11.9718 1.12996 6.45687 0
M  V30 166 H 11.4918 -0.513717 5.97596 0
M  V30 167 H 13.1708 -0.179539 6.46751 0
M  V30 168 N 13.3029 -1.57598 0.00835791 0
M  V30 169 C 14.5429 -1.92788 -0.679136 0
M  V30 170 C 14.9069 -0.883378 -1.70471 0
M  V30 171 O 16.1079 -1.12079 -2.44319 0
M  V30 172 C 14.3789 -3.32994 -1.29807 0
M  V30 173 S 15.9379 -3.90082 -2.00952 0
M  V30 174 H 12.7559 -0.67475 -0.224127 0
M  V30 175 H 15.3579 -1.95385 0.0670497 0
M  V30 176 H 14.0619 -4.06846 -0.538922 0
M  V30 177 H 13.5929 -3.33791 -2.082 0
M  V30 178 H 15.6079 -3.71834 -3.28563 0
M  V30 179 N 14.781 0.264519 -1.55364 0
M  V30 180 C 16.009 1.013 -1.80405 0
M  V30 181 C 16.424 1.79618 -0.581622 0
M  V30 182 O 15.781 1.76879 0.449468 0
M  V30 183 C 15.832 1.96487 -3.03439 0
M  V30 184 O 15.553 1.21341 -4.20961 0
M  V30 185 C 17.054 2.83079 -3.41147 0
M  V30 186 H 14.274 0.298875 -0.600762 0
M  V30 187 H 16.818 0.292736 -2.02394 0
M  V30 188 H 14.973 2.63965 -2.83551 0
M  V30 189 H 15.387 1.85573 -4.90574 0
M  V30 190 H 16.861 3.4565 -4.30384 0
M  V30 191 H 17.338 3.53286 -2.60932 0
M  V30 192 H 17.944 2.2108 -3.63323 0
M  V30 193 N 16.2591 1.48442 0.529413 0
M  V30 194 C 17.5071 1.56179 1.28267 0
M  V30 195 C 17.8281 0.237721 1.93546 0
M  V30 196 O 17.0981 -0.740779 1.81354 0
M  V30 197 H 15.6781 0.575367 0.476405 0
M  V30 198 H 18.3401 1.84909 0.61602 0
M  V30 199 H 17.4361 2.34312 2.06165 0
M  V30 200 N 17.7372 -0.778329 1.37039 0
M  V30 201 C 18.6852 -1.91278 1.32345 0
M  V30 202 C 19.6792 -1.68051 0.213331 0
M  V30 203 O 20.8852 -1.75922 0.38098 0
M  V30 204 H 17.2602 -0.628909 0.412283 0
M  V30 205 H 19.2312 -1.92355 2.28127 0
M  V30 206 C 17.9802 -3.28455 1.14073 0
M  V30 207 H 17.3032 -3.46901 1.98746 0
M  V30 208 H 18.7432 -4.08152 1.14837 0
M  V30 209 C 17.2022 -3.36548 -0.154015 0
M  V30 210 O 17.7322 -3.85186 -1.13993 0
M  V30 211 N 15.9382 -2.89894 -0.202475 0
M  V30 212 H 15.4852 -2.50504 0.600476 0
M  V30 213 H 15.4432 -2.9569 -1.06841 0
M  V30 214 N 19.2153 -1.21501 -1.00376 0
M  V30 215 C 20.4403 -1.05977 -1.78279 0
M  V30 216 C 20.8653 0.385994 -1.84097 0
M  V30 217 O 20.2233 1.27849 -1.28547 0
M  V30 218 C 20.2713 -1.66302 -3.19963 0
M  V30 219 O 19.3753 -0.909333 -4.0225 0
M  V30 220 H 18.7163 -0.372906 -0.549397 0
M  V30 221 H 21.2463 -1.6107 -1.26165 0
M  V30 222 H 21.2563 -1.70574 -3.70632 0
M  V30 223 H 19.9313 -2.71515 -3.15043 0
M  V30 224 H 18.5083 -0.941795 -3.60811 0
M  V30 225 N 20.6934 1.19889 -1.02296 0
M  V30 226 C 21.9334 1.91125 -0.724602 0
M  V30 227 C 22.2974 1.77464 0.732835 0
M  V30 228 O 23.4984 2.43241 1.144 0
M  V30 229 C 21.7694 3.38187 -1.15604 0
M  V30 230 S 23.3284 4.27702 -0.980621 0
M  V30 231 H 20.1464 0.66018 -0.263976 0
M  V30 232 H 22.7484 1.44978 -1.31155 0
M  V30 233 H 21.4524 3.45653 -2.21251 0
M  V30 234 H 20.9834 3.89363 -0.562131 0
M  V30 235 H 22.9984 4.96073 0.112225 0
M  V30 236 N 22.1715 0.800033 1.35784 0
M  V30 237 C 23.5875 0.482977 1.52117 0
M  V30 238 C 23.7875 -0.996948 1.75109 0
M  V30 239 O 22.8435 -1.78216 1.78872 0
M  V30 240 C 24.1565 1.32264 2.70049 0
M  V30 241 C 25.7045 1.31742 2.83924 0
M  V30 242 C 26.1795 2.14106 4.04874 0
M  V30 243 N 27.6705 2.11607 4.12039 0
M  V30 244 C 28.4055 2.72099 5.04727 0
M  V30 245 N 27.9015 3.41492 6.02789 0
M  V30 246 N 29.6945 2.61776 4.97423 0
M  V30 247 H 21.8455 1.75856 1.19115 0
M  V30 248 H 24.1085 0.748122 0.582252 0
M  V30 249 H 23.8145 2.37261 2.59616 0
M  V30 250 H 23.6885 0.971303 3.6448 0
M  V30 251 H 26.0755 0.275333 2.93813 0
M  V30 252 H 26.1565 1.70859 1.9037 0
M  V30 253 H 25.8005 3.18351 3.95746 0
M  V30 254 H 25.7305 1.72353 4.97596 0
M  V30 255 H 28.2215 1.61112 3.41835 0
M  V30 256 H 28.5345 3.84953 6.70098 0
M  V30 257 H 26.8795 3.45596 6.02983 0
M  V30 258 H 30.0705 2.07157 4.19766 0
M  V30 259 H 30.2435 3.0921 5.69468 0
M  V30 260 N 23.6496 -1.47581 0.552962 0
M  V30 261 C 24.8746 -2.07378 0.0300593 0
M  V30 262 C 25.2996 -1.40355 -1.25229 0
M  V30 263 O 24.6576 -0.477099 -1.7491 0
M  V30 264 C 24.7056 -3.60274 -0.153231 0
M  V30 265 O 23.8096 -3.94041 -1.21678 0
M  V30 266 H 23.1506 -0.662158 0.0494182 0
M  V30 267 H 25.6806 -1.89662 0.767434 0
M  V30 268 H 25.6906 -4.0633 -0.368761 0
M  V30 269 H 24.3656 -4.08455 0.783397 0
M  V30 270 H 22.9426 -3.59735 -0.982079 0
M  V30 271 N 25.1277 -0.289203 -1.54924 0
M  V30 272 C 26.0597 0.625583 -2.20497 0
M  V30 273 C 27.0727 1.10667 -1.19402 0
M  V30 274 O 28.2617 1.02615 -1.46056 0
M  V30 275 C 25.3617 1.86702 -2.82835 0
M  V30 276 C 24.5347 1.5304 -4.09753 0
M  V30 277 C 23.5937 2.62576 -4.56005 0
M  V30 278 O 22.6197 2.28167 -5.21468 0
M  V30 279 N 23.8217 3.92901 -4.27328 0
M  V30 280 H 26.5867 0.0642801 -2.99631 0
M  V30 281 H 24.1477 -0.110896 -1.6152 0
M  V30 282 H 26.1397 2.59304 -3.10715 0
M  V30 283 H 24.7097 2.33702 -2.07611 0
M  V30 284 H 23.9297 0.637564 -3.8901 0
M  V30 285 H 25.2177 1.28072 -4.92418 0
M  V30 286 H 24.6157 4.23671 -3.74859 0
M  V30 287 H 23.1727 4.61837 -4.59946 0
M  V30 288 N 26.6058 1.57591 -0.0167156 0
M  V30 289 C 27.5388 2.04944 1.00366 0
M  V30 290 C 28.5168 0.942648 1.32487 0
M  V30 291 O 29.7008 1.21205 1.44367 0
M  V30 292 C 26.8278 2.46109 2.32697 0
M  V30 293 C 25.8738 3.67686 2.16123 0
M  V30 294 S 26.7068 5.14882 1.47161 0
M  V30 295 C 27.8628 5.59332 2.80888 0
M  V30 296 H 28.0958 2.91172 0.600528 0
M  V30 297 H 25.6288 1.53168 0.194632 0
M  V30 298 H 27.5868 2.70493 3.08778 0
M  V30 299 H 26.2478 1.6025 2.70146 0
M  V30 300 H 25.4408 3.94296 3.13922 0
M  V30 301 H 25.0428 3.43391 1.48185 0
M  V30 302 H 27.3348 5.62814 3.77156 0
M  V30 303 H 28.2778 6.5905 2.58958 0
M  V30 304 H 28.6858 4.86942 2.85565 0
M  V30 305 N 28.0839 -0.256276 1.55502 0
M  V30 306 C 29.0469 -1.30047 1.88734 0
M  V30 307 C 30.0469 -1.4154 0.763086 0
M  V30 308 O 31.2369 -1.40403 1.03115 0
M  V30 309 C 28.3689 -2.67953 2.10747 0
M  V30 310 H 29.5619 -1.01802 2.82093 0
M  V30 311 H 27.1149 -0.495134 1.4825 0
M  V30 312 H 27.8499 -3.01351 1.19825 0
M  V30 313 H 27.6349 -2.60993 2.92617 0
M  V30 314 H 29.1249 -3.43368 2.37673 0
M  V30 315 N 29.562 -1.4872 -0.521534 0
M  V30 316 C 30.472 -1.66569 -1.65203 0
M  V30 317 C 31.488 -0.548197 -1.65139 0
M  V30 318 O 32.664 -0.820339 -1.83936 0
M  V30 319 C 29.729 -1.70917 -3.01642 0
M  V30 320 C 28.79 -2.94356 -3.12495 0
M  V30 321 C 28.023 -2.98487 -4.42426 0
M  V30 322 O 28.246 -2.10786 -5.30024 0
M  V30 323 O 27.18 -3.90746 -4.57822 0
M  V30 324 H 31.006 -2.62298 -1.5308 0
M  V30 325 H 28.591 -1.3222 -0.695565 0
M  V30 326 H 30.473 -1.7625 -3.82771 0
M  V30 327 H 29.148 -0.783633 -3.14071 0
M  V30 328 H 28.055 -2.94552 -2.3063 0
M  V30 329 H 29.388 -3.86322 -3.04986 0
M  V30 330 N 31.0401 0.771051 -1.3745 0
M  V30 331 C 32.2881 1.52661 -1.32435 0
M  V30 332 C 32.6091 1.9479 0.0905024 0
M  V30 333 O 31.8791 1.66348 1.03466 0
M  V30 334 H 30.4591 0.566218 -0.487244 0
M  V30 335 H 33.1211 0.917636 -1.71946 0
M  V30 336 H 32.2171 2.42568 -1.96385 0
M  V30 337 N 32.5182 1.22032 0.997298 0
M  V30 338 C 33.7642 1.05382 1.73972 0
M  V30 339 C 34.1192 -0.407419 1.88037 0
M  V30 340 O 33.4122 -1.29811 1.40924 0
M  V30 341 C 33.6062 1.69345 3.14733 0
M  V30 342 C 33.4352 3.21537 3.14395 0
M  V30 343 C 32.2052 3.9062 3.20537 0
M  V30 344 C 34.4032 4.18527 2.98897 0
M  V30 345 N 32.3852 5.29935 3.09906 0
M  V30 346 C 33.7562 5.44645 2.96247 0
M  V30 347 C 35.8112 4.09476 2.83255 0
M  V30 348 C 34.5142 6.62752 2.79557 0
M  V30 349 C 36.5402 5.27228 2.67926 0
M  V30 350 C 35.9022 6.52262 2.65959 0
M  V30 351 H 32.0012 0.440018 0.646458 0
M  V30 352 H 34.5852 1.54505 1.18475 0
M  V30 353 H 32.7562 1.22778 3.68484 0
M  V30 354 H 34.4882 1.45828 3.77513 0
M  V30 355 H 31.2432 3.41592 3.28043 0
M  V30 356 H 31.6672 6.02926 3.07912 0
M  V30 357 H 36.3092 3.13598 2.83577 0
M  V30 358 H 34.0272 7.58783 2.77982 0
M  V30 359 H 37.6132 5.22053 2.56812 0
M  V30 360 H 36.4932 7.41844 2.54239 0
M  V30 361 N 33.9963 -1.19345 1.0293 0
M  V30 362 C 35.2443 -1.88665 0.724574 0
M  V30 363 C 35.5653 -1.80036 -0.749144 0
M  V30 364 O 34.8353 -1.2111 -1.53978 0
M  V30 365 H 33.4153 -0.698406 0.265025 0
M  V30 366 H 36.0773 -1.44885 1.30362 0
M  V30 367 H 35.1733 -2.94987 1.01926 0
M  V30 368 N 35.4744 -0.807222 -1.35358 0
M  V30 369 C 36.4214 -0.216037 -2.29787 0
M  V30 370 C 37.3914 0.650278 -1.52842 0
M  V30 371 O 38.5764 0.595227 -1.81278 0
M  V30 372 C 35.7164 0.628893 -3.39321 0
M  V30 373 C 34.8294 -0.257927 -4.31229 0
M  V30 374 C 33.9644 0.595069 -5.27856 0
M  V30 375 C 33.0034 -0.292111 -6.11403 0
M  V30 376 N 32.1404 0.520895 -7.00165 0
M  V30 377 H 36.9804 -1.02671 -2.79755 0
M  V30 378 H 34.5174 -0.517839 -1.37684 0
M  V30 379 H 36.4754 1.13393 -4.01494 0
M  V30 380 H 35.1054 1.40482 -2.90628 0
M  V30 381 H 34.1574 -0.881076 -3.70056 0
M  V30 382 H 35.4694 -0.940759 -4.89848 0
M  V30 383 H 34.6234 1.16522 -5.95405 0
M  V30 384 H 33.3624 1.31146 -4.69736 0
M  V30 385 H 32.3674 -0.874525 -5.428 0
M  V30 386 H 33.5924 -1.00638 -6.71602 0
M  V30 387 H 31.5384 1.22125 -6.44532 0
M  V30 388 H 31.4554 -0.103877 -7.55929 0
M  V30 389 H 32.7234 1.0743 -7.72062 0
M  V30 390 N 36.9525 1.47285 -0.560781 0
M  V30 391 C 37.8625 2.33846 0.187954 0
M  V30 392 C 38.8785 1.48412 0.908293 0
M  V30 393 O 40.0545 1.81332 0.876388 0
M  V30 394 C 37.1195 3.25178 1.2025 0
M  V30 395 C 36.1805 4.26504 0.489208 0
M  V30 396 C 35.4135 5.13472 1.45542 0
M  V30 397 O 35.6365 5.02959 2.6905 0
M  V30 398 O 34.5705 5.93902 0.977963 0
M  V30 399 H 38.3965 2.99177 -0.522177 0
M  V30 400 H 35.9815 1.45903 -0.321364 0
M  V30 401 H 37.8635 3.81584 1.78805 0
M  V30 402 H 36.5385 2.6247 1.89449 0
M  V30 403 H 35.4455 3.73847 -0.137627 0
M  V30 404 H 36.7785 4.91935 -0.161399 0
M  V30 405 N 38.4306 0.297415 1.54768 0
M  V30 406 C 39.6796 -0.313669 1.99246 0
M  V30 407 C 39.9926 -1.55281 1.18942 0
M  V30 408 O 41.1986 -2.23825 1.5367 0
M  V30 409 C 39.6546 -0.609407 3.54703 0
M  V30 410 C 39.2626 0.611192 4.43811 0
M  V30 411 C 41.0066 -1.18188 4.07715 0
M  V30 412 C 38.9136 0.288805 5.90694 0
M  V30 413 H 37.8436 -0.120979 0.744231 0
M  V30 414 H 40.4946 0.40556 1.78962 0
M  V30 415 H 38.8766 -1.38813 3.70873 0
M  V30 416 H 40.0506 1.3875 4.39414 0
M  V30 417 H 38.3656 1.10205 4.01552 0
M  V30 418 H 40.9626 -1.43727 5.15021 0
M  V30 419 H 41.3056 -2.12299 3.58099 0
M  V30 420 H 41.8386 -0.464944 3.95074 0
M  V30 421 H 38.5776 1.19838 6.44453 0
M  V30 422 H 38.0976 -0.450305 5.98107 0
M  V30 423 H 39.7766 -0.110933 6.46905 0
M  V30 424 N 39.9087 -1.5758 0.0250728 0
M  V30 425 C 40.8387 -2.13007 -0.956575 0
M  V30 426 C 41.8197 -1.0452 -1.342 0
M  V30 427 O 43.0047 -1.32332 -1.42133 0
M  V30 428 C 40.1347 -2.65386 -2.24026 0
M  V30 429 C 39.0887 -3.78623 -1.99571 0
M  V30 430 C 38.4147 -4.17414 -3.3417 0
M  V30 431 C 39.7147 -5.04867 -1.33814 0
M  V30 432 H 41.4087 -2.9528 -0.494991 0
M  V30 433 H 38.9547 -1.42042 -0.236651 0
M  V30 434 H 40.9077 -3.02794 -2.93076 0
M  V30 435 H 39.6317 -1.80268 -2.72343 0
M  V30 436 H 38.2907 -3.41646 -1.32941 0
M  V30 437 H 37.9387 -3.29284 -3.80238 0
M  V30 438 H 37.6387 -4.93719 -3.18615 0
M  V30 439 H 39.1627 -4.57402 -4.04495 0
M  V30 440 H 40.5767 -5.39888 -1.92857 0
M  V30 441 H 38.9737 -5.86144 -1.28669 0
M  V30 442 H 40.0437 -4.83904 -0.310561 0
M  V30 443 N 41.3868 0.248026 -1.55636 0
M  V30 444 C 42.6348 0.974295 -1.77065 0
M  V30 445 C 42.9558 1.85897 -0.588849 0
M  V30 446 O 42.2258 1.91868 0.395407 0
M  V30 447 H 40.8058 0.362733 -0.653019 0
M  V30 448 H 43.4678 0.266244 -1.93073 0
M  V30 449 H 42.5638 1.59667 -2.68166 0
M  V30 450 N 42.8649 1.48995 0.513639 0
M  V30 451 C 43.7749 1.67443 1.64317 0
M  V30 452 C 44.7909 0.556947 1.64846 0
M  V30 453 O 45.9669 0.830082 1.83498 0
M  V30 454 C 43.0319 1.72515 3.00732 0
M  V30 455 C 42.0929 2.96009 3.1093 0
M  V30 456 C 41.3259 3.00829 4.40837 0
M  V30 457 O 41.5489 2.13594 5.28898 0
M  V30 458 O 40.4829 3.93168 4.55744 0
M  V30 459 H 44.3089 2.63106 1.51687 0
M  V30 460 H 41.8939 1.32588 0.688543 0
M  V30 461 H 43.7759 1.78277 3.81831 0
M  V30 462 H 42.4509 0.800278 3.13651 0
M  V30 463 H 41.3579 2.9577 2.29065 0
M  V30 464 H 42.6909 3.87934 3.02933 0
M  V30 465 N 44.343 -0.763751 1.37857 0
M  V30 466 C 45.591 -1.51957 1.33243 0
M  V30 467 C 45.912 -1.94835 -0.0801709 0
M  V30 468 O 45.182 -1.66894 -1.02582 0
M  V30 469 H 43.762 -0.563626 0.49024 0
M  V30 470 H 46.424 -0.908504 1.7243 0
M  V30 471 H 45.52 -2.41523 1.97669 0
M  V30 472 N 45.8211 -1.22559 -0.990812 0
M  V30 473 C 47.0671 -1.06303 -1.73411 0
M  V30 474 C 47.4221 0.397442 -1.8825 0
M  V30 475 O 46.7151 1.29062 -1.41611 0
M  V30 476 C 46.9091 -1.71011 -3.13831 0
M  V30 477 C 46.7381 -3.232 -3.12685 0
M  V30 478 C 45.5081 -3.92314 -3.18461 0
M  V30 479 C 47.7061 -4.20107 -2.96673 0
M  V30 480 N 45.6881 -5.31571 -3.07091 0
M  V30 481 C 47.0591 -5.46208 -2.93354 0
M  V30 482 C 49.1141 -4.10973 -2.8108 0
M  V30 483 C 47.8171 -6.64225 -2.76039 0
M  V30 484 C 49.8431 -5.28642 -2.65126 0
M  V30 485 C 49.2051 -6.53663 -2.62496 0
M  V30 486 H 45.3041 -0.443441 -0.644115 0
M  V30 487 H 47.8881 -1.55131 -1.17654 0
M  V30 488 H 46.0591 -1.2473 -3.67827 0
M  V30 489 H 47.7911 -1.47828 -3.76735 0
M  V30 490 H 44.5461 -3.43326 -3.26227 0
M  V30 491 H 44.9701 -6.0455 -3.0471 0
M  V30 492 H 49.6121 -3.15098 -2.8191 0
M  V30 493 H 47.3301 -7.60246 -2.73954 0
M  V30 494 H 50.9161 -5.23407 -2.54039 0
M  V30 495 H 49.7961 -7.43182 -2.50302 0
M  V30 496 N 47.2992 1.18797 -1.03562 0
M  V30 497 C 48.2472 2.24297 -0.615905 0
M  V30 498 C 49.2412 1.65643 0.354808 0
M  V30 499 O 50.4472 1.78618 0.22265 0
M  V30 500 H 46.8222 0.729909 -0.180934 0
M  V30 501 H 48.7932 2.5701 -1.5162 0
M  V30 502 C 47.5422 3.47698 0.0104735 0
M  V30 503 H 46.8652 3.93125 -0.727509 0
M  V30 504 H 48.3052 4.23159 0.266995 0
M  V30 505 C 46.7642 3.12489 1.25905 0
M  V30 506 O 47.2942 3.25761 2.35038 0
M  V30 507 N 45.5002 2.6686 1.15039 0
M  V30 508 H 45.0472 2.56261 0.262328 0
M  V30 509 H 45.0052 2.43674 1.98672 0
M  V30 510 N 48.7773 0.814389 1.34928 0
M  V30 511 C 50.0233 0.399013 1.98836 0
M  V30 512 C 50.3563 -1.03314 1.64438 0
M  V30 513 O 49.6313 -1.71811 0.911659 0
M  V30 514 C 49.9143 0.591629 3.55207 0
M  V30 515 C 49.7673 2.06928 3.99376 0
M  V30 516 C 51.0863 0.022199 4.40094 0
M  V30 517 H 48.2053 0.146451 0.722303 0
M  V30 518 H 50.8473 1.02537 1.59957 0
M  V30 519 H 48.9973 0.0584441 3.88456 0
M  V30 520 H 50.6693 2.66544 3.76499 0
M  V30 521 H 48.9123 2.56287 3.49999 0
M  V30 522 H 49.5833 2.1549 5.08201 0
M  V30 523 H 52.0593 0.477643 4.13349 0
M  V30 524 H 50.9353 0.186832 5.48582 0
M  V30 525 H 51.1963 -1.07215 4.28902 0
M  V30 526 N 50.2554 -1.46986 0.568584 0
M  V30 527 C 51.4854 -2.0653 0.0539173 0
M  V30 528 C 51.8934 -1.42004 -1.25026 0
M  V30 529 O 51.2364 -0.514541 -1.76347 0
M  V30 530 C 51.2984 -3.58938 -0.200854 0
M  V30 531 C 50.9624 -4.45572 1.01559 0
M  V30 532 C 51.9594 -4.82986 1.92407 0
M  V30 533 C 49.6444 -4.8692 1.23346 0
M  V30 534 C 51.6384 -5.60559 3.03402 0
M  V30 535 C 49.3254 -5.64255 2.34649 0
M  V30 536 C 50.3234 -6.00986 3.24507 0
M  V30 537 O 50.0114 -6.76761 4.33878 0
M  V30 538 H 49.7434 -0.674292 0.0480234 0
M  V30 539 H 52.2974 -1.89812 0.784896 0
M  V30 540 H 50.5274 -3.73911 -0.986279 0
M  V30 541 H 52.2164 -4.0046 -0.662294 0
M  V30 542 H 52.9824 -4.51633 1.76785 0
M  V30 543 H 48.8614 -4.57789 0.543178 0
M  V30 544 H 52.4054 -5.89147 3.73565 0
M  V30 545 H 48.3024 -5.95021 2.5024 0
M  V30 546 H 49.0704 -6.95168 4.32068 0
M  V30 547 N 51.7335 -0.305618 -1.54608 0
M  V30 548 C 52.9585 0.307562 -2.05107 0
M  V30 549 C 53.3835 1.46385 -1.18123 0
M  V30 550 O 52.7415 1.8034 -0.186324 0
M  V30 551 C 52.7895 0.73704 -3.52987 0
M  V30 552 O 51.8935 1.84134 -3.6901 0
M  V30 553 H 51.2345 0.0589143 -0.661381 0
M  V30 554 H 53.7645 -0.448807 -1.99617 0
M  V30 555 H 53.7745 1.02459 -3.94925 0
M  V30 556 H 52.4495 -0.108773 -4.15758 0
M  V30 557 H 51.0265 1.55398 -3.38978 0
M  V30 558 N 53.2116 1.57565 -0.0334293 0
M  V30 559 C 54.1746 2.09393 0.932048 0
M  V30 560 C 55.1746 1.00986 1.25134 0
M  V30 561 O 56.3646 1.27129 1.19096 0
M  V30 562 C 53.4966 2.56338 2.2473 0
M  V30 563 H 54.6896 2.95984 0.483085 0
M  V30 564 H 52.2426 1.54819 0.21468 0
M  V30 565 H 52.9776 1.7309 2.74245 0
M  V30 566 H 52.7626 3.35542 2.02865 0
M  V30 567 H 54.2526 2.96646 2.93923 0
M  V30 568 N 54.6897 -0.239769 1.55765 0
M  V30 569 C 55.9377 -0.964892 1.77579 0
M  V30 570 C 56.2587 -1.85582 0.598699 0
M  V30 571 O 55.5287 -1.92075 -0.385226 0
M  V30 572 H 54.1087 -0.359265 0.654933 0
M  V30 573 H 56.7707 -0.256001 1.93211 0
M  V30 574 H 55.8667 -1.58243 2.69009 0
M  V30 575 N 56.1678 -1.49265 -0.50573 0
M  V30 576 C 57.4168 -1.57761 -1.25675 0
M  V30 577 C 57.7298 -0.267371 -1.93764 0
M  V30 578 O 58.9358 -0.230827 -2.70517 0
M  V30 579 C 57.3918 -2.78332 -2.28165 0
M  V30 580 C 56.9998 -4.16096 -1.66037 0
M  V30 581 C 58.7438 -2.96155 -3.04125 0
M  V30 582 C 56.6508 -5.27895 -2.6661 0
M  V30 583 H 55.5808 -0.587391 -0.472745 0
M  V30 584 H 58.2318 -1.75644 -0.53118 0
M  V30 585 H 56.6138 -2.53934 -3.03865 0
M  V30 586 H 57.7878 -4.50612 -0.963622 0
M  V30 587 H 56.1028 -4.03591 -1.02484 0
M  V30 588 H 58.6998 -3.76849 -3.79327 0
M  V30 589 H 59.0428 -2.06534 -3.61455 0
M  V30 590 H 59.5758 -3.2057 -2.35541 0
M  V30 591 H 56.3148 -6.1956 -2.14068 0
M  V30 592 H 55.8348 -4.97839 -3.34539 0
M  V30 593 H 57.5138 -5.57031 -3.29129 0
M  V30 594 N 57.6459 0.756429 -1.3826 0
M  V30 595 C 58.5559 1.9009 -1.37488 0
M  V30 596 C 59.5719 1.71855 -0.272366 0
M  V30 597 O 60.7479 1.94827 -0.510318 0
M  V30 598 C 57.8129 3.25421 -1.19592 0
M  V30 599 C 56.8739 3.56202 -2.39622 0
M  V30 600 C 56.1069 4.85075 -2.2257 0
M  V30 601 O 56.3299 5.57246 -1.21793 0
M  V30 602 O 55.2639 5.15269 -3.11098 0
M  V30 603 H 59.0899 1.93695 -2.33914 0
M  V30 604 H 56.6749 0.901313 -1.1915 0
M  V30 605 H 58.5569 4.06337 -1.11661 0
M  V30 606 H 57.2319 3.22634 -0.262486 0
M  V30 607 H 56.1389 2.75458 -2.53128 0
M  V30 608 H 57.4719 3.63747 -3.31586 0
M  V30 609 N 59.124 1.23083 0.984299 0
M  V30 610 C 60.352 1.08714 1.76037 0
M  V30 611 C 60.767 -0.361691 1.85303 0
M  V30 612 O 60.124 -1.25034 1.32939 0
M  V30 613 C 60.175 1.70206 3.18923 0
M  V30 614 O 59.896 3.09423 3.10144 0
M  V30 615 C 61.397 1.61227 4.12941 0
M  V30 616 H 58.617 0.380664 0.552572 0
M  V30 617 H 61.161 1.62853 1.23689 0
M  V30 618 H 59.316 1.20109 3.6831 0
M  V30 619 H 59.73 3.39188 4.00065 0
M  V30 620 H 61.204 2.08962 5.10919 0
M  V30 621 H 61.681 0.570375 4.35481 0
M  V30 622 H 62.287 2.10671 3.69456 0
M  V30 623 N 60.6021 -1.18246 1.0419 0
M  V30 624 C 61.5521 -2.19843 0.604392 0
M  V30 625 C 62.5361 -1.56962 -0.353814 0
M  V30 626 O 63.7281 -1.76156 -0.17267 0
M  V30 627 C 60.8571 -3.43287 -0.0298975 0
M  V30 628 C 59.9431 -4.13288 0.951531 0
M  V30 629 N 60.3341 -4.59271 2.11906 0
M  V30 630 C 58.6321 -4.39165 0.7778 0
M  V30 631 C 59.3331 -5.13173 2.73912 0
M  V30 632 N 58.3091 -5.04763 2.01779 0
M  V30 633 H 62.1111 -2.53089 1.4941 0
M  V30 634 H 59.6251 -1.34465 0.910658 0
M  V30 635 H 61.6221 -4.15334 -0.361037 0
M  V30 636 H 60.2821 -3.11537 -0.915127 0
M  V30 637 H 61.2931 -4.5368 2.49789 0
M  V30 638 H 57.9701 -4.17461 -0.0572331 0
M  V30 639 H 59.3601 -5.58947 3.72864 0
M  V30 640 N 62.0802 -0.821533 -1.34494 0
M  V30 641 C 63.3282 -0.408139 -1.97936 0
M  V30 642 C 63.6492 1.03193 -1.65457 0
M  V30 643 O 62.9192 1.71622 -0.944595 0
M  V30 644 H 61.4992 -0.147928 -0.732206 0
M  V30 645 H 64.1612 -1.05067 -1.64155 0
M  V30 646 H 63.2572 -0.52601 -3.07635 0
M  V30 647 N 63.5583 1.46682 -0.576371 0
M  V30 648 C 64.8043 2.02712 -0.0596221 0
M  V30 649 C 65.1373 1.44765 1.29448 0
M  V30 650 O 64.4123 0.610355 1.84675 0
M  V30 651 C 64.6953 3.60098 0.0129503 0
M  V30 652 C 64.5483 4.28441 -1.3696 0
M  V30 653 C 65.8673 4.34224 0.71678 0
M  V30 654 H 62.9863 0.736637 -0.0231407 0
M  V30 655 H 65.6283 1.74898 -0.742351 0
M  V30 656 H 63.7783 3.83926 0.594378 0
M  V30 657 H 65.4503 4.15896 -1.9957 0
M  V30 658 H 63.6933 3.8805 -1.93907 0
M  V30 659 H 64.3643 5.3716 -1.27135 0
M  V30 660 H 66.8403 4.15503 0.222908 0
M  V30 661 H 65.7163 5.43936 0.73657 0
M  V30 662 H 65.9773 4.04823 1.77682 0
M  V30 663 N 65.0364 0.313813 1.54444 0
M  V30 664 C 65.9844 -0.572171 2.25453 0
M  V30 665 C 66.9784 -1.12657 1.2651 0
M  V30 666 O 68.1844 -1.07573 1.44319 0
M  V30 667 H 64.5594 -0.203146 0.724041 0
M  V30 668 H 66.5304 0.0491145 2.9836 0
M  V30 669 C 65.2794 -1.72626 3.0182 0
M  V30 670 H 64.6024 -1.30891 3.77767 0
M  V30 671 H 66.0424 -2.32199 3.54767 0
M  V30 672 C 64.5014 -2.63806 2.09542 0
M  V30 673 O 65.0314 -3.65256 1.67185 0
M  V30 674 N 63.2374 -2.31824 1.75232 0
M  V30 675 H 62.7844 -1.49368 2.09873 0
M  V30 676 H 62.7424 -2.93095 1.13767 0
M  V30 677 N 66.5145 -1.57545 0.0417849 0
M  V30 678 C 67.9255 -1.80011 -0.495259 0
M  V30 679 C 68.2765 -0.953199 -1.71489 0
M  V30 680 O 67.4015 -0.167138 -2.15754 0
M  V30 681 C 67.9965 -3.26482 -0.905265 0
M  V30 682 C 66.5555 -3.499 -1.38734 0
M  V30 683 C 65.7025 -2.74979 -0.358056 0
M  V30 684 H 68.6535 -1.56425 0.267736 0
M  V30 685 H 68.6745 -3.36887 -1.76882 0
M  V30 686 H 68.1865 -3.88096 -0.017401 0
M  V30 687 H 66.2875 -2.93553 -2.29471 0
M  V30 688 H 66.4005 -4.58615 -1.38598 0
M  V30 689 H 64.7645 -2.40834 -0.828912 0
M  V30 690 H 65.5475 -3.39315 0.521561 0
M  V30 691 N 67.9926 0.231505 -1.5589 0
M  V30 692 C 68.9396 1.28682 -1.91598 0
M  V30 693 C 69.9096 1.47071 -0.771974 0
M  V30 694 O 71.0946 1.60802 -1.027 0
M  V30 695 C 68.2346 2.6342 -2.22944 0
M  V30 696 C 67.3476 2.52912 -3.50228 0
M  V30 697 C 66.4826 3.80106 -3.7107 0
M  V30 698 C 65.5216 3.64279 -4.91902 0
M  V30 699 N 64.6586 4.834 -5.09184 0
M  V30 700 H 69.4986 0.975305 -2.81588 0
M  V30 701 H 67.0356 0.470299 -1.39379 0
M  V30 702 H 68.9936 3.41869 -2.39126 0
M  V30 703 H 67.6236 2.92687 -1.36139 0
M  V30 704 H 66.6756 1.6595 -3.42294 0
M  V30 705 H 67.9876 2.37133 -4.38827 0
M  V30 706 H 67.1416 4.66999 -3.87295 0
M  V30 707 H 65.8806 3.98799 -2.80733 0
M  V30 708 H 64.8856 2.7577 -4.75637 0
M  V30 709 H 66.1106 3.47067 -5.83714 0
M  V30 710 H 64.0566 5.02425 -4.21788 0
M  V30 711 H 63.9736 4.70311 -5.91898 0
M  V30 712 H 65.2416 5.71747 -5.29835 0
M  V30 713 N 69.4707 1.49531 0.497807 0
M  V30 714 C 70.4337 1.65916 1.58128 0
M  V30 715 C 71.4337 0.530825 1.51786 0
M  V30 716 O 72.6237 0.797342 1.54881 0
M  V30 717 C 69.7557 1.65951 2.9778 0
M  V30 718 H 70.9487 2.62556 1.44929 0
M  V30 719 H 68.5017 1.38611 0.722275 0
M  V30 720 H 69.2367 0.709065 3.16453 0
M  V30 721 H 69.0217 2.47897 3.03792 0
M  V30 722 H 70.5117 1.80673 3.76493 0
M  V30 723 N 70.9488 -0.749086 1.3866 0
M  V30 724 C 72.1978 -1.50371 1.3443 0
M  V30 725 C 72.5108 -1.95503 -0.0616397 0
M  V30 726 O 73.7168 -2.70554 -0.226489 0
M  V30 727 C 72.1728 -2.71644 2.36088 0
M  V30 728 C 71.7808 -2.3352 3.82325 0
M  V30 729 C 73.5248 -3.49518 2.40909 0
M  V30 730 C 71.4318 -3.51431 4.75658 0
M  V30 731 H 70.3618 -0.564628 0.499712 0
M  V30 732 H 73.0128 -0.818449 1.64237 0
M  V30 733 H 71.3948 -3.42175 1.9933 0
M  V30 734 H 72.5688 -1.70627 4.28046 0
M  V30 735 H 70.8838 -1.6877 3.80665 0
M  V30 736 H 73.4808 -4.37197 3.07836 0
M  V30 737 H 73.8238 -3.90992 1.42937 0
M  V30 738 H 74.3568 -2.86005 2.76489 0
M  V30 739 H 71.0958 -3.15019 5.74842 0
M  V30 740 H 70.6158 -4.13352 4.34627 0
M  V30 741 H 72.2948 -4.17953 4.93887 0
M  V30 742 N 72.4269 -1.23603 -0.977757 0
M  V30 743 C 73.3369 -1.03632 -2.1047 0
M  V30 744 C 74.3529 0.0199435 -1.73989 0
M  V30 745 O 75.5289 -0.176076 -2.00629 0
M  V30 746 C 72.5939 -0.63276 -3.40877 0
M  V30 747 C 71.6549 -1.76437 -3.91367 0
M  V30 748 C 70.8879 -1.37997 -5.15551 0
M  V30 749 O 71.1109 -0.265357 -5.69782 0
M  V30 750 O 70.0449 -2.20201 -5.60174 0
M  V30 751 H 73.8709 -1.98086 -2.30208 0
M  V30 752 H 71.4559 -1.02332 -1.08851 0
M  V30 753 H 73.3379 -0.418761 -4.19314 0
M  V30 754 H 72.0129 0.282754 -3.22463 0
M  V30 755 H 70.9199 -2.03304 -3.14036 0
M  V30 756 H 72.2529 -2.6583 -4.14241 0
M  V30 757 N 73.905 1.17692 -1.04816 0
M  V30 758 C 74.868 2.19787 -0.650117 0
M  V30 759 C 75.868 1.58044 0.296427 0
M  V30 760 O 77.058 1.74012 0.0808097 0
M  V30 761 C 74.19 3.40869 0.0456987 0
M  V30 762 H 75.383 2.56516 -1.5537 0
M  V30 763 H 72.936 1.31708 -0.841594 0
M  V30 764 H 73.671 3.09681 0.962726 0
M  V30 765 H 73.456 3.86928 -0.634727 0
M  V30 766 H 74.946 4.16445 0.310432 0
M  V30 767 N 75.3831 0.828654 1.34056 0
M  V30 768 C 76.3161 0.199763 2.27324 0
M  V30 769 C 77.2941 -0.647168 1.49166 0
M  V30 770 O 78.4781 -0.609661 1.78369 0
M  V30 771 C 75.6051 -0.720455 3.30949 0
M  V30 772 C 74.6511 0.0496888 4.26471 0
M  V30 773 S 75.4841 1.40072 5.16856 0
M  V30 774 C 76.6401 0.485527 6.24014 0
M  V30 775 H 76.8731 0.990478 2.80316 0
M  V30 776 H 74.4061 0.624857 1.41191 0
M  V30 777 H 76.3641 -1.24581 3.91139 0
M  V30 778 H 75.0251 -1.48474 2.76793 0
M  V30 779 H 74.2181 -0.650104 4.9979 0
M  V30 780 H 73.8201 0.505779 3.70564 0
M  V30 781 H 76.1121 -0.320672 6.76741 0
M  V30 782 H 77.0551 1.18856 6.98054 0
M  V30 783 H 77.4631 0.0714109 5.64455 0
M  V30 784 N 76.8612 -1.46375 0.584142 0
M  V30 785 C 77.8082 -2.30323 -0.148286 0
M  V30 786 C 78.7782 -1.40703 -0.882713 0
M  V30 787 O 79.9632 -1.69651 -0.873099 0
M  V30 788 C 77.1032 -3.25196 -1.15507 0
M  V30 789 C 76.2162 -4.29915 -0.423943 0
M  V30 790 C 75.3512 -5.11914 -1.41838 0
M  V30 791 C 74.3902 -6.08381 -0.673736 0
M  V30 792 N 73.5272 -6.83242 -1.6163 0
M  V30 793 H 78.3672 -2.92427 0.573644 0
M  V30 794 H 75.9042 -1.44118 0.294703 0
M  V30 795 H 77.8622 -3.78646 -1.75166 0
M  V30 796 H 76.4922 -2.64898 -1.8447 0
M  V30 797 H 75.5442 -3.7931 0.287714 0
M  V30 798 H 76.8562 -4.98549 0.158128 0
M  V30 799 H 76.0102 -5.69648 -2.08773 0
M  V30 800 H 74.7492 -4.43243 -2.03438 0
M  V30 801 H 73.7542 -5.49799 0.00938483 0
M  V30 802 H 74.9792 -6.79071 -0.0631082 0
M  V30 803 H 72.9252 -6.1728 -2.22038 0
M  V30 804 H 72.8422 -7.48144 -1.08707 0
M  V30 805 H 74.1102 -7.45534 -2.27596 0
M  V30 806 N 78.3393 -0.321999 -1.54275 0
M  V30 807 C 79.2493 0.553631 -2.27974 0
M  V30 808 C 80.2653 1.13054 -1.32268 0
M  V30 809 O 81.4413 1.15084 -1.6528 0
M  V30 810 C 78.5063 1.69927 -3.02201 0
M  V30 811 C 77.5673 1.15433 -4.1349 0
M  V30 812 C 76.8003 2.24537 -4.84168 0
M  V30 813 O 77.0233 3.44852 -4.5435 0
M  V30 814 O 75.9573 1.90044 -5.7111 0
M  V30 815 H 79.7833 -0.0448345 -3.03667 0
M  V30 816 H 77.3683 -0.0877418 -1.49142 0
M  V30 817 H 79.2503 2.3663 -3.48689 0
M  V30 818 H 77.9253 2.28395 -2.29385 0
M  V30 819 H 76.8323 0.452436 -3.71354 0
M  V30 820 H 78.1653 0.614805 -4.88345 0
M  V30 821 N 79.8174 1.5752 -0.0501392 0
M  V30 822 C 81.0634 1.92936 0.624798 0
M  V30 823 C 81.3964 0.928685 1.70555 0
M  V30 824 O 80.6714 -0.0454779 1.94447 0
M  V30 825 C 80.9544 3.38737 1.22185 0
M  V30 826 C 80.8074 4.49552 0.149218 0
M  V30 827 C 82.1264 3.84913 2.13378 0
M  V30 828 H 79.2454 0.701604 0.225657 0
M  V30 829 H 81.8874 1.89671 -0.111693 0
M  V30 830 H 80.0374 3.4165 1.84953 0
M  V30 831 H 81.7094 4.58768 -0.482648 0
M  V30 832 H 79.9524 4.30638 -0.522841 0
M  V30 833 H 80.6234 5.48653 0.606966 0
M  V30 834 H 83.0994 3.8387 1.60572 0
M  V30 835 H 81.9754 4.87584 2.52097 0
M  V30 836 H 82.2364 3.21611 3.03346 0
M  V30 837 N 81.2955 -0.223234 1.56011 0
M  V30 838 C 82.5725 -0.972108 1.69733 0
M  V30 839 C 82.9525 -2.02485 0.59691 0
M  V30 840 O 82.3005 -2.25037 -0.396324 0
M  V30 841 C 82.5105 -1.58407 3.10979 0
M  V30 842 C 83.8585 -2.07696 3.70334 0
M  V30 843 O 84.8825 -1.68304 3.1393 0
M  V30 844 O 83.7415 -2.80096 4.69264 0
M  V30 845 H 80.8355 -0.453993 0.691245 0
M  V30 846 H 83.3815 -0.215149 1.68331 0
M  V30 847 H 82.1535 -0.823831 3.82529 0
M  V30 848 H 81.7765 -2.40661 3.16493 0
M  V30 849 N 82.7736 -1.49793 -0.48987 0
M  V30 850 C 84.0226 -1.59085 -1.23995 0
M  V30 851 C 84.3356 -0.287907 -1.9347 0
M  V30 852 O 85.5416 -0.259506 -2.70257 0
M  V30 853 C 83.9976 -2.80736 -2.252 0
M  V30 854 C 83.6056 -4.17833 -1.61614 0
M  V30 855 C 85.3496 -2.99364 -3.00967 0
M  V30 856 C 83.2566 -5.30693 -2.60996 0
M  V30 857 H 82.1866 -0.592372 -0.466488 0
M  V30 858 H 84.8376 -1.76197 -0.51252 0
M  V30 859 H 83.2196 -2.57142 -3.01154 0
M  V30 860 H 84.3936 -4.51608 -0.915774 0
M  V30 861 H 82.7086 -4.04656 -0.981977 0
M  V30 862 H 85.3056 -3.80851 -3.75308 0
M  V30 863 H 85.6486 -2.10356 -3.59244 0
M  V30 864 H 86.1816 -3.2305 -2.32128 0
M  V30 865 H 82.9206 -6.21796 -2.07485 0
M  V30 866 H 82.4406 -5.01359 -3.2924 0
M  V30 867 H 84.1196 -5.6049 -3.23202 0
M  V30 868 N 84.2517 0.741722 -1.39055 0
M  V30 869 C 85.5287 1.49252 -1.26425 0
M  V30 870 C 85.9087 2.10705 0.129144 0
M  V30 871 O 85.2567 1.98045 1.13976 0
M  V30 872 C 85.4667 2.54934 -2.38347 0
M  V30 873 C 86.8147 3.21506 -2.77343 0
M  V30 874 O 87.8387 2.65245 -2.37747 0
M  V30 875 O 86.6977 4.23294 -3.45665 0
M  V30 876 H 83.7917 0.662451 -0.495064 0
M  V30 877 H 86.3377 0.776121 -1.50912 0
M  V30 878 H 85.1097 2.07857 -3.31529 0
M  V30 879 H 84.7327 3.34141 -2.15489 0
M  V30 880 N 85.7298 1.2412 0.971189 0
M  V30 881 C 86.9788 1.07284 1.70801 0
M  V30 882 C 87.2918 -0.388902 1.91695 0
M  V30 883 O 88.4978 -0.677379 2.62914 0
M  V30 884 C 86.9538 1.87145 3.07416 0
M  V30 885 C 86.5618 3.37707 2.94377 0
M  V30 886 C 88.3058 1.78828 3.84995 0
M  V30 887 C 86.2128 4.09925 4.26281 0
M  V30 888 H 85.1428 0.397854 0.64049 0
M  V30 889 H 87.7938 1.4817 1.0825 0
M  V30 890 H 86.1758 1.39071 3.70777 0
M  V30 891 H 87.3498 3.93335 2.4005 0
M  V30 892 H 85.6648 3.46938 2.30267 0
M  V30 893 H 88.2618 2.30089 4.82662 0
M  V30 894 H 88.6048 0.75284 4.09436 0
M  V30 895 H 89.1378 2.24563 3.28354 0
M  V30 896 H 85.8768 5.13813 4.07033 0
M  V30 897 H 85.3968 3.59083 4.80437 0
M  V30 898 H 87.0758 4.1673 4.94919 0
M  V30 899 N 87.2079 -1.17134 1.05439 0
M  V30 900 C 88.4329 -1.91913 0.786396 0
M  V30 901 C 88.8579 -1.7643 -0.652234 0
M  V30 902 O 88.2159 -1.08372 -1.45345 0
M  V30 903 C 88.2639 -3.40921 1.17497 0
M  V30 904 O 87.3679 -4.11244 0.308589 0
M  V30 905 H 86.7089 -0.598215 0.288158 0
M  V30 906 H 89.2389 -1.48457 1.4079 0
M  V30 907 H 89.2489 -3.91668 1.14281 0
M  V30 908 H 87.9239 -3.5151 2.22292 0
M  V30 909 H 86.5009 -3.70731 0.40157 0
M  V30 910 N 88.686 -0.835752 -1.33615 0
M  V30 911 C 89.634 -0.255238 -2.31195 0
M  V30 912 C 90.628 0.61107 -1.57995 0
M  V30 913 O 91.834 0.500979 -1.72888 0
M  V30 914 H 88.209 -0.0638085 -0.749288 0
M  V30 915 H 90.18 -1.09283 -2.77669 0
M  V30 916 C 88.929 0.55754 -3.43201 0
M  V30 917 H 88.252 -0.0997553 -3.99676 0
M  V30 918 H 89.692 0.929622 -4.13683 0
M  V30 919 C 88.151 1.73515 -2.88781 0
M  V30 920 O 88.681 2.83376 -2.84712 0
M  V30 921 N 86.887 1.55603 -2.4543 0
M  V30 922 H 86.434 0.662354 -2.48939 0
M  V30 923 H 86.392 2.34545 -2.09371 0
M  V30 924 N 90.1641 1.46063 -0.591896 0
M  V30 925 C 91.1141 2.27458 0.157172 0
M  V30 926 C 92.0981 1.3641 0.853301 0
M  V30 927 O 93.2901 1.60517 0.74588 0
M  V30 928 C 90.4191 3.22956 1.16423 0
M  V30 929 C 89.5051 4.2149 0.469742 0
M  V30 930 N 89.8961 5.03519 -0.479839 0
M  V30 931 C 88.1941 4.40161 0.719319 0
M  V30 932 C 88.8951 5.74904 -0.886591 0
M  V30 933 N 87.8711 5.43097 -0.233731 0
M  V30 934 H 91.6731 2.88272 -0.572392 0
M  V30 935 H 89.1871 1.57024 -0.414375 0
M  V30 936 H 91.1841 3.79986 1.71513 0
M  V30 937 H 89.8441 2.63701 1.89451 0
M  V30 938 H 90.8551 5.1078 -0.855823 0
M  V30 939 H 87.5321 3.92046 1.43548 0
M  V30 940 H 88.9221 6.50844 -1.66888 0
M  V30 941 N 91.6422 0.330177 1.54103 0
M  V30 942 C 92.8702 -0.272179 2.05102 0
M  V30 943 C 93.2852 -1.45267 1.20595 0
M  V30 944 O 92.6422 -1.8094 0.238144 0
M  V30 945 C 92.6932 -0.70023 3.54653 0
M  V30 946 O 92.4142 0.433301 4.35952 0
M  V30 947 C 93.9152 -1.3647 4.21771 0
M  V30 948 H 91.1352 -0.0549159 0.668749 0
M  V30 949 H 93.6792 0.478285 1.98828 0
M  V30 950 H 91.8342 -1.40066 3.61193 0
M  V30 951 H 92.2482 0.0947539 5.24414 0
M  V30 952 H 93.7222 -1.61509 5.27843 0
M  V30 953 H 94.1992 -2.31409 3.73292 0
M  V30 954 H 94.8052 -0.706675 4.19388 0
M  V30 955 N 93.1203 -1.57491 0.0584922 0
M  V30 956 C 94.3453 -1.97711 -0.62652 0
M  V30 957 C 94.7703 -0.936132 -1.63151 0
M  V30 958 O 94.1283 0.099811 -1.81025 0
M  V30 959 C 94.1763 -3.36989 -1.28338 0
M  V30 960 O 93.2803 -3.35433 -2.39913 0
M  V30 961 H 92.6213 -0.643868 -0.162266 0
M  V30 962 H 95.1513 -2.04193 0.129064 0
M  V30 963 H 95.1613 -3.73879 -1.63335 0
M  V30 964 H 93.8363 -4.12289 -0.546889 0
M  V30 965 H 92.4133 -3.10298 -2.06809 0
M  V30 966 N 94.5984 0.214957 -1.56127 0
M  V30 967 C 95.8754 0.963093 -1.70247 0
M  V30 968 C 96.2554 2.02166 -0.60764 0
M  V30 969 O 95.6034 2.25244 0.384385 0
M  V30 970 C 95.8134 1.56756 -3.11815 0
M  V30 971 C 97.1614 2.0573 -3.7143 0
M  V30 972 O 98.1854 1.66637 -3.14818 0
M  V30 973 O 97.0444 2.77603 -4.70743 0
M  V30 974 H 94.1384 0.450321 -0.693643 0
M  V30 975 H 96.6844 0.206219 -1.68442 0
M  V30 976 H 95.4564 0.803533 -3.82961 0
M  V30 977 H 95.0794 2.3898 -3.17765 0
M  V30 978 N 96.0765 1.50051 0.48192 0
M  V30 979 C 97.0065 1.71046 1.58951 0
M  V30 980 C 97.9875 0.559288 1.60642 0
M  V30 981 O 99.1725 0.797243 1.77081 0
M  V30 982 C 96.3025 1.79462 2.97339 0
M  V30 983 C 95.2565 2.94558 3.10515 0
M  V30 984 C 94.5825 2.88105 4.50444 0
M  V30 985 C 95.8825 4.35227 2.88747 0
M  V30 986 H 97.5765 2.6378 1.41635 0
M  V30 987 H 95.1225 1.26936 0.679942 0
M  V30 988 H 97.0755 1.92734 3.74742 0
M  V30 989 H 95.7995 0.833412 3.15788 0
M  V30 990 H 94.4585 2.80918 2.35543 0
M  V30 991 H 94.1065 1.89853 4.65795 0
M  V30 992 H 93.8065 3.65366 4.60197 0
M  V30 993 H 95.3305 3.03412 5.29881 0
M  V30 994 H 96.7445 4.49449 3.55905 0
M  V30 995 H 95.1415 5.13856 3.09955 0
M  V30 996 H 96.2115 4.48347 1.84696 0
M  V30 997 N 97.5546 -0.734337 1.39446 0
M  V30 998 C 98.8036 -1.48937 1.36017 0
M  V30 999 C 99.1166 -1.95557 -0.0409005 0
M  V30 1000 O 100.323 -2.70779 -0.19778 0
M  V30 1001 C 98.7786 -2.69125 2.38955 0
M  V30 1002 C 98.3866 -2.29452 3.8478 0
M  V30 1003 C 100.131 -3.46944 2.44603 0
M  V30 1004 C 98.0376 -3.46366 4.79358 0
M  V30 1005 H 96.9676 -0.559296 0.505672 0
M  V30 1006 H 99.6186 -0.800983 1.65095 0
M  V30 1007 H 98.0006 -3.40041 2.02948 0
M  V30 1008 H 99.1746 -1.66077 4.29831 0
M  V30 1009 H 97.4896 -1.64723 3.82433 0
M  V30 1010 H 100.087 -4.33907 3.12456 0
M  V30 1011 H 100.43 -3.89454 1.47076 0
M  V30 1012 H 100.963 -2.83056 2.79507 0
M  V30 1013 H 97.7016 -3.08905 5.78151 0
M  V30 1014 H 97.2216 -4.08719 4.38986 0
M  V30 1015 H 98.9006 -4.12691 4.98292 0
M  V30 1016 N 99.0327 -1.24633 -0.964593 0
M  V30 1017 C 100.31 -0.995809 -1.68354 0
M  V30 1018 C 100.69 0.480964 -2.05548 0
M  V30 1019 O 100.038 1.45599 -1.76105 0
M  V30 1020 C 100.248 -1.92177 -2.91323 0
M  V30 1021 C 101.596 -2.19446 -3.63495 0
M  V30 1022 O 102.62 -1.89855 -3.01386 0
M  V30 1023 O 101.479 -2.69714 -4.75307 0
M  V30 1024 H 98.5727 -0.376854 -0.736146 0
M  V30 1025 H 101.119 -1.35745 -1.0184 0
M  V30 1026 H 99.8907 -2.91938 -2.60553 0
M  V30 1027 H 99.5137 -1.56349 -3.65569 0
M  V30 1028 N 100.511 1.16574 -1.06058 0
M  V30 1029 C 101.459 2.22941 -0.663343 0
M  V30 1030 C 102.453 1.66358 0.319593 0
M  V30 1031 O 103.659 1.7905 0.184713 0
M  V30 1032 H 100.034 0.725907 -0.196376 0
M  V30 1033 H 102.005 2.53736 -1.57037 0
M  V30 1034 C 100.754 3.47642 -0.0632808 0
M  V30 1035 H 100.077 3.91493 -0.810733 0
M  V30 1036 H 101.517 4.2363 0.177177 0
M  V30 1037 C 99.9758 3.1509 1.19248 0
M  V30 1038 O 100.506 3.30673 2.28075 0
M  V30 1039 N 98.7118 2.6924 1.09353 0
M  V30 1040 H 98.2588 2.5676 0.207912 0
M  V30 1041 H 98.2168 2.47833 1.93458 0
M  V30 1042 N 101.989 0.842826 1.3317 0
M  V30 1043 C 103.266 0.362216 1.92217 0
M  V30 1044 C 103.646 -1.15289 1.76838 0
M  V30 1045 O 102.994 -1.96914 1.15919 0
M  V30 1046 C 103.204 0.813495 3.39387 0
M  V30 1047 C 104.552 0.823804 4.16532 0
M  V30 1048 O 105.576 0.757358 3.48055 0
M  V30 1049 O 104.435 0.915193 5.38782 0
M  V30 1050 H 101.529 0.103317 0.820521 0
M  V30 1051 H 104.075 0.928942 1.42017 0
M  V30 1052 H 102.847 1.85624 3.4447 0
M  V30 1053 H 102.47 0.223561 3.96971 0
M  V30 1054 N 103.467 -1.45747 0.599634 0
M  V30 1055 C 104.716 -2.01502 0.0893511 0
M  V30 1056 C 105.029 -1.4748 -1.28488 0
M  V30 1057 O 106.235 -1.95161 -1.88745 0
M  V30 1058 C 104.691 -3.59735 0.109082 0
M  V30 1059 C 104.299 -4.22754 1.48267 0
M  V30 1060 C 106.043 -4.23085 -0.346374 0
M  V30 1061 C 103.95 -5.73115 1.45921 0
M  V30 1062 H 102.88 -0.753417 0.0296347 0
M  V30 1063 H 105.531 -1.67303 0.753788 0
M  V30 1064 H 103.913 -3.91087 -0.621854 0
M  V30 1065 H 105.087 -4.02987 2.23468 0
M  V30 1066 H 103.402 -3.71567 1.87955 0
M  V30 1067 H 105.999 -5.33327 -0.38298 0
M  V30 1068 H 106.342 -3.93201 -1.36743 0
M  V30 1069 H 106.875 -3.9642 0.331038 0
M  V30 1070 H 103.614 -6.07685 2.45762 0
M  V30 1071 H 103.134 -5.95097 0.749665 0
M  V30 1072 H 104.813 -6.3616 1.17941 0
M  V30 1073 N 104.945 -0.338344 -1.53925 0
M  V30 1074 C 105.875 0.51328 -2.27789 0
M  V30 1075 C 106.856 1.107 -1.29149 0
M  V30 1076 O 108.041 1.12937 -1.57984 0
M  V30 1077 C 105.171 1.66697 -3.04679 0
M  V30 1078 C 104.125 1.20183 -4.1078 0
M  V30 1079 C 103.451 2.44363 -4.75595 0
M  V30 1080 C 104.751 0.30605 -5.21403 0
M  V30 1081 H 106.445 -0.102883 -2.99223 0
M  V30 1082 H 103.991 -0.0509219 -1.4391 0
M  V30 1083 H 105.944 2.26915 -3.55088 0
M  V30 1084 H 104.668 2.30995 -2.30887 0
M  V30 1085 H 103.327 0.622499 -3.61276 0
M  V30 1086 H 102.975 3.07057 -3.98403 0
M  V30 1087 H 102.675 2.13925 -5.47275 0
M  V30 1088 H 104.199 3.05317 -5.28786 0
M  V30 1089 H 105.613 0.814929 -5.67478 0
M  V30 1090 H 104.01 0.0937929 -6.00027 0
M  V30 1091 H 105.08 -0.65921 -4.80398 0
M  V30 1092 N 106.423 1.57458 -0.0668435 0
M  V30 1093 C 107.37 2.12439 0.902122 0
M  V30 1094 C 108.34 1.03565 1.2986 0
M  V30 1095 O 109.525 1.312 1.38532 0
M  V30 1096 C 106.665 2.6865 2.16614 0
M  V30 1097 C 105.778 3.91663 1.82274 0
M  V30 1098 C 104.913 4.36134 3.0325 0
M  V30 1099 C 103.952 5.51808 2.64904 0
M  V30 1100 N 103.089 5.9126 3.78624 0
M  V30 1101 H 107.929 2.94934 0.426382 0
M  V30 1102 H 105.466 1.4575 0.198819 0
M  V30 1103 H 107.424 2.99346 2.90599 0
M  V30 1104 H 106.054 1.88928 2.61737 0
M  V30 1105 H 105.106 3.6746 0.983719 0
M  V30 1106 H 106.418 4.75693 1.50059 0
M  V30 1107 H 105.572 4.68465 3.85519 0
M  V30 1108 H 104.311 3.50948 3.38655 0
M  V30 1109 H 103.316 5.19133 1.81055 0
M  V30 1110 H 104.541 6.38722 2.30675 0
M  V30 1111 H 102.487 5.09024 4.138 0
M  V30 1112 H 102.404 6.70018 3.5016 0
M  V30 1113 H 103.672 6.28212 4.61486 0
M  V30 1114 N 107.901 -0.206675 1.56239 0
M  V30 1115 C 108.833 -1.27997 1.9013 0
M  V30 1116 C 109.846 -1.42299 0.790883 0
M  V30 1117 O 111.035 -1.42931 1.06925 0
M  V30 1118 C 108.135 -2.65368 2.10792 0
M  V30 1119 C 107.308 -2.72824 3.41886 0
M  V30 1120 C 106.367 -3.9131 3.51799 0
M  V30 1121 O 105.393 -3.78953 4.24716 0
M  V30 1122 N 106.595 -5.06265 2.84035 0
M  V30 1123 H 109.36 -0.992444 2.82791 0
M  V30 1124 H 106.921 -0.396652 1.56966 0
M  V30 1125 H 108.913 -3.43039 2.14724 0
M  V30 1126 H 107.483 -2.86657 1.24685 0
M  V30 1127 H 106.703 -1.81515 3.49923 0
M  V30 1128 H 107.991 -2.74786 4.28217 0
M  V30 1129 H 107.389 -5.19203 2.246 0
M  V30 1130 H 105.946 -5.81925 2.93609 0
M  V30 1131 N 109.379 -1.50304 -0.473955 0
M  V30 1132 C 110.604 -1.65175 -1.25427 0
M  V30 1133 C 111.029 -0.333673 -1.85117 0
M  V30 1134 O 110.387 0.702114 -1.67153 0
M  V30 1135 C 110.435 -2.74295 -2.34082 0
M  V30 1136 O 109.539 -2.35349 -3.38651 0
M  V30 1137 H 108.88 -0.551944 -0.369126 0
M  V30 1138 H 111.41 -1.96662 -0.564364 0
M  V30 1139 H 111.42 -2.97285 -2.79438 0
M  V30 1140 H 110.095 -3.69959 -1.90008 0
M  V30 1141 H 108.672 -2.22794 -2.99027 0
M  V30 1142 N 110.857 0.726932 -1.39834 0
M  V30 1143 C 112.134 1.47902 -1.28001 0
M  V30 1144 C 112.514 2.1083 0.106789 0
M  V30 1145 O 111.862 1.99242 1.11869 0
M  V30 1146 C 112.072 2.52392 -2.41038 0
M  V30 1147 C 113.42 3.18546 -2.80737 0
M  V30 1148 O 114.444 2.62708 -2.40547 0
M  V30 1149 O 113.303 4.19604 -3.50135 0
M  V30 1150 H 110.397 0.657163 -0.502062 0
M  V30 1151 H 112.943 0.760071 -1.51727 0
M  V30 1152 H 111.715 2.04329 -3.33715 0
M  V30 1153 H 111.338 3.31837 -2.19021 0
M  V30 1154 N 112.336 1.25143 0.95797 0
M  V30 1155 C 113.266 1.07711 2.07173 0
M  V30 1156 C 114.247 -0.0128462 1.70095 0
M  V30 1157 O 115.432 0.156061 1.93572 0
M  V30 1158 C 112.562 0.691503 3.40346 0
M  V30 1159 C 111.516 1.73132 3.9142 0
M  V30 1160 C 110.842 1.20049 5.21049 0
M  V30 1161 C 112.142 3.1294 4.1817 0
M  V30 1162 H 113.836 2.00873 2.22014 0
M  V30 1163 H 111.382 0.967191 1.06684 0
M  V30 1164 H 113.335 0.556505 4.17709 0
M  V30 1165 H 112.059 -0.275819 3.25433 0
M  V30 1166 H 110.718 1.8547 3.16222 0
M  V30 1167 H 110.366 0.223499 5.02503 0
M  V30 1168 H 110.066 1.89545 5.56189 0
M  V30 1169 H 111.59 1.07782 6.01012 0
M  V30 1170 H 113.004 3.03775 4.86203 0
M  V30 1171 H 111.401 3.79875 4.64559 0
M  V30 1172 H 112.471 3.6025 3.24573 0
M  V30 1173 N 113.814 -1.1601 1.06675 0
M  V30 1174 C 115.06 -1.86909 0.786945 0
M  V30 1175 C 115.393 -1.81717 -0.685018 0
M  V30 1176 O 114.668 -1.23551 -1.50218 0
M  V30 1177 C 114.951 -3.36313 1.28707 0
M  V30 1178 C 114.804 -3.50175 2.82308 0
M  V30 1179 C 116.123 -4.3084 0.898071 0
M  V30 1180 H 113.242 -0.678677 0.287343 0
M  V30 1181 H 115.884 -1.36336 1.32334 0
M  V30 1182 H 114.034 -3.79513 0.830768 0
M  V30 1183 H 115.706 -3.15886 3.36175 0
M  V30 1184 H 113.949 -2.91959 3.20847 0
M  V30 1185 H 114.62 -4.55116 3.12368 0
M  V30 1186 H 117.096 -3.95561 1.29114 0
M  V30 1187 H 115.972 -5.33876 1.27543 0
M  V30 1188 H 116.233 -4.41662 -0.196651 0
M  V30 1189 N 115.292 -0.849877 -1.32721 0
M  V30 1190 C 116.538 -0.451591 -1.97708 0
M  V30 1191 C 116.871 0.989175 -1.6712 0
M  V30 1192 O 116.146 1.69334 -0.956891 0
M  V30 1193 C 116.429 -0.685598 -3.53513 0
M  V30 1194 C 116.282 -2.17444 -3.93749 0
M  V30 1195 C 117.601 -0.138874 -4.39881 0
M  V30 1196 H 114.72 -0.16555 -0.718166 0
M  V30 1197 H 117.362 -1.06742 -1.57182 0
M  V30 1198 H 115.512 -0.161416 -3.88165 0
M  V30 1199 H 117.184 -2.76433 -3.693 0
M  V30 1200 H 115.427 -2.65476 -3.43081 0
M  V30 1201 H 116.098 -2.28888 -5.02309 0
M  V30 1202 H 118.574 -0.587068 -4.11938 0
M  V30 1203 H 117.45 -0.332213 -5.47894 0
M  V30 1204 H 117.711 0.95806 -4.31594 0
M  V30 1205 N 116.77 1.45427 -0.607355 0
M  V30 1206 C 117.998 2.06614 -0.108814 0
M  V30 1207 C 118.413 1.45204 1.2067 0
M  V30 1208 O 117.77 0.566132 1.73497 0
M  V30 1209 C 117.821 3.61481 0.0375347 0
M  V30 1210 O 117.542 4.20598 -1.22593 0
M  V30 1211 C 119.043 4.39652 0.567561 0
M  V30 1212 H 116.263 0.66747 -0.0687351 0
M  V30 1213 H 118.807 1.86675 -0.835022 0
M  V30 1214 H 116.962 3.80762 0.714068 0
M  V30 1215 H 117.376 5.1377 -1.05547 0
M  V30 1216 H 118.85 5.48518 0.61905 0
M  V30 1217 H 119.327 4.09417 1.58978 0
M  V30 1218 H 119.933 4.25234 -0.0749202 0
M  V30 1219 N 118.248 0.346503 1.53744 0
M  V30 1220 C 119.178 -0.501193 2.28058 0
M  V30 1221 C 120.159 -1.10014 1.29734 0
M  V30 1222 O 121.344 -1.12097 1.58581 0
M  V30 1223 C 118.474 -1.65078 3.05559 0
M  V30 1224 C 117.428 -1.18003 4.11411 0
M  V30 1225 C 116.754 -2.41837 4.76884 0
M  V30 1226 C 118.054 -0.278394 5.21558 0
M  V30 1227 H 119.748 0.11875 2.99164 0
M  V30 1228 H 117.294 0.0585531 1.43881 0
M  V30 1229 H 119.247 -2.25028 3.56287 0
M  V30 1230 H 117.971 -2.29767 2.32109 0
M  V30 1231 H 116.63 -0.603331 3.61601 0
M  V30 1232 H 116.278 -3.0494 4.00026 0
M  V30 1233 H 115.978 -2.1102 5.48402 0
M  V30 1234 H 117.502 -3.02508 5.30397 0
M  V30 1235 H 118.916 -0.784823 5.67903 0
M  V30 1236 H 117.313 -0.0619707 6.00068 0
M  V30 1237 H 118.383 0.684677 4.80042 0
M  V30 1238 N 119.726 -1.57421 0.075193 0
M  V30 1239 C 120.966 -1.95495 -0.596757 0
M  V30 1240 C 121.33 -0.954886 -1.66571 0
M  V30 1241 O 122.531 -1.22341 -2.39345 0
M  V30 1242 C 120.802 -3.382 -1.15566 0
M  V30 1243 S 122.361 -3.98254 -1.84226 0
M  V30 1244 H 119.179 -0.683649 -0.195307 0
M  V30 1245 H 121.781 -1.94925 0.149859 0
M  V30 1246 H 120.485 -4.08766 -0.36588 0
M  V30 1247 H 120.016 -3.42321 -1.93856 0
M  V30 1248 H 122.031 -3.85435 -3.12497 0
M  V30 1249 N 121.204 0.198386 -1.56346 0
M  V30 1250 C 122.429 0.939682 -1.84891 0
M  V30 1251 C 122.854 1.76202 -0.658369 0
M  V30 1252 O 122.212 1.76993 0.392851 0
M  V30 1253 C 122.26 1.81428 -3.11635 0
M  V30 1254 O 121.364 2.91265 -2.91956 0
M  V30 1255 H 120.705 0.264807 -0.608912 0
M  V30 1256 H 123.235 0.204695 -2.03573 0
M  V30 1257 H 123.245 2.21958 -3.42343 0
M  V30 1258 H 121.92 1.21004 -3.97908 0
M  V30 1259 H 120.497 2.54514 -2.72538 0
M  V30 1260 N 122.682 1.50554 0.465978 0
M  V30 1261 C 123.959 1.5232 1.22712 0
M  V30 1262 C 124.339 0.270807 2.09356 0
M  V30 1263 O 123.687 -0.745541 2.15995 0
M  V30 1264 C 123.897 2.82175 2.05374 0
M  V30 1265 C 125.245 3.33033 2.6339 0
M  V30 1266 O 126.269 2.83531 2.15612 0
M  V30 1267 O 125.128 4.19336 3.50456 0
M  V30 1268 H 122.222 0.611183 0.557122 0
M  V30 1269 H 124.768 1.62847 0.477381 0
M  V30 1270 H 123.54 3.64797 1.41558 0
M  V30 1271 H 123.163 2.74675 2.87471 0
M  V30 1272 N 124.16 -0.719506 1.40217 0
M  V30 1273 C 125.123 -1.8153 1.39927 0
M  V30 1274 C 126.123 -1.58095 0.293723 0
M  V30 1275 O 127.313 -1.65209 0.552429 0
M  V30 1276 C 124.445 -3.19561 1.18716 0
M  V30 1277 H 125.638 -1.83186 2.37451 0
M  V30 1278 H 123.191 -0.924746 1.26008 0
M  V30 1279 H 123.926 -3.23557 0.219366 0
M  V30 1280 H 123.711 -3.3797 1.98793 0
M  V30 1281 H 125.201 -3.99598 1.21291 0
M  V30 1282 N 125.638 -1.25649 -0.95132 0
M  V30 1283 C 126.915 -1.01361 -1.67288 0
M  V30 1284 C 127.295 0.459135 -2.06046 0
M  V30 1285 O 126.643 1.43723 -1.7764 0
M  V30 1286 C 126.853 -1.95256 -2.89268 0
M  V30 1287 C 128.201 -2.23289 -3.61147 0
M  V30 1288 O 129.225 -1.93041 -2.99355 0
M  V30 1289 O 128.084 -2.74741 -4.72419 0
M  V30 1290 H 125.178 -0.38464 -0.732107 0
M  V30 1291 H 127.724 -1.36817 -1.00395 0
M  V30 1292 H 126.496 -2.94685 -2.57442 0
M  V30 1293 H 126.119 -1.60218 -3.6389 0
M  V30 1294 N 127.117 1.15442 -1.07289 0
M  V30 1295 C 128.065 2.22225 -0.686952 0
M  V30 1296 C 129.059 1.66688 0.30193 0
M  V30 1297 O 130.265 1.79236 0.165712 0
M  V30 1298 H 126.64 0.723783 -0.204064 0
M  V30 1299 H 128.611 2.52056 -1.5972 0
M  V30 1300 C 127.36 3.47556 -0.100149 0
M  V30 1301 H 126.683 3.90612 -0.852211 0
M  V30 1302 H 128.123 4.23794 0.132235 0
M  V30 1303 C 126.582 3.16337 1.159 0
M  V30 1304 O 127.112 3.33074 2.24555 0
M  V30 1305 N 125.318 2.70385 1.06491 0
M  V30 1306 H 124.865 2.56966 0.180668 0
M  V30 1307 H 124.823 2.49871 1.90819 0
M  V30 1308 N 128.595 0.856903 1.32268 0
M  V30 1309 C 129.543 0.291987 2.3076 0
M  V30 1310 C 130.537 -0.585857 1.58947 0
M  V30 1311 O 131.743 -0.47341 1.73663 0
M  V30 1312 H 128.118 0.075721 0.748178 0
M  V30 1313 H 130.089 1.13687 2.75895 0
M  V30 1314 C 128.838 -0.502869 3.44044 0
M  V30 1315 H 128.161 0.163328 3.99466 0
M  V30 1316 H 129.601 -0.863691 4.1511 0
M  V30 1317 C 128.06 -1.68898 2.91505 0
M  V30 1318 O 128.59 -2.78811 2.89184 0
M  V30 1319 N 126.796 -1.51679 2.47875 0
M  V30 1320 H 126.343 -0.622666 2.49961 0
M  V30 1321 H 126.301 -2.31184 2.13076 0
M  V30 1322 N 130.073 -1.45103 0.615059 0
M  V30 1323 C 131.313 -2.04069 0.116282 0
M  V30 1324 C 131.677 -1.4721 -1.2326 0
M  V30 1325 O 132.878 -1.97577 -1.82255 0
M  V30 1326 C 131.149 -3.57298 0.085482 0
M  V30 1327 S 132.708 -4.37394 -0.351015 0
M  V30 1328 H 129.526 -0.709006 0.0532183 0
M  V30 1329 H 132.128 -1.77709 0.81484 0
M  V30 1330 H 130.832 -3.9619 1.0706 0
M  V30 1331 H 130.363 -3.88244 -0.634835 0
M  V30 1332 H 132.378 -4.69734 -1.59889 0
M  V30 1333 N 131.551 -0.354651 -1.53558 0
M  V30 1334 C 132.962 0.126902 -1.86268 0
M  V30 1335 C 133.313 1.49075 -1.27558 0
M  V30 1336 O 132.438 2.08105 -0.5934 0
M  V30 1337 C 133.033 0.237046 -3.3797 0
M  V30 1338 C 131.592 0.662842 -3.70518 0
M  V30 1339 C 130.739 -0.196652 -2.76602 0
M  V30 1340 H 133.69 -0.573849 -1.47962 0
M  V30 1341 H 133.711 1.06259 -3.65362 0
M  V30 1342 H 133.223 -0.755725 -3.80671 0
M  V30 1343 H 131.324 1.66424 -3.33367 0
M  V30 1344 H 131.437 0.445034 -4.77029 0
M  V30 1345 H 129.801 0.332763 -2.52517 0
M  V30 1346 H 130.584 -1.18676 -3.22135 0
M  V30 1347 N 133.029 1.57378 -0.0835403 0
M  V30 1348 C 134.278 1.93106 0.582498 0
M  V30 1349 C 134.591 0.96651 1.70053 0
M  V30 1350 O 135.797 1.21705 2.42693 0
M  V30 1351 C 134.253 3.43076 1.08751 0
M  V30 1352 C 133.861 4.48 -0.000146404 0
M  V30 1353 C 135.605 3.87785 1.72694 0
M  V30 1354 C 133.512 5.89113 0.519568 0
M  V30 1355 H 132.442 0.720775 0.221358 0
M  V30 1356 H 135.093 1.82821 -0.157675 0
M  V30 1357 H 133.475 3.48474 1.88101 0
M  V30 1358 H 134.649 4.54233 -0.775199 0
M  V30 1359 H 132.964 4.1283 -0.54406 0
M  V30 1360 H 135.561 4.90604 2.1263 0
M  V30 1361 H 135.904 3.25796 2.59158 0
M  V30 1362 H 136.437 3.8504 0.999457 0
M  V30 1363 H 133.176 6.54775 -0.308186 0
M  V30 1364 H 132.696 5.86376 1.26188 0
M  V30 1365 H 134.375 6.39346 0.992237 0
M  V30 1366 N 134.507 -0.190092 1.56449 0
M  V30 1367 C 135.437 -1.23816 1.97969 0
M  V30 1368 C 136.418 -1.47201 0.852395 0
M  V30 1369 O 137.603 -1.58854 1.1171 0
M  V30 1370 C 134.733 -2.5813 2.3235 0
M  V30 1371 C 133.687 -2.49348 3.47864 0
M  V30 1372 C 133.013 -3.8798 3.67934 0
M  V30 1373 C 134.313 -2.01424 4.81898 0
M  V30 1374 H 136.007 -0.89311 2.85769 0
M  V30 1375 H 133.553 -0.428177 1.37487 0
M  V30 1376 H 135.506 -3.31637 2.59991 0
M  V30 1377 H 134.23 -2.94386 1.41438 0
M  V30 1378 H 132.889 -1.78297 3.20321 0
M  V30 1379 H 132.537 -4.21597 2.74344 0
M  V30 1380 H 132.237 -3.82978 4.45648 0
M  V30 1381 H 133.761 -4.63101 3.97957 0
M  V30 1382 H 135.175 -2.64693 5.08538 0
M  V30 1383 H 133.572 -2.07413 5.63116 0
M  V30 1384 H 134.642 -0.967677 4.75146 0
M  V30 1385 N 135.985 -1.50799 -0.457987 0
M  V30 1386 C 137.396 -1.55152 -1.0385 0
M  V30 1387 C 137.747 -0.362719 -1.92818 0
M  V30 1388 O 136.872 0.522915 -2.09987 0
M  V30 1389 C 137.467 -2.81173 -1.89017 0
M  V30 1390 C 136.026 -2.88164 -2.42154 0
M  V30 1391 C 135.173 -2.49591 -1.20829 0
M  V30 1392 H 138.124 -1.56874 -0.240068 0
M  V30 1393 H 138.145 -2.63769 -2.74238 0
M  V30 1394 H 137.657 -3.67677 -1.24238 0
M  V30 1395 H 135.758 -2.06042 -3.10447 0
M  V30 1396 H 135.871 -3.91356 -2.76364 0
M  V30 1397 H 134.235 -2.02322 -1.54719 0
M  V30 1398 H 135.018 -3.38418 -0.576927 0
M  V30 1399 N 137.463 0.71206 -1.40597 0
M  V30 1400 C 138.874 1.29135 -1.34837 0
M  V30 1401 C 139.225 1.96186 -0.0235395 0
M  V30 1402 O 138.35 1.97768 0.878444 0
M  V30 1403 C 138.945 2.34827 -2.44217 0
M  V30 1404 C 137.504 2.88371 -2.41907 0
M  V30 1405 C 136.651 1.62202 -2.24913 0
M  V30 1406 H 139.602 0.507944 -1.50352 0
M  V30 1407 H 139.623 3.15749 -2.12327 0
M  V30 1408 H 139.135 1.85996 -3.40627 0
M  V30 1409 H 137.236 3.41422 -1.49204 0
M  V30 1410 H 137.349 3.39925 -3.37621 0
M  V30 1411 H 135.713 1.874 -1.72492 0
M  V30 1412 H 136.496 1.15391 -3.23326 0
M  V30 1413 N 138.941 1.26152 0.944643 0
M  V30 1414 C 139.889 1.07215 2.06417 0
M  V30 1415 C 140.883 9.2007e-05 1.694 0
M  V30 1416 O 142.089 0.1565 1.79318 0
M  V30 1417 H 138.464 0.329837 0.675805 0
M  V30 1418 H 140.435 2.02099 2.19541 0
M  V30 1419 C 139.184 0.718197 3.40202 0
M  V30 1420 H 138.507 1.53497 3.69159 0
M  V30 1421 H 139.947 0.625459 4.19361 0
M  V30 1422 C 138.406 -0.576435 3.31932 0
M  V30 1423 O 138.936 -1.61574 3.67773 0
M  V30 1424 N 137.142 -0.565781 2.85039 0
M  V30 1425 H 136.689 0.280367 2.5607 0
M  V30 1426 H 136.647 -1.43213 2.79888 0
M  V30 1427 N 140.419 -1.14872 1.07899 0
M  V30 1428 C 141.665 -1.86064 0.806725 0
M  V30 1429 C 141.998 -1.82434 -0.665706 0
M  V30 1430 O 141.273 -1.25138 -1.48899 0
M  V30 1431 C 141.556 -3.34929 1.32267 0
M  V30 1432 C 141.409 -3.47161 2.86006 0
M  V30 1433 C 142.728 -4.29863 0.943717 0
M  V30 1434 H 139.847 -0.675591 0.294526 0
M  V30 1435 H 142.489 -1.34925 1.33773 0
M  V30 1436 H 140.639 -3.78611 0.870974 0
M  V30 1437 H 142.311 -3.12302 3.39507 0
M  V30 1438 H 140.554 -2.88539 3.23925 0
M  V30 1439 H 141.225 -4.51777 3.17177 0
M  V30 1440 H 143.701 -3.9417 1.33302 0
M  V30 1441 H 142.577 -5.32494 1.33198 0
M  V30 1442 H 142.838 -4.41846 -0.149796 0
M  V30 1443 N 141.898 -0.863906 -1.31812 0
M  V30 1444 C 142.845 -0.313303 -2.28664 0
M  V30 1445 C 143.815 0.584868 -1.55462 0
M  V30 1446 O 145 0.517805 -1.83639 0
M  V30 1447 C 142.14 0.48441 -3.41683 0
M  V30 1448 C 141.253 -0.440594 -4.29747 0
M  V30 1449 C 140.388 0.370652 -5.29905 0
M  V30 1450 C 139.427 -0.551164 -6.09613 0
M  V30 1451 N 138.564 0.223462 -7.01744 0
M  V30 1452 H 143.404 -1.14444 -2.75148 0
M  V30 1453 H 140.941 -0.575769 -1.35364 0
M  V30 1454 H 142.899 0.962627 -4.05943 0
M  V30 1455 H 141.529 1.28029 -2.96325 0
M  V30 1456 H 140.581 -1.03724 -3.65986 0
M  V30 1457 H 141.893 -1.14767 -4.85417 0
M  V30 1458 H 141.047 0.911638 -5.99812 0
M  V30 1459 H 139.786 1.11105 -4.74876 0
M  V30 1460 H 138.791 -1.10396 -5.38603 0
M  V30 1461 H 140.016 -1.29032 -6.66729 0
M  V30 1462 H 137.962 0.946787 -6.49132 0
M  V30 1463 H 137.879 -0.424399 -7.54808 0
M  V30 1464 H 139.147 0.745876 -7.75923 0
M  V30 1465 N 143.376 1.44774 -0.622745 0
M  V30 1466 C 144.323 2.30635 0.0871679 0
M  V30 1467 C 145.293 1.42994 0.845097 0
M  V30 1468 O 146.478 1.71907 0.827812 0
M  V30 1469 C 143.618 3.28144 1.06844 0
M  V30 1470 C 142.731 4.30888 0.309809 0
M  V30 1471 C 141.866 5.15494 1.28215 0
M  V30 1472 C 140.905 6.09953 0.512198 0
M  V30 1473 N 140.042 6.87287 1.43458 0
M  V30 1474 H 144.882 2.90803 -0.650974 0
M  V30 1475 H 142.419 1.43286 -0.33281 0
M  V30 1476 H 144.377 3.83157 1.65066 0
M  V30 1477 H 143.007 2.69695 1.77382 0
M  V30 1478 H 142.059 3.78414 -0.388181 0
M  V30 1479 H 143.371 4.97955 -0.290254 0
M  V30 1480 H 142.525 5.74983 1.93596 0
M  V30 1481 H 141.264 4.48481 1.91614 0
M  V30 1482 H 140.269 5.49581 -0.155151 0
M  V30 1483 H 141.494 6.78999 -0.116958 0
M  V30 1484 H 139.44 6.2295 2.05594 0
M  V30 1485 H 139.357 7.50763 0.888335 0
M  V30 1486 H 140.625 7.51306 2.07749 0
M  V30 1487 N 144.854 0.36279 1.53368 0
M  V30 1488 C 145.764 -0.492994 2.29362 0
M  V30 1489 C 146.78 -1.09507 1.35219 0
M  V30 1490 O 147.956 -1.10662 1.68273 0
M  V30 1491 C 145.021 -1.61855 3.066 0
M  V30 1492 C 144.082 -1.04429 4.16405 0
M  V30 1493 C 143.315 -2.11621 4.89951 0
M  V30 1494 O 143.538 -3.32684 4.63333 0
M  V30 1495 O 142.472 -1.74835 5.75948 0
M  V30 1496 H 146.298 0.125331 3.03441 0
M  V30 1497 H 143.883 0.127253 1.48857 0
M  V30 1498 H 145.765 -2.27302 3.54841 0
M  V30 1499 H 144.44 -2.22233 2.3536 0
M  V30 1500 H 143.347 -0.353819 3.72423 0
M  V30 1501 H 144.68 -0.485113 4.89804 0
M  V30 1502 N 146.332 -1.57332 0.0918853 0
M  V30 1503 C 147.282 -2.10385 -0.87876 0
M  V30 1504 C 148.266 -1.01814 -1.24591 0
M  V30 1505 O 149.458 -1.28093 -1.22152 0
M  V30 1506 C 146.587 -2.68517 -2.13901 0
M  V30 1507 C 145.673 -3.84126 -1.79744 0
M  V30 1508 N 146.064 -4.92288 -1.1613 0
M  V30 1509 C 144.362 -3.93801 -2.09373 0
M  V30 1510 C 145.063 -5.7295 -1.00513 0
M  V30 1511 N 144.039 -5.21876 -1.5214 0
M  V30 1512 H 147.841 -2.91395 -0.38293 0
M  V30 1513 H 145.355 -1.62017 -0.111423 0
M  V30 1514 H 147.352 -3.04852 -2.84378 0
M  V30 1515 H 146.012 -1.88961 -2.64053 0
M  V30 1516 H 147.023 -5.1123 -0.828504 0
M  V30 1517 H 143.7 -3.25249 -2.61762 0
M  V30 1518 H 145.09 -6.69978 -0.507902 0
M  V30 1519 N 147.81 0.181792 -1.56548 0
M  V30 1520 C 149.056 0.896803 -1.82562 0
M  V30 1521 C 149.411 1.80324 -0.670908 0
M  V30 1522 O 148.704 1.8868 0.333235 0
M  V30 1523 C 148.898 1.73728 -3.12335 0
M  V30 1524 C 148.727 0.913714 -4.4032 0
M  V30 1525 C 147.497 0.592903 -5.01809 0
M  V30 1526 C 149.695 0.260164 -5.13642 0
M  V30 1527 N 147.677 -0.247901 -6.13399 0
M  V30 1528 C 149.048 -0.442256 -6.18421 0
M  V30 1529 C 151.103 0.177253 -4.97584 0
M  V30 1530 C 149.806 -1.21971 -7.08883 0
M  V30 1531 C 151.832 -0.586839 -5.88481 0
M  V30 1532 C 151.194 -1.27766 -6.92716 0
M  V30 1533 H 147.293 0.307122 -0.719166 0
M  V30 1534 H 149.877 0.164535 -1.94004 0
M  V30 1535 H 148.048 2.44105 -3.02105 0
M  V30 1536 H 149.78 2.39279 -3.26386 0
M  V30 1537 H 146.535 0.920502 -4.64568 0
M  V30 1538 H 146.959 -0.658304 -6.73792 0
M  V30 1539 H 151.601 0.696993 -4.17015 0
M  V30 1540 H 149.319 -1.75083 -7.88905 0
M  V30 1541 H 152.905 -0.652522 -5.78129 0
M  V30 1542 H 151.785 -1.85943 -7.61836 0
M  V30 1543 N 149.288 1.51039 0.449983 0
M  V30 1544 C 150.536 1.62759 1.19808 0
M  V30 1545 C 150.857 0.339981 1.92013 0
M  V30 1546 O 150.127 -0.643606 1.85026 0
M  V30 1547 H 148.707 0.599811 0.445237 0
M  V30 1548 H 151.369 1.87914 0.517138 0
M  V30 1549 H 150.465 2.44911 1.93455 0
M  V30 1550 N 150.766 -0.704594 1.40972 0
M  V30 1551 C 152.013 -1.46458 1.39844 0
M  V30 1552 C 152.341 -1.94499 0.00447594 0
M  V30 1553 O 151.596 -1.69275 -0.982057 0
M  V30 1554 C 151.895 -2.698 2.34399 0
M  V30 1555 C 151.561 -2.40464 3.81429 0
M  V30 1556 C 150.223 -2.32174 4.21484 0
M  V30 1557 C 152.575 -2.16086 4.74296 0
M  V30 1558 C 149.903 -1.97589 5.52427 0
M  V30 1559 C 152.255 -1.83011 6.05549 0
M  V30 1560 C 150.919 -1.7321 6.44635 0
M  V30 1561 H 150.189 -0.535927 0.511725 0
M  V30 1562 H 152.836 -0.806124 1.73706 0
M  V30 1563 H 151.141 -3.40536 1.93759 0
M  V30 1564 H 152.838 -3.27919 2.30804 0
M  V30 1565 H 149.428 -2.47808 3.49699 0
M  V30 1566 H 153.612 -2.2144 4.4416 0
M  V30 1567 H 148.868 -1.88547 5.81601 0
M  V30 1568 H 153.042 -1.63164 6.77016 0
M  V30 1569 H 150.669 -1.46179 7.46013 0
M  V30 1570 N 152.244 -1.26651 -0.937939 0
M  V30 1571 C 153.521 -1.0313 -1.66204 0
M  V30 1572 C 153.901 0.437256 -2.06522 0
M  V30 1573 O 153.249 1.41831 -1.79154 0
M  V30 1574 C 153.459 -1.98314 -2.87181 0
M  V30 1575 C 154.807 -2.27107 -3.58758 0
M  V30 1576 O 155.831 -1.96205 -2.97291 0
M  V30 1577 O 154.69 -2.79736 -4.69479 0
M  V30 1578 H 151.784 -0.392384 -0.727986 0
M  V30 1579 H 154.33 -1.37874 -0.989382 0
M  V30 1580 H 153.102 -2.97399 -2.54302 0
M  V30 1581 H 152.725 -1.64068 -3.6217 0
M  V30 1582 N 153.722 1.14298 -1.08507 0
M  V30 1583 C 154.999 1.81544 -0.728088 0
M  V30 1584 C 155.379 1.95838 0.78808 0
M  V30 1585 O 154.727 1.51904 1.70697 0
M  V30 1586 C 154.937 3.17169 -1.45619 0
M  V30 1587 C 156.285 3.9265 -1.61591 0
M  V30 1588 O 157.309 3.26762 -1.41793 0
M  V30 1589 O 156.168 5.10807 -1.94263 0
M  V30 1590 H 153.262 0.78491 -0.260471 0
M  V30 1591 H 155.808 1.21307 -1.18671 0
M  V30 1592 H 154.58 3.01934 -2.489 0
M  V30 1593 H 154.203 3.851 -0.989124 0
M  V30 1594 N 155.201 0.870884 1.31352 0
M  V30 1595 C 156.612 0.534714 1.78879 0
M  V30 1596 C 156.963 -0.948423 1.71754 0
M  V30 1597 O 156.088 -1.74055 1.28584 0
M  V30 1598 C 156.683 0.963839 3.24801 0
M  V30 1599 C 155.242 0.679311 3.70219 0
M  V30 1600 C 154.389 1.15465 2.52117 0
M  V30 1601 H 157.34 1.05651 1.18421 0
M  V30 1602 H 157.361 0.286892 3.79417 0
M  V30 1603 H 156.873 2.04332 3.29955 0
M  V30 1604 H 154.974 -0.388769 3.70566 0
M  V30 1605 H 155.087 1.25698 4.62317 0
M  V30 1606 H 153.451 0.574383 2.48139 0
M  V30 1607 H 154.234 2.24157 2.60016 0
M  V30 1608 N 156.679 -1.44442 0.630414 0
M  V30 1609 C 157.642 -2.29107 -0.0652523 0
M  V30 1610 C 158.642 -1.41002 -0.772995 0
M  V30 1611 O 159.832 -1.62881 -0.617692 0
M  V30 1612 C 156.964 -3.22564 -1.10296 0
M  V30 1613 H 158.157 -2.92103 0.679401 0
M  V30 1614 H 155.71 -1.51343 0.390517 0
M  V30 1615 H 156.445 -2.64416 -1.87762 0
M  V30 1616 H 156.23 -3.87491 -0.59941 0
M  V30 1617 H 157.72 -3.86167 -1.5895 0
M  V30 1618 N 158.157 -0.370918 -1.53173 0
M  V30 1619 C 159.405 0.216673 -2.00935 0
M  V30 1620 C 159.726 1.48845 -1.25977 0
M  V30 1621 O 158.996 1.92286 -0.374551 0
M  V30 1622 H 157.576 0.0830565 -0.742368 0
M  V30 1623 H 160.238 -0.49838 -1.8842 0
M  V30 1624 H 159.334 0.439893 -3.08984 0
M  V30 1625 N 159.635 1.57281 -0.100228 0
M  V30 1626 C 160.582 2.14305 0.856858 0
M  V30 1627 C 161.552 1.06296 1.27634 0
M  V30 1628 O 162.737 1.34109 1.35718 0
M  V30 1629 C 159.877 2.73184 2.10866 0
M  V30 1630 C 158.99 3.95442 1.73925 0
M  V30 1631 C 158.125 4.42468 2.93931 0
M  V30 1632 C 157.164 5.57303 2.5314 0
M  V30 1633 N 156.301 5.99158 3.65997 0
M  V30 1634 H 161.141 2.95772 0.363726 0
M  V30 1635 H 158.678 1.46139 0.167858 0
M  V30 1636 H 160.636 3.05442 2.84185 0
M  V30 1637 H 159.266 1.94437 2.57671 0
M  V30 1638 H 158.318 3.69464 0.905554 0
M  V30 1639 H 159.63 4.78769 1.39935 0
M  V30 1640 H 158.784 4.76537 3.75496 0
M  V30 1641 H 157.523 3.58052 3.31134 0
M  V30 1642 H 156.528 5.22857 1.70003 0
M  V30 1643 H 157.753 6.43471 2.17075 0
M  V30 1644 H 155.699 5.17687 4.02909 0
M  V30 1645 H 155.616 6.77295 3.35869 0
M  V30 1646 H 156.884 6.3786 4.48057 0
M  V30 1647 N 161.113 -0.173488 1.56642 0
M  V30 1648 C 162.023 -1.23482 1.99473 0
M  V30 1649 C 163.039 -1.48567 0.905752 0
M  V30 1650 O 164.215 -1.60758 1.21321 0
M  V30 1651 C 161.28 -2.55444 2.34413 0
M  V30 1652 C 160.341 -2.38241 3.57127 0
M  V30 1653 C 159.574 -3.63909 3.90392 0
M  V30 1654 O 159.797 -4.68996 3.24653 0
M  V30 1655 O 158.731 -3.58149 4.83749 0
M  V30 1656 H 162.557 -0.901279 2.90018 0
M  V30 1657 H 160.142 -0.380185 1.44482 0
M  V30 1658 H 162.024 -3.33292 2.57865 0
M  V30 1659 H 160.699 -2.88382 1.4703 0
M  V30 1660 H 159.606 -1.58431 3.38896 0
M  V30 1661 H 160.939 -2.10228 4.45045 0
M  V30 1662 N 162.591 -1.51276 -0.441967 0
M  V30 1663 C 163.837 -1.6492 -1.1905 0
M  V30 1664 C 164.192 -0.358731 -1.89026 0
M  V30 1665 O 163.485 0.645193 -1.8041 0
M  V30 1666 C 163.679 -2.78746 -2.23686 0
M  V30 1667 C 163.508 -4.18737 -1.63979 0
M  V30 1668 C 162.278 -4.84739 -1.42674 0
M  V30 1669 C 164.476 -5.01988 -1.11858 0
M  V30 1670 N 162.458 -6.08858 -0.785159 0
M  V30 1671 C 163.829 -6.17071 -0.601989 0
M  V30 1672 C 165.884 -4.87551 -1.0099 0
M  V30 1673 C 164.587 -7.19299 0.0126012 0
M  V30 1674 C 166.613 -5.89983 -0.409206 0
M  V30 1675 C 165.975 -7.04333 0.0968651 0
M  V30 1676 H 162.074 -0.657416 -0.423471 0
M  V30 1677 H 164.658 -1.8849 -0.48782 0
M  V30 1678 H 162.829 -2.56848 -2.91348 0
M  V30 1679 H 164.561 -2.81595 -2.90666 0
M  V30 1680 H 161.316 -4.42528 -1.68719 0
M  V30 1681 H 161.74 -6.75282 -0.481942 0
M  V30 1682 H 166.382 -3.99401 -1.38703 0
M  V30 1683 H 164.1 -8.071 0.401879 0
M  V30 1684 H 167.686 -5.8088 -0.327079 0
M  V30 1685 H 166.566 -7.82238 0.554373 0
M  V30 1686 N 164.069 0.697108 -1.41344 0
M  V30 1687 C 165.294 1.49096 -1.44171 0
M  V30 1688 C 165.719 1.88038 -0.0481568 0
M  V30 1689 O 165.077 1.54525 0.948243 0
M  V30 1690 C 165.125 2.73088 -2.3549 0
M  V30 1691 O 164.229 3.70514 -1.81088 0
M  V30 1692 H 163.57 0.448801 -0.489361 0
M  V30 1693 H 166.1 0.856992 -1.85787 0
M  V30 1694 H 166.11 3.21413 -2.51312 0
M  V30 1695 H 164.785 2.44081 -3.36745 0
M  V30 1696 H 163.362 3.29441 -1.74708 0
M  V30 1697 N 165.547 1.27147 0.931209 0
M  V30 1698 C 166.457 1.11372 2.06478 0
M  V30 1699 C 167.473 0.044645 1.73943 0
M  V30 1700 O 168.649 0.250417 1.99837 0
M  V30 1701 C 165.714 0.758838 3.38294 0
M  V30 1702 C 164.775 1.90841 3.84549 0
M  V30 1703 C 164.008 1.57036 5.10074 0
M  V30 1704 O 164.231 0.476645 5.68405 0
M  V30 1705 O 163.165 2.40839 5.51616 0
M  V30 1706 H 166.991 2.06493 2.22698 0
M  V30 1707 H 164.576 1.06301 1.04978 0
M  V30 1708 H 166.458 0.574098 4.17471 0
M  V30 1709 H 165.133 -0.162879 3.2329 0
M  V30 1710 H 164.04 2.14819 3.06274 0
M  V30 1711 H 165.373 2.81021 4.04089 0
M  V30 1712 N 167.025 -1.13721 1.09112 0
M  V30 1713 C 168.272 -1.84924 0.825192 0
M  V30 1714 C 168.6 -1.83347 -0.649151 0
M  V30 1715 O 167.855 -1.26449 -1.49362 0
M  V30 1716 C 168.154 -3.32861 1.30146 0
M  V30 1717 C 167.82 -3.54621 2.78486 0
M  V30 1718 C 166.482 -3.60268 3.18999 0
M  V30 1719 C 168.834 -3.62855 3.74146 0
M  V30 1720 C 166.162 -3.71679 4.53951 0
M  V30 1721 C 168.514 -3.75793 5.08883 0
M  V30 1722 C 167.178 -3.79692 5.4899 0
M  V30 1723 H 166.448 -0.676684 0.301959 0
M  V30 1724 H 169.095 -1.3428 1.36533 0
M  V30 1725 H 167.4 -3.85835 0.681064 0
M  V30 1726 H 169.097 -3.86395 1.07236 0
M  V30 1727 H 165.687 -3.50879 2.46134 0
M  V30 1728 H 169.871 -3.57775 3.43963 0
M  V30 1729 H 165.127 -3.72963 4.84467 0
M  V30 1730 H 169.301 -3.81107 5.82864 0
M  V30 1731 H 166.928 -3.88287 6.53558 0
M  V30 1732 N 168.503 -0.877838 -1.30888 0
M  V30 1733 C 169.435 -0.296607 -2.27273 0
M  V30 1734 C 170.448 0.544799 -1.53414 0
M  V30 1735 O 171.637 0.365511 -1.74718 0
M  V30 1736 C 168.737 0.597481 -3.33592 0
M  V30 1737 C 167.91 -0.213251 -4.3688 0
M  V30 1738 C 166.969 0.610208 -5.2265 0
M  V30 1739 O 165.995 0.035441 -5.69189 0
M  V30 1740 N 167.197 1.92071 -5.47804 0
M  V30 1741 H 169.962 -1.12492 -2.77787 0
M  V30 1742 H 167.523 -0.740105 -1.43993 0
M  V30 1743 H 169.515 1.15425 -3.87891 0
M  V30 1744 H 168.085 1.32647 -2.83061 0
M  V30 1745 H 167.305 -0.951466 -3.82545 0
M  V30 1746 H 168.593 -0.769262 -5.02951 0
M  V30 1747 H 167.991 2.4107 -5.11763 0
M  V30 1748 H 166.548 2.42508 -6.05007 0
M  V30 1749 N 169.982 1.44106 -0.638065 0
M  V30 1750 C 171.398 1.56672 -0.304286 0
M  V30 1751 C 171.598 1.6244 1.19228 0
M  V30 1752 O 170.654 1.57121 1.9766 0
M  V30 1753 C 171.967 2.83503 -1.00231 0
M  V30 1754 C 173.515 2.97226 -0.981116 0
M  V30 1755 C 173.99 4.26868 -1.65974 0
M  V30 1756 N 175.481 4.33698 -1.62666 0
M  V30 1757 C 176.216 5.32745 -2.12063 0
M  V30 1758 N 175.712 6.38157 -2.6968 0
M  V30 1759 N 177.505 5.24299 -2.02651 0
M  V30 1760 H 169.656 1.38605 -1.60942 0
M  V30 1761 H 171.919 0.664661 -0.675965 0
M  V30 1762 H 171.625 2.85251 -2.0573 0
M  V30 1763 H 171.499 3.73251 -0.54439 0
M  V30 1764 H 173.886 2.95027 0.0654188 0
M  V30 1765 H 173.967 2.08808 -1.47759 0
M  V30 1766 H 173.611 4.29826 -2.70576 0
M  V30 1767 H 173.541 5.14156 -1.13804 0
M  V30 1768 H 176.032 3.58138 -1.20606 0
M  V30 1769 H 176.345 7.10029 -3.05087 0
M  V30 1770 H 174.69 6.38823 -2.73734 0
M  V30 1771 H 177.881 4.4086 -1.57353 0
M  V30 1772 H 178.054 6.01334 -2.41457 0
M  V30 1773 N 171.46 0.379036 1.52974 0
M  V30 1774 C 172.706 -0.206727 2.01744 0
M  V30 1775 C 173.039 -1.47314 1.26539 0
M  V30 1776 O 172.314 -1.91084 0.362903 0
M  V30 1777 C 172.597 -0.485066 3.56818 0
M  V30 1778 C 172.45 0.795919 4.42702 0
M  V30 1779 C 173.769 -1.28003 4.21074 0
M  V30 1780 H 170.888 -0.0736607 0.73331 0
M  V30 1781 H 173.53 0.506581 1.83122 0
M  V30 1782 H 171.68 -1.09272 3.72816 0
M  V30 1783 H 173.352 1.43307 4.38476 0
M  V30 1784 H 171.595 1.41344 4.10127 0
M  V30 1785 H 172.266 0.555947 5.49193 0
M  V30 1786 H 174.742 -0.765867 4.08991 0
M  V30 1787 H 173.618 -1.44352 5.29579 0
M  V30 1788 H 173.879 -2.29236 3.78026 0
M  V30 1789 N 172.938 -1.57226 0.108567 0
M  V30 1790 C 174.354 -1.5766 -0.248058 0
M  V30 1791 C 174.554 -1.12063 -1.67464 0
M  V30 1792 O 173.61 -0.803236 -2.39383 0
M  V30 1793 C 174.923 -3.0069 -0.0242287 0
M  V30 1794 C 176.471 -3.12868 -0.0909372 0
M  V30 1795 C 176.946 -4.57879 0.105067 0
M  V30 1796 N 178.437 -4.63172 0.0506846 0
M  V30 1797 C 179.172 -5.73126 0.177396 0
M  V30 1798 N 178.668 -6.91866 0.359696 0
M  V30 1799 N 180.461 -5.61977 0.117709 0
M  V30 1800 H 172.612 -1.85169 1.04049 0
M  V30 1801 H 174.875 -0.85529 0.40888 0
M  V30 1802 H 174.581 -3.38299 0.961604 0
M  V30 1803 H 174.455 -3.6945 -0.76068 0
M  V30 1804 H 176.842 -2.75124 -1.06729 0
M  V30 1805 H 176.923 -2.46672 0.677225 0
M  V30 1806 H 176.567 -4.96321 1.07834 0
M  V30 1807 H 176.497 -5.22153 -0.682954 0
M  V30 1808 H 178.988 -3.778 -0.0871266 0
M  V30 1809 H 179.301 -7.71503 0.447529 0
M  V30 1810 H 177.646 -6.93874 0.395536 0
M  V30 1811 H 180.837 -4.68094 -0.0236741 0
M  V30 1812 H 181.01 -6.47627 0.219905 0
M  V30 1813 N 174.416 0.165178 -1.56732 0
M  V30 1814 C 175.693 0.908443 -1.73224 0
M  V30 1815 C 176.073 2.0013 -0.67165 0
M  V30 1816 O 175.421 2.26353 0.31253 0
M  V30 1817 C 175.631 1.46756 -3.16644 0
M  V30 1818 C 176.979 1.93809 -3.77787 0
M  V30 1819 O 178.003 1.56537 -3.1996 0
M  V30 1820 O 176.862 2.62486 -4.79336 0
M  V30 1821 H 173.956 0.428025 -0.707618 0
M  V30 1822 H 176.502 0.152526 -1.69013 0
M  V30 1823 H 175.274 0.68129 -3.85323 0
M  V30 1824 H 174.897 2.28749 -3.25207 0
M  V30 1825 N 175.894 1.51508 0.433938 0
M  V30 1826 C 176.804 1.75917 1.5521 0
M  V30 1827 C 177.82 0.643545 1.61662 0
M  V30 1828 O 178.996 0.926183 1.7884 0
M  V30 1829 C 176.061 1.88213 2.91164 0
M  V30 1830 C 175.122 3.12074 2.94802 0
M  V30 1831 C 174.355 3.23774 4.24271 0
M  V30 1832 O 174.578 2.4133 5.16833 0
M  V30 1833 O 173.512 4.16774 4.34262 0
M  V30 1834 H 177.338 2.70777 1.37527 0
M  V30 1835 H 174.923 1.36051 0.617293 0
M  V30 1836 H 176.805 1.98267 3.71845 0
M  V30 1837 H 175.48 0.965413 3.08968 0
M  V30 1838 H 174.387 3.07497 2.13065 0
M  V30 1839 H 175.72 4.03446 2.81943 0
M  V30 1840 N 177.372 -0.689602 1.41712 0
M  V30 1841 C 178.621 -1.44534 1.40686 0
M  V30 1842 C 178.934 -1.95588 0.0213352 0
M  V30 1843 O 180.14 -2.71271 -0.111534 0
M  V30 1844 C 178.596 -2.61387 2.47396 0
M  V30 1845 C 178.204 -2.17094 3.91885 0
M  V30 1846 C 179.948 -3.38986 2.55517 0
M  V30 1847 C 177.855 -3.3094 4.90135 0
M  V30 1848 H 176.785 -0.542925 0.52321 0
M  V30 1849 H 179.436 -0.748054 1.6756 0
M  V30 1850 H 177.818 -3.33412 2.13664 0
M  V30 1851 H 178.992 -1.52318 4.34897 0
M  V30 1852 H 177.307 -1.52473 3.8748 0
M  V30 1853 H 179.904 -4.23747 3.26102 0
M  V30 1854 H 180.247 -3.84578 1.59391 0
M  V30 1855 H 180.78 -2.74021 2.8837 0
M  V30 1856 H 177.519 -2.90355 5.87685 0
M  V30 1857 H 177.039 -3.94546 4.51767 0
M  V30 1858 H 178.718 -3.9663 5.11169 0
M  V30 1859 N 178.85 -1.27639 -0.924453 0
M  V30 1860 C 179.797 -1.10644 -2.0255 0
M  V30 1861 C 180.767 -0.00658438 -1.66099 0
M  V30 1862 O 181.952 -0.16952 -1.90045 0
M  V30 1863 C 179.092 -0.76309 -3.36557 0
M  V30 1864 C 178.205 -1.94091 -3.85944 0
M  V30 1865 C 177.34 -1.53914 -5.08413 0
M  V30 1866 C 176.379 -2.68425 -5.50104 0
M  V30 1867 N 175.516 -2.28815 -6.63768 0
M  V30 1868 H 180.356 -2.04858 -2.16419 0
M  V30 1869 H 177.893 -1.01974 -1.06017 0
M  V30 1870 H 179.851 -0.544822 -4.13627 0
M  V30 1871 H 178.481 0.142102 -3.22487 0
M  V30 1872 H 177.533 -2.27162 -3.05125 0
M  V30 1873 H 178.845 -2.7998 -4.12811 0
M  V30 1874 H 177.999 -1.28231 -5.92994 0
M  V30 1875 H 176.738 -0.651391 -4.8333 0
M  V30 1876 H 175.743 -2.94819 -4.64071 0
M  V30 1877 H 176.968 -3.57826 -5.7718 0
M  V30 1878 H 174.914 -1.42495 -6.40337 0
M  V30 1879 H 174.831 -3.08242 -6.90306 0
M  V30 1880 H 176.099 -2.06387 -7.51681 0
M  V30 1881 N 180.328 1.1314 -1.09713 0
M  V30 1882 C 181.258 2.20748 -0.761102 0
M  V30 1883 C 182.239 1.68061 0.262566 0
M  V30 1884 O 183.424 1.93765 0.129977 0
M  V30 1885 C 180.554 3.46812 -0.184054 0
M  V30 1886 C 179.508 4.12606 -1.13757 0
M  V30 1887 C 178.834 5.33031 -0.422083 0
M  V30 1888 C 180.134 4.59603 -2.48118 0
M  V30 1889 H 181.828 2.49113 -1.66082 0
M  V30 1890 H 179.374 1.19734 -0.799987 0
M  V30 1891 H 181.327 4.21353 0.0631215 0
M  V30 1892 H 180.051 3.17851 0.750868 0
M  V30 1893 H 178.71 3.40036 -1.37007 0
M  V30 1894 H 178.358 5.00335 0.517072 0
M  V30 1895 H 178.058 5.77999 -1.05788 0
M  V30 1896 H 179.582 6.10325 -0.183277 0
M  V30 1897 H 180.996 5.25552 -2.29059 0
M  V30 1898 H 179.393 5.15321 -3.07514 0
M  V30 1899 H 180.463 3.73971 -3.08665 0
M  V30 1900 N 181.806 0.884767 1.30421 0
M  V30 1901 C 182.769 0.356277 2.26414 0
M  V30 1902 C 183.769 -0.501124 1.52792 0
M  V30 1903 O 184.959 -0.30831 1.7145 0
M  V30 1904 C 182.091 -0.492316 3.37326 0
M  V30 1905 H 183.284 1.20389 2.74675 0
M  V30 1906 H 180.837 0.661607 1.41607 0
M  V30 1907 H 181.572 -1.36052 2.94381 0
M  V30 1908 H 181.357 0.121832 3.91911 0
M  V30 1909 H 182.847 -0.853871 4.08777 0
M  V30 1910 N 183.284 -1.43765 0.645699 0
M  V30 1911 C 184.533 -2.01116 0.153412 0
M  V30 1912 C 184.846 -1.51493 -1.23731 0
M  V30 1913 O 186.052 -2.01067 -1.8244 0
M  V30 1914 C 184.508 -3.59206 0.223473 0
M  V30 1915 C 184.116 -4.17823 1.61642 0
M  V30 1916 C 185.86 -4.23972 -0.211597 0
M  V30 1917 C 183.767 -5.68183 1.64081 0
M  V30 1918 H 182.697 -0.752093 0.0535891 0
M  V30 1919 H 185.348 -1.6482 0.806633 0
M  V30 1920 H 183.73 -3.92867 -0.497118 0
M  V30 1921 H 184.904 -3.95674 2.36176 0
M  V30 1922 H 183.219 -3.65399 1.99681 0
M  V30 1923 H 185.816 -5.34275 -0.213112 0
M  V30 1924 H 186.159 -3.97352 -1.24165 0
M  V30 1925 H 186.692 -3.95166 0.456988 0
M  V30 1926 H 183.431 -5.99559 2.64971 0
M  V30 1927 H 182.951 -5.9241 0.938611 0
M  V30 1928 H 184.63 -6.32085 1.3812 0
M  V30 1929 N 184.763 -0.387143 -1.52771 0
M  V30 1930 C 185.673 0.456442 -2.30117 0
M  V30 1931 C 186.689 1.07342 -1.36944 0
M  V30 1932 O 187.865 1.07971 -1.70013 0
M  V30 1933 C 184.93 1.56957 -3.09136 0
M  V30 1934 C 183.991 0.977916 -4.18014 0
M  V30 1935 C 183.224 2.038 -4.93256 0
M  V30 1936 O 183.447 3.25271 -4.68567 0
M  V30 1937 O 182.381 1.6565 -5.78657 0
M  V30 1938 H 186.207 -0.17359 -3.03203 0
M  V30 1939 H 183.792 -0.150919 -1.48636 0
M  V30 1940 H 185.674 2.21628 -3.58412 0
M  V30 1941 H 184.349 2.18461 -2.38865 0
M  V30 1942 H 183.256 0.294525 -3.72939 0
M  V30 1943 H 184.589 0.407128 -4.90513 0
M  V30 1944 N 186.241 1.57166 -0.116904 0
M  V30 1945 C 187.188 2.15202 0.83408 0
M  V30 1946 C 188.158 1.07644 1.26499 0
M  V30 1947 O 189.343 1.35541 1.34288 0
M  V30 1948 C 186.483 2.75405 2.07957 0
M  V30 1949 C 185.596 3.97264 1.69721 0
M  V30 1950 C 184.731 4.45561 2.89221 0
M  V30 1951 C 183.77 5.59956 2.47215 0
M  V30 1952 N 182.907 6.03006 3.59622 0
M  V30 1953 H 187.747 2.96141 0.332335 0
M  V30 1954 H 185.284 1.46309 0.152349 0
M  V30 1955 H 187.242 3.08439 2.80929 0
M  V30 1956 H 185.872 1.97159 2.55594 0
M  V30 1957 H 184.924 3.70404 0.866316 0
M  V30 1958 H 186.236 4.80226 1.34849 0
M  V30 1959 H 185.39 4.80493 3.7042 0
M  V30 1960 H 184.129 3.61544 3.27318 0
M  V30 1961 H 183.134 5.2463 1.64448 0
M  V30 1962 H 184.359 6.45738 2.10238 0
M  V30 1963 H 182.305 5.21931 3.97396 0
M  V30 1964 H 182.222 6.80819 3.28667 0
M  V30 1965 H 183.49 6.42576 4.41267 0
M  V30 1966 N 187.719 -0.156864 1.56817 0
M  V30 1967 C 188.966 -0.871125 1.82805 0
M  V30 1968 C 189.294 -1.81611 0.696262 0
M  V30 1969 O 188.549 -1.93141 -0.315459 0
M  V30 1970 C 188.848 -1.68737 3.1506 0
M  V30 1971 C 188.514 -0.890045 4.42028 0
M  V30 1972 C 187.176 -0.670042 4.76512 0
M  V30 1973 C 189.528 -0.331769 5.20143 0
M  V30 1974 C 186.856 0.119104 5.86579 0
M  V30 1975 C 189.208 0.444365 6.31037 0
M  V30 1976 C 187.872 0.675035 6.64078 0
M  V30 1977 H 187.142 -0.318767 0.668931 0
M  V30 1978 H 189.789 -0.135274 1.91022 0
M  V30 1979 H 188.094 -2.49304 3.0225 0
M  V30 1980 H 189.791 -2.24331 3.3238 0
M  V30 1981 H 186.381 -1.07157 4.14988 0
M  V30 1982 H 190.565 -0.489043 4.93885 0
M  V30 1983 H 185.821 0.307417 6.10627 0
M  V30 1984 H 189.995 0.884139 6.90765 0
M  V30 1985 H 187.622 1.28839 7.49203 0
M  V30 1986 N 189.197 -1.51736 -0.425897 0
M  V30 1987 C 190.144 -1.73875 -1.51776 0
M  V30 1988 C 191.114 -0.580702 -1.55618 0
M  V30 1989 O 192.299 -0.81641 -1.72451 0
M  V30 1990 C 189.439 -1.88012 -2.89388 0
M  V30 1991 C 188.552 -3.15606 -2.94986 0
M  V30 1992 C 187.687 -3.20271 -4.23793 0
M  V30 1993 C 186.726 -4.42134 -4.23302 0
M  V30 1994 N 185.863 -4.44284 -5.43651 0
M  V30 1995 H 190.703 -2.67071 -1.32201 0
M  V30 1996 H 188.24 -1.32351 -0.642008 0
M  V30 1997 H 190.198 -1.9419 -3.69251 0
M  V30 1998 H 188.828 -0.98213 -3.07496 0
M  V30 1999 H 187.88 -3.18681 -2.07717 0
M  V30 2000 H 189.192 -4.05486 -2.90486 0
M  V30 2001 H 188.346 -3.25428 -5.12036 0
M  V30 2002 H 187.085 -2.28299 -4.30965 0
M  V30 2003 H 186.09 -4.3714 -3.3345 0
M  V30 2004 H 187.315 -5.35382 -4.17783 0
M  V30 2005 H 185.261 -3.55188 -5.51523 0
M  V30 2006 H 185.178 -5.27988 -5.41078 0
M  V30 2007 H 186.446 -4.53649 -6.33895 0
M  V30 2008 N 190.675 0.682077 -1.42076 0
M  V30 2009 C 191.605 1.80796 -1.47767 0
M  V30 2010 C 192.586 1.6677 -0.334954 0
M  V30 2011 O 193.771 1.863 -0.548264 0
M  V30 2012 C 190.901 3.19038 -1.37229 0
M  V30 2013 C 189.855 3.47789 -2.49453 0
M  V30 2014 C 189.181 4.8553 -2.23975 0
M  V30 2015 C 190.481 3.45411 -3.91776 0
M  V30 2016 H 192.175 1.7629 -2.41997 0
M  V30 2017 H 189.721 0.846721 -1.16476 0
M  V30 2018 H 191.674 3.97528 -1.39821 0
M  V30 2019 H 190.398 3.24204 -0.394907 0
M  V30 2020 H 189.057 2.71657 -2.46166 0
M  V30 2021 H 188.705 4.87337 -1.24547 0
M  V30 2022 H 188.405 5.0573 -2.99184 0
M  V30 2023 H 189.929 5.66312 -2.28304 0
M  V30 2024 H 191.343 4.13882 -3.96705 0
M  V30 2025 H 189.74 3.77145 -4.66778 0
M  V30 2026 H 190.81 2.44122 -4.18966 0
M  V30 2027 N 192.153 1.28127 0.917671 0
M  V30 2028 C 193.569 1.05749 1.19538 0
M  V30 2029 C 193.769 -0.202633 2.00479 0
M  V30 2030 O 192.825 -0.905382 2.3571 0
M  V30 2031 C 194.138 2.30273 1.93378 0
M  V30 2032 C 195.686 2.35412 2.06277 0
M  V30 2033 C 196.161 3.59692 2.83524 0
M  V30 2034 N 197.652 3.60309 2.91087 0
M  V30 2035 C 198.387 4.53147 3.51348 0
M  V30 2036 N 197.883 5.563 4.12919 0
M  V30 2037 N 199.676 4.40751 3.48849 0
M  V30 2038 H 191.827 2.09024 0.377184 0
M  V30 2039 H 194.09 0.919798 0.22951 0
M  V30 2040 H 193.796 3.22055 1.41328 0
M  V30 2041 H 193.67 2.36378 2.93947 0
M  V30 2042 H 196.057 1.4413 2.57508 0
M  V30 2043 H 196.138 2.33304 1.04895 0
M  V30 2044 H 195.782 4.51316 2.32973 0
M  V30 2045 H 195.712 3.59054 3.85211 0
M  V30 2046 H 198.203 2.85714 2.47338 0
M  V30 2047 H 198.516 6.2329 4.56869 0
M  V30 2048 H 196.861 5.60131 4.11435 0
M  V30 2049 H 200.052 3.59367 2.99955 0
M  V30 2050 H 200.225 5.13291 3.9552 0
M  V30 2051 O 193.67 -1.05238 1.22504 0
M  V30 2052 H 194.361 -1.6643 0.990999 0
M  V30 END ATOM
M  V30 BEGIN BOND
M  V30 END BOND
M  V30 END CTAB
M  END
$$$$
