drugbank_target|P0A017 Dihydrofolate reductase (DB07938; DB08234; DB08741)
 OpenBabel12092120473D

  0  0  0     0  0            999 V3000
M  V30 BEGIN CTAB
M  V30 COUNTS 2575 2608 0 0 0
M  V30 BEGIN ATOM
M  V30 1 H -0.908 1.98254 -0.117106 0
M  V30 2 N 0 1.576 0 0
M  V30 3 C 0.933 2.03868 1.02534 0
M  V30 4 C 1.911 0.928543 1.3348 0
M  V30 5 O 3.095 1.19667 1.45644 0
M  V30 6 C 0.222 2.43627 2.35294 0
M  V30 7 C -0.732 3.65373 2.2001 0
M  V30 8 S 0.101 5.13292 1.52614 0
M  V30 9 C 1.257 5.56322 2.86805 0
M  V30 10 H 1.49 2.90518 0.631377 0
M  V30 11 H -0.977 1.52953 0.210867 0
M  V30 12 H 0.981 2.67203 3.11629 0
M  V30 13 H -0.358 1.57376 2.7183 0
M  V30 14 H -1.165 3.90944 3.18086 0
M  V30 15 H -1.563 3.418 1.51819 0
M  V30 16 H 0.729 5.58782 3.83104 0
M  V30 17 H 1.672 6.56266 2.65933 0
M  V30 18 H 2.08 4.83886 2.90714 0
M  V30 19 N 1.4781 -0.272755 1.55222 0
M  V30 20 C 2.7061 -1.02255 1.79865 0
M  V30 21 C 3.1211 -1.79924 0.572088 0
M  V30 22 O 2.4781 -1.76638 -0.458842 0
M  V30 23 C 2.5291 -1.98094 3.02392 0
M  V30 24 O 2.2501 -1.23572 4.20311 0
M  V30 25 C 3.7511 -2.84884 3.39641 0
M  V30 26 H 0.9711 -0.302057 0.599168 0
M  V30 27 H 3.5151 -0.303465 2.02236 0
M  V30 28 H 1.6701 -2.65465 2.82147 0
M  V30 29 H 2.0841 -1.88172 4.89583 0
M  V30 30 H 3.5581 -3.47927 4.28545 0
M  V30 31 H 4.0351 -3.54665 2.59055 0
M  V30 32 H 4.6411 -2.23003 3.62146 0
M  V30 33 N 2.9562 -1.48159 -0.537278 0
M  V30 34 C 3.8862 -1.65029 -1.6519 0
M  V30 35 C 4.8672 -0.499281 -1.62607 0
M  V30 36 O 6.0522 -0.730972 -1.79918 0
M  V30 37 C 3.1822 -1.68303 -3.03795 0
M  V30 38 C 2.1362 -2.8283 -3.21234 0
M  V30 39 C 1.4622 -2.71189 -4.60826 0
M  V30 40 C 2.7622 -4.24211 -3.04701 0
M  V30 41 H 4.4562 -2.58341 -1.51328 0
M  V30 42 H 2.0022 -1.24325 -0.726585 0
M  V30 43 H 3.9552 -1.78693 -3.81637 0
M  V30 44 H 2.6792 -0.715635 -3.18663 0
M  V30 45 H 1.3382 -2.71983 -2.45807 0
M  V30 46 H 0.9862 -1.72435 -4.7252 0
M  V30 47 H 0.6862 -3.48035 -4.7344 0
M  V30 48 H 2.2102 -2.83537 -5.40777 0
M  V30 49 H 3.6242 -4.3593 -3.72341 0
M  V30 50 H 2.0212 -5.01998 -3.28813 0
M  V30 51 H 3.0912 -4.41184 -2.01209 0
M  V30 52 N 4.4343 0.785586 -1.36625 0
M  V30 53 C 5.6593 1.57963 -1.34397 0
M  V30 54 C 6.0843 1.87964 0.071526 0
M  V30 55 O 5.4423 1.48182 1.0446 0
M  V30 56 C 5.4903 2.87511 -2.17646 0
M  V30 57 O 4.5943 3.81281 -1.57158 0
M  V30 58 H 3.9353 0.479014 -0.459828 0
M  V30 59 H 6.4653 0.973411 -1.79961 0
M  V30 60 H 6.4753 3.36745 -2.30362 0
M  V30 61 H 5.1503 2.65002 -3.20541 0
M  V30 62 H 3.7273 3.39885 -1.53403 0
M  V30 63 N 5.9124 1.20967 1.01018 0
M  V30 64 C 7.1614 1.01796 1.74128 0
M  V30 65 C 7.4744 -0.449691 1.90361 0
M  V30 66 O 8.6804 -0.76068 2.60626 0
M  V30 67 C 7.1364 1.7727 3.13215 0
M  V30 68 C 6.7444 3.28171 3.04972 0
M  V30 69 C 8.4884 1.66489 3.90489 0
M  V30 70 C 6.3954 3.96156 4.39107 0
M  V30 71 H 5.3254 0.377276 0.652824 0
M  V30 72 H 7.9764 1.44651 1.12909 0
M  V30 73 H 6.3584 1.27205 3.75013 0
M  V30 74 H 7.5324 3.85499 2.52443 0
M  V30 75 H 5.8474 3.39437 2.41188 0
M  V30 76 H 8.4444 2.14617 4.89738 0
M  V30 77 H 8.7874 0.6222 4.11624 0
M  V30 78 H 9.3204 2.14003 3.35332 0
M  V30 79 H 6.0594 5.00604 4.23174 0
M  V30 80 H 5.5794 3.43617 4.91617 0
M  V30 81 H 7.2584 4.00774 5.07926 0
M  V30 82 N 7.3905 -1.2043 1.01659 0
M  V30 83 C 8.3205 -2.25466 0.607226 0
M  V30 84 C 9.3015 -1.65853 -0.377716 0
M  V30 85 O 10.4865 -1.92409 -0.263149 0
M  V30 86 C 7.6165 -3.47256 -0.0552949 0
M  V30 87 C 6.5705 -4.19462 0.850632 0
M  V30 88 C 5.8965 -5.34673 0.0538859 0
M  V30 89 C 7.1965 -4.75603 2.15868 0
M  V30 90 H 8.8905 -2.59962 1.48526 0
M  V30 91 H 6.4365 -1.2496 0.715605 0
M  V30 92 H 8.3895 -4.19917 -0.353233 0
M  V30 93 H 7.1135 -3.11924 -0.968045 0
M  V30 94 H 5.7725 -3.48667 1.13257 0
M  V30 95 H 5.4205 -4.95585 -0.860514 0
M  V30 96 H 5.1205 -5.83913 0.657192 0
M  V30 97 H 6.6445 -6.10138 -0.237598 0
M  V30 98 H 8.0585 -5.40083 1.92311 0
M  V30 99 H 6.4555 -5.3528 2.71284 0
M  V30 100 H 7.5255 -3.94346 2.82169 0
M  V30 101 N 8.8686 -0.792821 -1.36206 0
M  V30 102 C 10.1146 -0.36733 -1.99446 0
M  V30 103 C 10.4476 1.05917 -1.62774 0
M  V30 104 O 9.7226 1.7324 -0.88421 0
M  V30 105 C 10.0056 -0.535044 -3.56103 0
M  V30 106 C 9.8586 -2.00548 -4.02617 0
M  V30 107 C 11.1776 0.0478191 -4.40074 0
M  V30 108 H 8.2966 -0.134941 -0.724541 0
M  V30 109 H 10.9386 -0.999794 -1.61568 0
M  V30 110 H 9.0886 0.00336329 -3.885 0
M  V30 111 H 10.7606 -2.60521 -3.80692 0
M  V30 112 H 9.0036 -2.50686 -3.54032 0
M  V30 113 H 9.6746 -2.07377 -5.11565 0
M  V30 114 H 12.1506 -0.411822 -4.14057 0
M  V30 115 H 11.0266 -0.0995336 -5.4881 0
M  V30 116 H 11.2876 1.14025 -4.27142 0
M  V30 117 N 10.3467 1.47872 -0.545128 0
M  V30 118 C 11.3097 2.28337 0.198717 0
M  V30 119 C 12.3097 1.36255 0.853888 0
M  V30 120 O 13.4997 1.59003 0.711606 0
M  V30 121 C 10.6317 3.15585 1.28915 0
M  V30 122 H 11.8247 2.95567 -0.507941 0
M  V30 123 H 9.3777 1.53362 -0.301616 0
M  V30 124 H 10.1127 2.53019 2.02859 0
M  V30 125 H 9.8977 3.83337 0.824309 0
M  V30 126 H 11.3877 3.76243 1.81194 0
M  V30 127 N 11.8248 0.280983 1.55075 0
M  V30 128 C 12.7748 -0.618585 2.19448 0
M  V30 129 C 13.7588 -1.11401 1.16098 0
M  V30 130 O 14.9508 -1.0581 1.41891 0
M  V30 131 C 12.0798 -1.79951 2.92357 0
M  V30 132 C 11.1658 -1.321 4.03002 0
M  V30 133 N 11.5568 -0.559044 5.02701 0
M  V30 134 C 9.8548 -1.60346 4.16179 0
M  V30 135 C 10.5558 -0.306722 5.80891 0
M  V30 136 N 9.5318 -0.880825 5.36416 0
M  V30 137 H 13.3338 -0.0286638 2.93886 0
M  V30 138 H 10.8478 0.0848104 1.62178 0
M  V30 139 H 12.8448 -2.45531 3.36927 0
M  V30 140 H 11.5048 -2.39333 2.19431 0
M  V30 141 H 12.5158 -0.205827 5.17491 0
M  V30 142 H 9.1928 -2.20621 3.54447 0
M  V30 143 H 10.5828 0.30391 6.71212 0
M  V30 144 N 13.3029 -1.57598 0.00835791 0
M  V30 145 C 14.5799 -1.82172 -0.712235 0
M  V30 146 C 14.9599 -0.887873 -1.9152 0
M  V30 147 O 14.3079 0.06146 -2.28417 0
M  V30 148 C 14.5179 -3.30875 -1.11008 0
M  V30 149 C 15.8659 -3.96826 -1.51044 0
M  V30 150 O 16.8899 -3.35248 -1.20364 0
M  V30 151 O 15.7489 -5.05318 -2.08125 0
M  V30 152 H 12.8429 -0.750435 -0.347529 0
M  V30 153 H 15.3889 -1.69665 0.0344523 0
M  V30 154 H 14.1609 -3.90481 -0.252982 0
M  V30 155 H 13.7839 -3.48412 -1.9156 0
M  V30 156 N 14.781 0.264519 -1.55364 0
M  V30 157 C 15.711 1.33121 -1.91836 0
M  V30 158 C 16.692 1.51101 -0.781192 0
M  V30 159 O 17.877 1.64003 -1.04003 0
M  V30 160 C 15.007 2.68921 -2.19769 0
M  V30 161 C 13.961 2.65661 -3.35571 0
M  V30 162 C 13.287 4.05093 -3.49004 0
M  V30 163 C 14.587 2.24187 -4.71739 0
M  V30 164 H 16.281 1.02844 -2.81182 0
M  V30 165 H 13.827 0.493286 -1.35287 0
M  V30 166 H 15.78 3.43663 -2.43872 0
M  V30 167 H 14.504 3.00799 -1.27231 0
M  V30 168 H 13.163 1.93377 -3.1145 0
M  V30 169 H 12.811 4.34206 -2.53917 0
M  V30 170 H 12.511 4.03804 -4.26868 0
M  V30 171 H 14.035 4.81561 -3.75408 0
M  V30 172 H 15.449 2.88654 -4.9533 0
M  V30 173 H 13.846 2.34044 -5.52579 0
M  V30 174 H 14.916 1.19327 -4.69988 0
M  V30 175 N 16.2591 1.48442 0.529413 0
M  V30 176 C 17.1911 1.59095 1.64989 0
M  V30 177 C 18.2041 0.475212 1.5571 0
M  V30 178 O 19.3931 0.746081 1.6216 0
M  V30 179 C 16.4931 1.50518 3.0364 0
M  V30 180 C 15.6661 2.77142 3.38395 0
M  V30 181 C 14.7251 2.62012 4.56329 0
M  V30 182 O 13.7511 3.35898 4.59522 0
M  V30 183 N 14.9531 1.71667 5.54536 0
M  V30 184 H 17.7181 2.55723 1.56287 0
M  V30 185 H 15.2791 1.45173 0.716697 0
M  V30 186 H 17.2711 1.38091 3.80412 0
M  V30 187 H 15.8411 0.618627 3.06418 0
M  V30 188 H 15.0611 3.0413 2.50796 0
M  V30 189 H 16.3491 3.61146 3.58401 0
M  V30 190 H 15.7471 1.10841 5.54735 0
M  V30 191 H 14.3041 1.65178 6.30523 0
M  V30 192 N 17.7372 -0.778329 1.37039 0
M  V30 193 C 19.1532 -1.07796 1.17695 0
M  V30 194 C 19.3532 -2.01498 0.00860115 0
M  V30 195 O 18.4092 -2.43901 -0.653352 0
M  V30 196 C 19.7222 -1.68178 2.49272 0
M  V30 197 C 21.2702 -1.80467 2.55735 0
M  V30 198 C 21.7452 -2.44263 3.87427 0
M  V30 199 N 23.2362 -2.51721 3.88833 0
M  V30 200 C 23.9712 -3.01919 4.87476 0
M  V30 201 N 23.4672 -3.5234 5.96513 0
M  V30 202 N 25.2602 -3.00733 4.74885 0
M  V30 203 H 17.4112 -0.156032 2.11826 0
M  V30 204 H 19.6742 -0.131844 0.938787 0
M  V30 205 H 19.3802 -1.06796 3.35093 0
M  V30 206 H 19.2542 -2.67554 2.65885 0
M  V30 207 H 21.6412 -2.40984 1.70325 0
M  V30 208 H 21.7222 -0.798656 2.43013 0
M  V30 209 H 21.3662 -1.84388 4.73248 0
M  V30 210 H 21.2962 -3.45458 3.9745 0
M  V30 211 H 23.7872 -2.1603 3.10063 0
M  V30 212 H 24.1002 -3.89027 6.67741 0
M  V30 213 H 22.4452 -3.50462 6.00168 0
M  V30 214 H 25.6362 -2.60638 3.88826 0
M  V30 215 H 25.8092 -3.39545 5.51918 0
M  V30 216 N 19.2153 -1.21501 -1.00376 0
M  V30 217 C 20.4613 -1.03452 -1.74429 0
M  V30 218 C 20.7943 0.430764 -1.89362 0
M  V30 219 O 20.0693 1.31962 -1.42886 0
M  V30 220 C 20.3523 -1.73375 -3.15615 0
M  V30 221 C 20.2053 -3.27431 -3.08397 0
M  V30 222 C 21.5243 -1.47732 -4.14564 0
M  V30 223 H 18.6433 -0.377226 -0.633143 0
M  V30 224 H 21.2853 -1.49693 -1.17013 0
M  V30 225 H 19.4353 -1.34064 -3.64636 0
M  V30 226 H 21.1073 -3.76119 -2.67081 0
M  V30 227 H 19.3503 -3.5767 -2.45468 0
M  V30 228 H 20.0213 -3.71524 -4.08258 0
M  V30 229 H 22.4973 -1.8186 -3.74254 0
M  V30 230 H 21.3733 -1.99169 -5.11491 0
M  V30 231 H 21.6343 -0.407589 -4.40217 0
M  V30 232 N 20.6934 1.19889 -1.02296 0
M  V30 233 C 21.9424 1.88743 -0.711257 0
M  V30 234 C 22.2554 1.80112 0.762817 0
M  V30 235 O 23.4614 2.44161 1.18733 0
M  V30 236 C 21.9174 3.38525 -1.22185 0
M  V30 237 C 21.5254 3.55727 -2.72328 0
M  V30 238 C 23.2694 4.12893 -0.985864 0
M  V30 239 C 21.1764 4.99369 -3.16835 0
M  V30 240 H 20.1064 0.706885 -0.262353 0
M  V30 241 H 22.7574 1.35586 -1.23648 0
M  V30 242 H 21.1394 3.91044 -0.624571 0
M  V30 243 H 22.3134 3.13564 -3.3766 0
M  V30 244 H 20.6284 2.94739 -2.9414 0
M  V30 245 H 23.2254 5.18813 -1.29374 0
M  V30 246 H 23.5684 4.16228 0.0775055 0
M  V30 247 H 24.1014 3.66494 -1.54684 0
M  V30 248 H 20.8404 5.01193 -4.22476 0
M  V30 249 H 20.3604 5.42317 -2.56228 0
M  V30 250 H 22.0394 5.67988 -3.09837 0
M  V30 251 N 22.1715 0.800033 1.35784 0
M  V30 252 C 23.4195 0.376597 1.9856 0
M  V30 253 C 23.7405 -1.05812 1.63795 0
M  V30 254 O 23.0105 -1.73103 0.917171 0
M  V30 255 H 21.5905 0.136261 0.734467 0
M  V30 256 H 24.2525 1.02442 1.65806 0
M  V30 257 H 23.3485 0.477002 3.08433 0
M  V30 258 N 23.6496 -1.47581 0.552962 0
M  V30 259 C 24.8966 -2.02482 0.0273243 0
M  V30 260 C 25.2246 -1.42776 -1.32081 0
M  V30 261 O 24.4796 -0.571393 -1.87173 0
M  V30 262 C 24.7786 -3.57199 -0.119728 0
M  V30 263 C 24.4446 -4.35804 1.15697 0
M  V30 264 C 23.1066 -4.57 1.50681 0
M  V30 265 C 25.4586 -4.81167 2.00319 0
M  V30 266 C 22.7866 -5.20807 2.70142 0
M  V30 267 C 25.1386 -5.46293 3.18978 0
M  V30 268 C 23.8026 -5.65722 3.54281 0
M  V30 269 H 23.0726 -0.740933 0.00999866 0
M  V30 270 H 25.7196 -1.77302 0.72362 0
M  V30 271 H 24.0246 -3.81348 -0.89896 0
M  V30 272 H 25.7216 -3.97324 -0.541718 0
M  V30 273 H 22.3116 -4.19582 0.874561 0
M  V30 274 H 26.4956 -4.64574 1.74599 0
M  V30 275 H 21.7516 -5.34045 2.97668 0
M  V30 276 H 25.9256 -5.80407 3.84838 0
M  V30 277 H 23.5526 -6.14936 4.46942 0
M  V30 278 N 25.1277 -0.289203 -1.54924 0
M  V30 279 C 26.0377 0.601863 -2.26748 0
M  V30 280 C 27.0537 1.15834 -1.2984 0
M  V30 281 O 28.2297 1.18564 -1.62802 0
M  V30 282 C 25.2947 1.76299 -2.98529 0
M  V30 283 C 24.3557 1.24178 -4.10948 0
M  V30 284 C 23.5887 2.34757 -4.79296 0
M  V30 285 O 23.8117 3.54411 -4.46933 0
M  V30 286 O 22.7457 2.02115 -5.66951 0
M  V30 287 H 26.5717 0.0195879 -3.03694 0
M  V30 288 H 24.1567 -0.0560868 -1.49295 0
M  V30 289 H 26.0387 2.43973 -3.43592 0
M  V30 290 H 24.7137 2.33209 -2.24488 0
M  V30 291 H 23.6207 0.531104 -3.70311 0
M  V30 292 H 24.9537 0.718252 -4.86931 0
M  V30 293 N 26.6058 1.57591 -0.0167156 0
M  V30 294 C 27.5538 2.10604 0.987353 0
M  V30 295 C 28.5478 1.02977 1.34507 0
M  V30 296 O 29.7538 1.21425 1.32875 0
M  V30 297 H 26.1288 0.672695 0.336134 0
M  V30 298 H 28.0998 2.93925 0.514817 0
M  V30 299 C 26.8488 2.6382 2.26483 0
M  V30 300 H 26.1718 3.46278 1.99829 0
M  V30 301 H 27.6118 3.04573 2.94977 0
M  V30 302 C 26.0708 1.55992 2.9861 0
M  V30 303 O 26.6008 0.952521 3.90243 0
M  V30 304 N 24.8068 1.28335 2.60727 0
M  V30 305 H 24.3538 1.77914 1.86291 0
M  V30 306 H 24.3118 0.564115 3.09298 0
M  V30 307 N 28.0839 -0.256276 1.55502 0
M  V30 308 C 29.0159 -1.33981 1.85962 0
M  V30 309 C 30.0289 -1.44743 0.745212 0
M  V30 310 O 31.2179 -1.4626 1.02324 0
M  V30 311 C 28.3179 -2.7194 2.02242 0
M  V30 312 C 27.4909 -2.83562 3.33033 0
M  V30 313 C 26.5499 -4.02304 3.39172 0
M  V30 314 O 25.5759 -3.92273 4.12444 0
M  V30 315 N 26.7779 -5.15045 2.67784 0
M  V30 316 H 29.5429 -1.08191 2.7949 0
M  V30 317 H 27.1039 -0.446388 1.55624 0
M  V30 318 H 29.0959 -3.49697 2.03701 0
M  V30 319 H 27.6659 -2.90479 1.15502 0
M  V30 320 H 26.8859 -1.92555 3.43971 0
M  V30 321 H 28.1739 -2.88271 4.19258 0
M  V30 322 H 27.5719 -5.26085 2.07968 0
M  V30 323 H 26.1289 -5.90972 2.74947 0
M  V30 324 N 29.562 -1.4872 -0.521534 0
M  V30 325 C 30.492 -1.66771 -1.63431 0
M  V30 326 C 31.473 -0.516499 -1.62069 0
M  V30 327 O 32.658 -0.750013 -1.79132 0
M  V30 328 C 29.788 -1.71515 -3.01993 0
M  V30 329 C 28.742 -2.86222 -3.18216 0
M  V30 330 C 28.068 -2.76061 -4.57924 0
M  V30 331 C 29.368 -4.27419 -3.00184 0
M  V30 332 H 31.062 -2.59932 -1.48579 0
M  V30 333 H 28.608 -1.25089 -0.713358 0
M  V30 334 H 30.561 -1.82731 -3.7972 0
M  V30 335 H 29.285 -0.749393 -3.17886 0
M  V30 336 H 27.944 -2.74575 -2.42908 0
M  V30 337 H 27.592 -1.77437 -4.70665 0
M  V30 338 H 27.292 -3.53037 -4.69722 0
M  V30 339 H 28.816 -2.89256 -5.37739 0
M  V30 340 H 30.23 -4.39855 -3.67697 0
M  V30 341 H 28.627 -5.05458 -3.2347 0
M  V30 342 H 29.697 -4.43293 -1.96518 0
M  V30 343 N 31.0401 0.771051 -1.3745 0
M  V30 344 C 32.4511 1.34737 -1.29239 0
M  V30 345 C 32.8021 1.96109 0.0596908 0
M  V30 346 O 31.9271 1.93865 0.961534 0
M  V30 347 C 32.5221 2.44973 -2.34037 0
M  V30 348 C 31.0811 2.98372 -2.29458 0
M  V30 349 C 30.2281 1.71595 -2.17831 0
M  V30 350 H 33.1791 0.571256 -1.48062 0
M  V30 351 H 33.2001 3.24471 -1.98744 0
M  V30 352 H 32.7121 2.00276 -3.32432 0
M  V30 353 H 30.8131 3.47443 -1.34589 0
M  V30 354 H 30.9261 3.53939 -3.229 0
M  V30 355 H 29.2901 1.94547 -1.64388 0
M  V30 356 H 30.0731 1.29001 -3.18141 0
M  V30 357 N 32.5182 1.22032 0.997298 0
M  V30 358 C 33.7642 1.05382 1.73972 0
M  V30 359 C 34.1192 -0.407419 1.88037 0
M  V30 360 O 33.4122 -1.29811 1.40924 0
M  V30 361 C 33.6062 1.69345 3.14733 0
M  V30 362 C 33.4352 3.21537 3.14395 0
M  V30 363 C 32.2052 3.9062 3.20537 0
M  V30 364 C 34.4032 4.18527 2.98897 0
M  V30 365 N 32.3852 5.29935 3.09906 0
M  V30 366 C 33.7562 5.44645 2.96247 0
M  V30 367 C 35.8112 4.09476 2.83255 0
M  V30 368 C 34.5142 6.62752 2.79557 0
M  V30 369 C 36.5402 5.27228 2.67926 0
M  V30 370 C 35.9022 6.52262 2.65959 0
M  V30 371 H 32.0012 0.440018 0.646458 0
M  V30 372 H 34.5852 1.54505 1.18475 0
M  V30 373 H 32.7562 1.22778 3.68484 0
M  V30 374 H 34.4882 1.45828 3.77513 0
M  V30 375 H 31.2432 3.41592 3.28043 0
M  V30 376 H 31.6672 6.02926 3.07912 0
M  V30 377 H 36.3092 3.13598 2.83577 0
M  V30 378 H 34.0272 7.58783 2.77982 0
M  V30 379 H 37.6132 5.22053 2.56812 0
M  V30 380 H 36.4932 7.41844 2.54239 0
M  V30 381 N 33.9963 -1.19345 1.0293 0
M  V30 382 C 34.9463 -2.20472 0.58104 0
M  V30 383 C 35.9303 -1.56578 -0.370442 0
M  V30 384 O 37.1223 -1.75963 -0.191344 0
M  V30 385 C 34.2513 -3.43236 -0.066306 0
M  V30 386 C 33.3373 -4.14274 0.907642 0
M  V30 387 N 33.7283 -4.61492 2.07023 0
M  V30 388 C 32.0263 -4.39966 0.731177 0
M  V30 389 C 32.7273 -5.1605 2.68454 0
M  V30 390 N 31.7033 -5.06875 1.96414 0
M  V30 391 H 35.5053 -2.54659 1.46717 0
M  V30 392 H 33.0193 -1.35423 0.896345 0
M  V30 393 H 35.0163 -4.14927 -0.405068 0
M  V30 394 H 33.6763 -3.10549 -0.948118 0
M  V30 395 H 34.6873 -4.56304 2.44963 0
M  V30 396 H 31.3643 -4.17377 -0.101507 0
M  V30 397 H 32.7543 -5.6287 3.66915 0
M  V30 398 N 35.4744 -0.807222 -1.35358 0
M  V30 399 C 36.4044 -0.232509 -2.3234 0
M  V30 400 C 37.3854 0.642386 -1.57504 0
M  V30 401 O 38.5704 0.572526 -1.85569 0
M  V30 402 C 35.7004 0.619238 -3.41735 0
M  V30 403 C 34.6544 -0.157215 -4.27711 0
M  V30 404 C 33.9804 0.816273 -5.28433 0
M  V30 405 C 35.2804 -1.35656 -5.04376 0
M  V30 406 H 36.9744 -1.04276 -2.80654 0
M  V30 407 H 34.5204 -0.50288 -1.34934 0
M  V30 408 H 36.4734 1.03137 -4.08584 0
M  V30 409 H 35.1974 1.46239 -2.92031 0
M  V30 410 H 33.8564 -0.550525 -3.62443 0
M  V30 411 H 33.5044 1.65494 -4.74996 0
M  V30 412 H 33.2044 0.301067 -5.86828 0
M  V30 413 H 34.7284 1.22659 -5.98153 0
M  V30 414 H 36.1424 -1.01927 -5.64166 0
M  V30 415 H 34.5394 -1.8063 -5.7227 0
M  V30 416 H 35.6094 -2.14288 -4.34981 0
M  V30 417 N 36.9525 1.47285 -0.560781 0
M  V30 418 C 38.3635 1.86258 -0.128343 0
M  V30 419 C 38.7145 1.46699 1.30284 0
M  V30 420 O 37.8395 0.871698 1.98067 0
M  V30 421 C 38.4345 3.38044 -0.22614 0
M  V30 422 C 36.9935 3.76096 0.151283 0
M  V30 423 C 36.1405 2.71335 -0.572084 0
M  V30 424 H 39.0915 1.38752 -0.770297 0
M  V30 425 H 39.1125 3.76441 0.554322 0
M  V30 426 H 38.6245 3.66806 -1.26788 0
M  V30 427 H 36.7255 3.52951 1.19399 0
M  V30 428 H 36.8385 4.78641 -0.209765 0
M  V30 429 H 35.2025 2.54696 -0.0147653 0
M  V30 430 H 35.9855 3.02938 -1.61504 0
M  V30 431 N 38.4306 0.297415 1.54768 0
M  V30 432 C 39.3786 -0.596051 2.24833 0
M  V30 433 C 40.3726 -1.13992 1.25308 0
M  V30 434 O 41.5786 -1.09098 1.4317 0
M  V30 435 H 37.9536 -0.210814 0.721846 0
M  V30 436 H 39.9246 0.0174667 2.98395 0
M  V30 437 C 38.6736 -1.75818 2.99972 0
M  V30 438 H 37.9966 -1.3489 3.76357 0
M  V30 439 H 39.4366 -2.35949 3.52284 0
M  V30 440 C 37.8956 -2.66014 2.06732 0
M  V30 441 O 38.4256 -3.67009 1.63302 0
M  V30 442 N 36.6316 -2.33669 1.72763 0
M  V30 443 H 36.1786 -1.51586 2.08277 0
M  V30 444 H 36.1366 -2.94285 1.10652 0
M  V30 445 N 39.9087 -1.5758 0.0250728 0
M  V30 446 C 41.1857 -1.82917 -0.692873 0
M  V30 447 C 41.5657 -0.908137 -1.90568 0
M  V30 448 O 40.9137 0.0372298 -2.2847 0
M  V30 449 C 41.1237 -3.32034 -1.07492 0
M  V30 450 C 42.4717 -3.98406 -1.46826 0
M  V30 451 O 43.4957 -3.36505 -1.16801 0
M  V30 452 O 42.3547 -5.07497 -2.02754 0
M  V30 453 H 39.4487 -0.754079 -0.33955 0
M  V30 454 H 41.9947 -1.69619 0.0524456 0
M  V30 455 H 40.7667 -3.90728 -0.211552 0
M  V30 456 H 40.3897 -3.50424 -1.87854 0
M  V30 457 N 41.3868 0.248026 -1.55636 0
M  V30 458 C 42.3168 1.31079 -1.93237 0
M  V30 459 C 43.2978 1.50264 -0.797174 0
M  V30 460 O 44.4828 1.62891 -1.05737 0
M  V30 461 C 41.6128 2.66575 -2.22609 0
M  V30 462 C 40.5668 2.62087 -3.3837 0
M  V30 463 C 39.8928 4.01369 -3.53281 0
M  V30 464 C 41.1928 2.19171 -4.7409 0
M  V30 465 H 42.8868 0.998556 -2.82257 0
M  V30 466 H 40.4328 0.47891 -1.35803 0
M  V30 467 H 42.3858 3.41057 -2.47503 0
M  V30 468 H 41.1098 2.99432 -1.30414 0
M  V30 469 H 39.7688 1.90063 -3.13483 0
M  V30 470 H 39.4168 4.31489 -2.58508 0
M  V30 471 H 39.1168 3.99254 -4.31127 0
M  V30 472 H 40.6408 4.77552 -3.80495 0
M  V30 473 H 42.0548 2.83384 -4.98363 0
M  V30 474 H 40.4518 2.2817 -5.5503 0
M  V30 475 H 41.5218 1.14336 -4.71227 0
M  V30 476 N 42.8649 1.48995 0.513639 0
M  V30 477 C 43.8119 1.6473 1.61656 0
M  V30 478 C 44.7819 0.488984 1.58739 0
M  V30 479 O 45.9669 0.714478 1.76918 0
M  V30 480 C 43.1069 1.7082 2.99858 0
M  V30 481 C 42.2199 2.9787 3.12885 0
M  V30 482 C 41.3549 2.95017 4.41744 0
M  V30 483 C 40.3939 4.16702 4.48359 0
M  V30 484 N 39.5309 4.11832 5.68629 0
M  V30 485 H 44.3709 2.58909 1.47547 0
M  V30 486 H 41.9079 1.28382 0.71808 0
M  V30 487 H 43.8659 1.72331 3.79944 0
M  V30 488 H 42.4959 0.801181 3.12699 0
M  V30 489 H 41.5479 3.06029 2.25944 0
M  V30 490 H 42.8599 3.8786 3.13633 0
M  V30 491 H 42.0139 2.95021 5.30139 0
M  V30 492 H 40.7529 2.02784 4.43542 0
M  V30 493 H 39.7579 4.16955 3.58369 0
M  V30 494 H 40.9829 5.10113 4.48287 0
M  V30 495 H 38.9289 3.22428 5.71293 0
M  V30 496 H 38.8459 4.95543 5.7094 0
M  V30 497 H 40.1139 4.1592 6.59266 0
M  V30 498 N 44.343 -0.763751 1.37857 0
M  V30 499 C 45.293 -1.86765 1.30777 0
M  V30 500 C 46.277 -1.59726 0.194015 0
M  V30 501 O 47.469 -1.7172 0.42911 0
M  V30 502 C 44.598 -3.24343 1.12502 0
M  V30 503 C 43.684 -3.57307 2.28456 0
M  V30 504 N 44.075 -3.61398 3.53871 0
M  V30 505 C 42.373 -3.87517 2.20786 0
M  V30 506 C 43.074 -3.91339 4.30382 0
M  V30 507 N 42.05 -4.07649 3.59615 0
M  V30 508 H 45.852 -1.88191 2.25746 0
M  V30 509 H 43.366 -0.9606 1.30944 0
M  V30 510 H 45.363 -4.03327 1.05514 0
M  V30 511 H 44.023 -3.24175 0.184574 0
M  V30 512 H 45.034 -3.43407 3.87675 0
M  V30 513 H 41.711 -3.95125 1.34844 0
M  V30 514 H 43.101 -4.01213 5.3896 0
M  V30 515 N 45.8211 -1.22559 -0.990812 0
M  V30 516 C 47.0671 -1.05297 -1.73322 0
M  V30 517 C 47.4001 0.410655 -1.89808 0
M  V30 518 O 46.6751 1.30439 -1.44277 0
M  V30 519 C 46.9581 -1.76713 -3.13759 0
M  V30 520 C 46.8111 -3.30684 -3.04907 0
M  V30 521 C 48.1301 -1.52121 -4.12974 0
M  V30 522 H 45.2491 -0.38392 -0.629106 0
M  V30 523 H 47.8911 -1.50926 -1.15418 0
M  V30 524 H 46.0411 -1.37924 -3.63193 0
M  V30 525 H 47.7131 -3.7893 -2.63077 0
M  V30 526 H 45.9561 -3.60253 -2.41661 0
M  V30 527 H 46.6271 -3.75833 -4.04294 0
M  V30 528 H 49.1031 -1.85819 -3.72304 0
M  V30 529 H 47.9791 -2.04582 -5.0935 0
M  V30 530 H 48.2401 -0.454257 -4.3976 0
M  V30 531 N 47.2992 1.18797 -1.03562 0
M  V30 532 C 48.2462 2.22253 -0.622259 0
M  V30 533 C 49.2162 1.61987 0.36736 0
M  V30 534 O 50.4012 1.88986 0.262492 0
M  V30 535 C 47.5412 3.45097 0.0138462 0
M  V30 536 C 46.6542 4.19722 -1.02263 0
M  V30 537 C 45.7892 5.30009 -0.355573 0
M  V30 538 C 44.8282 5.96399 -1.37749 0
M  V30 539 N 43.9652 6.98234 -0.735766 0
M  V30 540 H 48.8052 2.56968 -1.50903 0
M  V30 541 H 46.3422 1.26245 -0.755017 0
M  V30 542 H 48.3002 4.15279 0.399948 0
M  V30 543 H 46.9302 3.11018 0.864158 0
M  V30 544 H 45.9822 3.48418 -1.52673 0
M  V30 545 H 47.2942 4.65227 -1.79903 0
M  V30 546 H 46.4482 6.0664 0.0850095 0
M  V30 547 H 45.1872 4.85592 0.452967 0
M  V30 548 H 44.1922 5.18512 -1.82826 0
M  V30 549 H 45.4172 6.42899 -2.18764 0
M  V30 550 H 43.3632 6.55979 0.0525597 0
M  V30 551 H 43.2802 7.41965 -1.44995 0
M  V30 552 H 44.5482 7.78845 -0.31941 0
M  V30 553 N 48.7773 0.814389 1.34928 0
M  V30 554 C 49.7243 0.22822 2.29669 0
M  V30 555 C 50.6943 -0.642164 1.53184 0
M  V30 556 O 51.8793 -0.585605 1.81591 0
M  V30 557 C 49.0193 -0.61089 3.3965 0
M  V30 558 C 48.1323 0.280792 4.31086 0
M  V30 559 C 47.2673 -0.567067 5.28165 0
M  V30 560 C 46.3063 0.324531 6.11239 0
M  V30 561 N 45.4433 -0.483756 7.00431 0
M  V30 562 H 50.2833 1.04153 2.79206 0
M  V30 563 H 47.8203 0.525133 1.37407 0
M  V30 564 H 49.7783 -1.11263 4.0209 0
M  V30 565 H 48.4083 -1.38939 2.91369 0
M  V30 566 H 47.4603 0.900688 3.69583 0
M  V30 567 H 48.7723 0.966723 4.89342 0
M  V30 568 H 47.9263 -1.13363 5.96015 0
M  V30 569 H 46.6653 -1.28654 4.70425 0
M  V30 570 H 45.6703 0.903298 5.42329 0
M  V30 571 H 46.8953 1.04198 6.71059 0
M  V30 572 H 44.8413 -1.18706 6.45171 0
M  V30 573 H 44.7583 0.143965 7.55863 0
M  V30 574 H 46.0263 -1.03334 7.7262 0
M  V30 575 N 50.2554 -1.46986 0.568584 0
M  V30 576 C 51.1854 -2.32946 -0.160753 0
M  V30 577 C 52.1664 -1.44487 -0.897631 0
M  V30 578 O 53.3514 -1.73327 -0.875867 0
M  V30 579 C 50.4814 -3.26494 -1.18403 0
M  V30 580 C 49.4354 -4.24282 -0.562895 0
M  V30 581 C 48.7614 -5.07236 -1.69163 0
M  V30 582 C 50.0614 -5.19989 0.490761 0
M  V30 583 H 51.7554 -2.94175 0.556916 0
M  V30 584 H 49.3014 -1.4146 0.26927 0
M  V30 585 H 51.2544 -3.85477 -1.70251 0
M  V30 586 H 49.9784 -2.63343 -1.93179 0
M  V30 587 H 48.6374 -3.66541 -0.0656164 0
M  V30 588 H 48.2854 -4.4048 -2.42871 0
M  V30 589 H 47.9854 -5.7345 -1.28174 0
M  V30 590 H 49.5094 -5.6908 -2.21314 0
M  V30 591 H 50.9234 -5.73271 0.0579047 0
M  V30 592 H 49.3204 -5.94469 0.820165 0
M  V30 593 H 50.3904 -4.64777 1.3824 0
M  V30 594 N 51.7335 -0.305618 -1.54608 0
M  V30 595 C 52.9585 0.307562 -2.05107 0
M  V30 596 C 53.3835 1.46385 -1.18123 0
M  V30 597 O 52.7415 1.8034 -0.186324 0
M  V30 598 C 52.7895 0.73704 -3.52987 0
M  V30 599 O 51.8935 1.84134 -3.6901 0
M  V30 600 H 51.2345 0.0589143 -0.661381 0
M  V30 601 H 53.7645 -0.448807 -1.99617 0
M  V30 602 H 53.7745 1.02459 -3.94925 0
M  V30 603 H 52.4495 -0.108773 -4.15758 0
M  V30 604 H 51.0265 1.55398 -3.38978 0
M  V30 605 N 53.2116 1.57565 -0.0334293 0
M  V30 606 C 54.4396 1.9628 0.654347 0
M  V30 607 C 54.8546 0.910138 1.65414 0
M  V30 608 O 54.2116 -0.107595 1.82183 0
M  V30 609 C 54.2626 3.35067 1.35693 0
M  V30 610 O 53.9836 4.36296 0.397191 0
M  V30 611 C 55.4846 3.88439 2.13613 0
M  V30 612 H 52.7046 0.646369 0.180132 0
M  V30 613 H 55.2486 2.04282 -0.0944721 0
M  V30 614 H 53.4036 3.2827 2.05712 0
M  V30 615 H 53.8176 5.1678 0.896597 0
M  V30 616 H 55.2916 4.8788 2.58219 0
M  V30 617 H 55.7686 3.22914 2.97696 0
M  V30 618 H 56.3746 3.98516 1.48543 0
M  V30 619 N 54.6897 -0.239769 1.55765 0
M  V30 620 C 55.9377 -0.964892 1.77579 0
M  V30 621 C 56.2587 -1.85582 0.598699 0
M  V30 622 O 55.5287 -1.92075 -0.385226 0
M  V30 623 H 54.1087 -0.359265 0.654933 0
M  V30 624 H 56.7707 -0.256001 1.93211 0
M  V30 625 H 55.8667 -1.58243 2.69009 0
M  V30 626 N 56.1678 -1.49265 -0.50573 0
M  V30 627 C 57.1178 -1.6198 -1.60457 0
M  V30 628 C 58.1018 -0.47568 -1.53708 0
M  V30 629 O 59.2938 -0.728392 -1.61318 0
M  V30 630 C 56.4228 -1.68526 -2.99089 0
M  V30 631 C 55.5088 -2.885 -3.10852 0
M  V30 632 N 55.8998 -4.12635 -2.92517 0
M  V30 633 C 54.1978 -2.86338 -3.41945 0
M  V30 634 C 54.8988 -4.93258 -3.08337 0
M  V30 635 N 53.8748 -4.26533 -3.37003 0
M  V30 636 H 57.6768 -2.55681 -1.44928 0
M  V30 637 H 55.1908 -1.45972 -0.711752 0
M  V30 638 H 57.1878 -1.75732 -3.78053 0
M  V30 639 H 55.8478 -0.759584 -3.1569 0
M  V30 640 H 56.8588 -4.42689 -2.68787 0
M  V30 641 H 53.5358 -2.03129 -3.64753 0
M  V30 642 H 54.9258 -6.01856 -2.98695 0
M  V30 643 N 57.6459 0.756429 -1.3826 0
M  V30 644 C 58.8739 1.54565 -1.3754 0
M  V30 645 C 59.2889 1.88767 0.0355331 0
M  V30 646 O 58.6459 1.52572 1.0014 0
M  V30 647 C 58.6969 2.84654 -2.22833 0
M  V30 648 O 58.4179 2.51912 -3.5843 0
M  V30 649 C 59.9189 3.78807 -2.30261 0
M  V30 650 H 57.1389 0.478353 -0.470553 0
M  V30 651 H 59.6829 0.936381 -1.81803 0
M  V30 652 H 57.8379 3.41965 -1.8204 0
M  V30 653 H 58.2519 3.35325 -4.03308 0
M  V30 654 H 59.7259 4.67045 -2.94233 0
M  V30 655 H 60.2029 4.19038 -1.31545 0
M  V30 656 H 60.8089 3.2742 -2.71433 0
M  V30 657 N 59.124 1.23083 0.984299 0
M  V30 658 C 60.054 1.03292 2.09411 0
M  V30 659 C 61.035 -0.048923 1.7003 0
M  V30 660 O 62.22 0.114967 1.93859 0
M  V30 661 C 59.35 0.619155 3.41736 0
M  V30 662 C 58.304 1.64791 3.95004 0
M  V30 663 C 57.63 1.0897 5.23478 0
M  V30 664 C 58.93 3.03999 4.24714 0
M  V30 665 H 60.624 1.96119 2.26225 0
M  V30 666 H 58.17 0.944344 1.08711 0
M  V30 667 H 60.123 0.467777 4.18796 0
M  V30 668 H 58.847 -0.344786 3.24775 0
M  V30 669 H 57.506 1.78721 3.20085 0
M  V30 670 H 57.154 0.11686 5.02864 0
M  V30 671 H 56.854 1.77704 5.60085 0
M  V30 672 H 58.378 0.950093 6.03163 0
M  V30 673 H 59.792 2.93393 4.92538 0
M  V30 674 H 58.189 3.69936 4.72512 0
M  V30 675 H 59.259 3.53285 3.32142 0
M  V30 676 N 60.6021 -1.18246 1.0419 0
M  V30 677 C 61.8481 -1.88536 0.747122 0
M  V30 678 C 62.1811 -1.80223 -0.723409 0
M  V30 679 O 61.4561 -1.20337 -1.52804 0
M  V30 680 C 61.7391 -3.38968 1.21544 0
M  V30 681 C 61.5921 -3.56084 2.74816 0
M  V30 682 C 62.9111 -4.32648 0.806482 0
M  V30 683 H 60.0301 -0.684619 0.272883 0
M  V30 684 H 62.6721 -1.39113 1.29413 0
M  V30 685 H 60.8221 -3.8119 0.750081 0
M  V30 686 H 62.4941 -3.22946 3.29399 0
M  V30 687 H 60.7371 -2.98699 3.14582 0
M  V30 688 H 61.4081 -4.61639 3.02644 0
M  V30 689 H 63.8841 -3.98211 1.20695 0
M  V30 690 H 62.7601 -5.36462 1.1619 0
M  V30 691 H 63.0211 -4.41146 -0.29029 0
M  V30 692 N 62.0802 -0.821533 -1.34494 0
M  V30 693 C 63.0132 -0.187704 -2.27427 0
M  V30 694 C 63.9912 0.65507 -1.48821 0
M  V30 695 O 65.1752 0.619111 -1.78043 0
M  V30 696 C 62.3022 0.737996 -3.30562 0
M  V30 697 C 61.3482 -0.0270713 -4.26491 0
M  V30 698 S 62.1812 -1.37329 -5.17592 0
M  V30 699 C 63.3372 -0.452427 -6.24263 0
M  V30 700 H 63.5702 -0.975598 -2.80837 0
M  V30 701 H 61.1032 -0.61736 -1.4152 0
M  V30 702 H 63.0612 1.26654 -3.90473 0
M  V30 703 H 61.7222 1.4994 -2.76001 0
M  V30 704 H 60.9152 0.6766 -4.99438 0
M  V30 705 H 60.5172 -0.48612 -3.70827 0
M  V30 706 H 62.8092 0.356557 -6.76561 0
M  V30 707 H 63.7522 -1.15153 -6.98674 0
M  V30 708 H 64.1602 -0.0414755 -5.64485 0
M  V30 709 N 63.5583 1.46682 -0.576371 0
M  V30 710 C 64.8063 2.02013 -0.0594163 0
M  V30 711 C 65.1273 1.45101 1.30271 0
M  V30 712 O 64.3973 0.633317 1.8538 0
M  V30 713 H 62.9773 0.746759 -0.0189745 0
M  V30 714 H 65.6393 1.79862 -0.750717 0
M  V30 715 H 64.7353 3.12097 0.014345 0
M  V30 716 N 65.0364 0.313813 1.54444 0
M  V30 717 C 66.4524 -0.0391619 1.59552 0
M  V30 718 C 66.6524 -1.51322 1.33056 0
M  V30 719 O 65.7084 -2.26782 1.11022 0
M  V30 720 C 67.0214 0.370302 2.98411 0
M  V30 721 C 68.5694 0.320139 3.11358 0
M  V30 722 C 69.0444 0.704617 4.52547 0
M  V30 723 N 70.5354 0.657645 4.58508 0
M  V30 724 C 71.2704 0.927453 5.6585 0
M  V30 725 N 70.7664 1.26389 6.81174 0
M  V30 726 N 72.5594 0.853662 5.5558 0
M  V30 727 H 64.7104 1.27433 1.69925 0
M  V30 728 H 66.9734 0.517511 0.794284 0
M  V30 729 H 66.6794 1.39694 3.22767 0
M  V30 730 H 66.5534 -0.269619 3.76235 0
M  V30 731 H 68.9404 -0.697275 2.86744 0
M  V30 732 H 69.0214 0.99486 2.35661 0
M  V30 733 H 68.6654 1.7199 4.77893 0
M  V30 734 H 68.5954 0.00768843 5.26599 0
M  V30 735 H 71.0864 0.409067 3.75679 0
M  V30 736 H 71.3994 1.4554 7.58972 0
M  V30 737 H 69.7444 1.30206 6.82694 0
M  V30 738 H 72.9354 0.590383 4.64362 0
M  V30 739 H 73.1084 1.0673 6.3915 0
M  V30 740 N 66.5145 -1.57545 0.0417849 0
M  V30 741 C 67.4615 -2.10977 -0.935805 0
M  V30 742 C 68.4315 -1.01486 -1.31491 0
M  V30 743 O 69.6165 -1.2898 -1.40602 0
M  V30 744 C 66.7565 -2.65169 -2.2086 0
M  V30 745 C 65.8695 -3.88714 -1.88482 0
M  V30 746 C 65.0045 -4.31254 -3.1015 0
M  V30 747 C 64.0435 -5.47524 -2.7365 0
M  V30 748 N 63.1805 -5.85162 -3.87982 0
M  V30 749 H 68.0205 -2.94218 -0.473249 0
M  V30 750 H 65.5575 -1.45415 -0.221981 0
M  V30 751 H 67.5155 -2.94685 -2.95325 0
M  V30 752 H 66.1455 -1.8474 -2.64709 0
M  V30 753 H 65.1975 -3.65849 -1.04205 0
M  V30 754 H 66.5095 -4.73245 -1.57608 0
M  V30 755 H 65.6635 -4.62273 -3.92923 0
M  V30 756 H 64.4025 -3.45516 -3.44195 0
M  V30 757 H 63.4075 -5.16187 -1.89291 0
M  V30 758 H 64.6325 -6.34971 -2.40807 0
M  V30 759 H 62.5785 -5.02377 -4.21846 0
M  V30 760 H 62.4955 -6.64362 -3.60775 0
M  V30 761 H 63.7635 -6.20791 -4.71422 0
M  V30 762 N 67.9926 0.231505 -1.5589 0
M  V30 763 C 69.2206 0.974505 -1.82513 0
M  V30 764 C 69.6356 1.78344 -0.619591 0
M  V30 765 O 68.9926 1.77792 0.411848 0
M  V30 766 C 69.0436 1.90007 -3.07538 0
M  V30 767 O 68.7646 1.12385 -4.2344 0
M  V30 768 C 70.2656 2.75779 -3.47075 0
M  V30 769 H 67.4856 0.286065 -0.606966 0
M  V30 770 H 70.0296 0.249739 -2.02969 0
M  V30 771 H 68.1846 2.57891 -2.89086 0
M  V30 772 H 68.5986 1.75125 -4.944 0
M  V30 773 H 70.0726 3.36443 -4.37619 0
M  V30 774 H 70.5496 3.47672 -2.68367 0
M  V30 775 H 71.1556 2.13323 -3.67931 0
M  V30 776 N 69.4707 1.49531 0.497807 0
M  V30 777 C 70.7177 1.59179 1.25173 0
M  V30 778 C 71.0457 0.279932 1.92475 0
M  V30 779 O 70.3007 -0.732383 1.81479 0
M  V30 780 C 70.5997 2.70252 2.33878 0
M  V30 781 C 70.2657 4.11644 1.84012 0
M  V30 782 C 68.9277 4.50121 1.70132 0
M  V30 783 C 71.2797 5.00121 1.46725 0
M  V30 784 C 68.6077 5.74845 1.17348 0
M  V30 785 C 70.9597 6.25366 0.95392 0
M  V30 786 C 69.6237 6.6267 0.801538 0
M  V30 787 H 68.8937 0.582478 0.45804 0
M  V30 788 H 71.5407 1.83373 0.551948 0
M  V30 789 H 69.8457 2.40041 3.09657 0
M  V30 790 H 71.5427 2.74925 2.9192 0
M  V30 791 H 68.1327 3.81274 1.95775 0
M  V30 792 H 72.3167 4.71048 1.56294 0
M  V30 793 H 67.5727 6.02444 1.04264 0
M  V30 794 H 71.7467 6.93301 0.656225 0
M  V30 795 H 69.3737 7.59197 0.390351 0
M  V30 796 N 70.9488 -0.749086 1.3866 0
M  V30 797 C 71.8588 -1.89358 1.38494 0
M  V30 798 C 72.8748 -1.71708 0.281476 0
M  V30 799 O 74.0508 -1.94554 0.520643 0
M  V30 800 C 71.1158 -3.24782 1.21316 0
M  V30 801 C 70.1768 -3.54926 2.41508 0
M  V30 802 C 69.4098 -4.83888 2.2514 0
M  V30 803 O 69.6328 -5.56592 1.24746 0
M  V30 804 O 68.5668 -5.13612 3.13826 0
M  V30 805 H 72.3928 -1.92452 2.34938 0
M  V30 806 H 69.9778 -0.894981 1.19626 0
M  V30 807 H 71.8598 -4.05739 1.13814 0
M  V30 808 H 70.5348 -3.2249 0.279592 0
M  V30 809 H 69.4418 -2.74112 2.54585 0
M  V30 810 H 70.7748 -3.61983 3.3351 0
M  V30 811 N 72.4269 -1.23603 -0.977757 0
M  V30 812 C 73.6519 -1.09735 -1.75991 0
M  V30 813 C 74.0769 0.346858 -1.84874 0
M  V30 814 O 73.4349 1.25093 -1.3123 0
M  V30 815 C 73.4829 -1.73051 -3.16363 0
M  V30 816 O 72.5869 -0.994452 -4.0023 0
M  V30 817 H 71.9279 -0.384476 -0.541364 0
M  V30 818 H 74.4579 -1.6371 -1.2272 0
M  V30 819 H 74.4679 -1.78398 -3.66931 0
M  V30 820 H 73.1429 -2.78137 -3.09213 0
M  V30 821 H 71.7199 -1.01812 -3.58732 0
M  V30 822 N 73.905 1.17692 -1.04816 0
M  V30 823 C 75.154 1.87192 -0.751132 0
M  V30 824 C 75.467 1.8169 0.724441 0
M  V30 825 O 76.673 2.46625 1.13527 0
M  V30 826 C 75.129 3.35857 -1.29338 0
M  V30 827 C 74.737 3.4987 -2.79812 0
M  V30 828 C 76.481 4.10709 -1.07322 0
M  V30 829 C 74.388 4.92536 -3.27356 0
M  V30 830 H 73.318 0.701162 -0.277288 0
M  V30 831 H 75.969 1.32932 -1.26496 0
M  V30 832 H 74.351 3.89631 -0.707376 0
M  V30 833 H 75.525 3.06332 -3.44235 0
M  V30 834 H 73.84 2.88433 -3.00325 0
M  V30 835 H 76.437 5.15952 -1.4035 0
M  V30 836 H 76.78 4.16299 -0.0108001 0
M  V30 837 H 77.313 3.6313 -1.62423 0
M  V30 838 H 74.052 4.92119 -4.33012 0
M  V30 839 H 73.572 5.3676 -2.67673 0
M  V30 840 H 75.251 5.61288 -3.21815 0
M  V30 841 N 75.3831 0.828654 1.34056 0
M  V30 842 C 76.6311 0.41863 1.97717 0
M  V30 843 C 76.9521 -1.02314 1.66002 0
M  V30 844 O 76.2221 -1.71119 0.953683 0
M  V30 845 H 74.8021 0.151809 0.731412 0
M  V30 846 H 77.4641 1.05936 1.63596 0
M  V30 847 H 76.5601 0.542318 3.07352 0
M  V30 848 N 76.8612 -1.46375 0.584142 0
M  V30 849 C 77.8082 -2.30323 -0.148286 0
M  V30 850 C 78.7782 -1.40703 -0.882713 0
M  V30 851 O 79.9632 -1.69651 -0.873099 0
M  V30 852 C 77.1032 -3.25196 -1.15507 0
M  V30 853 C 76.2162 -4.29915 -0.423943 0
M  V30 854 C 75.3512 -5.11914 -1.41838 0
M  V30 855 C 74.3902 -6.08381 -0.673736 0
M  V30 856 N 73.5272 -6.83242 -1.6163 0
M  V30 857 H 78.3672 -2.92427 0.573644 0
M  V30 858 H 75.9042 -1.44118 0.294703 0
M  V30 859 H 77.8622 -3.78646 -1.75166 0
M  V30 860 H 76.4922 -2.64898 -1.8447 0
M  V30 861 H 75.5442 -3.7931 0.287714 0
M  V30 862 H 76.8562 -4.98549 0.158128 0
M  V30 863 H 76.0102 -5.69648 -2.08773 0
M  V30 864 H 74.7492 -4.43243 -2.03438 0
M  V30 865 H 73.7542 -5.49799 0.00938483 0
M  V30 866 H 74.9792 -6.79071 -0.0631082 0
M  V30 867 H 72.9252 -6.1728 -2.22038 0
M  V30 868 H 72.8422 -7.48144 -1.08707 0
M  V30 869 H 74.1102 -7.45534 -2.27596 0
M  V30 870 N 78.3393 -0.321999 -1.54275 0
M  V30 871 C 79.7503 0.166384 -1.85957 0
M  V30 872 C 80.1013 1.51747 -1.24367 0
M  V30 873 O 79.2263 2.09317 -0.549124 0
M  V30 874 C 79.8213 0.308681 -3.37391 0
M  V30 875 C 78.3803 0.741286 -3.69028 0
M  V30 876 C 77.5273 -0.137937 -2.76957 0
M  V30 877 H 80.4783 -0.542335 -1.49146 0
M  V30 878 H 80.4993 1.13984 -3.63026 0
M  V30 879 H 80.0113 -0.674809 -3.82188 0
M  V30 880 H 78.1123 1.73458 -3.29762 0
M  V30 881 H 78.2253 0.546118 -4.75977 0
M  V30 882 H 76.5893 0.386251 -2.51754 0
M  V30 883 H 77.3723 -1.11816 -3.2458 0
M  V30 884 N 79.8174 1.5752 -0.0501392 0
M  V30 885 C 80.7474 2.14502 0.922566 0
M  V30 886 C 81.7284 1.06642 1.3252 0
M  V30 887 O 82.9134 1.34577 1.4001 0
M  V30 888 C 80.0434 2.68916 2.19776 0
M  V30 889 C 78.9974 3.8175 1.93523 0
M  V30 890 C 78.3234 4.22677 3.27487 0
M  V30 891 C 79.6234 5.06932 1.25765 0
M  V30 892 H 81.3174 2.9603 0.447952 0
M  V30 893 H 78.8634 1.42401 0.214024 0
M  V30 894 H 80.8164 3.07419 2.88222 0
M  V30 895 H 79.5404 1.84578 2.69441 0
M  V30 896 H 78.1994 3.43718 1.27489 0
M  V30 897 H 77.8474 3.35291 3.74952 0
M  V30 898 H 77.5474 4.98725 3.1072 0
M  V30 899 H 79.0714 4.63779 3.97166 0
M  V30 900 H 80.4854 5.42888 1.84244 0
M  V30 901 H 78.8824 5.88116 1.19328 0
M  V30 902 H 79.9524 4.84337 0.233536 0
M  V30 903 N 81.2955 -0.223234 1.56011 0
M  V30 904 C 82.7065 -0.790368 1.69145 0
M  V30 905 C 83.0575 -1.85055 0.651845 0
M  V30 906 O 82.1825 -2.15498 -0.197359 0
M  V30 907 C 82.7775 -1.4404 3.06656 0
M  V30 908 C 81.3365 -1.95494 3.2165 0
M  V30 909 C 80.4835 -0.814506 2.65068 0
M  V30 910 H 83.4345 0.00139011 1.587 0
M  V30 911 H 83.4555 -2.30916 3.0242 0
M  V30 912 H 82.9675 -0.668543 3.82298 0
M  V30 913 H 81.0685 -2.75487 2.50874 0
M  V30 914 H 81.1815 -2.13607 4.28846 0
M  V30 915 H 79.5455 -1.22137 2.23505 0
M  V30 916 H 80.3285 -0.0553515 3.43255 0
M  V30 917 N 82.7736 -1.49793 -0.48987 0
M  V30 918 C 83.7216 -1.67783 -1.61095 0
M  V30 919 C 84.7156 -0.543683 -1.60438 0
M  V30 920 O 85.9216 -0.723647 -1.64813 0
M  V30 921 H 82.2966 -0.529255 -0.534222 0
M  V30 922 H 84.2676 -2.61861 -1.43078 0
M  V30 923 C 83.0166 -1.77191 -2.99164 0
M  V30 924 H 82.3396 -2.63841 -3.0038 0
M  V30 925 H 83.7796 -1.93809 -3.77113 0
M  V30 926 C 82.2386 -0.519203 -3.32875 0
M  V30 927 O 82.7686 0.350124 -4.00171 0
M  V30 928 N 80.9746 -0.378816 -2.8812 0
M  V30 929 H 80.5216 -1.08725 -2.33531 0
M  V30 930 H 80.4796 0.458239 -3.11043 0
M  V30 931 N 84.2517 0.741722 -1.39055 0
M  V30 932 C 85.6677 1.04638 -1.20512 0
M  V30 933 C 85.8677 2.01405 -0.0620218 0
M  V30 934 O 84.9237 2.45547 0.588457 0
M  V30 935 C 86.2367 1.6151 -2.53643 0
M  V30 936 C 87.7847 1.73623 -2.6043 0
M  V30 937 C 88.2597 2.33906 -3.93767 0
M  V30 938 N 89.7507 2.41323 -3.9537 0
M  V30 939 C 90.4857 2.88888 -4.95309 0
M  V30 940 N 89.9817 3.36401 -6.05645 0
M  V30 941 N 91.7747 2.88037 -4.82692 0
M  V30 942 H 83.9257 0.0998155 -2.12165 0
M  V30 943 H 86.1887 0.106907 -0.941953 0
M  V30 944 H 85.8947 0.978739 -3.37807 0
M  V30 945 H 85.7687 2.60411 -2.72885 0
M  V30 946 H 88.1557 2.36384 -1.76655 0
M  V30 947 H 88.2367 0.733945 -2.45045 0
M  V30 948 H 87.8807 1.71776 -4.7797 0
M  V30 949 H 87.8107 3.34799 -4.06469 0
M  V30 950 H 90.3017 2.07734 -3.15682 0
M  V30 951 H 90.6147 3.71186 -6.77821 0
M  V30 952 H 88.9597 3.34427 -6.09248 0
M  V30 953 H 92.1507 2.50237 -3.95599 0
M  V30 954 H 92.3237 3.24792 -5.60726 0
M  V30 955 N 85.7298 1.2412 0.971189 0
M  V30 956 C 87.1458 1.00584 1.23916 0
M  V30 957 C 87.3458 -0.287481 1.99439 0
M  V30 958 O 86.4018 -1.00454 2.31658 0
M  V30 959 C 87.7148 2.21864 2.0297 0
M  V30 960 C 89.2628 2.26452 2.16076 0
M  V30 961 C 89.7378 3.47343 2.98524 0
M  V30 962 N 91.2288 3.47639 3.06107 0
M  V30 963 C 91.9638 4.37837 3.70251 0
M  V30 964 N 91.4598 5.38286 4.36142 0
M  V30 965 N 93.2528 4.25558 3.67228 0
M  V30 966 H 85.4038 2.07236 0.465499 0
M  V30 967 H 87.6668 0.909236 0.268315 0
M  V30 968 H 87.3728 3.15771 1.54861 0
M  V30 969 H 87.2468 2.23698 3.03709 0
M  V30 970 H 89.6338 1.33078 2.6339 0
M  V30 971 H 89.7148 2.28645 1.14696 0
M  V30 972 H 89.3588 4.41029 2.51905 0
M  V30 973 H 89.2888 3.42393 4.00093 0
M  V30 974 H 91.7798 2.74966 2.59233 0
M  V30 975 H 92.0928 6.03352 4.82894 0
M  V30 976 H 90.4378 5.42176 4.34822 0
M  V30 977 H 93.6288 3.46322 3.14927 0
M  V30 978 H 93.8018 4.96054 4.16935 0
M  V30 979 N 87.2079 -1.17134 1.05439 0
M  V30 980 C 88.1559 -2.23289 0.651511 0
M  V30 981 C 89.1499 -1.66186 -0.328411 0
M  V30 982 O 90.3559 -1.78949 -0.194206 0
M  V30 983 H 86.7309 -0.726938 0.192523 0
M  V30 984 H 88.7019 -2.54565 1.55689 0
M  V30 985 C 87.4509 -3.47671 0.0448436 0
M  V30 986 H 86.7739 -3.91918 0.78996 0
M  V30 987 H 88.2139 -4.2353 -0.19964 0
M  V30 988 C 86.6729 -3.14453 -1.20918 0
M  V30 989 O 87.2029 -3.29459 -2.29825 0
M  V30 990 N 85.4089 -2.68657 -1.10779 0
M  V30 991 H 84.9559 -2.56646 -0.221526 0
M  V30 992 H 84.9139 -2.46804 -1.9477 0
M  V30 993 N 88.686 -0.835752 -1.33615 0
M  V30 994 C 89.932 -0.430596 -1.98176 0
M  V30 995 C 90.265 1.00684 -1.66061 0
M  V30 996 O 89.54 1.70339 -0.938877 0
M  V30 997 C 89.823 -0.648065 -3.5422 0
M  V30 998 C 89.676 -2.13255 -3.96033 0
M  V30 999 C 90.995 -0.0922113 -4.40003 0
M  V30 1000 H 88.114 -0.157924 -0.719881 0
M  V30 1001 H 90.756 -1.05069 -1.58305 0
M  V30 1002 H 88.906 -0.120237 -3.88314 0
M  V30 1003 H 90.578 -2.725 -3.72211 0
M  V30 1004 H 88.821 -2.61823 -3.45878 0
M  V30 1005 H 89.492 -2.23547 -5.04708 0
M  V30 1006 H 91.968 -0.543343 -4.12537 0
M  V30 1007 H 90.844 -0.274083 -5.48215 0
M  V30 1008 H 91.105 1.00378 -4.30554 0
M  V30 1009 N 90.1641 1.46063 -0.591896 0
M  V30 1010 C 91.4101 2.02638 -0.0811191 0
M  V30 1011 C 91.7431 1.4613 1.27905 0
M  V30 1012 O 91.0181 0.629908 1.84017 0
M  V30 1013 C 91.3011 3.60091 -0.0252436 0
M  V30 1014 C 91.1541 4.26965 -1.41496 0
M  V30 1015 C 92.4731 4.3496 0.670685 0
M  V30 1016 H 89.5921 0.73635 -0.0309524 0
M  V30 1017 H 92.2341 1.741 -0.760859 0
M  V30 1018 H 90.3841 3.84535 0.553624 0
M  V30 1019 H 92.0561 4.13756 -2.0397 0
M  V30 1020 H 90.2991 3.85971 -1.98011 0
M  V30 1021 H 90.9701 5.35781 -1.32825 0
M  V30 1022 H 93.4461 4.15716 0.178825 0
M  V30 1023 H 92.3221 5.44686 0.678837 0
M  V30 1024 H 92.5831 4.06685 1.73379 0
M  V30 1025 N 91.6422 0.330177 1.54103 0
M  V30 1026 C 92.5722 -0.525353 2.27513 0
M  V30 1027 C 93.5532 -1.11383 1.2856 0
M  V30 1028 O 94.7382 -1.13773 1.57383 0
M  V30 1029 C 91.8682 -1.6831 3.03791 0
M  V30 1030 C 90.8222 -1.2236 4.10137 0
M  V30 1031 C 90.1482 -2.46882 4.74293 0
M  V30 1032 C 91.4482 -0.333697 5.21233 0
M  V30 1033 H 93.1422 0.087013 2.99274 0
M  V30 1034 H 90.6882 0.0432893 1.43935 0
M  V30 1035 H 92.6412 -2.28795 3.5388 0
M  V30 1036 H 91.3652 -2.32216 2.29659 0
M  V30 1037 H 90.0242 -0.64165 3.60941 0
M  V30 1038 H 89.6722 -3.09165 3.96769 0
M  V30 1039 H 89.3722 -2.16825 5.46133 0
M  V30 1040 H 90.8962 -3.08117 5.27159 0
M  V30 1041 H 92.3102 -0.845013 5.67038 0
M  V30 1042 H 90.7072 -0.125612 5.99969 0
M  V30 1043 H 91.7772 0.633724 4.80741 0
M  V30 1044 N 93.1203 -1.57491 0.0584922 0
M  V30 1045 C 94.3483 -1.97296 -0.623037 0
M  V30 1046 C 94.7633 -0.936338 -1.63946 0
M  V30 1047 O 94.1203 0.0785981 -1.82331 0
M  V30 1048 C 94.1713 -3.37183 -1.30345 0
M  V30 1049 O 93.8923 -4.36872 -0.32773 0
M  V30 1050 C 95.3933 -3.91788 -2.07406 0
M  V30 1051 H 92.6133 -0.649153 -0.169826 0
M  V30 1052 H 95.1573 -2.04106 0.12696 0
M  V30 1053 H 93.3123 -3.31502 -2.00463 0
M  V30 1054 H 93.7263 -5.18141 -0.814269 0
M  V30 1055 H 95.2003 -4.91926 -2.50425 0
M  V30 1056 H 95.6773 -3.27609 -2.92521 0
M  V30 1057 H 96.2833 -4.00829 -1.42184 0
M  V30 1058 N 94.5984 0.214957 -1.56127 0
M  V30 1059 C 95.8234 0.95924 -1.83884 0
M  V30 1060 C 96.2484 1.7689 -0.639644 0
M  V30 1061 O 95.6064 1.76566 0.411601 0
M  V30 1062 C 95.6544 1.84723 -3.09693 0
M  V30 1063 O 94.7584 2.94346 -2.8885 0
M  V30 1064 H 94.0994 0.27125 -0.606069 0
M  V30 1065 H 96.6294 0.226276 -2.03345 0
M  V30 1066 H 96.6394 2.25576 -3.39969 0
M  V30 1067 H 95.3144 1.25218 -3.96602 0
M  V30 1068 H 93.8914 2.57391 -2.69823 0
M  V30 1069 N 96.0765 1.50051 0.48192 0
M  V30 1070 C 97.3535 1.51009 1.2432 0
M  V30 1071 C 97.7335 0.248587 2.09631 0
M  V30 1072 O 97.0815 -0.768409 2.15192 0
M  V30 1073 C 97.2915 2.79981 2.08355 0
M  V30 1074 C 98.6395 3.3022 2.66908 0
M  V30 1075 O 99.6635 2.81228 2.18607 0
M  V30 1076 O 98.5225 4.15595 3.54884 0
M  V30 1077 H 95.6165 0.605239 0.563573 0
M  V30 1078 H 98.1625 1.62332 0.494627 0
M  V30 1079 H 96.9345 3.63275 1.45419 0
M  V30 1080 H 96.5575 2.7161 2.90368 0
M  V30 1081 N 97.5546 -0.734337 1.39446 0
M  V30 1082 C 98.7826 -1.52358 1.39981 0
M  V30 1083 C 99.1976 -1.88799 -0.0054975 0
M  V30 1084 O 98.5546 -1.54146 -0.976998 0
M  V30 1085 C 98.6056 -2.81072 2.27333 0
M  V30 1086 O 98.3266 -2.46178 3.62392 0
M  V30 1087 C 99.8276 -3.75096 2.36259 0
M  V30 1088 H 97.0476 -0.470806 0.478103 0
M  V30 1089 H 99.5916 -0.907339 1.83269 0
M  V30 1090 H 97.7466 -3.39026 1.87457 0
M  V30 1091 H 98.1606 -3.28866 4.08592 0
M  V30 1092 H 99.6346 -4.62305 3.01626 0
M  V30 1093 H 100.112 -4.16892 1.38194 0
M  V30 1094 H 100.718 -3.23061 2.76608 0
M  V30 1095 N 99.0327 -1.24633 -0.964593 0
M  V30 1096 C 100.258 -1.11596 -1.74818 0
M  V30 1097 C 100.683 0.32723 -1.85232 0
M  V30 1098 O 100.041 1.23695 -1.32549 0
M  V30 1099 C 100.089 -1.76397 -3.1451 0
M  V30 1100 O 99.1927 -1.03685 -3.99153 0
M  V30 1101 H 98.5337 -0.390196 -0.537255 0
M  V30 1102 H 101.064 -1.65002 -1.20977 0
M  V30 1103 H 101.074 -1.8228 -3.65018 0
M  V30 1104 H 99.7487 -2.81401 -3.06246 0
M  V30 1105 H 98.3257 -1.05611 -3.57632 0
M  V30 1106 N 100.511 1.16574 -1.06058 0
M  V30 1107 C 101.758 1.87047 -0.775873 0
M  V30 1108 C 102.086 1.81562 0.697534 0
M  V30 1109 O 101.341 1.22445 1.52662 0
M  V30 1110 C 101.64 3.36195 -1.21275 0
M  V30 1111 C 101.306 3.6188 -2.68986 0
M  V30 1112 C 99.9678 3.68599 -3.09335 0
M  V30 1113 C 102.32 3.72648 -3.64394 0
M  V30 1114 C 99.6478 3.83584 -4.43937 0
M  V30 1115 C 102 3.89154 -4.98741 0
M  V30 1116 C 100.664 3.94114 -5.3873 0
M  V30 1117 H 99.9338 0.684452 -0.283912 0
M  V30 1118 H 102.581 1.37853 -1.32925 0
M  V30 1119 H 100.886 3.87505 -0.578528 0
M  V30 1120 H 102.583 3.89103 -0.969542 0
M  V30 1121 H 99.1728 3.57281 -2.36744 0
M  V30 1122 H 103.357 3.66769 -3.34356 0
M  V30 1123 H 98.6128 3.85677 -4.74409 0
M  V30 1124 H 102.787 3.96427 -5.72554 0
M  V30 1125 H 100.414 4.05478 -6.43033 0
M  V30 1126 N 101.989 0.842826 1.3317 0
M  V30 1127 C 102.937 0.267495 2.31057 0
M  V30 1128 C 103.931 -0.602682 1.58316 0
M  V30 1129 O 105.137 -0.491803 1.73151 0
M  V30 1130 H 101.512 0.0677813 0.748939 0
M  V30 1131 H 103.483 1.10754 2.77085 0
M  V30 1132 C 102.232 -0.539331 3.43492 0
M  V30 1133 H 101.555 0.12095 3.99617 0
M  V30 1134 H 102.995 -0.90767 4.14171 0
M  V30 1135 C 101.454 -1.71981 2.89697 0
M  V30 1136 O 101.984 -2.81862 2.86211 0
M  V30 1137 N 100.19 -1.54299 2.46252 0
M  V30 1138 H 99.7369 -0.649143 2.49287 0
M  V30 1139 H 99.6949 -2.33431 2.10612 0
M  V30 1140 N 103.467 -1.45747 0.599634 0
M  V30 1141 C 104.713 -2.02592 0.0918643 0
M  V30 1142 C 105.046 -1.46806 -1.27128 0
M  V30 1143 O 104.321 -0.639658 -1.83681 0
M  V30 1144 C 104.604 -3.60073 0.0443398 0
M  V30 1145 C 104.457 -4.26208 1.43759 0
M  V30 1146 C 105.776 -4.35309 -0.647608 0
M  V30 1147 H 102.895 -0.736175 0.034857 0
M  V30 1148 H 105.537 -1.73694 0.770081 0
M  V30 1149 H 103.687 -3.84823 -0.533224 0
M  V30 1150 H 105.359 -4.12668 2.06162 0
M  V30 1151 H 103.602 -3.84916 2.00056 0
M  V30 1152 H 104.273 -5.35069 1.35665 0
M  V30 1153 H 106.749 -4.15805 -0.156776 0
M  V30 1154 H 105.625 -5.45038 -0.649942 0
M  V30 1155 H 105.886 -4.07598 -1.71219 0
M  V30 1156 N 104.945 -0.338344 -1.53925 0
M  V30 1157 C 105.855 0.529421 -2.28548 0
M  V30 1158 C 106.871 1.11645 -1.3346 0
M  V30 1159 O 108.047 1.13325 -1.66492 0
M  V30 1160 C 105.112 1.66713 -3.03987 0
M  V30 1161 C 104.173 1.11041 -4.14691 0
M  V30 1162 C 103.406 2.19389 -4.86522 0
M  V30 1163 O 103.629 3.40013 -4.57982 0
M  V30 1164 O 102.563 1.83976 -5.73094 0
M  V30 1165 H 106.389 -0.0770399 -3.03602 0
M  V30 1166 H 103.974 -0.103555 -1.49041 0
M  V30 1167 H 105.856 2.32918 -3.5118 0
M  V30 1168 H 104.531 2.25949 -2.31794 0
M  V30 1169 H 103.438 0.413024 -3.71813 0
M  V30 1170 H 104.771 0.562975 -4.8897 0
M  V30 1171 N 106.423 1.57458 -0.0668435 0
M  V30 1172 C 107.671 1.92919 0.602214 0
M  V30 1173 C 107.992 0.947215 1.70449 0
M  V30 1174 O 107.262 -0.00544117 1.95899 0
M  V30 1175 H 105.842 0.71217 0.22544 0
M  V30 1176 H 108.504 1.94508 -0.123535 0
M  V30 1177 H 107.6 2.94589 1.03073 0
M  V30 1178 N 107.901 -0.206675 1.56239 0
M  V30 1179 C 109.147 -0.930218 1.80208 0
M  V30 1180 C 109.48 -1.83387 0.638981 0
M  V30 1181 O 108.755 -1.91119 -0.361066 0
M  V30 1182 C 109.038 -1.75641 3.1436 0
M  V30 1183 C 108.891 -0.878257 4.41142 0
M  V30 1184 C 110.21 -2.73129 3.45092 0
M  V30 1185 H 107.329 -0.336742 0.655571 0
M  V30 1186 H 109.971 -0.198222 1.88963 0
M  V30 1187 H 108.121 -2.38048 3.07027 0
M  V30 1188 H 109.793 -0.269787 4.6051 0
M  V30 1189 H 108.036 -0.184385 4.33408 0
M  V30 1190 H 108.707 -1.49106 5.3148 0
M  V30 1191 H 111.183 -2.20856 3.52649 0
M  V30 1192 H 110.059 -3.28028 4.40101 0
M  V30 1193 H 110.32 -3.51606 2.68003 0
M  V30 1194 N 109.379 -1.50304 -0.473955 0
M  V30 1195 C 110.656 -1.51667 -1.23518 0
M  V30 1196 C 111.036 -0.259701 -2.09496 0
M  V30 1197 O 110.384 0.756986 -2.15597 0
M  V30 1198 C 110.594 -2.81082 -2.06868 0
M  V30 1199 C 111.942 -3.31631 -2.65153 0
M  V30 1200 O 112.966 -2.82384 -2.17113 0
M  V30 1201 O 111.825 -4.17471 -3.52675 0
M  V30 1202 H 108.919 -0.60822 -0.560355 0
M  V30 1203 H 111.465 -1.62592 -0.486011 0
M  V30 1204 H 110.237 -3.64041 -1.4349 0
M  V30 1205 H 109.86 -2.73146 -2.88924 0
M  V30 1206 N 110.857 0.726932 -1.39834 0
M  V30 1207 C 112.103 1.48884 -1.377 0
M  V30 1208 C 112.436 1.94185 0.0244852 0
M  V30 1209 O 111.711 1.67361 0.990986 0
M  V30 1210 C 111.994 2.72288 -2.3565 0
M  V30 1211 C 111.847 2.32956 -3.84775 0
M  V30 1212 C 113.166 3.74414 -2.31306 0
M  V30 1213 H 110.285 0.540062 -0.5015 0
M  V30 1214 H 112.927 0.830547 -1.70886 0
M  V30 1215 H 111.077 3.28457 -2.07481 0
M  V30 1216 H 112.749 1.82356 -4.23726 0
M  V30 1217 H 110.992 1.65088 -4.01159 0
M  V30 1218 H 111.663 3.21362 -4.4881 0
M  V30 1219 H 114.139 3.27849 -2.56231 0
M  V30 1220 H 113.015 4.58414 -3.01907 0
M  V30 1221 H 113.276 4.21909 -1.32081 0
M  V30 1222 N 112.336 1.25143 0.95797 0
M  V30 1223 C 113.585 1.0909 1.69654 0
M  V30 1224 C 113.898 -0.368548 1.92097 0
M  V30 1225 O 115.104 -0.649455 2.63618 0
M  V30 1226 C 113.56 1.90395 3.05414 0
M  V30 1227 C 113.168 3.4081 2.90779 0
M  V30 1228 C 114.912 1.82901 3.83076 0
M  V30 1229 C 112.819 4.14423 4.21909 0
M  V30 1230 H 111.749 0.404625 0.636235 0
M  V30 1231 H 114.4 1.4931 1.06672 0
M  V30 1232 H 112.782 1.42996 3.69281 0
M  V30 1233 H 113.956 3.95859 2.35865 0
M  V30 1234 H 112.271 3.49361 2.26575 0
M  V30 1235 H 114.868 2.35196 4.80195 0
M  V30 1236 H 115.211 0.796224 4.08615 0
M  V30 1237 H 115.744 2.28033 3.25954 0
M  V30 1238 H 112.483 5.18102 4.01561 0
M  V30 1239 H 112.003 3.64159 4.76601 0
M  V30 1240 H 113.682 4.21956 4.90471 0
M  V30 1241 N 113.814 -1.1601 1.06675 0
M  V30 1242 C 114.764 -2.18512 0.650888 0
M  V30 1243 C 115.748 -1.57677 -0.320441 0
M  V30 1244 O 116.94 -1.76482 -0.135266 0
M  V30 1245 C 114.069 -3.43273 0.0429255 0
M  V30 1246 C 113.155 -4.11176 1.03898 0
M  V30 1247 N 113.546 -4.54672 2.216 0
M  V30 1248 C 111.844 -4.37417 0.870779 0
M  V30 1249 C 112.545 -5.07248 2.84736 0
M  V30 1250 N 111.521 -5.0037 2.12441 0
M  V30 1251 H 115.323 -2.49863 1.54745 0
M  V30 1252 H 112.837 -1.32503 0.938975 0
M  V30 1253 H 114.834 -4.16006 -0.272857 0
M  V30 1254 H 113.494 -3.13408 -0.84884 0
M  V30 1255 H 114.505 -4.4828 2.59356 0
M  V30 1256 H 111.182 -4.17488 0.0313293 0
M  V30 1257 H 112.572 -5.50912 3.84636 0
M  V30 1258 N 115.292 -0.849877 -1.32721 0
M  V30 1259 C 116.517 -0.463856 -2.02146 0
M  V30 1260 C 116.942 0.930449 -1.63476 0
M  V30 1261 O 116.3 1.61033 -0.832952 0
M  V30 1262 C 116.348 -0.604955 -3.55489 0
M  V30 1263 O 115.452 0.36425 -4.10788 0
M  V30 1264 H 114.793 -0.187046 -0.637111 0
M  V30 1265 H 117.323 -1.14775 -1.69375 0
M  V30 1266 H 117.333 -0.490696 -4.05038 0
M  V30 1267 H 116.008 -1.62174 -3.82978 0
M  V30 1268 H 114.585 0.206628 -3.72327 0
M  V30 1269 N 116.77 1.45427 -0.607355 0
M  V30 1270 C 118.019 2.01452 -0.100036 0
M  V30 1271 C 118.332 1.48159 1.27704 0
M  V30 1272 O 119.538 1.96159 1.87707 0
M  V30 1273 C 117.994 3.59672 -0.128158 0
M  V30 1274 C 117.602 4.21962 -1.50507 0
M  V30 1275 C 119.346 4.23262 0.323932 0
M  V30 1276 C 117.253 5.72333 -1.48959 0
M  V30 1277 H 116.183 0.75325 -0.0336299 0
M  V30 1278 H 118.834 1.66901 -0.76265 0
M  V30 1279 H 117.216 3.91411 0.601105 0
M  V30 1280 H 118.39 4.01796 -2.25602 0
M  V30 1281 H 116.705 3.70565 -1.89923 0
M  V30 1282 H 119.302 5.33522 0.354691 0
M  V30 1283 H 119.645 3.93921 1.34656 0
M  V30 1284 H 120.178 3.96239 -0.352056 0
M  V30 1285 H 116.917 6.06373 -2.48981 0
M  V30 1286 H 116.437 5.94691 -0.781214 0
M  V30 1287 H 118.116 6.35525 -1.21313 0
M  V30 1288 N 118.248 0.346503 1.53744 0
M  V30 1289 C 119.158 -0.517293 2.28826 0
M  V30 1290 C 120.174 -1.10935 1.3405 0
M  V30 1291 O 121.35 -1.1244 1.6709 0
M  V30 1292 C 118.415 -1.65098 3.04866 0
M  V30 1293 C 117.476 -1.0884 4.15274 0
M  V30 1294 C 116.709 -2.16806 4.87679 0
M  V30 1295 O 116.932 -3.3758 4.59778 0
M  V30 1296 O 115.866 -1.80934 5.74061 0
M  V30 1297 H 119.692 0.0931396 3.03557 0
M  V30 1298 H 117.277 0.111458 1.48984 0
M  V30 1299 H 119.159 -2.31053 3.5241 0
M  V30 1300 H 117.834 -2.24717 2.32989 0
M  V30 1301 H 116.741 -0.3933 3.72027 0
M  V30 1302 H 118.074 -0.537036 4.89261 0
M  V30 1303 N 119.726 -1.57421 0.075193 0
M  V30 1304 C 121.003 -1.85029 -0.634329 0
M  V30 1305 C 121.383 -0.968305 -1.87582 0
M  V30 1306 O 120.731 -0.0354749 -2.28472 0
M  V30 1307 C 120.941 -3.35286 -0.968742 0
M  V30 1308 C 122.289 -4.02875 -1.34077 0
M  V30 1309 O 123.313 -3.40051 -1.06037 0
M  V30 1310 O 122.172 -5.13691 -1.86506 0
M  V30 1311 H 119.266 -0.7645 -0.315387 0
M  V30 1312 H 121.812 -1.69366 0.106382 0
M  V30 1313 H 120.584 -3.91203 -0.0871376 0
M  V30 1314 H 120.207 -3.56223 -1.7661 0
M  V30 1315 N 121.204 0.198386 -1.56346 0
M  V30 1316 C 122.453 0.917451 -1.79627 0
M  V30 1317 C 122.766 1.8456 -0.64784 0
M  V30 1318 O 123.972 2.60504 -0.764859 0
M  V30 1319 C 122.428 1.68175 -3.18191 0
M  V30 1320 C 122.036 0.798589 -4.40825 0
M  V30 1321 C 123.78 2.39065 -3.50782 0
M  V30 1322 C 121.687 1.56157 -5.70411 0
M  V30 1323 H 120.617 0.346317 -0.669762 0
M  V30 1324 H 123.268 0.170801 -1.82703 0
M  V30 1325 H 121.65 2.47216 -3.09354 0
M  V30 1326 H 122.824 0.0470665 -4.60776 0
M  V30 1327 H 121.139 0.200686 -4.15916 0
M  V30 1328 H 123.736 2.96692 -4.44835 0
M  V30 1329 H 124.079 3.13091 -2.74371 0
M  V30 1330 H 124.612 1.66993 -3.61052 0
M  V30 1331 H 121.351 0.864142 -6.49779 0
M  V30 1332 H 120.871 2.2871 -5.54483 0
M  V30 1333 H 122.55 2.11622 -6.11412 0
M  V30 1334 N 122.682 1.50554 0.465978 0
M  V30 1335 C 123.912 1.65323 1.23903 0
M  V30 1336 C 124.32 0.338051 1.86155 0
M  V30 1337 O 123.663 -0.690518 1.70228 0
M  V30 1338 C 123.725 2.69048 2.3844 0
M  V30 1339 C 123.389 4.12462 1.96784 0
M  V30 1340 C 124.386 4.98168 1.48745 0
M  V30 1341 C 122.071 4.58407 2.05349 0
M  V30 1342 C 124.065 6.27868 1.0982 0
M  V30 1343 C 121.752 5.88112 1.66035 0
M  V30 1344 C 122.75 6.72668 1.18349 0
M  V30 1345 O 122.438 7.99951 0.795825 0
M  V30 1346 H 122.17 0.558629 0.38067 0
M  V30 1347 H 124.724 1.97561 0.562022 0
M  V30 1348 H 122.954 2.32062 3.09328 0
M  V30 1349 H 124.643 2.72985 3.0039 0
M  V30 1350 H 125.409 4.63885 1.41546 0
M  V30 1351 H 121.288 3.92735 2.41414 0
M  V30 1352 H 124.832 6.93819 0.725293 0
M  V30 1353 H 120.729 6.21914 1.72895 0
M  V30 1354 H 121.497 8.13265 0.924222 0
M  V30 1355 N 124.16 -0.719506 1.40217 0
M  V30 1356 C 125.092 -1.84428 1.36084 0
M  V30 1357 C 126.105 -1.60597 0.266913 0
M  V30 1358 O 127.294 -1.70544 0.526983 0
M  V30 1359 C 124.394 -3.20757 1.094 0
M  V30 1360 C 123.567 -3.71817 2.30372 0
M  V30 1361 C 122.626 -4.86748 1.99907 0
M  V30 1362 O 121.652 -4.99603 2.72737 0
M  V30 1363 N 122.854 -5.7226 0.974635 0
M  V30 1364 H 125.619 -1.88473 2.33019 0
M  V30 1365 H 123.18 -0.900885 1.3452 0
M  V30 1366 H 125.172 -3.95235 0.870116 0
M  V30 1367 H 123.742 -3.11884 0.211452 0
M  V30 1368 H 122.962 -2.88514 2.68614 0
M  V30 1369 H 124.25 -4.02666 3.11026 0
M  V30 1370 H 123.648 -5.6448 0.371368 0
M  V30 1371 H 122.205 -6.46739 0.810656 0
M  V30 1372 N 125.638 -1.25649 -0.95132 0
M  V30 1373 C 126.568 -1.08808 -2.06599 0
M  V30 1374 C 127.549 0.00382547 -1.701 0
M  V30 1375 O 128.734 -0.166325 -1.93486 0
M  V30 1376 C 125.864 -0.709542 -3.39975 0
M  V30 1377 C 124.818 -1.75206 -3.90496 0
M  V30 1378 C 124.144 -1.22811 -5.20405 0
M  V30 1379 C 125.444 -3.15153 -4.16504 0
M  V30 1380 H 127.138 -2.02048 -2.20946 0
M  V30 1381 H 124.684 -0.972835 -1.06169 0
M  V30 1382 H 126.637 -0.578649 -4.17408 0
M  V30 1383 H 125.361 0.258556 -3.25575 0
M  V30 1384 H 124.02 -1.87145 -3.15234 0
M  V30 1385 H 123.668 -0.250145 -5.02378 0
M  V30 1386 H 123.368 -1.92492 -5.55176 0
M  V30 1387 H 124.892 -1.10968 -6.00432 0
M  V30 1388 H 126.306 -3.06349 -4.84586 0
M  V30 1389 H 124.703 -3.82333 -4.62538 0
M  V30 1390 H 125.773 -3.61966 -3.22658 0
M  V30 1391 N 127.117 1.15442 -1.07289 0
M  V30 1392 C 128.528 1.67803 -0.818475 0
M  V30 1393 C 128.879 1.8489 0.656507 0
M  V30 1394 O 128.004 1.55176 1.50829 0
M  V30 1395 C 128.599 3.04805 -1.47917 0
M  V30 1396 C 127.158 3.54245 -1.27229 0
M  V30 1397 C 126.305 2.29986 -1.54925 0
M  V30 1398 H 129.256 0.996646 -1.23502 0
M  V30 1399 H 129.277 3.69702 -0.90005 0
M  V30 1400 H 128.789 2.92336 -2.55267 0
M  V30 1401 H 126.89 3.71956 -0.21899 0
M  V30 1402 H 127.003 4.35723 -1.99203 0
M  V30 1403 H 125.367 2.35496 -0.970242 0
M  V30 1404 H 126.15 2.20105 -2.63455 0
M  V30 1405 N 128.595 0.856903 1.32268 0
M  V30 1406 C 129.843 0.460474 1.96784 0
M  V30 1407 C 130.164 -0.987701 1.68135 0
M  V30 1408 O 129.434 -1.69058 0.989765 0
M  V30 1409 H 128.014 0.167289 0.728027 0
M  V30 1410 H 130.676 1.09383 1.61312 0
M  V30 1411 H 129.772 0.60739 3.06133 0
M  V30 1412 N 130.073 -1.45103 0.615059 0
M  V30 1413 C 131.023 -2.27679 -0.120966 0
M  V30 1414 C 132.007 -1.3775 -0.831491 0
M  V30 1415 O 133.199 -1.61683 -0.720249 0
M  V30 1416 C 130.328 -3.24767 -1.1127 0
M  V30 1417 C 129.414 -4.22184 -0.402627 0
M  V30 1418 N 129.805 -5.02692 0.559884 0
M  V30 1419 C 128.103 -4.4125 -0.649202 0
M  V30 1420 C 128.804 -5.73421 0.977942 0
M  V30 1421 N 127.78 -5.42657 0.320104 0
M  V30 1422 H 131.582 -2.87325 0.618181 0
M  V30 1423 H 129.096 -1.56345 0.439304 0
M  V30 1424 H 131.093 -3.82666 -1.65446 0
M  V30 1425 H 129.753 -2.66682 -1.85232 0
M  V30 1426 H 130.764 -5.09354 0.936976 0
M  V30 1427 H 127.441 -3.9428 -1.37293 0
M  V30 1428 H 128.831 -6.48107 1.77222 0
M  V30 1429 N 131.551 -0.354651 -1.53558 0
M  V30 1430 C 132.797 0.238797 -2.01389 0
M  V30 1431 C 133.13 1.49309 -1.2418 0
M  V30 1432 O 132.405 1.91638 -0.332457 0
M  V30 1433 C 132.688 0.541771 -3.56001 0
M  V30 1434 C 132.541 -0.725388 -4.43912 0
M  V30 1435 C 133.86 1.34685 -4.18984 0
M  V30 1436 H 130.979 0.0853177 -0.732045 0
M  V30 1437 H 133.621 -0.477384 -1.83905 0
M  V30 1438 H 131.771 1.15189 -3.71031 0
M  V30 1439 H 133.443 -1.36313 -4.407 0
M  V30 1440 H 131.686 -1.34801 -4.12324 0
M  V30 1441 H 132.357 -0.468505 -5.50008 0
M  V30 1442 H 134.833 0.830837 -4.07721 0
M  V30 1443 H 133.709 1.52759 -5.27215 0
M  V30 1444 H 133.97 2.35221 -3.74331 0
M  V30 1445 N 133.029 1.57378 -0.0835403 0
M  V30 1446 C 134.276 1.9393 0.58287 0
M  V30 1447 C 134.604 0.964455 1.68904 0
M  V30 1448 O 133.859 -0.0179474 1.95692 0
M  V30 1449 C 134.158 3.37063 1.1884 0
M  V30 1450 C 133.824 4.50424 0.207194 0
M  V30 1451 C 132.486 4.81159 -0.0627115 0
M  V30 1452 C 134.838 5.19136 -0.463426 0
M  V30 1453 C 132.166 5.77939 -1.01012 0
M  V30 1454 C 134.518 6.16931 -1.39924 0
M  V30 1455 C 133.182 6.46078 -1.67749 0
M  V30 1456 H 132.452 0.70964 0.213287 0
M  V30 1457 H 135.099 1.90856 -0.156916 0
M  V30 1458 H 133.404 3.3666 2.00418 0
M  V30 1459 H 135.101 3.6264 1.71153 0
M  V30 1460 H 131.691 4.2646 0.427747 0
M  V30 1461 H 135.875 4.95576 -0.268034 0
M  V30 1462 H 131.131 5.98842 -1.23283 0
M  V30 1463 H 135.305 6.69273 -1.92476 0
M  V30 1464 H 132.932 7.2088 -2.41321 0
M  V30 1465 N 134.507 -0.190092 1.56449 0
M  V30 1466 C 135.756 -0.907912 1.80111 0
M  V30 1467 C 136.069 -1.84214 0.657619 0
M  V30 1468 O 137.275 -2.60094 0.778663 0
M  V30 1469 C 135.731 -1.66485 3.19078 0
M  V30 1470 C 135.339 -0.7752 4.41242 0
M  V30 1471 C 137.083 -2.37201 3.52045 0
M  V30 1472 C 134.99 -1.53129 5.71231 0
M  V30 1473 H 133.92 -0.34276 0.671589 0
M  V30 1474 H 136.571 -0.161109 1.82791 0
M  V30 1475 H 134.953 -2.45572 3.10661 0
M  V30 1476 H 136.127 -0.0226298 4.60794 0
M  V30 1477 H 134.442 -0.178627 4.16017 0
M  V30 1478 H 137.039 -2.94329 4.46402 0
M  V30 1479 H 137.382 -3.11632 2.76028 0
M  V30 1480 H 137.915 -1.65075 3.61932 0
M  V30 1481 H 134.654 -0.82967 6.50228 0
M  V30 1482 H 134.174 -2.25767 5.55688 0
M  V30 1483 H 135.853 -2.08377 6.12526 0
M  V30 1484 N 135.985 -1.50799 -0.457987 0
M  V30 1485 C 137.232 -1.62442 -1.20908 0
M  V30 1486 C 137.56 -0.330865 -1.91665 0
M  V30 1487 O 136.815 0.68401 -1.83357 0
M  V30 1488 C 137.114 -2.76358 -2.2663 0
M  V30 1489 C 136.78 -4.16378 -1.73033 0
M  V30 1490 C 135.442 -4.54473 -1.58138 0
M  V30 1491 C 137.794 -5.03836 -1.33413 0
M  V30 1492 C 135.122 -5.77754 -1.02065 0
M  V30 1493 C 137.474 -6.27676 -0.78778 0
M  V30 1494 C 136.138 -6.64562 -0.625561 0
M  V30 1495 H 135.408 -0.594417 -0.442435 0
M  V30 1496 H 138.055 -1.84772 -0.503136 0
M  V30 1497 H 136.36 -2.48167 -3.03184 0
M  V30 1498 H 138.057 -2.82568 -2.84528 0
M  V30 1499 H 134.647 -3.86331 -1.85598 0
M  V30 1500 H 138.831 -4.75026 -1.4375 0
M  V30 1501 H 134.087 -6.04997 -0.882547 0
M  V30 1502 H 138.261 -6.94797 -0.472177 0
M  V30 1503 H 135.888 -7.59965 -0.188926 0
M  V30 1504 N 137.463 0.71206 -1.40597 0
M  V30 1505 C 138.711 1.46907 -1.38791 0
M  V30 1506 C 139.032 1.94998 0.00780391 0
M  V30 1507 O 138.302 1.70587 0.963174 0
M  V30 1508 H 136.882 0.545043 -0.51082 0
M  V30 1509 H 139.544 0.843882 -1.75683 0
M  V30 1510 H 138.64 2.34021 -2.06496 0
M  V30 1511 N 138.941 1.26152 0.944643 0
M  V30 1512 C 140.189 1.11271 1.6871 0
M  V30 1513 C 140.51 -0.345166 1.91921 0
M  V30 1514 O 139.78 -1.24387 1.51343 0
M  V30 1515 H 138.36 0.408783 0.625224 0
M  V30 1516 H 141.022 1.58427 1.1352 0
M  V30 1517 H 140.118 1.62879 2.66227 0
M  V30 1518 N 140.419 -1.14872 1.07899 0
M  V30 1519 C 141.351 -2.19425 0.662231 0
M  V30 1520 C 142.364 -1.60231 -0.288079 0
M  V30 1521 O 143.553 -1.78336 -0.076534 0
M  V30 1522 C 140.653 -3.38867 -0.0470695 0
M  V30 1523 C 139.826 -4.27597 0.920831 0
M  V30 1524 C 138.885 -5.25616 0.247805 0
M  V30 1525 O 137.911 -5.62189 0.890599 0
M  V30 1526 N 139.113 -5.71746 -1.00435 0
M  V30 1527 H 141.878 -2.55797 1.56166 0
M  V30 1528 H 139.439 -1.30042 0.964404 0
M  V30 1529 H 141.431 -4.01497 -0.50813 0
M  V30 1530 H 140.001 -3.00864 -0.848523 0
M  V30 1531 H 139.221 -3.61982 1.56087 0
M  V30 1532 H 140.509 -4.83748 1.57688 0
M  V30 1533 H 139.907 -5.44153 -1.54642 0
M  V30 1534 H 138.464 -6.36389 -1.40899 0
M  V30 1535 N 141.898 -0.863906 -1.31812 0
M  V30 1536 C 143.126 -0.486111 -2.01108 0
M  V30 1537 C 143.541 0.919755 -1.64882 0
M  V30 1538 O 142.898 1.60162 -0.874893 0
M  V30 1539 C 142.949 -0.626435 -3.56031 0
M  V30 1540 O 142.67 -1.97693 -3.90959 0
M  V30 1541 C 144.171 -0.248857 -4.42601 0
M  V30 1542 H 141.391 -0.190052 -0.643523 0
M  V30 1543 H 143.935 -1.1634 -1.68182 0
M  V30 1544 H 142.09 0.00322717 -3.874 0
M  V30 1545 H 142.504 -1.98034 -4.85678 0
M  V30 1546 H 143.978 -0.398016 -5.50563 0
M  V30 1547 H 144.455 0.811489 -4.31638 0
M  V30 1548 H 145.061 -0.853971 -4.16638 0
M  V30 1549 N 143.376 1.44774 -0.622745 0
M  V30 1550 C 144.306 2.33382 0.0741861 0
M  V30 1551 C 145.287 1.47719 0.843387 0
M  V30 1552 O 146.472 1.76458 0.810934 0
M  V30 1553 C 143.602 3.30663 1.06204 0
M  V30 1554 C 142.556 4.26079 0.405037 0
M  V30 1555 C 141.882 5.13165 1.5022 0
M  V30 1556 C 143.182 5.1781 -0.683414 0
M  V30 1557 H 144.876 2.91905 -0.665713 0
M  V30 1558 H 142.422 1.40363 -0.321587 0
M  V30 1559 H 144.375 3.9153 1.55827 0
M  V30 1560 H 143.099 2.70331 1.83272 0
M  V30 1561 H 141.758 3.66532 -0.0704683 0
M  V30 1562 H 141.406 4.49191 2.26355 0
M  V30 1563 H 141.106 5.77812 1.06803 0
M  V30 1564 H 142.63 5.76902 2.00041 0
M  V30 1565 H 144.044 5.72661 -0.270631 0
M  V30 1566 H 142.441 5.91015 -1.04023 0
M  V30 1567 H 143.511 4.59326 -1.55395 0
M  V30 1568 N 144.854 0.36279 1.53368 0
M  V30 1569 C 146.101 -0.227776 2.01215 0
M  V30 1570 C 146.429 -1.49003 1.25014 0
M  V30 1571 O 145.684 -1.92876 0.331236 0
M  V30 1572 C 145.983 -0.568417 3.52851 0
M  V30 1573 C 145.649 0.59918 4.46901 0
M  V30 1574 C 144.311 0.919559 4.72332 0
M  V30 1575 C 146.663 1.38156 5.02556 0
M  V30 1576 C 143.991 2.02434 5.5067 0
M  V30 1577 C 146.343 2.47674 5.821 0
M  V30 1578 C 145.007 2.8025 6.05819 0
M  V30 1579 H 144.277 -0.083349 0.736297 0
M  V30 1580 H 146.924 0.494677 1.85001 0
M  V30 1581 H 145.229 -1.37185 3.66998 0
M  V30 1582 H 146.926 -1.03756 3.87344 0
M  V30 1583 H 143.516 0.339437 4.27254 0
M  V30 1584 H 147.7 1.14729 4.82857 0
M  V30 1585 H 142.956 2.28075 5.67267 0
M  V30 1586 H 147.13 3.08716 6.24234 0
M  V30 1587 H 144.757 3.65979 6.66306 0
M  V30 1588 N 146.332 -1.57332 0.0918853 0
M  V30 1589 C 147.242 -2.17368 -0.882505 0
M  V30 1590 C 148.258 -1.14226 -1.31257 0
M  V30 1591 O 149.434 -1.46582 -1.38115 0
M  V30 1592 C 146.499 -2.73962 -2.12476 0
M  V30 1593 C 145.56 -3.92048 -1.7492 0
M  V30 1594 C 144.793 -4.45933 -2.93223 0
M  V30 1595 O 145.016 -3.98764 -4.07852 0
M  V30 1596 O 143.95 -5.36999 -2.71875 0
M  V30 1597 H 147.776 -3.01031 -0.40172 0
M  V30 1598 H 145.361 -1.48813 -0.132291 0
M  V30 1599 H 147.243 -3.10147 -2.85283 0
M  V30 1600 H 145.918 -1.93347 -2.59613 0
M  V30 1601 H 144.825 -3.6068 -0.993025 0
M  V30 1602 H 146.158 -4.74017 -1.32548 0
M  V30 1603 N 147.81 0.181792 -1.56548 0
M  V30 1604 C 148.72 1.24538 -1.98815 0
M  V30 1605 C 149.736 1.49045 -0.897861 0
M  V30 1606 O 150.912 1.61399 -1.20467 0
M  V30 1607 C 147.977 2.56683 -2.33055 0
M  V30 1608 C 147.038 2.40131 -3.55859 0
M  V30 1609 C 146.271 3.65975 -3.88456 0
M  V30 1610 O 146.494 4.70711 -3.22161 0
M  V30 1611 O 145.428 3.6071 -4.81842 0
M  V30 1612 H 149.254 0.916647 -2.89536 0
M  V30 1613 H 146.839 0.387842 -1.44278 0
M  V30 1614 H 148.721 3.34655 -2.56094 0
M  V30 1615 H 147.396 2.89157 -1.45498 0
M  V30 1616 H 146.303 1.60226 -3.38051 0
M  V30 1617 H 147.636 2.12585 -4.43924 0
M  V30 1618 N 149.288 1.51039 0.449983 0
M  V30 1619 C 150.221 1.66105 1.56474 0
M  V30 1620 C 151.199 0.508776 1.54435 0
M  V30 1621 O 152.383 0.731005 1.73749 0
M  V30 1622 C 149.51 1.66304 2.9506 0
M  V30 1623 C 148.556 2.87346 3.15174 0
M  V30 1624 S 149.389 4.4835 2.92818 0
M  V30 1625 C 150.545 4.51274 4.33708 0
M  V30 1626 H 150.778 2.60397 1.43459 0
M  V30 1627 H 148.311 1.40565 0.638805 0
M  V30 1628 H 150.269 1.67103 3.74949 0
M  V30 1629 H 148.93 0.732108 3.05449 0
M  V30 1630 H 148.123 2.83849 4.16468 0
M  V30 1631 H 147.725 2.84223 2.43091 0
M  V30 1632 H 150.017 4.26136 5.26701 0
M  V30 1633 H 150.96 5.53017 4.42242 0
M  V30 1634 H 151.368 3.80738 4.16772 0
M  V30 1635 N 150.766 -0.704594 1.40972 0
M  V30 1636 C 152.015 -1.46018 1.39146 0
M  V30 1637 C 152.328 -1.956 0.000589254 0
M  V30 1638 O 153.534 -2.71137 -0.1403 0
M  V30 1639 C 151.99 -2.63996 2.4461 0
M  V30 1640 C 151.598 -2.21238 3.89561 0
M  V30 1641 C 153.342 -3.41677 2.51907 0
M  V30 1642 C 151.249 -3.3612 4.86598 0
M  V30 1643 H 150.179 -0.548444 0.517422 0
M  V30 1644 H 152.83 -0.765784 1.66757 0
M  V30 1645 H 151.212 -3.3566 2.10115 0
M  V30 1646 H 152.386 -1.56923 4.33257 0
M  V30 1647 H 150.701 -1.56574 3.85841 0
M  V30 1648 H 153.298 -4.27182 3.2159 0
M  V30 1649 H 153.641 -3.86247 1.55303 0
M  V30 1650 H 154.174 -2.77064 2.85448 0
M  V30 1651 H 150.913 -2.96572 5.84573 0
M  V30 1652 H 150.433 -3.99315 4.47557 0
M  V30 1653 H 152.112 -4.02029 5.06934 0
M  V30 1654 N 152.244 -1.26651 -0.937939 0
M  V30 1655 C 153.521 -1.0313 -1.66204 0
M  V30 1656 C 153.901 0.437256 -2.06522 0
M  V30 1657 O 153.249 1.41831 -1.79154 0
M  V30 1658 C 153.459 -1.98314 -2.87181 0
M  V30 1659 C 154.807 -2.27107 -3.58758 0
M  V30 1660 O 155.831 -1.96205 -2.97291 0
M  V30 1661 O 154.69 -2.79736 -4.69479 0
M  V30 1662 H 151.784 -0.392384 -0.727986 0
M  V30 1663 H 154.33 -1.37874 -0.989382 0
M  V30 1664 H 153.102 -2.97399 -2.54302 0
M  V30 1665 H 152.725 -1.64068 -3.6217 0
M  V30 1666 N 153.722 1.14298 -1.08507 0
M  V30 1667 C 154.669 2.19414 -0.715965 0
M  V30 1668 C 155.639 1.63399 0.298326 0
M  V30 1669 O 156.824 1.89929 0.182101 0
M  V30 1670 C 153.964 3.44845 -0.132534 0
M  V30 1671 C 153.077 4.15007 -1.19973 0
M  V30 1672 C 152.212 5.28024 -0.580048 0
M  V30 1673 C 151.251 5.9002 -1.62921 0
M  V30 1674 N 150.388 6.94485 -1.03125 0
M  V30 1675 H 155.228 2.50336 -1.61666 0
M  V30 1676 H 152.765 1.2293 -0.807882 0
M  V30 1677 H 154.723 4.16601 0.223454 0
M  V30 1678 H 153.353 3.14403 0.731467 0
M  V30 1679 H 152.405 3.41629 -1.67313 0
M  V30 1680 H 153.717 4.57178 -1.99473 0
M  V30 1681 H 152.871 6.06455 -0.172364 0
M  V30 1682 H 151.61 4.87076 0.246603 0
M  V30 1683 H 150.615 5.10291 -2.04654 0
M  V30 1684 H 151.84 6.33042 -2.45835 0
M  V30 1685 H 149.786 6.55612 -0.225711 0
M  V30 1686 H 149.703 7.35148 -1.76334 0
M  V30 1687 H 150.971 7.7679 -0.649458 0
M  V30 1688 N 155.201 0.870884 1.31352 0
M  V30 1689 C 156.447 0.482987 1.96965 0
M  V30 1690 C 156.78 -0.962462 1.68672 0
M  V30 1691 O 156.055 -1.6779 0.98371 0
M  V30 1692 C 156.338 0.741752 3.52378 0
M  V30 1693 C 156.191 2.2368 3.9024 0
M  V30 1694 C 157.51 0.208838 4.39604 0
M  V30 1695 H 154.629 0.176955 0.715441 0
M  V30 1696 H 157.271 1.09229 1.55464 0
M  V30 1697 H 155.421 0.223149 3.87859 0
M  V30 1698 H 157.093 2.82273 3.64856 0
M  V30 1699 H 155.336 2.70901 3.38814 0
M  V30 1700 H 156.007 2.3685 4.98604 0
M  V30 1701 H 158.483 0.652529 4.10952 0
M  V30 1702 H 157.359 0.419336 5.47296 0
M  V30 1703 H 157.62 -0.889275 4.33064 0
M  V30 1704 N 156.679 -1.44442 0.630414 0
M  V30 1705 C 157.956 -1.9549 0.0655657 0
M  V30 1706 C 158.336 -1.5724 -1.40851 0
M  V30 1707 O 157.684 -0.846116 -2.12257 0
M  V30 1708 C 157.894 -3.47812 0.287691 0
M  V30 1709 C 159.242 -4.24216 0.180513 0
M  V30 1710 O 160.266 -3.55526 0.219019 0
M  V30 1711 O 159.125 -5.46434 0.0848493 0
M  V30 1712 H 156.219 -0.826688 -0.0227177 0
M  V30 1713 H 158.765 -1.54496 0.702068 0
M  V30 1714 H 157.537 -3.687 1.31056 0
M  V30 1715 H 157.16 -3.95751 -0.382984 0
M  V30 1716 N 158.157 -0.370918 -1.53173 0
M  V30 1717 C 159.434 0.273754 -1.93675 0
M  V30 1718 C 159.814 1.65938 -1.3049 0
M  V30 1719 O 159.162 2.23698 -0.465999 0
M  V30 1720 C 159.372 0.318602 -3.47543 0
M  V30 1721 C 160.72 0.556392 -4.20939 0
M  V30 1722 O 161.744 0.399587 -3.53952 0
M  V30 1723 O 160.603 0.862133 -5.39657 0
M  V30 1724 H 157.697 0.165448 -0.810281 0
M  V30 1725 H 160.243 -0.42409 -1.64315 0
M  V30 1726 H 159.015 -0.652687 -3.85818 0
M  V30 1727 H 158.638 1.06212 -3.83151 0
M  V30 1728 N 159.635 1.57281 -0.100228 0
M  V30 1729 C 160.568 2.09976 0.893612 0
M  V30 1730 C 161.546 1.01155 1.27304 0
M  V30 1731 O 162.73 1.28687 1.37739 0
M  V30 1732 C 159.857 2.58098 2.19324 0
M  V30 1733 C 158.903 3.78626 1.96328 0
M  V30 1734 S 159.736 5.21959 1.19662 0
M  V30 1735 C 160.892 5.73435 2.50844 0
M  V30 1736 H 161.125 2.93946 0.44534 0
M  V30 1737 H 158.658 1.53985 0.113167 0
M  V30 1738 H 160.616 2.8648 2.94005 0
M  V30 1739 H 159.277 1.74344 2.61272 0
M  V30 1740 H 158.47 4.10382 2.92579 0
M  V30 1741 H 158.072 3.50763 1.29775 0
M  V30 1742 H 160.364 5.82015 3.46792 0
M  V30 1743 H 161.307 6.7185 2.23659 0
M  V30 1744 H 161.715 5.01395 2.59352 0
M  V30 1745 N 161.113 -0.173488 1.56642 0
M  V30 1746 C 162.343 -0.904781 1.85734 0
M  V30 1747 C 162.751 -1.76431 0.68328 0
M  V30 1748 O 162.094 -1.802 -0.356865 0
M  V30 1749 C 162.156 -1.83382 3.09211 0
M  V30 1750 C 161.82 -1.15411 4.42187 0
M  V30 1751 C 162.817 -0.520609 5.17287 0
M  V30 1752 C 160.502 -1.15151 4.88923 0
M  V30 1753 C 162.496 0.106412 6.37311 0
M  V30 1754 C 160.183 -0.520664 6.08878 0
M  V30 1755 C 161.181 0.107196 6.82916 0
M  V30 1756 O 160.869 0.728102 8.00596 0
M  V30 1757 H 160.601 -0.268408 0.62043 0
M  V30 1758 H 163.155 -0.179096 2.04618 0
M  V30 1759 H 161.385 -2.59976 2.86268 0
M  V30 1760 H 163.074 -2.43476 3.24768 0
M  V30 1761 H 163.84 -0.514606 4.82262 0
M  V30 1762 H 159.719 -1.62961 4.31236 0
M  V30 1763 H 163.263 0.597081 6.9504 0
M  V30 1764 H 159.16 -0.524242 6.43368 0
M  V30 1765 H 159.928 0.627138 8.16094 0
M  V30 1766 N 162.591 -1.51276 -0.441967 0
M  V30 1767 C 163.84 -1.6295 -1.18871 0
M  V30 1768 C 164.153 -0.349312 -1.92456 0
M  V30 1769 O 165.359 -0.345355 -2.69295 0
M  V30 1770 C 163.815 -2.87759 -2.16155 0
M  V30 1771 C 163.423 -4.22764 -1.48239 0
M  V30 1772 C 165.167 -3.08788 -2.91291 0
M  V30 1773 C 163.074 -5.38728 -2.4398 0
M  V30 1774 H 162.004 -0.606913 -0.447406 0
M  V30 1775 H 164.655 -1.77739 -0.456205 0
M  V30 1776 H 163.037 -2.66593 -2.92821 0
M  V30 1777 H 164.211 -4.54293 -0.771635 0
M  V30 1778 H 162.526 -4.07575 -0.852741 0
M  V30 1779 H 165.123 -3.92599 -3.63002 0
M  V30 1780 H 165.466 -2.21679 -3.5237 0
M  V30 1781 H 165.999 -3.30272 -2.21733 0
M  V30 1782 H 162.738 -6.28082 -1.87598 0
M  V30 1783 H 162.258 -5.1158 -3.13123 0
M  V30 1784 H 163.937 -5.70489 -3.05207 0
M  V30 1785 N 164.069 0.697108 -1.41344 0
M  V30 1786 C 165.297 1.48593 -1.43972 0
M  V30 1787 C 165.712 1.88747 -0.0445612 0
M  V30 1788 O 165.069 1.56682 0.935785 0
M  V30 1789 C 165.12 2.74946 -2.34706 0
M  V30 1790 O 164.841 2.36484 -3.68791 0
M  V30 1791 C 166.342 3.687 -2.46121 0
M  V30 1792 H 163.562 0.457964 -0.490418 0
M  V30 1793 H 166.106 0.858429 -1.8561 0
M  V30 1794 H 164.261 3.33937 -1.9638 0
M  V30 1795 H 164.675 3.17918 -4.17167 0
M  V30 1796 H 166.149 4.54145 -3.13777 0
M  V30 1797 H 166.626 4.13081 -1.49199 0
M  V30 1798 H 167.232 3.15613 -2.85076 0
M  V30 1799 N 165.547 1.27147 0.931209 0
M  V30 1800 C 166.793 1.13446 1.68101 0
M  V30 1801 C 167.126 -0.319628 1.91552 0
M  V30 1802 O 166.401 -1.23407 1.50336 0
M  V30 1803 C 166.684 1.91482 3.0497 0
M  V30 1804 C 166.537 3.44855 2.88782 0
M  V30 1805 C 167.856 1.71651 4.05246 0
M  V30 1806 H 164.975 0.413498 0.610072 0
M  V30 1807 H 167.617 1.56261 1.08086 0
M  V30 1808 H 165.767 1.55095 3.56199 0
M  V30 1809 H 167.439 3.9105 2.44698 0
M  V30 1810 H 165.682 3.71373 2.24198 0
M  V30 1811 H 166.353 3.94694 3.85902 0
M  V30 1812 H 168.829 2.0337 3.63015 0
M  V30 1813 H 167.705 2.28651 4.99009 0
M  V30 1814 H 167.966 0.663555 4.37092 0
M  V30 1815 N 167.025 -1.13721 1.09112 0
M  V30 1816 C 168.274 -1.84275 0.82009 0
M  V30 1817 C 168.587 -1.84253 -0.656509 0
M  V30 1818 O 169.793 -2.50668 -1.04296 0
M  V30 1819 C 168.249 -3.30825 1.41714 0
M  V30 1820 C 167.857 -3.39244 2.92605 0
M  V30 1821 C 169.601 -4.06443 1.22492 0
M  V30 1822 C 167.508 -4.80047 3.45411 0
M  V30 1823 H 166.438 -0.690387 0.30312 0
M  V30 1824 H 169.089 -1.28146 1.31343 0
M  V30 1825 H 167.471 -3.86737 0.851498 0
M  V30 1826 H 168.645 -2.93344 3.55367 0
M  V30 1827 H 166.96 -2.77088 3.10823 0
M  V30 1828 H 169.557 -5.10387 1.59402 0
M  V30 1829 H 169.9 -4.15972 0.165299 0
M  V30 1830 H 170.433 -3.56852 1.75788 0
M  V30 1831 H 167.172 -4.75709 4.50978 0
M  V30 1832 H 166.692 -5.26455 2.87411 0
M  V30 1833 H 168.371 -5.48957 3.42425 0
M  V30 1834 N 168.503 -0.877838 -1.30888 0
M  V30 1835 C 169.413 -0.343096 -2.32078 0
M  V30 1836 C 170.429 0.551022 -1.65045 0
M  V30 1837 O 171.605 0.445854 -1.96403 0
M  V30 1838 C 168.67 0.439905 -3.43898 0
M  V30 1839 C 167.731 -0.483111 -4.26573 0
M  V30 1840 C 166.964 0.262616 -5.33053 0
M  V30 1841 O 167.187 1.48967 -5.50604 0
M  V30 1842 O 166.121 -0.383593 -6.00676 0
M  V30 1843 H 169.947 -1.18203 -2.79753 0
M  V30 1844 H 167.532 -0.64145 -1.34929 0
M  V30 1845 H 169.414 0.883504 -4.12034 0
M  V30 1846 H 168.089 1.25526 -2.98371 0
M  V30 1847 H 166.996 -0.975374 -3.61161 0
M  V30 1848 H 168.329 -1.26427 -4.75686 0
M  V30 1849 N 169.982 1.44106 -0.638065 0
M  V30 1850 C 171.23 2.01579 -0.145043 0
M  V30 1851 C 171.551 1.50496 1.24 0
M  V30 1852 O 170.821 0.711374 1.82527 0
M  V30 1853 H 169.401 0.745282 -0.05063 0
M  V30 1854 H 172.063 1.76516 -0.826327 0
M  V30 1855 H 171.159 3.11877 -0.118039 0
M  V30 1856 N 171.46 0.379036 1.52974 0
M  V30 1857 C 172.407 -0.461048 2.26148 0
M  V30 1858 C 173.377 -1.06637 1.27349 0
M  V30 1859 O 174.562 -1.09633 1.56157 0
M  V30 1860 C 171.702 -1.58782 3.06402 0
M  V30 1861 C 170.815 -1.00636 4.20115 0
M  V30 1862 C 169.95 -2.10334 4.87784 0
M  V30 1863 C 168.989 -1.49724 5.93506 0
M  V30 1864 N 168.126 -2.5331 6.54812 0
M  V30 1865 H 172.966 0.169429 2.97518 0
M  V30 1866 H 170.503 0.0953806 1.4679 0
M  V30 1867 H 172.461 -2.25174 3.51215 0
M  V30 1868 H 171.091 -2.18876 2.37261 0
M  V30 1869 H 170.143 -0.232332 3.7969 0
M  V30 1870 H 171.455 -0.523343 4.96047 0
M  V30 1871 H 170.609 -2.84519 5.35849 0
M  V30 1872 H 169.348 -2.61992 4.11353 0
M  V30 1873 H 168.353 -0.740598 5.44789 0
M  V30 1874 H 169.578 -0.988732 6.71864 0
M  V30 1875 H 167.524 -3.04156 5.81227 0
M  V30 1876 H 167.441 -2.09734 7.26325 0
M  V30 1877 H 168.709 -3.27155 7.07524 0
M  V30 1878 N 172.938 -1.57226 0.108567 0
M  V30 1879 C 174.185 -1.94833 -0.551943 0
M  V30 1880 C 174.513 -0.991204 -1.67348 0
M  V30 1881 O 173.768 -0.0131878 -1.95696 0
M  V30 1882 C 174.067 -3.38911 -1.13463 0
M  V30 1883 C 173.733 -4.50696 -0.135509 0
M  V30 1884 C 172.395 -4.80998 0.139252 0
M  V30 1885 C 174.747 -5.18333 0.545957 0
M  V30 1886 C 172.075 -5.76259 1.10194 0
M  V30 1887 C 174.427 -6.14627 1.49721 0
M  V30 1888 C 173.091 -6.43327 1.78006 0
M  V30 1889 H 172.361 -0.712944 -0.20197 0
M  V30 1890 H 175.008 -1.90582 0.18726 0
M  V30 1891 H 173.313 -3.39805 -1.95037 0
M  V30 1892 H 175.01 -3.65317 -1.65362 0
M  V30 1893 H 171.6 -4.27087 -0.359846 0
M  V30 1894 H 175.784 -4.95087 0.346842 0
M  V30 1895 H 171.04 -5.96804 1.32795 0
M  V30 1896 H 175.214 -6.66126 2.03099 0
M  V30 1897 H 172.841 -7.1695 2.52759 0
M  V30 1898 N 174.416 0.165178 -1.56732 0
M  V30 1899 C 175.832 0.517174 -1.50988 0
M  V30 1900 C 176.032 1.84331 -0.813894 0
M  V30 1901 O 175.088 2.49672 -0.37682 0
M  V30 1902 C 176.401 0.544261 -2.95733 0
M  V30 1903 C 177.949 0.631039 -3.06573 0
M  V30 1904 C 178.424 0.68896 -4.52788 0
M  V30 1905 N 179.915 0.751683 -4.5706 0
M  V30 1906 C 180.65 0.817177 -5.67547 0
M  V30 1907 N 180.146 0.843129 -6.8765 0
M  V30 1908 N 181.939 0.856668 -5.55534 0
M  V30 1909 H 174.09 -0.704318 -2.00382 0
M  V30 1910 H 176.353 -0.254687 -0.913148 0
M  V30 1911 H 176.059 -0.361607 -3.49836 0
M  V30 1912 H 175.933 1.3886 -3.5071 0
M  V30 1913 H 178.32 1.52733 -2.52501 0
M  V30 1914 H 178.401 -0.240095 -2.54671 0
M  V30 1915 H 178.045 -0.2031 -5.07494 0
M  V30 1916 H 177.975 1.57633 -5.02454 0
M  V30 1917 H 180.466 0.739661 -3.70591 0
M  V30 1918 H 180.779 0.894448 -7.67606 0
M  V30 1919 H 179.124 0.811304 -6.90248 0
M  V30 1920 H 182.315 0.833437 -4.60621 0
M  V30 1921 H 182.488 0.904247 -6.4166 0
M  V30 1922 N 175.894 1.51508 0.433938 0
M  V30 1923 C 177.142 1.6402 1.18075 0
M  V30 1924 C 177.463 0.360328 1.91642 0
M  V30 1925 O 176.733 -0.623945 1.85698 0
M  V30 1926 H 175.313 0.6045 0.43885 0
M  V30 1927 H 177.975 1.88452 0.497178 0
M  V30 1928 H 177.071 2.46949 1.90847 0
M  V30 1929 N 177.372 -0.689602 1.41712 0
M  V30 1930 C 178.649 -1.44457 1.31877 0
M  V30 1931 C 179.029 -2.11039 -0.0508537 0
M  V30 1932 O 178.377 -2.02138 -1.06547 0
M  V30 1933 C 178.587 -2.45913 2.47645 0
M  V30 1934 C 179.935 -3.10991 2.89084 0
M  V30 1935 O 180.959 -2.56238 2.47428 0
M  V30 1936 O 179.818 -4.10174 3.61137 0
M  V30 1937 H 176.912 -0.64362 0.519309 0
M  V30 1938 H 179.458 -0.719576 1.53689 0
M  V30 1939 H 178.23 -1.95409 3.39015 0
M  V30 1940 H 177.853 -3.25913 2.27742 0
M  V30 1941 N 178.85 -1.27639 -0.924453 0
M  V30 1942 C 180.078 -1.16989 -1.70649 0
M  V30 1943 C 180.493 0.272869 -1.86818 0
M  V30 1944 O 179.85 1.18549 -1.38753 0
M  V30 1945 C 179.901 -1.85229 -3.10439 0
M  V30 1946 O 179.622 -3.23868 -2.95028 0
M  V30 1947 C 181.123 -1.80746 -4.04779 0
M  V30 1948 H 178.343 -0.406595 -0.53378 0
M  V30 1949 H 180.887 -1.68569 -1.15778 0
M  V30 1950 H 179.042 -1.37545 -3.6216 0
M  V30 1951 H 179.456 -3.57889 -3.83426 0
M  V30 1952 H 180.93 -2.33101 -5.00368 0
M  V30 1953 H 181.407 -0.777499 -4.32263 0
M  V30 1954 H 182.013 -2.28059 -3.58984 0
M  V30 1955 N 180.328 1.1314 -1.09713 0
M  V30 1956 C 181.575 1.84484 -0.834987 0
M  V30 1957 C 181.903 1.83689 0.639418 0
M  V30 1958 O 181.158 1.2724 1.4869 0
M  V30 1959 C 181.457 3.32167 -1.3191 0
M  V30 1960 C 181.123 3.53139 -2.80363 0
M  V30 1961 C 179.785 3.58571 -3.20905 0
M  V30 1962 C 182.137 3.60866 -3.76065 0
M  V30 1963 C 179.465 3.69267 -4.55916 0
M  V30 1964 C 181.817 3.73089 -5.10869 0
M  V30 1965 C 180.481 3.76775 -5.50996 0
M  V30 1966 H 179.751 0.675073 -0.305544 0
M  V30 1967 H 182.398 1.33554 -1.37243 0
M  V30 1968 H 180.703 3.85469 -0.701517 0
M  V30 1969 H 182.4 3.85821 -1.09284 0
M  V30 1970 H 178.99 3.49569 -2.47991 0
M  V30 1971 H 183.174 3.55946 -3.45855 0
M  V30 1972 H 178.43 3.70388 -4.86438 0
M  V30 1973 H 182.604 3.78011 -5.84877 0
M  V30 1974 H 180.231 3.84815 -6.55608 0
M  V30 1975 N 181.806 0.884767 1.30421 0
M  V30 1976 C 183.053 0.503105 1.96151 0
M  V30 1977 C 183.381 -0.947676 1.69851 0
M  V30 1978 O 182.636 -1.68467 0.995861 0
M  V30 1979 C 182.935 0.724318 3.49983 0
M  V30 1980 C 182.601 2.15015 3.96332 0
M  V30 1981 C 181.263 2.54005 4.08699 0
M  V30 1982 C 183.615 3.07936 4.20505 0
M  V30 1983 C 180.943 3.85128 4.42599 0
M  V30 1984 C 183.295 4.3859 4.55874 0
M  V30 1985 C 181.959 4.77474 4.66449 0
M  V30 1986 H 181.229 0.184099 0.717766 0
M  V30 1987 H 183.876 1.12058 1.55291 0
M  V30 1988 H 182.181 0.0238086 3.91793 0
M  V30 1989 H 183.878 0.408617 3.98913 0
M  V30 1990 H 180.468 1.8375 3.87213 0
M  V30 1991 H 184.652 2.79033 4.10431 0
M  V30 1992 H 179.908 4.14996 4.48986 0
M  V30 1993 H 184.082 5.10629 4.7353 0
M  V30 1994 H 181.709 5.79115 4.92473 0
M  V30 1995 N 183.284 -1.43765 0.645699 0
M  V30 1996 C 184.695 -1.85193 0.236719 0
M  V30 1997 C 185.046 -1.54045 -1.21509 0
M  V30 1998 O 184.171 -0.985694 -1.92647 0
M  V30 1999 C 184.766 -3.36151 0.422845 0
M  V30 2000 C 183.325 -3.76338 0.0682492 0
M  V30 2001 C 182.472 -2.67538 0.729306 0
M  V30 2002 H 185.423 -1.34025 0.849883 0
M  V30 2003 H 185.444 -3.79032 -0.333904 0
M  V30 2004 H 184.956 -3.5879 1.47958 0
M  V30 2005 H 183.057 -3.59312 -0.986179 0
M  V30 2006 H 183.17 -4.76603 0.488469 0
M  V30 2007 H 181.534 -2.54176 0.163235 0
M  V30 2008 H 182.317 -2.93006 1.78892 0
M  V30 2009 N 184.763 -0.387143 -1.52771 0
M  V30 2010 C 186.174 0.0873634 -1.86495 0
M  V30 2011 C 186.525 1.46336 -1.30691 0
M  V30 2012 O 185.65 2.068 -0.637409 0
M  V30 2013 C 186.245 0.165305 -3.38396 0
M  V30 2014 C 184.804 0.584101 -3.7184 0
M  V30 2015 C 183.951 -0.255279 -2.76122 0
M  V30 2016 H 186.902 -0.605104 -1.46711 0
M  V30 2017 H 186.923 0.984848 -3.67534 0
M  V30 2018 H 186.435 -0.836301 -3.78982 0
M  V30 2019 H 184.536 1.59315 -3.36823 0
M  V30 2020 H 184.649 0.343749 -4.77865 0
M  V30 2021 H 183.013 0.279126 -2.53166 0
M  V30 2022 H 183.796 -1.25482 -3.19545 0
M  V30 2023 N 186.241 1.57166 -0.116904 0
M  V30 2024 C 187.471 1.99184 0.548586 0
M  V30 2025 C 187.879 0.995436 1.60897 0
M  V30 2026 O 187.222 -0.0201293 1.83689 0
M  V30 2027 C 187.284 3.37611 1.23526 0
M  V30 2028 C 186.948 4.55857 0.323077 0
M  V30 2029 C 187.945 5.18056 -0.437476 0
M  V30 2030 C 185.63 5.01751 0.234761 0
M  V30 2031 C 187.624 6.24536 -1.2741 0
M  V30 2032 C 185.311 6.08093 -0.605496 0
M  V30 2033 C 186.309 6.69352 -1.35856 0
M  V30 2034 O 185.997 7.7364 -2.18487 0
M  V30 2035 H 185.729 0.659148 0.149999 0
M  V30 2036 H 188.283 2.0443 -0.199428 0
M  V30 2037 H 186.513 3.29113 2.0303 0
M  V30 2038 H 188.202 3.63932 1.79745 0
M  V30 2039 H 188.968 4.83516 -0.379105 0
M  V30 2040 H 184.847 4.53817 0.810601 0
M  V30 2041 H 188.391 6.72281 -1.86237 0
M  V30 2042 H 184.288 6.42063 -0.665268 0
M  V30 2043 H 185.056 7.90727 -2.11406 0
M  V30 2044 N 187.719 -0.156864 1.56817 0
M  V30 2045 C 188.947 -0.886316 1.86955 0
M  V30 2046 C 189.362 -1.75185 0.703975 0
M  V30 2047 O 188.719 -1.79555 -0.326552 0
M  V30 2048 C 188.77 -1.75117 3.16253 0
M  V30 2049 O 188.491 -0.920537 4.2832 0
M  V30 2050 C 189.992 -2.58905 3.59837 0
M  V30 2051 H 187.212 -0.25678 0.619923 0
M  V30 2052 H 189.756 -0.152615 2.0393 0
M  V30 2053 H 187.911 -2.43805 3.01062 0
M  V30 2054 H 188.325 -1.51337 5.02192 0
M  V30 2055 H 189.799 -3.1518 4.53172 0
M  V30 2056 H 190.276 -3.34472 2.84649 0
M  V30 2057 H 190.882 -1.95526 3.7769 0
M  V30 2058 N 189.197 -1.51736 -0.425897 0
M  V30 2059 C 190.444 -1.6497 -1.17436 0
M  V30 2060 C 190.772 -0.371445 -1.9092 0
M  V30 2061 O 190.027 0.644963 -1.84767 0
M  V30 2062 C 190.326 -2.81103 -2.20717 0
M  V30 2063 C 189.992 -4.19954 -1.64162 0
M  V30 2064 C 188.654 -4.57725 -1.48462 0
M  V30 2065 C 191.006 -5.06552 -1.22696 0
M  V30 2066 C 188.334 -5.79789 -0.897873 0
M  V30 2067 C 190.686 -6.29205 -0.654464 0
M  V30 2068 C 189.35 -6.6574 -0.484456 0
M  V30 2069 H 188.62 -0.603668 -0.429727 0
M  V30 2070 H 191.267 -1.85798 -0.463829 0
M  V30 2071 H 189.572 -2.54542 -2.97852 0
M  V30 2072 H 191.269 -2.8854 -2.78471 0
M  V30 2073 H 187.859 -3.90181 -1.77361 0
M  V30 2074 H 192.043 -4.77968 -1.33642 0
M  V30 2075 H 187.299 -6.06733 -0.75402 0
M  V30 2076 H 191.473 -6.95643 -0.324694 0
M  V30 2077 H 189.1 -7.60195 -0.0276833 0
M  V30 2078 N 190.675 0.682077 -1.42076 0
M  V30 2079 C 191.585 1.82535 -1.47371 0
M  V30 2080 C 192.601 1.7017 -0.363079 0
M  V30 2081 O 193.777 1.91848 -0.612875 0
M  V30 2082 C 190.842 3.18624 -1.36674 0
M  V30 2083 C 189.903 3.42999 -2.58167 0
M  V30 2084 C 189.136 4.72595 -2.4797 0
M  V30 2085 O 189.359 5.50006 -1.5116 0
M  V30 2086 O 188.293 4.98054 -3.37974 0
M  V30 2087 H 192.119 1.81023 -2.43853 0
M  V30 2088 H 189.704 0.836887 -1.2376 0
M  V30 2089 H 191.586 3.99847 -1.33043 0
M  V30 2090 H 190.261 3.20789 -0.433138 0
M  V30 2091 H 189.168 2.61653 -2.67373 0
M  V30 2092 H 190.501 3.45659 -3.50401 0
M  V30 2093 N 192.153 1.28127 0.917671 0
M  V30 2094 C 193.43 1.05761 1.64542 0
M  V30 2095 C 193.81 -0.404344 2.07191 0
M  V30 2096 O 193.158 -1.38963 1.81388 0
M  V30 2097 C 193.368 2.02857 2.83989 0
M  V30 2098 C 194.716 2.32786 3.551 0
M  V30 2099 O 195.74 2.0091 2.94132 0
M  V30 2100 O 194.599 2.87169 4.64969 0
M  V30 2101 H 191.693 0.403916 0.721652 0
M  V30 2102 H 194.239 1.39431 0.967322 0
M  V30 2103 H 193.011 3.01407 2.49538 0
M  V30 2104 H 192.634 1.69809 3.59514 0
M  V30 2105 N 193.631 -1.12557 1.10312 0
M  V30 2106 C 194.877 -1.84515 0.855901 0
M  V30 2107 C 195.232 -1.82409 -0.611936 0
M  V30 2108 O 194.525 -1.25778 -1.44535 0
M  V30 2109 C 194.719 -3.31462 1.33669 0
M  V30 2110 C 194.548 -3.47879 2.84974 0
M  V30 2111 C 193.318 -3.61589 3.52961 0
M  V30 2112 C 195.516 -3.43152 3.83081 0
M  V30 2113 N 193.498 -3.66359 4.926 0
M  V30 2114 C 194.869 -3.54401 5.08724 0
M  V30 2115 C 196.924 -3.2661 3.75807 0
M  V30 2116 C 195.627 -3.50815 6.2795 0
M  V30 2117 C 197.653 -3.24335 4.94531 0
M  V30 2118 C 197.015 -3.36144 6.19021 0
M  V30 2119 H 193.114 -0.690967 0.366182 0
M  V30 2120 H 195.698 -1.34763 1.40524 0
M  V30 2121 H 193.869 -3.7976 0.814686 0
M  V30 2122 H 195.601 -3.91272 1.03385 0
M  V30 2123 H 192.356 -3.63652 3.03404 0
M  V30 2124 H 192.78 -3.72411 5.65366 0
M  V30 2125 H 197.422 -3.16375 2.80476 0
M  V30 2126 H 195.14 -3.5982 7.23571 0
M  V30 2127 H 198.726 -3.12719 4.9061 0
M  V30 2128 H 197.606 -3.34357 7.09348 0
M  V30 2129 N 195.109 -0.891671 -1.2995 0
M  V30 2130 C 196.019 -0.367691 -2.31701 0
M  V30 2131 C 197.035 0.533486 -1.6562 0
M  V30 2132 O 198.211 0.424997 -1.96865 0
M  V30 2133 C 195.276 0.403406 -3.44345 0
M  V30 2134 C 194.337 -0.528328 -4.26037 0
M  V30 2135 C 193.57 0.206063 -5.33302 0
M  V30 2136 O 193.793 1.43119 -5.52153 0
M  V30 2137 O 192.727 -0.447281 -6.00236 0
M  V30 2138 H 196.553 -1.21163 -2.78484 0
M  V30 2139 H 194.138 -0.655725 -1.34241 0
M  V30 2140 H 196.02 0.839753 -4.12948 0
M  V30 2141 H 194.695 1.22354 -2.99685 0
M  V30 2142 H 193.602 -1.01362 -3.60106 0
M  V30 2143 H 194.935 -1.31465 -4.74318 0
M  V30 2144 N 196.587 1.43421 -0.653314 0
M  V30 2145 C 197.833 2.02111 -0.166992 0
M  V30 2146 C 198.166 1.51423 1.21592 0
M  V30 2147 O 197.441 0.707389 1.8118 0
M  V30 2148 C 197.724 3.5966 -0.177948 0
M  V30 2149 C 197.577 4.20579 -1.59478 0
M  V30 2150 C 198.896 4.37413 0.4856 0
M  V30 2151 H 196.015 0.734374 -0.0621557 0
M  V30 2152 H 198.657 1.70717 -0.834016 0
M  V30 2153 H 196.807 3.86537 0.390032 0
M  V30 2154 H 198.479 4.04732 -2.21336 0
M  V30 2155 H 196.722 3.77226 -2.14204 0
M  V30 2156 H 197.393 5.29665 -1.5543 0
M  V30 2157 H 199.869 4.161 0.00234528 0
M  V30 2158 H 198.745 5.47075 0.447207 0
M  V30 2159 H 199.006 4.13672 1.55974 0
M  V30 2160 N 198.065 0.39524 1.52563 0
M  V30 2161 C 199.028 -0.425001 2.25225 0
M  V30 2162 C 200.028 -0.985266 1.27079 0
M  V30 2163 O 201.218 -0.866332 1.5113 0
M  V30 2164 C 198.35 -1.59686 3.01186 0
M  V30 2165 H 199.543 0.211233 2.99155 0
M  V30 2166 H 197.096 0.147472 1.55603 0
M  V30 2167 H 197.831 -2.27035 2.31572 0
M  V30 2168 H 197.616 -1.20176 3.73229 0
M  V30 2169 H 199.106 -2.17743 3.5634 0
M  V30 2170 N 199.544 -1.57102 0.125237 0
M  V30 2171 C 200.769 -2.0019 -0.542101 0
M  V30 2172 C 201.194 -1.00449 -1.59034 0
M  V30 2173 O 200.552 0.0229423 -1.81285 0
M  V30 2174 C 200.6 -3.42129 -1.13929 0
M  V30 2175 O 199.704 -3.45307 -2.2547 0
M  V30 2176 H 199.045 -0.650171 -0.134812 0
M  V30 2177 H 201.575 -2.03461 0.215553 0
M  V30 2178 H 201.585 -3.80471 -1.4733 0
M  V30 2179 H 200.26 -4.14237 -0.371531 0
M  V30 2180 H 198.837 -3.1879 -1.93462 0
M  V30 2181 N 201.022 0.148545 -1.56898 0
M  V30 2182 C 202.247 0.880385 -1.87787 0
M  V30 2183 C 202.672 1.74018 -0.714093 0
M  V30 2184 O 202.03 1.78153 0.336343 0
M  V30 2185 C 202.078 1.71422 -3.17249 0
M  V30 2186 O 201.182 2.8183 -3.01074 0
M  V30 2187 H 200.523 0.245301 -0.617028 0
M  V30 2188 H 203.053 0.139826 -2.04122 0
M  V30 2189 H 203.063 2.10954 -3.49231 0
M  V30 2190 H 201.738 1.08284 -4.01556 0
M  V30 2191 H 200.315 2.45715 -2.80497 0
M  V30 2192 N 202.5 1.5196 0.417844 0
M  V30 2193 C 203.746 1.65836 1.16732 0
M  V30 2194 C 204.079 0.382881 1.90388 0
M  V30 2195 O 203.354 -0.618368 1.84408 0
M  V30 2196 C 203.637 2.87466 2.16876 0
M  V30 2197 C 203.49 4.25041 1.47174 0
M  V30 2198 C 204.809 3.04613 3.17646 0
M  V30 2199 H 201.928 0.603515 0.423011 0
M  V30 2200 H 204.57 1.84494 0.454105 0
M  V30 2201 H 202.72 2.71689 2.777 0
M  V30 2202 H 204.392 4.52527 0.895376 0
M  V30 2203 H 202.635 4.26843 0.773806 0
M  V30 2204 H 203.306 5.06176 2.20204 0
M  V30 2205 H 205.782 3.1923 2.66892 0
M  V30 2206 H 204.658 3.91247 3.8499 0
M  V30 2207 H 204.919 2.17541 3.84874 0
M  V30 2208 N 203.978 -0.674533 1.42435 0
M  V30 2209 C 204.888 -1.81751 1.48337 0
M  V30 2210 C 205.904 -1.69975 0.372099 0
M  V30 2211 O 207.08 -1.91521 0.62304 0
M  V30 2212 C 204.145 -3.17895 1.38361 0
M  V30 2213 C 203.206 -3.41625 2.59982 0
M  V30 2214 C 202.439 -4.71274 2.50473 0
M  V30 2215 O 202.662 -5.49197 1.54075 0
M  V30 2216 O 201.596 -4.96254 3.4061 0
M  V30 2217 H 205.422 -1.79728 2.44809 0
M  V30 2218 H 203.007 -0.830312 1.24202 0
M  V30 2219 H 204.889 -3.99136 1.35161 0
M  V30 2220 H 203.564 -3.20555 0.450144 0
M  V30 2221 H 202.471 -2.60231 2.68757 0
M  V30 2222 H 203.804 -3.43796 3.52229 0
M  V30 2223 N 205.456 -1.28612 -0.910864 0
M  V30 2224 C 206.704 -1.15705 -1.65701 0
M  V30 2225 C 207.025 0.29416 -1.92769 0
M  V30 2226 O 206.295 1.20331 -1.54588 0
M  V30 2227 H 204.875 -0.425216 -0.614167 0
M  V30 2228 H 207.537 -1.61381 -1.0928 0
M  V30 2229 H 206.633 -1.6988 -2.61815 0
M  V30 2230 N 206.934 1.1197 -1.10907 0
M  V30 2231 C 207.881 2.17846 -0.762345 0
M  V30 2232 C 208.851 1.63995 0.263599 0
M  V30 2233 O 210.036 1.90273 0.141773 0
M  V30 2234 C 207.176 3.44487 -0.205651 0
M  V30 2235 C 206.289 4.12369 -1.28748 0
M  V30 2236 C 205.424 5.26674 -0.691919 0
M  V30 2237 C 204.463 5.86431 -1.75399 0
M  V30 2238 N 203.6 6.92142 -1.17833 0
M  V30 2239 H 208.44 2.46851 -1.6694 0
M  V30 2240 H 205.977 1.21188 -0.833776 0
M  V30 2241 H 207.935 4.16981 0.135037 0
M  V30 2242 H 206.565 3.15884 0.664613 0
M  V30 2243 H 205.617 3.38003 -1.74522 0
M  V30 2244 H 206.929 4.52844 -2.09125 0
M  V30 2245 H 206.083 6.05953 -0.300963 0
M  V30 2246 H 204.822 4.8749 0.143232 0
M  V30 2247 H 203.827 5.05835 -2.15432 0
M  V30 2248 H 205.052 6.27685 -2.59208 0
M  V30 2249 H 202.998 6.54985 -0.364725 0
M  V30 2250 H 202.915 7.31242 -1.91887 0
M  V30 2251 H 204.183 7.75237 -0.81408 0
M  V30 2252 N 208.412 0.89855 1.29475 0
M  V30 2253 C 209.342 0.39201 2.30186 0
M  V30 2254 C 210.323 -0.532359 1.61555 0
M  V30 2255 O 211.508 -0.443331 1.89072 0
M  V30 2256 C 208.638 -0.382353 3.45189 0
M  V30 2257 C 207.592 0.451483 4.25612 0
M  V30 2258 C 206.918 -0.450307 5.328 0
M  V30 2259 C 208.218 1.70079 4.93832 0
M  V30 2260 H 209.912 1.23362 2.72804 0
M  V30 2261 H 207.458 0.594638 1.31149 0
M  V30 2262 H 209.411 -0.747451 4.14718 0
M  V30 2263 H 208.135 -1.25774 3.01411 0
M  V30 2264 H 206.794 0.798897 3.57789 0
M  V30 2265 H 206.442 -1.32379 4.85268 0
M  V30 2266 H 206.142 0.103902 5.87508 0
M  V30 2267 H 207.666 -0.811623 6.05182 0
M  V30 2268 H 209.08 1.40549 5.55805 0
M  V30 2269 H 207.477 2.19623 5.58467 0
M  V30 2270 H 208.547 2.43744 4.19186 0
M  V30 2271 N 209.89 -1.43072 0.660911 0
M  V30 2272 C 211.167 -1.95307 0.107017 0
M  V30 2273 C 211.547 -1.60192 -1.37484 0
M  V30 2274 O 210.895 -0.890949 -2.10415 0
M  V30 2275 C 211.105 -3.47124 0.361402 0
M  V30 2276 C 212.453 -4.23738 0.270455 0
M  V30 2277 O 213.477 -3.54981 0.294382 0
M  V30 2278 O 212.336 -5.46131 0.200737 0
M  V30 2279 H 209.43 -0.826984 -0.00517729 0
M  V30 2280 H 211.976 -1.52972 0.734681 0
M  V30 2281 H 210.748 -3.65837 1.38848 0
M  V30 2282 H 210.371 -3.96475 -0.298953 0
M  V30 2283 N 211.368 -0.403325 -1.52352 0
M  V30 2284 C 212.278 0.432009 -2.30588 0
M  V30 2285 C 213.294 1.05884 -1.38075 0
M  V30 2286 O 214.47 1.06161 -1.71148 0
M  V30 2287 C 211.535 1.53669 -3.10784 0
M  V30 2288 C 210.596 0.933525 -4.19027 0
M  V30 2289 C 209.829 1.98557 -4.9539 0
M  V30 2290 O 210.052 3.20283 -4.71991 0
M  V30 2291 O 208.986 1.59504 -5.80381 0
M  V30 2292 H 212.812 -0.205739 -3.03002 0
M  V30 2293 H 210.397 -0.166675 -1.48467 0
M  V30 2294 H 212.279 2.17814 -3.60742 0
M  V30 2295 H 210.954 2.15915 -2.41169 0
M  V30 2296 H 209.861 0.254954 -3.7323 0
M  V30 2297 H 211.194 0.35508 -4.90918 0
M  V30 2298 N 212.846 1.57033 -0.133567 0
M  V30 2299 C 213.793 2.16074 0.811208 0
M  V30 2300 C 214.763 1.08979 1.2535 0
M  V30 2301 O 215.948 1.36958 1.32843 0
M  V30 2302 C 213.088 2.77595 2.05024 0
M  V30 2303 C 212.201 3.99042 1.65498 0
M  V30 2304 C 211.336 4.48603 2.84479 0
M  V30 2305 C 210.375 5.62547 2.41262 0
M  V30 2306 N 209.512 6.06787 3.53206 0
M  V30 2307 H 214.352 2.96477 0.300906 0
M  V30 2308 H 211.889 1.46462 0.136822 0
M  V30 2309 H 213.847 3.11402 2.77642 0
M  V30 2310 H 212.477 1.99859 2.53488 0
M  V30 2311 H 211.529 3.71302 0.826981 0
M  V30 2312 H 212.841 4.81629 1.29748 0
M  V30 2313 H 211.995 4.84395 3.65303 0
M  V30 2314 H 210.734 3.64995 3.23465 0
M  V30 2315 H 209.739 5.26345 1.58874 0
M  V30 2316 H 210.964 6.47931 2.03377 0
M  V30 2317 H 208.91 5.26117 3.91838 0
M  V30 2318 H 208.827 6.84266 3.21427 0
M  V30 2319 H 210.095 6.4722 4.34427 0
M  V30 2320 N 214.325 -0.140222 1.56975 0
M  V30 2321 C 215.273 -1.19207 1.99731 0
M  V30 2322 C 216.267 -1.44089 0.890777 0
M  V30 2323 O 217.473 -1.44301 1.07597 0
M  V30 2324 H 213.848 -0.40142 0.635898 0
M  V30 2325 H 215.819 -0.804813 2.87342 0
M  V30 2326 C 214.568 -2.51617 2.39967 0
M  V30 2327 H 213.891 -2.33303 3.24669 0
M  V30 2328 H 215.331 -3.23827 2.73701 0
M  V30 2329 C 213.79 -3.12654 1.25496 0
M  V30 2330 O 214.32 -3.97786 0.559371 0
M  V30 2331 N 212.526 -2.72206 1.01746 0
M  V30 2332 H 212.073 -2.03074 1.58489 0
M  V30 2333 H 212.031 -3.13377 0.253461 0
M  V30 2334 N 215.803 -1.52179 -0.40978 0
M  V30 2335 C 217.031 -1.70054 -1.17853 0
M  V30 2336 C 217.446 -0.409735 -1.843 0
M  V30 2337 O 216.803 0.614183 -1.71855 0
M  V30 2338 C 216.854 -2.83568 -2.24213 0
M  V30 2339 O 216.575 -4.0765 -1.60478 0
M  V30 2340 C 218.076 -3.12947 -3.13973 0
M  V30 2341 H 215.296 -0.569917 -0.354169 0
M  V30 2342 H 217.84 -1.98734 -0.482198 0
M  V30 2343 H 215.995 -2.57409 -2.89516 0
M  V30 2344 H 216.409 -4.70899 -2.30986 0
M  V30 2345 H 217.883 -3.95889 -3.84677 0
M  V30 2346 H 218.36 -2.26472 -3.76307 0
M  V30 2347 H 218.966 -3.40868 -2.5434 0
M  V30 2348 N 217.281 0.66697 -1.42791 0
M  V30 2349 C 218.53 1.42278 -1.42968 0
M  V30 2350 C 218.843 1.9553 -0.0524489 0
M  V30 2351 O 220.049 2.71414 0.068363 0
M  V30 2352 C 218.505 2.57418 -2.51524 0
M  V30 2353 C 218.113 2.10832 -3.9529 0
M  V30 2354 C 219.857 3.34878 -2.60877 0
M  V30 2355 C 217.764 3.23101 -4.95338 0
M  V30 2356 H 216.694 0.534533 -0.531781 0
M  V30 2357 H 219.345 0.721302 -1.68729 0
M  V30 2358 H 217.727 3.29971 -2.18941 0
M  V30 2359 H 218.901 1.4538 -4.37266 0
M  V30 2360 H 217.216 1.46289 -3.89857 0
M  V30 2361 H 219.813 4.18505 -3.32802 0
M  V30 2362 H 220.156 3.81993 -1.6549 0
M  V30 2363 H 220.689 2.69398 -2.92693 0
M  V30 2364 H 217.428 2.80969 -5.9223 0
M  V30 2365 H 216.948 3.87309 -4.57987 0
M  V30 2366 H 218.627 3.88447 -5.17415 0
M  V30 2367 N 218.759 1.29093 0.90403 0
M  V30 2368 C 220.17 1.15186 1.46932 0
M  V30 2369 C 220.521 -0.254587 1.94541 0
M  V30 2370 O 219.646 -1.14972 1.83332 0
M  V30 2371 C 220.241 2.08492 2.67051 0
M  V30 2372 C 218.8 1.98621 3.19729 0
M  V30 2373 C 217.947 1.9967 1.92425 0
M  V30 2374 H 220.898 1.41641 0.715789 0
M  V30 2375 H 220.919 1.65461 3.42641 0
M  V30 2376 H 220.431 3.10847 2.3237 0
M  V30 2377 H 218.532 0.993389 3.59114 0
M  V30 2378 H 218.645 2.86068 3.8432 0
M  V30 2379 H 217.009 1.44208 2.09943 0
M  V30 2380 H 217.792 3.03721 1.60026 0
M  V30 2381 N 220.237 -1.11381 1.11499 0
M  V30 2382 C 221.187 -2.15555 0.74298 0
M  V30 2383 C 222.171 -1.58894 -0.253276 0
M  V30 2384 O 223.363 -1.76897 -0.0602918 0
M  V30 2385 C 220.492 -3.42782 0.188481 0
M  V30 2386 C 219.578 -4.064 1.21244 0
M  V30 2387 N 219.969 -4.44864 2.40685 0
M  V30 2388 C 218.267 -4.3333 1.05552 0
M  V30 2389 C 218.968 -4.94715 3.05994 0
M  V30 2390 N 217.944 -4.90909 2.33472 0
M  V30 2391 H 221.746 -2.43074 1.65203 0
M  V30 2392 H 219.26 -1.28401 0.994329 0
M  V30 2393 H 221.257 -4.16789 -0.0961693 0
M  V30 2394 H 219.917 -3.16727 -0.715149 0
M  V30 2395 H 220.928 -4.36876 2.78136 0
M  V30 2396 H 217.605 -4.1698 0.208372 0
M  V30 2397 H 218.995 -5.34103 4.07656 0
M  V30 2398 N 221.715 -0.905404 -1.28997 0
M  V30 2399 C 222.943 -0.549846 -1.9946 0
M  V30 2400 C 223.358 0.866834 -1.67724 0
M  V30 2401 O 222.715 1.57298 -0.925404 0
M  V30 2402 C 222.766 -0.739387 -3.53858 0
M  V30 2403 O 222.487 -2.10031 -3.84472 0
M  V30 2404 C 223.988 -0.389541 -4.41585 0
M  V30 2405 H 221.208 -0.210429 -0.637151 0
M  V30 2406 H 223.752 -1.21632 -1.64396 0
M  V30 2407 H 221.907 -0.120023 -3.87214 0
M  V30 2408 H 222.321 -2.13385 -4.79132 0
M  V30 2409 H 223.795 -0.572972 -5.49018 0
M  V30 2410 H 224.272 0.673756 -4.34001 0
M  V30 2411 H 224.878 -0.986089 -4.1371 0
M  V30 2412 N 223.193 1.4272 -0.668489 0
M  V30 2413 C 224.44 2.01624 -0.18814 0
M  V30 2414 C 224.768 1.5282 1.20317 0
M  V30 2415 O 224.023 0.718323 1.8204 0
M  V30 2416 C 224.322 3.57021 -0.164499 0
M  V30 2417 C 223.988 4.25232 -1.49962 0
M  V30 2418 C 222.65 4.4358 -1.8652 0
M  V30 2419 C 225.002 4.63727 -2.37921 0
M  V30 2420 C 222.33 4.97694 -3.10674 0
M  V30 2421 C 224.682 5.19218 -3.6138 0
M  V30 2422 C 223.346 5.3578 -3.98115 0
M  V30 2423 H 222.616 0.737795 -0.0688454 0
M  V30 2424 H 225.263 1.70991 -0.862225 0
M  V30 2425 H 223.568 3.87285 0.593079 0
M  V30 2426 H 225.265 4.00372 0.224271 0
M  V30 2427 H 221.855 4.11306 -1.20522 0
M  V30 2428 H 226.039 4.4923 -2.10964 0
M  V30 2429 H 221.295 5.08702 -3.39164 0
M  V30 2430 H 225.469 5.4799 -4.29743 0
M  V30 2431 H 223.096 5.77475 -4.94395 0
M  V30 2432 N 224.671 0.411399 1.52136 0
M  V30 2433 C 225.601 -0.404015 2.29978 0
M  V30 2434 C 226.582 -1.04412 1.34284 0
M  V30 2435 O 227.767 -1.0527 1.63192 0
M  V30 2436 C 224.897 -1.5197 3.12286 0
M  V30 2437 C 223.851 -1.00448 4.16046 0
M  V30 2438 C 223.177 -2.21393 4.86712 0
M  V30 2439 C 224.477 -0.0569336 5.22269 0
M  V30 2440 H 226.171 0.245529 2.98392 0
M  V30 2441 H 223.717 0.119525 1.43503 0
M  V30 2442 H 225.67 -2.09715 3.6551 0
M  V30 2443 H 224.394 -2.19716 2.41646 0
M  V30 2444 H 223.053 -0.449421 3.63835 0
M  V30 2445 H 222.701 -2.87699 4.12599 0
M  V30 2446 H 222.401 -1.87571 5.56858 0
M  V30 2447 H 223.925 -2.7974 5.4275 0
M  V30 2448 H 225.339 -0.54325 5.7072 0
M  V30 2449 H 223.736 0.192594 5.99791 0
M  V30 2450 H 224.806 0.887663 4.76706 0
M  V30 2451 N 226.149 -1.5696 0.141893 0
M  V30 2452 C 227.099 -2.13074 -0.811383 0
M  V30 2453 C 228.083 -1.05726 -1.21288 0
M  V30 2454 O 229.275 -1.31914 -1.18015 0
M  V30 2455 C 226.404 -2.75186 -2.0525 0
M  V30 2456 C 225.49 -3.8965 -1.67432 0
M  V30 2457 N 225.881 -4.95733 -1.0041 0
M  V30 2458 C 224.179 -4.00262 -1.96739 0
M  V30 2459 C 224.88 -5.75858 -0.822345 0
M  V30 2460 N 223.856 -5.26452 -1.3546 0
M  V30 2461 H 227.658 -2.92465 -0.290031 0
M  V30 2462 H 225.172 -1.6229 -0.0598218 0
M  V30 2463 H 227.169 -3.13745 -2.74535 0
M  V30 2464 H 225.829 -1.97266 -2.57907 0
M  V30 2465 H 226.84 -5.13607 -0.665441 0
M  V30 2466 H 223.517 -3.33412 -2.51282 0
M  V30 2467 H 224.907 -6.71254 -0.294496 0
M  V30 2468 N 227.627 0.131896 -1.57047 0
M  V30 2469 C 228.557 1.16384 -2.02428 0
M  V30 2470 C 229.538 1.43936 -0.90644 0
M  V30 2471 O 230.723 1.54599 -1.17528 0
M  V30 2472 C 227.853 2.49328 -2.4177 0
M  V30 2473 C 226.807 2.36266 -3.56879 0
M  V30 2474 C 226.133 3.74057 -3.8208 0
M  V30 2475 C 227.433 1.834 -4.89042 0
M  V30 2476 H 229.127 0.786433 -2.88887 0
M  V30 2477 H 226.673 0.376855 -1.38981 0
M  V30 2478 H 228.626 3.21759 -2.7212 0
M  V30 2479 H 227.35 2.88934 -1.52266 0
M  V30 2480 H 226.009 1.66286 -3.26718 0
M  V30 2481 H 225.657 4.11125 -2.89803 0
M  V30 2482 H 225.357 3.66174 -4.59554 0
M  V30 2483 H 226.881 4.48012 -4.1487 0
M  V30 2484 H 228.295 2.45636 -5.18011 0
M  V30 2485 H 226.692 1.8637 -5.70426 0
M  V30 2486 H 227.762 0.790662 -4.7841 0
M  V30 2487 N 229.106 1.52395 0.401703 0
M  V30 2488 C 230.355 1.66044 1.14509 0
M  V30 2489 C 230.668 0.400216 1.91462 0
M  V30 2490 O 231.874 0.416632 2.68284 0
M  V30 2491 C 230.33 2.93388 2.0845 0
M  V30 2492 C 229.938 4.26545 1.36978 0
M  V30 2493 C 231.682 3.16402 2.83001 0
M  V30 2494 C 229.589 5.45007 2.29611 0
M  V30 2495 H 228.519 0.618562 0.431158 0
M  V30 2496 H 231.17 1.78886 0.40892 0
M  V30 2497 H 229.552 2.74263 2.8565 0
M  V30 2498 H 230.726 4.56179 0.650916 0
M  V30 2499 H 229.041 4.09692 0.74438 0
M  V30 2500 H 231.638 4.02085 3.52465 0
M  V30 2501 H 231.981 2.30943 3.46368 0
M  V30 2502 H 232.514 3.36034 2.12898 0
M  V30 2503 H 229.253 6.32835 1.70879 0
M  V30 2504 H 228.773 5.19702 2.9945 0
M  V30 2505 H 230.452 5.7838 2.89974 0
M  V30 2506 N 230.584 -0.659388 1.43143 0
M  V30 2507 C 232 -0.974337 1.26407 0
M  V30 2508 C 232.2 -2.007 0.179341 0
M  V30 2509 O 231.256 -2.4856 -0.444295 0
M  V30 2510 C 232.569 -1.46447 2.62628 0
M  V30 2511 C 234.117 -1.58144 2.7011 0
M  V30 2512 C 234.592 -2.1055 4.06734 0
M  V30 2513 N 236.083 -2.17861 4.08767 0
M  V30 2514 C 236.818 -2.59519 5.1131 0
M  V30 2515 N 236.314 -3.00518 6.24228 0
M  V30 2516 N 238.107 -2.59404 4.98664 0
M  V30 2517 H 230.258 0.0240528 2.12386 0
M  V30 2518 H 232.521 -0.0518065 0.946583 0
M  V30 2519 H 232.227 -0.780123 3.42939 0
M  V30 2520 H 232.101 -2.44058 2.87603 0
M  V30 2521 H 234.488 -2.25682 1.90136 0
M  V30 2522 H 234.569 -0.589828 2.48907 0
M  V30 2523 H 234.213 -1.43616 4.87172 0
M  V30 2524 H 234.143 -3.10531 4.25298 0
M  V30 2525 H 236.634 -1.88975 3.27257 0
M  V30 2526 H 236.947 -3.31036 6.98309 0
M  V30 2527 H 235.292 -2.98337 6.2771 0
M  V30 2528 H 238.483 -2.26747 4.09516 0
M  V30 2529 H 238.656 -2.91548 5.78709 0
M  V30 2530 N 232.062 -1.29571 -0.897171 0
M  V30 2531 C 233.009 -1.14916 -2.00158 0
M  V30 2532 C 233.979 -0.0418149 -1.66047 0
M  V30 2533 O 235.164 -0.209793 -1.89643 0
M  V30 2534 C 232.304 -0.834307 -3.34863 0
M  V30 2535 C 231.417 -2.02234 -3.8174 0
M  V30 2536 C 230.552 -1.64664 -5.05034 0
M  V30 2537 C 229.591 -2.80033 -5.44286 0
M  V30 2538 N 228.728 -2.42843 -6.58765 0
M  V30 2539 H 233.568 -2.09403 -2.12025 0
M  V30 2540 H 231.105 -1.042 -1.0383 0
M  V30 2541 H 233.063 -0.632436 -4.12379 0
M  V30 2542 H 231.693 0.0736656 -3.22716 0
M  V30 2543 H 230.745 -2.33583 -3.00238 0
M  V30 2544 H 232.057 -2.88673 -4.06779 0
M  V30 2545 H 231.211 -1.4078 -5.9014 0
M  V30 2546 H 229.95 -0.753766 -4.8184 0
M  V30 2547 H 228.955 -3.04596 -4.57713 0
M  V30 2548 H 230.18 -3.69989 -5.6946 0
M  V30 2549 H 228.126 -1.56046 -6.3717 0
M  V30 2550 H 228.043 -3.22815 -6.83613 0
M  V30 2551 H 229.311 -2.22285 -7.47134 0
M  V30 2552 N 233.54 1.10788 -1.12088 0
M  V30 2553 C 234.487 2.17025 -0.785407 0
M  V30 2554 C 235.457 1.64265 0.246191 0
M  V30 2555 O 236.642 1.90412 0.121584 0
M  V30 2556 C 233.782 3.44249 -0.242177 0
M  V30 2557 C 232.895 4.1098 -1.33115 0
M  V30 2558 C 232.03 5.25911 -0.747741 0
M  V30 2559 C 231.069 5.84538 -1.81609 0
M  V30 2560 N 230.206 6.90853 -1.25167 0
M  V30 2561 H 235.046 2.45066 -1.69548 0
M  V30 2562 H 232.583 1.20297 -0.846582 0
M  V30 2563 H 234.541 4.17101 0.0908026 0
M  V30 2564 H 233.171 3.16571 0.631072 0
M  V30 2565 H 232.223 3.36133 -1.78097 0
M  V30 2566 H 233.535 4.50601 -2.13917 0
M  V30 2567 H 232.689 6.056 -0.365216 0
M  V30 2568 H 231.428 4.87614 0.0915188 0
M  V30 2569 H 230.433 5.03522 -2.20785 0
M  V30 2570 H 231.658 6.249 -2.6585 0
M  V30 2571 H 229.604 6.54562 -0.434174 0
M  V30 2572 H 229.521 7.29166 -1.99633 0
M  V30 2573 H 230.789 7.7433 -0.896259 0
M  V30 2574 O 235.057 1.04415 1.23206 0
M  V30 2575 H 235.748 0.716727 1.79952 0
M  V30 END ATOM
M  V30 BEGIN BOND
M  V30 END BOND
M  V30 END CTAB
M  END
$$$$
