drugbank_target|P0A076 Gamma-hemolysin component B (DB03945)
 OpenBabel12092120023D

  0  0  0     0  0            999 V3000
M  V30 BEGIN CTAB
M  V30 COUNTS 5122 5180 0 0 0
M  V30 BEGIN ATOM
M  V30 1 H -0.908 1.98254 -0.117106 0
M  V30 2 N 0 1.576 0 0
M  V30 3 C 0.933 2.03868 1.02534 0
M  V30 4 C 1.911 0.928543 1.3348 0
M  V30 5 O 3.095 1.19667 1.45644 0
M  V30 6 C 0.222 2.43627 2.35294 0
M  V30 7 C -0.732 3.65373 2.2001 0
M  V30 8 S 0.101 5.13292 1.52614 0
M  V30 9 C 1.257 5.56322 2.86805 0
M  V30 10 H 1.49 2.90518 0.631377 0
M  V30 11 H -0.977 1.52953 0.210867 0
M  V30 12 H 0.981 2.67203 3.11629 0
M  V30 13 H -0.358 1.57376 2.7183 0
M  V30 14 H -1.165 3.90944 3.18086 0
M  V30 15 H -1.563 3.418 1.51819 0
M  V30 16 H 0.729 5.58782 3.83104 0
M  V30 17 H 1.672 6.56266 2.65933 0
M  V30 18 H 2.08 4.83886 2.90714 0
M  V30 19 N 1.4781 -0.272755 1.55222 0
M  V30 20 C 2.4251 -1.33716 1.88119 0
M  V30 21 C 3.3951 -1.49066 0.73271 0
M  V30 22 O 4.5801 -1.63469 0.984002 0
M  V30 23 C 1.7201 -2.69238 2.15882 0
M  V30 24 C 0.8331 -2.62108 3.43399 0
M  V30 25 C -0.0319 -3.89811 3.60861 0
M  V30 26 C -0.9929 -3.77193 4.8207 0
M  V30 27 N -1.8559 -4.9673 4.96189 0
M  V30 28 H 2.9841 -1.04962 2.78903 0
M  V30 29 H 0.5211 -0.507088 1.38083 0
M  V30 30 H 2.4791 -3.48089 2.29978 0
M  V30 31 H 1.1091 -2.96194 1.28331 0
M  V30 32 H 0.1611 -1.74967 3.37773 0
M  V30 33 H 1.4731 -2.48685 4.32386 0
M  V30 34 H 0.6271 -4.77103 3.74777 0
M  V30 35 H -0.6339 -4.06102 2.7006 0
M  V30 36 H -1.6289 -2.88284 4.68159 0
M  V30 37 H -0.4039 -3.62421 5.74307 0
M  V30 38 H -2.4579 -5.13431 4.08319 0
M  V30 39 H -2.5409 -4.85839 5.79221 0
M  V30 40 H -1.2729 -5.85594 5.1449 0
M  V30 41 N 2.9562 -1.48159 -0.537278 0
M  V30 42 C 3.8892 -1.567 -1.65893 0
M  V30 43 C 4.8672 -0.41787 -1.57139 0
M  V30 44 O 6.0512 -0.628461 -1.77715 0
M  V30 45 C 3.1782 -1.48818 -3.04255 0
M  V30 46 C 2.2242 -2.68482 -3.31391 0
M  V30 47 S 3.0572 -4.30516 -3.1846 0
M  V30 48 C 4.2132 -4.2522 -4.59281 0
M  V30 49 H 4.4462 -2.5159 -1.58397 0
M  V30 50 H 1.9792 -1.36602 -0.719672 0
M  V30 51 H 3.9372 -1.44958 -3.84054 0
M  V30 52 H 2.5982 -0.552777 -3.09198 0
M  V30 53 H 1.7912 -2.59085 -4.32309 0
M  V30 54 H 1.3932 -2.69567 -2.59248 0
M  V30 55 H 3.6852 -3.94703 -5.5065 0
M  V30 56 H 4.6282 -5.26292 -4.73732 0
M  V30 57 H 5.0362 -3.55791 -4.38261 0
M  V30 58 N 4.4343 0.785586 -1.36625 0
M  V30 59 C 5.3823 1.91978 -1.31329 0
M  V30 60 C 6.3763 1.68162 -0.204416 0
M  V30 61 O 7.5823 1.76122 -0.371645 0
M  V30 62 H 3.9573 0.631087 -0.408942 0
M  V30 63 H 5.9283 1.93562 -2.27104 0
M  V30 64 C 4.6773 3.29055 -1.12329 0
M  V30 65 H 4.0003 3.4795 -1.96903 0
M  V30 66 H 5.4403 4.08756 -1.12671 0
M  V30 67 C 3.8993 3.36461 0.171861 0
M  V30 68 O 4.4293 3.84576 1.16035 0
M  V30 69 N 2.6353 2.89782 0.217846 0
M  V30 70 H 2.1823 2.50819 -0.587183 0
M  V30 71 H 2.1403 2.95119 1.08408 0
M  V30 72 N 5.9124 1.20967 1.01018 0
M  V30 73 C 6.8594 0.964281 2.09691 0
M  V30 74 C 7.8294 -0.107853 1.65749 0
M  V30 75 O 9.0144 0.0381987 1.90762 0
M  V30 76 C 6.1544 0.52943 3.41015 0
M  V30 77 C 5.2674 1.67043 3.98398 0
M  V30 78 C 4.4024 1.18525 5.17808 0
M  V30 79 C 3.4414 2.29892 5.67288 0
M  V30 80 N 2.5784 1.82546 6.77954 0
M  V30 81 H 7.4184 1.89463 2.30017 0
M  V30 82 H 4.9554 0.944289 1.1279 0
M  V30 83 H 6.9134 0.258588 4.16398 0
M  V30 84 H 5.5434 -0.363919 3.20742 0
M  V30 85 H 4.5954 2.05603 3.20049 0
M  V30 86 H 5.9074 2.50877 4.31117 0
M  V30 87 H 5.0614 0.870762 6.00419 0
M  V30 88 H 3.8004 0.316887 4.86669 0
M  V30 89 H 2.8054 2.6215 4.83278 0
M  V30 90 H 4.0304 3.17216 6.00459 0
M  V30 91 H 1.9764 0.980454 6.48632 0
M  V30 92 H 1.8934 2.59956 7.09901 0
M  V30 93 H 3.1614 1.54115 7.64113 0
M  V30 94 N 7.3905 -1.2043 1.01659 0
M  V30 95 C 8.3205 -2.25466 0.607226 0
M  V30 96 C 9.3015 -1.65853 -0.377716 0
M  V30 97 O 10.4865 -1.92409 -0.263149 0
M  V30 98 C 7.6165 -3.47256 -0.0552949 0
M  V30 99 C 6.5705 -4.19462 0.850632 0
M  V30 100 C 5.8965 -5.34673 0.0538859 0
M  V30 101 C 7.1965 -4.75603 2.15868 0
M  V30 102 H 8.8905 -2.59962 1.48526 0
M  V30 103 H 6.4365 -1.2496 0.715605 0
M  V30 104 H 8.3895 -4.19917 -0.353233 0
M  V30 105 H 7.1135 -3.11924 -0.968045 0
M  V30 106 H 5.7725 -3.48667 1.13257 0
M  V30 107 H 5.4205 -4.95585 -0.860514 0
M  V30 108 H 5.1205 -5.83913 0.657192 0
M  V30 109 H 6.6445 -6.10138 -0.237598 0
M  V30 110 H 8.0585 -5.40083 1.92311 0
M  V30 111 H 6.4555 -5.3528 2.71284 0
M  V30 112 H 7.5255 -3.94346 2.82169 0
M  V30 113 N 8.8686 -0.792821 -1.36206 0
M  V30 114 C 10.1146 -0.36733 -1.99446 0
M  V30 115 C 10.4476 1.05917 -1.62774 0
M  V30 116 O 9.7226 1.7324 -0.88421 0
M  V30 117 C 10.0056 -0.535044 -3.56103 0
M  V30 118 C 9.8586 -2.00548 -4.02617 0
M  V30 119 C 11.1776 0.0478191 -4.40074 0
M  V30 120 H 8.2966 -0.134941 -0.724541 0
M  V30 121 H 10.9386 -0.999794 -1.61568 0
M  V30 122 H 9.0886 0.00336329 -3.885 0
M  V30 123 H 10.7606 -2.60521 -3.80692 0
M  V30 124 H 9.0036 -2.50686 -3.54032 0
M  V30 125 H 9.6746 -2.07377 -5.11565 0
M  V30 126 H 12.1506 -0.411822 -4.14057 0
M  V30 127 H 11.0266 -0.0995336 -5.4881 0
M  V30 128 H 11.2876 1.14025 -4.27142 0
M  V30 129 N 10.3467 1.47872 -0.545128 0
M  V30 130 C 11.2937 2.29849 0.2093 0
M  V30 131 C 12.2637 1.38313 0.919707 0
M  V30 132 O 13.4487 1.67277 0.917772 0
M  V30 133 C 10.5887 3.22019 1.24088 0
M  V30 134 C 9.7017 4.2864 0.537778 0
M  V30 135 C 8.8367 5.07973 1.5536 0
M  V30 136 C 7.8757 6.06381 0.8348 0
M  V30 137 N 7.0127 6.78717 1.79688 0
M  V30 138 H 11.8527 2.93845 -0.49591 0
M  V30 139 H 9.3897 1.44848 -0.256389 0
M  V30 140 H 11.3477 3.73868 1.85144 0
M  V30 141 H 9.9777 2.59914 1.91428 0
M  V30 142 H 9.0297 3.7994 -0.187046 0
M  V30 143 H 10.3417 4.98793 -0.0258907 0
M  V30 144 H 9.4957 5.63912 2.23803 0
M  V30 145 H 8.2347 4.37693 2.15118 0
M  V30 146 H 7.2397 5.49631 0.136388 0
M  V30 147 H 8.4647 6.78665 0.24313 0
M  V30 148 H 6.4107 6.11177 2.38326 0
M  V30 149 H 6.3277 7.44998 1.28505 0
M  V30 150 H 7.5957 7.39237 2.47282 0
M  V30 151 N 11.8248 0.280983 1.55075 0
M  V30 152 C 13.0498 -0.340154 2.04592 0
M  V30 153 C 13.4748 -1.48246 1.15779 0
M  V30 154 O 12.8328 -1.80614 0.15761 0
M  V30 155 C 12.8808 -0.793104 3.5177 0
M  V30 156 O 11.9848 -1.89981 3.66034 0
M  V30 157 H 11.3258 -0.0694289 0.66036 0
M  V30 158 H 13.8558 0.416993 2.00306 0
M  V30 159 H 13.8658 -1.08729 3.93245 0
M  V30 160 H 12.5408 0.0426163 4.15878 0
M  V30 161 H 11.1178 -1.60771 3.36463 0
M  V30 162 N 13.3029 -1.57598 0.00835791 0
M  V30 163 C 14.5279 -1.95617 -0.689103 0
M  V30 164 C 14.9529 -0.883753 -1.66046 0
M  V30 165 O 14.3109 0.157352 -1.80616 0
M  V30 166 C 14.3589 -3.32736 -1.38994 0
M  V30 167 O 13.4629 -3.27631 -2.50463 0
M  V30 168 H 12.8039 -0.638379 -0.182668 0
M  V30 169 H 15.3339 -2.045 0.064036 0
M  V30 170 H 15.3439 -3.68494 -1.75147 0
M  V30 171 H 14.0189 -4.1034 -0.677778 0
M  V30 172 H 12.5959 -3.03561 -2.16576 0
M  V30 173 N 14.781 0.264519 -1.55364 0
M  V30 174 C 16.027 0.99646 -1.76631 0
M  V30 175 C 16.36 1.85632 -0.570478 0
M  V30 176 O 15.635 1.89647 0.43175 0
M  V30 177 C 15.918 1.87187 -3.07625 0
M  V30 178 C 15.771 1.04138 -4.37579 0
M  V30 179 C 17.09 2.85749 -3.34717 0
M  V30 180 H 14.209 0.360841 -0.642622 0
M  V30 181 H 16.851 0.268218 -1.88097 0
M  V30 182 H 15.001 2.49279 -2.9798 0
M  V30 183 H 16.673 0.440517 -4.59192 0
M  V30 184 H 14.916 0.345115 -4.32425 0
M  V30 185 H 15.587 1.68729 -5.2558 0
M  V30 186 H 18.063 2.33793 -3.4421 0
M  V30 187 H 16.939 3.44136 -4.27623 0
M  V30 188 H 17.2 3.61311 -2.54768 0
M  V30 189 N 16.2591 1.48442 0.529413 0
M  V30 190 C 17.2221 1.62524 1.61612 0
M  V30 191 C 18.2221 0.498509 1.52877 0
M  V30 192 O 19.4121 0.76431 1.56537 0
M  V30 193 C 16.5441 1.59597 3.01233 0
M  V30 194 H 17.7371 2.59423 1.50465 0
M  V30 195 H 15.2901 1.37047 0.751514 0
M  V30 196 H 16.0251 0.641781 3.17886 0
M  V30 197 H 15.8101 2.41397 3.08982 0
M  V30 198 H 17.3001 1.72646 3.80241 0
M  V30 199 N 17.7372 -0.778329 1.37039 0
M  V30 200 C 18.9652 -1.56734 1.35063 0
M  V30 201 C 19.3802 -1.88686 -0.0655597 0
M  V30 202 O 18.7372 -1.5096 -1.02554 0
M  V30 203 C 18.7882 -2.88163 2.18276 0
M  V30 204 O 18.5092 -2.57583 3.54376 0
M  V30 205 C 20.0102 -3.82422 2.24206 0
M  V30 206 H 17.2302 -0.485778 0.462883 0
M  V30 207 H 19.7742 -0.965185 1.8029 0
M  V30 208 H 17.9292 -3.44818 1.76576 0
M  V30 209 H 18.3432 -3.41699 3.97922 0
M  V30 210 H 19.8172 -4.71667 2.86765 0
M  V30 211 H 20.2942 -4.21078 1.24861 0
M  V30 212 H 20.9002 -3.31697 2.6619 0
M  V30 213 N 19.2153 -1.21501 -1.00376 0
M  V30 214 C 20.4403 -1.05977 -1.78279 0
M  V30 215 C 20.8653 0.385994 -1.84097 0
M  V30 216 O 20.2233 1.27849 -1.28547 0
M  V30 217 C 20.2713 -1.66302 -3.19963 0
M  V30 218 O 19.3753 -0.909333 -4.0225 0
M  V30 219 H 18.7163 -0.372906 -0.549397 0
M  V30 220 H 21.2463 -1.6107 -1.26165 0
M  V30 221 H 21.2563 -1.70574 -3.70632 0
M  V30 222 H 19.9313 -2.71515 -3.15043 0
M  V30 223 H 18.5083 -0.941795 -3.60811 0
M  V30 224 N 20.6934 1.19889 -1.02296 0
M  V30 225 C 21.6264 2.21639 -0.543282 0
M  V30 226 C 22.6044 1.57275 0.412698 0
M  V30 227 O 23.7884 1.85568 0.331198 0
M  V30 228 C 20.9154 3.38057 0.208571 0
M  V30 229 C 19.9614 4.20751 -0.697933 0
M  V30 230 S 20.7944 4.89529 -2.17075 0
M  V30 231 C 21.9504 6.09363 -1.42923 0
M  V30 232 H 22.1834 2.61984 -1.40541 0
M  V30 233 H 19.7164 1.30041 -0.832387 0
M  V30 234 H 21.6744 4.05539 0.63624 0
M  V30 235 H 20.3354 2.96159 1.04635 0
M  V30 236 H 19.5284 5.03862 -0.117831 0
M  V30 237 H 19.1304 3.58556 -1.06366 0
M  V30 238 H 21.4224 6.73742 -0.712637 0
M  V30 239 H 22.3654 6.71845 -2.23673 0
M  V30 240 H 22.7734 5.56798 -0.929327 0
M  V30 241 N 22.1715 0.800033 1.35784 0
M  V30 242 C 23.1345 0.211565 2.28221 0
M  V30 243 C 24.1345 -0.59728 1.49296 0
M  V30 244 O 25.3245 -0.416721 1.69142 0
M  V30 245 C 22.4565 -0.705846 3.33513 0
M  V30 246 H 23.6495 1.02677 2.81776 0
M  V30 247 H 21.2025 0.570211 1.45528 0
M  V30 248 H 21.9375 -1.54498 2.85133 0
M  V30 249 H 21.7225 -0.127655 3.91892 0
M  V30 250 H 23.2125 -1.11211 4.02519 0
M  V30 251 N 23.6496 -1.47581 0.552962 0
M  V30 252 C 24.5796 -2.32762 -0.185451 0
M  V30 253 C 25.5606 -1.43527 -0.912905 0
M  V30 254 O 26.7456 -1.72388 -0.894201 0
M  V30 255 C 23.8756 -3.25219 -1.21859 0
M  V30 256 C 22.8296 -4.23661 -0.607864 0
M  V30 257 C 22.1556 -5.05413 -1.74533 0
M  V30 258 C 23.4556 -5.20481 0.435582 0
M  V30 259 H 25.1496 -2.94749 0.525684 0
M  V30 260 H 22.6956 -1.41738 0.254251 0
M  V30 261 H 24.6486 -3.8365 -1.7433 0
M  V30 262 H 23.3726 -2.61279 -1.95961 0
M  V30 263 H 22.0316 -3.66451 -0.104489 0
M  V30 264 H 21.6796 -4.3788 -2.47529 0
M  V30 265 H 21.3796 -5.72059 -1.34249 0
M  V30 266 H 22.9036 -5.66701 -2.27338 0
M  V30 267 H 24.3176 -5.733 -0.00290157 0
M  V30 268 H 22.7146 -5.95305 0.757067 0
M  V30 269 H 23.7846 -4.66217 1.33303 0
M  V30 270 N 25.1277 -0.289203 -1.54924 0
M  V30 271 C 26.0577 0.58549 -2.2604 0
M  V30 272 C 27.0387 1.14753 -1.25562 0
M  V30 273 O 28.2237 1.17906 -1.54311 0
M  V30 274 C 25.3537 1.76305 -2.99222 0
M  V30 275 C 24.3077 1.33191 -4.06748 0
M  V30 276 C 23.6337 2.5937 -4.6758 0
M  V30 277 C 24.9337 0.471775 -5.20165 0
M  V30 278 H 26.6277 -0.00763532 -2.99399 0
M  V30 279 H 24.1737 -0.00511229 -1.43999 0
M  V30 280 H 26.1267 2.38097 -3.47689 0
M  V30 281 H 24.8507 2.38223 -2.23422 0
M  V30 282 H 23.5097 0.737121 -3.59113 0
M  V30 283 H 23.1577 3.19576 -3.88433 0
M  V30 284 H 22.8577 2.31228 -5.40192 0
M  V30 285 H 24.3817 3.21985 -5.18804 0
M  V30 286 H 25.7957 0.995056 -5.64599 0
M  V30 287 H 24.1927 0.284639 -5.99425 0
M  V30 288 H 25.2627 -0.506041 -4.82252 0
M  V30 289 N 26.6058 1.57591 -0.0167156 0
M  V30 290 C 27.5358 2.12496 0.967858 0
M  V30 291 C 28.5168 1.03807 1.34752 0
M  V30 292 O 29.7018 1.31577 1.42833 0
M  V30 293 C 26.8318 2.64194 2.25431 0
M  V30 294 C 25.7858 3.77559 2.01576 0
M  V30 295 C 25.1118 4.15636 3.36379 0
M  V30 296 C 26.4118 5.04151 1.36489 0
M  V30 297 H 28.1058 2.95013 0.510643 0
M  V30 298 H 25.6518 1.41915 0.244181 0
M  V30 299 H 27.6048 3.01236 2.94678 0
M  V30 300 H 26.3288 1.78821 2.73296 0
M  V30 301 H 24.9878 3.40937 1.34751 0
M  V30 302 H 24.6358 3.27263 3.81979 0
M  V30 303 H 24.3358 4.92022 3.21229 0
M  V30 304 H 25.8598 4.5525 4.06915 0
M  V30 305 H 27.2738 5.38857 1.95718 0
M  V30 306 H 25.6708 5.85453 1.31776 0
M  V30 307 H 26.7408 4.83733 0.336219 0
M  V30 308 N 28.0839 -0.256276 1.55502 0
M  V30 309 C 29.0139 -1.32102 1.92539 0
M  V30 310 C 29.9949 -1.50684 0.789194 0
M  V30 311 O 31.1799 -1.63449 1.04872 0
M  V30 312 C 28.3099 -2.67752 2.21192 0
M  V30 313 C 27.2639 -2.63878 3.36975 0
M  V30 314 C 26.5899 -4.03236 3.51147 0
M  V30 315 C 27.8899 -2.21682 4.72921 0
M  V30 316 H 29.5839 -1.01351 2.81724 0
M  V30 317 H 27.1299 -0.486105 1.35547 0
M  V30 318 H 29.0829 -3.42365 2.45691 0
M  V30 319 H 27.8069 -3.0012 1.28824 0
M  V30 320 H 26.4659 -1.91722 3.12471 0
M  V30 321 H 26.1139 -4.32854 2.56216 0
M  V30 322 H 25.8139 -4.01535 4.29003 0
M  V30 323 H 27.3379 -4.79563 3.77957 0
M  V30 324 H 28.7519 -2.86023 4.96854 0
M  V30 325 H 27.1489 -2.3111 5.53812 0
M  V30 326 H 28.2189 -1.16833 4.70615 0
M  V30 327 N 29.562 -1.4872 -0.521534 0
M  V30 328 C 30.787 -1.61101 -1.30618 0
M  V30 329 C 31.212 -0.274611 -1.86085 0
M  V30 330 O 30.57 0.754937 -1.64834 0
M  V30 331 C 30.618 -2.66709 -2.4269 0
M  V30 332 O 29.722 -2.24456 -3.45967 0
M  V30 333 H 29.063 -0.539921 -0.386499 0
M  V30 334 H 31.593 -1.94767 -0.626645 0
M  V30 335 H 31.603 -2.88245 -2.88754 0
M  V30 336 H 30.278 -3.63727 -2.01682 0
M  V30 337 H 28.855 -2.13168 -3.05964 0
M  V30 338 N 31.0401 0.771051 -1.3745 0
M  V30 339 C 32.2881 1.52661 -1.32435 0
M  V30 340 C 32.6091 1.9479 0.0905024 0
M  V30 341 O 31.8791 1.66348 1.03466 0
M  V30 342 H 30.4591 0.566218 -0.487244 0
M  V30 343 H 33.1211 0.917636 -1.71946 0
M  V30 344 H 32.2171 2.42568 -1.96385 0
M  V30 345 N 32.5182 1.22032 0.997298 0
M  V30 346 C 33.7462 1.06841 1.7718 0
M  V30 347 C 34.1612 -0.381325 1.84909 0
M  V30 348 O 33.5182 -1.26437 1.31605 0
M  V30 349 C 33.5692 1.66814 3.20711 0
M  V30 350 O 33.2902 3.06116 3.13408 0
M  V30 351 C 34.7912 1.56838 4.14628 0
M  V30 352 H 32.0112 0.374782 0.556578 0
M  V30 353 H 34.5552 1.61532 1.2541 0
M  V30 354 H 32.7102 1.16196 3.69564 0
M  V30 355 H 33.1242 3.34926 4.0364 0
M  V30 356 H 34.5982 2.03532 5.13107 0
M  V30 357 H 35.0752 0.524155 4.36061 0
M  V30 358 H 35.6812 2.06741 3.7167 0
M  V30 359 N 33.9963 -1.19345 1.0293 0
M  V30 360 C 34.9593 -2.20793 0.615069 0
M  V30 361 C 35.9593 -1.57553 -0.321533 0
M  V30 362 O 37.1493 -1.73862 -0.108483 0
M  V30 363 C 34.2813 -3.40754 -0.0999222 0
M  V30 364 H 35.4743 -2.58955 1.51269 0
M  V30 365 H 33.0273 -1.3303 0.820534 0
M  V30 366 H 33.7623 -3.0811 -1.01187 0
M  V30 367 H 33.5473 -3.87889 0.57309 0
M  V30 368 H 35.0373 -4.15898 -0.376645 0
M  V30 369 N 35.4744 -0.807222 -1.35358 0
M  V30 370 C 36.4224 -0.20614 -2.31685 0
M  V30 371 C 37.4164 0.644445 -1.56663 0
M  V30 372 O 38.6224 0.537538 -1.71786 0
M  V30 373 H 34.9974 -0.0479006 -0.750473 0
M  V30 374 H 36.9684 -1.03369 -2.79924 0
M  V30 375 C 35.7174 0.630212 -3.41941 0
M  V30 376 H 35.0404 -0.0149558 -3.99797 0
M  V30 377 H 36.4804 1.01716 -4.11619 0
M  V30 378 C 34.9394 1.79601 -2.85035 0
M  V30 379 O 35.4694 2.89351 -2.78637 0
M  V30 380 N 33.6754 1.60774 -2.42074 0
M  V30 381 H 33.2224 0.715009 -2.47478 0
M  V30 382 H 33.1804 2.38933 -2.04349 0
M  V30 383 N 36.9525 1.47285 -0.560781 0
M  V30 384 C 37.9155 2.28535 0.174488 0
M  V30 385 C 38.9155 1.37153 0.839388 0
M  V30 386 O 40.1055 1.59748 0.694702 0
M  V30 387 C 37.2375 3.16934 1.25561 0
M  V30 388 H 38.4305 2.95012 -0.539262 0
M  V30 389 H 35.9835 1.53034 -0.317865 0
M  V30 390 H 36.7185 2.55157 2.00164 0
M  V30 391 H 36.5035 3.8419 0.783604 0
M  V30 392 H 37.9935 3.78143 1.77193 0
M  V30 393 N 38.4306 0.297415 1.54768 0
M  V30 394 C 39.3406 -0.58983 2.27064 0
M  V30 395 C 40.3566 -1.15144 1.30453 0
M  V30 396 O 41.5326 -1.17699 1.63428 0
M  V30 397 C 38.5976 -1.74714 2.9946 0
M  V30 398 C 37.6586 -1.21997 4.11601 0
M  V30 399 C 36.8916 -2.32212 4.80535 0
M  V30 400 O 37.1146 -3.52036 4.48806 0
M  V30 401 O 36.0486 -1.99106 5.68014 0
M  V30 402 H 39.8746 -0.00348199 3.037 0
M  V30 403 H 37.4596 0.0640035 1.49263 0
M  V30 404 H 39.3416 -2.42147 3.44881 0
M  V30 405 H 38.0166 -2.32016 2.25722 0
M  V30 406 H 36.9236 -0.511458 3.70587 0
M  V30 407 H 38.2566 -0.692419 4.87305 0
M  V30 408 N 39.9087 -1.5758 0.0250728 0
M  V30 409 C 41.1567 -1.91255 -0.653151 0
M  V30 410 C 41.4777 -0.901691 -1.729 0
M  V30 411 O 40.7477 0.0573785 -1.95816 0
M  V30 412 H 39.3277 -0.705942 -0.244243 0
M  V30 413 H 41.9897 -1.94767 0.0719209 0
M  V30 414 H 41.0857 -2.91752 -1.10847 0
M  V30 415 N 41.3868 0.248026 -1.55636 0
M  V30 416 C 42.3338 1.30707 -1.90222 0
M  V30 417 C 43.3038 1.47881 -0.756332 0
M  V30 418 O 44.4888 1.61883 -1.00988 0
M  V30 419 C 41.6288 2.65769 -2.20138 0
M  V30 420 C 40.7418 2.56612 -3.47526 0
M  V30 421 C 39.8768 3.8402 -3.67017 0
M  V30 422 C 38.9158 3.69476 -4.8801 0
M  V30 423 N 38.0528 4.88774 -5.04029 0
M  V30 424 H 42.8928 1.00512 -2.80538 0
M  V30 425 H 40.4298 0.485055 -1.38873 0
M  V30 426 H 42.3878 3.44386 -2.35487 0
M  V30 427 H 41.0178 2.94115 -1.33027 0
M  V30 428 H 40.0698 1.69571 -3.40514 0
M  V30 429 H 41.3818 2.41774 -4.36287 0
M  V30 430 H 40.5358 4.7108 -3.8232 0
M  V30 431 H 39.2748 4.01754 -2.76487 0
M  V30 432 H 38.2798 2.80799 -4.72686 0
M  V30 433 H 39.5048 3.53238 -5.8 0
M  V30 434 H 37.4508 5.0687 -4.16435 0
M  V30 435 H 37.3678 4.76562 -5.86877 0
M  V30 436 H 38.6358 5.77335 -5.23741 0
M  V30 437 N 42.8649 1.48995 0.513639 0
M  V30 438 C 44.1139 1.57093 1.2651 0
M  V30 439 C 44.4269 0.257091 1.93903 0
M  V30 440 O 45.6329 0.216478 2.70636 0
M  V30 441 C 44.0889 2.77118 2.29638 0
M  V30 442 C 43.6969 4.15209 1.68241 0
M  V30 443 C 45.4409 2.94538 3.05692 0
M  V30 444 C 43.3479 5.26474 2.69406 0
M  V30 445 H 42.2779 0.584876 0.475854 0
M  V30 446 H 44.9289 1.7536 0.540487 0
M  V30 447 H 43.3109 2.52319 3.05207 0
M  V30 448 H 44.4849 4.50094 0.987505 0
M  V30 449 H 42.7999 4.03042 1.04623 0
M  V30 450 H 45.3969 3.74832 3.8132 0
M  V30 451 H 45.7399 2.04614 3.62545 0
M  V30 452 H 46.2729 3.19316 2.37238 0
M  V30 453 H 43.0119 6.18417 2.17351 0
M  V30 454 H 42.5319 4.96058 3.37175 0
M  V30 455 H 44.2109 5.55277 3.32078 0
M  V30 456 N 44.343 -0.763751 1.37857 0
M  V30 457 C 45.571 -1.55293 1.36718 0
M  V30 458 C 45.986 -1.88745 -0.0455434 0
M  V30 459 O 45.343 -1.52039 -1.00947 0
M  V30 460 C 45.394 -2.85831 2.2132 0
M  V30 461 O 45.115 -2.5381 3.57089 0
M  V30 462 C 46.616 -3.80023 2.28249 0
M  V30 463 H 43.836 -0.480841 0.468009 0
M  V30 464 H 46.38 -0.946009 1.81303 0
M  V30 465 H 44.535 -3.42926 1.80223 0
M  V30 466 H 44.949 -3.37459 4.01524 0
M  V30 467 H 46.423 -4.68599 2.91752 0
M  V30 468 H 46.9 -4.1973 1.2932 0
M  V30 469 H 47.506 -3.28855 2.69693 0
M  V30 470 N 45.8211 -1.22559 -0.990812 0
M  V30 471 C 47.2321 -1.04791 -1.54518 0
M  V30 472 C 47.5831 0.387998 -1.92325 0
M  V30 473 O 46.7081 1.27328 -1.74976 0
M  V30 474 C 47.3031 -1.896 -2.80779 0
M  V30 475 C 45.8621 -1.76124 -3.32652 0
M  V30 476 C 45.0091 -1.8594 -2.05722 0
M  V30 477 H 47.9601 -1.36374 -0.811662 0
M  V30 478 H 47.9811 -1.41464 -3.53225 0
M  V30 479 H 47.4931 -2.94101 -2.53231 0
M  V30 480 H 45.5941 -0.743643 -3.65104 0
M  V30 481 H 45.7071 -2.58913 -4.03114 0
M  V30 482 H 44.0711 -1.29403 -2.19379 0
M  V30 483 H 44.8541 -2.91976 -1.80568 0
M  V30 484 N 47.2992 1.18797 -1.03562 0
M  V30 485 C 48.5452 1.8893 -0.737113 0
M  V30 486 C 48.8782 1.79837 0.732956 0
M  V30 487 O 48.1532 1.19525 1.5344 0
M  V30 488 C 48.4362 3.39607 -1.19745 0
M  V30 489 C 48.2892 3.57537 -2.72924 0
M  V30 490 C 49.6082 4.33069 -0.783526 0
M  V30 491 H 46.7272 0.686057 -0.269249 0
M  V30 492 H 49.3692 1.39797 -1.28673 0
M  V30 493 H 47.5192 3.81583 -0.729855 0
M  V30 494 H 49.1912 3.24688 -3.27682 0
M  V30 495 H 47.4342 3.00363 -3.12993 0
M  V30 496 H 48.1052 4.63238 -3.00191 0
M  V30 497 H 50.5812 3.98846 -1.18581 0
M  V30 498 H 49.4572 5.3707 -1.13343 0
M  V30 499 H 49.7182 4.40986 0.313681 0
M  V30 500 N 48.7773 0.814389 1.34928 0
M  V30 501 C 50.0023 0.410097 2.03305 0
M  V30 502 C 50.4273 -0.973464 1.60951 0
M  V30 503 O 49.7853 -1.63185 0.789964 0
M  V30 504 C 49.8333 0.51049 3.56968 0
M  V30 505 O 48.9373 -0.473035 4.09678 0
M  V30 506 H 48.2783 0.170088 0.641846 0
M  V30 507 H 50.8083 1.10244 1.72358 0
M  V30 508 H 50.8183 0.383135 4.06197 0
M  V30 509 H 49.4933 1.51963 3.87144 0
M  V30 510 H 48.0703 -0.305272 3.71648 0
M  V30 511 N 50.2554 -1.46986 0.568584 0
M  V30 512 C 51.5014 -2.02741 0.0488709 0
M  V30 513 C 51.8344 -1.44077 -1.30214 0
M  V30 514 O 51.1094 -0.600552 -1.84996 0
M  V30 515 C 51.3924 -3.60086 -0.032047 0
M  V30 516 C 51.2454 -4.29162 1.34686 0
M  V30 517 C 52.5644 -4.33838 -0.739798 0
M  V30 518 H 49.6834 -0.736749 0.0192338 0
M  V30 519 H 52.3254 -1.75289 0.733065 0
M  V30 520 H 50.4754 -3.83606 -0.61473 0
M  V30 521 H 52.1474 -4.16948 1.97362 0
M  V30 522 H 50.3904 -3.89073 1.91846 0
M  V30 523 H 51.0614 -5.37826 1.24285 0
M  V30 524 H 53.5374 -4.15378 -0.244939 0
M  V30 525 H 52.4134 -5.43537 -0.765406 0
M  V30 526 H 52.6744 -4.03875 -1.79827 0
M  V30 527 N 51.7335 -0.305618 -1.54608 0
M  V30 528 C 52.6805 0.568421 -2.23691 0
M  V30 529 C 53.6505 1.12592 -1.22116 0
M  V30 530 O 54.8355 1.16959 -1.50749 0
M  V30 531 C 51.9755 1.7322 -2.98477 0
M  V30 532 C 51.0885 1.20566 -4.14835 0
M  V30 533 C 50.2235 2.33368 -4.77193 0
M  V30 534 C 49.2625 1.7787 -5.85686 0
M  V30 535 N 48.3995 2.84263 -6.4198 0
M  V30 536 H 53.2395 -0.0272867 -2.97988 0
M  V30 537 H 50.7765 -0.0252363 -1.47078 0
M  V30 538 H 52.7345 2.41675 -3.40072 0
M  V30 539 H 51.3645 2.29947 -2.26548 0
M  V30 540 H 50.4165 0.413223 -3.78149 0
M  V30 541 H 51.7285 0.759417 -4.92985 0
M  V30 542 H 50.8825 3.09761 -5.21664 0
M  V30 543 H 49.6215 2.8132 -3.98385 0
M  V30 544 H 48.6265 0.99968 -5.40635 0
M  V30 545 H 49.8515 1.30816 -6.66381 0
M  V30 546 H 47.7975 3.31541 -5.66053 0
M  V30 547 H 47.7145 2.44149 -7.15491 0
M  V30 548 H 48.9825 3.6054 -6.91109 0
M  V30 549 N 53.2116 1.57565 -0.0334293 0
M  V30 550 C 54.1586 2.10478 0.946981 0
M  V30 551 C 55.1286 1.00787 1.32027 0
M  V30 552 O 56.3136 1.28232 1.41284 0
M  V30 553 C 53.4536 2.63994 2.22263 0
M  V30 554 C 52.5666 3.87709 1.90541 0
M  V30 555 C 51.7016 4.29604 3.12433 0
M  V30 556 C 50.7406 5.46065 2.76549 0
M  V30 557 N 49.8776 5.83096 3.9108 0
M  V30 558 H 54.7176 2.93963 0.488846 0
M  V30 559 H 52.2546 1.45296 0.22969 0
M  V30 560 H 54.2126 2.93114 2.96884 0
M  V30 561 H 52.8426 1.83333 2.65685 0
M  V30 562 H 51.8946 3.65291 1.06144 0
M  V30 563 H 53.2066 4.72403 1.60116 0
M  V30 564 H 52.3606 4.60182 3.9537 0
M  V30 565 H 51.0996 3.43685 3.46023 0
M  V30 566 H 50.1046 5.15176 1.92026 0
M  V30 567 H 51.3296 6.33685 2.44171 0
M  V30 568 H 49.2756 5.00132 4.24504 0
M  V30 569 H 49.1926 6.6244 3.64293 0
M  V30 570 H 50.4606 6.18282 4.74708 0
M  V30 571 N 54.6897 -0.239769 1.55765 0
M  V30 572 C 55.9357 -0.968234 1.78194 0
M  V30 573 C 56.2687 -1.84701 0.599938 0
M  V30 574 O 55.5437 -1.9031 -0.401524 0
M  V30 575 C 55.8267 -1.8227 3.10564 0
M  V30 576 C 55.6797 -0.971633 4.3918 0
M  V30 577 C 56.9987 -2.80388 3.39221 0
M  V30 578 H 54.1177 -0.350572 0.648281 0
M  V30 579 H 56.7597 -0.238259 1.885 0
M  V30 580 H 54.9097 -2.44507 3.01908 0
M  V30 581 H 56.5817 -0.367408 4.59835 0
M  V30 582 H 54.8247 -0.276276 4.32919 0
M  V30 583 H 55.4957 -1.60346 5.28198 0
M  V30 584 H 57.9717 -2.28287 3.47885 0
M  V30 585 H 56.8477 -3.3729 4.33044 0
M  V30 586 H 57.1087 -3.57212 2.60484 0
M  V30 587 N 56.1678 -1.49265 -0.50573 0
M  V30 588 C 57.4448 -1.49012 -1.26707 0
M  V30 589 C 57.8248 -0.215205 -2.1 0
M  V30 590 O 57.1728 0.802547 -2.13943 0
M  V30 591 C 57.3828 -2.7663 -2.12783 0
M  V30 592 C 58.7308 -3.25932 -2.72127 0
M  V30 593 O 59.7548 -2.77715 -2.23054 0
M  V30 594 O 58.6138 -4.09897 -3.61451 0
M  V30 595 H 55.7078 -0.596197 -0.57313 0
M  V30 596 H 58.2538 -1.61524 -0.52039 0
M  V30 597 H 57.0258 -3.60916 -1.5118 0
M  V30 598 H 56.6488 -2.66956 -2.94653 0
M  V30 599 N 57.6459 0.756429 -1.3826 0
M  V30 600 C 58.9229 1.50584 -1.24835 0
M  V30 601 C 59.3029 2.10556 0.151485 0
M  V30 602 O 58.6509 1.96825 1.1607 0
M  V30 603 C 58.8609 2.57448 -2.3563 0
M  V30 604 C 60.2089 3.24429 -2.73917 0
M  V30 605 O 61.2329 2.67751 -2.34921 0
M  V30 606 O 60.0919 4.26937 -3.41156 0
M  V30 607 H 57.1859 0.667664 -0.48801 0
M  V30 608 H 59.7319 0.792083 -1.5008 0
M  V30 609 H 58.5039 2.11362 -3.29305 0
M  V30 610 H 58.1269 3.36408 -2.11933 0
M  V30 611 N 59.124 1.23083 0.984299 0
M  V30 612 C 60.071 1.00854 2.07598 0
M  V30 613 C 61.041 -0.0726709 1.65941 0
M  V30 614 O 62.226 0.0786535 1.90638 0
M  V30 615 C 59.366 0.601645 3.39815 0
M  V30 616 C 58.479 1.75456 3.94765 0
M  V30 617 C 57.614 1.29482 5.15177 0
M  V30 618 C 56.653 2.41873 5.62284 0
M  V30 619 N 55.79 1.96885 6.73929 0
M  V30 620 H 60.63 1.943 2.25946 0
M  V30 621 H 58.167 0.968001 1.10762 0
M  V30 622 H 60.125 0.346854 4.15756 0
M  V30 623 H 58.755 -0.295803 3.21442 0
M  V30 624 H 57.807 2.12346 3.15616 0
M  V30 625 H 59.119 2.59965 4.25699 0
M  V30 626 H 58.273 0.997923 5.98437 0
M  V30 627 H 57.012 0.420046 4.85888 0
M  V30 628 H 56.017 2.72342 4.77608 0
M  V30 629 H 57.242 3.29881 5.93595 0
M  V30 630 H 55.188 1.11782 6.46406 0
M  V30 631 H 55.105 2.74956 7.04227 0
M  V30 632 H 56.373 1.70289 7.60672 0
M  V30 633 N 60.6021 -1.18246 1.0419 0
M  V30 634 C 61.8481 -1.88536 0.747122 0
M  V30 635 C 62.1811 -1.80223 -0.723409 0
M  V30 636 O 61.4561 -1.20337 -1.52804 0
M  V30 637 C 61.7391 -3.38968 1.21544 0
M  V30 638 C 61.5921 -3.56084 2.74816 0
M  V30 639 C 62.9111 -4.32648 0.806482 0
M  V30 640 H 60.0301 -0.684619 0.272883 0
M  V30 641 H 62.6721 -1.39113 1.29413 0
M  V30 642 H 60.8221 -3.8119 0.750081 0
M  V30 643 H 62.4941 -3.22946 3.29399 0
M  V30 644 H 60.7371 -2.98699 3.14582 0
M  V30 645 H 61.4081 -4.61639 3.02644 0
M  V30 646 H 63.8841 -3.98211 1.20695 0
M  V30 647 H 62.7601 -5.36462 1.1619 0
M  V30 648 H 63.0211 -4.41146 -0.29029 0
M  V30 649 N 62.0802 -0.821533 -1.34494 0
M  V30 650 C 63.3082 -0.421884 -2.02553 0
M  V30 651 C 63.7232 0.971745 -1.61872 0
M  V30 652 O 63.0802 1.62864 -0.823496 0
M  V30 653 C 63.1312 -0.51285 -3.57844 0
M  V30 654 O 62.8522 -1.85155 -3.97051 0
M  V30 655 C 64.3532 -0.107921 -4.43169 0
M  V30 656 H 61.5732 -0.169482 -0.649243 0
M  V30 657 H 64.1172 -1.1093 -1.71798 0
M  V30 658 H 62.2722 0.126474 -3.87193 0
M  V30 659 H 62.6862 -1.82482 -4.91732 0
M  V30 660 H 64.1602 -0.222657 -5.51551 0
M  V30 661 H 64.6372 0.948401 -4.28838 0
M  V30 662 H 65.2432 -0.720989 -4.19144 0
M  V30 663 N 63.5583 1.46682 -0.576371 0
M  V30 664 C 64.4883 2.33028 0.148397 0
M  V30 665 C 65.4693 1.44961 0.889956 0
M  V30 666 O 66.6543 1.73789 0.866662 0
M  V30 667 C 63.7843 3.27117 1.1667 0
M  V30 668 C 62.7383 4.24575 0.540386 0
M  V30 669 C 62.0643 5.08126 1.6647 0
M  V30 670 C 63.3643 5.19722 -0.518331 0
M  V30 671 H 65.0583 2.93875 -0.572509 0
M  V30 672 H 62.6043 1.41315 -0.276768 0
M  V30 673 H 64.5573 3.86374 1.68204 0
M  V30 674 H 63.2813 2.64364 1.9178 0
M  V30 675 H 61.9403 3.66571 0.0461769 0
M  V30 676 H 61.5883 4.41762 2.40531 0
M  V30 677 H 61.2883 5.74122 1.25131 0
M  V30 678 H 62.8123 5.70246 2.18293 0
M  V30 679 H 64.2263 5.73232 -0.0883058 0
M  V30 680 H 62.6233 5.94026 -0.851679 0
M  V30 681 H 63.6933 4.64037 -1.40703 0
M  V30 682 N 65.0364 0.313813 1.54444 0
M  V30 683 C 66.2664 -0.293491 2.04505 0
M  V30 684 C 66.6744 -1.47086 1.19005 0
M  V30 685 O 66.0174 -1.82481 0.211257 0
M  V30 686 C 66.0794 -0.800455 3.50475 0
M  V30 687 C 65.7434 0.253322 4.56297 0
M  V30 688 C 66.7404 1.08612 5.08428 0
M  V30 689 C 64.4254 0.398708 5.00715 0
M  V30 690 C 66.4194 2.05013 6.0353 0
M  V30 691 C 64.1064 1.36614 5.95634 0
M  V30 692 C 65.1044 2.19033 6.46926 0
M  V30 693 O 64.7924 3.14134 7.39983 0
M  V30 694 H 64.5244 -0.0658325 0.672787 0
M  V30 695 H 67.0784 0.455177 2.00293 0
M  V30 696 H 65.3084 -1.59987 3.52053 0
M  V30 697 H 66.9974 -1.32504 3.83663 0
M  V30 698 H 67.7634 0.984736 4.74898 0
M  V30 699 H 63.6424 -0.23289 4.60411 0
M  V30 700 H 67.1864 2.69382 6.4349 0
M  V30 701 H 63.0834 1.4682 6.28581 0
M  V30 702 H 63.8514 3.0926 7.57826 0
M  V30 703 N 66.5145 -1.57545 0.0417849 0
M  V30 704 C 67.4615 -2.10977 -0.935805 0
M  V30 705 C 68.4315 -1.01486 -1.31491 0
M  V30 706 O 69.6165 -1.2898 -1.40602 0
M  V30 707 C 66.7565 -2.65169 -2.2086 0
M  V30 708 C 65.8695 -3.88714 -1.88482 0
M  V30 709 C 65.0045 -4.31254 -3.1015 0
M  V30 710 C 64.0435 -5.47524 -2.7365 0
M  V30 711 N 63.1805 -5.85162 -3.87982 0
M  V30 712 H 68.0205 -2.94218 -0.473249 0
M  V30 713 H 65.5575 -1.45415 -0.221981 0
M  V30 714 H 67.5155 -2.94685 -2.95325 0
M  V30 715 H 66.1455 -1.8474 -2.64709 0
M  V30 716 H 65.1975 -3.65849 -1.04205 0
M  V30 717 H 66.5095 -4.73245 -1.57608 0
M  V30 718 H 65.6635 -4.62273 -3.92923 0
M  V30 719 H 64.4025 -3.45516 -3.44195 0
M  V30 720 H 63.4075 -5.16187 -1.89291 0
M  V30 721 H 64.6325 -6.34971 -2.40807 0
M  V30 722 H 62.5785 -5.02377 -4.21846 0
M  V30 723 H 62.4955 -6.64362 -3.60775 0
M  V30 724 H 63.7635 -6.20791 -4.71422 0
M  V30 725 N 67.9926 0.231505 -1.5589 0
M  V30 726 C 69.2206 0.974505 -1.82513 0
M  V30 727 C 69.6356 1.78344 -0.619591 0
M  V30 728 O 68.9926 1.77792 0.411848 0
M  V30 729 C 69.0436 1.90007 -3.07538 0
M  V30 730 O 68.7646 1.12385 -4.2344 0
M  V30 731 C 70.2656 2.75779 -3.47075 0
M  V30 732 H 67.4856 0.286065 -0.606966 0
M  V30 733 H 70.0296 0.249739 -2.02969 0
M  V30 734 H 68.1846 2.57891 -2.89086 0
M  V30 735 H 68.5986 1.75125 -4.944 0
M  V30 736 H 70.0726 3.36443 -4.37619 0
M  V30 737 H 70.5496 3.47672 -2.68367 0
M  V30 738 H 71.1556 2.13323 -3.67931 0
M  V30 739 N 69.4707 1.49531 0.497807 0
M  V30 740 C 70.6987 1.62893 1.27567 0
M  V30 741 C 71.1137 0.301585 1.86376 0
M  V30 742 O 70.4707 -0.713335 1.67982 0
M  V30 743 C 70.5217 2.70013 2.40364 0
M  V30 744 O 70.2427 3.976 1.83972 0
M  V30 745 C 71.7437 2.94109 3.31685 0
M  V30 746 H 68.9637 0.548298 0.386794 0
M  V30 747 H 71.5077 1.95584 0.597245 0
M  V30 748 H 69.6627 2.40092 3.04031 0
M  V30 749 H 70.0767 4.56631 2.58047 0
M  V30 750 H 71.5507 3.72788 4.07104 0
M  V30 751 H 72.0277 2.04147 3.88871 0
M  V30 752 H 72.6337 3.2546 2.73781 0
M  V30 753 N 70.9488 -0.749086 1.3866 0
M  V30 754 C 71.9118 -1.84457 1.36045 0
M  V30 755 C 72.9118 -1.58682 0.260122 0
M  V30 756 O 74.1018 -1.66343 0.517261 0
M  V30 757 C 71.2338 -3.22008 1.11911 0
M  V30 758 H 72.4268 -1.88182 2.33512 0
M  V30 759 H 69.9798 -0.951266 1.24019 0
M  V30 760 H 70.7148 -3.2395 0.150686 0
M  V30 761 H 70.4998 -3.42111 1.91579 0
M  V30 762 H 71.9898 -4.0208 1.12788 0
M  V30 763 N 72.4269 -1.23603 -0.977757 0
M  V30 764 C 73.6549 -1.09646 -1.75458 0
M  V30 765 C 74.0699 0.351859 -1.85492 0
M  V30 766 O 73.4269 1.24327 -1.336 0
M  V30 767 C 73.4779 -1.71895 -3.18016 0
M  V30 768 O 73.1989 -3.11063 -3.08498 0
M  V30 769 C 74.6999 -1.63415 -4.12081 0
M  V30 770 H 71.9199 -0.38359 -0.550545 0
M  V30 771 H 74.4639 -1.63507 -1.22824 0
M  V30 772 H 72.6189 -1.22061 -3.67668 0
M  V30 773 H 73.0329 -3.41305 -3.9826 0
M  V30 774 H 74.5069 -2.11669 -5.09804 0
M  V30 775 H 74.9839 -0.593462 -4.35172 0
M  V30 776 H 75.5899 -2.12628 -3.68334 0
M  V30 777 N 73.905 1.17692 -1.04816 0
M  V30 778 C 74.868 2.19787 -0.650117 0
M  V30 779 C 75.868 1.58044 0.296427 0
M  V30 780 O 77.058 1.74012 0.0808097 0
M  V30 781 C 74.19 3.40869 0.0456987 0
M  V30 782 H 75.383 2.56516 -1.5537 0
M  V30 783 H 72.936 1.31708 -0.841594 0
M  V30 784 H 73.671 3.09681 0.962726 0
M  V30 785 H 73.456 3.86928 -0.634727 0
M  V30 786 H 74.946 4.16445 0.310432 0
M  V30 787 N 75.3831 0.828654 1.34056 0
M  V30 788 C 76.6601 0.341809 1.9259 0
M  V30 789 C 77.0401 -1.17158 1.75605 0
M  V30 790 O 76.3881 -1.98132 1.13824 0
M  V30 791 C 76.5981 0.777453 3.4023 0
M  V30 792 C 77.9461 0.779579 4.17382 0
M  V30 793 O 78.9701 0.7204 3.48839 0
M  V30 794 O 77.8291 0.857996 5.39723 0
M  V30 795 H 74.9231 0.0946085 0.821571 0
M  V30 796 H 77.4691 0.913827 1.42994 0
M  V30 797 H 76.2411 1.8196 3.46419 0
M  V30 798 H 75.8641 0.181444 3.97186 0
M  V30 799 N 76.8612 -1.46375 0.584142 0
M  V30 800 C 78.0862 -2.07268 0.0740405 0
M  V30 801 C 78.5112 -1.42979 -1.22223 0
M  V30 802 O 77.8692 -0.514092 -1.73859 0
M  V30 803 C 77.9172 -3.60518 -0.0767769 0
M  V30 804 O 77.0212 -3.96533 -1.13292 0
M  V30 805 H 76.3622 -0.660961 0.0634524 0
M  V30 806 H 78.8922 -1.87991 0.807492 0
M  V30 807 H 78.9022 -4.07021 -0.282489 0
M  V30 808 H 77.5772 -4.06702 0.86986 0
M  V30 809 H 76.1542 -3.61738 -0.905553 0
M  V30 810 N 78.3393 -0.321999 -1.54275 0
M  V30 811 C 79.6163 0.335232 -1.92706 0
M  V30 812 C 79.9963 1.70006 -1.25145 0
M  V30 813 O 79.3443 2.25067 -0.394596 0
M  V30 814 C 79.5543 0.429008 -3.46353 0
M  V30 815 C 80.9023 0.690029 -4.18956 0
M  V30 816 O 81.9263 0.511992 -3.52501 0
M  V30 817 O 80.7853 1.03338 -5.36641 0
M  V30 818 H 77.8793 0.191143 -0.804608 0
M  V30 819 H 80.4253 -0.3716 -1.65581 0
M  V30 820 H 79.1973 -0.529611 -3.87699 0
M  V30 821 H 78.8203 1.18348 -3.79578 0
M  V30 822 N 79.8174 1.5752 -0.0501392 0
M  V30 823 C 80.7644 2.1147 0.924603 0
M  V30 824 C 81.7344 1.02182 1.30951 0
M  V30 825 O 82.9194 1.29723 1.39916 0
M  V30 826 C 80.0594 2.66337 2.19451 0
M  V30 827 C 79.1724 3.89708 1.86418 0
M  V30 828 C 78.3074 4.32893 3.07859 0
M  V30 829 C 77.3464 5.48967 2.70742 0
M  V30 830 N 76.4834 5.87211 3.84874 0
M  V30 831 H 81.3234 2.94465 0.457639 0
M  V30 832 H 78.8604 1.45531 0.214266 0
M  V30 833 H 80.8184 2.96247 2.93758 0
M  V30 834 H 79.4484 1.86141 2.63726 0
M  V30 835 H 78.5004 3.66396 1.02264 0
M  V30 836 H 79.8124 4.74074 1.55096 0
M  V30 837 H 78.9664 4.6435 3.90466 0
M  V30 838 H 77.7054 3.47336 3.42358 0
M  V30 839 H 76.7104 5.17183 1.86551 0
M  V30 840 H 77.9354 6.3624 2.37436 0
M  V30 841 H 75.8814 5.04607 4.19175 0
M  V30 842 H 75.7984 6.66266 3.57247 0
M  V30 843 H 77.0664 6.23282 4.68123 0
M  V30 844 N 81.2955 -0.223234 1.56011 0
M  V30 845 C 82.5425 -0.947875 1.78946 0
M  V30 846 C 82.8705 -1.844 0.618608 0
M  V30 847 O 82.1255 -1.91629 -0.397093 0
M  V30 848 C 82.4245 -1.81948 3.0762 0
M  V30 849 C 82.0905 -1.07672 4.37856 0
M  V30 850 C 80.7525 -0.871544 4.73242 0
M  V30 851 C 83.1045 -0.552081 5.18268 0
M  V30 852 C 80.4325 -0.129791 5.86556 0
M  V30 853 C 82.7845 0.17632 6.32354 0
M  V30 854 C 81.4485 0.39277 6.66343 0
M  V30 855 H 80.7185 -0.346852 0.654809 0
M  V30 856 H 83.3655 -0.216171 1.90276 0
M  V30 857 H 81.6705 -2.61899 2.91404 0
M  V30 858 H 83.3675 -2.38227 3.22566 0
M  V30 859 H 79.9575 -1.24662 4.1007 0
M  V30 860 H 84.1415 -0.698076 4.91366 0
M  V30 861 H 79.3975 0.048153 6.11381 0
M  V30 862 H 83.5715 0.590367 6.93893 0
M  V30 863 H 81.1985 0.969466 7.53993 0
M  V30 864 N 82.7736 -1.49793 -0.48987 0
M  V30 865 C 83.7206 -1.67281 -1.59014 0
M  V30 866 C 84.6906 -0.514177 -1.57941 0
M  V30 867 O 85.8756 -0.742533 -1.75759 0
M  V30 868 C 83.0156 -1.75569 -2.97102 0
M  V30 869 C 82.1286 -3.0281 -3.08107 0
M  V30 870 C 81.2636 -3.02008 -4.36995 0
M  V30 871 C 80.3026 -4.23782 -4.41673 0
M  V30 872 N 79.4396 -4.20826 -5.62005 0
M  V30 873 H 84.2796 -2.61224 -1.43409 0
M  V30 874 H 81.8166 -1.29508 -0.697565 0
M  V30 875 H 83.7746 -1.78354 -3.77155 0
M  V30 876 H 82.4046 -0.850827 -3.11385 0
M  V30 877 H 81.4566 -3.09584 -2.21047 0
M  V30 878 H 82.7686 -3.92801 -3.07423 0
M  V30 879 H 81.9226 -3.03418 -5.25378 0
M  V30 880 H 80.6616 -2.09815 -4.4026 0
M  V30 881 H 79.6666 -4.22604 -3.5169 0
M  V30 882 H 80.8916 -5.17181 -4.40115 0
M  V30 883 H 78.8376 -3.31476 -5.66091 0
M  V30 884 H 78.7546 -5.04564 -5.62984 0
M  V30 885 H 80.0226 -4.26355 -6.52565 0
M  V30 886 N 84.2517 0.741722 -1.39055 0
M  V30 887 C 85.5007 1.49656 -1.35225 0
M  V30 888 C 85.8137 1.95533 0.0512708 0
M  V30 889 O 87.0197 2.7067 0.212138 0
M  V30 890 C 85.4757 2.70389 -2.37525 0
M  V30 891 C 85.0837 2.31489 -3.83558 0
M  V30 892 C 86.8277 3.48236 -2.42759 0
M  V30 893 C 84.7347 3.48903 -4.77515 0
M  V30 894 H 83.6647 0.56197 -0.502699 0
M  V30 895 H 86.3157 0.809727 -1.64668 0
M  V30 896 H 84.6977 3.41113 -2.01142 0
M  V30 897 H 85.8717 1.68354 -4.28945 0
M  V30 898 H 84.1867 1.66749 -3.81554 0
M  V30 899 H 86.7837 4.35558 -3.1015 0
M  V30 900 H 87.1267 3.90229 -1.45008 0
M  V30 901 H 87.6597 2.84535 -2.78002 0
M  V30 902 H 84.3987 3.11966 -5.76504 0
M  V30 903 H 83.9187 4.11041 -4.36813 0
M  V30 904 H 85.5977 4.15328 -4.96096 0
M  V30 905 N 85.7298 1.2412 0.971189 0
M  V30 906 C 86.9548 1.10667 1.75407 0
M  V30 907 C 87.3798 -0.337048 1.85056 0
M  V30 908 O 86.7378 -1.24396 1.31892 0
M  V30 909 C 86.7858 1.74726 3.15441 0
M  V30 910 O 85.8898 1.01566 3.99697 0
M  V30 911 H 85.2308 0.387341 0.539317 0
M  V30 912 H 87.7608 1.64358 1.2185 0
M  V30 913 H 87.7708 1.80341 3.6598 0
M  V30 914 H 86.4458 2.79773 3.07734 0
M  V30 915 H 85.0228 1.03713 3.58187 0
M  V30 916 N 87.2079 -1.17134 1.05439 0
M  V30 917 C 88.1399 -2.2078 0.615539 0
M  V30 918 C 89.1529 -1.59584 -0.322001 0
M  V30 919 O 90.3419 -1.78133 -0.114344 0
M  V30 920 C 87.4419 -3.38691 -0.118938 0
M  V30 921 C 86.6149 -4.29454 0.829924 0
M  V30 922 C 85.6739 -5.26024 0.136258 0
M  V30 923 O 84.6999 -5.63952 0.77115 0
M  V30 924 N 85.9019 -5.69487 -1.1254 0
M  V30 925 H 88.6669 -2.59052 1.50705 0
M  V30 926 H 86.2279 -1.32058 0.936603 0
M  V30 927 H 88.2199 -4.00329 -0.593179 0
M  V30 928 H 86.7899 -2.98996 -0.91215 0
M  V30 929 H 86.0099 -3.65211 1.48373 0
M  V30 930 H 87.2979 -4.86984 1.47392 0
M  V30 931 H 86.6959 -5.4075 -1.6615 0
M  V30 932 H 85.2529 -6.33257 -1.54366 0
M  V30 933 N 88.686 -0.835752 -1.33615 0
M  V30 934 C 89.935 -0.426289 -1.97144 0
M  V30 935 C 90.248 1.01912 -1.66953 0
M  V30 936 O 91.454 1.53311 -2.24072 0
M  V30 937 C 89.91 -0.711321 -3.52801 0
M  V30 938 C 89.518 -2.1712 -3.91871 0
M  V30 939 C 91.262 -0.368654 -4.22896 0
M  V30 940 C 89.169 -2.40044 -5.40493 0
M  V30 941 H 88.099 -0.15567 -0.737755 0
M  V30 942 H 90.75 -1.0239 -1.52278 0
M  V30 943 H 89.132 -0.0433766 -3.95976 0
M  V30 944 H 90.306 -2.87936 -3.59763 0
M  V30 945 H 88.621 -2.47654 -3.34749 0
M  V30 946 H 91.218 -0.517601 -5.32189 0
M  V30 947 H 91.561 0.688078 -4.10574 0
M  V30 948 H 92.094 -0.991702 -3.8524 0
M  V30 949 H 88.833 -3.44271 -5.57815 0
M  V30 950 H 88.353 -1.73785 -5.74072 0
M  V30 951 H 90.032 -2.23042 -6.0734 0
M  V30 952 N 90.1641 1.46063 -0.591896 0
M  V30 953 C 91.0941 2.33172 0.123673 0
M  V30 954 C 92.0751 1.45897 0.87453 0
M  V30 955 O 93.2601 1.74698 0.848181 0
M  V30 956 C 90.3901 3.28336 1.13194 0
M  V30 957 C 89.3441 4.25124 0.495324 0
M  V30 958 C 88.6701 5.09863 1.61071 0
M  V30 959 C 89.9701 5.19143 -0.573425 0
M  V30 960 H 91.6641 2.93252 -0.603646 0
M  V30 961 H 89.2101 1.41014 -0.291741 0
M  V30 962 H 91.1631 3.88137 1.64097 0
M  V30 963 H 89.8871 2.66383 1.88965 0
M  V30 964 H 88.5461 3.66599 0.00729452 0
M  V30 965 H 88.1941 4.44288 2.35832 0
M  V30 966 H 87.8941 5.75417 1.19035 0
M  V30 967 H 89.4181 5.72529 2.12233 0
M  V30 968 H 90.8321 5.73106 -0.1491 0
M  V30 969 H 89.2291 5.93089 -0.914636 0
M  V30 970 H 90.2991 4.62519 -1.45617 0
M  V30 971 N 91.6422 0.330177 1.54103 0
M  V30 972 C 92.8702 -0.272179 2.05102 0
M  V30 973 C 93.2852 -1.45267 1.20595 0
M  V30 974 O 92.6422 -1.8094 0.238144 0
M  V30 975 C 92.6932 -0.70023 3.54653 0
M  V30 976 O 92.4142 0.433301 4.35952 0
M  V30 977 C 93.9152 -1.3647 4.21771 0
M  V30 978 H 91.1352 -0.0549159 0.668749 0
M  V30 979 H 93.6792 0.478285 1.98828 0
M  V30 980 H 91.8342 -1.40066 3.61193 0
M  V30 981 H 92.2482 0.0947539 5.24414 0
M  V30 982 H 93.7222 -1.61509 5.27843 0
M  V30 983 H 94.1992 -2.31409 3.73292 0
M  V30 984 H 94.8052 -0.706675 4.19388 0
M  V30 985 N 93.1203 -1.57491 0.0584922 0
M  V30 986 C 94.3673 -1.92978 -0.613648 0
M  V30 987 C 94.6953 -0.937461 -1.70417 0
M  V30 988 O 93.9503 0.049078 -1.95638 0
M  V30 989 C 94.2493 -3.3513 -1.24188 0
M  V30 990 C 93.9153 -4.50037 -0.278826 0
M  V30 991 C 92.5773 -4.81198 -0.0138447 0
M  V30 992 C 94.9293 -5.19807 0.380777 0
M  V30 993 C 92.2573 -5.79473 0.918052 0
M  V30 994 C 94.6093 -6.19079 1.30091 0
M  V30 995 C 93.2733 -6.48665 1.57449 0
M  V30 996 H 92.5433 -0.706157 -0.22455 0
M  V30 997 H 95.1903 -1.91082 0.126533 0
M  V30 998 H 93.4953 -3.33429 -2.05749 0
M  V30 999 H 95.1923 -3.59871 -1.769 0
M  V30 1000 H 91.7823 -4.25726 -0.495539 0
M  V30 1001 H 95.9663 -4.95939 0.189158 0
M  V30 1002 H 91.2223 -6.00727 1.1374 0
M  V30 1003 H 95.3963 -6.7225 1.81804 0
M  V30 1004 H 93.0233 -7.24628 2.29822 0
M  V30 1005 N 94.5984 0.214957 -1.56127 0
M  V30 1006 C 95.5464 1.28601 -1.93816 0
M  V30 1007 C 96.5404 1.48175 -0.821016 0
M  V30 1008 O 97.7464 1.49271 -1.0059 0
M  V30 1009 H 94.1214 0.431302 -0.616022 0
M  V30 1010 H 96.0924 0.940991 -2.83175 0
M  V30 1011 C 94.8414 2.62779 -2.27689 0
M  V30 1012 H 94.1644 2.48527 -3.13168 0
M  V30 1013 H 95.6044 3.36517 -2.57939 0
M  V30 1014 C 94.0634 3.18285 -1.10436 0
M  V30 1015 O 94.5934 4.00002 -0.368945 0
M  V30 1016 N 92.7994 2.7675 -0.886433 0
M  V30 1017 H 92.3464 2.10404 -1.48619 0
M  V30 1018 H 92.3044 3.14229 -0.103656 0
M  V30 1019 N 96.0765 1.50051 0.48192 0
M  V30 1020 C 97.3235 1.60498 1.23477 0
M  V30 1021 C 97.6515 0.300331 1.92167 0
M  V30 1022 O 96.9065 -0.713094 1.82246 0
M  V30 1023 C 97.2055 2.72717 2.30998 0
M  V30 1024 C 96.8715 4.13572 1.79636 0
M  V30 1025 C 95.5335 4.519 1.65348 0
M  V30 1026 C 97.8855 5.01649 1.41412 0
M  V30 1027 C 95.2135 5.76057 1.11244 0
M  V30 1028 C 97.5655 6.26343 0.887538 0
M  V30 1029 C 96.2295 6.63483 0.731207 0
M  V30 1030 H 95.4995 0.587303 0.451836 0
M  V30 1031 H 98.1465 1.83948 0.532468 0
M  V30 1032 H 96.4515 2.43312 3.07094 0
M  V30 1033 H 98.1485 2.78006 2.88988 0
M  V30 1034 H 94.7385 3.83329 1.91721 0
M  V30 1035 H 98.9225 4.72679 1.51289 0
M  V30 1036 H 94.1785 6.03516 0.978686 0
M  V30 1037 H 98.3525 6.93958 0.582654 0
M  V30 1038 H 95.9795 7.59568 0.309806 0
M  V30 1039 N 97.5546 -0.734337 1.39446 0
M  V30 1040 C 98.8036 -1.48937 1.36017 0
M  V30 1041 C 99.1166 -1.95557 -0.0409005 0
M  V30 1042 O 100.323 -2.70779 -0.19778 0
M  V30 1043 C 98.7786 -2.69125 2.38955 0
M  V30 1044 C 98.3866 -2.29452 3.8478 0
M  V30 1045 C 100.131 -3.46944 2.44603 0
M  V30 1046 C 98.0376 -3.46366 4.79358 0
M  V30 1047 H 96.9676 -0.559296 0.505672 0
M  V30 1048 H 99.6186 -0.800983 1.65095 0
M  V30 1049 H 98.0006 -3.40041 2.02948 0
M  V30 1050 H 99.1746 -1.66077 4.29831 0
M  V30 1051 H 97.4896 -1.64723 3.82433 0
M  V30 1052 H 100.087 -4.33907 3.12456 0
M  V30 1053 H 100.43 -3.89454 1.47076 0
M  V30 1054 H 100.963 -2.83056 2.79507 0
M  V30 1055 H 97.7016 -3.08905 5.78151 0
M  V30 1056 H 97.2216 -4.08719 4.38986 0
M  V30 1057 H 98.9006 -4.12691 4.98292 0
M  V30 1058 N 99.0327 -1.24633 -0.964593 0
M  V30 1059 C 99.9797 -1.04144 -2.05968 0
M  V30 1060 C 100.95 0.046262 -1.66036 0
M  V30 1061 O 102.135 -0.108972 -1.90489 0
M  V30 1062 C 99.2747 -0.65563 -3.38815 0
M  V30 1063 C 98.3877 -1.81714 -3.91923 0
M  V30 1064 C 97.5227 -1.37662 -5.13052 0
M  V30 1065 C 96.5617 -2.50788 -5.58365 0
M  V30 1066 N 95.6987 -2.07582 -6.70712 0
M  V30 1067 H 100.539 -1.9787 -2.22827 0
M  V30 1068 H 98.0757 -0.9855 -1.09208 0
M  V30 1069 H 100.034 -0.412954 -4.15151 0
M  V30 1070 H 98.6637 0.244627 -3.21872 0
M  V30 1071 H 97.7157 -2.1734 -3.12198 0
M  V30 1072 H 99.0277 -2.66705 -4.21509 0
M  V30 1073 H 98.1817 -1.093 -5.96773 0
M  V30 1074 H 96.9207 -0.497293 -4.85158 0
M  V30 1075 H 95.9257 -2.79906 -4.73215 0
M  V30 1076 H 97.1507 -3.39283 -5.88272 0
M  V30 1077 H 95.0967 -1.22051 -6.44546 0
M  V30 1078 H 95.0137 -2.86125 -6.99763 0
M  V30 1079 H 96.2817 -1.82369 -7.57867 0
M  V30 1080 N 100.511 1.16574 -1.06058 0
M  V30 1081 C 101.788 1.83048 -0.689416 0
M  V30 1082 C 102.168 1.94122 0.829443 0
M  V30 1083 O 101.516 1.48249 1.7388 0
M  V30 1084 C 101.726 3.20186 -1.38859 0
M  V30 1085 C 103.074 3.95989 -1.53226 0
M  V30 1086 O 104.098 3.29696 -1.3483 0
M  V30 1087 O 102.957 5.14813 -1.83384 0
M  V30 1088 H 100.051 0.790258 -0.243764 0
M  V30 1089 H 102.597 1.23797 -1.16071 0
M  V30 1090 H 101.369 3.07146 -2.4244 0
M  V30 1091 H 100.992 3.87112 -0.907216 0
M  V30 1092 N 101.989 0.842826 1.3317 0
M  V30 1093 C 102.936 0.276885 2.29133 0
M  V30 1094 C 103.906 -0.609527 1.54512 0
M  V30 1095 O 105.091 -0.546955 1.82792 0
M  V30 1096 C 102.231 -0.538707 3.40869 0
M  V30 1097 C 101.344 0.372169 4.30394 0
M  V30 1098 C 100.479 -0.454908 5.29249 0
M  V30 1099 C 99.5179 0.45411 6.10413 0
M  V30 1100 N 98.6549 -0.335075 7.013 0
M  V30 1101 H 103.495 1.10052 2.76934 0
M  V30 1102 H 101.032 0.554161 1.36262 0
M  V30 1103 H 102.99 -1.02709 4.0436 0
M  V30 1104 H 101.62 -1.32727 2.9425 0
M  V30 1105 H 100.672 0.97888 3.6759 0
M  V30 1106 H 101.984 1.0703 4.87182 0
M  V30 1107 H 101.138 -1.00695 5.98285 0
M  V30 1108 H 99.8769 -1.18646 4.73048 0
M  V30 1109 H 98.8819 1.01813 5.40291 0
M  V30 1110 H 100.107 1.18409 6.68697 0
M  V30 1111 H 98.0529 -1.04994 6.47543 0
M  V30 1112 H 97.9699 0.304262 7.55387 0
M  V30 1113 H 99.2379 -0.869224 7.74638 0
M  V30 1114 N 103.467 -1.45747 0.599634 0
M  V30 1115 C 104.692 -2.07178 0.0960198 0
M  V30 1116 C 105.117 -1.44268 -1.207 0
M  V30 1117 O 104.475 -0.532503 -1.73303 0
M  V30 1118 C 104.523 -3.60579 -0.0385348 0
M  V30 1119 O 103.627 -3.97713 -1.0908 0
M  V30 1120 H 102.968 -0.660251 0.0704593 0
M  V30 1121 H 105.498 -1.87124 0.827385 0
M  V30 1122 H 105.508 -4.07298 -0.239304 0
M  V30 1123 H 104.183 -4.05756 0.912947 0
M  V30 1124 H 102.76 -3.62678 -0.867135 0
M  V30 1125 N 104.945 -0.338344 -1.53925 0
M  V30 1126 C 106.175 0.260919 -2.04946 0
M  V30 1127 C 106.583 1.45174 -1.2133 0
M  V30 1128 O 105.926 1.82122 -0.240262 0
M  V30 1129 C 105.988 0.744596 -3.51704 0
M  V30 1130 C 105.652 -0.325883 -4.55837 0
M  V30 1131 C 106.649 -1.16687 -5.06636 0
M  V30 1132 C 104.334 -0.478317 -5.00017 0
M  V30 1133 C 106.328 -2.14588 -6.00192 0
M  V30 1134 C 104.015 -1.46073 -5.93385 0
M  V30 1135 C 105.013 -2.29297 -6.4336 0
M  V30 1136 O 104.701 -3.25867 -7.34892 0
M  V30 1137 H 104.433 0.0551207 -0.673749 0
M  V30 1138 H 106.987 -0.486984 -1.99544 0
M  V30 1139 H 105.217 1.54366 -3.54553 0
M  V30 1140 H 106.906 1.26383 -3.85723 0
M  V30 1141 H 107.672 -1.06016 -4.73271 0
M  V30 1142 H 103.551 0.159613 -4.60724 0
M  V30 1143 H 107.095 -2.79585 -6.39123 0
M  V30 1144 H 102.992 -1.56802 -6.26166 0
M  V30 1145 H 103.76 -3.21278 -7.5281 0
M  V30 1146 N 106.423 1.57458 -0.0668435 0
M  V30 1147 C 107.7 1.8469 0.644132 0
M  V30 1148 C 108.08 0.958343 1.88093 0
M  V30 1149 O 107.428 0.0233579 2.28488 0
M  V30 1150 C 107.638 3.34767 0.986509 0
M  V30 1151 C 108.986 4.02159 1.36212 0
M  V30 1152 O 110.01 3.39484 1.07839 0
M  V30 1153 O 108.869 5.12694 1.89227 0
M  V30 1154 H 105.963 0.762816 0.319437 0
M  V30 1155 H 108.509 1.6942 -0.0973986 0
M  V30 1156 H 107.281 3.91151 0.107883 0
M  V30 1157 H 106.904 3.55281 1.78497 0
M  V30 1158 N 107.901 -0.206675 1.56239 0
M  V30 1159 C 108.848 -1.25617 1.93621 0
M  V30 1160 C 109.818 -1.45824 0.795274 0
M  V30 1161 O 111.003 -1.59148 1.05245 0
M  V30 1162 C 108.143 -2.59839 2.27107 0
M  V30 1163 C 107.256 -2.47308 3.54207 0
M  V30 1164 C 106.391 -3.74155 3.7707 0
M  V30 1165 C 105.43 -3.56407 4.97635 0
M  V30 1166 N 104.567 -4.75238 5.1681 0
M  V30 1167 H 109.407 -0.930383 2.83104 0
M  V30 1168 H 106.944 -0.448065 1.4011 0
M  V30 1169 H 108.902 -3.38021 2.44535 0
M  V30 1170 H 107.532 -2.90485 1.40778 0
M  V30 1171 H 106.584 -1.60483 3.4489 0
M  V30 1172 H 107.896 -2.30122 4.42544 0
M  V30 1173 H 107.05 -4.60778 3.94675 0
M  V30 1174 H 105.789 -3.94282 2.87042 0
M  V30 1175 H 104.794 -2.68168 4.79964 0
M  V30 1176 H 106.019 -3.37736 5.89161 0
M  V30 1177 H 103.965 -4.95651 4.29728 0
M  V30 1178 H 103.882 -4.60835 5.99306 0
M  V30 1179 H 105.15 -5.63246 5.38864 0
M  V30 1180 N 109.379 -1.50304 -0.473955 0
M  V30 1181 C 110.656 -1.51667 -1.23518 0
M  V30 1182 C 111.036 -0.259701 -2.09496 0
M  V30 1183 O 110.384 0.756986 -2.15597 0
M  V30 1184 C 110.594 -2.81082 -2.06868 0
M  V30 1185 C 111.942 -3.31631 -2.65153 0
M  V30 1186 O 112.966 -2.82384 -2.17113 0
M  V30 1187 O 111.825 -4.17471 -3.52675 0
M  V30 1188 H 108.919 -0.60822 -0.560355 0
M  V30 1189 H 111.465 -1.62592 -0.486011 0
M  V30 1190 H 110.237 -3.64041 -1.4349 0
M  V30 1191 H 109.86 -2.73146 -2.88924 0
M  V30 1192 N 110.857 0.726932 -1.39834 0
M  V30 1193 C 112.085 1.51613 -1.40787 0
M  V30 1194 C 112.5 1.88799 -0.00451505 0
M  V30 1195 O 111.857 1.54662 0.968809 0
M  V30 1196 C 111.908 2.79863 -2.28821 0
M  V30 1197 O 111.629 2.44253 -3.63692 0
M  V30 1198 C 113.13 3.73837 -2.38245 0
M  V30 1199 H 110.35 0.468264 -0.480593 0
M  V30 1200 H 112.894 0.897607 -1.83748 0
M  V30 1201 H 111.049 3.38027 -1.89252 0
M  V30 1202 H 111.463 3.26695 -4.1033 0
M  V30 1203 H 112.937 4.60699 -3.04073 0
M  V30 1204 H 113.414 4.16153 -1.40403 0
M  V30 1205 H 114.02 3.21589 -2.78317 0
M  V30 1206 N 112.336 1.25143 0.95797 0
M  V30 1207 C 113.266 1.07711 2.07173 0
M  V30 1208 C 114.247 -0.0128462 1.70095 0
M  V30 1209 O 115.432 0.156061 1.93572 0
M  V30 1210 C 112.562 0.691503 3.40346 0
M  V30 1211 C 111.516 1.73132 3.9142 0
M  V30 1212 C 110.842 1.20049 5.21049 0
M  V30 1213 C 112.142 3.1294 4.1817 0
M  V30 1214 H 113.836 2.00873 2.22014 0
M  V30 1215 H 111.382 0.967191 1.06684 0
M  V30 1216 H 113.335 0.556505 4.17709 0
M  V30 1217 H 112.059 -0.275819 3.25433 0
M  V30 1218 H 110.718 1.8547 3.16222 0
M  V30 1219 H 110.366 0.223499 5.02503 0
M  V30 1220 H 110.066 1.89545 5.56189 0
M  V30 1221 H 111.59 1.07782 6.01012 0
M  V30 1222 H 113.004 3.03775 4.86203 0
M  V30 1223 H 111.401 3.79875 4.64559 0
M  V30 1224 H 112.471 3.6025 3.24573 0
M  V30 1225 N 113.814 -1.1601 1.06675 0
M  V30 1226 C 115.06 -1.86909 0.786945 0
M  V30 1227 C 115.393 -1.81717 -0.685018 0
M  V30 1228 O 114.668 -1.23551 -1.50218 0
M  V30 1229 C 114.951 -3.36313 1.28707 0
M  V30 1230 C 114.804 -3.50175 2.82308 0
M  V30 1231 C 116.123 -4.3084 0.898071 0
M  V30 1232 H 113.242 -0.678677 0.287343 0
M  V30 1233 H 115.884 -1.36336 1.32334 0
M  V30 1234 H 114.034 -3.79513 0.830768 0
M  V30 1235 H 115.706 -3.15886 3.36175 0
M  V30 1236 H 113.949 -2.91959 3.20847 0
M  V30 1237 H 114.62 -4.55116 3.12368 0
M  V30 1238 H 117.096 -3.95561 1.29114 0
M  V30 1239 H 115.972 -5.33876 1.27543 0
M  V30 1240 H 116.233 -4.41662 -0.196651 0
M  V30 1241 N 115.292 -0.849877 -1.32721 0
M  V30 1242 C 116.222 -0.306308 -2.31482 0
M  V30 1243 C 117.203 0.591952 -1.59468 0
M  V30 1244 O 118.388 0.513199 -1.87296 0
M  V30 1245 C 115.518 0.510204 -3.43532 0
M  V30 1246 C 114.472 -0.293209 -4.26994 0
M  V30 1247 C 113.798 0.647743 -5.30762 0
M  V30 1248 C 115.098 -1.51634 -4.99804 0
M  V30 1249 H 116.792 -1.13153 -2.77195 0
M  V30 1250 H 114.338 -0.545553 -1.33266 0
M  V30 1251 H 116.291 0.900856 -4.11658 0
M  V30 1252 H 115.015 1.36874 -2.96535 0
M  V30 1253 H 113.674 -0.665555 -3.60508 0
M  V30 1254 H 113.322 1.50299 -4.8002 0
M  V30 1255 H 113.022 0.11422 -5.87489 0
M  V30 1256 H 114.546 1.03567 -6.01753 0
M  V30 1257 H 115.96 -1.19824 -5.60638 0
M  V30 1258 H 114.357 -1.98745 -5.66234 0
M  V30 1259 H 115.427 -2.28018 -4.27943 0
M  V30 1260 N 116.77 1.45427 -0.607355 0
M  V30 1261 C 117.717 2.3053 0.111625 0
M  V30 1262 C 118.687 1.4209 0.860216 0
M  V30 1263 O 119.872 1.71019 0.845998 0
M  V30 1264 C 117.012 3.26992 1.10319 0
M  V30 1265 C 116.125 4.30535 0.355493 0
M  V30 1266 C 115.26 5.14105 1.33676 0
M  V30 1267 C 114.299 6.09376 0.576862 0
M  V30 1268 N 113.436 6.85727 1.5074 0
M  V30 1269 H 118.276 2.91477 -0.620093 0
M  V30 1270 H 115.813 1.43631 -0.317594 0
M  V30 1271 H 117.771 3.81385 1.6912 0
M  V30 1272 H 116.401 2.67799 1.80232 0
M  V30 1273 H 115.453 3.78805 -0.348023 0
M  V30 1274 H 116.765 4.98235 -0.237423 0
M  V30 1275 H 115.919 5.72897 1.99684 0
M  V30 1276 H 114.658 4.46423 1.9636 0
M  V30 1277 H 113.663 5.49715 -0.0968519 0
M  V30 1278 H 114.888 6.79085 -0.0449341 0
M  V30 1279 H 112.834 6.20735 2.12189 0
M  V30 1280 H 112.751 7.49778 0.967913 0
M  V30 1281 H 114.019 7.4906 2.15706 0
M  V30 1282 N 118.248 0.346503 1.53744 0
M  V30 1283 C 119.211 -0.496439 2.23759 0
M  V30 1284 C 120.211 -1.0252 1.2388 0
M  V30 1285 O 121.401 -0.913974 1.48297 0
M  V30 1286 C 118.533 -1.69187 2.95954 0
M  V30 1287 H 119.726 0.115952 2.99676 0
M  V30 1288 H 117.279 0.0978939 1.55993 0
M  V30 1289 H 118.014 -2.34288 2.24231 0
M  V30 1290 H 117.799 -1.31989 3.69217 0
M  V30 1291 H 119.289 -2.28969 3.49232 0
M  V30 1292 N 119.726 -1.57421 0.075193 0
M  V30 1293 C 120.954 -1.97946 -0.602076 0
M  V30 1294 C 121.369 -0.953674 -1.62943 0
M  V30 1295 O 120.726 0.0592551 -1.82404 0
M  V30 1296 C 120.777 -3.38546 -1.26762 0
M  V30 1297 O 120.498 -4.37195 -0.281376 0
M  V30 1298 C 121.999 -3.93966 -2.03239 0
M  V30 1299 H 119.219 -0.650918 -0.162931 0
M  V30 1300 H 121.763 -2.03959 0.148601 0
M  V30 1301 H 119.918 -3.33609 -1.96936 0
M  V30 1302 H 120.332 -5.18975 -0.759267 0
M  V30 1303 H 121.806 -4.94555 -2.45193 0
M  V30 1304 H 122.283 -3.30693 -2.8903 0
M  V30 1305 H 122.889 -4.02315 -1.37924 0
M  V30 1306 N 121.204 0.198386 -1.56346 0
M  V30 1307 C 122.452 0.91747 -1.80075 0
M  V30 1308 C 122.773 1.83929 -0.647692 0
M  V30 1309 O 122.043 1.93029 0.334166 0
M  V30 1310 H 120.623 0.341774 -0.664228 0
M  V30 1311 H 123.285 0.204684 -1.93822 0
M  V30 1312 H 122.381 1.51055 -2.7311 0
M  V30 1313 N 122.682 1.50554 0.465978 0
M  V30 1314 C 123.63 1.70324 1.58406 0
M  V30 1315 C 124.624 0.569139 1.59553 0
M  V30 1316 O 125.83 0.749776 1.63641 0
M  V30 1317 H 122.205 0.537688 0.525734 0
M  V30 1318 H 124.176 2.64104 1.38894 0
M  V30 1319 C 122.925 1.81928 2.96307 0
M  V30 1320 H 122.248 2.68586 2.96144 0
M  V30 1321 H 123.688 1.99784 3.73982 0
M  V30 1322 C 122.147 0.572095 3.32007 0
M  V30 1323 O 122.677 -0.286416 4.00678 0
M  V30 1324 N 120.883 0.424606 2.87481 0
M  V30 1325 H 120.43 1.12427 2.31771 0
M  V30 1326 H 120.388 -0.408697 3.11732 0
M  V30 1327 N 124.16 -0.719506 1.40217 0
M  V30 1328 C 125.409 -1.47486 1.37589 0
M  V30 1329 C 125.722 -1.9559 -0.0201568 0
M  V30 1330 O 126.928 -2.70973 -0.169049 0
M  V30 1331 C 125.384 -2.66575 2.41796 0
M  V30 1332 C 124.992 -2.25358 3.87192 0
M  V30 1333 C 126.736 -3.4433 2.48269 0
M  V30 1334 C 124.643 -3.41262 4.83005 0
M  V30 1335 H 123.573 -0.553901 0.511576 0
M  V30 1336 H 126.224 -0.783427 1.65936 0
M  V30 1337 H 124.606 -3.3787 2.06543 0
M  V30 1338 H 125.78 -1.61509 4.31569 0
M  V30 1339 H 124.095 -1.60657 3.84159 0
M  V30 1340 H 126.692 -4.30569 3.17041 0
M  V30 1341 H 127.035 -3.87872 1.51198 0
M  V30 1342 H 127.568 -2.80076 2.82493 0
M  V30 1343 H 124.307 -3.02755 5.81394 0
M  V30 1344 H 123.827 -4.0404 4.43297 0
M  V30 1345 H 125.506 -4.07383 5.02641 0
M  V30 1346 N 125.638 -1.25649 -0.95132 0
M  V30 1347 C 126.586 -1.06118 -2.06982 0
M  V30 1348 C 127.58 0.00889169 -1.69398 0
M  V30 1349 O 128.786 -0.146988 -1.79399 0
M  V30 1350 H 125.161 -0.326248 -0.677544 0
M  V30 1351 H 127.132 -2.00932 -2.2061 0
M  V30 1352 C 125.881 -0.700145 -3.40578 0
M  V30 1353 H 125.204 -1.51537 -3.69968 0
M  V30 1354 H 126.644 -0.603211 -4.19687 0
M  V30 1355 C 125.103 0.59403 -3.31622 0
M  V30 1356 O 125.633 1.63522 -3.66911 0
M  V30 1357 N 123.839 0.58089 -2.84735 0
M  V30 1358 H 123.386 -0.266783 -2.56215 0
M  V30 1359 H 123.344 1.44695 -2.79125 0
M  V30 1360 N 127.117 1.15442 -1.07289 0
M  V30 1361 C 128.342 1.90638 -0.816828 0
M  V30 1362 C 128.767 1.77445 0.624083 0
M  V30 1363 O 128.125 1.10671 1.43602 0
M  V30 1364 C 128.173 3.39008 -1.22906 0
M  V30 1365 O 127.277 4.10701 -0.373975 0
M  V30 1366 H 126.618 0.593555 -0.297638 0
M  V30 1367 H 129.148 1.46198 -1.43134 0
M  V30 1368 H 129.158 3.89801 -1.20497 0
M  V30 1369 H 127.833 3.47929 -2.27856 0
M  V30 1370 H 126.41 3.70046 -0.460499 0
M  V30 1371 N 128.595 0.856903 1.32268 0
M  V30 1372 C 129.843 0.460474 1.96784 0
M  V30 1373 C 130.164 -0.987701 1.68135 0
M  V30 1374 O 129.434 -1.69058 0.989765 0
M  V30 1375 H 128.014 0.167289 0.728027 0
M  V30 1376 H 130.676 1.09383 1.61312 0
M  V30 1377 H 129.772 0.60739 3.06133 0
M  V30 1378 N 130.073 -1.45103 0.615059 0
M  V30 1379 C 131.32 -2.02183 0.113179 0
M  V30 1380 C 131.648 -1.48249 -1.25906 0
M  V30 1381 O 130.903 -0.650265 -1.84581 0
M  V30 1382 C 131.202 -3.57386 0.0318797 0
M  V30 1383 C 130.868 -4.30505 1.34077 0
M  V30 1384 C 129.53 -4.50197 1.69929 0
M  V30 1385 C 131.882 -4.72238 2.20546 0
M  V30 1386 C 129.21 -5.08881 2.91988 0
M  V30 1387 C 131.562 -5.32272 3.41861 0
M  V30 1388 C 130.226 -5.50187 3.77956 0
M  V30 1389 H 129.496 -0.739842 0.0414151 0
M  V30 1390 H 132.143 -1.74073 0.798168 0
M  V30 1391 H 130.448 -3.84817 -0.736409 0
M  V30 1392 H 132.145 -3.99264 -0.372712 0
M  V30 1393 H 128.735 -4.15496 1.05173 0
M  V30 1394 H 132.919 -4.56751 1.94146 0
M  V30 1395 H 128.175 -5.20939 3.2005 0
M  V30 1396 H 132.349 -5.63563 4.09109 0
M  V30 1397 H 129.976 -5.95427 4.72622 0
M  V30 1398 N 131.551 -0.354651 -1.53558 0
M  V30 1399 C 132.797 0.238797 -2.01389 0
M  V30 1400 C 133.13 1.49309 -1.2418 0
M  V30 1401 O 132.405 1.91638 -0.332457 0
M  V30 1402 C 132.688 0.541771 -3.56001 0
M  V30 1403 C 132.541 -0.725388 -4.43912 0
M  V30 1404 C 133.86 1.34685 -4.18984 0
M  V30 1405 H 130.979 0.0853177 -0.732045 0
M  V30 1406 H 133.621 -0.477384 -1.83905 0
M  V30 1407 H 131.771 1.15189 -3.71031 0
M  V30 1408 H 133.443 -1.36313 -4.407 0
M  V30 1409 H 131.686 -1.34801 -4.12324 0
M  V30 1410 H 132.357 -0.468505 -5.50008 0
M  V30 1411 H 134.833 0.830837 -4.07721 0
M  V30 1412 H 133.709 1.52759 -5.27215 0
M  V30 1413 H 133.97 2.35221 -3.74331 0
M  V30 1414 N 133.029 1.57378 -0.0835403 0
M  V30 1415 C 133.976 2.13384 0.879539 0
M  V30 1416 C 134.946 1.04936 1.28754 0
M  V30 1417 O 136.131 1.32662 1.37133 0
M  V30 1418 C 133.271 2.70932 2.13752 0
M  V30 1419 C 132.384 3.93575 1.7811 0
M  V30 1420 C 131.519 4.39326 2.98607 0
M  V30 1421 C 130.558 5.54587 2.59037 0
M  V30 1422 N 129.695 5.95243 3.72331 0
M  V30 1423 H 134.535 2.9537 0.395076 0
M  V30 1424 H 132.072 1.45953 0.183349 0
M  V30 1425 H 134.03 3.02411 2.87408 0
M  V30 1426 H 132.66 1.91693 2.59718 0
M  V30 1427 H 131.712 3.68483 0.94469 0
M  V30 1428 H 133.024 4.77258 1.45005 0
M  V30 1429 H 132.178 4.72528 3.80529 0
M  V30 1430 H 130.917 3.5452 3.34913 0
M  V30 1431 H 129.922 5.21024 1.75539 0
M  V30 1432 H 131.147 6.41133 2.23887 0
M  V30 1433 H 129.093 5.13385 4.08378 0
M  V30 1434 H 129.01 6.73694 3.43034 0
M  V30 1435 H 130.278 6.33072 4.54797 0
M  V30 1436 N 134.507 -0.190092 1.56449 0
M  V30 1437 C 135.918 -0.754312 1.70784 0
M  V30 1438 C 136.269 -1.83631 0.690951 0
M  V30 1439 O 135.394 -2.15868 -0.151604 0
M  V30 1440 C 135.989 -1.37503 3.09642 0
M  V30 1441 C 134.548 -1.88628 3.25725 0
M  V30 1442 C 133.695 -0.758098 2.66736 0
M  V30 1443 H 136.646 0.0350524 1.58661 0
M  V30 1444 H 136.667 -2.2445 3.0725 0
M  V30 1445 H 136.179 -0.587302 3.83631 0
M  V30 1446 H 134.28 -2.70103 2.56661 0
M  V30 1447 H 134.393 -2.04462 4.3328 0
M  V30 1448 H 132.757 -1.17369 2.26046 0
M  V30 1449 H 133.54 0.0174705 3.43296 0
M  V30 1450 N 135.985 -1.50799 -0.457987 0
M  V30 1451 C 136.933 -1.71162 -1.575 0
M  V30 1452 C 137.927 -0.577592 -1.59249 0
M  V30 1453 O 139.133 -0.758443 -1.63241 0
M  V30 1454 H 135.508 -0.540468 -0.522875 0
M  V30 1455 H 137.479 -2.64837 -1.37492 0
M  V30 1456 C 136.228 -1.83496 -2.95338 0
M  V30 1457 H 135.551 -2.70153 -2.94716 0
M  V30 1458 H 136.991 -2.01765 -3.72917 0
M  V30 1459 C 135.45 -0.589694 -3.31699 0
M  V30 1460 O 135.98 0.265163 -4.00824 0
M  V30 1461 N 134.186 -0.439845 -2.87252 0
M  V30 1462 H 133.733 -1.13655 -2.31172 0
M  V30 1463 H 133.691 0.392159 -3.11945 0
M  V30 1464 N 137.463 0.71206 -1.40597 0
M  V30 1465 C 138.874 1.29135 -1.34837 0
M  V30 1466 C 139.225 1.96186 -0.0235395 0
M  V30 1467 O 138.35 1.97768 0.878444 0
M  V30 1468 C 138.945 2.34827 -2.44217 0
M  V30 1469 C 137.504 2.88371 -2.41907 0
M  V30 1470 C 136.651 1.62202 -2.24913 0
M  V30 1471 H 139.602 0.507944 -1.50352 0
M  V30 1472 H 139.623 3.15749 -2.12327 0
M  V30 1473 H 139.135 1.85996 -3.40627 0
M  V30 1474 H 137.236 3.41422 -1.49204 0
M  V30 1475 H 137.349 3.39925 -3.37621 0
M  V30 1476 H 135.713 1.874 -1.72492 0
M  V30 1477 H 136.496 1.15391 -3.23326 0
M  V30 1478 N 138.941 1.26152 0.944643 0
M  V30 1479 C 139.889 1.07215 2.06417 0
M  V30 1480 C 140.883 9.2007e-05 1.694 0
M  V30 1481 O 142.089 0.1565 1.79318 0
M  V30 1482 H 138.464 0.329837 0.675805 0
M  V30 1483 H 140.435 2.02099 2.19541 0
M  V30 1484 C 139.184 0.718197 3.40202 0
M  V30 1485 H 138.507 1.53497 3.69159 0
M  V30 1486 H 139.947 0.625459 4.19361 0
M  V30 1487 C 138.406 -0.576435 3.31932 0
M  V30 1488 O 138.936 -1.61574 3.67773 0
M  V30 1489 N 137.142 -0.565781 2.85039 0
M  V30 1490 H 136.689 0.280367 2.5607 0
M  V30 1491 H 136.647 -1.43213 2.79888 0
M  V30 1492 N 140.419 -1.14872 1.07899 0
M  V30 1493 C 141.696 -1.81928 0.71845 0
M  V30 1494 C 142.076 -1.95417 -0.798455 0
M  V30 1495 O 141.424 -1.50997 -1.715 0
M  V30 1496 C 141.634 -3.17937 1.43935 0
M  V30 1497 C 142.982 -3.93501 1.59506 0
M  V30 1498 O 144.006 -3.27509 1.40058 0
M  V30 1499 O 142.865 -5.1183 1.91551 0
M  V30 1500 H 139.959 -0.78628 0.256305 0
M  V30 1501 H 142.505 -1.21934 1.18026 0
M  V30 1502 H 141.277 -3.0325 2.47295 0
M  V30 1503 H 140.9 -3.85619 0.968687 0
M  V30 1504 N 141.898 -0.863906 -1.31812 0
M  V30 1505 C 143.128 -0.485406 -2.00817 0
M  V30 1506 C 143.536 0.925007 -1.65046 0
M  V30 1507 O 142.879 1.61653 -0.872574 0
M  V30 1508 C 142.941 -0.555589 -3.55181 0
M  V30 1509 C 142.605 -1.92654 -4.14407 0
M  V30 1510 C 143.602 -2.89324 -4.31958 0
M  V30 1511 C 141.287 -2.2262 -4.50273 0
M  V30 1512 C 143.281 -4.14108 -4.84555 0
M  V30 1513 C 140.968 -3.47654 -5.02573 0
M  V30 1514 C 141.966 -4.43214 -5.19664 0
M  V30 1515 O 141.654 -5.66033 -5.70843 0
M  V30 1516 H 141.386 -0.188224 -0.649267 0
M  V30 1517 H 143.94 -1.16514 -1.69156 0
M  V30 1518 H 142.17 0.181037 -3.86276 0
M  V30 1519 H 143.859 -0.19138 -4.05449 0
M  V30 1520 H 144.625 -2.6748 -4.04573 0
M  V30 1521 H 140.504 -1.4902 -4.3625 0
M  V30 1522 H 144.048 -4.88703 -4.9781 0
M  V30 1523 H 139.945 -3.69345 -5.29391 0
M  V30 1524 H 140.713 -5.6812 -5.89222 0
M  V30 1525 N 143.376 1.44774 -0.622745 0
M  V30 1526 C 144.653 1.95522 -0.0551974 0
M  V30 1527 C 145.033 1.5649 1.41683 0
M  V30 1528 O 144.381 0.834848 2.12703 0
M  V30 1529 C 144.591 3.4796 -0.269242 0
M  V30 1530 C 145.939 4.24306 -0.158014 0
M  V30 1531 O 146.963 3.55637 -0.200162 0
M  V30 1532 O 145.822 5.46471 -0.0558693 0
M  V30 1533 H 142.916 0.826556 0.0271015 0
M  V30 1534 H 145.462 1.54866 -0.693864 0
M  V30 1535 H 144.234 3.6939 -1.29099 0
M  V30 1536 H 143.857 3.95543 0.403966 0
M  V30 1537 N 144.854 0.36279 1.53368 0
M  V30 1538 C 146.101 -0.227776 2.01215 0
M  V30 1539 C 146.429 -1.49003 1.25014 0
M  V30 1540 O 145.684 -1.92876 0.331236 0
M  V30 1541 C 145.983 -0.568417 3.52851 0
M  V30 1542 C 145.649 0.59918 4.46901 0
M  V30 1543 C 144.311 0.919559 4.72332 0
M  V30 1544 C 146.663 1.38156 5.02556 0
M  V30 1545 C 143.991 2.02434 5.5067 0
M  V30 1546 C 146.343 2.47674 5.821 0
M  V30 1547 C 145.007 2.8025 6.05819 0
M  V30 1548 H 144.277 -0.083349 0.736297 0
M  V30 1549 H 146.924 0.494677 1.85001 0
M  V30 1550 H 145.229 -1.37185 3.66998 0
M  V30 1551 H 146.926 -1.03756 3.87344 0
M  V30 1552 H 143.516 0.339437 4.27254 0
M  V30 1553 H 147.7 1.14729 4.82857 0
M  V30 1554 H 142.956 2.28075 5.67267 0
M  V30 1555 H 147.13 3.08716 6.24234 0
M  V30 1556 H 144.757 3.65979 6.66306 0
M  V30 1557 N 146.332 -1.57332 0.0918853 0
M  V30 1558 C 147.557 -1.98995 -0.584442 0
M  V30 1559 C 147.982 -0.970528 -1.61128 0
M  V30 1560 O 147.34 0.0613904 -1.81196 0
M  V30 1561 C 147.388 -3.39636 -1.21161 0
M  V30 1562 O 146.492 -3.40447 -2.32744 0
M  V30 1563 H 145.833 -0.647165 -0.148572 0
M  V30 1564 H 148.363 -2.03873 0.172347 0
M  V30 1565 H 148.373 -3.7726 -1.55367 0
M  V30 1566 H 147.048 -4.13356 -0.459313 0
M  V30 1567 H 145.625 -3.14614 -2.0018 0
M  V30 1568 N 147.81 0.181792 -1.56548 0
M  V30 1569 C 148.757 1.22521 -1.95595 0
M  V30 1570 C 149.727 1.4454 -0.818373 0
M  V30 1571 O 150.912 1.57454 -1.07763 0
M  V30 1572 C 148.052 2.56193 -2.31212 0
M  V30 1573 C 147.165 2.41641 -3.58097 0
M  V30 1574 C 146.3 3.68108 -3.82975 0
M  V30 1575 C 145.339 3.48445 -5.03242 0
M  V30 1576 N 144.476 4.66956 -5.24306 0
M  V30 1577 H 149.316 0.885226 -2.84548 0
M  V30 1578 H 146.853 0.425718 -1.40805 0
M  V30 1579 H 148.811 3.34088 -2.49882 0
M  V30 1580 H 147.441 2.88208 -1.45382 0
M  V30 1581 H 146.493 1.54976 -3.474 0
M  V30 1582 H 147.805 2.23052 -4.46149 0
M  V30 1583 H 146.959 4.54441 -4.01956 0
M  V30 1584 H 145.698 3.89666 -2.93278 0
M  V30 1585 H 144.703 2.60499 -4.8417 0
M  V30 1586 H 145.928 3.2832 -5.9446 0
M  V30 1587 H 143.874 4.88752 -4.37559 0
M  V30 1588 H 143.791 4.51242 -6.06561 0
M  V30 1589 H 145.059 5.54602 -5.47756 0
M  V30 1590 N 149.288 1.51039 0.449983 0
M  V30 1591 C 150.218 1.74379 1.55288 0
M  V30 1592 C 151.199 0.593236 1.5942 0
M  V30 1593 O 152.384 0.834625 1.7535 0
M  V30 1594 C 149.514 1.85728 2.93466 0
M  V30 1595 C 148.468 3.01078 3.04197 0
M  V30 1596 C 147.794 2.97595 4.44231 0
M  V30 1597 C 149.094 4.41254 2.7945 0
M  V30 1598 H 150.788 2.66725 1.36008 0
M  V30 1599 H 148.334 1.2835 0.652864 0
M  V30 1600 H 150.287 2.0064 3.70569 0
M  V30 1601 H 149.011 0.900207 3.13949 0
M  V30 1602 H 147.67 2.85851 2.29531 0
M  V30 1603 H 147.318 1.99691 4.61663 0
M  V30 1604 H 147.018 3.75046 4.52343 0
M  V30 1605 H 148.542 3.14583 5.23326 0
M  V30 1606 H 149.956 4.56897 3.46292 0
M  V30 1607 H 148.353 5.20315 2.98985 0
M  V30 1608 H 149.423 4.52164 1.75144 0
M  V30 1609 N 150.766 -0.704594 1.40972 0
M  V30 1610 C 151.996 -1.49138 1.42974 0
M  V30 1611 C 152.404 -1.89175 0.0308406 0
M  V30 1612 O 151.747 -1.56734 -0.958138 0
M  V30 1613 C 151.809 -2.79016 2.26694 0
M  V30 1614 C 151.473 -2.61236 3.74973 0
M  V30 1615 C 152.47 -2.27773 4.67349 0
M  V30 1616 C 150.155 -2.77158 4.18914 0
M  V30 1617 C 152.149 -2.10457 6.01653 0
M  V30 1618 C 149.836 -2.59459 5.53285 0
M  V30 1619 C 150.834 -2.26158 6.4447 0
M  V30 1620 O 150.522 -2.08605 7.76363 0
M  V30 1621 H 150.254 -0.466443 0.489292 0
M  V30 1622 H 152.808 -0.8758 1.85793 0
M  V30 1623 H 151.038 -3.42947 1.78673 0
M  V30 1624 H 152.727 -3.40782 2.20504 0
M  V30 1625 H 153.493 -2.15095 4.34694 0
M  V30 1626 H 149.372 -3.02064 3.48251 0
M  V30 1627 H 152.916 -1.84387 6.72791 0
M  V30 1628 H 148.813 -2.71725 5.85522 0
M  V30 1629 H 149.581 -2.23439 7.87412 0
M  V30 1630 N 152.244 -1.26651 -0.937939 0
M  V30 1631 C 153.49 -1.13562 -1.68746 0
M  V30 1632 C 153.845 0.317241 -1.89767 0
M  V30 1633 O 153.138 1.22939 -1.46957 0
M  V30 1634 C 153.332 -1.84168 -3.06295 0
M  V30 1635 C 153.161 -3.36171 -2.98696 0
M  V30 1636 C 151.931 -4.05468 -3.01535 0
M  V30 1637 C 154.129 -4.32312 -2.78588 0
M  V30 1638 N 152.111 -5.44118 -2.84269 0
M  V30 1639 C 153.482 -5.58159 -2.69924 0
M  V30 1640 C 155.537 -4.22524 -2.63396 0
M  V30 1641 C 154.24 -6.75335 -2.47618 0
M  V30 1642 C 156.266 -5.39411 -2.42466 0
M  V30 1643 C 155.628 -6.64208 -2.34536 0
M  V30 1644 H 151.727 -0.470361 -0.624728 0
M  V30 1645 H 154.311 -1.59982 -1.10968 0
M  V30 1646 H 152.482 -1.40219 -3.62206 0
M  V30 1647 H 154.214 -1.63674 -3.70126 0
M  V30 1648 H 150.969 -3.56854 -3.11372 0
M  V30 1649 H 151.393 -6.1693 -2.78795 0
M  V30 1650 H 156.035 -3.26771 -2.68292 0
M  V30 1651 H 153.753 -7.71182 -2.41463 0
M  V30 1652 H 157.339 -5.33711 -2.31611 0
M  V30 1653 H 156.219 -7.53129 -2.18555 0
M  V30 1654 N 153.722 1.14298 -1.08507 0
M  V30 1655 C 154.97 1.84993 -0.813763 0
M  V30 1656 C 155.291 1.83405 0.662393 0
M  V30 1657 O 154.561 1.28319 1.48024 0
M  V30 1658 H 153.141 0.684966 -0.298045 0
M  V30 1659 H 155.803 1.385 -1.37126 0
M  V30 1660 H 154.899 2.89788 -1.15884 0
M  V30 1661 N 155.201 0.870884 1.31352 0
M  V30 1662 C 156.164 0.332243 2.26779 0
M  V30 1663 C 157.164 -0.517302 1.52252 0
M  V30 1664 O 158.354 -0.326477 1.71113 0
M  V30 1665 C 155.486 -0.528066 3.36785 0
M  V30 1666 H 156.679 1.17469 2.75937 0
M  V30 1667 H 154.232 0.64655 1.423 0
M  V30 1668 H 154.967 -1.39167 2.92922 0
M  V30 1669 H 154.752 0.0802582 3.92018 0
M  V30 1670 H 156.242 -0.897179 4.07849 0
M  V30 1671 N 156.679 -1.44442 0.630414 0
M  V30 1672 C 157.626 -2.30678 -0.0749355 0
M  V30 1673 C 158.596 -1.4344 -0.837502 0
M  V30 1674 O 159.781 -1.72343 -0.818684 0
M  V30 1675 C 156.921 -3.28706 -1.05103 0
M  V30 1676 C 156.034 -4.31046 -0.286954 0
M  V30 1677 C 155.169 -5.16167 -1.2548 0
M  V30 1678 C 154.208 -6.10216 -0.479843 0
M  V30 1679 N 153.345 -6.88039 -1.39811 0
M  V30 1680 H 158.185 -2.90454 0.666386 0
M  V30 1681 H 155.722 -1.43107 0.340404 0
M  V30 1682 H 157.68 -3.84027 -1.63031 0
M  V30 1683 H 156.31 -2.70632 -1.75949 0
M  V30 1684 H 155.362 -3.78203 0.408243 0
M  V30 1685 H 156.674 -4.97794 0.316657 0
M  V30 1686 H 155.828 -5.76002 -1.90544 0
M  V30 1687 H 154.567 -4.49491 -1.89233 0
M  V30 1688 H 153.572 -5.49491 0.184295 0
M  V30 1689 H 154.797 -6.78928 0.152965 0
M  V30 1690 H 152.743 -6.24032 -2.02287 0
M  V30 1691 H 152.66 -7.51223 -0.848508 0
M  V30 1692 H 153.928 -7.52397 -2.03762 0
M  V30 1693 N 158.157 -0.370918 -1.53173 0
M  V30 1694 C 159.387 0.217389 -2.05453 0
M  V30 1695 C 159.795 1.42568 -1.24382 0
M  V30 1696 O 159.138 1.81571 -0.278839 0
M  V30 1697 C 159.2 0.669827 -3.53205 0
M  V30 1698 C 158.864 -0.4225 -4.55043 0
M  V30 1699 C 159.861 -1.27407 -5.04047 0
M  V30 1700 C 157.546 -0.58427 -4.9889 0
M  V30 1701 C 159.54 -2.27271 -5.95505 0
M  V30 1702 C 157.227 -1.58627 -5.90153 0
M  V30 1703 C 158.225 -2.42892 -6.38351 0
M  V30 1704 O 157.913 -3.41382 -7.27814 0
M  V30 1705 H 157.645 0.0408171 -0.674767 0
M  V30 1706 H 160.199 -0.5292 -1.98466 0
M  V30 1707 H 158.429 1.4681 -3.57748 0
M  V30 1708 H 160.118 1.18173 -3.88317 0
M  V30 1709 H 160.884 -1.16031 -4.70916 0
M  V30 1710 H 156.763 0.061851 -4.60959 0
M  V30 1711 H 160.307 -2.93079 -6.33049 0
M  V30 1712 H 156.204 -1.70048 -6.22699 0
M  V30 1713 H 156.972 -3.37173 -7.45826 0
M  V30 1714 N 159.635 1.57281 -0.100228 0
M  V30 1715 C 160.583 2.15542 0.874328 0
M  V30 1716 C 161.577 1.09962 1.28859 0
M  V30 1717 O 162.783 1.28298 1.26252 0
M  V30 1718 H 159.158 0.689567 0.300003 0
M  V30 1719 H 161.129 2.96241 0.35829 0
M  V30 1720 C 159.878 2.75454 2.1218 0
M  V30 1721 H 159.201 3.56384 1.81193 0
M  V30 1722 H 160.641 3.19781 2.78417 0
M  V30 1723 C 159.1 1.71602 2.89921 0
M  V30 1724 O 159.63 1.15804 3.84646 0
M  V30 1725 N 157.836 1.41975 2.53558 0
M  V30 1726 H 157.383 1.87539 1.76598 0
M  V30 1727 H 157.341 0.727274 3.05873 0
M  V30 1728 N 161.113 -0.173488 1.56642 0
M  V30 1729 C 162.359 -0.891784 1.8214 0
M  V30 1730 C 162.692 -1.8199 0.677736 0
M  V30 1731 O 161.967 -1.91842 -0.320446 0
M  V30 1732 C 162.25 -1.68933 3.18015 0
M  V30 1733 C 162.103 -0.784487 4.42906 0
M  V30 1734 C 163.422 -2.65748 3.50808 0
M  V30 1735 H 160.541 -0.322761 0.662567 0
M  V30 1736 H 163.183 -0.158095 1.89341 0
M  V30 1737 H 161.333 -2.31482 3.12007 0
M  V30 1738 H 163.005 -0.172046 4.60979 0
M  V30 1739 H 161.248 -0.0924117 4.33702 0
M  V30 1740 H 161.919 -1.37799 5.34524 0
M  V30 1741 H 164.395 -2.13327 3.57255 0
M  V30 1742 H 163.271 -3.18619 4.4696 0
M  V30 1743 H 163.532 -3.45842 2.75401 0
M  V30 1744 N 162.591 -1.51276 -0.441967 0
M  V30 1745 C 163.816 -1.67799 -1.21895 0
M  V30 1746 C 164.241 -0.372864 -1.84367 0
M  V30 1747 O 163.599 0.666501 -1.68604 0
M  V30 1748 C 163.647 -2.79199 -2.28211 0
M  V30 1749 O 162.751 -2.42479 -3.33583 0
M  V30 1750 H 162.092 -0.559649 -0.357336 0
M  V30 1751 H 164.622 -1.97815 -0.522522 0
M  V30 1752 H 164.632 -3.03146 -2.73069 0
M  V30 1753 H 163.307 -3.73906 -1.82118 0
M  V30 1754 H 161.884 -2.29087 -2.94234 0
M  V30 1755 N 164.069 0.697108 -1.41344 0
M  V30 1756 C 165.318 1.45279 -1.39918 0
M  V30 1757 C 165.631 1.95597 -0.0109624 0
M  V30 1758 O 166.837 2.71208 0.125919 0
M  V30 1759 C 165.293 2.62695 -2.46007 0
M  V30 1760 C 164.901 2.19169 -3.90729 0
M  V30 1761 C 166.645 3.40336 -2.53715 0
M  V30 1762 C 164.552 3.33535 -4.88373 0
M  V30 1763 H 163.482 0.545692 -0.520323 0
M  V30 1764 H 166.133 0.756929 -1.67161 0
M  V30 1765 H 164.515 3.34541 -2.11892 0
M  V30 1766 H 165.689 1.54623 -4.34083 0
M  V30 1767 H 164.004 1.54525 -3.86666 0
M  V30 1768 H 166.601 4.2547 -3.2385 0
M  V30 1769 H 166.944 3.85418 -1.5735 0
M  V30 1770 H 167.477 2.75546 -2.86913 0
M  V30 1771 H 164.216 2.93468 -5.86137 0
M  V30 1772 H 163.736 3.96936 -4.49668 0
M  V30 1773 H 165.415 3.99335 -5.09059 0
M  V30 1774 N 165.547 1.27147 0.931209 0
M  V30 1775 C 166.772 1.16191 1.71797 0
M  V30 1776 C 167.197 -0.278004 1.86034 0
M  V30 1777 O 166.555 -1.20137 1.35782 0
M  V30 1778 C 166.603 1.84673 3.09723 0
M  V30 1779 O 165.707 1.14231 3.96264 0
M  V30 1780 H 165.048 0.404303 0.526721 0
M  V30 1781 H 167.578 1.68152 1.1656 0
M  V30 1782 H 167.588 1.91893 3.60057 0
M  V30 1783 H 166.263 2.89421 2.98677 0
M  V30 1784 H 164.84 1.15056 3.54706 0
M  V30 1785 N 167.025 -1.13721 1.09112 0
M  V30 1786 C 168.25 -1.89314 0.847053 0
M  V30 1787 C 168.675 -1.78416 -0.595774 0
M  V30 1788 O 168.033 -1.12942 -1.41823 0
M  V30 1789 C 168.081 -3.3701 1.28284 0
M  V30 1790 O 167.185 -4.10054 0.439267 0
M  V30 1791 H 166.526 -0.588745 0.307044 0
M  V30 1792 H 169.056 -1.43902 1.45442 0
M  V30 1793 H 169.066 -3.87834 1.26683 0
M  V30 1794 H 167.741 -3.4426 2.33363 0
M  V30 1795 H 166.318 -3.69266 0.519312 0
M  V30 1796 N 168.503 -0.877838 -1.30888 0
M  V30 1797 C 169.435 -0.296607 -2.27273 0
M  V30 1798 C 170.448 0.544799 -1.53414 0
M  V30 1799 O 171.637 0.365511 -1.74718 0
M  V30 1800 C 168.737 0.597481 -3.33592 0
M  V30 1801 C 167.91 -0.213251 -4.3688 0
M  V30 1802 C 166.969 0.610208 -5.2265 0
M  V30 1803 O 165.995 0.035441 -5.69189 0
M  V30 1804 N 167.197 1.92071 -5.47804 0
M  V30 1805 H 169.962 -1.12492 -2.77787 0
M  V30 1806 H 167.523 -0.740105 -1.43993 0
M  V30 1807 H 169.515 1.15425 -3.87891 0
M  V30 1808 H 168.085 1.32647 -2.83061 0
M  V30 1809 H 167.305 -0.951466 -3.82545 0
M  V30 1810 H 168.593 -0.769262 -5.02951 0
M  V30 1811 H 167.991 2.4107 -5.11763 0
M  V30 1812 H 166.548 2.42508 -6.05007 0
M  V30 1813 N 169.982 1.44106 -0.638065 0
M  V30 1814 C 171.207 2.0685 -0.150916 0
M  V30 1815 C 171.632 1.47417 1.16833 0
M  V30 1816 O 170.99 0.578264 1.71831 0
M  V30 1817 C 171.038 3.60555 -0.05708 0
M  V30 1818 O 170.142 4.00465 0.984972 0
M  V30 1819 H 169.483 0.658151 -0.0879399 0
M  V30 1820 H 172.013 1.84865 -0.876707 0
M  V30 1821 H 172.023 4.07789 0.131232 0
M  V30 1822 H 170.698 4.03193 -1.02021 0
M  V30 1823 H 169.275 3.64849 0.770672 0
M  V30 1824 N 171.46 0.379036 1.52974 0
M  V30 1825 C 172.408 -0.476033 2.27677 0
M  V30 1826 C 173.402 -1.0719 1.31174 0
M  V30 1827 O 174.608 -1.01355 1.48752 0
M  V30 1828 H 170.983 -0.172255 0.732006 0
M  V30 1829 H 172.954 0.175615 2.97883 0
M  V30 1830 C 171.703 -1.5967 3.0887 0
M  V30 1831 H 171.026 -1.1475 3.82978 0
M  V30 1832 H 172.466 -2.16943 3.64296 0
M  V30 1833 C 170.925 -2.54682 2.20542 0
M  V30 1834 O 171.455 -3.57836 1.82527 0
M  V30 1835 N 169.661 -2.24183 1.84907 0
M  V30 1836 H 169.208 -1.40333 2.1602 0
M  V30 1837 H 169.166 -2.88006 1.26096 0
M  V30 1838 N 172.938 -1.57226 0.108567 0
M  V30 1839 C 174.215 -1.86333 -0.594939 0
M  V30 1840 C 174.595 -1.00788 -1.85486 0
M  V30 1841 O 173.943 -0.0839293 -2.28346 0
M  V30 1842 C 174.153 -3.37265 -0.897405 0
M  V30 1843 C 175.501 -4.05629 -1.25501 0
M  V30 1844 O 176.525 -3.42224 -0.987998 0
M  V30 1845 O 175.384 -5.17531 -1.75567 0
M  V30 1846 H 172.478 -0.771018 -0.2991 0
M  V30 1847 H 175.024 -1.69102 0.142283 0
M  V30 1848 H 173.796 -3.913 -0.00413806 0
M  V30 1849 H 173.419 -3.59889 -1.69014 0
M  V30 1850 N 174.416 0.165178 -1.56732 0
M  V30 1851 C 175.641 0.900253 -1.86843 0
M  V30 1852 C 176.066 1.74766 -0.695596 0
M  V30 1853 O 175.424 1.77786 0.35522 0
M  V30 1854 C 175.472 1.74777 -3.15413 0
M  V30 1855 O 174.576 2.85007 -2.98068 0
M  V30 1856 H 173.917 0.251832 -0.614391 0
M  V30 1857 H 176.447 0.161468 -2.03962 0
M  V30 1858 H 176.457 2.14646 -3.46974 0
M  V30 1859 H 175.132 1.12537 -4.00385 0
M  V30 1860 H 173.709 2.48676 -2.77875 0
M  V30 1861 N 175.894 1.51508 0.433938 0
M  V30 1862 C 177.14 1.64588 1.18484 0
M  V30 1863 C 177.473 0.362666 1.90784 0
M  V30 1864 O 176.748 -0.637892 1.83742 0
M  V30 1865 C 177.031 2.85149 2.19913 0
M  V30 1866 C 176.884 4.23456 1.51674 0
M  V30 1867 C 178.203 3.01227 3.20858 0
M  V30 1868 H 175.322 0.598994 0.429389 0
M  V30 1869 H 177.964 1.84002 0.473647 0
M  V30 1870 H 176.114 2.68729 2.80566 0
M  V30 1871 H 177.786 4.51552 0.943322 0
M  V30 1872 H 176.029 4.25998 0.819035 0
M  V30 1873 H 176.7 5.03812 2.2556 0
M  V30 1874 H 179.176 3.16382 2.70263 0
M  V30 1875 H 178.052 3.87141 3.89118 0
M  V30 1876 H 178.313 2.13447 3.8716 0
M  V30 1877 N 177.372 -0.689602 1.41712 0
M  V30 1878 C 178.32 -1.82475 1.44242 0
M  V30 1879 C 179.314 -1.66354 0.319774 0
M  V30 1880 O 180.52 -1.73143 0.492089 0
M  V30 1881 H 176.895 -0.601416 0.451445 0
M  V30 1882 H 178.866 -1.77458 2.39899 0
M  V30 1883 C 177.615 -3.20535 1.3473 0
M  V30 1884 H 176.938 -3.33559 2.20405 0
M  V30 1885 H 178.378 -4.00023 1.40562 0
M  V30 1886 C 176.837 -3.36846 0.0603281 0
M  V30 1887 O 177.367 -3.91656 -0.892663 0
M  V30 1888 N 175.573 -2.90595 -0.0177039 0
M  V30 1889 H 175.12 -2.46178 0.758572 0
M  V30 1890 H 175.078 -3.01886 -0.878201 0
M  V30 1891 N 178.85 -1.27639 -0.924453 0
M  V30 1892 C 180.096 -1.14336 -1.67497 0
M  V30 1893 C 180.429 0.309465 -1.91718 0
M  V30 1894 O 179.704 1.22608 -1.50989 0
M  V30 1895 C 179.987 -1.93096 -3.0395 0
M  V30 1896 C 179.84 -3.46381 -2.8695 0
M  V30 1897 C 181.159 -1.73798 -4.0433 0
M  V30 1898 H 178.278 -0.416728 -0.607871 0
M  V30 1899 H 180.92 -1.56832 -1.07256 0
M  V30 1900 H 179.07 -1.56982 -3.55372 0
M  V30 1901 H 180.742 -3.92343 -2.42621 0
M  V30 1902 H 178.985 -3.72557 -2.22225 0
M  V30 1903 H 179.656 -3.96735 -3.83804 0
M  V30 1904 H 182.132 -2.05293 -3.61931 0
M  V30 1905 H 181.008 -2.31294 -4.97789 0
M  V30 1906 H 181.269 -0.686725 -4.36734 0
M  V30 1907 N 180.328 1.1314 -1.09713 0
M  V30 1908 C 181.574 1.84757 -0.836224 0
M  V30 1909 C 181.907 1.8347 0.636598 0
M  V30 1910 O 181.182 1.27491 1.46889 0
M  V30 1911 C 181.465 3.32782 -1.37578 0
M  V30 1912 C 181.318 3.42567 -2.91493 0
M  V30 1913 C 182.637 4.28307 -1.01198 0
M  V30 1914 H 179.756 0.67082 -0.305236 0
M  V30 1915 H 182.398 1.3278 -1.35903 0
M  V30 1916 H 180.548 3.77177 -0.931097 0
M  V30 1917 H 182.22 3.06862 -3.44432 0
M  V30 1918 H 180.463 2.83349 -3.28475 0
M  V30 1919 H 181.134 4.46674 -3.24324 0
M  V30 1920 H 183.61 3.91999 -1.39556 0
M  V30 1921 H 182.486 5.30307 -1.41653 0
M  V30 1922 H 182.747 4.42029 0.0794833 0
M  V30 1923 N 181.806 0.884767 1.30421 0
M  V30 1924 C 183.083 0.423185 1.90967 0
M  V30 1925 C 183.463 -1.09605 1.80416 0
M  V30 1926 O 182.811 -1.93126 1.22125 0
M  V30 1927 C 183.021 0.921056 3.36627 0
M  V30 1928 C 184.369 0.955903 4.137 0
M  V30 1929 O 185.393 0.867706 3.4547 0
M  V30 1930 O 184.252 1.08614 5.35598 0
M  V30 1931 H 181.346 0.129369 0.816819 0
M  V30 1932 H 183.892 0.973653 1.3899 0
M  V30 1933 H 182.664 1.96489 3.3839 0
M  V30 1934 H 182.287 0.349741 3.96059 0
M  V30 1935 N 183.284 -1.43765 0.645699 0
M  V30 1936 C 184.514 -2.05953 0.163318 0
M  V30 1937 C 184.922 -1.48432 -1.17322 0
M  V30 1938 O 184.265 -0.607295 -1.73371 0
M  V30 1939 C 184.327 -3.59499 -0.0103065 0
M  V30 1940 C 183.991 -4.39563 1.25035 0
M  V30 1941 C 184.988 -4.72108 2.17739 0
M  V30 1942 C 182.673 -4.79697 1.48983 0
M  V30 1943 C 184.667 -5.43688 3.3269 0
M  V30 1944 C 182.354 -5.51023 2.64229 0
M  V30 1945 C 183.352 -5.8294 3.55908 0
M  V30 1946 O 183.04 -6.5281 4.69142 0
M  V30 1947 H 182.772 -0.670798 0.0836986 0
M  V30 1948 H 185.326 -1.85384 0.884407 0
M  V30 1949 H 183.556 -3.78613 -0.78669 0
M  V30 1950 H 185.245 -4.03408 -0.449087 0
M  V30 1951 H 186.011 -4.41627 2.00476 0
M  V30 1952 H 181.89 -4.54266 0.785078 0
M  V30 1953 H 185.434 -5.68517 4.04269 0
M  V30 1954 H 181.331 -5.8092 2.81429 0
M  V30 1955 H 182.099 -6.71288 4.6831 0
M  V30 1956 N 184.763 -0.387143 -1.52771 0
M  V30 1957 C 185.726 0.436939 -2.24997 0
M  V30 1958 C 186.726 0.991991 -1.26555 0
M  V30 1959 O 187.916 0.874335 -1.50669 0
M  V30 1960 C 185.048 1.61281 -3.00335 0
M  V30 1961 H 186.241 -0.195365 -2.99263 0
M  V30 1962 H 183.794 -0.139218 -1.55679 0
M  V30 1963 H 184.529 2.2826 -2.30364 0
M  V30 1964 H 184.314 1.22154 -3.72587 0
M  V30 1965 H 185.804 2.19629 -3.5518 0
M  V30 1966 N 186.241 1.57166 -0.116904 0
M  V30 1967 C 187.652 1.82169 0.408809 0
M  V30 1968 C 188.003 1.03393 1.66746 0
M  V30 1969 O 187.128 0.269886 2.1471 0
M  V30 1970 C 187.723 3.30429 0.748466 0
M  V30 1971 C 186.282 3.5612 1.21882 0
M  V30 1972 C 185.429 2.76374 0.226452 0
M  V30 1973 H 188.38 1.5497 -0.342063 0
M  V30 1974 H 188.401 3.44943 1.60607 0
M  V30 1975 H 187.913 3.87737 -0.167784 0
M  V30 1976 H 186.014 3.04168 2.15204 0
M  V30 1977 H 186.127 4.64705 1.16559 0
M  V30 1978 H 184.491 2.44515 0.713063 0
M  V30 1979 H 185.274 3.3644 -0.682859 0
M  V30 1980 N 187.719 -0.156864 1.56817 0
M  V30 1981 C 188.666 -1.19394 1.97519 0
M  V30 1982 C 189.636 -1.4322 0.841265 0
M  V30 1983 O 190.821 -1.55719 1.10255 0
M  V30 1984 C 187.961 -2.52483 2.35258 0
M  V30 1985 C 187.074 -2.35914 3.61896 0
M  V30 1986 C 186.209 -3.61969 3.88782 0
M  V30 1987 C 185.248 -3.40395 5.08722 0
M  V30 1988 N 184.385 -4.58556 5.31668 0
M  V30 1989 H 189.225 -0.839845 2.85921 0
M  V30 1990 H 186.762 -0.403264 1.41464 0
M  V30 1991 H 188.72 -3.30071 2.55165 0
M  V30 1992 H 187.35 -2.85859 1.49949 0
M  V30 1993 H 186.402 -1.49429 3.49821 0
M  V30 1994 H 187.714 -2.15926 4.49641 0
M  V30 1995 H 186.868 -4.47989 4.09135 0
M  V30 1996 H 185.607 -3.84951 2.9944 0
M  V30 1997 H 184.612 -2.52763 4.88253 0
M  V30 1998 H 185.837 -3.18822 5.99608 0
M  V30 1999 H 183.783 -4.81729 4.45279 0
M  V30 2000 H 183.7 -4.41535 6.13664 0
M  V30 2001 H 184.968 -5.45817 5.5651 0
M  V30 2002 N 189.197 -1.51736 -0.425897 0
M  V30 2003 C 190.145 -1.74464 -1.53834 0
M  V30 2004 C 191.139 -0.611241 -1.57988 0
M  V30 2005 O 192.345 -0.792899 -1.61596 0
M  V30 2006 H 188.72 -0.551437 -0.511293 0
M  V30 2007 H 190.691 -2.67694 -1.31843 0
M  V30 2008 C 189.44 -1.8972 -2.91379 0
M  V30 2009 H 188.763 -2.76344 -2.88919 0
M  V30 2010 H 190.203 -2.09629 -3.68553 0
M  V30 2011 C 188.662 -0.65992 -3.30374 0
M  V30 2012 O 189.192 0.180083 -4.01296 0
M  V30 2013 N 187.398 -0.500677 -2.86254 0
M  V30 2014 H 186.945 -1.18532 -2.28709 0
M  V30 2015 H 186.903 0.325903 -3.12706 0
M  V30 2016 N 190.675 0.682077 -1.42076 0
M  V30 2017 C 191.607 1.80755 -1.40926 0
M  V30 2018 C 192.62 1.59833 -0.309398 0
M  V30 2019 O 193.809 1.69087 -0.572014 0
M  V30 2020 C 190.909 3.17744 -1.17865 0
M  V30 2021 C 190.082 3.65578 -2.40149 0
M  V30 2022 C 189.141 4.81277 -2.12742 0
M  V30 2023 O 188.167 4.92197 -2.85887 0
M  V30 2024 N 189.369 5.69474 -1.12602 0
M  V30 2025 H 192.134 1.82229 -2.37935 0
M  V30 2026 H 189.695 0.864903 -1.36861 0
M  V30 2027 H 191.687 3.9279 -0.9746 0
M  V30 2028 H 190.257 3.11214 -0.294068 0
M  V30 2029 H 189.477 2.81291 -2.76169 0
M  V30 2030 H 190.765 3.94278 -3.21593 0
M  V30 2031 H 190.163 5.63297 -0.520899 0
M  V30 2032 H 188.72 6.44363 -0.981842 0
M  V30 2033 N 192.153 1.28127 0.917671 0
M  V30 2034 C 193.101 1.11569 2.04096 0
M  V30 2035 C 194.095 0.0360242 1.69362 0
M  V30 2036 O 195.301 0.194501 1.78946 0
M  V30 2037 H 191.676 0.344097 0.668656 0
M  V30 2038 H 193.647 2.06711 2.15205 0
M  V30 2039 C 192.396 0.790197 3.38602 0
M  V30 2040 H 191.719 1.61293 3.6582 0
M  V30 2041 H 193.159 0.714271 4.1794 0
M  V30 2042 C 191.618 -0.505897 3.3308 0
M  V30 2043 O 192.148 -1.53736 3.71117 0
M  V30 2044 N 190.354 -0.505193 2.86175 0
M  V30 2045 H 189.901 0.334621 2.55417 0
M  V30 2046 H 189.859 -1.37243 2.82863 0
M  V30 2047 N 193.631 -1.12557 1.10312 0
M  V30 2048 C 194.541 -2.21841 0.763142 0
M  V30 2049 C 195.557 -1.72354 -0.238801 0
M  V30 2050 O 196.733 -2.01249 -0.0778746 0
M  V30 2051 C 193.798 -3.46131 0.198632 0
M  V30 2052 C 192.859 -4.10464 1.25769 0
M  V30 2053 C 192.092 -5.28821 0.72002 0
M  V30 2054 O 192.315 -5.6859 -0.453993 0
M  V30 2055 O 191.249 -5.83437 1.47935 0
M  V30 2056 H 195.075 -2.53312 1.67532 0
M  V30 2057 H 192.66 -1.20867 0.878157 0
M  V30 2058 H 194.542 -4.2125 -0.112401 0
M  V30 2059 H 193.217 -3.16338 -0.686419 0
M  V30 2060 H 192.124 -3.3713 1.62156 0
M  V30 2061 H 193.457 -4.44408 2.11571 0
M  V30 2062 N 195.109 -0.891671 -1.2995 0
M  V30 2063 C 196.019 -0.367691 -2.31701 0
M  V30 2064 C 197.035 0.533486 -1.6562 0
M  V30 2065 O 198.211 0.424997 -1.96865 0
M  V30 2066 C 195.276 0.403406 -3.44345 0
M  V30 2067 C 194.337 -0.528328 -4.26037 0
M  V30 2068 C 193.57 0.206063 -5.33302 0
M  V30 2069 O 193.793 1.43119 -5.52153 0
M  V30 2070 O 192.727 -0.447281 -6.00236 0
M  V30 2071 H 196.553 -1.21163 -2.78484 0
M  V30 2072 H 194.138 -0.655725 -1.34241 0
M  V30 2073 H 196.02 0.839753 -4.12948 0
M  V30 2074 H 194.695 1.22354 -2.99685 0
M  V30 2075 H 193.602 -1.01362 -3.60106 0
M  V30 2076 H 194.935 -1.31465 -4.74318 0
M  V30 2077 N 196.587 1.43421 -0.653314 0
M  V30 2078 C 197.834 2.01812 -0.166745 0
M  V30 2079 C 198.162 1.51535 1.21931 0
M  V30 2080 O 197.417 0.698975 1.82792 0
M  V30 2081 C 197.716 3.57176 -0.126623 0
M  V30 2082 C 197.382 4.26798 -1.45444 0
M  V30 2083 C 196.044 4.45534 -1.81805 0
M  V30 2084 C 198.396 4.66225 -2.32989 0
M  V30 2085 C 195.724 5.00961 -3.05377 0
M  V30 2086 C 198.076 5.23021 -3.55853 0
M  V30 2087 C 196.74 5.39973 -3.9241 0
M  V30 2088 H 196.01 0.738484 -0.0610162 0
M  V30 2089 H 198.657 1.71896 -0.84404 0
M  V30 2090 H 196.962 3.86634 0.634123 0
M  V30 2091 H 198.659 4.00112 0.266723 0
M  V30 2092 H 195.249 4.12561 -1.16153 0
M  V30 2093 H 199.433 4.51443 -2.06187 0
M  V30 2094 H 194.689 5.12271 -3.3375 0
M  V30 2095 H 198.863 5.52518 -4.23907 0
M  V30 2096 H 196.49 5.82687 -4.88242 0
M  V30 2097 N 198.065 0.39524 1.52563 0
M  V30 2098 C 198.997 -0.472201 2.24283 0
M  V30 2099 C 200.01 -1.02178 1.26742 0
M  V30 2100 O 201.199 -0.923097 1.52778 0
M  V30 2101 C 198.299 -1.66775 2.95024 0
M  V30 2102 C 197.472 -1.2445 4.19322 0
M  V30 2103 C 196.531 -2.30539 4.7301 0
M  V30 2104 O 195.557 -1.91702 5.35947 0
M  V30 2105 N 196.759 -3.6253 4.53379 0
M  V30 2106 H 199.524 0.142282 2.99362 0
M  V30 2107 H 197.085 0.2219 1.60372 0
M  V30 2108 H 199.077 -2.37283 3.27839 0
M  V30 2109 H 197.647 -2.18845 2.23217 0
M  V30 2110 H 196.867 -0.368069 3.92478 0
M  V30 2111 H 198.155 -0.938457 5.0007 0
M  V30 2112 H 197.553 -3.96841 4.03154 0
M  V30 2113 H 196.11 -4.29055 4.90668 0
M  V30 2114 N 199.544 -1.57102 0.125237 0
M  V30 2115 C 200.79 -1.95697 -0.532035 0
M  V30 2116 C 201.123 -1.009 -1.6593 0
M  V30 2117 O 200.398 -0.047347 -1.94442 0
M  V30 2118 C 200.681 -3.44181 -1.05884 0
M  V30 2119 C 200.534 -4.49752 0.0654392 0
M  V30 2120 C 201.853 -3.94655 -1.9477 0
M  V30 2121 H 198.972 -0.711571 -0.191925 0
M  V30 2122 H 201.614 -1.88923 0.20206 0
M  V30 2123 H 199.764 -3.50085 -1.68442 0
M  V30 2124 H 201.436 -4.55943 0.700982 0
M  V30 2125 H 199.679 -4.27653 0.727709 0
M  V30 2126 H 200.35 -5.50924 -0.344505 0
M  V30 2127 H 202.826 -3.91094 -1.42074 0
M  V30 2128 H 201.702 -4.99057 -2.28546 0
M  V30 2129 H 201.963 -3.35718 -2.87656 0
M  V30 2130 N 201.022 0.148545 -1.56898 0
M  V30 2131 C 201.954 1.20852 -1.9475 0
M  V30 2132 C 202.967 1.39265 -0.843152 0
M  V30 2133 O 204.156 1.38864 -1.12156 0
M  V30 2134 C 201.256 2.57362 -2.20495 0
M  V30 2135 C 200.429 2.59947 -3.51776 0
M  V30 2136 C 199.488 3.77984 -3.6608 0
M  V30 2137 O 198.514 3.62929 -4.38487 0
M  V30 2138 N 199.716 4.95375 -3.02629 0
M  V30 2139 H 202.481 0.886804 -2.86279 0
M  V30 2140 H 200.042 0.338121 -1.5833 0
M  V30 2141 H 202.034 3.34833 -2.27307 0
M  V30 2142 H 200.604 2.81832 -1.35238 0
M  V30 2143 H 199.824 1.68403 -3.56419 0
M  V30 2144 H 201.112 2.58704 -4.38121 0
M  V30 2145 H 200.51 5.10509 -2.43715 0
M  V30 2146 H 199.067 5.70627 -3.15004 0
M  V30 2147 N 202.5 1.5196 0.417844 0
M  V30 2148 C 203.448 1.75278 1.52907 0
M  V30 2149 C 204.442 0.619611 1.57662 0
M  V30 2150 O 205.648 0.801457 1.61173 0
M  V30 2151 H 202.023 0.554141 0.508362 0
M  V30 2152 H 203.994 2.68389 1.30422 0
M  V30 2153 C 202.743 1.91262 2.90369 0
M  V30 2154 H 202.066 2.77872 2.8745 0
M  V30 2155 H 203.506 2.11581 3.67436 0
M  V30 2156 C 201.965 0.677431 3.30019 0
M  V30 2157 O 202.495 -0.158799 4.01386 0
M  V30 2158 N 200.701 0.515851 2.85985 0
M  V30 2159 H 200.248 1.19744 2.28077 0
M  V30 2160 H 200.206 -0.309315 3.12875 0
M  V30 2161 N 203.978 -0.674533 1.42435 0
M  V30 2162 C 205.206 -1.46283 1.46317 0
M  V30 2163 C 205.621 -1.88653 0.0745836 0
M  V30 2164 O 204.978 -1.58151 -0.91074 0
M  V30 2165 C 205.029 -2.71178 2.3905 0
M  V30 2166 O 204.75 -2.30586 3.72507 0
M  V30 2167 C 206.251 -3.64738 2.51955 0
M  V30 2168 H 203.471 -0.450104 0.497642 0
M  V30 2169 H 206.015 -0.828792 1.86953 0
M  V30 2170 H 204.17 -3.3077 2.01667 0
M  V30 2171 H 204.584 -3.11241 4.22172 0
M  V30 2172 H 206.058 -4.49096 3.20962 0
M  V30 2173 H 206.535 -4.10656 1.55752 0
M  V30 2174 H 207.141 -3.11038 2.90061 0
M  V30 2175 N 205.456 -1.28612 -0.910864 0
M  V30 2176 C 206.386 -1.15326 -2.03032 0
M  V30 2177 C 207.367 -0.0502924 -1.70026 0
M  V30 2178 O 208.552 -0.227797 -1.92859 0
M  V30 2179 C 205.682 -0.817343 -3.37545 0
M  V30 2180 C 204.636 -1.8754 -3.84724 0
M  V30 2181 C 203.962 -1.39305 -5.16235 0
M  V30 2182 C 205.262 -3.28244 -4.06267 0
M  V30 2183 H 206.956 -2.08975 -2.14406 0
M  V30 2184 H 204.502 -1.00612 -1.03021 0
M  V30 2185 H 206.455 -0.711151 -4.15356 0
M  V30 2186 H 205.179 0.154846 -3.26233 0
M  V30 2187 H 203.838 -1.97079 -3.09121 0
M  V30 2188 H 203.486 -0.409846 -5.01328 0
M  V30 2189 H 203.186 -2.10057 -5.48771 0
M  V30 2190 H 204.71 -1.30014 -5.96598 0
M  V30 2191 H 206.124 -3.21611 -4.74594 0
M  V30 2192 H 204.521 -3.96855 -4.5014 0
M  V30 2193 H 205.591 -3.72048 -3.10979 0
M  V30 2194 N 206.934 1.1197 -1.10907 0
M  V30 2195 C 208.182 1.83225 -0.852819 0
M  V30 2196 C 208.503 1.84769 0.623341 0
M  V30 2197 O 207.773 1.3143 1.45269 0
M  V30 2198 H 206.353 0.67849 -0.312507 0
M  V30 2199 H 209.015 1.3556 -1.40033 0
M  V30 2200 H 208.111 2.87265 -1.22005 0
M  V30 2201 N 208.412 0.89855 1.29475 0
M  V30 2202 C 209.642 0.538479 1.99459 0
M  V30 2203 C 210.05 -0.880922 1.67441 0
M  V30 2204 O 209.393 -1.59283 0.915127 0
M  V30 2205 C 209.455 0.649564 3.53583 0
M  V30 2206 C 209.119 2.03573 4.09154 0
M  V30 2207 C 210.116 3.00675 4.24135 0
M  V30 2208 C 207.801 2.3448 4.44212 0
M  V30 2209 C 209.795 4.26809 4.73405 0
M  V30 2210 C 207.482 3.60857 4.93179 0
M  V30 2211 C 208.48 4.56836 5.0773 0
M  V30 2212 O 208.168 5.80969 5.55635 0
M  V30 2213 H 207.9 0.205372 0.644048 0
M  V30 2214 H 210.454 1.20958 1.66007 0
M  V30 2215 H 208.684 -0.0785592 3.8662 0
M  V30 2216 H 210.373 0.29881 4.04799 0
M  V30 2217 H 211.139 2.78112 3.97339 0
M  V30 2218 H 207.018 1.60534 4.32145 0
M  V30 2219 H 210.562 5.0173 4.84678 0
M  V30 2220 H 206.459 3.83251 5.19412 0
M  V30 2221 H 207.227 5.83542 5.73952 0
M  V30 2222 N 209.89 -1.43072 0.660911 0
M  V30 2223 C 211.118 -2.06067 0.185422 0
M  V30 2224 C 211.533 -1.49582 -1.15198 0
M  V30 2225 O 210.89 -0.630134 -1.71276 0
M  V30 2226 C 210.941 -3.61371 0.0966523 0
M  V30 2227 O 210.662 -4.15758 1.38119 0
M  V30 2228 C 212.163 -4.41455 -0.403996 0
M  V30 2229 H 209.383 -0.664459 0.0934604 0
M  V30 2230 H 211.927 -1.83447 0.90373 0
M  V30 2231 H 210.082 -3.8315 -0.572259 0
M  V30 2232 H 210.496 -5.09499 1.24542 0
M  V30 2233 H 211.97 -5.50437 -0.415045 0
M  V30 2234 H 212.447 -4.15036 -1.43674 0
M  V30 2235 H 213.053 -4.24663 0.232691 0
M  V30 2236 N 211.368 -0.403325 -1.52352 0
M  V30 2237 C 212.615 0.174347 -2.01748 0
M  V30 2238 C 212.943 1.45636 -1.2892 0
M  V30 2239 O 212.198 1.9193 -0.382258 0
M  V30 2240 C 212.497 0.474665 -3.54234 0
M  V30 2241 C 212.163 -0.717458 -4.45155 0
M  V30 2242 C 210.825 -1.04447 -4.69728 0
M  V30 2243 C 213.177 -1.51432 -4.98716 0
M  V30 2244 C 210.505 -2.16963 -5.45109 0
M  V30 2245 C 212.857 -2.6302 -5.75329 0
M  V30 2246 C 211.521 -2.96213 -5.98175 0
M  V30 2247 H 210.791 0.0637981 -0.738248 0
M  V30 2248 H 213.438 -0.543553 -1.83624 0
M  V30 2249 H 211.743 1.27406 -3.70506 0
M  V30 2250 H 213.44 0.934496 -3.89959 0
M  V30 2251 H 210.03 -0.452596 -4.26204 0
M  V30 2252 H 214.214 -1.27491 -4.79645 0
M  V30 2253 H 209.47 -2.43034 -5.61021 0
M  V30 2254 H 213.644 -3.25158 -6.15829 0
M  V30 2255 H 211.271 -3.83516 -6.56368 0
M  V30 2256 N 212.846 1.57033 -0.133567 0
M  V30 2257 C 214.094 1.953 0.519848 0
M  V30 2258 C 214.415 1.01866 1.66278 0
M  V30 2259 O 213.685 0.0776513 1.95746 0
M  V30 2260 H 212.265 0.721091 0.195032 0
M  V30 2261 H 214.927 1.93809 -0.205921 0
M  V30 2262 H 214.023 2.98695 0.904854 0
M  V30 2263 N 214.325 -0.140222 1.56975 0
M  V30 2264 C 215.573 -0.850005 1.83356 0
M  V30 2265 C 215.894 -1.81399 0.71551 0
M  V30 2266 O 215.164 -1.94136 -0.262294 0
M  V30 2267 H 213.744 -0.316886 0.676456 0
M  V30 2268 H 216.406 -0.132608 1.94448 0
M  V30 2269 H 215.502 -1.40814 2.78528 0
M  V30 2270 N 215.803 -1.52179 -0.40978 0
M  V30 2271 C 217.08 -1.56769 -1.16974 0
M  V30 2272 C 217.46 -0.348322 -2.08206 0
M  V30 2273 O 216.808 0.664862 -2.18613 0
M  V30 2274 C 217.018 -2.89603 -1.9476 0
M  V30 2275 C 218.366 -3.42579 -2.50849 0
M  V30 2276 O 219.39 -2.91338 -2.04941 0
M  V30 2277 O 218.249 -4.32054 -3.34652 0
M  V30 2278 H 215.343 -0.631439 -0.534054 0
M  V30 2279 H 217.889 -1.64507 -0.416613 0
M  V30 2280 H 216.661 -3.698 -1.27921 0
M  V30 2281 H 216.284 -2.85155 -2.77079 0
M  V30 2282 N 217.281 0.66697 -1.42791 0
M  V30 2283 C 218.53 1.42278 -1.42968 0
M  V30 2284 C 218.843 1.9553 -0.0524489 0
M  V30 2285 O 220.049 2.71414 0.068363 0
M  V30 2286 C 218.505 2.57418 -2.51524 0
M  V30 2287 C 218.113 2.10832 -3.9529 0
M  V30 2288 C 219.857 3.34878 -2.60877 0
M  V30 2289 C 217.764 3.23101 -4.95338 0
M  V30 2290 H 216.694 0.534533 -0.531781 0
M  V30 2291 H 219.345 0.721302 -1.68729 0
M  V30 2292 H 217.727 3.29971 -2.18941 0
M  V30 2293 H 218.901 1.4538 -4.37266 0
M  V30 2294 H 217.216 1.46289 -3.89857 0
M  V30 2295 H 219.813 4.18505 -3.32802 0
M  V30 2296 H 220.156 3.81993 -1.6549 0
M  V30 2297 H 220.689 2.69398 -2.92693 0
M  V30 2298 H 217.428 2.80969 -5.9223 0
M  V30 2299 H 216.948 3.87309 -4.57987 0
M  V30 2300 H 218.627 3.88447 -5.17415 0
M  V30 2301 N 218.759 1.29093 0.90403 0
M  V30 2302 C 219.984 1.19809 1.69294 0
M  V30 2303 C 220.409 -0.238481 1.86582 0
M  V30 2304 O 219.767 -1.1723 1.383 0
M  V30 2305 C 219.815 1.91202 3.05736 0
M  V30 2306 O 218.919 1.22611 3.93752 0
M  V30 2307 H 218.26 0.415385 0.518027 0
M  V30 2308 H 220.79 1.70586 1.12967 0
M  V30 2309 H 220.8 1.99487 3.55906 0
M  V30 2310 H 219.475 2.95692 2.92471 0
M  V30 2311 H 218.052 1.22554 3.52186 0
M  V30 2312 N 220.237 -1.11381 1.11499 0
M  V30 2313 C 221.486 -1.82494 0.858993 0
M  V30 2314 C 221.799 -1.85605 -0.617278 0
M  V30 2315 O 223.005 -2.52824 -0.989552 0
M  V30 2316 C 221.461 -3.27745 1.48699 0
M  V30 2317 C 221.069 -3.32961 2.99735 0
M  V30 2318 C 222.813 -4.03754 1.31085 0
M  V30 2319 C 220.72 -4.72612 3.55516 0
M  V30 2320 H 219.65 -0.683802 0.317696 0
M  V30 2321 H 222.301 -1.25331 1.34031 0
M  V30 2322 H 220.683 -3.84844 0.933339 0
M  V30 2323 H 221.857 -2.85741 3.61509 0
M  V30 2324 H 220.172 -2.70433 3.16631 0
M  V30 2325 H 222.769 -5.06891 1.70192 0
M  V30 2326 H 223.112 -4.15527 0.253496 0
M  V30 2327 H 223.645 -3.53043 1.83318 0
M  V30 2328 H 220.384 -4.66036 4.60967 0
M  V30 2329 H 219.904 -5.2024 2.98513 0
M  V30 2330 H 221.583 -5.4157 3.53992 0
M  V30 2331 N 221.715 -0.905404 -1.28997 0
M  V30 2332 C 222.94 -0.549175 -1.99997 0
M  V30 2333 C 223.365 0.860276 -1.67275 0
M  V30 2334 O 222.723 1.57355 -0.900502 0
M  V30 2335 C 222.771 -0.755185 -3.52604 0
M  V30 2336 O 221.875 0.189692 -4.11964 0
M  V30 2337 H 221.216 -0.213899 -0.628604 0
M  V30 2338 H 223.746 -1.21856 -1.64354 0
M  V30 2339 H 223.756 -0.662045 -4.02593 0
M  V30 2340 H 222.431 -1.78271 -3.75755 0
M  V30 2341 H 221.008 0.0485257 -3.72868 0
M  V30 2342 N 223.193 1.4272 -0.668489 0
M  V30 2343 C 224.141 2.32586 0.0254857 0
M  V30 2344 C 225.135 1.49471 0.797176 0
M  V30 2345 O 226.341 1.65583 0.705853 0
M  V30 2346 H 222.716 0.751514 0.0270339 0
M  V30 2347 H 224.687 2.88823 -0.749936 0
M  V30 2348 C 223.436 3.3397 0.967427 0
M  V30 2349 H 222.759 3.97961 0.383048 0
M  V30 2350 H 224.199 3.9945 1.42181 0
M  V30 2351 C 222.658 2.65744 2.0708 0
M  V30 2352 O 223.188 2.48454 3.15648 0
M  V30 2353 N 221.394 2.2487 1.8407 0
M  V30 2354 H 220.941 2.39132 0.95778 0
M  V30 2355 H 220.899 1.79552 2.58086 0
M  V30 2356 N 224.671 0.411399 1.52136 0
M  V30 2357 C 225.919 -0.163322 2.01439 0
M  V30 2358 C 226.24 -1.45453 1.29879 0
M  V30 2359 O 225.51 -1.91225 0.4254 0
M  V30 2360 H 224.09 -0.0633447 0.744309 0
M  V30 2361 H 226.752 0.548161 1.87033 0
M  V30 2362 H 225.848 -0.357817 3.10042 0
M  V30 2363 N 226.149 -1.5696 0.141893 0
M  V30 2364 C 227.079 -2.19516 -0.795936 0
M  V30 2365 C 228.06 -1.14187 -1.26077 0
M  V30 2366 O 229.245 -1.42511 -1.31925 0
M  V30 2367 C 226.375 -2.81272 -2.03723 0
M  V30 2368 C 225.329 -3.92384 -1.70936 0
M  V30 2369 C 224.655 -4.41052 -3.02287 0
M  V30 2370 C 225.955 -5.13403 -0.959954 0
M  V30 2371 H 227.649 -2.98138 -0.274596 0
M  V30 2372 H 225.195 -1.43406 -0.130636 0
M  V30 2373 H 227.148 -3.237 -2.69808 0
M  V30 2374 H 225.872 -1.99973 -2.58221 0
M  V30 2375 H 224.531 -3.50566 -1.07232 0
M  V30 2376 H 224.179 -3.56582 -3.54765 0
M  V30 2377 H 223.879 -5.15993 -2.81114 0
M  V30 2378 H 225.403 -4.86146 -3.69451 0
M  V30 2379 H 226.817 -5.52706 -1.52279 0
M  V30 2380 H 225.214 -5.94073 -0.848357 0
M  V30 2381 H 226.284 -4.84875 0.0492434 0
M  V30 2382 N 227.627 0.131896 -1.57047 0
M  V30 2383 C 228.852 0.860418 -1.8871 0
M  V30 2384 C 229.277 1.73251 -0.73251 0
M  V30 2385 O 228.635 1.785 0.317429 0
M  V30 2386 C 228.683 1.68047 -3.19049 0
M  V30 2387 O 227.787 2.7862 -3.04047 0
M  V30 2388 H 227.128 0.238743 -0.619595 0
M  V30 2389 H 229.658 0.118169 -2.04258 0
M  V30 2390 H 229.668 2.07238 -3.51449 0
M  V30 2391 H 228.343 1.04018 -4.02682 0
M  V30 2392 H 226.92 2.42726 -2.83088 0
M  V30 2393 N 229.106 1.52395 0.401703 0
M  V30 2394 C 230.354 1.66488 1.14569 0
M  V30 2395 C 230.675 0.400897 1.90835 0
M  V30 2396 O 229.945 -0.584415 1.8698 0
M  V30 2397 H 228.525 0.613672 0.425929 0
M  V30 2398 H 231.187 1.89464 0.457093 0
M  V30 2399 H 230.283 2.50942 1.85566 0
M  V30 2400 N 230.584 -0.659388 1.43143 0
M  V30 2401 C 231.832 -1.41654 1.44147 0
M  V30 2402 C 232.153 -1.94893 0.0645739 0
M  V30 2403 O 231.423 -1.74044 -0.899198 0
M  V30 2404 H 230.003 -0.525708 0.530697 0
M  V30 2405 H 232.665 -0.778097 1.78694 0
M  V30 2406 H 231.761 -2.26195 2.1504 0
M  V30 2407 N 232.062 -1.29571 -0.897171 0
M  V30 2408 C 232.992 -1.17473 -2.01798 0
M  V30 2409 C 233.973 -0.068323 -1.69963 0
M  V30 2410 O 235.158 -0.248239 -1.92607 0
M  V30 2411 C 232.288 -0.853099 -3.36659 0
M  V30 2412 C 231.242 -1.9161 -3.82713 0
M  V30 2413 C 230.568 -1.44773 -5.14728 0
M  V30 2414 C 231.868 -3.32535 -4.02763 0
M  V30 2415 H 233.562 -2.11237 -2.12177 0
M  V30 2416 H 231.108 -1.01699 -1.01948 0
M  V30 2417 H 233.061 -0.755165 -4.14578 0
M  V30 2418 H 231.785 0.120236 -3.26379 0
M  V30 2419 H 230.444 -2.00346 -3.07013 0
M  V30 2420 H 230.092 -0.462995 -5.00865 0
M  V30 2421 H 229.792 -2.15865 -5.46513 0
M  V30 2422 H 231.316 -1.36334 -5.95185 0
M  V30 2423 H 232.73 -3.26626 -4.71156 0
M  V30 2424 H 231.127 -4.01607 -4.45905 0
M  V30 2425 H 232.197 -3.75326 -3.07016 0
M  V30 2426 N 233.54 1.10788 -1.12088 0
M  V30 2427 C 234.488 2.19111 -0.780587 0
M  V30 2428 C 235.482 1.67818 0.230961 0
M  V30 2429 O 236.688 1.79777 0.0895427 0
M  V30 2430 H 233.063 0.714477 -0.234578 0
M  V30 2431 H 235.034 2.45055 -1.70266 0
M  V30 2432 C 233.783 3.46818 -0.24747 0
M  V30 2433 H 233.106 3.86646 -1.01712 0
M  V30 2434 H 234.546 4.23973 -0.0476291 0
M  V30 2435 C 233.005 3.20968 1.02378 0
M  V30 2436 O 233.535 3.42298 2.10226 0
M  V30 2437 N 231.741 2.74658 0.949271 0
M  V30 2438 H 231.288 2.57501 0.0715173 0
M  V30 2439 H 231.246 2.57739 1.80049 0
M  V30 2440 N 235.018 0.912232 1.28515 0
M  V30 2441 C 236.266 0.543523 1.94654 0
M  V30 2442 C 236.587 -0.9155 1.72173 0
M  V30 2443 O 235.857 -1.64708 1.06058 0
M  V30 2444 H 234.437 0.198017 0.720277 0
M  V30 2445 H 237.099 1.16126 1.56527 0
M  V30 2446 H 236.195 0.736684 3.03281 0
M  V30 2447 N 236.496 -1.42363 0.676048 0
M  V30 2448 C 237.444 -2.32596 -0.0131507 0
M  V30 2449 C 238.438 -1.49891 -0.789238 0
M  V30 2450 O 239.644 -1.65955 -0.697061 0
M  V30 2451 H 236.019 -0.751647 -0.0230481 0
M  V30 2452 H 237.99 -2.88421 0.765243 0
M  V30 2453 C 236.739 -3.34479 -0.949702 0
M  V30 2454 H 236.062 -3.98158 -0.361938 0
M  V30 2455 H 237.502 -4.00199 -1.4006 0
M  V30 2456 C 235.961 -2.66838 -2.05667 0
M  V30 2457 O 236.491 -2.50124 -3.14326 0
M  V30 2458 N 234.697 -2.25843 -1.82875 0
M  V30 2459 H 234.244 -2.39637 -0.945085 0
M  V30 2460 H 234.202 -1.80918 -2.5713 0
M  V30 2461 N 237.974 -0.419461 -1.51915 0
M  V30 2462 C 239.202 0.152136 -2.0634 0
M  V30 2463 C 239.617 1.37988 -1.28859 0
M  V30 2464 O 238.974 1.79243 -0.343232 0
M  V30 2465 C 239.025 0.492266 -3.58133 0
M  V30 2466 O 238.746 -0.686736 -4.32684 0
M  V30 2467 C 240.247 1.11648 -4.2901 0
M  V30 2468 H 237.467 0.0158325 -0.670813 0
M  V30 2469 H 240.011 -0.593394 -1.95702 0
M  V30 2470 H 238.166 1.18769 -3.68745 0
M  V30 2471 H 238.58 -0.400341 -5.2297 0
M  V30 2472 H 240.054 1.3046 -5.36362 0
M  V30 2473 H 240.531 2.09251 -3.86148 0
M  V30 2474 H 241.137 0.460958 -4.22795 0
M  V30 2475 N 239.452 1.56882 -0.150215 0
M  V30 2476 C 240.415 2.1573 0.774157 0
M  V30 2477 C 241.415 1.0999 1.17298 0
M  V30 2478 O 242.605 1.35613 1.09338 0
M  V30 2479 C 239.737 2.72302 2.05096 0
M  V30 2480 H 240.93 2.98752 0.262201 0
M  V30 2481 H 238.483 1.55985 0.099248 0
M  V30 2482 H 239.218 1.92956 2.6065 0
M  V30 2483 H 239.003 3.49665 1.77416 0
M  V30 2484 H 240.493 3.17632 2.71109 0
M  V30 2485 N 240.93 -0.123565 1.57115 0
M  V30 2486 C 242.177 -0.832153 1.84612 0
M  V30 2487 C 242.505 -1.80093 0.734627 0
M  V30 2488 O 241.76 -1.93766 -0.27442 0
M  V30 2489 C 242.059 -1.62016 3.18568 0
M  V30 2490 C 241.725 -0.796084 4.43817 0
M  V30 2491 C 240.387 -0.568816 4.77826 0
M  V30 2492 C 242.739 -0.221364 5.2073 0
M  V30 2493 C 240.067 0.243499 5.86194 0
M  V30 2494 C 242.419 0.578117 6.29953 0
M  V30 2495 C 241.083 0.815744 6.62497 0
M  V30 2496 H 240.353 -0.304507 0.675542 0
M  V30 2497 H 243 -0.0947248 1.91266 0
M  V30 2498 H 241.305 -2.42837 3.0747 0
M  V30 2499 H 243.002 -2.17231 3.37064 0
M  V30 2500 H 239.592 -0.983307 4.17168 0
M  V30 2501 H 243.776 -0.384173 4.94811 0
M  V30 2502 H 239.032 0.436871 6.09837 0
M  V30 2503 H 243.206 1.03046 6.88734 0
M  V30 2504 H 240.833 1.44701 7.46301 0
M  V30 2505 N 242.408 -1.52605 -0.393616 0
M  V30 2506 C 243.633 -1.71592 -1.16495 0
M  V30 2507 C 244.058 -0.43133 -1.83088 0
M  V30 2508 O 243.416 0.612523 -1.7064 0
M  V30 2509 C 243.464 -2.86318 -2.19213 0
M  V30 2510 O 242.568 -2.52969 -3.257 0
M  V30 2511 H 241.909 -0.570734 -0.33935 0
M  V30 2512 H 244.439 -1.99377 -0.459324 0
M  V30 2513 H 244.449 -3.1168 -2.63286 0
M  V30 2514 H 243.124 -3.79511 -1.7013 0
M  V30 2515 H 241.701 -2.38332 -2.86797 0
M  V30 2516 N 243.887 0.651787 -1.4349 0
M  V30 2517 C 244.797 1.79368 -1.5121 0
M  V30 2518 C 245.813 1.69361 -0.399093 0
M  V30 2519 O 246.989 1.90505 -0.653431 0
M  V30 2520 C 244.054 3.15653 -1.43401 0
M  V30 2521 C 243.115 3.37446 -2.65384 0
M  V30 2522 C 242.348 4.67229 -2.57939 0
M  V30 2523 O 242.571 5.46676 -1.62792 0
M  V30 2524 O 241.505 4.90773 -3.48462 0
M  V30 2525 H 245.331 1.7581 -2.47638 0
M  V30 2526 H 242.916 0.810447 -1.25507 0
M  V30 2527 H 244.798 3.96935 -1.41494 0
M  V30 2528 H 243.473 3.19798 -0.501085 0
M  V30 2529 H 242.38 2.55923 -2.72863 0
M  V30 2530 H 243.713 3.38148 -3.57654 0
M  V30 2531 N 245.365 1.30045 0.890287 0
M  V30 2532 C 246.593 1.21472 1.67487 0
M  V30 2533 C 247.008 -0.223241 1.87476 0
M  V30 2534 O 246.365 -1.14828 1.41847 0
M  V30 2535 C 246.416 1.93394 3.05419 0
M  V30 2536 O 246.137 3.31576 2.86337 0
M  V30 2537 C 247.638 1.91414 3.99844 0
M  V30 2538 H 244.858 0.420604 0.522813 0
M  V30 2539 H 247.402 1.7158 1.11268 0
M  V30 2540 H 245.557 1.47099 3.58386 0
M  V30 2541 H 245.971 3.67929 3.73802 0
M  V30 2542 H 247.445 2.46285 4.94012 0
M  V30 2543 H 247.922 0.891833 4.3005 0
M  V30 2544 H 248.528 2.37496 3.52811 0
M  V30 2545 N 246.843 -1.10192 1.12674 0
M  V30 2546 C 248.092 -1.81573 0.8783 0
M  V30 2547 C 248.405 -1.86249 -0.597557 0
M  V30 2548 O 249.611 -2.5386 -0.962681 0
M  V30 2549 C 248.067 -3.26149 1.52167 0
M  V30 2550 C 247.675 -3.29763 3.03249 0
M  V30 2551 C 249.419 -4.0234 1.3536 0
M  V30 2552 C 247.326 -4.68815 3.60508 0
M  V30 2553 H 246.256 -0.680394 0.324931 0
M  V30 2554 H 248.907 -1.23902 1.35353 0
M  V30 2555 H 247.289 -3.83832 0.974104 0
M  V30 2556 H 248.463 -2.8189 3.6452 0
M  V30 2557 H 246.778 -2.67059 3.19481 0
M  V30 2558 H 249.375 -5.05058 1.75559 0
M  V30 2559 H 249.718 -4.15235 0.297554 0
M  V30 2560 H 250.251 -3.51079 1.87052 0
M  V30 2561 H 246.99 -4.61121 4.65884 0
M  V30 2562 H 246.51 -5.17045 3.04014 0
M  V30 2563 H 248.189 -5.37785 3.59717 0
M  V30 2564 N 248.321 -0.919034 -1.28029 0
M  V30 2565 C 249.269 -0.401753 -2.29104 0
M  V30 2566 C 250.263 0.509354 -1.61561 0
M  V30 2567 O 251.469 0.390014 -1.75724 0
M  V30 2568 H 247.844 -0.111331 -0.743713 0
M  V30 2569 H 249.815 -1.2672 -2.70156 0
M  V30 2570 C 248.564 0.338148 -3.46052 0
M  V30 2571 H 247.887 -0.353732 -3.98232 0
M  V30 2572 H 249.327 0.664653 -4.18758 0
M  V30 2573 C 247.786 1.54798 -2.99231 0
M  V30 2574 O 248.316 2.64696 -3.02157 0
M  V30 2575 N 246.522 1.3968 -2.54829 0
M  V30 2576 H 246.069 0.502698 -2.52647 0
M  V30 2577 H 246.027 2.20755 -2.23863 0
M  V30 2578 N 249.799 1.42003 -0.683588 0
M  V30 2579 C 251.029 2.05448 -0.217866 0
M  V30 2580 C 251.437 1.51491 1.13346 0
M  V30 2581 O 250.78 0.653048 1.717 0
M  V30 2582 C 250.842 3.59399 -0.0850118 0
M  V30 2583 C 250.506 4.36093 -1.36645 0
M  V30 2584 C 251.503 4.66169 -2.30179 0
M  V30 2585 C 249.188 4.75578 -1.61649 0
M  V30 2586 C 251.182 5.34676 -3.46988 0
M  V30 2587 C 248.869 5.43824 -2.78745 0
M  V30 2588 C 249.867 5.73299 -3.71238 0
M  V30 2589 O 249.555 6.40142 -4.86285 0
M  V30 2590 H 249.287 0.668344 -0.101454 0
M  V30 2591 H 251.841 1.82974 -0.933248 0
M  V30 2592 H 250.071 3.80566 0.686031 0
M  V30 2593 H 251.76 4.04457 0.341973 0
M  V30 2594 H 252.526 4.36156 -2.12115 0
M  V30 2595 H 248.405 4.52025 -0.905243 0
M  V30 2596 H 251.949 5.57599 -4.19201 0
M  V30 2597 H 247.846 5.73254 -2.96732 0
M  V30 2598 H 248.614 6.58636 -4.85944 0
M  V30 2599 N 251.277 0.427512 1.51691 0
M  V30 2600 C 252.224 -0.388867 2.275 0
M  V30 2601 C 253.194 -1.02532 1.30677 0
M  V30 2602 O 254.379 -1.0461 1.59566 0
M  V30 2603 C 251.519 -1.48954 3.11298 0
M  V30 2604 C 250.632 -0.872194 4.23104 0
M  V30 2605 C 249.767 -1.94709 4.94228 0
M  V30 2606 C 248.806 -1.30766 5.97969 0
M  V30 2607 N 247.943 -2.32349 6.62539 0
M  V30 2608 H 252.783 0.263997 2.96828 0
M  V30 2609 H 250.32 0.142033 1.46413 0
M  V30 2610 H 252.278 -2.13887 3.58201 0
M  V30 2611 H 250.908 -2.11217 2.44105 0
M  V30 2612 H 249.96 -0.111419 3.80237 0
M  V30 2613 H 251.272 -0.365264 4.97461 0
M  V30 2614 H 250.426 -2.67327 5.44629 0
M  V30 2615 H 249.165 -2.48773 4.1948 0
M  V30 2616 H 248.17 -0.566902 5.4687 0
M  V30 2617 H 249.395 -0.774483 6.74669 0
M  V30 2618 H 247.341 -2.85511 5.90609 0
M  V30 2619 H 247.258 -1.8652 7.3263 0
M  V30 2620 H 248.526 -3.04481 7.17574 0
M  V30 2621 N 252.755 -1.56801 0.158532 0
M  V30 2622 C 253.687 -2.14488 -0.807923 0
M  V30 2623 C 254.7 -1.09721 -1.20271 0
M  V30 2624 O 255.889 -1.36956 -1.14478 0
M  V30 2625 C 252.989 -2.66217 -2.09718 0
M  V30 2626 C 252.162 -3.95507 -1.86796 0
M  V30 2627 C 251.221 -4.3243 -2.99818 0
M  V30 2628 O 250.247 -5.00543 -2.71008 0
M  V30 2629 N 251.449 -3.92947 -4.27285 0
M  V30 2630 H 254.214 -2.98042 -0.314816 0
M  V30 2631 H 251.775 -1.61881 -0.0246692 0
M  V30 2632 H 253.767 -2.87924 -2.84398 0
M  V30 2633 H 252.337 -1.87324 -2.50257 0
M  V30 2634 H 251.557 -3.82309 -0.96089 0
M  V30 2635 H 252.845 -4.79972 -1.68833 0
M  V30 2636 H 252.243 -3.38087 -4.53557 0
M  V30 2637 H 250.8 -4.19681 -4.9871 0
M  V30 2638 N 254.233 0.115231 -1.57178 0
M  V30 2639 C 255.143 1.15994 -2.03918 0
M  V30 2640 C 256.159 1.45103 -0.960268 0
M  V30 2641 O 257.335 1.56144 -1.27204 0
M  V30 2642 C 254.4 2.46568 -2.43732 0
M  V30 2643 C 253.461 2.24822 -3.65723 0
M  V30 2644 C 252.694 3.4917 -4.03629 0
M  V30 2645 O 252.917 4.56623 -3.41835 0
M  V30 2646 O 251.851 3.39949 -4.96708 0
M  V30 2647 H 255.677 0.793019 -2.93164 0
M  V30 2648 H 253.262 0.3263 -1.45793 0
M  V30 2649 H 255.144 3.23492 -2.70057 0
M  V30 2650 H 253.819 2.82726 -1.57631 0
M  V30 2651 H 252.726 1.45744 -3.44542 0
M  V30 2652 H 254.059 1.93566 -4.52541 0
M  V30 2653 N 255.711 1.52812 0.385517 0
M  V30 2654 C 256.936 1.72207 1.15583 0
M  V30 2655 C 257.361 0.441034 1.82857 0
M  V30 2656 O 256.719 -0.603465 1.70962 0
M  V30 2657 C 256.767 2.87476 2.17692 0
M  V30 2658 O 255.871 2.54693 3.24354 0
M  V30 2659 H 255.212 0.572526 0.336319 0
M  V30 2660 H 257.742 1.99618 0.448744 0
M  V30 2661 H 257.752 3.13072 2.6163 0
M  V30 2662 H 256.427 3.80408 1.68115 0
M  V30 2663 H 255.004 2.3985 2.85529 0
M  V30 2664 N 257.189 -0.644168 1.43834 0
M  V30 2665 C 258.419 -1.42939 1.49171 0
M  V30 2666 C 258.827 -1.88874 0.111048 0
M  V30 2667 O 258.17 -1.60656 -0.8908 0
M  V30 2668 C 258.232 -2.69151 2.38324 0
M  V30 2669 C 257.896 -2.45097 3.85715 0
M  V30 2670 C 258.893 -2.07747 4.76589 0
M  V30 2671 C 256.578 -2.59141 4.30292 0
M  V30 2672 C 258.572 -1.8475 6.10038 0
M  V30 2673 C 256.259 -2.35759 5.63792 0
M  V30 2674 C 257.257 -1.9862 6.53482 0
M  V30 2675 O 256.945 -1.75489 7.84512 0
M  V30 2676 H 256.677 -0.445271 0.508635 0
M  V30 2677 H 259.231 -0.79621 1.8934 0
M  V30 2678 H 257.461 -3.3506 1.93058 0
M  V30 2679 H 259.15 -3.31123 2.3476 0
M  V30 2680 H 259.916 -1.96465 4.43426 0
M  V30 2681 H 255.795 -2.87022 3.60749 0
M  V30 2682 H 259.339 -1.55686 6.80006 0
M  V30 2683 H 255.236 -2.46646 5.9652 0
M  V30 2684 H 256.004 -1.89841 7.9618 0
M  V30 2685 N 258.668 -1.30515 -0.883378 0
M  V30 2686 C 260.084 -1.08881 -1.16692 0
M  V30 2687 C 260.284 0.149409 -2.00945 0
M  V30 2688 O 259.34 0.84257 -2.38027 0
M  V30 2689 C 260.653 -2.35319 -1.87204 0
M  V30 2690 C 262.201 -2.40799 -1.99962 0
M  V30 2691 C 262.676 -3.67083 -2.73887 0
M  V30 2692 N 264.167 -3.679 -2.81432 0
M  V30 2693 C 264.902 -4.62303 -3.3921 0
M  V30 2694 N 264.398 -5.67052 -3.98025 0
M  V30 2695 N 266.191 -4.49845 -3.3704 0
M  V30 2696 H 258.342 -2.09951 -0.321633 0
M  V30 2697 H 260.605 -0.92556 -0.205043 0
M  V30 2698 H 260.311 -3.25689 -1.3274 0
M  V30 2699 H 260.185 -2.44089 -2.87577 0
M  V30 2700 H 262.572 -1.50907 -2.53597 0
M  V30 2701 H 262.653 -2.36003 -0.98673 0
M  V30 2702 H 262.297 -4.57334 -2.20925 0
M  V30 2703 H 262.227 -3.69141 -3.75556 0
M  V30 2704 H 264.718 -2.92171 -2.39676 0
M  V30 2705 H 265.031 -6.35184 -4.40183 0
M  V30 2706 H 263.376 -5.70842 -3.96439 0
M  V30 2707 H 266.567 -3.67194 -2.90321 0
M  V30 2708 H 266.74 -5.23597 -3.81772 0
M  V30 2709 N 260.146 1.09593 -1.13257 0
M  V30 2710 C 261.374 1.855 -0.916378 0
M  V30 2711 C 261.789 1.81069 0.534738 0
M  V30 2712 O 261.146 1.20562 1.37007 0
M  V30 2713 C 261.197 3.33546 -1.39388 0
M  V30 2714 O 260.918 3.37927 -2.78813 0
M  V30 2715 C 262.419 4.26299 -1.21588 0
M  V30 2716 H 259.639 0.585991 -0.326887 0
M  V30 2717 H 262.183 1.38488 -1.5047 0
M  V30 2718 H 260.338 3.77992 -0.848597 0
M  V30 2719 H 260.752 4.30254 -2.9997 0
M  V30 2720 H 262.226 5.28341 -1.59876 0
M  V30 2721 H 262.703 4.38918 -0.157376 0
M  V30 2722 H 263.309 3.87668 -1.7491 0
M  V30 2723 N 261.624 0.925811 1.2754 0
M  V30 2724 C 262.852 0.581509 1.9856 0
M  V30 2725 C 263.267 -0.840041 1.69082 0
M  V30 2726 O 262.624 -1.55805 0.950312 0
M  V30 2727 C 262.675 0.795589 3.52637 0
M  V30 2728 O 262.396 2.16121 3.81082 0
M  V30 2729 C 263.897 0.459744 4.4091 0
M  V30 2730 H 261.117 0.220538 0.633722 0
M  V30 2731 H 263.661 1.24232 1.6244 0
M  V30 2732 H 261.816 0.18161 3.86974 0
M  V30 2733 H 262.23 2.2098 4.75676 0
M  V30 2734 H 263.704 0.660244 5.48037 0
M  V30 2735 H 264.181 -0.604625 4.35018 0
M  V30 2736 H 264.787 1.05178 4.12089 0
M  V30 2737 N 263.102 -1.41638 0.69111 0
M  V30 2738 C 264.032 -2.3347 0.037248 0
M  V30 2739 C 265.013 -1.51575 -0.771947 0
M  V30 2740 O 266.198 -1.80126 -0.72582 0
M  V30 2741 C 263.328 -3.35354 -0.903064 0
M  V30 2742 C 262.282 -4.27526 -0.201288 0
M  V30 2743 C 261.608 -5.19747 -1.25565 0
M  V30 2744 C 262.908 -5.13959 0.929689 0
M  V30 2745 H 264.602 -2.88397 0.804227 0
M  V30 2746 H 262.148 -1.38669 0.388189 0
M  V30 2747 H 264.101 -3.98519 -1.36969 0
M  V30 2748 H 262.825 -2.78767 -1.70166 0
M  V30 2749 H 261.484 -3.65779 0.245265 0
M  V30 2750 H 261.132 -4.59479 -2.04666 0
M  V30 2751 H 260.832 -5.8225 -0.791128 0
M  V30 2752 H 262.356 -5.85789 -1.72288 0
M  V30 2753 H 263.77 -5.70718 0.543546 0
M  V30 2754 H 262.167 -5.85379 1.32103 0
M  V30 2755 H 263.237 -4.51389 1.77133 0
M  V30 2756 N 264.58 -0.43555 -1.51462 0
M  V30 2757 C 265.805 0.132627 -2.06976 0
M  V30 2758 C 266.23 1.35848 -1.30104 0
M  V30 2759 O 265.588 1.78112 -0.338493 0
M  V30 2760 C 265.636 0.43523 -3.57964 0
M  V30 2761 O 264.74 1.52198 -3.83288 0
M  V30 2762 H 264.081 0.00265 -0.663995 0
M  V30 2763 H 266.611 -0.616369 -1.95095 0
M  V30 2764 H 266.621 0.686206 -4.02188 0
M  V30 2765 H 265.296 -0.460739 -4.1334 0
M  V30 2766 H 263.873 1.2611 -3.50928 0
M  V30 2767 N 266.058 1.56714 -0.166846 0
M  V30 2768 C 267.474 1.58473 0.189372 0
M  V30 2769 C 267.674 1.18201 1.63189 0
M  V30 2770 O 266.73 0.891528 2.36237 0
M  V30 2771 C 268.043 3.00573 -0.0873872 0
M  V30 2772 C 269.591 3.1299 -0.0252443 0
M  V30 2773 C 270.066 4.57174 -0.274934 0
M  V30 2774 N 271.557 4.62665 -0.222553 0
M  V30 2775 C 272.292 5.72072 -0.389985 0
M  V30 2776 N 271.788 6.90054 -0.616229 0
M  V30 2777 N 273.581 5.61153 -0.326202 0
M  V30 2778 H 265.732 1.8118 -1.10849 0
M  V30 2779 H 267.995 0.839525 -0.440342 0
M  V30 2780 H 267.701 3.34497 -1.0865 0
M  V30 2781 H 267.575 3.72019 0.623037 0
M  V30 2782 H 269.962 2.78895 0.96444 0
M  V30 2783 H 270.043 2.43989 -0.768309 0
M  V30 2784 H 269.687 4.91976 -1.26181 0
M  V30 2785 H 269.617 5.24328 0.48869 0
M  V30 2786 H 272.108 3.77863 -0.0531512 0
M  V30 2787 H 272.421 7.69311 -0.733559 0
M  V30 2788 H 270.766 6.91927 -0.652791 0
M  V30 2789 H 273.957 4.67859 -0.150072 0
M  V30 2790 H 274.13 6.46364 -0.460116 0
M  V30 2791 N 267.536 -0.106894 1.57237 0
M  V30 2792 C 268.484 -1.14944 2.02215 0
M  V30 2793 C 269.478 -1.42167 0.92114 0
M  V30 2794 O 270.684 -1.41987 1.10634 0
M  V30 2795 H 267.059 -0.387841 0.64427 0
M  V30 2796 H 269.03 -0.743683 2.88984 0
M  V30 2797 C 267.779 -2.4647 2.4525 0
M  V30 2798 H 267.102 -2.26363 3.29545 0
M  V30 2799 H 268.542 -3.17948 2.80508 0
M  V30 2800 C 267.001 -3.09921 1.321 0
M  V30 2801 O 267.531 -3.9651 0.643622 0
M  V30 2802 N 265.737 -2.69986 1.07497 0
M  V30 2803 H 265.284 -1.99667 1.62761 0
M  V30 2804 H 265.242 -3.12769 0.319876 0
M  V30 2805 N 269.014 -1.53014 -0.377408 0
M  V30 2806 C 270.242 -1.72515 -1.14219 0
M  V30 2807 C 270.657 -0.448735 -1.8339 0
M  V30 2808 O 270.014 0.577592 -1.73119 0
M  V30 2809 C 270.065 -2.8826 -2.18148 0
M  V30 2810 O 269.786 -4.10962 -1.51795 0
M  V30 2811 C 271.287 -3.19536 -3.07264 0
M  V30 2812 H 268.507 -0.577301 -0.342001 0
M  V30 2813 H 271.051 -1.99712 -0.439935 0
M  V30 2814 H 269.206 -2.63492 -2.83991 0
M  V30 2815 H 269.62 -4.75693 -2.20945 0
M  V30 2816 H 271.094 -4.03959 -3.76193 0
M  V30 2817 H 271.571 -2.34403 -3.71419 0
M  V30 2818 H 272.177 -3.46186 -2.47053 0
M  V30 2819 N 270.492 0.636531 -1.44174 0
M  V30 2820 C 271.44 1.76995 -1.50915 0
M  V30 2821 C 272.434 1.65053 -0.381295 0
M  V30 2822 O 273.64 1.71197 -0.55601 0
M  V30 2823 H 270.015 0.584247 -0.473455 0
M  V30 2824 H 271.986 1.68432 -2.4632 0
M  V30 2825 C 270.735 3.15314 -1.46534 0
M  V30 2826 H 270.058 3.25149 -2.32633 0
M  V30 2827 H 271.498 3.9453 -1.55312 0
M  V30 2828 C 269.957 3.3639 -0.185305 0
M  V30 2829 O 270.487 3.94699 0.746688 0
M  V30 2830 N 268.693 2.9046 -0.0901606 0
M  V30 2831 H 268.24 2.43193 -0.849416 0
M  V30 2832 H 268.198 3.04937 0.765553 0
M  V30 2833 N 271.97 1.30982 0.876444 0
M  V30 2834 C 273.2 1.23063 1.65949 0
M  V30 2835 C 273.608 -0.207537 1.88058 0
M  V30 2836 O 272.951 -1.14781 1.43426 0
M  V30 2837 C 273.013 1.89768 3.05333 0
M  V30 2838 C 272.677 3.39106 3.0636 0
M  V30 2839 C 273.674 4.3496 2.84791 0
M  V30 2840 C 271.359 3.80693 3.27686 0
M  V30 2841 C 273.353 5.70375 2.84519 0
M  V30 2842 C 271.04 5.16223 3.27043 0
M  V30 2843 C 272.038 6.10875 3.05485 0
M  V30 2844 O 271.726 7.43928 3.04674 0
M  V30 2845 H 271.458 0.426685 0.524324 0
M  V30 2846 H 274.012 1.7329 1.10271 0
M  V30 2847 H 272.242 1.34082 3.6271 0
M  V30 2848 H 273.931 1.75853 3.65829 0
M  V30 2849 H 274.697 4.0416 2.68103 0
M  V30 2850 H 270.576 3.07457 3.43499 0
M  V30 2851 H 274.12 6.44228 2.67611 0
M  V30 2852 H 270.017 5.4666 3.43269 0
M  V30 2853 H 270.785 7.53022 3.2078 0
M  V30 2854 N 273.449 -1.08991 1.13837 0
M  V30 2855 C 274.396 -2.15748 0.819835 0
M  V30 2856 C 275.366 -1.64636 -0.220026 0
M  V30 2857 O 276.551 -1.90582 -0.0912757 0
M  V30 2858 C 273.691 -3.4382 0.296913 0
M  V30 2859 C 272.804 -4.0881 1.39636 0
M  V30 2860 C 271.939 -5.24655 0.831314 0
M  V30 2861 C 270.978 -5.81575 1.90886 0
M  V30 2862 N 270.115 -6.88774 1.36142 0
M  V30 2863 H 274.955 -2.42338 1.73426 0
M  V30 2864 H 272.492 -1.18935 0.865613 0
M  V30 2865 H 274.45 -4.17193 -0.0244339 0
M  V30 2866 H 273.08 -3.17535 -0.580628 0
M  V30 2867 H 272.132 -3.33258 1.83422 0
M  V30 2868 H 273.444 -4.47141 2.21058 0
M  V30 2869 H 272.598 -6.04942 0.461515 0
M  V30 2870 H 271.337 -4.87698 -0.013932 0
M  V30 2871 H 270.342 -4.99946 2.28767 0
M  V30 2872 H 271.567 -6.20592 2.75758 0
M  V30 2873 H 269.513 -6.53788 0.538254 0
M  V30 2874 H 269.43 -7.25898 2.11208 0
M  V30 2875 H 270.698 -7.72806 1.01933 0
M  V30 2876 N 274.927 -0.932562 -1.27047 0
M  V30 2877 C 275.875 -0.42603 -2.28665 0
M  V30 2878 C 276.869 0.49219 -1.62092 0
M  V30 2879 O 278.075 0.371355 -1.76128 0
M  V30 2880 H 274.45 -0.119213 -0.742491 0
M  V30 2881 H 276.421 -1.29579 -2.68797 0
M  V30 2882 C 275.17 0.301426 -3.46391 0
M  V30 2883 H 274.493 -0.39595 -3.97834 0
M  V30 2884 H 275.933 0.6202 -4.1944 0
M  V30 2885 C 274.392 1.51616 -3.00856 0
M  V30 2886 O 274.922 2.61476 -3.04948 0
M  V30 2887 N 273.128 1.36969 -2.56296 0
M  V30 2888 H 272.675 0.475873 -2.53166 0
M  V30 2889 H 272.633 2.18368 -2.26192 0
M  V30 2890 N 276.405 1.4127 -0.698611 0
M  V30 2891 C 277.651 2.01478 -0.231207 0
M  V30 2892 C 277.984 1.55215 1.16713 0
M  V30 2893 O 277.259 0.764672 1.78838 0
M  V30 2894 C 277.542 3.58912 -0.292281 0
M  V30 2895 C 277.395 4.15293 -1.72778 0
M  V30 2896 C 278.714 4.38736 0.346194 0
M  V30 2897 H 275.833 0.732025 -0.0854878 0
M  V30 2898 H 278.475 1.67977 -0.887906 0
M  V30 2899 H 276.625 3.87582 0.26686 0
M  V30 2900 H 278.297 3.97486 -2.341 0
M  V30 2901 H 276.54 3.7022 -2.26096 0
M  V30 2902 H 277.211 5.24452 -1.72202 0
M  V30 2903 H 279.687 4.15897 -0.130035 0
M  V30 2904 H 278.563 5.48221 0.272932 0
M  V30 2905 H 278.824 4.18425 1.42734 0
M  V30 2906 N 277.883 0.443576 1.51229 0
M  V30 2907 C 279.131 -0.120557 2.0174 0
M  V30 2908 C 279.452 -1.42665 1.32935 0
M  V30 2909 O 278.722 -1.9028 0.465866 0
M  V30 2910 H 277.302 -0.0475426 0.745486 0
M  V30 2911 H 279.964 0.587711 1.85828 0
M  V30 2912 H 279.06 -0.291972 3.10731 0
M  V30 2913 N 279.361 -1.56624 0.175154 0
M  V30 2914 C 280.607 -1.98061 -0.462976 0
M  V30 2915 C 280.962 -1.05949 -1.60601 0
M  V30 2916 O 280.255 -0.0999027 -1.91339 0
M  V30 2917 C 280.449 -3.43419 -0.989864 0
M  V30 2918 C 280.278 -4.49587 0.100583 0
M  V30 2919 C 279.048 -5.02281 0.551539 0
M  V30 2920 C 281.246 -5.06322 0.902369 0
M  V30 2921 N 279.228 -5.92088 1.62189 0
M  V30 2922 C 280.599 -5.92607 1.82256 0
M  V30 2923 C 282.654 -4.88811 0.947019 0
M  V30 2924 C 281.357 -6.63254 2.78364 0
M  V30 2925 C 283.383 -5.60182 1.89606 0
M  V30 2926 C 282.745 -6.46197 2.80372 0
M  V30 2927 H 278.844 -0.769833 -0.137409 0
M  V30 2928 H 281.428 -1.9273 0.276256 0
M  V30 2929 H 279.599 -3.49288 -1.6986 0
M  V30 2930 H 281.331 -3.7186 -1.59694 0
M  V30 2931 H 278.086 -4.73367 0.148537 0
M  V30 2932 H 278.51 -6.41696 2.15767 0
M  V30 2933 H 283.152 -4.22004 0.259304 0
M  V30 2934 H 280.87 -7.29271 3.48122 0
M  V30 2935 H 284.456 -5.48617 1.93676 0
M  V30 2936 H 283.336 -7.00453 3.52612 0
M  V30 2937 N 280.839 0.0985539 -1.57292 0
M  V30 2938 C 282.087 0.801092 -1.85545 0
M  V30 2939 C 282.408 1.79438 -0.763353 0
M  V30 2940 O 281.678 1.94763 0.21073 0
M  V30 2941 H 280.258 0.29884 -0.684619 0
M  V30 2942 H 282.92 0.0810064 -1.94732 0
M  V30 2943 H 282.016 1.3338 -2.82163 0
M  V30 2944 N 282.317 1.53212 0.369288 0
M  V30 2945 C 283.563 1.69466 1.11397 0
M  V30 2946 C 283.896 0.443257 1.89074 0
M  V30 2947 O 283.171 -0.559386 1.86282 0
M  V30 2948 C 283.454 2.9422 2.07621 0
M  V30 2949 C 283.307 4.29508 1.33577 0
M  V30 2950 C 284.626 3.14565 3.07794 0
M  V30 2951 H 281.745 0.616667 0.403597 0
M  V30 2952 H 284.387 1.85845 0.395179 0
M  V30 2953 H 282.537 2.80387 2.68916 0
M  V30 2954 H 284.209 4.55147 0.750955 0
M  V30 2955 H 282.452 4.29088 0.637618 0
M  V30 2956 H 283.123 5.12926 2.03989 0
M  V30 2957 H 285.599 3.2756 2.56601 0
M  V30 2958 H 284.475 4.03297 3.72348 0
M  V30 2959 H 284.736 2.29675 3.77759 0
M  V30 2960 N 283.795 -0.628877 1.44509 0
M  V30 2961 C 284.705 -1.7694 1.54044 0
M  V30 2962 C 285.721 -1.68705 0.425987 0
M  V30 2963 O 286.897 -1.89442 0.683656 0
M  V30 2964 C 283.962 -3.13332 1.48405 0
M  V30 2965 C 283.023 -3.33181 2.70719 0
M  V30 2966 C 282.256 -4.63067 2.6534 0
M  V30 2967 O 282.479 -5.44017 1.71469 0
M  V30 2968 O 281.413 -4.85167 3.56226 0
M  V30 2969 H 285.239 -1.71848 2.50403 0
M  V30 2970 H 282.824 -0.790378 1.26781 0
M  V30 2971 H 284.706 -3.94634 1.47791 0
M  V30 2972 H 283.381 -3.1896 0.551898 0
M  V30 2973 H 282.288 -2.51549 2.769 0
M  V30 2974 H 283.621 -3.32416 3.62988 0
M  V30 2975 N 285.273 -1.31445 -0.869486 0
M  V30 2976 C 286.236 -1.19094 -1.9583 0
M  V30 2977 C 287.236 -0.117906 -1.60367 0
M  V30 2978 O 288.426 -0.367208 -1.70286 0
M  V30 2979 C 285.558 -0.828165 -3.30688 0
M  V30 2980 H 286.751 -2.15842 -2.08212 0
M  V30 2981 H 284.304 -1.15063 -1.05784 0
M  V30 2982 H 285.039 0.138142 -3.24006 0
M  V30 2983 H 284.824 -1.6038 -3.578 0
M  V30 2984 H 286.314 -0.765658 -4.10521 0
M  V30 2985 N 286.751 1.08385 -1.14413 0
M  V30 2986 C 287.701 2.13509 -0.79987 0
M  V30 2987 C 288.685 1.5951 0.211059 0
M  V30 2988 O 289.877 1.76995 0.0133694 0
M  V30 2989 C 287.006 3.42162 -0.279297 0
M  V30 2990 C 286.092 4.03042 -1.31976 0
M  V30 2991 N 286.483 4.38327 -2.52395 0
M  V30 2992 C 284.781 4.30379 -1.17004 0
M  V30 2993 C 285.482 4.86428 -3.19003 0
M  V30 2994 N 284.458 4.84547 -2.46405 0
M  V30 2995 H 288.26 2.38609 -1.7159 0
M  V30 2996 H 285.774 1.2572 -1.02802 0
M  V30 2997 H 287.771 4.16898 -0.0143688 0
M  V30 2998 H 286.431 3.18511 0.630923 0
M  V30 2999 H 287.442 4.29349 -2.89621 0
M  V30 3000 H 284.119 4.16281 -0.318854 0
M  V30 3001 H 285.509 5.23107 -4.21674 0
M  V30 3002 N 288.23 0.939286 1.26551 0
M  V30 3003 C 289.177 0.446088 2.26448 0
M  V30 3004 C 290.147 -0.493234 1.58608 0
M  V30 3005 O 291.332 -0.409857 1.86346 0
M  V30 3006 C 288.472 -0.284375 3.43926 0
M  V30 3007 C 287.585 0.690399 4.26448 0
M  V30 3008 C 286.72 -0.0610712 5.31165 0
M  V30 3009 C 285.759 0.905649 6.05363 0
M  V30 3010 N 284.896 0.186055 7.01853 0
M  V30 3011 H 289.736 1.30291 2.68008 0
M  V30 3012 H 287.273 0.65371 1.31776 0
M  V30 3013 H 289.231 -0.724313 4.10864 0
M  V30 3014 H 287.861 -1.10535 3.03285 0
M  V30 3015 H 286.913 1.24885 3.59316 0
M  V30 3016 H 288.225 1.42873 4.779 0
M  V30 3017 H 287.379 -0.56038 6.04106 0
M  V30 3018 H 286.118 -0.832297 4.80546 0
M  V30 3019 H 285.123 1.4161 5.3125 0
M  V30 3020 H 286.348 1.67685 6.58072 0
M  V30 3021 H 284.294 -0.566714 6.53548 0
M  V30 3022 H 284.211 0.863752 7.51049 0
M  V30 3023 H 285.479 -0.292221 7.78952 0
M  V30 3024 N 289.708 -1.40897 0.706093 0
M  V30 3025 C 290.957 -2.00284 0.238574 0
M  V30 3026 C 291.27 -1.56604 -1.17194 0
M  V30 3027 O 292.476 -2.08624 -1.73748 0
M  V30 3028 C 290.932 -3.57934 0.375623 0
M  V30 3029 C 290.54 -4.10591 1.79217 0
M  V30 3030 C 292.284 -4.24488 -0.0315857 0
M  V30 3031 C 290.191 -5.60712 1.88032 0
M  V30 3032 H 289.121 -0.749144 0.0854398 0
M  V30 3033 H 291.772 -1.61251 0.875813 0
M  V30 3034 H 290.154 -3.94622 -0.330042 0
M  V30 3035 H 291.328 -3.85301 2.52745 0
M  V30 3036 H 289.643 -3.56601 2.15 0
M  V30 3037 H 292.24 -5.34698 0.0136842 0
M  V30 3038 H 292.583 -4.02261 -1.072 0
M  V30 3039 H 293.116 -3.92873 0.624181 0
M  V30 3040 H 289.855 -5.87781 2.90161 0
M  V30 3041 H 289.375 -5.87896 1.18903 0
M  V30 3042 H 291.054 -6.25658 1.64805 0
M  V30 3043 N 291.186 -0.45159 -1.50991 0
M  V30 3044 C 292.119 0.398179 -2.24699 0
M  V30 3045 C 293.097 1.01276 -1.27208 0
M  V30 3046 O 294.281 1.05247 -1.56382 0
M  V30 3047 C 291.408 1.55618 -3.00833 0
M  V30 3048 C 290.454 1.0609 -4.13095 0
M  V30 3049 S 291.287 -0.00865136 -5.35499 0
M  V30 3050 C 292.443 1.15369 -6.15175 0
M  V30 3051 H 292.676 -0.227555 -2.96428 0
M  V30 3052 H 290.209 -0.236251 -1.52582 0
M  V30 3053 H 292.167 2.21997 -3.45293 0
M  V30 3054 H 290.828 2.15337 -2.28667 0
M  V30 3055 H 290.021 1.92726 -4.65696 0
M  V30 3056 H 289.623 0.47513 -3.7097 0
M  V30 3057 H 291.915 2.06925 -6.45126 0
M  V30 3058 H 292.858 0.667344 -7.04948 0
M  V30 3059 H 293.266 1.3987 -5.46897 0
M  V30 3060 N 292.664 1.56529 -0.183458 0
M  V30 3061 C 293.612 2.19873 0.758845 0
M  V30 3062 C 294.606 1.16638 1.22849 0
M  V30 3063 O 295.812 1.3481 1.19274 0
M  V30 3064 H 292.187 0.7045 0.263029 0
M  V30 3065 H 294.158 2.97724 0.200755 0
M  V30 3066 C 292.907 2.86314 1.9728 0
M  V30 3067 H 292.23 3.65487 1.62047 0
M  V30 3068 H 293.67 3.3409 2.61075 0
M  V30 3069 C 292.129 1.86729 2.80418 0
M  V30 3070 O 292.659 1.36031 3.77966 0
M  V30 3071 N 290.865 1.55216 2.45675 0
M  V30 3072 H 290.412 1.96636 1.66409 0
M  V30 3073 H 290.37 0.888388 3.01588 0
M  V30 3074 N 294.142 -0.090211 1.57342 0
M  V30 3075 C 295.09 -1.12792 2.03422 0
M  V30 3076 C 296.084 -1.41182 0.936166 0
M  V30 3077 O 297.29 -1.40805 1.12133 0
M  V30 3078 H 293.665 -0.380986 0.648347 0
M  V30 3079 H 295.636 -0.71299 2.89757 0
M  V30 3080 C 294.385 -2.43855 2.47851 0
M  V30 3081 H 293.708 -2.22855 3.31927 0
M  V30 3082 H 295.148 -3.14955 2.83865 0
M  V30 3083 C 293.607 -3.08503 1.3538 0
M  V30 3084 O 294.137 -3.95805 0.685641 0
M  V30 3085 N 292.343 -2.68831 1.10355 0
M  V30 3086 H 291.89 -1.97929 1.64869 0
M  V30 3087 H 291.848 -3.12412 0.353031 0
M  V30 3088 N 295.62 -1.53406 -0.361157 0
M  V30 3089 C 296.868 -1.69467 -1.10115 0
M  V30 3090 C 297.189 -0.451352 -1.89705 0
M  V30 3091 O 296.459 0.534636 -1.88463 0
M  V30 3092 H 295.039 -0.624749 -0.409508 0
M  V30 3093 H 297.701 -1.90609 -0.406699 0
M  V30 3094 H 296.797 -2.55774 -1.78847 0
M  V30 3095 N 297.098 0.621204 -1.44841 0
M  V30 3096 C 298.344 1.38073 -1.49357 0
M  V30 3097 C 298.699 1.91973 -0.128115 0
M  V30 3098 O 297.992 1.71311 0.858087 0
M  V30 3099 C 298.186 2.55675 -2.4973 0
M  V30 3100 C 298.015 2.13289 -3.95901 0
M  V30 3101 C 296.785 2.001 -4.63991 0
M  V30 3102 C 298.983 1.7159 -4.84831 0
M  V30 3103 N 296.965 1.51381 -5.94943 0
M  V30 3104 C 298.336 1.34188 -6.05304 0
M  V30 3105 C 300.391 1.59059 -4.7181 0
M  V30 3106 C 299.094 0.855085 -7.14199 0
M  V30 3107 C 301.12 1.11784 -5.8074 0
M  V30 3108 C 300.482 0.753385 -7.0036 0
M  V30 3109 H 296.581 0.499675 -0.601539 0
M  V30 3110 H 299.165 0.711609 -1.8123 0
M  V30 3111 H 297.336 3.20201 -2.19832 0
M  V30 3112 H 299.068 3.22509 -2.4448 0
M  V30 3113 H 295.823 2.20863 -4.18947 0
M  V30 3114 H 296.247 1.29293 -6.64539 0
M  V30 3115 H 300.889 1.85865 -3.79755 0
M  V30 3116 H 298.607 0.574552 -8.06055 0
M  V30 3117 H 302.193 1.02533 -5.72694 0
M  V30 3118 H 301.073 0.393183 -7.83214 0
M  V30 3119 N 298.576 1.31904 0.862503 0
M  V30 3120 C 299.824 1.21776 1.61292 0
M  V30 3121 C 300.145 -0.222413 1.93727 0
M  V30 3122 O 299.415 -1.1451 1.58947 0
M  V30 3123 H 297.995 0.447717 0.597962 0
M  V30 3124 H 300.657 1.65326 1.03215 0
M  V30 3125 H 299.753 1.7948 2.5533 0
M  V30 3126 N 300.054 -1.07777 1.14986 0
M  V30 3127 C 301.465 -1.61766 0.932127 0
M  V30 3128 C 301.816 -1.88974 -0.527581 0
M  V30 3129 O 300.941 -1.65198 -1.39781 0
M  V30 3130 C 301.536 -2.93891 1.68563 0
M  V30 3131 C 300.095 -3.44639 1.5133 0
M  V30 3132 C 299.242 -2.18767 1.704 0
M  V30 3133 H 302.193 -0.909201 1.30074 0
M  V30 3134 H 302.214 -3.62623 1.15259 0
M  V30 3135 H 301.726 -2.74057 2.74799 0
M  V30 3136 H 299.827 -3.69564 0.474702 0
M  V30 3137 H 299.94 -4.20966 2.28746 0
M  V30 3138 H 298.304 -2.28253 1.13016 0
M  V30 3139 H 299.087 -2.01433 2.77992 0
M  V30 3140 N 301.532 -0.945985 -1.26051 0
M  V30 3141 C 302.762 -0.612136 -1.97323 0
M  V30 3142 C 303.17 0.818171 -1.70595 0
M  V30 3143 O 302.513 1.55777 -0.973613 0
M  V30 3144 C 302.575 -0.780347 -3.50929 0
M  V30 3145 C 302.239 -2.18619 -4.01317 0
M  V30 3146 C 303.236 -3.16209 -4.12683 0
M  V30 3147 C 300.921 -2.50805 -4.35203 0
M  V30 3148 C 302.915 -4.44085 -4.57238 0
M  V30 3149 C 300.602 -3.78912 -4.79446 0
M  V30 3150 C 301.6 -4.75365 -4.90425 0
M  V30 3151 O 301.288 -6.01191 -5.3369 0
M  V30 3152 H 301.02 -0.229134 -0.635982 0
M  V30 3153 H 303.574 -1.27036 -1.61404 0
M  V30 3154 H 301.804 -0.0649864 -3.86645 0
M  V30 3155 H 303.493 -0.448842 -4.03411 0
M  V30 3156 H 304.259 -2.92668 -3.86744 0
M  V30 3157 H 300.138 -1.76463 -4.2589 0
M  V30 3158 H 303.682 -5.19373 -4.65723 0
M  V30 3159 H 299.579 -4.02265 -5.0483 0
M  V30 3160 H 300.347 -6.04442 -5.51899 0
M  V30 3161 N 303.011 1.40521 -0.713556 0
M  V30 3162 C 304.259 2.00527 -0.251692 0
M  V30 3163 C 304.58 1.56857 1.15848 0
M  V30 3164 O 303.85 0.807127 1.785 0
M  V30 3165 H 302.43 0.741551 -0.0900646 0
M  V30 3166 H 305.092 1.71887 -0.918733 0
M  V30 3167 H 304.188 3.10813 -0.283192 0
M  V30 3168 N 304.489 0.459591 1.5075 0
M  V30 3169 C 305.905 0.113092 1.59199 0
M  V30 3170 C 306.105 -1.37951 1.46874 0
M  V30 3171 O 305.161 -2.15168 1.32132 0
M  V30 3172 C 306.474 0.653043 2.93523 0
M  V30 3173 C 308.022 0.615449 3.0689 0
M  V30 3174 C 308.497 1.13275 4.43771 0
M  V30 3175 N 309.988 1.09167 4.50152 0
M  V30 3176 C 310.723 1.46256 5.54434 0
M  V30 3177 N 310.219 1.90739 6.66026 0
M  V30 3178 N 312.012 1.37932 5.44914 0
M  V30 3179 H 304.163 1.43049 1.57005 0
M  V30 3180 H 306.426 0.590861 0.741341 0
M  V30 3181 H 306.132 1.69822 3.07983 0
M  V30 3182 H 306.006 0.0902132 3.77092 0
M  V30 3183 H 308.393 -0.420793 2.92084 0
M  V30 3184 H 308.474 1.21495 2.25106 0
M  V30 3185 H 308.118 2.16757 4.59324 0
M  V30 3186 H 308.048 0.509576 5.24129 0
M  V30 3187 H 310.539 0.76528 3.7007 0
M  V30 3188 H 310.852 2.17218 7.41644 0
M  V30 3189 H 309.197 1.94683 6.67176 0
M  V30 3190 H 312.388 1.0303 4.56621 0
M  V30 3191 H 312.561 1.67164 6.26067 0
M  V30 3192 N 305.967 -1.56429 0.191757 0
M  V30 3193 C 307.244 -1.89224 -0.495332 0
M  V30 3194 C 307.624 -1.10478 -1.79883 0
M  V30 3195 O 306.972 -0.204852 -2.2758 0
M  V30 3196 C 307.182 -3.41548 -0.717367 0
M  V30 3197 C 308.53 -4.11711 -1.03823 0
M  V30 3198 O 309.554 -3.4698 -0.805204 0
M  V30 3199 O 308.413 -5.2611 -1.47887 0
M  V30 3200 H 305.507 -0.785788 -0.25781 0
M  V30 3201 H 308.053 -1.68111 0.231721 0
M  V30 3202 H 306.825 -3.90772 0.203287 0
M  V30 3203 H 306.448 -3.68342 -1.497 0
M  V30 3204 N 307.445 0.0818655 -1.57387 0
M  V30 3205 C 308.67 0.799946 -1.91352 0
M  V30 3206 C 309.095 1.70833 -0.787258 0
M  V30 3207 O 308.453 1.79419 0.26048 0
M  V30 3208 C 308.501 1.57812 -3.24234 0
M  V30 3209 O 307.605 2.68806 -3.12757 0
M  V30 3210 H 306.946 0.21891 -0.626877 0
M  V30 3211 H 309.476 0.0531256 -2.04531 0
M  V30 3212 H 309.486 1.95952 -3.57864 0
M  V30 3213 H 308.161 0.911548 -4.05788 0
M  V30 3214 H 306.738 2.33597 -2.90666 0
M  V30 3215 N 308.923 1.53595 0.353017 0
M  V30 3216 C 310.17 1.70385 1.09431 0
M  V30 3217 C 310.498 0.462113 1.88931 0
M  V30 3218 O 309.753 -0.556074 1.87633 0
M  V30 3219 C 310.052 2.91313 2.07054 0
M  V30 3220 C 309.718 4.27308 1.43939 0
M  V30 3221 C 308.38 4.64287 1.26454 0
M  V30 3222 C 310.732 5.11829 0.983883 0
M  V30 3223 C 308.06 5.83412 0.620226 0
M  V30 3224 C 310.412 6.31611 0.353516 0
M  V30 3225 C 309.076 6.67293 0.166272 0
M  V30 3226 H 308.346 0.623484 0.400436 0
M  V30 3227 H 310.993 1.87799 0.374655 0
M  V30 3228 H 309.298 2.68463 2.85368 0
M  V30 3229 H 310.995 3.01497 2.64387 0
M  V30 3230 H 307.585 3.98198 1.58543 0
M  V30 3231 H 311.769 4.838 1.10685 0
M  V30 3232 H 307.025 6.09639 0.463681 0
M  V30 3233 H 311.199 6.964 -0.00757555 0
M  V30 3234 H 308.826 7.59461 -0.335047 0
M  V30 3235 N 310.401 -0.613514 1.45168 0
M  V30 3236 C 311.351 -1.71871 1.49815 0
M  V30 3237 C 312.335 -1.56774 0.362021 0
M  V30 3238 O 313.527 -1.66212 0.608493 0
M  V30 3239 C 310.656 -3.1061 1.46207 0
M  V30 3240 C 309.742 -3.31114 2.64999 0
M  V30 3241 N 310.133 -3.21904 3.90143 0
M  V30 3242 C 308.431 -3.61966 2.6057 0
M  V30 3243 C 309.132 -3.43577 4.69393 0
M  V30 3244 N 308.108 -3.67287 4.00751 0
M  V30 3245 H 311.91 -1.63235 2.444 0
M  V30 3246 H 309.424 -0.816577 1.40377 0
M  V30 3247 H 311.421 -3.8989 1.4762 0
M  V30 3248 H 310.081 -3.20399 0.52673 0
M  V30 3249 H 311.092 -3.00436 4.21852 0
M  V30 3250 H 307.769 -3.78629 1.75916 0
M  V30 3251 H 309.159 -3.41901 5.78406 0
M  V30 3252 N 311.879 -1.3236 -0.855495 0
M  V30 3253 C 313.29 -1.2056 -1.42556 0
M  V30 3254 C 313.641 0.182209 -1.95352 0
M  V30 3255 O 312.766 1.08088 -1.87472 0
M  V30 3256 C 313.361 -2.1826 -2.59129 0
M  V30 3257 C 311.92 -2.10351 -3.12137 0
M  V30 3258 C 311.067 -2.06674 -1.84882 0
M  V30 3259 H 314.018 -1.442 -0.662727 0
M  V30 3260 H 314.039 -1.78064 -3.36264 0
M  V30 3261 H 313.551 -3.19257 -2.20673 0
M  V30 3262 H 311.652 -1.12599 -3.55179 0
M  V30 3263 H 311.765 -3.00135 -3.73438 0
M  V30 3264 H 310.129 -1.51901 -2.04446 0
M  V30 3265 H 310.912 -3.09451 -1.48643 0
M  V30 3266 N 313.357 1.07166 -1.15556 0
M  V30 3267 C 314.585 1.83514 -0.955519 0
M  V30 3268 C 315 1.82163 0.49621 0
M  V30 3269 O 314.357 1.23441 1.34419 0
M  V30 3270 C 314.408 3.30515 -1.46432 0
M  V30 3271 O 314.129 3.31937 -2.85918 0
M  V30 3272 C 315.63 4.23625 -1.30603 0
M  V30 3273 H 312.85 0.578926 -0.339244 0
M  V30 3274 H 315.394 1.35265 -1.53374 0
M  V30 3275 H 313.549 3.76106 -0.928584 0
M  V30 3276 H 313.963 4.23794 -3.09029 0
M  V30 3277 H 315.437 5.24831 -1.71047 0
M  V30 3278 H 315.914 4.38485 -0.250441 0
M  V30 3279 H 316.52 3.83871 -1.83094 0
M  V30 3280 N 314.835 0.952656 1.25548 0
M  V30 3281 C 316.065 0.622592 1.96996 0
M  V30 3282 C 316.473 -0.809112 1.71026 0
M  V30 3283 O 315.816 -1.55258 0.981861 0
M  V30 3284 C 315.878 0.798946 3.5051 0
M  V30 3285 C 315.542 2.20744 4.00151 0
M  V30 3286 C 316.539 3.18394 4.11001 0
M  V30 3287 C 314.224 2.5311 4.33867 0
M  V30 3288 C 316.218 4.46504 4.54877 0
M  V30 3289 C 313.905 3.8145 4.7743 0
M  V30 3290 C 314.903 4.77959 4.87897 0
M  V30 3291 O 314.591 6.04012 5.30494 0
M  V30 3292 H 314.323 0.232503 0.634758 0
M  V30 3293 H 316.877 1.2789 1.60728 0
M  V30 3294 H 315.107 0.0854903 3.86605 0
M  V30 3295 H 316.796 0.47023 4.03167 0
M  V30 3296 H 317.562 2.94715 3.85186 0
M  V30 3297 H 313.441 1.78719 4.24948 0
M  V30 3298 H 316.985 5.21835 4.62962 0
M  V30 3299 H 312.882 4.04936 5.0269 0
M  V30 3300 H 313.65 6.0736 5.48685 0
M  V30 3301 N 316.313 -1.40141 0.720998 0
M  V30 3302 C 317.561 -2.0039 0.262323 0
M  V30 3303 C 317.882 -1.57469 -1.15015 0
M  V30 3304 O 317.152 -0.816582 -1.78069 0
M  V30 3305 H 315.732 -0.741063 0.093996 0
M  V30 3306 H 318.394 -1.71398 0.927835 0
M  V30 3307 H 317.49 -3.10658 0.299671 0
M  V30 3308 N 317.792 -0.46758 -1.50504 0
M  V30 3309 C 318.74 0.342482 -2.30065 0
M  V30 3310 C 319.734 0.993596 -1.37201 0
M  V30 3311 O 320.94 0.925102 -1.54408 0
M  V30 3312 H 317.315 0.129283 -0.740803 0
M  V30 3313 H 319.286 -0.34899 -2.96352 0
M  V30 3314 C 318.035 1.4139 -3.17654 0
M  V30 3315 H 317.358 0.922264 -3.89017 0
M  V30 3316 H 318.798 1.95335 -3.76325 0
M  V30 3317 C 317.257 2.4139 -2.35016 0
M  V30 3318 O 317.787 3.46586 -2.03079 0
M  V30 3319 N 315.993 2.13021 -1.97662 0
M  V30 3320 H 315.54 1.27499 -2.23834 0
M  V30 3321 H 315.498 2.80164 -1.42673 0
M  V30 3322 N 319.27 1.56325 -0.20005 0
M  V30 3323 C 320.18 2.22931 0.730668 0
M  V30 3324 C 321.196 1.22997 1.23076 0
M  V30 3325 O 322.372 1.55748 1.27689 0
M  V30 3326 C 319.437 2.87948 1.93098 0
M  V30 3327 C 318.498 4.03166 1.47497 0
M  V30 3328 C 317.731 4.65073 2.61807 0
M  V30 3329 O 317.954 4.25913 3.79413 0
M  V30 3330 O 316.888 5.54452 2.34237 0
M  V30 3331 H 320.714 3.03084 0.193391 0
M  V30 3332 H 318.299 1.49371 0.0294621 0
M  V30 3333 H 320.181 3.29063 2.6324 0
M  V30 3334 H 318.856 2.10771 2.45677 0
M  V30 3335 H 317.763 3.66664 0.742201 0
M  V30 3336 H 319.096 4.82022 0.995796 0
M  V30 3337 N 320.748 -0.0735177 1.57428 0
M  V30 3338 C 321.678 -1.0879 2.06608 0
M  V30 3339 C 322.659 -1.40473 0.959237 0
M  V30 3340 O 323.844 -1.5013 1.23185 0
M  V30 3341 C 320.974 -2.40183 2.50857 0
M  V30 3342 C 319.928 -2.22858 3.65402 0
M  V30 3343 C 319.254 -3.59619 3.957 0
M  V30 3344 C 320.554 -1.65123 4.95511 0
M  V30 3345 H 322.248 -0.678673 2.91607 0
M  V30 3346 H 319.794 -0.325013 1.40284 0
M  V30 3347 H 321.747 -3.11437 2.83874 0
M  V30 3348 H 320.471 -2.83083 1.62885 0
M  V30 3349 H 319.13 -1.54045 3.32664 0
M  V30 3350 H 318.778 -4.00086 3.04861 0
M  V30 3351 H 318.478 -3.48866 4.72828 0
M  V30 3352 H 320.002 -4.32306 4.31212 0
M  V30 3353 H 321.416 -2.26241 5.26771 0
M  V30 3354 H 319.813 -1.65071 5.7695 0
M  V30 3355 H 320.883 -0.612559 4.81015 0
M  V30 3356 N 322.226 -1.5378 -0.344866 0
M  V30 3357 C 323.473 -1.70963 -1.08526 0
M  V30 3358 C 323.801 -0.472126 -1.88683 0
M  V30 3359 O 323.056 0.546116 -1.87926 0
M  V30 3360 C 323.355 -2.92407 -2.05506 0
M  V30 3361 C 323.021 -4.28066 -1.41671 0
M  V30 3362 C 321.683 -4.64951 -1.2399 0
M  V30 3363 C 324.035 -5.12344 -0.956726 0
M  V30 3364 C 321.363 -5.83733 -0.589277 0
M  V30 3365 C 323.715 -6.3179 -0.320015 0
M  V30 3366 C 322.379 -6.67372 -0.130881 0
M  V30 3367 H 321.649 -0.625598 -0.397124 0
M  V30 3368 H 324.296 -1.87995 -0.36469 0
M  V30 3369 H 322.601 -2.69973 -2.8394 0
M  V30 3370 H 324.298 -3.02895 -2.62784 0
M  V30 3371 H 320.888 -3.99034 -1.56429 0
M  V30 3372 H 325.072 -4.8438 -1.08118 0
M  V30 3373 H 320.328 -6.09877 -0.431344 0
M  V30 3374 H 324.502 -6.96386 0.0445072 0
M  V30 3375 H 322.129 -7.59273 0.375318 0
M  V30 3376 N 323.704 0.605807 -1.45491 0
M  V30 3377 C 324.634 1.72709 -1.57143 0
M  V30 3378 C 325.615 1.6476 -0.422884 0
M  V30 3379 O 326.8 1.83132 -0.646247 0
M  V30 3380 C 323.93 3.11316 -1.53948 0
M  V30 3381 C 322.884 3.34077 -2.67537 0
M  V30 3382 C 322.21 4.72975 -2.49397 0
M  V30 3383 C 323.51 3.24158 -4.09535 0
M  V30 3384 H 325.204 1.63214 -2.51001 0
M  V30 3385 H 322.75 0.78379 -1.208 0
M  V30 3386 H 324.703 3.89557 -1.60696 0
M  V30 3387 H 323.427 3.21655 -0.566205 0
M  V30 3388 H 322.086 2.58227 -2.6022 0
M  V30 3389 H 321.734 4.8005 -1.50205 0
M  V30 3390 H 321.434 4.8916 -3.25571 0
M  V30 3391 H 322.958 5.53414 -2.58002 0
M  V30 3392 H 324.372 3.92271 -4.18086 0
M  V30 3393 H 322.769 3.51872 -4.86113 0
M  V30 3394 H 323.839 2.2157 -4.31317 0
M  V30 3395 N 325.182 1.32811 0.848464 0
M  V30 3396 C 326.145 1.22194 1.9391 0
M  V30 3397 C 327.145 0.143404 1.60159 0
M  V30 3398 O 328.335 0.394253 1.6968 0
M  V30 3399 C 325.467 0.88067 3.29328 0
M  V30 3400 H 326.66 2.19127 2.04752 0
M  V30 3401 H 324.213 1.16731 1.0394 0
M  V30 3402 H 324.948 -0.0865776 3.24184 0
M  V30 3403 H 324.733 1.66052 3.55203 0
M  V30 3404 H 326.223 0.830871 4.09251 0
M  V30 3405 N 326.66 -1.06551 1.16123 0
M  V30 3406 C 327.908 -1.78947 0.939267 0
M  V30 3407 C 328.229 -1.87532 -0.534476 0
M  V30 3408 O 327.499 -1.38211 -1.38833 0
M  V30 3409 H 326.079 -0.662807 0.344523 0
M  V30 3410 H 328.741 -1.28725 1.46342 0
M  V30 3411 H 327.837 -2.81117 1.35572 0
M  V30 3412 N 328.138 -0.959301 -1.25041 0
M  V30 3413 C 329.554 -0.664474 -1.4511 0
M  V30 3414 C 329.754 0.776481 -1.85938 0
M  V30 3415 O 328.81 1.55128 -1.99227 0
M  V30 3416 C 330.123 -1.64139 -2.5195 0
M  V30 3417 C 331.671 -1.65309 -2.65786 0
M  V30 3418 C 332.146 -2.61777 -3.75815 0
M  V30 3419 N 333.637 -2.60169 -3.83231 0
M  V30 3420 C 334.372 -3.31489 -4.6787 0
M  V30 3421 N 333.868 -4.12298 -5.56761 0
M  V30 3422 N 335.661 -3.20354 -4.61876 0
M  V30 3423 H 327.812 -1.89043 -0.968332 0
M  V30 3424 H 330.075 -0.813408 -0.4869 0
M  V30 3425 H 329.781 -2.67086 -2.28819 0
M  V30 3426 H 329.655 -1.40756 -3.49954 0
M  V30 3427 H 332.042 -0.630778 -2.8828 0
M  V30 3428 H 332.123 -1.92753 -1.68167 0
M  V30 3429 H 331.767 -3.64137 -3.54071 0
M  V30 3430 H 331.697 -2.31616 -4.72929 0
M  V30 3431 H 334.188 -2.01507 -3.19692 0
M  V30 3432 H 334.501 -4.63625 -6.18281 0
M  V30 3433 H 332.846 -4.16395 -5.56454 0
M  V30 3434 H 336.037 -2.56692 -3.91442 0
M  V30 3435 H 336.21 -3.76201 -5.27614 0
M  V30 3436 N 329.616 1.39756 -0.72842 0
M  V30 3437 C 330.548 2.29157 -0.0446202 0
M  V30 3438 C 331.561 1.46484 0.710367 0
M  V30 3439 O 332.75 1.69632 0.55562 0
M  V30 3440 C 329.85 3.24987 0.961071 0
M  V30 3441 C 329.023 4.36572 0.268967 0
M  V30 3442 C 328.082 5.12756 1.18184 0
M  V30 3443 O 327.108 5.6534 0.661794 0
M  V30 3444 N 328.31 5.23331 2.51206 0
M  V30 3445 H 331.075 2.88482 -0.812295 0
M  V30 3446 H 328.636 1.51265 -0.577098 0
M  V30 3447 H 330.628 3.72827 1.57423 0
M  V30 3448 H 329.198 2.66739 1.63 0
M  V30 3449 H 328.418 3.90694 -0.524574 0
M  V30 3450 H 329.706 5.08363 -0.210934 0
M  V30 3451 H 329.104 4.82116 2.9594 0
M  V30 3452 H 327.661 5.74634 3.07634 0
M  V30 3453 N 331.094 0.475555 1.50254 0
M  V30 3454 C 332.319 -0.0777042 2.07254 0
M  V30 3455 C 332.744 -1.3235 1.3366 0
M  V30 3456 O 332.102 -1.77152 0.385597 0
M  V30 3457 C 332.15 -0.340169 3.58992 0
M  V30 3458 O 331.254 -1.41982 3.87188 0
M  V30 3459 H 330.595 0.0149556 0.663832 0
M  V30 3460 H 333.125 0.667878 1.93392 0
M  V30 3461 H 333.135 -0.579332 4.03866 0
M  V30 3462 H 331.81 0.570167 4.11973 0
M  V30 3463 H 330.387 -1.16762 3.54148 0
M  V30 3464 N 332.573 -1.56217 0.208337 0
M  V30 3465 C 333.798 -2.02782 -0.435222 0
M  V30 3466 C 334.223 -1.08738 -1.53485 0
M  V30 3467 O 333.581 -0.0731855 -1.81152 0
M  V30 3468 C 333.629 -3.47687 -0.956335 0
M  V30 3469 O 332.733 -3.56773 -2.06849 0
M  V30 3470 H 332.074 -0.656403 -0.100158 0
M  V30 3471 H 334.604 -2.02033 0.3231 0
M  V30 3472 H 334.614 -3.87745 -1.26955 0
M  V30 3473 H 333.289 -4.15624 -0.15143 0
M  V30 3474 H 331.866 -3.28597 -1.76292 0
M  V30 3475 N 334.051 0.0651679 -1.57465 0
M  V30 3476 C 335.014 1.06117 -2.03155 0
M  V30 3477 C 336.014 1.31204 -0.929632 0
M  V30 3478 O 337.204 1.26813 -1.19432 0
M  V30 3479 C 334.336 2.4032 -2.41783 0
M  V30 3480 H 335.529 0.667231 -2.92383 0
M  V30 3481 H 333.082 0.311075 -1.53173 0
M  V30 3482 H 333.817 2.84532 -1.55601 0
M  V30 3483 H 333.602 2.23451 -3.22199 0
M  V30 3484 H 335.092 3.11898 -2.77685 0
M  V30 3485 N 335.529 1.53961 0.336706 0
M  V30 3486 C 336.759 1.75229 1.09446 0
M  V30 3487 C 337.167 0.494602 1.82621 0
M  V30 3488 O 336.51 -0.543764 1.75468 0
M  V30 3489 C 336.572 2.88288 2.1478 0
M  V30 3490 C 336.236 4.27656 1.6112 0
M  V30 3491 C 337.233 5.08981 1.0599 0
M  V30 3492 C 334.918 4.74161 1.6576 0
M  V30 3493 C 336.912 6.34916 0.562129 0
M  V30 3494 C 334.599 6.00067 1.15595 0
M  V30 3495 C 335.597 6.80278 0.609147 0
M  V30 3496 O 335.285 8.03818 0.114999 0
M  V30 3497 H 335.017 0.588881 0.331956 0
M  V30 3498 H 337.571 2.01614 0.392566 0
M  V30 3499 H 335.801 2.57443 2.88548 0
M  V30 3500 H 337.49 2.97461 2.76174 0
M  V30 3501 H 338.256 4.74213 1.01722 0
M  V30 3502 H 334.135 4.11781 2.07261 0
M  V30 3503 H 337.679 6.9747 0.134668 0
M  V30 3504 H 333.576 6.3433 1.19566 0
M  V30 3505 H 334.344 8.18172 0.231651 0
M  V30 3506 N 337.007 -0.598083 1.45811 0
M  V30 3507 C 337.97 -1.69018 1.54808 0
M  V30 3508 C 338.97 -1.55037 0.426652 0
M  V30 3509 O 340.16 -1.59932 0.690456 0
M  V30 3510 C 337.292 -3.0835 1.45371 0
M  V30 3511 H 338.485 -1.62403 2.52121 0
M  V30 3512 H 336.038 -0.814626 1.33392 0
M  V30 3513 H 336.773 -3.20534 0.492793 0
M  V30 3514 H 336.558 -3.19907 2.26721 0
M  V30 3515 H 338.048 -3.8788 1.54721 0
M  V30 3516 N 338.485 -1.33259 -0.841409 0
M  V30 3517 C 339.733 -1.24326 -1.59334 0
M  V30 3518 C 340.054 0.191564 -1.94057 0
M  V30 3519 O 339.324 1.11967 -1.60749 0
M  V30 3520 H 337.904 -0.457174 -0.590763 0
M  V30 3521 H 340.566 -1.66947 -1.00571 0
M  V30 3522 H 339.662 -1.8352 -2.52442 0
M  V30 3523 N 339.963 1.05934 -1.16686 0
M  V30 3524 C 340.895 2.13468 -0.834503 0
M  V30 3525 C 341.908 1.62013 0.15984 0
M  V30 3526 O 343.097 1.7838 -0.0654228 0
M  V30 3527 C 340.197 3.3817 -0.222361 0
M  V30 3528 C 339.37 4.18928 -1.25771 0
M  V30 3529 C 338.429 5.21985 -0.664703 0
M  V30 3530 O 337.455 5.53334 -1.33453 0
M  V30 3531 N 338.657 5.77919 0.546834 0
M  V30 3532 H 341.422 2.42578 -1.75999 0
M  V30 3533 H 338.983 1.21967 -1.06469 0
M  V30 3534 H 340.975 4.04266 0.187472 0
M  V30 3535 H 339.545 3.06655 0.606758 0
M  V30 3536 H 338.765 3.48433 -1.84358 0
M  V30 3537 H 340.053 4.69687 -1.95631 0
M  V30 3538 H 339.451 5.54721 1.10912 0
M  V30 3539 H 338.008 6.45573 0.898829 0
M  V30 3540 N 341.441 0.965919 1.2453 0
M  V30 3541 C 342.389 0.486506 2.27455 0
M  V30 3542 C 343.383 -0.449041 1.6334 0
M  V30 3543 O 344.589 -0.324527 1.7705 0
M  V30 3544 H 340.964 0.138857 0.739069 0
M  V30 3545 H 342.935 1.3666 2.65267 0
M  V30 3546 C 341.684 -0.209481 3.47068 0
M  V30 3547 H 341.007 0.50129 3.96645 0
M  V30 3548 H 342.447 -0.508775 4.20936 0
M  V30 3549 C 340.906 -1.43586 3.0477 0
M  V30 3550 O 341.436 -2.53299 3.11773 0
M  V30 3551 N 339.642 -1.30126 2.59838 0
M  V30 3552 H 339.189 -0.408583 2.54339 0
M  V30 3553 H 339.147 -2.12294 2.31902 0
M  V30 3554 N 342.919 -1.39368 0.735821 0
M  V30 3555 C 344.166 -2.00497 0.284123 0
M  V30 3556 C 344.494 -1.58387 -1.12889 0
M  V30 3557 O 343.749 -0.804359 -1.78406 0
M  V30 3558 C 344.048 -3.5583 0.334651 0
M  V30 3559 C 343.714 -4.17593 1.7008 0
M  V30 3560 C 342.376 -4.34176 2.07472 0
M  V30 3561 C 344.728 -4.51848 2.59775 0
M  V30 3562 C 342.056 -4.82304 3.34065 0
M  V30 3563 C 344.408 -5.01384 3.85741 0
M  V30 3564 C 343.072 -5.16175 4.23225 0
M  V30 3565 H 342.342 -0.73367 0.103968 0
M  V30 3566 H 344.989 -1.66683 0.942825 0
M  V30 3567 H 343.294 -3.89674 -0.407625 0
M  V30 3568 H 344.991 -4.00986 -0.0329927 0
M  V30 3569 H 341.581 -4.05087 1.40008 0
M  V30 3570 H 345.765 -4.38653 2.32157 0
M  V30 3571 H 341.021 -4.91941 3.63049 0
M  V30 3572 H 345.195 -5.26863 4.55399 0
M  V30 3573 H 342.822 -5.5323 5.21384 0
M  V30 3574 N 344.397 -0.483516 -1.5 0
M  V30 3575 C 345.646 0.0689102 -2.01582 0
M  V30 3576 C 345.959 1.39655 -1.36952 0
M  V30 3577 O 347.165 2.03465 -1.79762 0
M  V30 3578 C 345.621 0.173302 -3.59483 0
M  V30 3579 C 345.229 -1.14665 -4.33077 0
M  V30 3580 C 346.973 0.677024 -4.19066 0
M  V30 3581 C 344.88 -1.00537 -5.82792 0
M  V30 3582 H 343.81 0.0295277 -0.753422 0
M  V30 3583 H 346.461 -0.620295 -1.72698 0
M  V30 3584 H 344.843 0.926569 -3.85007 0
M  V30 3585 H 346.017 -1.91184 -4.19268 0
M  V30 3586 H 344.332 -1.58244 -3.85159 0
M  V30 3587 H 346.929 0.799952 -5.28682 0
M  V30 3588 H 347.272 1.67151 -3.81269 0
M  V30 3589 H 347.805 -0.0192083 -3.97795 0
M  V30 3590 H 344.544 -1.9736 -6.25083 0
M  V30 3591 H 344.064 -0.280776 -5.99142 0
M  V30 3592 H 345.743 -0.677 -6.43448 0
M  V30 3593 N 345.875 1.56104 -0.216619 0
M  V30 3594 C 346.838 2.18819 0.681962 0
M  V30 3595 C 347.838 1.14866 1.12528 0
M  V30 3596 O 349.028 1.40128 1.03488 0
M  V30 3597 C 346.16 2.80756 1.93362 0
M  V30 3598 H 347.353 2.99595 0.135254 0
M  V30 3599 H 344.906 1.56265 0.0330003 0
M  V30 3600 H 345.641 2.03837 2.52232 0
M  V30 3601 H 345.426 3.56876 1.62426 0
M  V30 3602 H 346.916 3.28844 2.57393 0
M  V30 3603 N 347.353 -0.0568162 1.57498 0
M  V30 3604 C 348.285 -1.09292 2.01464 0
M  V30 3605 C 349.298 -1.34112 0.922913 0
M  V30 3606 O 350.487 -1.32089 1.20062 0
M  V30 3607 C 347.587 -2.44068 2.35125 0
M  V30 3608 C 346.76 -2.38995 3.66333 0
M  V30 3609 C 345.819 -3.55997 3.87495 0
M  V30 3610 O 344.845 -3.36746 4.58901 0
M  V30 3611 N 346.047 -4.76888 3.30996 0
M  V30 3612 H 348.812 -0.718386 2.90963 0
M  V30 3613 H 346.373 -0.245235 1.60032 0
M  V30 3614 H 348.365 -3.21011 2.46443 0
M  V30 3615 H 346.935 -2.73468 1.5144 0
M  V30 3616 H 346.155 -1.47336 3.65631 0
M  V30 3617 H 347.443 -2.3272 4.52458 0
M  V30 3618 H 346.841 -4.95431 2.73065 0
M  V30 3619 H 345.398 -5.51291 3.47738 0
M  V30 3620 N 348.832 -1.54138 -0.328536 0
M  V30 3621 C 349.782 -1.79557 -1.4051 0
M  V30 3622 C 350.766 -0.651373 -1.47126 0
M  V30 3623 O 351.958 -0.911226 -1.51742 0
M  V30 3624 C 349.087 -2.02196 -2.77438 0
M  V30 3625 C 348.173 -3.22724 -2.75155 0
M  V30 3626 N 348.564 -4.43881 -2.42494 0
M  V30 3627 C 346.862 -3.24196 -3.06289 0
M  V30 3628 C 347.563 -5.25797 -2.48822 0
M  V30 3629 N 346.539 -4.62862 -2.8506 0
M  V30 3630 H 350.341 -2.70814 -1.1418 0
M  V30 3631 H 347.855 -1.53265 -0.536991 0
M  V30 3632 H 349.852 -2.18546 -3.55026 0
M  V30 3633 H 348.512 -1.12191 -3.04702 0
M  V30 3634 H 349.523 -4.70969 -2.15428 0
M  V30 3635 H 346.2 -2.44208 -3.38627 0
M  V30 3636 H 347.59 -6.32535 -2.26603 0
M  V30 3637 N 350.31 0.590341 -1.46126 0
M  V30 3638 C 351.242 1.71427 -1.52136 0
M  V30 3639 C 352.255 1.57542 -0.41042 0
M  V30 3640 O 353.444 1.65106 -0.678389 0
M  V30 3641 C 350.544 3.09605 -1.37834 0
M  V30 3642 C 349.717 3.49566 -2.62912 0
M  V30 3643 C 348.776 4.66773 -2.42918 0
M  V30 3644 O 347.802 4.73019 -3.1661 0
M  V30 3645 N 349.004 5.61161 -1.4859 0
M  V30 3646 H 351.769 1.66728 -2.49042 0
M  V30 3647 H 349.33 0.776113 -1.42085 0
M  V30 3648 H 351.322 3.85796 -1.22243 0
M  V30 3649 H 349.892 3.08714 -0.491393 0
M  V30 3650 H 349.112 2.63158 -2.93499 0
M  V30 3651 H 350.4 3.73028 -3.46017 0
M  V30 3652 H 349.798 5.58844 -0.87808 0
M  V30 3653 H 348.355 6.36814 -1.38965 0
M  V30 3654 N 351.788 1.33704 0.83433 0
M  V30 3655 C 352.721 1.18675 1.94914 0
M  V30 3656 C 353.699 0.0811145 1.62398 0
M  V30 3657 O 354.883 0.244186 1.86912 0
M  V30 3658 C 352.01 0.821231 3.28593 0
M  V30 3659 C 351.056 1.93501 3.80079 0
M  V30 3660 S 351.889 3.54671 4.01209 0
M  V30 3661 C 353.045 3.20136 5.37833 0
M  V30 3662 H 353.278 2.13043 2.07364 0
M  V30 3663 H 350.811 1.18598 0.988624 0
M  V30 3664 H 352.769 0.617123 4.05835 0
M  V30 3665 H 351.43 -0.103927 3.13928 0
M  V30 3666 H 350.623 1.63273 4.76821 0
M  V30 3667 H 350.225 2.09601 3.09747 0
M  V30 3668 H 352.517 2.71242 6.20833 0
M  V30 3669 H 353.46 4.15975 5.73036 0
M  V30 3670 H 353.868 2.56613 5.02802 0
M  V30 3671 N 353.266 -1.05314 1.17247 0
M  V30 3672 C 354.677 -1.59753 0.96623 0
M  V30 3673 C 355.028 -1.9005 -0.487378 0
M  V30 3674 O 354.153 -1.68126 -1.36245 0
M  V30 3675 C 354.748 -2.90249 1.74759 0
M  V30 3676 C 353.307 -3.41352 1.58606 0
M  V30 3677 C 352.454 -2.15103 1.75002 0
M  V30 3678 H 355.405 -0.881406 1.31973 0
M  V30 3679 H 355.426 -3.60097 1.22925 0
M  V30 3680 H 354.938 -2.68166 2.8055 0
M  V30 3681 H 353.039 -3.68474 0.552985 0
M  V30 3682 H 353.152 -4.16019 2.37624 0
M  V30 3683 H 351.516 -2.25804 1.17833 0
M  V30 3684 H 352.299 -1.95491 2.82202 0
M  V30 3685 N 354.744 -0.972509 -1.24016 0
M  V30 3686 C 355.674 -0.525548 -2.27509 0
M  V30 3687 C 356.655 0.437262 -1.64384 0
M  V30 3688 O 357.84 0.332343 -1.91335 0
M  V30 3689 C 354.97 0.180448 -3.46831 0
M  V30 3690 C 353.924 -0.698859 -4.22256 0
M  V30 3691 C 353.25 0.138903 -5.3452 0
M  V30 3692 C 354.55 -1.98582 -4.83076 0
M  V30 3693 H 356.244 -1.39058 -2.65148 0
M  V30 3694 H 353.79 -0.67009 -1.27459 0
M  V30 3695 H 355.743 0.504387 -4.18371 0
M  V30 3696 H 354.467 1.07987 -3.08231 0
M  V30 3697 H 353.126 -1.00614 -3.52523 0
M  V30 3698 H 352.774 1.03862 -4.9216 0
M  V30 3699 H 352.474 -0.446259 -5.85903 0
M  V30 3700 H 353.998 0.457404 -6.08884 0
M  V30 3701 H 355.412 -1.72715 -5.46665 0
M  V30 3702 H 353.809 -2.5181 -5.44713 0
M  V30 3703 H 354.879 -2.67769 -4.04262 0
M  V30 3704 N 356.222 1.38976 -0.743202 0
M  V30 3705 C 357.152 2.33171 -0.123873 0
M  V30 3706 C 358.133 1.54336 0.71516 0
M  V30 3707 O 359.318 1.82696 0.658467 0
M  V30 3708 C 356.448 3.38474 0.777978 0
M  V30 3709 C 355.402 4.27979 0.0424758 0
M  V30 3710 C 354.728 5.2405 1.06189 0
M  V30 3711 C 356.028 5.10155 -1.1198 0
M  V30 3712 H 357.722 2.85213 -0.910709 0
M  V30 3713 H 355.268 1.37133 -0.439388 0
M  V30 3714 H 357.221 4.03328 1.22084 0
M  V30 3715 H 355.945 2.84891 1.59702 0
M  V30 3716 H 354.604 3.64616 -0.380853 0
M  V30 3717 H 354.252 4.66758 1.87472 0
M  V30 3718 H 353.952 5.84785 0.574485 0
M  V30 3719 H 355.476 5.9178 1.50428 0
M  V30 3720 H 356.89 5.68307 -0.75499 0
M  V30 3721 H 355.287 5.80073 -1.53738 0
M  V30 3722 H 356.357 4.44504 -1.93764 0
M  V30 3723 N 357.7 0.491464 1.49741 0
M  V30 3724 C 358.925 -0.0557177 2.07325 0
M  V30 3725 C 359.35 -1.30925 1.35056 0
M  V30 3726 O 358.708 -1.76733 0.404365 0
M  V30 3727 C 358.756 -0.302074 3.59333 0
M  V30 3728 O 357.86 -1.37868 3.88672 0
M  V30 3729 H 357.201 0.0219956 0.663636 0
M  V30 3730 H 359.731 0.688352 1.92673 0
M  V30 3731 H 359.741 -0.536464 4.04458 0
M  V30 3732 H 358.416 0.61383 4.11345 0
M  V30 3733 H 356.993 -1.12999 3.55367 0
M  V30 3734 N 359.178 -1.55987 0.224894 0
M  V30 3735 C 360.594 -1.59066 -0.130426 0
M  V30 3736 C 360.794 -1.24176 -1.5869 0
M  V30 3737 O 359.85 -0.978592 -2.32766 0
M  V30 3738 C 361.163 -3.00042 0.198883 0
M  V30 3739 C 362.711 -3.1268 0.141391 0
M  V30 3740 C 363.186 -4.55839 0.444422 0
M  V30 3741 N 364.677 -4.6152 0.394115 0
M  V30 3742 C 365.412 -5.70231 0.602038 0
M  V30 3743 N 364.908 -6.87291 0.871914 0
M  V30 3744 N 366.701 -5.59555 0.534245 0
M  V30 3745 H 358.852 -1.76941 1.17497 0
M  V30 3746 H 361.115 -0.822604 0.471197 0
M  V30 3747 H 360.821 -3.30234 1.2099 0
M  V30 3748 H 360.695 -3.74075 -0.484535 0
M  V30 3749 H 363.082 -2.82283 -0.860265 0
M  V30 3750 H 363.163 -2.40969 0.858335 0
M  V30 3751 H 362.807 -4.86954 1.44353 0
M  V30 3752 H 362.737 -5.2578 -0.293752 0
M  V30 3753 H 365.228 -3.77405 0.193356 0
M  V30 3754 H 365.541 -7.66058 1.01858 0
M  V30 3755 H 363.886 -6.89028 0.909145 0
M  V30 3756 H 367.077 -4.6698 0.323612 0
M  V30 3757 H 367.25 -6.44211 0.699693 0
M  V30 3758 N 360.656 0.0484629 -1.57525 0
M  V30 3759 C 361.881 0.759177 -1.93006 0
M  V30 3760 C 362.306 1.69125 -0.823317 0
M  V30 3761 O 361.664 1.79931 0.222364 0
M  V30 3762 C 361.712 1.50899 -3.27509 0
M  V30 3763 O 360.816 2.62112 -3.18388 0
M  V30 3764 H 360.157 0.205564 -0.631379 0
M  V30 3765 H 362.687 0.00972959 -2.04598 0
M  V30 3766 H 362.697 1.88317 -3.6194 0
M  V30 3767 H 361.372 0.825269 -4.0763 0
M  V30 3768 H 359.949 2.27379 -2.95556 0
M  V30 3769 N 362.134 1.5431 0.320358 0
M  V30 3770 C 363.082 1.84647 1.4145 0
M  V30 3771 C 364.076 0.718624 1.53402 0
M  V30 3772 O 365.282 0.902335 1.5575 0
M  V30 3773 H 361.657 0.585349 0.472091 0
M  V30 3774 H 363.628 2.7614 1.13089 0
M  V30 3775 C 362.377 2.09341 2.77617 0
M  V30 3776 H 361.7 2.9559 2.69196 0
M  V30 3777 H 363.14 2.3452 3.53237 0
M  V30 3778 C 361.599 0.885939 3.25043 0
M  V30 3779 O 362.129 0.0967891 4.01583 0
M  V30 3780 N 360.335 0.696682 2.82125 0
M  V30 3781 H 359.882 1.34006 2.2 0
M  V30 3782 H 359.84 -0.109712 3.14209 0
M  V30 3783 N 363.613 -0.582584 1.46437 0
M  V30 3784 C 364.86 -1.34079 1.51753 0
M  V30 3785 C 365.188 -1.93762 0.169299 0
M  V30 3786 O 364.443 -1.76989 -0.835062 0
M  V30 3787 C 364.742 -2.48964 2.56421 0
M  V30 3788 C 364.408 -2.07273 4.00436 0
M  V30 3789 C 363.07 -1.95618 4.39644 0
M  V30 3790 C 365.422 -1.75111 4.90903 0
M  V30 3791 C 362.75 -1.5006 5.67185 0
M  V30 3792 C 365.102 -1.31032 6.18881 0
M  V30 3793 C 363.766 -1.17954 6.56996 0
M  V30 3794 H 363.036 -0.49063 0.555304 0
M  V30 3795 H 365.683 -0.656007 1.79913 0
M  V30 3796 H 363.988 -3.22889 2.21923 0
M  V30 3797 H 365.685 -3.07178 2.57765 0
M  V30 3798 H 362.275 -2.17279 3.69443 0
M  V30 3799 H 366.459 -1.83001 4.61329 0
M  V30 3800 H 361.715 -1.38577 5.95488 0
M  V30 3801 H 365.889 -1.052 6.88408 0
M  V30 3802 H 363.516 -0.824279 7.55718 0
M  V30 3803 N 365.091 -1.34144 -0.827227 0
M  V30 3804 C 366.039 -1.25364 -1.95925 0
M  V30 3805 C 367.033 -0.152608 -1.68711 0
M  V30 3806 O 368.239 -0.317311 -1.77181 0
M  V30 3807 H 364.614 -0.389342 -0.643364 0
M  V30 3808 H 366.585 -2.21045 -2.00454 0
M  V30 3809 C 365.334 -1.02158 -3.32354 0
M  V30 3810 H 364.657 -1.86111 -3.5384 0
M  V30 3811 H 366.097 -1.00048 -4.12027 0
M  V30 3812 C 364.556 0.275244 -3.35774 0
M  V30 3813 O 365.086 1.27806 -3.80826 0
M  V30 3814 N 363.292 0.306853 -2.88975 0
M  V30 3815 H 362.839 -0.509777 -2.52506 0
M  V30 3816 H 362.797 1.17432 -2.91646 0
M  V30 3817 N 366.569 1.04691 -1.17803 0
M  V30 3818 C 367.98 1.59238 -0.974689 0
M  V30 3819 C 368.331 1.90306 0.477292 0
M  V30 3820 O 367.456 1.68846 1.35352 0
M  V30 3821 C 368.051 2.89318 -1.76296 0
M  V30 3822 C 366.61 3.40506 -1.60414 0
M  V30 3823 C 365.757 2.14172 -1.76141 0
M  V30 3824 H 368.708 0.874395 -1.32439 0
M  V30 3825 H 368.729 3.5944 -1.24833 0
M  V30 3826 H 368.241 2.66675 -2.81968 0
M  V30 3827 H 366.342 3.68175 -0.572519 0
M  V30 3828 H 366.455 4.14753 -2.39827 0
M  V30 3829 H 364.819 2.25176 -1.19028 0
M  V30 3830 H 365.602 1.93992 -2.83235 0
M  V30 3831 N 368.047 0.979072 1.23499 0
M  V30 3832 C 368.957 0.526431 2.28617 0
M  V30 3833 C 369.973 -0.418126 1.68901 0
M  V30 3834 O 371.149 -0.288372 1.99325 0
M  V30 3835 C 368.214 -0.165235 3.46306 0
M  V30 3836 C 367.275 0.82056 4.21385 0
M  V30 3837 C 366.508 0.161807 5.33455 0
M  V30 3838 O 366.731 -1.04742 5.60701 0
M  V30 3839 O 365.665 0.859708 5.95729 0
M  V30 3840 H 369.491 1.4006 2.69475 0
M  V30 3841 H 367.076 0.746643 1.29405 0
M  V30 3842 H 368.958 -0.553287 4.17752 0
M  V30 3843 H 367.633 -1.01419 3.07402 0
M  V30 3844 H 366.54 1.25929 3.52268 0
M  V30 3845 H 367.873 1.63828 4.64135 0
M  V30 3846 N 369.525 -1.3858 0.750561 0
M  V30 3847 C 370.772 -2.00184 0.305373 0
M  V30 3848 C 371.1 -1.59575 -1.11203 0
M  V30 3849 O 370.355 -0.823236 -1.77542 0
M  V30 3850 C 370.654 -3.55455 0.372373 0
M  V30 3851 C 370.32 -4.15765 1.745 0
M  V30 3852 C 368.982 -4.31951 2.12065 0
M  V30 3853 C 371.334 -4.49067 2.64553 0
M  V30 3854 C 368.662 -4.78734 3.39162 0
M  V30 3855 C 371.014 -4.97265 3.91038 0
M  V30 3856 C 369.678 -5.11658 4.28676 0
M  V30 3857 H 368.948 -0.732526 0.111744 0
M  V30 3858 H 371.595 -1.65673 0.960451 0
M  V30 3859 H 369.9 -3.90084 -0.366272 0
M  V30 3860 H 371.597 -4.00999 0.00953918 0
M  V30 3861 H 368.187 -4.03579 1.44297 0
M  V30 3862 H 372.371 -4.36166 2.36796 0
M  V30 3863 H 367.627 -4.88062 3.68246 0
M  V30 3864 H 371.801 -5.22003 4.60962 0
M  V30 3865 H 369.428 -5.47668 5.27222 0
M  V30 3866 N 371.003 -0.499398 -1.49478 0
M  V30 3867 C 371.933 0.269244 -2.31943 0
M  V30 3868 C 372.914 0.964054 -1.40143 0
M  V30 3869 O 374.099 0.955767 -1.69052 0
M  V30 3870 C 371.229 1.33504 -3.20615 0
M  V30 3871 C 370.183 0.760202 -4.21195 0
M  V30 3872 C 369.509 1.9264 -4.98792 0
M  V30 3873 C 370.809 -0.247661 -5.21712 0
M  V30 3874 H 372.503 -0.419082 -2.96452 0
M  V30 3875 H 370.049 -0.202988 -1.42562 0
M  V30 3876 H 372.002 1.88048 -3.77115 0
M  V30 3877 H 370.726 2.05253 -2.54045 0
M  V30 3878 H 369.385 0.23653 -3.65836 0
M  V30 3879 H 369.033 2.63154 -4.28671 0
M  V30 3880 H 368.733 1.54785 -5.66847 0
M  V30 3881 H 370.257 2.4762 -5.58137 0
M  V30 3882 H 371.671 0.209579 -5.72917 0
M  V30 3883 H 370.068 -0.541962 -5.97648 0
M  V30 3884 H 371.138 -1.16409 -4.7072 0
M  V30 3885 N 372.481 1.55866 -0.233164 0
M  V30 3886 C 373.706 2.03449 0.402906 0
M  V30 3887 C 374.131 1.11166 1.51736 0
M  V30 3888 O 373.489 0.101996 1.81013 0
M  V30 3889 C 373.537 3.49165 0.9009 0
M  V30 3890 O 372.641 3.60019 2.01147 0
M  V30 3891 H 371.982 0.657913 0.0897025 0
M  V30 3892 H 374.512 2.01493 -0.355201 0
M  V30 3893 H 374.522 3.89716 1.2077 0
M  V30 3894 H 373.197 4.15813 0.0852889 0
M  V30 3895 H 371.774 3.3136 1.71042 0
M  V30 3896 N 373.959 -0.0401083 1.57549 0
M  V30 3897 C 375.205 -0.734211 1.89043 0
M  V30 3898 C 375.538 -1.75591 0.829535 0
M  V30 3899 O 374.813 -1.93868 -0.156706 0
M  V30 3900 C 375.096 -1.41374 3.31188 0
M  V30 3901 C 374.949 -0.406299 4.47961 0
M  V30 3902 C 376.268 -2.35061 3.72068 0
M  V30 3903 H 373.387 -0.265447 0.687537 0
M  V30 3904 H 376.029 0.00294087 1.9 0
M  V30 3905 H 374.179 -2.04206 3.30503 0
M  V30 3906 H 375.851 0.219255 4.60779 0
M  V30 3907 H 374.094 0.275485 4.32924 0
M  V30 3908 H 374.765 -0.920022 5.44279 0
M  V30 3909 H 377.241 -1.82282 3.74049 0
M  V30 3910 H 376.117 -2.79593 4.72355 0
M  V30 3911 H 376.378 -3.21258 3.0372 0
M  V30 3912 N 375.437 -1.54477 -0.31217 0
M  V30 3913 C 376.367 -1.87652 -1.38957 0
M  V30 3914 C 377.348 -0.734358 -1.53431 0
M  V30 3915 O 378.533 -0.98911 -1.67123 0
M  V30 3916 C 375.663 -2.11396 -2.75552 0
M  V30 3917 C 374.617 -3.27243 -2.75855 0
M  V30 3918 C 373.943 -3.36382 -4.15633 0
M  V30 3919 C 375.243 -4.64622 -2.38587 0
M  V30 3920 H 376.937 -2.77887 -1.11442 0
M  V30 3921 H 374.483 -1.33707 -0.534655 0
M  V30 3922 H 376.436 -2.33189 -3.51 0
M  V30 3923 H 375.16 -1.17921 -3.04569 0
M  V30 3924 H 373.819 -3.05356 -2.02863 0
M  V30 3925 H 373.467 -2.40445 -4.41809 0
M  V30 3926 H 373.167 -4.14249 -4.1674 0
M  V30 3927 H 374.691 -3.60422 -4.92877 0
M  V30 3928 H 376.105 -4.86219 -3.03749 0
M  V30 3929 H 374.502 -5.45121 -2.50925 0
M  V30 3930 H 375.572 -4.66097 -1.33723 0
M  V30 3931 N 376.915 0.57481 -1.46744 0
M  V30 3932 C 378.14 1.36341 -1.56288 0
M  V30 3933 C 378.565 1.86954 -0.207347 0
M  V30 3934 O 377.923 1.62006 0.813871 0
M  V30 3935 C 377.971 2.52147 -2.57787 0
M  V30 3936 O 377.075 3.53834 -2.11838 0
M  V30 3937 H 376.416 0.405713 -0.525636 0
M  V30 3938 H 378.946 0.696453 -1.92382 0
M  V30 3939 H 378.956 2.98958 -2.77648 0
M  V30 3940 H 377.631 2.14663 -3.5622 0
M  V30 3941 H 376.208 3.1345 -2.01999 0
M  V30 3942 N 378.394 1.34581 0.820102 0
M  V30 3943 C 379.344 1.22943 1.92013 0
M  V30 3944 C 380.328 0.127802 1.60392 0
M  V30 3945 O 381.52 0.357737 1.73347 0
M  V30 3946 C 378.649 0.989938 3.28717 0
M  V30 3947 C 377.735 2.13486 3.66449 0
M  V30 3948 N 378.126 3.38625 3.75722 0
M  V30 3949 C 376.424 2.04573 3.96315 0
M  V30 3950 C 377.125 4.13832 4.08801 0
M  V30 3951 N 376.101 3.42451 4.22171 0
M  V30 3952 H 379.903 2.17771 1.97365 0
M  V30 3953 H 377.417 1.2686 1.01392 0
M  V30 3954 H 379.414 0.887462 4.07345 0
M  V30 3955 H 378.074 0.0503691 3.24661 0
M  V30 3956 H 379.085 3.73143 3.59144 0
M  V30 3957 H 375.762 1.1839 4.00362 0
M  V30 3958 H 377.152 5.21909 4.23156 0
M  V30 3959 N 379.872 -1.04064 1.18357 0
M  V30 3960 C 381.288 -1.2947 0.933258 0
M  V30 3961 C 381.488 -1.97466 -0.401169 0
M  V30 3962 O 380.544 -2.25528 -1.13549 0
M  V30 3963 C 381.857 -2.15337 2.09882 0
M  V30 3964 C 383.405 -2.28683 2.13712 0
M  V30 3965 C 383.88 -3.17917 3.29686 0
M  V30 3966 N 385.371 -3.25504 3.29547 0
M  V30 3967 C 386.106 -3.94706 4.15926 0
M  V30 3968 N 385.602 -4.66239 5.12439 0
M  V30 3969 N 387.395 -3.90986 4.0384 0
M  V30 3970 H 379.546 -0.583359 2.04232 0
M  V30 3971 H 381.809 -0.319921 0.892387 0
M  V30 3972 H 381.515 -1.72682 3.06389 0
M  V30 3973 H 381.389 -3.16015 2.05947 0
M  V30 3974 H 383.776 -2.70575 1.17784 0
M  V30 3975 H 383.857 -1.27596 2.21705 0
M  V30 3976 H 383.501 -2.76736 4.25887 0
M  V30 3977 H 383.431 -4.19036 3.1893 0
M  V30 3978 H 385.922 -2.74547 2.59677 0
M  V30 3979 H 386.235 -5.16638 5.74722 0
M  V30 3980 H 384.58 -4.65143 5.16398 0
M  V30 3981 H 387.771 -3.34234 3.27727 0
M  V30 3982 H 387.944 -4.44646 4.71375 0
M  V30 3983 N 381.35 -0.985608 -1.22978 0
M  V30 3984 C 382.282 -0.488154 -2.23941 0
M  V30 3985 C 383.295 0.41282 -1.57479 0
M  V30 3986 O 384.484 0.216121 -1.77187 0
M  V30 3987 C 381.584 0.312611 -3.37455 0
M  V30 3988 C 380.757 -0.582741 -4.33501 0
M  V30 3989 C 379.816 0.165064 -5.25941 0
M  V30 3990 O 378.842 -0.447077 -5.67442 0
M  V30 3991 N 380.044 1.44953 -5.62111 0
M  V30 3992 H 382.809 -1.3563 -2.67254 0
M  V30 3993 H 380.37 -0.859477 -1.37203 0
M  V30 3994 H 382.362 0.821357 -3.96277 0
M  V30 3995 H 380.932 1.0818 -2.93285 0
M  V30 3996 H 380.152 -1.27225 -3.73105 0
M  V30 3997 H 381.44 -1.19275 -4.94622 0
M  V30 3998 H 380.838 1.9683 -5.30353 0
M  V30 3999 H 379.395 1.90361 -6.23383 0
M  V30 4000 N 382.828 1.3818 -0.7579 0
M  V30 4001 C 384.105 1.94106 -0.241306 0
M  V30 4002 C 384.485 1.69282 1.26122 0
M  V30 4003 O 383.833 1.03378 2.03777 0
M  V30 4004 C 384.043 3.43809 -0.59967 0
M  V30 4005 C 385.391 4.20868 -0.561717 0
M  V30 4006 O 386.415 3.5211 -0.538222 0
M  V30 4007 O 385.274 5.43451 -0.576478 0
M  V30 4008 H 382.368 0.825376 -0.0518042 0
M  V30 4009 H 384.914 1.47548 -0.838315 0
M  V30 4010 H 383.686 3.55403 -1.6372 0
M  V30 4011 H 383.309 3.97592 0.0251197 0
M  V30 4012 N 384.306 0.507319 1.49211 0
M  V30 4013 C 385.554 -0.0348839 2.0207 0
M  V30 4014 C 385.875 -1.36898 1.38866 0
M  V30 4015 O 385.145 -1.88133 0.546151 0
M  V30 4016 H 383.725 -0.0158812 0.746831 0
M  V30 4017 H 386.387 0.665998 1.83168 0
M  V30 4018 H 385.483 -0.159917 3.1169 0
M  V30 4019 N 385.784 -1.5574 0.241426 0
M  V30 4020 C 386.747 -2.19877 -0.647063 0
M  V30 4021 C 387.747 -1.16642 -1.10686 0
M  V30 4022 O 388.937 -1.41757 -1.01245 0
M  V30 4023 C 386.069 -2.83797 -1.88871 0
M  V30 4024 H 387.262 -2.99772 -0.087574 0
M  V30 4025 H 384.815 -1.56298 -0.00813574 0
M  V30 4026 H 385.55 -2.07824 -2.48957 0
M  V30 4027 H 385.335 -3.59414 -1.56728 0
M  V30 4028 H 386.825 -3.32898 -2.52129 0
M  V30 4029 N 387.262 0.0317525 -1.57568 0
M  V30 4030 C 388.209 1.0332 -2.06382 0
M  V30 4031 C 389.179 1.36082 -0.952414 0
M  V30 4032 O 390.364 1.46466 -1.2228 0
M  V30 4033 C 387.504 2.32989 -2.54578 0
M  V30 4034 C 386.617 2.0641 -3.79498 0
M  V30 4035 C 385.752 3.2993 -4.16317 0
M  V30 4036 C 384.791 2.98893 -5.34162 0
M  V30 4037 N 383.928 4.14857 -5.66426 0
M  V30 4038 H 388.768 0.609982 -2.9169 0
M  V30 4039 H 386.305 0.289573 -1.44222 0
M  V30 4040 H 388.263 3.0875 -2.80587 0
M  V30 4041 H 386.893 2.73039 -1.7219 0
M  V30 4042 H 385.945 1.21158 -3.6059 0
M  V30 4043 H 387.257 1.79513 -4.65378 0
M  V30 4044 H 386.411 4.1406 -4.4344 0
M  V30 4045 H 385.15 3.59938 -3.29083 0
M  V30 4046 H 384.155 2.13164 -5.06795 0
M  V30 4047 H 385.38 2.70165 -6.23047 0
M  V30 4048 H 383.326 4.44821 -4.82151 0
M  V30 4049 H 383.243 3.91374 -6.4681 0
M  V30 4050 H 384.511 4.99868 -5.98124 0
M  V30 4051 N 388.74 1.54641 0.303973 0
M  V30 4052 C 389.687 1.85386 1.37479 0
M  V30 4053 C 390.657 0.702528 1.50512 0
M  V30 4054 O 391.842 0.950867 1.65418 0
M  V30 4055 C 388.982 2.10413 2.73533 0
M  V30 4056 C 388.095 3.38049 2.68974 0
M  V30 4057 C 387.23 3.52934 3.97002 0
M  V30 4058 C 386.269 4.74373 3.86829 0
M  V30 4059 N 385.406 4.8608 5.06627 0
M  V30 4060 H 390.246 2.76732 1.1056 0
M  V30 4061 H 387.783 1.37034 0.534805 0
M  V30 4062 H 389.741 2.22919 3.52652 0
M  V30 4063 H 388.371 1.22338 2.98719 0
M  V30 4064 H 387.423 3.3418 1.81736 0
M  V30 4065 H 388.735 4.27288 2.57346 0
M  V30 4066 H 387.889 3.65088 4.84557 0
M  V30 4067 H 386.628 2.61824 4.1146 0
M  V30 4068 H 385.633 4.62255 2.97658 0
M  V30 4069 H 386.858 5.66888 3.73918 0
M  V30 4070 H 384.804 3.97891 5.21554 0
M  V30 4071 H 384.721 5.69315 4.9741 0
M  V30 4072 H 385.989 5.02587 5.95841 0
M  V30 4073 N 390.218 -0.567019 1.47046 0
M  V30 4074 C 391.443 -1.3551 1.57009 0
M  V30 4075 C 391.868 -1.86841 0.217259 0
M  V30 4076 O 391.226 -1.62435 -0.805268 0
M  V30 4077 C 391.274 -2.50777 2.5912 0
M  V30 4078 O 390.378 -3.52706 2.13711 0
M  V30 4079 H 389.719 -0.402919 0.52778 0
M  V30 4080 H 392.249 -0.686241 1.92748 0
M  V30 4081 H 392.259 -2.97481 2.79229 0
M  V30 4082 H 390.934 -2.12771 3.57353 0
M  V30 4083 H 389.511 -3.12374 2.03659 0
M  V30 4084 N 391.696 -1.35014 -0.812953 0
M  V30 4085 C 392.643 -1.27412 -1.92444 0
M  V30 4086 C 393.613 -0.14733 -1.65445 0
M  V30 4087 O 394.798 -0.329974 -1.87925 0
M  V30 4088 C 391.938 -1.04558 -3.28879 0
M  V30 4089 C 391.051 -2.26101 -3.68106 0
M  V30 4090 C 390.186 -1.96449 -4.9354 0
M  V30 4091 C 389.225 -3.14081 -5.25376 0
M  V30 4092 N 388.362 -2.84246 -6.41988 0
M  V30 4093 H 393.202 -2.22463 -1.98278 0
M  V30 4094 H 390.739 -1.10593 -0.969933 0
M  V30 4095 H 392.697 -0.893413 -4.07522 0
M  V30 4096 H 391.327 -0.131719 -3.22531 0
M  V30 4097 H 390.379 -2.52204 -2.84775 0
M  V30 4098 H 391.691 -3.13959 -3.87597 0
M  V30 4099 H 390.845 -1.78026 -5.79993 0
M  V30 4100 H 389.584 -1.05867 -4.76071 0
M  V30 4101 H 388.589 -3.33089 -4.37415 0
M  V30 4102 H 389.814 -4.05455 -5.44778 0
M  V30 4103 H 387.76 -1.96252 -6.25956 0
M  V30 4104 H 387.677 -3.65637 -6.61699 0
M  V30 4105 H 388.945 -2.6935 -7.31485 0
M  V30 4106 N 393.175 1.03435 -1.18907 0
M  V30 4107 C 394.424 1.76143 -0.982669 0
M  V30 4108 C 394.737 1.89416 0.487953 0
M  V30 4109 O 395.943 2.59041 0.813036 0
M  V30 4110 C 394.399 3.16722 -1.70924 0
M  V30 4111 C 394.007 3.11522 -3.21959 0
M  V30 4112 C 395.751 3.93764 -1.58588 0
M  V30 4113 C 393.658 4.46999 -3.87228 0
M  V30 4114 H 392.588 0.660292 -0.364047 0
M  V30 4115 H 395.239 1.158 -1.42347 0
M  V30 4116 H 393.621 3.775 -1.19623 0
M  V30 4117 H 394.795 2.60158 -3.80335 0
M  V30 4118 H 393.11 2.47978 -3.34508 0
M  V30 4119 H 395.707 4.93963 -2.04707 0
M  V30 4120 H 396.05 4.12794 -0.539142 0
M  V30 4121 H 396.583 3.39576 -2.07203 0
M  V30 4122 H 393.322 4.33174 -4.91976 0
M  V30 4123 H 392.842 4.98441 -3.33642 0
M  V30 4124 H 394.521 5.15898 -3.90459 0
M  V30 4125 N 394.653 0.992116 1.22453 0
M  V30 4126 C 395.881 0.685944 1.95198 0
M  V30 4127 C 396.296 -0.749233 1.73297 0
M  V30 4128 O 395.653 -1.50549 1.03156 0
M  V30 4129 C 395.704 0.981395 3.47924 0
M  V30 4130 O 395.425 2.36018 3.6909 0
M  V30 4131 C 396.926 0.692815 4.37853 0
M  V30 4132 H 394.146 0.253821 0.621141 0
M  V30 4133 H 396.69 1.32668 1.55626 0
M  V30 4134 H 394.845 0.386481 3.85467 0
M  V30 4135 H 395.259 2.45884 4.63294 0
M  V30 4136 H 396.733 0.949818 5.43767 0
M  V30 4137 H 397.21 -0.373181 4.37612 0
M  V30 4138 H 397.816 1.26874 4.05935 0
M  V30 4139 N 396.131 -1.37776 0.765217 0
M  V30 4140 C 397.377 -2.00145 0.327072 0
M  V30 4141 C 397.71 -1.60607 -1.09175 0
M  V30 4142 O 396.985 -0.849127 -1.74986 0
M  V30 4143 C 397.268 -3.57109 0.46319 0
M  V30 4144 C 397.121 -4.06576 1.92395 0
M  V30 4145 C 398.44 -4.39888 -0.136473 0
M  V30 4146 H 395.559 -0.727113 0.120316 0
M  V30 4147 H 398.201 -1.63549 0.967039 0
M  V30 4148 H 396.351 -3.88414 -0.0816358 0
M  V30 4149 H 398.023 -3.85864 2.52798 0
M  V30 4150 H 396.266 -3.59011 2.43503 0
M  V30 4151 H 396.937 -5.15639 1.97028 0
M  V30 4152 H 399.413 -4.14803 0.328317 0
M  V30 4153 H 398.289 -5.48899 -0.0110582 0
M  V30 4154 H 398.55 -4.24758 -1.22608 0
M  V30 4155 N 397.609 -0.515225 -1.4894 0
M  V30 4156 C 398.837 0.0206034 -2.0689 0
M  V30 4157 C 399.252 1.29514 -1.37374 0
M  V30 4158 O 398.609 1.76698 -0.456529 0
M  V30 4159 C 398.66 0.26351 -3.60538 0
M  V30 4160 O 398.381 -0.960517 -4.27441 0
M  V30 4161 C 399.882 0.841383 -4.35242 0
M  V30 4162 H 397.102 -0.0268608 -0.670462 0
M  V30 4163 H 399.646 -0.716651 -1.91532 0
M  V30 4164 H 397.801 0.950777 -3.75552 0
M  V30 4165 H 398.215 -0.73212 -5.19365 0
M  V30 4166 H 399.689 0.96085 -5.43573 0
M  V30 4167 H 400.166 1.8427 -3.98674 0
M  V30 4168 H 400.772 0.191143 -4.2487 0
M  V30 4169 N 399.087 1.5561 -0.249682 0
M  V30 4170 C 400.317 2.03116 0.377803 0
M  V30 4171 C 400.725 1.12822 1.51881 0
M  V30 4172 O 400.068 0.13562 1.83199 0
M  V30 4173 C 400.13 3.46866 0.944693 0
M  V30 4174 C 399.794 4.56955 -0.0644259 0
M  V30 4175 C 400.791 5.12485 -0.874957 0
M  V30 4176 C 398.476 5.01936 -0.19132 0
M  V30 4177 C 400.47 6.11491 -1.79881 0
M  V30 4178 C 398.157 6.00773 -1.11868 0
M  V30 4179 C 399.155 6.5543 -1.92095 0
M  V30 4180 O 398.843 7.5234 -2.83267 0
M  V30 4181 H 398.575 0.669489 0.0935961 0
M  V30 4182 H 401.129 2.02004 -0.371966 0
M  V30 4183 H 399.359 3.45136 1.74407 0
M  V30 4184 H 401.048 3.77856 1.48255 0
M  V30 4185 H 401.814 4.78564 -0.787523 0
M  V30 4186 H 397.693 4.59055 0.423072 0
M  V30 4187 H 401.237 6.54078 -2.42543 0
M  V30 4188 H 397.134 6.34114 -1.20703 0
M  V30 4189 H 397.902 7.69966 -2.7766 0
M  V30 4190 N 400.565 -0.0233959 1.57583 0
M  V30 4191 C 401.497 -1.04994 2.03737 0
M  V30 4192 C 402.51 -1.32125 0.951152 0
M  V30 4193 O 403.699 -1.29512 1.22837 0
M  V30 4194 C 400.799 -2.39026 2.40249 0
M  V30 4195 C 399.972 -2.31171 3.7132 0
M  V30 4196 C 399.031 -3.47698 3.94959 0
M  V30 4197 O 398.057 -3.26937 4.65941 0
M  V30 4198 N 399.259 -4.6976 3.41037 0
M  V30 4199 H 402.024 -0.656507 2.92421 0
M  V30 4200 H 399.585 -0.211235 1.60516 0
M  V30 4201 H 401.577 -3.15712 2.53196 0
M  V30 4202 H 400.147 -2.70194 1.57207 0
M  V30 4203 H 399.367 -1.39547 3.68674 0
M  V30 4204 H 400.655 -2.23071 4.57293 0
M  V30 4205 H 400.053 -4.89528 2.83512 0
M  V30 4206 H 398.61 -5.43791 3.59353 0
M  V30 4207 N 402.043 -1.548 -0.295768 0
M  V30 4208 C 403.459 -1.4613 -0.641722 0
M  V30 4209 C 403.659 -0.656771 -1.90496 0
M  V30 4210 O 402.715 -0.166547 -2.5195 0
M  V30 4211 C 404.028 -2.90141 -0.789852 0
M  V30 4212 C 405.576 -3.00216 -0.885396 0
M  V30 4213 C 406.051 -4.45434 -1.06548 0
M  V30 4214 N 407.542 -4.49166 -1.13156 0
M  V30 4215 C 408.277 -5.58717 -1.28929 0
M  V30 4216 N 407.773 -6.78182 -1.41567 0
M  V30 4217 N 409.566 -5.46415 -1.31859 0
M  V30 4218 H 401.717 -2.05574 0.534147 0
M  V30 4219 H 403.98 -0.931259 0.177372 0
M  V30 4220 H 403.686 -3.51635 0.0675598 0
M  V30 4221 H 403.56 -3.37859 -1.67724 0
M  V30 4222 H 405.947 -2.38833 -1.73329 0
M  V30 4223 H 406.028 -2.55787 0.0261185 0
M  V30 4224 H 405.672 -5.07413 -0.222335 0
M  V30 4225 H 405.602 -4.87499 -1.9913 0
M  V30 4226 H 408.093 -3.631 -1.04721 0
M  V30 4227 H 408.406 -7.57428 -1.53372 0
M  V30 4228 H 406.751 -6.81037 -1.38613 0
M  V30 4229 H 409.942 -4.5203 -1.21601 0
M  V30 4230 H 410.115 -6.31841 -1.43808 0
M  V30 4231 N 403.521 0.559213 -1.47345 0
M  V30 4232 C 404.431 1.69388 -1.62311 0
M  V30 4233 C 405.447 1.6648 -0.505993 0
M  V30 4234 O 406.623 1.85964 -0.773262 0
M  V30 4235 C 403.688 3.05894 -1.63185 0
M  V30 4236 C 402.749 3.19885 -2.86307 0
M  V30 4237 C 401.982 4.49879 -2.87131 0
M  V30 4238 O 402.205 5.35217 -1.97229 0
M  V30 4239 O 401.139 4.67618 -3.78968 0
M  V30 4240 H 404.965 1.59706 -2.58317 0
M  V30 4241 H 402.55 0.728989 -1.30407 0
M  V30 4242 H 404.432 3.87133 -1.66451 0
M  V30 4243 H 403.107 3.15964 -0.70345 0
M  V30 4244 H 402.014 2.38052 -2.88587 0
M  V30 4245 H 403.347 3.14718 -3.78435 0
M  V30 4246 N 404.999 1.35443 0.805782 0
M  V30 4247 C 405.932 1.22783 1.92353 0
M  V30 4248 C 406.91 0.115543 1.62189 0
M  V30 4249 O 408.094 0.283778 1.86352 0
M  V30 4250 C 405.221 0.890746 3.26777 0
M  V30 4251 C 404.267 2.01519 3.75889 0
M  V30 4252 S 405.1 3.63101 3.93596 0
M  V30 4253 C 406.256 3.31472 5.30921 0
M  V30 4254 H 406.489 2.17394 2.02798 0
M  V30 4255 H 404.022 1.20669 0.963245 0
M  V30 4256 H 405.98 0.703068 4.04434 0
M  V30 4257 H 404.641 -0.0373152 3.14078 0
M  V30 4258 H 403.834 1.7335 4.7325 0
M  V30 4259 H 403.436 2.16124 3.05231 0
M  V30 4260 H 405.728 2.8435 6.1494 0
M  V30 4261 H 406.671 4.28036 5.64084 0
M  V30 4262 H 407.079 2.67221 4.97246 0
M  V30 4263 N 406.477 -1.02803 1.19454 0
M  V30 4264 C 407.754 -1.73299 0.907013 0
M  V30 4265 C 408.134 -2.02772 -0.587086 0
M  V30 4266 O 407.482 -1.68304 -1.54551 0
M  V30 4267 C 407.692 -3.00912 1.76785 0
M  V30 4268 C 409.04 -3.74403 2.00268 0
M  V30 4269 O 410.064 -3.10841 1.73943 0
M  V30 4270 O 408.923 -4.88675 2.4466 0
M  V30 4271 H 406.017 -0.754727 0.338106 0
M  V30 4272 H 408.563 -1.08754 1.30271 0
M  V30 4273 H 407.335 -2.75366 2.7801 0
M  V30 4274 H 406.958 -3.73197 1.37149 0
M  V30 4275 N 407.956 -0.998596 -1.21925 0
M  V30 4276 C 408.886 -0.573688 -2.26343 0
M  V30 4277 C 409.867 0.402296 -1.65274 0
M  V30 4278 O 411.052 0.291683 -1.91997 0
M  V30 4279 C 408.182 0.106839 -3.47136 0
M  V30 4280 C 407.136 -0.788269 -4.20678 0
M  V30 4281 C 406.462 0.0254927 -5.34694 0
M  V30 4282 C 407.762 -2.08784 -4.78755 0
M  V30 4283 H 409.456 -1.44651 -2.62138 0
M  V30 4284 H 407.002 -0.696975 -1.26009 0
M  V30 4285 H 408.955 0.415531 -4.19346 0
M  V30 4286 H 407.679 1.01424 -3.10452 0
M  V30 4287 H 406.338 -1.08069 -3.50309 0
M  V30 4288 H 405.986 0.933989 -4.94253 0
M  V30 4289 H 405.686 -0.570437 -5.84825 0
M  V30 4290 H 407.21 0.328147 -6.09718 0
M  V30 4291 H 408.624 -1.84272 -5.42878 0
M  V30 4292 H 407.021 -2.63307 -5.39249 0
M  V30 4293 H 408.091 -2.76284 -3.98491 0
M  V30 4294 N 409.434 1.37368 -0.772513 0
M  V30 4295 C 410.664 2.03647 -0.348082 0
M  V30 4296 C 411.072 1.58392 1.03482 0
M  V30 4297 O 410.415 0.760921 1.672 0
M  V30 4298 C 410.477 3.58131 -0.313404 0
M  V30 4299 C 410.141 4.2652 -1.64102 0
M  V30 4300 C 411.138 4.50587 -2.5936 0
M  V30 4301 C 408.823 4.64335 -1.91567 0
M  V30 4302 C 410.817 5.11526 -3.80289 0
M  V30 4303 C 408.504 5.24996 -3.12766 0
M  V30 4304 C 409.502 5.48529 -4.06946 0
M  V30 4305 O 409.19 6.07921 -5.26011 0
M  V30 4306 H 408.922 0.660538 -0.143753 0
M  V30 4307 H 411.476 1.76669 -1.04772 0
M  V30 4308 H 409.706 3.84159 0.442617 0
M  V30 4309 H 411.395 4.05813 0.0840613 0
M  V30 4310 H 412.161 4.21784 -2.39423 0
M  V30 4311 H 408.04 4.45353 -1.19088 0
M  V30 4312 H 411.584 5.29811 -4.53813 0
M  V30 4313 H 407.481 5.53223 -3.32588 0
M  V30 4314 H 408.249 6.26398 -5.26847 0
M  V30 4315 N 410.912 0.523116 1.48665 0
M  V30 4316 C 411.844 -0.280421 2.27478 0
M  V30 4317 C 412.857 -0.910694 1.34945 0
M  V30 4318 O 414.046 -0.790295 1.60052 0
M  V30 4319 C 411.146 -1.41171 3.08097 0
M  V30 4320 C 410.319 -0.884642 4.28361 0
M  V30 4321 C 409.378 -1.89622 4.90846 0
M  V30 4322 O 408.404 -1.4559 5.50265 0
M  V30 4323 N 409.606 -3.22801 4.82472 0
M  V30 4324 H 412.371 0.395481 2.97079 0
M  V30 4325 H 409.932 0.357018 1.57915 0
M  V30 4326 H 411.924 -2.08645 3.4677 0
M  V30 4327 H 410.494 -1.99139 2.40961 0
M  V30 4328 H 409.714 -0.0341177 3.94185 0
M  V30 4329 H 411.002 -0.511268 5.06225 0
M  V30 4330 H 410.4 -3.61246 4.35336 0
M  V30 4331 H 408.957 -3.85927 5.25265 0
M  V30 4332 N 412.39 -1.55475 0.257931 0
M  V30 4333 C 413.639 -1.98383 -0.364275 0
M  V30 4334 C 413.952 -1.14952 -1.58258 0
M  V30 4335 O 415.158 -1.47924 -2.27664 0
M  V30 4336 C 413.614 -3.53037 -0.699479 0
M  V30 4337 C 413.222 -4.45223 0.498046 0
M  V30 4338 C 414.966 -4.04575 -1.28526 0
M  V30 4339 C 412.873 -5.91238 0.138383 0
M  V30 4340 H 411.803 -0.740911 -0.13988 0
M  V30 4341 H 414.454 -1.79936 0.359883 0
M  V30 4342 H 412.836 -3.6722 -1.48207 0
M  V30 4343 H 414.01 -4.42803 1.27522 0
M  V30 4344 H 412.325 -4.04226 0.999503 0
M  V30 4345 H 414.922 -5.11196 -1.56788 0
M  V30 4346 H 415.265 -3.5258 -2.21344 0
M  V30 4347 H 415.798 -3.93762 -0.565337 0
M  V30 4348 H 412.537 -6.47294 1.03398 0
M  V30 4349 H 412.057 -5.96768 -0.602374 0
M  V30 4350 H 413.736 -6.46413 -0.27553 0
M  V30 4351 N 413.868 0.0150385 -1.57593 0
M  V30 4352 C 415.284 0.370907 -1.5523 0
M  V30 4353 C 415.484 1.75735 -0.985882 0
M  V30 4354 O 414.54 2.44944 -0.613077 0
M  V30 4355 C 415.853 0.259908 -2.99575 0
M  V30 4356 C 417.401 0.335959 -3.11192 0
M  V30 4357 C 417.876 0.254253 -4.57294 0
M  V30 4358 N 419.367 0.312618 -4.62144 0
M  V30 4359 C 420.102 0.272505 -5.72752 0
M  V30 4360 N 419.598 0.183864 -6.92556 0
M  V30 4361 N 421.391 0.323267 -5.6117 0
M  V30 4362 H 413.542 -0.892104 -1.92757 0
M  V30 4363 H 415.805 -0.340563 -0.884715 0
M  V30 4364 H 415.511 -0.693403 -3.44797 0
M  V30 4365 H 415.385 1.048 -3.62349 0
M  V30 4366 H 417.772 1.27971 -2.65909 0
M  V30 4367 H 417.853 -0.481739 -2.51223 0
M  V30 4368 H 417.497 -0.685887 -5.03247 0
M  V30 4369 H 417.427 1.09024 -5.15191 0
M  V30 4370 H 419.918 0.38307 -3.75953 0
M  V30 4371 H 420.231 0.15874 -7.72637 0
M  V30 4372 H 418.576 0.149708 -6.94839 0
M  V30 4373 H 421.767 0.390607 -4.66467 0
M  V30 4374 H 421.94 0.288539 -6.47357 0
M  V30 4375 N 415.346 1.54954 0.287554 0
M  V30 4376 C 416.592 1.76059 1.01856 0
M  V30 4377 C 416.947 0.547056 1.84459 0
M  V30 4378 O 416.24 -0.460442 1.85985 0
M  V30 4379 C 416.434 2.99833 1.94512 0
M  V30 4380 C 416.263 4.33108 1.21026 0
M  V30 4381 C 415.033 4.96632 0.931896 0
M  V30 4382 C 417.231 5.10694 0.607949 0
M  V30 4383 N 415.213 6.13668 0.168716 0
M  V30 4384 C 416.584 6.19996 -0.0217865 0
M  V30 4385 C 418.639 4.95236 0.514338 0
M  V30 4386 C 417.342 7.15524 -0.736092 0
M  V30 4387 C 419.368 5.91106 -0.186343 0
M  V30 4388 C 418.73 6.99786 -0.804875 0
M  V30 4389 H 414.829 0.696679 0.355193 0
M  V30 4390 H 417.413 1.92441 0.295741 0
M  V30 4391 H 415.584 2.84853 2.64033 0
M  V30 4392 H 417.316 3.09405 2.60865 0
M  V30 4393 H 414.071 4.57255 1.23348 0
M  V30 4394 H 414.495 6.76705 -0.199781 0
M  V30 4395 H 419.137 4.11328 0.978234 0
M  V30 4396 H 416.855 7.98964 -1.21172 0
M  V30 4397 H 420.441 5.81224 -0.258897 0
M  V30 4398 H 419.321 7.72694 -1.33843 0
M  V30 4399 N 416.824 -0.551391 1.4764 0
M  V30 4400 C 417.772 -1.67896 1.60978 0
M  V30 4401 C 418.766 -1.62549 0.476877 0
M  V30 4402 O 419.972 -1.67664 0.654878 0
M  V30 4403 H 416.347 -0.555649 0.506713 0
M  V30 4404 H 418.318 -1.53784 2.55721 0
M  V30 4405 C 417.067 -3.06234 1.64669 0
M  V30 4406 H 416.39 -3.11033 2.51194 0
M  V30 4407 H 417.83 -3.84804 1.7805 0
M  V30 4408 C 416.289 -3.34737 0.381115 0
M  V30 4409 O 416.819 -3.98381 -0.515297 0
M  V30 4410 N 415.025 -2.8944 0.259354 0
M  V30 4411 H 414.572 -2.37827 0.98976 0
M  V30 4412 H 414.53 -3.08882 -0.586464 0
M  V30 4413 N 418.302 -1.35869 -0.798587 0
M  V30 4414 C 419.55 -1.29332 -1.55298 0
M  V30 4415 C 419.871 0.129729 -1.94568 0
M  V30 4416 O 419.141 1.06796 -1.6423 0
M  V30 4417 H 417.721 -0.475737 -0.57592 0
M  V30 4418 H 420.383 -1.70062 -0.952093 0
M  V30 4419 H 419.479 -1.91458 -2.46476 0
M  V30 4420 N 419.78 1.02168 -1.19998 0
M  V30 4421 C 421.027 1.75685 -1.00702 0
M  V30 4422 C 421.355 1.88947 0.461426 0
M  V30 4423 O 420.61 1.40832 1.35885 0
M  V30 4424 C 420.909 3.18081 -1.62969 0
M  V30 4425 C 420.575 3.24809 -3.12746 0
M  V30 4426 C 419.237 3.26352 -3.53621 0
M  V30 4427 C 421.589 3.23379 -4.08749 0
M  V30 4428 C 418.917 3.2413 -4.89036 0
M  V30 4429 C 421.269 3.22698 -5.44104 0
M  V30 4430 C 419.933 3.22542 -5.84399 0
M  V30 4431 H 419.203 0.642877 -0.368496 0
M  V30 4432 H 421.85 1.19865 -1.49348 0
M  V30 4433 H 420.155 3.77027 -1.06573 0
M  V30 4434 H 421.852 3.73648 -1.45561 0
M  V30 4435 H 418.442 3.2434 -2.80181 0
M  V30 4436 H 422.626 3.21361 -3.78207 0
M  V30 4437 H 417.882 3.22338 -5.19527 0
M  V30 4438 H 422.056 3.20543 -6.18244 0
M  V30 4439 H 419.683 3.20575 -6.89301 0
M  V30 4440 N 421.258 1.00505 1.21394 0
M  V30 4441 C 422.488 0.705584 1.94178 0
M  V30 4442 C 422.896 -0.735846 1.74304 0
M  V30 4443 O 422.239 -1.50954 1.04683 0
M  V30 4444 C 422.301 0.94689 3.46806 0
M  V30 4445 C 421.965 2.37517 3.90429 0
M  V30 4446 C 422.962 3.35539 3.97127 0
M  V30 4447 C 420.647 2.71284 4.22742 0
M  V30 4448 C 422.641 4.65395 4.3553 0
M  V30 4449 C 420.328 4.01356 4.60822 0
M  V30 4450 C 421.326 4.98223 4.67186 0
M  V30 4451 O 421.014 6.25969 5.04399 0
M  V30 4452 H 420.746 0.259216 0.624326 0
M  V30 4453 H 423.3 1.34592 1.55159 0
M  V30 4454 H 421.53 0.249386 3.85895 0
M  V30 4455 H 423.219 0.640804 4.0081 0
M  V30 4456 H 423.985 3.10786 3.7234 0
M  V30 4457 H 419.864 1.96581 4.16985 0
M  V30 4458 H 423.408 5.41002 4.40412 0
M  V30 4459 H 419.305 4.25893 4.85063 0
M  V30 4460 H 420.073 6.30085 5.22431 0
M  V30 4461 N 422.737 -1.36956 0.779787 0
M  V30 4462 C 423.983 -2.00237 0.357324 0
M  V30 4463 C 424.338 -1.60787 -1.05666 0
M  V30 4464 O 423.631 -0.847836 -1.71821 0
M  V30 4465 C 423.825 -3.54585 0.447686 0
M  V30 4466 C 423.654 -4.09025 1.86891 0
M  V30 4467 C 422.424 -4.39612 2.49138 0
M  V30 4468 C 424.622 -4.29461 2.82963 0
M  V30 4469 N 422.604 -4.79816 3.82949 0
M  V30 4470 C 423.975 -4.72363 4.01588 0
M  V30 4471 C 426.03 -4.1161 2.80145 0
M  V30 4472 C 424.733 -4.99284 5.17791 0
M  V30 4473 C 426.759 -4.39672 3.95528 0
M  V30 4474 C 426.121 -4.82822 5.12896 0
M  V30 4475 H 422.22 -0.76148 0.177968 0
M  V30 4476 H 424.804 -1.6613 1.01533 0
M  V30 4477 H 422.975 -3.87982 -0.180184 0
M  V30 4478 H 424.707 -4.047 0.0023955 0
M  V30 4479 H 421.462 -4.28975 2.00693 0
M  V30 4480 H 421.886 -5.04216 4.51769 0
M  V30 4481 H 426.528 -3.77415 1.90572 0
M  V30 4482 H 424.246 -5.32365 6.07958 0
M  V30 4483 H 427.832 -4.27441 3.94697 0
M  V30 4484 H 426.712 -5.04118 6.00695 0
M  V30 4485 N 424.215 -0.530993 -1.48385 0
M  V30 4486 C 425.178 0.220497 -2.28137 0
M  V30 4487 C 426.178 0.866851 -1.35434 0
M  V30 4488 O 427.368 0.726746 -1.58316 0
M  V30 4489 C 424.5 1.31921 -3.1434 0
M  V30 4490 H 425.693 -0.479714 -2.96038 0
M  V30 4491 H 423.246 -0.286968 -1.53643 0
M  V30 4492 H 423.981 2.05264 -2.51072 0
M  V30 4493 H 423.766 0.86085 -3.82533 0
M  V30 4494 H 425.256 1.84776 -3.74497 0
M  V30 4495 N 425.693 1.55336 -0.266172 0
M  V30 4496 C 426.941 1.99003 0.35246 0
M  V30 4497 C 427.262 1.15591 1.57047 0
M  V30 4498 O 426.532 0.243268 1.94384 0
M  V30 4499 H 425.112 0.735025 0.133217 0
M  V30 4500 H 427.774 1.91367 -0.369434 0
M  V30 4501 H 426.87 3.05289 0.648453 0
M  V30 4502 N 427.171 -0.0066808 1.57599 0
M  V30 4503 C 428.134 -0.985035 2.06953 0
M  V30 4504 C 429.134 -1.27663 0.977687 0
M  V30 4505 O 430.324 -1.22293 1.24057 0
M  V30 4506 C 427.456 -2.3118 2.50536 0
M  V30 4507 H 428.649 -0.558255 2.94658 0
M  V30 4508 H 426.202 -0.254011 1.54222 0
M  V30 4509 H 426.937 -2.78561 1.66054 0
M  V30 4510 H 426.722 -2.11338 3.3027 0
M  V30 4511 H 428.212 -3.01377 2.8907 0
M  V30 4512 N 428.649 -1.55105 -0.279332 0
M  V30 4513 C 429.597 -1.88333 -1.36505 0
M  V30 4514 C 430.591 -0.759043 -1.51443 0
M  V30 4515 O 431.797 -0.943312 -1.53302 0
M  V30 4516 H 428.172 -0.59766 -0.456406 0
M  V30 4517 H 430.143 -2.79041 -1.05728 0
M  V30 4518 C 428.892 -2.16628 -2.7197 0
M  V30 4519 H 428.215 -3.02624 -2.61264 0
M  V30 4520 H 429.655 -2.43803 -3.46895 0
M  V30 4521 C 428.114 -0.971807 -3.22579 0
M  V30 4522 O 428.644 -0.203228 -4.01186 0
M  V30 4523 N 426.85 -0.771238 -2.80179 0
M  V30 4524 H 426.397 -1.39792 -2.1637 0
M  V30 4525 H 426.355 0.0263667 -3.14389 0
M  V30 4526 N 430.127 0.543554 -1.4793 0
M  V30 4527 C 431.357 1.32324 -1.58663 0
M  V30 4528 C 431.765 1.8766 -0.240896 0
M  V30 4529 O 431.108 1.66411 0.778011 0
M  V30 4530 C 431.17 2.52094 -2.56299 0
M  V30 4531 C 430.834 2.17944 -4.01683 0
M  V30 4532 C 431.831 1.74422 -4.89768 0
M  V30 4533 C 429.516 2.28884 -4.47121 0
M  V30 4534 C 431.51 1.42287 -6.21316 0
M  V30 4535 C 429.197 1.96361 -5.78693 0
M  V30 4536 C 430.195 1.53132 -6.65612 0
M  V30 4537 O 429.883 1.21029 -7.94737 0
M  V30 4538 H 429.615 0.409174 -0.538101 0
M  V30 4539 H 432.169 0.663887 -1.94375 0
M  V30 4540 H 430.399 3.20965 -2.15681 0
M  V30 4541 H 432.088 3.14165 -2.57012 0
M  V30 4542 H 432.854 1.65452 -4.55907 0
M  V30 4543 H 428.733 2.61488 -3.79664 0
M  V30 4544 H 432.277 1.08472 -6.89115 0
M  V30 4545 H 428.174 2.04967 -6.12094 0
M  V30 4546 H 428.942 1.34543 -8.07366 0
M  V30 4547 N 431.605 1.3629 0.791371 0
M  V30 4548 C 432.552 1.30458 1.90393 0
M  V30 4549 C 433.522 0.173632 1.6519 0
M  V30 4550 O 434.707 0.35983 1.87376 0
M  V30 4551 C 431.847 1.09777 3.27174 0
M  V30 4552 C 430.96 2.31929 3.64462 0
M  V30 4553 C 430.095 2.04276 4.90352 0
M  V30 4554 C 429.134 3.224 5.20312 0
M  V30 4555 N 428.271 2.94424 6.37385 0
M  V30 4556 H 433.111 2.25589 1.94714 0
M  V30 4557 H 430.648 1.12122 0.952216 0
M  V30 4558 H 432.606 0.958133 4.06049 0
M  V30 4559 H 431.236 0.183014 3.22281 0
M  V30 4560 H 430.288 2.56703 2.80727 0
M  V30 4561 H 431.6 3.20085 3.82553 0
M  V30 4562 H 430.754 1.87231 5.77087 0
M  V30 4563 H 429.493 1.13428 4.74326 0
M  V30 4564 H 428.498 3.40005 4.32061 0
M  V30 4565 H 429.723 4.14071 5.38258 0
M  V30 4566 H 427.669 2.06185 6.22755 0
M  V30 4567 H 427.586 3.76118 6.55798 0
M  V30 4568 H 428.854 2.80953 7.27108 0
M  V30 4569 N 433.083 -1.0153 1.20538 0
M  V30 4570 C 434.031 -2.12215 0.952235 0
M  V30 4571 C 435.025 -1.69123 -0.0968735 0
M  V30 4572 O 436.231 -1.7992 0.0536006 0
M  V30 4573 H 432.606 -0.693576 0.290613 0
M  V30 4574 H 434.577 -2.3075 1.89201 0
M  V30 4575 C 433.326 -3.43755 0.522287 0
M  V30 4576 H 432.649 -3.7734 1.32115 0
M  V30 4577 H 434.089 -4.22254 0.384389 0
M  V30 4578 C 432.548 -3.28088 -0.765489 0
M  V30 4579 O 433.078 -3.57921 -1.8236 0
M  V30 4580 N 431.284 -2.81333 -0.728011 0
M  V30 4581 H 430.831 -2.57255 0.133332 0
M  V30 4582 H 430.789 -2.71232 -1.58999 0
M  V30 4583 N 434.561 -1.01147 -1.20859 0
M  V30 4584 C 435.808 -0.697865 -1.90095 0
M  V30 4585 C 436.136 0.772014 -1.78522 0
M  V30 4586 O 435.391 1.57595 -1.16027 0
M  V30 4587 C 435.69 -1.0727 -3.40922 0
M  V30 4588 C 435.356 -2.53792 -3.72693 0
M  V30 4589 C 434.018 -2.93829 -3.81075 0
M  V30 4590 C 436.37 -3.48674 -3.87397 0
M  V30 4591 C 433.698 -4.27696 -4.01613 0
M  V30 4592 C 436.05 -4.82223 -4.09444 0
M  V30 4593 C 434.714 -5.21973 -4.16054 0
M  V30 4594 H 433.984 -0.255367 -0.695607 0
M  V30 4595 H 436.631 -1.27111 -1.43231 0
M  V30 4596 H 434.936 -0.417799 -3.89566 0
M  V30 4597 H 436.633 -0.807818 -3.92779 0
M  V30 4598 H 433.223 -2.21768 -3.66765 0
M  V30 4599 H 437.407 -3.18904 -3.80281 0
M  V30 4600 H 432.663 -4.58055 -4.04964 0
M  V30 4601 H 436.837 -5.55672 -4.19763 0
M  V30 4602 H 434.464 -6.25717 -4.31721 0
M  V30 4603 N 436.039 1.36541 -0.78704 0
M  V30 4604 C 436.986 2.30082 -0.181901 0
M  V30 4605 C 437.956 1.5186 0.672896 0
M  V30 4606 O 439.141 1.80374 0.622072 0
M  V30 4607 C 436.281 3.3835 0.679197 0
M  V30 4608 C 435.394 4.31565 -0.193882 0
M  V30 4609 C 434.529 5.26915 0.673364 0
M  V30 4610 C 433.568 6.11769 -0.201315 0
M  V30 4611 N 432.705 6.99315 0.624777 0
M  V30 4612 H 437.545 2.81248 -0.985064 0
M  V30 4613 H 435.082 1.38437 -0.497342 0
M  V30 4614 H 437.04 3.99767 1.19341 0
M  V30 4615 H 435.67 2.8851 1.44781 0
M  V30 4616 H 434.722 3.71323 -0.826044 0
M  V30 4617 H 436.034 4.91191 -0.867937 0
M  V30 4618 H 435.188 5.9361 1.25348 0
M  V30 4619 H 433.927 4.67737 1.38105 0
M  V30 4620 H 432.932 5.44039 -0.793849 0
M  V30 4621 H 434.157 6.73022 -0.906568 0
M  V30 4622 H 432.103 6.42648 1.3168 0
M  V30 4623 H 432.02 7.56 0.00835237 0
M  V30 4624 H 433.288 7.70382 1.18879 0
M  V30 4625 N 437.518 0.538854 1.48102 0
M  V30 4626 C 438.746 0.0123136 2.06896 0
M  V30 4627 C 439.161 -1.27312 1.39417 0
M  V30 4628 O 438.518 -1.75949 0.484582 0
M  V30 4629 C 438.569 -0.206118 3.60912 0
M  V30 4630 O 438.29 1.0284 4.25859 0
M  V30 4631 C 439.791 -0.772033 4.36526 0
M  V30 4632 H 437.011 0.0375239 0.66995 0
M  V30 4633 H 439.555 0.747032 1.90367 0
M  V30 4634 H 437.71 -0.89091 3.77017 0
M  V30 4635 H 438.124 0.814654 5.18135 0
M  V30 4636 H 439.598 -0.874251 5.45033 0
M  V30 4637 H 440.075 -1.77904 4.01555 0
M  V30 4638 H 440.681 -0.123526 4.25121 0
M  V30 4639 N 438.996 -1.55193 0.274407 0
M  V30 4640 C 440.412 -1.59401 -0.0797543 0
M  V30 4641 C 440.612 -1.29162 -1.54659 0
M  V30 4642 O 439.668 -1.05215 -2.29534 0
M  V30 4643 C 440.981 -2.99257 0.294238 0
M  V30 4644 C 442.529 -3.12072 0.240796 0
M  V30 4645 C 443.004 -4.54194 0.589218 0
M  V30 4646 N 444.495 -4.60033 0.540744 0
M  V30 4647 C 445.23 -5.68027 0.783147 0
M  V30 4648 N 444.726 -6.8417 1.09013 0
M  V30 4649 N 446.519 -5.57572 0.711993 0
M  V30 4650 H 438.67 -1.73113 1.23067 0
M  V30 4651 H 440.933 -0.807197 0.497129 0
M  V30 4652 H 440.639 -3.26217 1.31435 0
M  V30 4653 H 440.513 -3.75427 -0.365281 0
M  V30 4654 H 442.9 -2.84877 -0.770024 0
M  V30 4655 H 442.981 -2.38117 0.934563 0
M  V30 4656 H 442.625 -4.82115 1.59772 0
M  V30 4657 H 442.555 -5.26448 -0.126331 0
M  V30 4658 H 445.046 -3.76599 0.313327 0
M  V30 4659 H 445.359 -7.6243 1.26178 0
M  V30 4660 H 443.704 -6.85787 1.12789 0
M  V30 4661 H 446.895 -4.65714 0.472014 0
M  V30 4662 H 447.068 -6.41659 0.90429 0
M  V30 4663 N 440.474 -0.00167713 -1.576 0
M  V30 4664 C 441.702 0.693759 -1.94922 0
M  V30 4665 C 442.117 1.67215 -0.876626 0
M  V30 4666 O 441.474 1.81929 0.144279 0
M  V30 4667 C 441.525 1.42416 -3.32265 0
M  V30 4668 O 441.246 0.485014 -4.35407 0
M  V30 4669 C 442.747 2.21395 -3.84056 0
M  V30 4670 H 439.967 0.193118 -0.642609 0
M  V30 4671 H 442.511 -0.0532952 -2.04431 0
M  V30 4672 H 440.666 2.12284 -3.24059 0
M  V30 4673 H 441.08 1.00053 -5.14868 0
M  V30 4674 H 442.554 2.67996 -4.82578 0
M  V30 4675 H 443.031 3.04142 -3.16851 0
M  V30 4676 H 443.637 1.56542 -3.95443 0
M  V30 4677 N 441.952 1.55251 0.271103 0
M  V30 4678 C 443.199 1.75946 1.00245 0
M  V30 4679 C 443.527 0.561611 1.86215 0
M  V30 4680 O 442.782 -0.455832 1.90317 0
M  V30 4681 C 443.081 3.01879 1.91321 0
M  V30 4682 C 442.747 4.34337 1.21086 0
M  V30 4683 C 441.409 4.70338 1.01666 0
M  V30 4684 C 443.761 5.16325 0.71119 0
M  V30 4685 C 441.089 5.8588 0.310099 0
M  V30 4686 C 443.441 6.32597 0.0182157 0
M  V30 4687 C 442.105 6.67236 -0.18768 0
M  V30 4688 H 441.375 0.643833 0.366824 0
M  V30 4689 H 444.022 1.89521 0.27458 0
M  V30 4690 H 442.327 2.83212 2.70736 0
M  V30 4691 H 444.024 3.15088 2.48033 0
M  V30 4692 H 440.614 4.06043 1.37213 0
M  V30 4693 H 444.798 4.88987 0.848844 0
M  V30 4694 H 440.054 6.1124 0.139873 0
M  V30 4695 H 444.228 6.9538 -0.376711 0
M  V30 4696 H 441.855 7.56618 -0.73715 0
M  V30 4697 N 443.43 -0.535701 1.48216 0
M  V30 4698 C 444.377 -1.64083 1.62312 0
M  V30 4699 C 445.347 -1.59448 0.465365 0
M  V30 4700 O 446.532 -1.77959 0.688135 0
M  V30 4701 C 443.672 -3.0236 1.66349 0
M  V30 4702 C 442.785 -3.17273 2.93193 0
M  V30 4703 C 441.92 -4.46075 2.88427 0
M  V30 4704 C 440.959 -4.54496 4.1 0
M  V30 4705 N 440.096 -5.7468 4.03345 0
M  V30 4706 H 444.936 -1.51374 2.5669 0
M  V30 4707 H 442.473 -0.737059 1.27302 0
M  V30 4708 H 444.431 -3.82461 1.66672 0
M  V30 4709 H 443.061 -3.13854 0.754672 0
M  V30 4710 H 442.113 -2.30462 3.02641 0
M  V30 4711 H 443.425 -3.19357 3.83162 0
M  V30 4712 H 442.579 -5.3446 2.87119 0
M  V30 4713 H 441.318 -4.46504 1.96177 0
M  V30 4714 H 440.323 -3.64519 4.11589 0
M  V30 4715 H 441.548 -4.5581 5.03402 0
M  V30 4716 H 439.494 -5.76017 3.13912 0
M  V30 4717 H 439.411 -5.78234 4.87013 0
M  V30 4718 H 440.679 -6.65367 4.06087 0
M  V30 4719 N 444.908 -1.36708 -0.784132 0
M  V30 4720 C 446.133 -1.34565 -1.5782 0
M  V30 4721 C 446.558 0.0695257 -1.87971 0
M  V30 4722 O 445.916 1.04302 -1.48293 0
M  V30 4723 C 445.964 -2.17952 -2.87279 0
M  V30 4724 O 445.068 -1.57563 -3.81114 0
M  V30 4725 H 444.409 -0.460337 -0.478524 0
M  V30 4726 H 446.939 -1.80064 -0.971495 0
M  V30 4727 H 446.949 -2.30721 -3.365 0
M  V30 4728 H 445.624 -3.20823 -2.64661 0
M  V30 4729 H 444.201 -1.53764 -3.39722 0
M  V30 4730 N 446.386 1.0089 -1.21074 0
M  V30 4731 C 447.614 1.78191 -1.05145 0
M  V30 4732 C 448.029 1.84537 0.398952 0
M  V30 4733 O 447.386 1.30393 1.27687 0
M  V30 4734 C 447.437 3.22288 -1.63746 0
M  V30 4735 O 447.158 3.16315 -3.03111 0
M  V30 4736 C 448.659 4.16106 -1.52875 0
M  V30 4737 H 445.879 0.560129 -0.369454 0
M  V30 4738 H 448.423 1.26945 -1.60328 0
M  V30 4739 H 446.578 3.70655 -1.12664 0
M  V30 4740 H 446.992 4.06817 -3.31059 0
M  V30 4741 H 448.466 5.15026 -1.98626 0
M  V30 4742 H 448.943 4.36541 -0.482521 0
M  V30 4743 H 449.549 3.73625 -2.03185 0
M  V30 4744 N 447.864 1.01787 1.20321 0
M  V30 4745 C 449.094 0.72614 1.93419 0
M  V30 4746 C 449.502 -0.717317 1.75075 0
M  V30 4747 O 448.845 -1.49836 1.06278 0
M  V30 4748 C 448.907 0.983621 3.45782 0
M  V30 4749 C 448.571 2.41645 3.87888 0
M  V30 4750 C 449.568 3.39732 3.93545 0
M  V30 4751 C 447.253 2.75752 4.19841 0
M  V30 4752 C 449.247 4.69988 4.30569 0
M  V30 4753 C 446.934 4.06221 4.56539 0
M  V30 4754 C 447.932 5.0315 4.61876 0
M  V30 4755 O 447.62 6.31284 4.97731 0
M  V30 4756 H 447.352 0.265824 0.621541 0
M  V30 4757 H 449.906 1.3623 1.53722 0
M  V30 4758 H 448.136 0.290301 3.85609 0
M  V30 4759 H 449.825 0.683279 4.00108 0
M  V30 4760 H 450.591 3.14718 3.69022 0
M  V30 4761 H 446.47 2.00993 4.14877 0
M  V30 4762 H 450.014 5.45642 4.3465 0
M  V30 4763 H 445.911 4.31013 4.80518 0
M  V30 4764 H 446.679 6.35591 5.15719 0
M  V30 4765 N 449.342 -1.36122 0.79427 0
M  V30 4766 C 450.252 -2.33769 0.197296 0
M  V30 4767 C 451.268 -1.61276 -0.653153 0
M  V30 4768 O 452.444 -1.9323 -0.5678 0
M  V30 4769 C 449.509 -3.40474 -0.654098 0
M  V30 4770 C 448.57 -4.28759 0.215411 0
M  V30 4771 C 447.803 -5.30368 -0.595443 0
M  V30 4772 O 448.026 -5.40211 -1.83107 0
M  V30 4773 O 446.96 -6.019 0.00721351 0
M  V30 4774 H 450.786 -2.86597 1.00478 0
M  V30 4775 H 448.371 -1.38676 0.555818 0
M  V30 4776 H 450.253 -4.05703 -1.13944 0
M  V30 4777 H 448.928 -2.89937 -1.43938 0
M  V30 4778 H 447.835 -3.66554 0.747615 0
M  V30 4779 H 449.168 -4.82661 0.964332 0
M  V30 4780 N 450.82 -0.546701 -1.47814 0
M  V30 4781 C 452.069 -0.0166497 -2.01693 0
M  V30 4782 C 452.382 1.33721 -1.42752 0
M  V30 4783 O 453.588 1.95658 -1.8823 0
M  V30 4784 C 452.044 0.0206769 -3.59894 0
M  V30 4785 C 451.652 -1.3293 -4.27824 0
M  V30 4786 C 453.396 0.498674 -4.21561 0
M  V30 4787 C 451.303 -1.25165 -5.78003 0
M  V30 4788 H 450.233 -0.0024541 -0.753996 0
M  V30 4789 H 452.884 -0.692984 -1.69912 0
M  V30 4790 H 451.266 0.76244 -3.88591 0
M  V30 4791 H 452.44 -2.08795 -4.10781 0
M  V30 4792 H 450.755 -1.74438 -3.78101 0
M  V30 4793 H 453.352 0.575 -5.31599 0
M  V30 4794 H 453.695 1.5083 -3.88016 0
M  V30 4795 H 454.228 -0.18791 -3.97356 0
M  V30 4796 H 450.967 -2.23695 -6.1615 0
M  V30 4797 H 450.487 -0.53464 -5.97412 0
M  V30 4798 H 452.166 -0.949299 -6.39998 0
M  V30 4799 N 452.299 1.55045 -0.282633 0
M  V30 4800 C 453.576 1.9179 0.384166 0
M  V30 4801 C 453.956 1.20778 1.73136 0
M  V30 4802 O 453.304 0.33719 2.25998 0
M  V30 4803 C 453.514 3.45149 0.517014 0
M  V30 4804 C 454.862 4.17064 0.796427 0
M  V30 4805 O 455.886 3.51084 0.601535 0
M  V30 4806 O 454.745 5.33837 1.16962 0
M  V30 4807 H 451.839 0.799483 0.211558 0
M  V30 4808 H 454.385 1.66474 -0.32934 0
M  V30 4809 H 453.157 3.88922 -0.430772 0
M  V30 4810 H 452.78 3.76443 1.2797 0
M  V30 4811 N 453.777 0.010035 1.57597 0
M  V30 4812 C 455.023 -0.668011 1.92118 0
M  V30 4813 C 455.378 -1.70821 0.885328 0
M  V30 4814 O 454.671 -1.91333 -0.101187 0
M  V30 4815 C 454.865 -1.34434 3.31153 0
M  V30 4816 C 454.694 -0.371176 4.48166 0
M  V30 4817 C 453.464 0.0220686 5.05295 0
M  V30 4818 C 455.662 0.366731 5.12991 0
M  V30 4819 N 453.644 0.9924 6.05826 0
M  V30 4820 C 455.015 1.19142 6.08445 0
M  V30 4821 C 457.07 0.429489 4.96044 0
M  V30 4822 C 455.773 2.07317 6.88776 0
M  V30 4823 C 457.799 1.2985 5.76969 0
M  V30 4824 C 457.161 2.11101 6.72023 0
M  V30 4825 H 453.26 -0.217337 0.751192 0
M  V30 4826 H 455.844 0.0727375 1.94564 0
M  V30 4827 H 454.015 -2.05533 3.29561 0
M  V30 4828 H 455.747 -1.97789 3.53075 0
M  V30 4829 H 452.502 -0.348409 4.72317 0
M  V30 4830 H 452.926 1.47324 6.60776 0
M  V30 4831 H 457.568 -0.18442 4.22398 0
M  V30 4832 H 455.286 2.69771 7.61741 0
M  V30 4833 H 458.872 1.3511 5.65894 0
M  V30 4834 H 457.752 2.77257 7.33552 0
M  V30 4835 N 455.255 -1.55392 -0.262866 0
M  V30 4836 C 456.165 -1.92077 -1.34698 0
M  V30 4837 C 457.181 -0.819227 -1.53508 0
M  V30 4838 O 458.357 -1.11921 -1.67439 0
M  V30 4839 C 455.422 -2.19407 -2.68443 0
M  V30 4840 C 454.483 -3.42905 -2.58292 0
M  V30 4841 C 453.716 -3.68921 -3.85659 0
M  V30 4842 O 453.939 -2.97275 -4.8681 0
M  V30 4843 O 452.873 -4.62455 -3.85252 0
M  V30 4844 H 456.699 -2.84384 -1.06581 0
M  V30 4845 H 454.284 -1.42069 -0.462264 0
M  V30 4846 H 456.166 -2.38365 -3.47506 0
M  V30 4847 H 454.841 -1.30282 -2.96325 0
M  V30 4848 H 453.748 -3.29272 -1.7757 0
M  V30 4849 H 455.081 -4.32282 -2.35358 0
M  V30 4850 N 456.733 0.527833 -1.48498 0
M  V30 4851 C 457.681 1.65313 -1.63628 0
M  V30 4852 C 458.675 1.6177 -0.502676 0
M  V30 4853 O 459.881 1.66601 -0.681469 0
M  V30 4854 H 456.256 0.547518 -0.515488 0
M  V30 4855 H 458.227 1.49696 -2.58135 0
M  V30 4856 C 456.976 3.03576 -1.6952 0
M  V30 4857 H 456.299 3.06997 -2.56111 0
M  V30 4858 H 457.739 3.81923 -1.84149 0
M  V30 4859 C 456.198 3.34089 -0.43432 0
M  V30 4860 O 456.728 3.99151 0.451852 0
M  V30 4861 N 454.934 2.88991 -0.305368 0
M  V30 4862 H 454.481 2.36222 -1.02747 0
M  V30 4863 H 454.439 3.09776 0.537249 0
M  V30 4864 N 458.211 1.37122 0.776871 0
M  V30 4865 C 459.161 1.28989 1.88005 0
M  V30 4866 C 460.145 0.178765 1.59904 0
M  V30 4867 O 461.337 0.412705 1.72121 0
M  V30 4868 C 458.466 1.09402 3.25402 0
M  V30 4869 C 457.552 2.25036 3.59471 0
M  V30 4870 N 457.943 3.50407 3.64759 0
M  V30 4871 C 456.241 2.17078 3.89607 0
M  V30 4872 C 456.942 4.26628 3.95428 0
M  V30 4873 N 455.918 3.55709 4.11062 0
M  V30 4874 H 459.72 2.2394 1.90337 0
M  V30 4875 H 457.234 1.30021 0.973052 0
M  V30 4876 H 459.231 1.01661 4.04315 0
M  V30 4877 H 457.891 0.153632 3.24336 0
M  V30 4878 H 458.902 3.8438 3.47091 0
M  V30 4879 H 455.579 1.31067 3.96393 0
M  V30 4880 H 456.969 5.35107 4.06338 0
M  V30 4881 N 459.689 -1.00246 1.21608 0
M  V30 4882 C 460.636 -2.09073 0.977613 0
M  V30 4883 C 461.606 -1.65815 -0.097297 0
M  V30 4884 O 462.791 -1.90734 0.0503445 0
M  V30 4885 C 459.931 -3.40671 0.551133 0
M  V30 4886 C 459.044 -3.97326 1.69576 0
M  V30 4887 C 458.179 -5.17043 1.2182 0
M  V30 4888 C 457.218 -5.65813 2.335 0
M  V30 4889 N 456.355 -6.76778 1.86859 0
M  V30 4890 H 461.195 -2.28806 1.90924 0
M  V30 4891 H 458.732 -1.12186 0.951452 0
M  V30 4892 H 460.69 -4.16225 0.285097 0
M  V30 4893 H 459.32 -3.20967 -0.343489 0
M  V30 4894 H 458.372 -3.18734 2.07637 0
M  V30 4895 H 459.684 -4.29511 2.53617 0
M  V30 4896 H 458.838 -5.99852 0.908975 0
M  V30 4897 H 457.577 -4.86458 0.347869 0
M  V30 4898 H 456.582 -4.81599 2.65222 0
M  V30 4899 H 457.807 -5.98427 3.21033 0
M  V30 4900 H 455.753 -6.47994 1.02174 0
M  V30 4901 H 455.67 -7.08231 2.64471 0
M  V30 4902 H 456.938 -7.63116 1.58978 0
M  V30 4903 N 461.167 -1.02423 -1.1978 0
M  V30 4904 C 462.413 -0.719051 -1.89625 0
M  V30 4905 C 462.746 0.750083 -1.7913 0
M  V30 4906 O 462.021 1.54574 -1.18056 0
M  V30 4907 C 462.304 -1.16499 -3.40735 0
M  V30 4908 C 462.157 -2.695 -3.60125 0
M  V30 4909 C 463.476 -0.742166 -4.33797 0
M  V30 4910 H 460.595 -0.26269 -0.688595 0
M  V30 4911 H 463.237 -1.27333 -1.41018 0
M  V30 4912 H 461.387 -0.69341 -3.82262 0
M  V30 4913 H 463.059 -3.24569 -3.278 0
M  V30 4914 H 461.302 -3.10113 -3.03336 0
M  V30 4915 H 461.973 -2.95757 -4.66081 0
M  V30 4916 H 464.449 -1.1477 -3.99959 0
M  V30 4917 H 463.325 -1.08213 -5.38127 0
M  V30 4918 H 463.586 0.355747 -4.40666 0
M  V30 4919 N 462.645 1.35699 -0.801477 0
M  V30 4920 C 463.592 2.29876 -0.206294 0
M  V30 4921 C 464.562 1.52565 0.656752 0
M  V30 4922 O 465.747 1.81024 0.602906 0
M  V30 4923 C 462.887 3.39052 0.643272 0
M  V30 4924 C 462 4.31335 -0.239644 0
M  V30 4925 C 461.135 5.27599 0.61744 0
M  V30 4926 C 460.174 6.11521 -0.26619 0
M  V30 4927 N 459.311 6.99938 0.550571 0
M  V30 4928 H 464.151 2.80187 -1.01484 0
M  V30 4929 H 461.688 1.37902 -0.511997 0
M  V30 4930 H 463.646 4.0101 1.15094 0
M  V30 4931 H 462.276 2.9003 1.41713 0
M  V30 4932 H 461.328 3.70426 -0.865381 0
M  V30 4933 H 462.64 4.90243 -0.919985 0
M  V30 4934 H 461.794 5.94906 1.19045 0
M  V30 4935 H 460.533 4.69176 1.33137 0
M  V30 4936 H 459.538 5.43166 -0.851507 0
M  V30 4937 H 460.763 6.72022 -0.9779 0
M  V30 4938 H 458.709 6.44008 1.24856 0
M  V30 4939 H 458.626 7.55966 -0.071832 0
M  V30 4940 H 459.894 7.71599 1.10702 0
M  V30 4941 N 464.123 0.554532 1.47522 0
M  V30 4942 C 465.053 -0.182974 2.32782 0
M  V30 4943 C 466.034 -0.911377 1.43624 0
M  V30 4944 O 467.219 -0.892366 1.72483 0
M  V30 4945 C 464.349 -1.21513 3.25349 0
M  V30 4946 C 463.303 -0.603355 4.23726 0
M  V30 4947 C 462.629 -1.73995 5.05598 0
M  V30 4948 C 463.929 0.441121 5.20434 0
M  V30 4949 H 465.623 0.52882 2.94693 0
M  V30 4950 H 463.169 0.255759 1.41711 0
M  V30 4951 H 465.122 -1.73922 3.83835 0
M  V30 4952 H 463.846 -1.95683 2.61487 0
M  V30 4953 H 462.505 -0.10059 3.66462 0
M  V30 4954 H 462.153 -2.47063 4.38143 0
M  V30 4955 H 461.853 -1.3364 5.72201 0
M  V30 4956 H 463.377 -2.26735 5.66942 0
M  V30 4957 H 464.791 0.00319931 5.733 0
M  V30 4958 H 463.188 0.763402 5.95224 0
M  V30 4959 H 464.258 1.33799 4.66075 0
M  V30 4960 N 465.601 -1.54893 0.290851 0
M  V30 4961 C 466.531 -2.26103 -0.583084 0
M  V30 4962 C 467.512 -1.25684 -1.14619 0
M  V30 4963 O 468.697 -1.54436 -1.17741 0
M  V30 4964 C 465.827 -2.99409 -1.75987 0
M  V30 4965 C 464.781 -4.0689 -1.32758 0
M  V30 4966 C 464.107 -4.67856 -2.58872 0
M  V30 4967 C 465.407 -5.20215 -0.46624 0
M  V30 4968 H 467.101 -2.99398 0.0108214 0
M  V30 4969 H 464.647 -1.43998 0.00664468 0
M  V30 4970 H 466.6 -3.47943 -2.37727 0
M  V30 4971 H 465.324 -2.23675 -2.37985 0
M  V30 4972 H 463.983 -3.59191 -0.733299 0
M  V30 4973 H 463.631 -3.88772 -3.19163 0
M  V30 4974 H 463.331 -5.40438 -2.30653 0
M  V30 4975 H 464.855 -5.19147 -3.21433 0
M  V30 4976 H 466.269 -5.64704 -0.989047 0
M  V30 4977 H 464.666 -5.99455 -0.27826 0
M  V30 4978 H 465.736 -4.82198 0.511173 0
M  V30 4979 N 467.08 -0.0183926 -1.57589 0
M  V30 4980 C 468.357 0.700621 -1.82622 0
M  V30 4981 C 468.737 1.90951 -0.90005 0
M  V30 4982 O 468.085 2.28452 0.0469145 0
M  V30 4983 C 468.295 1.08899 -3.31575 0
M  V30 4984 C 469.643 1.48514 -3.9778 0
M  V30 4985 O 470.667 1.18227 -3.36007 0
M  V30 4986 O 469.526 2.04903 -5.06633 0
M  V30 4987 H 466.62 0.342743 -0.752633 0
M  V30 4988 H 469.166 -0.0452548 -1.6964 0
M  V30 4989 H 467.938 0.228113 -3.90635 0
M  V30 4990 H 467.561 1.89338 -3.49624 0
M  V30 4991 N 468.558 1.5553 0.254621 0
M  V30 4992 C 469.786 1.81046 1.00149 0
M  V30 4993 C 470.201 0.593047 1.79244 0
M  V30 4994 O 469.558 -0.438196 1.77161 0
M  V30 4995 C 469.609 3.04684 1.94551 0
M  V30 4996 O 469.33 4.21725 1.18658 0
M  V30 4997 C 470.831 3.42943 2.80901 0
M  V30 4998 H 468.051 0.602653 0.295044 0
M  V30 4999 H 470.595 2.02576 0.279842 0
M  V30 5000 H 468.75 2.85226 2.62154 0
M  V30 5001 H 469.164 4.91746 1.82445 0
M  V30 5002 H 470.638 4.32576 3.42902 0
M  V30 5003 H 471.115 2.63176 3.51617 0
M  V30 5004 H 471.721 3.64724 2.18762 0
M  V30 5005 N 470.036 -0.519951 1.48776 0
M  V30 5006 C 470.983 -1.62352 1.64044 0
M  V30 5007 C 471.953 -1.58945 0.482251 0
M  V30 5008 O 473.138 -1.77219 0.706971 0
M  V30 5009 C 470.278 -3.00579 1.69547 0
M  V30 5010 C 469.391 -3.14145 2.96541 0
M  V30 5011 C 468.526 -4.42991 2.93142 0
M  V30 5012 C 467.565 -4.50122 4.14797 0
M  V30 5013 N 466.702 -5.7037 4.09418 0
M  V30 5014 H 471.542 -1.48643 2.58281 0
M  V30 5015 H 469.079 -0.723516 1.28077 0
M  V30 5016 H 471.037 -3.80671 1.70719 0
M  V30 5017 H 469.667 -3.13036 0.787918 0
M  V30 5018 H 468.719 -2.27239 3.05068 0
M  V30 5019 H 470.031 -3.15275 3.86527 0
M  V30 5020 H 469.185 -5.31385 2.92772 0
M  V30 5021 H 467.924 -4.44398 2.00902 0
M  V30 5022 H 466.929 -3.60133 4.15433 0
M  V30 5023 H 468.154 -4.50445 5.08208 0
M  V30 5024 H 466.1 -5.72655 3.20004 0
M  V30 5025 H 466.017 -5.73036 4.93119 0
M  V30 5026 H 467.285 -6.61023 4.13121 0
M  V30 5027 N 471.514 -1.37532 -0.769588 0
M  V30 5028 C 472.424 -1.35668 -1.91393 0
M  V30 5029 C 473.44 -0.255954 -1.72107 0
M  V30 5030 O 474.616 -0.491704 -1.95305 0
M  V30 5031 C 471.681 -1.16481 -3.26547 0
M  V30 5032 C 470.742 -2.36212 -3.58472 0
M  V30 5033 C 469.975 -2.17932 -4.87177 0
M  V30 5034 O 470.198 -1.1647 -5.58382 0
M  V30 5035 O 469.132 -3.06167 -5.18214 0
M  V30 5036 H 472.958 -2.32055 -1.95918 0
M  V30 5037 H 470.543 -1.18284 -0.912641 0
M  V30 5038 H 472.425 -1.07778 -4.07384 0
M  V30 5039 H 471.1 -0.231687 -3.2287 0
M  V30 5040 H 470.007 -2.50488 -2.77861 0
M  V30 5041 H 471.34 -3.281 -3.66894 0
M  V30 5042 N 472.992 0.995999 -1.22138 0
M  V30 5043 C 474.22 1.77066 -1.07029 0
M  V30 5044 C 474.635 1.8495 0.379357 0
M  V30 5045 O 473.992 1.3174 1.26297 0
M  V30 5046 C 474.043 3.20533 -1.67155 0
M  V30 5047 O 473.764 3.13082 -3.06449 0
M  V30 5048 C 475.265 4.14461 -1.5728 0
M  V30 5049 H 472.485 0.556179 -0.375374 0
M  V30 5050 H 475.029 1.25238 -1.61666 0
M  V30 5051 H 473.184 3.6944 -1.16589 0
M  V30 5052 H 473.598 4.03283 -3.35355 0
M  V30 5053 H 475.072 5.1289 -2.04078 0
M  V30 5054 H 475.549 4.36005 -0.528795 0
M  V30 5055 H 476.155 3.71449 -2.07136 0
M  V30 5056 N 474.47 1.03057 1.19235 0
M  V30 5057 C 475.38 0.622922 2.26179 0
M  V30 5058 C 476.396 -0.346113 1.70523 0
M  V30 5059 O 477.572 -0.203572 2.00369 0
M  V30 5060 C 474.637 -0.0182063 3.46695 0
M  V30 5061 C 473.698 0.998546 4.17526 0
M  V30 5062 C 472.931 0.387917 5.32288 0
M  V30 5063 O 473.154 -0.808668 5.64639 0
M  V30 5064 O 472.088 1.1116 5.91546 0
M  V30 5065 H 475.914 1.51363 2.63292 0
M  V30 5066 H 473.499 0.800856 1.26122 0
M  V30 5067 H 475.381 -0.375606 4.19723 0
M  V30 5068 H 474.056 -0.882895 3.11427 0
M  V30 5069 H 472.963 1.40756 3.4661 0
M  V30 5070 H 474.296 1.83366 4.56769 0
M  V30 5071 N 475.948 -1.35272 0.808662 0
M  V30 5072 C 476.896 -2.31663 0.208606 0
M  V30 5073 C 477.89 -1.56731 -0.642778 0
M  V30 5074 O 479.096 -1.71843 -0.53571 0
M  V30 5075 H 475.471 -0.750421 0.0486993 0
M  V30 5076 H 477.442 -2.79814 1.03666 0
M  V30 5077 C 476.191 -3.42008 -0.626573 0
M  V30 5078 H 475.514 -3.99795 0.0192103 0
M  V30 5079 H 476.954 -4.11727 -1.01278 0
M  V30 5080 C 475.413 -2.85226 -1.79298 0
M  V30 5081 O 475.943 -2.78945 -2.89055 0
M  V30 5082 N 474.149 -2.42245 -1.60516 0
M  V30 5083 H 473.696 -2.47554 -0.712375 0
M  V30 5084 H 473.654 -2.04603 -2.38715 0
M  V30 5085 N 477.426 -0.562348 -1.47226 0
M  V30 5086 C 478.374 0.195476 -2.31777 0
M  V30 5087 C 479.368 0.90433 -1.43242 0
M  V30 5088 O 480.574 0.825031 -1.59979 0
M  V30 5089 H 476.949 0.0819095 -0.747526 0
M  V30 5090 H 478.92 -0.536753 -2.93533 0
M  V30 5091 C 477.669 1.20902 -3.26003 0
M  V30 5092 H 476.992 0.672997 -3.94095 0
M  V30 5093 H 478.432 1.71006 -3.87986 0
M  V30 5094 C 476.891 2.25955 -2.49891 0
M  V30 5095 O 477.421 3.32969 -2.2471 0
M  V30 5096 N 475.627 2.00019 -2.1081 0
M  V30 5097 H 475.174 1.13006 -2.31489 0
M  V30 5098 H 475.132 2.70523 -1.60201 0
M  V30 5099 N 478.904 1.54736 -0.299062 0
M  V30 5100 C 479.851 2.23448 0.577899 0
M  V30 5101 C 480.821 1.21637 1.13109 0
M  V30 5102 O 482.006 1.50252 1.17597 0
M  V30 5103 C 479.146 2.9774 1.74484 0
M  V30 5104 C 478.259 4.1432 1.22323 0
M  V30 5105 C 477.394 4.76199 2.35388 0
M  V30 5106 C 476.433 5.84927 1.80351 0
M  V30 5107 N 475.57 6.4077 2.86982 0
M  V30 5108 H 480.41 2.97996 -0.0146545 0
M  V30 5109 H 477.947 1.47088 -0.0190013 0
M  V30 5110 H 479.905 3.39045 2.43114 0
M  V30 5111 H 478.535 2.25572 2.30905 0
M  V30 5112 H 477.587 3.7797 0.429249 0
M  V30 5113 H 478.899 4.92659 0.780309 0
M  V30 5114 H 478.053 5.20346 3.11969 0
M  V30 5115 H 476.792 3.97188 2.83006 0
M  V30 5116 H 475.797 5.40207 1.02259 0
M  V30 5117 H 477.022 6.65821 1.3364 0
M  V30 5118 H 474.968 5.64643 3.33938 0
M  V30 5119 H 474.885 7.1445 2.4718 0
M  V30 5120 H 476.153 6.89574 3.63466 0
M  V30 5121 O 480.421 0.165592 1.60649 0
M  V30 5122 H 481.112 -0.425141 1.88977 0
M  V30 END ATOM
M  V30 BEGIN BOND
M  V30 END BOND
M  V30 END CTAB
M  END
$$$$
