drugbank_target|P0A110 Naphthalene 1,2-dioxygenase subunit alpha (DB08264)
 OpenBabel12092120503D

  0  0  0     0  0            999 V3000
M  V30 BEGIN CTAB
M  V30 COUNTS 6835 6927 0 0 0
M  V30 BEGIN ATOM
M  V30 1 H -0.908 1.98254 -0.117106 0
M  V30 2 N 0 1.576 0 0
M  V30 3 C 0.933 2.03868 1.02534 0
M  V30 4 C 1.911 0.928543 1.3348 0
M  V30 5 O 3.095 1.19667 1.45644 0
M  V30 6 C 0.222 2.43627 2.35294 0
M  V30 7 C -0.732 3.65373 2.2001 0
M  V30 8 S 0.101 5.13292 1.52614 0
M  V30 9 C 1.257 5.56322 2.86805 0
M  V30 10 H 1.49 2.90518 0.631377 0
M  V30 11 H -0.977 1.52953 0.210867 0
M  V30 12 H 0.981 2.67203 3.11629 0
M  V30 13 H -0.358 1.57376 2.7183 0
M  V30 14 H -1.165 3.90944 3.18086 0
M  V30 15 H -1.563 3.418 1.51819 0
M  V30 16 H 0.729 5.58782 3.83104 0
M  V30 17 H 1.672 6.56266 2.65933 0
M  V30 18 H 2.08 4.83886 2.90714 0
M  V30 19 N 1.4781 -0.272755 1.55222 0
M  V30 20 C 2.4261 -1.35705 1.88909 0
M  V30 21 C 3.4201 -1.5112 0.765456 0
M  V30 22 O 4.6261 -1.52901 0.949802 0
M  V30 23 H 1.0011 -0.453868 0.59959 0
M  V30 24 H 2.9721 -1.04544 2.79487 0
M  V30 25 C 1.7211 -2.71049 2.17779 0
M  V30 26 H 1.0441 -2.59979 3.03728 0
M  V30 27 H 2.4841 -3.45858 2.45272 0
M  V30 28 C 0.9431 -3.22165 0.985473 0
M  V30 29 O 1.4731 -4.01096 0.220233 0
M  V30 30 N -0.3209 -2.7985 0.783108 0
M  V30 31 H -0.7739 -2.15775 1.40708 0
M  V30 32 H -0.8159 -3.14397 -0.0130392 0
M  V30 33 N 2.9562 -1.48159 -0.537278 0
M  V30 34 C 4.1862 -1.59223 -1.3165 0
M  V30 35 C 4.5942 -0.248849 -1.87556 0
M  V30 36 O 3.9372 0.770949 -1.6674 0
M  V30 37 C 3.9992 -2.57365 -2.51005 0
M  V30 38 C 3.6632 -4.02603 -2.16239 0
M  V30 39 C 4.6602 -4.90503 -1.72344 0
M  V30 40 C 2.3452 -4.48088 -2.26986 0
M  V30 41 C 4.3392 -6.21913 -1.39651 0
M  V30 42 C 2.0262 -5.7952 -1.93906 0
M  V30 43 C 3.0242 -6.66255 -1.50309 0
M  V30 44 O 2.7122 -7.95243 -1.17659 0
M  V30 45 H 2.4442 -0.539831 -0.406889 0
M  V30 46 H 4.9982 -1.94655 -0.655641 0
M  V30 47 H 3.2282 -2.1704 -3.20048 0
M  V30 48 H 4.9172 -2.58342 -3.13072 0
M  V30 49 H 5.6832 -4.56604 -1.63517 0
M  V30 50 H 1.5622 -3.80769 -2.59877 0
M  V30 51 H 5.1062 -6.89569 -1.0555 0
M  V30 52 H 1.0032 -6.12957 -2.02371 0
M  V30 53 H 1.7712 -8.0793 -1.31119 0
M  V30 54 N 4.4343 0.785586 -1.36625 0
M  V30 55 C 5.3823 1.91978 -1.31329 0
M  V30 56 C 6.3763 1.68162 -0.204416 0
M  V30 57 O 7.5823 1.76122 -0.371645 0
M  V30 58 H 3.9573 0.631087 -0.408942 0
M  V30 59 H 5.9283 1.93562 -2.27104 0
M  V30 60 C 4.6773 3.29055 -1.12329 0
M  V30 61 H 4.0003 3.4795 -1.96903 0
M  V30 62 H 5.4403 4.08756 -1.12671 0
M  V30 63 C 3.8993 3.36461 0.171861 0
M  V30 64 O 4.4293 3.84576 1.16035 0
M  V30 65 N 2.6353 2.89782 0.217846 0
M  V30 66 H 2.1823 2.50819 -0.587183 0
M  V30 67 H 2.1403 2.95119 1.08408 0
M  V30 68 N 5.9124 1.20967 1.01018 0
M  V30 69 C 6.8604 0.961223 2.1181 0
M  V30 70 C 7.8544 -0.0897034 1.69162 0
M  V30 71 O 9.0604 0.0612271 1.79896 0
M  V30 72 H 5.4354 0.29355 0.692338 0
M  V30 73 H 7.4064 1.90178 2.29946 0
M  V30 74 C 6.1554 0.536854 3.4353 0
M  V30 75 H 5.4784 1.33713 3.76777 0
M  V30 76 H 6.9184 0.402286 4.22087 0
M  V30 77 C 5.3774 -0.751574 3.2841 0
M  V30 78 O 5.9074 -1.80841 3.58691 0
M  V30 79 N 4.1134 -0.716079 2.81639 0
M  V30 80 H 3.6604 0.144236 2.57196 0
M  V30 81 H 3.6184 -1.57847 2.71904 0
M  V30 82 N 7.3905 -1.2043 1.01659 0
M  V30 83 C 8.3375 -2.23215 0.586822 0
M  V30 84 C 9.3075 -1.61382 -0.393085 0
M  V30 85 O 10.4925 -1.88544 -0.292525 0
M  V30 86 C 7.6325 -3.45032 -0.0687464 0
M  V30 87 C 6.7455 -4.21296 0.955724 0
M  V30 88 C 5.8805 -5.30507 0.271208 0
M  V30 89 C 4.9195 -5.98515 1.28244 0
M  V30 90 N 4.0565 -6.99316 0.62459 0
M  V30 91 H 8.8965 -2.59336 1.46796 0
M  V30 92 H 6.4335 -1.27431 0.734836 0
M  V30 93 H 8.3915 -4.1459 -0.465965 0
M  V30 94 H 7.0215 -3.09604 -0.913529 0
M  V30 95 H 6.0735 -3.50803 1.4711 0
M  V30 96 H 7.3855 -4.6803 1.72479 0
M  V30 97 H 6.5395 -6.06428 -0.18151 0
M  V30 98 H 5.2785 -4.8481 -0.530163 0
M  V30 99 H 4.2835 -5.21355 1.74554 0
M  V30 100 H 5.5085 -6.46298 2.08509 0
M  V30 101 H 3.4545 -6.55812 -0.156914 0
M  V30 102 H 3.3715 -7.44178 1.33172 0
M  V30 103 H 4.6395 -7.79255 0.195462 0
M  V30 104 N 8.8686 -0.792821 -1.36206 0
M  V30 105 C 10.1176 -0.363353 -1.984 0
M  V30 106 C 10.4306 1.07172 -1.63626 0
M  V30 107 O 11.6366 1.60362 -2.19081 0
M  V30 108 C 10.0926 -0.59872 -3.54885 0
M  V30 109 C 9.7006 -2.04543 -3.9858 0
M  V30 110 C 11.4446 -0.233926 -4.23855 0
M  V30 111 C 9.3516 -2.22727 -5.47856 0
M  V30 112 H 8.2816 -0.13212 -0.742334 0
M  V30 113 H 10.9326 -0.974935 -1.55458 0
M  V30 114 H 9.3146 0.0826222 -3.95914 0
M  V30 115 H 10.4886 -2.76345 -3.68741 0
M  V30 116 H 8.8036 -2.36879 -3.42458 0
M  V30 117 H 11.4006 -0.348027 -5.33566 0
M  V30 118 H 11.7436 0.818351 -4.08177 0
M  V30 119 H 12.2766 -0.868639 -3.882 0
M  V30 120 H 9.0156 -3.2635 -5.68486 0
M  V30 121 H 8.5356 -1.55434 -5.7931 0
M  V30 122 H 10.2146 -2.03607 -6.14128 0
M  V30 123 N 10.3467 1.47872 -0.545128 0
M  V30 124 C 11.2767 2.32661 0.197793 0
M  V30 125 C 12.2577 1.43041 0.920504 0
M  V30 126 O 13.4427 1.71912 0.90333 0
M  V30 127 C 10.5727 3.24569 1.23582 0
M  V30 128 C 9.5267 4.23333 0.630323 0
M  V30 129 C 8.8527 5.0448 1.77211 0
M  V30 130 C 10.1527 5.20704 -0.407974 0
M  V30 131 H 11.8467 2.95024 -0.510045 0
M  V30 132 H 9.3927 1.4187 -0.246731 0
M  V30 133 H 11.3457 3.8272 1.76362 0
M  V30 134 H 10.0697 2.60236 1.97344 0
M  V30 135 H 8.7287 3.6639 0.123922 0
M  V30 136 H 8.3767 4.36561 2.49847 0
M  V30 137 H 8.0767 5.71339 1.37281 0
M  V30 138 H 9.6007 5.65487 2.3034 0
M  V30 139 H 11.0147 5.7329 0.033305 0
M  V30 140 H 9.4117 5.95699 -0.725486 0
M  V30 141 H 10.4817 4.66917 -1.30828 0
M  V30 142 N 11.8248 0.280983 1.55075 0
M  V30 143 C 13.0708 -0.33461 2.00021 0
M  V30 144 C 13.4038 -1.55063 1.16915 0
M  V30 145 O 12.6788 -1.93006 0.240646 0
M  V30 146 C 12.9618 -0.711007 3.53011 0
M  V30 147 C 12.8148 0.512766 4.46868 0
M  V30 148 C 14.1338 -1.54522 4.12081 0
M  V30 149 H 11.2528 -0.120147 0.727141 0
M  V30 150 H 13.8948 0.389097 1.85973 0
M  V30 151 H 12.0448 -1.32761 3.65112 0
M  V30 152 H 13.7168 1.15131 4.46702 0
M  V30 153 H 11.9598 1.14975 4.18286 0
M  V30 154 H 12.6308 0.205556 5.51617 0
M  V30 155 H 15.1068 -1.02442 4.03293 0
M  V30 156 H 13.9828 -1.77739 5.19327 0
M  V30 157 H 14.2438 -2.52813 3.62682 0
M  V30 158 N 13.3029 -1.57598 0.00835791 0
M  V30 159 C 14.5279 -1.95617 -0.689103 0
M  V30 160 C 14.9529 -0.883753 -1.66046 0
M  V30 161 O 14.3109 0.157352 -1.80616 0
M  V30 162 C 14.3589 -3.32736 -1.38994 0
M  V30 163 O 13.4629 -3.27631 -2.50463 0
M  V30 164 H 12.8039 -0.638379 -0.182668 0
M  V30 165 H 15.3339 -2.045 0.064036 0
M  V30 166 H 15.3439 -3.68494 -1.75147 0
M  V30 167 H 14.0189 -4.1034 -0.677778 0
M  V30 168 H 12.5959 -3.03561 -2.16576 0
M  V30 169 N 14.781 0.264519 -1.55364 0
M  V30 170 C 15.691 1.34902 -1.91934 0
M  V30 171 C 16.707 1.53595 -0.817593 0
M  V30 172 O 17.883 1.67558 -1.11742 0
M  V30 173 C 14.948 2.68676 -2.19121 0
M  V30 174 C 14.009 2.58657 -3.4263 0
M  V30 175 C 13.242 3.86051 -3.68511 0
M  V30 176 O 13.465 4.87126 -2.96757 0
M  V30 177 O 12.399 3.85744 -4.62045 0
M  V30 178 H 16.225 1.06883 -2.8427 0
M  V30 179 H 13.81 0.463775 -1.42019 0
M  V30 180 H 15.692 3.47759 -2.37995 0
M  V30 181 H 14.367 2.96463 -1.29966 0
M  V30 182 H 13.274 1.7792 -3.29082 0
M  V30 183 H 14.607 2.35818 -4.32031 0
M  V30 184 N 16.2591 1.48442 0.529413 0
M  V30 185 C 17.4841 1.60406 1.31471 0
M  V30 186 C 17.9091 0.264738 1.86228 0
M  V30 187 O 17.2671 -0.763668 1.64432 0
M  V30 188 C 17.3151 2.65419 2.44101 0
M  V30 189 O 16.4191 2.22618 3.47153 0
M  V30 190 H 15.7601 0.537863 0.389357 0
M  V30 191 H 18.2901 1.94432 0.636965 0
M  V30 192 H 18.3001 2.86709 2.90279 0
M  V30 193 H 16.9751 3.62652 2.03608 0
M  V30 194 H 15.5521 2.11543 3.0709 0
M  V30 195 N 17.7372 -0.778329 1.37039 0
M  V30 196 C 18.9852 -1.53361 1.31623 0
M  V30 197 C 19.3062 -1.94739 -0.100831 0
M  V30 198 O 18.5762 -1.65797 -1.04347 0
M  V30 199 H 17.1562 -0.568794 0.484234 0
M  V30 200 H 19.8182 -0.926742 1.71457 0
M  V30 201 H 18.9142 -2.43606 1.95096 0
M  V30 202 N 19.2153 -1.21501 -1.00376 0
M  V30 203 C 20.1453 -0.999478 -2.11028 0
M  V30 204 C 21.1263 0.0759671 -1.6993 0
M  V30 205 O 22.3113 -0.0841106 -1.94018 0
M  V30 206 C 19.4413 -0.564709 -3.42678 0
M  V30 207 C 18.3953 -1.58486 -3.97576 0
M  V30 208 C 17.7213 -1.00628 -5.25146 0
M  V30 209 C 19.0213 -2.97204 -4.29496 0
M  V30 210 H 20.7153 -1.92495 -2.29317 0
M  V30 211 H 18.2613 -0.92693 -1.102 0
M  V30 212 H 20.2143 -0.401091 -4.19487 0
M  V30 213 H 18.9383 0.396411 -3.24185 0
M  V30 214 H 17.5973 -1.73606 -3.22888 0
M  V30 215 H 17.2453 -0.0368439 -5.02987 0
M  V30 216 H 16.9453 -1.68771 -5.62841 0
M  V30 217 H 18.4693 -0.854015 -6.04598 0
M  V30 218 H 19.8833 -2.8552 -4.97143 0
M  V30 219 H 18.2803 -3.62372 -4.78338 0
M  V30 220 H 19.3503 -3.47956 -3.3772 0
M  V30 221 N 20.6934 1.19889 -1.02296 0
M  V30 222 C 21.9184 1.9393 -0.735237 0
M  V30 223 C 22.3434 1.74639 0.698782 0
M  V30 224 O 21.7014 1.04481 1.48167 0
M  V30 225 C 21.7494 3.43916 -1.08417 0
M  V30 226 O 20.8534 4.11917 -0.199446 0
M  V30 227 H 20.1944 0.605645 -0.272196 0
M  V30 228 H 22.7244 1.52137 -1.36804 0
M  V30 229 H 22.7344 3.9456 -1.03856 0
M  V30 230 H 21.4094 3.5728 -2.12894 0
M  V30 231 H 19.9864 3.71666 -0.303136 0
M  V30 232 N 22.1715 0.800033 1.35784 0
M  V30 233 C 23.1035 0.163596 2.28615 0
M  V30 234 C 24.1165 -0.633317 1.49976 0
M  V30 235 O 25.3055 -0.466754 1.72289 0
M  V30 236 C 22.4055 -0.790958 3.29541 0
M  V30 237 C 21.5785 -0.0418255 4.3738 0
M  V30 238 C 20.6375 -0.91389 5.18203 0
M  V30 239 O 19.6635 -0.367234 5.68014 0
M  V30 240 N 20.8655 -2.23682 5.35674 0
M  V30 241 H 23.6305 0.96105 2.83873 0
M  V30 242 H 21.1915 0.654894 1.48063 0
M  V30 243 H 23.1835 -1.37844 3.80501 0
M  V30 244 H 21.7535 -1.48925 2.74846 0
M  V30 245 H 20.9735 0.726813 3.87442 0
M  V30 246 H 22.2615 0.474719 5.06581 0
M  V30 247 H 21.6595 -2.70497 4.96838 0
M  V30 248 H 20.2165 -2.77369 5.89839 0
M  V30 249 N 23.6496 -1.47581 0.552962 0
M  V30 250 C 24.5966 -2.29957 -0.197108 0
M  V30 251 C 25.5666 -1.38799 -0.912359 0
M  V30 252 O 26.7516 -1.67761 -0.908888 0
M  V30 253 C 23.8916 -3.22672 -1.22379 0
M  V30 254 C 23.0046 -4.28919 -0.515038 0
M  V30 255 C 22.1396 -5.0879 -1.52664 0
M  V30 256 C 21.1786 -6.06815 -0.802631 0
M  V30 257 N 20.3156 -6.7966 -1.76086 0
M  V30 258 H 25.1556 -2.93578 0.511486 0
M  V30 259 H 22.6926 -1.4471 0.264067 0
M  V30 260 H 24.6506 -3.74845 -1.83159 0
M  V30 261 H 23.2806 -2.60925 -1.90047 0
M  V30 262 H 22.3326 -3.79835 0.207192 0
M  V30 263 H 23.6446 -4.98773 0.0523425 0
M  V30 264 H 22.7986 -5.65091 -2.20809 0
M  V30 265 H 21.5376 -4.38828 -2.12794 0
M  V30 266 H 20.5426 -5.49695 -0.107238 0
M  V30 267 H 21.7676 -6.78784 -0.207135 0
M  V30 268 H 19.7136 -6.12432 -2.35081 0
M  V30 269 H 19.6306 -7.45669 -1.24552 0
M  V30 270 H 20.8986 -7.40538 -2.43359 0
M  V30 271 N 25.1277 -0.289203 -1.54924 0
M  V30 272 C 26.0777 0.606939 -2.19773 0
M  V30 273 C 27.0617 1.10783 -1.16687 0
M  V30 274 O 28.2537 1.05057 -1.4245 0
M  V30 275 C 25.3827 1.78398 -2.93307 0
M  V30 276 C 24.4687 1.29961 -4.03697 0
M  V30 277 N 24.8597 0.532377 -5.0299 0
M  V30 278 C 23.1577 1.58136 -4.17024 0
M  V30 279 C 23.8587 0.275912 -5.81045 0
M  V30 280 N 22.8347 0.852365 -5.36876 0
M  V30 281 H 26.6367 0.0130779 -2.93897 0
M  V30 282 H 24.1507 -0.09341 -1.62131 0
M  V30 283 H 26.1477 2.43741 -3.38225 0
M  V30 284 H 24.8077 2.38166 -2.20697 0
M  V30 285 H 25.8187 0.17838 -5.17593 0
M  V30 286 H 22.4957 2.18738 -3.55612 0
M  V30 287 H 23.8857 -0.339502 -6.71042 0
M  V30 288 N 26.6058 1.57591 -0.0167156 0
M  V30 289 C 27.5358 2.12496 0.967858 0
M  V30 290 C 28.5168 1.03807 1.34752 0
M  V30 291 O 29.7018 1.31577 1.42833 0
M  V30 292 C 26.8318 2.64194 2.25431 0
M  V30 293 C 25.7858 3.77559 2.01576 0
M  V30 294 C 25.1118 4.15636 3.36379 0
M  V30 295 C 26.4118 5.04151 1.36489 0
M  V30 296 H 28.1058 2.95013 0.510643 0
M  V30 297 H 25.6518 1.41915 0.244181 0
M  V30 298 H 27.6048 3.01236 2.94678 0
M  V30 299 H 26.3288 1.78821 2.73296 0
M  V30 300 H 24.9878 3.40937 1.34751 0
M  V30 301 H 24.6358 3.27263 3.81979 0
M  V30 302 H 24.3358 4.92022 3.21229 0
M  V30 303 H 25.8598 4.5525 4.06915 0
M  V30 304 H 27.2738 5.38857 1.95718 0
M  V30 305 H 25.6708 5.85453 1.31776 0
M  V30 306 H 26.7408 4.83733 0.336219 0
M  V30 307 N 28.0839 -0.256276 1.55502 0
M  V30 308 C 29.3329 -0.983486 1.76098 0
M  V30 309 C 29.6459 -1.86837 0.578896 0
M  V30 310 O 30.8519 -2.63163 0.667648 0
M  V30 311 C 29.3079 -1.79868 3.1173 0
M  V30 312 C 28.9159 -0.961648 4.37557 0
M  V30 313 C 30.6599 -2.51919 3.41668 0
M  V30 314 C 28.5669 -1.77219 5.64223 0
M  V30 315 H 27.4969 -0.370936 0.656447 0
M  V30 316 H 30.1479 -0.238492 1.81944 0
M  V30 317 H 28.5299 -2.58527 2.99966 0
M  V30 318 H 29.7039 -0.218048 4.60284 0
M  V30 319 H 28.0189 -0.354913 4.14885 0
M  V30 320 H 30.6159 -3.12998 4.33516 0
M  V30 321 H 30.9589 -3.23059 2.62562 0
M  V30 322 H 31.4919 -1.80278 3.54605 0
M  V30 323 H 28.2309 -1.10471 6.46124 0
M  V30 324 H 27.7509 -2.49132 5.45613 0
M  V30 325 H 29.4299 -2.34169 6.03137 0
M  V30 326 N 29.562 -1.4872 -0.521534 0
M  V30 327 C 30.512 -1.60269 -1.62166 0
M  V30 328 C 31.496 -0.45935 -1.54204 0
M  V30 329 O 32.688 -0.711241 -1.62081 0
M  V30 330 C 29.817 -1.65344 -3.00859 0
M  V30 331 C 28.903 -2.85187 -3.13894 0
M  V30 332 N 29.294 -4.09509 -2.96877 0
M  V30 333 C 27.592 -2.82695 -3.44963 0
M  V30 334 C 28.293 -4.89959 -3.13552 0
M  V30 335 N 27.269 -4.22934 -3.41508 0
M  V30 336 H 31.071 -2.5413 -1.47632 0
M  V30 337 H 28.585 -1.45209 -0.727194 0
M  V30 338 H 30.582 -1.71713 -3.79895 0
M  V30 339 H 29.242 -0.726058 -3.16478 0
M  V30 340 H 30.253 -4.39814 -2.73467 0
M  V30 341 H 26.93 -1.99249 -3.66887 0
M  V30 342 H 28.32 -5.98654 -3.05061 0
M  V30 343 N 31.0401 0.771051 -1.3745 0
M  V30 344 C 32.2881 1.52661 -1.32435 0
M  V30 345 C 32.6091 1.9479 0.0905024 0
M  V30 346 O 31.8791 1.66348 1.03466 0
M  V30 347 H 30.4591 0.566218 -0.487244 0
M  V30 348 H 33.1211 0.917636 -1.71946 0
M  V30 349 H 32.2171 2.42568 -1.96385 0
M  V30 350 N 32.5182 1.22032 0.997298 0
M  V30 351 C 33.7952 0.950823 1.70935 0
M  V30 352 C 34.1752 -0.535292 2.042 0
M  V30 353 O 33.5232 -1.50217 1.72183 0
M  V30 354 C 33.7332 1.84386 2.96315 0
M  V30 355 C 35.0812 2.09732 3.69185 0
M  V30 356 O 36.1052 1.81798 3.06314 0
M  V30 357 O 34.9642 2.57018 4.82291 0
M  V30 358 H 32.0582 0.357204 0.745878 0
M  V30 359 H 34.6042 1.32997 1.05404 0
M  V30 360 H 33.3762 2.84928 2.68201 0
M  V30 361 H 32.9992 1.46602 3.69586 0
M  V30 362 N 33.9963 -1.19345 1.0293 0
M  V30 363 C 34.9063 -2.26245 0.620515 0
M  V30 364 C 35.9223 -1.70486 -0.347928 0
M  V30 365 O 37.0983 -2.00347 -0.205704 0
M  V30 366 C 34.1633 -3.46693 -0.0218957 0
M  V30 367 C 33.2243 -4.17632 0.994102 0
M  V30 368 C 32.4573 -5.32329 0.382253 0
M  V30 369 O 32.6803 -5.64552 -0.814676 0
M  V30 370 O 31.6143 -5.91664 1.10531 0
M  V30 371 H 35.4403 -2.63453 1.51083 0
M  V30 372 H 33.0253 -1.26207 0.799513 0
M  V30 373 H 34.9073 -4.19683 -0.380072 0
M  V30 374 H 33.5823 -3.11333 -0.886209 0
M  V30 375 H 32.4893 -3.4676 1.40387 0
M  V30 376 H 33.8223 -4.56964 1.8288 0
M  V30 377 N 35.4744 -0.807222 -1.35358 0
M  V30 378 C 36.3844 -0.219594 -2.3357 0
M  V30 379 C 37.4004 0.637734 -1.61892 0
M  V30 380 O 38.5764 0.549336 -1.93763 0
M  V30 381 C 35.6414 0.62158 -3.41083 0
M  V30 382 C 34.7024 -0.256315 -4.28534 0
M  V30 383 C 33.9354 0.544807 -5.30912 0
M  V30 384 O 34.1584 1.77944 -5.41934 0
M  V30 385 O 33.0924 -0.0646478 -6.01865 0
M  V30 386 H 36.9184 -1.03208 -2.85625 0
M  V30 387 H 34.5034 -0.569025 -1.38139 0
M  V30 388 H 36.3854 1.10067 -4.06772 0
M  V30 389 H 35.0604 1.41165 -2.91297 0
M  V30 390 H 33.9674 -0.782559 -3.65823 0
M  V30 391 H 35.3004 -1.01034 -4.81719 0
M  V30 392 N 36.9525 1.47285 -0.560781 0
M  V30 393 C 37.8825 2.32857 0.173105 0
M  V30 394 C 38.8635 1.44009 0.905281 0
M  V30 395 O 40.0485 1.7286 0.885046 0
M  V30 396 C 37.1785 3.25861 1.20133 0
M  V30 397 C 36.1325 4.23978 0.585388 0
M  V30 398 C 35.4585 5.06332 1.7185 0
M  V30 399 C 36.7585 5.20242 -0.463178 0
M  V30 400 H 38.4525 2.94466 -0.541307 0
M  V30 401 H 35.9985 1.41601 -0.261764 0
M  V30 402 H 37.9515 3.84569 1.72293 0
M  V30 403 H 36.6755 2.62315 1.94573 0
M  V30 404 H 35.3345 3.66501 0.085054 0
M  V30 405 H 34.9825 4.39186 2.45203 0
M  V30 406 H 34.6825 5.72762 1.31213 0
M  V30 407 H 36.2065 5.67899 2.24329 0
M  V30 408 H 37.6205 5.73293 -0.027502 0
M  V30 409 H 36.0175 5.94896 -0.788627 0
M  V30 410 H 37.0875 4.65504 -1.35773 0
M  V30 411 N 38.4306 0.297415 1.54768 0
M  V30 412 C 39.6776 -0.312913 2.00068 0
M  V30 413 C 40.0056 -1.54171 1.18582 0
M  V30 414 O 39.2606 -1.94108 0.249133 0
M  V30 415 C 39.5596 -0.717561 3.50123 0
M  V30 416 C 39.2256 0.409095 4.4904 0
M  V30 417 C 37.8876 0.718399 4.75807 0
M  V30 418 C 40.2396 1.16717 5.07963 0
M  V30 419 C 37.5676 1.78896 5.5876 0
M  V30 420 C 39.9196 2.22762 5.92081 0
M  V30 421 C 38.5836 2.54303 6.1716 0
M  V30 422 H 37.8536 -0.114503 0.7321 0
M  V30 423 H 40.5006 0.415767 1.86932 0
M  V30 424 H 38.8056 -1.52627 3.60849 0
M  V30 425 H 40.5026 -1.20091 3.82595 0
M  V30 426 H 37.0926 0.157918 4.28309 0
M  V30 427 H 41.2766 0.941466 4.87289 0
M  V30 428 H 36.5326 2.0381 5.7643 0
M  V30 429 H 40.7066 2.81962 6.36765 0
M  V30 430 H 38.3336 3.3739 6.81229 0
M  V30 431 N 39.9087 -1.5758 0.0250728 0
M  V30 432 C 40.8407 -2.06869 -0.986796 0
M  V30 433 C 41.8537 -0.991332 -1.29137 0
M  V30 434 O 43.0427 -1.26761 -1.25674 0
M  V30 435 C 40.1427 -2.47486 -2.31525 0
M  V30 436 C 39.3157 -3.78253 -2.19643 0
M  V30 437 C 38.3747 -4.05464 -3.35388 0
M  V30 438 O 37.4007 -4.75774 -3.12454 0
M  V30 439 N 38.6027 -3.55321 -4.59051 0
M  V30 440 H 41.3677 -2.94302 -0.566276 0
M  V30 441 H 38.9287 -1.6109 -0.161776 0
M  V30 442 H 40.9207 -2.62785 -3.07776 0
M  V30 443 H 39.4907 -1.65441 -2.65232 0
M  V30 444 H 38.7107 -3.7279 -1.28144 0
M  V30 445 H 39.9987 -4.63936 -2.08903 0
M  V30 446 H 39.3967 -2.98431 -4.80578 0
M  V30 447 H 37.9537 -3.75905 -5.32483 0
M  V30 448 N 41.3868 0.248026 -1.55636 0
M  V30 449 C 42.3368 1.30994 -1.86614 0
M  V30 450 C 43.3208 1.43543 -0.726918 0
M  V30 451 O 44.5128 1.46804 -0.988818 0
M  V30 452 C 41.6418 2.6656 -2.16335 0
M  V30 453 C 40.7278 2.58019 -3.36581 0
M  V30 454 N 41.1188 2.1911 -4.55878 0
M  V30 455 C 39.4168 2.89035 -3.39669 0
M  V30 456 C 40.1178 2.21174 -5.38012 0
M  V30 457 N 39.0938 2.60632 -4.77045 0
M  V30 458 H 42.8958 0.999583 -2.76379 0
M  V30 459 H 40.4098 0.456652 -1.55848 0
M  V30 460 H 42.4068 3.43194 -2.36692 0
M  V30 461 H 41.0668 2.98463 -1.27867 0
M  V30 462 H 42.0778 1.90672 -4.81523 0
M  V30 463 H 38.7548 3.25485 -2.61469 0
M  V30 464 H 40.1448 1.9344 -6.43452 0
M  V30 465 N 42.8649 1.48995 0.513639 0
M  V30 466 C 43.7749 1.67443 1.64317 0
M  V30 467 C 44.7909 0.556947 1.64846 0
M  V30 468 O 45.9669 0.830082 1.83498 0
M  V30 469 C 43.0319 1.72515 3.00732 0
M  V30 470 C 42.0929 2.96009 3.1093 0
M  V30 471 C 41.3259 3.00829 4.40837 0
M  V30 472 O 41.5489 2.13594 5.28898 0
M  V30 473 O 40.4829 3.93168 4.55744 0
M  V30 474 H 44.3089 2.63106 1.51687 0
M  V30 475 H 41.8939 1.32588 0.688543 0
M  V30 476 H 43.7759 1.78277 3.81831 0
M  V30 477 H 42.4509 0.800278 3.13651 0
M  V30 478 H 41.3579 2.9577 2.29065 0
M  V30 479 H 42.6909 3.87934 3.02933 0
M  V30 480 N 44.343 -0.763751 1.37857 0
M  V30 481 C 45.273 -1.89103 1.36975 0
M  V30 482 C 46.254 -1.68439 0.237152 0
M  V30 483 O 47.439 -1.8918 0.438713 0
M  V30 484 C 44.569 -3.26496 1.18395 0
M  V30 485 C 43.523 -3.61741 2.28751 0
M  V30 486 C 42.849 -4.97762 1.95286 0
M  V30 487 C 44.149 -3.67665 3.70972 0
M  V30 488 H 45.843 -1.90099 2.31307 0
M  V30 489 H 43.389 -0.91319 1.11341 0
M  V30 490 H 45.342 -4.05003 1.16406 0
M  V30 491 H 44.066 -3.25955 0.205215 0
M  V30 492 H 42.725 -2.85547 2.29909 0
M  V30 493 H 42.373 -4.93769 0.959221 0
M  V30 494 H 42.073 -5.22313 2.69189 0
M  V30 495 H 43.597 -5.7866 1.94898 0
M  V30 496 H 45.011 -4.36307 3.719 0
M  V30 497 H 43.408 -4.03718 4.43995 0
M  V30 498 H 44.478 -2.68134 4.0402 0
M  V30 499 N 45.8211 -1.22559 -0.990812 0
M  V30 500 C 46.7681 -0.997519 -2.0813 0
M  V30 501 C 47.7381 0.0814702 -1.659 0
M  V30 502 O 48.9231 -0.0685424 -1.90677 0
M  V30 503 C 46.0631 -0.583615 -3.40129 0
M  V30 504 C 45.1761 -1.7336 -3.9569 0
M  V30 505 C 44.3111 -1.26748 -5.15857 0
M  V30 506 C 43.3501 -2.38888 -5.63559 0
M  V30 507 N 42.4871 -1.93308 -6.74964 0
M  V30 508 H 47.3271 -1.93099 -2.26973 0
M  V30 509 H 44.8641 -0.962114 -1.11273 0
M  V30 510 H 46.8221 -0.324801 -4.15934 0
M  V30 511 H 45.4521 0.312845 -3.2128 0
M  V30 512 H 44.5041 -2.10669 -3.16738 0
M  V30 513 H 45.8161 -2.57704 -4.27071 0
M  V30 514 H 44.9701 -0.966173 -5.98957 0
M  V30 515 H 43.7091 -0.394272 -4.86104 0
M  V30 516 H 42.7141 -2.69805 -4.79046 0
M  V30 517 H 43.9391 -3.26728 -5.95336 0
M  V30 518 H 41.8851 -1.08352 -6.4699 0
M  V30 519 H 41.8021 -2.71217 -7.05675 0
M  V30 520 H 43.0701 -1.66252 -7.61564 0
M  V30 521 N 47.2992 1.18797 -1.03562 0
M  V30 522 C 48.5272 1.92599 -0.755869 0
M  V30 523 C 48.9422 1.75886 0.686271 0
M  V30 524 O 48.2992 1.08517 1.46732 0
M  V30 525 C 48.3502 3.44159 -1.10619 0
M  V30 526 O 48.0712 3.60341 -2.4917 0
M  V30 527 C 49.5722 4.3507 -0.850214 0
M  V30 528 H 46.7922 0.611587 -0.276048 0
M  V30 529 H 49.3362 1.50742 -1.38192 0
M  V30 530 H 47.4912 3.83823 -0.525194 0
M  V30 531 H 47.9052 4.54128 -2.62427 0
M  V30 532 H 49.3792 5.39989 -1.14523 0
M  V30 533 H 49.8562 4.38673 0.215176 0
M  V30 534 H 50.4622 4.01097 -1.41426 0
M  V30 535 N 48.7773 0.814389 1.34928 0
M  V30 536 C 50.0263 0.394871 1.97797 0
M  V30 537 C 50.3393 -1.04555 1.65311 0
M  V30 538 O 51.5453 -1.56856 2.21604 0
M  V30 539 C 50.0013 0.655103 3.53888 0
M  V30 540 C 49.6093 2.10858 3.95276 0
M  V30 541 C 51.3533 0.301329 4.23429 0
M  V30 542 C 49.2603 2.31415 5.44244 0
M  V30 543 H 48.1903 0.143913 0.740139 0
M  V30 544 H 50.8413 0.999544 1.53888 0
M  V30 545 H 49.2233 -0.0196253 3.95995 0
M  V30 546 H 50.3973 2.82176 3.64298 0
M  V30 547 H 48.7123 2.42297 3.38646 0
M  V30 548 H 51.3093 0.432869 5.32945 0
M  V30 549 H 51.6523 -0.75331 4.09428 0
M  V30 550 H 52.1853 0.930288 3.86769 0
M  V30 551 H 48.9243 3.35353 5.63222 0
M  V30 552 H 48.4443 1.6463 5.76764 0
M  V30 553 H 50.1233 2.13352 6.10811 0
M  V30 554 N 50.2554 -1.46986 0.568584 0
M  V30 555 C 51.5024 -2.02441 0.0487986 0
M  V30 556 C 51.8304 -1.44169 -1.30559 0
M  V30 557 O 51.0854 -0.591213 -1.86556 0
M  V30 558 C 51.3844 -3.57306 -0.081836 0
M  V30 559 C 51.0504 -4.34552 1.20313 0
M  V30 560 C 49.7124 -4.55376 1.5552 0
M  V30 561 C 52.0644 -4.79016 2.05411 0
M  V30 562 C 49.3924 -5.17913 2.7565 0
M  V30 563 C 51.7444 -5.42879 3.24754 0
M  V30 564 C 50.4084 -5.61933 3.60261 0
M  V30 565 H 49.6784 -0.740785 0.0178567 0
M  V30 566 H 52.3254 -1.76525 0.742384 0
M  V30 567 H 50.6304 -3.8228 -0.858463 0
M  V30 568 H 52.3274 -3.97876 -0.499546 0
M  V30 569 H 48.9174 -4.18631 0.919014 0
M  V30 570 H 53.1014 -4.62696 1.79516 0
M  V30 571 H 48.3574 -5.30858 3.03315 0
M  V30 572 H 52.5314 -5.76293 3.90973 0
M  V30 573 H 50.1584 -6.10161 4.53439 0
M  V30 574 N 51.7335 -0.305618 -1.54608 0
M  V30 575 C 52.6965 0.555591 -2.22364 0
M  V30 576 C 53.6965 1.05768 -1.21119 0
M  V30 577 O 54.8865 0.952972 -1.45822 0
M  V30 578 C 52.0185 1.76974 -2.91364 0
M  V30 579 H 53.2115 -0.0364572 -2.99878 0
M  V30 580 H 50.7645 -0.0565007 -1.56198 0
M  V30 581 H 51.4995 2.40151 -2.17941 0
M  V30 582 H 51.2845 1.41732 -3.65588 0
M  V30 583 H 52.7745 2.38148 -3.43038 0
M  V30 584 N 53.2116 1.57565 -0.0334293 0
M  V30 585 C 54.6276 1.56297 0.322997 0
M  V30 586 C 54.8276 1.03945 1.7262 0
M  V30 587 O 53.8836 0.688109 2.42943 0
M  V30 588 C 55.1966 3.00232 0.167664 0
M  V30 589 C 56.7446 3.12078 0.240107 0
M  V30 590 C 57.2196 4.57859 0.113513 0
M  V30 591 N 58.7106 4.62887 0.170359 0
M  V30 592 C 59.4456 5.73319 0.0962517 0
M  V30 593 N 58.9416 6.92794 -0.0291881 0
M  V30 594 N 60.7346 5.61898 0.150551 0
M  V30 595 H 52.8856 1.89923 -0.950956 0
M  V30 596 H 55.1486 0.873824 -0.367608 0
M  V30 597 H 54.8546 3.42501 -0.799102 0
M  V30 598 H 54.7286 3.654 0.936083 0
M  V30 599 H 57.1156 2.69718 1.19733 0
M  V30 600 H 57.1966 2.49623 -0.558763 0
M  V30 601 H 56.8406 5.009 -0.840314 0
M  V30 602 H 56.7706 5.18299 0.931302 0
M  V30 603 H 59.2616 3.76954 0.26728 0
M  V30 604 H 59.5746 7.7276 -0.0789252 0
M  V30 605 H 57.9196 6.94971 -0.0640299 0
M  V30 606 H 61.1106 4.67448 0.246981 0
M  V30 607 H 61.2836 6.47938 0.0893365 0
M  V30 608 N 54.6897 -0.239769 1.55765 0
M  V30 609 C 55.6377 -1.31668 1.91745 0
M  V30 610 C 56.6317 -1.49462 0.797338 0
M  V30 611 O 57.8377 -1.50852 0.982021 0
M  V30 612 H 54.2127 -0.441048 0.609082 0
M  V30 613 H 56.1837 -0.985923 2.81642 0
M  V30 614 C 54.9327 -2.66368 2.2348 0
M  V30 615 H 54.2557 -2.53478 3.09175 0
M  V30 616 H 55.6957 -3.40578 2.52553 0
M  V30 617 C 54.1547 -3.20002 1.05359 0
M  V30 618 O 54.6847 -4.00538 0.305261 0
M  V30 619 N 52.8907 -2.78126 0.842292 0
M  V30 620 H 52.4377 -2.12742 1.45253 0
M  V30 621 H 52.3957 -3.14354 0.053652 0
M  V30 622 N 56.1678 -1.49265 -0.50573 0
M  V30 623 C 57.4138 -1.59723 -1.25937 0
M  V30 624 C 57.7688 -0.278236 -1.90378 0
M  V30 625 O 57.0618 0.72113 -1.77511 0
M  V30 626 C 57.2558 -2.69008 -2.35308 0
M  V30 627 C 57.0848 -4.11405 -1.81592 0
M  V30 628 C 55.8548 -4.78252 -1.63105 0
M  V30 629 C 58.0528 -4.96792 -1.33048 0
M  V30 630 N 56.0348 -6.0498 -1.04269 0
M  V30 631 C 57.4058 -6.13962 -0.863168 0
M  V30 632 C 59.4608 -4.82828 -1.21577 0
M  V30 633 C 58.1638 -7.18705 -0.292489 0
M  V30 634 C 60.1898 -5.87716 -0.65907 0
M  V30 635 C 59.5518 -7.0411 -0.201954 0
M  V30 636 H 55.6508 -0.638864 -0.450973 0
M  V30 637 H 58.2348 -1.86251 -0.567326 0
M  V30 638 H 56.4058 -2.4426 -3.01979 0
M  V30 639 H 58.1378 -2.69013 -3.02348 0
M  V30 640 H 54.8928 -4.34974 -1.87336 0
M  V30 641 H 55.3168 -6.72631 -0.767919 0
M  V30 642 H 59.9588 -3.93159 -1.55518 0
M  V30 643 H 57.6768 -8.08078 0.0591987 0
M  V30 644 H 61.2628 -5.7897 -0.573156 0
M  V30 645 H 60.1428 -7.83885 0.222101 0
M  V30 646 N 57.6459 0.756429 -1.3826 0
M  V30 647 C 58.5759 1.88374 -1.37976 0
M  V30 648 C 59.5569 1.68311 -0.246082 0
M  V30 649 O 60.7419 1.88944 -0.44874 0
M  V30 650 C 57.8719 3.25864 -1.20125 0
M  V30 651 C 56.8259 3.60523 -2.30666 0
M  V30 652 C 56.1519 4.9672 -1.97923 0
M  V30 653 C 57.4519 3.65692 -3.72916 0
M  V30 654 H 59.1459 1.88869 -2.32312 0
M  V30 655 H 56.6919 0.907272 -1.11824 0
M  V30 656 H 58.6449 4.0438 -1.18552 0
M  V30 657 H 57.3689 3.25841 -0.222498 0
M  V30 658 H 56.0279 2.84324 -2.3142 0
M  V30 659 H 55.6759 4.93253 -0.985393 0
M  V30 660 H 55.3759 5.20878 -2.71955 0
M  V30 661 H 56.8999 5.77618 -1.97964 0
M  V30 662 H 58.3139 4.34328 -3.74208 0
M  V30 663 H 56.7109 4.01358 -4.4613 0
M  V30 664 H 57.7809 2.65987 -4.05436 0
M  V30 665 N 59.124 1.23083 0.984299 0
M  V30 666 C 60.371 1.06057 1.72505 0
M  V30 667 C 60.699 -0.403105 1.90277 0
M  V30 668 O 59.954 -1.3149 1.44944 0
M  V30 669 C 60.253 1.72673 3.1292 0
M  V30 670 C 59.919 3.22586 3.15038 0
M  V30 671 C 58.581 3.63489 3.15324 0
M  V30 672 C 60.933 4.185 3.10657 0
M  V30 673 C 58.261 4.98772 3.08939 0
M  V30 674 C 60.613 5.53769 3.05814 0
M  V30 675 C 59.277 5.94041 3.04419 0
M  V30 676 H 58.547 0.388091 0.631242 0
M  V30 677 H 61.194 1.52963 1.15215 0
M  V30 678 H 59.499 1.18116 3.73572 0
M  V30 679 H 61.196 1.56982 3.68996 0
M  V30 680 H 57.786 2.90022 3.15571 0
M  V30 681 H 61.97 3.87911 3.09579 0
M  V30 682 H 57.226 5.29193 3.0621 0
M  V30 683 H 61.4 6.27808 3.0138 0
M  V30 684 H 59.027 6.98833 2.99227 0
M  V30 685 N 60.6021 -1.18246 1.0419 0
M  V30 686 C 61.5321 -2.24127 0.654914 0
M  V30 687 C 62.5131 -1.66617 -0.342451 0
M  V30 688 O 63.6981 -1.92924 -0.222277 0
M  V30 689 C 60.8281 -3.47295 0.0183757 0
M  V30 690 C 59.7821 -4.17563 0.939414 0
M  V30 691 C 59.1081 -5.34438 0.167286 0
M  V30 692 C 60.4081 -4.70917 2.25908 0
M  V30 693 H 62.1021 -2.56753 1.54007 0
M  V30 694 H 59.6481 -1.23414 0.74195 0
M  V30 695 H 61.6011 -4.20572 -0.264082 0
M  V30 696 H 60.3251 -3.13907 -0.901664 0
M  V30 697 H 58.9841 -3.46186 1.20628 0
M  V30 698 H 58.6321 -4.97298 -0.7552 0
M  V30 699 H 58.3321 -5.82388 0.780901 0
M  V30 700 H 59.8561 -6.10504 -0.108125 0
M  V30 701 H 61.2701 -5.35882 2.03724 0
M  V30 702 H 59.6671 -5.29406 2.82577 0
M  V30 703 H 60.7371 -3.88272 2.9047 0
M  V30 704 N 62.0802 -0.821533 -1.34494 0
M  V30 705 C 63.3082 -0.421884 -2.02553 0
M  V30 706 C 63.7232 0.971745 -1.61872 0
M  V30 707 O 63.0802 1.62864 -0.823496 0
M  V30 708 C 63.1312 -0.51285 -3.57844 0
M  V30 709 O 62.8522 -1.85155 -3.97051 0
M  V30 710 C 64.3532 -0.107921 -4.43169 0
M  V30 711 H 61.5732 -0.169482 -0.649243 0
M  V30 712 H 64.1172 -1.1093 -1.71798 0
M  V30 713 H 62.2722 0.126474 -3.87193 0
M  V30 714 H 62.6862 -1.82482 -4.91732 0
M  V30 715 H 64.1602 -0.222657 -5.51551 0
M  V30 716 H 64.6372 0.948401 -4.28838 0
M  V30 717 H 65.2432 -0.720989 -4.19144 0
M  V30 718 N 63.5583 1.46682 -0.576371 0
M  V30 719 C 64.5083 2.27278 0.181288 0
M  V30 720 C 65.4923 1.35497 0.867721 0
M  V30 721 O 66.6843 1.59717 0.762863 0
M  V30 722 C 63.8133 3.21703 1.19841 0
M  V30 723 C 62.8993 4.20969 0.51442 0
M  V30 724 N 63.2903 5.03999 -0.426407 0
M  V30 725 C 61.5883 4.39373 0.765963 0
M  V30 726 C 62.2893 5.75812 -0.825565 0
M  V30 727 N 61.2653 5.43315 -0.176116 0
M  V30 728 H 65.0673 2.88863 -0.541785 0
M  V30 729 H 62.5813 1.57455 -0.397697 0
M  V30 730 H 64.5783 3.78145 1.75533 0
M  V30 731 H 63.2383 2.61677 1.92238 0
M  V30 732 H 64.2493 5.11659 -0.8016 0
M  V30 733 H 60.9263 3.90502 1.47698 0
M  V30 734 H 62.3163 6.52577 -1.59976 0
M  V30 735 N 65.0364 0.313813 1.54444 0
M  V30 736 C 66.3134 -0.345447 1.92525 0
M  V30 737 C 66.6934 -1.70667 1.24242 0
M  V30 738 O 66.0414 -2.25273 0.382654 0
M  V30 739 C 66.2514 -0.44737 3.46121 0
M  V30 740 C 67.5994 -0.712238 4.18584 0
M  V30 741 O 68.6234 -0.530678 3.52225 0
M  V30 742 O 67.4824 -1.06183 5.36085 0
M  V30 743 H 64.5764 -0.195407 0.803583 0
M  V30 744 H 67.1224 0.362813 1.65776 0
M  V30 745 H 65.8944 0.509043 3.87975 0
M  V30 746 H 65.5174 -1.20359 3.78945 0
M  V30 747 N 66.5145 -1.57545 0.0417849 0
M  V30 748 C 67.7395 -1.97035 -0.647455 0
M  V30 749 C 68.1645 -0.918775 -1.64135 0
M  V30 750 O 67.5225 0.119006 -1.80909 0
M  V30 751 C 67.5705 -3.35609 -1.31905 0
M  V30 752 O 66.6745 -3.3287 -2.43457 0
M  V30 753 H 66.0155 -0.64211 -0.169086 0
M  V30 754 H 68.5455 -2.04318 0.107399 0
M  V30 755 H 68.5555 -3.72126 -1.67291 0
M  V30 756 H 67.2305 -4.11685 -0.590586 0
M  V30 757 H 65.8075 -3.08087 -2.10088 0
M  V30 758 N 67.9926 0.231505 -1.5589 0
M  V30 759 C 68.9226 1.29022 -1.94617 0
M  V30 760 C 69.9036 1.4941 -0.813067 0
M  V30 761 O 71.0886 1.6176 -1.07459 0
M  V30 762 C 68.2186 2.64199 -2.25424 0
M  V30 763 C 67.1726 2.58484 -3.41131 0
M  V30 764 C 66.4986 3.97599 -3.57518 0
M  V30 765 C 67.7986 2.1413 -4.76388 0
M  V30 766 H 69.4926 0.968563 -2.83301 0
M  V30 767 H 67.0386 0.464479 -1.36303 0
M  V30 768 H 68.9916 3.38413 -2.51107 0
M  V30 769 H 67.7156 2.98032 -1.33583 0
M  V30 770 H 66.3746 1.86727 -3.15481 0
M  V30 771 H 66.0226 4.28723 -2.6307 0
M  V30 772 H 65.7226 3.94659 -4.35337 0
M  V30 773 H 67.2466 4.7349 -3.85538 0
M  V30 774 H 68.6606 2.78083 -5.01341 0
M  V30 775 H 67.0576 2.2227 -5.57419 0
M  V30 776 H 68.1276 1.09331 -4.72414 0
M  V30 777 N 69.4707 1.49531 0.497807 0
M  V30 778 C 70.7197 1.58426 1.24837 0
M  V30 779 C 71.0327 0.277643 1.93619 0
M  V30 780 O 72.2387 0.24517 2.70391 0
M  V30 781 C 70.6947 2.79538 2.26686 0
M  V30 782 C 70.3027 4.16971 1.63828 0
M  V30 783 C 72.0467 2.97764 3.0255 0
M  V30 784 C 69.9537 5.29301 2.63807 0
M  V30 785 H 68.8837 0.58989 0.469623 0
M  V30 786 H 71.5347 1.75923 0.521857 0
M  V30 787 H 69.9167 2.55542 3.02514 0
M  V30 788 H 71.0907 4.51116 0.939711 0
M  V30 789 H 69.4057 4.04129 1.00342 0
M  V30 790 H 72.0027 3.78856 3.77323 0
M  V30 791 H 72.3457 2.08448 3.60354 0
M  V30 792 H 72.8787 3.21815 2.33838 0
M  V30 793 H 69.6177 6.20687 2.10779 0
M  V30 794 H 69.1377 4.99606 3.31894 0
M  V30 795 H 70.8167 5.58768 3.2617 0
M  V30 796 N 70.9488 -0.749086 1.3866 0
M  V30 797 C 72.3598 -1.32664 1.31366 0
M  V30 798 C 72.7108 -1.96179 -0.028484 0
M  V30 799 O 71.8358 -1.9537 -0.93057 0
M  V30 800 C 72.4308 -2.41219 2.37905 0
M  V30 801 C 70.9898 -2.94684 2.34176 0
M  V30 802 C 70.1368 -1.68108 2.20533 0
M  V30 803 H 73.0878 -0.547628 1.48952 0
M  V30 804 H 73.1088 -3.21268 2.0388 0
M  V30 805 H 72.6208 -1.94962 3.35576 0
M  V30 806 H 70.7218 -3.45258 1.401 0
M  V30 807 H 70.8348 -3.48757 3.2849 0
M  V30 808 H 69.1988 -1.91907 1.67463 0
M  V30 809 H 69.9818 -1.23923 3.20153 0
M  V30 810 N 72.4269 -1.23603 -0.977757 0
M  V30 811 C 73.3899 -1.02069 -2.05218 0
M  V30 812 C 74.3899 0.0184305 -1.60789 0
M  V30 813 O 75.5799 -0.221569 -1.72785 0
M  V30 814 C 72.7119 -0.544926 -3.36517 0
M  V30 815 H 73.9049 -1.9742 -2.25755 0
M  V30 816 H 71.4579 -1.05684 -1.15155 0
M  V30 817 H 72.1929 0.412241 -3.21669 0
M  V30 818 H 71.9779 -1.2948 -3.70105 0
M  V30 819 H 73.4679 -0.414985 -4.15533 0
M  V30 820 N 73.905 1.17692 -1.04816 0
M  V30 821 C 75.316 1.69501 -0.782698 0
M  V30 822 C 75.667 1.83456 0.695577 0
M  V30 823 O 74.792 1.51942 1.54086 0
M  V30 824 C 75.387 3.07874 -1.41419 0
M  V30 825 C 73.946 3.56864 -1.19686 0
M  V30 826 C 73.093 2.3322 -1.50012 0
M  V30 827 H 76.044 1.02262 -1.2136 0
M  V30 828 H 76.065 3.71528 -0.821428 0
M  V30 829 H 75.577 2.97685 -2.49009 0
M  V30 830 H 73.678 3.72337 -0.140043 0
M  V30 831 H 73.791 4.39851 -1.89916 0
M  V30 832 H 72.155 2.37501 -0.920071 0
M  V30 833 H 72.938 2.25644 -2.58727 0
M  V30 834 N 75.3831 0.828654 1.34056 0
M  V30 835 C 76.6311 0.41863 1.97717 0
M  V30 836 C 76.9521 -1.02314 1.66002 0
M  V30 837 O 76.2221 -1.71119 0.953683 0
M  V30 838 H 74.8021 0.151809 0.731412 0
M  V30 839 H 77.4641 1.05936 1.63596 0
M  V30 840 H 76.5601 0.542318 3.07352 0
M  V30 841 N 76.8612 -1.46375 0.584142 0
M  V30 842 C 78.1382 -1.956 0.0033388 0
M  V30 843 C 78.5182 -1.52679 -1.45782 0
M  V30 844 O 77.8662 -0.77816 -2.14842 0
M  V30 845 C 78.0762 -3.48551 0.176891 0
M  V30 846 C 79.4242 -4.24576 0.0454609 0
M  V30 847 O 80.4482 -3.56043 0.105801 0
M  V30 848 O 79.3072 -5.46427 -0.0890376 0
M  V30 849 H 76.4012 -0.825547 -0.0490066 0
M  V30 850 H 78.9472 -1.56652 0.65256 0
M  V30 851 H 77.7192 -3.72683 1.1926 0
M  V30 852 H 77.3422 -3.94332 -0.508695 0
M  V30 853 N 78.3393 -0.321999 -1.54275 0
M  V30 854 C 79.5693 0.282642 -2.04658 0
M  V30 855 C 79.9773 1.46453 -1.19784 0
M  V30 856 O 79.3203 1.82367 -0.220932 0
M  V30 857 C 79.3823 0.781857 -3.50895 0
M  V30 858 C 79.0463 -0.277517 -4.56157 0
M  V30 859 C 80.0433 -1.11307 -5.07845 0
M  V30 860 C 77.7283 -0.425256 -5.00497 0
M  V30 861 C 79.7223 -2.08211 -6.02434 0
M  V30 862 C 77.4093 -1.39771 -5.94901 0
M  V30 863 C 78.4073 -2.2246 -6.45756 0
M  V30 864 O 78.0953 -3.18054 -7.38307 0
M  V30 865 H 77.8273 0.0622636 -0.673126 0
M  V30 866 H 80.3813 -0.465792 -2.00049 0
M  V30 867 H 78.6113 1.58118 -3.52896 0
M  V30 868 H 80.3003 1.30467 -3.84361 0
M  V30 869 H 81.0663 -1.00991 -4.74369 0
M  V30 870 H 76.9453 0.20847 -4.60528 0
M  V30 871 H 80.4893 -2.72791 -6.42052 0
M  V30 872 H 76.3863 -1.50152 -6.27794 0
M  V30 873 H 77.1543 -3.13275 -7.56175 0
M  V30 874 N 79.8174 1.5752 -0.0501392 0
M  V30 875 C 81.0634 1.92936 0.624798 0
M  V30 876 C 81.3964 0.928685 1.70555 0
M  V30 877 O 80.6714 -0.0454779 1.94447 0
M  V30 878 C 80.9544 3.38737 1.22185 0
M  V30 879 C 80.8074 4.49552 0.149218 0
M  V30 880 C 82.1264 3.84913 2.13378 0
M  V30 881 H 79.2454 0.701604 0.225657 0
M  V30 882 H 81.8874 1.89671 -0.111693 0
M  V30 883 H 80.0374 3.4165 1.84953 0
M  V30 884 H 81.7094 4.58768 -0.482648 0
M  V30 885 H 79.9524 4.30638 -0.522841 0
M  V30 886 H 80.6234 5.48653 0.606966 0
M  V30 887 H 83.0994 3.8387 1.60572 0
M  V30 888 H 81.9754 4.87584 2.52097 0
M  V30 889 H 82.2364 3.21611 3.03346 0
M  V30 890 N 81.2955 -0.223234 1.56011 0
M  V30 891 C 82.5235 -0.964812 1.83027 0
M  V30 892 C 82.9385 -1.78013 0.62904 0
M  V30 893 O 82.2955 -1.78008 -0.402414 0
M  V30 894 C 82.3465 -1.88373 3.08542 0
M  V30 895 O 82.0675 -1.10137 4.2403 0
M  V30 896 C 83.5685 -2.73934 3.48533 0
M  V30 897 H 80.7885 -0.282842 0.608475 0
M  V30 898 H 83.3325 -0.238971 2.03099 0
M  V30 899 H 81.4875 -2.56354 2.9045 0
M  V30 900 H 81.9015 -1.72501 4.95322 0
M  V30 901 H 83.3755 -3.34117 4.39397 0
M  V30 902 H 83.8525 -3.46244 2.70207 0
M  V30 903 H 84.4585 -2.11369 3.69057 0
M  V30 904 N 82.7736 -1.49793 -0.48987 0
M  V30 905 C 83.7366 -1.66752 -1.57246 0
M  V30 906 C 84.7366 -0.538867 -1.51502 0
M  V30 907 O 85.9266 -0.805545 -1.54456 0
M  V30 908 C 83.0586 -1.67528 -2.96896 0
M  V30 909 H 84.2516 -2.63321 -1.43534 0
M  V30 910 H 81.8046 -1.38992 -0.714914 0
M  V30 911 H 82.5396 -0.725837 -3.16073 0
M  V30 912 H 82.3246 -2.49504 -3.02473 0
M  V30 913 H 83.8146 -1.82667 -3.7553 0
M  V30 914 N 84.2517 0.741722 -1.39055 0
M  V30 915 C 85.1987 1.85566 -1.37237 0
M  V30 916 C 86.1687 1.64457 -0.233072 0
M  V30 917 O 87.3537 1.85957 -0.427147 0
M  V30 918 C 84.4937 3.23004 -1.215 0
M  V30 919 C 83.6067 3.55864 -2.44918 0
M  V30 920 C 82.7417 4.82669 -2.21821 0
M  V30 921 C 81.7807 5.08351 -3.40948 0
M  V30 922 N 80.9177 6.26356 -3.17211 0
M  V30 923 H 85.7577 1.86455 -2.32462 0
M  V30 924 H 83.2947 0.911176 -1.15482 0
M  V30 925 H 85.2527 4.02331 -1.10389 0
M  V30 926 H 83.8827 3.21411 -0.29908 0
M  V30 927 H 82.9347 2.7129 -2.66657 0
M  V30 928 H 84.2467 3.70765 -3.33668 0
M  V30 929 H 83.4007 5.69962 -2.07914 0
M  V30 930 H 82.1397 4.69929 -1.30454 0
M  V30 931 H 81.1447 4.19522 -3.55361 0
M  V30 932 H 82.3697 5.22981 -4.33207 0
M  V30 933 H 80.3157 6.14917 -2.28502 0
M  V30 934 H 80.2327 6.41813 -3.99515 0
M  V30 935 H 81.5007 7.16506 -3.06984 0
M  V30 936 N 85.7298 1.2412 0.971189 0
M  V30 937 C 86.6628 0.97373 2.06382 0
M  V30 938 C 87.6408 -0.0912662 1.62344 0
M  V30 939 O 88.8248 0.0449365 1.88446 0
M  V30 940 C 85.9518 0.468746 3.35441 0
M  V30 941 C 84.9978 1.52176 3.98428 0
M  V30 942 S 85.8308 3.10203 4.36503 0
M  V30 943 C 86.9868 2.61398 5.68702 0
M  V30 944 H 87.2198 1.89893 2.28753 0
M  V30 945 H 84.7528 1.07466 1.10862 0
M  V30 946 H 86.7108 0.184012 4.10087 0
M  V30 947 H 85.3718 -0.435688 3.11064 0
M  V30 948 H 84.5648 1.11876 4.91426 0
M  V30 949 H 84.1668 1.75632 3.30196 0
M  V30 950 H 86.4588 2.03992 6.4606 0
M  V30 951 H 87.4018 3.52972 6.13854 0
M  V30 952 H 87.8098 2.01941 5.27143 0
M  V30 953 N 87.2079 -1.17134 1.05439 0
M  V30 954 C 88.4559 -1.87085 0.764429 0
M  V30 955 C 88.7769 -1.81584 -0.710787 0
M  V30 956 O 88.0469 -1.24349 -1.51374 0
M  V30 957 H 86.6269 -0.692627 0.279779 0
M  V30 958 H 89.2889 -1.42087 1.33406 0
M  V30 959 H 88.3849 -2.92759 1.0816 0
M  V30 960 N 88.686 -0.835752 -1.33615 0
M  V30 961 C 89.935 -0.426289 -1.97144 0
M  V30 962 C 90.248 1.01912 -1.66953 0
M  V30 963 O 91.454 1.53311 -2.24072 0
M  V30 964 C 89.91 -0.711321 -3.52801 0
M  V30 965 C 89.518 -2.1712 -3.91871 0
M  V30 966 C 91.262 -0.368654 -4.22896 0
M  V30 967 C 89.169 -2.40044 -5.40493 0
M  V30 968 H 88.099 -0.15567 -0.737755 0
M  V30 969 H 90.75 -1.0239 -1.52278 0
M  V30 970 H 89.132 -0.0433766 -3.95976 0
M  V30 971 H 90.306 -2.87936 -3.59763 0
M  V30 972 H 88.621 -2.47654 -3.34749 0
M  V30 973 H 91.218 -0.517601 -5.32189 0
M  V30 974 H 91.561 0.688078 -4.10574 0
M  V30 975 H 92.094 -0.991702 -3.8524 0
M  V30 976 H 88.833 -3.44271 -5.57815 0
M  V30 977 H 88.353 -1.73785 -5.74072 0
M  V30 978 H 90.032 -2.23042 -6.0734 0
M  V30 979 N 90.1641 1.46063 -0.591896 0
M  V30 980 C 91.4411 1.95595 -0.0137119 0
M  V30 981 C 91.8211 1.5345 1.4497 0
M  V30 982 O 91.1691 0.789543 2.14426 0
M  V30 983 C 91.3791 3.48453 -0.195373 0
M  V30 984 C 92.7271 4.24546 -0.0679765 0
M  V30 985 O 93.7511 3.55982 -0.124681 0
M  V30 986 O 92.6101 5.46467 0.0600579 0
M  V30 987 H 89.7041 0.825795 0.0446279 0
M  V30 988 H 92.2501 1.56303 -0.660859 0
M  V30 989 H 91.0221 3.72045 -1.21235 0
M  V30 990 H 90.6451 3.94597 0.487775 0
M  V30 991 N 91.6422 0.330177 1.54103 0
M  V30 992 C 92.5522 -0.541534 2.28264 0
M  V30 993 C 93.5682 -1.12351 1.32866 0
M  V30 994 O 94.7442 -1.14206 1.65888 0
M  V30 995 C 91.8092 -1.68322 3.03098 0
M  V30 996 C 90.8702 -1.13238 4.14096 0
M  V30 997 C 90.1032 -2.21966 4.85352 0
M  V30 998 O 90.3262 -3.42437 4.56172 0
M  V30 999 O 89.2602 -1.87013 5.7211 0
M  V30 1000 H 93.0862 0.060938 3.03639 0
M  V30 1001 H 90.6712 0.09565 1.49093 0
M  V30 1002 H 92.5532 -2.34777 3.49939 0
M  V30 1003 H 91.2282 -2.27176 2.30593 0
M  V30 1004 H 90.1352 -0.432736 3.71589 0
M  V30 1005 H 91.4682 -0.588898 4.88664 0
M  V30 1006 N 93.1203 -1.57491 0.0584922 0
M  V30 1007 C 94.3663 -1.93264 -0.614558 0
M  V30 1008 C 94.6993 -0.937717 -1.7006 0
M  V30 1009 O 93.9743 0.0351652 -1.94468 0
M  V30 1010 C 94.2573 -3.3938 -1.20386 0
M  V30 1011 C 94.1103 -4.49625 -0.125375 0
M  V30 1012 C 95.4293 -3.86039 -2.11334 0
M  V30 1013 H 92.5483 -0.702791 -0.221933 0
M  V30 1014 H 95.1903 -1.8961 0.12175 0
M  V30 1015 H 93.3403 -3.42626 -1.83139 0
M  V30 1016 H 95.0123 -4.58506 0.506971 0
M  V30 1017 H 93.2553 -4.30354 0.545672 0
M  V30 1018 H 93.9263 -5.48967 -0.577861 0
M  V30 1019 H 96.4023 -3.84716 -1.58534 0
M  V30 1020 H 95.2783 -4.88914 -2.49507 0
M  V30 1021 H 95.5393 -3.23215 -3.01636 0
M  V30 1022 N 94.5984 0.214957 -1.56127 0
M  V30 1023 C 95.8474 0.936451 -1.78643 0
M  V30 1024 C 96.1604 1.85237 -0.628229 0
M  V30 1025 O 97.3664 2.613 -0.737186 0
M  V30 1026 C 95.8224 1.7154 -3.16389 0
M  V30 1027 C 95.4304 0.845299 -4.39953 0
M  V30 1028 C 97.1744 2.42772 -3.48227 0
M  V30 1029 C 95.0814 1.62198 -5.68723 0
M  V30 1030 H 94.0114 0.353401 -0.666051 0
M  V30 1031 H 96.6624 0.190169 -1.82512 0
M  V30 1032 H 95.0444 2.50484 -3.06715 0
M  V30 1033 H 96.2184 0.0959353 -4.607 0
M  V30 1034 H 94.5334 0.244789 -4.1568 0
M  V30 1035 H 97.1304 3.01394 -4.41663 0
M  V30 1036 H 97.4734 3.15984 -2.71035 0
M  V30 1037 H 98.0064 1.70813 -3.5926 0
M  V30 1038 H 94.7454 0.933011 -6.48826 0
M  V30 1039 H 94.2654 2.34579 -5.52026 0
M  V30 1040 H 95.9444 2.18095 -6.09133 0
M  V30 1041 N 96.0765 1.50051 0.48192 0
M  V30 1042 C 97.3225 1.60736 1.2366 0
M  V30 1043 C 97.6555 0.301786 1.91841 0
M  V30 1044 O 96.9305 -0.696025 1.8162 0
M  V30 1045 C 97.2135 2.78009 2.28874 0
M  V30 1046 C 97.0665 4.18416 1.65069 0
M  V30 1047 C 98.3855 2.90867 3.30279 0
M  V30 1048 H 95.5045 0.585031 0.448228 0
M  V30 1049 H 98.1465 1.82402 0.531946 0
M  V30 1050 H 96.2965 2.59667 2.88973 0
M  V30 1051 H 97.9685 4.48322 1.0865 0
M  V30 1052 H 96.2115 4.23177 0.954148 0
M  V30 1053 H 96.8825 4.96381 2.41474 0
M  V30 1054 H 99.3585 3.07623 2.80191 0
M  V30 1055 H 98.2345 3.74566 4.01238 0
M  V30 1056 H 98.4955 2.01021 3.93755 0
M  V30 1057 N 97.5546 -0.734337 1.39446 0
M  V30 1058 C 98.7796 -1.52866 1.40167 0
M  V30 1059 C 99.2046 -1.881 -0.00171513 0
M  V30 1060 O 98.5626 -1.51957 -0.988879 0
M  V30 1061 C 98.6106 -2.79235 2.28167 0
M  V30 1062 O 97.7146 -3.75185 1.71201 0
M  V30 1063 H 97.0556 -0.461618 0.477289 0
M  V30 1064 H 99.5856 -0.905949 1.8345 0
M  V30 1065 H 99.5956 -3.27963 2.42702 0
M  V30 1066 H 98.2706 -2.52923 3.30156 0
M  V30 1067 H 96.8476 -3.33958 1.65912 0
M  V30 1068 N 99.0327 -1.24633 -0.964593 0
M  V30 1069 C 100.449 -1.01239 -1.2338 0
M  V30 1070 C 100.649 0.2769 -1.99588 0
M  V30 1071 O 99.7047 0.992241 -2.32187 0
M  V30 1072 C 101.018 -2.22937 -2.01791 0
M  V30 1073 C 102.566 -2.27594 -2.14872 0
M  V30 1074 C 103.041 -3.48921 -2.96678 0
M  V30 1075 N 104.532 -3.49257 -3.04259 0
M  V30 1076 C 105.267 -4.39795 -3.67924 0
M  V30 1077 N 104.763 -5.40591 -4.33281 0
M  V30 1078 N 106.556 -4.275 -3.64966 0
M  V30 1079 H 98.7067 -2.0748 -0.454502 0
M  V30 1080 H 100.97 -0.910647 -0.26349 0
M  V30 1081 H 100.676 -3.16587 -1.53184 0
M  V30 1082 H 100.55 -2.25306 -3.02518 0
M  V30 1083 H 102.937 -1.34473 -2.6268 0
M  V30 1084 H 103.018 -2.2925 -1.13482 0
M  V30 1085 H 102.662 -4.42359 -2.49562 0
M  V30 1086 H 102.592 -3.4451 -3.98272 0
M  V30 1087 H 105.083 -2.76337 -2.57771 0
M  V30 1088 H 105.396 -6.05904 -4.79687 0
M  V30 1089 H 103.741 -5.44475 -4.3194 0
M  V30 1090 H 106.932 -3.47987 -3.13086 0
M  V30 1091 H 107.105 -4.98258 -4.14298 0
M  V30 1092 N 100.511 1.16574 -1.06058 0
M  V30 1093 C 101.443 2.2045 -0.627239 0
M  V30 1094 C 102.456 1.59752 0.313534 0
M  V30 1095 O 103.645 1.78192 0.104896 0
M  V30 1096 C 100.745 3.3875 0.100974 0
M  V30 1097 C 99.9178 4.29008 -0.852687 0
M  V30 1098 C 98.9768 5.25944 -0.164152 0
M  V30 1099 O 98.0028 5.63535 -0.801047 0
M  V30 1100 N 99.2048 5.70075 1.09518 0
M  V30 1101 H 101.97 2.58249 -1.52077 0
M  V30 1102 H 99.5308 1.3156 -0.943594 0
M  V30 1103 H 101.523 4.00638 0.57194 0
M  V30 1104 H 100.093 2.99476 0.89628 0
M  V30 1105 H 99.3128 3.64419 -1.50308 0
M  V30 1106 H 100.601 4.86195 -1.49972 0
M  V30 1107 H 99.9988 5.41624 1.6328 0
M  V30 1108 H 98.5558 6.34067 1.51006 0
M  V30 1109 N 101.989 0.842826 1.3317 0
M  V30 1110 C 102.937 0.267495 2.31057 0
M  V30 1111 C 103.931 -0.602682 1.58316 0
M  V30 1112 O 105.137 -0.491803 1.73151 0
M  V30 1113 H 101.512 0.0677813 0.748939 0
M  V30 1114 H 103.483 1.10754 2.77085 0
M  V30 1115 C 102.232 -0.539331 3.43492 0
M  V30 1116 H 101.555 0.12095 3.99617 0
M  V30 1117 H 102.995 -0.90767 4.14171 0
M  V30 1118 C 101.454 -1.71981 2.89697 0
M  V30 1119 O 101.984 -2.81862 2.86211 0
M  V30 1120 N 100.19 -1.54299 2.46252 0
M  V30 1121 H 99.7369 -0.649143 2.49287 0
M  V30 1122 H 99.6949 -2.33431 2.10612 0
M  V30 1123 N 103.467 -1.45747 0.599634 0
M  V30 1124 C 104.744 -1.95585 0.0240846 0
M  V30 1125 C 105.124 -1.54217 -1.44154 0
M  V30 1126 O 104.472 -0.800903 -2.14004 0
M  V30 1127 C 104.682 -3.48344 0.21385 0
M  V30 1128 C 106.03 -4.24504 0.0904902 0
M  V30 1129 O 107.054 -3.55911 0.143558 0
M  V30 1130 O 105.913 -5.46491 -0.0310766 0
M  V30 1131 H 103.007 -0.82602 -0.0402478 0
M  V30 1132 H 105.553 -1.55951 0.669139 0
M  V30 1133 H 104.325 -3.71397 1.23206 0
M  V30 1134 H 103.948 -3.9485 -0.466842 0
M  V30 1135 N 104.945 -0.338344 -1.53925 0
M  V30 1136 C 106.193 0.259245 -2.0043 0
M  V30 1137 C 106.514 1.51484 -1.22791 0
M  V30 1138 O 105.784 1.93037 -0.33368 0
M  V30 1139 H 104.364 0.0987845 -0.740439 0
M  V30 1140 H 107.026 -0.458302 -1.89435 0
M  V30 1141 H 106.122 0.505334 -3.07982 0
M  V30 1142 N 106.423 1.57458 -0.0668435 0
M  V30 1143 C 107.648 1.9804 0.616027 0
M  V30 1144 C 108.073 0.944771 1.62652 0
M  V30 1145 O 107.431 -0.0902094 1.81075 0
M  V30 1146 C 107.479 3.37665 1.26549 0
M  V30 1147 O 106.583 3.36701 2.38131 0
M  V30 1148 H 105.924 0.644719 0.158849 0
M  V30 1149 H 108.454 2.04121 -0.139891 0
M  V30 1150 H 108.464 3.7474 1.6135 0
M  V30 1151 H 107.139 4.12573 0.525016 0
M  V30 1152 H 105.716 3.1139 2.0516 0
M  V30 1153 N 107.901 -0.206675 1.56239 0
M  V30 1154 C 109.15 -0.926964 1.79138 0
M  V30 1155 C 109.463 -1.84901 0.638043 0
M  V30 1156 O 110.669 -2.60906 0.751033 0
M  V30 1157 C 109.125 -1.6986 3.17294 0
M  V30 1158 C 108.733 -0.821956 4.40395 0
M  V30 1159 C 110.477 -2.40922 3.4951 0
M  V30 1160 C 108.384 -1.59179 5.69575 0
M  V30 1161 H 107.314 -0.349864 0.667915 0
M  V30 1162 H 109.965 -0.180487 1.8261 0
M  V30 1163 H 108.347 -2.48853 3.08039 0
M  V30 1164 H 109.521 -0.0715019 4.60745 0
M  V30 1165 H 107.836 -0.222741 4.15804 0
M  V30 1166 H 110.433 -2.99047 4.43255 0
M  V30 1167 H 110.776 -3.14542 2.72707 0
M  V30 1168 H 111.309 -1.68905 3.60161 0
M  V30 1169 H 108.048 -0.898589 6.49312 0
M  V30 1170 H 107.568 -2.31648 5.53262 0
M  V30 1171 H 109.247 -2.14862 6.10281 0
M  V30 1172 N 109.379 -1.50304 -0.473955 0
M  V30 1173 C 110.795 -1.37667 -0.807466 0
M  V30 1174 C 110.995 -0.430555 -1.96846 0
M  V30 1175 O 110.051 0.127874 -2.52176 0
M  V30 1176 C 111.364 -2.78974 -1.12223 0
M  V30 1177 C 112.912 -2.87868 -1.22885 0
M  V30 1178 C 113.387 -4.30003 -1.57676 0
M  V30 1179 N 114.878 -4.3294 -1.64673 0
M  V30 1180 C 115.613 -5.3991 -1.93091 0
M  V30 1181 N 115.109 -6.57092 -2.1955 0
M  V30 1182 N 116.902 -5.27351 -1.94569 0
M  V30 1183 H 109.053 -2.10394 0.291212 0
M  V30 1184 H 111.316 -0.945575 0.0677609 0
M  V30 1185 H 111.022 -3.50031 -0.342229 0
M  V30 1186 H 110.896 -3.16038 -2.05913 0
M  V30 1187 H 113.283 -2.17032 -1.99953 0
M  V30 1188 H 113.364 -2.54352 -0.271814 0
M  V30 1189 H 113.008 -5.01375 -0.81149 0
M  V30 1190 H 112.938 -4.61004 -2.54525 0
M  V30 1191 H 115.429 -3.48441 -1.46277 0
M  V30 1192 H 115.742 -7.34425 -2.405 0
M  V30 1193 H 114.087 -6.60272 -2.16948 0
M  V30 1194 H 117.278 -4.34801 -1.73394 0
M  V30 1195 H 117.451 -6.10805 -2.16381 0
M  V30 1196 N 110.857 0.726932 -1.39834 0
M  V30 1197 C 111.82 1.82269 -1.38962 0
M  V30 1198 C 112.82 1.58248 -0.285334 0
M  V30 1199 O 114.01 1.65499 -0.54366 0
M  V30 1200 C 111.142 3.20186 -1.17019 0
M  V30 1201 H 112.335 1.84443 -2.36476 0
M  V30 1202 H 109.888 0.931416 -1.25516 0
M  V30 1203 H 110.623 3.23669 -0.202204 0
M  V30 1204 H 110.408 3.3902 -1.96998 0
M  V30 1205 H 111.898 4.00235 -1.1917 0
M  V30 1206 N 112.336 1.25143 0.95797 0
M  V30 1207 C 113.583 1.09692 1.70217 0
M  V30 1208 C 113.911 -0.362654 1.91089 0
M  V30 1209 O 113.166 -1.28386 1.47701 0
M  V30 1210 C 113.465 1.79272 3.09187 0
M  V30 1211 C 113.131 3.29196 3.08125 0
M  V30 1212 C 111.793 3.70096 3.07543 0
M  V30 1213 C 114.145 4.24995 3.0171 0
M  V30 1214 C 111.473 5.05213 2.9829 0
M  V30 1215 C 113.825 5.60132 2.93999 0
M  V30 1216 C 112.489 6.00365 2.9175 0
M  V30 1217 H 111.759 0.401393 0.622868 0
M  V30 1218 H 114.406 1.55372 1.11945 0
M  V30 1219 H 112.711 1.26014 3.70982 0
M  V30 1220 H 114.408 1.64773 3.65583 0
M  V30 1221 H 110.998 2.96651 3.09348 0
M  V30 1222 H 115.182 3.9439 3.01281 0
M  V30 1223 H 110.438 5.35569 2.94916 0
M  V30 1224 H 114.612 6.3406 2.87996 0
M  V30 1225 H 112.239 7.05023 2.84336 0
M  V30 1226 N 113.814 -1.1601 1.06675 0
M  V30 1227 C 114.744 -2.22688 0.702307 0
M  V30 1228 C 115.725 -1.67306 -0.307032 0
M  V30 1229 O 116.91 -1.93352 -0.181305 0
M  V30 1230 C 114.04 -3.47178 0.092038 0
M  V30 1231 C 112.994 -4.15477 1.02777 0
M  V30 1232 C 112.32 -5.33963 0.28061 0
M  V30 1233 C 113.62 -4.66019 2.35846 0
M  V30 1234 H 115.314 -2.53429 1.59419 0
M  V30 1235 H 112.86 -1.21813 0.767961 0
M  V30 1236 H 114.813 -4.21037 -0.174814 0
M  V30 1237 H 113.537 -3.15749 -0.834877 0
M  V30 1238 H 112.196 -3.43549 1.27944 0
M  V30 1239 H 111.844 -4.98788 -0.649545 0
M  V30 1240 H 111.544 -5.806 0.904258 0
M  V30 1241 H 113.068 -6.10596 0.021396 0
M  V30 1242 H 114.482 -5.3144 2.15045 0
M  V30 1243 H 112.879 -5.23293 2.93743 0
M  V30 1244 H 113.949 -3.82023 2.98641 0
M  V30 1245 N 115.292 -0.849877 -1.32721 0
M  V30 1246 C 116.24 -0.279745 -2.30912 0
M  V30 1247 C 117.234 0.594278 -1.58634 0
M  V30 1248 O 118.44 0.482613 -1.73409 0
M  V30 1249 H 114.815 -0.0717521 -0.748569 0
M  V30 1250 H 116.786 -1.12222 -2.76494 0
M  V30 1251 C 115.535 0.521108 -3.43773 0
M  V30 1252 H 114.858 -0.142141 -3.99547 0
M  V30 1253 H 116.298 0.885693 -4.14646 0
M  V30 1254 C 114.757 1.70442 -2.90605 0
M  V30 1255 O 115.287 2.8034 -2.87702 0
M  V30 1256 N 113.493 1.52991 -2.47067 0
M  V30 1257 H 113.04 0.635914 -2.49628 0
M  V30 1258 H 112.998 2.32311 -2.11847 0
M  V30 1259 N 116.77 1.45427 -0.607355 0
M  V30 1260 C 118.016 2.0254 -0.102607 0
M  V30 1261 C 118.349 1.47478 1.26348 0
M  V30 1262 O 117.624 0.64939 1.83339 0
M  V30 1263 C 117.907 3.60044 -0.0634347 0
M  V30 1264 C 117.76 4.2544 -1.46017 0
M  V30 1265 C 119.079 4.35646 0.624514 0
M  V30 1266 H 116.198 0.73598 -0.0387607 0
M  V30 1267 H 118.84 1.73284 -0.779282 0
M  V30 1268 H 116.99 3.85101 0.512808 0
M  V30 1269 H 118.662 4.11569 -2.08347 0
M  V30 1270 H 116.905 3.83849 -2.02094 0
M  V30 1271 H 117.576 5.34342 -1.385 0
M  V30 1272 H 120.052 4.15882 0.134723 0
M  V30 1273 H 118.928 5.45376 0.621028 0
M  V30 1274 H 119.189 4.08501 1.69055 0
M  V30 1275 N 118.248 0.346503 1.53744 0
M  V30 1276 C 119.488 -0.249413 2.02873 0
M  V30 1277 C 119.852 -1.47532 1.22876 0
M  V30 1278 O 121.053 -2.1456 1.61918 0
M  V30 1279 C 119.324 -0.552909 3.53097 0
M  V30 1280 S 120.883 -1.12521 4.24128 0
M  V30 1281 H 117.701 -0.074042 0.707134 0
M  V30 1282 H 120.303 0.48495 1.8939 0
M  V30 1283 H 119.007 0.347083 4.0893 0
M  V30 1284 H 118.538 -1.31686 3.70705 0
M  V30 1285 H 120.553 -2.41075 4.33702 0
M  V30 1286 N 119.726 -1.57421 0.075193 0
M  V30 1287 C 121.142 -1.57099 -0.281444 0
M  V30 1288 C 121.342 -1.08486 -1.69803 0
M  V30 1289 O 120.398 -0.752279 -2.41033 0
M  V30 1290 C 121.711 -3.00571 -0.0880041 0
M  V30 1291 C 123.259 -3.12605 -0.157281 0
M  V30 1292 C 123.734 -4.57999 0.0079207 0
M  V30 1293 N 125.225 -4.63176 -0.0475725 0
M  V30 1294 C 125.96 -5.73373 0.0557876 0
M  V30 1295 N 125.456 -6.92473 0.21286 0
M  V30 1296 N 127.249 -5.621 -0.00152098 0
M  V30 1297 H 119.4 -1.87335 1.00098 0
M  V30 1298 H 121.663 -0.86377 0.390646 0
M  V30 1299 H 121.369 -3.40262 0.889629 0
M  V30 1300 H 121.243 -3.67754 -0.838875 0
M  V30 1301 H 123.63 -2.72798 -1.1254 0
M  V30 1302 H 123.711 -2.48053 0.62475 0
M  V30 1303 H 123.355 -4.98496 0.972824 0
M  V30 1304 H 123.285 -5.20586 -0.793556 0
M  V30 1305 H 125.776 -3.7753 -0.167244 0
M  V30 1306 H 126.089 -7.72279 0.283781 0
M  V30 1307 H 124.434 -6.94556 0.248267 0
M  V30 1308 H 127.625 -4.67938 -0.122958 0
M  V30 1309 H 127.798 -6.47948 0.0824844 0
M  V30 1310 N 121.204 0.198386 -1.56346 0
M  V30 1311 C 122.154 1.2499 -1.90687 0
M  V30 1312 C 123.138 1.41158 -0.772217 0
M  V30 1313 O 124.33 1.43584 -1.03502 0
M  V30 1314 C 121.459 2.59542 -2.24706 0
M  V30 1315 C 120.545 2.47181 -3.44619 0
M  V30 1316 N 120.936 2.04495 -4.62618 0
M  V30 1317 C 119.234 2.78082 -3.48692 0
M  V30 1318 C 119.935 2.03945 -5.44776 0
M  V30 1319 N 118.911 2.45323 -4.85095 0
M  V30 1320 H 122.713 0.911149 -2.7942 0
M  V30 1321 H 120.227 0.40684 -1.57221 0
M  V30 1322 H 122.224 3.3549 -2.47491 0
M  V30 1323 H 120.884 2.94244 -1.37298 0
M  V30 1324 H 121.895 1.75256 -4.87345 0
M  V30 1325 H 118.572 3.17002 -2.71691 0
M  V30 1326 H 119.962 1.72872 -6.4928 0
M  V30 1327 N 122.682 1.50554 0.465978 0
M  V30 1328 C 124.098 1.38093 0.800154 0
M  V30 1329 C 124.298 0.440988 1.96615 0
M  V30 1330 O 123.354 -0.114499 2.5224 0
M  V30 1331 C 124.667 2.79565 1.10742 0
M  V30 1332 C 126.215 2.88516 1.21357 0
M  V30 1333 C 126.69 4.30833 1.55393 0
M  V30 1334 N 128.181 4.33807 1.62375 0
M  V30 1335 C 128.916 5.40927 1.90225 0
M  V30 1336 N 128.412 6.58247 2.16062 0
M  V30 1337 N 130.205 5.28376 1.9177 0
M  V30 1338 H 122.356 2.10237 -0.302366 0
M  V30 1339 H 124.619 0.945203 -0.0727746 0
M  V30 1340 H 124.325 3.50208 0.323661 0
M  V30 1341 H 124.199 3.17125 2.04234 0
M  V30 1342 H 126.586 2.1809 1.98799 0
M  V30 1343 H 126.667 2.54492 0.258321 0
M  V30 1344 H 126.311 5.01799 0.784889 0
M  V30 1345 H 126.241 4.62347 2.52076 0
M  V30 1346 H 128.732 3.49212 1.44427 0
M  V30 1347 H 129.045 7.3569 2.36601 0
M  V30 1348 H 127.39 6.61413 2.13444 0
M  V30 1349 H 130.581 4.35715 1.71085 0
M  V30 1350 H 130.754 6.11944 2.13139 0
M  V30 1351 N 124.16 -0.719506 1.40217 0
M  V30 1352 C 125.408 -1.47641 1.3801 0
M  V30 1353 C 125.729 -1.94992 -0.018145 0
M  V30 1354 O 124.999 -1.70073 -0.972207 0
M  V30 1355 H 123.579 -0.547744 0.507923 0
M  V30 1356 H 126.241 -0.853187 1.75233 0
M  V30 1357 H 125.337 -2.35112 2.05253 0
M  V30 1358 N 125.638 -1.25649 -0.95132 0
M  V30 1359 C 126.585 -1.06323 -2.04851 0
M  V30 1360 C 127.555 0.0286491 -1.66075 0
M  V30 1361 O 128.74 -0.12917 -1.90362 0
M  V30 1362 C 125.88 -0.691529 -3.381 0
M  V30 1363 C 124.993 -1.85861 -3.89974 0
M  V30 1364 C 124.128 -1.43096 -5.11563 0
M  V30 1365 C 123.167 -2.56696 -5.55674 0
M  V30 1366 N 122.304 -2.14684 -6.68472 0
M  V30 1367 H 127.144 -2.00222 -2.20715 0
M  V30 1368 H 124.681 -0.997027 -1.08156 0
M  V30 1369 H 126.639 -0.456963 -4.1469 0
M  V30 1370 H 125.269 0.210474 -3.22113 0
M  V30 1371 H 124.321 -2.20639 -3.09875 0
M  V30 1372 H 125.633 -2.71161 -4.18657 0
M  V30 1373 H 124.787 -1.15624 -5.9558 0
M  V30 1374 H 123.526 -0.548722 -4.84603 0
M  V30 1375 H 122.531 -2.84909 -4.7022 0
M  V30 1376 H 123.756 -3.45503 -5.8464 0
M  V30 1377 H 121.702 -1.28881 -6.43215 0
M  V30 1378 H 121.619 -2.9353 -6.96689 0
M  V30 1379 H 122.887 -1.90397 -7.5589 0
M  V30 1380 N 127.117 1.15442 -1.07289 0
M  V30 1381 C 128.345 1.90096 -0.81676 0
M  V30 1382 C 128.76 1.7798 0.629966 0
M  V30 1383 O 128.117 1.1313 1.43206 0
M  V30 1384 C 128.168 3.40466 -1.21512 0
M  V30 1385 O 127.889 3.52232 -2.60508 0
M  V30 1386 C 129.39 4.32145 -0.988198 0
M  V30 1387 H 126.61 0.602495 -0.295366 0
M  V30 1388 H 129.154 1.4627 -1.42918 0
M  V30 1389 H 127.309 3.81958 -0.647039 0
M  V30 1390 H 127.723 4.45549 -2.76742 0
M  V30 1391 H 129.197 5.36072 -1.31645 0
M  V30 1392 H 129.674 4.39135 0.0755063 0
M  V30 1393 H 130.28 3.96395 -1.54115 0
M  V30 1394 N 128.595 0.856903 1.32268 0
M  V30 1395 C 129.525 0.31858 2.31316 0
M  V30 1396 C 130.506 -0.583487 1.59779 0
M  V30 1397 O 131.691 -0.503259 1.87566 0
M  V30 1398 C 128.821 -0.491979 3.43798 0
M  V30 1399 C 127.775 0.315849 4.26833 0
M  V30 1400 C 127.101 -0.619586 5.31098 0
M  V30 1401 C 128.401 1.54282 4.98993 0
M  V30 1402 H 130.095 1.14621 2.76591 0
M  V30 1403 H 127.641 0.552613 1.32974 0
M  V30 1404 H 129.594 -0.879012 4.1213 0
M  V30 1405 H 128.318 -1.35299 2.97257 0
M  V30 1406 H 126.977 0.684664 3.6015 0
M  V30 1407 H 126.625 -1.47751 4.8081 0
M  V30 1408 H 126.325 -0.0830621 5.87541 0
M  V30 1409 H 127.849 -1.00375 6.02293 0
M  V30 1410 H 129.263 1.22796 5.59995 0
M  V30 1411 H 127.66 2.01745 5.65172 0
M  V30 1412 H 128.73 2.30285 4.26728 0
M  V30 1413 N 130.073 -1.45103 0.615059 0
M  V30 1414 C 131.319 -2.02483 0.113347 0
M  V30 1415 C 131.652 -1.48146 -1.25564 0
M  V30 1416 O 130.927 -0.659104 -1.82992 0
M  V30 1417 C 131.21 -3.60005 0.0825278 0
M  V30 1418 C 131.063 -4.2466 1.48271 0
M  V30 1419 C 132.382 -4.35972 -0.601401 0
M  V30 1420 H 129.501 -0.735764 0.0426632 0
M  V30 1421 H 132.143 -1.72868 0.788461 0
M  V30 1422 H 130.293 -3.85367 -0.492378 0
M  V30 1423 H 131.965 -4.10458 2.10527 0
M  V30 1424 H 130.208 -3.82772 2.04127 0
M  V30 1425 H 130.879 -5.336 1.41332 0
M  V30 1426 H 133.355 -4.15947 -0.112666 0
M  V30 1427 H 132.231 -5.45697 -0.592097 0
M  V30 1428 H 132.492 -4.09391 -1.66887 0
M  V30 1429 N 131.551 -0.354651 -1.53558 0
M  V30 1430 C 132.776 0.242153 -2.05981 0
M  V30 1431 C 133.201 1.42553 -1.2272 0
M  V30 1432 O 132.559 1.79656 -0.243604 0
M  V30 1433 C 132.607 0.624367 -3.55154 0
M  V30 1434 O 131.711 1.72301 -3.74681 0
M  V30 1435 H 131.052 0.0378432 -0.662921 0
M  V30 1436 H 133.582 -0.512087 -1.98088 0
M  V30 1437 H 133.592 0.898433 -3.97985 0
M  V30 1438 H 132.267 -0.240989 -4.15201 0
M  V30 1439 H 130.844 1.44535 -3.4375 0
M  V30 1440 N 133.029 1.57378 -0.0835403 0
M  V30 1441 C 134.275 1.94217 0.583733 0
M  V30 1442 C 134.608 0.964653 1.68547 0
M  V30 1443 O 133.883 -0.00422258 1.945 0
M  V30 1444 C 134.166 3.41253 1.14972 0
M  V30 1445 C 134.019 4.49768 0.0538277 0
M  V30 1446 C 135.338 3.89352 2.05166 0
M  V30 1447 H 132.457 0.706233 0.210724 0
M  V30 1448 H 135.099 1.89392 -0.1519 0
M  V30 1449 H 133.249 3.45496 1.77665 0
M  V30 1450 H 134.921 4.57641 -0.579851 0
M  V30 1451 H 133.164 4.29432 -0.614068 0
M  V30 1452 H 133.835 5.49817 0.490452 0
M  V30 1453 H 136.311 3.87189 1.52393 0
M  V30 1454 H 135.187 4.92822 2.41698 0
M  V30 1455 H 135.448 3.27973 2.96456 0
M  V30 1456 N 134.507 -0.190092 1.56449 0
M  V30 1457 C 135.417 -1.25591 1.98152 0
M  V30 1458 C 136.433 -1.49519 0.889944 0
M  V30 1459 O 137.609 -1.62036 1.19609 0
M  V30 1460 C 134.674 -2.57916 2.3169 0
M  V30 1461 C 133.735 -2.42015 3.5458 0
M  V30 1462 C 132.968 -3.6803 3.8651 0
M  V30 1463 O 133.191 -4.72413 3.1966 0
M  V30 1464 O 132.125 -3.6326 4.79923 0
M  V30 1465 H 135.951 -0.931988 2.89046 0
M  V30 1466 H 133.536 -0.395488 1.4407 0
M  V30 1467 H 135.418 -3.36008 2.54316 0
M  V30 1468 H 134.093 -2.89925 1.43963 0
M  V30 1469 H 133 -1.62017 3.37196 0
M  V30 1470 H 134.333 -2.14937 4.4279 0
M  V30 1471 N 135.985 -1.50799 -0.457987 0
M  V30 1472 C 136.948 -1.7005 -1.53674 0
M  V30 1473 C 137.948 -0.570881 -1.50325 0
M  V30 1474 O 139.138 -0.838126 -1.52712 0
M  V30 1475 C 136.27 -1.73788 -2.93276 0
M  V30 1476 H 137.463 -2.66306 -1.37917 0
M  V30 1477 H 135.016 -1.40477 -0.685271 0
M  V30 1478 H 135.751 -0.792717 -3.14462 0
M  V30 1479 H 135.536 -2.55864 -2.97113 0
M  V30 1480 H 137.026 -1.90591 -3.71571 0
M  V30 1481 N 137.463 0.71206 -1.40597 0
M  V30 1482 C 138.711 1.46907 -1.38791 0
M  V30 1483 C 139.032 1.94998 0.00780391 0
M  V30 1484 O 138.302 1.70587 0.963174 0
M  V30 1485 H 136.882 0.545043 -0.51082 0
M  V30 1486 H 139.544 0.843882 -1.75683 0
M  V30 1487 H 138.64 2.34021 -2.06496 0
M  V30 1488 N 138.941 1.26152 0.944643 0
M  V30 1489 C 139.889 1.07215 2.06417 0
M  V30 1490 C 140.883 9.2007e-05 1.694 0
M  V30 1491 O 142.089 0.1565 1.79318 0
M  V30 1492 H 138.464 0.329837 0.675805 0
M  V30 1493 H 140.435 2.02099 2.19541 0
M  V30 1494 C 139.184 0.718197 3.40202 0
M  V30 1495 H 138.507 1.53497 3.69159 0
M  V30 1496 H 139.947 0.625459 4.19361 0
M  V30 1497 C 138.406 -0.576435 3.31932 0
M  V30 1498 O 138.936 -1.61574 3.67773 0
M  V30 1499 N 137.142 -0.565781 2.85039 0
M  V30 1500 H 136.689 0.280367 2.5607 0
M  V30 1501 H 136.647 -1.43213 2.79888 0
M  V30 1502 N 140.419 -1.14872 1.07899 0
M  V30 1503 C 141.382 -2.17986 0.708161 0
M  V30 1504 C 142.382 -1.58775 -0.25442 0
M  V30 1505 O 143.572 -1.74166 -0.034645 0
M  V30 1506 C 140.704 -3.40871 0.0446929 0
M  V30 1507 H 141.897 -2.52306 1.62116 0
M  V30 1508 H 139.45 -1.2943 0.876218 0
M  V30 1509 H 140.185 -3.12124 -0.880281 0
M  V30 1510 H 139.97 -3.8511 0.737091 0
M  V30 1511 H 141.46 -4.17121 -0.19991 0
M  V30 1512 N 141.898 -0.863906 -1.31812 0
M  V30 1513 C 142.845 -0.313303 -2.28664 0
M  V30 1514 C 143.815 0.584868 -1.55462 0
M  V30 1515 O 145 0.517805 -1.83639 0
M  V30 1516 C 142.14 0.48441 -3.41683 0
M  V30 1517 C 141.253 -0.440594 -4.29747 0
M  V30 1518 C 140.388 0.370652 -5.29905 0
M  V30 1519 C 139.427 -0.551164 -6.09613 0
M  V30 1520 N 138.564 0.223462 -7.01744 0
M  V30 1521 H 143.404 -1.14444 -2.75148 0
M  V30 1522 H 140.941 -0.575769 -1.35364 0
M  V30 1523 H 142.899 0.962627 -4.05943 0
M  V30 1524 H 141.529 1.28029 -2.96325 0
M  V30 1525 H 140.581 -1.03724 -3.65986 0
M  V30 1526 H 141.893 -1.14767 -4.85417 0
M  V30 1527 H 141.047 0.911638 -5.99812 0
M  V30 1528 H 139.786 1.11105 -4.74876 0
M  V30 1529 H 138.791 -1.10396 -5.38603 0
M  V30 1530 H 140.016 -1.29032 -6.66729 0
M  V30 1531 H 137.962 0.946787 -6.49132 0
M  V30 1532 H 137.879 -0.424399 -7.54808 0
M  V30 1533 H 139.147 0.745876 -7.75923 0
M  V30 1534 N 143.376 1.44774 -0.622745 0
M  V30 1535 C 144.624 2.01721 -0.123655 0
M  V30 1536 C 144.945 1.49172 1.25589 0
M  V30 1537 O 144.215 0.691974 1.83272 0
M  V30 1538 H 142.795 0.745777 -0.0427225 0
M  V30 1539 H 145.457 1.77382 -0.807559 0
M  V30 1540 H 144.553 3.11984 -0.0849534 0
M  V30 1541 N 144.854 0.36279 1.53368 0
M  V30 1542 C 146.101 -0.227776 2.01215 0
M  V30 1543 C 146.429 -1.49003 1.25014 0
M  V30 1544 O 145.684 -1.92876 0.331236 0
M  V30 1545 C 145.983 -0.568417 3.52851 0
M  V30 1546 C 145.649 0.59918 4.46901 0
M  V30 1547 C 144.311 0.919559 4.72332 0
M  V30 1548 C 146.663 1.38156 5.02556 0
M  V30 1549 C 143.991 2.02434 5.5067 0
M  V30 1550 C 146.343 2.47674 5.821 0
M  V30 1551 C 145.007 2.8025 6.05819 0
M  V30 1552 H 144.277 -0.083349 0.736297 0
M  V30 1553 H 146.924 0.494677 1.85001 0
M  V30 1554 H 145.229 -1.37185 3.66998 0
M  V30 1555 H 146.926 -1.03756 3.87344 0
M  V30 1556 H 143.516 0.339437 4.27254 0
M  V30 1557 H 147.7 1.14729 4.82857 0
M  V30 1558 H 142.956 2.28075 5.67267 0
M  V30 1559 H 147.13 3.08716 6.24234 0
M  V30 1560 H 144.757 3.65979 6.66306 0
M  V30 1561 N 146.332 -1.57332 0.0918853 0
M  V30 1562 C 147.578 -1.94524 -0.573425 0
M  V30 1563 C 147.911 -0.973578 -1.68033 0
M  V30 1564 O 147.186 -0.00609226 -1.94499 0
M  V30 1565 C 147.469 -3.41858 -1.13161 0
M  V30 1566 C 147.322 -4.4979 -0.0299747 0
M  V30 1567 C 148.641 -3.90435 -2.03098 0
M  V30 1568 H 145.76 -0.70734 -0.206975 0
M  V30 1569 H 148.402 -1.89309 0.161942 0
M  V30 1570 H 146.552 -3.46433 -1.7583 0
M  V30 1571 H 148.224 -4.57327 0.604112 0
M  V30 1572 H 146.467 -4.291 0.636833 0
M  V30 1573 H 147.138 -5.50069 -0.461287 0
M  V30 1574 H 149.614 -3.87992 -1.50338 0
M  V30 1575 H 148.49 -4.94097 -2.39081 0
M  V30 1576 H 148.751 -3.29541 -2.94712 0
M  V30 1577 N 147.81 0.181792 -1.56548 0
M  V30 1578 C 149.05 0.906711 -1.83189 0
M  V30 1579 C 149.414 1.79882 -0.671312 0
M  V30 1580 O 150.615 2.56054 -0.81792 0
M  V30 1581 C 148.886 1.69023 -3.14906 0
M  V30 1582 S 150.445 2.46535 -3.62996 0
M  V30 1583 H 147.263 0.303877 -0.642791 0
M  V30 1584 H 149.865 0.169107 -1.94767 0
M  V30 1585 H 148.569 1.02571 -3.97376 0
M  V30 1586 H 148.1 2.46941 -3.06241 0
M  V30 1587 H 150.115 3.71014 -3.29489 0
M  V30 1588 N 149.288 1.51039 0.449983 0
M  V30 1589 C 150.513 1.6715 1.22783 0
M  V30 1590 C 150.938 0.363081 1.84563 0
M  V30 1591 O 150.296 -0.675433 1.68249 0
M  V30 1592 C 150.344 2.77985 2.29689 0
M  V30 1593 O 149.448 2.40707 3.34864 0
M  V30 1594 H 148.789 0.557746 0.360299 0
M  V30 1595 H 151.319 1.97535 0.533005 0
M  V30 1596 H 151.329 3.01693 2.74673 0
M  V30 1597 H 150.004 3.72935 1.84098 0
M  V30 1598 H 148.581 2.27523 2.95445 0
M  V30 1599 N 150.766 -0.704594 1.40972 0
M  V30 1600 C 151.996 -1.49138 1.42974 0
M  V30 1601 C 152.404 -1.89175 0.0308406 0
M  V30 1602 O 151.747 -1.56734 -0.958138 0
M  V30 1603 C 151.809 -2.79016 2.26694 0
M  V30 1604 C 151.473 -2.61236 3.74973 0
M  V30 1605 C 152.47 -2.27773 4.67349 0
M  V30 1606 C 150.155 -2.77158 4.18914 0
M  V30 1607 C 152.149 -2.10457 6.01653 0
M  V30 1608 C 149.836 -2.59459 5.53285 0
M  V30 1609 C 150.834 -2.26158 6.4447 0
M  V30 1610 O 150.522 -2.08605 7.76363 0
M  V30 1611 H 150.254 -0.466443 0.489292 0
M  V30 1612 H 152.808 -0.8758 1.85793 0
M  V30 1613 H 151.038 -3.42947 1.78673 0
M  V30 1614 H 152.727 -3.40782 2.20504 0
M  V30 1615 H 153.493 -2.15095 4.34694 0
M  V30 1616 H 149.372 -3.02064 3.48251 0
M  V30 1617 H 152.916 -1.84387 6.72791 0
M  V30 1618 H 148.813 -2.71725 5.85522 0
M  V30 1619 H 149.581 -2.23439 7.87412 0
M  V30 1620 N 152.244 -1.26651 -0.937939 0
M  V30 1621 C 153.194 -1.05156 -2.02302 0
M  V30 1622 C 154.178 0.0171233 -1.60891 0
M  V30 1623 O 155.37 -0.200213 -1.75864 0
M  V30 1624 C 152.499 -0.689962 -3.36295 0
M  V30 1625 C 151.585 -1.79626 -3.84181 0
M  V30 1626 N 151.976 -3.03422 -4.04684 0
M  V30 1627 C 150.274 -1.6806 -4.13124 0
M  V30 1628 C 150.975 -3.75345 -4.444 0
M  V30 1629 N 149.951 -3.03051 -4.51288 0
M  V30 1630 H 153.753 -1.99117 -2.1617 0
M  V30 1631 H 151.267 -1.17216 -1.12402 0
M  V30 1632 H 153.264 -0.517112 -4.13681 0
M  V30 1633 H 151.924 0.242139 -3.23796 0
M  V30 1634 H 152.935 -3.39293 -3.91281 0
M  V30 1635 H 149.612 -0.818629 -4.09396 0
M  V30 1636 H 151.002 -4.81691 -4.68427 0
M  V30 1637 N 153.722 1.14298 -1.08507 0
M  V30 1638 C 154.97 1.84993 -0.813763 0
M  V30 1639 C 155.291 1.83405 0.662393 0
M  V30 1640 O 154.561 1.28319 1.48024 0
M  V30 1641 H 153.141 0.684966 -0.298045 0
M  V30 1642 H 155.803 1.385 -1.37126 0
M  V30 1643 H 154.899 2.89788 -1.15884 0
M  V30 1644 N 155.201 0.870884 1.31352 0
M  V30 1645 C 156.447 0.492314 1.97352 0
M  V30 1646 C 156.802 -0.945174 1.67583 0
M  V30 1647 O 156.095 -1.65674 0.962423 0
M  V30 1648 C 156.289 0.687157 3.50732 0
M  V30 1649 C 156.118 2.14203 3.95407 0
M  V30 1650 C 154.888 2.78382 4.21701 0
M  V30 1651 C 157.086 3.1144 4.09279 0
M  V30 1652 N 155.068 4.14611 4.52737 0
M  V30 1653 C 156.439 4.32702 4.44037 0
M  V30 1654 C 158.494 3.07418 3.91661 0
M  V30 1655 C 157.197 5.50463 4.63015 0
M  V30 1656 C 159.223 4.24438 4.11833 0
M  V30 1657 C 158.585 5.44463 4.46923 0
M  V30 1658 H 154.684 0.229206 0.747655 0
M  V30 1659 H 157.268 1.12568 1.5886 0
M  V30 1660 H 155.439 0.083384 3.8831 0
M  V30 1661 H 157.171 0.276883 4.03752 0
M  V30 1662 H 153.926 2.29326 4.14375 0
M  V30 1663 H 154.35 4.84928 4.72413 0
M  V30 1664 H 158.992 2.15732 3.6362 0
M  V30 1665 H 156.71 6.42666 4.89904 0
M  V30 1666 H 160.296 4.2278 3.99685 0
M  V30 1667 H 159.176 6.33504 4.62214 0
M  V30 1668 N 156.679 -1.44442 0.630414 0
M  V30 1669 C 157.927 -2.01653 0.134351 0
M  V30 1670 C 158.248 -1.49836 -1.24796 0
M  V30 1671 O 157.518 -0.701684 -1.82902 0
M  V30 1672 H 156.098 -0.74554 0.0466769 0
M  V30 1673 H 158.76 -1.76952 0.816955 0
M  V30 1674 H 157.856 -3.11935 0.101498 0
M  V30 1675 N 158.157 -0.370918 -1.53173 0
M  V30 1676 C 159.404 0.217102 -2.01333 0
M  V30 1677 C 159.732 1.48338 -1.25802 0
M  V30 1678 O 158.987 1.92698 -0.34146 0
M  V30 1679 C 159.286 0.549696 -3.53147 0
M  V30 1680 C 158.952 -0.622872 -4.46577 0
M  V30 1681 C 157.614 -0.944595 -4.71838 0
M  V30 1682 C 159.966 -1.40819 -5.01816 0
M  V30 1683 C 157.294 -2.05351 -5.49589 0
M  V30 1684 C 159.646 -2.50757 -5.80778 0
M  V30 1685 C 158.31 -2.83458 -6.04324 0
M  V30 1686 H 157.58 0.0794431 -0.736729 0
M  V30 1687 H 160.227 -0.504481 -1.84736 0
M  V30 1688 H 158.532 1.35237 -3.6772 0
M  V30 1689 H 160.229 1.017 -3.87889 0
M  V30 1690 H 156.819 -0.36209 -4.27068 0
M  V30 1691 H 161.003 -1.17289 -4.82242 0
M  V30 1692 H 156.259 -2.3108 -5.6605 0
M  V30 1693 H 160.433 -3.12022 -6.22588 0
M  V30 1694 H 158.06 -3.69508 -6.64355 0
M  V30 1695 N 159.635 1.57281 -0.100228 0
M  V30 1696 C 160.883 1.94153 0.561157 0
M  V30 1697 C 161.204 0.983157 1.68401 0
M  V30 1698 O 160.474 0.0361132 1.95867 0
M  V30 1699 H 159.054 0.716791 0.210283 0
M  V30 1700 H 161.716 1.94202 -0.164765 0
M  V30 1701 H 160.812 2.96709 0.968008 0
M  V30 1702 N 161.113 -0.173488 1.56642 0
M  V30 1703 C 162.338 -0.910149 1.86363 0
M  V30 1704 C 162.763 -1.75132 0.686318 0
M  V30 1705 O 162.121 -1.77595 -0.364643 0
M  V30 1706 C 162.169 -1.76447 3.14482 0
M  V30 1707 O 161.273 -2.86584 2.96553 0
M  V30 1708 H 160.614 -0.255086 0.613047 0
M  V30 1709 H 163.144 -0.172283 2.03873 0
M  V30 1710 H 163.154 -2.16483 3.45831 0
M  V30 1711 H 161.829 -1.14658 3.99783 0
M  V30 1712 H 160.406 -2.50146 2.76553 0
M  V30 1713 N 162.591 -1.51276 -0.441967 0
M  V30 1714 C 163.539 -1.72823 -1.55676 0
M  V30 1715 C 164.533 -0.59445 -1.58627 0
M  V30 1716 O 165.739 -0.775715 -1.62427 0
M  V30 1717 H 162.114 -0.545983 -0.517113 0
M  V30 1718 H 164.085 -2.6628 -1.34675 0
M  V30 1719 C 162.834 -1.86619 -2.93375 0
M  V30 1720 H 162.157 -2.73264 -2.91834 0
M  V30 1721 H 163.597 -2.05709 -3.70756 0
M  V30 1722 C 162.056 -0.624842 -3.31055 0
M  V30 1723 O 162.586 0.222636 -4.01083 0
M  V30 1724 N 160.792 -0.470288 -2.86769 0
M  V30 1725 H 160.339 -1.161 -2.29953 0
M  V30 1726 H 160.297 0.359051 -3.12343 0
M  V30 1727 N 164.069 0.697108 -1.41344 0
M  V30 1728 C 165.317 1.45426 -1.40341 0
M  V30 1729 C 165.638 1.94996 -0.0128787 0
M  V30 1730 O 164.908 1.71599 0.945027 0
M  V30 1731 H 163.488 0.539594 -0.516573 0
M  V30 1732 H 166.15 0.825201 -1.76569 0
M  V30 1733 H 165.246 2.31817 -2.08967 0
M  V30 1734 N 165.547 1.27147 0.931209 0
M  V30 1735 C 166.457 1.11372 2.06478 0
M  V30 1736 C 167.473 0.044645 1.73943 0
M  V30 1737 O 168.649 0.250417 1.99837 0
M  V30 1738 C 165.714 0.758838 3.38294 0
M  V30 1739 C 164.775 1.90841 3.84549 0
M  V30 1740 C 164.008 1.57036 5.10074 0
M  V30 1741 O 164.231 0.476645 5.68405 0
M  V30 1742 O 163.165 2.40839 5.51616 0
M  V30 1743 H 166.991 2.06493 2.22698 0
M  V30 1744 H 164.576 1.06301 1.04978 0
M  V30 1745 H 166.458 0.574098 4.17471 0
M  V30 1746 H 165.133 -0.162879 3.2329 0
M  V30 1747 H 164.04 2.14819 3.06274 0
M  V30 1748 H 165.373 2.81021 4.04089 0
M  V30 1749 N 167.025 -1.13721 1.09112 0
M  V30 1750 C 167.955 -2.21148 0.749385 0
M  V30 1751 C 168.936 -1.6792 -0.271475 0
M  V30 1752 O 170.121 -1.93693 -0.140251 0
M  V30 1753 C 167.251 -3.46905 0.165659 0
M  V30 1754 C 166.205 -4.13203 1.11567 0
M  V30 1755 C 165.531 -5.33248 0.393809 0
M  V30 1756 C 166.831 -4.60912 2.45678 0
M  V30 1757 H 168.525 -2.4999 1.64758 0
M  V30 1758 H 166.071 -1.20156 0.793626 0
M  V30 1759 H 168.024 -4.21313 -0.085466 0
M  V30 1760 H 166.748 -3.17449 -0.767714 0
M  V30 1761 H 165.407 -3.40758 1.35202 0
M  V30 1762 H 165.055 -5.00054 -0.543599 0
M  V30 1763 H 164.755 -5.78552 1.02721 0
M  V30 1764 H 166.279 -6.10413 0.150908 0
M  V30 1765 H 167.693 -5.26759 2.26269 0
M  V30 1766 H 166.09 -5.16944 3.04776 0
M  V30 1767 H 167.16 -3.75603 3.06677 0
M  V30 1768 N 168.503 -0.877838 -1.30888 0
M  V30 1769 C 169.435 -0.296607 -2.27273 0
M  V30 1770 C 170.448 0.544799 -1.53414 0
M  V30 1771 O 171.637 0.365511 -1.74718 0
M  V30 1772 C 168.737 0.597481 -3.33592 0
M  V30 1773 C 167.91 -0.213251 -4.3688 0
M  V30 1774 C 166.969 0.610208 -5.2265 0
M  V30 1775 O 165.995 0.035441 -5.69189 0
M  V30 1776 N 167.197 1.92071 -5.47804 0
M  V30 1777 H 169.962 -1.12492 -2.77787 0
M  V30 1778 H 167.523 -0.740105 -1.43993 0
M  V30 1779 H 169.515 1.15425 -3.87891 0
M  V30 1780 H 168.085 1.32647 -2.83061 0
M  V30 1781 H 167.305 -0.951466 -3.82545 0
M  V30 1782 H 168.593 -0.769262 -5.02951 0
M  V30 1783 H 167.991 2.4107 -5.11763 0
M  V30 1784 H 166.548 2.42508 -6.05007 0
M  V30 1785 N 169.982 1.44106 -0.638065 0
M  V30 1786 C 171.207 2.0685 -0.150916 0
M  V30 1787 C 171.632 1.47417 1.16833 0
M  V30 1788 O 170.99 0.578264 1.71831 0
M  V30 1789 C 171.038 3.60555 -0.05708 0
M  V30 1790 O 170.142 4.00465 0.984972 0
M  V30 1791 H 169.483 0.658151 -0.0879399 0
M  V30 1792 H 172.013 1.84865 -0.876707 0
M  V30 1793 H 172.023 4.07789 0.131232 0
M  V30 1794 H 170.698 4.03193 -1.02021 0
M  V30 1795 H 169.275 3.64849 0.770672 0
M  V30 1796 N 171.46 0.379036 1.52974 0
M  V30 1797 C 172.706 -0.206727 2.01744 0
M  V30 1798 C 173.039 -1.47314 1.26539 0
M  V30 1799 O 172.314 -1.91084 0.362903 0
M  V30 1800 C 172.597 -0.485066 3.56818 0
M  V30 1801 C 172.45 0.795919 4.42702 0
M  V30 1802 C 173.769 -1.28003 4.21074 0
M  V30 1803 H 170.888 -0.0736607 0.73331 0
M  V30 1804 H 173.53 0.506581 1.83122 0
M  V30 1805 H 171.68 -1.09272 3.72816 0
M  V30 1806 H 173.352 1.43307 4.38476 0
M  V30 1807 H 171.595 1.41344 4.10127 0
M  V30 1808 H 172.266 0.555947 5.49193 0
M  V30 1809 H 174.742 -0.765867 4.08991 0
M  V30 1810 H 173.618 -1.44352 5.29579 0
M  V30 1811 H 173.879 -2.29236 3.78026 0
M  V30 1812 N 172.938 -1.57226 0.108567 0
M  V30 1813 C 174.349 -1.8195 -0.418464 0
M  V30 1814 C 174.7 -1.02508 -1.67292 0
M  V30 1815 O 173.825 -0.258496 -2.14851 0
M  V30 1816 C 174.42 -3.30028 -0.765979 0
M  V30 1817 C 172.979 -3.55469 -1.23769 0
M  V30 1818 C 172.126 -2.7625 -0.241106 0
M  V30 1819 H 175.077 -1.55149 0.33384 0
M  V30 1820 H 175.098 -3.44086 -1.62434 0
M  V30 1821 H 174.61 -3.87821 0.147219 0
M  V30 1822 H 172.711 -3.03022 -2.16814 0
M  V30 1823 H 172.824 -4.6408 -1.19022 0
M  V30 1824 H 171.188 -2.44133 -0.72602 0
M  V30 1825 H 171.971 -3.36797 0.665007 0
M  V30 1826 N 174.416 0.165178 -1.56732 0
M  V30 1827 C 175.663 0.880807 -1.8234 0
M  V30 1828 C 175.991 1.81977 -0.686621 0
M  V30 1829 O 175.246 1.92971 0.325697 0
M  V30 1830 C 175.545 1.70405 -3.1416 0
M  V30 1831 C 175.211 0.913475 -4.4155 0
M  V30 1832 C 173.873 0.695303 -4.7615 0
M  V30 1833 C 176.225 0.359349 -5.1996 0
M  V30 1834 C 173.553 -0.0879947 -5.86634 0
M  V30 1835 C 175.905 -0.410893 -6.31264 0
M  V30 1836 C 174.569 -0.639808 -6.64427 0
M  V30 1837 H 173.839 0.32231 -0.667231 0
M  V30 1838 H 176.486 0.145402 -1.90947 0
M  V30 1839 H 174.791 2.50903 -3.00923 0
M  V30 1840 H 176.488 2.26091 -3.31186 0
M  V30 1841 H 173.078 1.09357 -4.14414 0
M  V30 1842 H 177.262 0.515228 -4.93618 0
M  V30 1843 H 172.518 -0.27503 -6.10781 0
M  V30 1844 H 176.692 -0.847494 -6.91224 0
M  V30 1845 H 174.319 -1.24864 -7.49875 0
M  V30 1846 N 175.894 1.51508 0.433938 0
M  V30 1847 C 176.804 1.75917 1.5521 0
M  V30 1848 C 177.82 0.643545 1.61662 0
M  V30 1849 O 178.996 0.926183 1.7884 0
M  V30 1850 C 176.061 1.88213 2.91164 0
M  V30 1851 C 175.122 3.12074 2.94802 0
M  V30 1852 C 174.355 3.23774 4.24271 0
M  V30 1853 O 174.578 2.4133 5.16833 0
M  V30 1854 O 173.512 4.16774 4.34262 0
M  V30 1855 H 177.338 2.70777 1.37527 0
M  V30 1856 H 174.923 1.36051 0.617293 0
M  V30 1857 H 176.805 1.98267 3.71845 0
M  V30 1858 H 175.48 0.965413 3.08968 0
M  V30 1859 H 174.387 3.07497 2.13065 0
M  V30 1860 H 175.72 4.03446 2.81943 0
M  V30 1861 N 177.372 -0.689602 1.41712 0
M  V30 1862 C 178.319 -1.80345 1.44029 0
M  V30 1863 C 179.289 -1.63478 0.293948 0
M  V30 1864 O 180.474 -1.84244 0.495869 0
M  V30 1865 C 177.614 -3.18272 1.33405 0
M  V30 1866 C 176.727 -3.46529 2.57956 0
M  V30 1867 C 175.862 -4.74103 2.39582 0
M  V30 1868 C 174.901 -4.95347 3.5958 0
M  V30 1869 N 174.038 -6.14151 3.40239 0
M  V30 1870 H 178.878 -1.77698 2.39222 0
M  V30 1871 H 176.415 -0.867688 1.18784 0
M  V30 1872 H 178.373 -3.97956 1.25246 0
M  V30 1873 H 177.003 -3.2008 0.418164 0
M  V30 1874 H 176.055 -2.61207 2.76542 0
M  V30 1875 H 177.367 -3.58126 3.47199 0
M  V30 1876 H 176.521 -5.61853 2.28924 0
M  V30 1877 H 175.26 -4.64763 1.47805 0
M  V30 1878 H 174.265 -4.06044 3.70686 0
M  V30 1879 H 175.49 -5.06542 4.52318 0
M  V30 1880 H 173.436 -6.06013 2.51167 0
M  V30 1881 H 173.353 -6.26543 4.23061 0
M  V30 1882 H 174.621 -7.04619 3.33365 0
M  V30 1883 N 178.85 -1.27639 -0.924453 0
M  V30 1884 C 180.127 -1.04887 -1.651 0
M  V30 1885 C 180.507 0.415327 -2.06974 0
M  V30 1886 O 179.855 1.39923 -1.80648 0
M  V30 1887 C 180.065 -2.01348 -2.85061 0
M  V30 1888 C 181.413 -2.30899 -3.56329 0
M  V30 1889 O 182.437 -1.99348 -2.95193 0
M  V30 1890 O 181.296 -2.84699 -4.66485 0
M  V30 1891 H 178.39 -0.400083 -0.723784 0
M  V30 1892 H 180.936 -1.38916 -0.974703 0
M  V30 1893 H 179.708 -3.0008 -2.51133 0
M  V30 1894 H 179.331 -1.679 -3.6041 0
M  V30 1895 N 180.328 1.1314 -1.09713 0
M  V30 1896 C 181.258 2.20748 -0.761102 0
M  V30 1897 C 182.239 1.68061 0.262566 0
M  V30 1898 O 183.424 1.93765 0.129977 0
M  V30 1899 C 180.554 3.46812 -0.184054 0
M  V30 1900 C 179.508 4.12606 -1.13757 0
M  V30 1901 C 178.834 5.33031 -0.422083 0
M  V30 1902 C 180.134 4.59603 -2.48118 0
M  V30 1903 H 181.828 2.49113 -1.66082 0
M  V30 1904 H 179.374 1.19734 -0.799987 0
M  V30 1905 H 181.327 4.21353 0.0631215 0
M  V30 1906 H 180.051 3.17851 0.750868 0
M  V30 1907 H 178.71 3.40036 -1.37007 0
M  V30 1908 H 178.358 5.00335 0.517072 0
M  V30 1909 H 178.058 5.77999 -1.05788 0
M  V30 1910 H 179.582 6.10325 -0.183277 0
M  V30 1911 H 180.996 5.25552 -2.29059 0
M  V30 1912 H 179.393 5.15321 -3.07514 0
M  V30 1913 H 180.463 3.73971 -3.08665 0
M  V30 1914 N 181.806 0.884767 1.30421 0
M  V30 1915 C 183.036 0.517293 2.00019 0
M  V30 1916 C 183.444 -0.898632 1.66497 0
M  V30 1917 O 182.787 -1.60245 0.898181 0
M  V30 1918 C 182.849 0.612025 3.54252 0
M  V30 1919 C 182.513 1.99222 4.1129 0
M  V30 1920 C 183.51 2.9616 4.273 0
M  V30 1921 C 181.195 2.29755 4.46674 0
M  V30 1922 C 183.189 4.21764 4.77906 0
M  V30 1923 C 180.876 3.55606 4.96979 0
M  V30 1924 C 181.874 4.51425 5.12547 0
M  V30 1925 O 181.562 5.75043 5.61766 0
M  V30 1926 H 181.294 0.198529 0.64619 0
M  V30 1927 H 183.848 1.1919 1.67281 0
M  V30 1928 H 182.078 -0.119561 3.86515 0
M  V30 1929 H 183.767 0.255859 4.05093 0
M  V30 1930 H 184.533 2.73882 4.00267 0
M  V30 1931 H 180.412 1.55942 4.33824 0
M  V30 1932 H 183.956 4.96561 4.89972 0
M  V30 1933 H 179.853 3.7772 5.23448 0
M  V30 1934 H 180.621 5.77422 5.80109 0
M  V30 1935 N 183.284 -1.43765 0.645699 0
M  V30 1936 C 184.532 -2.01499 0.155731 0
M  V30 1937 C 184.853 -1.51151 -1.232 0
M  V30 1938 O 184.123 -0.721044 -1.82148 0
M  V30 1939 H 182.703 -0.745003 0.0545817 0
M  V30 1940 H 185.365 -1.76075 0.835677 0
M  V30 1941 H 184.461 -3.1181 0.134577 0
M  V30 1942 N 184.763 -0.387143 -1.52771 0
M  V30 1943 C 185.673 0.456442 -2.30117 0
M  V30 1944 C 186.689 1.07342 -1.36944 0
M  V30 1945 O 187.865 1.07971 -1.70013 0
M  V30 1946 C 184.93 1.56957 -3.09136 0
M  V30 1947 C 183.991 0.977916 -4.18014 0
M  V30 1948 C 183.224 2.038 -4.93256 0
M  V30 1949 O 183.447 3.25271 -4.68567 0
M  V30 1950 O 182.381 1.6565 -5.78657 0
M  V30 1951 H 186.207 -0.17359 -3.03203 0
M  V30 1952 H 183.792 -0.150919 -1.48636 0
M  V30 1953 H 185.674 2.21628 -3.58412 0
M  V30 1954 H 184.349 2.18461 -2.38865 0
M  V30 1955 H 183.256 0.294525 -3.72939 0
M  V30 1956 H 184.589 0.407128 -4.90513 0
M  V30 1957 N 186.241 1.57166 -0.116904 0
M  V30 1958 C 187.466 1.999 0.55271 0
M  V30 1959 C 187.891 0.996039 1.59564 0
M  V30 1960 O 187.249 -0.032556 1.81271 0
M  V30 1961 C 187.297 3.4152 1.15742 0
M  V30 1962 O 186.401 3.44106 2.27299 0
M  V30 1963 H 185.742 0.649447 0.138258 0
M  V30 1964 H 188.272 2.03573 -0.204759 0
M  V30 1965 H 188.282 3.79684 1.49346 0
M  V30 1966 H 186.957 4.14034 0.393493 0
M  V30 1967 H 185.534 3.17759 1.9515 0
M  V30 1968 N 187.719 -0.156864 1.56817 0
M  V30 1969 C 188.649 -1.19589 2.00551 0
M  V30 1970 C 189.63 -1.4536 0.883426 0
M  V30 1971 O 190.815 -1.56449 1.15054 0
M  V30 1972 C 187.945 -2.53143 2.37773 0
M  V30 1973 C 186.899 -2.41913 3.53075 0
M  V30 1974 C 186.225 -3.80088 3.76081 0
M  V30 1975 C 187.525 -1.91157 4.86062 0
M  V30 1976 H 189.219 -0.832293 2.87599 0
M  V30 1977 H 186.765 -0.398918 1.38364 0
M  V30 1978 H 188.718 -3.26047 2.66967 0
M  V30 1979 H 187.442 -2.91319 1.4765 0
M  V30 1980 H 186.101 -1.71462 3.24031 0
M  V30 1981 H 185.749 -4.15683 2.83225 0
M  V30 1982 H 185.449 -3.73439 4.53671 0
M  V30 1983 H 186.973 -4.54556 4.0769 0
M  V30 1984 H 188.387 -2.53846 5.14038 0
M  V30 1985 H 186.784 -1.95422 5.67389 0
M  V30 1986 H 187.854 -0.866673 4.77092 0
M  V30 1987 N 189.197 -1.51736 -0.425897 0
M  V30 1988 C 190.145 -1.74464 -1.53834 0
M  V30 1989 C 191.139 -0.611241 -1.57988 0
M  V30 1990 O 192.345 -0.792899 -1.61596 0
M  V30 1991 H 188.72 -0.551437 -0.511293 0
M  V30 1992 H 190.691 -2.67694 -1.31843 0
M  V30 1993 C 189.44 -1.8972 -2.91379 0
M  V30 1994 H 188.763 -2.76344 -2.88919 0
M  V30 1995 H 190.203 -2.09629 -3.68553 0
M  V30 1996 C 188.662 -0.65992 -3.30374 0
M  V30 1997 O 189.192 0.180083 -4.01296 0
M  V30 1998 N 187.398 -0.500677 -2.86254 0
M  V30 1999 H 186.945 -1.18532 -2.28709 0
M  V30 2000 H 186.903 0.325903 -3.12706 0
M  V30 2001 N 190.675 0.682077 -1.42076 0
M  V30 2002 C 191.622 1.79578 -1.44984 0
M  V30 2003 C 192.592 1.6332 -0.302614 0
M  V30 2004 O 193.777 1.83978 -0.505633 0
M  V30 2005 C 190.917 3.1756 -1.35091 0
M  V30 2006 C 190.03 3.45156 -2.59791 0
M  V30 2007 C 189.165 4.72826 -2.42093 0
M  V30 2008 C 188.204 4.93433 -3.62202 0
M  V30 2009 N 187.341 6.12338 -3.43491 0
M  V30 2010 H 192.181 1.76427 -2.40161 0
M  V30 2011 H 189.718 0.861376 -1.19242 0
M  V30 2012 H 191.676 3.97287 -1.27354 0
M  V30 2013 H 190.306 3.19854 -0.435133 0
M  V30 2014 H 189.358 2.59736 -2.77923 0
M  V30 2015 H 190.67 3.5628 -3.49094 0
M  V30 2016 H 189.824 5.60631 -2.319 0
M  V30 2017 H 188.563 4.63973 -1.50268 0
M  V30 2018 H 187.568 4.04073 -3.72834 0
M  V30 2019 H 188.793 5.04136 -4.54998 0
M  V30 2020 H 186.739 6.04672 -2.54377 0
M  V30 2021 H 186.656 6.2429 -4.26377 0
M  V30 2022 H 187.924 7.02841 -3.37097 0
M  V30 2023 N 192.153 1.28127 0.917671 0
M  V30 2024 C 193.1 1.11717 2.0196 0
M  V30 2025 C 194.07 0.0153929 1.66093 0
M  V30 2026 O 195.255 0.179596 1.89953 0
M  V30 2027 C 192.395 0.780927 3.36148 0
M  V30 2028 C 191.508 1.96135 3.84909 0
M  V30 2029 C 190.643 1.56609 5.0759 0
M  V30 2030 C 189.682 2.71339 5.48673 0
M  V30 2031 N 188.819 2.32332 6.62545 0
M  V30 2032 H 193.659 2.06003 2.15329 0
M  V30 2033 H 191.196 1.02535 1.05475 0
M  V30 2034 H 193.154 0.56675 4.13333 0
M  V30 2035 H 191.784 -0.124998 3.22558 0
M  V30 2036 H 190.836 2.28777 3.03916 0
M  V30 2037 H 192.148 2.82165 4.1132 0
M  V30 2038 H 191.302 1.31374 5.92305 0
M  V30 2039 H 190.041 0.677014 4.82978 0
M  V30 2040 H 189.046 2.97276 4.62501 0
M  V30 2041 H 190.271 3.60882 5.75274 0
M  V30 2042 H 188.217 1.45889 6.39572 0
M  V30 2043 H 188.134 3.11899 6.88662 0
M  V30 2044 H 189.402 2.10371 7.50576 0
M  V30 2045 N 193.631 -1.12557 1.10312 0
M  V30 2046 C 194.871 -1.8568 0.854543 0
M  V30 2047 C 195.235 -1.82091 -0.608843 0
M  V30 2048 O 196.436 -2.50544 -0.973717 0
M  V30 2049 C 194.707 -3.2942 1.38626 0
M  V30 2050 S 196.266 -4.19931 1.27293 0
M  V30 2051 H 193.084 -0.640427 0.308827 0
M  V30 2052 H 195.686 -1.35599 1.40831 0
M  V30 2053 H 194.39 -3.2959 2.44537 0
M  V30 2054 H 193.921 -3.84566 0.82902 0
M  V30 2055 H 195.936 -4.95668 0.229776 0
M  V30 2056 N 195.109 -0.891671 -1.2995 0
M  V30 2057 C 196.039 -0.379797 -2.30391 0
M  V30 2058 C 197.02 0.540919 -1.6127 0
M  V30 2059 O 198.205 0.453352 -1.88834 0
M  V30 2060 C 195.335 0.400654 -3.44981 0
M  V30 2061 C 194.289 -0.428905 -4.25846 0
M  V30 2062 C 193.615 0.478557 -5.32554 0
M  V30 2063 C 194.915 -1.67458 -4.94727 0
M  V30 2064 H 196.609 -1.21914 -2.73454 0
M  V30 2065 H 194.155 -0.587675 -1.31462 0
M  V30 2066 H 196.108 0.769434 -4.14316 0
M  V30 2067 H 194.832 1.27371 -3.0074 0
M  V30 2068 H 193.491 -0.779911 -3.58208 0
M  V30 2069 H 193.139 1.34951 -4.84559 0
M  V30 2070 H 192.839 -0.0727433 -5.87555 0
M  V30 2071 H 194.363 0.843705 -6.04743 0
M  V30 2072 H 195.777 -1.376 -5.56542 0
M  V30 2073 H 194.174 -2.16659 -5.59624 0
M  V30 2074 H 195.244 -2.41518 -4.20473 0
M  V30 2075 N 196.587 1.43421 -0.653314 0
M  V30 2076 C 197.835 2.01414 -0.166415 0
M  V30 2077 C 198.156 1.51803 1.22397 0
M  V30 2078 O 197.426 0.730693 1.81763 0
M  V30 2079 H 196.006 0.744703 -0.0585319 0
M  V30 2080 H 198.668 1.75629 -0.845003 0
M  V30 2081 H 197.764 3.11734 -0.151111 0
M  V30 2082 N 198.065 0.39524 1.52563 0
M  V30 2083 C 198.995 -0.428384 2.29537 0
M  V30 2084 C 199.976 -1.05831 1.33169 0
M  V30 2085 O 201.161 -1.06995 1.62067 0
M  V30 2086 C 198.291 -1.55274 3.10656 0
M  V30 2087 C 197.245 -1.04855 4.14957 0
M  V30 2088 C 196.571 -2.26543 4.84337 0
M  V30 2089 C 197.871 -0.112324 5.22179 0
M  V30 2090 H 199.565 0.213867 2.98635 0
M  V30 2091 H 197.111 0.104298 1.43622 0
M  V30 2092 H 199.064 -2.1358 3.63265 0
M  V30 2093 H 197.788 -2.22266 2.39302 0
M  V30 2094 H 196.447 -0.487985 3.63338 0
M  V30 2095 H 196.095 -2.92059 4.09525 0
M  V30 2096 H 195.795 -1.93466 5.54837 0
M  V30 2097 H 197.319 -2.85481 5.39753 0
M  V30 2098 H 198.733 -0.603752 5.70112 0
M  V30 2099 H 197.13 0.128968 5.99961 0
M  V30 2100 H 198.2 0.837052 4.77621 0
M  V30 2101 N 199.544 -1.57102 0.125237 0
M  V30 2102 C 200.491 -2.15641 -0.822655 0
M  V30 2103 C 201.461 -1.08313 -1.25927 0
M  V30 2104 O 202.646 -1.36251 -1.33567 0
M  V30 2105 C 199.786 -2.76504 -2.06494 0
M  V30 2106 C 198.899 -3.98158 -1.67612 0
M  V30 2107 C 198.034 -4.47088 -2.86854 0
M  V30 2108 C 197.073 -5.6126 -2.44242 0
M  V30 2109 N 196.21 -6.04905 -3.56419 0
M  V30 2110 H 201.05 -2.96313 -0.316625 0
M  V30 2111 H 198.587 -1.46388 -0.144588 0
M  V30 2112 H 200.545 -3.09925 -2.79289 0
M  V30 2113 H 199.175 -1.98512 -2.54545 0
M  V30 2114 H 198.227 -3.70858 -0.846661 0
M  V30 2115 H 199.539 -4.80934 -1.32301 0
M  V30 2116 H 198.693 -4.82451 -3.67867 0
M  V30 2117 H 197.432 -3.63275 -3.25396 0
M  V30 2118 H 196.437 -5.25495 -1.61663 0
M  V30 2119 H 197.662 -6.46843 -2.0681 0
M  V30 2120 H 195.608 -5.24032 -3.94623 0
M  V30 2121 H 195.525 -6.82552 -3.25051 0
M  V30 2122 H 196.793 -6.44907 -4.37853 0
M  V30 2123 N 201.022 0.148545 -1.56898 0
M  V30 2124 C 201.932 1.20293 -2.01412 0
M  V30 2125 C 202.948 1.47107 -0.929273 0
M  V30 2126 O 204.124 1.58807 -1.23863 0
M  V30 2127 C 201.189 2.51682 -2.38447 0
M  V30 2128 C 200.25 2.32529 -3.60872 0
M  V30 2129 C 199.483 3.57653 -3.96132 0
M  V30 2130 O 199.706 4.63771 -3.32073 0
M  V30 2131 O 198.64 3.50408 -4.89385 0
M  V30 2132 H 202.466 0.855025 -2.91416 0
M  V30 2133 H 200.051 0.357151 -1.45068 0
M  V30 2134 H 201.933 3.29147 -2.63135 0
M  V30 2135 H 200.608 2.86006 -1.51599 0
M  V30 2136 H 199.515 1.53019 -3.41373 0
M  V30 2137 H 200.848 2.03121 -4.48333 0
M  V30 2138 N 202.5 1.5196 0.417844 0
M  V30 2139 C 203.746 1.65836 1.16732 0
M  V30 2140 C 204.079 0.382881 1.90388 0
M  V30 2141 O 203.354 -0.618368 1.84408 0
M  V30 2142 C 203.637 2.87466 2.16876 0
M  V30 2143 C 203.49 4.25041 1.47174 0
M  V30 2144 C 204.809 3.04613 3.17646 0
M  V30 2145 H 201.928 0.603515 0.423011 0
M  V30 2146 H 204.57 1.84494 0.454105 0
M  V30 2147 H 202.72 2.71689 2.777 0
M  V30 2148 H 204.392 4.52527 0.895376 0
M  V30 2149 H 202.635 4.26843 0.773806 0
M  V30 2150 H 203.306 5.06176 2.20204 0
M  V30 2151 H 205.782 3.1923 2.66892 0
M  V30 2152 H 204.658 3.91247 3.8499 0
M  V30 2153 H 204.919 2.17541 3.84874 0
M  V30 2154 N 203.978 -0.674533 1.42435 0
M  V30 2155 C 204.941 -1.76986 1.45632 0
M  V30 2156 C 205.941 -1.5708 0.343871 0
M  V30 2157 O 207.131 -1.63367 0.604709 0
M  V30 2158 C 204.263 -3.15623 1.28822 0
M  V30 2159 H 205.456 -1.75539 2.43158 0
M  V30 2160 H 203.009 -0.884189 1.28887 0
M  V30 2161 H 203.744 -3.22696 0.322193 0
M  V30 2162 H 203.529 -3.31475 2.09444 0
M  V30 2163 H 205.019 -3.95537 1.33942 0
M  V30 2164 N 205.456 -1.28612 -0.910864 0
M  V30 2165 C 206.872 -1.06381 -1.18976 0
M  V30 2166 C 207.072 0.191998 -2.00583 0
M  V30 2167 O 206.128 0.892869 -2.36187 0
M  V30 2168 C 207.441 -2.31295 -1.92154 0
M  V30 2169 C 208.989 -2.36503 -2.05025 0
M  V30 2170 C 209.464 -3.61191 -2.81612 0
M  V30 2171 N 210.955 -3.61847 -2.89172 0
M  V30 2172 C 211.69 -4.55004 -3.4894 0
M  V30 2173 N 211.186 -5.58482 -4.09963 0
M  V30 2174 N 212.979 -4.42594 -3.46506 0
M  V30 2175 H 205.13 -2.09221 -0.366094 0
M  V30 2176 H 207.393 -0.921003 -0.224629 0
M  V30 2177 H 207.099 -3.228 -1.39618 0
M  V30 2178 H 206.973 -2.37934 -2.9269 0
M  V30 2179 H 209.36 -1.45494 -2.5674 0
M  V30 2180 H 209.441 -2.33857 -1.03657 0
M  V30 2181 H 209.085 -4.52545 -2.30576 0
M  V30 2182 H 209.015 -3.61092 -3.83302 0
M  V30 2183 H 211.506 -2.87022 -2.45819 0
M  V30 2184 H 211.819 -6.25704 -4.53557 0
M  V30 2185 H 210.164 -5.62305 -4.08459 0
M  V30 2186 H 213.355 -3.60953 -2.98045 0
M  V30 2187 H 213.528 -5.15381 -3.92793 0
M  V30 2188 N 206.934 1.1197 -1.10907 0
M  V30 2189 C 208.18 1.8386 -0.855773 0
M  V30 2190 C 208.513 1.84134 0.617103 0
M  V30 2191 O 207.788 1.29041 1.45529 0
M  V30 2192 C 208.071 3.31305 -1.411 0
M  V30 2193 C 207.924 3.39456 -2.9511 0
M  V30 2194 C 209.243 4.2721 -1.05736 0
M  V30 2195 H 206.362 0.667545 -0.312334 0
M  V30 2196 H 209.004 1.31331 -1.37303 0
M  V30 2197 H 207.154 3.76169 -0.97105 0
M  V30 2198 H 208.826 3.03191 -3.47668 0
M  V30 2199 H 207.069 2.79849 -3.31462 0
M  V30 2200 H 207.74 4.43209 -3.29044 0
M  V30 2201 H 210.216 3.90497 -1.43706 0
M  V30 2202 H 209.092 5.28775 -1.47269 0
M  V30 2203 H 209.353 4.42088 0.0325958 0
M  V30 2204 N 208.412 0.89855 1.29475 0
M  V30 2205 C 209.322 0.379974 2.31502 0
M  V30 2206 C 210.338 -0.524695 1.659 0
M  V30 2207 O 211.514 -0.414551 1.97087 0
M  V30 2208 C 208.579 -0.385138 3.44554 0
M  V30 2209 C 207.64 0.550914 4.2575 0
M  V30 2210 C 206.873 -0.177778 5.33404 0
M  V30 2211 O 207.096 -1.40189 5.52904 0
M  V30 2212 O 206.03 0.479106 5.9999 0
M  V30 2213 H 209.856 1.22639 2.77837 0
M  V30 2214 H 207.441 0.662834 1.33891 0
M  V30 2215 H 209.323 -0.817841 4.13388 0
M  V30 2216 H 207.998 -1.20763 3.0033 0
M  V30 2217 H 206.905 1.03271 3.59564 0
M  V30 2218 H 208.238 1.33979 4.73614 0
M  V30 2219 N 209.89 -1.43072 0.660911 0
M  V30 2220 C 211.115 -2.06584 0.183805 0
M  V30 2221 C 211.54 -1.49257 -1.14472 0
M  V30 2222 O 210.898 -0.605528 -1.70889 0
M  V30 2223 C 210.946 -3.60418 0.114434 0
M  V30 2224 O 210.05 -4.01981 -0.921137 0
M  V30 2225 H 209.391 -0.656669 0.0983994 0
M  V30 2226 H 211.921 -1.83447 0.906006 0
M  V30 2227 H 211.931 -4.07946 -0.0663394 0
M  V30 2228 H 210.606 -4.01519 1.08422 0
M  V30 2229 H 209.183 -3.66029 -0.71253 0
M  V30 2230 N 211.368 -0.403325 -1.52352 0
M  V30 2231 C 212.615 0.174347 -2.01748 0
M  V30 2232 C 212.943 1.45636 -1.2892 0
M  V30 2233 O 212.198 1.9193 -0.382258 0
M  V30 2234 C 212.497 0.474665 -3.54234 0
M  V30 2235 C 212.163 -0.717458 -4.45155 0
M  V30 2236 C 210.825 -1.04447 -4.69728 0
M  V30 2237 C 213.177 -1.51432 -4.98716 0
M  V30 2238 C 210.505 -2.16963 -5.45109 0
M  V30 2239 C 212.857 -2.6302 -5.75329 0
M  V30 2240 C 211.521 -2.96213 -5.98175 0
M  V30 2241 H 210.791 0.0637981 -0.738248 0
M  V30 2242 H 213.438 -0.543553 -1.83624 0
M  V30 2243 H 211.743 1.27406 -3.70506 0
M  V30 2244 H 213.44 0.934496 -3.89959 0
M  V30 2245 H 210.03 -0.452596 -4.26204 0
M  V30 2246 H 214.214 -1.27491 -4.79645 0
M  V30 2247 H 209.47 -2.43034 -5.61021 0
M  V30 2248 H 213.644 -3.25158 -6.15829 0
M  V30 2249 H 211.271 -3.83516 -6.56368 0
M  V30 2250 N 212.846 1.57033 -0.133567 0
M  V30 2251 C 213.796 2.12641 0.822671 0
M  V30 2252 C 214.78 1.05081 1.21847 0
M  V30 2253 O 215.972 1.31287 1.18713 0
M  V30 2254 C 213.101 2.74094 2.06706 0
M  V30 2255 C 212.187 3.88757 1.69497 0
M  V30 2256 N 212.578 4.95194 1.03037 0
M  V30 2257 C 210.876 3.99213 1.98859 0
M  V30 2258 C 211.577 5.75414 0.852873 0
M  V30 2259 N 210.553 5.25726 1.3825 0
M  V30 2260 H 214.355 2.92308 0.305537 0
M  V30 2261 H 211.869 1.62256 0.0684276 0
M  V30 2262 H 213.866 3.12285 2.76195 0
M  V30 2263 H 212.526 1.95896 2.5895 0
M  V30 2264 H 213.537 5.13247 0.692669 0
M  V30 2265 H 210.214 3.32075 2.53047 0
M  V30 2266 H 211.604 6.71089 0.330091 0
M  V30 2267 N 214.325 -0.140222 1.56975 0
M  V30 2268 C 215.573 -0.850005 1.83356 0
M  V30 2269 C 215.894 -1.81399 0.71551 0
M  V30 2270 O 215.164 -1.94136 -0.262294 0
M  V30 2271 H 213.744 -0.316886 0.676456 0
M  V30 2272 H 216.406 -0.132608 1.94448 0
M  V30 2273 H 215.502 -1.40814 2.78528 0
M  V30 2274 N 215.803 -1.52179 -0.40978 0
M  V30 2275 C 217.05 -1.66206 -1.15679 0
M  V30 2276 C 217.378 -0.391674 -1.90516 0
M  V30 2277 O 216.633 0.62533 -1.8544 0
M  V30 2278 C 216.932 -2.83428 -2.17723 0
M  V30 2279 C 216.598 -4.21672 -1.59699 0
M  V30 2280 C 215.26 -4.59274 -1.43599 0
M  V30 2281 C 217.612 -5.07825 -1.17317 0
M  V30 2282 C 214.94 -5.80709 -0.836328 0
M  V30 2283 C 217.292 -6.29864 -0.587691 0
M  V30 2284 C 215.956 -6.66216 -0.413818 0
M  V30 2285 H 215.226 -0.608192 -0.423301 0
M  V30 2286 H 217.873 -1.86279 -0.444097 0
M  V30 2287 H 216.178 -2.57687 -2.95135 0
M  V30 2288 H 217.875 -2.91477 -2.75394 0
M  V30 2289 H 214.465 -3.9204 -1.73213 0
M  V30 2290 H 218.649 -4.79359 -1.28565 0
M  V30 2291 H 213.905 -6.07498 -0.689626 0
M  V30 2292 H 218.079 -6.95948 -0.250894 0
M  V30 2293 H 215.706 -7.60182 0.0529471 0
M  V30 2294 N 217.281 0.66697 -1.42791 0
M  V30 2295 C 218.53 1.42278 -1.42968 0
M  V30 2296 C 218.843 1.9553 -0.0524489 0
M  V30 2297 O 220.049 2.71414 0.068363 0
M  V30 2298 C 218.505 2.57418 -2.51524 0
M  V30 2299 C 218.113 2.10832 -3.9529 0
M  V30 2300 C 219.857 3.34878 -2.60877 0
M  V30 2301 C 217.764 3.23101 -4.95338 0
M  V30 2302 H 216.694 0.534533 -0.531781 0
M  V30 2303 H 219.345 0.721302 -1.68729 0
M  V30 2304 H 217.727 3.29971 -2.18941 0
M  V30 2305 H 218.901 1.4538 -4.37266 0
M  V30 2306 H 217.216 1.46289 -3.89857 0
M  V30 2307 H 219.813 4.18505 -3.32802 0
M  V30 2308 H 220.156 3.81993 -1.6549 0
M  V30 2309 H 220.689 2.69398 -2.92693 0
M  V30 2310 H 217.428 2.80969 -5.9223 0
M  V30 2311 H 216.948 3.87309 -4.57987 0
M  V30 2312 H 218.627 3.88447 -5.17415 0
M  V30 2313 N 218.759 1.29093 0.90403 0
M  V30 2314 C 219.989 1.19516 1.68522 0
M  V30 2315 C 220.397 -0.24738 1.87576 0
M  V30 2316 O 219.74 -1.17798 1.40959 0
M  V30 2317 C 219.802 1.83249 3.0929 0
M  V30 2318 C 219.466 3.32531 3.13484 0
M  V30 2319 C 220.463 4.28821 2.93953 0
M  V30 2320 C 218.148 3.73656 3.35688 0
M  V30 2321 C 220.142 5.64212 2.96553 0
M  V30 2322 C 217.829 5.0917 3.37919 0
M  V30 2323 C 218.827 6.04258 3.18373 0
M  V30 2324 O 218.515 7.37298 3.20385 0
M  V30 2325 H 218.247 0.415467 0.533257 0
M  V30 2326 H 220.801 1.70912 1.13922 0
M  V30 2327 H 219.031 1.26358 3.65473 0
M  V30 2328 H 220.72 1.68054 3.69476 0
M  V30 2329 H 221.486 3.98382 2.76616 0
M  V30 2330 H 217.365 3.00101 3.49943 0
M  V30 2331 H 220.909 6.38407 2.81216 0
M  V30 2332 H 216.806 5.39256 3.54787 0
M  V30 2333 H 217.574 7.46048 3.36681 0
M  V30 2334 N 220.237 -1.11381 1.11499 0
M  V30 2335 C 221.485 -1.8277 0.862524 0
M  V30 2336 C 221.806 -1.85097 -0.613534 0
M  V30 2337 O 221.076 -1.32198 -1.4457 0
M  V30 2338 H 219.656 -0.676823 0.316101 0
M  V30 2339 H 222.318 -1.34816 1.4075 0
M  V30 2340 H 221.414 -2.86614 1.23527 0
M  V30 2341 N 221.715 -0.905404 -1.28997 0
M  V30 2342 C 222.955 -0.541232 -1.97104 0
M  V30 2343 C 223.319 0.896841 -1.69767 0
M  V30 2344 O 224.52 1.36817 -2.31375 0
M  V30 2345 C 222.791 -0.832134 -3.47578 0
M  V30 2346 S 224.35 -0.573127 -4.35041 0
M  V30 2347 H 221.168 -0.200576 -0.682122 0
M  V30 2348 H 223.77 -1.16906 -1.56694 0
M  V30 2349 H 222.474 -1.87687 -3.64968 0
M  V30 2350 H 222.005 -0.192636 -3.92928 0
M  V30 2351 H 224.02 0.579297 -4.92807 0
M  V30 2352 N 223.193 1.4272 -0.668489 0
M  V30 2353 C 224.44 2.01624 -0.18814 0
M  V30 2354 C 224.768 1.5282 1.20317 0
M  V30 2355 O 224.023 0.718323 1.8204 0
M  V30 2356 C 224.322 3.57021 -0.164499 0
M  V30 2357 C 223.988 4.25232 -1.49962 0
M  V30 2358 C 222.65 4.4358 -1.8652 0
M  V30 2359 C 225.002 4.63727 -2.37921 0
M  V30 2360 C 222.33 4.97694 -3.10674 0
M  V30 2361 C 224.682 5.19218 -3.6138 0
M  V30 2362 C 223.346 5.3578 -3.98115 0
M  V30 2363 H 222.616 0.737795 -0.0688454 0
M  V30 2364 H 225.263 1.70991 -0.862225 0
M  V30 2365 H 223.568 3.87285 0.593079 0
M  V30 2366 H 225.265 4.00372 0.224271 0
M  V30 2367 H 221.855 4.11306 -1.20522 0
M  V30 2368 H 226.039 4.4923 -2.10964 0
M  V30 2369 H 221.295 5.08702 -3.39164 0
M  V30 2370 H 225.469 5.4799 -4.29743 0
M  V30 2371 H 223.096 5.77475 -4.94395 0
M  V30 2372 N 224.671 0.411399 1.52136 0
M  V30 2373 C 225.948 -0.222308 1.94333 0
M  V30 2374 C 226.328 -1.6242 1.34844 0
M  V30 2375 O 225.676 -2.22384 0.525145 0
M  V30 2376 C 225.886 -0.226345 3.48265 0
M  V30 2377 C 227.234 -0.444592 4.22266 0
M  V30 2378 O 228.258 -0.305602 3.54887 0
M  V30 2379 O 227.117 -0.718749 5.41753 0
M  V30 2380 H 224.211 -0.143907 0.814383 0
M  V30 2381 H 226.757 0.467506 1.63133 0
M  V30 2382 H 225.529 0.75475 3.83952 0
M  V30 2383 H 225.152 -0.960163 3.85832 0
M  V30 2384 N 226.149 -1.5696 0.141893 0
M  V30 2385 C 227.081 -2.13619 -0.830627 0
M  V30 2386 C 228.094 -1.08439 -1.21428 0
M  V30 2387 O 229.283 -1.35734 -1.15925 0
M  V30 2388 C 226.383 -2.63978 -2.12529 0
M  V30 2389 C 225.556 -3.93504 -1.9098 0
M  V30 2390 C 224.615 -4.29225 -3.04388 0
M  V30 2391 O 223.641 -4.97641 -2.76302 0
M  V30 2392 N 224.843 -3.88393 -4.31429 0
M  V30 2393 H 227.608 -2.97691 -0.34641 0
M  V30 2394 H 225.169 -1.61846 -0.0418375 0
M  V30 2395 H 227.161 -2.84891 -2.87436 0
M  V30 2396 H 225.731 -1.84659 -2.52229 0
M  V30 2397 H 224.951 -3.81269 -1.00139 0
M  V30 2398 H 226.239 -4.78154 -1.73914 0
M  V30 2399 H 225.637 -3.33257 -4.57117 0
M  V30 2400 H 224.194 -4.14368 -5.03133 0
M  V30 2401 N 227.627 0.131896 -1.57047 0
M  V30 2402 C 228.537 1.1815 -2.02676 0
M  V30 2403 C 229.553 1.46113 -0.944824 0
M  V30 2404 O 230.729 1.57485 -1.25541 0
M  V30 2405 C 227.794 2.49139 -2.41103 0
M  V30 2406 C 226.855 2.28688 -3.63318 0
M  V30 2407 C 226.088 3.53431 -3.99903 0
M  V30 2408 O 226.311 4.60223 -3.36973 0
M  V30 2409 O 225.245 3.45198 -4.93074 0
M  V30 2410 H 229.071 0.824069 -2.92306 0
M  V30 2411 H 226.656 0.341745 -1.45439 0
M  V30 2412 H 228.538 3.26338 -2.66611 0
M  V30 2413 H 227.213 2.84382 -1.54624 0
M  V30 2414 H 226.12 1.4939 -3.42977 0
M  V30 2415 H 227.453 1.98355 -4.50462 0
M  V30 2416 N 229.106 1.52395 0.401703 0
M  V30 2417 C 230.069 1.75636 1.47257 0
M  V30 2418 C 231.069 0.62628 1.48103 0
M  V30 2419 O 232.259 0.894227 1.49497 0
M  V30 2420 C 229.391 1.84553 2.86624 0
M  V30 2421 H 230.584 2.71241 1.27938 0
M  V30 2422 H 228.137 1.42923 0.632662 0
M  V30 2423 H 228.872 0.908882 3.11303 0
M  V30 2424 H 228.657 2.66715 2.87412 0
M  V30 2425 H 230.147 2.04251 3.64241 0
M  V30 2426 N 230.584 -0.659388 1.43143 0
M  V30 2427 C 231.995 -1.24041 1.39537 0
M  V30 2428 C 232.346 -1.95963 0.0963364 0
M  V30 2429 O 231.471 -2.00892 -0.804438 0
M  V30 2430 C 232.066 -2.25601 2.52764 0
M  V30 2431 C 230.625 -2.79195 2.52443 0
M  V30 2432 C 229.772 -1.53743 2.30778 0
M  V30 2433 H 232.723 -0.451792 1.52133 0
M  V30 2434 H 232.744 -3.07651 2.23899 0
M  V30 2435 H 232.256 -1.73226 3.47296 0
M  V30 2436 H 230.357 -3.35649 1.61773 0
M  V30 2437 H 230.47 -3.2716 3.50004 0
M  V30 2438 H 228.834 -1.80869 1.79328 0
M  V30 2439 H 229.617 -1.03312 3.27386 0
M  V30 2440 N 232.062 -1.29571 -0.897171 0
M  V30 2441 C 233.473 -1.15964 -1.46319 0
M  V30 2442 C 233.824 0.244267 -1.94674 0
M  V30 2443 O 232.949 1.13998 -1.83939 0
M  V30 2444 C 233.544 -2.09906 -2.65942 0
M  V30 2445 C 232.103 -2.00314 -3.18671 0
M  V30 2446 C 231.25 -2.00687 -1.91363 0
M  V30 2447 H 234.201 -1.42019 -0.708268 0
M  V30 2448 H 234.222 -1.67276 -3.41759 0
M  V30 2449 H 233.734 -3.12075 -2.30718 0
M  V30 2450 H 231.835 -1.01242 -3.58582 0
M  V30 2451 H 231.948 -2.88102 -3.82798 0
M  V30 2452 H 230.312 -1.45319 -2.09175 0
M  V30 2453 H 231.095 -3.04566 -1.58413 0
M  V30 2454 N 233.54 1.10788 -1.12088 0
M  V30 2455 C 234.47 2.19083 -0.807755 0
M  V30 2456 C 235.451 1.6858 0.226859 0
M  V30 2457 O 236.636 1.93997 0.0888475 0
M  V30 2458 C 233.766 3.46344 -0.257576 0
M  V30 2459 C 232.72 4.101 -1.22483 0
M  V30 2460 C 232.046 5.32016 -0.535052 0
M  V30 2461 C 233.346 4.54236 -2.57811 0
M  V30 2462 H 235.04 2.45534 -1.71328 0
M  V30 2463 H 232.586 1.1801 -0.825205 0
M  V30 2464 H 234.539 4.21392 -0.0262679 0
M  V30 2465 H 233.263 3.19373 0.683278 0
M  V30 2466 H 231.922 3.37054 -1.44189 0
M  V30 2467 H 231.57 5.01319 0.410827 0
M  V30 2468 H 231.27 5.75625 -1.18024 0
M  V30 2469 H 232.794 6.09799 -0.312695 0
M  V30 2470 H 234.208 5.20575 -2.40155 0
M  V30 2471 H 232.605 5.08682 -3.18375 0
M  V30 2472 H 233.675 3.6734 -3.16528 0
M  V30 2473 N 235.018 0.912232 1.28515 0
M  V30 2474 C 235.951 0.343928 2.25593 0
M  V30 2475 C 236.929 -0.550994 1.5298 0
M  V30 2476 O 238.113 -0.494991 1.81885 0
M  V30 2477 C 235.24 -0.508525 3.34861 0
M  V30 2478 C 234.286 0.320808 4.25292 0
M  V30 2479 S 235.119 1.72658 5.06902 0
M  V30 2480 C 236.275 0.881394 6.19663 0
M  V30 2481 H 236.508 1.16674 2.73449 0
M  V30 2482 H 234.041 0.713384 1.36931 0
M  V30 2483 H 235.999 -0.994539 3.9827 0
M  V30 2484 H 234.66 -1.30571 2.85675 0
M  V30 2485 H 233.853 -0.330941 5.02912 0
M  V30 2486 H 233.455 0.74042 3.66598 0
M  V30 2487 H 235.747 0.110359 6.7741 0
M  V30 2488 H 236.69 1.63009 6.89082 0
M  V30 2489 H 237.098 0.430239 5.62858 0
M  V30 2490 N 236.496 -1.42363 0.676048 0
M  V30 2491 C 237.773 -1.95183 0.127726 0
M  V30 2492 C 238.153 -1.61641 -1.35777 0
M  V30 2493 O 237.501 -0.913216 -2.09458 0
M  V30 2494 C 237.711 -3.46721 0.398199 0
M  V30 2495 C 239.059 -4.23427 0.315383 0
M  V30 2496 O 240.083 -3.54649 0.332016 0
M  V30 2497 O 238.942 -5.45888 0.25865 0
M  V30 2498 H 236.036 -0.826992 0.00359427 0
M  V30 2499 H 238.582 -1.52184 0.750864 0
M  V30 2500 H 237.354 -3.64344 1.4272 0
M  V30 2501 H 236.977 -3.96769 -0.256885 0
M  V30 2502 N 237.974 -0.419461 -1.51915 0
M  V30 2503 C 239.204 0.151915 -2.06041 0
M  V30 2504 C 239.612 1.38539 -1.28855 0
M  V30 2505 O 238.955 1.80592 -0.336463 0
M  V30 2506 C 239.017 0.557119 -3.55157 0
M  V30 2507 C 238.681 -0.567054 -4.53468 0
M  V30 2508 C 239.678 -1.43379 -4.99738 0
M  V30 2509 C 237.363 -0.742693 -4.96779 0
M  V30 2510 C 239.357 -2.46102 -5.87973 0
M  V30 2511 C 237.044 -1.77322 -5.84808 0
M  V30 2512 C 238.042 -2.63078 -6.30301 0
M  V30 2513 O 237.73 -3.64364 -7.16585 0
M  V30 2514 H 237.462 0.0193293 -0.675724 0
M  V30 2515 H 240.016 -0.592073 -1.96682 0
M  V30 2516 H 238.246 1.35355 -3.62238 0
M  V30 2517 H 239.935 1.05759 -3.9188 0
M  V30 2518 H 240.701 -1.30954 -4.66986 0
M  V30 2519 H 236.58 -0.0848307 -4.60922 0
M  V30 2520 H 240.124 -3.13071 -6.23404 0
M  V30 2521 H 236.021 -1.89773 -6.16974 0
M  V30 2522 H 236.789 -3.60731 -7.34721 0
M  V30 2523 N 239.452 1.56882 -0.150215 0
M  V30 2524 C 240.382 2.19935 0.784284 0
M  V30 2525 C 241.363 1.14854 1.25469 0
M  V30 2526 O 242.548 1.43209 1.31168 0
M  V30 2527 C 239.678 2.82349 2.02229 0
M  V30 2528 C 238.632 3.93285 1.68853 0
M  V30 2529 C 237.958 4.42649 2.99944 0
M  V30 2530 C 239.258 5.13904 0.932714 0
M  V30 2531 H 240.952 2.9828 0.258781 0
M  V30 2532 H 238.498 1.43473 0.123029 0
M  V30 2533 H 240.451 3.25126 2.68088 0
M  V30 2534 H 239.175 2.0134 2.57157 0
M  V30 2535 H 237.834 3.5113 1.05371 0
M  V30 2536 H 237.482 3.58458 3.52869 0
M  V30 2537 H 237.182 5.17476 2.78374 0
M  V30 2538 H 238.706 4.88099 3.66868 0
M  V30 2539 H 240.12 5.53506 1.49345 0
M  V30 2540 H 238.517 5.94515 0.81684 0
M  V30 2541 H 239.587 4.84842 -0.0749568 0
M  V30 2542 N 240.93 -0.123565 1.57115 0
M  V30 2543 C 242.178 -0.83051 1.84247 0
M  V30 2544 C 242.499 -1.80629 0.73471 0
M  V30 2545 O 241.769 -1.94403 -0.241688 0
M  V30 2546 H 240.349 -0.309694 0.679778 0
M  V30 2547 H 243.011 -0.111976 1.94578 0
M  V30 2548 H 242.107 -1.37852 2.80006 0
M  V30 2549 N 242.408 -1.52605 -0.393616 0
M  V30 2550 C 243.685 -1.58001 -1.15304 0
M  V30 2551 C 244.065 -0.370385 -2.07825 0
M  V30 2552 O 243.413 0.641638 -2.19306 0
M  V30 2553 C 243.623 -2.91652 -1.91677 0
M  V30 2554 C 244.971 -3.4522 -2.47201 0
M  V30 2555 O 245.995 -2.93495 -2.01839 0
M  V30 2556 O 244.854 -4.35579 -3.3005 0
M  V30 2557 H 241.948 -0.637068 -0.527327 0
M  V30 2558 H 244.494 -1.64939 -0.399141 0
M  V30 2559 H 243.266 -3.71136 -1.23992 0
M  V30 2560 H 242.889 -2.88077 -2.74039 0
M  V30 2561 N 243.887 0.651787 -1.4349 0
M  V30 2562 C 244.85 1.74647 -1.48429 0
M  V30 2563 C 245.85 1.56513 -0.368817 0
M  V30 2564 O 247.04 1.62385 -0.630623 0
M  V30 2565 C 244.172 3.13533 -1.33827 0
M  V30 2566 H 245.365 1.71649 -2.4592 0
M  V30 2567 H 242.918 0.863573 -1.30277 0
M  V30 2568 H 243.653 3.22142 -0.37349 0
M  V30 2569 H 243.438 3.28101 -2.14691 0
M  V30 2570 H 244.928 3.93356 -1.40218 0
M  V30 2571 N 245.365 1.30045 0.890287 0
M  V30 2572 C 246.328 1.15963 1.977 0
M  V30 2573 C 247.328 0.0923777 1.60534 0
M  V30 2574 O 248.518 0.340071 1.70848 0
M  V30 2575 C 245.65 0.775451 3.31963 0
M  V30 2576 H 246.843 2.12502 2.11619 0
M  V30 2577 H 244.396 1.13366 1.07601 0
M  V30 2578 H 245.131 -0.189671 3.23745 0
M  V30 2579 H 244.916 1.54668 3.60306 0
M  V30 2580 H 246.406 0.700251 4.11687 0
M  V30 2581 N 246.843 -1.10192 1.12674 0
M  V30 2582 C 248.089 -1.82658 0.894847 0
M  V30 2583 C 248.444 -1.83666 -0.573107 0
M  V30 2584 O 247.737 -1.28816 -1.41835 0
M  V30 2585 C 247.931 -3.28552 1.4067 0
M  V30 2586 C 247.76 -3.41756 2.92289 0
M  V30 2587 C 246.53 -3.54021 3.60551 0
M  V30 2588 C 248.728 -3.34949 3.90274 0
M  V30 2589 N 246.71 -3.55827 5.0026 0
M  V30 2590 C 248.081 -3.43531 5.16127 0
M  V30 2591 C 250.136 -3.18565 3.8265 0
M  V30 2592 C 248.839 -3.37416 6.3525 0
M  V30 2593 C 250.865 -3.13772 5.01299 0
M  V30 2594 C 250.227 -3.22938 6.26012 0
M  V30 2595 H 246.326 -0.683044 0.380756 0
M  V30 2596 H 248.91 -1.31752 1.43351 0
M  V30 2597 H 247.081 -3.77946 0.895055 0
M  V30 2598 H 248.813 -3.88991 1.11661 0
M  V30 2599 H 245.568 -3.57135 3.1105 0
M  V30 2600 H 245.992 -3.60335 5.73138 0
M  V30 2601 H 250.634 -3.10354 2.87124 0
M  V30 2602 H 248.352 -3.44391 7.3104 0
M  V30 2603 H 251.938 -3.02242 4.97133 0
M  V30 2604 H 250.818 -3.19235 7.16281 0
M  V30 2605 N 248.321 -0.919034 -1.28029 0
M  V30 2606 C 249.551 -0.570143 -1.98577 0
M  V30 2607 C 249.959 0.854172 -1.68821 0
M  V30 2608 O 249.302 1.57807 -0.940351 0
M  V30 2609 C 249.364 -0.705734 -3.52505 0
M  V30 2610 C 249.028 -2.10057 -4.05863 0
M  V30 2611 C 250.025 -3.07385 -4.19298 0
M  V30 2612 C 247.71 -2.41517 -4.40426 0
M  V30 2613 C 249.704 -4.34287 -4.66555 0
M  V30 2614 C 247.391 -3.68657 -4.87376 0
M  V30 2615 C 248.389 -4.64856 -5.00398 0
M  V30 2616 O 248.077 -5.89735 -5.46322 0
M  V30 2617 H 247.809 -0.215592 -0.6407 0
M  V30 2618 H 250.363 -1.23583 -1.64062 0
M  V30 2619 H 248.593 0.0170414 -3.86696 0
M  V30 2620 H 250.282 -0.363172 -4.04272 0
M  V30 2621 H 251.048 -2.84398 -3.92865 0
M  V30 2622 H 246.927 -1.67389 -4.29537 0
M  V30 2623 H 250.471 -5.09377 -4.76635 0
M  V30 2624 H 246.368 -3.91466 -5.13249 0
M  V30 2625 H 247.136 -5.92599 -5.64596 0
M  V30 2626 N 249.799 1.42003 -0.683588 0
M  V30 2627 C 250.729 2.33487 -0.024866 0
M  V30 2628 C 251.71 1.51163 0.779975 0
M  V30 2629 O 252.895 1.79739 0.735362 0
M  V30 2630 C 250.025 3.3487 0.920836 0
M  V30 2631 C 248.979 4.27414 0.223958 0
M  V30 2632 C 248.305 5.19074 1.2832 0
M  V30 2633 C 249.605 5.14445 -0.90242 0
M  V30 2634 H 251.299 2.88819 -0.788921 0
M  V30 2635 H 248.845 1.38873 -0.38083 0
M  V30 2636 H 250.798 3.97787 1.39081 0
M  V30 2637 H 249.522 2.77861 1.71642 0
M  V30 2638 H 248.181 3.65904 -0.225864 0
M  V30 2639 H 247.829 4.58387 2.071 0
M  V30 2640 H 247.529 5.81822 0.821995 0
M  V30 2641 H 249.053 5.84867 1.75392 0
M  V30 2642 H 250.467 5.70998 -0.513272 0
M  V30 2643 H 248.864 5.86072 -1.28997 0
M  V30 2644 H 249.934 4.52322 -1.74737 0
M  V30 2645 N 251.277 0.427512 1.51691 0
M  V30 2646 C 252.187 -0.39527 2.31246 0
M  V30 2647 C 253.203 -1.03674 1.39742 0
M  V30 2648 O 254.379 -1.03425 1.72816 0
M  V30 2649 C 251.444 -1.48706 3.13189 0
M  V30 2650 C 250.505 -0.866743 4.20459 0
M  V30 2651 C 249.738 -1.90651 4.98486 0
M  V30 2652 O 249.961 -3.12733 4.77026 0
M  V30 2653 O 248.895 -1.5025 5.82845 0
M  V30 2654 H 252.721 0.253918 3.02637 0
M  V30 2655 H 250.306 0.190274 1.48183 0
M  V30 2656 H 252.188 -2.12047 3.64162 0
M  V30 2657 H 250.863 -2.12051 2.44573 0
M  V30 2658 H 249.77 -0.195544 3.73589 0
M  V30 2659 H 251.103 -0.276934 4.9142 0
M  V30 2660 N 252.755 -1.56801 0.158532 0
M  V30 2661 C 254.166 -1.83189 -0.360366 0
M  V30 2662 C 254.517 -1.07778 -1.63946 0
M  V30 2663 O 253.642 -0.326718 -2.13919 0
M  V30 2664 C 254.237 -3.32297 -0.660595 0
M  V30 2665 C 252.796 -3.59227 -1.12398 0
M  V30 2666 C 251.943 -2.76877 -0.153097 0
M  V30 2667 H 254.894 -1.54008 0.383031 0
M  V30 2668 H 254.915 -3.4908 -1.51405 0
M  V30 2669 H 254.427 -3.87156 0.270527 0
M  V30 2670 H 252.528 -3.09766 -2.07064 0
M  V30 2671 H 252.641 -4.67632 -1.04197 0
M  V30 2672 H 251.005 -2.46319 -0.647983 0
M  V30 2673 H 251.788 -3.34511 0.77182 0
M  V30 2674 N 254.233 0.115231 -1.57178 0
M  V30 2675 C 255.166 1.17166 -1.95825 0
M  V30 2676 C 256.144 1.39912 -0.828463 0
M  V30 2677 O 257.328 1.54004 -1.08697 0
M  V30 2678 C 254.455 2.52478 -2.25771 0
M  V30 2679 C 253.501 2.46136 -3.48309 0
M  V30 2680 S 254.334 1.89736 -5.0076 0
M  V30 2681 C 255.49 3.26713 -5.33863 0
M  V30 2682 H 255.723 0.842103 -2.85124 0
M  V30 2683 H 253.256 0.322136 -1.51002 0
M  V30 2684 H 255.214 3.30332 -2.43702 0
M  V30 2685 H 253.875 2.82609 -1.37079 0
M  V30 2686 H 253.068 3.45819 -3.66641 0
M  V30 2687 H 252.67 1.76404 -3.29784 0
M  V30 2688 H 254.962 4.22935 -5.29275 0
M  V30 2689 H 255.905 3.13205 -6.35065 0
M  V30 2690 H 256.313 3.25316 -4.61335 0
M  V30 2691 N 255.711 1.52812 0.385517 0
M  V30 2692 C 256.958 1.68026 1.1302 0
M  V30 2693 C 257.286 0.421934 1.89868 0
M  V30 2694 O 256.541 -0.595749 1.86412 0
M  V30 2695 C 256.84 2.86856 2.13187 0
M  V30 2696 C 256.506 4.24159 1.5297 0
M  V30 2697 C 255.168 4.61501 1.36274 0
M  V30 2698 C 257.52 5.09627 1.09223 0
M  V30 2699 C 254.848 5.81966 0.743837 0
M  V30 2700 C 257.2 6.30719 0.487411 0
M  V30 2701 C 255.864 6.6679 0.307777 0
M  V30 2702 H 255.134 0.614849 0.413571 0
M  V30 2703 H 257.781 1.86962 0.414405 0
M  V30 2704 H 256.086 2.6235 2.90998 0
M  V30 2705 H 257.783 2.95821 2.70722 0
M  V30 2706 H 254.373 3.94746 1.66954 0
M  V30 2707 H 258.557 4.81343 1.20922 0
M  V30 2708 H 253.813 6.08519 0.592891 0
M  V30 2709 H 257.987 6.96259 0.140143 0
M  V30 2710 H 255.614 7.60001 -0.173879 0
M  V30 2711 N 257.189 -0.644168 1.43834 0
M  V30 2712 C 258.136 -1.75671 1.49694 0
M  V30 2713 C 259.106 -1.6246 0.345809 0
M  V30 2714 O 260.291 -1.82573 0.554234 0
M  V30 2715 C 257.431 -3.13867 1.43463 0
M  V30 2716 C 256.544 -3.38147 2.6885 0
M  V30 2717 C 255.679 -4.66241 2.54544 0
M  V30 2718 C 254.718 -4.83657 3.75157 0
M  V30 2719 N 253.855 -6.03016 3.59605 0
M  V30 2720 H 258.695 -1.69998 2.44754 0
M  V30 2721 H 256.232 -0.829458 1.21484 0
M  V30 2722 H 258.19 -3.9377 1.37843 0
M  V30 2723 H 256.82 -3.18588 0.519783 0
M  V30 2724 H 255.872 -2.52276 2.84712 0
M  V30 2725 H 257.184 -3.46899 3.58417 0
M  V30 2726 H 256.338 -5.54285 2.46683 0
M  V30 2727 H 255.077 -4.59826 1.62516 0
M  V30 2728 H 254.082 -3.94046 3.83416 0
M  V30 2729 H 255.307 -4.91896 4.68204 0
M  V30 2730 H 253.253 -5.97715 2.7032 0
M  V30 2731 H 253.17 -6.12766 4.42779 0
M  V30 2732 H 254.438 -6.93657 3.55613 0
M  V30 2733 N 258.668 -1.30515 -0.883378 0
M  V30 2734 C 259.618 -1.13641 -1.9766 0
M  V30 2735 C 260.602 -0.0511314 -1.60819 0
M  V30 2736 O 261.794 -0.274623 -1.74857 0
M  V30 2737 C 258.923 -0.831976 -3.33066 0
M  V30 2738 C 258.009 -1.95759 -3.76217 0
M  V30 2739 N 258.4 -3.20313 -3.9145 0
M  V30 2740 C 256.698 -1.85431 -4.05625 0
M  V30 2741 C 257.399 -3.93856 -4.2808 0
M  V30 2742 N 256.375 -3.21919 -4.38029 0
M  V30 2743 H 260.177 -2.08106 -2.07531 0
M  V30 2744 H 257.691 -1.21877 -1.0733 0
M  V30 2745 H 259.688 -0.692102 -4.11115 0
M  V30 2746 H 258.348 0.104588 -3.24532 0
M  V30 2747 H 259.359 -3.55583 -3.76538 0
M  V30 2748 H 256.036 -0.991531 -4.05555 0
M  V30 2749 H 257.426 -5.01125 -4.47575 0
M  V30 2750 N 260.146 1.09593 -1.13257 0
M  V30 2751 C 261.371 1.8604 -0.916732 0
M  V30 2752 C 261.796 1.80504 0.529146 0
M  V30 2753 O 261.154 1.18127 1.37534 0
M  V30 2754 C 261.202 3.32017 -1.40703 0
M  V30 2755 O 260.306 4.08141 -0.591153 0
M  V30 2756 H 259.647 0.576943 -0.328683 0
M  V30 2757 H 262.177 1.38405 -1.50682 0
M  V30 2758 H 262.187 3.82865 -1.4099 0
M  V30 2759 H 260.862 3.35361 -2.45979 0
M  V30 2760 H 259.439 3.67084 -0.656005 0
M  V30 2761 N 261.624 0.925811 1.2754 0
M  V30 2762 C 262.872 0.564138 1.94067 0
M  V30 2763 C 263.193 -0.897188 1.73134 0
M  V30 2764 O 262.463 -1.63573 1.07799 0
M  V30 2765 H 261.043 0.205645 0.718136 0
M  V30 2766 H 263.705 1.1778 1.55287 0
M  V30 2767 H 262.801 0.76881 3.02483 0
M  V30 2768 N 263.102 -1.41638 0.69111 0
M  V30 2769 C 264.35 -2.00902 0.219758 0
M  V30 2770 C 264.671 -1.54994 -1.18329 0
M  V30 2771 O 263.941 -0.778628 -1.79762 0
M  V30 2772 H 262.521 -0.74289 0.0782558 0
M  V30 2773 H 265.183 -1.73327 0.891271 0
M  V30 2774 H 264.279 -3.11224 0.233708 0
M  V30 2775 N 264.58 -0.43555 -1.51462 0
M  V30 2776 C 265.51 0.367376 -2.30592 0
M  V30 2777 C 266.491 1.02263 -1.35928 0
M  V30 2778 O 267.676 1.02661 -1.64847 0
M  V30 2779 C 264.806 1.46983 -3.14664 0
M  V30 2780 C 263.76 0.938161 -4.17591 0
M  V30 2781 C 263.086 2.13622 -4.90173 0
M  V30 2782 C 264.386 -0.0261621 -5.22293 0
M  V30 2783 H 266.08 -0.292969 -2.97963 0
M  V30 2784 H 263.626 -0.14234 -1.43295 0
M  V30 2785 H 265.579 2.03873 -3.688 0
M  V30 2786 H 264.303 2.15843 -2.4511 0
M  V30 2787 H 262.962 0.391481 -3.64504 0
M  V30 2788 H 262.61 2.81098 -4.17124 0
M  V30 2789 H 262.31 1.78688 -5.59772 0
M  V30 2790 H 263.834 2.7107 -5.47132 0
M  V30 2791 H 265.248 0.452384 -5.71512 0
M  V30 2792 H 263.645 -0.287992 -5.99409 0
M  V30 2793 H 264.715 -0.963391 -4.75233 0
M  V30 2794 N 266.058 1.56714 -0.166846 0
M  V30 2795 C 266.968 2.21331 0.777791 0
M  V30 2796 C 267.984 1.20358 1.25658 0
M  V30 2797 O 269.16 1.53005 1.30964 0
M  V30 2798 C 266.225 2.83787 1.99163 0
M  V30 2799 C 265.286 3.99947 1.56016 0
M  V30 2800 C 264.519 4.59415 2.71613 0
M  V30 2801 O 264.742 4.17769 3.88362 0
M  V30 2802 O 263.676 5.49359 2.45945 0
M  V30 2803 H 267.502 3.02605 0.257636 0
M  V30 2804 H 265.087 1.49275 0.0611393 0
M  V30 2805 H 266.969 3.23405 2.70161 0
M  V30 2806 H 265.644 2.05513 2.50092 0
M  V30 2807 H 264.551 3.65007 0.819809 0
M  V30 2808 H 265.884 4.79801 1.09782 0
M  V30 2809 N 267.536 -0.106894 1.57237 0
M  V30 2810 C 268.466 -1.13148 2.04254 0
M  V30 2811 C 269.447 -1.42476 0.929224 0
M  V30 2812 O 270.632 -1.52709 1.19973 0
M  V30 2813 C 267.762 -2.4545 2.45706 0
M  V30 2814 C 266.716 -2.30558 3.60592 0
M  V30 2815 C 266.042 -3.67931 3.87983 0
M  V30 2816 C 267.342 -1.75597 4.91897 0
M  V30 2817 H 269.036 -0.740374 2.90101 0
M  V30 2818 H 266.582 -0.354696 1.39563 0
M  V30 2819 H 268.535 -3.17389 2.77205 0
M  V30 2820 H 267.259 -2.86475 1.56843 0
M  V30 2821 H 265.918 -1.61067 3.29322 0
M  V30 2822 H 265.566 -4.06462 2.96306 0
M  V30 2823 H 265.266 -3.58817 4.65322 0
M  V30 2824 H 266.79 -4.41356 4.21945 0
M  V30 2825 H 268.204 -2.37364 5.21854 0
M  V30 2826 H 266.601 -1.77272 5.73319 0
M  V30 2827 H 267.671 -0.714451 4.79608 0
M  V30 2828 N 269.014 -1.53014 -0.377408 0
M  V30 2829 C 270.26 -1.68872 -1.12294 0
M  V30 2830 C 270.593 -0.433224 -1.89306 0
M  V30 2831 O 269.868 0.569258 -1.85983 0
M  V30 2832 C 270.151 -2.93115 -2.09179 0
M  V30 2833 C 270.004 -4.28794 -1.35853 0
M  V30 2834 C 271.323 -3.12928 -3.09458 0
M  V30 2835 H 268.442 -0.614518 -0.406862 0
M  V30 2836 H 271.084 -1.85633 -0.40503 0
M  V30 2837 H 269.234 -2.78956 -2.70399 0
M  V30 2838 H 270.906 -4.54742 -0.775082 0
M  V30 2839 H 269.149 -4.28744 -0.660364 0
M  V30 2840 H 269.82 -5.11837 -2.06706 0
M  V30 2841 H 272.296 -3.26194 -2.58334 0
M  V30 2842 H 271.172 -4.01316 -3.74482 0
M  V30 2843 H 271.433 -2.27669 -3.78971 0
M  V30 2844 N 270.492 0.636531 -1.44174 0
M  V30 2845 C 271.74 1.39343 -1.46383 0
M  V30 2846 C 272.061 1.94766 -0.0955715 0
M  V30 2847 O 271.331 1.75452 0.871395 0
M  V30 2848 H 269.911 0.517199 -0.538994 0
M  V30 2849 H 272.573 0.74957 -1.7991 0
M  V30 2850 H 271.669 2.22746 -2.18611 0
M  V30 2851 N 271.97 1.30982 0.876444 0
M  V30 2852 C 273.381 1.18277 1.44456 0
M  V30 2853 C 273.732 -0.213265 1.95037 0
M  V30 2854 O 272.857 -1.11057 1.85729 0
M  V30 2855 C 273.452 2.1411 2.62569 0
M  V30 2856 C 272.011 2.05358 3.15444 0
M  V30 2857 C 271.158 2.03706 1.88146 0
M  V30 2858 H 274.109 1.43127 0.685584 0
M  V30 2859 H 274.13 1.72692 3.39054 0
M  V30 2860 H 273.642 3.15706 2.25724 0
M  V30 2861 H 271.743 1.06934 3.56926 0
M  V30 2862 H 271.856 2.94156 3.78166 0
M  V30 2863 H 270.22 1.48629 2.06837 0
M  V30 2864 H 271.003 3.07047 1.53547 0
M  V30 2865 N 273.449 -1.08991 1.13837 0
M  V30 2866 C 274.86 -1.62746 0.914917 0
M  V30 2867 C 275.211 -1.88403 -0.547594 0
M  V30 2868 O 274.336 -1.63706 -1.41525 0
M  V30 2869 C 274.931 -2.95662 1.65437 0
M  V30 2870 C 273.49 -3.46225 1.47666 0
M  V30 2871 C 272.637 -2.20562 1.6807 0
M  V30 2872 H 275.588 -0.922946 1.29102 0
M  V30 2873 H 275.609 -3.63825 1.11407 0
M  V30 2874 H 275.121 -2.76956 2.71877 0
M  V30 2875 H 273.222 -3.70046 0.435478 0
M  V30 2876 H 273.335 -4.23368 2.24268 0
M  V30 2877 H 271.699 -2.29439 1.10589 0
M  V30 2878 H 272.482 -2.0437 2.7584 0
M  V30 2879 N 274.927 -0.932562 -1.27047 0
M  V30 2880 C 276.175 -0.574422 -1.93765 0
M  V30 2881 C 276.496 0.887993 -1.73608 0
M  V30 2882 O 275.766 1.62999 -1.08665 0
M  V30 2883 H 274.346 -0.209451 -0.717035 0
M  V30 2884 H 277.008 -1.18601 -1.5466 0
M  V30 2885 H 276.104 -0.784841 -3.02071 0
M  V30 2886 N 276.405 1.4127 -0.698611 0
M  V30 2887 C 277.352 2.30773 -0.0352094 0
M  V30 2888 C 278.322 1.47273 0.768111 0
M  V30 2889 O 279.507 1.76053 0.735524 0
M  V30 2890 C 276.647 3.33346 0.893 0
M  V30 2891 C 275.76 4.31924 0.0809695 0
M  V30 2892 C 274.895 5.21566 1.0071 0
M  V30 2893 C 273.934 6.11811 0.188155 0
M  V30 2894 N 273.071 6.93926 1.06825 0
M  V30 2895 H 277.911 2.86943 -0.804207 0
M  V30 2896 H 275.448 1.4132 -0.408294 0
M  V30 2897 H 277.406 3.91368 1.44523 0
M  V30 2898 H 276.036 2.78719 1.62836 0
M  V30 2899 H 275.088 3.75825 -0.588224 0
M  V30 2900 H 276.4 4.95716 -0.553801 0
M  V30 2901 H 275.554 5.84437 1.62845 0
M  V30 2902 H 274.293 4.58008 1.67572 0
M  V30 2903 H 273.298 5.47986 -0.446254 0
M  V30 2904 H 274.523 6.77425 -0.476716 0
M  V30 2905 H 272.469 6.32973 1.72283 0
M  V30 2906 H 272.386 7.54416 0.489123 0
M  V30 2907 H 273.654 7.61262 1.67632 0
M  V30 2908 N 277.883 0.443576 1.51229 0
M  V30 2909 C 279.129 -0.120975 2.02439 0
M  V30 2910 C 279.462 -1.41815 1.32674 0
M  V30 2911 O 278.737 -1.89373 0.443622 0
M  V30 2912 C 279.02 -0.333291 3.58554 0
M  V30 2913 C 278.873 0.982968 4.38928 0
M  V30 2914 C 280.192 -1.10028 4.26124 0
M  V30 2915 H 277.311 -0.0424923 0.735774 0
M  V30 2916 H 279.953 0.583794 1.80809 0
M  V30 2917 H 278.103 -0.933614 3.77115 0
M  V30 2918 H 279.775 1.61775 4.32003 0
M  V30 2919 H 278.018 1.58611 4.03763 0
M  V30 2920 H 278.689 0.788379 5.46341 0
M  V30 2921 H 281.165 -0.591711 4.11871 0
M  V30 2922 H 280.041 -1.21761 5.35225 0
M  V30 2923 H 280.302 -2.12996 3.87408 0
M  V30 2924 N 279.361 -1.56624 0.175154 0
M  V30 2925 C 280.607 -1.9729 -0.469506 0
M  V30 2926 C 280.94 -1.06128 -1.62636 0
M  V30 2927 O 280.215 -0.109183 -1.94193 0
M  V30 2928 C 280.498 -3.47375 -0.948804 0
M  V30 2929 C 280.351 -4.49317 0.208491 0
M  V30 2930 C 281.67 -4.00652 -1.82116 0
M  V30 2931 H 278.789 -0.717317 -0.16919 0
M  V30 2932 H 281.431 -1.88184 0.262062 0
M  V30 2933 H 279.581 -3.55267 -1.57219 0
M  V30 2934 H 281.253 -4.53482 0.845682 0
M  V30 2935 H 279.496 -4.25121 0.863395 0
M  V30 2936 H 280.167 -5.51741 -0.169059 0
M  V30 2937 H 282.643 -3.95416 -1.2956 0
M  V30 2938 H 281.519 -5.06075 -2.12554 0
M  V30 2939 H 281.78 -3.44699 -2.7683 0
M  V30 2940 N 280.839 0.0985539 -1.57292 0
M  V30 2941 C 282.088 0.801358 -1.85098 0
M  V30 2942 C 282.401 1.80066 -0.763902 0
M  V30 2943 O 283.607 2.55112 -0.928981 0
M  V30 2944 C 282.063 1.47599 -3.28242 0
M  V30 2945 C 281.671 0.516624 -4.45011 0
M  V30 2946 C 283.415 2.16272 -3.65276 0
M  V30 2947 C 281.322 1.19564 -5.79188 0
M  V30 2948 H 280.252 0.303022 -0.69043 0
M  V30 2949 H 282.903 0.0542623 -1.8342 0
M  V30 2950 H 281.285 2.27042 -3.2445 0
M  V30 2951 H 282.459 -0.246065 -4.60143 0
M  V30 2952 H 280.774 -0.064227 -4.1635 0
M  V30 2953 H 283.371 2.67802 -4.62803 0
M  V30 2954 H 283.714 2.95009 -2.93727 0
M  V30 2955 H 284.247 1.43693 -3.70941 0
M  V30 2956 H 280.986 0.449157 -6.53959 0
M  V30 2957 H 280.506 1.92984 -5.67906 0
M  V30 2958 H 282.185 1.7231 -6.23633 0
M  V30 2959 N 282.317 1.53212 0.369288 0
M  V30 2960 C 283.264 1.79388 1.45219 0
M  V30 2961 C 284.234 0.638059 1.53356 0
M  V30 2962 O 285.419 0.879852 1.69302 0
M  V30 2963 C 282.559 1.98623 2.82211 0
M  V30 2964 C 281.672 3.26337 2.8307 0
M  V30 2965 C 280.807 3.35779 4.11614 0
M  V30 2966 C 279.846 4.5754 4.06601 0
M  V30 2967 N 278.983 4.64155 5.26787 0
M  V30 2968 H 283.823 2.71794 1.22198 0
M  V30 2969 H 281.36 1.34642 0.592444 0
M  V30 2970 H 283.318 2.07761 3.61789 0
M  V30 2971 H 281.948 1.09558 3.03639 0
M  V30 2972 H 281 3.26171 1.95747 0
M  V30 2973 H 282.312 4.15988 2.75237 0
M  V30 2974 H 281.466 3.44208 4.99606 0
M  V30 2975 H 280.205 2.44137 4.22195 0
M  V30 2976 H 279.21 4.49215 3.16996 0
M  V30 2977 H 280.435 5.50519 3.97625 0
M  V30 2978 H 278.381 3.75413 5.3796 0
M  V30 2979 H 278.298 5.47706 5.21109 0
M  V30 2980 H 279.566 4.76863 6.16621 0
M  V30 2981 N 283.795 -0.628877 1.44509 0
M  V30 2982 C 284.758 -1.72263 1.51188 0
M  V30 2983 C 285.758 -1.55907 0.39367 0
M  V30 2984 O 286.948 -1.61361 0.656377 0
M  V30 2985 C 284.08 -3.11365 1.38798 0
M  V30 2986 H 285.273 -1.67714 2.4862 0
M  V30 2987 H 282.826 -0.842737 1.31634 0
M  V30 2988 H 283.561 -3.21507 0.424693 0
M  V30 2989 H 283.346 -3.24644 2.19884 0
M  V30 2990 H 284.836 -3.91075 1.46458 0
M  V30 2991 N 285.273 -1.31445 -0.869486 0
M  V30 2992 C 286.221 -1.19067 -1.99814 0
M  V30 2993 C 287.215 -0.0988569 -1.69111 0
M  V30 2994 O 288.421 -0.260781 -1.78101 0
M  V30 2995 H 284.796 -0.368677 -0.655425 0
M  V30 2996 H 286.767 -2.14555 -2.07385 0
M  V30 2997 C 285.516 -0.915323 -3.35436 0
M  V30 2998 H 284.839 -1.74759 -3.59582 0
M  V30 2999 H 286.279 -0.868895 -4.15001 0
M  V30 3000 C 284.738 0.381928 -3.34728 0
M  V30 3001 O 285.268 1.39857 -3.76567 0
M  V30 3002 N 283.474 0.398633 -2.87853 0
M  V30 3003 H 283.021 -0.429186 -2.54 0
M  V30 3004 H 282.979 1.26651 -2.87762 0
M  V30 3005 N 286.751 1.08385 -1.14413 0
M  V30 3006 C 287.997 1.81212 -0.923793 0
M  V30 3007 C 288.352 1.84555 0.543814 0
M  V30 3008 O 287.645 1.31056 1.39767 0
M  V30 3009 C 287.839 3.26273 -1.45879 0
M  V30 3010 C 287.668 3.37063 -2.97689 0
M  V30 3011 C 286.438 3.4824 -3.66138 0
M  V30 3012 C 288.636 3.28698 -3.95553 0
M  V30 3013 N 286.618 3.47824 -5.05858 0
M  V30 3014 C 287.989 3.35276 -5.21527 0
M  V30 3015 C 290.044 3.12437 -3.8767 0
M  V30 3016 C 288.747 3.27267 -6.40538 0
M  V30 3017 C 290.773 3.05757 -5.06228 0
M  V30 3018 C 290.135 3.12938 -6.3107 0
M  V30 3019 H 286.234 0.6769 -0.391574 0
M  V30 3020 H 288.818 1.29455 -1.45429 0
M  V30 3021 H 286.989 3.76474 -0.95507 0
M  V30 3022 H 288.721 3.87165 -1.17835 0
M  V30 3023 H 285.476 3.52141 -3.16692 0
M  V30 3024 H 285.9 3.51171 -5.78798 0
M  V30 3025 H 290.542 3.05747 -2.92025 0
M  V30 3026 H 288.26 3.32718 -7.36427 0
M  V30 3027 H 291.846 2.94295 -5.01878 0
M  V30 3028 H 290.726 3.078 -7.21269 0
M  V30 3029 N 288.23 0.939286 1.26551 0
M  V30 3030 C 289.177 0.446088 2.26448 0
M  V30 3031 C 290.147 -0.493234 1.58608 0
M  V30 3032 O 291.332 -0.409857 1.86346 0
M  V30 3033 C 288.472 -0.284375 3.43926 0
M  V30 3034 C 287.585 0.690399 4.26448 0
M  V30 3035 C 286.72 -0.0610712 5.31165 0
M  V30 3036 C 285.759 0.905649 6.05363 0
M  V30 3037 N 284.896 0.186055 7.01853 0
M  V30 3038 H 289.736 1.30291 2.68008 0
M  V30 3039 H 287.273 0.65371 1.31776 0
M  V30 3040 H 289.231 -0.724313 4.10864 0
M  V30 3041 H 287.861 -1.10535 3.03285 0
M  V30 3042 H 286.913 1.24885 3.59316 0
M  V30 3043 H 288.225 1.42873 4.779 0
M  V30 3044 H 287.379 -0.56038 6.04106 0
M  V30 3045 H 286.118 -0.832297 4.80546 0
M  V30 3046 H 285.123 1.4161 5.3125 0
M  V30 3047 H 286.348 1.67685 6.58072 0
M  V30 3048 H 284.294 -0.566714 6.53548 0
M  V30 3049 H 284.211 0.863752 7.51049 0
M  V30 3050 H 285.479 -0.292221 7.78952 0
M  V30 3051 N 289.708 -1.40897 0.706093 0
M  V30 3052 C 290.671 -2.29131 0.0562841 0
M  V30 3053 C 291.671 -1.44901 -0.697166 0
M  V30 3054 O 292.861 -1.65926 -0.530484 0
M  V30 3055 C 289.993 -3.27957 -0.93043 0
M  V30 3056 H 291.186 -2.88091 0.833284 0
M  V30 3057 H 288.739 -1.4906 0.470192 0
M  V30 3058 H 289.474 -2.73997 -1.73482 0
M  V30 3059 H 289.259 -3.90124 -0.393166 0
M  V30 3060 H 290.749 -3.94049 -1.38256 0
M  V30 3061 N 291.186 -0.45159 -1.50991 0
M  V30 3062 C 292.597 0.00818571 -1.86698 0
M  V30 3063 C 292.948 1.40661 -1.3678 0
M  V30 3064 O 292.073 2.0391 -0.724546 0
M  V30 3065 C 292.668 0.0216303 -3.38793 0
M  V30 3066 C 291.227 0.425865 -3.73983 0
M  V30 3067 C 290.374 -0.372163 -2.74791 0
M  V30 3068 H 293.325 -0.666785 -1.44013 0
M  V30 3069 H 293.346 0.828078 -3.7138 0
M  V30 3070 H 292.858 -0.996288 -3.75094 0
M  V30 3071 H 290.959 1.44886 -3.43277 0
M  V30 3072 H 291.072 0.140761 -4.78893 0
M  V30 3073 H 289.436 0.171498 -2.54122 0
M  V30 3074 H 290.219 -1.38922 -3.13935 0
M  V30 3075 N 292.664 1.56529 -0.183458 0
M  V30 3076 C 293.627 2.17324 0.728223 0
M  V30 3077 C 294.627 1.12453 1.14939 0
M  V30 3078 O 295.817 1.37902 1.06437 0
M  V30 3079 C 292.949 2.76591 1.99274 0
M  V30 3080 H 294.142 2.99241 0.198772 0
M  V30 3081 H 291.695 1.5616 0.0661391 0
M  V30 3082 H 292.43 1.98441 2.56499 0
M  V30 3083 H 292.215 3.5335 1.69959 0
M  V30 3084 H 293.705 3.23311 2.6431 0
M  V30 3085 N 294.142 -0.090211 1.57342 0
M  V30 3086 C 295.052 -1.12735 2.05738 0
M  V30 3087 C 296.068 -1.43557 0.983231 0
M  V30 3088 O 297.244 -1.54101 1.29672 0
M  V30 3089 C 294.309 -2.42659 2.47624 0
M  V30 3090 C 293.37 -2.18975 3.69254 0
M  V30 3091 C 292.603 -3.42704 4.09133 0
M  V30 3092 O 292.826 -4.51127 3.49057 0
M  V30 3093 O 291.76 -3.32003 5.02053 0
M  V30 3094 H 295.586 -0.746279 2.94388 0
M  V30 3095 H 293.171 -0.303064 1.46294 0
M  V30 3096 H 295.053 -3.19155 2.7517 0
M  V30 3097 H 293.728 -2.80182 1.62109 0
M  V30 3098 H 292.635 -1.40244 3.46818 0
M  V30 3099 H 293.968 -1.86342 4.55563 0
M  V30 3100 N 295.62 -1.53406 -0.361157 0
M  V30 3101 C 296.568 -1.80832 -1.46296 0
M  V30 3102 C 297.562 -0.677699 -1.55253 0
M  V30 3103 O 298.768 -0.860723 -1.58087 0
M  V30 3104 H 295.143 -0.572627 -0.487445 0
M  V30 3105 H 297.114 -2.73045 -1.20371 0
M  V30 3106 C 295.863 -2.01907 -2.8307 0
M  V30 3107 H 295.186 -2.88349 -2.76938 0
M  V30 3108 H 296.626 -2.25072 -3.59331 0
M  V30 3109 C 295.085 -0.799449 -3.27277 0
M  V30 3110 O 295.615 0.00971761 -4.01699 0
M  V30 3111 N 293.821 -0.621637 -2.83873 0
M  V30 3112 H 293.368 -1.28126 -2.23476 0
M  V30 3113 H 293.326 0.19298 -3.13807 0
M  V30 3114 N 297.098 0.621204 -1.44841 0
M  V30 3115 C 298.345 1.38055 -1.48145 0
M  V30 3116 C 298.673 1.94143 -0.117867 0
M  V30 3117 O 297.928 1.74713 0.881694 0
M  V30 3118 C 298.227 2.55675 -2.4973 0
M  V30 3119 C 297.893 2.17817 -3.94799 0
M  V30 3120 C 296.555 2.07205 -4.34303 0
M  V30 3121 C 298.907 1.88065 -4.86087 0
M  V30 3122 C 296.235 1.65045 -5.63007 0
M  V30 3123 C 298.587 1.47394 -6.15189 0
M  V30 3124 C 297.251 1.35331 -6.53637 0
M  V30 3125 H 296.521 0.505181 -0.542101 0
M  V30 3126 H 299.168 0.703477 -1.78111 0
M  V30 3127 H 297.473 3.2866 -2.13284 0
M  V30 3128 H 299.17 3.13904 -2.4953 0
M  V30 3129 H 295.76 2.26998 -3.63552 0
M  V30 3130 H 299.944 1.95168 -4.56315 0
M  V30 3131 H 295.2 1.54317 -5.91605 0
M  V30 3132 H 299.374 1.23415 -6.85377 0
M  V30 3133 H 297.001 1.02435 -7.53267 0
M  V30 3134 N 298.576 1.31904 0.862503 0
M  V30 3135 C 299.822 1.22197 1.61851 0
M  V30 3136 C 300.155 -0.217641 1.92977 0
M  V30 3137 O 299.43 -1.15264 1.56666 0
M  V30 3138 C 299.713 2.07378 2.94391 0
M  V30 3139 C 299.566 3.59678 2.70096 0
M  V30 3140 C 300.885 1.92891 3.95577 0
M  V30 3141 H 298.004 0.445255 0.587296 0
M  V30 3142 H 300.646 1.6177 0.99651 0
M  V30 3143 H 298.796 1.73758 3.47477 0
M  V30 3144 H 300.468 4.03472 2.23625 0
M  V30 3145 H 298.711 3.82735 2.04197 0
M  V30 3146 H 299.382 4.14595 3.64438 0
M  V30 3147 H 301.858 2.22327 3.51724 0
M  V30 3148 H 300.734 2.54781 4.86187 0
M  V30 3149 H 300.995 0.894315 4.3296 0
M  V30 3150 N 300.054 -1.07777 1.14986 0
M  V30 3151 C 301.302 -1.79934 0.920235 0
M  V30 3152 C 301.623 -1.86955 -0.554336 0
M  V30 3153 O 300.893 -1.36731 -1.40291 0
M  V30 3154 H 299.473 -0.666424 0.337473 0
M  V30 3155 H 302.135 -1.3027 1.44968 0
M  V30 3156 H 301.231 -2.82539 1.32583 0
M  V30 3157 N 301.532 -0.945985 -1.26051 0
M  V30 3158 C 302.809 -0.513816 -1.88731 0
M  V30 3159 C 303.189 1.00872 -1.8544 0
M  V30 3160 O 302.537 1.8708 -1.312 0
M  V30 3161 C 302.747 -1.08062 -3.31849 0
M  V30 3162 C 304.095 -1.1522 -4.08668 0
M  V30 3163 O 305.119 -1.03155 -3.40936 0
M  V30 3164 O 303.978 -1.34044 -5.29806 0
M  V30 3165 H 301.072 -0.168193 -0.809716 0
M  V30 3166 H 303.618 -1.03886 -1.34186 0
M  V30 3167 H 302.39 -2.1241 -3.2863 0
M  V30 3168 H 302.013 -0.538307 -3.93939 0
M  V30 3169 N 303.011 1.40521 -0.713556 0
M  V30 3170 C 303.974 2.29098 -0.0684347 0
M  V30 3171 C 304.974 1.45268 0.689472 0
M  V30 3172 O 306.164 1.66205 0.521677 0
M  V30 3173 C 303.296 3.28446 0.913024 0
M  V30 3174 H 304.489 2.87645 -0.84855 0
M  V30 3175 H 302.042 1.48809 -0.47809 0
M  V30 3176 H 302.777 2.74913 1.72027 0
M  V30 3177 H 302.562 3.90327 0.372472 0
M  V30 3178 H 304.052 3.94777 1.36165 0
M  V30 3179 N 304.489 0.459591 1.5075 0
M  V30 3180 C 305.719 -0.0972338 2.06371 0
M  V30 3181 C 306.127 -1.35074 1.32483 0
M  V30 3182 O 305.47 -1.79637 0.384226 0
M  V30 3183 C 305.532 -0.462759 3.56509 0
M  V30 3184 C 305.196 0.687084 4.51805 0
M  V30 3185 C 306.193 1.56578 4.95761 0
M  V30 3186 C 303.878 0.874144 4.94635 0
M  V30 3187 C 305.872 2.61604 5.81242 0
M  V30 3188 C 303.559 1.92765 5.79901 0
M  V30 3189 C 304.557 2.79697 6.23104 0
M  V30 3190 O 304.245 3.83235 7.06673 0
M  V30 3191 H 303.977 -0.00140687 0.675999 0
M  V30 3192 H 306.531 0.644011 1.95043 0
M  V30 3193 H 304.761 -1.25703 3.65699 0
M  V30 3194 H 306.45 -0.953323 3.94546 0
M  V30 3195 H 307.216 1.4329 4.6335 0
M  V30 3196 H 303.095 0.207006 4.60535 0
M  V30 3197 H 306.639 3.29489 6.14884 0
M  V30 3198 H 302.536 2.06064 6.11725 0
M  V30 3199 H 303.304 3.80084 7.24899 0
M  V30 3200 N 305.967 -1.56429 0.191757 0
M  V30 3201 C 306.917 -2.15548 -0.743184 0
M  V30 3202 C 307.901 -1.09531 -1.17863 0
M  V30 3203 O 309.093 -1.35602 -1.13759 0
M  V30 3204 C 306.222 -2.81577 -1.96391 0
M  V30 3205 C 305.308 -3.9478 -1.54951 0
M  V30 3206 N 305.699 -4.98677 -0.845876 0
M  V30 3207 C 303.997 -4.06319 -1.83905 0
M  V30 3208 C 304.698 -5.78183 -0.638724 0
M  V30 3209 N 303.674 -5.30495 -1.18643 0
M  V30 3210 H 307.476 -2.9324 -0.196839 0
M  V30 3211 H 304.99 -1.62398 -0.0081603 0
M  V30 3212 H 306.987 -3.22321 -2.64415 0
M  V30 3213 H 305.647 -2.05371 -2.51501 0
M  V30 3214 H 306.658 -5.15464 -0.501704 0
M  V30 3215 H 303.335 -3.41238 -2.40548 0
M  V30 3216 H 304.725 -6.71851 -0.0807929 0
M  V30 3217 N 307.445 0.0818655 -1.57387 0
M  V30 3218 C 308.691 0.784074 -1.8703 0
M  V30 3219 C 309.024 1.77729 -0.782689 0
M  V30 3220 O 308.299 1.93384 0.208051 0
M  V30 3221 C 308.582 1.50105 -3.27323 0
M  V30 3222 C 308.435 0.524925 -4.46727 0
M  V30 3223 C 309.754 2.44843 -3.65705 0
M  V30 3224 H 306.873 0.283582 -0.680257 0
M  V30 3225 H 309.515 0.0474352 -1.89941 0
M  V30 3226 H 307.665 2.12897 -3.24972 0
M  V30 3227 H 309.337 -0.0970111 -4.61198 0
M  V30 3228 H 307.58 -0.160606 -4.33503 0
M  V30 3229 H 308.251 1.064 -5.41648 0
M  V30 3230 H 310.727 1.92135 -3.69085 0
M  V30 3231 H 309.603 2.92018 -4.64776 0
M  V30 3232 H 309.864 3.29197 -2.95096 0
M  V30 3233 N 308.923 1.53595 0.353017 0
M  V30 3234 C 310.171 1.70049 1.09215 0
M  V30 3235 C 310.492 0.461406 1.89463 0
M  V30 3236 O 309.762 -0.524633 1.88744 0
M  V30 3237 H 308.342 0.626912 0.40619 0
M  V30 3238 H 311.004 1.90822 0.396585 0
M  V30 3239 H 310.1 2.56718 1.77488 0
M  V30 3240 N 310.401 -0.613514 1.45168 0
M  V30 3241 C 311.647 -1.37279 1.50087 0
M  V30 3242 C 312.002 -1.91902 0.138294 0
M  V30 3243 O 311.295 -1.71764 -0.84899 0
M  V30 3244 C 311.489 -2.54347 2.51083 0
M  V30 3245 C 311.318 -2.11186 3.97027 0
M  V30 3246 C 310.088 -1.97636 4.65046 0
M  V30 3247 C 312.286 -1.69016 4.85735 0
M  V30 3248 N 310.268 -1.48224 5.95737 0
M  V30 3249 C 311.639 -1.30976 6.06008 0
M  V30 3250 C 313.694 -1.56555 4.72647 0
M  V30 3251 C 312.397 -0.817197 7.14643 0
M  V30 3252 C 314.423 -1.08702 5.81324 0
M  V30 3253 C 313.785 -0.716233 7.00749 0
M  V30 3254 H 309.884 -0.496478 0.60418 0
M  V30 3255 H 312.468 -0.701988 1.81605 0
M  V30 3256 H 310.639 -3.19031 2.21527 0
M  V30 3257 H 312.371 -3.21208 2.46187 0
M  V30 3258 H 309.126 -2.18638 4.20112 0
M  V30 3259 H 309.55 -1.25767 6.65216 0
M  V30 3260 H 314.192 -1.83849 3.80736 0
M  V30 3261 H 311.91 -0.531797 8.06348 0
M  V30 3262 H 315.496 -0.994943 5.7323 0
M  V30 3263 H 314.376 -0.351642 7.83411 0
M  V30 3264 N 311.879 -1.3236 -0.855495 0
M  V30 3265 C 313.107 -1.2587 -1.64208 0
M  V30 3266 C 313.522 0.173457 -1.88002 0
M  V30 3267 O 312.879 1.11027 -1.44842 0
M  V30 3268 C 312.93 -2.01424 -3.00184 0
M  V30 3269 O 312.651 -3.39051 -2.77445 0
M  V30 3270 C 314.152 -2.01948 -3.94629 0
M  V30 3271 H 311.372 -0.434318 -0.511477 0
M  V30 3272 H 313.916 -1.74469 -1.0668 0
M  V30 3273 H 312.071 -1.56549 -3.5436 0
M  V30 3274 H 312.485 -3.77711 -3.63916 0
M  V30 3275 H 313.959 -2.59297 -4.87308 0
M  V30 3276 H 314.436 -1.00554 -4.27534 0
M  V30 3277 H 315.042 -2.46767 -3.4639 0
M  V30 3278 N 313.357 1.07166 -1.15556 0
M  V30 3279 C 314.307 2.12649 -0.82247 0
M  V30 3280 C 315.291 1.59725 0.194129 0
M  V30 3281 O 316.483 1.76999 -0.00540402 0
M  V30 3282 C 313.612 3.41847 -0.315572 0
M  V30 3283 C 312.698 4.0162 -1.36244 0
M  V30 3284 N 313.089 4.35625 -2.5703 0
M  V30 3285 C 311.387 4.29114 -1.21562 0
M  V30 3286 C 312.088 4.83017 -3.24144 0
M  V30 3287 N 311.064 4.81906 -2.51531 0
M  V30 3288 H 314.866 2.36776 -1.74111 0
M  V30 3289 H 312.38 1.24622 -1.0413 0
M  V30 3290 H 314.377 4.16859 -0.0585855 0
M  V30 3291 H 313.037 3.19163 0.597105 0
M  V30 3292 H 314.048 4.26253 -2.94158 0
M  V30 3293 H 310.725 4.15919 -0.362988 0
M  V30 3294 H 312.115 5.18605 -4.27198 0
M  V30 3295 N 314.835 0.952656 1.25548 0
M  V30 3296 C 315.798 0.475794 2.24207 0
M  V30 3297 C 316.798 -0.419428 1.55234 0
M  V30 3298 O 317.988 -0.216994 1.72843 0
M  V30 3299 C 315.12 -0.312814 3.39462 0
M  V30 3300 H 316.313 1.34779 2.67908 0
M  V30 3301 H 313.866 0.735739 1.37901 0
M  V30 3302 H 314.601 -1.20257 3.01179 0
M  V30 3303 H 314.386 0.329404 3.90714 0
M  V30 3304 H 315.876 -0.635986 4.12729 0
M  V30 3305 N 316.313 -1.40141 0.720998 0
M  V30 3306 C 317.538 -2.05618 0.271258 0
M  V30 3307 C 317.963 -1.53978 -1.08039 0
M  V30 3308 O 317.321 -0.677463 -1.68167 0
M  V30 3309 C 317.369 -3.59609 0.267197 0
M  V30 3310 O 316.473 -4.05526 -0.749814 0
M  V30 3311 H 315.814 -0.651904 0.126162 0
M  V30 3312 H 318.344 -1.79439 0.982997 0
M  V30 3313 H 318.354 -4.0786 0.106744 0
M  V30 3314 H 317.029 -3.96559 1.25354 0
M  V30 3315 H 315.606 -3.68722 -0.556644 0
M  V30 3316 N 317.792 -0.46758 -1.50504 0
M  V30 3317 C 319.017 0.0886943 -2.0721 0
M  V30 3318 C 319.442 1.33057 -1.32956 0
M  V30 3319 O 318.8 1.77354 -0.376197 0
M  V30 3320 C 318.848 0.359202 -3.58806 0
M  V30 3321 O 317.952 1.44034 -3.8643 0
M  V30 3322 H 317.293 -0.0114349 -0.663902 0
M  V30 3323 H 319.823 -0.657613 -1.93744 0
M  V30 3324 H 319.833 0.600742 -4.03553 0
M  V30 3325 H 318.508 -0.548311 -4.1227 0
M  V30 3326 H 317.085 1.18638 -3.53524 0
M  V30 3327 N 319.27 1.56325 -0.20005 0
M  V30 3328 C 320.2 2.22318 0.713916 0
M  V30 3329 C 321.181 1.18788 1.21752 0
M  V30 3330 O 322.366 1.47309 1.26545 0
M  V30 3331 C 319.496 2.88639 1.93144 0
M  V30 3332 C 318.45 3.98457 1.56255 0
M  V30 3333 C 317.776 4.51967 2.85709 0
M  V30 3334 C 319.076 5.16612 0.768747 0
M  V30 3335 H 320.77 2.98952 0.163755 0
M  V30 3336 H 318.316 1.43792 0.0773219 0
M  V30 3337 H 320.269 3.33491 2.57608 0
M  V30 3338 H 318.993 2.09419 2.50621 0
M  V30 3339 H 317.652 3.54305 0.941471 0
M  V30 3340 H 317.3 3.69503 3.41287 0
M  V30 3341 H 317 5.26071 2.6177 0
M  V30 3342 H 318.524 4.99523 3.51154 0
M  V30 3343 H 319.938 5.57977 1.3166 0
M  V30 3344 H 318.335 5.96812 0.627286 0
M  V30 3345 H 319.405 4.84358 -0.229168 0
M  V30 3346 N 320.748 -0.0735177 1.57428 0
M  V30 3347 C 322.164 -0.428264 1.53747 0
M  V30 3348 C 322.364 -1.79272 0.91998 0
M  V30 3349 O 321.42 -2.47051 0.521745 0
M  V30 3350 C 322.733 -0.370914 2.98404 0
M  V30 3351 C 324.281 -0.451224 3.0973 0
M  V30 3352 C 324.756 -0.4238 4.56035 0
M  V30 3353 N 326.247 -0.483925 4.60665 0
M  V30 3354 C 326.982 -0.484891 5.71346 0
M  V30 3355 N 326.478 -0.440775 6.91396 0
M  V30 3356 N 328.271 -0.531319 5.59583 0
M  V30 3357 H 320.422 0.819949 1.95935 0
M  V30 3358 H 322.685 0.307493 0.896745 0
M  V30 3359 H 322.391 0.564956 3.47133 0
M  V30 3360 H 322.265 -1.18176 3.5821 0
M  V30 3361 H 324.652 -1.37752 2.60976 0
M  V30 3362 H 324.733 0.388167 2.52838 0
M  V30 3363 H 324.377 0.498638 5.05446 0
M  V30 3364 H 324.307 -1.2807 5.10789 0
M  V30 3365 H 326.798 -0.522338 3.74273 0
M  V30 3366 H 327.111 -0.44539 7.71515 0
M  V30 3367 H 325.456 -0.40749 6.93804 0
M  V30 3368 H 328.647 -0.563464 4.64696 0
M  V30 3369 H 328.82 -0.528603 6.4584 0
M  V30 3370 N 322.226 -1.5378 -0.344866 0
M  V30 3371 C 323.451 -1.75211 -1.10977 0
M  V30 3372 C 323.876 -0.48936 -1.81623 0
M  V30 3373 O 323.234 0.557925 -1.72502 0
M  V30 3374 C 323.282 -2.93147 -2.09993 0
M  V30 3375 O 322.386 -2.63203 -3.17487 0
M  V30 3376 H 321.727 -0.581241 -0.321021 0
M  V30 3377 H 324.257 -2.00738 -0.395661 0
M  V30 3378 H 324.267 -3.19898 -2.53237 0
M  V30 3379 H 322.942 -3.84731 -1.5797 0
M  V30 3380 H 321.519 -2.47336 -2.79069 0
M  V30 3381 N 323.704 0.605807 -1.45491 0
M  V30 3382 C 324.952 1.36207 -1.49305 0
M  V30 3383 C 325.273 1.94519 -0.136863 0
M  V30 3384 O 324.543 1.77261 0.833983 0
M  V30 3385 H 323.123 0.50565 -0.549843 0
M  V30 3386 H 325.785 0.711239 -1.81459 0
M  V30 3387 H 324.881 2.18058 -2.23287 0
M  V30 3388 N 325.182 1.32811 0.848464 0
M  V30 3389 C 326.092 1.24278 1.98978 0
M  V30 3390 C 327.108 0.155176 1.73307 0
M  V30 3391 O 328.284 0.376999 1.9784 0
M  V30 3392 C 325.349 0.972444 3.32783 0
M  V30 3393 C 324.41 2.14911 3.71634 0
M  V30 3394 C 323.643 1.89157 4.99054 0
M  V30 3395 O 323.866 0.837165 5.64223 0
M  V30 3396 O 322.8 2.75433 5.35183 0
M  V30 3397 H 326.626 2.20238 2.09115 0
M  V30 3398 H 324.211 1.12762 0.980052 0
M  V30 3399 H 326.093 0.838432 4.12975 0
M  V30 3400 H 324.768 0.043051 3.23671 0
M  V30 3401 H 323.675 2.33862 2.91992 0
M  V30 3402 H 325.008 3.06151 3.85399 0
M  V30 3403 N 326.66 -1.06551 1.16123 0
M  V30 3404 C 327.885 -1.83544 0.965735 0
M  V30 3405 C 328.31 -1.81843 -0.481102 0
M  V30 3406 O 327.668 -1.21732 -1.34354 0
M  V30 3407 C 327.716 -3.28169 1.49457 0
M  V30 3408 O 326.82 -4.0643 0.699157 0
M  V30 3409 H 326.161 -0.568026 0.343864 0
M  V30 3410 H 328.691 -1.34362 1.54299 0
M  V30 3411 H 328.701 -3.78992 1.51092 0
M  V30 3412 H 327.376 -3.28722 2.54784 0
M  V30 3413 H 325.953 -3.65216 0.7531 0
M  V30 3414 N 328.138 -0.959301 -1.25041 0
M  V30 3415 C 329.387 -0.612254 -1.92183 0
M  V30 3416 C 329.7 0.855347 -1.75907 0
M  V30 3417 O 330.906 1.31256 -2.37664 0
M  V30 3418 C 329.362 -1.04435 -3.44414 0
M  V30 3419 C 328.97 -2.53482 -3.69393 0
M  V30 3420 C 330.714 -0.770055 -4.17457 0
M  V30 3421 C 328.621 -2.90468 -5.15153 0
M  V30 3422 H 327.551 -0.225279 -0.719559 0
M  V30 3423 H 330.202 -1.16438 -1.41825 0
M  V30 3424 H 328.584 -0.4206 -3.9376 0
M  V30 3425 H 329.758 -3.20916 -3.30681 0
M  V30 3426 H 328.073 -2.78432 -3.0962 0
M  V30 3427 H 330.67 -1.02249 -5.24832 0
M  V30 3428 H 331.013 0.293611 -4.15263 0
M  V30 3429 H 331.546 -1.35437 -3.74034 0
M  V30 3430 H 328.285 -3.95871 -5.22462 0
M  V30 3431 H 327.805 -2.27711 -5.54894 0
M  V30 3432 H 329.484 -2.79914 -5.83315 0
M  V30 3433 N 329.616 1.39756 -0.72842 0
M  V30 3434 C 330.863 2.00645 -0.273487 0
M  V30 3435 C 331.191 1.57786 1.13727 0
M  V30 3436 O 330.446 0.794886 1.7883 0
M  V30 3437 C 330.745 3.56002 -0.315776 0
M  V30 3438 C 330.411 4.18489 -1.67863 0
M  V30 3439 C 329.073 4.3527 -2.05166 0
M  V30 3440 C 331.425 4.53219 -2.57375 0
M  V30 3441 C 328.753 4.84069 -3.31503 0
M  V30 3442 C 331.105 5.03423 -3.83077 0
M  V30 3443 C 329.769 5.18413 -4.20481 0
M  V30 3444 H 329.039 0.734211 -0.100076 0
M  V30 3445 H 331.686 1.6718 -0.933972 0
M  V30 3446 H 329.991 3.89452 0.428285 0
M  V30 3447 H 331.688 4.00963 0.0542575 0
M  V30 3448 H 328.278 4.05824 -1.37858 0
M  V30 3449 H 332.462 4.39878 -2.29827 0
M  V30 3450 H 327.718 4.93859 -3.60435 0
M  V30 3451 H 331.892 5.2927 -4.52599 0
M  V30 3452 H 329.519 5.55987 -5.18443 0
M  V30 3453 N 331.094 0.475555 1.50254 0
M  V30 3454 C 332.319 -0.0777042 2.07254 0
M  V30 3455 C 332.744 -1.3235 1.3366 0
M  V30 3456 O 332.102 -1.77152 0.385597 0
M  V30 3457 C 332.15 -0.340169 3.58992 0
M  V30 3458 O 331.254 -1.41982 3.87188 0
M  V30 3459 H 330.595 0.0149556 0.663832 0
M  V30 3460 H 333.125 0.667878 1.93392 0
M  V30 3461 H 333.135 -0.579332 4.03866 0
M  V30 3462 H 331.81 0.570167 4.11973 0
M  V30 3463 H 330.387 -1.16762 3.54148 0
M  V30 3464 N 332.573 -1.56217 0.208337 0
M  V30 3465 C 333.798 -2.02782 -0.435222 0
M  V30 3466 C 334.223 -1.08738 -1.53485 0
M  V30 3467 O 333.581 -0.0731855 -1.81152 0
M  V30 3468 C 333.629 -3.47687 -0.956335 0
M  V30 3469 O 332.733 -3.56773 -2.06849 0
M  V30 3470 H 332.074 -0.656403 -0.100158 0
M  V30 3471 H 334.604 -2.02033 0.3231 0
M  V30 3472 H 334.614 -3.87745 -1.26955 0
M  V30 3473 H 333.289 -4.15624 -0.15143 0
M  V30 3474 H 331.866 -3.28597 -1.76292 0
M  V30 3475 N 334.051 0.0651679 -1.57465 0
M  V30 3476 C 334.981 1.07693 -2.07182 0
M  V30 3477 C 335.962 1.39962 -0.966673 0
M  V30 3478 O 337.147 1.49475 -1.2398 0
M  V30 3479 C 334.277 2.3885 -2.52127 0
M  V30 3480 C 333.231 2.20917 -3.66579 0
M  V30 3481 C 332.557 3.57515 -3.97601 0
M  V30 3482 C 333.857 1.62493 -4.9638 0
M  V30 3483 H 335.551 0.663199 -2.91962 0
M  V30 3484 H 333.097 0.317569 -1.40455 0
M  V30 3485 H 335.05 3.09928 -2.85522 0
M  V30 3486 H 333.774 2.82215 -1.64384 0
M  V30 3487 H 332.433 1.52279 -3.33477 0
M  V30 3488 H 332.081 3.98463 -3.06979 0
M  V30 3489 H 331.781 3.46353 -4.74672 0
M  V30 3490 H 333.305 4.30013 -4.33499 0
M  V30 3491 H 334.719 2.23445 -5.27963 0
M  V30 3492 H 333.116 1.62009 -5.77818 0
M  V30 3493 H 334.186 0.587041 -4.81333 0
M  V30 3494 N 335.529 1.53961 0.336706 0
M  V30 3495 C 336.492 1.81724 1.39675 0
M  V30 3496 C 337.492 0.688532 1.45313 0
M  V30 3497 O 338.682 0.956829 1.45569 0
M  V30 3498 C 335.814 1.96543 2.78538 0
M  V30 3499 H 337.007 2.76424 1.16318 0
M  V30 3500 H 334.56 1.45478 0.571474 0
M  V30 3501 H 335.295 1.0401 3.07168 0
M  V30 3502 H 335.08 2.78665 2.75841 0
M  V30 3503 H 336.57 2.19516 3.5525 0
M  V30 3504 N 337.007 -0.598083 1.45811 0
M  V30 3505 C 338.255 -1.35413 1.50026 0
M  V30 3506 C 338.576 -1.94444 0.147177 0
M  V30 3507 O 337.846 -1.77701 -0.824571 0
M  V30 3508 H 336.426 -0.502727 0.552517 0
M  V30 3509 H 339.088 -0.701606 1.81834 0
M  V30 3510 H 338.184 -2.16871 2.2444 0
M  V30 3511 N 338.485 -1.33259 -0.841409 0
M  V30 3512 C 339.433 -1.23279 -1.97244 0
M  V30 3513 C 340.427 -0.134706 -1.68864 0
M  V30 3514 O 341.633 -0.298501 -1.77508 0
M  V30 3515 H 338.008 -0.382497 -0.647457 0
M  V30 3516 H 339.979 -2.18906 -2.02787 0
M  V30 3517 C 338.728 -0.986268 -3.33419 0
M  V30 3518 H 338.051 -1.82347 -3.55794 0
M  V30 3519 H 339.491 -0.956728 -4.13065 0
M  V30 3520 C 337.95 0.310842 -3.35463 0
M  V30 3521 O 338.48 1.31838 -3.79449 0
M  V30 3522 N 336.686 0.337485 -2.88634 0
M  V30 3523 H 336.233 -0.482967 -2.53032 0
M  V30 3524 H 336.191 1.20518 -2.90384 0
M  V30 3525 N 339.963 1.05934 -1.16686 0
M  V30 3526 C 340.926 2.11669 -0.879144 0
M  V30 3527 C 341.926 1.60294 0.127445 0
M  V30 3528 O 343.116 1.7389 -0.103865 0
M  V30 3529 C 340.248 3.39438 -0.315425 0
M  V30 3530 H 341.441 2.38626 -1.81653 0
M  V30 3531 H 338.994 1.22058 -0.976299 0
M  V30 3532 H 339.729 3.18132 0.629468 0
M  V30 3533 H 339.514 3.78034 -1.04079 0
M  V30 3534 H 341.004 4.17391 -0.132189 0
M  V30 3535 N 341.441 0.965919 1.2453 0
M  V30 3536 C 342.404 0.499547 2.2369 0
M  V30 3537 C 343.404 -0.40294 1.5567 0
M  V30 3538 O 344.594 -0.19865 1.73064 0
M  V30 3539 C 341.726 -0.276792 3.39774 0
M  V30 3540 H 342.919 1.37613 2.66463 0
M  V30 3541 H 340.472 0.750324 1.37112 0
M  V30 3542 H 341.207 -1.17055 3.02438 0
M  V30 3543 H 340.992 0.370826 3.90343 0
M  V30 3544 H 342.482 -0.592175 4.1338 0
M  V30 3545 N 342.919 -1.39368 0.735821 0
M  V30 3546 C 343.849 -2.33234 0.111506 0
M  V30 3547 C 344.83 -1.53954 -0.723334 0
M  V30 3548 O 346.015 -1.82344 -0.668147 0
M  V30 3549 C 343.145 -3.38057 -0.795917 0
M  V30 3550 C 342.099 -4.2795 -0.065172 0
M  V30 3551 C 341.425 -5.23479 -1.08967 0
M  V30 3552 C 342.725 -5.10741 1.09273 0
M  V30 3553 H 344.419 -2.85692 0.895571 0
M  V30 3554 H 341.965 -1.37364 0.432109 0
M  V30 3555 H 343.918 -4.02675 -1.24221 0
M  V30 3556 H 342.642 -2.8404 -1.61211 0
M  V30 3557 H 341.301 -3.64813 0.361511 0
M  V30 3558 H 340.949 -4.65758 -1.89944 0
M  V30 3559 H 340.649 -5.84472 -0.605489 0
M  V30 3560 H 342.173 -5.90974 -1.53565 0
M  V30 3561 H 343.587 -5.68699 0.724841 0
M  V30 3562 H 341.984 -5.8088 1.50659 0
M  V30 3563 H 343.054 -4.45525 1.91404 0
M  V30 3564 N 344.397 -0.483516 -1.5 0
M  V30 3565 C 345.808 -0.0314176 -1.86674 0
M  V30 3566 C 346.159 1.37728 -1.39733 0
M  V30 3567 O 345.284 2.02327 -0.767635 0
M  V30 3568 C 345.879 -0.0502376 -3.38763 0
M  V30 3569 C 344.438 0.346442 -3.74802 0
M  V30 3570 C 343.585 -0.430366 -2.7394 0
M  V30 3571 H 346.536 -0.697182 -1.42566 0
M  V30 3572 H 346.557 0.749116 -3.73053 0
M  V30 3573 H 346.069 -1.07563 -3.72897 0
M  V30 3574 H 344.17 1.37572 -3.46273 0
M  V30 3575 H 344.283 0.0391486 -4.79084 0
M  V30 3576 H 342.647 0.117557 -2.54429 0
M  V30 3577 H 343.43 -1.4555 -3.10918 0
M  V30 3578 N 345.875 1.56104 -0.216619 0
M  V30 3579 C 347.286 1.844 0.292128 0
M  V30 3580 C 347.637 1.13788 1.59833 0
M  V30 3581 O 346.762 0.405888 2.12559 0
M  V30 3582 C 347.357 3.3452 0.53681 0
M  V30 3583 C 345.916 3.63151 0.989876 0
M  V30 3584 C 345.063 2.77255 0.0502302 0
M  V30 3585 H 348.014 1.52481 -0.439926 0
M  V30 3586 H 348.035 3.54459 1.38345 0
M  V30 3587 H 347.547 3.85885 -0.414031 0
M  V30 3588 H 345.648 3.17238 1.95425 0
M  V30 3589 H 345.761 4.71177 0.867698 0
M  V30 3590 H 344.125 2.48555 0.556117 0
M  V30 3591 H 344.908 3.31416 -0.89544 0
M  V30 3592 N 347.353 -0.0568162 1.57498 0
M  V30 3593 C 348.263 -1.08346 2.08083 0
M  V30 3594 C 349.279 -1.41439 1.01346 0
M  V30 3595 O 350.455 -1.51316 1.32912 0
M  V30 3596 C 347.52 -2.37352 2.52715 0
M  V30 3597 C 346.581 -2.11093 3.73816 0
M  V30 3598 C 345.814 -3.33949 4.1631 0
M  V30 3599 O 346.037 -4.43622 3.58547 0
M  V30 3600 O 344.971 -3.21279 5.08983 0
M  V30 3601 H 348.797 -0.683667 2.95905 0
M  V30 3602 H 346.382 -0.271965 1.46904 0
M  V30 3603 H 348.264 -3.13246 2.81877 0
M  V30 3604 H 346.939 -2.76681 1.68016 0
M  V30 3605 H 345.846 -1.32856 3.49714 0
M  V30 3606 H 347.179 -1.76637 4.59413 0
M  V30 3607 N 348.832 -1.54138 -0.328536 0
M  V30 3608 C 350.08 -1.71765 -1.06496 0
M  V30 3609 C 350.401 -0.49149 -1.88704 0
M  V30 3610 O 349.671 0.494539 -1.89555 0
M  V30 3611 H 348.251 -0.633295 -0.396164 0
M  V30 3612 H 350.913 -1.91429 -0.366176 0
M  V30 3613 H 350.009 -2.5951 -1.73381 0
M  V30 3614 N 350.31 0.590341 -1.46126 0
M  V30 3615 C 351.273 1.68194 -1.55703 0
M  V30 3616 C 352.273 1.54808 -0.434868 0
M  V30 3617 O 353.463 1.59564 -0.698928 0
M  V30 3618 C 350.595 3.07575 -1.47005 0
M  V30 3619 H 351.788 1.61064 -2.52979 0
M  V30 3620 H 349.341 0.807541 -1.33823 0
M  V30 3621 H 350.076 3.20268 -0.509785 0
M  V30 3622 H 349.861 3.187 -2.28414 0
M  V30 3623 H 351.351 3.87055 -1.56776 0
M  V30 3624 N 351.788 1.33704 0.83433 0
M  V30 3625 C 353.036 1.25169 1.58673 0
M  V30 3626 C 353.357 -0.18127 1.94156 0
M  V30 3627 O 352.627 -1.11113 1.6134 0
M  V30 3628 H 351.207 0.4603 0.58833 0
M  V30 3629 H 353.869 1.67478 0.996847 0
M  V30 3630 H 352.965 1.84856 2.51465 0
M  V30 3631 N 353.266 -1.05314 1.17247 0
M  V30 3632 C 354.196 -2.1498 0.911362 0
M  V30 3633 C 355.177 -1.69471 -0.146169 0
M  V30 3634 O 356.362 -1.942 0.003812 0
M  V30 3635 C 353.492 -3.4472 0.422528 0
M  V30 3636 C 352.446 -4.03789 1.4191 0
M  V30 3637 C 351.772 -5.28858 0.788274 0
M  V30 3638 C 353.072 -4.41418 2.7919 0
M  V30 3639 H 354.766 -2.3708 1.82848 0
M  V30 3640 H 352.312 -1.13938 0.880569 0
M  V30 3641 H 354.265 -4.20787 0.227289 0
M  V30 3642 H 352.989 -3.22269 -0.530123 0
M  V30 3643 H 351.648 -3.2979 1.60106 0
M  V30 3644 H 351.296 -5.02709 -0.171173 0
M  V30 3645 H 350.996 -5.69338 1.45353 0
M  V30 3646 H 352.52 -6.07612 0.603282 0
M  V30 3647 H 353.934 -5.08524 2.64719 0
M  V30 3648 H 352.331 -4.92913 3.42282 0
M  V30 3649 H 353.401 -3.51819 3.33693 0
M  V30 3650 N 354.744 -0.972509 -1.24016 0
M  V30 3651 C 355.676 -0.464375 -2.24446 0
M  V30 3652 C 356.689 0.4295 -1.57032 0
M  V30 3653 O 357.878 0.234902 -1.76948 0
M  V30 3654 C 354.978 0.348385 -3.37105 0
M  V30 3655 C 354.151 -0.53673 -4.34094 0
M  V30 3656 C 353.21 0.220838 -5.25736 0
M  V30 3657 O 352.236 -0.386867 -5.67884 0
M  V30 3658 N 353.438 1.50907 -5.60542 0
M  V30 3659 H 356.203 -1.32788 -2.68677 0
M  V30 3660 H 353.764 -0.844877 -1.38107 0
M  V30 3661 H 355.756 0.863341 -3.95384 0
M  V30 3662 H 354.326 1.11285 -2.92121 0
M  V30 3663 H 353.546 -1.23261 -3.74433 0
M  V30 3664 H 354.834 -1.14022 -4.95859 0
M  V30 3665 H 354.232 2.02444 -5.28236 0
M  V30 3666 H 352.789 1.96962 -6.21329 0
M  V30 3667 N 356.222 1.38976 -0.743202 0
M  V30 3668 C 357.155 2.28128 -0.0572165 0
M  V30 3669 C 358.133 1.44827 0.739182 0
M  V30 3670 O 359.317 1.74207 0.720009 0
M  V30 3671 C 356.444 3.25796 0.926001 0
M  V30 3672 C 355.49 4.25947 0.217099 0
M  V30 3673 S 356.323 5.24604 -1.07477 0
M  V30 3674 C 357.479 6.25829 -0.0943545 0
M  V30 3675 H 357.712 2.85961 -0.813246 0
M  V30 3676 H 355.245 1.44822 -0.535341 0
M  V30 3677 H 357.203 3.82583 1.48797 0
M  V30 3678 H 355.864 2.66966 1.65493 0
M  V30 3679 H 355.057 4.94746 0.961372 0
M  V30 3680 H 354.659 3.73002 -0.273059 0
M  V30 3681 H 356.951 6.73411 0.743239 0
M  V30 3682 H 357.894 7.0412 -0.749713 0
M  V30 3683 H 358.302 5.63797 0.281706 0
M  V30 3684 N 357.7 0.491464 1.49741 0
M  V30 3685 C 358.928 -0.0535151 2.06831 0
M  V30 3686 C 359.343 -1.31683 1.35296 0
M  V30 3687 O 358.7 -1.77402 0.42836 0
M  V30 3688 C 358.751 -0.320835 3.60073 0
M  V30 3689 O 358.472 0.892394 4.28915 0
M  V30 3690 C 359.973 -0.910519 4.33848 0
M  V30 3691 H 357.193 0.0161909 0.670805 0
M  V30 3692 H 359.737 0.68609 1.92647 0
M  V30 3693 H 357.892 -1.0104 3.73991 0
M  V30 3694 H 358.306 0.649401 5.20464 0
M  V30 3695 H 359.78 -1.04721 5.41976 0
M  V30 3696 H 360.257 -1.90589 3.95692 0
M  V30 3697 H 360.863 -0.258712 4.24512 0
M  V30 3698 N 359.178 -1.55987 0.224894 0
M  V30 3699 C 360.403 -2.03232 -0.41369 0
M  V30 3700 C 360.828 -1.10359 -1.52323 0
M  V30 3701 O 360.186 -0.092395 -1.81064 0
M  V30 3702 C 360.234 -3.48682 -0.919405 0
M  V30 3703 O 359.338 -3.58947 -2.03054 0
M  V30 3704 H 358.679 -0.657428 -0.0931903 0
M  V30 3705 H 361.209 -2.01679 0.34451 0
M  V30 3706 H 361.219 -3.8907 -1.22835 0
M  V30 3707 H 359.894 -4.15761 -0.107339 0
M  V30 3708 H 358.471 -3.30448 -1.72796 0
M  V30 3709 N 360.656 0.0484629 -1.57525 0
M  V30 3710 C 361.603 1.05504 -2.05275 0
M  V30 3711 C 362.573 1.37084 -0.937927 0
M  V30 3712 O 363.758 1.47754 -1.2072 0
M  V30 3713 C 360.898 2.35676 -2.52093 0
M  V30 3714 C 360.011 2.10423 -3.77288 0
M  V30 3715 C 359.146 3.34327 -4.12794 0
M  V30 3716 C 358.185 3.04542 -5.30962 0
M  V30 3717 N 357.322 4.20841 -5.61994 0
M  V30 3718 H 362.162 0.640885 -2.91027 0
M  V30 3719 H 359.699 0.304854 -1.43906 0
M  V30 3720 H 361.657 3.11709 -2.77297 0
M  V30 3721 H 360.287 2.7485 -1.69285 0
M  V30 3722 H 359.339 1.24976 -3.59284 0
M  V30 3723 H 360.651 1.84438 -4.63448 0
M  V30 3724 H 359.805 4.1874 -4.39024 0
M  V30 3725 H 358.544 3.63408 -3.25247 0
M  V30 3726 H 357.549 2.18528 -5.04505 0
M  V30 3727 H 358.774 2.76758 -6.20146 0
M  V30 3728 H 356.72 4.4991 -4.77406 0
M  V30 3729 H 356.637 3.98212 -6.42622 0
M  V30 3730 H 357.905 5.06184 -5.92789 0
M  V30 3731 N 362.134 1.5431 0.320358 0
M  V30 3732 C 363.364 1.7638 1.07582 0
M  V30 3733 C 363.772 0.513944 1.82086 0
M  V30 3734 O 363.115 -0.525123 1.76035 0
M  V30 3735 C 363.177 2.9055 2.1171 0
M  V30 3736 C 362.841 4.2934 1.56575 0
M  V30 3737 C 363.838 5.10077 1.00586 0
M  V30 3738 C 361.523 4.75893 1.60722 0
M  V30 3739 C 363.517 6.35477 0.494756 0
M  V30 3740 C 361.204 6.0126 1.09224 0
M  V30 3741 C 362.202 6.80886 0.53696 0
M  V30 3742 O 361.89 8.03894 0.0297371 0
M  V30 3743 H 361.622 0.592369 0.325692 0
M  V30 3744 H 364.176 2.02019 0.37116 0
M  V30 3745 H 362.406 2.60489 2.85801 0
M  V30 3746 H 364.095 3.00373 2.73003 0
M  V30 3747 H 364.861 4.75265 0.966869 0
M  V30 3748 H 360.74 4.13957 2.02882 0
M  V30 3749 H 364.284 6.97574 0.0606842 0
M  V30 3750 H 360.181 6.35562 1.12831 0
M  V30 3751 H 360.949 8.18372 0.14486 0
M  V30 3752 N 363.613 -0.582584 1.46437 0
M  V30 3753 C 364.861 -1.33814 1.51453 0
M  V30 3754 C 365.182 -1.94277 0.167792 0
M  V30 3755 O 364.452 -1.78566 -0.805677 0
M  V30 3756 H 363.032 -0.496838 0.557818 0
M  V30 3757 H 365.694 -0.682281 1.82568 0
M  V30 3758 H 364.79 -2.14479 2.26728 0
M  V30 3759 N 365.091 -1.34144 -0.827227 0
M  V30 3760 C 366.316 -1.29476 -1.62021 0
M  V30 3761 C 366.741 0.129292 -1.87655 0
M  V30 3762 O 366.099 1.08967 -1.449 0
M  V30 3763 C 366.147 -2.08702 -2.94068 0
M  V30 3764 O 365.251 -1.45359 -3.85933 0
M  V30 3765 H 364.592 -0.444881 -0.492927 0
M  V30 3766 H 367.122 -1.76882 -1.02829 0
M  V30 3767 H 367.132 -2.19898 -3.43669 0
M  V30 3768 H 365.807 -3.12241 -2.74734 0
M  V30 3769 H 364.384 -1.42879 -3.44442 0
M  V30 3770 N 366.569 1.04691 -1.17803 0
M  V30 3771 C 367.817 1.7743 -0.967617 0
M  V30 3772 C 368.138 1.88359 0.504574 0
M  V30 3773 O 367.408 1.40402 1.36617 0
M  V30 3774 H 365.988 0.657242 -0.355024 0
M  V30 3775 H 368.65 1.2638 -1.48371 0
M  V30 3776 H 367.746 2.78924 -1.40027 0
M  V30 3777 N 368.047 0.979072 1.23499 0
M  V30 3778 C 368.98 0.463027 2.23453 0
M  V30 3779 C 369.958 -0.469128 1.55685 0
M  V30 3780 O 371.142 -0.397882 1.84253 0
M  V30 3781 C 368.269 -0.330308 3.37086 0
M  V30 3782 C 367.315 0.545795 4.22993 0
M  V30 3783 S 368.148 1.99285 4.97037 0
M  V30 3784 C 369.304 1.20862 6.1412 0
M  V30 3785 H 369.537 1.31005 2.6688 0
M  V30 3786 H 367.07 0.784965 1.32957 0
M  V30 3787 H 369.028 -0.782027 4.02982 0
M  V30 3788 H 367.689 -1.15244 2.92194 0
M  V30 3789 H 366.882 -0.0638928 5.03959 0
M  V30 3790 H 366.484 0.933705 3.62157 0
M  V30 3791 H 368.776 0.469284 6.75873 0
M  V30 3792 H 369.719 1.99307 6.79472 0
M  V30 3793 H 370.127 0.727992 5.59786 0
M  V30 3794 N 369.525 -1.3858 0.750561 0
M  V30 3795 C 370.773 -1.99789 0.30477 0
M  V30 3796 C 371.094 -1.59874 -1.11649 0
M  V30 3797 O 370.364 -0.85417 -1.76297 0
M  V30 3798 H 368.944 -0.738902 0.109694 0
M  V30 3799 H 371.606 -1.69391 0.963983 0
M  V30 3800 H 370.702 -3.09952 0.365499 0
M  V30 3801 N 371.003 -0.499398 -1.49478 0
M  V30 3802 C 372.249 0.0457576 -2.02748 0
M  V30 3803 C 372.582 1.36793 -1.37846 0
M  V30 3804 O 371.857 1.87596 -0.513601 0
M  V30 3805 C 372.14 0.199986 -3.59544 0
M  V30 3806 C 371.993 -1.1452 -4.34977 0
M  V30 3807 C 373.312 0.94137 -4.29914 0
M  V30 3808 H 370.431 0.0151552 -0.736844 0
M  V30 3809 H 373.073 -0.650498 -1.78518 0
M  V30 3810 H 371.223 0.793007 -3.8032 0
M  V30 3811 H 372.895 -1.77697 -4.25701 0
M  V30 3812 H 371.138 -1.73488 -3.97598 0
M  V30 3813 H 371.809 -0.990607 -5.43039 0
M  V30 3814 H 374.285 0.43844 -4.13784 0
M  V30 3815 H 373.161 1.01812 -5.39375 0
M  V30 3816 H 373.422 1.98471 -3.95046 0
M  V30 3817 N 372.481 1.55866 -0.233164 0
M  V30 3818 C 373.411 2.23783 0.666599 0
M  V30 3819 C 374.392 1.21343 1.19205 0
M  V30 3820 O 375.577 1.4996 1.23392 0
M  V30 3821 C 372.707 2.92671 1.86978 0
M  V30 3822 C 371.661 4.01682 1.47768 0
M  V30 3823 C 370.987 4.57926 2.76058 0
M  V30 3824 C 372.287 5.18126 0.658993 0
M  V30 3825 H 373.981 2.99232 0.100306 0
M  V30 3826 H 371.527 1.43924 0.046804 0
M  V30 3827 H 373.48 3.3888 2.50476 0
M  V30 3828 H 372.204 2.14688 2.46123 0
M  V30 3829 H 370.863 3.56222 0.866106 0
M  V30 3830 H 370.511 3.76659 3.33372 0
M  V30 3831 H 370.211 5.31505 2.50552 0
M  V30 3832 H 371.735 5.06859 3.40479 0
M  V30 3833 H 373.149 5.60644 1.19795 0
M  V30 3834 H 371.546 5.98009 0.500552 0
M  V30 3835 H 372.616 4.83763 -0.331856 0
M  V30 3836 N 373.959 -0.0401083 1.57549 0
M  V30 3837 C 375.205 -0.728793 1.89895 0
M  V30 3838 C 375.56 -1.73551 0.830535 0
M  V30 3839 O 374.853 -1.90914 -0.162007 0
M  V30 3840 C 375.047 -1.44902 3.26708 0
M  V30 3841 C 374.876 -0.513568 4.46758 0
M  V30 3842 C 373.646 -0.138698 5.0511 0
M  V30 3843 C 375.844 0.203341 5.13898 0
M  V30 3844 N 373.826 0.799159 6.08676 0
M  V30 3845 C 375.197 0.997246 6.11927 0
M  V30 3846 C 377.252 0.271459 4.97159 0
M  V30 3847 C 375.955 1.85299 6.95023 0
M  V30 3848 C 377.981 1.11429 5.80808 0
M  V30 3849 C 377.343 1.89615 6.78399 0
M  V30 3850 H 373.442 -0.241125 0.743897 0
M  V30 3851 H 376.026 0.0108016 1.94697 0
M  V30 3852 H 374.197 -2.15914 3.22856 0
M  V30 3853 H 375.929 -2.08921 3.46603 0
M  V30 3854 H 372.684 -0.498496 4.70969 0
M  V30 3855 H 373.108 1.26227 6.65128 0
M  V30 3856 H 377.75 -0.318709 4.21597 0
M  V30 3857 H 375.468 2.454 7.69938 0
M  V30 3858 H 379.054 1.17038 5.69906 0
M  V30 3859 H 377.934 2.53779 7.42001 0
M  V30 3860 N 375.437 -1.54477 -0.31217 0
M  V30 3861 C 376.714 -1.63891 -1.06767 0
M  V30 3862 C 377.094 -0.480028 -2.0557 0
M  V30 3863 O 376.442 0.524487 -2.22399 0
M  V30 3864 C 376.652 -3.01402 -1.75948 0
M  V30 3865 C 378 -3.57838 -2.28554 0
M  V30 3866 O 379.024 -3.03782 -1.85998 0
M  V30 3867 O 377.883 -4.52462 -3.06497 0
M  V30 3868 H 374.977 -0.664125 -0.492816 0
M  V30 3869 H 377.523 -1.66823 -0.311149 0
M  V30 3870 H 376.295 -3.77187 -1.04144 0
M  V30 3871 H 375.918 -3.02199 -2.58383 0
M  V30 3872 N 376.915 0.57481 -1.46744 0
M  V30 3873 C 378.163 1.33009 -1.52161 0
M  V30 3874 C 378.484 1.94185 -0.178092 0
M  V30 3875 O 377.754 1.7899 0.796196 0
M  V30 3876 H 376.334 0.493873 -0.560445 0
M  V30 3877 H 378.996 0.672589 -1.82927 0
M  V30 3878 H 378.092 2.13273 -2.27862 0
M  V30 3879 N 378.394 1.34581 0.820102 0
M  V30 3880 C 379.624 1.29991 1.6058 0
M  V30 3881 C 380.032 -0.127588 1.88769 0
M  V30 3882 O 379.375 -1.08595 1.48165 0
M  V30 3883 C 379.437 2.02548 2.9701 0
M  V30 3884 C 379.101 3.51794 2.91701 0
M  V30 3885 C 380.098 4.46647 2.66087 0
M  V30 3886 C 377.783 3.94249 3.11245 0
M  V30 3887 C 379.777 5.81929 2.60071 0
M  V30 3888 C 377.464 5.2963 3.04853 0
M  V30 3889 C 378.462 6.23282 2.793 0
M  V30 3890 O 378.15 7.56181 2.72847 0
M  V30 3891 H 377.882 0.448539 0.505756 0
M  V30 3892 H 380.436 1.77811 1.02822 0
M  V30 3893 H 378.666 1.49345 3.56697 0
M  V30 3894 H 380.355 1.91211 3.58041 0
M  V30 3895 H 381.121 4.15168 2.5072 0
M  V30 3896 H 377 3.21749 3.30149 0
M  V30 3897 H 380.544 6.54999 2.40046 0
M  V30 3898 H 376.441 5.60727 3.19774 0
M  V30 3899 H 377.209 7.6595 2.88553 0
M  V30 3900 N 379.872 -1.04064 1.18357 0
M  V30 3901 C 381.097 -1.81454 1.00445 0
M  V30 3902 C 381.522 -1.82823 -0.442423 0
M  V30 3903 O 380.88 -1.24555 -1.31741 0
M  V30 3904 C 380.928 -3.24925 1.56384 0
M  V30 3905 O 380.032 -4.04856 0.785209 0
M  V30 3906 H 379.373 -0.560604 0.355835 0
M  V30 3907 H 381.903 -1.31059 1.57114 0
M  V30 3908 H 381.913 -3.75702 1.59097 0
M  V30 3909 H 380.588 -3.23244 2.61699 0
M  V30 3910 H 379.165 -3.63537 0.830399 0
M  V30 3911 N 381.35 -0.985608 -1.22978 0
M  V30 3912 C 382.598 -0.656087 -1.91154 0
M  V30 3913 C 382.919 0.813561 -1.77218 0
M  V30 3914 O 382.189 1.58244 -1.1548 0
M  V30 3915 H 380.769 -0.239674 -0.707506 0
M  V30 3916 H 383.431 -1.25054 -1.49491 0
M  V30 3917 H 382.527 -0.912253 -2.9847 0
M  V30 3918 N 382.828 1.3818 -0.7579 0
M  V30 3919 C 384.074 2.00316 -0.316453 0
M  V30 3920 C 384.407 1.60026 1.10025 0
M  V30 3921 O 383.682 0.839835 1.75434 0
M  V30 3922 C 383.965 3.57349 -0.444245 0
M  V30 3923 C 383.818 4.07591 -1.90236 0
M  V30 3924 C 385.137 4.3981 0.1598 0
M  V30 3925 H 382.256 0.727741 -0.116459 0
M  V30 3926 H 384.898 1.6406 -0.958352 0
M  V30 3927 H 383.048 3.88365 0.102233 0
M  V30 3928 H 384.72 3.87199 -2.50748 0
M  V30 3929 H 382.963 3.60297 -2.41595 0
M  V30 3930 H 383.634 5.16677 -1.94291 0
M  V30 3931 H 386.11 4.14971 -0.306314 0
M  V30 3932 H 384.986 5.48885 0.0401675 0
M  V30 3933 H 385.247 4.24102 1.24859 0
M  V30 3934 N 384.306 0.507319 1.49211 0
M  V30 3935 C 385.256 -0.287112 2.26185 0
M  V30 3936 C 386.24 -0.929983 1.31302 0
M  V30 3937 O 387.432 -0.836538 1.55984 0
M  V30 3938 C 384.561 -1.34718 3.15763 0
M  V30 3939 C 383.647 -0.710235 4.18111 0
M  V30 3940 N 384.038 0.190836 5.0544 0
M  V30 3941 C 382.336 -0.97009 4.35322 0
M  V30 3942 C 383.037 0.55606 5.79036 0
M  V30 3943 N 382.013 -0.0775232 5.43545 0
M  V30 3944 H 385.815 0.406445 2.91076 0
M  V30 3945 H 383.329 0.323814 1.59139 0
M  V30 3946 H 385.326 -1.92982 3.69545 0
M  V30 3947 H 383.986 -2.04235 2.52424 0
M  V30 3948 H 384.997 0.562047 5.14841 0
M  V30 3949 H 381.674 -1.65753 3.83187 0
M  V30 3950 H 383.064 1.2936 6.5933 0
M  V30 3951 N 385.784 -1.5574 0.241426 0
M  V30 3952 C 387.009 -2.0366 -0.392111 0
M  V30 3953 C 387.434 -1.11969 -1.51144 0
M  V30 3954 O 386.792 -0.111594 -1.80956 0
M  V30 3955 C 386.84 -3.49638 -0.882371 0
M  V30 3956 O 385.944 -3.6108 -1.99235 0
M  V30 3957 H 385.285 -0.658379 -0.0862122 0
M  V30 3958 H 387.815 -2.01302 0.365881 0
M  V30 3959 H 387.825 -3.90351 -1.18702 0
M  V30 3960 H 386.5 -4.15852 -0.0632361 0
M  V30 3961 H 385.077 -3.32262 -1.69282 0
M  V30 3962 N 387.262 0.0317525 -1.57568 0
M  V30 3963 C 388.225 1.01783 -2.0536 0
M  V30 3964 C 389.225 1.29203 -0.957253 0
M  V30 3965 O 390.415 1.24251 -1.22095 0
M  V30 3966 C 387.547 2.35137 -2.46827 0
M  V30 3967 H 388.74 0.605062 -2.93733 0
M  V30 3968 H 386.293 0.278514 -1.53799 0
M  V30 3969 H 387.028 2.81168 -1.61602 0
M  V30 3970 H 386.813 2.16566 -3.26866 0
M  V30 3971 H 388.303 3.05938 -2.84239 0
M  V30 3972 N 388.74 1.54641 0.303973 0
M  V30 3973 C 390.017 1.64455 1.05896 0
M  V30 3974 C 390.397 0.490923 2.05312 0
M  V30 3975 O 389.745 -0.512685 2.22674 0
M  V30 3976 C 389.955 3.02331 1.74347 0
M  V30 3977 C 391.303 3.59045 2.26653 0
M  V30 3978 O 392.327 3.04764 1.84384 0
M  V30 3979 O 391.186 4.54081 3.04093 0
M  V30 3980 H 388.28 0.666729 0.489287 0
M  V30 3981 H 390.826 1.66986 0.302298 0
M  V30 3982 H 389.598 3.77734 1.02142 0
M  V30 3983 H 389.221 3.03565 2.56777 0
M  V30 3984 N 390.218 -0.567019 1.47046 0
M  V30 3985 C 391.148 -1.68482 1.61667 0
M  V30 3986 C 392.129 -1.6358 0.466418 0
M  V30 3987 O 393.314 -1.81354 0.694574 0
M  V30 3988 C 390.444 -3.07124 1.62148 0
M  V30 3989 C 389.398 -3.26867 2.76301 0
M  V30 3990 C 388.724 -4.66196 2.61849 0
M  V30 3991 C 390.024 -3.13186 4.17986 0
M  V30 3992 H 391.718 -1.56502 2.5524 0
M  V30 3993 H 389.264 -0.751486 1.22836 0
M  V30 3994 H 391.217 -3.8516 1.70968 0
M  V30 3995 H 389.941 -3.2004 0.651287 0
M  V30 3996 H 388.6 -2.51237 2.66975 0
M  V30 3997 H 388.248 -4.75898 1.62879 0
M  V30 3998 H 387.948 -4.80356 3.38425 0
M  V30 3999 H 389.472 -5.46379 2.72584 0
M  V30 4000 H 390.886 -3.81049 4.2834 0
M  V30 4001 H 389.283 -3.3886 4.95272 0
M  V30 4002 H 390.353 -2.10057 4.3704 0
M  V30 4003 N 391.696 -1.35014 -0.812953 0
M  V30 4004 C 392.942 -1.2812 -1.57204 0
M  V30 4005 C 393.275 0.145869 -1.93651 0
M  V30 4006 O 392.55 1.0937 -1.60836 0
M  V30 4007 C 392.833 -2.18162 -2.86492 0
M  V30 4008 C 392.686 -3.69454 -2.56561 0
M  V30 4009 C 394.005 -2.07439 -3.88145 0
M  V30 4010 H 391.124 -0.466746 -0.570366 0
M  V30 4011 H 393.766 -1.65357 -0.935783 0
M  V30 4012 H 391.916 -1.86535 -3.40789 0
M  V30 4013 H 393.588 -4.11493 -2.08497 0
M  V30 4014 H 391.831 -3.9005 -1.89851 0
M  V30 4015 H 392.502 -4.27835 -3.48799 0
M  V30 4016 H 394.978 -2.35228 -3.4323 0
M  V30 4017 H 393.854 -2.7265 -4.76396 0
M  V30 4018 H 394.115 -1.05439 -4.29343 0
M  V30 4019 N 393.175 1.03435 -1.18907 0
M  V30 4020 C 394.586 1.58195 -0.991523 0
M  V30 4021 C 394.937 1.90801 0.457081 0
M  V30 4022 O 394.062 1.70272 1.33553 0
M  V30 4023 C 394.657 2.87432 -1.79355 0
M  V30 4024 C 393.216 3.38785 -1.64017 0
M  V30 4025 C 392.363 2.12292 -1.78402 0
M  V30 4026 H 395.314 0.860299 -1.33359 0
M  V30 4027 H 395.335 3.58096 -1.28638 0
M  V30 4028 H 394.847 2.63669 -2.84781 0
M  V30 4029 H 392.948 3.67547 -0.611536 0
M  V30 4030 H 393.061 4.12186 -2.44212 0
M  V30 4031 H 391.425 2.23901 -1.2141 0
M  V30 4032 H 392.208 1.90977 -2.85277 0
M  V30 4033 N 394.653 0.992116 1.22453 0
M  V30 4034 C 395.563 0.55065 2.28046 0
M  V30 4035 C 396.579 -0.400189 1.69335 0
M  V30 4036 O 397.755 -0.267215 1.99619 0
M  V30 4037 C 394.82 -0.128496 3.46462 0
M  V30 4038 C 393.881 0.865208 4.20491 0
M  V30 4039 C 393.114 0.218377 5.33253 0
M  V30 4040 O 393.337 -0.987894 5.6178 0
M  V30 4041 O 392.271 0.922845 5.94783 0
M  V30 4042 H 396.097 1.4291 2.67975 0
M  V30 4043 H 393.682 0.760326 1.28606 0
M  V30 4044 H 395.564 -0.508947 4.18315 0
M  V30 4045 H 394.239 -0.981526 3.0846 0
M  V30 4046 H 393.146 1.29658 3.50913 0
M  V30 4047 H 394.479 1.68741 4.62371 0
M  V30 4048 N 396.131 -1.37776 0.765217 0
M  V30 4049 C 397.061 -2.32945 0.160953 0
M  V30 4050 C 398.042 -1.55454 -0.690516 0
M  V30 4051 O 399.227 -1.83721 -0.629318 0
M  V30 4052 C 396.357 -3.39669 -0.724031 0
M  V30 4053 C 395.311 -4.27992 0.0256173 0
M  V30 4054 C 394.637 -5.25673 -0.978383 0
M  V30 4055 C 395.937 -5.08309 1.20082 0
M  V30 4056 H 397.631 -2.83728 0.955969 0
M  V30 4057 H 395.177 -1.36416 0.461149 0
M  V30 4058 H 397.13 -4.05219 -1.15652 0
M  V30 4059 H 395.854 -2.87396 -1.5515 0
M  V30 4060 H 394.513 -3.63964 0.438812 0
M  V30 4061 H 394.161 -4.69682 -1.80022 0
M  V30 4062 H 393.861 -5.85625 -0.481378 0
M  V30 4063 H 395.385 -5.94098 -1.40995 0
M  V30 4064 H 396.799 -5.67034 0.845307 0
M  V30 4065 H 395.196 -5.77554 1.62947 0
M  V30 4066 H 396.266 -4.41365 2.00811 0
M  V30 4067 N 397.609 -0.515225 -1.4894 0
M  V30 4068 C 398.542 0.302518 -2.26186 0
M  V30 4069 C 399.52 0.957895 -1.31389 0
M  V30 4070 O 400.704 0.985198 -1.60705 0
M  V30 4071 C 397.831 1.42719 -3.07163 0
M  V30 4072 C 396.877 0.884736 -4.17223 0
M  V30 4073 S 397.71 -0.235767 -5.34981 0
M  V30 4074 C 398.866 0.891731 -6.19515 0
M  V30 4075 H 399.099 -0.353076 -2.95196 0
M  V30 4076 H 396.632 -0.300753 -1.51443 0
M  V30 4077 H 398.59 2.07152 -3.54398 0
M  V30 4078 H 397.251 2.05445 -2.37595 0
M  V30 4079 H 396.444 1.72801 -4.73451 0
M  V30 4080 H 396.046 0.317362 -3.72651 0
M  V30 4081 H 398.338 1.79377 -6.53322 0
M  V30 4082 H 399.281 0.367751 -7.07144 0
M  V30 4083 H 399.689 1.16548 -5.52338 0
M  V30 4084 N 399.087 1.5561 -0.249682 0
M  V30 4085 C 400.05 2.20217 0.635394 0
M  V30 4086 C 401.05 1.17227 1.10066 0
M  V30 4087 O 402.24 1.42292 1.00492 0
M  V30 4088 C 399.372 2.84794 1.87363 0
M  V30 4089 H 400.565 2.99814 0.0716752 0
M  V30 4090 H 398.118 1.563 -0.000153234 0
M  V30 4091 H 398.853 2.09142 2.47851 0
M  V30 4092 H 398.638 3.60241 1.5482 0
M  V30 4093 H 400.128 3.3423 2.5036 0
M  V30 4094 N 400.565 -0.0233959 1.57583 0
M  V30 4095 C 401.812 -0.713063 1.8953 0
M  V30 4096 C 402.14 -1.75056 0.847673 0
M  V30 4097 O 401.395 -1.95119 -0.150636 0
M  V30 4098 C 401.694 -1.41428 3.28227 0
M  V30 4099 C 401.36 -0.512222 4.47981 0
M  V30 4100 C 400.022 -0.263785 4.80476 0
M  V30 4101 C 402.374 0.110248 5.21083 0
M  V30 4102 C 399.702 0.615804 5.83459 0
M  V30 4103 C 402.054 0.977573 6.25001 0
M  V30 4104 C 400.718 1.23542 6.55968 0
M  V30 4105 H 399.988 -0.260928 0.69354 0
M  V30 4106 H 402.635 0.0271047 1.91481 0
M  V30 4107 H 400.94 -2.22791 3.22291 0
M  V30 4108 H 402.637 -1.95355 3.50196 0
M  V30 4109 H 399.227 -0.716013 4.22577 0
M  V30 4110 H 403.411 -0.0687137 4.96252 0
M  V30 4111 H 398.667 0.82382 6.05824 0
M  V30 4112 H 402.841 1.46638 6.80786 0
M  V30 4113 H 400.468 1.91871 7.35588 0
M  V30 4114 N 402.043 -1.548 -0.295768 0
M  V30 4115 C 403.291 -1.73985 -1.02828 0
M  V30 4116 C 403.612 -0.531406 -1.87619 0
M  V30 4117 O 402.882 0.454221 -1.90561 0
M  V30 4118 H 401.462 -0.641556 -0.382642 0
M  V30 4119 H 404.124 -1.92163 -0.325489 0
M  V30 4120 H 403.22 -2.63129 -1.67838 0
M  V30 4121 N 403.521 0.559213 -1.47345 0
M  V30 4122 C 404.769 1.31388 -1.53563 0
M  V30 4123 C 405.09 1.93985 -0.198678 0
M  V30 4124 O 404.36 1.79825 0.777167 0
M  V30 4125 H 402.94 0.487901 -0.565652 0
M  V30 4126 H 405.602 0.65315 -1.8363 0
M  V30 4127 H 404.698 2.10844 -2.30111 0
M  V30 4128 N 404.999 1.35443 0.805782 0
M  V30 4129 C 405.962 1.28301 1.89925 0
M  V30 4130 C 406.962 0.194285 1.59622 0
M  V30 4131 O 408.152 0.448036 1.6834 0
M  V30 4132 C 405.284 0.984997 3.2636 0
M  V30 4133 H 406.477 2.2553 1.97677 0
M  V30 4134 H 404.03 1.19979 1.00173 0
M  V30 4135 H 404.765 0.016603 3.24296 0
M  V30 4136 H 404.55 1.77269 3.4974 0
M  V30 4137 H 406.04 0.960651 4.064 0
M  V30 4138 N 406.477 -1.02803 1.19454 0
M  V30 4139 C 407.424 -2.11099 0.933046 0
M  V30 4140 C 408.394 -1.65571 -0.132447 0
M  V30 4141 O 409.579 -1.90797 0.00987576 0
M  V30 4142 C 406.719 -3.41763 0.478747 0
M  V30 4143 C 405.832 -4.00833 1.6111 0
M  V30 4144 C 404.967 -5.19511 1.10825 0
M  V30 4145 C 404.006 -5.70639 2.21445 0
M  V30 4146 N 403.143 -6.80589 1.72461 0
M  V30 4147 H 407.983 -2.32804 1.86028 0
M  V30 4148 H 405.52 -1.14179 0.927441 0
M  V30 4149 H 407.478 -4.16736 0.196745 0
M  V30 4150 H 406.108 -3.20166 -0.411493 0
M  V30 4151 H 405.16 -3.23066 2.00829 0
M  V30 4152 H 406.472 -4.34794 2.4445 0
M  V30 4153 H 405.626 -6.01645 0.781533 0
M  V30 4154 H 404.365 -4.87086 0.244606 0
M  V30 4155 H 403.37 -4.87116 2.54947 0
M  V30 4156 H 404.595 -6.05102 3.08267 0
M  V30 4157 H 402.541 -6.50016 0.884056 0
M  V30 4158 H 402.458 -7.13681 2.49389 0
M  V30 4159 H 403.726 -7.66317 1.42755 0
M  V30 4160 N 407.956 -0.998596 -1.21925 0
M  V30 4161 C 408.888 -0.511879 -2.23411 0
M  V30 4162 C 409.901 0.396094 -1.57908 0
M  V30 4163 O 411.09 0.197316 -1.77406 0
M  V30 4164 C 408.19 0.276802 -3.37768 0
M  V30 4165 C 407.363 -0.628687 -4.32858 0
M  V30 4166 C 406.422 0.109272 -5.26087 0
M  V30 4167 O 405.448 -0.507237 -5.66935 0
M  V30 4168 N 406.65 1.38983 -5.63617 0
M  V30 4169 H 409.415 -1.38457 -2.658 0
M  V30 4170 H 406.976 -0.873981 -1.36283 0
M  V30 4171 H 408.968 0.77928 -3.97126 0
M  V30 4172 H 407.538 1.05063 -2.94415 0
M  V30 4173 H 406.758 -1.31175 -3.71735 0
M  V30 4174 H 408.046 -1.24514 -4.93329 0
M  V30 4175 H 407.444 1.91194 -5.32411 0
M  V30 4176 H 406.001 1.83739 -6.25367 0
M  V30 4177 N 409.434 1.37368 -0.772513 0
M  V30 4178 C 410.344 2.34053 -0.160081 0
M  V30 4179 C 411.36 1.60216 0.678728 0
M  V30 4180 O 412.536 1.92303 0.59847 0
M  V30 4181 C 409.601 3.3939 0.708182 0
M  V30 4182 C 408.662 4.29048 -0.147172 0
M  V30 4183 C 407.895 5.29354 0.679744 0
M  V30 4184 O 408.118 5.3723 1.91678 0
M  V30 4185 O 407.052 6.01835 0.0885444 0
M  V30 4186 H 410.878 2.88159 -0.959053 0
M  V30 4187 H 408.463 1.39543 -0.533685 0
M  V30 4188 H 410.345 4.03839 1.20384 0
M  V30 4189 H 409.02 2.8761 1.48533 0
M  V30 4190 H 407.927 3.67697 -0.689205 0
M  V30 4191 H 409.26 4.84134 -0.887423 0
M  V30 4192 N 410.912 0.523116 1.48665 0
M  V30 4193 C 412.328 0.180511 1.58576 0
M  V30 4194 C 412.528 -1.31597 1.52592 0
M  V30 4195 O 411.584 -2.0937 1.4114 0
M  V30 4196 C 412.897 0.776949 2.90489 0
M  V30 4197 C 414.445 0.745058 3.04003 0
M  V30 4198 C 414.92 1.31995 4.38567 0
M  V30 4199 N 416.411 1.28162 4.45117 0
M  V30 4200 C 417.146 1.6964 5.47731 0
M  V30 4201 N 416.642 2.18816 6.57337 0
M  V30 4202 N 418.435 1.6092 5.38573 0
M  V30 4203 H 410.586 1.4958 1.50797 0
M  V30 4204 H 412.849 0.621772 0.715614 0
M  V30 4205 H 412.555 1.82732 3.00503 0
M  V30 4206 H 412.429 0.25007 3.7637 0
M  V30 4207 H 414.816 -0.296532 2.93606 0
M  V30 4208 H 414.897 1.30933 2.1975 0
M  V30 4209 H 414.541 2.36043 4.49718 0
M  V30 4210 H 414.471 0.731418 5.21496 0
M  V30 4211 H 416.962 0.92155 3.66491 0
M  V30 4212 H 417.275 2.48478 7.31764 0
M  V30 4213 H 415.62 2.22805 6.58318 0
M  V30 4214 H 418.811 1.22304 4.5184 0
M  V30 4215 H 418.984 1.93567 6.18414 0
M  V30 4216 N 412.39 -1.55475 0.257931 0
M  V30 4217 C 413.32 -2.24815 -0.630912 0
M  V30 4218 C 414.301 -1.23224 -1.17259 0
M  V30 4219 O 415.486 -1.51904 -1.20991 0
M  V30 4220 C 412.616 -2.95609 -1.82298 0
M  V30 4221 C 411.57 -4.03982 -1.41359 0
M  V30 4222 C 410.896 -4.6226 -2.68738 0
M  V30 4223 C 412.196 -5.19109 -0.57648 0
M  V30 4224 H 413.89 -2.99354 -0.0526878 0
M  V30 4225 H 411.436 -1.4398 -0.023901 0
M  V30 4226 H 413.389 -3.42822 -2.45054 0
M  V30 4227 H 412.113 -2.18577 -2.42676 0
M  V30 4228 H 410.772 -3.57555 -0.809324 0
M  V30 4229 H 410.42 -3.81915 -3.27338 0
M  V30 4230 H 410.12 -5.35424 -2.42065 0
M  V30 4231 H 411.644 -5.12212 -3.32372 0
M  V30 4232 H 413.058 -5.62479 -1.10861 0
M  V30 4233 H 411.455 -5.98729 -0.405351 0
M  V30 4234 H 412.525 -4.83174 0.408776 0
M  V30 4235 N 413.868 0.0150385 -1.57593 0
M  V30 4236 C 414.816 1.02958 -2.08572 0
M  V30 4237 C 415.81 1.36554 -1.00246 0
M  V30 4238 O 417.016 1.35295 -1.18724 0
M  V30 4239 H 413.391 0.349619 -0.665786 0
M  V30 4240 H 415.362 0.573932 -2.92829 0
M  V30 4241 C 414.111 2.31752 -2.59203 0
M  V30 4242 H 413.434 2.06765 -3.42182 0
M  V30 4243 H 414.874 3.01053 -2.98568 0
M  V30 4244 C 413.333 3.01692 -1.49945 0
M  V30 4245 O 413.863 3.92083 -0.873704 0
M  V30 4246 N 412.069 2.6326 -1.23056 0
M  V30 4247 H 411.616 1.89838 -1.74125 0
M  V30 4248 H 411.574 3.10372 -0.501685 0
M  V30 4249 N 415.346 1.54954 0.287554 0
M  V30 4250 C 416.293 1.86834 1.35505 0
M  V30 4251 C 417.263 0.718452 1.49758 0
M  V30 4252 O 418.448 0.968358 1.644 0
M  V30 4253 C 415.588 2.13303 2.71286 0
M  V30 4254 C 414.701 3.40883 2.65373 0
M  V30 4255 C 413.836 3.57125 3.93236 0
M  V30 4256 C 412.875 4.78449 3.81776 0
M  V30 4257 N 412.012 4.91426 5.01443 0
M  V30 4258 H 416.852 2.77889 1.07619 0
M  V30 4259 H 414.389 1.37593 0.520241 0
M  V30 4260 H 416.347 2.26646 3.50267 0
M  V30 4261 H 414.977 1.25499 2.97405 0
M  V30 4262 H 414.029 3.36088 1.78182 0
M  V30 4263 H 415.341 4.29993 2.52799 0
M  V30 4264 H 414.495 3.70207 4.80658 0
M  V30 4265 H 413.234 2.66173 4.0866 0
M  V30 4266 H 412.239 4.65386 2.92738 0
M  V30 4267 H 413.464 5.70822 3.67884 0
M  V30 4268 H 411.41 4.03401 5.17304 0
M  V30 4269 H 411.327 5.74559 4.91343 0
M  V30 4270 H 412.595 5.08879 5.90477 0
M  V30 4271 N 416.824 -0.551391 1.4764 0
M  V30 4272 C 417.734 -1.68525 1.63207 0
M  V30 4273 C 418.75 -1.6621 0.514815 0
M  V30 4274 O 419.926 -1.85551 0.783113 0
M  V30 4275 C 416.991 -3.05025 1.64805 0
M  V30 4276 C 416.052 -3.18362 2.88 0
M  V30 4277 C 415.285 -4.4835 2.89513 0
M  V30 4278 O 415.508 -5.34163 2.00065 0
M  V30 4279 O 414.442 -4.65602 3.81443 0
M  V30 4280 H 418.268 -1.58333 2.59161 0
M  V30 4281 H 415.853 -0.722063 1.30792 0
M  V30 4282 H 417.735 -3.86245 1.68502 0
M  V30 4283 H 416.41 -3.15587 0.720197 0
M  V30 4284 H 415.317 -2.36518 2.89845 0
M  V30 4285 H 416.65 -3.12707 3.80099 0
M  V30 4286 N 418.302 -1.35869 -0.798587 0
M  V30 4287 C 419.551 -1.28921 -1.5512 0
M  V30 4288 C 419.864 0.13208 -1.95154 0
M  V30 4289 O 421.07 0.323879 -2.69561 0
M  V30 4290 C 419.526 -2.26141 -2.79979 0
M  V30 4291 C 419.134 -3.73658 -2.47151 0
M  V30 4292 C 420.878 -2.28152 -3.57976 0
M  V30 4293 C 418.785 -4.62679 -3.6835 0
M  V30 4294 H 417.715 -0.479031 -0.582276 0
M  V30 4295 H 420.366 -1.61179 -0.877125 0
M  V30 4296 H 418.748 -1.86865 -3.49138 0
M  V30 4297 H 419.922 -4.21616 -1.85947 0
M  V30 4298 H 418.237 -3.74333 -1.82383 0
M  V30 4299 H 420.834 -2.91875 -4.4801 0
M  V30 4300 H 421.177 -1.28748 -3.95891 0
M  V30 4301 H 421.71 -2.65998 -2.95787 0
M  V30 4302 H 418.449 -5.63111 -3.35538 0
M  V30 4303 H 417.969 -4.19442 -4.28752 0
M  V30 4304 H 419.648 -4.78498 -4.35487 0
M  V30 4305 N 419.78 1.02168 -1.19998 0
M  V30 4306 C 421.028 1.75338 -1.00504 0
M  V30 4307 C 421.349 1.89387 0.464506 0
M  V30 4308 O 420.619 1.43268 1.33608 0
M  V30 4309 H 419.199 0.649564 -0.368885 0
M  V30 4310 H 421.861 1.23205 -1.51018 0
M  V30 4311 H 420.957 2.75892 -1.45912 0
M  V30 4312 N 421.258 1.00505 1.21394 0
M  V30 4313 C 422.535 0.603277 1.86064 0
M  V30 4314 C 422.915 -0.919095 1.90042 0
M  V30 4315 O 422.263 -1.80607 1.39977 0
M  V30 4316 C 422.473 1.23772 3.26315 0
M  V30 4317 C 423.821 1.34586 4.02705 0
M  V30 4318 O 424.845 1.19304 3.35626 0
M  V30 4319 O 423.704 1.59169 5.22807 0
M  V30 4320 H 420.798 0.206634 0.800769 0
M  V30 4321 H 423.344 1.1017 1.29076 0
M  V30 4322 H 422.116 2.27848 3.18121 0
M  V30 4323 H 421.739 0.725648 3.90922 0
M  V30 4324 N 422.737 -1.36956 0.779787 0
M  V30 4325 C 423.983 -1.99787 0.348281 0
M  V30 4326 C 424.316 -1.61756 -1.07465 0
M  V30 4327 O 423.591 -0.867639 -1.74075 0
M  V30 4328 C 423.874 -3.56597 0.50104 0
M  V30 4329 C 423.727 -4.04513 1.96697 0
M  V30 4330 C 425.046 -4.40008 -0.0898097 0
M  V30 4331 H 422.165 -0.725796 0.128022 0
M  V30 4332 H 424.807 -1.62514 0.984331 0
M  V30 4333 H 422.957 -3.88479 -0.0404347 0
M  V30 4334 H 424.629 -3.83161 2.56876 0
M  V30 4335 H 422.872 -3.56408 2.47297 0
M  V30 4336 H 423.543 -5.1352 2.02486 0
M  V30 4337 H 426.019 -4.14431 0.372293 0
M  V30 4338 H 424.895 -5.4888 0.0471605 0
M  V30 4339 H 425.156 -4.26035 -1.18096 0
M  V30 4340 N 424.215 -0.530993 -1.48385 0
M  V30 4341 C 425.631 -0.188919 -1.58478 0
M  V30 4342 C 425.831 1.30786 -1.53288 0
M  V30 4343 O 424.887 2.08619 -1.42248 0
M  V30 4344 C 426.2 -0.792343 -2.90073 0
M  V30 4345 C 427.748 -0.76117 -3.03604 0
M  V30 4346 C 428.223 -1.34319 -4.37861 0
M  V30 4347 N 429.714 -1.3052 -4.44431 0
M  V30 4348 C 430.449 -1.72543 -5.46824 0
M  V30 4349 N 429.945 -2.22299 -6.56167 0
M  V30 4350 N 431.738 -1.63773 -5.37712 0
M  V30 4351 H 423.889 -1.50377 -1.50002 0
M  V30 4352 H 426.152 -0.625559 -0.712306 0
M  V30 4353 H 425.858 -1.84323 -2.99529 0
M  V30 4354 H 425.732 -0.270026 -3.76232 0
M  V30 4355 H 428.119 0.280957 -2.93759 0
M  V30 4356 H 428.2 -1.32097 -2.19053 0
M  V30 4357 H 427.844 -2.38425 -4.4846 0
M  V30 4358 H 427.774 -0.759064 -5.21101 0
M  V30 4359 H 430.265 -0.940973 -3.65997 0
M  V30 4360 H 430.578 -2.52356 -7.30436 0
M  V30 4361 H 428.923 -2.26293 -6.57127 0
M  V30 4362 H 432.114 -1.24698 -4.51185 0
M  V30 4363 H 432.287 -1.96844 -6.17379 0
M  V30 4364 N 425.693 1.55336 -0.266172 0
M  V30 4365 C 426.656 2.20878 0.612001 0
M  V30 4366 C 427.656 1.18388 1.08816 0
M  V30 4367 O 428.846 1.4335 0.989774 0
M  V30 4368 C 425.978 2.86765 1.84332 0
M  V30 4369 H 427.171 2.99873 0.0398718 0
M  V30 4370 H 424.724 1.56291 -0.0167309 0
M  V30 4371 H 425.459 2.11759 2.45619 0
M  V30 4372 H 425.244 3.61862 1.5099 0
M  V30 4373 H 426.734 3.36867 2.46801 0
M  V30 4374 N 427.171 -0.0066808 1.57599 0
M  V30 4375 C 428.587 -0.36267 1.55425 0
M  V30 4376 C 428.787 -1.75209 0.995187 0
M  V30 4377 O 427.843 -2.44616 0.626058 0
M  V30 4378 C 429.156 -0.244017 2.99708 0
M  V30 4379 C 430.704 -0.319451 3.11366 0
M  V30 4380 C 431.179 -0.229998 4.57422 0
M  V30 4381 N 432.67 -0.288105 4.62303 0
M  V30 4382 C 433.405 -0.242127 5.72889 0
M  V30 4383 N 432.901 -0.147133 6.92644 0
M  V30 4384 N 434.694 -0.293502 5.61333 0
M  V30 4385 H 426.845 0.902314 1.92281 0
M  V30 4386 H 429.108 0.34525 0.882896 0
M  V30 4387 H 428.814 0.711678 3.44424 0
M  V30 4388 H 428.688 -1.02877 3.629 0
M  V30 4389 H 431.075 -1.26559 2.66584 0
M  V30 4390 H 431.156 0.495055 2.50964 0
M  V30 4391 H 430.8 0.712566 5.02877 0
M  V30 4392 H 430.73 -1.0629 5.15761 0
M  V30 4393 H 433.221 -0.363126 3.76151 0
M  V30 4394 H 433.534 -0.117763 7.7271 0
M  V30 4395 H 431.879 -0.112857 6.94908 0
M  V30 4396 H 435.07 -0.365864 4.66668 0
M  V30 4397 H 435.243 -0.254204 6.47501 0
M  V30 4398 N 428.649 -1.55105 -0.279332 0
M  V30 4399 C 429.898 -1.74618 -1.00952 0
M  V30 4400 C 430.211 -0.551096 -1.87676 0
M  V30 4401 O 431.417 -0.628507 -2.64125 0
M  V30 4402 C 429.873 -3.09025 -1.84476 0
M  V30 4403 C 429.481 -4.36081 -1.0265 0
M  V30 4404 C 431.225 -3.37891 -2.56963 0
M  V30 4405 C 429.132 -5.6153 -1.85576 0
M  V30 4406 H 428.062 -0.650868 -0.38064 0
M  V30 4407 H 430.713 -1.81569 -0.265475 0
M  V30 4408 H 429.095 -2.96095 -2.62952 0
M  V30 4409 H 430.269 -4.59909 -0.286354 0
M  V30 4410 H 428.584 -4.14312 -0.416464 0
M  V30 4411 H 431.181 -4.28822 -3.19399 0
M  V30 4412 H 431.524 -2.57737 -3.26921 0
M  V30 4413 H 432.057 -3.5189 -1.85522 0
M  V30 4414 H 428.796 -6.44413 -1.2005 0
M  V30 4415 H 428.316 -5.41854 -2.57204 0
M  V30 4416 H 429.995 -5.99594 -2.43096 0
M  V30 4417 N 430.127 0.543554 -1.4793 0
M  V30 4418 C 431.357 1.32324 -1.58663 0
M  V30 4419 C 431.765 1.8766 -0.240896 0
M  V30 4420 O 431.108 1.66411 0.778011 0
M  V30 4421 C 431.17 2.52094 -2.56299 0
M  V30 4422 C 430.834 2.17944 -4.01683 0
M  V30 4423 C 431.831 1.74422 -4.89768 0
M  V30 4424 C 429.516 2.28884 -4.47121 0
M  V30 4425 C 431.51 1.42287 -6.21316 0
M  V30 4426 C 429.197 1.96361 -5.78693 0
M  V30 4427 C 430.195 1.53132 -6.65612 0
M  V30 4428 O 429.883 1.21029 -7.94737 0
M  V30 4429 H 429.615 0.409174 -0.538101 0
M  V30 4430 H 432.169 0.663887 -1.94375 0
M  V30 4431 H 430.399 3.20965 -2.15681 0
M  V30 4432 H 432.088 3.14165 -2.57012 0
M  V30 4433 H 432.854 1.65452 -4.55907 0
M  V30 4434 H 428.733 2.61488 -3.79664 0
M  V30 4435 H 432.277 1.08472 -6.89115 0
M  V30 4436 H 428.174 2.04967 -6.12094 0
M  V30 4437 H 428.942 1.34543 -8.07366 0
M  V30 4438 N 431.605 1.3629 0.791371 0
M  V30 4439 C 433.021 1.16661 1.08914 0
M  V30 4440 C 433.221 -0.0106266 2.01497 0
M  V30 4441 O 432.277 -0.676596 2.43266 0
M  V30 4442 C 433.59 2.47656 1.70549 0
M  V30 4443 C 435.138 2.54002 1.82899 0
M  V30 4444 C 435.613 3.85078 2.47949 0
M  V30 4445 N 437.104 3.86413 2.5542 0
M  V30 4446 C 437.839 4.84572 3.06557 0
M  V30 4447 N 437.335 5.93124 3.58016 0
M  V30 4448 N 439.128 4.71994 3.05251 0
M  V30 4449 H 431.279 2.11668 0.176238 0
M  V30 4450 H 433.542 0.937486 0.140796 0
M  V30 4451 H 433.248 3.34059 1.09989 0
M  V30 4452 H 433.122 2.63319 2.70079 0
M  V30 4453 H 435.509 1.68018 2.42598 0
M  V30 4454 H 435.59 2.42239 0.821808 0
M  V30 4455 H 435.234 4.71467 1.88895 0
M  V30 4456 H 435.164 3.94135 3.49235 0
M  V30 4457 H 437.655 3.07988 2.18979 0
M  V30 4458 H 437.968 6.63999 3.95381 0
M  V30 4459 H 436.313 5.96796 3.56173 0
M  V30 4460 H 439.504 3.86321 2.64336 0
M  V30 4461 H 439.677 5.48653 3.44796 0
M  V30 4462 N 433.083 -1.0153 1.20538 0
M  V30 4463 C 434.308 -1.79283 1.04271 0
M  V30 4464 C 434.733 -1.8372 -0.403544 0
M  V30 4465 O 434.091 -1.27321 -1.2907 0
M  V30 4466 C 434.139 -3.21535 1.63241 0
M  V30 4467 O 433.243 -4.03099 0.870908 0
M  V30 4468 H 432.584 -0.55293 0.367647 0
M  V30 4469 H 435.114 -1.27696 1.59859 0
M  V30 4470 H 435.124 -3.72243 1.6703 0
M  V30 4471 H 433.799 -3.1762 2.68497 0
M  V30 4472 H 432.376 -3.61693 0.907323 0
M  V30 4473 N 434.561 -1.01147 -1.20859 0
M  V30 4474 C 435.511 -0.548247 -2.2131 0
M  V30 4475 C 436.495 0.393646 -1.5601 0
M  V30 4476 O 437.687 0.217445 -1.75659 0
M  V30 4477 C 434.816 0.117252 -3.431 0
M  V30 4478 C 433.902 -0.846043 -4.15575 0
M  V30 4479 N 434.293 -2.00149 -4.64515 0
M  V30 4480 C 432.591 -0.665783 -4.41003 0
M  V30 4481 C 433.292 -2.60764 -5.19978 0
M  V30 4482 N 432.268 -1.88868 -5.09735 0
M  V30 4483 H 436.07 -1.42921 -2.56809 0
M  V30 4484 H 433.584 -0.876142 -1.36739 0
M  V30 4485 H 435.581 0.46662 -4.1428 0
M  V30 4486 H 434.241 0.994115 -3.09107 0
M  V30 4487 H 435.252 -2.38162 -4.5989 0
M  V30 4488 H 431.929 0.163456 -4.1718 0
M  V30 4489 H 433.319 -3.58519 -5.68255 0
M  V30 4490 N 436.039 1.36541 -0.78704 0
M  V30 4491 C 436.969 2.32659 -0.197992 0
M  V30 4492 C 437.95 1.56533 0.665697 0
M  V30 4493 O 439.135 1.84698 0.60001 0
M  V30 4494 C 436.265 3.40778 0.669901 0
M  V30 4495 C 435.219 4.27897 -0.0937039 0
M  V30 4496 C 434.545 5.27163 0.894629 0
M  V30 4497 C 435.845 5.06334 -1.28154 0
M  V30 4498 H 437.539 2.82171 -1.00099 0
M  V30 4499 H 435.085 1.35665 -0.482793 0
M  V30 4500 H 437.038 4.07008 1.09191 0
M  V30 4501 H 435.762 2.89827 1.50558 0
M  V30 4502 H 434.421 3.6322 -0.49666 0
M  V30 4503 H 434.069 4.72486 1.72527 0
M  V30 4504 H 433.769 5.86317 0.388149 0
M  V30 4505 H 435.293 5.96266 1.31525 0
M  V30 4506 H 436.707 5.65617 -0.93541 0
M  V30 4507 H 435.104 5.74888 -1.72115 0
M  V30 4508 H 436.174 4.38114 -2.07807 0
M  V30 4509 N 437.518 0.538854 1.48102 0
M  V30 4510 C 438.466 -0.232325 2.31437 0
M  V30 4511 C 439.46 -0.927004 1.41785 0
M  V30 4512 O 440.666 -0.850378 1.58646 0
M  V30 4513 H 437.041 -0.0937916 0.746128 0
M  V30 4514 H 439.012 0.489986 2.9435 0
M  V30 4515 C 437.761 -1.26074 3.24038 0
M  V30 4516 H 437.084 -0.735609 3.92974 0
M  V30 4517 H 438.524 -1.77157 3.85216 0
M  V30 4518 C 436.983 -2.29902 2.46265 0
M  V30 4519 O 437.513 -3.36502 2.19384 0
M  V30 4520 N 435.719 -2.03348 2.07601 0
M  V30 4521 H 435.266 -1.16675 2.29662 0
M  V30 4522 H 435.224 -2.73038 1.55877 0
M  V30 4523 N 438.996 -1.55193 0.274407 0
M  V30 4524 C 440.236 -2.01488 -0.343778 0
M  V30 4525 C 440.6 -1.1586 -1.53103 0
M  V30 4526 O 441.801 -1.51732 -2.2188 0
M  V30 4527 C 440.072 -3.50134 -0.717021 0
M  V30 4528 S 441.631 -4.18417 -1.32184 0
M  V30 4529 H 438.449 -0.70291 -0.106948 0
M  V30 4530 H 441.051 -1.91446 0.396075 0
M  V30 4531 H 439.755 -4.10104 0.155947 0
M  V30 4532 H 439.286 -3.64159 -1.48835 0
M  V30 4533 H 441.301 -4.21984 -2.61044 0
M  V30 4534 N 440.474 -0.00167713 -1.576 0
M  V30 4535 C 441.702 0.693759 -1.94922 0
M  V30 4536 C 442.117 1.67215 -0.876626 0
M  V30 4537 O 441.474 1.81929 0.144279 0
M  V30 4538 C 441.525 1.42416 -3.32265 0
M  V30 4539 O 441.246 0.485014 -4.35407 0
M  V30 4540 C 442.747 2.21395 -3.84056 0
M  V30 4541 H 439.967 0.193118 -0.642609 0
M  V30 4542 H 442.511 -0.0532952 -2.04431 0
M  V30 4543 H 440.666 2.12284 -3.24059 0
M  V30 4544 H 441.08 1.00053 -5.14868 0
M  V30 4545 H 442.554 2.67996 -4.82578 0
M  V30 4546 H 443.031 3.04142 -3.16851 0
M  V30 4547 H 443.637 1.56542 -3.95443 0
M  V30 4548 N 441.952 1.55251 0.271103 0
M  V30 4549 C 443.198 1.76207 1.00394 0
M  V30 4550 C 443.531 0.562604 1.85872 0
M  V30 4551 O 442.806 -0.439785 1.89463 0
M  V30 4552 C 443.089 3.06828 1.8849 0
M  V30 4553 C 442.942 4.37134 1.05992 0
M  V30 4554 C 444.261 3.33503 2.87165 0
M  V30 4555 H 441.38 0.641086 0.363562 0
M  V30 4556 H 444.022 1.87982 0.276189 0
M  V30 4557 H 442.172 2.96921 2.5054 0
M  V30 4558 H 443.844 4.59001 0.459978 0
M  V30 4559 H 442.087 4.32275 0.363443 0
M  V30 4560 H 442.758 5.2486 1.70955 0
M  V30 4561 H 445.234 3.43215 2.3525 0
M  V30 4562 H 444.11 4.2616 3.45946 0
M  V30 4563 H 444.371 2.53235 3.62387 0
M  V30 4564 N 443.43 -0.535701 1.48216 0
M  V30 4565 C 444.677 -1.29183 1.55942 0
M  V30 4566 C 445.005 -1.93125 0.230857 0
M  V30 4567 O 444.26 -1.79556 -0.778331 0
M  V30 4568 C 444.559 -2.4068 2.64212 0
M  V30 4569 C 444.225 -1.94428 4.06827 0
M  V30 4570 C 442.887 -1.81532 4.45645 0
M  V30 4571 C 445.239 -1.59405 4.96225 0
M  V30 4572 C 442.567 -1.31939 5.71672 0
M  V30 4573 C 444.919 -1.11276 6.22736 0
M  V30 4574 C 443.583 -0.969924 6.60416 0
M  V30 4575 H 442.853 -0.472715 0.570632 0
M  V30 4576 H 445.5 -0.598437 1.81909 0
M  V30 4577 H 443.805 -3.15666 2.32083 0
M  V30 4578 H 445.502 -2.98822 2.67407 0
M  V30 4579 H 442.092 -2.05415 3.76168 0
M  V30 4580 H 446.276 -1.68231 4.66917 0
M  V30 4581 H 441.532 -1.19562 5.99596 0
M  V30 4582 H 445.706 -0.832453 6.91407 0
M  V30 4583 H 443.333 -0.583436 7.57958 0
M  V30 4584 N 444.908 -1.36708 -0.784132 0
M  V30 4585 C 446.319 -1.27947 -1.35965 0
M  V30 4586 C 446.67 0.0784013 -1.96043 0
M  V30 4587 O 445.795 0.979989 -1.92938 0
M  V30 4588 C 446.39 -2.31689 -2.47195 0
M  V30 4589 C 444.949 -2.26601 -3.00548 0
M  V30 4590 C 444.096 -2.16184 -1.73666 0
M  V30 4591 H 447.047 -1.4751 -0.585358 0
M  V30 4592 H 447.068 -1.95638 -3.26352 0
M  V30 4593 H 446.58 -3.30506 -2.03439 0
M  V30 4594 H 444.681 -1.31268 -3.48711 0
M  V30 4595 H 444.794 -3.19508 -3.57004 0
M  V30 4596 H 443.158 -1.62524 -1.96107 0
M  V30 4597 H 443.941 -3.16896 -1.32031 0
M  V30 4598 N 446.386 1.0089 -1.21074 0
M  V30 4599 C 447.334 2.11707 -0.963476 0
M  V30 4600 C 448.328 1.69172 0.0879032 0
M  V30 4601 O 449.534 1.79889 -0.0631415 0
M  V30 4602 H 445.909 0.692026 -0.294287 0
M  V30 4603 H 447.88 2.29743 -1.90422 0
M  V30 4604 C 446.629 3.43473 -0.540509 0
M  V30 4605 H 445.952 3.76634 -1.34114 0
M  V30 4606 H 447.392 4.22044 -0.406777 0
M  V30 4607 C 445.851 3.2849 0.748079 0
M  V30 4608 O 446.381 3.58883 1.8046 0
M  V30 4609 N 444.587 2.81715 0.713081 0
M  V30 4610 H 444.134 2.5718 -0.146973 0
M  V30 4611 H 444.092 2.72071 1.57558 0
M  V30 4612 N 447.864 1.01787 1.20321 0
M  V30 4613 C 448.812 0.58254 2.25187 0
M  V30 4614 C 449.806 -0.379359 1.65098 0
M  V30 4615 O 451.012 -0.249142 1.78267 0
M  V30 4616 H 447.387 0.170078 0.732514 0
M  V30 4617 H 449.358 1.47788 2.59232 0
M  V30 4618 C 448.107 -0.0620885 3.47645 0
M  V30 4619 H 447.43 0.669069 3.94162 0
M  V30 4620 H 448.87 -0.329784 4.22716 0
M  V30 4621 C 447.329 -1.3053 3.10586 0
M  V30 4622 O 447.859 -2.39848 3.22236 0
M  V30 4623 N 446.065 -1.18988 2.65123 0
M  V30 4624 H 445.612 -0.300341 2.55843 0
M  V30 4625 H 445.57 -2.02267 2.40698 0
M  V30 4626 N 449.342 -1.36122 0.79427 0
M  V30 4627 C 450.567 -2.03891 0.379871 0
M  V30 4628 C 450.992 -1.59488 -0.997251 0
M  V30 4629 O 450.35 -0.765652 -1.64339 0
M  V30 4630 C 450.398 -3.57687 0.457442 0
M  V30 4631 O 449.502 -4.08931 -0.5338 0
M  V30 4632 H 448.843 -0.6443 0.160541 0
M  V30 4633 H 451.373 -1.73976 1.07673 0
M  V30 4634 H 451.383 -4.06721 0.322792 0
M  V30 4635 H 450.058 -3.89357 1.46199 0
M  V30 4636 H 448.635 -3.71154 -0.360409 0
M  V30 4637 N 450.82 -0.546701 -1.47814 0
M  V30 4638 C 451.753 0.254472 -2.26777 0
M  V30 4639 C 452.731 0.929809 -1.33392 0
M  V30 4640 O 453.915 0.950889 -1.62759 0
M  V30 4641 C 451.042 1.36171 -3.10121 0
M  V30 4642 C 450.088 0.796038 -4.19005 0
M  V30 4643 S 450.921 -0.349191 -5.3436 0
M  V30 4644 C 452.077 0.760122 -6.21267 0
M  V30 4645 H 452.31 -0.415612 -2.94381 0
M  V30 4646 H 449.843 -0.332809 -1.5077 0
M  V30 4647 H 451.801 1.99588 -3.58713 0
M  V30 4648 H 450.462 2.00359 -2.41899 0
M  V30 4649 H 449.655 1.62719 -4.7701 0
M  V30 4650 H 449.257 0.238246 -3.7324 0
M  V30 4651 H 451.549 1.65479 -6.5698 0
M  V30 4652 H 452.492 0.217673 -7.07765 0
M  V30 4653 H 452.9 1.04806 -5.54685 0
M  V30 4654 N 452.299 1.55045 -0.282633 0
M  V30 4655 C 453.229 2.2579 0.595066 0
M  V30 4656 C 454.21 1.25074 1.15284 0
M  V30 4657 O 455.395 1.5381 1.18559 0
M  V30 4658 C 452.525 2.98472 1.77572 0
M  V30 4659 C 451.479 4.0618 1.34914 0
M  V30 4660 C 450.805 4.66477 2.6135 0
M  V30 4661 C 452.105 5.1996 0.493821 0
M  V30 4662 H 453.799 2.994 0.00505653 0
M  V30 4663 H 451.345 1.44 0.000992001 0
M  V30 4664 H 453.298 3.46677 2.39568 0
M  V30 4665 H 452.022 2.2241 2.39168 0
M  V30 4666 H 450.681 3.58797 0.752338 0
M  V30 4667 H 450.329 3.87074 3.2122 0
M  V30 4668 H 450.029 5.39207 2.33516 0
M  V30 4669 H 451.553 5.17435 3.24181 0
M  V30 4670 H 452.967 5.64172 1.01898 0
M  V30 4671 H 451.364 5.99299 0.310047 0
M  V30 4672 H 452.434 4.82462 -0.485593 0
M  V30 4673 N 453.777 0.010035 1.57597 0
M  V30 4674 C 455.005 -0.683413 1.95287 0
M  V30 4675 C 455.42 -1.66747 0.885481 0
M  V30 4676 O 454.777 -1.82003 -0.134629 0
M  V30 4677 C 454.828 -1.40652 3.33015 0
M  V30 4678 O 454.549 -0.461916 4.35658 0
M  V30 4679 C 456.05 -2.19356 3.85225 0
M  V30 4680 H 453.27 -0.189708 0.643624 0
M  V30 4681 H 455.814 0.0641359 2.04399 0
M  V30 4682 H 453.969 -2.10562 3.2518 0
M  V30 4683 H 454.383 -0.973215 5.15392 0
M  V30 4684 H 455.857 -2.65433 4.83993 0
M  V30 4685 H 456.334 -3.02457 3.18459 0
M  V30 4686 H 456.94 -1.54442 3.96267 0
M  V30 4687 N 455.255 -1.55392 -0.262866 0
M  V30 4688 C 456.495 -1.78231 -1.00064 0
M  V30 4689 C 456.859 -0.576966 -1.83126 0
M  V30 4690 O 458.06 -0.683809 -2.59957 0
M  V30 4691 C 456.331 -3.05701 -1.85153 0
M  V30 4692 S 457.89 -3.49699 -2.65058 0
M  V30 4693 H 454.708 -0.626138 -0.336856 0
M  V30 4694 H 457.31 -1.93626 -0.27005 0
M  V30 4695 H 456.014 -3.91511 -1.23074 0
M  V30 4696 H 455.545 -2.93 -2.62515 0
M  V30 4697 H 457.56 -3.09772 -3.87629 0
M  V30 4698 N 456.733 0.527833 -1.48498 0
M  V30 4699 C 457.958 1.313 -1.60546 0
M  V30 4700 C 458.383 1.86199 -0.26672 0
M  V30 4701 O 457.741 1.64513 0.761918 0
M  V30 4702 C 457.789 2.43818 -2.65678 0
M  V30 4703 O 456.893 3.46916 -2.22987 0
M  V30 4704 H 456.234 0.388784 -0.538277 0
M  V30 4705 H 458.764 0.634896 -1.945 0
M  V30 4706 H 458.774 2.89973 -2.87018 0
M  V30 4707 H 457.449 2.03222 -3.62869 0
M  V30 4708 H 456.026 3.06864 -2.11869 0
M  V30 4709 N 458.211 1.37122 0.776871 0
M  V30 4710 C 459.459 1.31787 1.53221 0
M  V30 4711 C 459.78 -0.0987589 1.9475 0
M  V30 4712 O 459.05 -1.0417 1.65908 0
M  V30 4713 H 457.63 0.484839 0.568278 0
M  V30 4714 H 460.292 1.71556 0.924917 0
M  V30 4715 H 459.388 1.95355 2.43398 0
M  V30 4716 N 459.689 -1.00246 1.21608 0
M  V30 4717 C 460.935 -1.74319 1.03638 0
M  V30 4718 C 461.268 -1.89408 -0.428749 0
M  V30 4719 O 460.543 -1.43026 -1.3181 0
M  V30 4720 C 460.826 -3.15431 1.73711 0
M  V30 4721 C 460.679 -3.08049 3.27759 0
M  V30 4722 C 461.998 -4.14407 1.48173 0
M  V30 4723 H 459.117 -0.632741 0.377899 0
M  V30 4724 H 461.759 -1.16853 1.49818 0
M  V30 4725 H 459.909 -3.64493 1.34452 0
M  V30 4726 H 461.581 -2.66681 3.76403 0
M  V30 4727 H 459.824 -2.45088 3.57931 0
M  V30 4728 H 460.495 -4.07862 3.71958 0
M  V30 4729 H 462.971 -3.74061 1.82258 0
M  V30 4730 H 461.847 -5.11279 1.99713 0
M  V30 4731 H 462.108 -4.40174 0.412273 0
M  V30 4732 N 461.167 -1.02423 -1.1978 0
M  V30 4733 C 462.414 -0.717988 -1.89344 0
M  V30 4734 C 462.742 0.753036 -1.79331 0
M  V30 4735 O 461.997 1.56355 -1.17692 0
M  V30 4736 C 462.296 -1.1088 -3.39765 0
M  V30 4737 C 461.962 -2.57731 -3.6998 0
M  V30 4738 C 460.624 -2.97854 -3.77937 0
M  V30 4739 C 462.976 -3.52763 -3.83677 0
M  V30 4740 C 460.304 -4.31931 -3.97054 0
M  V30 4741 C 462.656 -4.86538 -4.04306 0
M  V30 4742 C 461.32 -5.26356 -4.10494 0
M  V30 4743 H 460.59 -0.26273 -0.692859 0
M  V30 4744 H 463.237 -1.28623 -1.41875 0
M  V30 4745 H 461.542 -0.459094 -3.89101 0
M  V30 4746 H 463.239 -0.849432 -3.919 0
M  V30 4747 H 459.829 -2.25646 -3.64393 0
M  V30 4748 H 464.013 -3.2292 -3.76877 0
M  V30 4749 H 459.269 -4.62324 -4.00083 0
M  V30 4750 H 463.443 -5.60093 -4.13846 0
M  V30 4751 H 461.07 -6.3026 -4.2506 0
M  V30 4752 N 462.645 1.35699 -0.801477 0
M  V30 4753 C 463.592 2.29876 -0.206294 0
M  V30 4754 C 464.562 1.52565 0.656752 0
M  V30 4755 O 465.747 1.81024 0.602906 0
M  V30 4756 C 462.887 3.39052 0.643272 0
M  V30 4757 C 462 4.31335 -0.239644 0
M  V30 4758 C 461.135 5.27599 0.61744 0
M  V30 4759 C 460.174 6.11521 -0.26619 0
M  V30 4760 N 459.311 6.99938 0.550571 0
M  V30 4761 H 464.151 2.80187 -1.01484 0
M  V30 4762 H 461.688 1.37902 -0.511997 0
M  V30 4763 H 463.646 4.0101 1.15094 0
M  V30 4764 H 462.276 2.9003 1.41713 0
M  V30 4765 H 461.328 3.70426 -0.865381 0
M  V30 4766 H 462.64 4.90243 -0.919985 0
M  V30 4767 H 461.794 5.94906 1.19045 0
M  V30 4768 H 460.533 4.69176 1.33137 0
M  V30 4769 H 459.538 5.43166 -0.851507 0
M  V30 4770 H 460.763 6.72022 -0.9779 0
M  V30 4771 H 458.709 6.44008 1.24856 0
M  V30 4772 H 458.626 7.55966 -0.071832 0
M  V30 4773 H 459.894 7.71599 1.10702 0
M  V30 4774 N 464.123 0.554532 1.47522 0
M  V30 4775 C 465.369 0.0295227 2.02779 0
M  V30 4776 C 465.702 -1.31582 1.42828 0
M  V30 4777 O 464.977 -1.85561 0.582872 0
M  V30 4778 C 465.26 -0.0664057 3.60039 0
M  V30 4779 C 465.113 1.30585 4.30427 0
M  V30 4780 C 466.432 -0.781162 4.33112 0
M  V30 4781 H 463.551 0.0122027 0.736899 0
M  V30 4782 H 466.193 0.716305 1.7598 0
M  V30 4783 H 464.343 -0.651307 3.83002 0
M  V30 4784 H 466.015 1.93374 4.18813 0
M  V30 4785 H 464.258 1.88125 3.90886 0
M  V30 4786 H 464.929 1.19147 5.38988 0
M  V30 4787 H 467.405 -0.284565 4.15126 0
M  V30 4788 H 466.281 -0.817237 5.42782 0
M  V30 4789 H 466.542 -1.83672 4.0214 0
M  V30 4790 N 465.601 -1.54893 0.290851 0
M  V30 4791 C 466.847 -2.00949 -0.314784 0
M  V30 4792 C 467.202 -1.1757 -1.52299 0
M  V30 4793 O 466.495 -0.241558 -1.90071 0
M  V30 4794 C 466.689 -3.49815 -0.732397 0
M  V30 4795 C 466.518 -4.47603 0.433799 0
M  V30 4796 C 465.288 -4.96806 0.922599 0
M  V30 4797 C 467.486 -4.98233 1.27546 0
M  V30 4798 N 465.468 -5.78426 2.05662 0
M  V30 4799 C 466.839 -5.77455 2.25712 0
M  V30 4800 C 468.894 -4.80439 1.307 0
M  V30 4801 C 467.597 -6.40778 3.26796 0
M  V30 4802 C 469.623 -5.44574 2.30637 0
M  V30 4803 C 468.985 -6.23619 3.27533 0
M  V30 4804 H 465.084 -0.777905 -0.0799257 0
M  V30 4805 H 467.668 -1.9015 0.418458 0
M  V30 4806 H 465.839 -3.60925 -1.43483 0
M  V30 4807 H 467.571 -3.82681 -1.31671 0
M  V30 4808 H 464.326 -4.70961 0.49926 0
M  V30 4809 H 464.75 -6.23923 2.62772 0
M  V30 4810 H 469.392 -4.18918 0.571622 0
M  V30 4811 H 467.11 -7.01439 4.01258 0
M  V30 4812 H 470.696 -5.32739 2.33838 0
M  V30 4813 H 469.576 -6.72367 4.03599 0
M  V30 4814 N 467.08 -0.0183926 -1.57589 0
M  V30 4815 C 468.028 0.985111 -2.10709 0
M  V30 4816 C 469.022 1.34397 -1.0312 0
M  V30 4817 O 470.228 1.32746 -1.21567 0
M  V30 4818 H 466.603 0.335418 -0.673052 0
M  V30 4819 H 468.574 0.511689 -2.9398 0
M  V30 4820 C 467.323 2.26202 -2.64061 0
M  V30 4821 H 466.646 1.9946 -3.4649 0
M  V30 4822 H 468.086 2.94652 -3.04887 0
M  V30 4823 C 466.545 2.98444 -1.5631 0
M  V30 4824 O 467.075 3.90142 -0.956674 0
M  V30 4825 N 465.281 2.6059 -1.28612 0
M  V30 4826 H 464.828 1.86101 -1.78112 0
M  V30 4827 H 464.786 3.09238 -0.567406 0
M  V30 4828 N 468.558 1.5553 0.254621 0
M  V30 4829 C 469.969 1.67518 0.824286 0
M  V30 4830 C 470.32 0.614429 1.86331 0
M  V30 4831 O 469.445 -0.240736 2.15057 0
M  V30 4832 C 470.04 3.03692 1.50189 0
M  V30 4833 C 468.599 3.17646 2.01935 0
M  V30 4834 C 467.746 2.63373 0.867746 0
M  V30 4835 H 470.697 1.58671 0.0305843 0
M  V30 4836 H 470.718 2.97706 2.36962 0
M  V30 4837 H 470.23 3.80874 0.745431 0
M  V30 4838 H 468.331 2.45273 2.80485 0
M  V30 4839 H 468.444 4.24455 2.22204 0
M  V30 4840 H 466.808 2.20999 1.26616 0
M  V30 4841 H 467.591 3.43074 0.124498 0
M  V30 4842 N 470.036 -0.519951 1.48776 0
M  V30 4843 C 471.285 -1.27175 1.56555 0
M  V30 4844 C 471.598 -1.9401 0.248869 0
M  V30 4845 O 472.804 -2.70725 0.205004 0
M  V30 4846 C 471.26 -2.30811 2.76142 0
M  V30 4847 C 470.868 -1.7 4.14493 0
M  V30 4848 C 472.612 -3.06937 2.9324 0
M  V30 4849 C 470.519 -2.71635 5.25327 0
M  V30 4850 H 469.449 -0.478329 0.582853 0
M  V30 4851 H 472.1 -0.547916 1.75129 0
M  V30 4852 H 470.482 -3.06274 2.51023 0
M  V30 4853 H 471.656 -1.00658 4.49672 0
M  V30 4854 H 469.971 -1.06331 4.02595 0
M  V30 4855 H 472.568 -3.82905 3.73213 0
M  V30 4856 H 472.911 -3.63409 2.03075 0
M  V30 4857 H 473.444 -2.38589 3.18308 0
M  V30 4858 H 470.183 -2.1997 6.1749 0
M  V30 4859 H 469.703 -3.39275 4.94624 0
M  V30 4860 H 471.382 -3.34429 5.53865 0
M  V30 4861 N 471.514 -1.37532 -0.769588 0
M  V30 4862 C 472.791 -1.23392 -1.51768 0
M  V30 4863 C 473.171 0.17157 -2.10402 0
M  V30 4864 O 472.519 1.17943 -1.95708 0
M  V30 4865 C 472.729 -2.33163 -2.59685 0
M  V30 4866 C 474.077 -2.70809 -3.27028 0
M  V30 4867 O 475.101 -2.32355 -2.69981 0
M  V30 4868 O 473.96 -3.37066 -4.30173 0
M  V30 4869 H 471.054 -0.481617 -0.67229 0
M  V30 4870 H 473.6 -1.49318 -0.806368 0
M  V30 4871 H 472.372 -3.27273 -2.14494 0
M  V30 4872 H 471.995 -2.08713 -3.38415 0
M  V30 4873 N 472.992 0.995999 -1.22138 0
M  V30 4874 C 473.955 2.06711 -0.990109 0
M  V30 4875 C 474.955 1.60744 0.0422978 0
M  V30 4876 O 476.145 1.73095 -0.195895 0
M  V30 4877 C 473.277 3.37288 -0.49491 0
M  V30 4878 H 474.47 2.28661 -1.94047 0
M  V30 4879 H 472.023 1.16711 -1.03963 0
M  V30 4880 H 472.758 3.21022 0.459948 0
M  V30 4881 H 472.543 3.71986 -1.23971 0
M  V30 4882 H 474.033 4.16103 -0.353253 0
M  V30 4883 N 474.47 1.03057 1.19235 0
M  V30 4884 C 475.418 0.606391 2.24557 0
M  V30 4885 C 476.412 -0.361826 1.65491 0
M  V30 4886 O 477.618 -0.23022 1.78522 0
M  V30 4887 H 473.993 0.177838 0.730669 0
M  V30 4888 H 475.964 1.50529 2.5765 0
M  V30 4889 C 474.713 -0.0252127 3.47691 0
M  V30 4890 H 474.036 0.710838 3.9343 0
M  V30 4891 H 475.476 -0.284931 4.23042 0
M  V30 4892 C 473.935 -1.27229 3.11953 0
M  V30 4893 O 474.465 -2.36416 3.24762 0
M  V30 4894 N 472.671 -1.16169 2.6637 0
M  V30 4895 H 472.218 -0.273189 2.56147 0
M  V30 4896 H 472.176 -1.99703 2.42829 0
M  V30 4897 N 475.948 -1.35272 0.808662 0
M  V30 4898 C 477.176 -2.02946 0.402537 0
M  V30 4899 C 477.591 -1.60937 -0.987147 0
M  V30 4900 O 476.948 -0.807917 -1.63643 0
M  V30 4901 C 476.999 -3.58317 0.47868 0
M  V30 4902 O 476.72 -3.98799 1.81358 0
M  V30 4903 C 478.221 -4.43251 0.0656281 0
M  V30 4904 H 475.441 -0.650831 0.163279 0
M  V30 4905 H 477.985 -1.72849 1.09286 0
M  V30 4906 H 476.14 -3.87055 -0.163415 0
M  V30 4907 H 476.554 -4.93451 1.77781 0
M  V30 4908 H 478.028 -5.51738 0.170017 0
M  V30 4909 H 478.505 -4.27913 -0.989278 0
M  V30 4910 H 479.111 -4.19813 0.68096 0
M  V30 4911 N 477.426 -0.562348 -1.47226 0
M  V30 4912 C 478.654 -0.0452275 -2.06851 0
M  V30 4913 C 479.069 1.25078 -1.41424 0
M  V30 4914 O 478.426 1.75156 -0.512513 0
M  V30 4915 C 478.477 0.148674 -3.61194 0
M  V30 4916 O 478.198 -1.09602 -4.24169 0
M  V30 4917 C 479.699 0.702488 -4.37699 0
M  V30 4918 H 476.919 -0.0481775 -0.669268 0
M  V30 4919 H 479.463 -0.777223 -1.89155 0
M  V30 4920 H 477.618 0.830817 -3.78386 0
M  V30 4921 H 478.032 -0.896982 -5.16773 0
M  V30 4922 H 479.506 0.78743 -5.46355 0
M  V30 4923 H 479.983 1.71493 -4.04335 0
M  V30 4924 H 480.589 0.0558772 -4.25263 0
M  V30 4925 N 478.904 1.54736 -0.299062 0
M  V30 4926 C 479.814 2.27127 0.587413 0
M  V30 4927 C 480.83 1.30575 1.15005 0
M  V30 4928 O 482.006 1.63554 1.17525 0
M  V30 4929 C 479.071 2.99645 1.74395 0
M  V30 4930 C 478.132 4.11731 1.21559 0
M  V30 4931 C 477.365 4.80781 2.317 0
M  V30 4932 O 477.588 4.4918 3.51558 0
M  V30 4933 O 476.522 5.68226 1.98501 0
M  V30 4934 H 480.348 3.037 0.000250109 0
M  V30 4935 H 477.933 1.49256 -0.0655919 0
M  V30 4936 H 479.815 3.45138 2.4178 0
M  V30 4937 H 478.49 2.25969 2.31775 0
M  V30 4938 H 477.397 3.70641 0.507514 0
M  V30 4939 H 478.73 4.87379 0.687233 0
M  V30 4940 N 480.382 0.0267497 1.57577 0
M  V30 4941 C 481.628 -0.653371 1.91987 0
M  V30 4942 C 481.961 -1.71915 0.903263 0
M  V30 4943 O 481.236 -1.94358 -0.0743387 0
M  V30 4944 C 481.519 -1.272 3.36886 0
M  V30 4945 C 481.372 -0.215938 4.49281 0
M  V30 4946 C 482.691 -2.19069 3.81703 0
M  V30 4947 H 479.81 -0.236047 0.698177 0
M  V30 4948 H 482.452 0.0835236 1.89816 0
M  V30 4949 H 480.602 -1.90005 3.38866 0
M  V30 4950 H 482.274 0.41449 4.59434 0
M  V30 4951 H 480.517 0.458855 4.31366 0
M  V30 4952 H 481.188 -0.688347 5.47691 0
M  V30 4953 H 483.664 -1.66253 3.81444 0
M  V30 4954 H 482.54 -2.59307 4.83788 0
M  V30 4955 H 482.801 -3.08087 3.17072 0
M  V30 4956 N 481.861 -1.55662 -0.24637 0
M  V30 4957 C 483.107 -1.78698 -0.971525 0
M  V30 4958 C 483.462 -0.59577 -1.82944 0
M  V30 4959 O 482.755 0.41097 -1.87141 0
M  V30 4960 C 482.949 -3.04885 -1.86494 0
M  V30 4961 C 482.778 -4.36165 -1.09501 0
M  V30 4962 C 481.548 -4.98929 -0.799895 0
M  V30 4963 C 483.746 -5.12126 -0.472334 0
M  V30 4964 N 481.728 -6.139 -0.00595299 0
M  V30 4965 C 483.099 -6.1972 0.18616 0
M  V30 4966 C 485.154 -4.96426 -0.382854 0
M  V30 4967 C 483.857 -7.13321 0.925542 0
M  V30 4968 C 485.883 -5.90405 0.342999 0
M  V30 4969 C 485.245 -6.97407 0.990128 0
M  V30 4970 H 481.344 -0.705852 -0.336597 0
M  V30 4971 H 483.928 -1.93157 -0.244615 0
M  V30 4972 H 482.099 -2.91753 -2.56388 0
M  V30 4973 H 483.831 -3.16212 -2.5257 0
M  V30 4974 H 480.586 -4.60365 -1.11181 0
M  V30 4975 H 481.01 -6.75938 0.379127 0
M  V30 4976 H 485.652 -4.13777 -0.868834 0
M  V30 4977 H 483.37 -7.9547 1.42312 0
M  V30 4978 H 486.956 -5.80333 0.412907 0
M  V30 4979 H 485.836 -7.68874 1.54282 0
M  V30 4980 N 483.339 0.512053 -1.4905 0
M  V30 4981 C 484.567 1.29116 -1.61669 0
M  V30 4982 C 484.982 1.86655 -0.283787 0
M  V30 4983 O 484.339 1.67293 0.729331 0
M  V30 4984 C 484.39 2.4293 -2.67707 0
M  V30 4985 O 484.111 1.87758 -3.95826 0
M  V30 4986 C 485.612 3.34476 -2.90931 0
M  V30 4987 H 482.832 0.392009 -0.544583 0
M  V30 4988 H 485.376 0.615881 -1.95006 0
M  V30 4989 H 483.531 3.06308 -2.37179 0
M  V30 4990 H 483.945 2.62393 -4.54148 0
M  V30 4991 H 485.419 4.10642 -3.68886 0
M  V30 4992 H 485.896 3.90801 -2.00427 0
M  V30 4993 H 486.502 2.76874 -3.22832 0
M  V30 4994 N 484.817 1.37938 0.762283 0
M  V30 4995 C 486.047 1.36685 1.54922 0
M  V30 4996 C 486.455 -0.0474099 1.89141 0
M  V30 4997 O 485.798 -1.02213 1.52638 0
M  V30 4998 C 485.86 2.14963 2.88152 0
M  V30 4999 C 485.524 3.6385 2.76518 0
M  V30 5000 C 486.521 4.57531 2.46904 0
M  V30 5001 C 484.206 4.07095 2.94243 0
M  V30 5002 C 486.2 5.92436 2.35156 0
M  V30 5003 C 483.887 5.42083 2.82116 0
M  V30 5004 C 484.885 6.34567 2.52614 0
M  V30 5005 O 484.573 7.67073 2.40529 0
M  V30 5006 H 484.305 0.469586 0.486276 0
M  V30 5007 H 486.859 1.82012 0.951876 0
M  V30 5008 H 485.089 1.6434 3.50042 0
M  V30 5009 H 486.778 2.06224 3.49609 0
M  V30 5010 H 487.544 4.25428 2.32886 0
M  V30 5011 H 483.423 3.35462 3.16206 0
M  V30 5012 H 486.967 6.64591 2.12049 0
M  V30 5013 H 482.864 5.73785 2.95704 0
M  V30 5014 H 483.632 7.77499 2.55807 0
M  V30 5015 N 486.295 -0.989507 1.22664 0
M  V30 5016 C 487.258 -2.06183 1.00106 0
M  V30 5017 C 488.258 -1.60765 -0.0337726 0
M  V30 5018 O 489.448 -1.72989 0.205072 0
M  V30 5019 C 486.58 -3.37021 0.51279 0
M  V30 5020 H 487.773 -2.27629 1.95256 0
M  V30 5021 H 485.326 -1.16158 1.0458 0
M  V30 5022 H 486.061 -3.21261 -0.442917 0
M  V30 5023 H 485.846 -3.71323 1.25942 0
M  V30 5024 H 487.336 -4.1591 0.375315 0
M  V30 5025 N 487.773 -1.03688 -1.18687 0
M  V30 5026 C 489.022 -0.733235 -1.879 0
M  V30 5027 C 489.335 0.741745 -1.8099 0
M  V30 5028 O 490.541 1.15875 -2.4553 0
M  V30 5029 C 488.997 -1.26127 -3.37076 0
M  V30 5030 C 488.605 -2.76461 -3.52524 0
M  V30 5031 C 490.349 -1.03398 -4.11715 0
M  V30 5032 C 488.256 -3.22642 -4.95637 0
M  V30 5033 H 487.186 -0.270584 -0.703776 0
M  V30 5034 H 489.837 -1.25222 -1.34133 0
M  V30 5035 H 488.219 -0.670165 -3.90288 0
M  V30 5036 H 489.393 -3.41296 -3.09602 0
M  V30 5037 H 487.708 -2.97559 -2.91286 0
M  V30 5038 H 490.305 -1.3542 -5.17267 0
M  V30 5039 H 490.648 0.0289246 -4.1629 0
M  V30 5040 H 491.181 -1.5895 -3.64664 0
M  V30 5041 H 487.92 -4.28296 -4.96228 0
M  V30 5042 H 487.44 -2.62539 -5.39289 0
M  V30 5043 H 489.119 -3.16444 -5.64333 0
M  V30 5044 N 489.251 1.34841 -0.815825 0
M  V30 5045 C 490.497 1.98793 -0.401129 0
M  V30 5046 C 490.83 1.64548 1.03139 0
M  V30 5047 O 490.105 0.913487 1.71714 0
M  V30 5048 C 490.388 3.55143 -0.595409 0
M  V30 5049 C 490.241 3.99155 -2.07352 0
M  V30 5050 C 491.56 4.40092 -0.0268823 0
M  V30 5051 H 488.679 0.722146 -0.14722 0
M  V30 5052 H 491.321 1.59847 -1.02707 0
M  V30 5053 H 489.471 3.8845 -0.0625779 0
M  V30 5054 H 491.143 3.76216 -2.66945 0
M  V30 5055 H 489.386 3.49726 -2.56659 0
M  V30 5056 H 490.057 5.07971 -2.1603 0
M  V30 5057 H 492.533 4.13298 -0.482042 0
M  V30 5058 H 491.409 5.48562 -0.19267 0
M  V30 5059 H 491.67 4.29016 1.06759 0
M  V30 5060 N 490.729 0.570148 1.46925 0
M  V30 5061 C 491.639 -0.173061 2.33961 0
M  V30 5062 C 492.655 -0.898825 1.48987 0
M  V30 5063 O 493.831 -0.864825 1.81887 0
M  V30 5064 C 490.896 -1.18177 3.25937 0
M  V30 5065 C 489.957 -0.462041 4.26806 0
M  V30 5066 C 489.19 -1.4227 5.14388 0
M  V30 5067 O 489.413 -2.65842 5.04662 0
M  V30 5068 O 488.347 -0.940127 5.94513 0
M  V30 5069 H 492.173 0.541216 2.98839 0
M  V30 5070 H 489.758 0.330647 1.45695 0
M  V30 5071 H 491.64 -1.76372 3.82715 0
M  V30 5072 H 490.315 -1.87774 2.63671 0
M  V30 5073 H 489.222 0.161429 3.73752 0
M  V30 5074 H 490.555 0.192719 4.91823 0
M  V30 5075 N 492.207 -1.54576 0.307264 0
M  V30 5076 C 493.154 -2.23751 -0.56604 0
M  V30 5077 C 494.124 -1.22235 -1.12462 0
M  V30 5078 O 495.309 -1.50873 -1.16799 0
M  V30 5079 C 492.449 -2.98661 -1.72903 0
M  V30 5080 C 491.562 -4.14963 -1.20124 0
M  V30 5081 C 490.697 -4.77441 -2.3286 0
M  V30 5082 C 489.736 -5.85875 -1.77247 0
M  V30 5083 N 488.873 -6.42282 -2.8358 0
M  V30 5084 H 493.713 -2.97984 0.0304578 0
M  V30 5085 H 491.25 -1.47076 0.0268015 0
M  V30 5086 H 493.208 -3.40329 -2.41313 0
M  V30 5087 H 491.838 -2.26793 -2.29706 0
M  V30 5088 H 490.89 -3.78193 -0.409198 0
M  V30 5089 H 492.202 -4.93066 -0.754171 0
M  V30 5090 H 491.356 -5.21993 -3.09205 0
M  V30 5091 H 490.095 -3.98684 -2.80896 0
M  V30 5092 H 489.1 -5.40741 -0.993926 0
M  V30 5093 H 490.325 -6.6652 -1.30107 0
M  V30 5094 H 488.271 -5.66406 -3.30939 0
M  V30 5095 H 488.188 -7.1575 -2.43388 0
M  V30 5096 H 489.456 -6.91492 -3.59804 0
M  V30 5097 N 493.685 -0.035106 -1.57561 0
M  V30 5098 C 494.962 0.681212 -1.83354 0
M  V30 5099 C 495.342 1.89986 -0.920252 0
M  V30 5100 O 494.69 2.28489 0.0226815 0
M  V30 5101 C 494.9 1.05376 -3.32712 0
M  V30 5102 C 496.248 1.44286 -3.99333 0
M  V30 5103 O 497.272 1.14656 -3.37242 0
M  V30 5104 O 496.131 1.99518 -5.08778 0
M  V30 5105 H 493.225 0.334741 -0.756226 0
M  V30 5106 H 495.771 -0.0632448 -1.69582 0
M  V30 5107 H 494.543 0.186668 -3.90854 0
M  V30 5108 H 494.166 1.85619 -3.51613 0
M  V30 5109 N 495.163 1.55791 0.238111 0
M  V30 5110 C 496.096 1.86036 1.32158 0
M  V30 5111 C 497.074 0.716216 1.45976 0
M  V30 5112 O 498.258 0.962882 1.62052 0
M  V30 5113 C 495.385 2.05281 2.69402 0
M  V30 5114 C 494.431 3.27939 2.72687 0
M  V30 5115 S 495.264 4.84342 2.28413 0
M  V30 5116 C 496.42 5.06604 3.67565 0
M  V30 5117 H 496.653 2.77644 1.06306 0
M  V30 5118 H 494.186 1.48012 0.439537 0
M  V30 5119 H 496.144 2.17053 3.48423 0
M  V30 5120 H 494.805 1.14499 2.92487 0
M  V30 5121 H 493.998 3.38398 3.73501 0
M  V30 5122 H 493.6 3.14938 2.01717 0
M  V30 5123 H 495.892 4.94486 4.6313 0
M  V30 5124 H 496.835 6.08554 3.62033 0
M  V30 5125 H 497.243 4.34409 3.60485 0
M  V30 5126 N 496.642 -0.504142 1.49319 0
M  V30 5127 C 498.053 -1.08572 1.51885 0
M  V30 5128 C 498.404 -1.93842 0.303255 0
M  V30 5129 O 497.529 -2.0828 -0.58724 0
M  V30 5130 C 498.124 -1.97574 2.75227 0
M  V30 5131 C 496.683 -2.509 2.80581 0
M  V30 5132 C 495.83 -1.28447 2.45757 0
M  V30 5133 H 498.781 -0.288194 1.56061 0
M  V30 5134 H 498.802 -2.82219 2.55211 0
M  V30 5135 H 498.314 -1.35486 3.63683 0
M  V30 5136 H 496.415 -3.16636 1.96398 0
M  V30 5137 H 496.528 -2.88268 3.82673 0
M  V30 5138 H 494.892 -1.60868 1.97468 0
M  V30 5139 H 495.675 -0.68072 3.36483 0
M  V30 5140 N 498.12 -1.38341 -0.754957 0
M  V30 5141 C 499.03 -1.3769 -1.89944 0
M  V30 5142 C 500.046 -0.274194 -1.71826 0
M  V30 5143 O 501.222 -0.512391 -1.94773 0
M  V30 5144 C 498.287 -1.19938 -3.25293 0
M  V30 5145 C 497.348 -2.40001 -3.55946 0
M  V30 5146 C 496.581 -2.23087 -4.84838 0
M  V30 5147 O 496.804 -1.22386 -5.57116 0
M  V30 5148 O 495.738 -3.11646 -5.14937 0
M  V30 5149 H 499.564 -2.3412 -1.93446 0
M  V30 5150 H 497.149 -1.19246 -0.900044 0
M  V30 5151 H 499.031 -1.12093 -4.06218 0
M  V30 5152 H 497.706 -0.265919 -3.22606 0
M  V30 5153 H 496.613 -2.53421 -2.75188 0
M  V30 5154 H 497.946 -3.31973 -3.63394 0
M  V30 5155 N 499.598 0.982988 -1.23187 0
M  V30 5156 C 500.875 1.69814 -0.970707 0
M  V30 5157 C 501.255 2.04811 0.511424 0
M  V30 5158 O 500.603 1.73924 1.48198 0
M  V30 5159 C 500.813 2.94143 -1.87831 0
M  V30 5160 C 502.161 3.66712 -2.14026 0
M  V30 5161 O 503.185 3.04171 -1.8536 0
M  V30 5162 O 502.044 4.79258 -2.62629 0
M  V30 5163 H 499.138 0.741659 -0.365884 0
M  V30 5164 H 501.684 1.03844 -1.34218 0
M  V30 5165 H 500.456 2.64858 -2.88038 0
M  V30 5166 H 500.079 3.6785 -1.50905 0
M  V30 5167 N 501.076 1.04316 1.18135 0
M  V30 5168 C 502.006 0.657299 2.24058 0
M  V30 5169 C 502.987 -0.340678 1.66654 0
M  V30 5170 O 504.172 -0.220223 1.92947 0
M  V30 5171 C 501.302 0.0220715 3.47293 0
M  V30 5172 C 500.256 0.943857 4.17463 0
M  V30 5173 C 499.582 0.172973 5.3442 0
M  V30 5174 C 500.882 2.26409 4.70677 0
M  V30 5175 H 502.576 1.5428 2.56589 0
M  V30 5176 H 500.122 0.743263 1.23335 0
M  V30 5177 H 502.075 -0.259607 4.206 0
M  V30 5178 H 500.799 -0.898323 3.14003 0
M  V30 5179 H 499.458 1.20996 3.46057 0
M  V30 5180 H 499.106 -0.749907 4.97379 0
M  V30 5181 H 498.806 0.787098 5.82304 0
M  V30 5182 H 500.33 -0.101628 6.10515 0
M  V30 5183 H 501.744 2.04294 5.35665 0
M  V30 5184 H 500.141 2.8314 5.29105 0
M  V30 5185 H 501.211 2.90883 3.87962 0
M  V30 5186 N 502.554 -1.34406 0.822964 0
M  V30 5187 C 503.501 -2.29519 0.24284 0
M  V30 5188 C 504.471 -1.5359 -0.632397 0
M  V30 5189 O 505.656 -1.8196 -0.57403 0
M  V30 5190 C 502.796 -3.40032 -0.58925 0
M  V30 5191 C 501.909 -4.30899 0.308236 0
M  V30 5192 C 501.044 -5.28515 -0.533425 0
M  V30 5193 C 500.083 -6.1102 0.363444 0
M  V30 5194 N 499.22 -7.00725 -0.439147 0
M  V30 5195 H 504.06 -2.78537 1.05929 0
M  V30 5196 H 501.597 -1.3707 0.533872 0
M  V30 5197 H 503.555 -4.0279 -1.087 0
M  V30 5198 H 502.185 -2.92248 -1.37081 0
M  V30 5199 H 501.237 -3.69002 0.924203 0
M  V30 5200 H 502.549 -4.88717 0.997862 0
M  V30 5201 H 501.703 -5.96725 -1.09565 0
M  V30 5202 H 500.442 -4.71235 -1.25656 0
M  V30 5203 H 499.447 -5.41743 0.937812 0
M  V30 5204 H 500.672 -6.70381 1.08469 0
M  V30 5205 H 498.618 -6.45913 -1.14595 0
M  V30 5206 H 498.535 -7.55756 0.19209 0
M  V30 5207 H 499.803 -7.73263 -0.984124 0
M  V30 5208 N 504.032 -0.577932 -1.46621 0
M  V30 5209 C 505.448 -0.239242 -1.57797 0
M  V30 5210 C 505.648 1.25843 -1.57371 0
M  V30 5211 O 504.704 2.03988 -1.48813 0
M  V30 5212 C 506.017 -0.884227 -2.87405 0
M  V30 5213 C 507.565 -0.857373 -3.01028 0
M  V30 5214 C 508.04 -1.48181 -4.33366 0
M  V30 5215 N 509.531 -1.44593 -4.40053 0
M  V30 5216 C 510.266 -1.89852 -5.41058 0
M  V30 5217 N 509.762 -2.43062 -6.48762 0
M  V30 5218 N 511.555 -1.80797 -5.3223 0
M  V30 5219 H 503.706 -1.55073 -1.45142 0
M  V30 5220 H 505.969 -0.647903 -0.692044 0
M  V30 5221 H 505.675 -1.93759 -2.93514 0
M  V30 5222 H 505.549 -0.389585 -3.75183 0
M  V30 5223 H 507.936 0.187357 -2.94505 0
M  V30 5224 H 508.017 -1.38999 -2.14739 0
M  V30 5225 H 507.661 -2.52572 -4.40647 0
M  V30 5226 H 507.591 -0.924464 -5.18422 0
M  V30 5227 H 510.082 -1.05694 -3.62819 0
M  V30 5228 H 510.395 -2.75466 -7.22038 0
M  V30 5229 H 508.74 -2.47085 -6.49595 0
M  V30 5230 H 511.931 -1.38989 -4.46989 0
M  V30 5231 H 512.104 -2.16385 -6.10804 0
M  V30 5232 N 505.51 1.54411 -0.315457 0
M  V30 5233 C 506.926 1.59556 0.037464 0
M  V30 5234 C 507.126 1.33217 1.5118 0
M  V30 5235 O 506.182 1.11264 2.26664 0
M  V30 5236 C 507.495 2.98372 -0.373477 0
M  V30 5237 C 509.043 3.11324 -0.323452 0
M  V30 5238 C 509.518 4.52472 -0.709433 0
M  V30 5239 N 511.009 4.58437 -0.662524 0
M  V30 5240 C 511.744 5.65751 -0.933474 0
M  V30 5241 N 511.24 6.81039 -1.27114 0
M  V30 5242 N 513.033 5.55489 -0.859573 0
M  V30 5243 H 505.184 1.6979 -1.27614 0
M  V30 5244 H 507.447 0.793732 -0.518356 0
M  V30 5245 H 507.153 3.22618 -1.40037 0
M  V30 5246 H 507.027 3.76264 0.265615 0
M  V30 5247 H 509.414 2.86818 0.694223 0
M  V30 5248 H 509.495 2.35555 -0.997367 0
M  V30 5249 H 509.139 4.7771 -1.72498 0
M  V30 5250 H 509.069 5.26598 -0.0132923 0
M  V30 5251 H 511.56 3.75636 -0.413065 0
M  V30 5252 H 511.873 7.58816 -1.46348 0
M  V30 5253 H 510.218 6.82555 -1.30932 0
M  V30 5254 H 513.409 4.64299 -0.595324 0
M  V30 5255 H 513.582 6.39036 -1.0741 0
M  V30 5256 N 506.988 0.0434614 1.5754 0
M  V30 5257 C 507.918 -0.931651 2.14109 0
M  V30 5258 C 508.899 -1.32971 1.06079 0
M  V30 5259 O 510.084 -1.40579 1.33982 0
M  V30 5260 C 507.214 -2.20914 2.67982 0
M  V30 5261 C 506.168 -1.95139 3.80926 0
M  V30 5262 C 505.494 -3.29276 4.21285 0
M  V30 5263 C 506.794 -1.27913 5.06395 0
M  V30 5264 H 508.488 -0.460497 2.95837 0
M  V30 5265 H 506.034 -0.220058 1.42309 0
M  V30 5266 H 507.987 -2.89522 3.06194 0
M  V30 5267 H 506.711 -2.70221 1.83434 0
M  V30 5268 H 505.37 -1.28945 3.43175 0
M  V30 5269 H 505.018 -3.76369 3.33699 0
M  V30 5270 H 504.718 -3.12831 4.97404 0
M  V30 5271 H 506.242 -3.99129 4.62091 0
M  V30 5272 H 507.656 -1.86544 5.42102 0
M  V30 5273 H 506.053 -1.2182 5.87605 0
M  V30 5274 H 507.123 -0.254066 4.84234 0
M  V30 5275 N 508.466 -1.55915 -0.229846 0
M  V30 5276 C 509.429 -1.90914 -1.26824 0
M  V30 5277 C 510.429 -0.786999 -1.40225 0
M  V30 5278 O 511.619 -1.05484 -1.38632 0
M  V30 5279 C 508.751 -2.15264 -2.64337 0
M  V30 5280 H 509.944 -2.8378 -0.969998 0
M  V30 5281 H 507.497 -1.49069 -0.4699 0
M  V30 5282 H 508.232 -1.24923 -2.99274 0
M  V30 5283 H 508.017 -2.97005 -2.55989 0
M  V30 5284 H 509.507 -2.43467 -3.39284 0
M  V30 5285 N 509.944 0.496216 -1.49584 0
M  V30 5286 C 511.221 1.25755 -1.49816 0
M  V30 5287 C 511.601 2.09859 -0.228572 0
M  V30 5288 O 510.949 2.14449 0.788908 0
M  V30 5289 C 511.159 2.11017 -2.7798 0
M  V30 5290 C 512.507 2.70047 -3.27658 0
M  V30 5291 O 513.531 2.21281 -2.79129 0
M  V30 5292 O 512.39 3.58834 -4.1219 0
M  V30 5293 H 509.484 0.569322 -0.599834 0
M  V30 5294 H 512.03 0.510094 -1.61852 0
M  V30 5295 H 510.802 1.48879 -3.61871 0
M  V30 5296 H 510.425 2.92947 -2.68827 0
M  V30 5297 N 511.423 1.38739 0.74761 0
M  V30 5298 C 512.648 1.38702 1.54197 0
M  V30 5299 C 513.073 -0.019664 1.8809 0
M  V30 5300 O 512.431 -1.00333 1.51006 0
M  V30 5301 C 512.479 2.25492 2.814 0
M  V30 5302 O 511.583 1.67613 3.76802 0
M  V30 5303 H 510.924 0.472863 0.466151 0
M  V30 5304 H 513.454 1.82577 0.923413 0
M  V30 5305 H 513.464 2.39561 3.30264 0
M  V30 5306 H 512.139 3.27727 2.56062 0
M  V30 5307 H 510.716 1.62718 3.35526 0
M  V30 5308 N 512.901 -0.976442 1.23707 0
M  V30 5309 C 514.147 -1.72081 1.07312 0
M  V30 5310 C 514.48 -1.90275 -0.388476 0
M  V30 5311 O 513.755 -1.4579 -1.28746 0
M  V30 5312 C 514.038 -3.11675 1.80363 0
M  V30 5313 C 513.891 -3.01027 3.3422 0
M  V30 5314 C 515.21 -4.1117 1.5693 0
M  V30 5315 H 512.329 -0.624583 0.391236 0
M  V30 5316 H 514.971 -1.13649 1.52263 0
M  V30 5317 H 513.121 -3.61559 1.42153 0
M  V30 5318 H 514.793 -2.58637 3.81975 0
M  V30 5319 H 513.036 -2.3744 3.63049 0
M  V30 5320 H 513.707 -3.9988 3.80525 0
M  V30 5321 H 516.183 -3.7011 1.90151 0
M  V30 5322 H 515.059 -5.06928 2.10513 0
M  V30 5323 H 515.32 -4.392 0.505548 0
M  V30 5324 N 514.379 -1.04941 -1.1758 0
M  V30 5325 C 515.311 -0.606174 -2.21039 0
M  V30 5326 C 516.324 0.328763 -1.59446 0
M  V30 5327 O 517.513 0.121895 -1.78083 0
M  V30 5328 C 514.613 0.133294 -3.38638 0
M  V30 5329 C 513.786 -0.811711 -4.29802 0
M  V30 5330 C 512.845 -0.113958 -5.26077 0
M  V30 5331 O 511.871 -0.747237 -5.64274 0
M  V30 5332 N 513.073 1.14953 -5.69004 0
M  V30 5333 H 515.838 -1.49606 -2.59689 0
M  V30 5334 H 513.399 -0.930997 -1.32454 0
M  V30 5335 H 515.391 0.610144 -4.00074 0
M  V30 5336 H 513.961 0.924816 -2.98607 0
M  V30 5337 H 513.181 -1.46824 -3.65837 0
M  V30 5338 H 514.469 -1.45326 -4.87604 0
M  V30 5339 H 513.867 1.68441 -5.40041 0
M  V30 5340 H 512.424 1.57049 -6.32597 0
M  V30 5341 N 515.857 1.33968 -0.830081 0
M  V30 5342 C 517.273 1.51003 -0.516742 0
M  V30 5343 C 517.473 1.77286 0.957694 0
M  V30 5344 O 516.529 1.82797 1.74188 0
M  V30 5345 C 517.842 2.67036 -1.38247 0
M  V30 5346 C 519.39 2.80919 -1.38034 0
M  V30 5347 C 519.865 4.00004 -2.23071 0
M  V30 5348 N 521.356 4.07224 -2.20733 0
M  V30 5349 C 522.091 4.98541 -2.83275 0
M  V30 5350 N 521.587 5.95033 -3.54835 0
M  V30 5351 N 523.38 4.91469 -2.72791 0
M  V30 5352 H 515.531 1.15168 -1.78466 0
M  V30 5353 H 517.794 0.565443 -0.760906 0
M  V30 5354 H 517.5 2.54266 -2.42985 0
M  V30 5355 H 517.374 3.62226 -1.05225 0
M  V30 5356 H 519.761 2.93127 -0.340713 0
M  V30 5357 H 519.842 1.86517 -1.75057 0
M  V30 5358 H 519.486 3.88557 -3.27087 0
M  V30 5359 H 519.416 4.93634 -1.83394 0
M  V30 5360 H 521.907 3.38162 -1.68687 0
M  V30 5361 H 522.22 6.61357 -3.99784 0
M  V30 5362 H 520.565 5.95135 -3.58942 0
M  V30 5363 H 523.756 4.15048 -2.16456 0
M  V30 5364 H 523.929 5.62439 -3.21818 0
M  V30 5365 N 517.335 0.585699 1.46312 0
M  V30 5366 C 518.563 0.0781299 2.06752 0
M  V30 5367 C 518.978 -1.22812 1.43396 0
M  V30 5368 O 518.335 -1.74318 0.540314 0
M  V30 5369 C 518.386 -0.0911927 3.61385 0
M  V30 5370 O 518.107 1.16336 4.22371 0
M  V30 5371 C 519.608 -0.632765 4.38761 0
M  V30 5372 H 516.828 0.0588188 0.668417 0
M  V30 5373 H 519.372 0.807218 1.87894 0
M  V30 5374 H 517.527 -0.770514 3.7966 0
M  V30 5375 H 517.941 0.979082 5.15281 0
M  V30 5376 H 519.415 -0.70041 5.47538 0
M  V30 5377 H 519.892 -1.65039 4.07012 0
M  V30 5378 H 520.498 0.0117856 4.25298 0
M  V30 5379 N 518.813 -1.54241 0.323641 0
M  V30 5380 C 520.06 -2.0057 -0.27891 0
M  V30 5381 C 520.388 -1.21181 -1.52136 0
M  V30 5382 O 519.643 -0.282043 -1.93657 0
M  V30 5383 C 519.942 -3.5129 -0.658031 0
M  V30 5384 C 519.608 -4.48281 0.485252 0
M  V30 5385 C 518.27 -4.74519 0.799055 0
M  V30 5386 C 520.622 -5.05909 1.25322 0
M  V30 5387 C 517.95 -5.55643 1.88354 0
M  V30 5388 C 520.302 -5.88215 2.32779 0
M  V30 5389 C 518.966 -6.12755 2.64741 0
M  V30 5390 H 518.236 -0.733938 -0.10206 0
M  V30 5391 H 520.883 -1.862 0.447435 0
M  V30 5392 H 519.188 -3.63388 -1.4648 0
M  V30 5393 H 520.885 -3.84578 -1.1358 0
M  V30 5394 H 517.475 -4.27979 0.230593 0
M  V30 5395 H 521.659 -4.8562 1.02404 0
M  V30 5396 H 516.915 -5.72888 2.13564 0
M  V30 5397 H 521.089 -6.31888 2.92729 0
M  V30 5398 H 518.716 -6.75404 3.48904 0
M  V30 5399 N 520.291 -0.0518155 -1.57515 0
M  V30 5400 C 521.539 0.620595 -1.92336 0
M  V30 5401 C 521.86 1.71345 -0.930907 0
M  V30 5402 O 521.13 1.95885 0.0241341 0
M  V30 5403 H 519.71 0.232226 -0.709986 0
M  V30 5404 H 522.372 -0.104969 -1.94617 0
M  V30 5405 H 521.468 1.05879 -2.93592 0
M  V30 5406 N 521.769 1.56035 0.221574 0
M  V30 5407 C 523.18 1.69229 0.788567 0
M  V30 5408 C 523.531 0.653814 1.84986 0
M  V30 5409 O 522.656 -0.195065 2.15519 0
M  V30 5410 C 523.251 3.06809 1.43713 0
M  V30 5411 C 521.81 3.21858 1.95152 0
M  V30 5412 C 520.957 2.65155 0.811685 0
M  V30 5413 H 523.908 1.587 -0.00307894 0
M  V30 5414 H 523.929 3.02666 2.30594 0
M  V30 5415 H 523.441 3.82369 0.664475 0
M  V30 5416 H 521.542 2.51167 2.7522 0
M  V30 5417 H 521.655 4.29073 2.1315 0
M  V30 5418 H 520.019 2.23635 1.21899 0
M  V30 5419 H 520.802 3.43261 0.0516987 0
M  V30 5420 N 523.247 -0.488276 1.49845 0
M  V30 5421 C 524.21 -1.57069 1.66919 0
M  V30 5422 C 525.21 -1.51445 0.540479 0
M  V30 5423 O 526.4 -1.5437 0.807188 0
M  V30 5424 C 523.532 -2.96718 1.67844 0
M  V30 5425 H 524.725 -1.43254 2.63474 0
M  V30 5426 H 522.278 -0.713435 1.39068 0
M  V30 5427 H 523.013 -3.15996 0.7292 0
M  V30 5428 H 522.798 -3.02208 2.49826 0
M  V30 5429 H 524.288 -3.75335 1.83066 0
M  V30 5430 N 524.725 -1.39134 -0.740242 0
M  V30 5431 C 525.973 -1.35803 -1.49673 0
M  V30 5432 C 526.294 0.0470897 -1.94943 0
M  V30 5433 O 525.564 0.997347 -1.68611 0
M  V30 5434 H 524.144 -0.499736 -0.555224 0
M  V30 5435 H 526.806 -1.73947 -0.879107 0
M  V30 5436 H 525.902 -2.0174 -2.38133 0
M  V30 5437 N 526.204 0.969867 -1.24223 0
M  V30 5438 C 527.451 1.71256 -1.08063 0
M  V30 5439 C 527.779 1.90734 0.380872 0
M  V30 5440 O 527.034 1.46469 1.29789 0
M  V30 5441 C 527.333 3.10883 -1.76314 0
M  V30 5442 C 526.999 3.11252 -3.26241 0
M  V30 5443 C 525.661 3.1106 -3.67144 0
M  V30 5444 C 528.013 3.05751 -4.22097 0
M  V30 5445 C 525.341 3.03097 -5.02344 0
M  V30 5446 C 527.693 2.9933 -5.57301 0
M  V30 5447 C 526.357 2.97466 -5.97554 0
M  V30 5448 H 525.627 0.62667 -0.395431 0
M  V30 5449 H 528.274 1.13422 -1.54297 0
M  V30 5450 H 526.579 3.72168 -1.22468 0
M  V30 5451 H 528.276 3.67138 -1.61277 0
M  V30 5452 H 524.866 3.12165 -2.93685 0
M  V30 5453 H 529.05 3.05031 -3.91497 0
M  V30 5454 H 524.306 3.00013 -5.32731 0
M  V30 5455 H 528.48 2.94033 -6.31283 0
M  V30 5456 H 526.107 2.91051 -7.02277 0
M  V30 5457 N 527.682 1.05563 1.17022 0
M  V30 5458 C 528.928 0.778872 1.87897 0
M  V30 5459 C 529.283 -0.686839 1.79723 0
M  V30 5460 O 528.576 -1.49612 1.19694 0
M  V30 5461 C 528.77 1.19849 3.36706 0
M  V30 5462 C 528.599 2.70345 3.59366 0
M  V30 5463 C 527.369 3.37707 3.75875 0
M  V30 5464 C 529.567 3.68564 3.58699 0
M  V30 5465 N 527.549 4.7703 3.86414 0
M  V30 5466 C 528.92 4.93634 3.75134 0
M  V30 5467 C 530.975 3.6198 3.4187 0
M  V30 5468 C 529.678 6.12907 3.76481 0
M  V30 5469 C 531.704 4.80697 3.44507 0
M  V30 5470 C 531.066 6.04592 3.61453 0
M  V30 5471 H 527.165 0.337297 0.705517 0
M  V30 5472 H 529.749 1.34832 1.40458 0
M  V30 5473 H 527.92 0.656958 3.82804 0
M  V30 5474 H 529.652 0.871172 3.95212 0
M  V30 5475 H 526.407 2.88108 3.75887 0
M  V30 5476 H 526.831 5.49483 3.95471 0
M  V30 5477 H 531.473 2.67154 3.27702 0
M  V30 5478 H 529.191 7.08073 3.89432 0
M  V30 5479 H 532.777 4.77259 3.32738 0
M  V30 5480 H 531.657 6.94916 3.63403 0
M  V30 5481 N 529.16 -1.33526 0.837174 0
M  V30 5482 C 530.07 -2.33023 0.271568 0
M  V30 5483 C 531.086 -1.63272 -0.601514 0
M  V30 5484 O 532.262 -1.94939 -0.506038 0
M  V30 5485 C 529.327 -3.42382 -0.545448 0
M  V30 5486 C 528.388 -4.27857 0.351709 0
M  V30 5487 C 527.621 -5.31994 -0.426409 0
M  V30 5488 O 527.844 -5.45763 -1.65828 0
M  V30 5489 O 526.778 -6.01572 0.1987 0
M  V30 5490 H 530.604 -2.83256 1.09545 0
M  V30 5491 H 528.189 -1.36837 0.599655 0
M  V30 5492 H 530.071 -4.09122 -1.00979 0
M  V30 5493 H 528.746 -2.94369 -1.34641 0
M  V30 5494 H 527.653 -3.6399 0.863853 0
M  V30 5495 H 528.986 -4.79349 1.1174 0
M  V30 5496 N 530.638 -0.59345 -1.46 0
M  V30 5497 C 531.863 -0.0872365 -2.07216 0
M  V30 5498 C 532.288 1.2131 -1.43755 0
M  V30 5499 O 531.646 1.73528 -0.525152 0
M  V30 5500 C 531.694 0.0538197 -3.6056 0
M  V30 5501 O 530.798 1.10765 -3.97247 0
M  V30 5502 H 530.139 -0.0676598 -0.660544 0
M  V30 5503 H 532.669 -0.819445 -1.87473 0
M  V30 5504 H 532.679 0.256567 -4.07193 0
M  V30 5505 H 531.354 -0.895739 -4.0614 0
M  V30 5506 H 529.931 0.882501 -3.62307 0
M  V30 5507 N 532.116 1.54067 -0.331816 0
M  V30 5508 C 533.393 1.92915 0.322955 0
M  V30 5509 C 533.773 1.26225 1.69205 0
M  V30 5510 O 533.121 0.408919 2.24811 0
M  V30 5511 C 533.331 3.46619 0.406946 0
M  V30 5512 C 534.679 4.19386 0.663339 0
M  V30 5513 O 535.703 3.5282 0.489536 0
M  V30 5514 O 534.562 5.37288 0.999193 0
M  V30 5515 H 531.656 0.805808 0.186016 0
M  V30 5516 H 534.202 1.65342 -0.382135 0
M  V30 5517 H 532.974 3.87354 -0.554287 0
M  V30 5518 H 532.597 3.80324 1.15929 0
M  V30 5519 N 533.594 0.0601682 1.57485 0
M  V30 5520 C 534.871 -0.651956 1.84415 0
M  V30 5521 C 535.251 -1.88498 0.950361 0
M  V30 5522 O 534.599 -2.28496 0.0136719 0
M  V30 5523 C 534.809 -1.00069 3.34346 0
M  V30 5524 C 536.157 -1.37915 4.01578 0
M  V30 5525 O 537.181 -1.09277 3.39024 0
M  V30 5526 O 536.04 -1.91399 5.11887 0
M  V30 5527 H 533.134 -0.322668 0.761455 0
M  V30 5528 H 535.68 0.0902159 1.6946 0
M  V30 5529 H 534.452 -0.124463 3.91102 0
M  V30 5530 H 534.075 -1.80001 3.54521 0
M  V30 5531 N 535.072 -1.5615 -0.213296 0
M  V30 5532 C 536.02 -1.93953 -1.28394 0
M  V30 5533 C 537.014 -0.822592 -1.48087 0
M  V30 5534 O 538.22 -1.00748 -1.49164 0
M  V30 5535 H 534.595 -0.61648 -0.430646 0
M  V30 5536 H 536.566 -2.83275 -0.937977 0
M  V30 5537 C 535.315 -2.27969 -2.62537 0
M  V30 5538 H 534.638 -3.13432 -2.48194 0
M  V30 5539 H 536.078 -2.58297 -3.36242 0
M  V30 5540 C 534.537 -1.10775 -3.18167 0
M  V30 5541 O 535.067 -0.373201 -3.99963 0
M  V30 5542 N 533.273 -0.889377 -2.76656 0
M  V30 5543 H 532.82 -1.48843 -2.10246 0
M  V30 5544 H 532.778 -0.107 -3.14218 0
M  V30 5545 N 536.55 0.480323 -1.50102 0
M  V30 5546 C 537.827 1.24159 -1.51142 0
M  V30 5547 C 538.207 2.09605 -0.250818 0
M  V30 5548 O 537.555 2.15274 0.766118 0
M  V30 5549 C 537.765 2.08057 -2.80202 0
M  V30 5550 C 539.113 2.66556 -3.30504 0
M  V30 5551 O 540.137 2.18308 -2.81461 0
M  V30 5552 O 538.996 3.54442 -4.15973 0
M  V30 5553 H 536.09 0.562928 -0.605839 0
M  V30 5554 H 538.636 0.492899 -1.62384 0
M  V30 5555 H 537.408 1.45032 -3.6343 0
M  V30 5556 H 537.031 2.90079 -2.71919 0
M  V30 5557 N 538.028 1.39524 0.732853 0
M  V30 5558 C 538.976 1.38563 1.86824 0
M  V30 5559 C 539.97 0.268467 1.67259 0
M  V30 5560 O 541.176 0.438613 1.74574 0
M  V30 5561 H 537.551 0.432737 0.615014 0
M  V30 5562 H 539.522 2.34328 1.84751 0
M  V30 5563 C 538.271 1.2481 3.24527 0
M  V30 5564 H 537.594 2.10044 3.40179 0
M  V30 5565 H 539.034 1.28194 4.04156 0
M  V30 5566 C 537.493 -0.0432825 3.36872 0
M  V30 5567 O 538.023 -1.01268 3.88726 0
M  V30 5568 N 536.229 -0.107055 2.90403 0
M  V30 5569 H 535.776 0.682512 2.48394 0
M  V30 5570 H 535.734 -0.970618 2.99042 0
M  V30 5571 N 539.506 -0.963266 1.24736 0
M  V30 5572 C 540.439 -2.05758 0.986852 0
M  V30 5573 C 541.417 -1.62398 -0.0809272 0
M  V30 5574 O 542.601 -1.88414 0.0569347 0
M  V30 5575 C 539.728 -3.35135 0.490095 0
M  V30 5576 C 538.774 -3.97451 1.54709 0
M  V30 5577 S 539.607 -4.34519 3.12976 0
M  V30 5578 C 540.763 -5.67026 2.65014 0
M  V30 5579 H 540.996 -2.27539 1.91346 0
M  V30 5580 H 538.529 -1.10176 1.08169 0
M  V30 5581 H 540.487 -4.09962 0.21012 0
M  V30 5582 H 539.148 -3.11335 -0.415873 0
M  V30 5583 H 538.341 -4.90704 1.15003 0
M  V30 5584 H 537.943 -3.29071 1.77731 0
M  V30 5585 H 540.235 -6.44748 2.08102 0
M  V30 5586 H 541.178 -6.11594 3.56873 0
M  V30 5587 H 541.586 -5.25847 2.05294 0
M  V30 5588 N 540.985 -1.06182 -1.16461 0
M  V30 5589 C 541.895 -0.682671 -2.24448 0
M  V30 5590 C 542.911 0.30078 -1.71381 0
M  V30 5591 O 544.087 0.150376 -2.00838 0
M  V30 5592 C 541.152 -0.0737202 -3.46622 0
M  V30 5593 C 540.213 -1.10889 -4.14731 0
M  V30 5594 C 539.446 -0.528908 -5.31073 0
M  V30 5595 O 539.669 0.65868 -5.66584 0
M  V30 5596 O 538.603 -1.26805 -5.88391 0
M  V30 5597 H 542.429 -1.58291 -2.59187 0
M  V30 5598 H 540.014 -0.834013 -1.23954 0
M  V30 5599 H 541.896 0.264192 -4.20571 0
M  V30 5600 H 540.571 0.800015 -3.13658 0
M  V30 5601 H 539.478 -1.49896 -3.42756 0
M  V30 5602 H 540.811 -1.95412 -4.51747 0
M  V30 5603 N 542.463 1.3308 -0.844243 0
M  V30 5604 C 543.691 2.01808 -0.456203 0
M  V30 5605 C 544.106 1.63498 0.944131 0
M  V30 5606 O 543.463 0.85102 1.61443 0
M  V30 5607 C 543.514 3.56922 -0.573513 0
M  V30 5608 O 543.235 3.93851 -1.91868 0
M  V30 5609 C 544.736 4.42922 -0.183125 0
M  V30 5610 H 541.956 0.646273 -0.180477 0
M  V30 5611 H 544.5 1.69891 -1.1383 0
M  V30 5612 H 542.655 3.87352 0.0607367 0
M  V30 5613 H 543.069 4.88564 -1.90802 0
M  V30 5614 H 544.543 5.51093 -0.316241 0
M  V30 5615 H 545.02 4.30386 0.875477 0
M  V30 5616 H 545.626 4.1786 -0.792027 0
M  V30 5617 N 543.941 0.601185 1.45683 0
M  V30 5618 C 544.904 -0.111398 2.28929 0
M  V30 5619 C 545.904 -0.801246 1.39416 0
M  V30 5620 O 547.094 -0.650383 1.61603 0
M  V30 5621 C 544.226 -1.16773 3.20276 0
M  V30 5622 H 545.419 0.620412 2.93413 0
M  V30 5623 H 542.972 0.359946 1.52099 0
M  V30 5624 H 543.707 -1.93051 2.60579 0
M  V30 5625 H 543.492 -0.677358 3.86205 0
M  V30 5626 H 544.982 -1.66698 3.82886 0
M  V30 5627 N 545.419 -1.53889 0.339982 0
M  V30 5628 C 546.644 -2.05741 -0.261798 0
M  V30 5629 C 547.069 -1.21354 -1.43718 0
M  V30 5630 O 546.427 -0.22645 -1.7988 0
M  V30 5631 C 546.475 -3.54542 -0.658228 0
M  V30 5632 O 545.579 -3.7302 -1.75869 0
M  V30 5633 H 544.92 -0.662529 -0.0441672 0
M  V30 5634 H 547.45 -1.98568 0.493161 0
M  V30 5635 H 547.46 -3.9711 -0.936368 0
M  V30 5636 H 546.135 -4.15412 0.201358 0
M  V30 5637 H 544.712 -3.42355 -1.47809 0
M  V30 5638 N 546.897 -0.0685191 -1.57451 0
M  V30 5639 C 547.829 0.929372 -2.09512 0
M  V30 5640 C 548.842 1.26354 -1.02657 0
M  V30 5641 O 550.031 1.2213 -1.30179 0
M  V30 5642 C 547.131 2.24612 -2.53777 0
M  V30 5643 C 546.304 2.09128 -3.84167 0
M  V30 5644 C 545.363 3.24079 -4.14559 0
M  V30 5645 O 544.389 2.99215 -4.8421 0
M  V30 5646 N 545.591 4.49077 -3.67845 0
M  V30 5647 H 548.356 0.484901 -2.95751 0
M  V30 5648 H 545.917 0.11729 -1.61475 0
M  V30 5649 H 547.909 3.00412 -2.71172 0
M  V30 5650 H 546.479 2.60569 -1.72692 0
M  V30 5651 H 545.699 1.17815 -3.76182 0
M  V30 5652 H 546.987 1.9603 -4.69521 0
M  V30 5653 H 546.385 4.72165 -3.11571 0
M  V30 5654 H 544.942 5.21915 -3.90446 0
M  V30 5655 N 548.375 1.56261 0.205012 0
M  V30 5656 C 549.323 1.94631 1.27364 0
M  V30 5657 C 550.317 0.830434 1.47649 0
M  V30 5658 O 551.523 1.01538 1.48627 0
M  V30 5659 H 547.898 0.618755 0.427371 0
M  V30 5660 H 549.869 2.83768 0.922941 0
M  V30 5661 C 548.618 2.29358 2.61324 0
M  V30 5662 H 547.941 3.14744 2.46528 0
M  V30 5663 H 549.381 2.60076 3.34868 0
M  V30 5664 C 547.84 1.12461 3.17575 0
M  V30 5665 O 548.37 0.394407 3.99759 0
M  V30 5666 N 546.576 0.904036 2.7618 0
M  V30 5667 H 546.123 1.49956 2.09454 0
M  V30 5668 H 546.081 0.123662 3.14157 0
M  V30 5669 N 549.853 -0.472356 1.50355 0
M  V30 5670 C 551.101 -1.22211 1.60962 0
M  V30 5671 C 551.422 -1.92497 0.311439 0
M  V30 5672 O 550.692 -1.8405 -0.671002 0
M  V30 5673 H 549.272 -0.454092 0.593135 0
M  V30 5674 H 551.934 -0.544977 1.87126 0
M  V30 5675 H 551.03 -1.9707 2.42012 0
M  V30 5676 N 551.331 -1.39911 -0.725443 0
M  V30 5677 C 552.278 -1.39393 -1.83952 0
M  V30 5678 C 553.248 -0.252249 -1.64173 0
M  V30 5679 O 554.433 -0.44882 -1.85446 0
M  V30 5680 C 551.573 -1.25262 -3.21564 0
M  V30 5681 C 550.686 -2.49054 -3.52982 0
M  V30 5682 C 549.821 -2.27439 -4.80047 0
M  V30 5683 C 548.86 -3.46857 -5.04338 0
M  V30 5684 N 547.997 -3.24499 -6.22611 0
M  V30 5685 H 552.837 -2.34622 -1.83729 0
M  V30 5686 H 550.374 -1.16537 -0.897636 0
M  V30 5687 H 552.332 -1.15077 -4.01015 0
M  V30 5688 H 550.962 -0.33657 -3.21041 0
M  V30 5689 H 550.014 -2.69805 -2.6816 0
M  V30 5690 H 551.326 -3.37973 -3.66846 0
M  V30 5691 H 550.48 -2.14551 -5.67497 0
M  V30 5692 H 549.219 -1.35929 -4.68374 0
M  V30 5693 H 548.224 -3.60232 -4.15346 0
M  V30 5694 H 549.449 -4.3928 -5.17889 0
M  V30 5695 H 547.395 -2.35663 -6.12208 0
M  V30 5696 H 547.312 -4.06978 -6.37106 0
M  V30 5697 H 548.58 -3.15325 -7.12875 0
M  V30 5698 N 552.809 0.956637 -1.25245 0
M  V30 5699 C 553.756 2.053 -1.05454 0
M  V30 5700 C 554.726 1.66062 0.0356889 0
M  V30 5701 O 555.911 1.90415 -0.121099 0
M  V30 5702 C 553.051 3.38391 -0.677191 0
M  V30 5703 C 552.164 3.90758 -1.84206 0
M  V30 5704 C 551.299 5.12165 -1.40926 0
M  V30 5705 C 550.338 5.56757 -2.54338 0
M  V30 5706 N 549.475 6.69376 -2.11848 0
M  V30 5707 H 554.315 2.21562 -1.99284 0
M  V30 5708 H 551.852 1.08578 -0.992434 0
M  V30 5709 H 553.81 4.1488 -0.43938 0
M  V30 5710 H 552.44 3.22021 0.224127 0
M  V30 5711 H 551.492 3.10808 -2.19323 0
M  V30 5712 H 552.804 4.19802 -2.69383 0
M  V30 5713 H 551.958 5.96065 -1.13098 0
M  V30 5714 H 550.697 4.84832 -0.528175 0
M  V30 5715 H 549.702 4.71423 -2.82913 0
M  V30 5716 H 550.927 5.861 -3.43022 0
M  V30 5717 H 548.873 6.43756 -1.26153 0
M  V30 5718 H 548.79 6.97927 -2.90574 0
M  V30 5719 H 550.058 7.5669 -1.87191 0
M  V30 5720 N 554.287 1.06798 1.15896 0
M  V30 5721 C 555.517 0.807522 1.90165 0
M  V30 5722 C 555.925 -0.642417 1.7796 0
M  V30 5723 O 555.268 -1.45193 1.12537 0
M  V30 5724 C 555.33 1.12939 3.41299 0
M  V30 5725 C 554.994 2.57879 3.7729 0
M  V30 5726 C 555.991 3.56118 3.78782 0
M  V30 5727 C 553.676 2.93311 4.07767 0
M  V30 5728 C 555.67 4.87827 4.10248 0
M  V30 5729 C 553.357 4.25219 4.38899 0
M  V30 5730 C 554.355 5.22287 4.4012 0
M  V30 5731 O 554.043 6.51826 4.70508 0
M  V30 5732 H 553.775 0.291946 0.609708 0
M  V30 5733 H 556.329 1.42627 1.47806 0
M  V30 5734 H 554.559 0.45359 3.84031 0
M  V30 5735 H 556.248 0.852363 3.9685 0
M  V30 5736 H 557.014 3.30086 3.55342 0
M  V30 5737 H 552.893 2.18409 4.05979 0
M  V30 5738 H 556.437 5.63586 4.11116 0
M  V30 5739 H 552.334 4.51006 4.61805 0
M  V30 5740 H 553.102 6.56893 4.88298 0
M  V30 5741 N 555.766 -1.3263 0.851289 0
M  V30 5742 C 556.698 -2.27824 0.250757 0
M  V30 5743 C 557.711 -1.52285 -0.575598 0
M  V30 5744 O 558.9 -1.73946 -0.400638 0
M  V30 5745 C 556 -3.3232 -0.664571 0
M  V30 5746 C 555.173 -4.37221 0.125187 0
M  V30 5747 C 554.232 -5.21314 -0.715385 0
M  V30 5748 O 553.258 -5.69002 -0.150111 0
M  V30 5749 N 554.46 -5.43823 -2.03069 0
M  V30 5750 H 557.225 -2.79997 1.06873 0
M  V30 5751 H 554.786 -1.45455 0.710943 0
M  V30 5752 H 556.778 -3.85486 -1.23216 0
M  V30 5753 H 555.348 -2.80331 -1.38323 0
M  V30 5754 H 554.568 -3.84384 0.874199 0
M  V30 5755 H 555.856 -5.04399 0.667774 0
M  V30 5756 H 555.254 -5.06803 -2.51332 0
M  V30 5757 H 553.811 -5.99998 -2.54648 0
M  V30 5758 N 557.244 -0.608902 -1.45362 0
M  V30 5759 C 558.469 -0.10921 -2.07112 0
M  V30 5760 C 558.894 1.19779 -1.45033 0
M  V30 5761 O 558.252 1.72961 -0.543527 0
M  V30 5762 C 558.3 0.0155745 -3.60597 0
M  V30 5763 O 557.404 1.06546 -3.98399 0
M  V30 5764 H 556.745 -0.0746619 -0.659789 0
M  V30 5765 H 559.275 -0.839283 -1.86594 0
M  V30 5766 H 559.285 0.213364 -4.07442 0
M  V30 5767 H 557.96 -0.938765 -4.05167 0
M  V30 5768 H 556.537 0.844024 -3.63223 0
M  V30 5769 N 558.722 1.53707 -0.348139 0
M  V30 5770 C 560.138 1.596 0.00361134 0
M  V30 5771 C 560.338 1.36394 1.4832 0
M  V30 5772 O 559.394 1.16046 2.24253 0
M  V30 5773 C 560.707 2.97512 -0.436682 0
M  V30 5774 C 562.255 3.10568 -0.389416 0
M  V30 5775 C 562.73 4.50866 -0.805249 0
M  V30 5776 N 564.221 4.56929 -0.759616 0
M  V30 5777 C 564.956 5.63643 -1.05327 0
M  V30 5778 N 564.452 6.78189 -1.41531 0
M  V30 5779 N 566.245 5.5354 -0.977207 0
M  V30 5780 H 558.396 1.67044 -1.31187 0
M  V30 5781 H 560.659 0.782559 -0.535075 0
M  V30 5782 H 560.365 3.19575 -1.46849 0
M  V30 5783 H 560.239 3.76742 0.185744 0
M  V30 5784 H 562.626 2.88226 0.633228 0
M  V30 5785 H 562.707 2.33387 -1.04711 0
M  V30 5786 H 562.351 4.73943 -1.82593 0
M  V30 5787 H 562.281 5.26452 -0.124989 0
M  V30 5788 H 564.772 3.74675 -0.49265 0
M  V30 5789 H 565.085 7.55541 -1.62411 0
M  V30 5790 H 563.43 6.79624 -1.45381 0
M  V30 5791 H 566.621 4.62932 -0.693675 0
M  V30 5792 H 566.794 6.36614 -1.2094 0
M  V30 5793 N 560.2 0.0768682 1.57412 0
M  V30 5794 C 561.477 -0.632359 1.85096 0
M  V30 5795 C 561.857 -1.87479 0.9703 0
M  V30 5796 O 561.205 -2.28469 0.0379062 0
M  V30 5797 C 561.415 -0.965174 3.35388 0
M  V30 5798 C 562.763 -1.33648 4.03018 0
M  V30 5799 O 563.787 -1.05675 3.40164 0
M  V30 5800 O 562.646 -1.85959 5.13889 0
M  V30 5801 H 559.74 -0.314574 0.764835 0
M  V30 5802 H 562.286 0.108184 1.69355 0
M  V30 5803 H 561.058 -0.0829745 3.91212 0
M  V30 5804 H 560.681 -1.76231 3.5641 0
M  V30 5805 N 561.678 -1.56367 -0.196722 0
M  V30 5806 C 562.903 -1.84991 -0.937714 0
M  V30 5807 C 563.328 -0.660244 -1.76132 0
M  V30 5808 O 562.686 0.390967 -1.77034 0
M  V30 5809 C 562.734 -3.11828 -1.81096 0
M  V30 5810 O 561.838 -2.92266 -2.90955 0
M  V30 5811 H 561.179 -0.609193 -0.264159 0
M  V30 5812 H 563.709 -2.03595 -0.202529 0
M  V30 5813 H 563.719 -3.42579 -2.21594 0
M  V30 5814 H 562.394 -3.98037 -1.2058 0
M  V30 5815 H 560.971 -2.72809 -2.54224 0
M  V30 5816 N 563.156 0.464375 -1.50603 0
M  V30 5817 C 564.433 1.22549 -1.5245 0
M  V30 5818 C 564.813 2.09327 -0.273035 0
M  V30 5819 O 564.161 2.16074 0.743242 0
M  V30 5820 C 564.371 2.05074 -2.82393 0
M  V30 5821 C 565.719 2.63036 -3.33313 0
M  V30 5822 O 566.743 2.1531 -2.8376 0
M  V30 5823 O 565.602 3.5001 -4.19709 0
M  V30 5824 H 562.696 0.556471 -0.611775 0
M  V30 5825 H 565.242 0.475648 -1.62898 0
M  V30 5826 H 564.014 1.41169 -3.64948 0
M  V30 5827 H 563.637 2.87179 -2.7498 0
M  V30 5828 N 564.634 1.40294 0.718013 0
M  V30 5829 C 565.564 1.43118 1.84498 0
M  V30 5830 C 566.545 0.292403 1.67568 0
M  V30 5831 O 567.73 0.500675 1.87635 0
M  V30 5832 C 564.86 1.29065 3.22427 0
M  V30 5833 C 563.814 2.40521 3.54025 0
M  V30 5834 C 563.14 2.11546 4.91073 0
M  V30 5835 C 564.44 3.82859 3.55269 0
M  V30 5836 H 566.134 2.37432 1.82391 0
M  V30 5837 H 563.68 1.14283 0.87609 0
M  V30 5838 H 565.633 1.29658 4.00957 0
M  V30 5839 H 564.357 0.312271 3.25104 0
M  V30 5840 H 563.016 2.39173 2.77834 0
M  V30 5841 H 562.664 1.12104 4.90348 0
M  V30 5842 H 562.364 2.86216 5.1318 0
M  V30 5843 H 563.888 2.13817 5.71939 0
M  V30 5844 H 565.302 3.86044 4.23843 0
M  V30 5845 H 563.699 4.57029 3.88902 0
M  V30 5846 H 564.769 4.12617 2.54706 0
M  V30 5847 N 566.112 -0.949982 1.2575 0
M  V30 5848 C 567.042 -2.06483 1.09028 0
M  V30 5849 C 568.023 -1.701 -0.00201532 0
M  V30 5850 O 569.208 -1.93469 0.168383 0
M  V30 5851 C 566.338 -3.39899 0.71316 0
M  V30 5852 C 565.292 -3.90309 1.75621 0
M  V30 5853 C 564.618 -5.20274 1.23365 0
M  V30 5854 C 565.918 -4.16169 3.15596 0
M  V30 5855 H 567.612 -2.20731 2.02283 0
M  V30 5856 H 565.158 -1.06066 0.973964 0
M  V30 5857 H 567.111 -4.17346 0.58309 0
M  V30 5858 H 565.835 -3.25602 -0.255091 0
M  V30 5859 H 564.494 -3.15035 1.8748 0
M  V30 5860 H 564.142 -5.02351 0.255491 0
M  V30 5861 H 563.842 -5.54971 1.93082 0
M  V30 5862 H 565.366 -6.00314 1.11607 0
M  V30 5863 H 566.78 -4.84259 3.06864 0
M  V30 5864 H 565.177 -4.62131 3.82825 0
M  V30 5865 H 566.247 -3.22273 3.6231 0
M  V30 5866 N 567.59 -1.07411 -1.15328 0
M  V30 5867 C 568.815 -0.818856 -1.90551 0
M  V30 5868 C 569.24 0.622194 -1.77512 0
M  V30 5869 O 568.598 1.43484 -1.10824 0
M  V30 5870 C 568.646 -1.23267 -3.38877 0
M  V30 5871 O 567.75 -0.378345 -4.10661 0
M  V30 5872 H 567.091 -0.29827 -0.593238 0
M  V30 5873 H 569.621 -1.43289 -1.46046 0
M  V30 5874 H 569.631 -1.20912 -3.89672 0
M  V30 5875 H 568.306 -2.28226 -3.47686 0
M  V30 5876 H 566.883 -0.464437 -3.69996 0
M  V30 5877 N 569.068 1.32177 -0.85831 0
M  V30 5878 C 570.016 2.30729 -0.294442 0
M  V30 5879 C 571.01 1.59009 0.584165 0
M  V30 5880 O 572.216 1.73713 0.471562 0
M  V30 5881 H 568.591 0.748097 -0.0765171 0
M  V30 5882 H 570.562 2.75774 -1.1398 0
M  V30 5883 C 569.311 3.44098 0.499208 0
M  V30 5884 H 568.634 3.99449 -0.167579 0
M  V30 5885 H 570.074 4.15202 0.859273 0
M  V30 5886 C 568.533 2.91684 1.68588 0
M  V30 5887 O 569.063 2.89481 2.78503 0
M  V30 5888 N 567.269 2.48036 1.51415 0
M  V30 5889 H 566.816 2.50027 0.620006 0
M  V30 5890 H 566.774 2.13322 2.30957 0
M  V30 5891 N 570.547 0.616602 1.45037 0
M  V30 5892 C 571.477 -0.0840787 2.33349 0
M  V30 5893 C 572.458 -0.849641 1.4736 0
M  V30 5894 O 573.643 -0.818407 1.76113 0
M  V30 5895 C 570.773 -1.07604 3.3021 0
M  V30 5896 C 569.727 -0.423096 4.25904 0
M  V30 5897 C 569.053 -1.52394 5.12523 0
M  V30 5898 C 570.353 0.661457 5.18095 0
M  V30 5899 H 572.047 0.653333 2.92185 0
M  V30 5900 H 569.593 0.315634 1.40498 0
M  V30 5901 H 571.546 -1.57485 3.90866 0
M  V30 5902 H 570.27 -1.84416 2.69552 0
M  V30 5903 H 568.929 0.05493 3.66559 0
M  V30 5904 H 568.577 -2.28257 4.48227 0
M  V30 5905 H 568.277 -1.09251 5.77354 0
M  V30 5906 H 569.801 -2.02485 5.76049 0
M  V30 5907 H 571.215 0.246353 5.7277 0
M  V30 5908 H 569.612 1.01517 5.91451 0
M  V30 5909 H 570.682 1.53446 4.59981 0
M  V30 5910 N 572.025 -1.5352 0.356285 0
M  V30 5911 C 573.273 -2.00719 -0.235837 0
M  V30 5912 C 573.594 -1.24551 -1.5004 0
M  V30 5913 O 572.864 -0.356185 -1.92635 0
M  V30 5914 H 571.444 -0.741542 -0.0901366 0
M  V30 5915 H 574.106 -1.88887 0.480378 0
M  V30 5916 H 573.202 -3.08551 -0.469357 0
M  V30 5917 N 573.503 -0.0852151 -1.57369 0
M  V30 5918 C 574.75 0.580806 -1.93992 0
M  V30 5919 C 575.078 1.68801 -0.966252 0
M  V30 5920 O 574.333 1.95694 0.0158649 0
M  V30 5921 C 574.632 1.18482 -3.3719 0
M  V30 5922 C 574.298 0.2024 -4.50446 0
M  V30 5923 C 572.96 -0.0678318 -4.81152 0
M  V30 5924 C 575.312 -0.46895 -5.19086 0
M  V30 5925 C 572.64 -1.01627 -5.77831 0
M  V30 5926 C 574.992 -1.4058 -6.16782 0
M  V30 5927 C 573.656 -1.68436 -6.45899 0
M  V30 5928 H 572.926 0.212532 -0.709867 0
M  V30 5929 H 575.573 -0.158947 -1.90839 0
M  V30 5930 H 573.878 2.0006 -3.36873 0
M  V30 5931 H 575.575 1.70767 -3.62822 0
M  V30 5932 H 572.165 0.423208 -4.26505 0
M  V30 5933 H 576.349 -0.273307 -4.95547 0
M  V30 5934 H 571.605 -1.2392 -5.9871 0
M  V30 5935 H 575.779 -1.93188 -6.69068 0
M  V30 5936 H 573.406 -2.42088 -7.20623 0
M  V30 5937 N 574.981 1.5647 0.188427 0
M  V30 5938 C 576.229 1.80655 0.905986 0
M  V30 5939 C 576.55 0.659391 1.83513 0
M  V30 5940 O 575.82 -0.321868 1.93238 0
M  V30 5941 H 574.4 0.666391 0.337538 0
M  V30 5942 H 577.062 1.93949 0.192339 0
M  V30 5943 H 576.158 2.74066 1.49313 0
M  V30 5944 N 576.459 -0.456382 1.50847 0
M  V30 5945 C 577.369 -1.57805 1.73594 0
M  V30 5946 C 578.385 -1.62599 0.619476 0
M  V30 5947 O 579.561 -1.80195 0.899532 0
M  V30 5948 C 576.626 -2.93926 1.8387 0
M  V30 5949 C 575.687 -2.99402 3.07663 0
M  V30 5950 C 574.92 -4.29031 3.1744 0
M  V30 5951 O 575.143 -5.20358 2.33631 0
M  V30 5952 O 574.077 -4.40401 4.10281 0
M  V30 5953 H 577.903 -1.41531 2.68705 0
M  V30 5954 H 575.488 -0.637422 1.3512 0
M  V30 5955 H 577.37 -3.74747 1.92725 0
M  V30 5956 H 576.045 -3.10368 0.91944 0
M  V30 5957 H 574.952 -2.17606 3.043 0
M  V30 5958 H 576.285 -2.87901 3.99216 0
M  V30 5959 N 577.937 -1.40673 -0.710563 0
M  V30 5960 C 579.214 -1.29718 -1.46398 0
M  V30 5961 C 579.594 0.082177 -2.1094 0
M  V30 5962 O 578.942 1.09536 -2.00534 0
M  V30 5963 C 579.152 -2.43967 -2.49562 0
M  V30 5964 C 580.5 -2.84436 -3.15248 0
M  V30 5965 O 581.524 -2.43597 -2.59883 0
M  V30 5966 O 580.383 -3.55008 -4.1549 0
M  V30 5967 H 577.477 -0.509697 -0.651258 0
M  V30 5968 H 580.023 -1.52603 -0.742312 0
M  V30 5969 H 578.795 -3.36076 -2.0042 0
M  V30 5970 H 578.418 -2.22879 -3.29258 0
M  V30 5971 N 579.415 0.9433 -1.26252 0
M  V30 5972 C 580.661 1.69175 -1.11837 0
M  V30 5973 C 580.994 1.91238 0.337891 0
M  V30 5974 O 580.269 1.49152 1.24836 0
M  V30 5975 C 580.552 3.06783 -1.88563 0
M  V30 5976 C 580.405 2.9206 -3.42083 0
M  V30 5977 C 581.724 4.06865 -1.67776 0
M  V30 5978 H 578.843 0.61399 -0.407658 0
M  V30 5979 H 581.485 1.09572 -1.55222 0
M  V30 5980 H 579.635 3.57663 -1.51689 0
M  V30 5981 H 581.307 2.48419 -3.88698 0
M  V30 5982 H 579.55 2.27731 -3.69217 0
M  V30 5983 H 580.221 3.89651 -3.90994 0
M  V30 5984 H 582.697 3.64939 -1.99897 0
M  V30 5985 H 581.573 5.01168 -2.23879 0
M  V30 5986 H 581.834 4.37705 -0.621816 0
M  V30 5987 N 580.893 1.08022 1.14757 0
M  V30 5988 C 582.123 0.827646 1.89298 0
M  V30 5989 C 582.531 -0.623506 1.78631 0
M  V30 5990 O 581.874 -1.43991 1.14071 0
M  V30 5991 C 581.936 1.16553 3.40082 0
M  V30 5992 C 581.6 2.61866 3.74533 0
M  V30 5993 C 582.597 3.60116 3.74984 0
M  V30 5994 C 580.282 2.97619 4.04633 0
M  V30 5995 C 582.276 4.92151 4.05051 0
M  V30 5996 C 579.963 4.2985 4.34364 0
M  V30 5997 C 580.961 5.26926 4.34555 0
M  V30 5998 O 580.649 6.5678 4.63568 0
M  V30 5999 H 580.381 0.298396 0.606577 0
M  V30 6000 H 582.935 1.44187 1.46285 0
M  V30 6001 H 581.165 0.494296 3.83528 0
M  V30 6002 H 582.854 0.894407 3.95923 0
M  V30 6003 H 583.62 3.33837 3.51821 0
M  V30 6004 H 579.499 2.22702 4.03639 0
M  V30 6005 H 583.043 5.67915 4.05115 0
M  V30 6006 H 578.94 4.55879 4.56995 0
M  V30 6007 H 579.708 6.62035 4.81303 0
M  V30 6008 N 582.371 -1.3172 0.865308 0
M  V30 6009 C 583.619 -1.96487 0.472995 0
M  V30 6010 C 583.94 -1.68761 -0.976975 0
M  V30 6011 O 583.21 -1.00051 -1.68424 0
M  V30 6012 H 581.79 -0.726947 0.171922 0
M  V30 6013 H 584.452 -1.60612 1.10407 0
M  V30 6014 H 583.548 -3.0574 0.62687 0
M  V30 6015 N 583.85 -0.624285 -1.44708 0
M  V30 6016 C 585.127 -0.0572781 -1.95516 0
M  V30 6017 C 585.507 1.41516 -1.56641 0
M  V30 6018 O 584.855 2.12614 -0.837111 0
M  V30 6019 C 585.065 -0.272944 -3.47931 0
M  V30 6020 C 586.413 -0.162529 -4.24289 0
M  V30 6021 O 587.437 -0.203946 -3.55616 0
M  V30 6022 O 586.296 -0.0616847 -5.46465 0
M  V30 6023 H 583.389 0.0262219 -0.826584 0
M  V30 6024 H 585.936 -0.695512 -1.54793 0
M  V30 6025 H 584.707 -1.29492 -3.69253 0
M  V30 6026 H 584.331 0.399756 -3.95585 0
M  V30 6027 N 585.328 1.53329 -0.364422 0
M  V30 6028 C 586.291 2.24323 0.470292 0
M  V30 6029 C 587.291 1.25068 1.01067 0
M  V30 6030 O 588.481 1.49354 0.896605 0
M  V30 6031 C 585.613 2.97908 1.65722 0
M  V30 6032 H 586.806 2.9952 -0.150917 0
M  V30 6033 H 584.359 1.55868 -0.116092 0
M  V30 6034 H 585.094 2.2695 2.31655 0
M  V30 6035 H 584.879 3.70732 1.27671 0
M  V30 6036 H 586.369 3.5188 2.24878 0
M  V30 6037 N 586.806 0.0935595 1.57322 0
M  V30 6038 C 588.052 -0.571355 1.94585 0
M  V30 6039 C 588.385 -1.67929 0.975366 0
M  V30 6040 O 587.66 -1.94498 0.00816206 0
M  V30 6041 C 587.943 -1.12797 3.41978 0
M  V30 6042 C 587.796 -0.0251881 4.49793 0
M  V30 6043 C 589.115 -2.02682 3.90651 0
M  V30 6044 H 586.234 -0.206223 0.70756 0
M  V30 6045 H 588.876 0.163956 1.89291 0
M  V30 6046 H 587.026 -1.75461 3.4662 0
M  V30 6047 H 588.698 0.608979 4.57263 0
M  V30 6048 H 586.941 0.641399 4.29032 0
M  V30 6049 H 587.612 -0.455433 5.50118 0
M  V30 6050 H 590.088 -1.49925 3.88152 0
M  V30 6051 H 588.964 -2.38555 4.94351 0
M  V30 6052 H 589.225 -2.94362 3.29854 0
M  V30 6053 N 588.284 -1.56567 -0.180126 0
M  V30 6054 C 589.514 -1.85349 -0.912647 0
M  V30 6055 C 589.922 -0.675795 -1.76719 0
M  V30 6056 O 589.265 0.3645 -1.80047 0
M  V30 6057 C 589.327 -3.08431 -1.84691 0
M  V30 6058 C 588.991 -4.41694 -1.17284 0
M  V30 6059 C 589.988 -5.17062 -0.542532 0
M  V30 6060 C 587.673 -4.8843 -1.17223 0
M  V30 6061 C 589.667 -6.37351 0.0793953 0
M  V30 6062 C 587.354 -6.08652 -0.54647 0
M  V30 6063 C 588.352 -6.82955 0.0782458 0
M  V30 6064 O 588.04 -8.00897 0.694158 0
M  V30 6065 H 587.772 -0.619286 -0.271036 0
M  V30 6066 H 590.326 -2.0454 -0.187768 0
M  V30 6067 H 588.556 -2.85163 -2.61188 0
M  V30 6068 H 590.245 -3.23733 -2.44851 0
M  V30 6069 H 591.011 -4.8204 -0.535045 0
M  V30 6070 H 586.89 -4.30542 -1.64788 0
M  V30 6071 H 590.434 -6.95287 0.567612 0
M  V30 6072 H 586.331 -6.4314 -0.55151 0
M  V30 6073 H 587.099 -8.16352 0.592537 0
M  V30 6074 N 589.762 0.448376 -1.51087 0
M  V30 6075 C 591.173 1.0286 -1.5581 0
M  V30 6076 C 591.524 1.92583 -0.374989 0
M  V30 6077 O 590.649 2.10316 0.509533 0
M  V30 6078 C 591.244 1.87223 -2.8237 0
M  V30 6079 C 589.803 2.40314 -2.897 0
M  V30 6080 C 588.95 1.19238 -2.50355 0
M  V30 6081 H 591.901 0.230075 -1.57023 0
M  V30 6082 H 591.922 2.72553 -2.6551 0
M  V30 6083 H 591.434 1.21894 -3.68461 0
M  V30 6084 H 589.535 3.09129 -2.08014 0
M  V30 6085 H 589.648 2.73866 -3.93108 0
M  V30 6086 H 588.012 1.53428 -2.03303 0
M  V30 6087 H 588.795 0.555367 -3.38778 0
M  V30 6088 N 591.24 1.41047 0.703093 0
M  V30 6089 C 592.488 1.39723 1.4602 0
M  V30 6090 C 592.809 0.00461257 1.94999 0
M  V30 6091 O 592.079 -0.952292 1.71196 0
M  V30 6092 H 590.659 0.514281 0.541779 0
M  V30 6093 H 593.321 1.76217 0.832678 0
M  V30 6094 H 592.417 2.07982 2.32701 0
M  V30 6095 N 592.718 -0.936591 1.26751 0
M  V30 6096 C 593.964 -1.6858 1.12733 0
M  V30 6097 C 594.297 -1.91414 -0.327745 0
M  V30 6098 O 593.572 -1.49812 -1.24043 0
M  V30 6099 C 593.855 -3.05779 1.90187 0
M  V30 6100 C 593.708 -2.90242 3.43627 0
M  V30 6101 C 595.027 -4.0597 1.69931 0
M  V30 6102 H 592.146 -0.61182 0.410908 0
M  V30 6103 H 594.788 -1.08747 1.55801 0
M  V30 6104 H 592.938 -3.56853 1.53584 0
M  V30 6105 H 594.61 -2.46354 3.9001 0
M  V30 6106 H 592.853 -2.2577 3.70419 0
M  V30 6107 H 593.524 -3.87572 3.93055 0
M  V30 6108 H 596 -3.63874 2.0183 0
M  V30 6109 H 594.876 -4.99974 2.26534 0
M  V30 6110 H 595.137 -4.37369 0.64502 0
M  V30 6111 N 594.196 -1.08629 -1.14182 0
M  V30 6112 C 595.442 -0.818556 -1.85546 0
M  V30 6113 C 595.775 0.654076 -1.82854 0
M  V30 6114 O 595.05 1.48099 -1.26083 0
M  V30 6115 C 595.333 -1.34397 -3.3408 0
M  V30 6116 C 595.186 -2.8821 -3.45333 0
M  V30 6117 C 596.505 -0.971069 -4.29253 0
M  V30 6118 H 593.624 -0.298821 -0.673702 0
M  V30 6119 H 596.266 -1.34629 -1.34071 0
M  V30 6120 H 594.416 -0.895064 -3.78049 0
M  V30 6121 H 596.088 -3.41488 -3.10134 0
M  V30 6122 H 594.331 -3.25756 -2.86471 0
M  V30 6123 H 595.002 -3.20047 -4.49749 0
M  V30 6124 H 597.478 -1.35809 -3.93313 0
M  V30 6125 H 596.354 -1.36586 -5.31635 0
M  V30 6126 H 596.615 0.121659 -4.41933 0
M  V30 6127 N 595.674 1.31259 -0.872281 0
M  V30 6128 C 596.922 1.96233 -0.483409 0
M  V30 6129 C 597.243 1.69276 0.968012 0
M  V30 6130 O 596.513 1.00943 1.67891 0
M  V30 6131 H 595.093 0.726025 -0.175774 0
M  V30 6132 H 597.755 1.60024 -1.11258 0
M  V30 6133 H 596.851 3.05403 -0.643075 0
M  V30 6134 N 597.152 0.631951 1.44375 0
M  V30 6135 C 598.099 -0.0724807 2.30686 0
M  V30 6136 C 599.069 -0.835975 1.43529 0
M  V30 6137 O 600.254 -0.816849 1.7243 0
M  V30 6138 C 597.394 -1.04753 3.28817 0
M  V30 6139 C 596.507 -0.282367 4.31076 0
M  V30 6140 C 595.642 -1.2493 5.163 0
M  V30 6141 C 594.681 -0.473349 6.10267 0
M  V30 6142 N 593.818 -1.39079 6.88187 0
M  V30 6143 H 598.658 0.669477 2.90383 0
M  V30 6144 H 596.195 0.341927 1.43071 0
M  V30 6145 H 598.153 -1.62623 3.842 0
M  V30 6146 H 596.783 -1.75661 2.70819 0
M  V30 6147 H 595.835 0.412268 3.78159 0
M  V30 6148 H 597.147 0.321955 4.9776 0
M  V30 6149 H 596.301 -1.89931 5.76204 0
M  V30 6150 H 595.04 -1.88755 4.49692 0
M  V30 6151 H 594.045 0.190142 5.49471 0
M  V30 6152 H 595.27 0.16019 6.78911 0
M  V30 6153 H 593.216 -2.01623 6.24247 0
M  V30 6154 H 593.133 -0.840513 7.51313 0
M  V30 6155 H 594.401 -2.02961 7.52613 0
M  V30 6156 N 598.631 -1.53133 0.372548 0
M  V30 6157 C 599.856 -2.0625 -0.218098 0
M  V30 6158 C 600.281 -1.24375 -1.41111 0
M  V30 6159 O 599.639 -0.264554 -1.79359 0
M  V30 6160 C 599.687 -3.55858 -0.582876 0
M  V30 6161 O 598.791 -3.76667 -1.67917 0
M  V30 6162 H 598.132 -0.663317 -0.030104 0
M  V30 6163 H 600.662 -1.97477 0.535169 0
M  V30 6164 H 600.672 -3.99007 -0.851925 0
M  V30 6165 H 599.347 -4.14892 0.289428 0
M  V30 6166 H 597.924 -3.45413 -1.40513 0
M  V30 6167 N 600.109 -0.101901 -1.5727 0
M  V30 6168 C 601.072 0.840129 -2.13247 0
M  V30 6169 C 602.072 1.20625 -1.06331 0
M  V30 6170 O 603.262 1.13456 -1.32186 0
M  V30 6171 C 600.394 2.13372 -2.65867 0
M  V30 6172 H 601.587 0.353945 -2.97804 0
M  V30 6173 H 599.14 0.147167 -1.55606 0
M  V30 6174 H 599.875 2.66461 -1.84849 0
M  V30 6175 H 599.66 1.88085 -3.44044 0
M  V30 6176 H 601.15 2.80748 -3.09145 0
M  V30 6177 N 601.587 1.56661 0.17182 0
M  V30 6178 C 602.836 1.81158 0.886831 0
M  V30 6179 C 603.149 0.679072 1.83434 0
M  V30 6180 O 604.355 0.808964 2.59168 0
M  V30 6181 C 602.811 3.20999 1.6275 0
M  V30 6182 C 602.419 4.42117 0.723652 0
M  V30 6183 C 604.163 3.5479 2.33076 0
M  V30 6184 C 602.07 5.7298 1.46452 0
M  V30 6185 H 601 0.675543 0.334899 0
M  V30 6186 H 603.651 1.82967 0.139765 0
M  V30 6187 H 602.033 3.13506 2.4193 0
M  V30 6188 H 603.207 4.60789 -0.0311485 0
M  V30 6189 H 601.522 4.16197 0.130063 0
M  V30 6190 H 604.119 4.49806 2.89099 0
M  V30 6191 H 604.462 2.79646 3.08389 0
M  V30 6192 H 604.995 3.63834 1.6084 0
M  V30 6193 H 601.734 6.51152 0.753729 0
M  V30 6194 H 601.254 5.58285 2.19266 0
M  V30 6195 H 602.933 6.14916 2.01214 0
M  V30 6196 N 603.065 -0.440357 1.51323 0
M  V30 6197 C 604.313 -1.18769 1.63518 0
M  V30 6198 C 604.634 -1.91793 0.352201 0
M  V30 6199 O 603.904 -1.85432 -0.631811 0
M  V30 6200 H 602.484 -0.441408 0.602634 0
M  V30 6201 H 605.146 -0.505162 1.8824 0
M  V30 6202 H 604.242 -1.91892 2.46138 0
M  V30 6203 N 604.543 -1.41418 -0.695603 0
M  V30 6204 C 605.453 -1.45622 -1.83933 0
M  V30 6205 C 606.469 -0.346825 -1.70508 0
M  V30 6206 O 607.645 -0.59454 -1.92424 0
M  V30 6207 C 604.71 -1.33627 -3.19914 0
M  V30 6208 C 603.771 -2.54882 -3.45447 0
M  V30 6209 C 603.004 -2.43449 -4.7494 0
M  V30 6210 O 603.227 -1.45905 -5.51424 0
M  V30 6211 O 602.161 -3.33206 -5.01256 0
M  V30 6212 H 605.987 -2.42114 -1.83342 0
M  V30 6213 H 603.572 -1.22956 -0.848658 0
M  V30 6214 H 605.454 -1.29221 -4.01098 0
M  V30 6215 H 604.129 -0.402508 -3.21188 0
M  V30 6216 H 603.036 -2.64865 -2.64192 0
M  V30 6217 H 604.369 -3.47087 -3.48987 0
M  V30 6218 N 606.021 0.929856 -1.27246 0
M  V30 6219 C 607.249 1.71144 -1.16265 0
M  V30 6220 C 607.664 1.867 0.280786 0
M  V30 6221 O 607.021 1.38249 1.19136 0
M  V30 6222 C 607.072 3.11222 -1.83911 0
M  V30 6223 O 606.793 2.96398 -3.22614 0
M  V30 6224 C 608.294 4.05541 -1.79028 0
M  V30 6225 H 605.514 0.535499 -0.404328 0
M  V30 6226 H 608.058 1.16492 -1.68077 0
M  V30 6227 H 606.213 3.6274 -1.36009 0
M  V30 6228 H 606.627 3.8494 -3.56261 0
M  V30 6229 H 608.101 5.01351 -2.30978 0
M  V30 6230 H 608.578 4.32589 -0.759168 0
M  V30 6231 H 609.184 3.59947 -2.26535 0
M  V30 6232 N 607.499 1.09233 1.13605 0
M  V30 6233 C 608.724 0.849067 1.89224 0
M  V30 6234 C 609.149 -0.593875 1.78479 0
M  V30 6235 O 608.507 -1.41703 1.13092 0
M  V30 6236 C 608.555 1.28642 3.36873 0
M  V30 6237 O 607.659 0.44363 4.10007 0
M  V30 6238 H 607 0.30767 0.588417 0
M  V30 6239 H 609.53 1.45595 1.43748 0
M  V30 6240 H 609.54 1.27096 3.87699 0
M  V30 6241 H 608.215 2.33729 3.44011 0
M  V30 6242 H 606.792 0.523241 3.69211 0
M  V30 6243 N 608.977 -1.30795 0.87923 0
M  V30 6244 C 610.207 -2.00237 0.50881 0
M  V30 6245 C 610.615 -1.66115 -0.905682 0
M  V30 6246 O 609.958 -0.89138 -1.60624 0
M  V30 6247 C 610.02 -3.54508 0.597003 0
M  V30 6248 C 609.684 -4.12131 1.97477 0
M  V30 6249 C 610.681 -4.28552 2.94346 0
M  V30 6250 C 608.366 -4.47644 2.2786 0
M  V30 6251 C 610.36 -4.79689 4.19735 0
M  V30 6252 C 608.047 -4.98481 3.53496 0
M  V30 6253 C 609.045 -5.14456 4.49248 0
M  V30 6254 O 608.733 -5.64199 5.72656 0
M  V30 6255 H 608.465 -0.647026 0.195788 0
M  V30 6256 H 611.019 -1.67785 1.1848 0
M  V30 6257 H 609.249 -3.86461 -0.135945 0
M  V30 6258 H 610.938 -4.05198 0.238684 0
M  V30 6259 H 611.704 -4.01424 2.72183 0
M  V30 6260 H 607.583 -4.34481 1.54102 0
M  V30 6261 H 611.127 -4.92073 4.9448 0
M  V30 6262 H 607.024 -5.25044 3.75498 0
M  V30 6263 H 607.792 -5.82551 5.74957 0
M  V30 6264 N 610.455 -0.639598 -1.44038 0
M  V30 6265 C 611.871 -0.305953 -1.5664 0
M  V30 6266 C 612.071 1.19055 -1.62567 0
M  V30 6267 O 611.127 1.97492 -1.57331 0
M  V30 6268 C 612.44 -1.00533 -2.83397 0
M  V30 6269 C 613.988 -0.984278 -2.97121 0
M  V30 6270 C 614.463 -1.66428 -4.26691 0
M  V30 6271 N 615.954 -1.63127 -4.33525 0
M  V30 6272 C 616.689 -2.12629 -5.32519 0
M  V30 6273 N 616.185 -2.70359 -6.3787 0
M  V30 6274 N 617.978 -2.03208 -5.24083 0
M  V30 6275 H 610.129 -1.6109 -1.38434 0
M  V30 6276 H 612.392 -0.676672 -0.663942 0
M  V30 6277 H 612.098 -2.06034 -2.85032 0
M  V30 6278 H 611.972 -0.548362 -3.73193 0
M  V30 6279 H 614.359 0.0622792 -2.95034 0
M  V30 6280 H 614.44 -1.47981 -2.08651 0
M  V30 6281 H 614.084 -2.71034 -4.29538 0
M  V30 6282 H 614.014 -1.14351 -5.14034 0
M  V30 6283 H 616.505 -1.20987 -3.58009 0
M  V30 6284 H 616.818 -3.05842 -7.09704 0
M  V30 6285 H 615.163 -2.74414 -6.38531 0
M  V30 6286 H 618.354 -1.57823 -4.40692 0
M  V30 6287 H 618.527 -2.42097 -6.01077 0
M  V30 6288 N 611.933 1.52934 -0.380664 0
M  V30 6289 C 613.181 2.01069 0.203874 0
M  V30 6290 C 613.502 1.26922 1.4804 0
M  V30 6291 O 612.772 0.386787 1.92044 0
M  V30 6292 H 611.352 0.742882 0.0783279 0
M  V30 6293 H 614.014 1.88099 -0.510368 0
M  V30 6294 H 613.11 3.09258 0.42021 0
M  V30 6295 N 613.412 0.11024 1.57214 0
M  V30 6296 C 614.659 -0.54987 1.94891 0
M  V30 6297 C 614.987 -1.67243 0.992984 0
M  V30 6298 O 614.242 -1.95694 0.0152703 0
M  V30 6299 C 614.541 -1.13102 3.39032 0
M  V30 6300 C 614.207 -0.130713 4.5071 0
M  V30 6301 C 612.869 0.14437 4.80983 0
M  V30 6302 C 615.221 0.551472 5.18274 0
M  V30 6303 C 612.549 1.10807 5.76141 0
M  V30 6304 C 614.901 1.50375 6.14467 0
M  V30 6305 C 613.565 1.78691 6.43138 0
M  V30 6306 H 612.835 -0.201212 0.713158 0
M  V30 6307 H 615.482 0.189288 1.90562 0
M  V30 6308 H 613.787 -1.94675 3.40013 0
M  V30 6309 H 615.484 -1.64973 3.65493 0
M  V30 6310 H 612.074 -0.355301 4.27125 0
M  V30 6311 H 616.258 0.35211 4.95049 0
M  V30 6312 H 611.514 1.3343 5.96663 0
M  V30 6313 H 615.688 2.03808 6.65909 0
M  V30 6314 H 613.315 2.53522 7.1668 0
M  V30 6315 N 614.89 -1.56749 -0.16351 0
M  V30 6316 C 616.12 -1.86307 -0.892936 0
M  V30 6317 C 616.528 -0.6945 -1.75992 0
M  V30 6318 O 615.871 0.345384 -1.80424 0
M  V30 6319 C 615.933 -3.10372 -1.81409 0
M  V30 6320 C 615.597 -4.42913 -1.12593 0
M  V30 6321 C 616.594 -5.17608 -0.487661 0
M  V30 6322 C 614.279 -4.89646 -1.12035 0
M  V30 6323 C 616.273 -6.3723 0.14699 0
M  V30 6324 C 613.96 -6.09197 -0.481883 0
M  V30 6325 C 614.958 -6.82834 0.150678 0
M  V30 6326 O 614.646 -8.00116 0.779065 0
M  V30 6327 H 614.378 -0.622126 -0.264452 0
M  V30 6328 H 616.932 -2.04728 -0.166063 0
M  V30 6329 H 615.162 -2.87917 -2.58148 0
M  V30 6330 H 616.851 -3.26312 -2.41403 0
M  V30 6331 H 617.617 -4.8258 -0.483888 0
M  V30 6332 H 613.496 -4.32265 -1.60212 0
M  V30 6333 H 617.04 -6.94646 0.641325 0
M  V30 6334 H 612.937 -6.43688 -0.483266 0
M  V30 6335 H 613.705 -8.15678 0.679089 0
M  V30 6336 N 616.368 0.432326 -1.51554 0
M  V30 6337 C 617.784 0.769195 -1.39841 0
M  V30 6338 C 617.984 1.95584 -0.484675 0
M  V30 6339 O 617.04 2.52433 0.0582829 0
M  V30 6340 C 618.353 1.04487 -2.81963 0
M  V30 6341 C 619.901 1.149 -2.91148 0
M  V30 6342 C 620.376 1.45758 -4.34187 0
M  V30 6343 N 621.867 1.52671 -4.37317 0
M  V30 6344 C 622.602 1.78129 -5.4503 0
M  V30 6345 N 622.098 2.01345 -6.62897 0
M  V30 6346 N 623.891 1.79953 -5.32516 0
M  V30 6347 H 616.042 -0.349122 -2.09511 0
M  V30 6348 H 618.305 -0.0938113 -0.943347 0
M  V30 6349 H 618.011 0.24557 -3.50842 0
M  V30 6350 H 617.885 1.97119 -3.21596 0
M  V30 6351 H 620.272 1.93891 -2.22464 0
M  V30 6352 H 620.353 0.201568 -2.55005 0
M  V30 6353 H 619.997 0.672917 -5.03423 0
M  V30 6354 H 619.927 2.41715 -4.67848 0
M  V30 6355 H 622.418 1.36612 -3.52343 0
M  V30 6356 H 622.731 2.20155 -7.40778 0
M  V30 6357 H 621.076 1.98657 -6.66003 0
M  V30 6358 H 624.267 1.61337 -4.39418 0
M  V30 6359 H 624.44 1.99455 -6.1654 0
M  V30 6360 N 617.846 1.41785 0.688094 0
M  V30 6361 C 618.809 1.43936 1.78368 0
M  V30 6362 C 619.809 0.328866 1.57401 0
M  V30 6363 O 620.999 0.589093 1.63937 0
M  V30 6364 C 618.131 1.25804 3.16838 0
M  V30 6365 H 619.324 2.41472 1.77852 0
M  V30 6366 H 616.877 1.28037 0.896448 0
M  V30 6367 H 617.612 0.291386 3.22988 0
M  V30 6368 H 617.397 2.06272 3.33458 0
M  V30 6369 H 618.887 1.30162 3.96797 0
M  V30 6370 N 619.324 -0.923095 1.27737 0
M  V30 6371 C 620.554 -1.70277 1.17001 0
M  V30 6372 C 620.962 -1.87188 -0.275199 0
M  V30 6373 O 620.305 -1.39195 -1.19877 0
M  V30 6374 C 620.367 -3.11976 1.78637 0
M  V30 6375 C 620.031 -3.18386 3.27841 0
M  V30 6376 C 621.028 -3.00287 4.2441 0
M  V30 6377 C 618.713 -3.41198 3.68632 0
M  V30 6378 C 620.707 -3.04896 5.59747 0
M  V30 6379 C 618.394 -3.4544 5.04097 0
M  V30 6380 C 619.392 -3.27309 5.99465 0
M  V30 6381 O 619.08 -3.31295 7.32461 0
M  V30 6382 H 618.812 -0.539366 0.407505 0
M  V30 6383 H 621.366 -1.16446 1.69202 0
M  V30 6384 H 619.596 -3.67308 1.20919 0
M  V30 6385 H 621.285 -3.7193 1.6255 0
M  V30 6386 H 622.051 -2.825 3.94232 0
M  V30 6387 H 617.93 -3.54359 2.94873 0
M  V30 6388 H 621.474 -2.90662 6.34162 0
M  V30 6389 H 617.371 -3.62753 5.33929 0
M  V30 6390 H 618.139 -3.47719 7.40968 0
M  V30 6391 N 620.802 -1.09834 -1.13024 0
M  V30 6392 C 621.734 -0.699379 -2.18269 0
M  V30 6393 C 622.747 0.260841 -1.60697 0
M  V30 6394 O 623.936 0.0462538 -1.7844 0
M  V30 6395 C 621.036 -0.0104537 -3.38898 0
M  V30 6396 C 620.209 -0.993275 -4.25973 0
M  V30 6397 C 619.268 -0.336982 -5.2512 0
M  V30 6398 O 618.294 -0.985892 -5.60597 0
M  V30 6399 N 619.496 0.90716 -5.73368 0
M  V30 6400 H 622.261 -1.60486 -2.5311 0
M  V30 6401 H 619.822 -0.986337 -1.28386 0
M  V30 6402 H 621.814 0.43991 -4.02302 0
M  V30 6403 H 620.384 0.797335 -3.0226 0
M  V30 6404 H 619.604 -1.62208 -3.5928 0
M  V30 6405 H 620.892 -1.65876 -4.81002 0
M  V30 6406 H 620.29 1.45384 -5.46699 0
M  V30 6407 H 618.847 1.30077 -6.38689 0
M  V30 6408 N 622.28 1.30327 -0.886154 0
M  V30 6409 C 623.243 2.26376 -0.358687 0
M  V30 6410 C 624.243 1.52845 0.499498 0
M  V30 6411 O 625.433 1.71483 0.306485 0
M  V30 6412 C 622.565 3.37379 0.488726 0
M  V30 6413 H 623.758 2.74547 -1.20681 0
M  V30 6414 H 621.311 1.41536 -0.663113 0
M  V30 6415 H 622.046 2.94526 1.35739 0
M  V30 6416 H 621.831 3.91897 -0.126003 0
M  V30 6417 H 623.321 4.08868 0.84952 0
M  V30 6418 N 623.758 0.647228 1.43697 0
M  V30 6419 C 624.708 -0.0702191 2.27892 0
M  V30 6420 C 625.692 -0.800601 1.39568 0
M  V30 6421 O 626.884 -0.684055 1.63247 0
M  V30 6422 C 624.013 -1.04008 3.27165 0
M  V30 6423 C 623.099 -0.308484 4.22977 0
M  V30 6424 N 623.49 0.671721 5.0132 0
M  V30 6425 C 621.788 -0.550751 4.42586 0
M  V30 6426 C 622.489 1.10543 5.711 0
M  V30 6427 N 621.465 0.440903 5.41809 0
M  V30 6428 H 625.267 0.682031 2.85877 0
M  V30 6429 H 622.781 0.474022 1.55328 0
M  V30 6430 H 624.778 -1.56881 3.86256 0
M  V30 6431 H 623.438 -1.79246 2.70742 0
M  V30 6432 H 624.449 1.0502 5.0714 0
M  V30 6433 H 621.126 -1.28476 3.97241 0
M  V30 6434 H 622.516 1.91614 6.43998 0
M  V30 6435 N 625.236 -1.5273 0.388769 0
M  V30 6436 C 626.482 -2.01871 -0.193877 0
M  V30 6437 C 626.815 -1.27475 -1.46505 0
M  V30 6438 O 626.09 -0.375063 -1.90849 0
M  V30 6439 C 626.373 -3.5712 -0.462336 0
M  V30 6440 C 626.226 -4.42186 0.824091 0
M  V30 6441 C 627.545 -4.21881 -1.25319 0
M  V30 6442 H 624.664 -0.733764 -0.0689899 0
M  V30 6443 H 627.306 -1.82796 0.518231 0
M  V30 6444 H 625.456 -3.73504 -1.06896 0
M  V30 6445 H 627.128 -4.37554 1.46096 0
M  V30 6446 H 625.371 -4.09219 1.43952 0
M  V30 6447 H 626.042 -5.48828 0.590905 0
M  V30 6448 H 628.518 -4.0947 -0.73981 0
M  V30 6449 H 627.394 -5.30487 -1.40977 0
M  V30 6450 H 627.655 -3.79478 -2.26824 0
M  V30 6451 N 626.714 -0.118576 -1.57153 0
M  V30 6452 C 627.939 0.550582 -1.99958 0
M  V30 6453 C 628.364 1.59458 -0.997736 0
M  V30 6454 O 627.722 1.81274 0.0306269 0
M  V30 6455 C 627.77 1.15379 -3.41643 0
M  V30 6456 O 626.874 2.26932 -3.44348 0
M  V30 6457 H 626.215 0.137567 -0.649593 0
M  V30 6458 H 628.745 -0.206926 -2.03551 0
M  V30 6459 H 628.755 1.48942 -3.79843 0
M  V30 6460 H 627.43 0.389087 -4.14076 0
M  V30 6461 H 626.007 1.94812 -3.17967 0
M  V30 6462 N 628.193 1.56834 0.155195 0
M  V30 6463 C 629.418 1.87412 0.888337 0
M  V30 6464 C 629.843 0.70671 1.74319 0
M  V30 6465 O 629.201 -0.343892 1.78009 0
M  V30 6466 C 629.249 3.1652 1.72765 0
M  V30 6467 O 628.353 2.99877 2.83103 0
M  V30 6468 H 627.694 0.615983 0.247914 0
M  V30 6469 H 630.224 2.04061 0.148478 0
M  V30 6470 H 630.234 3.48334 2.12433 0
M  V30 6471 H 628.909 4.01094 1.09985 0
M  V30 6472 H 627.486 2.79453 2.46902 0
M  V30 6473 N 629.671 -0.424282 1.51781 0
M  V30 6474 C 630.896 -1.19928 1.6921 0
M  V30 6475 C 631.321 -1.8392 0.394355 0
M  V30 6476 O 630.679 -1.69371 -0.646778 0
M  V30 6477 C 630.727 -2.24937 2.81843 0
M  V30 6478 O 629.831 -3.3073 2.46356 0
M  V30 6479 H 629.172 -0.35078 0.563781 0
M  V30 6480 H 631.702 -0.499401 1.98412 0
M  V30 6481 H 631.712 -2.69512 3.06312 0
M  V30 6482 H 630.387 -1.77742 3.76006 0
M  V30 6483 H 628.964 -2.9154 2.32505 0
M  V30 6484 N 631.149 -1.42148 -0.680565 0
M  V30 6485 C 632.097 -1.45401 -1.81552 0
M  V30 6486 C 633.091 -0.33036 -1.66147 0
M  V30 6487 O 634.297 -0.503103 -1.72826 0
M  V30 6488 H 630.672 -0.455265 -0.59853 0
M  V30 6489 H 632.643 -2.41024 -1.75926 0
M  V30 6490 C 631.392 -1.36769 -3.19671 0
M  V30 6491 H 630.715 -2.22525 -3.32149 0
M  V30 6492 H 632.155 -1.43106 -3.9912 0
M  V30 6493 C 630.614 -0.0817752 -3.36801 0
M  V30 6494 O 631.144 0.867707 -3.92216 0
M  V30 6495 N 629.35 -0.000799811 -2.906 0
M  V30 6496 H 628.897 -0.774231 -2.4569 0
M  V30 6497 H 628.855 0.858961 -3.02439 0
M  V30 6498 N 632.627 0.916307 -1.28225 0
M  V30 6499 C 633.873 1.66794 -1.1641 0
M  V30 6500 C 634.228 1.90278 0.284986 0
M  V30 6501 O 633.521 1.49023 1.20427 0
M  V30 6502 C 633.715 3.03125 -1.8934 0
M  V30 6503 C 633.544 2.92947 -3.41192 0
M  V30 6504 C 632.314 2.9461 -4.10528 0
M  V30 6505 C 634.512 2.7121 -4.36978 0
M  V30 6506 N 632.494 2.74993 -5.48864 0
M  V30 6507 C 633.865 2.60411 -5.6266 0
M  V30 6508 C 635.92 2.56187 -4.26934 0
M  V30 6509 C 634.623 2.3612 -6.79441 0
M  V30 6510 C 636.649 2.33275 -5.43449 0
M  V30 6511 C 636.011 2.23228 -6.68093 0
M  V30 6512 H 632.11 0.616654 -0.480896 0
M  V30 6513 H 634.694 1.08237 -1.61842 0
M  V30 6514 H 632.865 3.59774 -1.46346 0
M  V30 6515 H 634.597 3.67294 -1.69932 0
M  V30 6516 H 631.352 3.0527 -3.62087 0
M  V30 6517 H 631.776 2.68284 -6.21573 0
M  V30 6518 H 636.418 2.62707 -3.31278 0
M  V30 6519 H 634.136 2.28339 -7.75169 0
M  V30 6520 H 637.722 2.22519 -5.37565 0
M  V30 6521 H 636.602 2.05741 -7.5673 0
M  V30 6522 N 634.105 1.10431 1.1244 0
M  V30 6523 C 635.068 0.756542 2.16354 0
M  V30 6524 C 636.068 -0.21899 1.59302 0
M  V30 6525 O 637.258 0.00415969 1.742 0
M  V30 6526 C 634.39 0.120612 3.40687 0
M  V30 6527 H 635.583 1.67696 2.48632 0
M  V30 6528 H 633.136 0.904832 1.27446 0
M  V30 6529 H 633.871 -0.810536 3.14008 0
M  V30 6530 H 633.656 0.822693 3.83372 0
M  V30 6531 H 635.146 -0.106945 4.17463 0
M  V30 6532 N 635.583 -1.29855 0.893053 0
M  V30 6533 C 636.493 -2.31661 0.370157 0
M  V30 6534 C 637.509 -1.65677 -0.531723 0
M  V30 6535 O 638.685 -1.9691 -0.422902 0
M  V30 6536 C 635.75 -3.44388 -0.399741 0
M  V30 6537 C 634.811 -4.2598 0.532861 0
M  V30 6538 C 634.044 -5.33324 -0.200388 0
M  V30 6539 O 634.267 -5.52305 -1.42531 0
M  V30 6540 O 633.201 -6.00188 0.453668 0
M  V30 6541 H 637.027 -2.78354 1.2146 0
M  V30 6542 H 634.612 -1.34171 0.657153 0
M  V30 6543 H 636.494 -4.13037 -0.835358 0
M  V30 6544 H 635.169 -2.99815 -1.22035 0
M  V30 6545 H 634.076 -3.59998 1.01746 0
M  V30 6546 H 635.409 -4.74178 1.3197 0
M  V30 6547 N 637.061 -0.65484 -1.43351 0
M  V30 6548 C 638.308 -0.168892 -2.01794 0
M  V30 6549 C 638.636 1.2177 -1.51665 0
M  V30 6550 O 637.891 1.82717 -0.70092 0
M  V30 6551 C 638.19 -0.130424 -3.57162 0
M  V30 6552 C 637.856 -1.45898 -4.26643 0
M  V30 6553 C 636.518 -1.82279 -4.4534 0
M  V30 6554 C 638.87 -2.33485 -4.65976 0
M  V30 6555 C 636.198 -3.0591 -5.00635 0
M  V30 6556 C 638.55 -3.5641 -5.22642 0
M  V30 6557 C 637.214 -3.92985 -5.39555 0
M  V30 6558 H 636.484 -0.061802 -0.738418 0
M  V30 6559 H 639.131 -0.845869 -1.71806 0
M  V30 6560 H 637.436 0.630008 -3.86702 0
M  V30 6561 H 639.133 0.262465 -4.0014 0
M  V30 6562 H 635.723 -1.16591 -4.12437 0
M  V30 6563 H 639.907 -2.06668 -4.51223 0
M  V30 6564 H 635.163 -3.34295 -5.11915 0
M  V30 6565 H 639.337 -4.24495 -5.52066 0
M  V30 6566 H 636.964 -4.88862 -5.82167 0
M  V30 6567 N 638.539 1.52521 -0.396863 0
M  V30 6568 C 639.449 2.30403 0.44178 0
M  V30 6569 C 640.465 1.37625 1.06468 0
M  V30 6570 O 641.641 1.70697 1.06886 0
M  V30 6571 C 638.706 3.1013 1.54986 0
M  V30 6572 C 637.767 4.18628 0.951279 0
M  V30 6573 C 637 4.94543 2.00655 0
M  V30 6574 O 637.223 4.70629 3.22281 0
M  V30 6575 O 636.157 5.797 1.61962 0
M  V30 6576 H 639.983 3.03087 -0.192892 0
M  V30 6577 H 637.568 1.48537 -0.16038 0
M  V30 6578 H 639.45 3.59816 2.19341 0
M  V30 6579 H 638.125 2.40251 2.16935 0
M  V30 6580 H 637.032 3.73119 0.270773 0
M  V30 6581 H 638.365 4.90763 0.375887 0
M  V30 6582 N 640.017 0.126909 1.57088 0
M  V30 6583 C 640.967 -0.831678 2.1229 0
M  V30 6584 C 641.951 -1.22292 1.04564 0
M  V30 6585 O 643.143 -1.19269 1.30782 0
M  V30 6586 C 640.272 -2.07866 2.73215 0
M  V30 6587 C 639.358 -1.71143 3.88035 0
M  V30 6588 N 639.749 -1.05136 4.94753 0
M  V30 6589 C 638.047 -2.00549 3.98367 0
M  V30 6590 C 638.748 -0.877257 5.75047 0
M  V30 6591 N 637.724 -1.40477 5.25135 0
M  V30 6592 H 641.526 -0.317926 2.92175 0
M  V30 6593 H 639.04 -0.0753052 1.62225 0
M  V30 6594 H 641.037 -2.77516 3.11111 0
M  V30 6595 H 639.697 -2.59778 1.94796 0
M  V30 6596 H 640.708 -0.71442 5.12949 0
M  V30 6597 H 637.385 -2.54452 3.30999 0
M  V30 6598 H 638.775 -0.358536 6.70943 0
M  V30 6599 N 641.495 -1.56914 -0.146875 0
M  V30 6600 C 642.458 -1.97368 -1.16526 0
M  V30 6601 C 643.458 -0.860223 -1.35856 0
M  V30 6602 O 644.648 -1.12684 -1.32846 0
M  V30 6603 C 641.78 -2.28974 -2.52555 0
M  V30 6604 H 642.973 -2.88523 -0.818209 0
M  V30 6605 H 640.526 -1.5135 -0.390221 0
M  V30 6606 H 641.261 -1.40611 -2.92231 0
M  V30 6607 H 641.046 -3.10157 -2.39886 0
M  V30 6608 H 642.536 -2.61109 -3.25902 0
M  V30 6609 N 642.974 0.416227 -1.52004 0
M  V30 6610 C 644.199 1.19029 -1.69843 0
M  V30 6611 C 644.624 1.83708 -0.404103 0
M  V30 6612 O 643.982 1.69711 0.637787 0
M  V30 6613 C 644.03 2.23439 -2.83032 0
M  V30 6614 O 643.134 3.29419 -2.48106 0
M  V30 6615 H 642.475 0.347785 -0.565634 0
M  V30 6616 H 645.005 0.488871 -1.98674 0
M  V30 6617 H 645.015 2.67884 -3.07737 0
M  V30 6618 H 643.69 1.75745 -3.76944 0
M  V30 6619 H 642.267 2.90303 -2.34048 0
M  V30 6620 N 644.452 1.42507 0.673017 0
M  V30 6621 C 645.677 1.4668 1.46627 0
M  V30 6622 C 646.102 0.080066 1.8793 0
M  V30 6623 O 645.46 -0.921879 1.56112 0
M  V30 6624 C 645.508 2.40091 2.69051 0
M  V30 6625 O 644.612 1.8735 3.67387 0
M  V30 6626 H 643.953 0.496908 0.44043 0
M  V30 6627 H 646.483 1.87215 0.825334 0
M  V30 6628 H 646.493 2.56731 3.17101 0
M  V30 6629 H 645.168 3.4084 2.3833 0
M  V30 6630 H 643.745 1.80274 3.26429 0
M  V30 6631 N 645.93 -0.909495 1.28709 0
M  V30 6632 C 647.158 -1.69272 1.18973 0
M  V30 6633 C 647.573 -1.87123 -0.251048 0
M  V30 6634 O 646.93 -1.40127 -1.16922 0
M  V30 6635 C 646.981 -3.08257 1.88839 0
M  V30 6636 O 646.702 -2.91228 3.27289 0
M  V30 6637 C 648.203 -4.02642 1.85457 0
M  V30 6638 H 645.423 -0.528999 0.412797 0
M  V30 6639 H 647.967 -1.13803 1.69909 0
M  V30 6640 H 646.122 -3.6053 1.41762 0
M  V30 6641 H 646.536 -3.79223 3.6234 0
M  V30 6642 H 648.01 -4.97613 2.38925 0
M  V30 6643 H 648.487 -4.31327 0.827893 0
M  V30 6644 H 649.093 -3.56298 2.32233 0
M  V30 6645 N 647.408 -1.11026 -1.11852 0
M  V30 6646 C 648.654 -0.867633 -1.83967 0
M  V30 6647 C 649.009 0.600309 -1.82795 0
M  V30 6648 O 648.302 1.43731 -1.26696 0
M  V30 6649 C 648.496 -1.35777 -3.30604 0
M  V30 6650 C 648.325 -2.87183 -3.46058 0
M  V30 6651 C 647.095 -3.55256 -3.59334 0
M  V30 6652 C 649.293 -3.85258 -3.40706 0
M  V30 6653 N 647.275 -4.94923 -3.63215 0
M  V30 6654 C 648.646 -5.1097 -3.51155 0
M  V30 6655 C 650.701 -3.77879 -3.2421 0
M  V30 6656 C 649.404 -6.30171 -3.46809 0
M  V30 6657 C 651.43 -4.96586 -3.2118 0
M  V30 6658 C 650.792 -6.21149 -3.32196 0
M  V30 6659 H 646.891 -0.370574 -0.688621 0
M  V30 6660 H 649.475 -1.41379 -1.33865 0
M  V30 6661 H 647.646 -0.83885 -3.79233 0
M  V30 6662 H 649.378 -1.05874 -3.90606 0
M  V30 6663 H 646.133 -3.05714 -3.61713 0
M  V30 6664 H 646.557 -5.67726 -3.68804 0
M  V30 6665 H 651.199 -2.82485 -3.14582 0
M  V30 6666 H 648.917 -7.25847 -3.55206 0
M  V30 6667 H 652.503 -4.92591 -3.09589 0
M  V30 6668 H 651.383 -7.11463 -3.29834 0
M  V30 6669 N 648.886 1.2938 -0.899927 0
M  V30 6670 C 649.836 2.25311 -0.349165 0
M  V30 6671 C 650.82 1.51889 0.530892 0
M  V30 6672 O 652.012 1.73028 0.372872 0
M  V30 6673 C 649.141 3.40696 0.422055 0
M  V30 6674 C 648.227 4.21455 -0.472935 0
M  V30 6675 N 648.618 4.8048 -1.58026 0
M  V30 6676 C 646.916 4.45177 -0.270767 0
M  V30 6677 C 647.617 5.41117 -2.13465 0
M  V30 6678 N 646.593 5.24518 -1.42766 0
M  V30 6679 H 650.395 2.68507 -1.19505 0
M  V30 6680 H 647.909 1.43992 -0.751006 0
M  V30 6681 H 649.906 4.08486 0.833369 0
M  V30 6682 H 648.566 2.99037 1.2652 0
M  V30 6683 H 649.577 4.79257 -1.96299 0
M  V30 6684 H 646.254 4.14071 0.533988 0
M  V30 6685 H 647.644 5.979 -3.06537 0
M  V30 6686 N 650.364 0.662433 1.43002 0
M  V30 6687 C 651.592 0.187615 2.06048 0
M  V30 6688 C 652.007 -1.15039 1.49705 0
M  V30 6689 O 651.364 -1.71209 0.631956 0
M  V30 6690 C 651.415 0.100498 3.6136 0
M  V30 6691 O 651.136 1.38562 4.15611 0
M  V30 6692 C 652.637 -0.399298 4.41498 0
M  V30 6693 H 649.857 0.0941675 0.664359 0
M  V30 6694 H 652.401 0.905681 1.83351 0
M  V30 6695 H 650.556 -0.568181 3.83211 0
M  V30 6696 H 650.97 1.25084 5.09366 0
M  V30 6697 H 652.444 -0.409187 5.50481 0
M  V30 6698 H 652.921 -1.43232 4.15188 0
M  V30 6699 H 653.527 0.23721 4.24638 0
M  V30 6700 N 651.842 -1.52309 0.404946 0
M  V30 6701 C 652.752 -2.30634 -0.429555 0
M  V30 6702 C 653.768 -1.38187 -1.05737 0
M  V30 6703 O 654.944 -1.71261 -1.05979 0
M  V30 6704 C 652.009 -3.10947 -1.53339 0
M  V30 6705 C 651.07 -4.19126 -0.929065 0
M  V30 6706 C 650.303 -4.95601 -1.9803 0
M  V30 6707 O 650.526 -4.72331 -3.1978 0
M  V30 6708 O 649.46 -5.80551 -1.58886 0
M  V30 6709 H 653.286 -3.0298 0.208963 0
M  V30 6710 H 650.871 -1.4845 0.168255 0
M  V30 6711 H 652.753 -3.60974 -2.1743 0
M  V30 6712 H 651.428 -2.41399 -2.15658 0
M  V30 6713 H 650.335 -3.73257 -0.250982 0
M  V30 6714 H 651.668 -4.90955 -0.349855 0
M  V30 6715 N 653.32 -0.135238 -1.57019 0
M  V30 6716 C 654.25 0.805235 -2.19176 0
M  V30 6717 C 655.231 1.2656 -1.13651 0
M  V30 6718 O 656.416 1.32528 -1.4195 0
M  V30 6719 C 653.546 2.04914 -2.80406 0
M  V30 6720 C 652.5 1.72598 -3.91655 0
M  V30 6721 C 651.826 3.04154 -4.39766 0
M  V30 6722 C 653.126 0.981709 -5.12991 0
M  V30 6723 H 654.82 0.287232 -2.98019 0
M  V30 6724 H 652.366 0.136714 -1.4335 0
M  V30 6725 H 654.319 2.71178 -3.22553 0
M  V30 6726 H 653.043 2.59067 -1.98877 0
M  V30 6727 H 651.702 1.08717 -3.50109 0
M  V30 6728 H 651.35 3.56274 -3.55075 0
M  V30 6729 H 651.05 2.83299 -5.14796 0
M  V30 6730 H 652.574 3.71509 -4.84576 0
M  V30 6731 H 653.988 1.5462 -5.52056 0
M  V30 6732 H 652.385 0.873533 -5.93708 0
M  V30 6733 H 653.455 -0.0286887 -4.84892 0
M  V30 6734 N 654.798 1.5699 0.138552 0
M  V30 6735 C 656.026 1.87976 0.864437 0
M  V30 6736 C 656.441 0.724372 1.74351 0
M  V30 6737 O 655.798 -0.305575 1.79924 0
M  V30 6738 C 655.849 3.18276 1.71414 0
M  V30 6739 O 655.57 4.29365 0.870487 0
M  V30 6740 C 657.071 3.62834 2.54688 0
M  V30 6741 H 654.291 0.622878 0.249528 0
M  V30 6742 H 656.835 2.04094 0.128805 0
M  V30 6743 H 654.99 3.03886 2.40274 0
M  V30 6744 H 655.404 5.03924 1.45466 0
M  V30 6745 H 656.878 4.5682 3.0987 0
M  V30 6746 H 657.355 2.88533 3.31127 0
M  V30 6747 H 657.961 3.79946 1.91105 0
M  V30 6748 N 656.276 -0.40816 1.52223 0
M  V30 6749 C 657.223 -1.49737 1.75635 0
M  V30 6750 C 658.193 -1.5493 0.598824 0
M  V30 6751 O 659.378 -1.71487 0.83648 0
M  V30 6752 C 656.518 -2.87174 1.91376 0
M  V30 6753 C 655.631 -2.91283 3.19027 0
M  V30 6754 C 654.766 -4.20026 3.25195 0
M  V30 6755 C 653.805 -4.18113 4.47044 0
M  V30 6756 N 652.942 -5.38429 4.50598 0
M  V30 6757 H 657.782 -1.29075 2.68596 0
M  V30 6758 H 655.319 -0.626518 1.33091 0
M  V30 6759 H 657.277 -3.66959 1.98486 0
M  V30 6760 H 655.907 -3.06329 1.01795 0
M  V30 6761 H 654.959 -2.03984 3.21084 0
M  V30 6762 H 656.271 -2.85734 4.08849 0
M  V30 6763 H 655.425 -5.08204 3.31382 0
M  V30 6764 H 654.164 -4.28271 2.33313 0
M  V30 6765 H 653.169 -3.28325 4.41002 0
M  V30 6766 H 654.394 -4.11507 5.40221 0
M  V30 6767 H 652.34 -5.4734 3.616 0
M  V30 6768 H 652.257 -5.34879 5.34266 0
M  V30 6769 H 653.525 -6.28557 4.61016 0
M  V30 6770 N 657.755 -1.42862 -0.66545 0
M  V30 6771 C 658.983 -1.47246 -1.45349 0
M  V30 6772 C 659.398 -0.0865944 -1.88601 0
M  V30 6773 O 658.755 0.900652 -1.58728 0
M  V30 6774 C 658.806 -2.40772 -2.6965 0
M  V30 6775 O 658.527 -3.73968 -2.2821 0
M  V30 6776 C 660.028 -2.54272 -3.63126 0
M  V30 6777 H 657.248 -0.500497 -0.446927 0
M  V30 6778 H 659.792 -1.87477 -0.816871 0
M  V30 6779 H 657.947 -2.0377 -3.29479 0
M  V30 6780 H 658.361 -4.24146 -3.08546 0
M  V30 6781 H 659.835 -3.23815 -4.47043 0
M  V30 6782 H 660.312 -1.58364 -4.09656 0
M  V30 6783 H 660.918 -2.92036 -3.09185 0
M  V30 6784 N 659.233 0.902656 -1.29189 0
M  V30 6785 C 660.461 1.68639 -1.19869 0
M  V30 6786 C 660.876 1.87254 0.241121 0
M  V30 6787 O 660.233 1.40745 1.16177 0
M  V30 6788 C 660.284 3.07251 -1.90471 0
M  V30 6789 O 660.005 2.89488 -3.28829 0
M  V30 6790 C 661.506 4.01653 -1.8759 0
M  V30 6791 H 658.726 0.526802 -0.415596 0
M  V30 6792 H 661.27 1.12901 -1.7051 0
M  V30 6793 H 659.425 3.59774 -1.43672 0
M  V30 6794 H 659.839 3.77296 -3.64346 0
M  V30 6795 H 661.313 4.96339 -2.4156 0
M  V30 6796 H 661.79 4.30881 -0.850756 0
M  V30 6797 H 662.396 3.55061 -2.34119 0
M  V30 6798 N 660.711 1.11618 1.11262 0
M  V30 6799 C 661.988 0.777876 1.79467 0
M  V30 6800 C 662.368 -0.733774 1.97937 0
M  V30 6801 O 661.716 -1.66443 1.56554 0
M  V30 6802 C 661.926 1.5431 3.13032 0
M  V30 6803 C 663.274 1.72357 3.88044 0
M  V30 6804 O 664.298 1.5075 3.22727 0
M  V30 6805 O 663.157 2.08276 5.05256 0
M  V30 6806 H 660.251 0.282018 0.777428 0
M  V30 6807 H 662.797 1.21971 1.17988 0
M  V30 6808 H 661.569 2.57132 2.94956 0
M  V30 6809 H 661.192 1.09495 3.82226 0
M  V30 6810 N 662.189 -1.289 0.906776 0
M  V30 6811 C 663.605 -1.47733 0.603902 0
M  V30 6812 C 663.805 -1.82568 -0.852702 0
M  V30 6813 O 662.861 -1.92642 -1.63234 0
M  V30 6814 C 664.174 -2.58522 1.53581 0
M  V30 6815 C 665.722 -2.72394 1.54177 0
M  V30 6816 C 666.197 -3.86318 2.46013 0
M  V30 6817 N 667.688 -3.93661 2.441 0
M  V30 6818 C 668.423 -4.81177 3.11859 0
M  V30 6819 N 667.919 -5.73333 3.88923 0
M  V30 6820 N 669.712 -4.74728 3.00981 0
M  V30 6821 H 661.863 -1.04567 1.84877 0
M  V30 6822 H 664.126 -0.520118 0.792579 0
M  V30 6823 H 663.832 -2.39667 2.57396 0
M  V30 6824 H 663.706 -3.55475 1.26165 0
M  V30 6825 H 666.093 -2.90641 0.511034 0
M  V30 6826 H 666.174 -1.75993 1.85634 0
M  V30 6827 H 665.818 -3.68826 3.49185 0
M  V30 6828 H 665.748 -4.82102 2.11862 0
M  V30 6829 H 668.239 -3.27751 1.88115 0
M  V30 6830 H 668.552 -6.36923 4.37663 0
M  V30 6831 H 666.897 -5.73196 3.93029 0
M  V30 6832 H 670.088 -4.01722 2.40286 0
M  V30 6833 H 670.261 -5.42719 3.54062 0
M  V30 6834 O 663.706 -0.809245 -1.39762 0
M  V30 6835 H 664.397 -0.38643 -1.89806 0
M  V30 END ATOM
M  V30 BEGIN BOND
M  V30 END BOND
M  V30 END CTAB
M  END
$$$$
