drugbank_target|P0A1X3 Lipoprotein MxiM (DB04199)
 OpenBabel12092119583D

  0  0  0     0  0            999 V3000
M  V30 BEGIN CTAB
M  V30 COUNTS 2278 2296 0 0 0
M  V30 BEGIN ATOM
M  V30 1 H -0.908 1.98254 -0.117106 0
M  V30 2 N 0 1.576 0 0
M  V30 3 C 0.933 2.03868 1.02534 0
M  V30 4 C 1.911 0.928543 1.3348 0
M  V30 5 O 3.095 1.19667 1.45644 0
M  V30 6 C 0.222 2.43627 2.35294 0
M  V30 7 C -0.732 3.65373 2.2001 0
M  V30 8 S 0.101 5.13292 1.52614 0
M  V30 9 C 1.257 5.56322 2.86805 0
M  V30 10 H 1.49 2.90518 0.631377 0
M  V30 11 H -0.977 1.52953 0.210867 0
M  V30 12 H 0.981 2.67203 3.11629 0
M  V30 13 H -0.358 1.57376 2.7183 0
M  V30 14 H -1.165 3.90944 3.18086 0
M  V30 15 H -1.563 3.418 1.51819 0
M  V30 16 H 0.729 5.58782 3.83104 0
M  V30 17 H 1.672 6.56266 2.65933 0
M  V30 18 H 2.08 4.83886 2.90714 0
M  V30 19 N 1.4781 -0.272755 1.55222 0
M  V30 20 C 2.7271 -1.00211 1.75045 0
M  V30 21 C 3.0401 -1.87441 0.559046 0
M  V30 22 O 4.2461 -2.63856 0.639698 0
M  V30 23 C 2.7021 -1.83165 3.09804 0
M  V30 24 C 2.3101 -1.008 4.36513 0
M  V30 25 C 4.0541 -2.55529 3.38977 0
M  V30 26 C 1.9611 -1.83194 5.62311 0
M  V30 27 H 0.8911 -0.377878 0.652476 0
M  V30 28 H 3.5421 -0.257776 1.8168 0
M  V30 29 H 1.9241 -2.61694 2.97207 0
M  V30 30 H 3.0981 -0.266855 4.60027 0
M  V30 31 H 1.4131 -0.398897 4.14485 0
M  V30 32 H 4.0101 -3.17578 4.30172 0
M  V30 33 H 4.3531 -3.25825 2.59121 0
M  V30 34 H 4.8861 -1.84029 3.52673 0
M  V30 35 H 1.6251 -1.17318 6.44916 0
M  V30 36 H 1.1451 -2.54905 5.4294 0
M  V30 37 H 2.8241 -2.40552 6.00619 0
M  V30 38 N 2.9562 -1.48159 -0.537278 0
M  V30 39 C 4.3722 -1.34118 -0.865129 0
M  V30 40 C 4.5722 -0.346678 -1.98495 0
M  V30 41 O 3.6282 0.234715 -2.51407 0
M  V30 42 C 4.9412 -2.73963 -1.23954 0
M  V30 43 C 6.4892 -2.82397 -1.34984 0
M  V30 44 C 6.9642 -4.22928 -1.75772 0
M  V30 45 N 8.4552 -4.25566 -1.82887 0
M  V30 46 C 9.1902 -5.31235 -2.15817 0
M  V30 47 N 8.6862 -6.47189 -2.47222 0
M  V30 48 N 10.4792 -5.18624 -2.16761 0
M  V30 49 H 2.6302 -2.1144 0.201715 0
M  V30 50 H 4.8932 -0.947598 0.0275949 0
M  V30 51 H 4.5992 -3.48264 -0.490381 0
M  V30 52 H 4.4732 -3.0702 -2.19132 0
M  V30 53 H 6.8602 -2.08356 -2.08978 0
M  V30 54 H 6.9412 -2.5297 -0.379448 0
M  V30 55 H 6.5852 -4.97482 -1.02341 0
M  V30 56 H 6.5152 -4.49794 -2.73848 0
M  V30 57 H 9.0062 -3.41924 -1.60924 0
M  V30 58 H 9.3192 -7.23564 -2.71433 0
M  V30 59 H 7.6642 -6.50476 -2.44757 0
M  V30 60 H 10.8552 -4.27056 -1.91679 0
M  V30 61 H 11.0282 -6.01078 -2.42093 0
M  V30 62 N 4.4343 0.785586 -1.36625 0
M  V30 63 C 5.3843 1.88822 -1.27789 0
M  V30 64 C 6.3683 1.60014 -0.168579 0
M  V30 65 O 7.5603 1.72381 -0.401737 0
M  V30 66 C 4.6893 3.26092 -1.07327 0
M  V30 67 C 3.7753 3.60897 -2.22743 0
M  V30 68 N 4.1663 3.66982 -3.48077 0
M  V30 69 C 2.4643 3.90981 -2.14593 0
M  V30 70 C 3.1653 3.98137 -4.24101 0
M  V30 71 N 2.1413 4.13319 -3.53084 0
M  V30 72 H 5.9433 1.91759 -2.22723 0
M  V30 73 H 3.4573 0.981311 -1.29399 0
M  V30 74 H 5.4543 4.04954 -0.990842 0
M  V30 75 H 4.1143 3.24428 -0.132977 0
M  V30 76 H 5.1253 3.49531 -3.82163 0
M  V30 77 H 1.8023 3.9722 -1.2854 0
M  V30 78 H 3.1923 4.09737 -5.32509 0
M  V30 79 N 5.9124 1.20967 1.01018 0
M  V30 80 C 7.1604 1.02172 1.74371 0
M  V30 81 C 7.4814 -0.446414 1.89821 0
M  V30 82 O 6.7514 -1.32234 1.44537 0
M  V30 83 H 5.3314 0.375066 0.646014 0
M  V30 84 H 7.9934 1.52187 1.21758 0
M  V30 85 H 7.0894 1.48538 2.74487 0
M  V30 86 N 7.3905 -1.2043 1.01659 0
M  V30 87 C 8.6155 -1.94318 0.724942 0
M  V30 88 C 9.0405 -1.74266 -0.708034 0
M  V30 89 O 8.3985 -1.03694 -1.48719 0
M  V30 90 C 8.4465 -3.44486 1.06591 0
M  V30 91 O 7.5505 -4.12017 0.177599 0
M  V30 92 H 6.8915 -0.60708 0.26898 0
M  V30 93 H 9.4215 -1.52861 1.35995 0
M  V30 94 H 9.4315 -3.95106 1.01762 0
M  V30 95 H 8.1065 -3.58404 2.10997 0
M  V30 96 H 6.6835 -3.71821 0.283421 0
M  V30 97 N 8.8686 -0.792821 -1.36206 0
M  V30 98 C 9.8166 -0.181555 -2.3189 0
M  V30 99 C 10.8106 0.661025 -1.55971 0
M  V30 100 O 12.0166 0.555728 -1.71206 0
M  V30 101 H 8.3916 -0.0399382 -0.750939 0
M  V30 102 H 10.3626 -1.00394 -2.81005 0
M  V30 103 C 9.1116 0.666444 -3.41253 0
M  V30 104 H 8.4346 0.0274489 -3.99791 0
M  V30 105 H 9.8746 1.06076 -4.10517 0
M  V30 106 C 8.3336 1.82614 -2.83114 0
M  V30 107 O 8.8636 2.9229 -2.75553 0
M  V30 108 N 7.0696 1.63333 -2.40356 0
M  V30 109 H 6.6166 0.741217 -2.46706 0
M  V30 110 H 6.5746 2.41087 -2.01803 0
M  V30 111 N 10.3467 1.47872 -0.545128 0
M  V30 112 C 11.2937 2.29849 0.2093 0
M  V30 113 C 12.2637 1.38313 0.919707 0
M  V30 114 O 13.4487 1.67277 0.917772 0
M  V30 115 C 10.5887 3.22019 1.24088 0
M  V30 116 C 9.7017 4.2864 0.537778 0
M  V30 117 C 8.8367 5.07973 1.5536 0
M  V30 118 C 7.8757 6.06381 0.8348 0
M  V30 119 N 7.0127 6.78717 1.79688 0
M  V30 120 H 11.8527 2.93845 -0.49591 0
M  V30 121 H 9.3897 1.44848 -0.256389 0
M  V30 122 H 11.3477 3.73868 1.85144 0
M  V30 123 H 9.9777 2.59914 1.91428 0
M  V30 124 H 9.0297 3.7994 -0.187046 0
M  V30 125 H 10.3417 4.98793 -0.0258907 0
M  V30 126 H 9.4957 5.63912 2.23803 0
M  V30 127 H 8.2347 4.37693 2.15118 0
M  V30 128 H 7.2397 5.49631 0.136388 0
M  V30 129 H 8.4647 6.78665 0.24313 0
M  V30 130 H 6.4107 6.11177 2.38326 0
M  V30 131 H 6.3277 7.44998 1.28505 0
M  V30 132 H 7.5957 7.39237 2.47282 0
M  V30 133 N 11.8248 0.280983 1.55075 0
M  V30 134 C 12.7548 -0.597469 2.25727 0
M  V30 135 C 13.7358 -1.15417 1.24952 0
M  V30 136 O 14.9208 -1.18722 1.53684 0
M  V30 137 C 12.0508 -1.7789 2.98283 0
M  V30 138 C 11.0048 -1.35347 4.06036 0
M  V30 139 C 10.3308 -2.61846 4.66198 0
M  V30 140 C 11.6308 -0.499354 5.19907 0
M  V30 141 H 13.3248 -0.00824265 2.99399 0
M  V30 142 H 10.8708 -0.0025244 1.44 0
M  V30 143 H 12.8238 -2.39937 3.46422 0
M  V30 144 H 11.5478 -2.39405 2.22155 0
M  V30 145 H 10.2068 -0.756156 3.58717 0
M  V30 146 H 9.8548 -3.21632 3.86732 0
M  V30 147 H 9.5548 -2.3409 5.38958 0
M  V30 148 H 11.0788 -3.24732 5.1709 0
M  V30 149 H 12.4928 -1.02498 5.64063 0
M  V30 150 H 10.8898 -0.316424 5.99265 0
M  V30 151 H 11.9598 0.480459 4.82514 0
M  V30 152 N 13.3029 -1.57598 0.00835791 0
M  V30 153 C 14.2499 -2.08945 -0.980346 0
M  V30 154 C 15.2199 -0.986738 -1.33614 0
M  V30 155 O 16.4049 -1.25968 -1.43306 0
M  V30 156 C 13.5449 -2.60425 -2.26435 0
M  V30 157 C 12.6579 -3.84628 -1.96685 0
M  V30 158 C 11.7929 -4.24579 -3.19228 0
M  V30 159 C 10.8319 -5.41596 -2.85202 0
M  V30 160 N 9.9689 -5.768 -4.00307 0
M  V30 161 H 14.8089 -2.93148 -0.535551 0
M  V30 162 H 12.3459 -1.44912 -0.252776 0
M  V30 163 H 14.3039 -2.88354 -3.01509 0
M  V30 164 H 12.9339 -1.79083 -2.68568 0
M  V30 165 H 11.9859 -3.63556 -1.11942 0
M  V30 166 H 13.2979 -4.69796 -1.67611 0
M  V30 167 H 12.4519 -4.53834 -4.02641 0
M  V30 168 H 11.1909 -3.38137 -3.51447 0
M  V30 169 H 10.1959 -5.12056 -2.00198 0
M  V30 170 H 11.4209 -6.29721 -2.54222 0
M  V30 171 H 9.3669 -4.93316 -4.32407 0
M  V30 172 H 9.2839 -6.5656 -3.74786 0
M  V30 173 H 10.5519 -6.10652 -4.84484 0
M  V30 174 N 14.781 0.264519 -1.55364 0
M  V30 175 C 16.03 0.992812 -1.75574 0
M  V30 176 C 16.343 1.87142 -0.568979 0
M  V30 177 O 17.549 2.63513 -0.653682 0
M  V30 178 C 16.005 1.81519 -3.10771 0
M  V30 179 C 15.613 0.984839 -4.37041 0
M  V30 180 C 17.357 2.53727 -3.40327 0
M  V30 181 C 15.264 1.80209 -5.63275 0
M  V30 182 H 14.194 0.374412 -0.65447 0
M  V30 183 H 16.845 0.248138 -1.81815 0
M  V30 184 H 15.227 2.60115 -2.98591 0
M  V30 185 H 16.401 0.242455 -4.60162 0
M  V30 186 H 14.716 0.37691 -4.14691 0
M  V30 187 H 17.313 3.15292 -4.3185 0
M  V30 188 H 17.656 3.24447 -2.60845 0
M  V30 189 H 18.189 1.82156 -3.53644 0
M  V30 190 H 14.928 1.13896 -6.45529 0
M  V30 191 H 14.448 2.52022 -5.44284 0
M  V30 192 H 16.127 2.37364 -6.01887 0
M  V30 193 N 16.2591 1.48442 0.529413 0
M  V30 194 C 17.5061 1.56488 1.28521 0
M  V30 195 C 17.8341 0.239042 1.93025 0
M  V30 196 O 17.0891 -0.770713 1.79885 0
M  V30 197 C 17.3881 2.6523 2.39558 0
M  V30 198 C 17.0541 4.07648 1.92702 0
M  V30 199 C 15.7161 4.46411 1.79641 0
M  V30 200 C 18.0681 4.96896 1.573 0
M  V30 201 C 15.3961 5.72226 1.29514 0
M  V30 202 C 17.7481 6.23202 1.08636 0
M  V30 203 C 16.4121 6.60821 0.941919 0
M  V30 204 H 15.6821 0.572631 0.470292 0
M  V30 205 H 18.3291 1.82161 0.59072 0
M  V30 206 H 16.6341 2.33419 3.14679 0
M  V30 207 H 18.3311 2.68671 2.97686 0
M  V30 208 H 14.9211 3.77036 2.03819 0
M  V30 209 H 19.1051 4.67626 1.66251 0
M  V30 210 H 14.3611 6.00097 1.17019 0
M  V30 211 H 18.5351 6.91753 0.803136 0
M  V30 212 H 16.1621 7.58198 0.5513 0
M  V30 213 N 17.7372 -0.778329 1.37039 0
M  V30 214 C 18.9862 -1.53189 1.3121 0
M  V30 215 C 19.2992 -1.95328 -0.103095 0
M  V30 216 O 20.5052 -2.70012 -0.283826 0
M  V30 217 C 18.9612 -2.76591 2.30272 0
M  V30 218 C 18.5692 -2.41577 3.77286 0
M  V30 219 C 20.3132 -3.5455 2.33441 0
M  V30 220 C 18.2202 -3.61441 4.68096 0
M  V30 221 H 17.1502 -0.5751 0.487622 0
M  V30 222 H 19.8012 -0.853101 1.62464 0
M  V30 223 H 18.1832 -3.46326 1.92027 0
M  V30 224 H 19.3572 -1.79668 4.2433 0
M  V30 225 H 17.6722 -1.76806 3.76999 0
M  V30 226 H 20.2692 -4.43628 2.98493 0
M  V30 227 H 20.6122 -3.93936 1.34611 0
M  V30 228 H 21.1452 -2.91805 2.7036 0
M  V30 229 H 17.8842 -3.27142 5.6803 0
M  V30 230 H 17.4042 -4.22478 4.25761 0
M  V30 231 H 19.0832 -4.28335 4.8491 0
M  V30 232 N 19.2153 -1.21501 -1.00376 0
M  V30 233 C 20.1453 -0.999478 -2.11028 0
M  V30 234 C 21.1263 0.0759671 -1.6993 0
M  V30 235 O 22.3113 -0.0841106 -1.94018 0
M  V30 236 C 19.4413 -0.564709 -3.42678 0
M  V30 237 C 18.3953 -1.58486 -3.97576 0
M  V30 238 C 17.7213 -1.00628 -5.25146 0
M  V30 239 C 19.0213 -2.97204 -4.29496 0
M  V30 240 H 20.7153 -1.92495 -2.29317 0
M  V30 241 H 18.2613 -0.92693 -1.102 0
M  V30 242 H 20.2143 -0.401091 -4.19487 0
M  V30 243 H 18.9383 0.396411 -3.24185 0
M  V30 244 H 17.5973 -1.73606 -3.22888 0
M  V30 245 H 17.2453 -0.0368439 -5.02987 0
M  V30 246 H 16.9453 -1.68771 -5.62841 0
M  V30 247 H 18.4693 -0.854015 -6.04598 0
M  V30 248 H 19.8833 -2.8552 -4.97143 0
M  V30 249 H 18.2803 -3.62372 -4.78338 0
M  V30 250 H 19.3503 -3.47956 -3.3772 0
M  V30 251 N 20.6934 1.19889 -1.02296 0
M  V30 252 C 21.9184 1.9393 -0.735237 0
M  V30 253 C 22.3434 1.74639 0.698782 0
M  V30 254 O 21.7014 1.04481 1.48167 0
M  V30 255 C 21.7494 3.43916 -1.08417 0
M  V30 256 O 20.8534 4.11917 -0.199446 0
M  V30 257 H 20.1944 0.605645 -0.272196 0
M  V30 258 H 22.7244 1.52137 -1.36804 0
M  V30 259 H 22.7344 3.9456 -1.03856 0
M  V30 260 H 21.4094 3.5728 -2.12894 0
M  V30 261 H 19.9864 3.71666 -0.303136 0
M  V30 262 N 22.1715 0.800033 1.35784 0
M  V30 263 C 23.4205 0.37387 1.98205 0
M  V30 264 C 23.7335 -1.06302 1.64193 0
M  V30 265 O 24.9395 -1.59198 2.19928 0
M  V30 266 C 23.3955 0.617532 3.54562 0
M  V30 267 C 23.0035 2.06654 3.9749 0
M  V30 268 C 24.7475 0.256401 4.23725 0
M  V30 269 C 22.6545 2.2563 5.46667 0
M  V30 270 H 21.5845 0.136055 0.741623 0
M  V30 271 H 24.2355 0.983166 1.54939 0
M  V30 272 H 22.6175 -0.0616248 3.95952 0
M  V30 273 H 23.7915 2.78296 3.67271 0
M  V30 274 H 22.1065 2.38691 3.41197 0
M  V30 275 H 24.7035 0.376318 5.33374 0
M  V30 276 H 25.0465 -0.796692 4.08606 0
M  V30 277 H 25.5795 0.889214 3.87734 0
M  V30 278 H 22.3185 3.2936 5.66747 0
M  V30 279 H 21.8385 1.58504 5.78478 0
M  V30 280 H 23.5175 2.06861 6.1304 0
M  V30 281 N 23.6496 -1.47581 0.552962 0
M  V30 282 C 24.5796 -2.32762 -0.185451 0
M  V30 283 C 25.5606 -1.43527 -0.912905 0
M  V30 284 O 26.7456 -1.72388 -0.894201 0
M  V30 285 C 23.8756 -3.25219 -1.21859 0
M  V30 286 C 22.8296 -4.23661 -0.607864 0
M  V30 287 C 22.1556 -5.05413 -1.74533 0
M  V30 288 C 23.4556 -5.20481 0.435582 0
M  V30 289 H 25.1496 -2.94749 0.525684 0
M  V30 290 H 22.6956 -1.41738 0.254251 0
M  V30 291 H 24.6486 -3.8365 -1.7433 0
M  V30 292 H 23.3726 -2.61279 -1.95961 0
M  V30 293 H 22.0316 -3.66451 -0.104489 0
M  V30 294 H 21.6796 -4.3788 -2.47529 0
M  V30 295 H 21.3796 -5.72059 -1.34249 0
M  V30 296 H 22.9036 -5.66701 -2.27338 0
M  V30 297 H 24.3176 -5.733 -0.00290157 0
M  V30 298 H 22.7146 -5.95305 0.757067 0
M  V30 299 H 23.7846 -4.66217 1.33303 0
M  V30 300 N 25.1277 -0.289203 -1.54924 0
M  V30 301 C 26.0577 0.58549 -2.2604 0
M  V30 302 C 27.0387 1.14753 -1.25562 0
M  V30 303 O 28.2237 1.17906 -1.54311 0
M  V30 304 C 25.3537 1.76305 -2.99222 0
M  V30 305 C 24.3077 1.33191 -4.06748 0
M  V30 306 C 23.6337 2.5937 -4.6758 0
M  V30 307 C 24.9337 0.471775 -5.20165 0
M  V30 308 H 26.6277 -0.00763532 -2.99399 0
M  V30 309 H 24.1737 -0.00511229 -1.43999 0
M  V30 310 H 26.1267 2.38097 -3.47689 0
M  V30 311 H 24.8507 2.38223 -2.23422 0
M  V30 312 H 23.5097 0.737121 -3.59113 0
M  V30 313 H 23.1577 3.19576 -3.88433 0
M  V30 314 H 22.8577 2.31228 -5.40192 0
M  V30 315 H 24.3817 3.21985 -5.18804 0
M  V30 316 H 25.7957 0.995056 -5.64599 0
M  V30 317 H 24.1927 0.284639 -5.99425 0
M  V30 318 H 25.2627 -0.506041 -4.82252 0
M  V30 319 N 26.6058 1.57591 -0.0167156 0
M  V30 320 C 27.5358 2.12496 0.967858 0
M  V30 321 C 28.5168 1.03807 1.34752 0
M  V30 322 O 29.7018 1.31577 1.42833 0
M  V30 323 C 26.8318 2.64194 2.25431 0
M  V30 324 C 25.7858 3.77559 2.01576 0
M  V30 325 C 25.1118 4.15636 3.36379 0
M  V30 326 C 26.4118 5.04151 1.36489 0
M  V30 327 H 28.1058 2.95013 0.510643 0
M  V30 328 H 25.6518 1.41915 0.244181 0
M  V30 329 H 27.6048 3.01236 2.94678 0
M  V30 330 H 26.3288 1.78821 2.73296 0
M  V30 331 H 24.9878 3.40937 1.34751 0
M  V30 332 H 24.6358 3.27263 3.81979 0
M  V30 333 H 24.3358 4.92022 3.21229 0
M  V30 334 H 25.8598 4.5525 4.06915 0
M  V30 335 H 27.2738 5.38857 1.95718 0
M  V30 336 H 25.6708 5.85453 1.31776 0
M  V30 337 H 26.7408 4.83733 0.336219 0
M  V30 338 N 28.0839 -0.256276 1.55502 0
M  V30 339 C 29.3119 -1.00342 1.8094 0
M  V30 340 C 29.7269 -1.79307 0.59114 0
M  V30 341 O 29.0839 -1.77114 -0.440081 0
M  V30 342 C 29.1349 -1.94875 3.04476 0
M  V30 343 O 28.8559 -1.19107 4.21598 0
M  V30 344 C 30.3569 -2.81266 3.42644 0
M  V30 345 H 27.5769 -0.295685 0.602338 0
M  V30 346 H 30.1209 -0.281998 2.02546 0
M  V30 347 H 28.2759 -2.62457 2.84947 0
M  V30 348 H 28.6899 -1.82969 4.91551 0
M  V30 349 H 30.1639 -3.43362 4.32211 0
M  V30 350 H 30.6409 -3.51897 2.62802 0
M  V30 351 H 31.2469 -2.1915 3.64491 0
M  V30 352 N 29.562 -1.4872 -0.521534 0
M  V30 353 C 30.492 -1.66771 -1.63431 0
M  V30 354 C 31.473 -0.516499 -1.62069 0
M  V30 355 O 32.658 -0.750013 -1.79132 0
M  V30 356 C 29.788 -1.71515 -3.01993 0
M  V30 357 C 28.742 -2.86222 -3.18216 0
M  V30 358 C 28.068 -2.76061 -4.57924 0
M  V30 359 C 29.368 -4.27419 -3.00184 0
M  V30 360 H 31.062 -2.59932 -1.48579 0
M  V30 361 H 28.608 -1.25089 -0.713358 0
M  V30 362 H 30.561 -1.82731 -3.7972 0
M  V30 363 H 29.285 -0.749393 -3.17886 0
M  V30 364 H 27.944 -2.74575 -2.42908 0
M  V30 365 H 27.592 -1.77437 -4.70665 0
M  V30 366 H 27.292 -3.53037 -4.69722 0
M  V30 367 H 28.816 -2.89256 -5.37739 0
M  V30 368 H 30.23 -4.39855 -3.67697 0
M  V30 369 H 28.627 -5.05458 -3.2347 0
M  V30 370 H 29.697 -4.43293 -1.96518 0
M  V30 371 N 31.0401 0.771051 -1.3745 0
M  V30 372 C 32.2651 1.56529 -1.36065 0
M  V30 373 C 32.6901 1.88029 0.0515859 0
M  V30 374 O 32.0481 1.49282 1.02882 0
M  V30 375 C 32.0961 2.85187 -2.20683 0
M  V30 376 O 31.2001 3.79593 -1.61193 0
M  V30 377 H 30.5411 0.47411 -0.464883 0
M  V30 378 H 33.0711 0.954269 -1.80983 0
M  V30 379 H 33.0811 3.34283 -2.33921 0
M  V30 380 H 31.7561 2.61588 -3.23334 0
M  V30 381 H 30.3331 3.38239 -1.56999 0
M  V30 382 N 32.5182 1.22032 0.997298 0
M  V30 383 C 33.7662 1.04016 1.73278 0
M  V30 384 C 34.0872 -0.426255 1.90284 0
M  V30 385 O 33.3572 -1.30694 1.45931 0
M  V30 386 H 31.9372 0.381897 0.642 0
M  V30 387 H 34.5992 1.5347 1.20137 0
M  V30 388 H 33.6952 1.51441 2.72896 0
M  V30 389 N 33.9963 -1.19345 1.0293 0
M  V30 390 C 35.2363 -1.90738 0.734727 0
M  V30 391 C 35.6003 -1.7785 -0.723414 0
M  V30 392 O 36.8013 -2.43844 -1.13108 0
M  V30 393 C 35.0723 -3.37569 1.17396 0
M  V30 394 S 36.6313 -4.27176 1.00329 0
M  V30 395 H 33.4493 -0.658771 0.267474 0
M  V30 396 H 36.0513 -1.4428 1.31922 0
M  V30 397 H 34.7553 -3.44475 2.23081 0
M  V30 398 H 34.2863 -3.8906 0.582772 0
M  V30 399 H 36.3013 -4.96126 -0.0859152 0
M  V30 400 N 35.4744 -0.807222 -1.35358 0
M  V30 401 C 36.4374 -0.223665 -2.28106 0
M  V30 402 C 37.4374 0.589354 -1.4961 0
M  V30 403 O 38.6274 0.407745 -1.69361 0
M  V30 404 C 35.7594 0.688149 -3.33882 0
M  V30 405 H 36.9524 -1.04169 -2.81227 0
M  V30 406 H 34.5054 -0.577921 -1.45223 0
M  V30 407 H 35.2404 1.52984 -2.85948 0
M  V30 408 H 35.0254 0.10687 -3.91954 0
M  V30 409 H 36.5154 1.09075 -4.03104 0
M  V30 410 N 36.9525 1.47285 -0.560781 0
M  V30 411 C 37.8825 2.32857 0.173105 0
M  V30 412 C 38.8635 1.44009 0.905281 0
M  V30 413 O 40.0485 1.7286 0.885046 0
M  V30 414 C 37.1785 3.25861 1.20133 0
M  V30 415 C 36.1325 4.23978 0.585388 0
M  V30 416 C 35.4585 5.06332 1.7185 0
M  V30 417 C 36.7585 5.20242 -0.463178 0
M  V30 418 H 38.4525 2.94466 -0.541307 0
M  V30 419 H 35.9985 1.41601 -0.261764 0
M  V30 420 H 37.9515 3.84569 1.72293 0
M  V30 421 H 36.6755 2.62315 1.94573 0
M  V30 422 H 35.3345 3.66501 0.085054 0
M  V30 423 H 34.9825 4.39186 2.45203 0
M  V30 424 H 34.6825 5.72762 1.31213 0
M  V30 425 H 36.2065 5.67899 2.24329 0
M  V30 426 H 37.6205 5.73293 -0.027502 0
M  V30 427 H 36.0175 5.94896 -0.788627 0
M  V30 428 H 37.0875 4.65504 -1.35773 0
M  V30 429 N 38.4306 0.297415 1.54768 0
M  V30 430 C 39.3776 -0.580276 2.23386 0
M  V30 431 C 40.3476 -1.13238 1.21517 0
M  V30 432 O 41.5326 -1.17757 1.50126 0
M  V30 433 C 38.6726 -1.74801 2.97555 0
M  V30 434 C 37.7856 -1.22764 4.1419 0
M  V30 435 C 36.9206 -2.35895 4.75949 0
M  V30 436 C 35.9596 -1.80974 5.84735 0
M  V30 437 N 35.0966 -2.87664 6.40464 0
M  V30 438 H 39.9366 0.0114833 2.97998 0
M  V30 439 H 37.4736 0.0174361 1.4709 0
M  V30 440 H 39.4316 -2.43475 3.38786 0
M  V30 441 H 38.0616 -2.31145 2.25326 0
M  V30 442 H 37.1136 -0.433271 3.77924 0
M  V30 443 H 38.4256 -0.785551 4.92575 0
M  V30 444 H 37.5796 -3.12523 5.20014 0
M  V30 445 H 36.3186 -2.83429 3.96887 0
M  V30 446 H 35.3236 -1.02834 5.40097 0
M  V30 447 H 36.5486 -1.34348 6.65678 0
M  V30 448 H 34.4946 -3.34538 5.64287 0
M  V30 449 H 34.4116 -2.4794 7.14186 0
M  V30 450 H 35.6796 -3.642 6.89187 0
M  V30 451 N 39.9087 -1.5758 0.0250728 0
M  V30 452 C 41.1337 -1.96337 -0.668317 0
M  V30 453 C 41.5587 -0.901314 -1.651 0
M  V30 454 O 40.9167 0.138187 -1.80773 0
M  V30 455 C 40.9647 -3.34191 -1.35457 0
M  V30 456 O 40.0687 -3.30269 -2.46974 0
M  V30 457 H 39.4097 -0.640281 -0.175887 0
M  V30 458 H 41.9397 -2.0442 0.0857224 0
M  V30 459 H 41.9497 -3.70331 -1.71228 0
M  V30 460 H 40.6247 -4.11036 -0.634218 0
M  V30 461 H 39.2017 -3.05841 -2.13344 0
M  V30 462 N 41.3868 0.248026 -1.55636 0
M  V30 463 C 42.6118 0.998028 -1.81808 0
M  V30 464 C 43.0368 1.78207 -0.601979 0
M  V30 465 O 42.3948 1.75653 0.448961 0
M  V30 466 C 42.4428 1.9125 -3.05705 0
M  V30 467 O 41.5468 3.00406 -2.82542 0
M  V30 468 H 40.8878 0.284045 -0.600179 0
M  V30 469 H 43.4178 0.269357 -2.02819 0
M  V30 470 H 43.4278 2.32737 -3.35108 0
M  V30 471 H 42.1028 1.33602 -3.93857 0
M  V30 472 H 40.6798 2.63056 -2.64303 0
M  V30 473 N 42.8649 1.48995 0.513639 0
M  V30 474 C 44.0899 1.61792 1.29762 0
M  V30 475 C 44.5149 0.284475 1.85936 0
M  V30 476 O 43.8729 -0.746185 1.65232 0
M  V30 477 C 43.9209 2.67993 2.41272 0
M  V30 478 O 43.0249 2.26287 3.44772 0
M  V30 479 H 42.3659 0.541963 0.38363 0
M  V30 480 H 44.8959 1.95097 0.616307 0
M  V30 481 H 44.9059 2.89772 2.87221 0
M  V30 482 H 43.5809 3.64791 1.9975 0
M  V30 483 H 42.1579 2.14788 3.04829 0
M  V30 484 N 44.343 -0.763751 1.37857 0
M  V30 485 C 45.291 -1.89864 1.34367 0
M  V30 486 C 46.285 -1.67816 0.231143 0
M  V30 487 O 47.491 -1.75508 0.399617 0
M  V30 488 H 43.866 -0.624501 0.41893 0
M  V30 489 H 45.837 -1.89925 2.30155 0
M  V30 490 C 44.586 -3.27227 1.1755 0
M  V30 491 H 43.909 -3.44773 2.02414 0
M  V30 492 H 45.349 -4.06911 1.1916 0
M  V30 493 C 43.808 -3.36692 -0.118311 0
M  V30 494 O 44.338 -3.86374 -1.09902 0
M  V30 495 N 42.544 -2.90092 -0.171717 0
M  V30 496 H 42.091 -2.49853 0.627012 0
M  V30 497 H 42.049 -2.96806 -1.03699 0
M  V30 498 N 45.8211 -1.22559 -0.990812 0
M  V30 499 C 47.0461 -1.07862 -1.77145 0
M  V30 500 C 47.4711 0.366447 -1.84496 0
M  V30 501 O 46.8291 1.26478 -1.29896 0
M  V30 502 C 46.8771 -1.69686 -3.18181 0
M  V30 503 O 45.9811 -0.951946 -4.01263 0
M  V30 504 H 45.3221 -0.378712 -0.545411 0
M  V30 505 H 47.8521 -1.62399 -1.2445 0
M  V30 506 H 47.8621 -1.74496 -3.68802 0
M  V30 507 H 46.5371 -2.74841 -3.12146 0
M  V30 508 H 45.1141 -0.980011 -3.59792 0
M  V30 509 N 47.2992 1.18797 -1.03562 0
M  V30 510 C 48.2092 2.25913 -0.632505 0
M  V30 511 C 49.2252 1.70668 0.338882 0
M  V30 512 O 50.4012 2.00453 0.195076 0
M  V30 513 C 47.4662 3.467 0.00350942 0
M  V30 514 C 46.5272 4.17098 -1.01624 0
M  V30 515 C 45.7602 5.32119 -0.410478 0
M  V30 516 O 45.9832 5.64976 0.784725 0
M  V30 517 O 44.9172 5.9107 -1.13667 0
M  V30 518 H 48.7432 2.62648 -1.52478 0
M  V30 519 H 46.3282 1.25781 -0.806195 0
M  V30 520 H 48.2102 4.19878 0.35781 0
M  V30 521 H 46.8852 3.11798 0.869686 0
M  V30 522 H 45.7922 3.4601 -1.42224 0
M  V30 523 H 47.1252 4.55987 -1.85301 0
M  V30 524 N 48.7773 0.814389 1.34928 0
M  V30 525 C 49.7243 0.22822 2.29669 0
M  V30 526 C 50.6943 -0.642164 1.53184 0
M  V30 527 O 51.8793 -0.585605 1.81591 0
M  V30 528 C 49.0193 -0.61089 3.3965 0
M  V30 529 C 48.1323 0.280792 4.31086 0
M  V30 530 C 47.2673 -0.567067 5.28165 0
M  V30 531 C 46.3063 0.324531 6.11239 0
M  V30 532 N 45.4433 -0.483756 7.00431 0
M  V30 533 H 50.2833 1.04153 2.79206 0
M  V30 534 H 47.8203 0.525133 1.37407 0
M  V30 535 H 49.7783 -1.11263 4.0209 0
M  V30 536 H 48.4083 -1.38939 2.91369 0
M  V30 537 H 47.4603 0.900688 3.69583 0
M  V30 538 H 48.7723 0.966723 4.89342 0
M  V30 539 H 47.9263 -1.13363 5.96015 0
M  V30 540 H 46.6653 -1.28654 4.70425 0
M  V30 541 H 45.6703 0.903298 5.42329 0
M  V30 542 H 46.8953 1.04198 6.71059 0
M  V30 543 H 44.8413 -1.18706 6.45171 0
M  V30 544 H 44.7583 0.143965 7.55863 0
M  V30 545 H 46.0263 -1.03334 7.7262 0
M  V30 546 N 50.2554 -1.46986 0.568584 0
M  V30 547 C 51.1654 -2.33942 -0.17555 0
M  V30 548 C 52.1814 -1.48891 -0.90041 0
M  V30 549 O 53.3574 -1.81794 -0.86676 0
M  V30 550 C 50.4224 -3.25811 -1.18524 0
M  V30 551 C 49.4834 -4.26757 -0.466582 0
M  V30 552 C 48.7164 -5.14236 -1.42817 0
M  V30 553 O 48.9394 -5.04379 -2.66379 0
M  V30 554 O 47.8734 -5.94412 -0.946453 0
M  V30 555 H 51.6994 -2.98896 0.538036 0
M  V30 556 H 49.2844 -1.4573 0.329097 0
M  V30 557 H 51.1664 -3.82527 -1.76779 0
M  V30 558 H 49.8414 -2.63471 -1.88055 0
M  V30 559 H 48.7484 -3.73769 0.157451 0
M  V30 560 H 50.0814 -4.91843 0.187485 0
M  V30 561 N 51.7335 -0.305618 -1.54608 0
M  V30 562 C 52.9795 0.295595 -2.01241 0
M  V30 563 C 53.3345 1.51171 -1.19018 0
M  V30 564 O 52.6275 1.89832 -0.259684 0
M  V30 565 C 52.8215 0.698983 -3.50498 0
M  V30 566 C 52.6505 -0.476491 -4.47168 0
M  V30 567 C 51.4205 -0.969963 -4.95903 0
M  V30 568 C 53.6185 -1.32294 -4.96994 0
M  V30 569 N 51.6005 -2.11172 -5.76437 0
M  V30 570 C 52.9715 -2.31212 -5.75275 0
M  V30 571 C 55.0265 -1.35278 -4.7917 0
M  V30 572 C 53.7295 -3.32896 -6.37631 0
M  V30 573 C 55.7555 -2.35823 -5.42348 0
M  V30 574 C 55.1175 -3.33469 -6.20466 0
M  V30 575 H 51.2165 0.0724992 -0.778632 0
M  V30 576 H 53.8005 -0.436583 -1.89742 0
M  V30 577 H 51.9715 1.40032 -3.62278 0
M  V30 578 H 53.7035 1.28013 -3.8392 0
M  V30 579 H 50.4585 -0.544178 -4.70463 0
M  V30 580 H 50.8825 -2.68714 -6.21387 0
M  V30 581 H 55.5245 -0.61157 -4.18354 0
M  V30 582 H 53.2425 -4.07933 -6.97579 0
M  V30 583 H 56.8285 -2.38911 -5.30484 0
M  V30 584 H 55.7085 -4.09996 -6.68485 0
M  V30 585 N 53.2116 1.57565 -0.0334293 0
M  V30 586 C 54.1616 2.06978 0.956237 0
M  V30 587 C 55.1456 0.971193 1.28283 0
M  V30 588 O 56.3376 1.23471 1.26822 0
M  V30 589 C 53.4666 2.60393 2.23719 0
M  V30 590 C 52.5526 3.7719 1.93877 0
M  V30 591 N 52.9436 4.87639 1.34321 0
M  V30 592 C 51.2416 3.85758 2.23845 0
M  V30 593 C 51.9426 5.68825 1.21709 0
M  V30 594 N 50.9186 5.1587 1.71404 0
M  V30 595 H 54.7206 2.89773 0.490815 0
M  V30 596 H 52.2346 1.61492 0.171478 0
M  V30 597 H 54.2316 2.94088 2.95496 0
M  V30 598 H 52.8916 1.79031 2.70884 0
M  V30 599 H 53.9026 5.07803 1.01767 0
M  V30 600 H 50.5796 3.1531 2.73653 0
M  V30 601 H 51.9696 6.67631 0.75621 0
M  V30 602 N 54.6897 -0.239769 1.55765 0
M  V30 603 C 55.9387 -0.964754 1.77131 0
M  V30 604 C 56.2517 -1.86213 0.59868 0
M  V30 605 O 57.4577 -2.6244 0.695522 0
M  V30 606 C 55.9137 -1.76552 3.1362 0
M  V30 607 C 55.5217 -0.915185 4.38553 0
M  V30 608 C 57.2657 -2.48281 3.44321 0
M  V30 609 C 55.1727 -1.71225 5.66071 0
M  V30 610 H 54.1027 -0.363953 0.660344 0
M  V30 611 H 56.7537 -0.219181 1.82186 0
M  V30 612 H 55.1357 -2.55331 3.02691 0
M  V30 613 H 56.3097 -0.169217 4.60489 0
M  V30 614 H 54.6247 -0.310889 4.15238 0
M  V30 615 H 57.2217 -3.08382 4.36812 0
M  V30 616 H 57.5647 -3.20256 2.65973 0
M  V30 617 H 58.0977 -1.76507 3.56497 0
M  V30 618 H 54.8367 -1.03612 6.4726 0
M  V30 619 H 54.3567 -2.43331 5.48224 0
M  V30 620 H 56.0357 -2.27758 6.05587 0
M  V30 621 N 56.1678 -1.49265 -0.50573 0
M  V30 622 C 57.4138 -1.58748 -1.26202 0
M  V30 623 C 57.7468 -0.271227 -1.92297 0
M  V30 624 O 57.0218 0.724831 -1.80489 0
M  V30 625 C 57.3048 -2.74332 -2.33268 0
M  V30 626 C 57.1578 -4.15737 -1.71705 0
M  V30 627 C 58.4768 -2.85576 -3.34865 0
M  V30 628 H 55.5958 -0.577826 -0.457478 0
M  V30 629 H 58.2378 -1.81532 -0.560897 0
M  V30 630 H 56.3878 -2.55036 -2.93068 0
M  V30 631 H 58.0598 -4.46537 -1.15769 0
M  V30 632 H 56.3028 -4.21605 -1.02135 0
M  V30 633 H 56.9738 -4.92477 -2.49341 0
M  V30 634 H 59.4498 -3.03127 -2.8505 0
M  V30 635 H 58.3258 -3.68135 -4.07146 0
M  V30 636 H 58.5868 -1.94732 -3.96903 0
M  V30 637 N 57.6459 0.756429 -1.3826 0
M  V30 638 C 59.0569 1.33359 -1.30661 0
M  V30 639 C 59.4079 1.96161 0.0388875 0
M  V30 640 O 58.5329 1.94874 0.940918 0
M  V30 641 C 59.1279 2.42477 -2.36622 0
M  V30 642 C 57.6869 2.95922 -2.3261 0
M  V30 643 C 56.8339 1.69275 -2.19639 0
M  V30 644 H 59.7849 0.55552 -1.4866 0
M  V30 645 H 59.8059 3.22345 -2.02174 0
M  V30 646 H 59.3179 1.96739 -3.34538 0
M  V30 647 H 57.4189 3.45996 -1.38267 0
M  V30 648 H 57.5319 3.50494 -3.26636 0
M  V30 649 H 55.8959 1.92793 -1.66442 0
M  V30 650 H 56.6789 1.25619 -3.19491 0
M  V30 651 N 59.124 1.23083 0.984299 0
M  V30 652 C 60.37 1.06214 1.72761 0
M  V30 653 C 60.703 -0.400584 1.90024 0
M  V30 654 O 59.978 -1.29672 1.44967 0
M  V30 655 C 60.261 1.78375 3.12817 0
M  V30 656 C 60.114 3.32296 3.03149 0
M  V30 657 C 61.433 1.54309 4.12161 0
M  V30 658 H 58.552 0.387251 0.627061 0
M  V30 659 H 61.194 1.51536 1.14616 0
M  V30 660 H 59.344 1.39848 3.62457 0
M  V30 661 H 61.016 3.8032 2.61064 0
M  V30 662 H 59.259 3.6153 2.39747 0
M  V30 663 H 59.93 3.77972 4.02295 0
M  V30 664 H 62.406 1.87791 3.71314 0
M  V30 665 H 61.282 2.07281 5.08258 0
M  V30 666 H 61.543 0.477572 4.39513 0
M  V30 667 N 60.6021 -1.18246 1.0419 0
M  V30 668 C 61.8271 -1.92736 0.765996 0
M  V30 669 C 62.2521 -1.75728 -0.67091 0
M  V30 670 O 61.6101 -1.06825 -1.46486 0
M  V30 671 C 61.6581 -3.42148 1.13875 0
M  V30 672 O 60.7621 -4.11548 0.264954 0
M  V30 673 H 60.1031 -0.601238 0.281797 0
M  V30 674 H 62.6331 -1.49942 1.39207 0
M  V30 675 H 62.6431 -3.92858 1.1012 0
M  V30 676 H 61.3181 -3.53848 2.18551 0
M  V30 677 H 59.8951 -3.71137 0.362226 0
M  V30 678 N 62.0802 -0.821533 -1.34494 0
M  V30 679 C 63.0272 -0.240397 -2.29545 0
M  V30 680 C 63.9972 0.634031 -1.53523 0
M  V30 681 O 65.1822 0.575966 -1.81899 0
M  V30 682 C 62.3222 0.592869 -3.39969 0
M  V30 683 C 61.4352 -0.30365 -4.30932 0
M  V30 684 C 60.5702 0.539049 -5.28458 0
M  V30 685 C 59.6092 -0.356942 -6.11058 0
M  V30 686 N 58.7462 0.446603 -7.00678 0
M  V30 687 H 63.5862 -1.05632 -2.7865 0
M  V30 688 H 61.1232 -0.532413 -1.37127 0
M  V30 689 H 63.0812 1.09129 -4.02675 0
M  V30 690 H 61.7112 1.37392 -2.92102 0
M  V30 691 H 60.7632 -0.920276 -3.691 0
M  V30 692 H 62.0752 -0.992661 -4.88823 0
M  V30 693 H 61.2292 1.102 -5.96608 0
M  V30 694 H 59.9682 1.26157 -4.71101 0
M  V30 695 H 58.9732 -0.932047 -5.41842 0
M  V30 696 H 60.1982 -1.07755 -6.70497 0
M  V30 697 H 58.1442 1.15282 -6.45791 0
M  V30 698 H 58.0612 -0.184048 -7.55776 0
M  V30 699 H 59.3292 0.992352 -7.73158 0
M  V30 700 N 63.5583 1.46682 -0.576371 0
M  V30 701 C 64.8353 1.95599 0.00703437 0
M  V30 702 C 65.2153 1.51904 1.46589 0
M  V30 703 O 64.5633 0.766755 2.15251 0
M  V30 704 C 64.7733 3.4864 -0.158404 0
M  V30 705 C 66.1213 4.24594 -0.0229439 0
M  V30 706 O 67.1453 3.56094 -0.0869173 0
M  V30 707 O 66.0043 5.46373 0.118015 0
M  V30 708 H 63.0983 0.825275 0.053384 0
M  V30 709 H 65.6443 1.56996 -0.644244 0
M  V30 710 H 64.4163 3.7331 -1.17282 0
M  V30 711 H 64.0393 3.94057 0.5296 0
M  V30 712 N 65.0364 0.313813 1.54444 0
M  V30 713 C 66.2664 -0.293491 2.04505 0
M  V30 714 C 66.6744 -1.47086 1.19005 0
M  V30 715 O 66.0174 -1.82481 0.211257 0
M  V30 716 C 66.0794 -0.800455 3.50475 0
M  V30 717 C 65.7434 0.253322 4.56297 0
M  V30 718 C 66.7404 1.08612 5.08428 0
M  V30 719 C 64.4254 0.398708 5.00715 0
M  V30 720 C 66.4194 2.05013 6.0353 0
M  V30 721 C 64.1064 1.36614 5.95634 0
M  V30 722 C 65.1044 2.19033 6.46926 0
M  V30 723 O 64.7924 3.14134 7.39983 0
M  V30 724 H 64.5244 -0.0658325 0.672787 0
M  V30 725 H 67.0784 0.455177 2.00293 0
M  V30 726 H 65.3084 -1.59987 3.52053 0
M  V30 727 H 66.9974 -1.32504 3.83663 0
M  V30 728 H 67.7634 0.984736 4.74898 0
M  V30 729 H 63.6424 -0.23289 4.60411 0
M  V30 730 H 67.1864 2.69382 6.4349 0
M  V30 731 H 63.0834 1.4682 6.28581 0
M  V30 732 H 63.8514 3.0926 7.57826 0
M  V30 733 N 66.5145 -1.57545 0.0417849 0
M  V30 734 C 67.7615 -1.92317 -0.634082 0
M  V30 735 C 68.0895 -0.919334 -1.71402 0
M  V30 736 O 67.3445 0.0698253 -1.95575 0
M  V30 737 C 67.6435 -3.33794 -1.27735 0
M  V30 738 C 67.3095 -4.49716 -0.326543 0
M  V30 739 C 65.9715 -4.81156 -0.0648814 0
M  V30 740 C 68.3235 -5.20182 0.325623 0
M  V30 741 C 65.6515 -5.80414 0.856539 0
M  V30 742 C 68.0035 -6.20424 1.23518 0
M  V30 743 C 66.6675 -6.50298 1.5056 0
M  V30 744 H 65.9375 -0.703736 -0.232027 0
M  V30 745 H 68.5845 -1.91205 0.106259 0
M  V30 746 H 66.8895 -3.31228 -2.09274 0
M  V30 747 H 68.5865 -3.57975 -1.80707 0
M  V30 748 H 65.1765 -4.25176 -0.540665 0
M  V30 749 H 69.3605 -4.96112 0.136546 0
M  V30 750 H 64.6165 -6.019 1.07363 0
M  V30 751 H 68.7905 -6.74141 1.74664 0
M  V30 752 H 66.4175 -7.27025 2.22123 0
M  V30 753 N 67.9926 0.231505 -1.5589 0
M  V30 754 C 69.2176 0.978689 -1.82856 0
M  V30 755 C 69.6426 1.77559 -0.620846 0
M  V30 756 O 69.0006 1.76119 0.430305 0
M  V30 757 C 69.0486 1.87997 -3.07716 0
M  V30 758 O 68.1526 2.97393 -2.85712 0
M  V30 759 H 67.4936 0.277663 -0.603158 0
M  V30 760 H 70.0236 0.24783 -2.03093 0
M  V30 761 H 70.0336 2.2917 -3.37558 0
M  V30 762 H 68.7086 1.29417 -3.95252 0
M  V30 763 H 67.2856 2.60238 -2.67078 0
M  V30 764 N 69.4707 1.49531 0.497807 0
M  V30 765 C 70.7197 1.58426 1.24837 0
M  V30 766 C 71.0327 0.277643 1.93619 0
M  V30 767 O 72.2387 0.24517 2.70391 0
M  V30 768 C 70.6947 2.79538 2.26686 0
M  V30 769 C 70.3027 4.16971 1.63828 0
M  V30 770 C 72.0467 2.97764 3.0255 0
M  V30 771 C 69.9537 5.29301 2.63807 0
M  V30 772 H 68.8837 0.58989 0.469623 0
M  V30 773 H 71.5347 1.75923 0.521857 0
M  V30 774 H 69.9167 2.55542 3.02514 0
M  V30 775 H 71.0907 4.51116 0.939711 0
M  V30 776 H 69.4057 4.04129 1.00342 0
M  V30 777 H 72.0027 3.78856 3.77323 0
M  V30 778 H 72.3457 2.08448 3.60354 0
M  V30 779 H 72.8787 3.21815 2.33838 0
M  V30 780 H 69.6177 6.20687 2.10779 0
M  V30 781 H 69.1377 4.99606 3.31894 0
M  V30 782 H 70.8167 5.58768 3.2617 0
M  V30 783 N 70.9488 -0.749086 1.3866 0
M  V30 784 C 72.3598 -1.32664 1.31366 0
M  V30 785 C 72.7108 -1.96179 -0.028484 0
M  V30 786 O 71.8358 -1.9537 -0.93057 0
M  V30 787 C 72.4308 -2.41219 2.37905 0
M  V30 788 C 70.9898 -2.94684 2.34176 0
M  V30 789 C 70.1368 -1.68108 2.20533 0
M  V30 790 H 73.0878 -0.547628 1.48952 0
M  V30 791 H 73.1088 -3.21268 2.0388 0
M  V30 792 H 72.6208 -1.94962 3.35576 0
M  V30 793 H 70.7218 -3.45258 1.401 0
M  V30 794 H 70.8348 -3.48757 3.2849 0
M  V30 795 H 69.1988 -1.91907 1.67463 0
M  V30 796 H 69.9818 -1.23923 3.20153 0
M  V30 797 N 72.4269 -1.23603 -0.977757 0
M  V30 798 C 73.3749 -1.01704 -2.09187 0
M  V30 799 C 74.3689 0.0448214 -1.69341 0
M  V30 800 O 75.5749 -0.108902 -1.7967 0
M  V30 801 H 71.9499 -0.311803 -0.684312 0
M  V30 802 H 73.9209 -1.96207 -2.24823 0
M  V30 803 C 72.6699 -0.627746 -3.41986 0
M  V30 804 H 71.9929 -1.43656 -3.73099 0
M  V30 805 H 73.4329 -0.514053 -4.20872 0
M  V30 806 C 71.8919 0.664238 -3.30287 0
M  V30 807 O 72.4219 1.71268 -3.6336 0
M  V30 808 N 70.6279 0.641156 -2.83439 0
M  V30 809 H 70.1749 -0.212376 -2.56723 0
M  V30 810 H 70.1329 1.50583 -2.75993 0
M  V30 811 N 73.905 1.17692 -1.04816 0
M  V30 812 C 75.182 1.83768 -0.669963 0
M  V30 813 C 75.562 1.93232 0.849986 0
M  V30 814 O 74.91 1.46397 1.75443 0
M  V30 815 C 75.12 3.21641 -1.35455 0
M  V30 816 C 76.468 3.97592 -1.49017 0
M  V30 817 O 77.492 3.31107 -1.31326 0
M  V30 818 O 76.351 5.16729 -1.77914 0
M  V30 819 H 73.445 0.792799 -0.235368 0
M  V30 820 H 75.991 1.25021 -1.14751 0
M  V30 821 H 74.763 3.097 -2.39168 0
M  V30 822 H 74.386 3.88052 -0.866107 0
M  V30 823 N 75.3831 0.828654 1.34056 0
M  V30 824 C 76.3131 0.269443 2.3194 0
M  V30 825 C 77.2941 -0.617247 1.58506 0
M  V30 826 O 78.4791 -0.542931 1.86456 0
M  V30 827 C 75.6091 -0.564793 3.42677 0
M  V30 828 C 74.5631 0.225241 4.27407 0
M  V30 829 C 73.8891 -0.7321 5.29664 0
M  V30 830 C 75.1891 1.43663 5.02154 0
M  V30 831 H 76.8831 1.08728 2.7896 0
M  V30 832 H 74.4291 0.524283 1.34117 0
M  V30 833 H 76.3821 -0.966233 4.10173 0
M  V30 834 H 75.1061 -1.41574 2.9432 0
M  V30 835 H 73.7651 0.608117 3.61521 0
M  V30 836 H 73.4131 -1.57916 4.77568 0
M  V30 837 H 73.1131 -0.20767 5.87233 0
M  V30 838 H 74.6371 -1.13128 6.00029 0
M  V30 839 H 76.0511 1.1089 5.62473 0
M  V30 840 H 74.4481 1.89711 5.69324 0
M  V30 841 H 75.5181 2.21181 4.31517 0
M  V30 842 N 76.8612 -1.46375 0.584142 0
M  V30 843 C 77.7912 -2.33103 -0.136037 0
M  V30 844 C 78.7722 -1.45431 -0.882255 0
M  V30 845 O 79.9572 -1.74246 -0.857434 0
M  V30 846 C 77.0872 -3.27731 -1.14933 0
M  V30 847 C 76.0412 -4.24855 -0.517862 0
M  V30 848 C 75.3672 -5.09001 -1.63773 0
M  V30 849 C 76.6672 -5.19439 0.545886 0
M  V30 850 H 78.3612 -2.93568 0.588086 0
M  V30 851 H 75.9072 -1.41166 0.284259 0
M  V30 852 H 77.8602 -3.87261 -1.66153 0
M  V30 853 H 76.5842 -2.65377 -1.90375 0
M  V30 854 H 75.2432 -3.6659 -0.0267361 0
M  V30 855 H 74.8912 -4.43031 -2.38185 0
M  V30 856 H 74.5912 -5.74777 -1.22085 0
M  V30 857 H 76.1152 -5.71396 -2.15266 0
M  V30 858 H 77.5292 -5.73177 0.118704 0
M  V30 859 H 75.9262 -5.93566 0.88317 0
M  V30 860 H 76.9962 -4.63285 1.43162 0
M  V30 861 N 78.3393 -0.321999 -1.54275 0
M  V30 862 C 79.5853 0.274234 -2.01543 0
M  V30 863 C 79.9403 1.499 -1.20614 0
M  V30 864 O 79.2333 1.89546 -0.279804 0
M  V30 865 C 79.4273 0.661769 -3.5122 0
M  V30 866 C 79.2563 -0.523892 -4.46638 0
M  V30 867 C 78.0263 -1.02251 -4.94846 0
M  V30 868 C 80.2243 -1.37558 -4.95563 0
M  V30 869 N 78.2063 -2.17274 -5.74165 0
M  V30 870 C 79.5773 -2.37301 -5.7279 0
M  V30 871 C 81.6323 -1.40353 -4.77709 0
M  V30 872 C 80.3353 -3.3964 -6.34064 0
M  V30 873 C 82.3613 -2.41562 -5.39817 0
M  V30 874 C 81.7233 -3.40031 -6.16894 0
M  V30 875 H 77.8223 0.0642367 -0.779357 0
M  V30 876 H 80.4063 -0.456683 -1.89268 0
M  V30 877 H 78.5773 1.36182 -3.63743 0
M  V30 878 H 80.3093 1.23934 -3.85256 0
M  V30 879 H 77.0643 -0.594046 -4.6986 0
M  V30 880 H 77.4883 -2.75289 -6.18502 0
M  V30 881 H 82.1303 -0.655907 -4.17681 0
M  V30 882 H 79.8483 -4.15309 -6.93213 0
M  V30 883 H 83.4343 -2.44524 -5.2792 0
M  V30 884 H 82.3143 -4.17063 -6.64099 0
M  V30 885 N 79.8174 1.5752 -0.0501392 0
M  V30 886 C 81.0424 1.97376 0.636997 0
M  V30 887 C 81.4674 0.927466 1.63645 0
M  V30 888 O 80.8254 -0.10941 1.8097 0
M  V30 889 C 80.8734 3.36304 1.30123 0
M  V30 890 O 79.9774 3.34156 2.41689 0
M  V30 891 H 79.3184 0.642998 0.165679 0
M  V30 892 H 81.8484 2.04258 -0.118233 0
M  V30 893 H 81.8584 3.73008 1.65315 0
M  V30 894 H 80.5334 4.11993 0.568746 0
M  V30 895 H 79.1104 3.09196 2.08451 0
M  V30 896 N 81.2955 -0.223234 1.56011 0
M  V30 897 C 82.5425 -0.947875 1.78946 0
M  V30 898 C 82.8705 -1.844 0.618608 0
M  V30 899 O 82.1255 -1.91629 -0.397093 0
M  V30 900 C 82.4245 -1.81948 3.0762 0
M  V30 901 C 82.0905 -1.07672 4.37856 0
M  V30 902 C 80.7525 -0.871544 4.73242 0
M  V30 903 C 83.1045 -0.552081 5.18268 0
M  V30 904 C 80.4325 -0.129791 5.86556 0
M  V30 905 C 82.7845 0.17632 6.32354 0
M  V30 906 C 81.4485 0.39277 6.66343 0
M  V30 907 H 80.7185 -0.346852 0.654809 0
M  V30 908 H 83.3655 -0.216171 1.90276 0
M  V30 909 H 81.6705 -2.61899 2.91404 0
M  V30 910 H 83.3675 -2.38227 3.22566 0
M  V30 911 H 79.9575 -1.24662 4.1007 0
M  V30 912 H 84.1415 -0.698076 4.91366 0
M  V30 913 H 79.3975 0.048153 6.11381 0
M  V30 914 H 83.5715 0.590367 6.93893 0
M  V30 915 H 81.1985 0.969466 7.53993 0
M  V30 916 N 82.7736 -1.49793 -0.48987 0
M  V30 917 C 83.7216 -1.67783 -1.61095 0
M  V30 918 C 84.7156 -0.543683 -1.60438 0
M  V30 919 O 85.9216 -0.723647 -1.64813 0
M  V30 920 H 82.2966 -0.529255 -0.534222 0
M  V30 921 H 84.2676 -2.61861 -1.43078 0
M  V30 922 C 83.0166 -1.77191 -2.99164 0
M  V30 923 H 82.3396 -2.63841 -3.0038 0
M  V30 924 H 83.7796 -1.93809 -3.77113 0
M  V30 925 C 82.2386 -0.519203 -3.32875 0
M  V30 926 O 82.7686 0.350124 -4.00171 0
M  V30 927 N 80.9746 -0.378816 -2.8812 0
M  V30 928 H 80.5216 -1.08725 -2.33531 0
M  V30 929 H 80.4796 0.458239 -3.11043 0
M  V30 930 N 84.2517 0.741722 -1.39055 0
M  V30 931 C 85.4797 1.53098 -1.39171 0
M  V30 932 C 85.8947 1.88794 0.0155099 0
M  V30 933 O 85.2517 1.53626 0.985159 0
M  V30 934 C 85.3027 2.82274 -2.2584 0
M  V30 935 O 85.0237 2.48097 -3.61081 0
M  V30 936 C 86.5247 3.76343 -2.34266 0
M  V30 937 H 83.7447 0.473335 -0.4756 0
M  V30 938 H 86.2887 0.917045 -1.82785 0
M  V30 939 H 84.4437 3.40015 -1.85656 0
M  V30 940 H 84.8577 3.31029 -4.06842 0
M  V30 941 H 86.3317 4.63898 -2.9917 0
M  V30 942 H 86.8087 4.17619 -1.35982 0
M  V30 943 H 87.4147 3.24523 -2.74891 0
M  V30 944 N 85.7298 1.2412 0.971189 0
M  V30 945 C 86.9578 1.10575 1.74874 0
M  V30 946 C 87.3728 -0.342017 1.85676 0
M  V30 947 O 86.7298 -1.23617 1.34258 0
M  V30 948 C 86.7808 1.73579 3.171 0
M  V30 949 O 86.5018 3.12695 3.06844 0
M  V30 950 C 88.0028 1.65598 4.11208 0
M  V30 951 H 85.2228 0.386504 0.548503 0
M  V30 952 H 87.7668 1.64156 1.21955 0
M  V30 953 H 85.9218 1.24009 3.67016 0
M  V30 954 H 86.3358 3.43412 3.96445 0
M  V30 955 H 87.8098 2.1437 5.08674 0
M  V30 956 H 88.2868 0.616532 4.34851 0
M  V30 957 H 88.8928 2.14578 3.67201 0
M  V30 958 N 87.2079 -1.17134 1.05439 0
M  V30 959 C 88.1559 -2.23289 0.651511 0
M  V30 960 C 89.1499 -1.66186 -0.328411 0
M  V30 961 O 90.3559 -1.78949 -0.194206 0
M  V30 962 H 86.7309 -0.726938 0.192523 0
M  V30 963 H 88.7019 -2.54565 1.55689 0
M  V30 964 C 87.4509 -3.47671 0.0448436 0
M  V30 965 H 86.7739 -3.91918 0.78996 0
M  V30 966 H 88.2139 -4.2353 -0.19964 0
M  V30 967 C 86.6729 -3.14453 -1.20918 0
M  V30 968 O 87.2029 -3.29459 -2.29825 0
M  V30 969 N 85.4089 -2.68657 -1.10779 0
M  V30 970 H 84.9559 -2.56646 -0.221526 0
M  V30 971 H 84.9139 -2.46804 -1.9477 0
M  V30 972 N 88.686 -0.835752 -1.33615 0
M  V30 973 C 89.633 -0.26473 -2.29277 0
M  V30 974 C 90.603 0.617712 -1.54187 0
M  V30 975 O 91.788 0.556641 -1.825 0
M  V30 976 C 88.928 0.556777 -3.40579 0
M  V30 977 C 88.041 -0.349339 -4.30585 0
M  V30 978 C 87.176 0.482969 -5.29 0
M  V30 979 C 86.215 -0.421732 -6.10645 0
M  V30 980 N 85.352 0.372262 -7.01112 0
M  V30 981 H 90.192 -1.08582 -2.77514 0
M  V30 982 H 87.729 -0.546927 -1.36554 0
M  V30 983 H 89.687 1.04852 -4.03809 0
M  V30 984 H 88.317 1.34286 -2.93542 0
M  V30 985 H 87.369 -0.959372 -3.68104 0
M  V30 986 H 88.681 -1.04445 -4.87742 0
M  V30 987 H 87.835 1.03866 -5.97743 0
M  V30 988 H 86.574 1.21153 -4.72412 0
M  V30 989 H 85.579 -0.989464 -5.40823 0
M  V30 990 H 86.804 -1.14861 -6.69316 0
M  V30 991 H 84.75 1.08426 -6.46977 0
M  V30 992 H 84.667 -0.264198 -7.55538 0
M  V30 993 H 85.935 0.910293 -7.74167 0
M  V30 994 N 90.1641 1.46063 -0.591896 0
M  V30 995 C 91.3891 2.07226 -0.0850314 0
M  V30 996 C 91.8141 1.43625 1.21463 0
M  V30 997 O 91.1721 0.523305 1.73583 0
M  V30 998 C 91.2201 3.60554 0.0576567 0
M  V30 999 O 90.3241 3.97128 1.11188 0
M  V30 1000 H 89.6651 0.660615 -0.0669568 0
M  V30 1001 H 92.1951 1.8756 -0.81745 0
M  V30 1002 H 92.2051 4.07165 0.2609 0
M  V30 1003 H 90.8801 4.06235 -0.891416 0
M  V30 1004 H 89.4571 3.62213 0.886356 0
M  V30 1005 N 91.6422 0.330177 1.54103 0
M  V30 1006 C 92.8912 -0.271336 1.99867 0
M  V30 1007 C 93.2042 -1.52723 1.22209 0
M  V30 1008 O 94.4102 -2.20515 1.58383 0
M  V30 1009 C 92.8662 -0.534032 3.55916 0
M  V30 1010 C 92.4742 0.705193 4.42415 0
M  V30 1011 C 94.2182 -1.09514 4.1013 0
M  V30 1012 C 92.1252 0.414035 5.89949 0
M  V30 1013 H 91.0552 -0.105166 0.74663 0
M  V30 1014 H 93.7062 0.443429 1.78062 0
M  V30 1015 H 92.0882 -1.30915 3.73734 0
M  V30 1016 H 93.2622 1.4804 4.36372 0
M  V30 1017 H 91.5772 1.18698 3.99124 0
M  V30 1018 H 94.1742 -1.3277 5.17954 0
M  V30 1019 H 94.5172 -2.04656 3.62521 0
M  V30 1020 H 95.0502 -0.381038 3.95971 0
M  V30 1021 H 91.7892 1.33481 6.41766 0
M  V30 1022 H 91.3092 -0.323336 5.98928 0
M  V30 1023 H 92.9882 0.0263105 6.46995 0
M  V30 1024 N 93.1203 -1.57491 0.0584922 0
M  V30 1025 C 94.0683 -2.13148 -0.931168 0
M  V30 1026 C 95.0623 -1.06507 -1.31729 0
M  V30 1027 O 96.2683 -1.24906 -1.29609 0
M  V30 1028 H 92.6433 -0.68137 -0.31818 0
M  V30 1029 H 94.6143 -2.95187 -0.436707 0
M  V30 1030 C 93.3633 -2.69732 -2.19408 0
M  V30 1031 H 92.6863 -3.51454 -1.90578 0
M  V30 1032 H 94.1263 -3.12287 -2.86798 0
M  V30 1033 C 92.5853 -1.63855 -2.94369 0
M  V30 1034 O 93.1153 -1.05565 -3.87581 0
M  V30 1035 N 91.3213 -1.35202 -2.57233 0
M  V30 1036 H 90.8683 -1.82791 -1.81508 0
M  V30 1037 H 90.8263 -0.645922 -3.07693 0
M  V30 1038 N 94.5984 0.214957 -1.56127 0
M  V30 1039 C 95.8444 0.939762 -1.79712 0
M  V30 1040 C 96.1774 1.83723 -0.629247 0
M  V30 1041 O 95.4524 1.90925 0.371197 0
M  V30 1042 C 95.7354 1.77306 -3.13424 0
M  V30 1043 C 95.5884 0.90164 -4.40671 0
M  V30 1044 C 96.9074 2.74956 -3.43638 0
M  V30 1045 H 94.0264 0.340214 -0.653776 0
M  V30 1046 H 96.6684 0.20824 -1.88855 0
M  V30 1047 H 94.8184 2.39673 -3.0576 0
M  V30 1048 H 96.4904 0.294206 -4.60361 0
M  V30 1049 H 94.7334 0.207368 -4.33304 0
M  V30 1050 H 95.4044 1.51923 -5.30682 0
M  V30 1051 H 97.8804 2.22724 -3.51473 0
M  V30 1052 H 96.7564 3.30358 -4.38355 0
M  V30 1053 H 97.0174 3.53023 -2.66134 0
M  V30 1054 N 96.0765 1.50051 0.48192 0
M  V30 1055 C 97.3065 1.63999 1.2565 0
M  V30 1056 C 97.7145 0.318288 1.86504 0
M  V30 1057 O 97.0575 -0.708534 1.69486 0
M  V30 1058 C 97.1195 2.66504 2.4128 0
M  V30 1059 C 96.7835 4.10352 2.01148 0
M  V30 1060 C 97.7805 4.96562 1.54021 0
M  V30 1061 C 95.4655 4.56203 2.10199 0
M  V30 1062 C 97.4595 6.26668 1.16473 0
M  V30 1063 C 95.1465 5.86318 1.72264 0
M  V30 1064 C 96.1445 6.71375 1.25477 0
M  V30 1065 O 95.8325 7.99062 0.880626 0
M  V30 1066 H 95.5645 0.55456 0.386574 0
M  V30 1067 H 98.1185 1.96954 0.582944 0
M  V30 1068 H 96.3485 2.28769 3.11772 0
M  V30 1069 H 98.0375 2.69783 3.03268 0
M  V30 1070 H 98.8035 4.62358 1.46458 0
M  V30 1071 H 94.6825 3.90152 2.45566 0
M  V30 1072 H 98.2265 6.93011 0.798841 0
M  V30 1073 H 94.1235 6.20046 1.79482 0
M  V30 1074 H 94.8915 8.12239 1.01043 0
M  V30 1075 N 97.5546 -0.734337 1.39446 0
M  V30 1076 C 98.7796 -1.52866 1.40167 0
M  V30 1077 C 99.2046 -1.881 -0.00171513 0
M  V30 1078 O 98.5626 -1.51957 -0.988879 0
M  V30 1079 C 98.6106 -2.79235 2.28167 0
M  V30 1080 O 97.7146 -3.75185 1.71201 0
M  V30 1081 H 97.0556 -0.461618 0.477289 0
M  V30 1082 H 99.5856 -0.905949 1.8345 0
M  V30 1083 H 99.5956 -3.27963 2.42702 0
M  V30 1084 H 98.2706 -2.52923 3.30156 0
M  V30 1085 H 96.8476 -3.33958 1.65912 0
M  V30 1086 N 99.0327 -1.24633 -0.964593 0
M  V30 1087 C 99.9797 -1.04144 -2.05968 0
M  V30 1088 C 100.95 0.046262 -1.66036 0
M  V30 1089 O 102.135 -0.108972 -1.90489 0
M  V30 1090 C 99.2747 -0.65563 -3.38815 0
M  V30 1091 C 98.3877 -1.81714 -3.91923 0
M  V30 1092 C 97.5227 -1.37662 -5.13052 0
M  V30 1093 C 96.5617 -2.50788 -5.58365 0
M  V30 1094 N 95.6987 -2.07582 -6.70712 0
M  V30 1095 H 100.539 -1.9787 -2.22827 0
M  V30 1096 H 98.0757 -0.9855 -1.09208 0
M  V30 1097 H 100.034 -0.412954 -4.15151 0
M  V30 1098 H 98.6637 0.244627 -3.21872 0
M  V30 1099 H 97.7157 -2.1734 -3.12198 0
M  V30 1100 H 99.0277 -2.66705 -4.21509 0
M  V30 1101 H 98.1817 -1.093 -5.96773 0
M  V30 1102 H 96.9207 -0.497293 -4.85158 0
M  V30 1103 H 95.9257 -2.79906 -4.73215 0
M  V30 1104 H 97.1507 -3.39283 -5.88272 0
M  V30 1105 H 95.0967 -1.22051 -6.44546 0
M  V30 1106 H 95.0137 -2.86125 -6.99763 0
M  V30 1107 H 96.2817 -1.82369 -7.57867 0
M  V30 1108 N 100.511 1.16574 -1.06058 0
M  V30 1109 C 101.751 1.88723 -0.78504 0
M  V30 1110 C 102.115 1.79706 0.676006 0
M  V30 1111 O 103.316 2.46757 1.06603 0
M  V30 1112 C 101.587 3.34338 -1.26304 0
M  V30 1113 S 103.146 4.24366 -1.1162 0
M  V30 1114 H 99.9638 0.651448 -0.284846 0
M  V30 1115 H 102.566 1.40732 -1.35701 0
M  V30 1116 H 101.27 3.38439 -2.32136 0
M  V30 1117 H 100.801 3.87378 -0.685719 0
M  V30 1118 H 102.816 4.96179 -0.0456539 0
M  V30 1119 N 101.989 0.842826 1.3317 0
M  V30 1120 C 103.238 0.436738 1.96915 0
M  V30 1121 C 103.551 -1.01025 1.67491 0
M  V30 1122 O 104.757 -1.5212 2.24881 0
M  V30 1123 C 103.213 0.730021 3.52418 0
M  V30 1124 C 102.821 2.19195 3.90714 0
M  V30 1125 C 104.565 0.391076 4.22695 0
M  V30 1126 C 102.472 2.42907 5.39212 0
M  V30 1127 H 101.402 0.15958 0.736919 0
M  V30 1128 H 104.053 1.03196 1.51733 0
M  V30 1129 H 102.435 0.0643755 3.95948 0
M  V30 1130 H 103.609 2.8984 3.58231 0
M  V30 1131 H 101.924 2.49425 3.33431 0
M  V30 1132 H 104.521 0.545817 5.31907 0
M  V30 1133 H 104.864 -0.666294 4.10933 0
M  V30 1134 H 105.397 1.01212 3.84709 0
M  V30 1135 H 102.136 3.47224 5.55982 0
M  V30 1136 H 101.656 1.76827 5.73142 0
M  V30 1137 H 103.335 2.2626 6.06148 0
M  V30 1138 N 103.467 -1.45747 0.599634 0
M  V30 1139 C 104.692 -2.07178 0.0960198 0
M  V30 1140 C 105.117 -1.44268 -1.207 0
M  V30 1141 O 104.475 -0.532503 -1.73303 0
M  V30 1142 C 104.523 -3.60579 -0.0385348 0
M  V30 1143 O 103.627 -3.97713 -1.0908 0
M  V30 1144 H 102.968 -0.660251 0.0704593 0
M  V30 1145 H 105.498 -1.87124 0.827385 0
M  V30 1146 H 105.508 -4.07298 -0.239304 0
M  V30 1147 H 104.183 -4.05756 0.912947 0
M  V30 1148 H 102.76 -3.62678 -0.867135 0
M  V30 1149 N 104.945 -0.338344 -1.53925 0
M  V30 1150 C 106.193 0.259245 -2.0043 0
M  V30 1151 C 106.514 1.51484 -1.22791 0
M  V30 1152 O 105.784 1.93037 -0.33368 0
M  V30 1153 H 104.364 0.0987845 -0.740439 0
M  V30 1154 H 107.026 -0.458302 -1.89435 0
M  V30 1155 H 106.122 0.505334 -3.07982 0
M  V30 1156 N 106.423 1.57458 -0.0668435 0
M  V30 1157 C 107.37 2.12439 0.902122 0
M  V30 1158 C 108.34 1.03565 1.2986 0
M  V30 1159 O 109.525 1.312 1.38532 0
M  V30 1160 C 106.665 2.6865 2.16614 0
M  V30 1161 C 105.778 3.91663 1.82274 0
M  V30 1162 C 104.913 4.36134 3.0325 0
M  V30 1163 C 103.952 5.51808 2.64904 0
M  V30 1164 N 103.089 5.9126 3.78624 0
M  V30 1165 H 107.929 2.94934 0.426382 0
M  V30 1166 H 105.466 1.4575 0.198819 0
M  V30 1167 H 107.424 2.99346 2.90599 0
M  V30 1168 H 106.054 1.88928 2.61737 0
M  V30 1169 H 105.106 3.6746 0.983719 0
M  V30 1170 H 106.418 4.75693 1.50059 0
M  V30 1171 H 105.572 4.68465 3.85519 0
M  V30 1172 H 104.311 3.50948 3.38655 0
M  V30 1173 H 103.316 5.19133 1.81055 0
M  V30 1174 H 104.541 6.38722 2.30675 0
M  V30 1175 H 102.487 5.09024 4.138 0
M  V30 1176 H 102.404 6.70018 3.5016 0
M  V30 1177 H 103.672 6.28212 4.61486 0
M  V30 1178 N 107.901 -0.206675 1.56239 0
M  V30 1179 C 108.864 -1.23976 1.92776 0
M  V30 1180 C 109.864 -1.39041 0.807729 0
M  V30 1181 O 111.054 -1.37051 1.0753 0
M  V30 1182 C 108.186 -2.61112 2.19165 0
M  V30 1183 H 109.379 -0.927764 2.85189 0
M  V30 1184 H 106.932 -0.447718 1.4975 0
M  V30 1185 H 107.667 -2.97386 1.29352 0
M  V30 1186 H 107.452 -2.51552 3.00772 0
M  V30 1187 H 108.942 -3.35633 2.48476 0
M  V30 1188 N 109.379 -1.50304 -0.473955 0
M  V30 1189 C 110.625 -1.61389 -1.22806 0
M  V30 1190 C 110.958 -0.311955 -1.91678 0
M  V30 1191 O 110.233 0.686384 -1.81986 0
M  V30 1192 C 110.516 -2.79219 -2.27396 0
M  V30 1193 C 110.369 -4.19286 -1.62848 0
M  V30 1194 C 111.688 -2.92614 -3.28732 0
M  V30 1195 H 108.807 -0.587399 -0.445119 0
M  V30 1196 H 111.449 -1.82681 -0.522265 0
M  V30 1197 H 109.599 -2.61195 -2.87592 0
M  V30 1198 H 111.271 -4.48892 -1.06271 0
M  V30 1199 H 109.514 -4.23677 -0.931693 0
M  V30 1200 H 110.185 -4.97655 -2.38838 0
M  V30 1201 H 112.661 -3.09105 -2.78556 0
M  V30 1202 H 111.537 -3.76688 -3.99246 0
M  V30 1203 H 111.798 -2.03107 -3.92683 0
M  V30 1204 N 110.857 0.726932 -1.39834 0
M  V30 1205 C 112.087 1.51393 -1.40583 0
M  V30 1206 C 112.495 1.892 -0.000740625 0
M  V30 1207 O 111.838 1.55189 0.982951 0
M  V30 1208 C 111.9 2.82588 -2.22226 0
M  V30 1209 C 111.564 2.67169 -3.70769 0
M  V30 1210 C 112.561 2.3518 -4.63666 0
M  V30 1211 C 110.246 2.83788 -4.14451 0
M  V30 1212 C 112.24 2.20002 -5.98229 0
M  V30 1213 C 109.927 2.68229 -5.49087 0
M  V30 1214 C 110.925 2.36382 -6.4079 0
M  V30 1215 O 110.613 2.2093 -7.72946 0
M  V30 1216 H 110.345 0.474168 -0.48181 0
M  V30 1217 H 112.899 0.905247 -1.84376 0
M  V30 1218 H 111.129 3.45746 -1.73195 0
M  V30 1219 H 112.818 3.44247 -2.15055 0
M  V30 1220 H 113.584 2.21984 -4.31217 0
M  V30 1221 H 109.463 3.07566 -3.43401 0
M  V30 1222 H 113.007 1.95067 -6.69772 0
M  V30 1223 H 108.904 2.81006 -5.81125 0
M  V30 1224 H 109.672 2.35937 -7.83757 0
M  V30 1225 N 112.336 1.25143 0.95797 0
M  V30 1226 C 113.561 1.12521 1.74223 0
M  V30 1227 C 113.986 -0.317402 1.85403 0
M  V30 1228 O 113.344 -1.2299 1.33204 0
M  V30 1229 C 113.392 1.78062 3.1357 0
M  V30 1230 O 112.496 1.058 3.98598 0
M  V30 1231 H 111.837 0.39304 0.535178 0
M  V30 1232 H 114.367 1.65641 1.201 0
M  V30 1233 H 114.377 1.84213 3.64046 0
M  V30 1234 H 113.052 2.83021 3.04749 0
M  V30 1235 H 111.629 1.07506 3.57067 0
M  V30 1236 N 113.814 -1.1601 1.06675 0
M  V30 1237 C 115.061 -1.86633 0.785781 0
M  V30 1238 C 115.389 -1.81929 -0.687896 0
M  V30 1239 O 114.644 -1.23253 -1.52011 0
M  V30 1240 C 114.943 -3.35547 1.23057 0
M  V30 1241 C 114.609 -3.60448 2.70902 0
M  V30 1242 C 113.271 -3.66954 3.11285 0
M  V30 1243 C 115.623 -3.7071 3.66365 0
M  V30 1244 C 112.951 -3.81225 4.45965 0
M  V30 1245 C 115.303 -3.86503 5.00797 0
M  V30 1246 C 113.967 -3.91252 5.40813 0
M  V30 1247 H 113.237 -0.682937 0.287538 0
M  V30 1248 H 115.884 -1.37146 1.33654 0
M  V30 1249 H 114.189 -3.87193 0.59907 0
M  V30 1250 H 115.886 -3.88583 0.990163 0
M  V30 1251 H 112.476 -3.56021 2.38636 0
M  V30 1252 H 116.66 -3.64991 3.36296 0
M  V30 1253 H 111.916 -3.83155 4.76447 0
M  V30 1254 H 116.09 -3.93385 5.74649 0
M  V30 1255 H 113.717 -4.02062 6.45174 0
M  V30 1256 N 115.292 -0.849877 -1.32721 0
M  V30 1257 C 116.24 -0.279745 -2.30912 0
M  V30 1258 C 117.234 0.594278 -1.58634 0
M  V30 1259 O 118.44 0.482613 -1.73409 0
M  V30 1260 H 114.815 -0.0717521 -0.748569 0
M  V30 1261 H 116.786 -1.12222 -2.76494 0
M  V30 1262 C 115.535 0.521108 -3.43773 0
M  V30 1263 H 114.858 -0.142141 -3.99547 0
M  V30 1264 H 116.298 0.885693 -4.14646 0
M  V30 1265 C 114.757 1.70442 -2.90605 0
M  V30 1266 O 115.287 2.8034 -2.87702 0
M  V30 1267 N 113.493 1.52991 -2.47067 0
M  V30 1268 H 113.04 0.635914 -2.49628 0
M  V30 1269 H 112.998 2.32311 -2.11847 0
M  V30 1270 N 116.77 1.45427 -0.607355 0
M  V30 1271 C 117.733 2.28974 0.101693 0
M  V30 1272 C 118.733 1.39754 0.795329 0
M  V30 1273 O 119.923 1.61878 0.643527 0
M  V30 1274 C 117.055 3.20768 1.15414 0
M  V30 1275 H 118.248 2.93147 -0.632844 0
M  V30 1276 H 115.801 1.51945 -0.366391 0
M  V30 1277 H 116.536 2.61395 1.91945 0
M  V30 1278 H 116.321 3.86489 0.66098 0
M  V30 1279 H 117.811 3.83589 1.65073 0
M  V30 1280 N 118.248 0.346503 1.53744 0
M  V30 1281 C 119.496 -0.248612 2.00565 0
M  V30 1282 C 119.817 -1.5083 1.23593 0
M  V30 1283 O 119.087 -1.92858 0.343912 0
M  V30 1284 H 117.667 -0.0948564 0.740953 0
M  V30 1285 H 120.329 0.468341 1.89189 0
M  V30 1286 H 119.425 -0.488994 3.08245 0
M  V30 1287 N 119.726 -1.57421 0.075193 0
M  V30 1288 C 120.673 -2.12915 -0.890843 0
M  V30 1289 C 121.643 -1.04252 -1.29309 0
M  V30 1290 O 122.828 -1.31933 -1.37834 0
M  V30 1291 C 119.968 -2.69795 -2.15186 0
M  V30 1292 C 119.081 -3.92624 -1.80194 0
M  V30 1293 C 118.216 -4.37736 -3.00933 0
M  V30 1294 C 117.255 -5.53205 -2.61974 0
M  V30 1295 N 116.392 -5.9326 -3.75483 0
M  V30 1296 H 121.232 -2.95156 -0.410735 0
M  V30 1297 H 118.769 -1.45854 -0.191086 0
M  V30 1298 H 120.727 -3.00883 -2.89008 0
M  V30 1299 H 119.357 -1.90313 -2.60731 0
M  V30 1300 H 118.409 -3.67977 -0.964218 0
M  V30 1301 H 119.721 -4.76482 -1.47534 0
M  V30 1302 H 118.875 -4.70503 -3.8303 0
M  V30 1303 H 117.614 -3.52739 -3.36789 0
M  V30 1304 H 116.619 -5.20086 -1.783 0
M  V30 1305 H 117.844 -6.39936 -2.27284 0
M  V30 1306 H 115.79 -5.11212 -4.11094 0
M  V30 1307 H 115.707 -6.71865 -3.46602 0
M  V30 1308 H 116.975 -6.30651 -4.58148 0
M  V30 1309 N 121.204 0.198386 -1.56346 0
M  V30 1310 C 122.451 0.919286 -1.80431 0
M  V30 1311 C 122.779 1.83393 -0.647866 0
M  V30 1312 O 122.034 1.92236 0.366556 0
M  V30 1313 C 122.333 1.77031 -3.10475 0
M  V30 1314 C 121.999 1.00693 -4.39513 0
M  V30 1315 C 120.661 0.796145 -4.74568 0
M  V30 1316 C 123.013 0.469559 -5.19081 0
M  V30 1317 C 120.341 0.0364588 -5.86689 0
M  V30 1318 C 122.693 -0.2769 -6.31994 0
M  V30 1319 C 121.357 -0.49873 -6.65634 0
M  V30 1320 H 120.627 0.336391 -0.660244 0
M  V30 1321 H 123.274 0.185872 -1.90596 0
M  V30 1322 H 121.579 2.5723 -2.95533 0
M  V30 1323 H 123.276 2.33065 -3.26315 0
M  V30 1324 H 119.866 1.18122 -4.12001 0
M  V30 1325 H 124.05 0.619816 -4.92414 0
M  V30 1326 H 119.306 -0.145412 -6.11227 0
M  V30 1327 H 123.48 -0.700684 -6.92866 0
M  V30 1328 H 121.107 -1.0893 -7.52355 0
M  V30 1329 N 122.682 1.50554 0.465978 0
M  V30 1330 C 123.615 1.64436 1.58227 0
M  V30 1331 C 124.593 0.492367 1.54966 0
M  V30 1332 O 125.777 0.712536 1.74514 0
M  V30 1333 C 122.904 1.63165 2.96808 0
M  V30 1334 C 121.95 2.83987 3.18204 0
M  V30 1335 S 122.783 4.45219 2.97557 0
M  V30 1336 C 123.939 4.46649 4.3847 0
M  V30 1337 H 124.172 2.58861 1.46213 0
M  V30 1338 H 121.705 1.3988 0.653678 0
M  V30 1339 H 123.663 1.63116 3.76701 0
M  V30 1340 H 122.324 0.69967 3.06208 0
M  V30 1341 H 121.517 2.79416 4.19455 0
M  V30 1342 H 121.119 2.81629 2.46092 0
M  V30 1343 H 123.411 4.20526 5.31191 0
M  V30 1344 H 124.354 5.48295 4.48082 0
M  V30 1345 H 124.762 3.76296 4.20787 0
M  V30 1346 N 124.16 -0.719506 1.40217 0
M  V30 1347 C 125.408 -1.47641 1.3801 0
M  V30 1348 C 125.729 -1.94992 -0.018145 0
M  V30 1349 O 124.999 -1.70073 -0.972207 0
M  V30 1350 H 123.579 -0.547744 0.507923 0
M  V30 1351 H 126.241 -0.853187 1.75233 0
M  V30 1352 H 125.337 -2.35112 2.05253 0
M  V30 1353 N 125.638 -1.25649 -0.95132 0
M  V30 1354 C 126.586 -1.06118 -2.06982 0
M  V30 1355 C 127.58 0.00889169 -1.69398 0
M  V30 1356 O 128.786 -0.146988 -1.79399 0
M  V30 1357 H 125.161 -0.326248 -0.677544 0
M  V30 1358 H 127.132 -2.00932 -2.2061 0
M  V30 1359 C 125.881 -0.700145 -3.40578 0
M  V30 1360 H 125.204 -1.51537 -3.69968 0
M  V30 1361 H 126.644 -0.603211 -4.19687 0
M  V30 1362 C 125.103 0.59403 -3.31622 0
M  V30 1363 O 125.633 1.63522 -3.66911 0
M  V30 1364 N 123.839 0.58089 -2.84735 0
M  V30 1365 H 123.386 -0.266783 -2.56215 0
M  V30 1366 H 123.344 1.44695 -2.79125 0
M  V30 1367 N 127.117 1.15442 -1.07289 0
M  V30 1368 C 128.364 1.86213 -0.795668 0
M  V30 1369 C 128.692 1.82291 0.678238 0
M  V30 1370 O 127.947 1.24057 1.51355 0
M  V30 1371 C 128.246 3.3489 -1.24834 0
M  V30 1372 C 127.912 3.59007 -2.72809 0
M  V30 1373 C 126.574 3.65298 -3.13227 0
M  V30 1374 C 128.926 3.68762 -3.68326 0
M  V30 1375 C 126.254 3.78854 -4.4798 0
M  V30 1376 C 128.606 3.83842 -5.0284 0
M  V30 1377 C 127.27 3.88378 -5.4288 0
M  V30 1378 H 126.54 0.681403 -0.291155 0
M  V30 1379 H 129.187 1.36435 -1.34379 0
M  V30 1380 H 127.492 3.8687 -0.619595 0
M  V30 1381 H 129.189 3.88052 -1.01076 0
M  V30 1382 H 125.779 3.5475 -2.40521 0
M  V30 1383 H 129.963 3.63202 -3.38227 0
M  V30 1384 H 125.219 3.80623 -4.78472 0
M  V30 1385 H 129.393 3.90332 -5.76727 0
M  V30 1386 H 127.02 3.98635 -6.47298 0
M  V30 1387 N 128.595 0.856903 1.32268 0
M  V30 1388 C 129.543 0.291987 2.3076 0
M  V30 1389 C 130.537 -0.585857 1.58947 0
M  V30 1390 O 131.743 -0.47341 1.73663 0
M  V30 1391 H 128.118 0.075721 0.748178 0
M  V30 1392 H 130.089 1.13687 2.75895 0
M  V30 1393 C 128.838 -0.502869 3.44044 0
M  V30 1394 H 128.161 0.163328 3.99466 0
M  V30 1395 H 129.601 -0.863691 4.1511 0
M  V30 1396 C 128.06 -1.68898 2.91505 0
M  V30 1397 O 128.59 -2.78811 2.89184 0
M  V30 1398 N 126.796 -1.51679 2.47875 0
M  V30 1399 H 126.343 -0.622666 2.49961 0
M  V30 1400 H 126.301 -2.31184 2.13076 0
M  V30 1401 N 130.073 -1.45103 0.615059 0
M  V30 1402 C 131.319 -2.02483 0.113347 0
M  V30 1403 C 131.652 -1.48146 -1.25564 0
M  V30 1404 O 130.927 -0.659104 -1.82992 0
M  V30 1405 C 131.21 -3.60005 0.0825278 0
M  V30 1406 C 131.063 -4.2466 1.48271 0
M  V30 1407 C 132.382 -4.35972 -0.601401 0
M  V30 1408 H 129.501 -0.735764 0.0426632 0
M  V30 1409 H 132.143 -1.72868 0.788461 0
M  V30 1410 H 130.293 -3.85367 -0.492378 0
M  V30 1411 H 131.965 -4.10458 2.10527 0
M  V30 1412 H 130.208 -3.82772 2.04127 0
M  V30 1413 H 130.879 -5.336 1.41332 0
M  V30 1414 H 133.355 -4.15947 -0.112666 0
M  V30 1415 H 132.231 -5.45697 -0.592097 0
M  V30 1416 H 132.492 -4.09391 -1.66887 0
M  V30 1417 N 131.551 -0.354651 -1.53558 0
M  V30 1418 C 132.498 0.496968 -2.25386 0
M  V30 1419 C 133.468 1.0865 -1.25636 0
M  V30 1420 O 134.653 1.12104 -1.54394 0
M  V30 1421 C 131.793 1.63637 -3.03837 0
M  V30 1422 C 130.906 1.07307 -4.18461 0
M  V30 1423 C 130.041 2.18068 -4.84376 0
M  V30 1424 C 129.08 1.59147 -5.91049 0
M  V30 1425 N 128.217 2.63695 -6.50699 0
M  V30 1426 H 133.057 -0.122075 -2.9775 0
M  V30 1427 H 130.594 -0.0720154 -1.46924 0
M  V30 1428 H 132.552 2.30734 -3.47589 0
M  V30 1429 H 131.182 2.22623 -2.33749 0
M  V30 1430 H 130.234 0.292708 -3.79272 0
M  V30 1431 H 131.546 0.602193 -4.95152 0
M  V30 1432 H 130.7 2.93007 -5.31255 0
M  V30 1433 H 129.439 2.68504 -4.07133 0
M  V30 1434 H 128.444 0.827175 -5.43542 0
M  V30 1435 H 129.669 1.09549 -6.70206 0
M  V30 1436 H 127.615 3.13365 -5.76315 0
M  V30 1437 H 127.532 2.21263 -7.22896 0
M  V30 1438 H 128.8 3.3837 -7.02229 0
M  V30 1439 N 133.029 1.57378 -0.0835403 0
M  V30 1440 C 133.939 2.16897 0.894021 0
M  V30 1441 C 134.955 1.13528 1.31861 0
M  V30 1442 O 136.131 1.45848 1.3889 0
M  V30 1443 C 133.196 2.72831 2.13925 0
M  V30 1444 C 132.257 3.91115 1.76997 0
M  V30 1445 C 131.49 4.44371 2.95584 0
M  V30 1446 O 131.713 3.96596 4.09961 0
M  V30 1447 O 130.647 5.35549 2.74719 0
M  V30 1448 H 134.473 3.00814 0.417679 0
M  V30 1449 H 132.058 1.48741 0.140181 0
M  V30 1450 H 133.94 3.0863 2.86924 0
M  V30 1451 H 132.615 1.91967 2.60635 0
M  V30 1452 H 131.522 3.60148 1.01214 0
M  V30 1453 H 132.855 4.73307 1.3506 0
M  V30 1454 N 134.507 -0.190092 1.56449 0
M  V30 1455 C 135.753 -0.911052 1.81184 0
M  V30 1456 C 136.086 -1.82699 0.658396 0
M  V30 1457 O 135.361 -1.91491 -0.340775 0
M  V30 1458 C 135.644 -1.72297 3.16205 0
M  V30 1459 C 135.497 -0.831419 4.42049 0
M  V30 1460 C 136.816 -2.69454 3.47969 0
M  V30 1461 H 133.935 -0.32977 0.659106 0
M  V30 1462 H 136.577 -0.178169 1.89163 0
M  V30 1463 H 134.727 -2.34778 3.09534 0
M  V30 1464 H 136.399 -0.220929 4.60771 0
M  V30 1465 H 134.642 -0.138406 4.33579 0
M  V30 1466 H 135.313 -1.43461 5.33032 0
M  V30 1467 H 137.789 -2.17104 3.54972 0
M  V30 1468 H 136.665 -3.23342 4.43555 0
M  V30 1469 H 136.926 -3.48744 2.71717 0
M  V30 1470 N 135.985 -1.50799 -0.457987 0
M  V30 1471 C 137.262 -1.52968 -1.21902 0
M  V30 1472 C 137.642 -0.281906 -2.09209 0
M  V30 1473 O 136.99 0.734076 -2.16388 0
M  V30 1474 C 137.2 -2.8326 -2.03875 0
M  V30 1475 C 138.548 -3.34425 -2.6162 0
M  V30 1476 O 139.572 -2.8467 -2.14106 0
M  V30 1477 O 138.431 -4.21188 -3.48228 0
M  V30 1478 H 135.525 -0.614129 -0.553873 0
M  V30 1479 H 138.071 -1.63098 -0.468739 0
M  V30 1480 H 136.843 -3.65543 -1.39621 0
M  V30 1481 H 136.466 -2.76195 -2.8601 0
M  V30 1482 N 137.463 0.71206 -1.40597 0
M  V30 1483 C 138.711 1.46907 -1.38791 0
M  V30 1484 C 139.032 1.94998 0.00780391 0
M  V30 1485 O 138.302 1.70587 0.963174 0
M  V30 1486 H 136.882 0.545043 -0.51082 0
M  V30 1487 H 139.544 0.843882 -1.75683 0
M  V30 1488 H 138.64 2.34021 -2.06496 0
M  V30 1489 N 138.941 1.26152 0.944643 0
M  V30 1490 C 140.181 1.12708 1.70517 0
M  V30 1491 C 140.545 -0.324727 1.89234 0
M  V30 1492 O 141.746 -0.581211 2.62441 0
M  V30 1493 C 140.017 1.8713 3.04495 0
M  V30 1494 S 141.576 1.89698 3.95677 0
M  V30 1495 H 138.394 0.402665 0.585988 0
M  V30 1496 H 140.996 1.59821 1.12594 0
M  V30 1497 H 139.7 2.91833 2.88551 0
M  V30 1498 H 139.231 1.40444 3.67477 0
M  V30 1499 H 141.246 0.981198 4.86402 0
M  V30 1500 N 140.419 -1.14872 1.07899 0
M  V30 1501 C 141.666 -1.85789 0.805532 0
M  V30 1502 C 141.994 -1.82649 -0.668561 0
M  V30 1503 O 141.249 -1.24858 -1.50695 0
M  V30 1504 C 141.548 -3.34223 1.26609 0
M  V30 1505 C 141.214 -3.57555 2.74709 0
M  V30 1506 C 139.876 -3.63631 3.1516 0
M  V30 1507 C 142.228 -3.66803 3.70277 0
M  V30 1508 C 139.556 -3.76473 4.49983 0
M  V30 1509 C 141.908 -3.8117 5.04869 0
M  V30 1510 C 140.572 -3.85494 5.44932 0
M  V30 1511 H 139.842 -0.679849 0.294765 0
M  V30 1512 H 142.489 -1.3572 1.35101 0
M  V30 1513 H 140.794 -3.86536 0.640103 0
M  V30 1514 H 142.491 -3.87511 1.03132 0
M  V30 1515 H 139.081 -3.5347 2.42398 0
M  V30 1516 H 143.265 -3.61404 3.40149 0
M  V30 1517 H 138.521 -3.7808 4.80484 0
M  V30 1518 H 142.695 -3.87268 5.78789 0
M  V30 1519 H 140.322 -3.95197 6.49403 0
M  V30 1520 N 141.898 -0.863906 -1.31812 0
M  V30 1521 C 142.831 -0.259963 -2.26714 0
M  V30 1522 C 143.809 0.607392 -1.50829 0
M  V30 1523 O 144.993 0.562155 -1.79922 0
M  V30 1524 C 142.12 0.632456 -3.32743 0
M  V30 1525 C 141.166 -0.162743 -4.26189 0
M  V30 1526 S 141.999 -1.53726 -5.12961 0
M  V30 1527 C 143.155 -0.650803 -6.22507 0
M  V30 1528 H 143.388 -1.06445 -2.77591 0
M  V30 1529 H 140.921 -0.662071 -1.39485 0
M  V30 1530 H 142.879 1.14167 -3.94305 0
M  V30 1531 H 141.54 1.41083 -2.80632 0
M  V30 1532 H 140.733 0.517366 -5.01338 0
M  V30 1533 H 140.335 -0.60385 -3.69093 0
M  V30 1534 H 142.627 0.141134 -6.77353 0
M  V30 1535 H 143.57 -1.37322 -6.94657 0
M  V30 1536 H 143.978 -0.221041 -5.64067 0
M  V30 1537 N 143.376 1.44774 -0.622745 0
M  V30 1538 C 144.653 1.95522 -0.0551974 0
M  V30 1539 C 145.033 1.5649 1.41683 0
M  V30 1540 O 144.381 0.834848 2.12703 0
M  V30 1541 C 144.591 3.4796 -0.269242 0
M  V30 1542 C 145.939 4.24306 -0.158014 0
M  V30 1543 O 146.963 3.55637 -0.200162 0
M  V30 1544 O 145.822 5.46471 -0.0558693 0
M  V30 1545 H 142.916 0.826556 0.0271015 0
M  V30 1546 H 145.462 1.54866 -0.693864 0
M  V30 1547 H 144.234 3.6939 -1.29099 0
M  V30 1548 H 143.857 3.95543 0.403966 0
M  V30 1549 N 144.854 0.36279 1.53368 0
M  V30 1550 C 145.817 -0.472679 2.24273 0
M  V30 1551 C 146.817 -1.012 1.24961 0
M  V30 1552 O 148.007 -0.898194 1.49259 0
M  V30 1553 C 145.139 -1.66039 2.97731 0
M  V30 1554 H 146.332 0.14773 2.99536 0
M  V30 1555 H 143.885 0.114434 1.55881 0
M  V30 1556 H 144.62 -2.31896 2.26704 0
M  V30 1557 H 144.405 -1.28066 3.70596 0
M  V30 1558 H 145.895 -2.25252 3.51641 0
M  V30 1559 N 146.332 -1.57332 0.0918853 0
M  V30 1560 C 147.264 -2.10869 -0.898168 0
M  V30 1561 C 148.277 -1.04521 -1.24817 0
M  V30 1562 O 149.466 -1.31977 -1.20184 0
M  V30 1563 C 146.566 -2.57083 -2.2082 0
M  V30 1564 C 145.739 -3.87229 -2.03402 0
M  V30 1565 C 144.798 -4.19324 -3.17889 0
M  V30 1566 O 143.824 -4.88598 -2.91994 0
M  V30 1567 N 145.026 -3.74471 -4.43567 0
M  V30 1568 H 147.791 -2.96439 -0.440943 0
M  V30 1569 H 145.352 -1.61631 -0.0933064 0
M  V30 1570 H 147.344 -2.75602 -2.96354 0
M  V30 1571 H 145.914 -1.76541 -2.57977 0
M  V30 1572 H 145.134 -3.7789 -1.12218 0
M  V30 1573 H 146.422 -4.72379 -1.89038 0
M  V30 1574 H 145.82 -3.18546 -4.67488 0
M  V30 1575 H 144.377 -3.98151 -5.16061 0
M  V30 1576 N 147.81 0.181792 -1.56548 0
M  V30 1577 C 148.757 1.22521 -1.95595 0
M  V30 1578 C 149.727 1.4454 -0.818373 0
M  V30 1579 O 150.912 1.57454 -1.07763 0
M  V30 1580 C 148.052 2.56193 -2.31212 0
M  V30 1581 C 147.165 2.41641 -3.58097 0
M  V30 1582 C 146.3 3.68108 -3.82975 0
M  V30 1583 C 145.339 3.48445 -5.03242 0
M  V30 1584 N 144.476 4.66956 -5.24306 0
M  V30 1585 H 149.316 0.885226 -2.84548 0
M  V30 1586 H 146.853 0.425718 -1.40805 0
M  V30 1587 H 148.811 3.34088 -2.49882 0
M  V30 1588 H 147.441 2.88208 -1.45382 0
M  V30 1589 H 146.493 1.54976 -3.474 0
M  V30 1590 H 147.805 2.23052 -4.46149 0
M  V30 1591 H 146.959 4.54441 -4.01956 0
M  V30 1592 H 145.698 3.89666 -2.93278 0
M  V30 1593 H 144.703 2.60499 -4.8417 0
M  V30 1594 H 145.928 3.2832 -5.9446 0
M  V30 1595 H 143.874 4.88752 -4.37559 0
M  V30 1596 H 143.791 4.51242 -6.06561 0
M  V30 1597 H 145.059 5.54602 -5.47756 0
M  V30 1598 N 149.288 1.51039 0.449983 0
M  V30 1599 C 150.537 1.62317 1.19733 0
M  V30 1600 C 150.85 0.339101 1.92638 0
M  V30 1601 O 152.056 0.331069 2.69474 0
M  V30 1602 C 150.512 2.86608 2.17678 0
M  V30 1603 C 150.12 4.21972 1.50479 0
M  V30 1604 C 151.864 3.07239 2.92924 0
M  V30 1605 C 149.771 5.37426 2.46834 0
M  V30 1606 H 148.701 0.604532 0.450619 0
M  V30 1607 H 151.352 1.77494 0.465625 0
M  V30 1608 H 149.734 2.65037 2.94231 0
M  V30 1609 H 150.908 4.53878 0.795716 0
M  V30 1610 H 149.223 4.07117 0.874344 0
M  V30 1611 H 151.82 3.90668 3.65079 0
M  V30 1612 H 152.163 2.19807 3.5354 0
M  V30 1613 H 152.696 3.29091 2.23481 0
M  V30 1614 H 149.435 6.27079 1.90926 0
M  V30 1615 H 148.955 5.09912 3.15832 0
M  V30 1616 H 150.634 5.68862 3.08228 0
M  V30 1617 N 150.766 -0.704594 1.40972 0
M  V30 1618 C 151.729 -1.80035 1.41845 0
M  V30 1619 C 152.729 -1.57774 0.310474 0
M  V30 1620 O 153.919 -1.64613 0.56992 0
M  V30 1621 C 151.051 -3.18284 1.22098 0
M  V30 1622 H 152.244 -1.80658 2.3938 0
M  V30 1623 H 149.797 -0.911329 1.26982 0
M  V30 1624 H 150.532 -3.23306 0.253672 0
M  V30 1625 H 150.317 -3.35843 2.02366 0
M  V30 1626 H 151.807 -3.98289 1.25522 0
M  V30 1627 N 152.244 -1.26651 -0.937939 0
M  V30 1628 C 153.493 -1.11775 -1.67897 0
M  V30 1629 C 153.806 0.33794 -1.92659 0
M  V30 1630 O 155.012 0.607434 -2.64618 0
M  V30 1631 C 153.468 -1.9523 -3.02346 0
M  V30 1632 C 153.076 -3.45393 -2.8532 0
M  V30 1633 C 154.82 -1.88972 -3.80118 0
M  V30 1634 C 152.727 -4.21083 -4.15263 0
M  V30 1635 H 151.657 -0.414696 -0.629717 0
M  V30 1636 H 154.308 -1.50988 -1.04283 0
M  V30 1637 H 152.69 -1.48853 -3.66959 0
M  V30 1638 H 153.864 -3.99561 -2.29537 0
M  V30 1639 H 152.179 -3.52921 -2.20988 0
M  V30 1640 H 154.776 -2.42805 -4.76392 0
M  V30 1641 H 155.119 -0.86113 -4.07296 0
M  V30 1642 H 155.652 -2.33189 -3.22285 0
M  V30 1643 H 152.391 -5.24425 -3.93267 0
M  V30 1644 H 151.911 -3.71695 -4.70747 0
M  V30 1645 H 153.59 -4.29706 -4.83696 0
M  V30 1646 N 153.722 1.14298 -1.08507 0
M  V30 1647 C 154.999 1.81544 -0.728088 0
M  V30 1648 C 155.379 1.95838 0.78808 0
M  V30 1649 O 154.727 1.51904 1.70697 0
M  V30 1650 C 154.937 3.17169 -1.45619 0
M  V30 1651 C 156.285 3.9265 -1.61591 0
M  V30 1652 O 157.309 3.26762 -1.41793 0
M  V30 1653 O 156.168 5.10807 -1.94263 0
M  V30 1654 H 153.262 0.78491 -0.260471 0
M  V30 1655 H 155.808 1.21307 -1.18671 0
M  V30 1656 H 154.58 3.01934 -2.489 0
M  V30 1657 H 154.203 3.851 -0.989124 0
M  V30 1658 N 155.201 0.870884 1.31352 0
M  V30 1659 C 156.148 0.325425 2.28494 0
M  V30 1660 C 157.118 -0.576615 1.5577 0
M  V30 1661 O 158.303 -0.508059 1.83911 0
M  V30 1662 C 155.443 -0.466283 3.41935 0
M  V30 1663 C 154.556 0.463378 4.29508 0
M  V30 1664 C 153.691 -0.342544 5.30094 0
M  V30 1665 C 152.73 0.583486 6.09313 0
M  V30 1666 N 151.867 -0.186244 7.01853 0
M  V30 1667 H 156.707 1.15901 2.74538 0
M  V30 1668 H 154.244 0.58294 1.35056 0
M  V30 1669 H 156.202 -0.941085 4.06447 0
M  V30 1670 H 154.832 -1.26456 2.97 0
M  V30 1671 H 153.884 1.05663 3.65431 0
M  V30 1672 H 155.196 1.1734 4.84802 0
M  V30 1673 H 154.35 -0.879816 6.00287 0
M  V30 1674 H 153.089 -1.08585 4.75458 0
M  V30 1675 H 152.094 1.13251 5.3801 0
M  V30 1676 H 153.319 1.32566 6.66035 0
M  V30 1677 H 151.265 -0.912348 6.49625 0
M  V30 1678 H 151.182 0.464422 7.54572 0
M  V30 1679 H 152.45 -0.704716 7.76308 0
M  V30 1680 N 156.679 -1.44442 0.630414 0
M  V30 1681 C 157.609 -2.33418 -0.0618083 0
M  V30 1682 C 158.59 -1.48165 -0.835541 0
M  V30 1683 O 159.775 -1.76886 -0.801564 0
M  V30 1684 C 156.905 -3.31222 -1.04449 0
M  V30 1685 C 155.859 -4.26288 -0.382436 0
M  V30 1686 C 155.185 -5.13954 -1.47497 0
M  V30 1687 C 156.485 -5.1744 0.710865 0
M  V30 1688 H 158.179 -2.91548 0.681184 0
M  V30 1689 H 155.725 -1.40191 0.329026 0
M  V30 1690 H 157.678 -3.92351 -1.53748 0
M  V30 1691 H 156.402 -2.71299 -1.81836 0
M  V30 1692 H 155.061 -3.6649 0.0899054 0
M  V30 1693 H 154.709 -4.50385 -2.2397 0
M  V30 1694 H 154.409 -5.7837 -1.03737 0
M  V30 1695 H 155.933 -5.77955 -1.96979 0
M  V30 1696 H 157.347 -5.72509 0.300996 0
M  V30 1697 H 155.744 -5.90455 1.07156 0
M  V30 1698 H 156.814 -4.58496 1.57829 0
M  V30 1699 N 158.157 -0.370918 -1.53173 0
M  V30 1700 C 159.404 0.217102 -2.01333 0
M  V30 1701 C 159.732 1.48338 -1.25802 0
M  V30 1702 O 158.987 1.92698 -0.34146 0
M  V30 1703 C 159.286 0.549696 -3.53147 0
M  V30 1704 C 158.952 -0.622872 -4.46577 0
M  V30 1705 C 157.614 -0.944595 -4.71838 0
M  V30 1706 C 159.966 -1.40819 -5.01816 0
M  V30 1707 C 157.294 -2.05351 -5.49589 0
M  V30 1708 C 159.646 -2.50757 -5.80778 0
M  V30 1709 C 158.31 -2.83458 -6.04324 0
M  V30 1710 H 157.58 0.0794431 -0.736729 0
M  V30 1711 H 160.227 -0.504481 -1.84736 0
M  V30 1712 H 158.532 1.35237 -3.6772 0
M  V30 1713 H 160.229 1.017 -3.87889 0
M  V30 1714 H 156.819 -0.36209 -4.27068 0
M  V30 1715 H 161.003 -1.17289 -4.82242 0
M  V30 1716 H 156.259 -2.3108 -5.6605 0
M  V30 1717 H 160.433 -3.12022 -6.22588 0
M  V30 1718 H 158.06 -3.69508 -6.64355 0
M  V30 1719 N 159.635 1.57281 -0.100228 0
M  V30 1720 C 160.86 1.99302 0.573881 0
M  V30 1721 C 161.285 0.979059 1.60611 0
M  V30 1722 O 160.643 -0.0517803 1.81226 0
M  V30 1723 C 160.691 3.40274 1.19358 0
M  V30 1724 O 159.795 3.41676 2.30935 0
M  V30 1725 H 159.136 0.647944 0.145138 0
M  V30 1726 H 161.666 2.03779 -0.183156 0
M  V30 1727 H 161.676 3.78078 1.53365 0
M  V30 1728 H 160.351 4.13594 0.437385 0
M  V30 1729 H 158.928 3.15672 1.98509 0
M  V30 1730 N 161.113 -0.173488 1.56642 0
M  V30 1731 C 162.046 -1.24353 1.91342 0
M  V30 1732 C 163.024 -1.4289 0.775965 0
M  V30 1733 O 164.208 -1.57932 1.02907 0
M  V30 1734 C 161.335 -2.60683 2.16245 0
M  V30 1735 C 160.381 -2.58894 3.38934 0
M  V30 1736 S 161.214 -2.0819 4.93373 0
M  V30 1737 C 162.37 -3.46302 5.21369 0
M  V30 1738 H 162.603 -0.947345 2.81803 0
M  V30 1739 H 160.136 -0.377958 1.49703 0
M  V30 1740 H 162.094 -3.39149 2.31275 0
M  V30 1741 H 160.755 -2.87502 1.26496 0
M  V30 1742 H 159.948 -3.59188 3.53553 0
M  V30 1743 H 159.55 -1.88522 3.2301 0
M  V30 1744 H 161.842 -4.42287 5.13214 0
M  V30 1745 H 162.785 -3.3656 6.23003 0
M  V30 1746 H 163.193 -3.42214 4.48943 0
M  V30 1747 N 162.591 -1.51276 -0.441967 0
M  V30 1748 C 163.521 -1.752 -1.54361 0
M  V30 1749 C 164.502 -0.601682 -1.59103 0
M  V30 1750 O 165.687 -0.843913 -1.74905 0
M  V30 1751 C 162.817 -1.87282 -2.92477 0
M  V30 1752 C 161.771 -3.02687 -3.02596 0
M  V30 1753 C 161.097 -2.99947 -4.42647 0
M  V30 1754 C 162.397 -4.4273 -2.77106 0
M  V30 1755 H 164.091 -2.67442 -1.34592 0
M  V30 1756 H 161.637 -1.28694 -0.646048 0
M  V30 1757 H 163.59 -2.02602 -3.695 0
M  V30 1758 H 162.314 -0.916844 -3.13467 0
M  V30 1759 H 160.973 -2.87065 -2.28012 0
M  V30 1760 H 160.621 -2.02136 -4.60597 0
M  V30 1761 H 160.321 -3.77439 -4.50348 0
M  V30 1762 H 161.845 -3.17354 -5.2165 0
M  V30 1763 H 163.259 -4.58727 -3.43864 0
M  V30 1764 H 161.656 -5.21893 -2.96222 0
M  V30 1765 H 162.726 -4.53087 -1.72744 0
M  V30 1766 N 164.069 0.697108 -1.41344 0
M  V30 1767 C 165.016 1.81106 -1.43071 0
M  V30 1768 C 165.986 1.63632 -0.285275 0
M  V30 1769 O 167.171 1.84504 -0.486091 0
M  V30 1770 C 164.311 3.18975 -1.31715 0
M  V30 1771 C 163.424 3.47892 -2.56115 0
M  V30 1772 C 162.559 4.75367 -2.37064 0
M  V30 1773 C 161.598 4.97247 -3.56948 0
M  V30 1774 N 160.735 6.15947 -3.36977 0
M  V30 1775 H 165.575 1.78965 -2.38276 0
M  V30 1776 H 163.112 0.873975 -1.18322 0
M  V30 1777 H 165.07 3.98615 -1.23133 0
M  V30 1778 H 163.7 3.20297 -0.401183 0
M  V30 1779 H 162.752 2.62669 -2.75153 0
M  V30 1780 H 164.064 3.59962 -3.45295 0
M  V30 1781 H 163.218 5.63059 -2.25941 0
M  V30 1782 H 161.957 4.65541 -1.45338 0
M  V30 1783 H 160.962 4.08004 -3.68527 0
M  V30 1784 H 162.187 5.08934 -4.49626 0
M  V30 1785 H 160.133 6.07336 -2.47949 0
M  V30 1786 H 160.05 6.28777 -4.19732 0
M  V30 1787 H 161.318 7.06377 -3.29623 0
M  V30 1788 N 165.547 1.27147 0.931209 0
M  V30 1789 C 166.824 1.0401 1.65654 0
M  V30 1790 C 167.204 -0.426297 2.06751 0
M  V30 1791 O 166.552 -1.40879 1.79904 0
M  V30 1792 C 166.762 1.99834 2.86125 0
M  V30 1793 C 168.11 2.29007 3.57549 0
M  V30 1794 O 169.134 1.97779 2.96246 0
M  V30 1795 O 167.993 2.82222 4.67989 0
M  V30 1796 H 165.087 0.396239 0.725895 0
M  V30 1797 H 167.633 1.38397 0.982056 0
M  V30 1798 H 166.405 2.98744 2.52721 0
M  V30 1799 H 166.028 1.65987 3.61295 0
M  V30 1800 N 167.025 -1.13721 1.09112 0
M  V30 1801 C 168.273 -1.84559 0.823562 0
M  V30 1802 C 168.594 -1.83754 -0.652658 0
M  V30 1803 O 167.864 -1.29102 -1.47342 0
M  V30 1804 H 166.444 -0.683376 0.301673 0
M  V30 1805 H 169.106 -1.37771 1.37859 0
M  V30 1806 H 168.202 -2.8917 1.17419 0
M  V30 1807 N 168.503 -0.877838 -1.30888 0
M  V30 1808 C 169.749 -0.493426 -1.96706 0
M  V30 1809 C 170.082 0.953504 -1.6918 0
M  V30 1810 O 169.357 1.67266 -0.992594 0
M  V30 1811 C 169.64 -0.760429 -3.51979 0
M  V30 1812 C 169.493 -2.25747 -3.89048 0
M  V30 1813 C 170.812 -0.232148 -4.39487 0
M  V30 1814 H 167.931 -0.180746 -0.714493 0
M  V30 1815 H 170.573 -1.10052 -1.54882 0
M  V30 1816 H 168.723 -0.243715 -3.87735 0
M  V30 1817 H 170.395 -2.84204 -3.63354 0
M  V30 1818 H 168.638 -2.72694 -3.37373 0
M  V30 1819 H 169.309 -2.39491 -4.97341 0
M  V30 1820 H 171.785 -0.674314 -4.106 0
M  V30 1821 H 170.661 -0.448355 -5.47066 0
M  V30 1822 H 170.922 0.866297 -4.33529 0
M  V30 1823 N 169.982 1.44106 -0.638065 0
M  V30 1824 C 171.228 2.02277 -0.145546 0
M  V30 1825 C 171.561 1.50125 1.23191 0
M  V30 1826 O 170.836 0.688133 1.8192 0
M  V30 1827 C 171.119 3.59829 -0.139791 0
M  V30 1828 C 170.972 4.22247 -1.55008 0
M  V30 1829 C 172.291 4.36873 0.531966 0
M  V30 1830 H 169.41 0.734992 -0.0543632 0
M  V30 1831 H 172.052 1.71592 -0.815863 0
M  V30 1832 H 170.202 3.86102 0.431007 0
M  V30 1833 H 171.874 4.07057 -2.1703 0
M  V30 1834 H 170.117 3.79476 -2.10191 0
M  V30 1835 H 170.788 5.31284 -1.49804 0
M  V30 1836 H 173.264 4.16074 0.0464781 0
M  V30 1837 H 172.14 5.4657 0.505206 0
M  V30 1838 H 172.401 4.11995 1.60352 0
M  V30 1839 N 171.46 0.379036 1.52974 0
M  V30 1840 C 172.39 -0.452706 2.29069 0
M  V30 1841 C 173.371 -1.07237 1.32039 0
M  V30 1842 O 174.556 -1.08708 1.60923 0
M  V30 1843 C 171.686 -1.5856 3.08992 0
M  V30 1844 C 170.64 -1.0925 4.13822 0
M  V30 1845 C 169.966 -2.31668 4.81907 0
M  V30 1846 C 171.266 -0.167702 5.22031 0
M  V30 1847 H 172.96 0.182181 2.98845 0
M  V30 1848 H 170.506 0.0890592 1.43724 0
M  V30 1849 H 172.459 -2.1742 3.6098 0
M  V30 1850 H 171.183 -2.24792 2.36931 0
M  V30 1851 H 169.842 -0.526494 3.628 0
M  V30 1852 H 169.49 -2.96386 4.06404 0
M  V30 1853 H 169.19 -1.9934 5.52754 0
M  V30 1854 H 170.714 -2.91189 5.36695 0
M  V30 1855 H 172.128 -0.664186 5.6944 0
M  V30 1856 H 170.525 0.0653265 6.00064 0
M  V30 1857 H 171.595 0.786347 4.78482 0
M  V30 1858 N 172.938 -1.57226 0.108567 0
M  V30 1859 C 173.885 -2.14756 -0.845481 0
M  V30 1860 C 174.855 -1.06971 -1.27068 0
M  V30 1861 O 176.04 -1.34827 -1.35005 0
M  V30 1862 C 173.18 -2.74298 -2.09415 0
M  V30 1863 C 172.293 -3.96358 -1.71826 0
M  V30 1864 C 171.428 -4.44021 -2.9158 0
M  V30 1865 C 170.467 -5.58637 -2.50181 0
M  V30 1866 N 169.604 -6.01091 -3.62814 0
M  V30 1867 H 174.444 -2.95961 -0.348035 0
M  V30 1868 H 171.981 -1.46226 -0.160106 0
M  V30 1869 H 173.939 -3.06945 -2.82561 0
M  V30 1870 H 172.569 -1.95801 -2.56636 0
M  V30 1871 H 171.621 -3.69939 -0.885947 0
M  V30 1872 H 172.933 -4.79504 -1.37394 0
M  V30 1873 H 172.087 -4.78522 -3.72963 0
M  V30 1874 H 170.826 -3.59803 -3.29231 0
M  V30 1875 H 169.831 -5.23751 -1.67228 0
M  V30 1876 H 171.056 -6.44613 -2.13659 0
M  V30 1877 H 169.002 -5.19817 -4.00158 0
M  V30 1878 H 168.919 -6.79066 -3.32273 0
M  V30 1879 H 170.187 -6.40227 -4.44668 0
M  V30 1880 N 174.416 0.165178 -1.56732 0
M  V30 1881 C 175.664 0.879068 -1.8198 0
M  V30 1882 C 175.985 1.82514 -0.686561 0
M  V30 1883 O 175.255 1.93694 0.293146 0
M  V30 1884 H 173.835 0.327608 -0.671329 0
M  V30 1885 H 176.497 0.163526 -1.94213 0
M  V30 1886 H 175.593 1.45228 -2.76252 0
M  V30 1887 N 175.894 1.51508 0.433938 0
M  V30 1888 C 176.842 1.73646 1.54757 0
M  V30 1889 C 177.836 0.602854 1.5831 0
M  V30 1890 O 179.042 0.784318 1.62014 0
M  V30 1891 H 175.417 0.548718 0.51421 0
M  V30 1892 H 177.388 2.66991 1.33261 0
M  V30 1893 C 176.137 1.88172 2.92381 0
M  V30 1894 H 175.46 2.74808 2.90381 0
M  V30 1895 H 176.9 2.07672 3.6966 0
M  V30 1896 C 175.359 0.64239 3.30719 0
M  V30 1897 O 175.889 -0.201362 4.01195 0
M  V30 1898 N 174.095 0.485489 2.86516 0
M  V30 1899 H 173.642 1.17318 2.29334 0
M  V30 1900 H 173.6 -0.342482 3.12529 0
M  V30 1901 N 177.372 -0.689602 1.41712 0
M  V30 1902 C 178.319 -1.80345 1.44029 0
M  V30 1903 C 179.289 -1.63478 0.293948 0
M  V30 1904 O 180.474 -1.84244 0.495869 0
M  V30 1905 C 177.614 -3.18272 1.33405 0
M  V30 1906 C 176.727 -3.46529 2.57956 0
M  V30 1907 C 175.862 -4.74103 2.39582 0
M  V30 1908 C 174.901 -4.95347 3.5958 0
M  V30 1909 N 174.038 -6.14151 3.40239 0
M  V30 1910 H 178.878 -1.77698 2.39222 0
M  V30 1911 H 176.415 -0.867688 1.18784 0
M  V30 1912 H 178.373 -3.97956 1.25246 0
M  V30 1913 H 177.003 -3.2008 0.418164 0
M  V30 1914 H 176.055 -2.61207 2.76542 0
M  V30 1915 H 177.367 -3.58126 3.47199 0
M  V30 1916 H 176.521 -5.61853 2.28924 0
M  V30 1917 H 175.26 -4.64763 1.47805 0
M  V30 1918 H 174.265 -4.06044 3.70686 0
M  V30 1919 H 175.49 -5.06542 4.52318 0
M  V30 1920 H 173.436 -6.06013 2.51167 0
M  V30 1921 H 173.353 -6.26543 4.23061 0
M  V30 1922 H 174.621 -7.04619 3.33365 0
M  V30 1923 N 178.85 -1.27639 -0.924453 0
M  V30 1924 C 180.099 -1.13549 -1.66702 0
M  V30 1925 C 180.412 0.317487 -1.93006 0
M  V30 1926 O 181.618 0.579333 -2.65247 0
M  V30 1927 C 180.074 -1.98426 -3.00259 0
M  V30 1928 C 179.682 -3.484 -2.81641 0
M  V30 1929 C 181.426 -1.92993 -3.78092 0
M  V30 1930 C 179.333 -4.25464 -4.10773 0
M  V30 1931 H 178.263 -0.421351 -0.625283 0
M  V30 1932 H 180.914 -1.52085 -1.02676 0
M  V30 1933 H 179.296 -1.52736 -3.6536 0
M  V30 1934 H 180.47 -4.01973 -2.25287 0
M  V30 1935 H 178.785 -3.55245 -2.17232 0
M  V30 1936 H 181.382 -2.47844 -4.7379 0
M  V30 1937 H 181.725 -0.904281 -4.0636 0
M  V30 1938 H 182.258 -2.36595 -3.19793 0
M  V30 1939 H 178.997 -5.28566 -3.87683 0
M  V30 1940 H 178.517 -3.76667 -4.66779 0
M  V30 1941 H 180.196 -4.34812 -4.79111 0
M  V30 1942 N 180.328 1.1314 -1.09713 0
M  V30 1943 C 181.276 2.20717 -0.733934 0
M  V30 1944 C 182.27 1.6729 0.266506 0
M  V30 1945 O 183.476 1.79547 0.127656 0
M  V30 1946 H 179.851 0.719292 -0.21937 0
M  V30 1947 H 181.822 2.48611 -1.6503 0
M  V30 1948 C 180.571 3.47265 -0.173849 0
M  V30 1949 H 179.894 3.88716 -0.934873 0
M  V30 1950 H 181.334 4.23979 0.0423126 0
M  V30 1951 C 179.793 3.18724 1.09164 0
M  V30 1952 O 180.323 3.37762 2.17439 0
M  V30 1953 N 178.529 2.72583 1.00732 0
M  V30 1954 H 178.076 2.57291 0.126121 0
M  V30 1955 H 178.034 2.53862 1.85476 0
M  V30 1956 N 181.806 0.884767 1.30421 0
M  V30 1957 C 183.083 0.423185 1.90967 0
M  V30 1958 C 183.463 -1.09605 1.80416 0
M  V30 1959 O 182.811 -1.93126 1.22125 0
M  V30 1960 C 183.021 0.921056 3.36627 0
M  V30 1961 C 184.369 0.955903 4.137 0
M  V30 1962 O 185.393 0.867706 3.4547 0
M  V30 1963 O 184.252 1.08614 5.35598 0
M  V30 1964 H 181.346 0.129369 0.816819 0
M  V30 1965 H 183.892 0.973653 1.3899 0
M  V30 1966 H 182.664 1.96489 3.3839 0
M  V30 1967 H 182.287 0.349741 3.96059 0
M  V30 1968 N 183.284 -1.43765 0.645699 0
M  V30 1969 C 184.512 -2.06253 0.163556 0
M  V30 1970 C 184.927 -1.48352 -1.16778 0
M  V30 1971 O 184.284 -0.611932 -1.71935 0
M  V30 1972 C 184.335 -3.61453 0.0583186 0
M  V30 1973 O 184.056 -4.172 1.33702 0
M  V30 1974 C 185.557 -4.41002 -0.450795 0
M  V30 1975 H 182.777 -0.665413 0.0864077 0
M  V30 1976 H 185.321 -1.84396 0.884222 0
M  V30 1977 H 183.476 -3.82522 -0.612865 0
M  V30 1978 H 183.89 -5.10791 1.19131 0
M  V30 1979 H 185.364 -5.49966 -0.473403 0
M  V30 1980 H 185.841 -4.13488 -1.48068 0
M  V30 1981 H 186.447 -4.24886 0.187637 0
M  V30 1982 N 184.763 -0.387143 -1.52771 0
M  V30 1983 C 186.012 0.19697 -2.00736 0
M  V30 1984 C 186.325 1.48082 -1.27793 0
M  V30 1985 O 187.531 2.14485 -1.66458 0
M  V30 1986 C 185.987 0.401568 -3.57653 0
M  V30 1987 C 185.595 -0.868907 -4.39493 0
M  V30 1988 C 187.339 0.942164 -4.13912 0
M  V30 1989 C 185.246 -0.632705 -5.88006 0
M  V30 1990 H 184.176 0.0773827 -0.750019 0
M  V30 1991 H 186.827 -0.50921 -1.76293 0
M  V30 1992 H 185.209 1.16954 -3.78335 0
M  V30 1993 H 186.383 -1.64133 -4.30577 0
M  V30 1994 H 184.698 -1.33429 -3.94443 0
M  V30 1995 H 187.295 1.13455 -5.22525 0
M  V30 1996 H 187.638 1.9106 -3.69867 0
M  V30 1997 H 188.171 0.233814 -3.97112 0
M  V30 1998 H 184.91 -1.57208 -6.36369 0
M  V30 1999 H 184.43 0.100825 -5.99715 0
M  V30 2000 H 186.109 -0.26642 -6.46451 0
M  V30 2001 N 186.241 1.57166 -0.116904 0
M  V30 2002 C 187.171 2.18222 0.830759 0
M  V30 2003 C 188.152 1.12167 1.27877 0
M  V30 2004 O 189.337 1.40394 1.34176 0
M  V30 2005 C 186.467 2.77996 2.08172 0
M  V30 2006 C 185.421 3.89614 1.77157 0
M  V30 2007 C 184.747 4.36187 3.09265 0
M  V30 2008 C 186.047 5.1181 1.04151 0
M  V30 2009 H 187.741 2.97664 0.321992 0
M  V30 2010 H 185.287 1.4318 0.153434 0
M  V30 2011 H 187.24 3.19366 2.74924 0
M  V30 2012 H 185.964 1.9584 2.6137 0
M  V30 2013 H 184.623 3.48816 1.12796 0
M  V30 2014 H 184.271 3.50893 3.60393 0
M  V30 2015 H 183.971 5.11455 2.89288 0
M  V30 2016 H 185.495 4.80207 3.77139 0
M  V30 2017 H 186.909 5.50214 1.61052 0
M  V30 2018 H 185.306 5.92648 0.942762 0
M  V30 2019 H 186.376 4.84892 0.0279022 0
M  V30 2020 N 187.719 -0.156864 1.56817 0
M  V30 2021 C 188.968 -0.869504 1.81996 0
M  V30 2022 C 189.281 -1.82777 0.696545 0
M  V30 2023 O 190.487 -2.58384 0.833658 0
M  V30 2024 C 188.943 -1.59679 3.22538 0
M  V30 2025 C 188.551 -0.681431 4.42787 0
M  V30 2026 C 190.295 -2.2968 3.56997 0
M  V30 2027 C 188.202 -1.40978 5.74351 0
M  V30 2028 H 187.132 -0.328438 0.678708 0
M  V30 2029 H 189.783 -0.1223 1.83092 0
M  V30 2030 H 188.165 -2.38927 3.158 0
M  V30 2031 H 189.339 0.0751166 4.60739 0
M  V30 2032 H 187.654 -0.0903431 4.16302 0
M  V30 2033 H 190.251 -2.84794 4.52544 0
M  V30 2034 H 190.594 -3.05707 2.82576 0
M  V30 2035 H 191.127 -1.57361 3.65352 0
M  V30 2036 H 187.866 -0.691561 6.51842 0
M  V30 2037 H 187.386 -2.13929 5.60352 0
M  V30 2038 H 189.065 -1.95337 6.16808 0
M  V30 2039 N 189.197 -1.51736 -0.425897 0
M  V30 2040 C 190.107 -1.76738 -1.54275 0
M  V30 2041 C 191.123 -0.65211 -1.61318 0
M  V30 2042 O 192.299 -0.935654 -1.78346 0
M  V30 2043 C 189.364 -1.89755 -2.90162 0
M  V30 2044 C 188.425 -3.13633 -2.93143 0
M  V30 2045 C 187.658 -3.2602 -4.22548 0
M  V30 2046 O 187.881 -2.44067 -5.15546 0
M  V30 2047 O 186.815 -4.19071 -4.32046 0
M  V30 2048 H 190.641 -2.71502 -1.36089 0
M  V30 2049 H 188.226 -1.36376 -0.610069 0
M  V30 2050 H 190.108 -2.00236 -3.70788 0
M  V30 2051 H 188.783 -0.981785 -3.08452 0
M  V30 2052 H 187.69 -3.08622 -2.11431 0
M  V30 2053 H 189.023 -4.04936 -2.798 0
M  V30 2054 N 190.675 0.682077 -1.42076 0
M  V30 2055 C 191.622 1.79578 -1.44984 0
M  V30 2056 C 192.592 1.6332 -0.302614 0
M  V30 2057 O 193.777 1.83978 -0.505633 0
M  V30 2058 C 190.917 3.1756 -1.35091 0
M  V30 2059 C 190.03 3.45156 -2.59791 0
M  V30 2060 C 189.165 4.72826 -2.42093 0
M  V30 2061 C 188.204 4.93433 -3.62202 0
M  V30 2062 N 187.341 6.12338 -3.43491 0
M  V30 2063 H 192.181 1.76427 -2.40161 0
M  V30 2064 H 189.718 0.861376 -1.19242 0
M  V30 2065 H 191.676 3.97287 -1.27354 0
M  V30 2066 H 190.306 3.19854 -0.435133 0
M  V30 2067 H 189.358 2.59736 -2.77923 0
M  V30 2068 H 190.67 3.5628 -3.49094 0
M  V30 2069 H 189.824 5.60631 -2.319 0
M  V30 2070 H 188.563 4.63973 -1.50268 0
M  V30 2071 H 187.568 4.04073 -3.72834 0
M  V30 2072 H 188.793 5.04136 -4.54998 0
M  V30 2073 H 186.739 6.04672 -2.54377 0
M  V30 2074 H 186.656 6.2429 -4.26377 0
M  V30 2075 H 187.924 7.02841 -3.37097 0
M  V30 2076 N 192.153 1.28127 0.917671 0
M  V30 2077 C 193.43 1.05761 1.64542 0
M  V30 2078 C 193.81 -0.404344 2.07191 0
M  V30 2079 O 193.158 -1.38963 1.81388 0
M  V30 2080 C 193.368 2.02857 2.83989 0
M  V30 2081 C 194.716 2.32786 3.551 0
M  V30 2082 O 195.74 2.0091 2.94132 0
M  V30 2083 O 194.599 2.87169 4.64969 0
M  V30 2084 H 191.693 0.403916 0.721652 0
M  V30 2085 H 194.239 1.39431 0.967322 0
M  V30 2086 H 193.011 3.01407 2.49538 0
M  V30 2087 H 192.634 1.69809 3.59514 0
M  V30 2088 N 193.631 -1.12557 1.10312 0
M  V30 2089 C 194.879 -1.83675 0.843091 0
M  V30 2090 C 195.2 -1.84435 -0.633131 0
M  V30 2091 O 194.47 -1.30657 -1.45964 0
M  V30 2092 H 193.05 -0.680138 0.308904 0
M  V30 2093 H 195.712 -1.36301 1.39313 0
M  V30 2094 H 194.808 -2.87908 1.2048 0
M  V30 2095 N 195.109 -0.891671 -1.2995 0
M  V30 2096 C 196.019 -0.367691 -2.31701 0
M  V30 2097 C 197.035 0.533486 -1.6562 0
M  V30 2098 O 198.211 0.424997 -1.96865 0
M  V30 2099 C 195.276 0.403406 -3.44345 0
M  V30 2100 C 194.337 -0.528328 -4.26037 0
M  V30 2101 C 193.57 0.206063 -5.33302 0
M  V30 2102 O 193.793 1.43119 -5.52153 0
M  V30 2103 O 192.727 -0.447281 -6.00236 0
M  V30 2104 H 196.553 -1.21163 -2.78484 0
M  V30 2105 H 194.138 -0.655725 -1.34241 0
M  V30 2106 H 196.02 0.839753 -4.12948 0
M  V30 2107 H 194.695 1.22354 -2.99685 0
M  V30 2108 H 193.602 -1.01362 -3.60106 0
M  V30 2109 H 194.935 -1.31465 -4.74318 0
M  V30 2110 N 196.587 1.43421 -0.653314 0
M  V30 2111 C 197.833 2.02111 -0.166992 0
M  V30 2112 C 198.166 1.51423 1.21592 0
M  V30 2113 O 197.441 0.707389 1.8118 0
M  V30 2114 C 197.724 3.5966 -0.177948 0
M  V30 2115 C 197.577 4.20579 -1.59478 0
M  V30 2116 C 198.896 4.37413 0.4856 0
M  V30 2117 H 196.015 0.734374 -0.0621557 0
M  V30 2118 H 198.657 1.70717 -0.834016 0
M  V30 2119 H 196.807 3.86537 0.390032 0
M  V30 2120 H 198.479 4.04732 -2.21336 0
M  V30 2121 H 196.722 3.77226 -2.14204 0
M  V30 2122 H 197.393 5.29665 -1.5543 0
M  V30 2123 H 199.869 4.161 0.00234528 0
M  V30 2124 H 198.745 5.47075 0.447207 0
M  V30 2125 H 199.006 4.13672 1.55974 0
M  V30 2126 N 198.065 0.39524 1.52563 0
M  V30 2127 C 199.012 -0.437036 2.26624 0
M  V30 2128 C 199.982 -1.05281 1.28472 0
M  V30 2129 O 201.167 -1.07971 1.57311 0
M  V30 2130 C 198.307 -1.55524 3.08069 0
M  V30 2131 C 197.42 -0.961745 4.21158 0
M  V30 2132 C 196.555 -2.05149 4.89987 0
M  V30 2133 C 195.594 -1.4342 5.95061 0
M  V30 2134 N 194.731 -2.46351 6.57462 0
M  V30 2135 H 199.571 0.200976 2.97322 0
M  V30 2136 H 197.108 0.110944 1.46681 0
M  V30 2137 H 199.066 -2.21437 3.53584 0
M  V30 2138 H 197.696 -2.16348 2.3957 0
M  V30 2139 H 196.748 -0.192048 3.79915 0
M  V30 2140 H 198.06 -0.470701 4.96574 0
M  V30 2141 H 197.214 -2.78819 5.38837 0
M  V30 2142 H 195.953 -2.57615 4.14109 0
M  V30 2143 H 194.958 -0.682774 5.45544 0
M  V30 2144 H 196.183 -0.917416 6.72875 0
M  V30 2145 H 194.129 -2.97975 5.8442 0
M  V30 2146 H 194.046 -2.02019 7.28508 0
M  V30 2147 H 195.314 -3.19633 7.10954 0
M  V30 2148 N 199.544 -1.57102 0.125237 0
M  V30 2149 C 200.474 -2.18659 -0.819174 0
M  V30 2150 C 201.455 -1.12843 -1.27281 0
M  V30 2151 O 202.64 -1.41104 -1.33429 0
M  V30 2152 C 199.77 -2.79096 -2.06695 0
M  V30 2153 C 198.724 -3.90548 -1.75088 0
M  V30 2154 C 198.05 -4.37821 -3.06948 0
M  V30 2155 C 199.35 -5.12356 -1.01435 0
M  V30 2156 H 201.044 -2.9783 -0.306202 0
M  V30 2157 H 198.59 -1.4326 -0.145839 0
M  V30 2158 H 200.543 -3.2082 -2.73226 0
M  V30 2159 H 199.267 -1.97223 -2.60328 0
M  V30 2160 H 197.926 -3.49409 -1.10944 0
M  V30 2161 H 197.574 -3.52799 -3.58527 0
M  V30 2162 H 197.274 -5.12982 -2.86571 0
M  V30 2163 H 198.798 -4.822 -3.74587 0
M  V30 2164 H 200.212 -5.5106 -1.58132 0
M  V30 2165 H 198.609 -5.9314 -0.911319 0
M  V30 2166 H 199.679 -4.849 -0.00218681 0
M  V30 2167 N 201.022 0.148545 -1.56898 0
M  V30 2168 C 201.969 1.18345 -1.98149 0
M  V30 2169 C 202.939 1.42772 -0.848848 0
M  V30 2170 O 204.124 1.55132 -1.11079 0
M  V30 2171 C 201.264 2.51231 -2.36594 0
M  V30 2172 C 200.377 2.33991 -3.63142 0
M  V30 2173 C 199.512 3.59902 -3.90697 0
M  V30 2174 C 198.551 3.37692 -5.1052 0
M  V30 2175 N 197.688 4.5573 -5.34092 0
M  V30 2176 H 202.528 0.82467 -2.86362 0
M  V30 2177 H 200.065 0.395756 -1.41676 0
M  V30 2178 H 202.023 3.28713 -2.56912 0
M  V30 2179 H 200.653 2.85059 -1.51463 0
M  V30 2180 H 199.705 1.47572 -3.50609 0
M  V30 2181 H 201.017 2.13539 -4.5078 0
M  V30 2182 H 200.171 4.45813 -4.11505 0
M  V30 2183 H 198.91 3.83357 -3.01477 0
M  V30 2184 H 197.915 2.5017 -4.89587 0
M  V30 2185 H 199.14 3.15637 -6.0129 0
M  V30 2186 H 197.086 4.79361 -4.47827 0
M  V30 2187 H 197.003 4.38274 -6.15996 0
M  V30 2188 H 198.271 5.42858 -5.59397 0
M  V30 2189 N 202.5 1.5196 0.417844 0
M  V30 2190 C 203.43 1.77634 1.51554 0
M  V30 2191 C 204.411 0.626918 1.58126 0
M  V30 2192 O 205.596 0.871632 1.7354 0
M  V30 2193 C 202.726 1.91911 2.8946 0
M  V30 2194 C 201.68 3.07463 2.97743 0
M  V30 2195 C 201.006 3.06951 4.37819 0
M  V30 2196 C 202.306 4.47082 2.70027 0
M  V30 2197 H 204 2.6955 1.3032 0
M  V30 2198 H 201.546 1.29706 0.625492 0
M  V30 2199 H 203.499 2.08455 3.6623 0
M  V30 2200 H 202.223 0.966598 3.11969 0
M  V30 2201 H 200.882 2.90656 2.23416 0
M  V30 2202 H 200.53 2.09438 4.57323 0
M  V30 2203 H 200.23 3.84556 4.44286 0
M  V30 2204 H 201.754 3.25613 5.16535 0
M  V30 2205 H 203.168 4.6414 3.36522 0
M  V30 2206 H 201.565 5.2654 2.87881 0
M  V30 2207 H 202.635 4.55777 1.65514 0
M  V30 2208 N 203.978 -0.674533 1.42435 0
M  V30 2209 C 205.227 -1.43034 1.42212 0
M  V30 2210 C 205.54 -1.95555 0.0420788 0
M  V30 2211 O 206.746 -2.71374 -0.0827558 0
M  V30 2212 C 205.202 -2.58748 2.50155 0
M  V30 2213 C 204.81 -2.12925 3.94166 0
M  V30 2214 C 206.554 -3.36257 2.59098 0
M  V30 2215 C 204.461 -3.25723 4.93618 0
M  V30 2216 H 203.391 -0.537345 0.528939 0
M  V30 2217 H 206.042 -0.73024 1.68344 0
M  V30 2218 H 204.424 -3.31128 2.17188 0
M  V30 2219 H 205.598 -1.47697 4.36488 0
M  V30 2220 H 203.913 -1.48354 3.89076 0
M  V30 2221 H 206.51 -4.20264 3.30578 0
M  V30 2222 H 206.853 -3.82866 1.63461 0
M  V30 2223 H 207.386 -2.70947 2.9126 0
M  V30 2224 H 204.125 -2.84105 5.90732 0
M  V30 2225 H 203.645 -3.89732 4.55926 0
M  V30 2226 H 205.324 -3.91186 5.15347 0
M  V30 2227 N 205.456 -1.28612 -0.910864 0
M  V30 2228 C 206.872 -1.06381 -1.18976 0
M  V30 2229 C 207.072 0.191998 -2.00583 0
M  V30 2230 O 206.128 0.892869 -2.36187 0
M  V30 2231 C 207.441 -2.31295 -1.92154 0
M  V30 2232 C 208.989 -2.36503 -2.05025 0
M  V30 2233 C 209.464 -3.61191 -2.81612 0
M  V30 2234 N 210.955 -3.61847 -2.89172 0
M  V30 2235 C 211.69 -4.55004 -3.4894 0
M  V30 2236 N 211.186 -5.58482 -4.09963 0
M  V30 2237 N 212.979 -4.42594 -3.46506 0
M  V30 2238 H 205.13 -2.09221 -0.366094 0
M  V30 2239 H 207.393 -0.921003 -0.224629 0
M  V30 2240 H 207.099 -3.228 -1.39618 0
M  V30 2241 H 206.973 -2.37934 -2.9269 0
M  V30 2242 H 209.36 -1.45494 -2.5674 0
M  V30 2243 H 209.441 -2.33857 -1.03657 0
M  V30 2244 H 209.085 -4.52545 -2.30576 0
M  V30 2245 H 209.015 -3.61092 -3.83302 0
M  V30 2246 H 211.506 -2.87022 -2.45819 0
M  V30 2247 H 211.819 -6.25704 -4.53557 0
M  V30 2248 H 210.164 -5.62305 -4.08459 0
M  V30 2249 H 213.355 -3.60953 -2.98045 0
M  V30 2250 H 213.528 -5.15381 -3.92793 0
M  V30 2251 N 206.934 1.1197 -1.10907 0
M  V30 2252 C 208.182 1.83225 -0.852819 0
M  V30 2253 C 208.503 1.84769 0.623341 0
M  V30 2254 O 207.773 1.3143 1.45269 0
M  V30 2255 H 206.353 0.67849 -0.312507 0
M  V30 2256 H 209.015 1.3556 -1.40033 0
M  V30 2257 H 208.111 2.87265 -1.22005 0
M  V30 2258 N 208.412 0.89855 1.29475 0
M  V30 2259 C 209.661 0.519863 1.94885 0
M  V30 2260 C 209.974 -0.9383 1.71625 0
M  V30 2261 O 211.18 -1.42445 2.31131 0
M  V30 2262 C 209.636 0.878836 3.49005 0
M  V30 2263 C 209.244 2.35569 3.81066 0
M  V30 2264 C 210.988 0.570004 4.20656 0
M  V30 2265 C 208.895 2.65558 5.28425 0
M  V30 2266 H 207.825 0.190692 0.729488 0
M  V30 2267 H 210.476 1.09539 1.47219 0
M  V30 2268 H 208.858 0.232253 3.95318 0
M  V30 2269 H 210.032 3.04773 3.45616 0
M  V30 2270 H 208.347 2.63343 3.22552 0
M  V30 2271 H 210.944 0.770925 5.29113 0
M  V30 2272 H 211.287 -0.491404 4.1339 0
M  V30 2273 H 211.82 1.17438 3.8007 0
M  V30 2274 H 208.559 3.70493 5.40754 0
M  V30 2275 H 208.079 2.00977 5.65127 0
M  V30 2276 H 209.758 2.51765 5.96006 0
M  V30 2277 O 209.929 -1.40275 0.80033 0
M  V30 2278 H 210.62 -1.90048 0.374337 0
M  V30 END ATOM
M  V30 BEGIN BOND
M  V30 END BOND
M  V30 END CTAB
M  END
$$$$
