drugbank_target|P0A1V8 Beta-lactamase OXA-2 (DB01942; DB03801)
 OpenBabel12092119593D

  0  0  0     0  0            999 V3000
M  V30 BEGIN CTAB
M  V30 COUNTS 4450 4508 0 0 0
M  V30 BEGIN ATOM
M  V30 1 H -0.908 1.98254 -0.117106 0
M  V30 2 N 0 1.576 0 0
M  V30 3 C 0.933 2.03868 1.02534 0
M  V30 4 C 1.911 0.928543 1.3348 0
M  V30 5 O 3.095 1.19667 1.45644 0
M  V30 6 C 0.222 2.43627 2.35294 0
M  V30 7 C -0.732 3.65373 2.2001 0
M  V30 8 S 0.101 5.13292 1.52614 0
M  V30 9 C 1.257 5.56322 2.86805 0
M  V30 10 H 1.49 2.90518 0.631377 0
M  V30 11 H -0.977 1.52953 0.210867 0
M  V30 12 H 0.981 2.67203 3.11629 0
M  V30 13 H -0.358 1.57376 2.7183 0
M  V30 14 H -1.165 3.90944 3.18086 0
M  V30 15 H -1.563 3.418 1.51819 0
M  V30 16 H 0.729 5.58782 3.83104 0
M  V30 17 H 1.672 6.56266 2.65933 0
M  V30 18 H 2.08 4.83886 2.90714 0
M  V30 19 N 1.4781 -0.272755 1.55222 0
M  V30 20 C 2.4411 -1.32041 1.87344 0
M  V30 21 C 3.4411 -1.42342 0.74803 0
M  V30 22 O 4.6311 -1.41488 1.0162 0
M  V30 23 C 1.7631 -2.70173 2.07893 0
M  V30 24 H 2.9561 -1.04789 2.80997 0
M  V30 25 H 0.5091 -0.51083 1.47717 0
M  V30 26 H 1.2441 -3.02605 1.16622 0
M  V30 27 H 1.0291 -2.64082 2.89833 0
M  V30 28 H 2.5191 -3.45869 2.34017 0
M  V30 29 N 2.9562 -1.48159 -0.537278 0
M  V30 30 C 4.2052 -1.5506 -1.28993 0
M  V30 31 C 4.5182 -0.226211 -1.94288 0
M  V30 32 O 5.7242 -0.173395 -2.70946 0
M  V30 33 C 4.1802 -2.73429 -2.34018 0
M  V30 34 C 3.7882 -4.1248 -1.74825 0
M  V30 35 C 5.5322 -2.89638 -3.10339 0
M  V30 36 C 3.4392 -5.22121 -2.77747 0
M  V30 37 H 2.3692 -0.577231 -0.485098 0
M  V30 38 H 5.0202 -1.74478 -0.568317 0
M  V30 39 H 3.4022 -2.47431 -3.09182 0
M  V30 40 H 4.5762 -4.48466 -1.05899 0
M  V30 41 H 2.8912 -4.01327 -1.11022 0
M  V30 42 H 5.4882 -3.68718 -3.87235 0
M  V30 43 H 5.8312 -1.9882 -3.65754 0
M  V30 44 H 6.3642 -3.15502 -2.42288 0
M  V30 45 H 3.1032 -6.1488 -2.27161 0
M  V30 46 H 2.6232 -4.90631 -3.45024 0
M  V30 47 H 4.3022 -5.49924 -3.4087 0
M  V30 48 N 4.4343 0.785586 -1.36625 0
M  V30 49 C 5.8503 1.08419 -1.17122 0
M  V30 50 C 6.0503 2.015 0.00208491 0
M  V30 51 O 5.1063 2.43551 0.666278 0
M  V30 52 C 6.4193 1.69498 -2.48377 0
M  V30 53 C 7.9673 1.81821 -2.54775 0
M  V30 54 C 8.4423 2.46315 -3.86126 0
M  V30 55 N 9.9333 2.53779 -3.87492 0
M  V30 56 C 10.6683 3.045 -4.85868 0
M  V30 57 N 10.1643 3.55499 -5.94637 0
M  V30 58 N 11.9573 3.03247 -4.73284 0
M  V30 59 H 4.1083 0.167264 -2.1174 0
M  V30 60 H 6.3713 0.13682 -0.938075 0
M  V30 61 H 6.0773 1.08571 -3.34522 0
M  V30 62 H 5.9513 2.6896 -2.64462 0
M  V30 63 H 8.3383 2.41884 -1.69045 0
M  V30 64 H 8.4193 0.811532 -2.42586 0
M  V30 65 H 8.0633 1.86895 -4.72263 0
M  V30 66 H 7.9933 3.47561 -3.95612 0
M  V30 67 H 10.4843 2.17672 -3.08913 0
M  V30 68 H 10.7973 3.92562 -6.65669 0
M  V30 69 H 9.1423 3.5364 -5.98301 0
M  V30 70 H 12.3333 2.62696 -3.87438 0
M  V30 71 H 12.5063 3.42467 -5.50109 0
M  V30 72 N 5.9124 1.20967 1.01018 0
M  V30 73 C 7.1614 1.01796 1.74128 0
M  V30 74 C 7.4744 -0.449691 1.90361 0
M  V30 75 O 8.6804 -0.76068 2.60626 0
M  V30 76 C 7.1364 1.7727 3.13215 0
M  V30 77 C 6.7444 3.28171 3.04972 0
M  V30 78 C 8.4884 1.66489 3.90489 0
M  V30 79 C 6.3954 3.96156 4.39107 0
M  V30 80 H 5.3254 0.377276 0.652824 0
M  V30 81 H 7.9764 1.44651 1.12909 0
M  V30 82 H 6.3584 1.27205 3.75013 0
M  V30 83 H 7.5324 3.85499 2.52443 0
M  V30 84 H 5.8474 3.39437 2.41188 0
M  V30 85 H 8.4444 2.14617 4.89738 0
M  V30 86 H 8.7874 0.6222 4.11624 0
M  V30 87 H 9.3204 2.14003 3.35332 0
M  V30 88 H 6.0594 5.00604 4.23174 0
M  V30 89 H 5.5794 3.43617 4.91617 0
M  V30 90 H 7.2584 4.00774 5.07926 0
M  V30 91 N 7.3905 -1.2043 1.01659 0
M  V30 92 C 8.6375 -1.89797 0.705917 0
M  V30 93 C 8.9655 -1.78848 -0.764439 0
M  V30 94 O 8.2205 -1.16694 -1.57102 0
M  V30 95 C 8.5195 -3.40464 1.08714 0
M  V30 96 C 8.1855 -3.71614 2.5537 0
M  V30 97 C 6.8475 -3.79826 2.95441 0
M  V30 98 C 9.1995 -3.85915 3.50313 0
M  V30 99 C 6.5275 -3.99797 4.29394 0
M  V30 100 C 8.8795 -4.07396 4.83954 0
M  V30 101 C 7.5435 -4.13837 5.23732 0
M  V30 102 H 6.8135 -0.694518 0.258313 0
M  V30 103 H 9.4605 -1.42691 1.27717 0
M  V30 104 H 7.7655 -3.89385 0.434309 0
M  V30 105 H 9.4625 -3.92433 0.824461 0
M  V30 106 H 6.0525 -3.65822 2.23321 0
M  V30 107 H 10.2365 -3.78926 3.20513 0
M  V30 108 H 5.4925 -4.03018 4.59768 0
M  V30 109 H 9.6665 -4.17404 5.57447 0
M  V30 110 H 7.2935 -4.29064 6.27541 0
M  V30 111 N 8.8686 -0.792821 -1.36206 0
M  V30 112 C 9.8316 -0.199459 -2.2833 0
M  V30 113 C 10.8316 0.605189 -1.48977 0
M  V30 114 O 12.0216 0.425685 -1.68919 0
M  V30 115 C 9.1536 0.723523 -3.33134 0
M  V30 116 H 10.3466 -1.01181 -2.82316 0
M  V30 117 H 7.8996 -0.562485 -1.45828 0
M  V30 118 H 8.6346 1.56008 -2.84309 0
M  V30 119 H 8.4196 0.148436 -3.91819 0
M  V30 120 H 9.9096 1.13344 -4.01924 0
M  V30 121 N 10.3467 1.47872 -0.545128 0
M  V30 122 C 11.5957 2.01695 -0.0145033 0
M  V30 123 C 11.9087 1.42609 1.33873 0
M  V30 124 O 13.1147 1.88021 1.95858 0
M  V30 125 C 11.5707 3.59892 0.0245068 0
M  V30 126 C 11.1787 4.27966 -1.32475 0
M  V30 127 C 12.9227 4.21507 0.50316 0
M  V30 128 C 10.8297 5.78136 -1.2455 0
M  V30 129 H 9.7597 0.753998 -0.00165172 0
M  V30 130 H 12.4107 1.69985 -0.691175 0
M  V30 131 H 10.7927 3.88509 0.766575 0
M  V30 132 H 11.9667 4.11003 -2.08357 0
M  V30 133 H 10.2817 3.78286 -1.74036 0
M  V30 134 H 12.8787 5.31538 0.580656 0
M  V30 135 H 13.2217 3.87855 1.51243 0
M  V30 136 H 13.7547 3.97376 -0.183681 0
M  V30 137 H 10.4937 6.16388 -2.23039 0
M  V30 138 H 10.0137 5.97469 -0.528282 0
M  V30 139 H 11.6927 6.40099 -0.942488 0
M  V30 140 N 11.8248 0.280983 1.55075 0
M  V30 141 C 12.7548 -0.597469 2.25727 0
M  V30 142 C 13.7358 -1.15417 1.24952 0
M  V30 143 O 14.9208 -1.18722 1.53684 0
M  V30 144 C 12.0508 -1.7789 2.98283 0
M  V30 145 C 11.0048 -1.35347 4.06036 0
M  V30 146 C 10.3308 -2.61846 4.66198 0
M  V30 147 C 11.6308 -0.499354 5.19907 0
M  V30 148 H 13.3248 -0.00824265 2.99399 0
M  V30 149 H 10.8708 -0.0025244 1.44 0
M  V30 150 H 12.8238 -2.39937 3.46422 0
M  V30 151 H 11.5478 -2.39405 2.22155 0
M  V30 152 H 10.2068 -0.756156 3.58717 0
M  V30 153 H 9.8548 -3.21632 3.86732 0
M  V30 154 H 9.5548 -2.3409 5.38958 0
M  V30 155 H 11.0788 -3.24732 5.1709 0
M  V30 156 H 12.4928 -1.02498 5.64063 0
M  V30 157 H 10.8898 -0.316424 5.99265 0
M  V30 158 H 11.9598 0.480459 4.82514 0
M  V30 159 N 13.3029 -1.57598 0.00835791 0
M  V30 160 C 14.5499 -1.90928 -0.674732 0
M  V30 161 C 14.8779 -0.88277 -1.73313 0
M  V30 162 O 14.1329 0.111294 -1.95383 0
M  V30 163 C 14.4319 -3.3101 -1.34787 0
M  V30 164 C 14.0979 -4.48922 -0.421861 0
M  V30 165 C 12.7599 -4.8091 -0.166927 0
M  V30 166 C 15.1119 -5.20755 0.215211 0
M  V30 167 C 12.4399 -5.821 0.733232 0
M  V30 168 C 14.7919 -6.22905 1.1033 0
M  V30 169 C 13.4559 -6.53346 1.36733 0
M  V30 170 H 12.7259 -0.698656 -0.246902 0
M  V30 171 H 15.3729 -1.91387 0.0656779 0
M  V30 172 H 13.6779 -3.26714 -2.16253 0
M  V30 173 H 15.3749 -3.54061 -1.8826 0
M  V30 174 H 11.9649 -4.23934 -0.630729 0
M  V30 175 H 16.1489 -4.9629 0.0312829 0
M  V30 176 H 11.4049 -6.04042 0.945712 0
M  V30 177 H 15.5789 -6.77694 1.60325 0
M  V30 178 H 13.2059 -7.31573 2.06652 0
M  V30 179 N 14.781 0.264519 -1.55364 0
M  V30 180 C 16.006 1.01726 -1.80739 0
M  V30 181 C 16.431 1.78836 -0.583044 0
M  V30 182 O 15.789 1.75167 0.467566 0
M  V30 183 C 15.837 1.94482 -3.03659 0
M  V30 184 O 14.941 3.03386 -2.7934 0
M  V30 185 H 14.282 0.290395 -0.597132 0
M  V30 186 H 16.812 0.290854 -2.02522 0
M  V30 187 H 16.822 2.36278 -3.32621 0
M  V30 188 H 15.497 1.37772 -3.92418 0
M  V30 189 H 14.074 2.65844 -2.61498 0
M  V30 190 N 16.2591 1.48442 0.529413 0
M  V30 191 C 17.5081 1.55742 1.28169 0
M  V30 192 C 17.8211 0.236511 1.94165 0
M  V30 193 O 19.0271 0.187761 2.7085 0
M  V30 194 C 17.4831 2.74667 2.32564 0
M  V30 195 C 17.0911 4.13402 1.72636 0
M  V30 196 C 18.8351 2.9128 3.08798 0
M  V30 197 C 16.7421 5.23587 2.74975 0
M  V30 198 H 15.6721 0.579796 0.48203 0
M  V30 199 H 18.3231 1.74776 0.559056 0
M  V30 200 H 16.7051 2.49067 3.07866 0
M  V30 201 H 17.8791 4.49022 1.03519 0
M  V30 202 H 16.1941 4.0191 1.08892 0
M  V30 203 H 18.7911 3.70767 3.85274 0
M  V30 204 H 19.1341 2.00757 3.64695 0
M  V30 205 H 19.6671 3.16782 2.40611 0
M  V30 206 H 16.4061 6.16076 2.23897 0
M  V30 207 H 15.9261 4.92454 3.42417 0
M  V30 208 H 17.6051 5.51724 3.37949 0
M  V30 209 N 17.7372 -0.778329 1.37039 0
M  V30 210 C 18.9842 -1.53665 1.31884 0
M  V30 211 C 19.3122 -1.9425 -0.0986303 0
M  V30 212 O 18.5672 -1.63832 -1.07041 0
M  V30 213 C 18.8662 -2.81845 2.19768 0
M  V30 214 C 18.5322 -2.60345 3.68146 0
M  V30 215 C 17.1942 -2.5419 4.08584 0
M  V30 216 C 19.5462 -2.40923 4.62175 0
M  V30 217 C 16.8742 -2.26594 5.41177 0
M  V30 218 C 19.2262 -2.14852 5.94997 0
M  V30 219 C 17.8902 -2.07137 6.34547 0
M  V30 220 H 17.1602 -0.562299 0.482598 0
M  V30 221 H 19.8072 -0.897069 1.69189 0
M  V30 222 H 18.1122 -3.50328 1.75436 0
M  V30 223 H 19.8092 -3.39692 2.13097 0
M  V30 224 H 16.3992 -2.65996 3.36072 0
M  V30 225 H 20.5832 -2.44673 4.31797 0
M  V30 226 H 15.8392 -2.19111 5.70789 0
M  V30 227 H 20.0132 -1.98822 6.67415 0
M  V30 228 H 17.6402 -1.85518 7.37216 0
M  V30 229 N 19.2153 -1.21501 -1.00376 0
M  V30 230 C 20.4403 -1.05977 -1.78279 0
M  V30 231 C 20.8653 0.385994 -1.84097 0
M  V30 232 O 20.2233 1.27849 -1.28547 0
M  V30 233 C 20.2713 -1.66302 -3.19963 0
M  V30 234 O 19.3753 -0.909333 -4.0225 0
M  V30 235 H 18.7163 -0.372906 -0.549397 0
M  V30 236 H 21.2463 -1.6107 -1.26165 0
M  V30 237 H 21.2563 -1.70574 -3.70632 0
M  V30 238 H 19.9313 -2.71515 -3.15043 0
M  V30 239 H 18.5083 -0.941795 -3.60811 0
M  V30 240 N 20.6934 1.19889 -1.02296 0
M  V30 241 C 21.6234 2.25141 -0.619174 0
M  V30 242 C 22.6044 1.66051 0.368915 0
M  V30 243 O 23.7894 1.92546 0.252941 0
M  V30 244 C 20.9194 3.4728 0.0368783 0
M  V30 245 C 19.8734 4.19005 -0.872865 0
M  V30 246 C 19.1994 5.34637 -0.0822402 0
M  V30 247 C 20.4994 4.74452 -2.18387 0
M  V30 248 H 22.1934 2.59171 -1.49903 0
M  V30 249 H 19.7394 1.24579 -0.722222 0
M  V30 250 H 21.6924 4.20098 0.330958 0
M  V30 251 H 20.4164 3.12433 0.95149 0
M  V30 252 H 19.0754 3.48061 -1.15105 0
M  V30 253 H 18.7234 4.96034 0.83422 0
M  V30 254 H 18.4234 5.83557 -0.688149 0
M  V30 255 H 19.9474 6.10255 0.205238 0
M  V30 256 H 21.3614 5.39055 -1.95172 0
M  V30 257 H 19.7584 5.33834 -2.74119 0
M  V30 258 H 20.8284 3.92844 -2.84257 0
M  V30 259 N 22.1715 0.800033 1.35784 0
M  V30 260 C 23.1345 0.211565 2.28221 0
M  V30 261 C 24.1345 -0.59728 1.49296 0
M  V30 262 O 25.3245 -0.416721 1.69142 0
M  V30 263 C 22.4565 -0.705846 3.33513 0
M  V30 264 H 23.6495 1.02677 2.81776 0
M  V30 265 H 21.2025 0.570211 1.45528 0
M  V30 266 H 21.9375 -1.54498 2.85133 0
M  V30 267 H 21.7225 -0.127655 3.91892 0
M  V30 268 H 23.2125 -1.11211 4.02519 0
M  V30 269 N 23.6496 -1.47581 0.552962 0
M  V30 270 C 24.8776 -2.06875 0.0320556 0
M  V30 271 C 25.2926 -1.40625 -1.25976 0
M  V30 272 O 24.6496 -0.501349 -1.75479 0
M  V30 273 C 24.7006 -3.61092 -0.17167 0
M  V30 274 O 24.4216 -4.24858 1.06899 0
M  V30 275 C 25.9226 -4.37242 -0.730344 0
M  V30 276 H 23.1426 -0.669561 0.043915 0
M  V30 277 H 25.6866 -1.89646 0.765163 0
M  V30 278 H 23.8416 -3.7785 -0.854894 0
M  V30 279 H 24.2556 -5.17334 0.864059 0
M  V30 280 H 25.7296 -5.45842 -0.822203 0
M  V30 281 H 26.2066 -4.03235 -1.74064 0
M  V30 282 H 26.8126 -4.25219 -0.0829543 0
M  V30 283 N 25.1277 -0.289203 -1.54924 0
M  V30 284 C 26.3747 0.323519 -1.99899 0
M  V30 285 C 26.7027 1.54797 -1.17762 0
M  V30 286 O 25.9577 1.94237 -0.238835 0
M  V30 287 C 26.2567 0.736119 -3.49737 0
M  V30 288 C 25.9227 -0.385276 -4.49251 0
M  V30 289 C 24.5847 -0.693156 -4.76181 0
M  V30 290 C 26.9367 -1.14021 -5.08575 0
M  V30 291 C 24.2647 -1.7593 -5.59701 0
M  V30 292 C 26.6167 -2.19619 -5.93254 0
M  V30 293 C 25.2807 -2.51026 -6.185 0
M  V30 294 H 24.5507 0.118384 -0.731482 0
M  V30 295 H 27.1977 -0.405847 -1.8715 0
M  V30 296 H 25.5027 1.54539 -3.60035 0
M  V30 297 H 27.1997 1.22118 -3.81953 0
M  V30 298 H 23.7897 -0.135202 -4.28387 0
M  V30 299 H 27.9737 -0.915611 -4.87781 0
M  V30 300 H 23.2297 -2.0075 -5.77503 0
M  V30 301 H 27.4037 -2.78581 -6.38252 0
M  V30 302 H 25.0307 -3.33772 -6.83008 0
M  V30 303 N 26.6058 1.57591 -0.0167156 0
M  V30 304 C 27.5688 2.08393 0.954204 0
M  V30 305 C 28.5688 0.996531 1.26198 0
M  V30 306 O 29.7588 1.25858 1.20438 0
M  V30 307 C 26.8908 2.5394 2.27436 0
M  V30 308 H 28.0838 2.95455 0.514451 0
M  V30 309 H 25.6368 1.54582 0.231089 0
M  V30 310 H 26.3718 1.70171 2.76066 0
M  V30 311 H 26.1568 3.33371 2.06412 0
M  V30 312 H 27.6468 2.93512 2.97053 0
M  V30 313 N 28.0839 -0.256276 1.55502 0
M  V30 314 C 29.0339 -1.31981 1.85916 0
M  V30 315 C 30.0179 -1.43927 0.719296 0
M  V30 316 O 31.2099 -1.47326 0.981019 0
M  V30 317 C 28.3389 -2.67703 2.14918 0
M  V30 318 C 27.4249 -2.59801 3.35208 0
M  V30 319 N 27.8159 -2.21524 4.54709 0
M  V30 320 C 26.1139 -2.90832 3.38131 0
M  V30 321 C 26.8149 -2.24024 5.36832 0
M  V30 322 N 25.7909 -2.63158 4.75656 0
M  V30 323 H 29.5929 -1.01423 2.75845 0
M  V30 324 H 27.1069 -0.464911 1.55603 0
M  V30 325 H 29.1039 -3.44445 2.34869 0
M  V30 326 H 27.7639 -2.99137 1.26282 0
M  V30 327 H 28.7749 -1.93223 4.80505 0
M  V30 328 H 25.4519 -3.26867 2.59739 0
M  V30 329 H 26.8419 -1.9685 6.42417 0
M  V30 330 N 29.562 -1.4872 -0.521534 0
M  V30 331 C 30.525 -1.63379 -1.60748 0
M  V30 332 C 31.525 -0.50661 -1.52611 0
M  V30 333 O 32.715 -0.772601 -1.5613 0
M  V30 334 C 29.847 -1.61192 -3.00383 0
M  V30 335 H 31.04 -2.60217 -1.49087 0
M  V30 336 H 28.593 -1.37444 -0.744235 0
M  V30 337 H 29.328 -0.65863 -3.17541 0
M  V30 338 H 29.113 -2.43032 -3.07698 0
M  V30 339 H 30.603 -1.7466 -3.7932 0
M  V30 340 N 31.0401 0.771051 -1.3745 0
M  V30 341 C 31.9721 1.89352 -1.29146 0
M  V30 342 C 32.9851 1.61477 -0.207124 0
M  V30 343 O 34.1741 1.72382 -0.463324 0
M  V30 344 C 31.2741 3.24596 -0.974195 0
M  V30 345 C 30.4471 3.80111 -2.16413 0
M  V30 346 C 29.5061 4.93832 -1.81703 0
M  V30 347 O 28.5321 5.09382 -2.54006 0
M  V30 348 N 29.7341 5.75483 -0.761573 0
M  V30 349 H 32.4991 1.96991 -2.25864 0
M  V30 350 H 30.0601 0.950191 -1.31084 0
M  V30 351 H 32.0521 3.98193 -0.722828 0
M  V30 352 H 30.6221 3.12454 -0.0955527 0
M  V30 353 H 29.8421 2.98284 -2.57721 0
M  V30 354 H 31.1301 4.13932 -2.95867 0
M  V30 355 H 30.5281 5.65469 -0.161609 0
M  V30 356 H 29.0851 6.49302 -0.570064 0
M  V30 357 N 32.5182 1.22032 0.997298 0
M  V30 358 C 33.4282 1.00271 2.12092 0
M  V30 359 C 34.4442 -0.047621 1.73935 0
M  V30 360 O 35.6202 0.144136 2.00884 0
M  V30 361 C 32.6852 0.578449 3.4184 0
M  V30 362 C 31.7462 1.70189 3.94125 0
M  V30 363 C 30.9792 1.29778 5.17681 0
M  V30 364 O 31.2022 0.174676 5.70132 0
M  V30 365 O 30.1362 2.11261 5.63607 0
M  V30 366 H 33.9622 1.94398 2.3333 0
M  V30 367 H 31.5472 1.00587 1.10465 0
M  V30 368 H 33.4292 0.351998 4.19927 0
M  V30 369 H 32.1042 -0.334019 3.21972 0
M  V30 370 H 31.0112 1.98282 3.1723 0
M  V30 371 H 32.3442 2.59206 4.18417 0
M  V30 372 N 33.9963 -1.19345 1.0293 0
M  V30 373 C 35.2443 -1.88665 0.724574 0
M  V30 374 C 35.5653 -1.80036 -0.749144 0
M  V30 375 O 34.8353 -1.2111 -1.53978 0
M  V30 376 H 33.4153 -0.698406 0.265025 0
M  V30 377 H 36.0773 -1.44885 1.30362 0
M  V30 378 H 35.1733 -2.94987 1.01926 0
M  V30 379 N 35.4744 -0.807222 -1.35358 0
M  V30 380 C 36.7024 -0.400377 -2.02989 0
M  V30 381 C 37.1174 0.988859 -1.60832 0
M  V30 382 O 36.4744 1.63729 -0.806175 0
M  V30 383 C 36.5254 -0.474867 -3.58368 0
M  V30 384 O 36.2464 -1.80933 -3.98992 0
M  V30 385 C 37.7474 -0.0609112 -4.43258 0
M  V30 386 H 34.9674 -0.162587 -0.651004 0
M  V30 387 H 37.5114 -1.09102 -1.72965 0
M  V30 388 H 35.6664 0.167534 -3.87038 0
M  V30 389 H 36.0804 -1.77256 -4.9364 0
M  V30 390 H 37.5544 -0.164145 -5.51756 0
M  V30 391 H 38.0314 0.993831 -4.27808 0
M  V30 392 H 38.6374 -0.676492 -4.19885 0
M  V30 393 N 36.9525 1.47285 -0.560781 0
M  V30 394 C 37.8825 2.32857 0.173105 0
M  V30 395 C 38.8635 1.44009 0.905281 0
M  V30 396 O 40.0485 1.7286 0.885046 0
M  V30 397 C 37.1785 3.25861 1.20133 0
M  V30 398 C 36.1325 4.23978 0.585388 0
M  V30 399 C 35.4585 5.06332 1.7185 0
M  V30 400 C 36.7585 5.20242 -0.463178 0
M  V30 401 H 38.4525 2.94466 -0.541307 0
M  V30 402 H 35.9985 1.41601 -0.261764 0
M  V30 403 H 37.9515 3.84569 1.72293 0
M  V30 404 H 36.6755 2.62315 1.94573 0
M  V30 405 H 35.3345 3.66501 0.085054 0
M  V30 406 H 34.9825 4.39186 2.45203 0
M  V30 407 H 34.6825 5.72762 1.31213 0
M  V30 408 H 36.2065 5.67899 2.24329 0
M  V30 409 H 37.6205 5.73293 -0.027502 0
M  V30 410 H 36.0175 5.94896 -0.788627 0
M  V30 411 H 37.0875 4.65504 -1.35773 0
M  V30 412 N 38.4306 0.297415 1.54768 0
M  V30 413 C 39.3406 -0.58983 2.27064 0
M  V30 414 C 40.3566 -1.15144 1.30453 0
M  V30 415 O 41.5326 -1.17699 1.63428 0
M  V30 416 C 38.5976 -1.74714 2.9946 0
M  V30 417 C 37.6586 -1.21997 4.11601 0
M  V30 418 C 36.8916 -2.32212 4.80535 0
M  V30 419 O 37.1146 -3.52036 4.48806 0
M  V30 420 O 36.0486 -1.99106 5.68014 0
M  V30 421 H 39.8746 -0.00348199 3.037 0
M  V30 422 H 37.4596 0.0640035 1.49263 0
M  V30 423 H 39.3416 -2.42147 3.44881 0
M  V30 424 H 38.0166 -2.32016 2.25722 0
M  V30 425 H 36.9236 -0.511458 3.70587 0
M  V30 426 H 38.2566 -0.692419 4.87305 0
M  V30 427 N 39.9087 -1.5758 0.0250728 0
M  V30 428 C 41.3247 -1.56124 -0.331282 0
M  V30 429 C 41.5247 -1.03029 -1.73169 0
M  V30 430 O 40.5807 -0.675215 -2.43305 0
M  V30 431 C 41.8937 -3.00139 -0.183584 0
M  V30 432 C 43.4417 -3.11946 -0.256654 0
M  V30 433 C 43.9167 -4.57793 -0.137792 0
M  V30 434 N 45.4077 -4.6279 -0.194904 0
M  V30 435 C 46.1427 -5.7326 -0.126655 0
M  V30 436 N 45.6387 -6.928 -0.00755288 0
M  V30 437 N 47.4317 -5.61811 -0.180348 0
M  V30 438 H 39.5827 -1.90424 0.94087 0
M  V30 439 H 41.8457 -0.875761 0.362968 0
M  V30 440 H 41.5517 -3.4292 0.780927 0
M  V30 441 H 41.4257 -3.64899 -0.955448 0
M  V30 442 H 43.8127 -2.69079 -1.21162 0
M  V30 443 H 43.8937 -2.49915 0.545517 0
M  V30 444 H 43.5377 -5.01339 0.813739 0
M  V30 445 H 43.4677 -5.17798 -0.958775 0
M  V30 446 H 45.9587 -3.76807 -0.287267 0
M  V30 447 H 46.2717 -7.72791 0.0379428 0
M  V30 448 H 44.6167 -6.94995 0.0271731 0
M  V30 449 H 47.8077 -4.6731 -0.271767 0
M  V30 450 H 47.9807 -6.47882 -0.123697 0
M  V30 451 N 41.3868 0.248026 -1.55636 0
M  V30 452 C 42.6118 0.998028 -1.81808 0
M  V30 453 C 43.0368 1.78207 -0.601979 0
M  V30 454 O 42.3948 1.75653 0.448961 0
M  V30 455 C 42.4428 1.9125 -3.05705 0
M  V30 456 O 41.5468 3.00406 -2.82542 0
M  V30 457 H 40.8878 0.284045 -0.600179 0
M  V30 458 H 43.4178 0.269357 -2.02819 0
M  V30 459 H 43.4278 2.32737 -3.35108 0
M  V30 460 H 42.1028 1.33602 -3.93857 0
M  V30 461 H 40.6798 2.63056 -2.64303 0
M  V30 462 N 42.8649 1.48995 0.513639 0
M  V30 463 C 44.1419 1.48338 1.27495 0
M  V30 464 C 44.5219 0.204065 2.10111 0
M  V30 465 O 43.8699 -0.813881 2.13514 0
M  V30 466 C 44.0799 2.75498 2.14247 0
M  V30 467 C 45.4279 3.24484 2.73852 0
M  V30 468 O 46.4519 2.76528 2.24523 0
M  V30 469 O 45.3109 4.07974 3.6362 0
M  V30 470 H 42.4049 0.593149 0.576284 0
M  V30 471 H 44.9509 1.61246 0.528948 0
M  V30 472 H 43.7229 3.60109 1.53092 0
M  V30 473 H 43.3459 2.6539 2.96064 0
M  V30 474 N 44.343 -0.763751 1.37857 0
M  V30 475 C 45.589 -1.52396 1.3471 0
M  V30 476 C 45.944 -1.92288 -0.0656435 0
M  V30 477 O 45.237 -1.6181 -1.02606 0
M  V30 478 C 45.431 -2.79499 2.22745 0
M  V30 479 C 45.26 -2.52031 3.72438 0
M  V30 480 C 44.03 -2.45759 4.4151 0
M  V30 481 C 46.228 -2.19489 4.65112 0
M  V30 482 N 44.21 -2.1046 5.76697 0
M  V30 483 C 45.581 -1.94396 5.88736 0
M  V30 484 C 47.636 -2.05712 4.53417 0
M  V30 485 C 46.339 -1.56917 7.01975 0
M  V30 486 C 48.365 -1.69634 5.66549 0
M  V30 487 C 47.727 -1.45407 6.89229 0
M  V30 488 H 43.826 -0.55765 0.548225 0
M  V30 489 H 46.41 -0.890302 1.73152 0
M  V30 490 H 44.581 -3.4069 1.86507 0
M  V30 491 H 46.313 -3.45465 2.10798 0
M  V30 492 H 43.068 -2.61885 3.94605 0
M  V30 493 H 43.492 -1.95484 6.48163 0
M  V30 494 H 48.134 -2.23123 3.59133 0
M  V30 495 H 45.852 -1.38246 7.96187 0
M  V30 496 H 49.438 -1.59621 5.59475 0
M  V30 497 H 48.318 -1.17904 7.75286 0
M  V30 498 N 45.8211 -1.22559 -0.990812 0
M  V30 499 C 47.2371 -0.985996 -1.255 0
M  V30 500 C 47.4371 0.319173 -1.98956 0
M  V30 501 O 46.4931 1.04127 -2.3003 0
M  V30 502 C 47.8061 -2.18607 -2.06474 0
M  V30 503 C 49.3541 -2.22985 -2.19651 0
M  V30 504 C 49.8291 -3.4255 -3.04012 0
M  V30 505 N 51.3201 -3.42725 -3.11599 0
M  V30 506 C 52.0551 -4.31892 -3.7717 0
M  V30 507 N 51.5511 -5.31279 -4.44651 0
M  V30 508 N 53.3441 -4.19662 -3.73952 0
M  V30 509 H 45.4951 -2.06469 -0.49841 0
M  V30 510 H 47.7581 -0.904853 -0.282747 0
M  V30 511 H 47.4641 -3.13267 -1.59865 0
M  V30 512 H 47.3381 -2.18838 -3.07229 0
M  V30 513 H 49.7251 -1.28871 -2.65474 0
M  V30 514 H 49.8061 -2.26791 -1.18319 0
M  V30 515 H 49.4501 -4.36965 -2.58889 0
M  V30 516 H 49.3801 -3.35984 -4.0549 0
M  V30 517 H 51.8711 -2.70807 -2.63575 0
M  V30 518 H 52.1841 -5.95593 -4.92431 0
M  V30 519 H 50.5291 -5.3519 -4.43392 0
M  V30 520 H 53.7201 -3.41268 -3.20396 0
M  V30 521 H 53.8931 -4.89358 -4.24774 0
M  V30 522 N 47.2992 1.18797 -1.03562 0
M  V30 523 C 48.2462 2.22253 -0.622259 0
M  V30 524 C 49.2162 1.61987 0.36736 0
M  V30 525 O 50.4012 1.88986 0.262492 0
M  V30 526 C 47.5412 3.45097 0.0138462 0
M  V30 527 C 46.6542 4.19722 -1.02263 0
M  V30 528 C 45.7892 5.30009 -0.355573 0
M  V30 529 C 44.8282 5.96399 -1.37749 0
M  V30 530 N 43.9652 6.98234 -0.735766 0
M  V30 531 H 48.8052 2.56968 -1.50903 0
M  V30 532 H 46.3422 1.26245 -0.755017 0
M  V30 533 H 48.3002 4.15279 0.399948 0
M  V30 534 H 46.9302 3.11018 0.864158 0
M  V30 535 H 45.9822 3.48418 -1.52673 0
M  V30 536 H 47.2942 4.65227 -1.79903 0
M  V30 537 H 46.4482 6.0664 0.0850095 0
M  V30 538 H 45.1872 4.85592 0.452967 0
M  V30 539 H 44.1922 5.18512 -1.82826 0
M  V30 540 H 45.4172 6.42899 -2.18764 0
M  V30 541 H 43.3632 6.55979 0.0525597 0
M  V30 542 H 43.2802 7.41965 -1.44995 0
M  V30 543 H 44.5482 7.78845 -0.31941 0
M  V30 544 N 48.7773 0.814389 1.34928 0
M  V30 545 C 50.0243 0.398423 1.98542 0
M  V30 546 C 50.3523 -1.03638 1.64589 0
M  V30 547 O 49.6073 -1.73509 0.90516 0
M  V30 548 C 49.9063 0.537781 3.53331 0
M  V30 549 C 49.5723 1.93704 4.07172 0
M  V30 550 C 48.2343 2.31984 4.21589 0
M  V30 551 C 50.5863 2.85213 4.36237 0
M  V30 552 C 47.9143 3.61125 4.62391 0
M  V30 553 C 50.2663 4.13809 4.78482 0
M  V30 554 C 48.9303 4.52077 4.91104 0
M  V30 555 H 48.2003 0.145793 0.726516 0
M  V30 556 H 50.8473 1.03669 1.61012 0
M  V30 557 H 49.1523 -0.183906 3.91368 0
M  V30 558 H 50.8493 0.196588 4.00518 0
M  V30 559 H 47.4393 1.62966 3.96409 0
M  V30 560 H 51.6233 2.56885 4.24645 0
M  V30 561 H 46.8793 3.90612 4.70353 0
M  V30 562 H 51.0533 4.84811 4.99932 0
M  V30 563 H 48.6803 5.52196 5.22478 0
M  V30 564 N 50.2554 -1.46986 0.568584 0
M  V30 565 C 51.5024 -2.02441 0.0487986 0
M  V30 566 C 51.8304 -1.44169 -1.30559 0
M  V30 567 O 51.0854 -0.591213 -1.86556 0
M  V30 568 C 51.3844 -3.57306 -0.081836 0
M  V30 569 C 51.0504 -4.34552 1.20313 0
M  V30 570 C 49.7124 -4.55376 1.5552 0
M  V30 571 C 52.0644 -4.79016 2.05411 0
M  V30 572 C 49.3924 -5.17913 2.7565 0
M  V30 573 C 51.7444 -5.42879 3.24754 0
M  V30 574 C 50.4084 -5.61933 3.60261 0
M  V30 575 H 49.6784 -0.740785 0.0178567 0
M  V30 576 H 52.3254 -1.76525 0.742384 0
M  V30 577 H 50.6304 -3.8228 -0.858463 0
M  V30 578 H 52.3274 -3.97876 -0.499546 0
M  V30 579 H 48.9174 -4.18631 0.919014 0
M  V30 580 H 53.1014 -4.62696 1.79516 0
M  V30 581 H 48.3574 -5.30858 3.03315 0
M  V30 582 H 52.5314 -5.76293 3.90973 0
M  V30 583 H 50.1584 -6.10161 4.53439 0
M  V30 584 N 51.7335 -0.305618 -1.54608 0
M  V30 585 C 52.9585 0.307562 -2.05107 0
M  V30 586 C 53.3835 1.46385 -1.18123 0
M  V30 587 O 52.7415 1.8034 -0.186324 0
M  V30 588 C 52.7895 0.73704 -3.52987 0
M  V30 589 O 51.8935 1.84134 -3.6901 0
M  V30 590 H 51.2345 0.0589143 -0.661381 0
M  V30 591 H 53.7645 -0.448807 -1.99617 0
M  V30 592 H 53.7745 1.02459 -3.94925 0
M  V30 593 H 52.4495 -0.108773 -4.15758 0
M  V30 594 H 51.0265 1.55398 -3.38978 0
M  V30 595 N 53.2116 1.57565 -0.0334293 0
M  V30 596 C 54.1216 2.13943 0.962572 0
M  V30 597 C 55.1376 1.09276 1.35406 0
M  V30 598 O 56.3136 1.41355 1.4346 0
M  V30 599 C 53.3786 2.65887 2.22497 0
M  V30 600 C 52.4396 3.85286 1.8935 0
M  V30 601 C 51.6726 4.34743 3.09571 0
M  V30 602 O 51.8956 3.83352 4.22371 0
M  V30 603 O 50.8296 5.26538 2.91618 0
M  V30 604 H 54.6556 2.99333 0.513169 0
M  V30 605 H 52.2406 1.4822 0.18743 0
M  V30 606 H 54.1226 2.99346 2.96598 0
M  V30 607 H 52.7976 1.83578 2.6661 0
M  V30 608 H 51.7046 3.56746 1.1262 0
M  V30 609 H 53.0376 4.68771 1.5005 0
M  V30 610 N 54.6897 -0.239769 1.55765 0
M  V30 611 C 55.9367 -0.966801 1.7793 0
M  V30 612 C 56.2647 -1.85046 0.599015 0
M  V30 613 O 55.5197 -1.91197 -0.417395 0
M  V30 614 C 55.8187 -1.852 3.05672 0
M  V30 615 C 55.4847 -1.1231 4.36689 0
M  V30 616 C 54.1467 -0.921689 4.72291 0
M  V30 617 C 56.4987 -0.607019 5.17653 0
M  V30 618 C 53.8267 -0.191996 5.86386 0
M  V30 619 C 56.1787 0.109241 6.32506 0
M  V30 620 C 54.8427 0.322073 6.66723 0
M  V30 621 H 54.1127 -0.353778 0.651093 0
M  V30 622 H 56.7597 -0.23634 1.90036 0
M  V30 623 H 55.0647 -2.64975 2.8861 0
M  V30 624 H 56.7617 -2.41635 3.20021 0
M  V30 625 H 53.3517 -1.29004 4.08725 0
M  V30 626 H 57.5357 -0.750153 4.90598 0
M  V30 627 H 52.7917 -0.0166949 6.11398 0
M  V30 628 H 56.9657 0.516737 6.9448 0
M  V30 629 H 54.5927 0.88944 7.54979 0
M  V30 630 N 56.1678 -1.49265 -0.50573 0
M  V30 631 C 57.0998 -1.617 -1.62437 0
M  V30 632 C 58.1128 -0.499924 -1.54934 0
M  V30 633 O 59.3018 -0.771785 -1.60953 0
M  V30 634 C 56.4018 -1.5533 -3.01207 0
M  V30 635 C 55.5748 -2.8249 -3.33943 0
M  V30 636 C 54.6338 -2.69238 -4.52103 0
M  V30 637 O 53.6598 -3.43167 -4.5412 0
M  V30 638 N 54.8618 -1.80468 -5.51735 0
M  V30 639 H 57.6268 -2.58177 -1.52199 0
M  V30 640 H 55.1878 -1.46294 -0.693511 0
M  V30 641 H 57.1798 -1.44125 -3.78167 0
M  V30 642 H 55.7498 -0.667297 -3.05395 0
M  V30 643 H 54.9698 -3.08081 -2.45926 0
M  V30 644 H 56.2578 -3.66802 -3.5261 0
M  V30 645 H 55.6558 -1.19653 -5.52901 0
M  V30 646 H 54.2128 -1.75188 -6.27816 0
M  V30 647 N 57.6459 0.756429 -1.3826 0
M  V30 648 C 58.6089 1.85176 -1.35065 0
M  V30 649 C 59.6089 1.58818 -0.251703 0
M  V30 650 O 60.7989 1.66615 -0.508433 0
M  V30 651 C 57.9309 3.22596 -1.10201 0
M  V30 652 H 59.1239 1.89417 -2.3251 0
M  V30 653 H 56.6769 0.95783 -1.23512 0
M  V30 654 H 57.4119 3.24025 -0.133504 0
M  V30 655 H 57.1969 3.43122 -1.89762 0
M  V30 656 H 58.6869 4.02673 -1.10654 0
M  V30 657 N 59.124 1.23083 0.984299 0
M  V30 658 C 60.071 1.00854 2.07598 0
M  V30 659 C 61.041 -0.0726709 1.65941 0
M  V30 660 O 62.226 0.0786535 1.90638 0
M  V30 661 C 59.366 0.601645 3.39815 0
M  V30 662 C 58.479 1.75456 3.94765 0
M  V30 663 C 57.614 1.29482 5.15177 0
M  V30 664 C 56.653 2.41873 5.62284 0
M  V30 665 N 55.79 1.96885 6.73929 0
M  V30 666 H 60.63 1.943 2.25946 0
M  V30 667 H 58.167 0.968001 1.10762 0
M  V30 668 H 60.125 0.346854 4.15756 0
M  V30 669 H 58.755 -0.295803 3.21442 0
M  V30 670 H 57.807 2.12346 3.15616 0
M  V30 671 H 59.119 2.59965 4.25699 0
M  V30 672 H 58.273 0.997923 5.98437 0
M  V30 673 H 57.012 0.420046 4.85888 0
M  V30 674 H 56.017 2.72342 4.77608 0
M  V30 675 H 57.242 3.29881 5.93595 0
M  V30 676 H 55.188 1.11782 6.46406 0
M  V30 677 H 55.105 2.74956 7.04227 0
M  V30 678 H 56.373 1.70289 7.60672 0
M  V30 679 N 60.6021 -1.18246 1.0419 0
M  V30 680 C 61.8501 -1.87886 0.744543 0
M  V30 681 C 62.1711 -1.8082 -0.730006 0
M  V30 682 O 61.4411 -1.22736 -1.52685 0
M  V30 683 H 60.0211 -0.695556 0.272417 0
M  V30 684 H 62.6831 -1.43494 1.31892 0
M  V30 685 H 61.7791 -2.9389 1.05049 0
M  V30 686 N 62.0802 -0.821533 -1.34494 0
M  V30 687 C 63.3082 -0.421884 -2.02553 0
M  V30 688 C 63.7232 0.971745 -1.61872 0
M  V30 689 O 63.0802 1.62864 -0.823496 0
M  V30 690 C 63.1312 -0.51285 -3.57844 0
M  V30 691 O 62.8522 -1.85155 -3.97051 0
M  V30 692 C 64.3532 -0.107921 -4.43169 0
M  V30 693 H 61.5732 -0.169482 -0.649243 0
M  V30 694 H 64.1172 -1.1093 -1.71798 0
M  V30 695 H 62.2722 0.126474 -3.87193 0
M  V30 696 H 62.6862 -1.82482 -4.91732 0
M  V30 697 H 64.1602 -0.222657 -5.51551 0
M  V30 698 H 64.6372 0.948401 -4.28838 0
M  V30 699 H 65.2432 -0.720989 -4.19144 0
M  V30 700 N 63.5583 1.46682 -0.576371 0
M  V30 701 C 64.8073 2.01619 -0.0572825 0
M  V30 702 C 65.1203 1.45417 1.30818 0
M  V30 703 O 66.3263 1.92133 1.91825 0
M  V30 704 C 64.7823 3.59863 -0.0518371 0
M  V30 705 C 64.3903 4.25059 -1.41523 0
M  V30 706 C 66.1343 4.2248 0.413639 0
M  V30 707 C 64.0413 5.75364 -1.36785 0
M  V30 708 H 62.9713 0.753794 -0.0176448 0
M  V30 709 H 65.6223 1.68481 -0.727076 0
M  V30 710 H 64.0043 3.90048 0.683994 0
M  V30 711 H 65.1783 4.06491 -2.17029 0
M  V30 712 H 63.4933 3.7451 -1.8202 0
M  V30 713 H 66.0903 5.3265 0.467779 0
M  V30 714 H 66.4333 3.90976 1.42982 0
M  V30 715 H 66.9663 3.96897 -0.267929 0
M  V30 716 H 63.7053 6.11518 -2.36063 0
M  V30 717 H 63.2253 5.96214 -0.654895 0
M  V30 718 H 64.9043 6.37955 -1.07805 0
M  V30 719 N 65.0364 0.313813 1.54444 0
M  V30 720 C 66.2824 -0.292108 2.00685 0
M  V30 721 C 66.6154 -1.52548 1.20177 0
M  V30 722 O 65.8904 -1.92452 0.281531 0
M  V30 723 C 66.1734 -0.635968 3.5444 0
M  V30 724 C 66.0264 0.607437 4.4568 0
M  V30 725 C 67.3454 -1.45747 4.15266 0
M  V30 726 H 64.4644 -0.104697 0.729526 0
M  V30 727 H 67.1064 0.428457 1.85106 0
M  V30 728 H 65.2564 -1.24986 3.67846 0
M  V30 729 H 66.9284 1.24581 4.44159 0
M  V30 730 H 65.1714 1.23822 4.15753 0
M  V30 731 H 65.8424 0.322515 5.51057 0
M  V30 732 H 68.3184 -0.938645 4.05375 0
M  V30 733 H 67.1944 -1.66683 5.2298 0
M  V30 734 H 67.4554 -2.45063 3.67963 0
M  V30 735 N 66.5145 -1.57545 0.0417849 0
M  V30 736 C 67.7605 -1.92601 -0.635021 0
M  V30 737 C 68.0935 -0.919627 -1.71045 0
M  V30 738 O 67.3685 0.0557892 -1.9442 0
M  V30 739 C 67.6515 -3.38085 -1.23979 0
M  V30 740 C 67.5045 -4.49467 -0.173057 0
M  V30 741 C 68.8235 -3.83776 -2.15416 0
M  V30 742 H 65.9425 -0.700397 -0.229374 0
M  V30 743 H 68.5845 -1.89728 0.101633 0
M  V30 744 H 66.7345 -3.40664 -1.86762 0
M  V30 745 H 68.4065 -4.59018 0.458312 0
M  V30 746 H 66.6495 -4.30909 0.499996 0
M  V30 747 H 67.3205 -5.48323 -0.636054 0
M  V30 748 H 69.7965 -3.83013 -1.62605 0
M  V30 749 H 68.6725 -4.8624 -2.54679 0
M  V30 750 H 68.9335 -3.19998 -3.05047 0
M  V30 751 N 67.9926 0.231505 -1.5589 0
M  V30 752 C 68.9556 1.27028 -1.90779 0
M  V30 753 C 69.9556 1.40308 -0.785507 0
M  V30 754 O 71.1456 1.38744 -1.05336 0
M  V30 755 C 68.2776 2.64566 -2.14983 0
M  V30 756 H 69.4706 0.973017 -2.83677 0
M  V30 757 H 67.0236 0.471486 -1.49019 0
M  V30 758 H 67.7586 2.99406 -1.24604 0
M  V30 759 H 67.5436 2.56305 -2.96732 0
M  V30 760 H 69.0336 3.39543 -2.43105 0
M  V30 761 N 69.4707 1.49531 0.497807 0
M  V30 762 C 70.7477 1.49682 1.25915 0
M  V30 763 C 71.1277 0.226339 2.09883 0
M  V30 764 O 70.4757 -0.791189 2.14365 0
M  V30 765 C 70.6857 2.77755 2.11313 0
M  V30 766 C 72.0337 3.27371 2.70395 0
M  V30 767 O 73.0577 2.78894 2.21578 0
M  V30 768 O 71.9167 4.11808 3.59272 0
M  V30 769 H 69.0107 0.599228 0.56996 0
M  V30 770 H 71.5567 1.61798 0.511816 0
M  V30 771 H 70.3287 3.61713 1.49264 0
M  V30 772 H 69.9517 2.68515 2.93233 0
M  V30 773 N 70.9488 -0.749086 1.3866 0
M  V30 774 C 71.8588 -1.89358 1.38494 0
M  V30 775 C 72.8748 -1.71708 0.281476 0
M  V30 776 O 74.0508 -1.94554 0.520643 0
M  V30 777 C 71.1158 -3.24782 1.21316 0
M  V30 778 C 70.1768 -3.54926 2.41508 0
M  V30 779 C 69.4098 -4.83888 2.2514 0
M  V30 780 O 69.6328 -5.56592 1.24746 0
M  V30 781 O 68.5668 -5.13612 3.13826 0
M  V30 782 H 72.3928 -1.92452 2.34938 0
M  V30 783 H 69.9778 -0.894981 1.19626 0
M  V30 784 H 71.8598 -4.05739 1.13814 0
M  V30 785 H 70.5348 -3.2249 0.279592 0
M  V30 786 H 69.4418 -2.74112 2.54585 0
M  V30 787 H 70.7748 -3.61983 3.3351 0
M  V30 788 N 72.4269 -1.23603 -0.977757 0
M  V30 789 C 73.8429 -0.999251 -1.24447 0
M  V30 790 C 74.0429 0.298053 -1.99283 0
M  V30 791 O 73.0989 1.01681 -2.31122 0
M  V30 792 C 74.4119 -2.20784 -2.04144 0
M  V30 793 C 75.9599 -2.25303 -2.17273 0
M  V30 794 C 76.4349 -3.45755 -3.00362 0
M  V30 795 N 77.9259 -3.4601 -3.07947 0
M  V30 796 C 78.6609 -4.35868 -3.72568 0
M  V30 797 N 78.1569 -5.35966 -4.38991 0
M  V30 798 N 79.9499 -4.23605 -3.6948 0
M  V30 799 H 72.1009 -2.06986 -0.476483 0
M  V30 800 H 74.3639 -0.907801 -0.273134 0
M  V30 801 H 74.0699 -3.14945 -1.56533 0
M  V30 802 H 73.9439 -2.22085 -3.04891 0
M  V30 803 H 76.3309 -1.3168 -2.64092 0
M  V30 804 H 76.4119 -2.28033 -1.15907 0
M  V30 805 H 76.0559 -4.39687 -2.5424 0
M  V30 806 H 75.9859 -3.40266 -4.01904 0
M  V30 807 H 78.4769 -2.73588 -2.60688 0
M  V30 808 H 78.7899 -6.00783 -4.86086 0
M  V30 809 H 77.1349 -5.39863 -4.37691 0
M  V30 810 H 80.3259 -3.44647 -3.16759 0
M  V30 811 H 80.4989 -4.93836 -4.1956 0
M  V30 812 N 73.905 1.17692 -1.04816 0
M  V30 813 C 74.837 2.21103 -0.603822 0
M  V30 814 C 75.85 1.59411 0.33046 0
M  V30 815 O 77.039 1.7807 0.12379 0
M  V30 816 C 74.139 3.38623 0.136898 0
M  V30 817 C 73.312 4.29888 -0.807137 0
M  V30 818 C 72.371 5.26088 -0.10836 0
M  V30 819 O 71.397 5.64353 -0.741232 0
M  V30 820 N 72.599 5.68882 1.15558 0
M  V30 821 H 75.364 2.59848 -1.49329 0
M  V30 822 H 72.925 1.32553 -0.929587 0
M  V30 823 H 74.917 4.00009 0.614401 0
M  V30 824 H 73.487 2.98508 0.927993 0
M  V30 825 H 72.707 3.65993 -1.46434 0
M  V30 826 H 73.995 4.87759 -1.44807 0
M  V30 827 H 73.393 5.39861 1.69015 0
M  V30 828 H 71.95 6.32429 1.57722 0
M  V30 829 N 75.3831 0.828654 1.34056 0
M  V30 830 C 76.3461 0.259927 2.27721 0
M  V30 831 C 77.3461 -0.565478 1.50529 0
M  V30 832 O 78.5361 -0.38075 1.69988 0
M  V30 833 C 75.6681 -0.634944 3.34935 0
M  V30 834 H 76.8611 1.0863 2.79534 0
M  V30 835 H 74.4141 0.600951 1.44285 0
M  V30 836 H 75.1491 -1.48416 2.88346 0
M  V30 837 H 74.9341 -0.0444999 3.92075 0
M  V30 838 H 76.4241 -1.02648 4.04788 0
M  V30 839 N 76.8612 -1.46375 0.584142 0
M  V30 840 C 78.1382 -1.956 0.0033388 0
M  V30 841 C 78.5182 -1.52679 -1.45782 0
M  V30 842 O 77.8662 -0.77816 -2.14842 0
M  V30 843 C 78.0762 -3.48551 0.176891 0
M  V30 844 C 79.4242 -4.24576 0.0454609 0
M  V30 845 O 80.4482 -3.56043 0.105801 0
M  V30 846 O 79.3072 -5.46427 -0.0890376 0
M  V30 847 H 76.4012 -0.825547 -0.0490066 0
M  V30 848 H 78.9472 -1.56652 0.65256 0
M  V30 849 H 77.7192 -3.72683 1.1926 0
M  V30 850 H 77.3422 -3.94332 -0.508695 0
M  V30 851 N 78.3393 -0.321999 -1.54275 0
M  V30 852 C 79.7553 0.0306999 -1.5957 0
M  V30 853 C 79.9553 1.50614 -1.33857 0
M  V30 854 O 79.0113 2.2619 -1.12223 0
M  V30 855 C 80.3243 -0.386122 -2.98211 0
M  V30 856 C 81.8723 -0.336647 -3.11184 0
M  V30 857 C 82.3473 -0.728607 -4.52167 0
M  V30 858 N 83.8383 -0.681952 -4.58152 0
M  V30 859 C 84.5733 -0.957449 -5.6535 0
M  V30 860 N 84.0693 -1.3 -6.80494 0
M  V30 861 N 85.8623 -0.883113 -5.55119 0
M  V30 862 H 78.0133 -1.28332 -1.69247 0
M  V30 863 H 80.2763 -0.521716 -0.791528 0
M  V30 864 H 79.9823 -1.41404 -3.22022 0
M  V30 865 H 79.8563 0.249662 -3.76373 0
M  V30 866 H 82.2433 0.682058 -2.8711 0
M  V30 867 H 82.3243 -1.00734 -2.3513 0
M  V30 868 H 81.9683 -1.74522 -4.76974 0
M  V30 869 H 81.8983 -0.0356152 -5.26588 0
M  V30 870 H 84.3893 -0.428985 -3.75457 0
M  V30 871 H 84.7023 -1.49563 -7.58189 0
M  V30 872 H 83.0473 -1.33824 -6.81994 0
M  V30 873 H 86.2383 -0.615001 -4.64042 0
M  V30 874 H 86.4113 -1.10118 -6.38575 0
M  V30 875 N 79.8174 1.5752 -0.0501392 0
M  V30 876 C 80.7804 2.1037 0.909786 0
M  V30 877 C 81.7804 1.02308 1.24056 0
M  V30 878 O 82.9704 1.28385 1.17741 0
M  V30 879 C 80.1024 2.58708 2.21998 0
M  V30 880 H 81.2954 2.96479 0.451665 0
M  V30 881 H 78.8484 1.55038 0.198248 0
M  V30 882 H 79.5834 1.75989 2.72394 0
M  V30 883 H 79.3684 3.37675 1.99295 0
M  V30 884 H 80.8584 2.99747 2.9076 0
M  V30 885 N 81.2955 -0.223234 1.56011 0
M  V30 886 C 82.2285 -1.30377 1.87289 0
M  V30 887 C 83.2065 -1.45286 0.730112 0
M  V30 888 O 84.3905 -1.61126 0.978302 0
M  V30 889 C 81.5175 -2.67431 2.07843 0
M  V30 890 C 80.5635 -2.69546 3.30526 0
M  V30 891 S 81.3965 -2.23781 4.865 0
M  V30 892 C 82.5525 -3.62714 5.10088 0
M  V30 893 H 82.7855 -1.03652 2.78646 0
M  V30 894 H 80.3185 -0.425393 1.48424 0
M  V30 895 H 82.2765 -3.46336 2.20368 0
M  V30 896 H 80.9375 -2.91381 1.17285 0
M  V30 897 H 80.1305 -3.70255 3.41947 0
M  V30 898 H 79.7325 -1.98703 3.16849 0
M  V30 899 H 82.0245 -4.58391 4.98883 0
M  V30 900 H 82.9675 -3.5621 6.11981 0
M  V30 901 H 83.3755 -3.56323 4.37829 0
M  V30 902 N 82.7736 -1.49793 -0.48987 0
M  V30 903 C 83.7036 -1.70201 -1.59856 0
M  V30 904 C 84.6846 -0.55076 -1.60937 0
M  V30 905 O 85.8696 -0.787841 -1.77501 0
M  V30 906 C 82.9996 -1.77882 -2.98287 0
M  V30 907 C 81.9536 -2.92907 -3.12073 0
M  V30 908 C 81.2796 -2.85712 -4.51965 0
M  V30 909 C 82.5796 -4.3369 -2.91051 0
M  V30 910 H 84.2736 -2.63025 -1.43032 0
M  V30 911 H 81.8196 -1.26574 -0.686664 0
M  V30 912 H 83.7726 -1.90744 -3.75759 0
M  V30 913 H 82.4966 -0.816653 -3.16225 0
M  V30 914 H 81.1556 -2.79665 -2.37029 0
M  V30 915 H 80.8036 -1.8738 -4.66795 0
M  V30 916 H 80.5036 -3.62921 -4.62128 0
M  V30 917 H 82.0276 -3.00598 -5.31482 0
M  V30 918 H 83.4416 -4.47555 -3.58284 0
M  V30 919 H 81.8386 -5.12205 -3.12675 0
M  V30 920 H 82.9086 -4.47362 -1.87071 0
M  V30 921 N 84.2517 0.741722 -1.39055 0
M  V30 922 C 85.4977 1.50336 -1.36113 0
M  V30 923 C 85.8307 1.94148 0.0450796 0
M  V30 924 O 85.1057 1.66301 1.00868 0
M  V30 925 C 85.3887 2.74773 -2.32749 0
M  V30 926 C 85.2417 2.37023 -3.82283 0
M  V30 927 C 86.5607 3.76846 -2.27322 0
M  V30 928 H 83.6797 0.545351 -0.495743 0
M  V30 929 H 86.3217 0.848624 -1.69995 0
M  V30 930 H 84.4717 3.30639 -2.03986 0
M  V30 931 H 86.1437 1.8684 -4.21768 0
M  V30 932 H 84.3867 1.69334 -3.99385 0
M  V30 933 H 85.0577 3.26104 -4.45376 0
M  V30 934 H 87.5337 3.30548 -2.5274 0
M  V30 935 H 86.4097 4.6159 -2.97028 0
M  V30 936 H 86.6707 4.23286 -1.27599 0
M  V30 937 N 85.7298 1.2412 0.971189 0
M  V30 938 C 86.9768 1.07881 1.71371 0
M  V30 939 C 87.3048 -0.382901 1.90694 0
M  V30 940 O 86.5598 -1.29945 1.46331 0
M  V30 941 C 86.8588 1.75983 3.11071 0
M  V30 942 C 86.5248 3.25909 3.11599 0
M  V30 943 C 85.1868 3.66813 3.11451 0
M  V30 944 C 87.5388 4.21771 3.062 0
M  V30 945 C 84.8668 5.02021 3.03631 0
M  V30 946 C 87.2188 5.56982 2.99923 0
M  V30 947 C 85.8828 5.97237 2.98102 0
M  V30 948 H 85.1528 0.394764 0.62709 0
M  V30 949 H 87.7998 1.54176 1.13587 0
M  V30 950 H 86.1048 1.22072 3.72298 0
M  V30 951 H 87.8018 1.60887 3.6731 0
M  V30 952 H 84.3918 2.93353 3.12477 0
M  V30 953 H 88.5758 3.91172 3.05447 0
M  V30 954 H 83.8318 5.32411 3.0058 0
M  V30 955 H 88.0058 6.30969 2.94704 0
M  V30 956 H 85.6328 7.01967 2.91798 0
M  V30 957 N 87.2079 -1.17134 1.05439 0
M  V30 958 C 88.4849 -1.83411 0.679699 0
M  V30 959 C 88.8649 -1.9368 -0.839726 0
M  V30 960 O 88.2129 -1.47325 -1.74664 0
M  V30 961 C 88.4229 -3.20918 1.37159 0
M  V30 962 C 89.7709 -3.96796 1.51123 0
M  V30 963 O 90.7949 -3.30406 1.3308 0
M  V30 964 O 89.6539 -5.15778 1.80651 0
M  V30 965 H 86.7479 -0.79154 0.239569 0
M  V30 966 H 89.2939 -1.24411 1.15413 0
M  V30 967 H 88.0659 -3.08428 2.40807 0
M  V30 968 H 87.6889 -3.87587 0.886674 0
M  V30 969 N 88.686 -0.835752 -1.33615 0
M  V30 970 C 90.097 -0.487099 -1.80234 0
M  V30 971 C 90.448 0.993627 -1.69179 0
M  V30 972 O 89.573 1.77403 -1.23924 0
M  V30 973 C 90.168 -0.877385 -3.27242 0
M  V30 974 C 88.727 -0.580915 -3.7189 0
M  V30 975 C 87.874 -1.0874 -2.5509 0
M  V30 976 H 90.825 -1.02474 -1.2118 0
M  V30 977 H 90.846 -0.186195 -3.80044 0
M  V30 978 H 90.358 -1.95512 -3.35256 0
M  V30 979 H 88.459 0.486881 -3.69405 0
M  V30 980 H 88.572 -1.13396 -4.65487 0
M  V30 981 H 86.936 -0.508392 -2.49575 0
M  V30 982 H 87.719 -2.17184 -2.65868 0
M  V30 983 N 90.1641 1.46063 -0.591896 0
M  V30 984 C 91.4101 2.02638 -0.0811191 0
M  V30 985 C 91.7431 1.4613 1.27905 0
M  V30 986 O 91.0181 0.629908 1.84017 0
M  V30 987 C 91.3011 3.60091 -0.0252436 0
M  V30 988 C 91.1541 4.26965 -1.41496 0
M  V30 989 C 92.4731 4.3496 0.670685 0
M  V30 990 H 89.5921 0.73635 -0.0309524 0
M  V30 991 H 92.2341 1.741 -0.760859 0
M  V30 992 H 90.3841 3.84535 0.553624 0
M  V30 993 H 92.0561 4.13756 -2.0397 0
M  V30 994 H 90.2991 3.85971 -1.98011 0
M  V30 995 H 90.9701 5.35781 -1.32825 0
M  V30 996 H 93.4461 4.15716 0.178825 0
M  V30 997 H 92.3221 5.44686 0.678837 0
M  V30 998 H 92.5831 4.06685 1.73379 0
M  V30 999 N 91.6422 0.330177 1.54103 0
M  V30 1000 C 93.0582 -0.0222371 1.59585 0
M  V30 1001 C 93.2582 -1.49902 1.34654 0
M  V30 1002 O 92.3142 -2.25592 1.13421 0
M  V30 1003 C 93.6272 0.401932 2.98002 0
M  V30 1004 C 95.1752 0.353145 3.11001 0
M  V30 1005 C 95.6502 0.752576 4.51775 0
M  V30 1006 N 97.1412 0.706239 4.57784 0
M  V30 1007 C 97.8762 0.987417 5.64834 0
M  V30 1008 N 97.3722 1.33607 6.79795 0
M  V30 1009 N 99.1652 0.91254 5.54643 0
M  V30 1010 H 91.3162 1.29228 1.68564 0
M  V30 1011 H 93.5792 0.525906 0.78875 0
M  V30 1012 H 93.2852 1.4311 3.21267 0
M  V30 1013 H 93.1592 -0.229699 3.765 0
M  V30 1014 H 95.5462 -0.666822 2.87467 0
M  V30 1015 H 95.6272 1.0198 2.34593 0
M  V30 1016 H 95.2712 1.77049 4.76042 0
M  V30 1017 H 95.2012 0.0635409 5.26562 0
M  V30 1018 H 97.6922 0.44889 3.75224 0
M  V30 1019 H 98.0052 1.53582 7.57385 0
M  V30 1020 H 96.3502 1.37439 6.81275 0
M  V30 1021 H 99.5412 0.639601 4.6371 0
M  V30 1022 H 99.7142 1.13503 6.37982 0
M  V30 1023 N 93.1203 -1.57491 0.0584922 0
M  V30 1024 C 94.3453 -1.97711 -0.62652 0
M  V30 1025 C 94.7703 -0.936132 -1.63151 0
M  V30 1026 O 94.1283 0.099811 -1.81025 0
M  V30 1027 C 94.1763 -3.36989 -1.28338 0
M  V30 1028 O 93.2803 -3.35433 -2.39913 0
M  V30 1029 H 92.6213 -0.643868 -0.162266 0
M  V30 1030 H 95.1513 -2.04193 0.129064 0
M  V30 1031 H 95.1613 -3.73879 -1.63335 0
M  V30 1032 H 93.8363 -4.12289 -0.546889 0
M  V30 1033 H 92.4133 -3.10298 -2.06809 0
M  V30 1034 N 94.5984 0.214957 -1.56127 0
M  V30 1035 C 95.5454 1.26642 -1.92952 0
M  V30 1036 C 96.5154 1.46244 -0.78753 0
M  V30 1037 O 97.7004 1.59704 -1.04399 0
M  V30 1038 C 94.8404 2.6104 -2.25726 0
M  V30 1039 C 93.9534 2.49183 -3.52891 0
M  V30 1040 C 93.0884 3.76149 -3.7508 0
M  V30 1041 C 92.1274 3.59041 -4.95738 0
M  V30 1042 N 91.2644 4.77972 -5.14283 0
M  V30 1043 H 96.1044 0.945384 -2.82607 0
M  V30 1044 H 93.6414 0.455489 -1.3987 0
M  V30 1045 H 95.5994 3.39313 -2.42739 0
M  V30 1046 H 94.2294 2.91227 -1.39236 0
M  V30 1047 H 93.2814 1.6231 -3.44034 0
M  V30 1048 H 94.5934 2.32466 -4.41318 0
M  V30 1049 H 93.7474 4.62865 -3.92226 0
M  V30 1050 H 92.4864 3.95799 -2.84947 0
M  V30 1051 H 91.4914 2.7071 -4.78535 0
M  V30 1052 H 92.7164 3.40856 -5.87362 0
M  V30 1053 H 90.6624 4.97923 -4.27093 0
M  V30 1054 H 90.5794 4.64006 -5.96853 0
M  V30 1055 H 91.8474 5.66096 -5.35869 0
M  V30 1056 N 96.0765 1.50051 0.48192 0
M  V30 1057 C 97.0235 1.68122 1.58125 0
M  V30 1058 C 97.9935 0.522545 1.57666 0
M  V30 1059 O 99.1785 0.751844 1.75362 0
M  V30 1060 C 96.3185 1.77142 2.96167 0
M  V30 1061 C 95.4315 3.0444 3.06497 0
M  V30 1062 C 94.5665 3.04321 4.35387 0
M  V30 1063 C 93.6055 4.26118 4.3942 0
M  V30 1064 N 92.7425 4.238 5.59766 0
M  V30 1065 H 97.5825 2.6198 1.42022 0
M  V30 1066 H 95.1195 1.29877 0.690687 0
M  V30 1067 H 97.0775 1.80352 3.76203 0
M  V30 1068 H 95.7075 0.867329 3.1093 0
M  V30 1069 H 94.7595 3.10752 2.19402 0
M  V30 1070 H 96.0715 3.94426 3.05336 0
M  V30 1071 H 95.2255 3.062 5.23762 0
M  V30 1072 H 93.9645 2.12147 4.39141 0
M  V30 1073 H 92.9695 4.24463 3.49444 0
M  V30 1074 H 94.1945 5.19507 4.37366 0
M  V30 1075 H 92.1405 3.34474 5.64326 0
M  V30 1076 H 92.0575 5.07542 5.60301 0
M  V30 1077 H 93.3255 4.2981 6.50295 0
M  V30 1078 N 97.5546 -0.734337 1.39446 0
M  V30 1079 C 98.9706 -1.03997 1.21065 0
M  V30 1080 C 99.1706 -2.01369 0.0727019 0
M  V30 1081 O 98.2266 -2.45856 -0.575426 0
M  V30 1082 C 99.5396 -1.60163 2.54496 0
M  V30 1083 C 101.088 -1.7224 2.61347 0
M  V30 1084 C 101.563 -2.31814 3.95002 0
M  V30 1085 N 103.054 -2.39223 3.96644 0
M  V30 1086 C 103.789 -2.86258 4.96834 0
M  V30 1087 N 103.285 -3.33184 6.07421 0
M  V30 1088 N 105.078 -2.85473 4.84213 0
M  V30 1089 H 97.2286 -0.0885624 2.12215 0
M  V30 1090 H 99.4916 -0.10191 0.942506 0
M  V30 1091 H 99.1976 -0.960811 3.38321 0
M  V30 1092 H 99.0716 -2.5896 2.74262 0
M  V30 1093 H 101.459 -2.35443 1.77906 0
M  V30 1094 H 101.54 -0.720939 2.4543 0
M  V30 1095 H 101.184 -1.69238 4.78875 0
M  V30 1096 H 101.114 -3.32638 4.08239 0
M  V30 1097 H 103.605 -2.06057 3.16779 0
M  V30 1098 H 103.918 -3.67586 6.7978 0
M  V30 1099 H 102.263 -3.31191 6.11013 0
M  V30 1100 H 105.454 -2.48136 3.96921 0
M  V30 1101 H 105.627 -3.21814 5.62441 0
M  V30 1102 N 99.0327 -1.24633 -0.964593 0
M  V30 1103 C 100.263 -1.11339 -1.74032 0
M  V30 1104 C 100.671 0.336593 -1.86182 0
M  V30 1105 O 100.014 1.24389 -1.35178 0
M  V30 1106 C 100.076 -1.68284 -3.1768 0
M  V30 1107 C 99.7397 -3.17196 -3.28992 0
M  V30 1108 C 100.737 -4.14308 -3.14078 0
M  V30 1109 C 98.4217 -3.57215 -3.53133 0
M  V30 1110 C 100.416 -5.4942 -3.23135 0
M  V30 1111 C 98.1027 -4.92468 -3.61827 0
M  V30 1112 C 99.1007 -5.8838 -3.46841 0
M  V30 1113 O 98.7887 -7.21173 -3.55197 0
M  V30 1114 H 98.5207 -0.389551 -0.552472 0
M  V30 1115 H 101.075 -1.65282 -1.21946 0
M  V30 1116 H 99.3047 -1.08777 -3.71085 0
M  V30 1117 H 100.994 -1.50234 -3.77074 0
M  V30 1118 H 101.76 -3.84731 -2.95308 0
M  V30 1119 H 97.6387 -2.83063 -3.63863 0
M  V30 1120 H 101.183 -6.24263 -3.11355 0
M  V30 1121 H 97.0797 -5.21714 -3.80111 0
M  V30 1122 H 97.8477 -7.29135 -3.71892 0
M  V30 1123 N 100.511 1.16574 -1.06058 0
M  V30 1124 C 101.736 1.91493 -0.796562 0
M  V30 1125 C 102.161 1.76773 0.642868 0
M  V30 1126 O 101.519 1.09142 1.44768 0
M  V30 1127 C 101.567 3.40293 -1.19303 0
M  V30 1128 O 100.671 4.11074 -0.330394 0
M  V30 1129 H 100.012 0.596678 -0.291326 0
M  V30 1130 H 102.542 1.47708 -1.41575 0
M  V30 1131 H 102.552 3.91057 -1.16356 0
M  V30 1132 H 101.227 3.50326 -2.24153 0
M  V30 1133 H 99.8038 3.70513 -0.421225 0
M  V30 1134 N 101.989 0.842826 1.3317 0
M  V30 1135 C 103.4 0.496651 1.79973 0
M  V30 1136 C 103.751 -0.984641 1.69703 0
M  V30 1137 O 102.876 -1.76743 1.24863 0
M  V30 1138 C 103.471 0.894727 3.26772 0
M  V30 1139 C 102.03 0.600629 3.71577 0
M  V30 1140 C 101.177 1.10091 2.5451 0
M  V30 1141 H 104.128 1.03116 1.20635 0
M  V30 1142 H 104.149 0.206347 3.7994 0
M  V30 1143 H 103.661 1.97287 3.34215 0
M  V30 1144 H 101.762 -0.467284 3.69658 0
M  V30 1145 H 101.875 1.15863 4.64879 0
M  V30 1146 H 100.239 0.52162 2.49301 0
M  V30 1147 H 101.022 2.18591 2.64713 0
M  V30 1148 N 103.467 -1.45747 0.599634 0
M  V30 1149 C 104.43 -2.28917 -0.113835 0
M  V30 1150 C 105.43 -1.3933 -0.802729 0
M  V30 1151 O 106.62 -1.61534 -0.652103 0
M  V30 1152 C 103.752 -3.20152 -1.17114 0
M  V30 1153 H 104.945 -2.93478 0.617289 0
M  V30 1154 H 102.498 -1.52137 0.358327 0
M  V30 1155 H 103.233 -2.60374 -1.93329 0
M  V30 1156 H 103.018 -3.86133 -0.681468 0
M  V30 1157 H 104.508 -3.82708 -1.67105 0
M  V30 1158 N 104.945 -0.338344 -1.53925 0
M  V30 1159 C 106.17 0.263987 -2.05713 0
M  V30 1160 C 106.595 1.43847 -1.21201 0
M  V30 1161 O 105.953 1.79904 -0.224535 0
M  V30 1162 C 106.001 0.662 -3.54471 0
M  V30 1163 O 105.105 1.76265 -3.72833 0
M  V30 1164 H 104.446 0.0448722 -0.662482 0
M  V30 1165 H 106.976 -0.491048 -1.9862 0
M  V30 1166 H 106.986 0.940594 -3.9701 0
M  V30 1167 H 105.661 -0.196937 -4.15433 0
M  V30 1168 H 104.238 1.48173 -3.42198 0
M  V30 1169 N 106.423 1.57458 -0.0668435 0
M  V30 1170 C 107.651 1.97624 0.612565 0
M  V30 1171 C 108.066 0.94502 1.63447 0
M  V30 1172 O 107.423 -0.0689276 1.8237 0
M  V30 1173 C 107.474 3.37869 1.28555 0
M  V30 1174 O 107.195 4.3704 0.304557 0
M  V30 1175 C 108.696 3.92882 2.05325 0
M  V30 1176 H 105.916 0.650045 0.166381 0
M  V30 1177 H 108.46 2.04035 -0.137782 0
M  V30 1178 H 106.615 3.3256 1.98702 0
M  V30 1179 H 107.029 5.18565 0.786779 0
M  V30 1180 H 108.503 4.93247 2.47812 0
M  V30 1181 H 108.98 3.29156 2.9078 0
M  V30 1182 H 109.586 4.01577 1.40056 0
M  V30 1183 N 107.901 -0.206675 1.56239 0
M  V30 1184 C 109.148 -0.928842 1.79941 0
M  V30 1185 C 109.476 -1.83734 0.638131 0
M  V30 1186 O 108.731 -1.92039 -0.376746 0
M  V30 1187 C 109.03 -1.78675 3.09532 0
M  V30 1188 C 108.696 -1.03022 4.38973 0
M  V30 1189 C 107.358 -0.821302 4.74139 0
M  V30 1190 C 109.71 -0.497081 5.18824 0
M  V30 1191 C 107.038 -0.0675719 5.86661 0
M  V30 1192 C 109.39 0.24338 6.32132 0
M  V30 1193 C 108.054 0.463422 6.65889 0
M  V30 1194 H 107.324 -0.339887 0.658451 0
M  V30 1195 H 109.971 -0.195977 1.90495 0
M  V30 1196 H 108.276 -2.58794 2.94165 0
M  V30 1197 H 109.973 -2.34792 3.25075 0
M  V30 1198 H 106.563 -1.20306 4.11369 0
M  V30 1199 H 110.747 -0.645921 4.92079 0
M  V30 1200 H 106.003 0.112995 6.11296 0
M  V30 1201 H 110.177 0.66393 6.93228 0
M  V30 1202 H 107.804 1.04938 7.52922 0
M  V30 1203 N 109.379 -1.50304 -0.473955 0
M  V30 1204 C 110.326 -1.68959 -1.57231 0
M  V30 1205 C 111.296 -0.530899 -1.57387 0
M  V30 1206 O 112.481 -0.761133 -1.74961 0
M  V30 1207 C 109.621 -1.7871 -2.95223 0
M  V30 1208 C 108.734 -3.06061 -3.04878 0
M  V30 1209 C 107.869 -3.06626 -4.33767 0
M  V30 1210 C 106.908 -4.28443 -4.37154 0
M  V30 1211 N 106.045 -4.26763 -5.5751 0
M  V30 1212 H 110.885 -2.6273 -1.40631 0
M  V30 1213 H 108.422 -1.30241 -0.683789 0
M  V30 1214 H 110.38 -1.82344 -3.75242 0
M  V30 1215 H 109.01 -0.883806 -3.10465 0
M  V30 1216 H 108.062 -3.11911 -2.17751 0
M  V30 1217 H 109.374 -3.96039 -3.0324 0
M  V30 1218 H 108.528 -3.08973 -5.22131 0
M  V30 1219 H 107.267 -2.14473 -4.3801 0
M  V30 1220 H 106.272 -4.2631 -3.47188 0
M  V30 1221 H 107.497 -5.2182 -4.34605 0
M  V30 1222 H 105.443 -3.37462 -5.62544 0
M  V30 1223 H 105.36 -5.10507 -5.57601 0
M  V30 1224 H 106.628 -4.33253 -6.48006 0
M  V30 1225 N 110.857 0.726932 -1.39834 0
M  V30 1226 C 112.106 1.48214 -1.36805 0
M  V30 1227 C 112.419 1.95576 0.0305291 0
M  V30 1228 O 113.625 2.7088 0.183417 0
M  V30 1229 C 112.081 2.67854 -2.40379 0
M  V30 1230 C 111.689 2.27408 -3.85992 0
M  V30 1231 C 113.433 3.45641 -2.46439 0
M  V30 1232 C 111.34 3.43819 -4.81189 0
M  V30 1233 H 110.27 0.556606 -0.508631 0
M  V30 1234 H 112.921 0.792216 -1.65518 0
M  V30 1235 H 111.303 3.3896 -2.04749 0
M  V30 1236 H 112.477 1.63795 -4.30706 0
M  V30 1237 H 110.792 1.62692 -3.83302 0
M  V30 1238 H 113.389 4.32244 -3.14753 0
M  V30 1239 H 113.732 3.88669 -1.49139 0
M  V30 1240 H 114.265 2.8157 -2.81004 0
M  V30 1241 H 111.004 3.05834 -5.79781 0
M  V30 1242 H 110.524 4.06385 -4.41148 0
M  V30 1243 H 112.203 4.10043 -5.00474 0
M  V30 1244 N 112.336 1.25143 0.95797 0
M  V30 1245 C 113.747 1.08851 1.51685 0
M  V30 1246 C 114.098 -0.33687 1.93286 0
M  V30 1247 O 113.223 -1.22644 1.7829 0
M  V30 1248 C 113.818 1.96978 2.75654 0
M  V30 1249 C 112.377 1.84881 3.27866 0
M  V30 1250 C 111.524 1.91329 2.0072 0
M  V30 1251 H 114.475 1.38478 0.77522 0
M  V30 1252 H 114.496 1.5078 3.4935 0
M  V30 1253 H 114.008 3.00712 2.45345 0
M  V30 1254 H 112.109 0.840182 3.63004 0
M  V30 1255 H 112.222 2.6951 3.96107 0
M  V30 1256 H 110.586 1.35174 2.15871 0
M  V30 1257 H 111.369 2.96661 1.72764 0
M  V30 1258 N 113.814 -1.1601 1.06675 0
M  V30 1259 C 114.764 -2.18512 0.650888 0
M  V30 1260 C 115.748 -1.57677 -0.320441 0
M  V30 1261 O 116.94 -1.76482 -0.135266 0
M  V30 1262 C 114.069 -3.43273 0.0429255 0
M  V30 1263 C 113.155 -4.11176 1.03898 0
M  V30 1264 N 113.546 -4.54672 2.216 0
M  V30 1265 C 111.844 -4.37417 0.870779 0
M  V30 1266 C 112.545 -5.07248 2.84736 0
M  V30 1267 N 111.521 -5.0037 2.12441 0
M  V30 1268 H 115.323 -2.49863 1.54745 0
M  V30 1269 H 112.837 -1.32503 0.938975 0
M  V30 1270 H 114.834 -4.16006 -0.272857 0
M  V30 1271 H 113.494 -3.13408 -0.84884 0
M  V30 1272 H 114.505 -4.4828 2.59356 0
M  V30 1273 H 111.182 -4.17488 0.0313293 0
M  V30 1274 H 112.572 -5.50912 3.84636 0
M  V30 1275 N 115.292 -0.849877 -1.32721 0
M  V30 1276 C 116.52 -0.464754 -2.01613 0
M  V30 1277 C 116.935 0.937191 -1.63897 0
M  V30 1278 O 116.292 1.61081 -0.857856 0
M  V30 1279 C 116.343 -0.588638 -3.56675 0
M  V30 1280 O 116.064 -1.93535 -3.93034 0
M  V30 1281 C 117.565 -0.2019 -4.4284 0
M  V30 1282 H 114.785 -0.183215 -0.645502 0
M  V30 1283 H 117.329 -1.1455 -1.69407 0
M  V30 1284 H 115.484 0.0443159 -3.87375 0
M  V30 1285 H 115.898 -1.92871 -4.87751 0
M  V30 1286 H 117.372 -0.339599 -5.50954 0
M  V30 1287 H 117.849 0.857224 -4.30753 0
M  V30 1288 H 118.455 -0.809733 -4.17521 0
M  V30 1289 N 116.77 1.45427 -0.607355 0
M  V30 1290 C 117.7 2.3329 0.0989352 0
M  V30 1291 C 118.681 1.46816 0.859007 0
M  V30 1292 O 119.866 1.75588 0.829604 0
M  V30 1293 C 116.996 3.29518 1.09705 0
M  V30 1294 C 115.95 4.25626 0.450206 0
M  V30 1295 C 115.276 5.11542 1.55655 0
M  V30 1296 C 116.576 5.18505 -0.628455 0
M  V30 1297 H 118.27 2.92595 -0.634716 0
M  V30 1298 H 115.816 1.40696 -0.306681 0
M  V30 1299 H 117.769 3.89855 1.59971 0
M  V30 1300 H 116.493 2.68372 1.86129 0
M  V30 1301 H 115.152 3.66586 -0.0315886 0
M  V30 1302 H 114.8 4.46765 2.31107 0
M  V30 1303 H 114.5 5.76647 1.12925 0
M  V30 1304 H 116.024 5.74748 2.06148 0
M  V30 1305 H 117.438 5.72916 -0.209877 0
M  V30 1306 H 115.835 5.92085 -0.977489 0
M  V30 1307 H 116.905 4.60948 -1.50514 0
M  V30 1308 N 118.248 0.346503 1.53744 0
M  V30 1309 C 119.495 -0.249104 2.00962 0
M  V30 1310 C 119.823 -1.5032 1.23426 0
M  V30 1311 O 119.078 -1.93217 0.310761 0
M  V30 1312 C 119.377 -0.605809 3.52228 0
M  V30 1313 C 119.043 0.551747 4.47512 0
M  V30 1314 C 117.705 0.86941 4.73281 0
M  V30 1315 C 120.057 1.32818 5.03993 0
M  V30 1316 C 117.385 1.96582 5.52786 0
M  V30 1317 C 119.737 2.41486 5.84694 0
M  V30 1318 C 118.401 2.73808 6.08757 0
M  V30 1319 H 117.671 -0.0911538 0.735372 0
M  V30 1320 H 120.318 0.475027 1.85515 0
M  V30 1321 H 118.623 -1.4107 3.65522 0
M  V30 1322 H 120.32 -1.07858 3.86222 0
M  V30 1323 H 116.91 0.294102 4.2759 0
M  V30 1324 H 121.094 1.09602 4.84047 0
M  V30 1325 H 116.35 2.22045 5.69654 0
M  V30 1326 H 120.524 3.02078 6.27473 0
M  V30 1327 H 118.151 3.58892 6.7015 0
M  V30 1328 N 119.726 -1.57421 0.075193 0
M  V30 1329 C 120.689 -2.11791 -0.876203 0
M  V30 1330 C 121.689 -1.04268 -1.22412 0
M  V30 1331 O 122.879 -1.30242 -1.15684 0
M  V30 1332 C 120.011 -2.62207 -2.17854 0
M  V30 1333 H 121.204 -2.9716 -0.40444 0
M  V30 1334 H 118.757 -1.55333 -0.173557 0
M  V30 1335 H 119.492 -1.803 -2.6956 0
M  V30 1336 H 119.277 -3.40802 -1.93897 0
M  V30 1337 H 120.767 -3.04335 -2.85955 0
M  V30 1338 N 121.204 0.198386 -1.56346 0
M  V30 1339 C 122.134 1.24865 -1.9731 0
M  V30 1340 C 123.115 1.47651 -0.844576 0
M  V30 1341 O 124.3 1.59444 -1.10866 0
M  V30 1342 C 121.43 2.59358 -2.30977 0
M  V30 1343 C 120.384 2.5119 -3.46537 0
M  V30 1344 C 119.71 3.89926 -3.65871 0
M  V30 1345 C 121.01 2.03977 -4.80823 0
M  V30 1346 H 122.704 0.908252 -2.85291 0
M  V30 1347 H 120.25 0.435462 -1.37258 0
M  V30 1348 H 122.203 3.33011 -2.58228 0
M  V30 1349 H 120.927 2.95132 -1.39874 0
M  V30 1350 H 119.586 1.79993 -3.19371 0
M  V30 1351 H 119.234 4.23046 -2.72105 0
M  V30 1352 H 118.934 3.85336 -4.4361 0
M  V30 1353 H 120.458 4.65205 -3.95495 0
M  V30 1354 H 121.872 2.67386 -5.07127 0
M  V30 1355 H 120.269 2.10397 -5.62008 0
M  V30 1356 H 121.339 0.992861 -4.74626 0
M  V30 1357 N 122.682 1.50554 0.465978 0
M  V30 1358 C 123.959 1.5232 1.22712 0
M  V30 1359 C 124.339 0.270807 2.09356 0
M  V30 1360 O 123.687 -0.745541 2.15995 0
M  V30 1361 C 123.897 2.82175 2.05374 0
M  V30 1362 C 125.245 3.33033 2.6339 0
M  V30 1363 O 126.269 2.83531 2.15612 0
M  V30 1364 O 125.128 4.19336 3.50456 0
M  V30 1365 H 122.222 0.611183 0.557122 0
M  V30 1366 H 124.768 1.62847 0.477381 0
M  V30 1367 H 123.54 3.64797 1.41558 0
M  V30 1368 H 123.163 2.74675 2.87471 0
M  V30 1369 N 124.16 -0.719506 1.40217 0
M  V30 1370 C 125.123 -1.8153 1.39927 0
M  V30 1371 C 126.123 -1.58095 0.293723 0
M  V30 1372 O 127.313 -1.65209 0.552429 0
M  V30 1373 C 124.445 -3.19561 1.18716 0
M  V30 1374 H 125.638 -1.83186 2.37451 0
M  V30 1375 H 123.191 -0.924746 1.26008 0
M  V30 1376 H 123.926 -3.23557 0.219366 0
M  V30 1377 H 123.711 -3.3797 1.98793 0
M  V30 1378 H 125.201 -3.99598 1.21291 0
M  V30 1379 N 125.638 -1.25649 -0.95132 0
M  V30 1380 C 126.886 -1.10375 -1.69298 0
M  V30 1381 C 127.207 0.355339 -1.91735 0
M  V30 1382 O 126.477 1.25188 -1.50681 0
M  V30 1383 H 125.057 -0.405461 -0.627384 0
M  V30 1384 H 127.719 -1.57823 -1.14358 0
M  V30 1385 H 126.815 -1.61465 -2.67087 0
M  V30 1386 N 127.117 1.15442 -1.07289 0
M  V30 1387 C 128.08 2.18358 -0.696591 0
M  V30 1388 C 129.08 1.58637 0.262837 0
M  V30 1389 O 130.27 1.74145 0.0438809 0
M  V30 1390 C 127.402 3.4089 -0.0266151 0
M  V30 1391 H 128.595 2.53162 -1.60776 0
M  V30 1392 H 126.148 1.29893 -0.869342 0
M  V30 1393 H 126.883 3.11653 0.896822 0
M  V30 1394 H 126.668 3.85495 -0.716657 0
M  V30 1395 H 128.158 4.17009 0.222028 0
M  V30 1396 N 128.595 0.856903 1.32268 0
M  V30 1397 C 129.841 0.462069 1.97466 0
M  V30 1398 C 130.174 -0.980298 1.67642 0
M  V30 1399 O 129.449 -1.68824 0.965858 0
M  V30 1400 C 129.732 0.704336 3.53145 0
M  V30 1401 C 129.585 2.19529 3.9259 0
M  V30 1402 C 130.904 0.1622 4.39801 0
M  V30 1403 H 128.023 0.169357 0.717278 0
M  V30 1404 H 130.665 1.07574 1.56614 0
M  V30 1405 H 128.815 0.181999 3.88073 0
M  V30 1406 H 130.487 2.78387 3.67829 0
M  V30 1407 H 128.73 2.67292 3.41668 0
M  V30 1408 H 129.401 2.31549 5.01088 0
M  V30 1409 H 131.877 0.608905 4.11621 0
M  V30 1410 H 130.753 0.361265 5.4771 0
M  V30 1411 H 131.014 -0.935158 4.32096 0
M  V30 1412 N 130.073 -1.45103 0.615059 0
M  V30 1413 C 131.489 -1.57137 0.279322 0
M  V30 1414 C 131.689 -1.60523 -1.21797 0
M  V30 1415 O 130.745 -1.53956 -2.00134 0
M  V30 1416 C 132.058 -2.85062 0.957083 0
M  V30 1417 C 133.606 -2.98749 0.933706 0
M  V30 1418 C 134.081 -4.29455 1.59162 0
M  V30 1419 N 135.572 -4.36231 1.55746 0
M  V30 1420 C 136.307 -5.36051 2.0356 0
M  V30 1421 N 135.803 -6.42367 2.59494 0
M  V30 1422 N 137.596 -5.27456 1.94284 0
M  V30 1423 H 129.747 -1.41148 1.58717 0
M  V30 1424 H 132.01 -0.675331 0.665306 0
M  V30 1425 H 131.716 -2.88488 2.01166 0
M  V30 1426 H 131.59 -3.7407 0.48494 0
M  V30 1427 H 133.977 -2.94886 -0.112347 0
M  V30 1428 H 134.058 -2.11132 1.44419 0
M  V30 1429 H 133.702 -4.34077 2.63704 0
M  V30 1430 H 133.632 -5.15901 1.0561 0
M  V30 1431 H 136.123 -3.60011 1.14893 0
M  V30 1432 H 136.436 -7.14793 2.93752 0
M  V30 1433 H 134.781 -6.43097 2.63537 0
M  V30 1434 H 137.972 -4.43308 1.5032 0
M  V30 1435 H 138.145 -6.05099 2.3186 0
M  V30 1436 N 131.551 -0.354651 -1.53558 0
M  V30 1437 C 132.828 0.294281 -1.93374 0
M  V30 1438 C 133.208 1.67313 -1.28723 0
M  V30 1439 O 132.556 2.24179 -0.442247 0
M  V30 1440 C 132.766 0.355445 -3.47185 0
M  V30 1441 C 134.114 0.601007 -4.20325 0
M  V30 1442 O 135.138 0.437106 -3.53508 0
M  V30 1443 O 133.997 0.919322 -5.38712 0
M  V30 1444 H 131.091 0.174033 -0.808481 0
M  V30 1445 H 133.637 -0.406638 -1.64756 0
M  V30 1446 H 132.409 -0.611729 -3.86489 0
M  V30 1447 H 132.032 1.1027 -3.82003 0
M  V30 1448 N 133.029 1.57378 -0.0835403 0
M  V30 1449 C 133.939 2.16897 0.894021 0
M  V30 1450 C 134.955 1.13528 1.31861 0
M  V30 1451 O 136.131 1.45848 1.3889 0
M  V30 1452 C 133.196 2.72831 2.13925 0
M  V30 1453 C 132.257 3.91115 1.76997 0
M  V30 1454 C 131.49 4.44371 2.95584 0
M  V30 1455 O 131.713 3.96596 4.09961 0
M  V30 1456 O 130.647 5.35549 2.74719 0
M  V30 1457 H 134.473 3.00814 0.417679 0
M  V30 1458 H 132.058 1.48741 0.140181 0
M  V30 1459 H 133.94 3.0863 2.86924 0
M  V30 1460 H 132.615 1.91967 2.60635 0
M  V30 1461 H 131.522 3.60148 1.01214 0
M  V30 1462 H 132.855 4.73307 1.3506 0
M  V30 1463 N 134.507 -0.190092 1.56449 0
M  V30 1464 C 135.754 -0.909705 1.80916 0
M  V30 1465 C 136.082 -1.83047 0.657583 0
M  V30 1466 O 135.337 -1.92428 -0.356356 0
M  V30 1467 C 135.636 -1.75382 3.1141 0
M  V30 1468 C 135.302 -0.983606 4.40041 0
M  V30 1469 C 133.964 -0.770967 4.74984 0
M  V30 1470 C 136.316 -0.442024 5.19322 0
M  V30 1471 C 133.644 -0.0053448 5.867 0
M  V30 1472 C 135.996 0.310412 6.31838 0
M  V30 1473 C 134.66 0.534023 6.6536 0
M  V30 1474 H 133.93 -0.332885 0.662019 0
M  V30 1475 H 136.577 -0.175762 1.90692 0
M  V30 1476 H 134.882 -2.55659 2.96893 0
M  V30 1477 H 136.579 -2.31331 3.27547 0
M  V30 1478 H 133.169 -1.15936 4.12622 0
M  V30 1479 H 137.353 -0.593693 4.92736 0
M  V30 1480 H 132.609 0.177825 6.11141 0
M  V30 1481 H 136.783 0.737419 6.92485 0
M  V30 1482 H 134.41 1.12918 7.51767 0
M  V30 1483 N 135.985 -1.50799 -0.457987 0
M  V30 1484 C 136.917 -1.66786 -1.57211 0
M  V30 1485 C 137.93 -0.548962 -1.53265 0
M  V30 1486 O 139.119 -0.8226 -1.58416 0
M  V30 1487 C 136.219 -1.64834 -2.96113 0
M  V30 1488 C 135.392 -2.92971 -3.24787 0
M  V30 1489 C 134.451 -2.83485 -4.43309 0
M  V30 1490 O 133.477 -3.5744 -4.42973 0
M  V30 1491 N 134.679 -1.97929 -5.45714 0
M  V30 1492 H 137.444 -2.62889 -1.43909 0
M  V30 1493 H 135.005 -1.48427 -0.646617 0
M  V30 1494 H 136.997 -1.56084 -3.7339 0
M  V30 1495 H 135.567 -0.764118 -3.03117 0
M  V30 1496 H 134.787 -3.15749 -2.36 0
M  V30 1497 H 136.075 -3.77834 -3.40762 0
M  V30 1498 H 135.473 -1.37182 -5.48815 0
M  V30 1499 H 134.03 -1.95073 -6.21924 0
M  V30 1500 N 137.463 0.71206 -1.40597 0
M  V30 1501 C 138.712 1.46754 -1.38369 0
M  V30 1502 C 139.025 1.95598 0.0097839 0
M  V30 1503 O 140.231 2.71059 0.154677 0
M  V30 1504 C 138.687 2.65289 -2.43207 0
M  V30 1505 C 138.295 2.23301 -3.88382 0
M  V30 1506 C 140.039 3.43008 -2.50091 0
M  V30 1507 C 137.946 3.38696 -4.84808 0
M  V30 1508 H 136.876 0.55118 -0.514506 0
M  V30 1509 H 139.527 0.774616 -1.66349 0
M  V30 1510 H 137.909 3.36769 -2.08332 0
M  V30 1511 H 139.083 1.59218 -4.32419 0
M  V30 1512 H 137.398 1.58618 -3.85006 0
M  V30 1513 H 139.995 4.28881 -3.1932 0
M  V30 1514 H 140.338 3.87065 -1.53253 0
M  V30 1515 H 140.871 2.78574 -2.83974 0
M  V30 1516 H 137.61 2.99668 -5.82992 0
M  V30 1517 H 137.13 4.01683 -4.45433 0
M  V30 1518 H 138.809 4.04712 -5.04794 0
M  V30 1519 N 138.941 1.26152 0.944643 0
M  V30 1520 C 140.188 1.11492 1.69044 0
M  V30 1521 C 140.516 -0.342366 1.91463 0
M  V30 1522 O 139.771 -1.26812 1.49054 0
M  V30 1523 C 140.07 1.82541 3.07268 0
M  V30 1524 C 139.736 3.32445 3.04616 0
M  V30 1525 C 138.398 3.73337 3.036 0
M  V30 1526 C 140.75 4.28171 2.97185 0
M  V30 1527 C 138.078 5.08348 2.92915 0
M  V30 1528 C 140.43 5.63218 2.88041 0
M  V30 1529 C 139.094 6.03426 2.85366 0
M  V30 1530 H 138.364 0.407977 0.618576 0
M  V30 1531 H 141.011 1.56551 1.10291 0
M  V30 1532 H 139.316 1.29941 3.69625 0
M  V30 1533 H 141.013 1.68642 3.63815 0
M  V30 1534 H 137.603 2.99915 3.06185 0
M  V30 1535 H 141.787 3.97563 2.97081 0
M  V30 1536 H 137.043 5.38667 2.89219 0
M  V30 1537 H 141.217 6.37078 2.81254 0
M  V30 1538 H 138.844 7.07999 2.76842 0
M  V30 1539 N 140.419 -1.14872 1.07899 0
M  V30 1540 C 141.835 -1.37776 0.805606 0
M  V30 1541 C 142.035 -1.92743 -0.587555 0
M  V30 1542 O 141.091 -2.13678 -1.34528 0
M  V30 1543 C 142.404 -2.34361 1.88402 0
M  V30 1544 C 143.952 -2.48012 1.90942 0
M  V30 1545 C 144.427 -3.47893 2.97883 0
M  V30 1546 N 145.918 -3.55433 2.97021 0
M  V30 1547 C 146.653 -4.32553 3.76412 0
M  V30 1548 N 146.149 -5.12959 4.65666 0
M  V30 1549 N 147.942 -4.27697 3.64735 0
M  V30 1550 H 140.093 -0.775365 1.97742 0
M  V30 1551 H 142.356 -0.403521 0.857831 0
M  V30 1552 H 142.062 -2.01098 2.88535 0
M  V30 1553 H 141.936 -3.34206 1.74889 0
M  V30 1554 H 144.323 -2.8057 0.914579 0
M  V30 1555 H 144.404 -1.48147 2.08534 0
M  V30 1556 H 144.048 -3.16069 3.97571 0
M  V30 1557 H 143.978 -4.47527 2.77538 0
M  V30 1558 H 146.469 -2.98048 2.32326 0
M  V30 1559 H 146.782 -5.69065 5.22862 0
M  V30 1560 H 145.127 -5.12245 4.69712 0
M  V30 1561 H 148.318 -3.63949 2.94378 0
M  V30 1562 H 148.491 -4.8755 4.26848 0
M  V30 1563 N 141.898 -0.863906 -1.31812 0
M  V30 1564 C 143.144 -0.481841 -1.9761 0
M  V30 1565 C 143.499 0.954048 -1.6708 0
M  V30 1566 O 142.792 1.66182 -0.953624 0
M  V30 1567 C 142.986 -0.668547 -3.51091 0
M  V30 1568 C 142.815 -2.12103 -3.96538 0
M  V30 1569 C 141.585 -2.76141 -4.23171 0
M  V30 1570 C 143.783 -3.09265 -4.10925 0
M  V30 1571 N 141.765 -4.12205 -4.54929 0
M  V30 1572 C 143.136 -4.30341 -4.46326 0
M  V30 1573 C 145.191 -3.05337 -3.93286 0
M  V30 1574 C 143.894 -5.48 -4.65928 0
M  V30 1575 C 145.92 -4.22248 -4.14078 0
M  V30 1576 C 145.282 -5.42085 -4.49804 0
M  V30 1577 H 141.381 -0.225238 -0.74886 0
M  V30 1578 H 143.965 -1.11723 -1.59455 0
M  V30 1579 H 142.136 -0.0627898 -3.88349 0
M  V30 1580 H 143.868 -0.255467 -4.03893 0
M  V30 1581 H 140.623 -2.27125 -4.15585 0
M  V30 1582 H 141.047 -4.82416 -4.74978 0
M  V30 1583 H 145.689 -2.138 -3.64759 0
M  V30 1584 H 143.407 -6.40059 -4.93305 0
M  V30 1585 H 146.993 -4.20654 -4.01922 0
M  V30 1586 H 145.873 -6.31044 -4.65567 0
M  V30 1587 N 143.376 1.44774 -0.622745 0
M  V30 1588 C 144.653 1.95522 -0.0551974 0
M  V30 1589 C 145.033 1.5649 1.41683 0
M  V30 1590 O 144.381 0.834848 2.12703 0
M  V30 1591 C 144.591 3.4796 -0.269242 0
M  V30 1592 C 145.939 4.24306 -0.158014 0
M  V30 1593 O 146.963 3.55637 -0.200162 0
M  V30 1594 O 145.822 5.46471 -0.0558693 0
M  V30 1595 H 142.916 0.826556 0.0271015 0
M  V30 1596 H 145.462 1.54866 -0.693864 0
M  V30 1597 H 144.234 3.6939 -1.29099 0
M  V30 1598 H 143.857 3.95543 0.403966 0
M  V30 1599 N 144.854 0.36279 1.53368 0
M  V30 1600 C 146.102 -0.227326 2.00817 0
M  V30 1601 C 146.423 -1.49511 1.25186 0
M  V30 1602 O 145.693 -1.92482 0.364348 0
M  V30 1603 H 144.273 -0.0869923 0.741917 0
M  V30 1604 H 146.935 0.488381 1.88682 0
M  V30 1605 H 146.031 -0.456273 3.08747 0
M  V30 1606 N 146.332 -1.57332 0.0918853 0
M  V30 1607 C 147.578 -1.94524 -0.573425 0
M  V30 1608 C 147.911 -0.973578 -1.68033 0
M  V30 1609 O 147.186 -0.00609226 -1.94499 0
M  V30 1610 C 147.469 -3.41858 -1.13161 0
M  V30 1611 C 147.322 -4.4979 -0.0299747 0
M  V30 1612 C 148.641 -3.90435 -2.03098 0
M  V30 1613 H 145.76 -0.70734 -0.206975 0
M  V30 1614 H 148.402 -1.89309 0.161942 0
M  V30 1615 H 146.552 -3.46433 -1.7583 0
M  V30 1616 H 148.224 -4.57327 0.604112 0
M  V30 1617 H 146.467 -4.291 0.636833 0
M  V30 1618 H 147.138 -5.50069 -0.461287 0
M  V30 1619 H 149.614 -3.87992 -1.50338 0
M  V30 1620 H 148.49 -4.94097 -2.39081 0
M  V30 1621 H 148.751 -3.29541 -2.94712 0
M  V30 1622 N 147.81 0.181792 -1.56548 0
M  V30 1623 C 148.758 1.24461 -1.965 0
M  V30 1624 C 149.752 1.464 -0.852261 0
M  V30 1625 O 150.958 1.47103 -1.03733 0
M  V30 1626 H 147.333 0.418138 -0.625031 0
M  V30 1627 H 149.304 0.880714 -2.85107 0
M  V30 1628 C 148.053 2.57891 -2.33212 0
M  V30 1629 H 147.376 2.41829 -3.18369 0
M  V30 1630 H 148.816 3.3097 -2.65019 0
M  V30 1631 C 147.275 3.15871 -1.17163 0
M  V30 1632 O 147.805 3.9913 -0.453708 0
M  V30 1633 N 146.011 2.74808 -0.944936 0
M  V30 1634 H 145.558 2.07205 -1.53049 0
M  V30 1635 H 145.516 3.13939 -0.170286 0
M  V30 1636 N 149.288 1.51039 0.449983 0
M  V30 1637 C 150.704 1.38934 0.785462 0
M  V30 1638 C 150.904 0.461817 1.96136 0
M  V30 1639 O 149.96 -0.0877389 2.52348 0
M  V30 1640 C 151.273 2.80724 1.0777 0
M  V30 1641 C 152.821 2.89787 1.1829 0
M  V30 1642 C 153.296 4.32457 1.50815 0
M  V30 1643 N 154.787 4.35505 1.57764 0
M  V30 1644 C 155.522 5.42914 1.84477 0
M  V30 1645 N 155.018 6.60502 2.09068 0
M  V30 1646 N 156.811 5.3038 1.86155 0
M  V30 1647 H 148.962 2.09904 -0.324647 0
M  V30 1648 H 151.225 0.944378 -0.0827957 0
M  V30 1649 H 150.931 3.50531 0.286498 0
M  V30 1650 H 150.805 3.19273 2.00859 0
M  V30 1651 H 153.192 2.20186 1.96474 0
M  V30 1652 H 153.273 2.54752 0.231314 0
M  V30 1653 H 152.917 5.02603 0.731622 0
M  V30 1654 H 152.847 4.64995 2.47158 0
M  V30 1655 H 155.338 3.50724 1.40715 0
M  V30 1656 H 155.651 7.38158 2.28785 0
M  V30 1657 H 153.996 6.63639 2.06416 0
M  V30 1658 H 157.187 4.37505 1.66454 0
M  V30 1659 H 157.36 6.1417 2.06637 0
M  V30 1660 N 150.766 -0.704594 1.40972 0
M  V30 1661 C 152.014 -1.46169 1.39568 0
M  V30 1662 C 152.335 -1.95 0.00253745 0
M  V30 1663 O 151.605 -1.71095 -0.954114 0
M  V30 1664 H 150.185 -0.542326 0.513704 0
M  V30 1665 H 152.847 -0.834553 1.76128 0
M  V30 1666 H 151.943 -2.32922 2.07735 0
M  V30 1667 N 152.244 -1.26651 -0.937939 0
M  V30 1668 C 153.491 -1.12387 -1.6845 0
M  V30 1669 C 153.819 0.332208 -1.91642 0
M  V30 1670 O 153.074 1.2602 -1.49725 0
M  V30 1671 C 153.373 -1.84168 -3.06295 0
M  V30 1672 C 153.039 -3.34056 -3.02849 0
M  V30 1673 C 151.701 -3.74942 -3.01616 0
M  V30 1674 C 154.053 -4.29741 -2.9491 0
M  V30 1675 C 151.381 -5.09894 -2.90215 0
M  V30 1676 C 153.733 -5.64738 -2.8505 0
M  V30 1677 C 152.397 -6.0493 -2.82162 0
M  V30 1678 H 151.667 -0.411252 -0.616403 0
M  V30 1679 H 154.314 -1.57134 -1.09459 0
M  V30 1680 H 152.619 -1.319 -3.6893 0
M  V30 1681 H 154.316 -1.70569 -3.62915 0
M  V30 1682 H 150.906 -3.01534 -3.0459 0
M  V30 1683 H 155.09 -3.99133 -2.94969 0
M  V30 1684 H 150.346 -5.40194 -2.86358 0
M  V30 1685 H 154.52 -6.38561 -2.77872 0
M  V30 1686 H 152.147 -7.09457 -2.73084 0
M  V30 1687 N 153.722 1.14298 -1.08507 0
M  V30 1688 C 154.685 2.17607 -0.719711 0
M  V30 1689 C 155.685 1.58907 0.245997 0
M  V30 1690 O 156.875 1.74181 0.0254081 0
M  V30 1691 C 154.007 3.40842 -0.0627695 0
M  V30 1692 H 155.2 2.51443 -1.63452 0
M  V30 1693 H 152.753 1.28963 -0.88307 0
M  V30 1694 H 153.488 3.12587 0.863716 0
M  V30 1695 H 153.273 3.84713 -0.757504 0
M  V30 1696 H 154.763 4.17221 0.177786 0
M  V30 1697 N 155.201 0.870884 1.31352 0
M  V30 1698 C 156.449 0.48132 1.96285 0
M  V30 1699 C 156.77 -0.969813 1.69173 0
M  V30 1700 O 156.04 -1.67998 1.00764 0
M  V30 1701 H 154.62 0.175002 0.726212 0
M  V30 1702 H 157.282 1.11087 1.60143 0
M  V30 1703 H 156.378 0.639825 3.05471 0
M  V30 1704 N 156.679 -1.44442 0.630414 0
M  V30 1705 C 157.629 -2.27794 -0.0968103 0
M  V30 1706 C 158.613 -1.38624 -0.816834 0
M  V30 1707 O 159.805 -1.62438 -0.70306 0
M  V30 1708 C 156.934 -3.25929 -1.07819 0
M  V30 1709 C 156.02 -4.22588 -0.357826 0
M  V30 1710 N 156.411 -5.0207 0.613169 0
M  V30 1711 C 154.709 -4.41914 -0.602365 0
M  V30 1712 C 155.41 -5.72351 1.03871 0
M  V30 1713 N 154.386 -5.42287 0.377642 0
M  V30 1714 H 158.188 -2.86653 0.648621 0
M  V30 1715 H 155.702 -1.55871 0.455862 0
M  V30 1716 H 157.699 -3.84399 -1.61378 0
M  V30 1717 H 156.359 -2.68631 -1.82393 0
M  V30 1718 H 157.37 -5.08331 0.990947 0
M  V30 1719 H 154.047 -3.95714 -1.33103 0
M  V30 1720 H 155.437 -6.4619 1.84086 0
M  V30 1721 N 158.157 -0.370918 -1.53173 0
M  V30 1722 C 159.105 0.488101 -2.27421 0
M  V30 1723 C 160.099 1.07884 -1.30604 0
M  V30 1724 O 161.305 1.02143 -1.48212 0
M  V30 1725 H 157.68 0.176134 -0.731082 0
M  V30 1726 H 159.651 -0.159815 -2.97972 0
M  V30 1727 C 158.4 1.61306 -3.08019 0
M  V30 1728 H 157.723 1.1678 -3.82364 0
M  V30 1729 H 159.163 2.18872 -3.63141 0
M  V30 1730 C 157.622 2.55848 -2.19188 0
M  V30 1731 O 158.152 3.58799 -1.80626 0
M  V30 1732 N 156.358 2.2516 -1.83715 0
M  V30 1733 H 155.905 1.41476 -2.15273 0
M  V30 1734 H 155.863 2.8867 -1.24567 0
M  V30 1735 N 159.635 1.57281 -0.100228 0
M  V30 1736 C 160.567 2.11342 0.886972 0
M  V30 1737 C 161.58 1.05182 1.24261 0
M  V30 1738 O 162.769 1.32613 1.19483 0
M  V30 1739 C 159.869 2.5825 2.19454 0
M  V30 1740 C 159.042 3.88302 2.01346 0
M  V30 1741 C 158.101 4.21004 3.15661 0
M  V30 1742 O 157.127 4.9014 2.89398 0
M  V30 1743 N 158.329 3.76818 4.41575 0
M  V30 1744 H 161.094 2.96668 0.425216 0
M  V30 1745 H 158.655 1.61678 0.0847334 0
M  V30 1746 H 160.647 2.7717 2.94888 0
M  V30 1747 H 159.217 1.77907 2.57037 0
M  V30 1748 H 158.437 3.7848 1.10212 0
M  V30 1749 H 159.725 4.73375 1.8653 0
M  V30 1750 H 159.123 3.2102 4.65792 0
M  V30 1751 H 157.68 4.00882 5.13942 0
M  V30 1752 N 161.113 -0.173488 1.56642 0
M  V30 1753 C 162.39 -0.917617 1.7274 0
M  V30 1754 C 162.77 -2.00484 0.661027 0
M  V30 1755 O 162.118 -2.26184 -0.32453 0
M  V30 1756 C 162.328 -1.48433 3.15862 0
M  V30 1757 C 163.676 -1.95809 3.76754 0
M  V30 1758 O 164.7 -1.58231 3.19126 0
M  V30 1759 O 163.559 -2.65024 4.77938 0
M  V30 1760 H 160.653 -0.431772 0.705338 0
M  V30 1761 H 163.199 -0.161487 1.6893 0
M  V30 1762 H 161.971 -0.701715 3.84957 0
M  V30 1763 H 161.594 -2.30471 3.23989 0
M  V30 1764 N 162.591 -1.51276 -0.441967 0
M  V30 1765 C 163.523 -1.68444 -1.55433 0
M  V30 1766 C 164.536 -0.565187 -1.52674 0
M  V30 1767 O 165.725 -0.839356 -1.57534 0
M  V30 1768 C 162.825 -1.67966 -2.94348 0
M  V30 1769 C 161.998 -2.964 -3.21661 0
M  V30 1770 C 161.057 -2.88171 -4.40277 0
M  V30 1771 O 160.083 -3.62119 -4.39157 0
M  V30 1772 N 161.285 -2.03706 -5.43584 0
M  V30 1773 H 164.05 -2.644 -1.41112 0
M  V30 1774 H 161.611 -1.49104 -0.630838 0
M  V30 1775 H 163.603 -1.60035 -3.71713 0
M  V30 1776 H 162.173 -0.796225 -3.0229 0
M  V30 1777 H 161.393 -3.18234 -2.32638 0
M  V30 1778 H 162.681 -3.81427 -3.36736 0
M  V30 1779 H 162.079 -1.42995 -5.47329 0
M  V30 1780 H 160.636 -2.01658 -6.1982 0
M  V30 1781 N 164.069 0.697108 -1.41344 0
M  V30 1782 C 165.346 1.45154 -1.31109 0
M  V30 1783 C 165.726 2.11009 0.0620449 0
M  V30 1784 O 165.074 2.01571 1.07618 0
M  V30 1785 C 165.284 2.47223 -2.46337 0
M  V30 1786 C 166.632 3.1252 -2.87431 0
M  V30 1787 O 167.656 2.57547 -2.46065 0
M  V30 1788 O 166.515 4.12083 -3.58957 0
M  V30 1789 H 163.609 0.646365 -0.515889 0
M  V30 1790 H 166.155 0.727716 -1.53305 0
M  V30 1791 H 164.927 1.97204 -3.37974 0
M  V30 1792 H 164.55 3.27116 -2.2601 0
M  V30 1793 N 165.547 1.27147 0.931209 0
M  V30 1794 C 166.477 1.12081 2.04842 0
M  V30 1795 C 167.458 0.0232364 1.70084 0
M  V30 1796 O 168.643 0.197085 1.93197 0
M  V30 1797 C 165.773 0.76354 3.38803 0
M  V30 1798 C 164.727 1.81396 3.87659 0
M  V30 1799 C 164.053 1.31075 5.18385 0
M  V30 1800 C 165.353 3.21739 4.11438 0
M  V30 1801 H 167.047 2.05537 2.17703 0
M  V30 1802 H 164.593 0.989603 1.04608 0
M  V30 1803 H 166.546 0.644982 4.16435 0
M  V30 1804 H 165.27 -0.206727 3.25945 0
M  V30 1805 H 163.929 1.92136 3.12217 0
M  V30 1806 H 163.577 0.330037 5.01916 0
M  V30 1807 H 163.277 2.013 5.52044 0
M  V30 1808 H 164.801 1.20506 5.98591 0
M  V30 1809 H 166.215 3.14019 4.79651 0
M  V30 1810 H 164.612 3.89644 4.56397 0
M  V30 1811 H 165.682 3.67054 3.16859 0
M  V30 1812 N 167.025 -1.13721 1.09112 0
M  V30 1813 C 168.441 -1.36914 0.820174 0
M  V30 1814 C 168.641 -1.93356 -0.567079 0
M  V30 1815 O 167.697 -2.15093 -1.32255 0
M  V30 1816 C 169.01 -2.3235 1.90877 0
M  V30 1817 C 170.558 -2.45973 1.93562 0
M  V30 1818 C 171.033 -3.44714 3.01556 0
M  V30 1819 N 172.524 -3.52263 3.00775 0
M  V30 1820 C 173.259 -4.28536 3.80978 0
M  V30 1821 N 172.755 -5.07991 4.71081 0
M  V30 1822 N 174.548 -4.23804 3.69251 0
M  V30 1823 H 166.699 -0.754348 1.98553 0
M  V30 1824 H 168.962 -0.3944 0.862063 0
M  V30 1825 H 168.668 -1.98027 2.90651 0
M  V30 1826 H 168.542 -3.32332 1.78424 0
M  V30 1827 H 170.929 -2.79584 0.944286 0
M  V30 1828 H 171.01 -1.45926 2.10093 0
M  V30 1829 H 170.654 -3.11835 4.00901 0
M  V30 1830 H 170.584 -4.44558 2.82269 0
M  V30 1831 H 173.075 -2.95567 2.35475 0
M  V30 1832 H 173.388 -5.63487 5.28869 0
M  V30 1833 H 171.733 -5.07235 4.75119 0
M  V30 1834 H 174.924 -3.60806 2.98222 0
M  V30 1835 H 175.097 -4.82995 4.31995 0
M  V30 1836 N 168.503 -0.877838 -1.30888 0
M  V30 1837 C 169.728 -0.506629 -2.01117 0
M  V30 1838 C 170.153 0.895564 -1.65412 0
M  V30 1839 O 169.511 1.5923 -0.866922 0
M  V30 1840 C 169.559 -0.680223 -3.54126 0
M  V30 1841 O 168.663 0.277033 -4.11468 0
M  V30 1842 H 168.004 -0.200518 -0.633 0
M  V30 1843 H 170.534 -1.18342 -1.66902 0
M  V30 1844 H 170.544 -0.5765 -4.03907 0
M  V30 1845 H 169.219 -1.70261 -3.79452 0
M  V30 1846 H 167.796 0.127606 -3.72682 0
M  V30 1847 N 169.982 1.44106 -0.638065 0
M  V30 1848 C 170.945 2.29138 0.0531013 0
M  V30 1849 C 171.945 1.41409 0.765506 0
M  V30 1850 O 173.135 1.63206 0.609046 0
M  V30 1851 C 170.267 3.23144 1.08584 0
M  V30 1852 H 171.46 2.91739 -0.694883 0
M  V30 1853 H 169.013 1.51134 -0.398538 0
M  V30 1854 H 169.748 2.65408 1.86357 0
M  V30 1855 H 169.533 3.87804 0.578852 0
M  V30 1856 H 171.023 3.87004 1.56899 0
M  V30 1857 N 171.46 0.379036 1.52974 0
M  V30 1858 C 172.393 -0.504932 2.22544 0
M  V30 1859 C 173.371 -1.0723 1.22231 0
M  V30 1860 O 174.555 -1.12589 1.51182 0
M  V30 1861 C 171.682 -1.69794 2.93066 0
M  V30 1862 C 170.728 -1.25678 4.07563 0
M  V30 1863 S 171.561 -0.246852 5.34931 0
M  V30 1864 C 172.717 -1.44588 6.08971 0
M  V30 1865 H 172.95 0.0858666 2.97176 0
M  V30 1866 H 170.483 0.163183 1.53535 0
M  V30 1867 H 172.441 -2.38219 3.34308 0
M  V30 1868 H 171.102 -2.26002 2.18133 0
M  V30 1869 H 170.295 -2.14725 4.5597 0
M  V30 1870 H 169.897 -0.651584 3.6828 0
M  V30 1871 H 172.189 -2.37469 6.34519 0
M  V30 1872 H 173.132 -1.00292 7.00962 0
M  V30 1873 H 173.54 -1.65804 5.39601 0
M  V30 1874 N 172.938 -1.57226 0.108567 0
M  V30 1875 C 174.354 -1.5766 -0.248058 0
M  V30 1876 C 174.554 -1.12063 -1.67464 0
M  V30 1877 O 173.61 -0.803236 -2.39383 0
M  V30 1878 C 174.923 -3.0069 -0.0242287 0
M  V30 1879 C 176.471 -3.12868 -0.0909372 0
M  V30 1880 C 176.946 -4.57879 0.105067 0
M  V30 1881 N 178.437 -4.63172 0.0506846 0
M  V30 1882 C 179.172 -5.73126 0.177396 0
M  V30 1883 N 178.668 -6.91866 0.359696 0
M  V30 1884 N 180.461 -5.61977 0.117709 0
M  V30 1885 H 172.612 -1.85169 1.04049 0
M  V30 1886 H 174.875 -0.85529 0.40888 0
M  V30 1887 H 174.581 -3.38299 0.961604 0
M  V30 1888 H 174.455 -3.6945 -0.76068 0
M  V30 1889 H 176.842 -2.75124 -1.06729 0
M  V30 1890 H 176.923 -2.46672 0.677225 0
M  V30 1891 H 176.567 -4.96321 1.07834 0
M  V30 1892 H 176.497 -5.22153 -0.682954 0
M  V30 1893 H 178.988 -3.778 -0.0871266 0
M  V30 1894 H 179.301 -7.71503 0.447529 0
M  V30 1895 H 177.646 -6.93874 0.395536 0
M  V30 1896 H 180.837 -4.68094 -0.0236741 0
M  V30 1897 H 181.01 -6.47627 0.219905 0
M  V30 1898 N 174.416 0.165178 -1.56732 0
M  V30 1899 C 175.364 1.22369 -1.97809 0
M  V30 1900 C 176.358 1.45488 -0.867741 0
M  V30 1901 O 177.564 1.45995 -1.05288 0
M  V30 1902 H 173.939 0.411486 -0.629431 0
M  V30 1903 H 175.91 0.850425 -2.86025 0
M  V30 1904 C 174.659 2.55403 -2.35934 0
M  V30 1905 H 173.982 2.38438 -3.20916 0
M  V30 1906 H 175.422 3.2814 -2.68514 0
M  V30 1907 C 173.881 3.14611 -1.20506 0
M  V30 1908 O 174.411 3.98626 -0.496016 0
M  V30 1909 N 172.617 2.7379 -0.97403 0
M  V30 1910 H 172.164 2.0557 -1.55238 0
M  V30 1911 H 172.122 3.1374 -0.203573 0
M  V30 1912 N 175.894 1.51508 0.433938 0
M  V30 1913 C 177.119 1.68443 1.21003 0
M  V30 1914 C 177.544 0.382636 1.84167 0
M  V30 1915 O 176.902 -0.65755 1.68956 0
M  V30 1916 C 176.95 2.80405 2.26727 0
M  V30 1917 O 176.054 2.44245 3.32292 0
M  V30 1918 H 175.395 0.561536 0.354363 0
M  V30 1919 H 177.925 1.9809 0.512024 0
M  V30 1920 H 177.935 3.0459 2.71457 0
M  V30 1921 H 176.61 3.74867 1.80132 0
M  V30 1922 H 175.187 2.30644 2.93015 0
M  V30 1923 N 177.372 -0.689602 1.41712 0
M  V30 1924 C 178.6 -1.47827 1.44758 0
M  V30 1925 C 179.015 -1.88721 0.0545703 0
M  V30 1926 O 178.372 -1.57176 -0.927463 0
M  V30 1927 C 178.423 -2.73698 2.3616 0
M  V30 1928 O 178.144 -2.34524 3.7004 0
M  V30 1929 C 179.645 -3.67389 2.48072 0
M  V30 1930 H 176.865 -0.455357 0.49284 0
M  V30 1931 H 179.409 -0.848574 1.86063 0
M  V30 1932 H 177.564 -3.32891 1.98148 0
M  V30 1933 H 177.978 -3.15701 4.18847 0
M  V30 1934 H 179.452 -4.52475 3.16181 0
M  V30 1935 H 179.929 -4.12284 1.51388 0
M  V30 1936 H 180.535 -3.14097 2.86746 0
M  V30 1937 N 178.85 -1.27639 -0.924453 0
M  V30 1938 C 180.096 -1.14336 -1.67497 0
M  V30 1939 C 180.429 0.309465 -1.91718 0
M  V30 1940 O 179.704 1.22608 -1.50989 0
M  V30 1941 C 179.987 -1.93096 -3.0395 0
M  V30 1942 C 179.84 -3.46381 -2.8695 0
M  V30 1943 C 181.159 -1.73798 -4.0433 0
M  V30 1944 H 178.278 -0.416728 -0.607871 0
M  V30 1945 H 180.92 -1.56832 -1.07256 0
M  V30 1946 H 179.07 -1.56982 -3.55372 0
M  V30 1947 H 180.742 -3.92343 -2.42621 0
M  V30 1948 H 178.985 -3.72557 -2.22225 0
M  V30 1949 H 179.656 -3.96735 -3.83804 0
M  V30 1950 H 182.132 -2.05293 -3.61931 0
M  V30 1951 H 181.008 -2.31294 -4.97789 0
M  V30 1952 H 181.269 -0.686725 -4.36734 0
M  V30 1953 N 180.328 1.1314 -1.09713 0
M  V30 1954 C 181.574 1.84967 -0.846104 0
M  V30 1955 C 181.929 1.82082 0.621601 0
M  V30 1956 O 181.222 1.2501 1.452 0
M  V30 1957 C 181.416 3.32167 -1.3191 0
M  V30 1958 C 181.245 3.49386 -2.83125 0
M  V30 1959 C 180.015 3.63456 -3.51038 0
M  V30 1960 C 182.213 3.45179 -3.81256 0
M  V30 1961 N 180.195 3.68966 -4.9065 0
M  V30 1962 C 181.566 3.57094 -5.06837 0
M  V30 1963 C 183.621 3.28598 -3.74069 0
M  V30 1964 C 182.324 3.5414 -6.26081 0
M  V30 1965 C 184.35 3.26953 -4.92804 0
M  V30 1966 C 183.712 3.39422 -6.17229 0
M  V30 1967 H 179.811 0.692899 -0.362512 0
M  V30 1968 H 182.395 1.35506 -1.39808 0
M  V30 1969 H 180.566 3.80186 -0.794535 0
M  V30 1970 H 182.298 3.91815 -1.01308 0
M  V30 1971 H 179.053 3.65256 -3.01471 0
M  V30 1972 H 179.477 3.75404 -5.63383 0
M  V30 1973 H 184.119 3.17858 -2.78794 0
M  V30 1974 H 181.837 3.63653 -7.21653 0
M  V30 1975 H 185.423 3.15316 -4.88945 0
M  V30 1976 H 184.303 3.38114 -7.07565 0
M  V30 1977 N 181.806 0.884767 1.30421 0
M  V30 1978 C 183.052 0.503851 1.96441 0
M  V30 1979 C 183.385 -0.944518 1.69684 0
M  V30 1980 O 182.66 -1.66737 1.00145 0
M  V30 1981 C 182.943 0.779085 3.51571 0
M  V30 1982 C 182.796 2.27807 3.87846 0
M  V30 1983 C 184.115 0.255452 4.39358 0
M  V30 1984 H 181.234 0.184533 0.713524 0
M  V30 1985 H 183.876 1.10872 1.54297 0
M  V30 1986 H 182.026 0.264274 3.876 0
M  V30 1987 H 183.698 2.86127 3.61841 0
M  V30 1988 H 181.941 2.74479 3.35922 0
M  V30 1989 H 182.612 2.42125 4.96064 0
M  V30 1990 H 185.088 0.696079 4.10236 0
M  V30 1991 H 183.964 0.477361 5.4682 0
M  V30 1992 H 184.225 -0.843293 4.33983 0
M  V30 1993 N 183.284 -1.43765 0.645699 0
M  V30 1994 C 184.514 -2.05953 0.163318 0
M  V30 1995 C 184.922 -1.48432 -1.17322 0
M  V30 1996 O 184.265 -0.607295 -1.73371 0
M  V30 1997 C 184.327 -3.59499 -0.0103065 0
M  V30 1998 C 183.991 -4.39563 1.25035 0
M  V30 1999 C 184.988 -4.72108 2.17739 0
M  V30 2000 C 182.673 -4.79697 1.48983 0
M  V30 2001 C 184.667 -5.43688 3.3269 0
M  V30 2002 C 182.354 -5.51023 2.64229 0
M  V30 2003 C 183.352 -5.8294 3.55908 0
M  V30 2004 O 183.04 -6.5281 4.69142 0
M  V30 2005 H 182.772 -0.670798 0.0836986 0
M  V30 2006 H 185.326 -1.85384 0.884407 0
M  V30 2007 H 183.556 -3.78613 -0.78669 0
M  V30 2008 H 185.245 -4.03408 -0.449087 0
M  V30 2009 H 186.011 -4.41627 2.00476 0
M  V30 2010 H 181.89 -4.54266 0.785078 0
M  V30 2011 H 185.434 -5.68517 4.04269 0
M  V30 2012 H 181.331 -5.8092 2.81429 0
M  V30 2013 H 182.099 -6.71288 4.6831 0
M  V30 2014 N 184.763 -0.387143 -1.52771 0
M  V30 2015 C 185.673 0.456442 -2.30117 0
M  V30 2016 C 186.689 1.07342 -1.36944 0
M  V30 2017 O 187.865 1.07971 -1.70013 0
M  V30 2018 C 184.93 1.56957 -3.09136 0
M  V30 2019 C 183.991 0.977916 -4.18014 0
M  V30 2020 C 183.224 2.038 -4.93256 0
M  V30 2021 O 183.447 3.25271 -4.68567 0
M  V30 2022 O 182.381 1.6565 -5.78657 0
M  V30 2023 H 186.207 -0.17359 -3.03203 0
M  V30 2024 H 183.792 -0.150919 -1.48636 0
M  V30 2025 H 185.674 2.21628 -3.58412 0
M  V30 2026 H 184.349 2.18461 -2.38865 0
M  V30 2027 H 183.256 0.294525 -3.72939 0
M  V30 2028 H 184.589 0.407128 -4.90513 0
M  V30 2029 N 186.241 1.57166 -0.116904 0
M  V30 2030 C 187.171 2.18222 0.830759 0
M  V30 2031 C 188.152 1.12167 1.27877 0
M  V30 2032 O 189.337 1.40394 1.34176 0
M  V30 2033 C 186.467 2.77996 2.08172 0
M  V30 2034 C 185.421 3.89614 1.77157 0
M  V30 2035 C 184.747 4.36187 3.09265 0
M  V30 2036 C 186.047 5.1181 1.04151 0
M  V30 2037 H 187.741 2.97664 0.321992 0
M  V30 2038 H 185.287 1.4318 0.153434 0
M  V30 2039 H 187.24 3.19366 2.74924 0
M  V30 2040 H 185.964 1.9584 2.6137 0
M  V30 2041 H 184.623 3.48816 1.12796 0
M  V30 2042 H 184.271 3.50893 3.60393 0
M  V30 2043 H 183.971 5.11455 2.89288 0
M  V30 2044 H 185.495 4.80207 3.77139 0
M  V30 2045 H 186.909 5.50214 1.61052 0
M  V30 2046 H 185.306 5.92648 0.942762 0
M  V30 2047 H 186.376 4.84892 0.0279022 0
M  V30 2048 N 187.719 -0.156864 1.56817 0
M  V30 2049 C 188.966 -0.871125 1.82805 0
M  V30 2050 C 189.294 -1.81611 0.696262 0
M  V30 2051 O 188.549 -1.93141 -0.315459 0
M  V30 2052 C 188.848 -1.68737 3.1506 0
M  V30 2053 C 188.514 -0.890045 4.42028 0
M  V30 2054 C 187.176 -0.670042 4.76512 0
M  V30 2055 C 189.528 -0.331769 5.20143 0
M  V30 2056 C 186.856 0.119104 5.86579 0
M  V30 2057 C 189.208 0.444365 6.31037 0
M  V30 2058 C 187.872 0.675035 6.64078 0
M  V30 2059 H 187.142 -0.318767 0.668931 0
M  V30 2060 H 189.789 -0.135274 1.91022 0
M  V30 2061 H 188.094 -2.49304 3.0225 0
M  V30 2062 H 189.791 -2.24331 3.3238 0
M  V30 2063 H 186.381 -1.07157 4.14988 0
M  V30 2064 H 190.565 -0.489043 4.93885 0
M  V30 2065 H 185.821 0.307417 6.10627 0
M  V30 2066 H 189.995 0.884139 6.90765 0
M  V30 2067 H 187.622 1.28839 7.49203 0
M  V30 2068 N 189.197 -1.51736 -0.425897 0
M  V30 2069 C 190.16 -1.73271 -1.50032 0
M  V30 2070 C 191.16 -0.602639 -1.4908 0
M  V30 2071 O 192.35 -0.87033 -1.509 0
M  V30 2072 C 189.482 -1.79969 -2.89523 0
M  V30 2073 H 190.675 -2.69172 -1.32237 0
M  V30 2074 H 188.228 -1.41899 -0.65532 0
M  V30 2075 H 188.963 -0.859241 -3.1271 0
M  V30 2076 H 188.748 -2.62109 -2.91619 0
M  V30 2077 H 190.238 -1.9843 -3.67444 0
M  V30 2078 N 190.675 0.682077 -1.42076 0
M  V30 2079 C 191.622 1.79578 -1.44984 0
M  V30 2080 C 192.592 1.6332 -0.302614 0
M  V30 2081 O 193.777 1.83978 -0.505633 0
M  V30 2082 C 190.917 3.1756 -1.35091 0
M  V30 2083 C 190.03 3.45156 -2.59791 0
M  V30 2084 C 189.165 4.72826 -2.42093 0
M  V30 2085 C 188.204 4.93433 -3.62202 0
M  V30 2086 N 187.341 6.12338 -3.43491 0
M  V30 2087 H 192.181 1.76427 -2.40161 0
M  V30 2088 H 189.718 0.861376 -1.19242 0
M  V30 2089 H 191.676 3.97287 -1.27354 0
M  V30 2090 H 190.306 3.19854 -0.435133 0
M  V30 2091 H 189.358 2.59736 -2.77923 0
M  V30 2092 H 190.67 3.5628 -3.49094 0
M  V30 2093 H 189.824 5.60631 -2.319 0
M  V30 2094 H 188.563 4.63973 -1.50268 0
M  V30 2095 H 187.568 4.04073 -3.72834 0
M  V30 2096 H 188.793 5.04136 -4.54998 0
M  V30 2097 H 186.739 6.04672 -2.54377 0
M  V30 2098 H 186.656 6.2429 -4.26377 0
M  V30 2099 H 187.924 7.02841 -3.37097 0
M  V30 2100 N 192.153 1.28127 0.917671 0
M  V30 2101 C 193.063 1.13556 2.05286 0
M  V30 2102 C 194.079 0.0630914 1.73886 0
M  V30 2103 O 195.255 0.271598 1.9956 0
M  V30 2104 C 192.32 0.794676 3.3747 0
M  V30 2105 C 191.381 1.94909 3.82504 0
M  V30 2106 C 190.614 1.62437 5.0838 0
M  V30 2107 O 190.837 0.536905 5.67867 0
M  V30 2108 O 189.771 2.46677 5.4903 0
M  V30 2109 H 193.597 2.08844 2.20495 0
M  V30 2110 H 191.182 1.07409 1.03845 0
M  V30 2111 H 193.064 0.618344 4.16839 0
M  V30 2112 H 191.739 -0.128581 3.23445 0
M  V30 2113 H 190.646 2.18055 3.03978 0
M  V30 2114 H 191.979 2.85291 4.01086 0
M  V30 2115 N 193.631 -1.12557 1.10312 0
M  V30 2116 C 194.88 -1.83395 0.839588 0
M  V30 2117 C 195.193 -1.84939 -0.636929 0
M  V30 2118 O 196.399 -2.51761 -1.01631 0
M  V30 2119 C 194.855 -3.29303 1.45215 0
M  V30 2120 C 194.463 -3.36122 2.96186 0
M  V30 2121 C 196.207 -4.05121 1.26796 0
M  V30 2122 C 194.114 -4.76357 3.50483 0
M  V30 2123 H 193.044 -0.687133 0.310425 0
M  V30 2124 H 195.695 -1.26746 1.32694 0
M  V30 2125 H 194.077 -3.85812 0.892469 0
M  V30 2126 H 195.251 -2.89559 3.58458 0
M  V30 2127 H 193.566 -2.73776 3.13745 0
M  V30 2128 H 196.163 -5.08668 1.64806 0
M  V30 2129 H 196.506 -4.15773 0.209409 0
M  V30 2130 H 197.039 -3.54967 1.79563 0
M  V30 2131 H 193.778 -4.70899 4.55998 0
M  V30 2132 H 193.298 -5.23377 2.92978 0
M  V30 2133 H 194.977 -5.45294 3.48228 0
M  V30 2134 N 195.109 -0.891671 -1.2995 0
M  V30 2135 C 196.357 -0.512486 -1.95494 0
M  V30 2136 C 196.678 0.942776 -1.70695 0
M  V30 2137 O 195.948 1.66374 -1.03424 0
M  V30 2138 H 194.528 -0.186533 -0.723336 0
M  V30 2139 H 197.19 -1.13621 -1.58355 0
M  V30 2140 H 196.286 -0.688342 -3.04415 0
M  V30 2141 N 196.587 1.43421 -0.653314 0
M  V30 2142 C 197.864 1.95361 -0.0966581 0
M  V30 2143 C 198.244 1.59461 1.38331 0
M  V30 2144 O 197.592 0.879777 2.10884 0
M  V30 2145 C 197.802 3.47311 -0.342988 0
M  V30 2146 C 199.15 4.23875 -0.24798 0
M  V30 2147 O 200.174 3.55133 -0.275553 0
M  V30 2148 O 199.033 5.4623 -0.171771 0
M  V30 2149 H 196.127 0.826945 0.00956291 0
M  V30 2150 H 198.673 1.5336 -0.726558 0
M  V30 2151 H 197.445 3.66569 -1.36906 0
M  V30 2152 H 197.068 3.9631 0.319975 0
M  V30 2153 N 198.065 0.39524 1.52563 0
M  V30 2154 C 199.342 -0.242908 1.94086 0
M  V30 2155 C 199.722 -1.63841 1.33114 0
M  V30 2156 O 199.07 -2.22928 0.501529 0
M  V30 2157 C 199.28 -0.26327 3.48006 0
M  V30 2158 C 200.628 -0.489354 4.21771 0
M  V30 2159 O 201.652 -0.343226 3.54543 0
M  V30 2160 O 200.511 -0.776169 5.4096 0
M  V30 2161 H 197.605 -0.152536 0.812811 0
M  V30 2162 H 200.151 0.450178 1.6362 0
M  V30 2163 H 198.923 0.713985 3.84731 0
M  V30 2164 H 198.546 -1.00103 3.84792 0
M  V30 2165 N 199.544 -1.57102 0.125237 0
M  V30 2166 C 200.491 -2.15641 -0.822655 0
M  V30 2167 C 201.461 -1.08313 -1.25927 0
M  V30 2168 O 202.646 -1.36251 -1.33567 0
M  V30 2169 C 199.786 -2.76504 -2.06494 0
M  V30 2170 C 198.899 -3.98158 -1.67612 0
M  V30 2171 C 198.034 -4.47088 -2.86854 0
M  V30 2172 C 197.073 -5.6126 -2.44242 0
M  V30 2173 N 196.21 -6.04905 -3.56419 0
M  V30 2174 H 201.05 -2.96313 -0.316625 0
M  V30 2175 H 198.587 -1.46388 -0.144588 0
M  V30 2176 H 200.545 -3.09925 -2.79289 0
M  V30 2177 H 199.175 -1.98512 -2.54545 0
M  V30 2178 H 198.227 -3.70858 -0.846661 0
M  V30 2179 H 199.539 -4.80934 -1.32301 0
M  V30 2180 H 198.693 -4.82451 -3.67867 0
M  V30 2181 H 197.432 -3.63275 -3.25396 0
M  V30 2182 H 196.437 -5.25495 -1.61663 0
M  V30 2183 H 197.662 -6.46843 -2.0681 0
M  V30 2184 H 195.608 -5.24032 -3.94623 0
M  V30 2185 H 195.525 -6.82552 -3.25051 0
M  V30 2186 H 196.793 -6.44907 -4.37853 0
M  V30 2187 N 201.022 0.148545 -1.56898 0
M  V30 2188 C 201.985 1.16736 -1.97244 0
M  V30 2189 C 202.985 1.35947 -0.858777 0
M  V30 2190 O 204.175 1.32966 -1.12542 0
M  V30 2191 C 201.307 2.52798 -2.28705 0
M  V30 2192 H 202.5 0.821279 -2.88435 0
M  V30 2193 H 200.053 0.391831 -1.51309 0
M  V30 2194 H 200.788 2.92381 -1.403 0
M  V30 2195 H 200.573 2.40216 -3.09901 0
M  V30 2196 H 202.063 3.26179 -2.60762 0
M  V30 2197 N 202.5 1.5196 0.417844 0
M  V30 2198 C 203.916 1.40569 0.755816 0
M  V30 2199 C 204.116 0.503316 1.95113 0
M  V30 2200 O 203.172 -0.0341925 2.52477 0
M  V30 2201 C 204.485 2.82947 1.01791 0
M  V30 2202 C 206.033 2.92231 1.12116 0
M  V30 2203 C 206.508 4.35559 1.41608 0
M  V30 2204 N 207.999 4.38753 1.48491 0
M  V30 2205 C 208.734 5.46705 1.7292 0
M  V30 2206 N 208.23 6.64788 1.95011 0
M  V30 2207 N 210.023 5.34209 1.74863 0
M  V30 2208 H 202.174 2.09168 -0.369098 0
M  V30 2209 H 204.437 0.942409 -0.102809 0
M  V30 2210 H 204.143 3.5106 0.212081 0
M  V30 2211 H 204.017 3.23462 1.94042 0
M  V30 2212 H 206.404 2.24304 1.9176 0
M  V30 2213 H 206.485 2.55185 0.177225 0
M  V30 2214 H 206.129 5.04042 0.624848 0
M  V30 2215 H 206.059 4.70133 2.37239 0
M  V30 2216 H 208.55 3.5363 1.33244 0
M  V30 2217 H 208.863 7.42845 2.13076 0
M  V30 2218 H 207.208 6.67869 1.92293 0
M  V30 2219 H 210.399 4.40937 1.57137 0
M  V30 2220 H 210.572 6.18415 1.93563 0
M  V30 2221 N 203.978 -0.674533 1.42435 0
M  V30 2222 C 205.394 -0.98769 1.25367 0
M  V30 2223 C 205.594 -2.00879 0.158044 0
M  V30 2224 O 204.65 -2.48075 -0.470633 0
M  V30 2225 C 205.963 -1.49224 2.6106 0
M  V30 2226 C 207.511 -1.61 2.68417 0
M  V30 2227 C 207.986 -2.14852 4.04478 0
M  V30 2228 N 209.477 -2.22185 4.06434 0
M  V30 2229 C 210.212 -2.64928 5.08528 0
M  V30 2230 N 209.708 -3.07121 6.21006 0
M  V30 2231 N 211.501 -2.64679 4.95885 0
M  V30 2232 H 203.652 0.00152503 2.124 0
M  V30 2233 H 205.915 -0.0618434 0.945981 0
M  V30 2234 H 205.621 -0.816453 3.42092 0
M  V30 2235 H 205.495 -2.47094 2.84999 0
M  V30 2236 H 207.882 -2.27686 1.87732 0
M  V30 2237 H 207.963 -0.616195 2.48267 0
M  V30 2238 H 207.607 -1.48775 4.85622 0
M  V30 2239 H 207.537 -3.15024 4.2198 0
M  V30 2240 H 210.028 -1.92435 3.25234 0
M  V30 2241 H 210.341 -3.38423 6.94759 0
M  V30 2242 H 208.686 -3.04978 6.24511 0
M  V30 2243 H 211.877 -2.31078 4.07088 0
M  V30 2244 H 212.05 -2.9767 5.75584 0
M  V30 2245 N 205.456 -1.28612 -0.910864 0
M  V30 2246 C 206.686 -1.1862 -1.69153 0
M  V30 2247 C 207.094 0.257324 -1.87442 0
M  V30 2248 O 206.437 1.18543 -1.40332 0
M  V30 2249 C 206.499 -1.81606 -3.10257 0
M  V30 2250 C 206.163 -3.30864 -3.15243 0
M  V30 2251 C 207.16 -4.27256 -2.96223 0
M  V30 2252 C 204.845 -3.71871 -3.37664 0
M  V30 2253 C 206.839 -5.62631 -2.99541 0
M  V30 2254 C 204.526 -5.07371 -3.40614 0
M  V30 2255 C 205.524 -6.02561 -3.21573 0
M  V30 2256 O 205.212 -7.35589 -3.2429 0
M  V30 2257 H 204.944 -0.412633 -0.535453 0
M  V30 2258 H 207.498 -1.70306 -1.14827 0
M  V30 2259 H 205.728 -1.24418 -3.66138 0
M  V30 2260 H 207.417 -1.66092 -3.70362 0
M  V30 2261 H 208.183 -3.9691 -2.78725 0
M  V30 2262 H 204.062 -2.98241 -3.5153 0
M  V30 2263 H 207.606 -6.36907 -2.84597 0
M  V30 2264 H 203.503 -5.37366 -3.57642 0
M  V30 2265 H 204.271 -7.44252 -3.40633 0
M  V30 2266 N 206.934 1.1197 -1.10907 0
M  V30 2267 C 207.864 2.19928 -0.784473 0
M  V30 2268 C 208.845 1.6833 0.244726 0
M  V30 2269 O 210.03 1.93892 0.109418 0
M  V30 2270 C 207.16 3.46597 -0.220827 0
M  V30 2271 C 206.114 4.11376 -1.18127 0
M  V30 2272 C 205.44 5.32554 -0.478594 0
M  V30 2273 C 206.74 4.56945 -2.52979 0
M  V30 2274 H 208.434 2.47337 -1.68715 0
M  V30 2275 H 205.98 1.18879 -0.812642 0
M  V30 2276 H 207.933 4.21396 0.0184278 0
M  V30 2277 H 206.657 3.1863 0.717113 0
M  V30 2278 H 205.316 3.38564 -1.40606 0
M  V30 2279 H 204.964 5.00856 0.463976 0
M  V30 2280 H 204.664 5.76844 -1.11912 0
M  V30 2281 H 206.188 6.10096 -0.248 0
M  V30 2282 H 207.602 5.23093 -2.3462 0
M  V30 2283 H 205.999 5.1203 -3.12962 0
M  V30 2284 H 207.069 3.70676 -3.12614 0
M  V30 2285 N 208.412 0.89855 1.29475 0
M  V30 2286 C 209.359 0.373819 2.27753 0
M  V30 2287 C 210.329 -0.543444 1.56958 0
M  V30 2288 O 211.514 -0.468934 1.84948 0
M  V30 2289 C 208.654 -0.393648 3.42848 0
M  V30 2290 C 207.767 0.554379 4.28428 0
M  V30 2291 C 206.902 -0.230026 5.30702 0
M  V30 2292 C 205.941 0.712599 6.07938 0
M  V30 2293 N 205.078 -0.0373283 7.0209 0
M  V30 2294 H 209.918 1.21699 2.72017 0
M  V30 2295 H 207.455 0.611456 1.33789 0
M  V30 2296 H 209.413 -0.85466 4.08352 0
M  V30 2297 H 208.043 -1.20128 2.99615 0
M  V30 2298 H 207.095 1.13391 3.63107 0
M  V30 2299 H 208.407 1.27597 4.82204 0
M  V30 2300 H 207.561 -0.752288 6.02018 0
M  V30 2301 H 206.3 -0.984758 4.77654 0
M  V30 2302 H 205.305 1.24637 5.35486 0
M  V30 2303 H 206.53 1.46664 6.63074 0
M  V30 2304 H 204.476 -0.774348 6.51414 0
M  V30 2305 H 204.393 0.624374 7.53417 0
M  V30 2306 H 205.661 -0.539891 7.77628 0
M  V30 2307 N 209.89 -1.43072 0.660911 0
M  V30 2308 C 210.837 -2.30785 -0.0259884 0
M  V30 2309 C 211.807 -1.45184 -0.806888 0
M  V30 2310 O 212.992 -1.74041 -0.781943 0
M  V30 2311 C 210.132 -3.30861 -0.981067 0
M  V30 2312 C 209.245 -4.31558 -0.195458 0
M  V30 2313 C 208.38 -5.18712 -1.14503 0
M  V30 2314 C 207.419 -6.11097 -0.350299 0
M  V30 2315 N 206.556 -6.90849 -1.25186 0
M  V30 2316 H 211.396 -2.88975 0.727846 0
M  V30 2317 H 208.933 -1.42353 0.370682 0
M  V30 2318 H 210.891 -3.87399 -1.54849 0
M  V30 2319 H 209.521 -2.74304 -1.70169 0
M  V30 2320 H 208.573 -3.77252 0.488374 0
M  V30 2321 H 209.885 -4.9701 0.422176 0
M  V30 2322 H 209.039 -5.79914 -1.78284 0
M  V30 2323 H 207.778 -4.53404 -1.79656 0
M  V30 2324 H 206.783 -5.48976 0.300808 0
M  V30 2325 H 208.008 -6.7845 0.296941 0
M  V30 2326 H 205.954 -6.28182 -1.89005 0
M  V30 2327 H 205.871 -7.52854 -0.688971 0
M  V30 2328 H 207.139 -7.5655 -1.87757 0
M  V30 2329 N 211.368 -0.403325 -1.52352 0
M  V30 2330 C 212.617 0.175668 -2.00934 0
M  V30 2331 C 212.93 1.46718 -1.29356 0
M  V30 2332 O 214.136 2.12708 -1.68724 0
M  V30 2333 C 212.592 0.363612 -3.58058 0
M  V30 2334 C 212.2 -0.915472 -4.38547 0
M  V30 2335 C 213.944 0.89821 -4.14888 0
M  V30 2336 C 211.851 -0.695035 -5.87302 0
M  V30 2337 H 210.781 0.0694234 -0.750797 0
M  V30 2338 H 213.432 -0.527879 -1.75743 0
M  V30 2339 H 211.814 1.12935 -3.79555 0
M  V30 2340 H 212.988 -1.68691 -4.28812 0
M  V30 2341 H 211.303 -1.37606 -3.93006 0
M  V30 2342 H 213.9 1.07907 -5.23699 0
M  V30 2343 H 214.243 1.87126 -3.71873 0
M  V30 2344 H 214.776 0.191681 -3.97338 0
M  V30 2345 H 211.515 -1.63948 -6.34666 0
M  V30 2346 H 211.035 0.0372116 -5.99788 0
M  V30 2347 H 212.714 -0.33497 -6.46132 0
M  V30 2348 N 212.846 1.57033 -0.133567 0
M  V30 2349 C 214.123 1.87256 0.56522 0
M  V30 2350 C 214.503 1.03726 1.83859 0
M  V30 2351 O 213.851 0.120247 2.28183 0
M  V30 2352 C 214.061 3.3865 0.843636 0
M  V30 2353 C 215.409 4.07574 1.19032 0
M  V30 2354 O 216.433 3.43752 0.933429 0
M  V30 2355 O 215.292 5.20259 1.67312 0
M  V30 2356 H 212.386 0.775678 0.286796 0
M  V30 2357 H 214.932 1.68855 -0.169168 0
M  V30 2358 H 213.704 3.91257 -0.0581149 0
M  V30 2359 H 213.327 3.62532 1.63268 0
M  V30 2360 N 214.325 -0.140222 1.56975 0
M  V30 2361 C 215.555 -0.865181 1.87612 0
M  V30 2362 C 215.963 -1.74942 0.72055 0
M  V30 2363 O 215.306 -1.80917 -0.318561 0
M  V30 2364 C 215.368 -1.76782 3.13031 0
M  V30 2365 C 215.032 -1.06005 4.44536 0
M  V30 2366 C 216.029 -0.410768 5.18275 0
M  V30 2367 C 213.714 -1.04754 4.91255 0
M  V30 2368 C 215.708 0.241572 6.36942 0
M  V30 2369 C 213.395 -0.391394 6.09845 0
M  V30 2370 C 214.393 0.252029 6.82535 0
M  V30 2371 O 214.081 0.897757 7.98871 0
M  V30 2372 H 213.813 -0.255188 0.625983 0
M  V30 2373 H 216.367 -0.135653 2.04952 0
M  V30 2374 H 214.597 -2.53846 2.91718 0
M  V30 2375 H 216.286 -2.36533 3.29859 0
M  V30 2376 H 217.052 -0.412195 4.83245 0
M  V30 2377 H 212.931 -1.53777 4.34596 0
M  V30 2378 H 216.475 0.744375 6.93617 0
M  V30 2379 H 212.372 -0.387656 6.44335 0
M  V30 2380 H 213.14 0.800102 8.1458 0
M  V30 2381 N 215.803 -1.52179 -0.40978 0
M  V30 2382 C 217.051 -1.65878 -1.15451 0
M  V30 2383 C 217.372 -0.390771 -1.91044 0
M  V30 2384 O 216.642 0.594323 -1.86667 0
M  V30 2385 H 215.222 -0.611405 -0.429177 0
M  V30 2386 H 217.884 -1.89219 -0.467134 0
M  V30 2387 H 216.98 -2.49954 -1.86894 0
M  V30 2388 N 217.281 0.66697 -1.42791 0
M  V30 2389 C 218.229 1.80157 -1.47127 0
M  V30 2390 C 219.223 1.65825 -0.346199 0
M  V30 2391 O 220.429 1.72338 -0.519572 0
M  V30 2392 H 216.804 0.594158 -0.460956 0
M  V30 2393 H 218.775 1.73619 -2.42692 0
M  V30 2394 C 217.524 3.18351 -1.39813 0
M  V30 2395 H 216.847 3.3001 -2.25684 0
M  V30 2396 H 218.287 3.97736 -1.46908 0
M  V30 2397 C 216.746 3.36707 -0.11391 0
M  V30 2398 O 217.276 3.93027 0.830241 0
M  V30 2399 N 215.482 2.90586 -0.0285295 0
M  V30 2400 H 215.029 2.4494 -0.79764 0
M  V30 2401 H 214.987 3.03245 0.830063 0
M  V30 2402 N 218.759 1.29093 0.90403 0
M  V30 2403 C 219.722 1.1386 1.98919 0
M  V30 2404 C 220.722 0.0753457 1.60623 0
M  V30 2405 O 221.912 0.321931 1.71199 0
M  V30 2406 C 219.044 0.740198 3.32767 0
M  V30 2407 H 220.237 2.10246 2.13861 0
M  V30 2408 H 217.79 1.12218 1.08797 0
M  V30 2409 H 218.525 -0.223997 3.23525 0
M  V30 2410 H 218.31 1.50838 3.61926 0
M  V30 2411 H 219.8 0.656546 4.12407 0
M  V30 2412 N 220.237 -1.11381 1.11499 0
M  V30 2413 C 221.514 -1.7955 0.775965 0
M  V30 2414 C 221.894 -1.97859 -0.73588 0
M  V30 2415 O 221.242 -1.56376 -1.66609 0
M  V30 2416 C 221.452 -3.13196 1.53977 0
M  V30 2417 C 222.8 -3.88227 1.71944 0
M  V30 2418 O 223.824 -3.22887 1.50407 0
M  V30 2419 O 222.683 -5.05477 2.07738 0
M  V30 2420 H 219.777 -0.777728 0.28119 0
M  V30 2421 H 222.323 -1.18118 1.21845 0
M  V30 2422 H 221.095 -2.95229 2.56818 0
M  V30 2423 H 220.718 -3.82342 1.09088 0
M  V30 2424 N 221.715 -0.905404 -1.28997 0
M  V30 2425 C 223.126 -0.581953 -1.77398 0
M  V30 2426 C 223.477 0.902552 -1.74208 0
M  V30 2427 O 222.602 1.70584 -1.33154 0
M  V30 2428 C 223.197 -1.04961 -3.22131 0
M  V30 2429 C 221.756 -0.777229 -3.68288 0
M  V30 2430 C 220.903 -1.22109 -2.48967 0
M  V30 2431 H 223.854 -1.08754 -1.15578 0
M  V30 2432 H 223.875 -0.387387 -3.78523 0
M  V30 2433 H 223.387 -2.13008 -3.24421 0
M  V30 2434 H 221.488 0.290383 -3.71467 0
M  V30 2435 H 221.601 -1.37911 -4.58822 0
M  V30 2436 H 219.965 -0.639971 -2.46529 0
M  V30 2437 H 220.748 -2.30972 -2.53982 0
M  V30 2438 N 223.193 1.4272 -0.668489 0
M  V30 2439 C 224.418 2.06484 -0.194758 0
M  V30 2440 C 224.843 1.49862 1.13679 0
M  V30 2441 O 224.201 0.614582 1.70565 0
M  V30 2442 C 224.249 3.60353 -0.133546 0
M  V30 2443 O 223.353 4.02464 0.899806 0
M  V30 2444 H 222.694 0.656137 -0.10188 0
M  V30 2445 H 225.224 1.82964 -0.915722 0
M  V30 2446 H 225.234 4.07976 0.0447041 0
M  V30 2447 H 223.909 4.00938 -1.1055 0
M  V30 2448 H 222.486 3.66402 0.693109 0
M  V30 2449 N 224.671 0.411399 1.52136 0
M  V30 2450 C 225.899 -0.163076 2.06256 0
M  V30 2451 C 226.314 -1.3867 1.28125 0
M  V30 2452 O 225.671 -1.79423 0.333721 0
M  V30 2453 C 225.722 -0.511252 3.57867 0
M  V30 2454 O 225.443 0.66378 4.33042 0
M  V30 2455 C 226.944 -1.13921 4.28412 0
M  V30 2456 H 224.164 -0.0193897 0.67072 0
M  V30 2457 H 226.708 0.583007 1.96013 0
M  V30 2458 H 224.863 -1.20723 3.6811 0
M  V30 2459 H 225.277 0.372601 5.23175 0
M  V30 2460 H 226.751 -1.33302 5.35663 0
M  V30 2461 H 227.228 -2.11296 3.85033 0
M  V30 2462 H 227.834 -0.483373 4.22544 0
M  V30 2463 N 226.149 -1.5696 0.141893 0
M  V30 2464 C 227.374 -2.00754 -0.520838 0
M  V30 2465 C 227.799 -1.0213 -1.57959 0
M  V30 2466 O 227.157 0.00371324 -1.813 0
M  V30 2467 C 227.205 -3.43318 -1.10294 0
M  V30 2468 O 226.309 -3.47679 -2.21795 0
M  V30 2469 H 225.65 -0.651564 -0.127908 0
M  V30 2470 H 228.18 -2.03221 0.23712 0
M  V30 2471 H 228.19 -3.82012 -1.43287 0
M  V30 2472 H 226.865 -4.14608 -0.327574 0
M  V30 2473 H 225.442 -3.20824 -1.9007 0
M  V30 2474 N 227.627 0.131896 -1.57047 0
M  V30 2475 C 228.575 1.18146 -2.0036 0
M  V30 2476 C 229.569 1.43614 -0.898406 0
M  V30 2477 O 230.775 1.43729 -1.08361 0
M  V30 2478 H 227.15 0.398042 -0.638018 0
M  V30 2479 H 229.121 0.789564 -2.87765 0
M  V30 2480 C 227.87 2.50341 -2.41298 0
M  V30 2481 H 227.193 2.31578 -3.25902 0
M  V30 2482 H 228.633 3.22371 -2.75414 0
M  V30 2483 C 227.092 3.11984 -1.27153 0
M  V30 2484 O 227.622 3.97484 -0.580459 0
M  V30 2485 N 225.828 2.71662 -1.03189 0
M  V30 2486 H 225.375 2.02231 -1.59564 0
M  V30 2487 H 225.333 3.13238 -0.270077 0
M  V30 2488 N 229.106 1.52395 0.401703 0
M  V30 2489 C 230.354 1.66488 1.14569 0
M  V30 2490 C 230.675 0.400897 1.90835 0
M  V30 2491 O 229.945 -0.584415 1.8698 0
M  V30 2492 H 228.525 0.613672 0.425929 0
M  V30 2493 H 231.187 1.89464 0.457093 0
M  V30 2494 H 230.283 2.50942 1.85566 0
M  V30 2495 N 230.584 -0.659388 1.43143 0
M  V30 2496 C 231.861 -1.41627 1.34912 0
M  V30 2497 C 232.241 -2.11099 -0.00607785 0
M  V30 2498 O 231.589 -2.04353 -1.02236 0
M  V30 2499 C 231.799 -2.40604 2.52805 0
M  V30 2500 C 233.147 -3.04789 2.95616 0
M  V30 2501 O 234.171 -2.50932 2.52807 0
M  V30 2502 O 233.03 -4.02421 3.69756 0
M  V30 2503 H 230.124 -0.63246 0.532844 0
M  V30 2504 H 232.67 -0.686814 1.5518 0
M  V30 2505 H 231.442 -1.88174 3.43083 0
M  V30 2506 H 231.065 -3.21009 2.34604 0
M  V30 2507 N 232.062 -1.29571 -0.897171 0
M  V30 2508 C 233.292 -1.20408 -1.67886 0
M  V30 2509 C 233.7 0.237429 -1.87704 0
M  V30 2510 O 233.043 1.17048 -1.41582 0
M  V30 2511 C 233.105 -1.84887 -3.08314 0
M  V30 2512 C 232.769 -3.34189 -3.11716 0
M  V30 2513 C 233.766 -4.30374 -2.91675 0
M  V30 2514 C 231.451 -3.75431 -3.33701 0
M  V30 2515 C 233.445 -5.65776 -2.93557 0
M  V30 2516 C 231.132 -5.10955 -3.35214 0
M  V30 2517 C 232.13 -6.05938 -3.15164 0
M  V30 2518 O 231.818 -7.38987 -3.1647 0
M  V30 2519 H 231.55 -0.418289 -0.531046 0
M  V30 2520 H 234.104 -1.71514 -1.13014 0
M  V30 2521 H 232.334 -1.28295 -3.64798 0
M  V30 2522 H 234.023 -1.70011 -3.6858 0
M  V30 2523 H 234.789 -3.99844 -2.74499 0
M  V30 2524 H 230.668 -3.01953 -3.48347 0
M  V30 2525 H 234.212 -6.39889 -2.77826 0
M  V30 2526 H 230.109 -5.4113 -3.51922 0
M  V30 2527 H 230.877 -7.47823 -3.3272 0
M  V30 2528 N 233.54 1.10788 -1.12088 0
M  V30 2529 C 234.786 1.8313 -0.885148 0
M  V30 2530 C 235.141 1.8336 0.582839 0
M  V30 2531 O 234.434 1.28062 1.42516 0
M  V30 2532 C 234.628 3.29294 -1.38926 0
M  V30 2533 C 234.457 3.43302 -2.90472 0
M  V30 2534 C 233.227 3.55928 -3.58669 0
M  V30 2535 C 235.425 3.37014 -3.88492 0
M  V30 2536 N 233.407 3.58475 -4.98366 0
M  V30 2537 C 234.778 3.46263 -5.14298 0
M  V30 2538 C 236.833 3.20589 -3.80955 0
M  V30 2539 C 235.536 3.4078 -6.33452 0
M  V30 2540 C 237.562 3.16427 -4.99628 0
M  V30 2541 C 236.924 3.26253 -6.2429 0
M  V30 2542 H 233.023 0.685054 -0.377128 0
M  V30 2543 H 235.607 1.3251 -1.4265 0
M  V30 2544 H 233.778 3.78416 -0.874999 0
M  V30 2545 H 235.51 3.89578 -1.09596 0
M  V30 2546 H 232.265 3.58779 -3.09151 0
M  V30 2547 H 232.689 3.6337 -5.71219 0
M  V30 2548 H 237.331 3.11873 -2.85474 0
M  V30 2549 H 235.049 3.48263 -7.29204 0
M  V30 2550 H 238.635 3.04874 -4.95523 0
M  V30 2551 H 237.515 3.2303 -7.14578 0
M  V30 2552 N 235.018 0.912232 1.28515 0
M  V30 2553 C 236.267 0.540504 1.94323 0
M  V30 2554 C 236.58 -0.920044 1.72611 0
M  V30 2555 O 237.786 -1.39986 2.32629 0
M  V30 2556 C 236.242 0.915803 3.48053 0
M  V30 2557 C 235.85 2.39598 3.78546 0
M  V30 2558 C 237.594 0.614588 4.20027 0
M  V30 2559 C 235.501 2.71148 5.25578 0
M  V30 2560 H 234.431 0.198418 0.727424 0
M  V30 2561 H 237.082 1.11094 1.46049 0
M  V30 2562 H 235.464 0.274168 3.9505 0
M  V30 2563 H 236.638 3.08422 3.42364 0
M  V30 2564 H 234.953 2.66749 3.1974 0
M  V30 2565 H 237.55 0.827002 5.28266 0
M  V30 2566 H 237.893 -0.447531 4.13887 0
M  V30 2567 H 238.426 1.21462 3.78803 0
M  V30 2568 H 235.165 3.76207 5.36794 0
M  V30 2569 H 234.685 2.0696 5.62963 0
M  V30 2570 H 236.364 2.58072 5.93302 0
M  V30 2571 N 236.496 -1.42363 0.676048 0
M  V30 2572 C 237.406 -2.346 -0.00153389 0
M  V30 2573 C 238.422 -1.5516 -0.787485 0
M  V30 2574 O 239.598 -1.87723 -0.729521 0
M  V30 2575 C 236.663 -3.33705 -0.940298 0
M  V30 2576 C 235.724 -4.29042 -0.148739 0
M  V30 2577 C 234.957 -5.23413 -1.04279 0
M  V30 2578 O 235.18 -5.22749 -2.28232 0
M  V30 2579 O 234.114 -5.99795 -0.502925 0
M  V30 2580 H 237.94 -2.94082 0.758268 0
M  V30 2581 H 235.525 -1.42888 0.436289 0
M  V30 2582 H 237.407 -3.94586 -1.47917 0
M  V30 2583 H 236.082 -2.76695 -1.67993 0
M  V30 2584 H 234.989 -3.71571 0.43427 0
M  V30 2585 H 236.322 -4.89097 0.551805 0
M  V30 2586 N 237.974 -0.419461 -1.51915 0
M  V30 2587 C 239.222 0.152637 -2.01523 0
M  V30 2588 C 239.543 1.44762 -1.30649 0
M  V30 2589 O 238.813 1.90997 -0.435535 0
M  V30 2590 H 237.393 0.0593966 -0.744635 0
M  V30 2591 H 240.055 -0.558073 -1.86739 0
M  V30 2592 H 239.151 0.341369 -3.10227 0
M  V30 2593 N 239.452 1.56882 -0.150215 0
M  V30 2594 C 240.677 2.01027 0.510184 0
M  V30 2595 C 241.102 1.02966 1.57415 0
M  V30 2596 O 240.46 0.00590158 1.81299 0
M  V30 2597 C 240.508 3.43899 1.08472 0
M  V30 2598 O 239.612 3.4885 2.19948 0
M  V30 2599 H 238.953 0.652233 0.124451 0
M  V30 2600 H 241.483 2.03093 -0.247894 0
M  V30 2601 H 241.493 3.82766 1.41259 0
M  V30 2602 H 240.168 4.14776 0.305582 0
M  V30 2603 H 238.745 3.21827 1.88366 0
M  V30 2604 N 240.93 -0.123565 1.57115 0
M  V30 2605 C 241.86 -1.15309 2.03042 0
M  V30 2606 C 242.841 -1.43454 0.914061 0
M  V30 2607 O 244.026 -1.53973 1.18347 0
M  V30 2608 C 241.156 -2.48043 2.43089 0
M  V30 2609 C 240.11 -2.3437 3.58127 0
M  V30 2610 C 239.436 -3.72026 3.84059 0
M  V30 2611 C 240.736 -1.80804 4.90007 0
M  V30 2612 H 242.43 -0.771102 2.893 0
M  V30 2613 H 239.976 -0.369479 1.39179 0
M  V30 2614 H 241.929 -3.20311 2.73823 0
M  V30 2615 H 240.653 -2.88122 1.53796 0
M  V30 2616 H 239.312 -1.64551 3.27595 0
M  V30 2617 H 238.96 -4.09582 2.91979 0
M  V30 2618 H 238.66 -3.63732 4.6149 0
M  V30 2619 H 240.184 -4.45806 4.1724 0
M  V30 2620 H 241.598 -2.42886 5.19307 0
M  V30 2621 H 239.995 -1.83343 5.71407 0
M  V30 2622 H 241.065 -0.76528 4.78823 0
M  V30 2623 N 242.408 -1.52605 -0.393616 0
M  V30 2624 C 243.371 -1.76415 -1.46323 0
M  V30 2625 C 244.371 -0.634126 -1.47768 0
M  V30 2626 O 245.561 -0.902142 -1.4902 0
M  V30 2627 C 242.693 -1.8607 -2.85641 0
M  V30 2628 H 243.886 -2.71916 -1.26498 0
M  V30 2629 H 241.439 -1.43257 -0.625073 0
M  V30 2630 H 242.174 -0.925378 -3.10817 0
M  V30 2631 H 241.959 -2.68235 -2.85993 0
M  V30 2632 H 243.449 -2.06179 -3.63153 0
M  V30 2633 N 243.887 0.651787 -1.4349 0
M  V30 2634 C 245.136 1.40754 -1.44469 0
M  V30 2635 C 245.449 1.95463 -0.0731845 0
M  V30 2636 O 246.655 2.71471 0.0395721 0
M  V30 2637 C 245.111 2.54735 -2.5424 0
M  V30 2638 C 244.719 2.06628 -3.97504 0
M  V30 2639 C 246.463 3.32092 -2.64414 0
M  V30 2640 C 244.37 3.17829 -4.98737 0
M  V30 2641 H 243.3 0.528862 -0.53742 0
M  V30 2642 H 245.951 0.703365 -1.69485 0
M  V30 2643 H 244.333 3.2763 -2.22428 0
M  V30 2644 H 245.507 1.40734 -4.38783 0
M  V30 2645 H 243.822 1.42146 -3.91387 0
M  V30 2646 H 246.419 4.14952 -3.37223 0
M  V30 2647 H 246.762 3.80217 -1.69532 0
M  V30 2648 H 247.295 2.66279 -2.95534 0
M  V30 2649 H 244.034 2.74671 -5.95177 0
M  V30 2650 H 243.554 3.82429 -4.62069 0
M  V30 2651 H 245.233 3.82937 -5.21505 0
M  V30 2652 N 245.365 1.30045 0.890287 0
M  V30 2653 C 246.59 1.21598 1.68014 0
M  V30 2654 C 247.015 -0.218678 1.86825 0
M  V30 2655 O 246.373 -1.15756 1.39536 0
M  V30 2656 C 246.421 1.94434 3.03691 0
M  V30 2657 O 245.525 1.2678 3.92429 0
M  V30 2658 H 244.866 0.420856 0.513592 0
M  V30 2659 H 247.396 1.71775 1.11151 0
M  V30 2660 H 247.406 2.03251 3.5377 0
M  V30 2661 H 246.081 2.98777 2.89318 0
M  V30 2662 H 244.658 1.26282 3.50866 0
M  V30 2663 N 246.843 -1.10192 1.12674 0
M  V30 2664 C 247.806 -2.14786 0.799979 0
M  V30 2665 C 248.806 -1.59711 -0.18685 0
M  V30 2666 O 249.996 -1.74156 0.0392558 0
M  V30 2667 C 247.128 -3.40374 0.189228 0
M  V30 2668 H 248.321 -2.45203 1.72671 0
M  V30 2669 H 245.874 -1.25597 0.930326 0
M  V30 2670 H 246.609 -3.15577 -0.747107 0
M  V30 2671 H 246.394 -3.81637 0.899766 0
M  V30 2672 H 247.884 -4.17594 -0.0228143 0
M  V30 2673 N 248.321 -0.919034 -1.28029 0
M  V30 2674 C 249.253 -0.368762 -2.26214 0
M  V30 2675 C 250.266 0.495716 -1.55069 0
M  V30 2676 O 251.455 0.30974 -1.75792 0
M  V30 2677 C 248.555 0.491049 -3.35324 0
M  V30 2678 C 247.728 -0.352133 -4.3598 0
M  V30 2679 C 246.787 0.443622 -5.24327 0
M  V30 2680 O 245.813 -0.14566 -5.69014 0
M  V30 2681 N 247.015 1.74545 -5.53637 0
M  V30 2682 H 249.78 -1.21273 -2.74068 0
M  V30 2683 H 247.341 -0.785541 -1.41566 0
M  V30 2684 H 249.333 1.03026 -3.91366 0
M  V30 2685 H 247.903 1.23574 -2.87138 0
M  V30 2686 H 247.123 -1.07269 -3.79324 0
M  V30 2687 H 248.411 -0.928883 -5.00249 0
M  V30 2688 H 247.809 2.24666 -5.19174 0
M  V30 2689 H 246.366 2.23138 -6.12416 0
M  V30 2690 N 249.799 1.42003 -0.683588 0
M  V30 2691 C 250.709 2.34597 -0.0109075 0
M  V30 2692 C 251.725 1.55576 0.779245 0
M  V30 2693 O 252.901 1.88107 0.719555 0
M  V30 2694 C 249.966 3.34199 0.922588 0
M  V30 2695 C 249.027 4.29115 0.125984 0
M  V30 2696 C 248.26 5.23959 1.01502 0
M  V30 2697 O 248.483 5.23952 2.25456 0
M  V30 2698 O 247.417 6.00053 0.47111 0
M  V30 2699 H 251.243 2.93675 -0.773853 0
M  V30 2700 H 248.828 1.42654 -0.443861 0
M  V30 2701 H 250.71 3.95365 1.45823 0
M  V30 2702 H 249.385 2.77582 1.66523 0
M  V30 2703 H 248.292 3.71335 -0.453969 0
M  V30 2704 H 249.625 4.88798 -0.577736 0
M  V30 2705 N 251.277 0.427512 1.51691 0
M  V30 2706 C 252.209 -0.424521 2.25234 0
M  V30 2707 C 253.222 -0.994671 1.2888 0
M  V30 2708 O 254.411 -0.890483 1.54702 0
M  V30 2709 C 251.511 -1.60479 2.98496 0
M  V30 2710 C 250.684 -1.15527 4.21868 0
M  V30 2711 C 249.743 -2.20454 4.77793 0
M  V30 2712 O 248.769 -1.8029 5.39893 0
M  V30 2713 N 249.971 -3.52831 4.60967 0
M  V30 2714 H 252.736 0.205749 2.98993 0
M  V30 2715 H 250.297 0.255867 1.59865 0
M  V30 2716 H 252.289 -2.30276 3.32799 0
M  V30 2717 H 250.859 -2.14061 2.27809 0
M  V30 2718 H 250.079 -0.284736 3.9317 0
M  V30 2719 H 251.367 -0.832173 5.01949 0
M  V30 2720 H 250.765 -3.88201 4.11481 0
M  V30 2721 H 249.322 -4.18551 4.99658 0
M  V30 2722 N 252.755 -1.56801 0.158532 0
M  V30 2723 C 254.004 -1.95665 -0.489702 0
M  V30 2724 C 254.317 -1.04654 -1.65248 0
M  V30 2725 O 255.523 -1.33146 -2.3661 0
M  V30 2726 C 253.979 -3.47874 -0.922582 0
M  V30 2727 C 253.587 -4.47489 0.213893 0
M  V30 2728 C 255.331 -3.95583 -1.53996 0
M  V30 2729 C 253.238 -5.90921 -0.237903 0
M  V30 2730 H 252.168 -0.730516 -0.186716 0
M  V30 2731 H 254.819 -1.81861 0.244722 0
M  V30 2732 H 253.201 -3.57051 -1.71261 0
M  V30 2733 H 254.375 -4.50017 0.991036 0
M  V30 2734 H 252.69 -4.09764 0.740407 0
M  V30 2735 H 255.287 -5.0019 -1.8898 0
M  V30 2736 H 255.63 -3.37789 -2.43319 0
M  V30 2737 H 256.163 -3.8937 -0.814611 0
M  V30 2738 H 252.902 -6.52559 0.620236 0
M  V30 2739 H 252.422 -5.91729 -0.980676 0
M  V30 2740 H 254.101 -6.43352 -0.686067 0
M  V30 2741 N 254.233 0.115231 -1.57178 0
M  V30 2742 C 255.196 1.12526 -1.99676 0
M  V30 2743 C 256.196 1.34095 -0.88742 0
M  V30 2744 O 257.386 1.30548 -1.15337 0
M  V30 2745 C 254.518 2.4789 -2.34015 0
M  V30 2746 H 255.711 0.759912 -2.90113 0
M  V30 2747 H 253.264 0.359648 -1.52106 0
M  V30 2748 H 253.999 2.89339 -1.4647 0
M  V30 2749 H 253.784 2.33588 -3.14927 0
M  V30 2750 H 255.274 3.20575 -2.67622 0
M  V30 2751 N 255.711 1.52812 0.385517 0
M  V30 2752 C 256.958 1.68026 1.1302 0
M  V30 2753 C 257.286 0.421934 1.89868 0
M  V30 2754 O 256.541 -0.595749 1.86412 0
M  V30 2755 C 256.84 2.86856 2.13187 0
M  V30 2756 C 256.506 4.24159 1.5297 0
M  V30 2757 C 255.168 4.61501 1.36274 0
M  V30 2758 C 257.52 5.09627 1.09223 0
M  V30 2759 C 254.848 5.81966 0.743837 0
M  V30 2760 C 257.2 6.30719 0.487411 0
M  V30 2761 C 255.864 6.6679 0.307777 0
M  V30 2762 H 255.134 0.614849 0.413571 0
M  V30 2763 H 257.781 1.86962 0.414405 0
M  V30 2764 H 256.086 2.6235 2.90998 0
M  V30 2765 H 257.783 2.95821 2.70722 0
M  V30 2766 H 254.373 3.94746 1.66954 0
M  V30 2767 H 258.557 4.81343 1.20922 0
M  V30 2768 H 253.813 6.08519 0.592891 0
M  V30 2769 H 257.987 6.96259 0.140143 0
M  V30 2770 H 255.614 7.60001 -0.173879 0
M  V30 2771 N 257.189 -0.644168 1.43834 0
M  V30 2772 C 258.119 -1.76814 1.52509 0
M  V30 2773 C 259.1 -1.65823 0.379052 0
M  V30 2774 O 260.285 -1.84781 0.597466 0
M  V30 2775 C 257.415 -3.15288 1.4564 0
M  V30 2776 C 256.369 -3.41053 2.58586 0
M  V30 2777 C 255.695 -4.79421 2.36769 0
M  V30 2778 C 256.995 -3.34902 4.00797 0
M  V30 2779 H 258.689 -1.69812 2.46586 0
M  V30 2780 H 256.235 -0.815542 1.1868 0
M  V30 2781 H 258.188 -3.93681 1.50311 0
M  V30 2782 H 256.912 -3.23043 0.480725 0
M  V30 2783 H 255.571 -2.65035 2.53282 0
M  V30 2784 H 255.219 -4.83863 1.37424 0
M  V30 2785 H 254.919 -4.9762 3.12487 0
M  V30 2786 H 256.443 -5.6006 2.43238 0
M  V30 2787 H 257.857 -4.03218 4.07539 0
M  V30 2788 H 256.254 -3.64637 4.76613 0
M  V30 2789 H 257.324 -2.32928 4.25291 0
M  V30 2790 N 258.668 -1.30515 -0.883378 0
M  V30 2791 C 260.084 -1.08881 -1.16692 0
M  V30 2792 C 260.284 0.149409 -2.00945 0
M  V30 2793 O 259.34 0.84257 -2.38027 0
M  V30 2794 C 260.653 -2.35319 -1.87204 0
M  V30 2795 C 262.201 -2.40799 -1.99962 0
M  V30 2796 C 262.676 -3.67083 -2.73887 0
M  V30 2797 N 264.167 -3.679 -2.81432 0
M  V30 2798 C 264.902 -4.62303 -3.3921 0
M  V30 2799 N 264.398 -5.67052 -3.98025 0
M  V30 2800 N 266.191 -4.49845 -3.3704 0
M  V30 2801 H 258.342 -2.09951 -0.321633 0
M  V30 2802 H 260.605 -0.92556 -0.205043 0
M  V30 2803 H 260.311 -3.25689 -1.3274 0
M  V30 2804 H 260.185 -2.44089 -2.87577 0
M  V30 2805 H 262.572 -1.50907 -2.53597 0
M  V30 2806 H 262.653 -2.36003 -0.98673 0
M  V30 2807 H 262.297 -4.57334 -2.20925 0
M  V30 2808 H 262.227 -3.69141 -3.75556 0
M  V30 2809 H 264.718 -2.92171 -2.39676 0
M  V30 2810 H 265.031 -6.35184 -4.40183 0
M  V30 2811 H 263.376 -5.70842 -3.96439 0
M  V30 2812 H 266.567 -3.67194 -2.90321 0
M  V30 2813 H 266.74 -5.23597 -3.81772 0
M  V30 2814 N 260.146 1.09593 -1.13257 0
M  V30 2815 C 261.093 2.1618 -0.808381 0
M  V30 2816 C 262.063 1.64517 0.228754 0
M  V30 2817 O 263.248 1.9053 0.101381 0
M  V30 2818 C 260.388 3.43973 -0.278675 0
M  V30 2819 C 259.501 4.09545 -1.37466 0
M  V30 2820 C 258.636 5.25088 -0.803479 0
M  V30 2821 C 257.675 5.82579 -1.87799 0
M  V30 2822 N 256.812 6.89486 -1.32488 0
M  V30 2823 H 261.652 2.43254 -1.72138 0
M  V30 2824 H 259.189 1.19392 -0.859294 0
M  V30 2825 H 261.147 4.17174 0.0465583 0
M  V30 2826 H 259.777 3.17223 0.597459 0
M  V30 2827 H 258.829 3.34226 -1.81652 0
M  V30 2828 H 260.141 4.48307 -2.18684 0
M  V30 2829 H 259.295 6.05178 -0.429427 0
M  V30 2830 H 258.034 4.87684 0.0397956 0
M  V30 2831 H 257.039 5.01152 -2.26113 0
M  V30 2832 H 258.264 6.22045 -2.72463 0
M  V30 2833 H 256.21 6.54064 -0.503575 0
M  V30 2834 H 256.127 7.27007 -2.07355 0
M  V30 2835 H 257.395 7.73336 -0.978336 0
M  V30 2836 N 261.624 0.925811 1.2754 0
M  V30 2837 C 262.554 0.440748 2.29303 0
M  V30 2838 C 263.535 -0.497971 1.62648 0
M  V30 2839 O 264.72 -0.403126 1.8997 0
M  V30 2840 C 261.85 -0.309048 3.45922 0
M  V30 2841 C 260.804 0.54166 4.24559 0
M  V30 2842 C 260.13 -0.337191 5.33636 0
M  V30 2843 C 261.43 1.80516 4.90114 0
M  V30 2844 H 263.124 1.29121 2.70126 0
M  V30 2845 H 260.67 0.622323 1.29858 0
M  V30 2846 H 262.623 -0.659315 4.1621 0
M  V30 2847 H 261.347 -1.19352 3.04011 0
M  V30 2848 H 260.006 0.874609 3.56014 0
M  V30 2849 H 259.654 -1.22056 4.87966 0
M  V30 2850 H 259.354 0.228497 5.87156 0
M  V30 2851 H 260.878 -0.683072 6.06767 0
M  V30 2852 H 262.292 1.52307 5.52698 0
M  V30 2853 H 260.689 2.3142 5.53683 0
M  V30 2854 H 261.759 2.52581 4.13921 0
M  V30 2855 N 263.102 -1.41638 0.69111 0
M  V30 2856 C 264.332 -2.0533 0.228758 0
M  V30 2857 C 264.74 -1.52089 -1.12541 0
M  V30 2858 O 264.083 -0.662145 -1.71351 0
M  V30 2859 C 264.145 -3.59349 0.10407 0
M  V30 2860 C 263.809 -4.35362 1.38956 0
M  V30 2861 C 264.806 -4.64942 2.32648 0
M  V30 2862 C 262.491 -4.74714 1.64169 0
M  V30 2863 C 264.485 -5.32828 3.49818 0
M  V30 2864 C 262.172 -5.42338 2.81625 0
M  V30 2865 C 263.17 -5.71322 3.74273 0
M  V30 2866 O 262.858 -6.37554 4.89673 0
M  V30 2867 H 262.59 -0.667796 0.104997 0
M  V30 2868 H 265.144 -1.82477 0.942938 0
M  V30 2869 H 263.374 -3.80924 -0.665839 0
M  V30 2870 H 265.063 -4.04633 -0.320519 0
M  V30 2871 H 265.829 -4.35025 2.14425 0
M  V30 2872 H 261.708 -4.51538 0.929202 0
M  V30 2873 H 265.252 -5.55368 4.22152 0
M  V30 2874 H 261.149 -5.71673 2.99768 0
M  V30 2875 H 261.917 -6.56049 4.8943 0
M  V30 2876 N 264.58 -0.43555 -1.51462 0
M  V30 2877 C 265.996 -0.0877501 -1.59359 0
M  V30 2878 C 266.196 1.4027 -1.4466 0
M  V30 2879 O 265.252 2.17243 -1.28693 0
M  V30 2880 C 266.565 -0.606264 -2.94525 0
M  V30 2881 C 268.113 -0.566548 -3.0783 0
M  V30 2882 C 268.588 -1.06201 -4.45517 0
M  V30 2883 N 270.079 -1.01992 -4.51832 0
M  V30 2884 C 270.814 -1.37417 -5.5669 0
M  V30 2885 N 270.31 -1.80119 -6.68976 0
M  V30 2886 N 272.103 -1.29245 -5.47039 0
M  V30 2887 H 264.254 -1.40533 -1.59261 0
M  V30 2888 H 266.517 -0.578992 -0.750648 0
M  V30 2889 H 266.223 -1.64901 -3.10645 0
M  V30 2890 H 266.097 -0.0302097 -3.77188 0
M  V30 2891 H 268.484 0.467208 -2.91378 0
M  V30 2892 H 268.565 -1.17898 -2.2701 0
M  V30 2893 H 268.209 -2.09422 -4.62715 0
M  V30 2894 H 268.139 -0.426127 -5.24873 0
M  V30 2895 H 270.63 -0.706308 -3.71241 0
M  V30 2896 H 270.943 -2.05392 -7.45006 0
M  V30 2897 H 269.288 -1.84044 -6.70189 0
M  V30 2898 H 272.479 -0.957522 -4.58202 0
M  V30 2899 H 272.652 -1.57182 -6.28648 0
M  V30 2900 N 266.058 1.56714 -0.166846 0
M  V30 2901 C 267.006 2.19056 0.782123 0
M  V30 2902 C 268 1.15328 1.24079 0
M  V30 2903 O 269.206 1.33537 1.20697 0
M  V30 2904 H 265.581 0.70167 0.270486 0
M  V30 2905 H 267.552 2.97494 0.232322 0
M  V30 2906 C 266.301 2.84206 2.00306 0
M  V30 2907 H 265.624 3.63748 1.65914 0
M  V30 2908 H 267.064 3.31302 2.64604 0
M  V30 2909 C 265.523 1.83744 2.82382 0
M  V30 2910 O 266.053 1.32014 3.79388 0
M  V30 2911 N 264.259 1.52601 2.47308 0
M  V30 2912 H 263.806 1.9486 1.68485 0
M  V30 2913 H 263.764 0.856351 3.02513 0
M  V30 2914 N 267.536 -0.106894 1.57237 0
M  V30 2915 C 268.446 -1.14911 2.0453 0
M  V30 2916 C 269.462 -1.44592 0.96795 0
M  V30 2917 O 270.638 -1.55468 1.2803 0
M  V30 2918 C 267.703 -2.45272 2.45036 0
M  V30 2919 C 266.764 -2.22879 3.66911 0
M  V30 2920 C 265.997 -3.47024 4.05475 0
M  V30 2921 O 266.22 -4.54804 3.44252 0
M  V30 2922 O 265.154 -3.3731 4.98504 0
M  V30 2923 H 268.98 -0.777461 2.9358 0
M  V30 2924 H 266.565 -0.318563 1.45964 0
M  V30 2925 H 268.447 -3.22055 2.71769 0
M  V30 2926 H 267.122 -2.81886 1.59129 0
M  V30 2927 H 266.029 -1.43915 3.45311 0
M  V30 2928 H 267.362 -1.91163 4.53561 0
M  V30 2929 N 269.014 -1.53014 -0.377408 0
M  V30 2930 C 269.944 -1.81589 -1.46791 0
M  V30 2931 C 270.925 -0.668622 -1.56408 0
M  V30 2932 O 272.11 -0.917337 -1.71168 0
M  V30 2933 C 269.24 -1.99519 -2.8427 0
M  V30 2934 C 268.194 -3.15249 -2.89486 0
M  V30 2935 C 267.52 -3.18451 -4.29527 0
M  V30 2936 C 268.82 -4.54084 -2.58079 0
M  V30 2937 H 270.514 -2.7291 -1.23127 0
M  V30 2938 H 268.06 -1.31319 -0.590883 0
M  V30 2939 H 270.013 -2.18092 -3.60575 0
M  V30 2940 H 268.737 -1.04897 -3.09296 0
M  V30 2941 H 267.396 -2.96477 -2.15631 0
M  V30 2942 H 267.044 -2.2149 -4.5161 0
M  V30 2943 H 266.744 -3.962 -4.33934 0
M  V30 2944 H 268.268 -3.39193 -5.07721 0
M  V30 2945 H 269.682 -4.72899 -3.24098 0
M  V30 2946 H 268.079 -5.33987 -2.7382 0
M  V30 2947 H 269.149 -4.60006 -1.53372 0
M  V30 2948 N 270.492 0.636531 -1.44174 0
M  V30 2949 C 271.903 1.21806 -1.41493 0
M  V30 2950 C 272.254 1.95785 -0.1275 0
M  V30 2951 O 271.379 2.02147 0.772376 0
M  V30 2952 C 271.974 2.21551 -2.56321 0
M  V30 2953 C 270.533 2.75143 -2.56853 0
M  V30 2954 C 269.68 1.50052 -2.33195 0
M  V30 2955 H 272.631 0.427531 -1.52833 0
M  V30 2956 H 272.652 3.0405 -2.28765 0
M  V30 2957 H 272.164 1.67679 -3.50008 0
M  V30 2958 H 270.265 3.33033 -1.67093 0
M  V30 2959 H 270.378 3.2155 -3.55165 0
M  V30 2960 H 268.742 1.77993 -1.82183 0
M  V30 2961 H 269.525 0.980903 -3.28988 0
M  V30 2962 N 271.97 1.30982 0.876444 0
M  V30 2963 C 273.217 1.20296 1.62896 0
M  V30 2964 C 273.545 -0.240395 1.93009 0
M  V30 2965 O 272.8 -1.18733 1.55567 0
M  V30 2966 C 273.099 1.98572 2.9716 0
M  V30 2967 C 272.765 3.48125 2.86566 0
M  V30 2968 C 271.427 3.88905 2.83383 0
M  V30 2969 C 273.779 4.43322 2.74071 0
M  V30 2970 C 271.107 5.2316 2.65556 0
M  V30 2971 C 273.459 5.77695 2.57781 0
M  V30 2972 C 272.123 6.17704 2.52979 0
M  V30 2973 H 271.393 0.440193 0.59608 0
M  V30 2974 H 274.04 1.62177 1.01837 0
M  V30 2975 H 272.345 1.49352 3.62217 0
M  V30 2976 H 274.042 1.8769 3.54364 0
M  V30 2977 H 270.632 3.15723 2.89856 0
M  V30 2978 H 274.816 4.12752 2.75589 0
M  V30 2979 H 270.072 5.53241 2.60259 0
M  V30 2980 H 274.246 6.51091 2.47089 0
M  V30 2981 H 271.873 7.21678 2.38924 0
M  V30 2982 N 273.449 -1.08991 1.13837 0
M  V30 2983 C 274.865 -1.33312 0.877506 0
M  V30 2984 C 275.065 -1.95587 -0.48456 0
M  V30 2985 O 274.121 -2.20509 -1.23013 0
M  V30 2986 C 275.434 -2.24045 2.0056 0
M  V30 2987 C 276.982 -2.37542 2.03821 0
M  V30 2988 C 277.457 -3.31614 3.15905 0
M  V30 2989 N 278.948 -3.39189 3.15445 0
M  V30 2990 C 279.683 -4.11992 3.98811 0
M  V30 2991 N 279.179 -4.87553 4.92203 0
M  V30 2992 N 280.972 -4.07762 3.86894 0
M  V30 2993 H 273.123 -0.669456 2.01574 0
M  V30 2994 H 275.386 -0.357482 0.878015 0
M  V30 2995 H 275.092 -1.85521 2.98789 0
M  V30 2996 H 274.966 -3.24466 1.92359 0
M  V30 2997 H 277.353 -2.75327 1.06202 0
M  V30 2998 H 277.434 -1.36884 2.16093 0
M  V30 2999 H 277.078 -2.94551 4.13766 0
M  V30 3000 H 277.008 -4.32186 3.0087 0
M  V30 3001 H 279.499 -2.85314 2.47799 0
M  V30 3002 H 279.812 -5.40549 5.52292 0
M  V30 3003 H 278.157 -4.86627 4.96205 0
M  V30 3004 H 281.348 -3.47833 3.13257 0
M  V30 3005 H 281.521 -4.64238 4.52092 0
M  V30 3006 N 274.927 -0.932562 -1.27047 0
M  V30 3007 C 276.173 -0.576412 -1.94436 0
M  V30 3008 C 276.506 0.880891 -1.73072 0
M  V30 3009 O 275.781 1.62905 -1.06264 0
M  V30 3010 C 276.064 -0.909031 -3.48437 0
M  V30 3011 C 275.917 -2.42044 -3.79123 0
M  V30 3012 C 277.236 -0.418341 -4.38107 0
M  V30 3013 H 274.355 -0.210888 -0.706184 0
M  V30 3014 H 276.997 -1.16522 -1.50075 0
M  V30 3015 H 275.147 -0.407947 -3.86352 0
M  V30 3016 H 276.819 -2.99359 -3.50973 0
M  V30 3017 H 275.062 -2.86758 -3.25503 0
M  V30 3018 H 275.733 -2.6037 -4.86736 0
M  V30 3019 H 278.209 -0.847856 -4.0737 0
M  V30 3020 H 277.085 -0.679981 -5.44672 0
M  V30 3021 H 277.346 0.681642 -4.36814 0
M  V30 3022 N 276.405 1.4127 -0.698611 0
M  V30 3023 C 277.315 2.34573 -0.0357891 0
M  V30 3024 C 278.331 1.56393 0.762701 0
M  V30 3025 O 279.507 1.8886 0.699564 0
M  V30 3026 C 276.572 3.35159 0.887089 0
M  V30 3027 C 275.633 4.29225 0.0804634 0
M  V30 3028 C 274.866 5.25006 0.959387 0
M  V30 3029 O 275.089 5.26314 2.19886 0
M  V30 3030 O 274.023 6.00519 0.407439 0
M  V30 3031 H 277.849 2.92838 -0.804957 0
M  V30 3032 H 275.434 1.42175 -0.458966 0
M  V30 3033 H 277.316 3.9689 1.41621 0
M  V30 3034 H 275.991 2.79333 1.6357 0
M  V30 3035 H 274.898 3.70833 -0.493328 0
M  V30 3036 H 276.231 4.88157 -0.629547 0
M  V30 3037 N 277.883 0.443576 1.51229 0
M  V30 3038 C 278.833 -0.382787 2.24764 0
M  V30 3039 C 279.817 -0.984836 1.27239 0
M  V30 3040 O 281.009 -0.901943 1.52296 0
M  V30 3041 C 278.138 -1.47989 3.09765 0
M  V30 3042 C 277.224 -0.886931 4.14722 0
M  V30 3043 N 277.615 -0.0237103 5.05794 0
M  V30 3044 C 275.913 -1.15385 4.30816 0
M  V30 3045 C 276.614 0.309971 5.80874 0
M  V30 3046 N 275.59 -0.307989 5.42727 0
M  V30 3047 H 279.392 0.282624 2.92538 0
M  V30 3048 H 276.906 0.256027 1.60369 0
M  V30 3049 H 278.903 -2.08482 3.61027 0
M  V30 3050 H 277.563 -2.14758 2.43535 0
M  V30 3051 H 278.574 0.34318 5.16762 0
M  V30 3052 H 275.251 -1.81857 3.75812 0
M  V30 3053 H 276.641 1.01279 6.64223 0
M  V30 3054 N 279.361 -1.56624 0.175154 0
M  V30 3055 C 280.293 -2.15333 -0.785128 0
M  V30 3056 C 281.306 -1.1099 -1.19101 0
M  V30 3057 O 282.495 -1.38162 -1.13019 0
M  V30 3058 C 279.595 -2.68427 -2.06882 0
M  V30 3059 C 278.768 -3.97466 -1.8259 0
M  V30 3060 C 277.827 -4.35585 -2.95215 0
M  V30 3061 O 276.853 -5.03389 -2.65684 0
M  V30 3062 N 278.055 -3.97457 -4.23094 0
M  V30 3063 H 280.82 -2.98359 -0.283187 0
M  V30 3064 H 278.381 -1.61898 -0.00749817 0
M  V30 3065 H 280.373 -2.90924 -2.81328 0
M  V30 3066 H 278.943 -1.89968 -2.48256 0
M  V30 3067 H 278.163 -3.83307 -0.920287 0
M  V30 3068 H 279.451 -4.81736 -1.63733 0
M  V30 3069 H 278.849 -3.42878 -4.49945 0
M  V30 3070 H 277.406 -4.24947 -4.9423 0
M  V30 3071 N 280.839 0.0985539 -1.57292 0
M  V30 3072 C 282.255 0.45267 -1.53046 0
M  V30 3073 C 282.455 1.80713 -0.891342 0
M  V30 3074 O 281.511 2.4785 -0.482375 0
M  V30 3075 C 282.824 0.418341 -2.97776 0
M  V30 3076 C 284.372 0.500443 -3.08973 0
M  V30 3077 C 284.847 0.496297 -4.55303 0
M  V30 3078 N 286.338 0.557151 -4.59837 0
M  V30 3079 C 287.073 0.575726 -5.70502 0
M  V30 3080 N 286.569 0.550714 -6.90608 0
M  V30 3081 N 288.362 0.620277 -5.58667 0
M  V30 3082 H 280.513 -0.788673 -1.97215 0
M  V30 3083 H 282.776 -0.293188 -0.901524 0
M  V30 3084 H 282.482 -0.509659 -3.47988 0
M  V30 3085 H 282.356 1.2386 -3.56284 0
M  V30 3086 H 284.743 1.41886 -2.58751 0
M  V30 3087 H 284.824 -0.347894 -2.53423 0
M  V30 3088 H 284.468 -0.418162 -5.06176 0
M  V30 3089 H 284.398 1.3618 -5.08687 0
M  V30 3090 H 286.889 0.581816 -3.73394 0
M  V30 3091 H 287.202 0.568075 -7.70709 0
M  V30 3092 H 285.547 0.517816 -6.93068 0
M  V30 3093 H 288.738 0.637322 -4.63741 0
M  V30 3094 H 288.911 0.631283 -6.44918 0
M  V30 3095 N 282.317 1.53212 0.369288 0
M  V30 3096 C 283.247 1.82365 1.45826 0
M  V30 3097 C 284.228 0.676907 1.56051 0
M  V30 3098 O 285.413 0.926401 1.70679 0
M  V30 3099 C 282.543 2.01023 2.83208 0
M  V30 3100 C 281.497 3.1678 2.8781 0
M  V30 3101 C 280.823 3.20724 4.27832 0
M  V30 3102 C 282.123 4.55447 2.55667 0
M  V30 3103 H 283.817 2.73559 1.21678 0
M  V30 3104 H 281.363 1.3163 0.583911 0
M  V30 3105 H 283.316 2.20001 3.59413 0
M  V30 3106 H 282.04 1.06536 3.08736 0
M  V30 3107 H 280.699 2.97616 2.14056 0
M  V30 3108 H 280.347 2.23882 4.50429 0
M  V30 3109 H 280.047 3.98496 4.31827 0
M  V30 3110 H 281.571 3.41881 5.05915 0
M  V30 3111 H 282.985 4.74611 3.21586 0
M  V30 3112 H 281.382 5.35432 2.70984 0
M  V30 3113 H 282.452 4.60812 1.5093 0
M  V30 3114 N 283.795 -0.628877 1.44509 0
M  V30 3115 C 285.041 -1.39045 1.47629 0
M  V30 3116 C 285.374 -1.93892 0.109343 0
M  V30 3117 O 284.649 -1.7379 -0.87334 0
M  V30 3118 C 284.932 -2.55408 2.53848 0
M  V30 3119 C 284.785 -2.05896 3.99909 0
M  V30 3120 C 286.104 -3.5759 2.56549 0
M  V30 3121 H 283.223 -0.504232 0.537512 0
M  V30 3122 H 285.865 -0.710854 1.76201 0
M  V30 3123 H 284.015 -3.13384 2.29615 0
M  V30 3124 H 285.687 -1.52734 4.35282 0
M  V30 3125 H 283.93 -1.37061 4.11578 0
M  V30 3126 H 284.601 -2.89681 4.69882 0
M  V30 3127 H 287.077 -3.09419 2.78207 0
M  V30 3128 H 285.953 -4.36527 3.32769 0
M  V30 3129 H 286.214 -4.11808 1.60832 0
M  V30 3130 N 285.273 -1.31445 -0.869486 0
M  V30 3131 C 286.22 -1.19135 -1.97675 0
M  V30 3132 C 287.19 -0.0770266 -1.65921 0
M  V30 3133 O 288.375 -0.249972 -1.89155 0
M  V30 3134 C 285.515 -0.905149 -3.33018 0
M  V30 3135 C 284.628 -2.10285 -3.77365 0
M  V30 3136 C 283.763 -1.75339 -5.01427 0
M  V30 3137 C 282.802 -2.91515 -5.38224 0
M  V30 3138 N 281.939 -2.56762 -6.53466 0
M  V30 3139 H 286.779 -2.13853 -2.07535 0
M  V30 3140 H 284.316 -1.06379 -1.01597 0
M  V30 3141 H 286.274 -0.719765 -4.10944 0
M  V30 3142 H 284.904 0.00519624 -3.228 0
M  V30 3143 H 283.956 -2.39899 -2.95216 0
M  V30 3144 H 285.268 -2.97237 -4.00564 0
M  V30 3145 H 284.422 -1.53266 -5.87022 0
M  V30 3146 H 283.161 -0.855801 -4.80133 0
M  V30 3147 H 282.166 -3.14237 -4.51149 0
M  V30 3148 H 283.391 -3.81985 -5.61484 0
M  V30 3149 H 281.337 -1.69526 -6.33717 0
M  V30 3150 H 281.254 -3.37243 -6.76612 0
M  V30 3151 H 282.522 -2.38083 -7.42251 0
M  V30 3152 N 286.751 1.08385 -1.14413 0
M  V30 3153 C 288.028 1.77429 -0.823297 0
M  V30 3154 C 288.408 1.9974 0.683163 0
M  V30 3155 O 287.756 1.60739 1.62405 0
M  V30 3156 C 287.966 3.09004 -1.62227 0
M  V30 3157 C 289.314 3.83532 -1.82177 0
M  V30 3158 O 290.338 3.18786 -1.58915 0
M  V30 3159 O 289.197 4.99792 -2.21067 0
M  V30 3160 H 286.291 0.769999 -0.301712 0
M  V30 3161 H 288.837 1.14846 -1.24934 0
M  V30 3162 H 287.609 2.88316 -2.64555 0
M  V30 3163 H 287.232 3.79316 -1.19187 0
M  V30 3164 N 288.23 0.939286 1.26551 0
M  V30 3165 C 289.16 0.465044 2.28822 0
M  V30 3166 C 290.141 -0.480692 1.63167 0
M  V30 3167 O 291.326 -0.382955 1.90387 0
M  V30 3168 C 288.456 -0.27234 3.46231 0
M  V30 3169 C 287.41 0.58666 4.2396 0
M  V30 3170 C 286.736 -0.280573 5.33963 0
M  V30 3171 C 288.036 1.85704 4.88171 0
M  V30 3172 H 289.73 1.31979 2.68741 0
M  V30 3173 H 287.276 0.636061 1.29191 0
M  V30 3174 H 289.229 -0.615133 4.16886 0
M  V30 3175 H 287.953 -1.16121 3.0526 0
M  V30 3176 H 286.612 0.91232 3.55067 0
M  V30 3177 H 286.26 -1.16874 4.89234 0
M  V30 3178 H 285.96 0.29076 5.8688 0
M  V30 3179 H 287.484 -0.618678 6.07458 0
M  V30 3180 H 288.898 1.58161 5.51052 0
M  V30 3181 H 287.295 2.37279 5.51197 0
M  V30 3182 H 288.365 2.56957 4.11219 0
M  V30 3183 N 289.708 -1.40897 0.706093 0
M  V30 3184 C 290.641 -2.282 -0.00328781 0
M  V30 3185 C 291.619 -1.42816 -0.77732 0
M  V30 3186 O 292.803 -1.72237 -0.765944 0
M  V30 3187 C 289.93 -3.23226 -1.01205 0
M  V30 3188 C 288.976 -4.25222 -0.329955 0
M  V30 3189 S 289.809 -5.27269 0.935298 0
M  V30 3190 C 290.965 -6.25859 -0.0716061 0
M  V30 3191 H 291.198 -2.88016 0.737143 0
M  V30 3192 H 288.731 -1.46191 0.496756 0
M  V30 3193 H 290.689 -3.78503 -1.58888 0
M  V30 3194 H 289.35 -2.62485 -1.72513 0
M  V30 3195 H 288.543 -4.92023 -1.09221 0
M  V30 3196 H 288.145 -3.73595 0.174069 0
M  V30 3197 H 290.437 -6.71204 -0.921521 0
M  V30 3198 H 291.38 -7.0586 0.562765 0
M  V30 3199 H 291.788 -5.62852 -0.431088 0
M  V30 3200 N 291.186 -0.45159 -1.50991 0
M  V30 3201 C 292.435 0.111653 -2.01391 0
M  V30 3202 C 292.748 1.42529 -1.33959 0
M  V30 3203 O 293.954 2.07232 -1.75405 0
M  V30 3204 C 292.41 0.249514 -3.59034 0
M  V30 3205 C 292.018 -1.05453 -4.35412 0
M  V30 3206 C 293.762 0.765762 -4.17536 0
M  V30 3207 C 291.669 -0.881529 -5.84793 0
M  V30 3208 H 290.599 0.0455022 -0.752626 0
M  V30 3209 H 293.25 -0.583524 -1.73975 0
M  V30 3210 H 291.632 1.00803 -3.82955 0
M  V30 3211 H 292.806 -1.82248 -4.23229 0
M  V30 3212 H 291.121 -1.50039 -3.88429 0
M  V30 3213 H 293.718 0.911913 -5.26866 0
M  V30 3214 H 294.061 1.75201 -3.77638 0
M  V30 3215 H 294.594 0.0651744 -3.97747 0
M  V30 3216 H 291.333 -1.84057 -6.29129 0
M  V30 3217 H 290.853 -0.153625 -5.99603 0
M  V30 3218 H 292.532 -0.540363 -6.4474 0
M  V30 3219 N 292.664 1.56529 -0.183458 0
M  V30 3220 C 293.91 1.97537 0.459036 0
M  V30 3221 C 294.243 1.06989 1.62071 0
M  V30 3222 O 293.518 0.11948 1.94133 0
M  V30 3223 C 293.801 3.47874 0.930368 0
M  V30 3224 C 293.654 4.492 -0.232317 0
M  V30 3225 C 294.973 4.01612 1.79989 0
M  V30 3226 H 292.092 0.718204 0.165383 0
M  V30 3227 H 294.734 1.88042 -0.272038 0
M  V30 3228 H 292.884 3.56095 1.55333 0
M  V30 3229 H 294.556 4.53027 -0.86972 0
M  V30 3230 H 292.799 4.24657 -0.885928 0
M  V30 3231 H 293.47 5.51823 0.139796 0
M  V30 3232 H 295.946 3.96097 1.27461 0
M  V30 3233 H 294.822 5.07195 2.09867 0
M  V30 3234 H 295.083 3.46163 2.74998 0
M  V30 3235 N 294.142 -0.090211 1.57342 0
M  V30 3236 C 295.052 -1.12735 2.05738 0
M  V30 3237 C 296.068 -1.43557 0.983231 0
M  V30 3238 O 297.244 -1.54101 1.29672 0
M  V30 3239 C 294.309 -2.42659 2.47624 0
M  V30 3240 C 293.37 -2.18975 3.69254 0
M  V30 3241 C 292.603 -3.42704 4.09133 0
M  V30 3242 O 292.826 -4.51127 3.49057 0
M  V30 3243 O 291.76 -3.32003 5.02053 0
M  V30 3244 H 295.586 -0.746279 2.94388 0
M  V30 3245 H 293.171 -0.303064 1.46294 0
M  V30 3246 H 295.053 -3.19155 2.7517 0
M  V30 3247 H 293.728 -2.80182 1.62109 0
M  V30 3248 H 292.635 -1.40244 3.46818 0
M  V30 3249 H 293.968 -1.86342 4.55563 0
M  V30 3250 N 295.62 -1.53406 -0.361157 0
M  V30 3251 C 296.583 -1.79479 -1.42548 0
M  V30 3252 C 297.583 -0.665327 -1.4639 0
M  V30 3253 O 298.773 -0.933549 -1.47073 0
M  V30 3254 C 295.905 -1.92087 -2.8163 0
M  V30 3255 H 297.098 -2.74538 -1.20701 0
M  V30 3256 H 294.651 -1.4455 -0.594546 0
M  V30 3257 H 295.386 -0.991099 -3.08784 0
M  V30 3258 H 295.171 -2.74241 -2.80239 0
M  V30 3259 H 296.661 -2.13836 -3.58697 0
M  V30 3260 N 297.098 0.621204 -1.44841 0
M  V30 3261 C 298.346 1.37783 -1.47852 0
M  V30 3262 C 298.667 1.94653 -0.116224 0
M  V30 3263 O 297.937 1.76367 0.852737 0
M  V30 3264 H 296.517 0.511453 -0.544449 0
M  V30 3265 H 299.179 0.730446 -1.80694 0
M  V30 3266 H 298.275 2.20414 -2.20961 0
M  V30 3267 N 298.576 1.31904 0.862503 0
M  V30 3268 C 299.992 1.10724 1.14945 0
M  V30 3269 C 300.192 -0.117421 2.01158 0
M  V30 3270 O 299.248 -0.804595 2.39338 0
M  V30 3271 C 300.561 2.38267 1.83437 0
M  V30 3272 C 302.109 2.43949 1.96106 0
M  V30 3273 C 302.584 3.71394 2.68013 0
M  V30 3274 N 304.075 3.72331 2.75543 0
M  V30 3275 C 304.81 4.67641 3.31812 0
M  V30 3276 N 304.306 5.73313 3.88953 0
M  V30 3277 N 306.099 4.5515 3.29841 0
M  V30 3278 H 298.25 2.10436 0.288191 0
M  V30 3279 H 300.513 0.928705 0.190292 0
M  V30 3280 H 300.219 3.27759 1.27542 0
M  V30 3281 H 300.093 2.48633 2.83657 0
M  V30 3282 H 302.48 1.54922 2.51164 0
M  V30 3283 H 302.561 2.37543 0.949059 0
M  V30 3284 H 302.205 4.60791 2.13621 0
M  V30 3285 H 302.135 3.75069 3.69636 0
M  V30 3286 H 304.626 2.95947 2.34997 0
M  V30 3287 H 304.939 6.42107 4.30022 0
M  V30 3288 H 303.284 5.77077 3.87308 0
M  V30 3289 H 306.475 3.71766 2.84443 0
M  V30 3290 H 306.648 5.29604 3.73394 0
M  V30 3291 N 300.054 -1.07777 1.14986 0
M  V30 3292 C 301.002 -2.16964 0.838406 0
M  V30 3293 C 301.996 -1.68372 -0.186386 0
M  V30 3294 O 303.202 -1.79951 -0.0418465 0
M  V30 3295 H 299.577 -0.708006 0.253439 0
M  V30 3296 H 301.548 -2.40454 1.76704 0
M  V30 3297 C 300.297 -3.4604 0.339335 0
M  V30 3298 H 299.62 -3.83813 1.11927 0
M  V30 3299 H 301.06 -4.23698 0.160021 0
M  V30 3300 C 299.519 -3.23569 -0.938325 0
M  V30 3301 O 300.049 -3.47752 -2.01077 0
M  V30 3302 N 298.255 -2.77079 -0.876117 0
M  V30 3303 H 297.802 -2.576 -0.00322037 0
M  V30 3304 H 297.76 -2.62422 -1.73153 0
M  V30 3305 N 301.532 -0.945985 -1.26051 0
M  V30 3306 C 302.778 -0.606539 -1.94146 0
M  V30 3307 C 303.133 0.84586 -1.72809 0
M  V30 3308 O 302.426 1.59781 -1.05738 0
M  V30 3309 C 302.62 -0.890475 -3.46129 0
M  V30 3310 C 302.449 -2.36892 -3.82246 0
M  V30 3311 C 301.219 -3.02494 -4.04753 0
M  V30 3312 C 303.417 -3.34772 -3.90425 0
M  V30 3313 N 301.399 -4.40302 -4.27794 0
M  V30 3314 C 302.77 -4.57855 -4.18054 0
M  V30 3315 C 304.825 -3.2973 -3.73072 0
M  V30 3316 C 303.528 -5.76522 -4.30134 0
M  V30 3317 C 305.554 -4.47727 -3.86386 0
M  V30 3318 C 304.916 -5.69593 -4.14419 0
M  V30 3319 H 301.015 -0.272407 -0.73302 0
M  V30 3320 H 303.599 -1.21638 -1.52027 0
M  V30 3321 H 301.77 -0.309638 -3.87164 0
M  V30 3322 H 303.502 -0.51181 -4.01451 0
M  V30 3323 H 300.257 -2.53095 -4.003 0
M  V30 3324 H 300.681 -5.11646 -4.43337 0
M  V30 3325 H 305.323 -2.36565 -3.50424 0
M  V30 3326 H 303.041 -6.70136 -4.51601 0
M  V30 3327 H 306.627 -4.45363 -3.74356 0
M  V30 3328 H 305.507 -6.59375 -4.24493 0
M  V30 3329 N 303.011 1.40521 -0.713556 0
M  V30 3330 C 304.26 2.00155 -0.249192 0
M  V30 3331 C 304.573 1.57224 1.16362 0
M  V30 3332 O 305.779 2.09542 1.72639 0
M  V30 3333 C 304.235 3.5773 -0.3946 0
M  V30 3334 C 303.843 4.09635 -1.81392 0
M  V30 3335 C 305.587 4.24499 0.00907364 0
M  V30 3336 C 303.494 5.59707 -1.91003 0
M  V30 3337 H 302.424 0.74868 -0.0894114 0
M  V30 3338 H 305.075 1.60784 -0.884352 0
M  V30 3339 H 303.457 3.94792 0.30911 0
M  V30 3340 H 304.631 3.83955 -2.54785 0
M  V30 3341 H 302.946 3.55456 -2.16888 0
M  V30 3342 H 305.543 5.34683 -0.0420404 0
M  V30 3343 H 305.886 4.02824 1.05065 0
M  V30 3344 H 306.419 3.92536 -0.645007 0
M  V30 3345 H 303.158 5.86234 -2.93275 0
M  V30 3346 H 302.678 5.87258 -1.22019 0
M  V30 3347 H 304.357 6.24776 -1.6812 0
M  V30 3348 N 304.489 0.459591 1.5075 0
M  V30 3349 C 305.419 -0.330644 2.31147 0
M  V30 3350 C 306.4 -1.00087 1.37538 0
M  V30 3351 O 307.585 -1.00025 1.66459 0
M  V30 3352 C 304.715 -1.41958 3.16962 0
M  V30 3353 C 303.669 -0.871608 4.19031 0
M  V30 3354 C 302.995 -2.05797 4.9351 0
M  V30 3355 C 304.295 0.109251 5.22186 0
M  V30 3356 H 305.989 0.340336 2.97459 0
M  V30 3357 H 303.535 0.165119 1.4305 0
M  V30 3358 H 305.488 -1.9798 3.71997 0
M  V30 3359 H 304.212 -2.11917 2.48513 0
M  V30 3360 H 302.871 -0.333442 3.6508 0
M  V30 3361 H 302.519 -2.74427 4.21544 0
M  V30 3362 H 302.219 -1.6976 5.62544 0
M  V30 3363 H 303.743 -2.62331 5.51375 0
M  V30 3364 H 305.157 -0.361405 5.7216 0
M  V30 3365 H 303.554 0.383316 5.98875 0
M  V30 3366 H 304.624 1.03887 4.73641 0
M  V30 3367 N 305.967 -1.56429 0.191757 0
M  V30 3368 C 307.383 -1.58754 -0.164137 0
M  V30 3369 C 307.583 -1.20782 -1.61288 0
M  V30 3370 O 306.639 -0.928999 -2.34789 0
M  V30 3371 C 307.952 -3.00396 0.135195 0
M  V30 3372 C 309.5 -3.1291 0.0750351 0
M  V30 3373 C 309.975 -4.56679 0.347632 0
M  V30 3374 N 311.466 -4.62252 0.296131 0
M  V30 3375 C 312.201 -5.71379 0.480948 0
M  V30 3376 N 311.697 -6.88986 0.725933 0
M  V30 3377 N 313.49 -5.60563 0.415435 0
M  V30 3378 H 305.641 -1.79393 1.13718 0
M  V30 3379 H 307.904 -0.832414 0.453643 0
M  V30 3380 H 307.61 -3.32726 1.13958 0
M  V30 3381 H 307.484 -3.72963 -0.563773 0
M  V30 3382 H 309.871 -2.80394 -0.919948 0
M  V30 3383 H 309.952 -2.42736 0.807029 0
M  V30 3384 H 309.596 -4.89907 1.33992 0
M  V30 3385 H 309.526 -5.25039 -0.405212 0
M  V30 3386 H 312.017 -3.7773 0.113259 0
M  V30 3387 H 312.33 -7.68046 0.855857 0
M  V30 3388 H 310.675 -6.90801 0.762788 0
M  V30 3389 H 313.866 -4.67561 0.224486 0
M  V30 3390 H 314.039 -6.45551 0.562889 0
M  V30 3391 N 307.445 0.0818655 -1.57387 0
M  V30 3392 C 308.408 1.08265 -2.02018 0
M  V30 3393 C 309.408 1.32183 -0.915664 0
M  V30 3394 O 310.598 1.28073 -1.18081 0
M  V30 3395 C 307.73 2.42871 -2.39221 0
M  V30 3396 H 308.923 0.698204 -2.91659 0
M  V30 3397 H 306.476 0.327303 -1.52835 0
M  V30 3398 H 307.211 2.86167 -1.52575 0
M  V30 3399 H 306.996 2.26855 -3.19811 0
M  V30 3400 H 308.486 3.14826 -2.74362 0
M  V30 3401 N 308.923 1.53595 0.353017 0
M  V30 3402 C 309.87 1.80919 1.43308 0
M  V30 3403 C 310.84 0.654288 1.5267 0
M  V30 3404 O 312.025 0.897759 1.6836 0
M  V30 3405 C 309.165 2.01605 2.80089 0
M  V30 3406 C 308.278 3.29321 2.79593 0
M  V30 3407 C 307.413 3.40125 4.0803 0
M  V30 3408 C 306.452 4.61826 4.01725 0
M  V30 3409 N 305.589 4.69716 5.21834 0
M  V30 3410 H 310.429 2.73074 1.19308 0
M  V30 3411 H 307.966 1.35263 0.578131 0
M  V30 3412 H 309.924 2.11586 3.59565 0
M  V30 3413 H 308.554 1.12772 3.0246 0
M  V30 3414 H 307.606 3.28229 1.92276 0
M  V30 3415 H 308.918 4.18884 2.70809 0
M  V30 3416 H 308.072 3.49488 4.95927 0
M  V30 3417 H 306.811 2.48601 4.19582 0
M  V30 3418 H 305.816 4.52552 3.12213 0
M  V30 3419 H 307.041 5.54705 3.91764 0
M  V30 3420 H 304.987 3.81097 5.33948 0
M  V30 3421 H 304.904 5.53202 5.1527 0
M  V30 3422 H 306.172 4.83376 6.11529 0
M  V30 3423 N 310.401 -0.613514 1.45168 0
M  V30 3424 C 311.629 -1.39946 1.5239 0
M  V30 3425 C 312.044 -1.88167 0.154531 0
M  V30 3426 O 311.401 -1.61872 -0.842843 0
M  V30 3427 C 311.452 -2.60795 2.50337 0
M  V30 3428 O 311.173 -2.1458 3.81952 0
M  V30 3429 C 312.674 -3.53723 2.67198 0
M  V30 3430 H 309.894 -0.428593 0.516284 0
M  V30 3431 H 312.438 -0.748753 1.903 0
M  V30 3432 H 310.593 -3.21919 2.15515 0
M  V30 3433 H 311.007 -2.93055 4.34993 0
M  V30 3434 H 312.481 -4.35079 3.39721 0
M  V30 3435 H 312.958 -4.0368 1.73029 0
M  V30 3436 H 313.564 -2.98456 3.02992 0
M  V30 3437 N 311.879 -1.3236 -0.855495 0
M  V30 3438 C 313.127 -1.22629 -1.60644 0
M  V30 3439 C 313.448 0.212136 -1.93843 0
M  V30 3440 O 312.718 1.13666 -1.59552 0
M  V30 3441 H 311.298 -0.450882 -0.595579 0
M  V30 3442 H 313.96 -1.65871 -1.02337 0
M  V30 3443 H 313.056 -1.80832 -2.54374 0
M  V30 3444 N 313.357 1.07166 -1.15556 0
M  V30 3445 C 314.603 1.80222 -0.942961 0
M  V30 3446 C 314.958 1.85121 0.524209 0
M  V30 3447 O 314.251 1.32531 1.38369 0
M  V30 3448 C 314.445 3.24707 -1.49332 0
M  V30 3449 C 314.274 3.33887 -3.01247 0
M  V30 3450 C 313.044 3.44337 -3.69811 0
M  V30 3451 C 315.242 3.24484 -3.99017 0
M  V30 3452 N 313.224 3.42439 -5.09518 0
M  V30 3453 C 314.595 3.29726 -5.25053 0
M  V30 3454 C 316.65 3.08307 -3.90962 0
M  V30 3455 C 315.353 3.20455 -6.43973 0
M  V30 3456 C 317.379 3.00371 -5.09442 0
M  V30 3457 C 316.741 3.06227 -6.34354 0
M  V30 3458 H 312.84 0.672709 -0.398731 0
M  V30 3459 H 315.424 1.27905 -1.46794 0
M  V30 3460 H 313.595 3.7544 -0.994946 0
M  V30 3461 H 315.327 3.85894 -1.21935 0
M  V30 3462 H 312.082 3.48762 -3.20409 0
M  V30 3463 H 312.506 3.45013 -5.8249 0
M  V30 3464 H 317.148 3.02633 -2.95251 0
M  V30 3465 H 314.866 3.24888 -7.39914 0
M  V30 3466 H 318.452 2.88955 -5.04971 0
M  V30 3467 H 317.332 3.00132 -7.24493 0
M  V30 3468 N 314.835 0.952656 1.25548 0
M  V30 3469 C 315.745 0.47782 2.29682 0
M  V30 3470 C 316.761 -0.453859 1.67977 0
M  V30 3471 O 317.937 -0.330587 1.98668 0
M  V30 3472 C 315.002 -0.238655 3.45878 0
M  V30 3473 C 314.063 0.730994 4.23031 0
M  V30 3474 C 313.296 0.0486165 5.33678 0
M  V30 3475 O 313.519 -1.16612 5.58353 0
M  V30 3476 O 312.453 0.733152 5.97418 0
M  V30 3477 H 316.279 1.34312 2.72386 0
M  V30 3478 H 313.864 0.719026 1.30959 0
M  V30 3479 H 315.746 -0.641774 4.16484 0
M  V30 3480 H 314.421 -1.07916 3.05181 0
M  V30 3481 H 313.328 1.18428 3.5486 0
M  V30 3482 H 314.661 1.53946 4.67506 0
M  V30 3483 N 316.313 -1.40141 0.720998 0
M  V30 3484 C 317.561 -2.0039 0.262323 0
M  V30 3485 C 317.882 -1.57469 -1.15015 0
M  V30 3486 O 317.152 -0.816582 -1.78069 0
M  V30 3487 H 315.732 -0.741063 0.093996 0
M  V30 3488 H 318.394 -1.71398 0.927835 0
M  V30 3489 H 317.49 -3.10658 0.299671 0
M  V30 3490 N 317.792 -0.46758 -1.50504 0
M  V30 3491 C 319.208 -0.121533 -1.59137 0
M  V30 3492 C 319.408 1.3717 -1.47603 0
M  V30 3493 O 318.464 2.14464 -1.33272 0
M  V30 3494 C 319.777 -0.6686 -2.93173 0
M  V30 3495 C 321.325 -0.631716 -3.06559 0
M  V30 3496 C 321.8 -1.15627 -4.43164 0
M  V30 3497 N 323.291 -1.11553 -4.49567 0
M  V30 3498 C 324.026 -1.49195 -5.5365 0
M  V30 3499 N 323.522 -1.94269 -6.65005 0
M  V30 3500 N 325.315 -1.4082 -5.44175 0
M  V30 3501 H 317.466 -1.4388 -1.56245 0
M  V30 3502 H 319.729 -0.594784 -0.738198 0
M  V30 3503 H 319.435 -1.71453 -3.07078 0
M  V30 3504 H 319.309 -0.11021 -3.77039 0
M  V30 3505 H 321.696 0.405297 -2.92304 0
M  V30 3506 H 321.777 -1.22687 -2.24458 0
M  V30 3507 H 321.421 -2.1919 -4.58168 0
M  V30 3508 H 321.351 -0.537365 -5.23851 0
M  V30 3509 H 323.842 -0.784895 -3.69659 0
M  V30 3510 H 324.155 -2.21148 -7.40482 0
M  V30 3511 H 322.5 -1.98219 -6.66134 0
M  V30 3512 H 325.691 -1.0545 -4.56068 0
M  V30 3513 H 325.864 -1.70481 -6.25172 0
M  V30 3514 N 319.27 1.56325 -0.20005 0
M  V30 3515 C 320.203 2.15234 0.758267 0
M  V30 3516 C 321.181 1.09046 1.20614 0
M  V30 3517 O 322.365 1.37186 1.29276 0
M  V30 3518 C 319.492 2.71524 2.02466 0
M  V30 3519 C 318.538 3.90345 1.71852 0
M  V30 3520 S 319.371 5.28513 0.862249 0
M  V30 3521 C 320.527 5.88227 2.13868 0
M  V30 3522 H 320.76 2.96183 0.2575 0
M  V30 3523 H 318.293 1.54393 0.0150099 0
M  V30 3524 H 320.251 3.04598 2.75191 0
M  V30 3525 H 318.912 1.90607 2.49655 0
M  V30 3526 H 318.105 4.28158 2.65888 0
M  V30 3527 H 317.707 3.58306 1.07205 0
M  V30 3528 H 319.999 6.02891 3.09076 0
M  V30 3529 H 320.942 6.84714 1.80479 0
M  V30 3530 H 321.35 5.16874 2.2694 0
M  V30 3531 N 320.748 -0.0735177 1.57428 0
M  V30 3532 C 321.996 -0.771472 1.86796 0
M  V30 3533 C 322.317 -1.78201 0.791804 0
M  V30 3534 O 321.587 -1.95074 -0.179718 0
M  V30 3535 H 320.167 -0.28791 0.689287 0
M  V30 3536 H 322.829 -0.0500161 1.94836 0
M  V30 3537 H 321.925 -1.28874 2.8425 0
M  V30 3538 N 322.226 -1.5378 -0.344866 0
M  V30 3539 C 323.472 -1.72158 -1.0832 0
M  V30 3540 C 323.827 -0.478218 -1.86362 0
M  V30 3541 O 323.12 0.529152 -1.84148 0
M  V30 3542 C 323.314 -2.92407 -2.05506 0
M  V30 3543 C 323.143 -4.28318 -1.37017 0
M  V30 3544 C 321.913 -4.92832 -1.11558 0
M  V30 3545 C 324.111 -5.08086 -0.797071 0
M  V30 3546 N 322.093 -6.12619 -0.396358 0
M  V30 3547 C 323.464 -6.1965 -0.208336 0
M  V30 3548 C 325.519 -4.92986 -0.697787 0
M  V30 3549 C 324.222 -7.17763 0.470023 0
M  V30 3550 C 326.248 -5.91391 -0.033171 0
M  V30 3551 C 325.61 -7.02292 0.544599 0
M  V30 3552 H 321.709 -0.683017 -0.380805 0
M  V30 3553 H 324.293 -1.91211 -0.366961 0
M  V30 3554 H 322.464 -2.74857 -2.74423 0
M  V30 3555 H 324.196 -2.9951 -2.72169 0
M  V30 3556 H 320.951 -4.52362 -1.40234 0
M  V30 3557 H 321.375 -6.7698 -0.0515119 0
M  V30 3558 H 326.017 -4.07414 -1.13022 0
M  V30 3559 H 323.735 -8.0291 0.914351 0
M  V30 3560 H 327.321 -5.81784 0.0430009 0
M  V30 3561 H 326.201 -7.77129 1.05073 0
M  V30 3562 N 323.704 0.605807 -1.45491 0
M  V30 3563 C 324.95 1.36481 -1.50813 0
M  V30 3564 C 325.305 1.91826 -0.148469 0
M  V30 3565 O 324.598 1.72211 0.839869 0
M  V30 3566 C 324.792 2.53012 -2.52428 0
M  V30 3567 C 324.621 2.09078 -3.98141 0
M  V30 3568 C 323.391 1.95167 -4.66088 0
M  V30 3569 C 325.589 1.66438 -4.86624 0
M  V30 3570 N 323.571 1.45062 -5.96515 0
M  V30 3571 C 324.942 1.27761 -6.06694 0
M  V30 3572 C 326.997 1.54046 -4.7347 0
M  V30 3573 C 325.7 0.779286 -7.15066 0
M  V30 3574 C 327.726 1.05618 -5.81892 0
M  V30 3575 C 327.088 0.67906 -7.01119 0
M  V30 3576 H 323.187 0.493267 -0.606805 0
M  V30 3577 H 325.771 0.692347 -1.81974 0
M  V30 3578 H 323.942 3.17851 -2.23215 0
M  V30 3579 H 325.674 3.19897 -2.47887 0
M  V30 3580 H 322.429 2.16407 -4.21266 0
M  V30 3581 H 322.853 1.22237 -6.65873 0
M  V30 3582 H 327.495 1.81827 -3.81705 0
M  V30 3583 H 325.213 0.489026 -8.06619 0
M  V30 3584 H 328.799 0.964529 -5.73749 0
M  V30 3585 H 327.679 0.310091 -7.83587 0
M  V30 3586 N 325.182 1.32811 0.848464 0
M  V30 3587 C 326.428 1.23907 1.60546 0
M  V30 3588 C 326.761 -0.197161 1.93197 0
M  V30 3589 O 326.036 -1.13596 1.5788 0
M  V30 3590 C 326.319 2.10489 2.92175 0
M  V30 3591 C 326.172 3.62522 2.66266 0
M  V30 3592 C 327.491 1.97075 3.93509 0
M  V30 3593 H 324.61 0.451459 0.58254 0
M  V30 3594 H 327.252 1.62818 0.979296 0
M  V30 3595 H 325.402 1.77434 3.45614 0
M  V30 3596 H 327.074 4.05821 2.19334 0
M  V30 3597 H 325.317 3.84879 2.00126 0
M  V30 3598 H 325.988 4.18437 3.6002 0
M  V30 3599 H 328.464 2.26045 3.49346 0
M  V30 3600 H 327.34 2.59923 4.83457 0
M  V30 3601 H 327.601 0.940186 4.31987 0
M  V30 3602 N 326.66 -1.06551 1.16123 0
M  V30 3603 C 327.908 -1.78947 0.939267 0
M  V30 3604 C 328.229 -1.87532 -0.534476 0
M  V30 3605 O 327.499 -1.38211 -1.38833 0
M  V30 3606 H 326.079 -0.662807 0.344523 0
M  V30 3607 H 328.741 -1.28725 1.46342 0
M  V30 3608 H 327.837 -2.81117 1.35572 0
M  V30 3609 N 328.138 -0.959301 -1.25041 0
M  V30 3610 C 329.384 -0.627096 -1.93492 0
M  V30 3611 C 329.739 0.827484 -1.73696 0
M  V30 3612 O 329.032 1.58651 -1.07427 0
M  V30 3613 C 329.226 -0.927136 -3.45165 0
M  V30 3614 C 329.055 -2.40933 -3.79712 0
M  V30 3615 C 327.825 -3.0677 -4.01522 0
M  V30 3616 C 330.023 -3.38894 -3.86853 0
M  V30 3617 N 328.005 -4.44815 -4.231 0
M  V30 3618 C 329.376 -4.62263 -4.13174 0
M  V30 3619 C 331.431 -3.33668 -3.69554 0
M  V30 3620 C 330.134 -5.81052 -4.23995 0
M  V30 3621 C 332.16 -4.518 -3.81616 0
M  V30 3622 C 331.522 -5.73957 -4.08354 0
M  V30 3623 H 327.621 -0.280166 -0.73009 0
M  V30 3624 H 330.205 -1.23244 -1.50729 0
M  V30 3625 H 328.376 -0.350685 -3.86814 0
M  V30 3626 H 330.108 -0.554361 -4.00885 0
M  V30 3627 H 326.863 -2.57327 -3.97593 0
M  V30 3628 H 327.287 -5.16319 -4.37885 0
M  V30 3629 H 331.929 -2.40268 -3.47895 0
M  V30 3630 H 329.647 -6.74888 -4.44468 0
M  V30 3631 H 333.233 -4.49309 -3.69612 0
M  V30 3632 H 332.113 -6.6384 -4.17475 0
M  V30 3633 N 329.616 1.39756 -0.72842 0
M  V30 3634 C 330.862 2.00942 -0.273892 0
M  V30 3635 C 331.195 1.57656 1.13394 0
M  V30 3636 O 330.47 0.802434 1.77176 0
M  V30 3637 C 330.753 3.58211 -0.368346 0
M  V30 3638 C 330.606 4.11534 -1.81548 0
M  V30 3639 C 331.925 4.39372 0.253054 0
M  V30 3640 H 329.044 0.730047 -0.100996 0
M  V30 3641 H 331.686 1.66056 -0.923337 0
M  V30 3642 H 329.836 3.88061 0.184588 0
M  V30 3643 H 331.508 3.92431 -2.42478 0
M  V30 3644 H 329.751 3.65341 -2.33898 0
M  V30 3645 H 330.422 5.20682 -1.83288 0
M  V30 3646 H 332.898 4.15527 -0.218224 0
M  V30 3647 H 331.774 5.48677 0.156585 0
M  V30 3648 H 332.035 4.21358 1.33826 0
M  V30 3649 N 331.094 0.475555 1.50254 0
M  V30 3650 C 332.004 -0.321501 2.32387 0
M  V30 3651 C 333.02 -0.991755 1.42969 0
M  V30 3652 O 334.196 -0.978747 1.76018 0
M  V30 3653 C 331.261 -1.38667 3.17762 0
M  V30 3654 C 330.322 -0.732538 4.23004 0
M  V30 3655 C 329.555 -1.74695 5.04299 0
M  V30 3656 O 329.778 -2.97399 4.86734 0
M  V30 3657 O 328.712 -1.31631 5.8733 0
M  V30 3658 H 332.538 0.350071 3.01676 0
M  V30 3659 H 330.123 0.237321 1.47503 0
M  V30 3660 H 332.005 -2.00354 3.70724 0
M  V30 3661 H 330.68 -2.04163 2.51196 0
M  V30 3662 H 329.587 -0.0765902 3.74022 0
M  V30 3663 H 330.92 -0.120452 4.92053 0
M  V30 3664 N 332.573 -1.56217 0.208337 0
M  V30 3665 C 333.819 -1.98998 -0.42086 0
M  V30 3666 C 334.174 -1.09331 -1.58317 0
M  V30 3667 O 333.467 -0.140466 -1.91084 0
M  V30 3668 C 333.661 -3.45441 -0.916797 0
M  V30 3669 C 333.49 -4.49273 0.195925 0
M  V30 3670 C 332.26 -5.00998 0.657956 0
M  V30 3671 C 334.458 -5.04294 1.00956 0
M  V30 3672 N 332.44 -5.88514 1.74712 0
M  V30 3673 C 333.811 -5.88607 1.94785 0
M  V30 3674 C 335.866 -4.86692 1.05049 0
M  V30 3675 C 334.569 -6.572 2.9237 0
M  V30 3676 C 336.595 -5.56034 2.01446 0
M  V30 3677 C 335.957 -6.40105 2.94016 0
M  V30 3678 H 332.056 -0.772574 -0.121048 0
M  V30 3679 H 334.64 -1.92101 0.317075 0
M  V30 3680 H 332.811 -3.52812 -1.62413 0
M  V30 3681 H 334.543 -3.75164 -1.51771 0
M  V30 3682 H 331.298 -4.72945 0.248912 0
M  V30 3683 H 331.722 -6.36975 2.2933 0
M  V30 3684 H 336.364 -4.21359 0.348759 0
M  V30 3685 H 334.082 -7.21723 3.63512 0
M  V30 3686 H 337.668 -5.44385 2.0527 0
M  V30 3687 H 336.548 -6.92816 3.6739 0
M  V30 3688 N 334.051 0.0651679 -1.57465 0
M  V30 3689 C 335.462 0.616213 -1.76238 0
M  V30 3690 C 335.813 1.7756 -0.834689 0
M  V30 3691 O 334.938 2.1639 -0.0204156 0
M  V30 3692 C 335.533 1.12462 -3.1959 0
M  V30 3693 C 334.092 1.62147 -3.39684 0
M  V30 3694 C 333.239 0.543739 -2.71917 0
M  V30 3695 H 336.19 -0.161022 -1.57881 0
M  V30 3696 H 336.211 1.99324 -3.24114 0
M  V30 3697 H 335.723 0.280592 -3.87084 0
M  V30 3698 H 333.824 2.48854 -2.77313 0
M  V30 3699 H 333.937 1.69385 -4.48158 0
M  V30 3700 H 332.301 0.990352 -2.34657 0
M  V30 3701 H 333.084 -0.290216 -3.42071 0
M  V30 3702 N 335.529 1.53961 0.336706 0
M  V30 3703 C 336.757 1.75483 1.09605 0
M  V30 3704 C 337.172 0.4972 1.82136 0
M  V30 3705 O 336.529 -0.53149 1.74589 0
M  V30 3706 C 336.58 2.93943 2.10428 0
M  V30 3707 O 336.301 4.14842 1.40846 0
M  V30 3708 C 337.802 3.27571 2.98684 0
M  V30 3709 H 335.022 0.586166 0.326574 0
M  V30 3710 H 337.566 2.00808 0.38683 0
M  V30 3711 H 335.721 2.70929 2.76905 0
M  V30 3712 H 336.135 4.81383 2.08255 0
M  V30 3713 H 337.609 4.13791 3.6535 0
M  V30 3714 H 338.086 2.44168 3.65074 0
M  V30 3715 H 338.692 3.52615 2.37787 0
M  V30 3716 N 337.007 -0.598083 1.45811 0
M  V30 3717 C 338.255 -1.35413 1.50026 0
M  V30 3718 C 338.576 -1.94444 0.147177 0
M  V30 3719 O 337.846 -1.77701 -0.824571 0
M  V30 3720 H 336.426 -0.502727 0.552517 0
M  V30 3721 H 339.088 -0.701606 1.81834 0
M  V30 3722 H 338.184 -2.16871 2.2444 0
M  V30 3723 N 338.485 -1.33259 -0.841409 0
M  V30 3724 C 339.71 -1.2775 -1.63385 0
M  V30 3725 C 340.135 0.149188 -1.87507 0
M  V30 3726 O 339.493 1.10498 -1.43736 0
M  V30 3727 C 339.541 -2.05571 -2.96265 0
M  V30 3728 O 338.645 -1.41257 -3.87453 0
M  V30 3729 H 337.986 -0.439627 -0.497618 0
M  V30 3730 H 340.516 -1.75782 -1.04699 0
M  V30 3731 H 340.526 -2.16241 -3.45982 0
M  V30 3732 H 339.201 -3.09309 -2.7803 0
M  V30 3733 H 337.778 -1.39217 -3.45938 0
M  V30 3734 N 339.963 1.05934 -1.16686 0
M  V30 3735 C 341.209 1.79065 -0.95203 0
M  V30 3736 C 341.542 1.87147 0.518629 0
M  V30 3737 O 340.817 1.36574 1.38484 0
M  V30 3738 C 341.1 3.23359 -1.58464 0
M  V30 3739 C 340.953 3.23336 -3.12689 0
M  V30 3740 C 342.272 4.21004 -1.28232 0
M  V30 3741 H 339.391 0.65005 -0.34728 0
M  V30 3742 H 342.033 1.23868 -1.44072 0
M  V30 3743 H 340.183 3.70493 -1.16908 0
M  V30 3744 H 341.855 2.84336 -3.6325 0
M  V30 3745 H 340.098 2.61886 -3.4583 0
M  V30 3746 H 340.769 4.25144 -3.52075 0
M  V30 3747 H 343.245 3.8233 -1.64203 0
M  V30 3748 H 342.121 5.20225 -1.75092 0
M  V30 3749 H 342.382 4.41639 -0.201791 0
M  V30 3750 N 341.441 0.965919 1.2453 0
M  V30 3751 C 342.688 0.626831 1.92554 0
M  V30 3752 C 343.016 -0.837739 1.75534 0
M  V30 3753 O 342.271 -1.61793 1.10098 0
M  V30 3754 C 342.57 0.945428 3.44669 0
M  V30 3755 C 342.236 2.39785 3.81856 0
M  V30 3756 C 340.898 2.79483 3.91718 0
M  V30 3757 C 343.25 3.34055 4.00071 0
M  V30 3758 C 340.578 4.12496 4.1721 0
M  V30 3759 C 342.93 4.66694 4.27059 0
M  V30 3760 C 341.594 5.06172 4.3514 0
M  V30 3761 H 340.864 0.229374 0.704605 0
M  V30 3762 H 343.511 1.21707 1.4785 0
M  V30 3763 H 341.816 0.272926 3.90848 0
M  V30 3764 H 343.513 0.661484 3.95507 0
M  V30 3765 H 340.103 2.08003 3.74743 0
M  V30 3766 H 344.287 3.04571 3.91855 0
M  V30 3767 H 339.543 4.42709 4.21685 0
M  V30 3768 H 343.717 5.3971 4.40097 0
M  V30 3769 H 341.344 6.09262 4.54646 0
M  V30 3770 N 342.919 -1.39368 0.735821 0
M  V30 3771 C 344.166 -2.00497 0.284123 0
M  V30 3772 C 344.494 -1.58387 -1.12889 0
M  V30 3773 O 343.749 -0.804359 -1.78406 0
M  V30 3774 C 344.048 -3.5583 0.334651 0
M  V30 3775 C 343.714 -4.17593 1.7008 0
M  V30 3776 C 342.376 -4.34176 2.07472 0
M  V30 3777 C 344.728 -4.51848 2.59775 0
M  V30 3778 C 342.056 -4.82304 3.34065 0
M  V30 3779 C 344.408 -5.01384 3.85741 0
M  V30 3780 C 343.072 -5.16175 4.23225 0
M  V30 3781 H 342.342 -0.73367 0.103968 0
M  V30 3782 H 344.989 -1.66683 0.942825 0
M  V30 3783 H 343.294 -3.89674 -0.407625 0
M  V30 3784 H 344.991 -4.00986 -0.0329927 0
M  V30 3785 H 341.581 -4.05087 1.40008 0
M  V30 3786 H 345.765 -4.38653 2.32157 0
M  V30 3787 H 341.021 -4.91941 3.63049 0
M  V30 3788 H 345.195 -5.26863 4.55399 0
M  V30 3789 H 342.822 -5.5323 5.21384 0
M  V30 3790 N 344.397 -0.483516 -1.5 0
M  V30 3791 C 345.36 0.292965 -2.2732 0
M  V30 3792 C 346.36 0.909499 -1.32608 0
M  V30 3793 O 347.55 0.776745 -1.55924 0
M  V30 3794 C 344.682 1.41854 -3.09984 0
M  V30 3795 H 345.875 -0.385289 -2.97415 0
M  V30 3796 H 343.428 -0.237942 -1.54478 0
M  V30 3797 H 344.163 2.13148 -2.44414 0
M  V30 3798 H 343.948 0.982114 -3.79601 0
M  V30 3799 H 345.438 1.96597 -3.68429 0
M  V30 3800 N 345.875 1.56104 -0.216619 0
M  V30 3801 C 346.805 2.23063 0.690296 0
M  V30 3802 C 347.786 1.20072 1.20485 0
M  V30 3803 O 348.971 1.48643 1.24976 0
M  V30 3804 C 346.101 2.90672 1.90072 0
M  V30 3805 C 345.055 4.00092 1.5202 0
M  V30 3806 C 344.381 4.54972 2.80899 0
M  V30 3807 C 345.681 5.17398 0.71391 0
M  V30 3808 H 347.375 2.99109 0.132038 0
M  V30 3809 H 344.921 1.43866 0.0620664 0
M  V30 3810 H 346.874 3.36204 2.54057 0
M  V30 3811 H 345.598 2.12066 2.48386 0
M  V30 3812 H 344.257 3.55283 0.903839 0
M  V30 3813 H 343.905 3.73102 3.37348 0
M  V30 3814 H 343.605 5.28817 2.56176 0
M  V30 3815 H 345.129 5.0322 3.45836 0
M  V30 3816 H 346.543 5.59342 1.25735 0
M  V30 3817 H 344.94 5.97444 0.563951 0
M  V30 3818 H 346.01 4.84088 -0.280527 0
M  V30 3819 N 347.353 -0.0568162 1.57498 0
M  V30 3820 C 348.301 -1.08452 2.05769 0
M  V30 3821 C 349.295 -1.39164 0.965903 0
M  V30 3822 O 350.501 -1.38395 1.15095 0
M  V30 3823 H 346.876 -0.367148 0.656282 0
M  V30 3824 H 348.847 -0.651368 2.91204 0
M  V30 3825 C 347.596 -2.38543 2.52968 0
M  V30 3826 H 346.919 -2.15765 3.36579 0
M  V30 3827 H 348.359 -3.08863 2.90481 0
M  V30 3828 C 346.818 -3.05562 1.41893 0
M  V30 3829 O 347.348 -3.94262 0.769442 0
M  V30 3830 N 345.554 -2.6643 1.16032 0
M  V30 3831 H 345.101 -1.94387 1.6903 0
M  V30 3832 H 345.059 -3.11593 0.419219 0
M  V30 3833 N 348.832 -1.54138 -0.328536 0
M  V30 3834 C 350.081 -1.71318 -1.06456 0
M  V30 3835 C 350.394 -0.491109 -1.89334 0
M  V30 3836 O 351.6 -0.54416 -2.65991 0
M  V30 3837 C 350.056 -3.03 -1.94214 0
M  V30 3838 C 349.664 -4.32595 -1.16471 0
M  V30 3839 C 351.408 -3.29544 -2.67583 0
M  V30 3840 C 349.315 -5.55341 -2.03347 0
M  V30 3841 H 348.245 -0.638429 -0.401155 0
M  V30 3842 H 350.896 -1.80633 -0.323106 0
M  V30 3843 H 349.278 -2.87579 -2.72239 0
M  V30 3844 H 350.452 -4.58766 -0.432525 0
M  V30 3845 H 348.767 -4.12777 -0.548063 0
M  V30 3846 H 351.364 -4.18444 -3.3288 0
M  V30 3847 H 351.707 -2.47206 -3.34955 0
M  V30 3848 H 352.24 -3.45809 -1.96623 0
M  V30 3849 H 348.979 -6.40268 -1.40491 0
M  V30 3850 H 348.499 -5.33397 -2.74313 0
M  V30 3851 H 350.178 -5.91557 -2.62049 0
M  V30 3852 N 350.31 0.590341 -1.46126 0
M  V30 3853 C 351.587 1.35029 -1.41515 0
M  V30 3854 C 351.967 2.10888 -0.0946472 0
M  V30 3855 O 351.315 2.08998 0.923693 0
M  V30 3856 C 351.525 2.28269 -2.63997 0
M  V30 3857 C 352.873 2.90338 -3.09821 0
M  V30 3858 O 353.897 2.38585 -2.64492 0
M  V30 3859 O 352.756 3.84321 -3.88535 0
M  V30 3860 H 349.85 0.606317 -0.562413 0
M  V30 3861 H 352.396 0.611994 -1.58281 0
M  V30 3862 H 351.168 1.71591 -3.51671 0
M  V30 3863 H 350.791 3.0945 -2.49652 0
M  V30 3864 N 351.788 1.33704 0.83433 0
M  V30 3865 C 353.016 1.28467 1.62185 0
M  V30 3866 C 353.431 -0.143526 1.88254 0
M  V30 3867 O 352.788 -1.08709 1.4659 0
M  V30 3868 C 352.839 2.06174 2.96942 0
M  V30 3869 O 352.56 3.43422 2.72016 0
M  V30 3870 C 354.061 2.08201 3.91366 0
M  V30 3871 H 351.281 0.4424 0.504503 0
M  V30 3872 H 353.825 1.76145 1.03891 0
M  V30 3873 H 351.98 1.62167 3.51825 0
M  V30 3874 H 352.394 3.83453 3.57861 0
M  V30 3875 H 353.868 2.67017 4.83121 0
M  V30 3876 H 354.345 1.07343 4.2588 0
M  V30 3877 H 354.951 2.52246 3.42421 0
M  V30 3878 N 353.266 -1.05314 1.17247 0
M  V30 3879 C 354.677 -1.59753 0.96623 0
M  V30 3880 C 355.028 -1.9005 -0.487378 0
M  V30 3881 O 354.153 -1.68126 -1.36245 0
M  V30 3882 C 354.748 -2.90249 1.74759 0
M  V30 3883 C 353.307 -3.41352 1.58606 0
M  V30 3884 C 352.454 -2.15103 1.75002 0
M  V30 3885 H 355.405 -0.881406 1.31973 0
M  V30 3886 H 355.426 -3.60097 1.22925 0
M  V30 3887 H 354.938 -2.68166 2.8055 0
M  V30 3888 H 353.039 -3.68474 0.552985 0
M  V30 3889 H 353.152 -4.16019 2.37624 0
M  V30 3890 H 351.516 -2.25804 1.17833 0
M  V30 3891 H 352.299 -1.95491 2.82202 0
M  V30 3892 N 354.744 -0.972509 -1.24016 0
M  V30 3893 C 355.692 -0.498562 -2.27194 0
M  V30 3894 C 356.686 0.440372 -1.63576 0
M  V30 3895 O 357.892 0.315133 -1.7722 0
M  V30 3896 H 354.267 -0.142775 -0.738322 0
M  V30 3897 H 356.238 -1.38065 -2.64539 0
M  V30 3898 C 354.987 0.191072 -3.47175 0
M  V30 3899 H 354.31 -0.522318 -3.96373 0
M  V30 3900 H 355.75 0.486445 -4.212 0
M  V30 3901 C 354.209 1.41967 -3.05527 0
M  V30 3902 O 354.739 2.51642 -3.13112 0
M  V30 3903 N 352.945 1.28746 -2.60524 0
M  V30 3904 H 352.492 0.395089 -2.54552 0
M  V30 3905 H 352.45 2.11061 -2.33025 0
M  V30 3906 N 356.222 1.38976 -0.743202 0
M  V30 3907 C 357.638 1.53984 -0.419664 0
M  V30 3908 C 357.838 1.70837 1.0685 0
M  V30 3909 O 356.894 1.7135 1.8546 0
M  V30 3910 C 358.207 2.75287 -1.20985 0
M  V30 3911 C 359.755 2.89129 -1.19889 0
M  V30 3912 C 360.23 4.13381 -1.97181 0
M  V30 3913 N 361.721 4.20437 -1.94389 0
M  V30 3914 C 362.456 5.15547 -2.50996 0
M  V30 3915 N 361.952 6.16395 -3.16274 0
M  V30 3916 N 363.745 5.07822 -2.40984 0
M  V30 3917 H 355.896 1.26285 -1.7078 0
M  V30 3918 H 358.159 0.612689 -0.723406 0
M  V30 3919 H 357.865 2.69204 -2.26323 0
M  V30 3920 H 357.739 3.68184 -0.819759 0
M  V30 3921 H 360.126 2.947 -0.153606 0
M  V30 3922 H 360.207 1.97272 -1.62841 0
M  V30 3923 H 359.851 4.08572 -3.01714 0
M  V30 3924 H 359.781 5.04298 -1.51629 0
M  V30 3925 H 362.272 3.48205 -1.46839 0
M  V30 3926 H 362.585 6.85443 -3.56915 0
M  V30 3927 H 360.93 6.16758 -3.20367 0
M  V30 3928 H 364.121 4.27973 -1.89622 0
M  V30 3929 H 364.294 5.81767 -2.85397 0
M  V30 3930 N 357.7 0.491464 1.49741 0
M  V30 3931 C 358.633 -0.338464 2.25676 0
M  V30 3932 C 359.611 -0.978676 1.29849 0
M  V30 3933 O 360.795 -1.01064 1.59117 0
M  V30 3934 C 357.922 -1.47588 3.04853 0
M  V30 3935 C 356.968 -0.951 4.15762 0
M  V30 3936 S 357.801 0.150626 5.35288 0
M  V30 3937 C 358.957 -0.990178 6.18018 0
M  V30 3938 H 359.19 0.306068 2.9572 0
M  V30 3939 H 356.723 0.276622 1.51902 0
M  V30 3940 H 358.681 -2.12764 3.51058 0
M  V30 3941 H 357.342 -2.09199 2.34296 0
M  V30 3942 H 356.535 -1.80311 4.70642 0
M  V30 3943 H 356.137 -0.376607 3.72099 0
M  V30 3944 H 358.429 -1.89748 6.50386 0
M  V30 3945 H 359.372 -0.480205 7.0647 0
M  V30 3946 H 359.78 -1.25321 5.50413 0
M  V30 3947 N 359.178 -1.55987 0.224894 0
M  V30 3948 C 360.455 -1.90232 -0.455083 0
M  V30 3949 C 360.835 -1.14269 -1.77499 0
M  V30 3950 O 360.183 -0.253079 -2.27094 0
M  V30 3951 C 360.393 -3.42993 -0.644758 0
M  V30 3952 C 361.741 -4.13821 -0.950669 0
M  V30 3953 O 362.765 -3.4861 -0.731423 0
M  V30 3954 O 361.624 -5.29128 -1.36695 0
M  V30 3955 H 358.718 -0.79108 -0.241084 0
M  V30 3956 H 361.264 -1.67581 0.267327 0
M  V30 3957 H 360.036 -3.90252 0.28613 0
M  V30 3958 H 359.659 -3.71434 -1.41853 0
M  V30 3959 N 360.656 0.0484629 -1.57525 0
M  V30 3960 C 361.933 0.777447 -1.79486 0
M  V30 3961 C 362.313 1.94597 -0.818251 0
M  V30 3962 O 361.661 2.28047 0.143767 0
M  V30 3963 C 361.871 1.22864 -3.26658 0
M  V30 3964 C 363.219 1.65251 -3.91123 0
M  V30 3965 O 364.243 1.32372 -3.3069 0
M  V30 3966 O 363.102 2.26207 -4.97486 0
M  V30 3967 H 360.196 0.374357 -0.737419 0
M  V30 3968 H 362.742 0.0267359 -1.69679 0
M  V30 3969 H 361.514 0.393589 -3.89316 0
M  V30 3970 H 361.137 2.03996 -3.41279 0
M  V30 3971 N 362.134 1.5431 0.320358 0
M  V30 3972 C 363.064 1.86912 1.3995 0
M  V30 3973 C 364.045 0.726211 1.53819 0
M  V30 3974 O 365.23 0.980233 1.67646 0
M  V30 3975 C 362.36 2.09932 2.7667 0
M  V30 3976 C 361.314 3.25776 2.77586 0
M  V30 3977 C 360.64 3.34173 4.17412 0
M  V30 3978 C 361.94 4.6335 2.41048 0
M  V30 3979 H 363.634 2.77292 1.12914 0
M  V30 3980 H 361.18 1.33421 0.541738 0
M  V30 3981 H 363.133 2.31324 3.52232 0
M  V30 3982 H 361.857 1.16304 3.0519 0
M  V30 3983 H 360.516 3.04276 2.04479 0
M  V30 3984 H 360.164 2.38098 4.43078 0
M  V30 3985 H 359.864 4.12033 4.18931 0
M  V30 3986 H 361.388 3.57803 4.94782 0
M  V30 3987 H 362.802 4.84602 3.06324 0
M  V30 3988 H 361.199 5.43782 2.53813 0
M  V30 3989 H 362.269 4.65381 1.36193 0
M  V30 3990 N 363.613 -0.582584 1.46437 0
M  V30 3991 C 364.86 -1.34079 1.51753 0
M  V30 3992 C 365.188 -1.93762 0.169299 0
M  V30 3993 O 364.443 -1.76989 -0.835062 0
M  V30 3994 C 364.742 -2.48964 2.56421 0
M  V30 3995 C 364.408 -2.07273 4.00436 0
M  V30 3996 C 363.07 -1.95618 4.39644 0
M  V30 3997 C 365.422 -1.75111 4.90903 0
M  V30 3998 C 362.75 -1.5006 5.67185 0
M  V30 3999 C 365.102 -1.31032 6.18881 0
M  V30 4000 C 363.766 -1.17954 6.56996 0
M  V30 4001 H 363.036 -0.49063 0.555304 0
M  V30 4002 H 365.683 -0.656007 1.79913 0
M  V30 4003 H 363.988 -3.22889 2.21923 0
M  V30 4004 H 365.685 -3.07178 2.57765 0
M  V30 4005 H 362.275 -2.17279 3.69443 0
M  V30 4006 H 366.459 -1.83001 4.61329 0
M  V30 4007 H 361.715 -1.38577 5.95488 0
M  V30 4008 H 365.889 -1.052 6.88408 0
M  V30 4009 H 363.516 -0.824279 7.55718 0
M  V30 4010 N 365.091 -1.34144 -0.827227 0
M  V30 4011 C 366.038 -1.25364 -1.93785 0
M  V30 4012 C 367.008 -0.129774 -1.65592 0
M  V30 4013 O 368.193 -0.310024 -1.88264 0
M  V30 4014 C 365.333 -1.01064 -3.2997 0
M  V30 4015 C 364.446 -2.22185 -3.70484 0
M  V30 4016 C 363.581 -1.91203 -4.95595 0
M  V30 4017 C 362.62 -3.08491 -5.28677 0
M  V30 4018 N 361.757 -2.77421 -6.44967 0
M  V30 4019 H 366.597 -2.20347 -2.00627 0
M  V30 4020 H 364.134 -1.09558 -0.981608 0
M  V30 4021 H 366.092 -0.850139 -4.08446 0
M  V30 4022 H 364.722 -0.0975026 -3.22653 0
M  V30 4023 H 363.774 -2.4917 -2.87434 0
M  V30 4024 H 365.086 -3.0983 -3.90905 0
M  V30 4025 H 364.24 -1.71864 -5.81848 0
M  V30 4026 H 362.979 -1.00812 -4.77167 0
M  V30 4027 H 361.984 -3.28431 -4.40923 0
M  V30 4028 H 363.209 -3.99655 -5.49047 0
M  V30 4029 H 361.155 -1.89601 -6.28003 0
M  V30 4030 H 361.072 -3.58598 -6.6554 0
M  V30 4031 H 362.34 -2.61577 -7.34301 0
M  V30 4032 N 366.569 1.04691 -1.17803 0
M  V30 4033 C 367.985 1.29963 -0.926379 0
M  V30 4034 C 368.185 1.97251 0.411635 0
M  V30 4035 O 367.241 2.24922 1.14744 0
M  V30 4036 C 368.554 2.16447 -2.08737 0
M  V30 4037 C 370.102 2.29814 -2.12496 0
M  V30 4038 C 370.577 3.19661 -3.27995 0
M  V30 4039 N 372.068 3.27247 -3.27816 0
M  V30 4040 C 372.803 3.96906 -4.13827 0
M  V30 4041 N 372.299 4.6895 -5.09959 0
M  V30 4042 N 374.092 3.93122 -4.01761 0
M  V30 4043 H 366.243 0.594182 -2.0392 0
M  V30 4044 H 368.506 0.324649 -0.890678 0
M  V30 4045 H 368.212 1.74304 -3.05469 0
M  V30 4046 H 368.086 3.17103 -2.04268 0
M  V30 4047 H 370.473 2.71196 -1.16347 0
M  V30 4048 H 370.554 1.2877 -2.21025 0
M  V30 4049 H 370.198 2.78991 -4.24413 0
M  V30 4050 H 370.128 4.20722 -3.16703 0
M  V30 4051 H 372.619 2.75921 -2.58217 0
M  V30 4052 H 372.932 5.19679 -5.71974 0
M  V30 4053 H 371.277 4.67875 -5.13924 0
M  V30 4054 H 374.468 3.35967 -3.2595 0
M  V30 4055 H 374.641 4.47139 -4.6901 0
M  V30 4056 N 368.047 0.979072 1.23499 0
M  V30 4057 C 368.957 0.526431 2.28617 0
M  V30 4058 C 369.973 -0.418126 1.68901 0
M  V30 4059 O 371.149 -0.288372 1.99325 0
M  V30 4060 C 368.214 -0.165235 3.46306 0
M  V30 4061 C 367.275 0.82056 4.21385 0
M  V30 4062 C 366.508 0.161807 5.33455 0
M  V30 4063 O 366.731 -1.04742 5.60701 0
M  V30 4064 O 365.665 0.859708 5.95729 0
M  V30 4065 H 369.491 1.4006 2.69475 0
M  V30 4066 H 367.076 0.746643 1.29405 0
M  V30 4067 H 368.958 -0.553287 4.17752 0
M  V30 4068 H 367.633 -1.01419 3.07402 0
M  V30 4069 H 366.54 1.25929 3.52268 0
M  V30 4070 H 367.873 1.63828 4.64135 0
M  V30 4071 N 369.525 -1.3858 0.750561 0
M  V30 4072 C 370.488 -2.28836 0.129152 0
M  V30 4073 C 371.488 -1.47045 -0.650714 0
M  V30 4074 O 372.678 -1.6753 -0.477428 0
M  V30 4075 C 369.81 -3.30751 -0.825622 0
M  V30 4076 H 371.003 -2.85294 0.924516 0
M  V30 4077 H 368.556 -1.47489 0.517376 0
M  V30 4078 H 369.291 -2.79378 -1.64677 0
M  V30 4079 H 369.076 -3.91177 -0.268852 0
M  V30 4080 H 370.566 -3.98249 -1.2565 0
M  V30 4081 N 371.003 -0.499398 -1.49478 0
M  V30 4082 C 372.252 0.0475259 -2.01644 0
M  V30 4083 C 372.565 1.38195 -1.38425 0
M  V30 4084 O 373.771 2.01547 -1.8191 0
M  V30 4085 C 372.227 0.135164 -3.59646 0
M  V30 4086 C 371.835 -1.19252 -4.31837 0
M  V30 4087 C 373.579 0.632538 -4.19761 0
M  V30 4088 C 371.486 -1.06713 -5.81693 0
M  V30 4089 H 370.416 0.0215349 -0.753692 0
M  V30 4090 H 373.067 -0.638577 -1.7203 0
M  V30 4091 H 371.449 0.885681 -3.85969 0
M  V30 4092 H 372.623 -1.9562 -4.17216 0
M  V30 4093 H 370.938 -1.62321 -3.83459 0
M  V30 4094 H 373.535 0.743833 -5.29501 0
M  V30 4095 H 373.878 1.63098 -3.83021 0
M  V30 4096 H 374.411 -0.0613987 -3.97753 0
M  V30 4097 H 371.15 -2.03979 -6.22955 0
M  V30 4098 H 370.67 -0.344307 -5.98811 0
M  V30 4099 H 372.349 -0.745208 -6.42694 0
M  V30 4100 N 372.481 1.55866 -0.233164 0
M  V30 4101 C 373.727 1.98897 0.395959 0
M  V30 4102 C 374.06 1.12091 1.58585 0
M  V30 4103 O 373.335 0.181182 1.93654 0
M  V30 4104 C 373.618 3.50658 0.819224 0
M  V30 4105 C 373.471 4.48233 -0.375109 0
M  V30 4106 C 374.79 4.07135 1.67121 0
M  V30 4107 H 371.909 0.723102 0.142451 0
M  V30 4108 H 374.551 1.87082 -0.331725 0
M  V30 4109 H 372.701 3.60857 1.43925 0
M  V30 4110 H 374.373 4.50031 -1.01341 0
M  V30 4111 H 372.616 4.21624 -1.02058 0
M  V30 4112 H 373.287 5.51988 -0.0358328 0
M  V30 4113 H 375.763 3.99952 1.14795 0
M  V30 4114 H 374.639 5.13615 1.93625 0
M  V30 4115 H 374.9 3.54736 2.63846 0
M  V30 4116 N 373.959 -0.0401083 1.57549 0
M  V30 4117 C 375.375 -0.395556 1.54621 0
M  V30 4118 C 375.575 -1.77281 0.957799 0
M  V30 4119 O 374.631 -2.45888 0.574031 0
M  V30 4120 C 375.944 -0.307535 2.99123 0
M  V30 4121 C 377.492 -0.385425 3.10618 0
M  V30 4122 C 377.967 -0.326973 4.56831 0
M  V30 4123 N 379.458 -0.386102 4.61588 0
M  V30 4124 C 380.193 -0.363591 5.72246 0
M  V30 4125 N 379.689 -0.29402 6.92176 0
M  V30 4126 N 381.482 -0.412503 5.60584 0
M  V30 4127 H 373.633 0.861325 1.94152 0
M  V30 4128 H 375.896 0.326445 0.890021 0
M  V30 4129 H 375.602 0.638461 3.45856 0
M  V30 4130 H 375.476 -1.10552 3.60636 0
M  V30 4131 H 377.863 -1.32185 2.63839 0
M  V30 4132 H 377.944 0.44171 2.51957 0
M  V30 4133 H 377.588 0.605738 5.04275 0
M  V30 4134 H 377.518 -1.17207 5.13391 0
M  V30 4135 H 380.009 -0.442832 3.75296 0
M  V30 4136 H 380.322 -0.28164 7.72287 0
M  V30 4137 H 378.667 -0.260232 6.94513 0
M  V30 4138 H 381.858 -0.464769 4.65787 0
M  V30 4139 H 382.031 -0.391492 6.46816 0
M  V30 4140 N 375.437 -1.54477 -0.31217 0
M  V30 4141 C 376.4 -1.83923 -1.36766 0
M  V30 4142 C 377.4 -0.711563 -1.44199 0
M  V30 4143 O 378.59 -0.979866 -1.44029 0
M  V30 4144 C 375.722 -2.0095 -2.75376 0
M  V30 4145 H 376.915 -2.78239 -1.11906 0
M  V30 4146 H 374.468 -1.46369 -0.548257 0
M  V30 4147 H 375.203 -1.08883 -3.05475 0
M  V30 4148 H 374.988 -2.83018 -2.71373 0
M  V30 4149 H 376.478 -2.2514 -3.51713 0
M  V30 4150 N 376.915 0.57481 -1.46744 0
M  V30 4151 C 378.164 1.32898 -1.51727 0
M  V30 4152 C 378.477 1.948 -0.176692 0
M  V30 4153 O 379.683 2.71299 -0.104385 0
M  V30 4154 C 378.139 2.40901 -2.67385 0
M  V30 4155 C 377.747 1.85266 -4.07898 0
M  V30 4156 C 379.491 3.17609 -2.81646 0
M  V30 4157 C 377.398 2.90945 -5.14883 0
M  V30 4158 H 376.328 0.499631 -0.564699 0
M  V30 4159 H 378.979 0.612536 -1.72975 0
M  V30 4160 H 377.361 3.15379 -2.39483 0
M  V30 4161 H 378.535 1.17278 -4.45626 0
M  V30 4162 H 376.85 1.21199 -3.98371 0
M  V30 4163 H 379.447 3.96493 -3.58744 0
M  V30 4164 H 379.79 3.70696 -1.89448 0
M  V30 4165 H 380.323 2.50239 -3.09233 0
M  V30 4166 H 377.062 2.42736 -6.089 0
M  V30 4167 H 376.582 3.57398 -4.81691 0
M  V30 4168 H 378.261 3.54755 -5.41071 0
M  V30 4169 N 378.394 1.34581 0.820102 0
M  V30 4170 C 379.324 1.29038 1.94606 0
M  V30 4171 C 380.305 0.1673 1.69275 0
M  V30 4172 O 381.49 0.360112 1.90832 0
M  V30 4173 C 378.62 1.04793 3.31113 0
M  V30 4174 C 377.574 2.13597 3.70891 0
M  V30 4175 C 376.9 1.74537 5.05412 0
M  V30 4176 C 378.2 3.55451 3.8269 0
M  V30 4177 H 379.894 2.23248 1.99501 0
M  V30 4178 H 377.44 1.0747 0.958449 0
M  V30 4179 H 379.393 0.995592 4.0947 0
M  V30 4180 H 378.117 0.0702565 3.26524 0
M  V30 4181 H 376.776 2.17905 2.9481 0
M  V30 4182 H 376.424 0.754226 4.97313 0
M  V30 4183 H 376.124 2.47361 5.32997 0
M  V30 4184 H 377.648 1.70803 5.86224 0
M  V30 4185 H 379.062 3.5354 4.51312 0
M  V30 4186 H 377.459 4.26922 4.21732 0
M  V30 4187 H 378.529 3.92587 2.84611 0
M  V30 4188 N 379.872 -1.04064 1.18357 0
M  V30 4189 C 381.288 -1.2947 0.933258 0
M  V30 4190 C 381.488 -1.97466 -0.401169 0
M  V30 4191 O 380.544 -2.25528 -1.13549 0
M  V30 4192 C 381.857 -2.15337 2.09882 0
M  V30 4193 C 383.405 -2.28683 2.13712 0
M  V30 4194 C 383.88 -3.17917 3.29686 0
M  V30 4195 N 385.371 -3.25504 3.29547 0
M  V30 4196 C 386.106 -3.94706 4.15926 0
M  V30 4197 N 385.602 -4.66239 5.12439 0
M  V30 4198 N 387.395 -3.90986 4.0384 0
M  V30 4199 H 379.546 -0.583359 2.04232 0
M  V30 4200 H 381.809 -0.319921 0.892387 0
M  V30 4201 H 381.515 -1.72682 3.06389 0
M  V30 4202 H 381.389 -3.16015 2.05947 0
M  V30 4203 H 383.776 -2.70575 1.17784 0
M  V30 4204 H 383.857 -1.27596 2.21705 0
M  V30 4205 H 383.501 -2.76736 4.25887 0
M  V30 4206 H 383.431 -4.19036 3.1893 0
M  V30 4207 H 385.922 -2.74547 2.59677 0
M  V30 4208 H 386.235 -5.16638 5.74722 0
M  V30 4209 H 384.58 -4.65143 5.16398 0
M  V30 4210 H 387.771 -3.34234 3.27727 0
M  V30 4211 H 387.944 -4.44646 4.71375 0
M  V30 4212 N 381.35 -0.985608 -1.22978 0
M  V30 4213 C 382.575 -0.675254 -1.961 0
M  V30 4214 C 383 0.752154 -1.72407 0
M  V30 4215 O 382.358 1.5131 -0.998751 0
M  V30 4216 C 382.406 -0.977899 -3.47087 0
M  V30 4217 O 381.51 -0.072685 -4.12336 0
M  V30 4218 H 380.851 -0.253443 -0.613728 0
M  V30 4219 H 383.381 -1.32061 -1.56272 0
M  V30 4220 H 383.391 -0.916739 -3.97567 0
M  V30 4221 H 382.066 -2.01807 -3.63657 0
M  V30 4222 H 380.643 -0.188703 -3.72422 0
M  V30 4223 N 382.828 1.3818 -0.7579 0
M  V30 4224 C 384.077 1.99261 -0.312744 0
M  V30 4225 C 384.39 1.60846 1.11301 0
M  V30 4226 O 385.596 2.14929 1.65885 0
M  V30 4227 C 384.052 3.56294 -0.50821 0
M  V30 4228 C 383.66 4.03657 -1.94333 0
M  V30 4229 C 385.404 4.24313 -0.125982 0
M  V30 4230 C 383.311 5.53347 -2.08712 0
M  V30 4231 H 382.241 0.745456 -0.113185 0
M  V30 4232 H 384.892 1.57889 -0.935056 0
M  V30 4233 H 383.274 3.95575 0.183353 0
M  V30 4234 H 384.448 3.75655 -2.66871 0
M  V30 4235 H 382.763 3.48376 -2.28086 0
M  V30 4236 H 385.36 5.34279 -0.212125 0
M  V30 4237 H 385.703 4.05962 0.921964 0
M  V30 4238 H 386.236 3.90285 -0.769563 0
M  V30 4239 H 382.975 5.76607 -3.11777 0
M  V30 4240 H 382.495 5.83078 -1.4064 0
M  V30 4241 H 384.174 6.19111 -1.87912 0
M  V30 4242 N 384.306 0.507319 1.49211 0
M  V30 4243 C 385.216 -0.272136 2.33016 0
M  V30 4244 C 386.232 -0.961206 1.45041 0
M  V30 4245 O 387.408 -0.941191 1.78055 0
M  V30 4246 C 384.473 -1.31895 3.20631 0
M  V30 4247 C 383.534 -0.642648 4.24463 0
M  V30 4248 C 382.767 -1.63959 5.07891 0
M  V30 4249 O 382.99 -2.87007 4.92933 0
M  V30 4250 O 381.924 -1.19143 5.8999 0
M  V30 4251 H 385.75 0.413982 3.00865 0
M  V30 4252 H 383.335 0.268556 1.46966 0
M  V30 4253 H 385.217 -1.92446 3.7489 0
M  V30 4254 H 383.892 -1.98788 2.5547 0
M  V30 4255 H 382.799 0.00276252 3.741 0
M  V30 4256 H 384.132 -0.0160534 4.92197 0
M  V30 4257 N 385.784 -1.5574 0.241426 0
M  V30 4258 C 386.747 -2.19877 -0.647063 0
M  V30 4259 C 387.747 -1.16642 -1.10686 0
M  V30 4260 O 388.937 -1.41757 -1.01245 0
M  V30 4261 C 386.069 -2.83797 -1.88871 0
M  V30 4262 H 387.262 -2.99772 -0.087574 0
M  V30 4263 H 384.815 -1.56298 -0.00813574 0
M  V30 4264 H 385.55 -2.07824 -2.48957 0
M  V30 4265 H 385.335 -3.59414 -1.56728 0
M  V30 4266 H 386.825 -3.32898 -2.52129 0
M  V30 4267 N 387.262 0.0317525 -1.57568 0
M  V30 4268 C 388.192 1.03274 -2.0942 0
M  V30 4269 C 389.173 1.3788 -0.996143 0
M  V30 4270 O 390.358 1.46811 -1.27122 0
M  V30 4271 C 387.488 2.33448 -2.57137 0
M  V30 4272 C 386.442 2.13091 -3.71182 0
M  V30 4273 C 385.768 3.49001 -4.05095 0
M  V30 4274 C 387.068 1.51928 -4.99715 0
M  V30 4275 H 388.762 0.60112 -2.93303 0
M  V30 4276 H 386.308 0.287705 -1.41097 0
M  V30 4277 H 388.261 3.03802 -2.92032 0
M  V30 4278 H 386.985 2.78665 -1.70333 0
M  V30 4279 H 385.644 1.45171 -3.36632 0
M  V30 4280 H 385.292 3.91862 -3.15362 0
M  V30 4281 H 384.992 3.36207 -4.81911 0
M  V30 4282 H 386.516 4.20721 -4.42522 0
M  V30 4283 H 387.93 2.12196 -5.32584 0
M  V30 4284 H 386.327 1.49716 -5.81124 0
M  V30 4285 H 387.397 0.484811 -4.8247 0
M  V30 4286 N 388.74 1.54641 0.303973 0
M  V30 4287 C 390.151 1.64811 0.877163 0
M  V30 4288 C 390.502 0.554838 1.88191 0
M  V30 4289 O 389.627 -0.309033 2.14182 0
M  V30 4290 C 390.222 2.9876 1.59775 0
M  V30 4291 C 388.781 3.11061 2.11938 0
M  V30 4292 C 387.928 2.60479 0.951097 0
M  V30 4293 H 390.879 1.58493 0.0810486 0
M  V30 4294 H 390.9 2.90017 2.46314 0
M  V30 4295 H 390.412 3.7831 0.866226 0
M  V30 4296 H 388.513 2.36225 2.88146 0
M  V30 4297 H 388.626 4.17171 2.35595 0
M  V30 4298 H 386.99 2.16859 1.33583 0
M  V30 4299 H 387.773 3.42504 0.233581 0
M  V30 4300 N 390.218 -0.567019 1.47046 0
M  V30 4301 C 391.629 -1.14916 1.47143 0
M  V30 4302 C 391.98 -1.94954 0.220767 0
M  V30 4303 O 391.105 -2.05602 -0.67505 0
M  V30 4304 C 391.7 -2.09069 2.666 0
M  V30 4305 C 390.259 -2.62575 2.69687 0
M  V30 4306 C 389.406 -1.38755 2.40088 0
M  V30 4307 H 392.357 -0.354126 1.54699 0
M  V30 4308 H 392.378 -2.92789 2.43011 0
M  V30 4309 H 391.89 -1.50789 3.57609 0
M  V30 4310 H 389.991 -3.24681 1.82792 0
M  V30 4311 H 390.104 -3.04239 3.70102 0
M  V30 4312 H 388.468 -1.69098 1.90468 0
M  V30 4313 H 389.251 -0.822822 3.33293 0
M  V30 4314 N 391.696 -1.35014 -0.812953 0
M  V30 4315 C 392.644 -1.27435 -1.94585 0
M  V30 4316 C 393.638 -0.170494 -1.6854 0
M  V30 4317 O 394.844 -0.336085 -1.76835 0
M  V30 4318 H 391.219 -0.396144 -0.639198 0
M  V30 4319 H 393.19 -2.23158 -1.98098 0
M  V30 4320 C 391.939 -1.05677 -3.31252 0
M  V30 4321 H 391.262 -1.89853 -3.51846 0
M  V30 4322 H 392.702 -1.04413 -4.10943 0
M  V30 4323 C 391.161 0.239615 -3.36047 0
M  V30 4324 O 391.691 1.23759 -3.8216 0
M  V30 4325 N 389.897 0.276186 -2.89285 0
M  V30 4326 H 389.444 -0.53653 -2.51951 0
M  V30 4327 H 389.402 1.14332 -2.92875 0
M  V30 4328 N 393.175 1.03435 -1.18907 0
M  V30 4329 C 394.586 1.58195 -0.991523 0
M  V30 4330 C 394.937 1.90801 0.457081 0
M  V30 4331 O 394.062 1.70272 1.33553 0
M  V30 4332 C 394.657 2.87432 -1.79355 0
M  V30 4333 C 393.216 3.38785 -1.64017 0
M  V30 4334 C 392.363 2.12292 -1.78402 0
M  V30 4335 H 395.314 0.860299 -1.33359 0
M  V30 4336 H 395.335 3.58096 -1.28638 0
M  V30 4337 H 394.847 2.63669 -2.84781 0
M  V30 4338 H 392.948 3.67547 -0.611536 0
M  V30 4339 H 393.061 4.12186 -2.44212 0
M  V30 4340 H 391.425 2.23901 -1.2141 0
M  V30 4341 H 392.208 1.90977 -2.85277 0
M  V30 4342 N 394.653 0.992116 1.22453 0
M  V30 4343 C 395.616 0.546883 2.2258 0
M  V30 4344 C 396.616 -0.369829 1.56489 0
M  V30 4345 O 397.806 -0.161896 1.73446 0
M  V30 4346 C 394.938 -0.204659 3.40285 0
M  V30 4347 H 396.131 1.43234 2.63484 0
M  V30 4348 H 393.684 0.779239 1.3549 0
M  V30 4349 H 394.419 -1.10614 3.04853 0
M  V30 4350 H 394.204 0.45354 3.89468 0
M  V30 4351 H 395.694 -0.504358 4.14543 0
M  V30 4352 N 396.131 -1.37776 0.765217 0
M  V30 4353 C 397.377 -2.00145 0.327072 0
M  V30 4354 C 397.71 -1.60607 -1.09175 0
M  V30 4355 O 396.985 -0.849127 -1.74986 0
M  V30 4356 C 397.268 -3.57109 0.46319 0
M  V30 4357 C 397.121 -4.06576 1.92395 0
M  V30 4358 C 398.44 -4.39888 -0.136473 0
M  V30 4359 H 395.559 -0.727113 0.120316 0
M  V30 4360 H 398.201 -1.63549 0.967039 0
M  V30 4361 H 396.351 -3.88414 -0.0816358 0
M  V30 4362 H 398.023 -3.85864 2.52798 0
M  V30 4363 H 396.266 -3.59011 2.43503 0
M  V30 4364 H 396.937 -5.15639 1.97028 0
M  V30 4365 H 399.413 -4.14803 0.328317 0
M  V30 4366 H 398.289 -5.48899 -0.0110582 0
M  V30 4367 H 398.55 -4.24758 -1.22608 0
M  V30 4368 N 397.609 -0.515225 -1.4894 0
M  V30 4369 C 398.557 0.269115 -2.31038 0
M  V30 4370 C 399.551 0.949443 -1.40292 0
M  V30 4371 O 400.757 0.87551 -1.57273 0
M  V30 4372 H 397.132 0.10565 -0.744542 0
M  V30 4373 H 399.103 -0.443096 -2.95092 0
M  V30 4374 C 397.852 1.31213 -3.21991 0
M  V30 4375 H 397.175 0.798034 -3.91754 0
M  V30 4376 H 398.615 1.83263 -3.82349 0
M  V30 4377 C 397.074 2.33791 -2.42576 0
M  V30 4378 O 397.604 3.3995 -2.14003 0
M  V30 4379 N 395.81 2.06625 -2.0434 0
M  V30 4380 H 395.357 1.20314 -2.27777 0
M  V30 4381 H 395.315 2.75483 -1.51514 0
M  V30 4382 N 399.087 1.5561 -0.249682 0
M  V30 4383 C 400.312 2.03865 0.381305 0
M  V30 4384 C 400.737 1.12769 1.50548 0
M  V30 4385 O 400.095 0.121189 1.80895 0
M  V30 4386 C 400.143 3.50101 0.863816 0
M  V30 4387 O 399.247 3.62132 1.97318 0
M  V30 4388 H 398.588 0.658827 0.0827194 0
M  V30 4389 H 401.118 2.01105 -0.376552 0
M  V30 4390 H 401.128 3.90975 1.1663 0
M  V30 4391 H 399.803 4.1588 0.0411816 0
M  V30 4392 H 398.38 3.33155 1.67517 0
M  V30 4393 N 400.565 -0.0233959 1.57583 0
M  V30 4394 C 401.842 -0.748794 1.807 0
M  V30 4395 C 402.222 -1.9327 0.849106 0
M  V30 4396 O 401.57 -2.28247 -0.107468 0
M  V30 4397 C 401.78 -1.17651 3.28571 0
M  V30 4398 C 403.128 -1.59008 3.93702 0
M  V30 4399 O 404.152 -1.27094 3.32755 0
M  V30 4400 O 403.011 -2.18264 5.01022 0
M  V30 4401 H 400.105 -0.362578 0.743281 0
M  V30 4402 H 402.651 0.000261958 1.697 0
M  V30 4403 H 401.423 -0.331603 3.89892 0
M  V30 4404 H 401.046 -1.98541 3.44481 0
M  V30 4405 N 402.043 -1.548 -0.295768 0
M  V30 4406 C 403.006 -1.85363 -1.34808 0
M  V30 4407 C 404.006 -0.726817 -1.43436 0
M  V30 4408 O 405.196 -0.995088 -1.42981 0
M  V30 4409 C 402.328 -2.03859 -2.73229 0
M  V30 4410 H 403.521 -2.7941 -1.08949 0
M  V30 4411 H 401.074 -1.46942 -0.532702 0
M  V30 4412 H 401.809 -1.12117 -3.04303 0
M  V30 4413 H 401.594 -2.8588 -2.68356 0
M  V30 4414 H 403.084 -2.28857 -3.49305 0
M  V30 4415 N 403.521 0.559213 -1.47345 0
M  V30 4416 C 404.484 1.64854 -1.59235 0
M  V30 4417 C 405.484 1.53851 -0.467607 0
M  V30 4418 O 406.674 1.58045 -0.732617 0
M  V30 4419 C 403.806 3.04388 -1.53496 0
M  V30 4420 H 404.999 1.55662 -2.56339 0
M  V30 4421 H 402.552 0.778973 -1.35505 0
M  V30 4422 H 403.287 3.19115 -0.577604 0
M  V30 4423 H 403.072 3.13783 -2.35123 0
M  V30 4424 H 404.562 3.83642 -1.6495 0
M  V30 4425 N 404.999 1.35443 0.805782 0
M  V30 4426 C 406.415 1.15499 1.10146 0
M  V30 4427 C 406.615 -0.0319975 2.01475 0
M  V30 4428 O 405.671 -0.70236 2.42535 0
M  V30 4429 C 406.984 2.45833 1.73166 0
M  V30 4430 C 408.532 2.52047 1.85583 0
M  V30 4431 C 409.007 3.82427 2.52019 0
M  V30 4432 N 410.498 3.83682 2.59504 0
M  V30 4433 C 411.233 4.81294 3.11679 0
M  V30 4434 N 410.729 5.89294 3.64287 0
M  V30 4435 N 412.522 4.6873 3.1024 0
M  V30 4436 H 404.673 2.11469 0.198678 0
M  V30 4437 H 406.936 0.93594 0.150731 0
M  V30 4438 H 406.642 3.32874 1.13526 0
M  V30 4439 H 406.516 2.6044 2.72857 0
M  V30 4440 H 408.903 1.65435 2.44367 0
M  V30 4441 H 408.984 2.41354 0.847455 0
M  V30 4442 H 408.628 4.69437 1.93885 0
M  V30 4443 H 408.558 3.90409 3.53395 0
M  V30 4444 H 411.049 3.05648 2.22234 0
M  V30 4445 H 411.362 6.59768 4.02401 0
M  V30 4446 H 409.707 5.92985 3.62483 0
M  V30 4447 H 412.898 3.83496 2.68419 0
M  V30 4448 H 413.071 5.44965 3.50596 0
M  V30 4449 O 406.516 -0.944775 1.30982 0
M  V30 4450 H 407.207 -1.57432 1.12848 0
M  V30 END ATOM
M  V30 BEGIN BOND
M  V30 END BOND
M  V30 END CTAB
M  END
$$$$
