drugbank_target|P0A2W7 Holo-[acyl-carrier-protein] synthase (DB01812)
 OpenBabel12092120223D

  0  0  0     0  0            999 V3000
M  V30 BEGIN CTAB
M  V30 COUNTS 1872 1890 0 0 0
M  V30 BEGIN ATOM
M  V30 1 H -0.908 1.98254 -0.117106 0
M  V30 2 N 0 1.576 0 0
M  V30 3 C 0.933 2.03868 1.02534 0
M  V30 4 C 1.911 0.928543 1.3348 0
M  V30 5 O 3.095 1.19667 1.45644 0
M  V30 6 C 0.222 2.43627 2.35294 0
M  V30 7 C -0.732 3.65373 2.2001 0
M  V30 8 S 0.101 5.13292 1.52614 0
M  V30 9 C 1.257 5.56322 2.86805 0
M  V30 10 H 1.49 2.90518 0.631377 0
M  V30 11 H -0.977 1.52953 0.210867 0
M  V30 12 H 0.981 2.67203 3.11629 0
M  V30 13 H -0.358 1.57376 2.7183 0
M  V30 14 H -1.165 3.90944 3.18086 0
M  V30 15 H -1.563 3.418 1.51819 0
M  V30 16 H 0.729 5.58782 3.83104 0
M  V30 17 H 1.672 6.56266 2.65933 0
M  V30 18 H 2.08 4.83886 2.90714 0
M  V30 19 N 1.4781 -0.272755 1.55222 0
M  V30 20 C 2.7271 -1.00211 1.75045 0
M  V30 21 C 3.0401 -1.87441 0.559046 0
M  V30 22 O 4.2461 -2.63856 0.639698 0
M  V30 23 C 2.7021 -1.83165 3.09804 0
M  V30 24 C 2.3101 -1.008 4.36513 0
M  V30 25 C 4.0541 -2.55529 3.38977 0
M  V30 26 C 1.9611 -1.83194 5.62311 0
M  V30 27 H 0.8911 -0.377878 0.652476 0
M  V30 28 H 3.5421 -0.257776 1.8168 0
M  V30 29 H 1.9241 -2.61694 2.97207 0
M  V30 30 H 3.0981 -0.266855 4.60027 0
M  V30 31 H 1.4131 -0.398897 4.14485 0
M  V30 32 H 4.0101 -3.17578 4.30172 0
M  V30 33 H 4.3531 -3.25825 2.59121 0
M  V30 34 H 4.8861 -1.84029 3.52673 0
M  V30 35 H 1.6251 -1.17318 6.44916 0
M  V30 36 H 1.1451 -2.54905 5.4294 0
M  V30 37 H 2.8241 -2.40552 6.00619 0
M  V30 38 N 2.9562 -1.48159 -0.537278 0
M  V30 39 C 4.2022 -1.56035 -1.29541 0
M  V30 40 C 4.5352 -0.230377 -1.92829 0
M  V30 41 O 3.8102 0.762952 -1.78911 0
M  V30 42 C 4.0932 -2.69323 -2.39034 0
M  V30 43 C 3.9462 -4.12002 -1.80485 0
M  V30 44 C 5.2652 -2.78408 -3.40847 0
M  V30 45 H 2.3842 -0.567992 -0.469632 0
M  V30 46 H 5.0262 -1.80302 -0.599277 0
M  V30 47 H 3.1762 -2.48763 -2.98412 0
M  V30 48 H 4.8482 -4.43981 -1.25215 0
M  V30 49 H 3.0912 -4.19344 -1.11055 0
M  V30 50 H 3.7622 -4.87077 -2.59731 0
M  V30 51 H 6.2382 -2.97012 -2.91416 0
M  V30 52 H 5.1142 -3.59416 -4.14863 0
M  V30 53 H 5.3752 -1.86269 -4.00944 0
M  V30 54 N 4.4343 0.785586 -1.36625 0
M  V30 55 C 5.6823 1.54057 -1.30808 0
M  V30 56 C 6.0033 1.94683 0.111157 0
M  V30 57 O 5.2733 1.65241 1.05224 0
M  V30 58 H 3.8533 0.571354 -0.481211 0
M  V30 59 H 6.5153 0.935821 -1.70963 0
M  V30 60 H 5.6113 2.44637 -1.93801 0
M  V30 61 N 5.9124 1.20967 1.01018 0
M  V30 62 C 6.8624 0.93182 2.08089 0
M  V30 63 C 7.8464 -0.110898 1.60517 0
M  V30 64 O 9.0384 0.0973392 1.76732 0
M  V30 65 C 6.1674 0.492719 3.39746 0
M  V30 66 C 5.2534 1.56922 3.94 0
M  V30 67 N 5.6444 2.79312 4.21686 0
M  V30 68 C 3.9424 1.43688 4.2222 0
M  V30 69 C 4.6434 3.48797 4.65527 0
M  V30 70 N 3.6194 2.76224 4.68189 0
M  V30 71 H 7.4214 1.86175 2.27412 0
M  V30 72 H 4.9354 1.10463 1.19045 0
M  V30 73 H 6.9324 0.275044 4.15992 0
M  V30 74 H 5.5924 -0.430509 3.21833 0
M  V30 75 H 6.6034 3.15903 4.10397 0
M  V30 76 H 3.2804 0.578548 4.13472 0
M  V30 77 H 4.6704 4.53561 4.95714 0
M  V30 78 N 7.3905 -1.2043 1.01659 0
M  V30 79 C 8.6385 -1.89423 0.704522 0
M  V30 80 C 8.9595 -1.79231 -0.768197 0
M  V30 81 O 8.2295 -1.1947 -1.55254 0
M  V30 82 H 6.8095 -0.701178 0.257602 0
M  V30 83 H 9.4715 -1.4626 1.28818 0
M  V30 84 H 8.5675 -2.96052 0.987916 0
M  V30 85 N 8.8686 -0.792821 -1.36206 0
M  V30 86 C 10.1176 -0.363353 -1.984 0
M  V30 87 C 10.4306 1.07172 -1.63626 0
M  V30 88 O 11.6366 1.60362 -2.19081 0
M  V30 89 C 10.0926 -0.59872 -3.54885 0
M  V30 90 C 9.7006 -2.04543 -3.9858 0
M  V30 91 C 11.4446 -0.233926 -4.23855 0
M  V30 92 C 9.3516 -2.22727 -5.47856 0
M  V30 93 H 8.2816 -0.13212 -0.742334 0
M  V30 94 H 10.9326 -0.974935 -1.55458 0
M  V30 95 H 9.3146 0.0826222 -3.95914 0
M  V30 96 H 10.4886 -2.76345 -3.68741 0
M  V30 97 H 8.8036 -2.36879 -3.42458 0
M  V30 98 H 11.4006 -0.348027 -5.33566 0
M  V30 99 H 11.7436 0.818351 -4.08177 0
M  V30 100 H 12.2766 -0.868639 -3.882 0
M  V30 101 H 9.0156 -3.2635 -5.68486 0
M  V30 102 H 8.5356 -1.55434 -5.7931 0
M  V30 103 H 10.2146 -2.03607 -6.14128 0
M  V30 104 N 10.3467 1.47872 -0.545128 0
M  V30 105 C 11.6237 1.9554 0.0485222 0
M  V30 106 C 12.0037 1.4876 1.49779 0
M  V30 107 O 11.3517 0.720925 2.16829 0
M  V30 108 C 11.5617 3.48898 -0.084417 0
M  V30 109 C 12.9097 4.24547 0.0671239 0
M  V30 110 O 13.9337 3.56198 -0.0113649 0
M  V30 111 O 12.7927 5.45999 0.233882 0
M  V30 112 H 9.8867 0.823957 0.0708773 0
M  V30 113 H 12.4327 1.58327 -0.610798 0
M  V30 114 H 11.2047 3.75714 -1.09337 0
M  V30 115 H 10.8277 3.92845 0.613066 0
M  V30 116 N 11.8248 0.280983 1.55075 0
M  V30 117 C 13.0738 -0.334784 1.98902 0
M  V30 118 C 13.3868 -1.56534 1.17288 0
M  V30 119 O 14.5928 -2.25443 1.51287 0
M  V30 120 C 13.0488 -0.646994 3.54037 0
M  V30 121 C 12.6568 0.564085 4.44435 0
M  V30 122 C 14.4008 -1.22506 4.06439 0
M  V30 123 C 12.3078 0.226137 5.90967 0
M  V30 124 H 11.2378 -0.128866 0.742906 0
M  V30 125 H 13.8888 0.386556 1.79382 0
M  V30 126 H 12.2708 -1.42739 3.6938 0
M  V30 127 H 13.4448 1.34082 4.40861 0
M  V30 128 H 11.7598 1.0594 4.02698 0
M  V30 129 H 14.3568 -1.49182 5.13468 0
M  V30 130 H 14.6998 -2.16085 3.55827 0
M  V30 131 H 15.2328 -0.50682 3.94558 0
M  V30 132 H 11.9718 1.12996 6.45687 0
M  V30 133 H 11.4918 -0.513717 5.97596 0
M  V30 134 H 13.1708 -0.179539 6.46751 0
M  V30 135 N 13.3029 -1.57598 0.00835791 0
M  V30 136 C 14.2129 -2.12385 -0.996487 0
M  V30 137 C 15.2289 -1.07108 -1.37127 0
M  V30 138 O 16.4049 -1.39055 -1.4569 0
M  V30 139 C 13.4699 -2.62314 -2.26699 0
M  V30 140 C 12.5309 -3.82225 -1.95456 0
M  V30 141 C 11.7639 -4.29763 -3.16449 0
M  V30 142 O 11.9869 -3.76584 -4.28416 0
M  V30 143 O 10.9209 -5.21832 -2.99958 0
M  V30 144 H 14.7469 -2.98479 -0.560725 0
M  V30 145 H 12.3319 -1.47903 -0.210987 0
M  V30 146 H 14.2139 -2.94589 -3.01322 0
M  V30 147 H 12.8889 -1.79313 -2.69497 0
M  V30 148 H 11.7959 -3.54909 -1.18282 0
M  V30 149 H 13.1289 -4.66324 -1.57489 0
M  V30 150 N 14.781 0.264519 -1.55364 0
M  V30 151 C 15.691 1.34902 -1.91934 0
M  V30 152 C 16.707 1.53595 -0.817593 0
M  V30 153 O 17.883 1.67558 -1.11742 0
M  V30 154 C 14.948 2.68676 -2.19121 0
M  V30 155 C 14.009 2.58657 -3.4263 0
M  V30 156 C 13.242 3.86051 -3.68511 0
M  V30 157 O 13.465 4.87126 -2.96757 0
M  V30 158 O 12.399 3.85744 -4.62045 0
M  V30 159 H 16.225 1.06883 -2.8427 0
M  V30 160 H 13.81 0.463775 -1.42019 0
M  V30 161 H 15.692 3.47759 -2.37995 0
M  V30 162 H 14.367 2.96463 -1.29966 0
M  V30 163 H 13.274 1.7792 -3.29082 0
M  V30 164 H 14.607 2.35818 -4.32031 0
M  V30 165 N 16.2591 1.48442 0.529413 0
M  V30 166 C 17.1891 1.65902 1.64313 0
M  V30 167 C 18.1701 0.507897 1.6234 0
M  V30 168 O 19.3551 0.740503 1.79528 0
M  V30 169 C 16.4851 1.69911 3.02898 0
M  V30 170 C 15.4391 2.8453 3.19729 0
M  V30 171 C 14.7651 2.73629 4.59381 0
M  V30 172 C 16.0651 4.25821 3.02447 0
M  V30 173 H 17.7591 2.5914 1.49955 0
M  V30 174 H 15.3051 1.24709 0.719982 0
M  V30 175 H 17.2581 1.80715 3.80684 0
M  V30 176 H 15.9821 0.732524 3.18279 0
M  V30 177 H 14.6411 2.73283 2.44361 0
M  V30 178 H 14.2891 1.74938 4.71599 0
M  V30 179 H 13.9891 3.50541 4.71588 0
M  V30 180 H 15.5131 2.86401 5.39265 0
M  V30 181 H 16.9271 4.37898 3.70024 0
M  V30 182 H 15.3241 5.03735 3.26146 0
M  V30 183 H 16.3941 4.42244 1.98867 0
M  V30 184 N 17.7372 -0.778329 1.37039 0
M  V30 185 C 18.7002 -1.87301 1.32102 0
M  V30 186 C 19.7002 -1.59198 0.226405 0
M  V30 187 O 20.8902 -1.67403 0.481861 0
M  V30 188 C 18.0222 -3.24309 1.05055 0
M  V30 189 H 19.2152 -1.93093 2.29467 0
M  V30 190 H 16.7682 -0.977358 1.21973 0
M  V30 191 H 17.5032 -3.24196 0.0819373 0
M  V30 192 H 17.2882 -3.46098 1.84279 0
M  V30 193 H 18.7782 -4.04382 1.04234 0
M  V30 194 N 19.2153 -1.21501 -1.00376 0
M  V30 195 C 20.4403 -1.05977 -1.78279 0
M  V30 196 C 20.8653 0.385994 -1.84097 0
M  V30 197 O 20.2233 1.27849 -1.28547 0
M  V30 198 C 20.2713 -1.66302 -3.19963 0
M  V30 199 O 19.3753 -0.909333 -4.0225 0
M  V30 200 H 18.7163 -0.372906 -0.549397 0
M  V30 201 H 21.2463 -1.6107 -1.26165 0
M  V30 202 H 21.2563 -1.70574 -3.70632 0
M  V30 203 H 19.9313 -2.71515 -3.15043 0
M  V30 204 H 18.5083 -0.941795 -3.60811 0
M  V30 205 N 20.6934 1.19889 -1.02296 0
M  V30 206 C 21.9424 1.88743 -0.711257 0
M  V30 207 C 22.2554 1.80112 0.762817 0
M  V30 208 O 23.4614 2.44161 1.18733 0
M  V30 209 C 21.9174 3.38525 -1.22185 0
M  V30 210 C 21.5254 3.55727 -2.72328 0
M  V30 211 C 23.2694 4.12893 -0.985864 0
M  V30 212 C 21.1764 4.99369 -3.16835 0
M  V30 213 H 20.1064 0.706885 -0.262353 0
M  V30 214 H 22.7574 1.35586 -1.23648 0
M  V30 215 H 21.1394 3.91044 -0.624571 0
M  V30 216 H 22.3134 3.13564 -3.3766 0
M  V30 217 H 20.6284 2.94739 -2.9414 0
M  V30 218 H 23.2254 5.18813 -1.29374 0
M  V30 219 H 23.5684 4.16228 0.0775055 0
M  V30 220 H 24.1014 3.66494 -1.54684 0
M  V30 221 H 20.8404 5.01193 -4.22476 0
M  V30 222 H 20.3604 5.42317 -2.56228 0
M  V30 223 H 22.0394 5.67988 -3.09837 0
M  V30 224 N 22.1715 0.800033 1.35784 0
M  V30 225 C 23.0815 0.207204 2.33683 0
M  V30 226 C 24.0975 -0.64631 1.61551 0
M  V30 227 O 25.2735 -0.559604 1.93469 0
M  V30 228 C 22.3385 -0.639659 3.40748 0
M  V30 229 C 21.3995 0.233585 4.28664 0
M  V30 230 C 20.6325 -0.572954 5.30616 0
M  V30 231 O 20.8555 -1.80816 5.40982 0
M  V30 232 O 19.7895 0.0327285 6.01891 0
M  V30 233 H 23.6155 1.01692 2.86169 0
M  V30 234 H 21.2005 0.561691 1.38439 0
M  V30 235 H 23.0825 -1.12223 4.06182 0
M  V30 236 H 21.7575 -1.42708 2.90544 0
M  V30 237 H 20.6645 0.763147 3.66233 0
M  V30 238 H 21.9975 0.984784 4.82248 0
M  V30 239 N 23.6496 -1.47581 0.552962 0
M  V30 240 C 24.8746 -2.07378 0.0300593 0
M  V30 241 C 25.2996 -1.40355 -1.25229 0
M  V30 242 O 24.6576 -0.477099 -1.7491 0
M  V30 243 C 24.7056 -3.60274 -0.153231 0
M  V30 244 O 23.8096 -3.94041 -1.21678 0
M  V30 245 H 23.1506 -0.662158 0.0494182 0
M  V30 246 H 25.6806 -1.89662 0.767434 0
M  V30 247 H 25.6906 -4.0633 -0.368761 0
M  V30 248 H 24.3656 -4.08455 0.783397 0
M  V30 249 H 22.9426 -3.59735 -0.982079 0
M  V30 250 N 25.1277 -0.289203 -1.54924 0
M  V30 251 C 26.0907 0.579144 -2.21762 0
M  V30 252 C 27.0907 1.07047 -1.1999 0
M  V30 253 O 28.2807 0.968384 -1.44803 0
M  V30 254 C 25.4127 1.80055 -2.8947 0
M  V30 255 H 26.6057 -0.00464908 -2.999 0
M  V30 256 H 24.1587 -0.0399306 -1.56249 0
M  V30 257 H 24.8937 2.42449 -2.15381 0
M  V30 258 H 24.6787 1.45602 -3.64064 0
M  V30 259 H 26.1687 2.41773 -3.40493 0
M  V30 260 N 26.6058 1.57591 -0.0167156 0
M  V30 261 C 27.8518 1.91567 0.665582 0
M  V30 262 C 28.1848 0.892298 1.72487 0
M  V30 263 O 27.4598 -0.0867127 1.94307 0
M  V30 264 C 27.7428 3.36069 1.29342 0
M  V30 265 C 27.5958 4.49135 0.244541 0
M  V30 266 C 28.9148 3.803 2.21495 0
M  V30 267 H 26.0338 0.69666 0.240488 0
M  V30 268 H 28.6758 1.89866 -0.0714356 0
M  V30 269 H 26.8258 3.3765 1.92158 0
M  V30 270 H 28.4978 4.59689 -0.385228 0
M  V30 271 H 26.7408 4.3165 -0.431379 0
M  V30 272 H 27.4118 5.47242 0.723207 0
M  V30 273 H 29.8878 3.80377 1.68678 0
M  V30 274 H 28.7638 4.82127 2.62382 0
M  V30 275 H 29.0248 3.15104 3.101 0
M  V30 276 N 28.0839 -0.256276 1.55502 0
M  V30 277 C 29.3119 -1.00342 1.8094 0
M  V30 278 C 29.7269 -1.79307 0.59114 0
M  V30 279 O 29.0839 -1.77114 -0.440081 0
M  V30 280 C 29.1349 -1.94875 3.04476 0
M  V30 281 O 28.8559 -1.19107 4.21598 0
M  V30 282 C 30.3569 -2.81266 3.42644 0
M  V30 283 H 27.5769 -0.295685 0.602338 0
M  V30 284 H 30.1209 -0.281998 2.02546 0
M  V30 285 H 28.2759 -2.62457 2.84947 0
M  V30 286 H 28.6899 -1.82969 4.91551 0
M  V30 287 H 30.1639 -3.43362 4.32211 0
M  V30 288 H 30.6409 -3.51897 2.62802 0
M  V30 289 H 31.2469 -2.1915 3.64491 0
M  V30 290 N 29.562 -1.4872 -0.521534 0
M  V30 291 C 30.978 -1.35028 -0.850855 0
M  V30 292 C 31.178 -0.367712 -1.98116 0
M  V30 293 O 30.234 0.208037 -2.51642 0
M  V30 294 C 31.547 -2.75263 -1.21041 0
M  V30 295 C 33.095 -2.83813 -1.31981 0
M  V30 296 C 33.57 -4.24769 -1.71276 0
M  V30 297 N 35.061 -4.27482 -1.78363 0
M  V30 298 C 35.796 -5.33494 -2.1017 0
M  V30 299 N 35.292 -6.49775 -2.40343 0
M  V30 300 N 37.085 -5.20894 -2.11248 0
M  V30 301 H 29.236 -2.11214 0.22413 0
M  V30 302 H 31.499 -0.947252 0.0376439 0
M  V30 303 H 31.205 -3.48765 -0.453415 0
M  V30 304 H 31.079 -3.09327 -2.15863 0
M  V30 305 H 33.466 -2.10561 -2.06756 0
M  V30 306 H 33.547 -2.53358 -0.352596 0
M  V30 307 H 33.191 -4.9854 -0.970588 0
M  V30 308 H 33.121 -4.52673 -2.69062 0
M  V30 309 H 35.612 -3.43611 -1.57288 0
M  V30 310 H 35.925 -7.26402 -2.63743 0
M  V30 311 H 34.27 -6.53035 -2.37844 0
M  V30 312 H 37.461 -4.29065 -1.87139 0
M  V30 313 H 37.634 -6.03612 -2.35704 0
M  V30 314 N 31.0401 0.771051 -1.3745 0
M  V30 315 C 31.9901 1.87456 -1.29785 0
M  V30 316 C 32.9741 1.59827 -0.185541 0
M  V30 317 O 34.1661 1.71945 -0.419997 0
M  V30 318 C 31.2951 3.24935 -1.1078 0
M  V30 319 C 30.3811 3.58514 -2.26558 0
M  V30 320 N 30.7721 3.6327 -3.5195 0
M  V30 321 C 29.0701 3.88683 -2.18727 0
M  V30 322 C 29.7711 3.93616 -4.283 0
M  V30 323 N 28.7471 4.09551 -3.57448 0
M  V30 324 H 32.5491 1.89386 -2.24745 0
M  V30 325 H 30.0631 0.967531 -1.30432 0
M  V30 326 H 32.0601 4.03881 -1.03374 0
M  V30 327 H 30.7201 3.24268 -0.16738 0
M  V30 328 H 31.7311 3.45458 -3.85848 0
M  V30 329 H 28.4081 3.95834 -1.32746 0
M  V30 330 H 29.7981 4.04066 -5.36824 0
M  V30 331 N 32.5182 1.22032 0.997298 0
M  V30 332 C 33.4282 1.00271 2.12092 0
M  V30 333 C 34.4442 -0.047621 1.73935 0
M  V30 334 O 35.6202 0.144136 2.00884 0
M  V30 335 C 32.6852 0.578449 3.4184 0
M  V30 336 C 31.7462 1.70189 3.94125 0
M  V30 337 C 30.9792 1.29778 5.17681 0
M  V30 338 O 31.2022 0.174676 5.70132 0
M  V30 339 O 30.1362 2.11261 5.63607 0
M  V30 340 H 33.9622 1.94398 2.3333 0
M  V30 341 H 31.5472 1.00587 1.10465 0
M  V30 342 H 33.4292 0.351998 4.19927 0
M  V30 343 H 32.1042 -0.334019 3.21972 0
M  V30 344 H 31.0112 1.98282 3.1723 0
M  V30 345 H 32.3442 2.59206 4.18417 0
M  V30 346 N 33.9963 -1.19345 1.0293 0
M  V30 347 C 35.2443 -1.88665 0.724574 0
M  V30 348 C 35.5653 -1.80036 -0.749144 0
M  V30 349 O 34.8353 -1.2111 -1.53978 0
M  V30 350 H 33.4153 -0.698406 0.265025 0
M  V30 351 H 36.0773 -1.44885 1.30362 0
M  V30 352 H 35.1733 -2.94987 1.01926 0
M  V30 353 N 35.4744 -0.807222 -1.35358 0
M  V30 354 C 36.7214 -0.387888 -1.9875 0
M  V30 355 C 37.0494 1.04509 -1.64037 0
M  V30 356 O 36.3044 1.73986 -0.895946 0
M  V30 357 C 36.6034 -0.519036 -3.53611 0
M  V30 358 C 36.2694 -1.91542 -4.08194 0
M  V30 359 C 34.9314 -2.29745 -4.22813 0
M  V30 360 C 37.2834 -2.82896 -4.37744 0
M  V30 361 C 34.6114 -3.58668 -4.643 0
M  V30 362 C 36.9634 -4.11265 -4.8067 0
M  V30 363 C 35.6274 -4.49466 -4.93494 0
M  V30 364 H 34.8974 -0.141938 -0.727279 0
M  V30 365 H 37.5444 -1.02814 -1.6156 0
M  V30 366 H 35.8494 0.204658 -3.91265 0
M  V30 367 H 37.5464 -0.175345 -4.00616 0
M  V30 368 H 34.1364 -1.60862 -3.97268 0
M  V30 369 H 38.3204 -2.54629 -4.26002 0
M  V30 370 H 33.5764 -3.88113 -4.72418 0
M  V30 371 H 37.7504 -4.82153 -5.02496 0
M  V30 372 H 35.3774 -5.49418 -5.25399 0
M  V30 373 N 36.9525 1.47285 -0.560781 0
M  V30 374 C 37.9155 2.28535 0.174488 0
M  V30 375 C 38.9155 1.37153 0.839388 0
M  V30 376 O 40.1055 1.59748 0.694702 0
M  V30 377 C 37.2375 3.16934 1.25561 0
M  V30 378 H 38.4305 2.95012 -0.539262 0
M  V30 379 H 35.9835 1.53034 -0.317865 0
M  V30 380 H 36.7185 2.55157 2.00164 0
M  V30 381 H 36.5035 3.8419 0.783604 0
M  V30 382 H 37.9935 3.78143 1.77193 0
M  V30 383 N 38.4306 0.297415 1.54768 0
M  V30 384 C 39.3776 -0.580276 2.23386 0
M  V30 385 C 40.3476 -1.13238 1.21517 0
M  V30 386 O 41.5326 -1.17757 1.50126 0
M  V30 387 C 38.6726 -1.74801 2.97555 0
M  V30 388 C 37.7856 -1.22764 4.1419 0
M  V30 389 C 36.9206 -2.35895 4.75949 0
M  V30 390 C 35.9596 -1.80974 5.84735 0
M  V30 391 N 35.0966 -2.87664 6.40464 0
M  V30 392 H 39.9366 0.0114833 2.97998 0
M  V30 393 H 37.4736 0.0174361 1.4709 0
M  V30 394 H 39.4316 -2.43475 3.38786 0
M  V30 395 H 38.0616 -2.31145 2.25326 0
M  V30 396 H 37.1136 -0.433271 3.77924 0
M  V30 397 H 38.4256 -0.785551 4.92575 0
M  V30 398 H 37.5796 -3.12523 5.20014 0
M  V30 399 H 36.3186 -2.83429 3.96887 0
M  V30 400 H 35.3236 -1.02834 5.40097 0
M  V30 401 H 36.5486 -1.34348 6.65678 0
M  V30 402 H 34.4946 -3.34538 5.64287 0
M  V30 403 H 34.4116 -2.4794 7.14186 0
M  V30 404 H 35.6796 -3.642 6.89187 0
M  V30 405 N 39.9087 -1.5758 0.0250728 0
M  V30 406 C 41.3247 -1.56124 -0.331282 0
M  V30 407 C 41.5247 -1.03029 -1.73169 0
M  V30 408 O 40.5807 -0.675215 -2.43305 0
M  V30 409 C 41.8937 -3.00139 -0.183584 0
M  V30 410 C 43.4417 -3.11946 -0.256654 0
M  V30 411 C 43.9167 -4.57793 -0.137792 0
M  V30 412 N 45.4077 -4.6279 -0.194904 0
M  V30 413 C 46.1427 -5.7326 -0.126655 0
M  V30 414 N 45.6387 -6.928 -0.00755288 0
M  V30 415 N 47.4317 -5.61811 -0.180348 0
M  V30 416 H 39.5827 -1.90424 0.94087 0
M  V30 417 H 41.8457 -0.875761 0.362968 0
M  V30 418 H 41.5517 -3.4292 0.780927 0
M  V30 419 H 41.4257 -3.64899 -0.955448 0
M  V30 420 H 43.8127 -2.69079 -1.21162 0
M  V30 421 H 43.8937 -2.49915 0.545517 0
M  V30 422 H 43.5377 -5.01339 0.813739 0
M  V30 423 H 43.4677 -5.17798 -0.958775 0
M  V30 424 H 45.9587 -3.76807 -0.287267 0
M  V30 425 H 46.2717 -7.72791 0.0379428 0
M  V30 426 H 44.6167 -6.94995 0.0271731 0
M  V30 427 H 47.8077 -4.6731 -0.271767 0
M  V30 428 H 47.9807 -6.47882 -0.123697 0
M  V30 429 N 41.3868 0.248026 -1.55636 0
M  V30 430 C 42.6328 0.97767 -1.77678 0
M  V30 431 C 42.9658 1.85016 -0.590135 0
M  V30 432 O 42.2408 1.90095 0.411611 0
M  V30 433 C 42.5238 1.83914 -3.09593 0
M  V30 434 C 42.3768 0.99491 -4.38659 0
M  V30 435 C 43.6958 2.82183 -3.37729 0
M  V30 436 H 40.8148 0.354005 -0.646413 0
M  V30 437 H 43.4568 0.248253 -1.88371 0
M  V30 438 H 41.6068 2.46104 -3.00608 0
M  V30 439 H 43.2788 0.391789 -4.59633 0
M  V30 440 H 41.5218 0.299231 -4.32767 0
M  V30 441 H 42.1928 1.63145 -5.2734 0
M  V30 442 H 44.6688 2.30129 -3.4667 0
M  V30 443 H 43.5448 3.39582 -4.31249 0
M  V30 444 H 43.8058 3.58588 -2.58586 0
M  V30 445 N 42.8649 1.48995 0.513639 0
M  V30 446 C 43.7949 1.67636 1.62544 0
M  V30 447 C 44.7759 0.525087 1.61793 0
M  V30 448 O 45.9609 0.759502 1.78732 0
M  V30 449 C 43.0909 1.73114 3.01079 0
M  V30 450 C 42.0449 2.87905 3.16693 0
M  V30 451 C 41.3709 2.78486 4.56453 0
M  V30 452 C 42.6709 4.29005 2.97913 0
M  V30 453 H 44.3649 2.60716 1.47198 0
M  V30 454 H 41.9109 1.25465 0.706714 0
M  V30 455 H 43.8639 1.84742 3.78746 0
M  V30 456 H 42.5879 0.766241 3.17484 0
M  V30 457 H 41.2469 2.75859 2.41448 0
M  V30 458 H 40.8949 1.7993 4.69717 0
M  V30 459 H 40.5949 3.55523 4.67843 0
M  V30 460 H 42.1189 2.92104 5.36197 0
M  V30 461 H 43.5329 4.41798 3.65359 0
M  V30 462 H 41.9299 5.07166 3.20785 0
M  V30 463 H 42.9999 4.44329 1.94165 0
M  V30 464 N 44.343 -0.763751 1.37857 0
M  V30 465 C 45.571 -1.55293 1.36718 0
M  V30 466 C 45.986 -1.88745 -0.0455434 0
M  V30 467 O 45.343 -1.52039 -1.00947 0
M  V30 468 C 45.394 -2.85831 2.2132 0
M  V30 469 O 45.115 -2.5381 3.57089 0
M  V30 470 C 46.616 -3.80023 2.28249 0
M  V30 471 H 43.836 -0.480841 0.468009 0
M  V30 472 H 46.38 -0.946009 1.81303 0
M  V30 473 H 44.535 -3.42926 1.80223 0
M  V30 474 H 44.949 -3.37459 4.01524 0
M  V30 475 H 46.423 -4.68599 2.91752 0
M  V30 476 H 46.9 -4.1973 1.2932 0
M  V30 477 H 47.506 -3.28855 2.69693 0
M  V30 478 N 45.8211 -1.22559 -0.990812 0
M  V30 479 C 46.7841 -0.998863 -2.0629 0
M  V30 480 C 47.7841 0.0354834 -1.60761 0
M  V30 481 O 48.9741 -0.203231 -1.7301 0
M  V30 482 C 46.1061 -0.509203 -3.37076 0
M  V30 483 H 47.2991 -1.95014 -2.27837 0
M  V30 484 H 44.8521 -1.04456 -1.16269 0
M  V30 485 H 45.5871 0.446335 -3.21214 0
M  V30 486 H 45.3721 -1.25547 -3.71457 0
M  V30 487 H 46.8621 -0.370888 -4.1595 0
M  V30 488 N 47.2992 1.18797 -1.03562 0
M  V30 489 C 48.2312 2.21731 -0.580337 0
M  V30 490 C 49.2442 1.59051 0.347349 0
M  V30 491 O 50.4332 1.77929 0.142669 0
M  V30 492 C 47.5332 3.38459 0.172805 0
M  V30 493 C 46.7062 4.3072 -0.761496 0
M  V30 494 C 45.7652 5.26174 -0.0525547 0
M  V30 495 O 44.7912 5.65108 -0.681333 0
M  V30 496 N 45.9932 5.67624 1.21586 0
M  V30 497 H 48.7582 2.61417 -1.46565 0
M  V30 498 H 46.3192 1.33531 -0.915476 0
M  V30 499 H 48.3112 3.99335 0.656793 0
M  V30 500 H 46.8812 2.97507 0.959602 0
M  V30 501 H 46.1012 3.67525 -1.42544 0
M  V30 502 H 47.3892 4.89267 -1.39626 0
M  V30 503 H 46.7872 5.38038 1.74732 0
M  V30 504 H 45.3442 6.30721 1.64421 0
M  V30 505 N 48.7773 0.814389 1.34928 0
M  V30 506 C 49.6873 0.231978 2.3345 0
M  V30 507 C 50.7033 -0.629139 1.62228 0
M  V30 508 O 51.8793 -0.539052 1.94052 0
M  V30 509 C 48.9443 -0.603482 3.41407 0
M  V30 510 C 48.0053 0.279037 4.28392 0
M  V30 511 C 47.2383 -0.516643 5.31193 0
M  V30 512 O 47.4613 -1.75068 5.4287 0
M  V30 513 O 46.3953 0.0965652 6.01823 0
M  V30 514 H 50.2213 1.04721 2.85074 0
M  V30 515 H 47.8063 0.576343 1.37836 0
M  V30 516 H 49.6883 -1.07908 4.0735 0
M  V30 517 H 48.3633 -1.39618 2.92042 0
M  V30 518 H 47.2703 0.801948 3.65403 0
M  V30 519 H 48.6033 1.03588 4.81176 0
M  V30 520 N 50.2554 -1.46986 0.568584 0
M  V30 521 C 51.1884 -2.27129 -0.220779 0
M  V30 522 C 52.1664 -1.34757 -0.909905 0
M  V30 523 O 53.3504 -1.64152 -0.926622 0
M  V30 524 C 50.4774 -3.12108 -1.31553 0
M  V30 525 C 49.5234 -4.20141 -0.733748 0
M  V30 526 S 50.3564 -5.33783 0.428479 0
M  V30 527 C 51.5124 -6.22327 -0.667811 0
M  V30 528 H 51.7454 -2.93731 0.459267 0
M  V30 529 H 49.2784 -1.5026 0.355154 0
M  V30 530 H 51.2364 -3.61636 -1.94241 0
M  V30 531 H 49.8974 -2.44847 -1.96746 0
M  V30 532 H 49.0904 -4.79373 -1.5562 0
M  V30 533 H 48.6924 -3.73553 -0.182812 0
M  V30 534 H 50.9844 -6.59364 -1.55708 0
M  V30 535 H 51.9274 -7.0801 -0.11258 0
M  V30 536 H 52.3354 -5.5618 -0.965601 0
M  V30 537 N 51.7335 -0.305618 -1.54608 0
M  V30 538 C 52.6435 0.57778 -2.27374 0
M  V30 539 C 53.6595 1.14451 -1.31061 0
M  V30 540 O 54.8355 1.16831 -1.6405 0
M  V30 541 C 51.9005 1.73123 -3.00382 0
M  V30 542 C 50.9615 1.19812 -4.12242 0
M  V30 543 C 50.1945 2.2966 -4.81759 0
M  V30 544 O 50.4175 3.49651 -4.50666 0
M  V30 545 O 49.3515 1.96091 -5.69062 0
M  V30 546 H 53.1775 -0.012624 -3.03697 0
M  V30 547 H 50.7625 -0.0719184 -1.49227 0
M  V30 548 H 52.6445 2.40315 -3.4616 0
M  V30 549 H 51.3195 2.30815 -2.26949 0
M  V30 550 H 50.2265 0.491798 -3.70853 0
M  V30 551 H 51.5595 0.666566 -4.87666 0
M  V30 552 N 53.2116 1.57565 -0.0334293 0
M  V30 553 C 54.6276 1.56297 0.322997 0
M  V30 554 C 54.8276 1.03945 1.7262 0
M  V30 555 O 53.8836 0.688109 2.42943 0
M  V30 556 C 55.1966 3.00232 0.167664 0
M  V30 557 C 56.7446 3.12078 0.240107 0
M  V30 558 C 57.2196 4.57859 0.113513 0
M  V30 559 N 58.7106 4.62887 0.170359 0
M  V30 560 C 59.4456 5.73319 0.0962517 0
M  V30 561 N 58.9416 6.92794 -0.0291881 0
M  V30 562 N 60.7346 5.61898 0.150551 0
M  V30 563 H 52.8856 1.89923 -0.950956 0
M  V30 564 H 55.1486 0.873824 -0.367608 0
M  V30 565 H 54.8546 3.42501 -0.799102 0
M  V30 566 H 54.7286 3.654 0.936083 0
M  V30 567 H 57.1156 2.69718 1.19733 0
M  V30 568 H 57.1966 2.49623 -0.558763 0
M  V30 569 H 56.8406 5.009 -0.840314 0
M  V30 570 H 56.7706 5.18299 0.931302 0
M  V30 571 H 59.2616 3.76954 0.26728 0
M  V30 572 H 59.5746 7.7276 -0.0789252 0
M  V30 573 H 57.9196 6.94971 -0.0640299 0
M  V30 574 H 61.1106 4.67448 0.246981 0
M  V30 575 H 61.2836 6.47938 0.0893365 0
M  V30 576 N 54.6897 -0.239769 1.55765 0
M  V30 577 C 55.9367 -0.966801 1.7793 0
M  V30 578 C 56.2647 -1.85046 0.599015 0
M  V30 579 O 55.5197 -1.91197 -0.417395 0
M  V30 580 C 55.8187 -1.852 3.05672 0
M  V30 581 C 55.4847 -1.1231 4.36689 0
M  V30 582 C 54.1467 -0.921689 4.72291 0
M  V30 583 C 56.4987 -0.607019 5.17653 0
M  V30 584 C 53.8267 -0.191996 5.86386 0
M  V30 585 C 56.1787 0.109241 6.32506 0
M  V30 586 C 54.8427 0.322073 6.66723 0
M  V30 587 H 54.1127 -0.353778 0.651093 0
M  V30 588 H 56.7597 -0.23634 1.90036 0
M  V30 589 H 55.0647 -2.64975 2.8861 0
M  V30 590 H 56.7617 -2.41635 3.20021 0
M  V30 591 H 53.3517 -1.29004 4.08725 0
M  V30 592 H 57.5357 -0.750153 4.90598 0
M  V30 593 H 52.7917 -0.0166949 6.11398 0
M  V30 594 H 56.9657 0.516737 6.9448 0
M  V30 595 H 54.5927 0.88944 7.54979 0
M  V30 596 N 56.1678 -1.49265 -0.50573 0
M  V30 597 C 57.3958 -1.62215 -1.28429 0
M  V30 598 C 57.8108 -0.291697 -1.86533 0
M  V30 599 O 57.1678 0.722233 -1.67601 0
M  V30 600 C 57.2188 -2.68735 -2.41793 0
M  V30 601 O 56.9398 -3.96619 -1.86078 0
M  V30 602 C 58.4408 -2.92346 -3.3324 0
M  V30 603 H 55.6608 -0.546239 -0.389697 0
M  V30 604 H 58.2048 -1.95265 -0.607609 0
M  V30 605 H 56.3598 -2.38476 -3.053 0
M  V30 606 H 56.7738 -4.55256 -2.60465 0
M  V30 607 H 58.2478 -3.70623 -4.09075 0
M  V30 608 H 58.7248 -2.02081 -3.89948 0
M  V30 609 H 59.3308 -3.24003 -2.75503 0
M  V30 610 N 57.6459 0.756429 -1.3826 0
M  V30 611 C 58.8709 1.55077 -1.37717 0
M  V30 612 C 59.2959 1.88073 0.03164 0
M  V30 613 O 58.6539 1.50364 1.01293 0
M  V30 614 C 58.7019 2.8283 -2.23695 0
M  V30 615 O 57.8059 3.77862 -1.6521 0
M  V30 616 H 57.1469 0.469152 -0.469885 0
M  V30 617 H 59.6769 0.935019 -1.81985 0
M  V30 618 H 59.6869 3.31783 -2.37453 0
M  V30 619 H 58.3619 2.58144 -3.2609 0
M  V30 620 H 56.9389 3.36555 -1.60578 0
M  V30 621 N 59.124 1.23083 0.984299 0
M  V30 622 C 60.054 1.03292 2.09411 0
M  V30 623 C 61.035 -0.048923 1.7003 0
M  V30 624 O 62.22 0.114967 1.93859 0
M  V30 625 C 59.35 0.619155 3.41736 0
M  V30 626 C 58.304 1.64791 3.95004 0
M  V30 627 C 57.63 1.0897 5.23478 0
M  V30 628 C 58.93 3.03999 4.24714 0
M  V30 629 H 60.624 1.96119 2.26225 0
M  V30 630 H 58.17 0.944344 1.08711 0
M  V30 631 H 60.123 0.467777 4.18796 0
M  V30 632 H 58.847 -0.344786 3.24775 0
M  V30 633 H 57.506 1.78721 3.20085 0
M  V30 634 H 57.154 0.11686 5.02864 0
M  V30 635 H 56.854 1.77704 5.60085 0
M  V30 636 H 58.378 0.950093 6.03163 0
M  V30 637 H 59.792 2.93393 4.92538 0
M  V30 638 H 58.189 3.69936 4.72512 0
M  V30 639 H 59.259 3.53285 3.32142 0
M  V30 640 N 60.6021 -1.18246 1.0419 0
M  V30 641 C 61.5491 -2.2192 0.634037 0
M  V30 642 C 62.5191 -1.62179 -0.358765 0
M  V30 643 O 63.7041 -1.89122 -0.252466 0
M  V30 644 C 60.8441 -3.451 0.00445535 0
M  V30 645 C 59.9571 -4.19174 1.04487 0
M  V30 646 C 59.0921 -5.29813 0.383676 0
M  V30 647 C 58.1311 -5.9566 1.4091 0
M  V30 648 N 57.2681 -6.97834 0.772784 0
M  V30 649 H 62.1081 -2.56164 1.52263 0
M  V30 650 H 59.6451 -1.25843 0.761701 0
M  V30 651 H 61.6031 -4.15485 -0.377919 0
M  V30 652 H 60.2331 -3.11472 -0.847652 0
M  V30 653 H 59.2851 -3.47604 1.54518 0
M  V30 654 H 60.5971 -4.64267 1.82368 0
M  V30 655 H 59.7511 -6.06677 -0.0528366 0
M  V30 656 H 58.4901 -4.85825 -0.427208 0
M  V30 657 H 57.4951 -5.17535 1.85574 0
M  V30 658 H 58.7201 -6.4173 2.22171 0
M  V30 659 H 56.6661 -6.55998 -0.0177708 0
M  V30 660 H 56.5831 -7.41186 1.48928 0
M  V30 661 H 57.8511 -7.78665 0.36071 0
M  V30 662 N 62.0802 -0.821533 -1.34494 0
M  V30 663 C 63.3282 -0.408139 -1.97936 0
M  V30 664 C 63.6492 1.03193 -1.65457 0
M  V30 665 O 62.9192 1.71622 -0.944595 0
M  V30 666 H 61.4992 -0.147928 -0.732206 0
M  V30 667 H 64.1612 -1.05067 -1.64155 0
M  V30 668 H 63.2572 -0.52601 -3.07635 0
M  V30 669 N 63.5583 1.46682 -0.576371 0
M  V30 670 C 64.9743 1.57822 -0.237562 0
M  V30 671 C 65.1743 1.57237 1.26011 0
M  V30 672 O 64.2303 1.48596 2.04146 0
M  V30 673 C 65.5433 2.87499 -0.881168 0
M  V30 674 C 67.0913 3.01119 -0.85417 0
M  V30 675 C 67.5663 4.33524 -1.4772 0
M  V30 676 N 69.0573 4.40207 -1.44125 0
M  V30 677 C 69.7923 5.4126 -1.89276 0
M  V30 678 N 69.2883 6.49021 -2.42371 0
M  V30 679 N 71.0813 5.32422 -1.80231 0
M  V30 680 H 63.2323 1.45306 -1.54919 0
M  V30 681 H 65.4953 0.692733 -0.647167 0
M  V30 682 H 65.2013 2.9372 -1.93447 0
M  V30 683 H 65.0753 3.75224 -0.385592 0
M  V30 684 H 67.4623 2.94485 0.190491 0
M  V30 685 H 67.5433 2.14887 -1.3877 0
M  V30 686 H 67.1873 4.40916 -2.52103 0
M  V30 687 H 67.1173 5.1852 -0.918947 0
M  V30 688 H 69.6083 3.62931 -1.05307 0
M  V30 689 H 69.9213 7.2233 -2.74698 0
M  V30 690 H 68.2663 6.49858 -2.46393 0
M  V30 691 H 71.4573 4.47137 -1.38514 0
M  V30 692 H 71.6303 6.11034 -2.15735 0
M  V30 693 N 65.0364 0.313813 1.54444 0
M  V30 694 C 66.4524 -0.0391619 1.59552 0
M  V30 695 C 66.6524 -1.51322 1.33056 0
M  V30 696 O 65.7084 -2.26782 1.11022 0
M  V30 697 C 67.0214 0.370302 2.98411 0
M  V30 698 C 68.5694 0.320139 3.11358 0
M  V30 699 C 69.0444 0.704617 4.52547 0
M  V30 700 N 70.5354 0.657645 4.58508 0
M  V30 701 C 71.2704 0.927453 5.6585 0
M  V30 702 N 70.7664 1.26389 6.81174 0
M  V30 703 N 72.5594 0.853662 5.5558 0
M  V30 704 H 64.7104 1.27433 1.69925 0
M  V30 705 H 66.9734 0.517511 0.794284 0
M  V30 706 H 66.6794 1.39694 3.22767 0
M  V30 707 H 66.5534 -0.269619 3.76235 0
M  V30 708 H 68.9404 -0.697275 2.86744 0
M  V30 709 H 69.0214 0.99486 2.35661 0
M  V30 710 H 68.6654 1.7199 4.77893 0
M  V30 711 H 68.5954 0.00768843 5.26599 0
M  V30 712 H 71.0864 0.409067 3.75679 0
M  V30 713 H 71.3994 1.4554 7.58972 0
M  V30 714 H 69.7444 1.30206 6.82694 0
M  V30 715 H 72.9354 0.590383 4.64362 0
M  V30 716 H 73.1084 1.0673 6.3915 0
M  V30 717 N 66.5145 -1.57545 0.0417849 0
M  V30 718 C 67.4465 -2.07904 -0.964799 0
M  V30 719 C 68.4595 -1.00497 -1.28079 0
M  V30 720 O 69.6485 -1.28087 -1.24322 0
M  V30 721 C 66.7485 -2.49928 -2.28887 0
M  V30 722 C 65.9215 -3.80562 -2.15619 0
M  V30 723 C 64.9805 -4.08999 -3.31069 0
M  V30 724 O 64.0065 -4.79061 -3.0739 0
M  V30 725 N 65.2085 -3.6017 -4.55256 0
M  V30 726 H 67.9735 -2.94886 -0.535029 0
M  V30 727 H 65.5345 -1.61252 -0.144681 0
M  V30 728 H 67.5265 -2.66034 -3.04972 0
M  V30 729 H 66.0965 -1.68245 -2.63463 0
M  V30 730 H 65.3165 -3.74129 -1.24183 0
M  V30 731 H 66.6045 -4.66126 -2.03971 0
M  V30 732 H 66.0025 -3.03512 -4.77386 0
M  V30 733 H 64.5595 -3.81532 -5.28466 0
M  V30 734 N 67.9926 0.231505 -1.5589 0
M  V30 735 C 69.2416 0.955346 -1.7764 0
M  V30 736 C 69.5546 1.85893 -0.608546 0
M  V30 737 O 70.7606 2.62067 -0.70943 0
M  V30 738 C 69.2166 1.74886 -3.14552 0
M  V30 739 C 68.8246 0.891915 -4.39032 0
M  V30 740 C 70.5686 2.46452 -3.45633 0
M  V30 741 C 68.4756 1.68221 -5.66971 0
M  V30 742 H 67.4056 0.360446 -0.662265 0
M  V30 743 H 70.0566 0.209516 -1.823 0
M  V30 744 H 68.4386 2.53723 -3.04041 0
M  V30 745 H 69.6126 0.144793 -4.60572 0
M  V30 746 H 67.9276 0.288863 -4.15397 0
M  V30 747 H 70.5246 3.06061 -4.38441 0
M  V30 748 H 70.8676 3.18841 -2.67668 0
M  V30 749 H 71.4006 1.74613 -3.57428 0
M  V30 750 H 68.1396 1.00178 -6.478 0
M  V30 751 H 67.6596 2.4042 -5.49507 0
M  V30 752 H 69.3386 2.24544 -6.06786 0
M  V30 753 N 69.4707 1.49531 0.497807 0
M  V30 754 C 70.3807 1.69176 1.62532 0
M  V30 755 C 71.3967 0.5744 1.64246 0
M  V30 756 O 72.5727 0.849497 1.82608 0
M  V30 757 C 69.6377 1.75695 2.98885 0
M  V30 758 C 68.6987 2.9929 3.07773 0
M  V30 759 C 67.9317 3.05488 4.37622 0
M  V30 760 O 68.1547 2.19192 5.26603 0
M  V30 761 O 67.0887 3.9798 4.51548 0
M  V30 762 H 70.9147 2.647 1.48887 0
M  V30 763 H 68.4997 1.3331 0.674441 0
M  V30 764 H 70.3817 1.82317 3.79919 0
M  V30 765 H 69.0567 0.8335 3.12785 0
M  V30 766 H 67.9637 2.98183 2.25915 0
M  V30 767 H 69.2967 3.91125 2.98801 0
M  V30 768 N 70.9488 -0.749086 1.3866 0
M  V30 769 C 72.1788 -1.53611 1.38157 0
M  V30 770 C 72.5868 -1.89177 -0.0293595 0
M  V30 771 O 71.9298 -1.53606 -1.00752 0
M  V30 772 C 71.9918 -2.86087 2.17702 0
M  V30 773 C 71.6558 -2.73034 3.66472 0
M  V30 774 C 72.6528 -2.42526 4.59866 0
M  V30 775 C 70.3378 -2.90345 4.09884 0
M  V30 776 C 72.3318 -2.29492 5.94653 0
M  V30 777 C 70.0188 -2.7693 5.4475 0
M  V30 778 C 71.0168 -2.46547 6.36949 0
M  V30 779 O 70.7048 -2.33199 7.69333 0
M  V30 780 H 70.4368 -0.481773 0.474205 0
M  V30 781 H 72.9908 -0.934465 1.82912 0
M  V30 782 H 71.2208 -3.48458 1.67672 0
M  V30 783 H 72.9098 -3.47625 2.09551 0
M  V30 784 H 73.6758 -2.28816 4.27631 0
M  V30 785 H 69.5548 -3.1299 3.38464 0
M  V30 786 H 73.0988 -2.05698 6.66584 0
M  V30 787 H 68.9958 -2.90215 5.76581 0
M  V30 788 H 69.7638 -2.48376 7.79905 0
M  V30 789 N 72.4269 -1.23603 -0.977757 0
M  V30 790 C 73.3569 -1.04401 -2.0886 0
M  V30 791 C 74.3379 0.0399052 -1.70053 0
M  V30 792 O 75.5229 -0.125246 -1.93796 0
M  V30 793 C 72.6529 -0.637269 -3.41403 0
M  V30 794 C 71.6069 -1.66883 -3.94124 0
M  V30 795 C 70.9329 -1.11745 -5.22893 0
M  V30 796 C 72.2329 -3.06247 -4.23096 0
M  V30 797 H 73.9269 -1.97316 -2.25182 0
M  V30 798 H 71.4729 -0.950096 -1.08209 0
M  V30 799 H 73.4259 -0.48998 -4.18542 0
M  V30 800 H 72.1499 0.327557 -3.24953 0
M  V30 801 H 70.8089 -1.80416 -3.19133 0
M  V30 802 H 70.4569 -0.143527 -5.02795 0
M  V30 803 H 70.1569 -1.80672 -5.59134 0
M  V30 804 H 71.6809 -0.982067 -6.02651 0
M  V30 805 H 73.0949 -2.96001 -4.90975 0
M  V30 806 H 71.4919 -3.72436 -4.70544 0
M  V30 807 H 72.5619 -3.55041 -3.30263 0
M  V30 808 N 73.905 1.17692 -1.04816 0
M  V30 809 C 74.868 2.19787 -0.650117 0
M  V30 810 C 75.868 1.58044 0.296427 0
M  V30 811 O 77.058 1.74012 0.0808097 0
M  V30 812 C 74.19 3.40869 0.0456987 0
M  V30 813 H 75.383 2.56516 -1.5537 0
M  V30 814 H 72.936 1.31708 -0.841594 0
M  V30 815 H 73.671 3.09681 0.962726 0
M  V30 816 H 73.456 3.86928 -0.634727 0
M  V30 817 H 74.946 4.16445 0.310432 0
M  V30 818 N 75.3831 0.828654 1.34056 0
M  V30 819 C 76.6311 0.41863 1.97717 0
M  V30 820 C 76.9521 -1.02314 1.66002 0
M  V30 821 O 76.2221 -1.71119 0.953683 0
M  V30 822 H 74.8021 0.151809 0.731412 0
M  V30 823 H 77.4641 1.05936 1.63596 0
M  V30 824 H 76.5601 0.542318 3.07352 0
M  V30 825 N 76.8612 -1.46375 0.584142 0
M  V30 826 C 78.2772 -1.57694 0.245929 0
M  V30 827 C 78.4772 -1.57903 -1.25175 0
M  V30 828 O 77.5332 -1.49676 -2.03355 0
M  V30 829 C 78.8462 -2.87028 0.896402 0
M  V30 830 C 80.3942 -3.00662 0.870127 0
M  V30 831 C 80.8692 -4.32734 1.50017 0
M  V30 832 N 82.3602 -4.39436 1.46458 0
M  V30 833 C 83.0952 -5.40248 1.92144 0
M  V30 834 N 82.5912 -6.47726 2.4581 0
M  V30 835 N 84.3842 -5.31459 1.83052 0
M  V30 836 H 76.5352 -1.44483 1.55687 0
M  V30 837 H 78.7982 -0.689291 0.650831 0
M  V30 838 H 78.5042 -2.9269 1.95002 0
M  V30 839 H 78.3782 -3.75014 0.405486 0
M  V30 840 H 80.7652 -2.94581 -0.174871 0
M  V30 841 H 80.8462 -2.14148 1.39908 0
M  V30 842 H 80.4902 -4.39573 2.54437 0
M  V30 843 H 80.4202 -5.18025 0.946432 0
M  V30 844 H 82.9112 -3.62367 1.07231 0
M  V30 845 H 83.2242 -7.20863 2.78525 0
M  V30 846 H 81.5692 -6.48542 2.49836 0
M  V30 847 H 84.7602 -4.46396 1.40883 0
M  V30 848 H 84.9332 -6.09881 2.18973 0
M  V30 849 N 78.3393 -0.321999 -1.54275 0
M  V30 850 C 79.5853 0.274234 -2.01543 0
M  V30 851 C 79.9403 1.499 -1.20614 0
M  V30 852 O 79.2333 1.89546 -0.279804 0
M  V30 853 C 79.4273 0.661769 -3.5122 0
M  V30 854 C 79.2563 -0.523892 -4.46638 0
M  V30 855 C 78.0263 -1.02251 -4.94846 0
M  V30 856 C 80.2243 -1.37558 -4.95563 0
M  V30 857 N 78.2063 -2.17274 -5.74165 0
M  V30 858 C 79.5773 -2.37301 -5.7279 0
M  V30 859 C 81.6323 -1.40353 -4.77709 0
M  V30 860 C 80.3353 -3.3964 -6.34064 0
M  V30 861 C 82.3613 -2.41562 -5.39817 0
M  V30 862 C 81.7233 -3.40031 -6.16894 0
M  V30 863 H 77.8223 0.0642367 -0.779357 0
M  V30 864 H 80.4063 -0.456683 -1.89268 0
M  V30 865 H 78.5773 1.36182 -3.63743 0
M  V30 866 H 80.3093 1.23934 -3.85256 0
M  V30 867 H 77.0643 -0.594046 -4.6986 0
M  V30 868 H 77.4883 -2.75289 -6.18502 0
M  V30 869 H 82.1303 -0.655907 -4.17681 0
M  V30 870 H 79.8483 -4.15309 -6.93213 0
M  V30 871 H 83.4343 -2.44524 -5.2792 0
M  V30 872 H 82.3143 -4.17063 -6.64099 0
M  V30 873 N 79.8174 1.5752 -0.0501392 0
M  V30 874 C 81.0424 1.97376 0.636997 0
M  V30 875 C 81.4674 0.927466 1.63645 0
M  V30 876 O 80.8254 -0.10941 1.8097 0
M  V30 877 C 80.8734 3.36304 1.30123 0
M  V30 878 O 79.9774 3.34156 2.41689 0
M  V30 879 H 79.3184 0.642998 0.165679 0
M  V30 880 H 81.8484 2.04258 -0.118233 0
M  V30 881 H 81.8584 3.73008 1.65315 0
M  V30 882 H 80.5334 4.11993 0.568746 0
M  V30 883 H 79.1104 3.09196 2.08451 0
M  V30 884 N 81.2955 -0.223234 1.56011 0
M  V30 885 C 82.2585 -1.26014 1.9145 0
M  V30 886 C 83.2585 -1.3989 0.792937 0
M  V30 887 O 84.4485 -1.38184 1.0607 0
M  V30 888 C 81.5805 -2.63422 2.16383 0
M  V30 889 H 82.7735 -0.95796 2.84189 0
M  V30 890 H 80.3265 -0.463576 1.49267 0
M  V30 891 H 81.0615 -2.98741 1.2619 0
M  V30 892 H 80.8465 -2.54728 2.98088 0
M  V30 893 H 82.3365 -3.38249 2.44903 0
M  V30 894 N 82.7736 -1.49793 -0.48987 0
M  V30 895 C 83.7206 -1.67281 -1.59014 0
M  V30 896 C 84.6906 -0.514177 -1.57941 0
M  V30 897 O 85.8756 -0.742533 -1.75759 0
M  V30 898 C 83.0156 -1.75569 -2.97102 0
M  V30 899 C 82.1286 -3.0281 -3.08107 0
M  V30 900 C 81.2636 -3.02008 -4.36995 0
M  V30 901 C 80.3026 -4.23782 -4.41673 0
M  V30 902 N 79.4396 -4.20826 -5.62005 0
M  V30 903 H 84.2796 -2.61224 -1.43409 0
M  V30 904 H 81.8166 -1.29508 -0.697565 0
M  V30 905 H 83.7746 -1.78354 -3.77155 0
M  V30 906 H 82.4046 -0.850827 -3.11385 0
M  V30 907 H 81.4566 -3.09584 -2.21047 0
M  V30 908 H 82.7686 -3.92801 -3.07423 0
M  V30 909 H 81.9226 -3.03418 -5.25378 0
M  V30 910 H 80.6616 -2.09815 -4.4026 0
M  V30 911 H 79.6666 -4.22604 -3.5169 0
M  V30 912 H 80.8916 -5.17181 -4.40115 0
M  V30 913 H 78.8376 -3.31476 -5.66091 0
M  V30 914 H 78.7546 -5.04564 -5.62984 0
M  V30 915 H 80.0226 -4.26355 -6.52565 0
M  V30 916 N 84.2517 0.741722 -1.39055 0
M  V30 917 C 85.1617 1.88621 -1.39496 0
M  V30 918 C 86.1777 1.71557 -0.290578 0
M  V30 919 O 87.3537 1.94275 -0.530954 0
M  V30 920 C 84.4187 3.24134 -1.23037 0
M  V30 921 C 83.4797 3.5364 -2.43387 0
M  V30 922 C 82.7127 4.82687 -2.27703 0
M  V30 923 O 82.9357 5.55922 -1.27696 0
M  V30 924 O 81.8697 5.1194 -3.16545 0
M  V30 925 H 85.6957 1.91203 -2.35956 0
M  V30 926 H 83.2807 0.888625 -1.20099 0
M  V30 927 H 85.1627 4.0513 -1.15964 0
M  V30 928 H 83.8377 3.22337 -0.296691 0
M  V30 929 H 82.7447 2.72758 -2.56035 0
M  V30 930 H 84.0777 3.60209 -3.35425 0
M  V30 931 N 85.7298 1.2412 0.971189 0
M  V30 932 C 86.6928 1.03156 2.04674 0
M  V30 933 C 87.6928 -0.00990322 1.60797 0
M  V30 934 O 88.8828 0.230729 1.72665 0
M  V30 935 C 86.0148 0.562765 3.36223 0
M  V30 936 H 87.2078 1.98614 2.24705 0
M  V30 937 H 84.7608 1.06293 1.14593 0
M  V30 938 H 85.4958 -0.395176 3.21883 0
M  V30 939 H 85.2808 1.31441 3.69413 0
M  V30 940 H 86.7708 0.437015 4.15307 0
M  V30 941 N 87.2079 -1.17134 1.05439 0
M  V30 942 C 88.4549 -1.87456 0.765942 0
M  V30 943 C 88.7829 -1.81189 -0.707153 0
M  V30 944 O 88.0379 -1.21633 -1.5331 0
M  V30 945 C 88.3369 -3.36833 1.19491 0
M  V30 946 C 88.0029 -3.63301 2.67063 0
M  V30 947 C 86.6649 -3.70234 3.07376 0
M  V30 948 C 89.0169 -3.74575 3.62413 0
M  V30 949 C 86.3449 -3.85933 4.41896 0
M  V30 950 C 88.6969 -3.91793 4.9667 0
M  V30 951 C 87.3609 -3.96966 5.36633 0
M  V30 952 H 86.6309 -0.685948 0.280278 0
M  V30 953 H 89.2779 -1.38556 1.32192 0
M  V30 954 H 87.5829 -3.87807 0.557969 0
M  V30 955 H 89.2799 -3.89611 0.948893 0
M  V30 956 H 85.8699 -3.58532 2.34846 0
M  V30 957 H 90.0539 -3.68537 3.32406 0
M  V30 958 H 85.3099 -3.88187 4.72357 0
M  V30 959 H 89.4839 -3.99458 5.70444 0
M  V30 960 H 87.1109 -4.08883 6.40874 0
M  V30 961 N 88.686 -0.835752 -1.33615 0
M  V30 962 C 89.911 -0.442389 -2.02627 0
M  V30 963 C 90.336 0.947735 -1.62479 0
M  V30 964 O 89.694 1.61907 -0.815826 0
M  V30 965 C 89.742 -0.567216 -3.56111 0
M  V30 966 O 88.846 0.407799 -4.10379 0
M  V30 967 H 88.187 -0.180278 -0.639059 0
M  V30 968 H 90.717 -1.12972 -1.70583 0
M  V30 969 H 90.727 -0.447708 -4.05536 0
M  V30 970 H 89.402 -1.58103 -3.84677 0
M  V30 971 H 87.979 0.246107 -3.72087 0
M  V30 972 N 90.1641 1.46063 -0.591896 0
M  V30 973 C 91.1111 2.30399 0.136069 0
M  V30 974 C 92.0811 1.41169 0.875238 0
M  V30 975 O 93.2661 1.70112 0.86409 0
M  V30 976 C 90.4061 3.25804 1.13781 0
M  V30 977 C 89.5191 4.30134 0.401137 0
M  V30 978 C 88.6541 5.12659 1.39121 0
M  V30 979 C 87.6931 6.0873 0.641462 0
M  V30 980 N 86.8301 6.8409 1.58004 0
M  V30 981 H 91.6701 2.92118 -0.589144 0
M  V30 982 H 89.2071 1.43959 -0.302342 0
M  V30 983 H 91.1651 3.79569 1.73156 0
M  V30 984 H 89.7951 2.65872 1.83062 0
M  V30 985 H 88.8471 3.79152 -0.307826 0
M  V30 986 H 90.1591 4.98458 -0.184565 0
M  V30 987 H 89.3131 5.70747 2.05749 0
M  V30 988 H 88.0521 4.44316 2.01084 0
M  V30 989 H 87.0571 5.49786 -0.0385419 0
M  V30 990 H 88.2821 6.79095 0.0270945 0
M  V30 991 H 86.2281 6.18449 2.18761 0
M  V30 992 H 86.1451 7.48709 1.04738 0
M  V30 993 H 87.4131 7.4673 2.23639 0
M  V30 994 N 91.6422 0.330177 1.54103 0
M  V30 995 C 92.6052 -0.520144 2.2322 0
M  V30 996 C 93.6052 -1.03828 1.22786 0
M  V30 997 O 94.7952 -0.929652 1.4732 0
M  V30 998 C 91.9272 -1.72317 2.94142 0
M  V30 999 H 93.1202 0.0841605 2.99782 0
M  V30 1000 H 90.6732 0.0813433 1.56088 0
M  V30 1001 H 91.4082 -2.36653 2.21734 0
M  V30 1002 H 91.1932 -1.35898 3.67796 0
M  V30 1003 H 92.6832 -2.3266 3.46784 0
M  V30 1004 N 93.1203 -1.57491 0.0584922 0
M  V30 1005 C 94.0533 -2.07533 -0.948969 0
M  V30 1006 C 95.0313 -0.977444 -1.29942 0
M  V30 1007 O 96.2153 -1.2499 -1.41102 0
M  V30 1008 C 93.3423 -2.52192 -2.2609 0
M  V30 1009 C 92.3883 -3.73287 -2.06298 0
M  V30 1010 S 93.2213 -5.18603 -1.33459 0
M  V30 1011 C 94.3773 -5.66583 -2.65959 0
M  V30 1012 H 94.6103 -2.92662 -0.523118 0
M  V30 1013 H 92.1433 -1.53631 -0.153954 0
M  V30 1014 H 94.1013 -2.78585 -3.01498 0
M  V30 1015 H 92.7623 -1.67356 -2.65802 0
M  V30 1016 H 91.9553 -4.0248 -3.03357 0
M  V30 1017 H 91.5573 -3.47199 -1.39029 0
M  V30 1018 H 93.8493 -5.72616 -3.62101 0
M  V30 1019 H 94.7923 -6.65684 -2.41393 0
M  V30 1020 H 95.2003 -4.94342 -2.72554 0
M  V30 1021 N 94.5984 0.214957 -1.56127 0
M  V30 1022 C 95.8464 0.936518 -1.79091 0
M  V30 1023 C 96.1674 1.84606 -0.628148 0
M  V30 1024 O 95.4374 1.92664 0.35462 0
M  V30 1025 H 94.0174 0.3488 -0.660566 0
M  V30 1026 H 96.6794 0.22523 -1.93594 0
M  V30 1027 H 95.7754 1.53943 -2.71492 0
M  V30 1028 N 96.0765 1.50051 0.48192 0
M  V30 1029 C 97.3045 1.64237 1.25832 0
M  V30 1030 C 97.7195 0.321336 1.86045 0
M  V30 1031 O 97.0765 -0.695478 1.68729 0
M  V30 1032 C 97.1275 2.72548 2.37487 0
M  V30 1033 O 96.8485 3.99529 1.79745 0
M  V30 1034 C 98.3495 2.9761 3.28547 0
M  V30 1035 H 95.5695 0.55237 0.380957 0
M  V30 1036 H 98.1135 1.96207 0.576467 0
M  V30 1037 H 96.2685 2.43303 3.01467 0
M  V30 1038 H 96.6825 4.59342 2.5319 0
M  V30 1039 H 98.1565 3.77084 4.03127 0
M  V30 1040 H 98.6335 2.0826 3.86684 0
M  V30 1041 H 99.2395 3.28345 2.70314 0
M  V30 1042 N 97.5546 -0.734337 1.39446 0
M  V30 1043 C 98.8026 -1.49096 1.36436 0
M  V30 1044 C 99.1236 -1.94961 -0.0388255 0
M  V30 1045 O 98.3936 -1.69033 -0.990191 0
M  V30 1046 H 96.9736 -0.5531 0.502085 0
M  V30 1047 H 99.6356 -0.871725 1.74319 0
M  V30 1048 H 98.7316 -2.37276 2.02747 0
M  V30 1049 N 99.0327 -1.24633 -0.964593 0
M  V30 1050 C 100.282 -1.08188 -1.7023 0
M  V30 1051 C 100.595 0.37873 -1.91898 0
M  V30 1052 O 101.801 0.663427 -2.6327 0
M  V30 1053 C 100.257 -1.88773 -3.06419 0
M  V30 1054 C 99.8647 -3.39263 -2.92582 0
M  V30 1055 C 101.609 -1.80867 -3.84041 0
M  V30 1056 C 99.5157 -4.1218 -4.24101 0
M  V30 1057 H 98.4457 -0.401245 -0.638372 0
M  V30 1058 H 101.097 -1.48742 -1.07462 0
M  V30 1059 H 99.4787 -1.41035 -3.70034 0
M  V30 1060 H 100.653 -3.94603 -2.37961 0
M  V30 1061 H 98.9677 -3.48154 -2.28424 0
M  V30 1062 H 101.565 -2.32646 -4.81435 0
M  V30 1063 H 101.908 -0.774543 -4.09031 0
M  V30 1064 H 102.441 -2.26301 -3.27159 0
M  V30 1065 H 99.1797 -5.15965 -4.04303 0
M  V30 1066 H 98.6997 -3.61626 -4.78526 0
M  V30 1067 H 100.379 -4.19349 -4.92702 0
M  V30 1068 N 100.511 1.16574 -1.06058 0
M  V30 1069 C 101.736 1.91493 -0.796562 0
M  V30 1070 C 102.161 1.76773 0.642868 0
M  V30 1071 O 101.519 1.09142 1.44768 0
M  V30 1072 C 101.567 3.40293 -1.19303 0
M  V30 1073 O 100.671 4.11074 -0.330394 0
M  V30 1074 H 100.012 0.596678 -0.291326 0
M  V30 1075 H 102.542 1.47708 -1.41575 0
M  V30 1076 H 102.552 3.91057 -1.16356 0
M  V30 1077 H 101.227 3.50326 -2.24153 0
M  V30 1078 H 99.8038 3.70513 -0.421225 0
M  V30 1079 N 101.989 0.842826 1.3317 0
M  V30 1080 C 102.936 0.276885 2.29133 0
M  V30 1081 C 103.906 -0.609527 1.54512 0
M  V30 1082 O 105.091 -0.546955 1.82792 0
M  V30 1083 C 102.231 -0.538707 3.40869 0
M  V30 1084 C 101.344 0.372169 4.30394 0
M  V30 1085 C 100.479 -0.454908 5.29249 0
M  V30 1086 C 99.5179 0.45411 6.10413 0
M  V30 1087 N 98.6549 -0.335075 7.013 0
M  V30 1088 H 103.495 1.10052 2.76934 0
M  V30 1089 H 101.032 0.554161 1.36262 0
M  V30 1090 H 102.99 -1.02709 4.0436 0
M  V30 1091 H 101.62 -1.32727 2.9425 0
M  V30 1092 H 100.672 0.97888 3.6759 0
M  V30 1093 H 101.984 1.0703 4.87182 0
M  V30 1094 H 101.138 -1.00695 5.98285 0
M  V30 1095 H 99.8769 -1.18646 4.73048 0
M  V30 1096 H 98.8819 1.01813 5.40291 0
M  V30 1097 H 100.107 1.18409 6.68697 0
M  V30 1098 H 98.0529 -1.04994 6.47543 0
M  V30 1099 H 97.9699 0.304262 7.55387 0
M  V30 1100 H 99.2379 -0.869224 7.74638 0
M  V30 1101 N 103.467 -1.45747 0.599634 0
M  V30 1102 C 104.397 -2.33235 -0.111306 0
M  V30 1103 C 105.378 -1.46359 -0.866781 0
M  V30 1104 O 106.563 -1.75146 -0.838904 0
M  V30 1105 C 103.693 -3.28932 -1.11451 0
M  V30 1106 C 102.647 -4.25381 -0.472772 0
M  V30 1107 C 101.973 -5.1071 -1.58365 0
M  V30 1108 C 103.273 -5.18831 0.600948 0
M  V30 1109 H 104.967 -2.92927 0.61919 0
M  V30 1110 H 102.513 -1.40857 0.299215 0
M  V30 1111 H 104.466 -3.89002 -1.62036 0
M  V30 1112 H 103.19 -2.67381 -1.8755 0
M  V30 1113 H 101.849 -3.66598 0.0121472 0
M  V30 1114 H 101.497 -4.45533 -2.33473 0
M  V30 1115 H 101.197 -5.7604 -1.15982 0
M  V30 1116 H 102.721 -5.73647 -2.09194 0
M  V30 1117 H 104.135 -5.73019 0.179491 0
M  V30 1118 H 102.532 -5.92595 0.946076 0
M  V30 1119 H 103.602 -4.6174 1.48068 0
M  V30 1120 N 104.945 -0.338344 -1.53925 0
M  V30 1121 C 106.193 0.259245 -2.0043 0
M  V30 1122 C 106.514 1.51484 -1.22791 0
M  V30 1123 O 105.784 1.93037 -0.33368 0
M  V30 1124 H 104.364 0.0987845 -0.740439 0
M  V30 1125 H 107.026 -0.458302 -1.89435 0
M  V30 1126 H 106.122 0.505334 -3.07982 0
M  V30 1127 N 106.423 1.57458 -0.0668435 0
M  V30 1128 C 107.67 1.93301 0.603406 0
M  V30 1129 C 107.998 0.946486 1.69917 0
M  V30 1130 O 107.253 -0.0387021 1.95662 0
M  V30 1131 C 107.552 3.35784 1.22409 0
M  V30 1132 C 107.218 4.50179 0.254955 0
M  V30 1133 C 105.88 4.81199 -0.0116746 0
M  V30 1134 C 108.232 5.19598 -0.408338 0
M  V30 1135 C 105.56 5.78978 -0.94877 0
M  V30 1136 C 107.912 6.18381 -1.33372 0
M  V30 1137 C 106.576 6.47821 -1.60887 0
M  V30 1138 H 105.846 0.707338 0.220802 0
M  V30 1139 H 108.493 1.91012 -0.136665 0
M  V30 1140 H 106.798 3.34515 2.03978 0
M  V30 1141 H 108.495 3.60804 1.74989 0
M  V30 1142 H 105.085 4.25983 0.472954 0
M  V30 1143 H 109.269 4.95832 -0.215456 0
M  V30 1144 H 104.525 6.00115 -1.16925 0
M  V30 1145 H 108.699 6.71277 -1.85367 0
M  V30 1146 H 106.326 7.23399 -2.33661 0
M  V30 1147 N 107.901 -0.206675 1.56239 0
M  V30 1148 C 108.833 -1.27997 1.9013 0
M  V30 1149 C 109.846 -1.42299 0.790883 0
M  V30 1150 O 111.035 -1.42931 1.06925 0
M  V30 1151 C 108.135 -2.65368 2.10792 0
M  V30 1152 C 107.308 -2.72824 3.41886 0
M  V30 1153 C 106.367 -3.9131 3.51799 0
M  V30 1154 O 105.393 -3.78953 4.24716 0
M  V30 1155 N 106.595 -5.06265 2.84035 0
M  V30 1156 H 109.36 -0.992444 2.82791 0
M  V30 1157 H 106.921 -0.396652 1.56966 0
M  V30 1158 H 108.913 -3.43039 2.14724 0
M  V30 1159 H 107.483 -2.86657 1.24685 0
M  V30 1160 H 106.703 -1.81515 3.49923 0
M  V30 1161 H 107.991 -2.74786 4.28217 0
M  V30 1162 H 107.389 -5.19203 2.246 0
M  V30 1163 H 105.946 -5.81925 2.93609 0
M  V30 1164 N 109.379 -1.50304 -0.473955 0
M  V30 1165 C 110.656 -1.51667 -1.23518 0
M  V30 1166 C 111.036 -0.259701 -2.09496 0
M  V30 1167 O 110.384 0.756986 -2.15597 0
M  V30 1168 C 110.594 -2.81082 -2.06868 0
M  V30 1169 C 111.942 -3.31631 -2.65153 0
M  V30 1170 O 112.966 -2.82384 -2.17113 0
M  V30 1171 O 111.825 -4.17471 -3.52675 0
M  V30 1172 H 108.919 -0.60822 -0.560355 0
M  V30 1173 H 111.465 -1.62592 -0.486011 0
M  V30 1174 H 110.237 -3.64041 -1.4349 0
M  V30 1175 H 109.86 -2.73146 -2.88924 0
M  V30 1176 N 110.857 0.726932 -1.39834 0
M  V30 1177 C 111.787 1.85405 -1.41941 0
M  V30 1178 C 112.768 1.67751 -0.281728 0
M  V30 1179 O 113.953 1.8795 -0.488717 0
M  V30 1180 C 111.083 3.23243 -1.2701 0
M  V30 1181 C 110.037 3.55549 -2.38262 0
M  V30 1182 C 109.363 4.9241 -2.08415 0
M  V30 1183 C 110.663 3.577 -3.80589 0
M  V30 1184 H 112.357 1.83899 -2.36266 0
M  V30 1185 H 109.903 0.883349 -1.13723 0
M  V30 1186 H 111.856 4.01775 -1.27103 0
M  V30 1187 H 110.58 3.25296 -0.291564 0
M  V30 1188 H 109.239 2.79351 -2.37399 0
M  V30 1189 H 108.887 4.91052 -1.0898 0
M  V30 1190 H 108.587 5.14992 -2.82943 0
M  V30 1191 H 110.111 5.73289 -2.10171 0
M  V30 1192 H 111.525 4.26293 -3.83337 0
M  V30 1193 H 109.922 3.91804 -4.54543 0
M  V30 1194 H 110.992 2.57328 -4.10987 0
M  V30 1195 N 112.336 1.25143 0.95797 0
M  V30 1196 C 113.246 1.06968 2.08794 0
M  V30 1197 C 114.262 0.00773911 1.73998 0
M  V30 1198 O 115.438 0.207972 2.00323 0
M  V30 1199 C 112.503 0.68691 3.39827 0
M  V30 1200 C 111.564 1.82641 3.88511 0
M  V30 1201 C 110.797 1.46181 5.1329 0
M  V30 1202 O 111.02 0.355971 5.69288 0
M  V30 1203 O 109.954 2.29085 5.566 0
M  V30 1204 H 113.78 2.01723 2.27027 0
M  V30 1205 H 111.365 1.04051 1.07209 0
M  V30 1206 H 113.247 0.485417 4.18595 0
M  V30 1207 H 111.922 -0.231417 3.22872 0
M  V30 1208 H 110.829 2.08274 3.10762 0
M  V30 1209 H 112.162 2.72386 4.09959 0
M  V30 1210 N 113.814 -1.1601 1.06675 0
M  V30 1211 C 115.06 -1.86909 0.786945 0
M  V30 1212 C 115.393 -1.81717 -0.685018 0
M  V30 1213 O 114.668 -1.23551 -1.50218 0
M  V30 1214 C 114.951 -3.36313 1.28707 0
M  V30 1215 C 114.804 -3.50175 2.82308 0
M  V30 1216 C 116.123 -4.3084 0.898071 0
M  V30 1217 H 113.242 -0.678677 0.287343 0
M  V30 1218 H 115.884 -1.36336 1.32334 0
M  V30 1219 H 114.034 -3.79513 0.830768 0
M  V30 1220 H 115.706 -3.15886 3.36175 0
M  V30 1221 H 113.949 -2.91959 3.20847 0
M  V30 1222 H 114.62 -4.55116 3.12368 0
M  V30 1223 H 117.096 -3.95561 1.29114 0
M  V30 1224 H 115.972 -5.33876 1.27543 0
M  V30 1225 H 116.233 -4.41662 -0.196651 0
M  V30 1226 N 115.292 -0.849877 -1.32721 0
M  V30 1227 C 116.222 -0.306308 -2.31482 0
M  V30 1228 C 117.203 0.591952 -1.59468 0
M  V30 1229 O 118.388 0.513199 -1.87296 0
M  V30 1230 C 115.518 0.510204 -3.43532 0
M  V30 1231 C 114.472 -0.293209 -4.26994 0
M  V30 1232 C 113.798 0.647743 -5.30762 0
M  V30 1233 C 115.098 -1.51634 -4.99804 0
M  V30 1234 H 116.792 -1.13153 -2.77195 0
M  V30 1235 H 114.338 -0.545553 -1.33266 0
M  V30 1236 H 116.291 0.900856 -4.11658 0
M  V30 1237 H 115.015 1.36874 -2.96535 0
M  V30 1238 H 113.674 -0.665555 -3.60508 0
M  V30 1239 H 113.322 1.50299 -4.8002 0
M  V30 1240 H 113.022 0.11422 -5.87489 0
M  V30 1241 H 114.546 1.03567 -6.01753 0
M  V30 1242 H 115.96 -1.19824 -5.60638 0
M  V30 1243 H 114.357 -1.98745 -5.66234 0
M  V30 1244 H 115.427 -2.28018 -4.27943 0
M  V30 1245 N 116.77 1.45427 -0.607355 0
M  V30 1246 C 117.718 2.32269 0.12411 0
M  V30 1247 C 118.712 1.45955 0.859854 0
M  V30 1248 O 119.918 1.6244 0.775447 0
M  V30 1249 H 116.293 0.749691 0.0588839 0
M  V30 1250 H 118.264 2.91743 -0.626762 0
M  V30 1251 C 117.013 3.29567 1.1082 0
M  V30 1252 H 116.336 3.95978 0.551492 0
M  V30 1253 H 117.776 3.93061 1.58995 0
M  V30 1254 C 116.235 2.56722 2.18164 0
M  V30 1255 O 116.765 2.34842 3.25902 0
M  V30 1256 N 114.971 2.16861 1.93442 0
M  V30 1257 H 114.518 2.34855 1.05834 0
M  V30 1258 H 114.476 1.68444 2.65469 0
M  V30 1259 N 118.248 0.346503 1.53744 0
M  V30 1260 C 119.196 -0.52422 2.26616 0
M  V30 1261 C 120.19 -1.09948 1.28871 0
M  V30 1262 O 121.396 -1.04488 1.46568 0
M  V30 1263 H 117.771 -0.187743 0.728187 0
M  V30 1264 H 119.742 0.11239 2.98188 0
M  V30 1265 C 118.491 -1.66186 3.05414 0
M  V30 1266 H 117.814 -1.22848 3.80458 0
M  V30 1267 H 119.254 -2.24622 3.59612 0
M  V30 1268 C 117.713 -2.59302 2.1509 0
M  V30 1269 O 118.243 -3.61628 1.74895 0
M  V30 1270 N 116.449 -2.28055 1.8011 0
M  V30 1271 H 115.996 -1.44883 2.12994 0
M  V30 1272 H 115.954 -2.90615 1.19958 0
M  V30 1273 N 119.726 -1.57421 0.075193 0
M  V30 1274 C 120.636 -2.1642 -0.905511 0
M  V30 1275 C 121.652 -1.12828 -1.32461 0
M  V30 1276 O 122.828 -1.45109 -1.39661 0
M  V30 1277 C 119.893 -2.71693 -2.15369 0
M  V30 1278 C 118.954 -3.90171 -1.79068 0
M  V30 1279 C 118.187 -4.42798 -2.97936 0
M  V30 1280 O 118.41 -3.94416 -4.12058 0
M  V30 1281 O 117.344 -5.34085 -2.77555 0
M  V30 1282 H 121.17 -3.00588 -0.433626 0
M  V30 1283 H 118.755 -1.48664 -0.148067 0
M  V30 1284 H 120.637 -3.07104 -2.88557 0
M  V30 1285 H 119.312 -1.90582 -2.61649 0
M  V30 1286 H 118.219 -3.59606 -1.03122 0
M  V30 1287 H 119.552 -4.72584 -1.37569 0
M  V30 1288 N 121.204 0.198386 -1.56346 0
M  V30 1289 C 122.62 0.549085 -1.49857 0
M  V30 1290 C 122.82 1.86016 -0.774611 0
M  V30 1291 O 121.876 2.50416 -0.323776 0
M  V30 1292 C 123.189 0.606868 -2.94512 0
M  V30 1293 C 124.737 0.695925 -3.05165 0
M  V30 1294 C 125.212 0.784848 -4.51225 0
M  V30 1295 N 126.703 0.848463 -4.55363 0
M  V30 1296 C 127.438 0.937378 -5.65686 0
M  V30 1297 N 126.934 0.9888 -6.85707 0
M  V30 1298 N 128.727 0.974312 -5.53592 0
M  V30 1299 H 120.878 -0.661655 -2.01831 0
M  V30 1300 H 123.141 -0.235261 -0.918344 0
M  V30 1301 H 122.847 -0.28732 -3.50524 0
M  V30 1302 H 122.721 1.46268 -3.47686 0
M  V30 1303 H 125.108 1.58055 -2.49204 0
M  V30 1304 H 125.189 -0.186022 -2.55123 0
M  V30 1305 H 124.833 -0.0954072 -5.0781 0
M  V30 1306 H 124.763 1.68255 -4.98997 0
M  V30 1307 H 127.254 0.818103 -3.68938 0
M  V30 1308 H 127.567 1.05707 -7.65536 0
M  V30 1309 H 125.912 0.957534 -6.88372 0
M  V30 1310 H 129.103 0.930954 -4.58749 0
M  V30 1311 H 129.276 1.04015 -6.39597 0
M  V30 1312 N 122.682 1.50554 0.465978 0
M  V30 1313 C 123.93 1.61479 1.21528 0
M  V30 1314 C 124.251 0.319596 1.92363 0
M  V30 1315 O 123.521 -0.663194 1.84333 0
M  V30 1316 H 122.101 0.595055 0.451573 0
M  V30 1317 H 124.763 1.87355 0.53704 0
M  V30 1318 H 123.859 2.42846 1.96042 0
M  V30 1319 N 124.16 -0.719506 1.40217 0
M  V30 1320 C 125.123 -1.8153 1.39927 0
M  V30 1321 C 126.123 -1.58095 0.293723 0
M  V30 1322 O 127.313 -1.65209 0.552429 0
M  V30 1323 C 124.445 -3.19561 1.18716 0
M  V30 1324 H 125.638 -1.83186 2.37451 0
M  V30 1325 H 123.191 -0.924746 1.26008 0
M  V30 1326 H 123.926 -3.23557 0.219366 0
M  V30 1327 H 123.711 -3.3797 1.98793 0
M  V30 1328 H 125.201 -3.99598 1.21291 0
M  V30 1329 N 125.638 -1.25649 -0.95132 0
M  V30 1330 C 127.049 -1.09654 -1.51106 0
M  V30 1331 C 127.4 0.326615 -1.93462 0
M  V30 1332 O 126.525 1.21697 -1.78938 0
M  V30 1333 C 127.12 -1.98437 -2.74605 0
M  V30 1334 C 125.679 -1.86618 -3.2688 0
M  V30 1335 C 124.826 -1.9239 -1.99703 0
M  V30 1336 H 127.777 -1.38887 -0.767865 0
M  V30 1337 H 127.798 -1.5263 -3.48546 0
M  V30 1338 H 127.31 -3.02009 -2.43746 0
M  V30 1339 H 125.411 -0.859421 -3.62553 0
M  V30 1340 H 125.524 -2.71607 -3.94673 0
M  V30 1341 H 123.888 -1.36317 -2.15151 0
M  V30 1342 H 124.671 -2.97573 -1.71188 0
M  V30 1343 N 127.117 1.15442 -1.07289 0
M  V30 1344 C 128.347 1.89821 -0.815576 0
M  V30 1345 C 128.755 1.7823 0.634867 0
M  V30 1346 O 128.098 1.13152 1.44715 0
M  V30 1347 C 128.16 3.40817 -1.14385 0
M  V30 1348 C 127.824 3.76193 -2.59476 0
M  V30 1349 C 128.821 3.77269 -3.57721 0
M  V30 1350 C 126.506 4.0652 -2.95037 0
M  V30 1351 C 128.5 4.08176 -4.89562 0
M  V30 1352 C 126.187 4.37092 -4.27076 0
M  V30 1353 C 127.185 4.37902 -5.24148 0
M  V30 1354 O 126.873 4.67741 -6.53815 0
M  V30 1355 H 126.605 0.608465 -0.294528 0
M  V30 1356 H 129.159 1.472 -1.43252 0
M  V30 1357 H 127.389 3.83835 -0.469865 0
M  V30 1358 H 129.078 3.96485 -0.869179 0
M  V30 1359 H 129.844 3.5394 -3.3159 0
M  V30 1360 H 125.723 4.05049 -2.20128 0
M  V30 1361 H 129.267 4.08723 -5.65324 0
M  V30 1362 H 125.164 4.59889 -4.5296 0
M  V30 1363 H 125.932 4.85509 -6.58957 0
M  V30 1364 N 128.595 0.856903 1.32268 0
M  V30 1365 C 129.842 0.461386 1.97174 0
M  V30 1366 C 130.17 -0.983491 1.67803 0
M  V30 1367 O 129.425 -1.70541 0.959903 0
M  V30 1368 C 129.724 0.649919 3.51441 0
M  V30 1369 C 129.39 2.0656 4.00804 0
M  V30 1370 C 128.052 2.45279 4.13995 0
M  V30 1371 C 130.404 2.98947 4.26943 0
M  V30 1372 C 127.732 3.75653 4.50668 0
M  V30 1373 C 130.084 4.28822 4.65075 0
M  V30 1374 C 128.748 4.67472 4.76472 0
M  V30 1375 H 128.018 0.168833 0.72151 0
M  V30 1376 H 130.665 1.08739 1.57633 0
M  V30 1377 H 128.97 -0.0593018 3.91755 0
M  V30 1378 H 130.667 0.32391 3.9969 0
M  V30 1379 H 127.257 1.75495 3.91024 0
M  V30 1380 H 131.441 2.70265 4.16258 0
M  V30 1381 H 126.697 4.05379 4.57688 0
M  V30 1382 H 130.871 5.0047 4.84255 0
M  V30 1383 H 128.498 5.68539 5.04646 0
M  V30 1384 N 130.073 -1.45103 0.615059 0
M  V30 1385 C 131.298 -2.07064 0.117988 0
M  V30 1386 C 131.723 -1.4554 -1.19163 0
M  V30 1387 O 131.081 -0.550855 -1.72729 0
M  V30 1388 C 131.129 -3.606 -0.000288387 0
M  V30 1389 O 130.233 -3.98847 -1.04856 0
M  V30 1390 H 129.574 -0.659467 0.0774581 0
M  V30 1391 H 132.104 -1.86236 0.847186 0
M  V30 1392 H 132.114 -4.07529 -0.196091 0
M  V30 1393 H 130.789 -4.04765 0.955932 0
M  V30 1394 H 129.366 -3.63577 -0.828619 0
M  V30 1395 N 131.551 -0.354651 -1.53558 0
M  V30 1396 C 132.483 0.5315 -2.22952 0
M  V30 1397 C 133.496 1.05503 -1.23988 0
M  V30 1398 O 134.685 0.963279 -1.50277 0
M  V30 1399 C 131.785 1.74538 -2.90499 0
M  V30 1400 C 130.958 1.35524 -4.15875 0
M  V30 1401 C 130.017 2.42999 -4.66731 0
M  V30 1402 O 129.043 2.05844 -5.30676 0
M  V30 1403 N 130.245 3.74423 -4.43608 0
M  V30 1404 H 133.01 -0.0628615 -2.99634 0
M  V30 1405 H 130.571 -0.179302 -1.60904 0
M  V30 1406 H 132.563 2.45892 -3.21433 0
M  V30 1407 H 131.133 2.24686 -2.17336 0
M  V30 1408 H 130.353 0.471998 -3.91364 0
M  V30 1409 H 131.641 1.07071 -4.97406 0
M  V30 1410 H 131.039 4.07391 -3.92491 0
M  V30 1411 H 129.596 4.41913 -4.7912 0
M  V30 1412 N 133.029 1.57378 -0.0835403 0
M  V30 1413 C 133.992 2.12252 0.864959 0
M  V30 1414 C 134.992 1.04916 1.21858 0
M  V30 1415 O 136.182 1.30853 1.14991 0
M  V30 1416 C 133.314 2.63358 2.16461 0
M  V30 1417 H 134.507 2.97371 0.388676 0
M  V30 1418 H 132.06 1.55423 0.165317 0
M  V30 1419 H 132.795 1.81727 2.686 0
M  V30 1420 H 132.58 3.41826 1.92087 0
M  V30 1421 H 134.07 3.05847 2.84337 0
M  V30 1422 N 134.507 -0.190092 1.56449 0
M  V30 1423 C 135.918 -0.754312 1.70784 0
M  V30 1424 C 136.269 -1.83631 0.690951 0
M  V30 1425 O 135.394 -2.15868 -0.151604 0
M  V30 1426 C 135.989 -1.37503 3.09642 0
M  V30 1427 C 134.548 -1.88628 3.25725 0
M  V30 1428 C 133.695 -0.758098 2.66736 0
M  V30 1429 H 136.646 0.0350524 1.58661 0
M  V30 1430 H 136.667 -2.2445 3.0725 0
M  V30 1431 H 136.179 -0.587302 3.83631 0
M  V30 1432 H 134.28 -2.70103 2.56661 0
M  V30 1433 H 134.393 -2.04462 4.3328 0
M  V30 1434 H 132.757 -1.17369 2.26046 0
M  V30 1435 H 133.54 0.0174705 3.43296 0
M  V30 1436 N 135.985 -1.50799 -0.457987 0
M  V30 1437 C 137.232 -1.62442 -1.20908 0
M  V30 1438 C 137.56 -0.330865 -1.91665 0
M  V30 1439 O 136.815 0.68401 -1.83357 0
M  V30 1440 C 137.114 -2.76358 -2.2663 0
M  V30 1441 C 136.78 -4.16378 -1.73033 0
M  V30 1442 C 135.442 -4.54473 -1.58138 0
M  V30 1443 C 137.794 -5.03836 -1.33413 0
M  V30 1444 C 135.122 -5.77754 -1.02065 0
M  V30 1445 C 137.474 -6.27676 -0.78778 0
M  V30 1446 C 136.138 -6.64562 -0.625561 0
M  V30 1447 H 135.408 -0.594417 -0.442435 0
M  V30 1448 H 138.055 -1.84772 -0.503136 0
M  V30 1449 H 136.36 -2.48167 -3.03184 0
M  V30 1450 H 138.057 -2.82568 -2.84528 0
M  V30 1451 H 134.647 -3.86331 -1.85598 0
M  V30 1452 H 138.831 -4.75026 -1.4375 0
M  V30 1453 H 134.087 -6.04997 -0.882547 0
M  V30 1454 H 138.261 -6.94797 -0.472177 0
M  V30 1455 H 135.888 -7.59965 -0.188926 0
M  V30 1456 N 137.463 0.71206 -1.40597 0
M  V30 1457 C 138.688 1.50617 -1.42581 0
M  V30 1458 C 139.113 1.88079 -0.0282102 0
M  V30 1459 O 138.471 1.53511 0.964579 0
M  V30 1460 C 138.519 2.7557 -2.3258 0
M  V30 1461 O 137.623 3.72414 -1.77148 0
M  V30 1462 H 136.964 0.453966 -0.484573 0
M  V30 1463 H 139.494 0.876649 -1.84868 0
M  V30 1464 H 139.504 3.2406 -2.47889 0
M  V30 1465 H 138.179 2.47639 -3.34138 0
M  V30 1466 H 136.756 3.31276 -1.71204 0
M  V30 1467 N 138.941 1.26152 0.944643 0
M  V30 1468 C 140.189 1.11271 1.6871 0
M  V30 1469 C 140.51 -0.345166 1.91921 0
M  V30 1470 O 139.78 -1.24387 1.51343 0
M  V30 1471 H 138.36 0.408783 0.625224 0
M  V30 1472 H 141.022 1.58427 1.1352 0
M  V30 1473 H 140.118 1.62879 2.66227 0
M  V30 1474 N 140.419 -1.14872 1.07899 0
M  V30 1475 C 141.366 -2.19791 0.704319 0
M  V30 1476 C 142.336 -1.63238 -0.306987 0
M  V30 1477 O 143.521 -1.8983 -0.192171 0
M  V30 1478 C 140.661 -3.44911 0.114244 0
M  V30 1479 C 139.774 -4.15637 1.1777 0
M  V30 1480 C 138.909 -5.28324 0.552037 0
M  V30 1481 C 137.948 -5.90875 1.59789 0
M  V30 1482 N 137.085 -6.95022 0.994404 0
M  V30 1483 H 141.925 -2.5119 1.60336 0
M  V30 1484 H 139.462 -1.23356 0.801352 0
M  V30 1485 H 141.42 -4.16477 -0.245544 0
M  V30 1486 H 140.05 -3.14011 -0.74813 0
M  V30 1487 H 139.102 -3.42512 1.65499 0
M  V30 1488 H 140.414 -4.5823 1.97046 0
M  V30 1489 H 139.568 -6.06538 0.1402 0
M  V30 1490 H 138.307 -4.86939 -0.272431 0
M  V30 1491 H 137.312 -5.11369 2.01945 0
M  V30 1492 H 138.537 -6.34337 2.42474 0
M  V30 1493 H 136.483 -6.55722 0.190939 0
M  V30 1494 H 136.4 -7.36073 1.72432 0
M  V30 1495 H 137.668 -7.77123 0.608253 0
M  V30 1496 N 141.898 -0.863906 -1.31812 0
M  V30 1497 C 143.147 -0.46801 -1.96195 0
M  V30 1498 C 143.46 0.983474 -1.69077 0
M  V30 1499 O 144.666 1.48523 -2.27273 0
M  V30 1500 C 143.122 -0.785995 -3.51212 0
M  V30 1501 C 142.73 -2.25383 -3.87178 0
M  V30 1502 C 144.474 -0.458274 -4.22019 0
M  V30 1503 C 142.381 -2.51455 -5.3528 0
M  V30 1504 H 141.311 -0.171283 -0.734287 0
M  V30 1505 H 143.962 -1.05597 -1.50072 0
M  V30 1506 H 142.344 -0.127359 -3.95795 0
M  V30 1507 H 143.518 -2.95502 -3.53575 0
M  V30 1508 H 141.833 -2.54698 -3.2942 0
M  V30 1509 H 144.43 -0.630369 -5.30971 0
M  V30 1510 H 144.773 0.600834 -4.11941 0
M  V30 1511 H 145.306 -1.07319 -3.8305 0
M  V30 1512 H 142.045 -3.56025 -5.50387 0
M  V30 1513 H 141.565 -1.85923 -5.70257 0
M  V30 1514 H 143.244 -2.35874 -6.02472 0
M  V30 1515 N 143.376 1.44774 -0.622745 0
M  V30 1516 C 144.622 2.02968 -0.13257 0
M  V30 1517 C 144.977 1.48047 1.22881 0
M  V30 1518 O 144.27 0.651625 1.80179 0
M  V30 1519 C 144.464 3.57364 -0.0508323 0
M  V30 1520 C 144.293 4.27262 -1.40275 0
M  V30 1521 C 143.063 4.64577 -1.98737 0
M  V30 1522 C 145.261 4.58248 -2.3348 0
M  V30 1523 N 143.243 5.19404 -3.27251 0
M  V30 1524 C 144.614 5.14069 -3.46603 0
M  V30 1525 C 146.669 4.40195 -2.32664 0
M  V30 1526 C 145.372 5.53738 -4.59093 0
M  V30 1527 C 147.398 4.80907 -3.44213 0
M  V30 1528 C 146.76 5.36834 -4.56058 0
M  V30 1529 H 142.859 0.776541 -0.0922354 0
M  V30 1530 H 145.443 1.76385 -0.82441 0
M  V30 1531 H 143.614 3.83576 0.610265 0
M  V30 1532 H 145.346 4.02219 0.447397 0
M  V30 1533 H 142.101 4.48622 -1.51774 0
M  V30 1534 H 142.525 5.51301 -3.92933 0
M  V30 1535 H 147.167 3.96257 -1.47446 0
M  V30 1536 H 144.885 5.96635 -5.45025 0
M  V30 1537 H 148.471 4.68659 -3.44747 0
M  V30 1538 H 147.351 5.67755 -5.40947 0
M  V30 1539 N 144.854 0.36279 1.53368 0
M  V30 1540 C 145.784 -0.476976 2.28576 0
M  V30 1541 C 146.765 -1.08631 1.30894 0
M  V30 1542 O 147.95 -1.10409 1.59761 0
M  V30 1543 C 145.08 -1.61828 3.07293 0
M  V30 1544 C 144.034 -1.13633 4.1264 0
M  V30 1545 C 143.36 -2.36766 4.79423 0
M  V30 1546 C 144.66 -0.223061 5.21823 0
M  V30 1547 H 146.354 0.150474 2.99022 0
M  V30 1548 H 143.9 0.0738103 1.43811 0
M  V30 1549 H 145.853 -2.21237 3.58653 0
M  V30 1550 H 144.577 -2.27292 2.34533 0
M  V30 1551 H 143.236 -0.564945 3.62221 0
M  V30 1552 H 142.884 -3.0068 4.03238 0
M  V30 1553 H 142.584 -2.05192 5.50609 0
M  V30 1554 H 144.108 -2.96865 5.33576 0
M  V30 1555 H 145.522 -0.724545 5.68703 0
M  V30 1556 H 143.919 0.001678 6.001 0
M  V30 1557 H 144.989 0.735553 4.79289 0
M  V30 1558 N 146.332 -1.57332 0.0918853 0
M  V30 1559 C 147.557 -1.98995 -0.584442 0
M  V30 1560 C 147.982 -0.970528 -1.61128 0
M  V30 1561 O 147.34 0.0613904 -1.81196 0
M  V30 1562 C 147.388 -3.39636 -1.21161 0
M  V30 1563 O 146.492 -3.40447 -2.32744 0
M  V30 1564 H 145.833 -0.647165 -0.148572 0
M  V30 1565 H 148.363 -2.03873 0.172347 0
M  V30 1566 H 148.373 -3.7726 -1.55367 0
M  V30 1567 H 147.048 -4.13356 -0.459313 0
M  V30 1568 H 145.625 -3.14614 -2.0018 0
M  V30 1569 N 147.81 0.181792 -1.56548 0
M  V30 1570 C 149.059 0.898348 -1.8059 0
M  V30 1571 C 149.372 1.83862 -0.667379 0
M  V30 1572 O 150.578 2.59678 -0.792446 0
M  V30 1573 C 149.034 1.64791 -3.19956 0
M  V30 1574 C 148.642 0.751789 -4.41647 0
M  V30 1575 C 150.386 2.35331 -3.53298 0
M  V30 1576 C 148.293 1.50098 -5.72035 0
M  V30 1577 H 147.223 0.339194 -0.673397 0
M  V30 1578 H 149.874 0.151413 -1.82874 0
M  V30 1579 H 148.256 2.43921 -3.11959 0
M  V30 1580 H 149.43 -0.0018076 -4.608 0
M  V30 1581 H 147.745 0.156562 -4.16106 0
M  V30 1582 H 150.342 2.91958 -4.47956 0
M  V30 1583 H 150.685 3.10164 -2.77676 0
M  V30 1584 H 151.218 1.63154 -3.62803 0
M  V30 1585 H 147.957 0.795175 -6.50659 0
M  V30 1586 H 147.477 2.22817 -5.56878 0
M  V30 1587 H 149.156 2.05125 -6.13622 0
M  V30 1588 N 149.288 1.51039 0.449983 0
M  V30 1589 C 150.513 1.6715 1.22783 0
M  V30 1590 C 150.938 0.363081 1.84563 0
M  V30 1591 O 150.296 -0.675433 1.68249 0
M  V30 1592 C 150.344 2.77985 2.29689 0
M  V30 1593 O 149.448 2.40707 3.34864 0
M  V30 1594 H 148.789 0.557746 0.360299 0
M  V30 1595 H 151.319 1.97535 0.533005 0
M  V30 1596 H 151.329 3.01693 2.74673 0
M  V30 1597 H 150.004 3.72935 1.84098 0
M  V30 1598 H 148.581 2.27523 2.95445 0
M  V30 1599 N 150.766 -0.704594 1.40972 0
M  V30 1600 C 151.716 -1.81051 1.38581 0
M  V30 1601 C 152.7 -1.58759 0.261585 0
M  V30 1602 O 153.892 -1.69745 0.501556 0
M  V30 1603 C 151.021 -3.19279 1.26157 0
M  V30 1604 C 150.107 -3.47296 2.43405 0
M  V30 1605 N 150.498 -3.46064 3.68881 0
M  V30 1606 C 148.796 -3.77804 2.37023 0
M  V30 1607 C 149.497 -3.72733 4.46592 0
M  V30 1608 N 148.473 -3.9203 3.76581 0
M  V30 1609 H 152.275 -1.78448 2.33525 0
M  V30 1610 H 149.789 -0.904198 1.349 0
M  V30 1611 H 151.786 -3.98488 1.22526 0
M  V30 1612 H 150.446 -3.231 0.321902 0
M  V30 1613 H 151.457 -3.26656 4.01891 0
M  V30 1614 H 148.134 -3.8905 1.51481 0
M  V30 1615 H 149.524 -3.77993 5.55492 0
M  V30 1616 N 152.244 -1.26651 -0.937939 0
M  V30 1617 C 153.472 -1.15173 -1.7188 0
M  V30 1618 C 153.887 0.292668 -1.86518 0
M  V30 1619 O 153.244 1.20014 -1.37488 0
M  V30 1620 C 153.295 -1.81925 -3.12387 0
M  V30 1621 O 153.016 -3.2072 -2.98446 0
M  V30 1622 C 154.517 -1.76442 -4.06673 0
M  V30 1623 H 151.737 -0.400911 -0.538063 0
M  V30 1624 H 154.281 -1.67332 -1.1756 0
M  V30 1625 H 152.436 -1.33696 -3.63599 0
M  V30 1626 H 152.85 -3.53802 -3.872 0
M  V30 1627 H 154.324 -2.27781 -5.02812 0
M  V30 1628 H 154.801 -0.731608 -4.33064 0
M  V30 1629 H 155.407 -2.24238 -3.61382 0
M  V30 1630 N 153.722 1.14298 -1.08507 0
M  V30 1631 C 154.999 1.81544 -0.728088 0
M  V30 1632 C 155.379 1.95838 0.78808 0
M  V30 1633 O 154.727 1.51904 1.70697 0
M  V30 1634 C 154.937 3.17169 -1.45619 0
M  V30 1635 C 156.285 3.9265 -1.61591 0
M  V30 1636 O 157.309 3.26762 -1.41793 0
M  V30 1637 O 156.168 5.10807 -1.94263 0
M  V30 1638 H 153.262 0.78491 -0.260471 0
M  V30 1639 H 155.808 1.21307 -1.18671 0
M  V30 1640 H 154.58 3.01934 -2.489 0
M  V30 1641 H 154.203 3.851 -0.989124 0
M  V30 1642 N 155.201 0.870884 1.31352 0
M  V30 1643 C 156.133 0.28455 2.27427 0
M  V30 1644 C 157.146 -0.552927 1.53123 0
M  V30 1645 O 158.335 -0.374771 1.74521 0
M  V30 1646 C 155.435 -0.615164 3.3327 0
M  V30 1647 C 154.608 0.190079 4.36987 0
M  V30 1648 C 153.667 -0.637917 5.22319 0
M  V30 1649 O 152.693 -0.065626 5.69162 0
M  V30 1650 N 153.895 -1.94973 5.46778 0
M  V30 1651 H 156.66 1.11017 2.7838 0
M  V30 1652 H 154.221 0.732458 1.44384 0
M  V30 1653 H 156.213 -1.1748 3.87273 0
M  V30 1654 H 154.783 -1.34146 2.82354 0
M  V30 1655 H 154.003 0.931165 3.83044 0
M  V30 1656 H 155.291 0.742579 5.03352 0
M  V30 1657 H 154.689 -2.4378 5.10478 0
M  V30 1658 H 153.246 -2.45713 6.03712 0
M  V30 1659 N 156.679 -1.44442 0.630414 0
M  V30 1660 C 157.926 -2.02052 0.134617 0
M  V30 1661 C 158.254 -1.49576 -1.24327 0
M  V30 1662 O 157.509 -0.669806 -1.83881 0
M  V30 1663 C 157.808 -3.57332 0.0697835 0
M  V30 1664 C 157.474 -4.29058 1.38635 0
M  V30 1665 C 156.136 -4.4837 1.74694 0
M  V30 1666 C 158.488 -4.69872 2.25543 0
M  V30 1667 C 155.816 -5.05756 2.97369 0
M  V30 1668 C 158.168 -5.28616 3.47487 0
M  V30 1669 C 156.832 -5.46147 3.8377 0
M  V30 1670 H 156.102 -0.739361 0.0492598 0
M  V30 1671 H 158.749 -1.73217 0.816586 0
M  V30 1672 H 157.054 -3.85577 -0.695553 0
M  V30 1673 H 158.751 -3.99637 -0.330344 0
M  V30 1674 H 155.341 -4.14357 1.09574 0
M  V30 1675 H 159.525 -4.54666 1.98979 0
M  V30 1676 H 154.781 -5.17515 3.25558 0
M  V30 1677 H 158.955 -5.59192 4.15063 0
M  V30 1678 H 156.582 -5.9038 4.7891 0
M  V30 1679 N 158.157 -0.370918 -1.53173 0
M  V30 1680 C 159.403 0.217423 -2.01631 0
M  V30 1681 C 159.736 1.47983 -1.25756 0
M  V30 1682 O 159.011 1.91274 -0.352764 0
M  V30 1683 C 159.294 0.503982 -3.56556 0
M  V30 1684 C 159.147 -0.77243 -4.43118 0
M  V30 1685 C 160.466 1.30234 -4.20389 0
M  V30 1686 H 157.585 0.0775486 -0.732909 0
M  V30 1687 H 160.227 -0.496863 -1.83388 0
M  V30 1688 H 158.377 1.11248 -3.72231 0
M  V30 1689 H 160.049 -1.4098 -4.39229 0
M  V30 1690 H 158.292 -1.39167 -4.10871 0
M  V30 1691 H 158.963 -0.526815 -5.4948 0
M  V30 1692 H 161.439 0.787546 -4.08579 0
M  V30 1693 H 160.315 1.47158 -5.28806 0
M  V30 1694 H 160.576 2.31237 -3.76805 0
M  V30 1695 N 159.635 1.57281 -0.100228 0
M  V30 1696 C 160.863 1.98879 0.570509 0
M  V30 1697 C 161.278 0.979476 1.61405 0
M  V30 1698 O 160.635 -0.0302288 1.82475 0
M  V30 1699 C 160.686 3.4052 1.2136 0
M  V30 1700 O 160.407 4.37588 0.211786 0
M  V30 1701 C 161.908 3.97149 1.96945 0
M  V30 1702 H 159.128 0.653428 0.152555 0
M  V30 1703 H 161.672 2.03697 -0.18103 0
M  V30 1704 H 159.827 3.367 1.91603 0
M  V30 1705 H 160.241 5.20118 0.676607 0
M  V30 1706 H 161.715 4.98393 2.37294 0
M  V30 1707 H 162.192 3.3525 2.83733 0
M  V30 1708 H 162.798 4.04458 1.31506 0
M  V30 1709 N 161.113 -0.173488 1.56642 0
M  V30 1710 C 162.076 -1.19859 1.95362 0
M  V30 1711 C 163.076 -1.37296 0.83704 0
M  V30 1712 O 164.266 -1.34739 1.10413 0
M  V30 1713 C 161.398 -2.56405 2.24654 0
M  V30 1714 H 162.591 -0.867062 2.87092 0
M  V30 1715 H 160.144 -0.415853 1.50666 0
M  V30 1716 H 160.879 -2.94576 1.35631 0
M  V30 1717 H 160.664 -2.45115 3.06041 0
M  V30 1718 H 162.154 -3.30287 2.5554 0
M  V30 1719 N 162.591 -1.51276 -0.441967 0
M  V30 1720 C 163.816 -1.67799 -1.21895 0
M  V30 1721 C 164.241 -0.372864 -1.84367 0
M  V30 1722 O 163.599 0.666501 -1.68604 0
M  V30 1723 C 163.647 -2.79199 -2.28211 0
M  V30 1724 O 162.751 -2.42479 -3.33583 0
M  V30 1725 H 162.092 -0.559649 -0.357336 0
M  V30 1726 H 164.622 -1.97815 -0.522522 0
M  V30 1727 H 164.632 -3.03146 -2.73069 0
M  V30 1728 H 163.307 -3.73906 -1.82118 0
M  V30 1729 H 161.884 -2.29087 -2.94234 0
M  V30 1730 N 164.069 0.697108 -1.41344 0
M  V30 1731 C 165.315 1.4593 -1.40827 0
M  V30 1732 C 165.648 1.94193 -0.0167098 0
M  V30 1733 O 164.923 1.69425 0.955263 0
M  V30 1734 C 165.206 2.67229 -2.41373 0
M  V30 1735 C 165.059 2.24741 -3.8963 0
M  V30 1736 C 166.378 3.69423 -2.39196 0
M  V30 1737 H 163.497 0.529303 -0.512842 0
M  V30 1738 H 166.139 0.794112 -1.72609 0
M  V30 1739 H 164.289 3.23982 -2.14401 0
M  V30 1740 H 165.961 1.73327 -4.27499 0
M  V30 1741 H 164.204 1.56542 -4.0457 0
M  V30 1742 H 164.875 3.1177 -4.55525 0
M  V30 1743 H 167.351 3.2234 -2.63128 0
M  V30 1744 H 166.227 4.51907 -3.11563 0
M  V30 1745 H 166.488 4.19012 -1.41001 0
M  V30 1746 N 165.547 1.27147 0.931209 0
M  V30 1747 C 166.796 1.12664 1.67302 0
M  V30 1748 C 167.109 -0.327718 1.92835 0
M  V30 1749 O 168.315 -0.593392 2.64936 0
M  V30 1750 C 166.771 1.9683 3.01307 0
M  V30 1751 C 166.379 3.46901 2.83485 0
M  V30 1752 C 168.123 1.90985 3.79111 0
M  V30 1753 C 166.03 4.23279 4.13024 0
M  V30 1754 H 164.96 0.41803 0.627509 0
M  V30 1755 H 167.611 1.51539 1.03481 0
M  V30 1756 H 165.993 1.50797 3.66164 0
M  V30 1757 H 167.167 4.00773 2.27415 0
M  V30 1758 H 165.482 3.54088 2.19113 0
M  V30 1759 H 168.079 2.45328 4.75098 0
M  V30 1760 H 168.422 0.882718 4.06834 0
M  V30 1761 H 168.955 2.34895 3.21044 0
M  V30 1762 H 165.694 5.26503 3.90481 0
M  V30 1763 H 165.214 3.74186 4.6877 0
M  V30 1764 H 166.893 4.32265 4.81411 0
M  V30 1765 N 167.025 -1.13721 1.09112 0
M  V30 1766 C 167.955 -2.21148 0.749385 0
M  V30 1767 C 168.936 -1.6792 -0.271475 0
M  V30 1768 O 170.121 -1.93693 -0.140251 0
M  V30 1769 C 167.251 -3.46905 0.165659 0
M  V30 1770 C 166.205 -4.13203 1.11567 0
M  V30 1771 C 165.531 -5.33248 0.393809 0
M  V30 1772 C 166.831 -4.60912 2.45678 0
M  V30 1773 H 168.525 -2.4999 1.64758 0
M  V30 1774 H 166.071 -1.20156 0.793626 0
M  V30 1775 H 168.024 -4.21313 -0.085466 0
M  V30 1776 H 166.748 -3.17449 -0.767714 0
M  V30 1777 H 165.407 -3.40758 1.35202 0
M  V30 1778 H 165.055 -5.00054 -0.543599 0
M  V30 1779 H 164.755 -5.78552 1.02721 0
M  V30 1780 H 166.279 -6.10413 0.150908 0
M  V30 1781 H 167.693 -5.26759 2.26269 0
M  V30 1782 H 166.09 -5.16944 3.04776 0
M  V30 1783 H 167.16 -3.75603 3.06677 0
M  V30 1784 N 168.503 -0.877838 -1.30888 0
M  V30 1785 C 169.413 -0.343096 -2.32078 0
M  V30 1786 C 170.429 0.551022 -1.65045 0
M  V30 1787 O 171.605 0.445854 -1.96403 0
M  V30 1788 C 168.67 0.439905 -3.43898 0
M  V30 1789 C 167.731 -0.483111 -4.26573 0
M  V30 1790 C 166.964 0.262616 -5.33053 0
M  V30 1791 O 167.187 1.48967 -5.50604 0
M  V30 1792 O 166.121 -0.383593 -6.00676 0
M  V30 1793 H 169.947 -1.18203 -2.79753 0
M  V30 1794 H 167.532 -0.64145 -1.34929 0
M  V30 1795 H 169.414 0.883504 -4.12034 0
M  V30 1796 H 168.089 1.25526 -2.98371 0
M  V30 1797 H 166.996 -0.975374 -3.61161 0
M  V30 1798 H 168.329 -1.26427 -4.75686 0
M  V30 1799 N 169.982 1.44106 -0.638065 0
M  V30 1800 C 170.892 2.34513 0.0637334 0
M  V30 1801 C 171.908 1.53018 0.828346 0
M  V30 1802 O 173.084 1.85723 0.779036 0
M  V30 1803 C 170.149 3.31095 1.02844 0
M  V30 1804 C 169.21 4.28497 0.26244 0
M  V30 1805 C 168.443 5.20465 1.1812 0
M  V30 1806 O 168.666 5.16514 2.42011 0
M  V30 1807 O 167.6 5.98251 0.661774 0
M  V30 1808 H 171.426 2.95989 -0.68003 0
M  V30 1809 H 169.011 1.43994 -0.398252 0
M  V30 1810 H 170.893 3.90526 1.58327 0
M  V30 1811 H 169.568 2.72144 1.7527 0
M  V30 1812 H 168.475 3.72592 -0.335602 0
M  V30 1813 H 169.808 4.90388 -0.421936 0
M  V30 1814 N 171.46 0.379036 1.52974 0
M  V30 1815 C 172.408 -0.476033 2.27677 0
M  V30 1816 C 173.402 -1.0719 1.31174 0
M  V30 1817 O 174.608 -1.01355 1.48752 0
M  V30 1818 H 170.983 -0.172255 0.732006 0
M  V30 1819 H 172.954 0.175615 2.97883 0
M  V30 1820 C 171.703 -1.5967 3.0887 0
M  V30 1821 H 171.026 -1.1475 3.82978 0
M  V30 1822 H 172.466 -2.16943 3.64296 0
M  V30 1823 C 170.925 -2.54682 2.20542 0
M  V30 1824 O 171.455 -3.57836 1.82527 0
M  V30 1825 N 169.661 -2.24183 1.84907 0
M  V30 1826 H 169.208 -1.40333 2.1602 0
M  V30 1827 H 169.166 -2.88006 1.26096 0
M  V30 1828 N 172.938 -1.57226 0.108567 0
M  V30 1829 C 173.888 -2.11305 -0.856396 0
M  V30 1830 C 174.872 -1.03129 -1.23504 0
M  V30 1831 O 176.064 -1.29381 -1.20787 0
M  V30 1832 C 173.193 -2.70771 -2.11041 0
M  V30 1833 C 172.279 -3.86011 -1.7566 0
M  V30 1834 N 172.67 -4.93492 -1.10902 0
M  V30 1835 C 170.968 -3.95999 -2.05185 0
M  V30 1836 C 171.669 -5.73984 -0.944308 0
M  V30 1837 N 170.645 -5.2346 -1.46596 0
M  V30 1838 H 174.447 -2.91784 -0.352002 0
M  V30 1839 H 171.961 -1.62126 -0.0942324 0
M  V30 1840 H 173.958 -3.07851 -2.81128 0
M  V30 1841 H 172.618 -1.91751 -2.62034 0
M  V30 1842 H 173.629 -5.1208 -0.774235 0
M  V30 1843 H 170.306 -3.28007 -2.58298 0
M  V30 1844 H 171.696 -6.70479 -0.436813 0
M  V30 1845 N 174.416 0.165178 -1.56732 0
M  V30 1846 C 175.326 1.22423 -2.00125 0
M  V30 1847 C 176.342 1.48084 -0.913619 0
M  V30 1848 O 177.518 1.60112 -1.22172 0
M  V30 1849 C 174.583 2.54197 -2.35764 0
M  V30 1850 C 173.644 2.36343 -3.58386 0
M  V30 1851 C 172.877 3.61834 -3.92316 0
M  V30 1852 O 173.1 4.67267 -3.27135 0
M  V30 1853 O 172.034 3.55579 -4.85641 0
M  V30 1854 H 175.86 0.885886 -2.90492 0
M  V30 1855 H 173.445 0.372518 -1.44681 0
M  V30 1856 H 175.327 3.3192 -2.59629 0
M  V30 1857 H 174.002 2.87598 -1.48557 0
M  V30 1858 H 172.909 1.56632 -3.39731 0
M  V30 1859 H 174.242 2.07865 -4.46154 0
M  V30 1860 N 175.894 1.51508 0.433938 0
M  V30 1861 C 177.119 1.68443 1.21003 0
M  V30 1862 C 177.544 0.382636 1.84167 0
M  V30 1863 O 176.902 -0.65755 1.68956 0
M  V30 1864 C 176.95 2.80405 2.26727 0
M  V30 1865 O 176.054 2.44245 3.32292 0
M  V30 1866 H 175.395 0.561536 0.354363 0
M  V30 1867 H 177.925 1.9809 0.512024 0
M  V30 1868 H 177.935 3.0459 2.71457 0
M  V30 1869 H 176.61 3.74867 1.80132 0
M  V30 1870 H 175.187 2.30644 2.93015 0
M  V30 1871 O 177.411 -0.579713 1.50737 0
M  V30 1872 H 178.102 -1.23469 1.49249 0
M  V30 END ATOM
M  V30 BEGIN BOND
M  V30 END BOND
M  V30 END CTAB
M  END
$$$$
