drugbank_target|P0A2K1 Tryptophan synthase beta chain (DB03171; DB04143; DB07732; DB07745; DB07748; DB07773; DB07890; DB07894; DB07925; DB07951; DB07952; DB07953)
 OpenBabel12092120463D

  0  0  0     0  0            999 V3000
M  V30 BEGIN CTAB
M  V30 COUNTS 5995 6053 0 0 0
M  V30 BEGIN ATOM
M  V30 1 H -0.908 1.98254 -0.117106 0
M  V30 2 N 0 1.576 0 0
M  V30 3 C 0.933 2.03868 1.02534 0
M  V30 4 C 1.911 0.928543 1.3348 0
M  V30 5 O 3.095 1.19667 1.45644 0
M  V30 6 C 0.222 2.43627 2.35294 0
M  V30 7 C -0.732 3.65373 2.2001 0
M  V30 8 S 0.101 5.13292 1.52614 0
M  V30 9 C 1.257 5.56322 2.86805 0
M  V30 10 H 1.49 2.90518 0.631377 0
M  V30 11 H -0.977 1.52953 0.210867 0
M  V30 12 H 0.981 2.67203 3.11629 0
M  V30 13 H -0.358 1.57376 2.7183 0
M  V30 14 H -1.165 3.90944 3.18086 0
M  V30 15 H -1.563 3.418 1.51819 0
M  V30 16 H 0.729 5.58782 3.83104 0
M  V30 17 H 1.672 6.56266 2.65933 0
M  V30 18 H 2.08 4.83886 2.90714 0
M  V30 19 N 1.4781 -0.272755 1.55222 0
M  V30 20 C 2.7061 -1.02255 1.79865 0
M  V30 21 C 3.1211 -1.79924 0.572088 0
M  V30 22 O 2.4781 -1.76638 -0.458842 0
M  V30 23 C 2.5291 -1.98094 3.02392 0
M  V30 24 O 2.2501 -1.23572 4.20311 0
M  V30 25 C 3.7511 -2.84884 3.39641 0
M  V30 26 H 0.9711 -0.302057 0.599168 0
M  V30 27 H 3.5151 -0.303465 2.02236 0
M  V30 28 H 1.6701 -2.65465 2.82147 0
M  V30 29 H 2.0841 -1.88172 4.89583 0
M  V30 30 H 3.5581 -3.47927 4.28545 0
M  V30 31 H 4.0351 -3.54665 2.59055 0
M  V30 32 H 4.6411 -2.23003 3.62146 0
M  V30 33 N 2.9562 -1.48159 -0.537278 0
M  V30 34 C 4.1842 -1.59454 -1.31841 0
M  V30 35 C 4.5992 -0.252065 -1.8711 0
M  V30 36 O 3.9562 0.757621 -1.66031 0
M  V30 37 C 4.0072 -2.63546 -2.47439 0
M  V30 38 O 3.7282 -3.92583 -1.94449 0
M  V30 39 C 5.2292 -2.85212 -3.39366 0
M  V30 40 H 2.4492 -0.53785 -0.401196 0
M  V30 41 H 4.9932 -1.93932 -0.648891 0
M  V30 42 H 3.1482 -2.31946 -3.1029 0
M  V30 43 H 3.5622 -4.49629 -2.70063 0
M  V30 44 H 5.0362 -3.61863 -4.16844 0
M  V30 45 H 5.5132 -1.93765 -3.94147 0
M  V30 46 H 6.1192 -3.18086 -2.82314 0
M  V30 47 N 4.4343 0.785586 -1.36625 0
M  V30 48 C 5.3643 1.91259 -1.33949 0
M  V30 49 C 6.3453 1.68795 -0.210325 0
M  V30 50 O 7.5303 1.89854 -0.408561 0
M  V30 51 C 4.6603 3.28339 -1.13186 0
M  V30 52 C 3.6143 3.65335 -2.22967 0
M  V30 53 C 2.9403 5.00806 -1.87342 0
M  V30 54 C 4.2403 3.7352 -3.65075 0
M  V30 55 H 5.9343 1.93755 -2.28253 0
M  V30 56 H 3.4803 0.930788 -1.09874 0
M  V30 57 H 5.4333 4.06804 -1.09948 0
M  V30 58 H 4.1573 3.2624 -0.153332 0
M  V30 59 H 2.8163 2.89169 -2.25337 0
M  V30 60 H 2.4643 4.95233 -0.880545 0
M  V30 61 H 2.1643 5.26529 -2.60846 0
M  V30 62 H 3.6883 5.81687 -1.85667 0
M  V30 63 H 5.1023 4.42168 -3.64911 0
M  V30 64 H 3.4993 4.10731 -4.37516 0
M  V30 65 H 4.5693 2.74527 -3.99703 0
M  V30 66 N 5.9124 1.20967 1.01018 0
M  V30 67 C 6.8424 0.988272 2.11555 0
M  V30 68 C 7.8234 -0.0849778 1.69888 0
M  V30 69 O 9.0084 0.0738202 1.9406 0
M  V30 70 C 6.1384 0.546528 3.42973 0
M  V30 71 C 5.0924 1.56375 3.9841 0
M  V30 72 C 4.4184 0.97842 5.25672 0
M  V30 73 C 5.7184 2.94922 4.31066 0
M  V30 74 H 7.4124 1.91276 2.30334 0
M  V30 75 H 4.9584 0.921073 1.1069 0
M  V30 76 H 6.9114 0.378839 4.19694 0
M  V30 77 H 5.6354 -0.413598 3.23971 0
M  V30 78 H 4.2944 1.71891 3.23804 0
M  V30 79 H 3.9424 0.0101688 5.02999 0
M  V30 80 H 3.6424 1.65784 5.63728 0
M  V30 81 H 5.1664 0.821939 6.05043 0
M  V30 82 H 6.5804 2.8288 4.9865 0
M  V30 83 H 4.9774 3.5983 4.80253 0
M  V30 84 H 6.0474 3.4616 3.39561 0
M  V30 85 N 7.3905 -1.2043 1.01659 0
M  V30 86 C 8.3385 -2.25249 0.580143 0
M  V30 87 C 9.3325 -1.65057 -0.381115 0
M  V30 88 O 10.5385 -1.78241 -0.251039 0
M  V30 89 H 6.9135 -0.732695 0.169299 0
M  V30 90 H 8.8845 -2.59389 1.47512 0
M  V30 91 C 7.6335 -3.47638 -0.065788 0
M  V30 92 H 6.9565 -3.94233 0.664874 0
M  V30 93 H 8.3965 -4.2268 -0.334282 0
M  V30 94 C 6.8555 -3.10447 -1.3086 0
M  V30 95 O 7.3855 -3.21981 -2.4019 0
M  V30 96 N 5.5915 -2.64996 -1.1927 0
M  V30 97 H 5.1385 -2.55811 -0.303064 0
M  V30 98 H 5.0965 -2.40482 -2.02523 0
M  V30 99 N 8.8686 -0.792821 -1.36206 0
M  V30 100 C 10.2796 -0.429513 -1.81692 0
M  V30 101 C 10.6306 1.04695 -1.65932 0
M  V30 102 O 9.7556 1.81256 -1.18218 0
M  V30 103 C 10.3506 -0.772831 -3.29868 0
M  V30 104 C 8.9096 -0.462307 -3.7355 0
M  V30 105 C 8.0566 -1.00569 -2.5842 0
M  V30 106 H 11.0076 -0.985672 -1.24379 0
M  V30 107 H 11.0286 -0.0651928 -3.80444 0
M  V30 108 H 10.5406 -1.84747 -3.41307 0
M  V30 109 H 8.6416 0.604158 -3.67669 0
M  V30 110 H 8.7546 -0.985299 -4.68859 0
M  V30 111 H 7.1186 -0.428734 -2.51066 0
M  V30 112 H 7.9016 -2.08616 -2.72643 0
M  V30 113 N 10.3467 1.47872 -0.545128 0
M  V30 114 C 11.5767 2.06589 -0.0210534 0
M  V30 115 C 11.9847 1.39997 1.27269 0
M  V30 116 O 11.3277 0.486421 1.77143 0
M  V30 117 C 11.3897 3.58574 0.257933 0
M  V30 118 C 11.0537 4.47132 -0.944573 0
M  V30 119 C 12.0507 4.85986 -1.84699 0
M  V30 120 C 9.7357 4.88821 -1.15584 0
M  V30 121 C 11.7297 5.65314 -2.94446 0
M  V30 122 C 9.4167 5.67916 -2.25642 0
M  V30 123 C 10.4147 6.06073 -3.14905 0
M  V30 124 O 10.1027 6.83578 -4.23057 0
M  V30 125 H 9.8347 0.674971 -0.0372899 0
M  V30 126 H 12.3887 1.91037 -0.754599 0
M  V30 127 H 10.6187 3.72295 1.04564 0
M  V30 128 H 12.3077 3.99356 0.72592 0
M  V30 129 H 13.0737 4.54388 -1.69577 0
M  V30 130 H 8.9527 4.58595 -0.470279 0
M  V30 131 H 12.4967 5.95016 -3.64145 0
M  V30 132 H 8.3937 5.98927 -2.40742 0
M  V30 133 H 9.1617 7.01954 -4.20954 0
M  V30 134 N 11.8248 0.280983 1.55075 0
M  V30 135 C 13.0718 -0.334115 1.99725 0
M  V30 136 C 13.3998 -1.5542 1.1694 0
M  V30 137 O 12.6548 -1.94361 0.228531 0
M  V30 138 C 12.9538 -0.754656 3.49342 0
M  V30 139 C 12.6198 0.361445 4.49449 0
M  V30 140 C 11.2818 0.667893 4.76542 0
M  V30 141 C 13.6338 1.11322 5.09173 0
M  V30 142 C 10.9618 1.7296 5.60626 0
M  V30 143 C 13.3138 2.1647 5.9441 0
M  V30 144 C 11.9778 2.47742 6.19822 0
M  V30 145 H 11.2478 -0.122261 0.730844 0
M  V30 146 H 13.8948 0.395917 1.87363 0
M  V30 147 H 12.1998 -1.56446 3.5921 0
M  V30 148 H 13.8968 -1.24142 3.813 0
M  V30 149 H 10.4868 0.112481 4.28452 0
M  V30 150 H 14.6708 0.88973 4.8826 0
M  V30 151 H 9.9268 1.97684 5.78559 0
M  V30 152 H 14.1008 2.75193 6.3972 0
M  V30 153 H 11.7278 3.30145 6.84769 0
M  V30 154 N 13.3029 -1.57598 0.00835791 0
M  V30 155 C 14.5509 -1.90551 -0.6734 0
M  V30 156 C 14.8719 -0.883301 -1.73847 0
M  V30 157 O 14.1419 0.0781442 -1.95744 0
M  V30 158 H 12.7219 -0.703312 -0.251717 0
M  V30 159 H 15.3839 -1.94833 0.0512592 0
M  V30 160 H 14.4799 -2.9056 -1.13935 0
M  V30 161 N 14.781 0.264519 -1.55364 0
M  V30 162 C 15.691 1.34902 -1.91934 0
M  V30 163 C 16.707 1.53595 -0.817593 0
M  V30 164 O 17.883 1.67558 -1.11742 0
M  V30 165 C 14.948 2.68676 -2.19121 0
M  V30 166 C 14.009 2.58657 -3.4263 0
M  V30 167 C 13.242 3.86051 -3.68511 0
M  V30 168 O 13.465 4.87126 -2.96757 0
M  V30 169 O 12.399 3.85744 -4.62045 0
M  V30 170 H 16.225 1.06883 -2.8427 0
M  V30 171 H 13.81 0.463775 -1.42019 0
M  V30 172 H 15.692 3.47759 -2.37995 0
M  V30 173 H 14.367 2.96463 -1.29966 0
M  V30 174 H 13.274 1.7792 -3.29082 0
M  V30 175 H 14.607 2.35818 -4.32031 0
M  V30 176 N 16.2591 1.48442 0.529413 0
M  V30 177 C 17.5061 1.56488 1.28521 0
M  V30 178 C 17.8341 0.239042 1.93025 0
M  V30 179 O 17.0891 -0.770713 1.79885 0
M  V30 180 C 17.3881 2.6523 2.39558 0
M  V30 181 C 17.0541 4.07648 1.92702 0
M  V30 182 C 15.7161 4.46411 1.79641 0
M  V30 183 C 18.0681 4.96896 1.573 0
M  V30 184 C 15.3961 5.72226 1.29514 0
M  V30 185 C 17.7481 6.23202 1.08636 0
M  V30 186 C 16.4121 6.60821 0.941919 0
M  V30 187 H 15.6821 0.572631 0.470292 0
M  V30 188 H 18.3291 1.82161 0.59072 0
M  V30 189 H 16.6341 2.33419 3.14679 0
M  V30 190 H 18.3311 2.68671 2.97686 0
M  V30 191 H 14.9211 3.77036 2.03819 0
M  V30 192 H 19.1051 4.67626 1.66251 0
M  V30 193 H 14.3611 6.00097 1.17019 0
M  V30 194 H 18.5351 6.91753 0.803136 0
M  V30 195 H 16.1621 7.58198 0.5513 0
M  V30 196 N 17.7372 -0.778329 1.37039 0
M  V30 197 C 18.9852 -1.53361 1.31623 0
M  V30 198 C 19.3062 -1.94739 -0.100831 0
M  V30 199 O 18.5762 -1.65797 -1.04347 0
M  V30 200 H 17.1562 -0.568794 0.484234 0
M  V30 201 H 19.8182 -0.926742 1.71457 0
M  V30 202 H 18.9142 -2.43606 1.95096 0
M  V30 203 N 19.2153 -1.21501 -1.00376 0
M  V30 204 C 20.4633 -1.03095 -1.73827 0
M  V30 205 C 20.7843 0.436341 -1.90055 0
M  V30 206 O 20.0543 1.31466 -1.45236 0
M  V30 207 H 18.6343 -0.378487 -0.644016 0
M  V30 208 H 21.2963 -1.52831 -1.20949 0
M  V30 209 H 20.3923 -1.49991 -2.73695 0
M  V30 210 N 20.6934 1.19889 -1.02296 0
M  V30 211 C 21.6264 2.21639 -0.543282 0
M  V30 212 C 22.6044 1.57275 0.412698 0
M  V30 213 O 23.7884 1.85568 0.331198 0
M  V30 214 C 20.9154 3.38057 0.208571 0
M  V30 215 C 19.9614 4.20751 -0.697933 0
M  V30 216 S 20.7944 4.89529 -2.17075 0
M  V30 217 C 21.9504 6.09363 -1.42923 0
M  V30 218 H 22.1834 2.61984 -1.40541 0
M  V30 219 H 19.7164 1.30041 -0.832387 0
M  V30 220 H 21.6744 4.05539 0.63624 0
M  V30 221 H 20.3354 2.96159 1.04635 0
M  V30 222 H 19.5284 5.03862 -0.117831 0
M  V30 223 H 19.1304 3.58556 -1.06366 0
M  V30 224 H 21.4224 6.73742 -0.712637 0
M  V30 225 H 22.3654 6.71845 -2.23673 0
M  V30 226 H 22.7734 5.56798 -0.929327 0
M  V30 227 N 22.1715 0.800033 1.35784 0
M  V30 228 C 23.4015 0.389041 2.02904 0
M  V30 229 C 23.8095 -1.0027 1.60445 0
M  V30 230 O 23.1525 -1.65633 0.794453 0
M  V30 231 C 23.2145 0.385495 3.57427 0
M  V30 232 C 22.8785 1.72662 4.23127 0
M  V30 233 C 23.8755 2.68385 4.4527 0
M  V30 234 C 21.5605 2.00883 4.60381 0
M  V30 235 C 23.5545 3.90517 5.03761 0
M  V30 236 C 21.2415 3.2328 5.18588 0
M  V30 237 C 22.2395 4.17915 5.40218 0
M  V30 238 O 21.9275 5.38153 5.97199 0
M  V30 239 H 21.6595 0.157032 0.657508 0
M  V30 240 H 24.2135 1.08311 1.74522 0
M  V30 241 H 22.4435 -0.365128 3.84972 0
M  V30 242 H 24.1325 -0.00228296 4.059 0
M  V30 243 H 24.8985 2.47872 4.16874 0
M  V30 244 H 20.7775 1.28037 4.42863 0
M  V30 245 H 24.3215 4.64395 5.2056 0
M  V30 246 H 20.2185 3.43667 5.4641 0
M  V30 247 H 20.9865 5.3936 6.15656 0
M  V30 248 N 23.6496 -1.47581 0.552962 0
M  V30 249 C 24.8956 -2.02782 0.0273648 0
M  V30 250 C 25.2286 -1.42687 -1.31734 0
M  V30 251 O 24.5036 -0.580897 -1.85623 0
M  V30 252 C 24.7866 -3.60031 -0.0702371 0
M  V30 253 C 24.6396 -4.30566 1.30126 0
M  V30 254 C 25.9586 -4.33028 -0.785771 0
M  V30 255 H 23.0776 -0.736912 0.0114185 0
M  V30 256 H 25.7196 -1.76056 0.714432 0
M  V30 257 H 23.8696 -3.82932 -0.655382 0
M  V30 258 H 25.5416 -4.19018 1.92929 0
M  V30 259 H 23.7846 -3.91086 1.87709 0
M  V30 260 H 24.4556 -5.39114 1.18573 0
M  V30 261 H 26.9316 -4.15095 -0.288982 0
M  V30 262 H 25.8076 -5.42695 -0.823013 0
M  V30 263 H 26.0686 -4.01945 -1.841 0
M  V30 264 N 25.1277 -0.289203 -1.54924 0
M  V30 265 C 26.5387 0.205791 -1.85562 0
M  V30 266 C 26.8897 1.54351 -1.2112 0
M  V30 267 O 26.0147 2.10435 -0.504601 0
M  V30 268 C 26.6097 0.380177 -3.3666 0
M  V30 269 C 25.1687 0.819395 -3.67373 0
M  V30 270 C 24.3157 -0.079159 -2.77187 0
M  V30 271 H 27.2667 -0.510577 -1.50262 0
M  V30 272 H 27.2877 1.21659 -3.60526 0
M  V30 273 H 26.7997 -0.593589 -3.83534 0
M  V30 274 H 24.9007 1.80413 -3.26009 0
M  V30 275 H 25.0137 0.646957 -4.74712 0
M  V30 276 H 23.3777 0.439565 -2.50878 0
M  V30 277 H 24.1607 -1.04906 -3.26878 0
M  V30 278 N 26.6058 1.57591 -0.0167156 0
M  V30 279 C 27.5378 2.06343 0.997753 0
M  V30 280 C 28.5508 0.984469 1.29661 0
M  V30 281 O 29.7398 1.26093 1.26344 0
M  V30 282 C 26.8398 2.46255 2.32834 0
M  V30 283 C 26.0128 3.77083 2.21646 0
M  V30 284 C 25.0718 4.0368 3.37534 0
M  V30 285 O 24.0978 4.7411 3.14973 0
M  V30 286 N 25.2998 3.52881 4.60929 0
M  V30 287 H 28.0648 2.93997 0.581875 0
M  V30 288 H 25.6258 1.61002 0.170316 0
M  V30 289 H 27.6178 2.61149 3.09166 0
M  V30 290 H 26.1878 1.64032 2.66106 0
M  V30 291 H 25.4078 3.72106 1.30119 0
M  V30 292 H 26.6958 4.62822 2.11361 0
M  V30 293 H 26.0938 2.95878 4.82154 0
M  V30 294 H 24.6508 3.73076 5.34469 0
M  V30 295 N 28.0839 -0.256276 1.55502 0
M  V30 296 C 29.3329 -0.983486 1.76098 0
M  V30 297 C 29.6459 -1.86837 0.578896 0
M  V30 298 O 30.8519 -2.63163 0.667648 0
M  V30 299 C 29.3079 -1.79868 3.1173 0
M  V30 300 C 28.9159 -0.961648 4.37557 0
M  V30 301 C 30.6599 -2.51919 3.41668 0
M  V30 302 C 28.5669 -1.77219 5.64223 0
M  V30 303 H 27.4969 -0.370936 0.656447 0
M  V30 304 H 30.1479 -0.238492 1.81944 0
M  V30 305 H 28.5299 -2.58527 2.99966 0
M  V30 306 H 29.7039 -0.218048 4.60284 0
M  V30 307 H 28.0189 -0.354913 4.14885 0
M  V30 308 H 30.6159 -3.12998 4.33516 0
M  V30 309 H 30.9589 -3.23059 2.62562 0
M  V30 310 H 31.4919 -1.80278 3.54605 0
M  V30 311 H 28.2309 -1.10471 6.46124 0
M  V30 312 H 27.7509 -2.49132 5.45613 0
M  V30 313 H 29.4299 -2.34169 6.03137 0
M  V30 314 N 29.562 -1.4872 -0.521534 0
M  V30 315 C 30.492 -1.66771 -1.63431 0
M  V30 316 C 31.473 -0.516499 -1.62069 0
M  V30 317 O 32.658 -0.750013 -1.79132 0
M  V30 318 C 29.788 -1.71515 -3.01993 0
M  V30 319 C 28.742 -2.86222 -3.18216 0
M  V30 320 C 28.068 -2.76061 -4.57924 0
M  V30 321 C 29.368 -4.27419 -3.00184 0
M  V30 322 H 31.062 -2.59932 -1.48579 0
M  V30 323 H 28.608 -1.25089 -0.713358 0
M  V30 324 H 30.561 -1.82731 -3.7972 0
M  V30 325 H 29.285 -0.749393 -3.17886 0
M  V30 326 H 27.944 -2.74575 -2.42908 0
M  V30 327 H 27.592 -1.77437 -4.70665 0
M  V30 328 H 27.292 -3.53037 -4.69722 0
M  V30 329 H 28.816 -2.89256 -5.37739 0
M  V30 330 H 30.23 -4.39855 -3.67697 0
M  V30 331 H 28.627 -5.05458 -3.2347 0
M  V30 332 H 29.697 -4.43293 -1.96518 0
M  V30 333 N 31.0401 0.771051 -1.3745 0
M  V30 334 C 31.9731 1.89166 -1.27638 0
M  V30 335 C 32.9511 1.61842 -0.156782 0
M  V30 336 O 34.1351 1.85569 -0.331111 0
M  V30 337 C 31.2621 3.24405 -0.973621 0
M  V30 338 C 30.3081 3.70638 -2.1102 0
M  V30 339 S 31.1411 3.84228 -3.73 0
M  V30 340 C 32.2971 5.22313 -3.44876 0
M  V30 341 H 32.5301 1.972 -2.22485 0
M  V30 342 H 30.0631 0.932224 -1.23081 0
M  V30 343 H 32.0211 4.02514 -0.805766 0
M  V30 344 H 30.6821 3.14071 -0.0426279 0
M  V30 345 H 29.8751 4.68685 -1.85338 0
M  V30 346 H 29.4771 2.99632 -2.23822 0
M  V30 347 H 31.7691 6.07505 -2.99908 0
M  V30 348 H 32.7121 5.53008 -4.42253 0
M  V30 349 H 33.1201 4.90284 -2.79789 0
M  V30 350 N 32.5182 1.22032 0.997298 0
M  V30 351 C 33.9292 1.0397 1.55071 0
M  V30 352 C 34.2802 -0.398192 1.92117 0
M  V30 353 O 33.4052 -1.28254 1.74298 0
M  V30 354 C 34.0002 1.88109 2.81781 0
M  V30 355 C 32.5592 1.74357 3.33581 0
M  V30 356 C 31.7062 1.84846 2.06706 0
M  V30 357 H 34.6572 1.35941 0.818883 0
M  V30 358 H 34.6782 1.39589 3.53971 0
M  V30 359 H 34.1902 2.92754 2.54787 0
M  V30 360 H 32.2912 0.72427 3.65493 0
M  V30 361 H 32.4042 2.56772 4.04481 0
M  V30 362 H 30.7682 1.28238 2.20062 0
M  V30 363 H 31.5512 2.91014 1.82114 0
M  V30 364 N 33.9963 -1.19345 1.0293 0
M  V30 365 C 34.9593 -2.20793 0.615069 0
M  V30 366 C 35.9593 -1.57553 -0.321533 0
M  V30 367 O 37.1493 -1.73862 -0.108483 0
M  V30 368 C 34.2813 -3.40754 -0.0999222 0
M  V30 369 H 35.4743 -2.58955 1.51269 0
M  V30 370 H 33.0273 -1.3303 0.820534 0
M  V30 371 H 33.7623 -3.0811 -1.01187 0
M  V30 372 H 33.5473 -3.87889 0.57309 0
M  V30 373 H 35.0373 -4.15898 -0.376645 0
M  V30 374 N 35.4744 -0.807222 -1.35358 0
M  V30 375 C 36.4044 -0.232509 -2.3234 0
M  V30 376 C 37.3854 0.642386 -1.57504 0
M  V30 377 O 38.5704 0.572526 -1.85569 0
M  V30 378 C 35.7004 0.619238 -3.41735 0
M  V30 379 C 34.6544 -0.157215 -4.27711 0
M  V30 380 C 33.9804 0.816273 -5.28433 0
M  V30 381 C 35.2804 -1.35656 -5.04376 0
M  V30 382 H 36.9744 -1.04276 -2.80654 0
M  V30 383 H 34.5204 -0.50288 -1.34934 0
M  V30 384 H 36.4734 1.03137 -4.08584 0
M  V30 385 H 35.1974 1.46239 -2.92031 0
M  V30 386 H 33.8564 -0.550525 -3.62443 0
M  V30 387 H 33.5044 1.65494 -4.74996 0
M  V30 388 H 33.2044 0.301067 -5.86828 0
M  V30 389 H 34.7284 1.22659 -5.98153 0
M  V30 390 H 36.1424 -1.01927 -5.64166 0
M  V30 391 H 34.5394 -1.8063 -5.7227 0
M  V30 392 H 35.6094 -2.14288 -4.34981 0
M  V30 393 N 36.9525 1.47285 -0.560781 0
M  V30 394 C 37.9005 2.31756 0.197942 0
M  V30 395 C 38.8945 1.43146 0.905854 0
M  V30 396 O 40.1005 1.59891 0.826733 0
M  V30 397 H 36.4755 0.747438 0.0827049 0
M  V30 398 H 38.4465 2.9359 -0.533629 0
M  V30 399 C 37.1955 3.25874 1.21249 0
M  V30 400 H 36.5185 3.94023 0.67719 0
M  V30 401 H 37.9585 3.87803 1.71419 0
M  V30 402 C 36.4175 2.49651 2.26221 0
M  V30 403 O 36.9475 2.24355 3.33208 0
M  V30 404 N 35.1535 2.10597 2.00243 0
M  V30 405 H 34.7005 2.31369 1.13252 0
M  V30 406 H 34.6585 1.59913 2.70694 0
M  V30 407 N 38.4306 0.297415 1.54768 0
M  V30 408 C 39.3626 -0.613881 2.20826 0
M  V30 409 C 40.3756 -1.10032 1.19987 0
M  V30 410 O 41.5646 -1.01839 1.46598 0
M  V30 411 C 38.6646 -1.852 2.83821 0
M  V30 412 C 37.8376 -1.50865 4.10559 0
M  V30 413 C 36.8966 -2.60154 4.57391 0
M  V30 414 O 35.9226 -2.25398 5.2267 0
M  V30 415 N 37.1246 -3.90629 4.29406 0
M  V30 416 H 39.8896 -0.048389 2.99661 0
M  V30 417 H 37.4506 0.11946 1.61459 0
M  V30 418 H 39.4426 -2.57652 3.12086 0
M  V30 419 H 38.0126 -2.32597 2.08847 0
M  V30 420 H 37.2326 -0.616925 3.89343 0
M  V30 421 H 38.5206 -1.25458 4.9309 0
M  V30 422 H 37.9186 -4.21677 3.77101 0
M  V30 423 H 36.4756 -4.59391 4.62388 0
M  V30 424 N 39.9087 -1.5758 0.0250728 0
M  V30 425 C 40.8387 -2.13007 -0.956575 0
M  V30 426 C 41.8197 -1.0452 -1.342 0
M  V30 427 O 43.0047 -1.32332 -1.42133 0
M  V30 428 C 40.1347 -2.65386 -2.24026 0
M  V30 429 C 39.0887 -3.78623 -1.99571 0
M  V30 430 C 38.4147 -4.17414 -3.3417 0
M  V30 431 C 39.7147 -5.04867 -1.33814 0
M  V30 432 H 41.4087 -2.9528 -0.494991 0
M  V30 433 H 38.9547 -1.42042 -0.236651 0
M  V30 434 H 40.9077 -3.02794 -2.93076 0
M  V30 435 H 39.6317 -1.80268 -2.72343 0
M  V30 436 H 38.2907 -3.41646 -1.32941 0
M  V30 437 H 37.9387 -3.29284 -3.80238 0
M  V30 438 H 37.6387 -4.93719 -3.18615 0
M  V30 439 H 39.1627 -4.57402 -4.04495 0
M  V30 440 H 40.5767 -5.39888 -1.92857 0
M  V30 441 H 38.9737 -5.86144 -1.28669 0
M  V30 442 H 40.0437 -4.83904 -0.310561 0
M  V30 443 N 41.3868 0.248026 -1.55636 0
M  V30 444 C 42.2968 1.32859 -1.93354 0
M  V30 445 C 43.3128 1.52719 -0.833838 0
M  V30 446 O 44.4888 1.66363 -1.13513 0
M  V30 447 C 41.5538 2.66337 -2.21958 0
M  V30 448 C 40.6148 2.55008 -3.45354 0
M  V30 449 C 39.8478 3.82121 -3.72584 0
M  V30 450 O 40.0708 4.83951 -3.01907 0
M  V30 451 O 39.0048 3.80822 -4.6611 0
M  V30 452 H 42.8308 1.03862 -2.85388 0
M  V30 453 H 40.4158 0.448686 -1.42503 0
M  V30 454 H 42.2978 3.45216 -2.4167 0
M  V30 455 H 40.9728 2.95068 -1.33103 0
M  V30 456 H 39.8798 1.7442 -3.30951 0
M  V30 457 H 41.2128 2.31222 -4.34508 0
M  V30 458 N 42.8649 1.48995 0.513639 0
M  V30 459 C 43.7749 1.67443 1.64317 0
M  V30 460 C 44.7909 0.556947 1.64846 0
M  V30 461 O 45.9669 0.830082 1.83498 0
M  V30 462 C 43.0319 1.72515 3.00732 0
M  V30 463 C 42.0929 2.96009 3.1093 0
M  V30 464 C 41.3259 3.00829 4.40837 0
M  V30 465 O 41.5489 2.13594 5.28898 0
M  V30 466 O 40.4829 3.93168 4.55744 0
M  V30 467 H 44.3089 2.63106 1.51687 0
M  V30 468 H 41.8939 1.32588 0.688543 0
M  V30 469 H 43.7759 1.78277 3.81831 0
M  V30 470 H 42.4509 0.800278 3.13651 0
M  V30 471 H 41.3579 2.9577 2.29065 0
M  V30 472 H 42.6909 3.87934 3.02933 0
M  V30 473 N 44.343 -0.763751 1.37857 0
M  V30 474 C 45.306 -1.85889 1.34081 0
M  V30 475 C 46.306 -1.58949 0.243277 0
M  V30 476 O 47.496 -1.66882 0.499589 0
M  V30 477 C 44.628 -3.23176 1.08489 0
M  V30 478 H 45.821 -1.90648 2.31502 0
M  V30 479 H 43.374 -0.964367 1.23003 0
M  V30 480 H 44.109 -3.24091 0.116318 0
M  V30 481 H 43.894 -3.44124 1.8794 0
M  V30 482 H 45.384 -4.03254 1.08517 0
M  V30 483 N 45.8211 -1.22559 -0.990812 0
M  V30 484 C 47.0681 -1.05141 -1.73065 0
M  V30 485 C 47.3961 0.413191 -1.9006 0
M  V30 486 O 46.6511 1.32257 -1.44245 0
M  V30 487 C 46.9501 -1.71011 -3.13831 0
M  V30 488 C 46.6161 -3.20911 -3.16745 0
M  V30 489 C 45.2781 -3.61812 -3.17247 0
M  V30 490 C 47.6301 -4.16846 -3.12872 0
M  V30 491 C 44.9581 -4.97127 -3.1158 0
M  V30 492 C 47.3101 -5.5214 -3.08746 0
M  V30 493 C 45.9741 -5.92419 -3.07565 0
M  V30 494 H 45.2441 -0.384738 -0.633291 0
M  V30 495 H 47.8911 -1.5235 -1.16025 0
M  V30 496 H 46.1961 -1.16133 -3.74193 0
M  V30 497 H 47.8931 -1.55023 -3.69823 0
M  V30 498 H 44.4831 -2.88344 -3.17105 0
M  V30 499 H 48.6671 -3.86263 -3.11632 0
M  V30 500 H 43.9231 -5.27562 -3.09012 0
M  V30 501 H 48.0971 -6.26201 -3.04705 0
M  V30 502 H 45.7241 -6.97236 -3.02929 0
M  V30 503 N 47.2992 1.18797 -1.03562 0
M  V30 504 C 48.5452 1.8893 -0.737113 0
M  V30 505 C 48.8782 1.79837 0.732956 0
M  V30 506 O 48.1532 1.19525 1.5344 0
M  V30 507 C 48.4362 3.39607 -1.19745 0
M  V30 508 C 48.2892 3.57537 -2.72924 0
M  V30 509 C 49.6082 4.33069 -0.783526 0
M  V30 510 H 46.7272 0.686057 -0.269249 0
M  V30 511 H 49.3692 1.39797 -1.28673 0
M  V30 512 H 47.5192 3.81583 -0.729855 0
M  V30 513 H 49.1912 3.24688 -3.27682 0
M  V30 514 H 47.4342 3.00363 -3.12993 0
M  V30 515 H 48.1052 4.63238 -3.00191 0
M  V30 516 H 50.5812 3.98846 -1.18581 0
M  V30 517 H 49.4572 5.3707 -1.13343 0
M  V30 518 H 49.7182 4.40986 0.313681 0
M  V30 519 N 48.7773 0.814389 1.34928 0
M  V30 520 C 50.0023 0.410097 2.03305 0
M  V30 521 C 50.4273 -0.973464 1.60951 0
M  V30 522 O 49.7853 -1.63185 0.789964 0
M  V30 523 C 49.8333 0.51049 3.56968 0
M  V30 524 O 48.9373 -0.473035 4.09678 0
M  V30 525 H 48.2783 0.170088 0.641846 0
M  V30 526 H 50.8083 1.10244 1.72358 0
M  V30 527 H 50.8183 0.383135 4.06197 0
M  V30 528 H 49.4933 1.51963 3.87144 0
M  V30 529 H 48.0703 -0.305272 3.71648 0
M  V30 530 N 50.2554 -1.46986 0.568584 0
M  V30 531 C 51.2184 -2.28624 -0.162366 0
M  V30 532 C 52.2184 -1.37596 -0.832103 0
M  V30 533 O 53.4084 -1.60115 -0.68622 0
M  V30 534 C 50.5404 -3.17596 -1.23878 0
M  V30 535 H 51.7334 -2.94722 0.554899 0
M  V30 536 H 49.2864 -1.52863 0.325976 0
M  V30 537 H 50.0214 -2.56214 -1.98808 0
M  V30 538 H 49.8064 -3.846 -0.763219 0
M  V30 539 H 51.2964 -3.79078 -1.75185 0
M  V30 540 N 51.7335 -0.305618 -1.54608 0
M  V30 541 C 52.6655 0.602161 -2.21149 0
M  V30 542 C 53.6785 1.09394 -1.20569 0
M  V30 543 O 54.8675 1.0106 -1.47136 0
M  V30 544 C 51.9675 1.83692 -2.84799 0
M  V30 545 C 51.1405 1.48686 -4.11353 0
M  V30 546 C 50.1995 2.57725 -4.58764 0
M  V30 547 O 49.2255 2.22623 -5.23858 0
M  V30 548 N 50.4275 3.88346 -4.31471 0
M  V30 549 H 53.1925 0.0324966 -2.99682 0
M  V30 550 H 50.7535 -0.128021 -1.61393 0
M  V30 551 H 52.7455 2.55994 -3.13448 0
M  V30 552 H 51.3155 2.31486 -2.10078 0
M  V30 553 H 50.5355 0.596269 -3.89664 0
M  V30 554 H 51.8235 1.22842 -4.93748 0
M  V30 555 H 51.2215 4.19671 -3.79331 0
M  V30 556 H 49.7785 4.56932 -4.64818 0
M  V30 557 N 53.2116 1.57565 -0.0334293 0
M  V30 558 C 54.1586 2.10478 0.946981 0
M  V30 559 C 55.1286 1.00787 1.32027 0
M  V30 560 O 56.3136 1.28232 1.41284 0
M  V30 561 C 53.4536 2.63994 2.22263 0
M  V30 562 C 52.5666 3.87709 1.90541 0
M  V30 563 C 51.7016 4.29604 3.12433 0
M  V30 564 C 50.7406 5.46065 2.76549 0
M  V30 565 N 49.8776 5.83096 3.9108 0
M  V30 566 H 54.7176 2.93963 0.488846 0
M  V30 567 H 52.2546 1.45296 0.22969 0
M  V30 568 H 54.2126 2.93114 2.96884 0
M  V30 569 H 52.8426 1.83333 2.65685 0
M  V30 570 H 51.8946 3.65291 1.06144 0
M  V30 571 H 53.2066 4.72403 1.60116 0
M  V30 572 H 52.3606 4.60182 3.9537 0
M  V30 573 H 51.0996 3.43685 3.46023 0
M  V30 574 H 50.1046 5.15176 1.92026 0
M  V30 575 H 51.3296 6.33685 2.44171 0
M  V30 576 H 49.2756 5.00132 4.24504 0
M  V30 577 H 49.1926 6.6244 3.64293 0
M  V30 578 H 50.4606 6.18282 4.74708 0
M  V30 579 N 54.6897 -0.239769 1.55765 0
M  V30 580 C 55.9667 -0.990056 1.68693 0
M  V30 581 C 56.3467 -2.03107 0.5754 0
M  V30 582 O 55.6947 -2.24604 -0.42017 0
M  V30 583 C 55.9047 -1.61696 3.09282 0
M  V30 584 C 57.2527 -2.11613 3.6811 0
M  V30 585 O 58.2767 -1.71624 3.12127 0
M  V30 586 O 57.1357 -2.85057 4.66267 0
M  V30 587 H 54.2297 -0.461299 0.686391 0
M  V30 588 H 56.7757 -0.232991 1.68093 0
M  V30 589 H 55.5477 -0.864357 3.81634 0
M  V30 590 H 55.1707 -2.44005 3.13923 0
M  V30 591 N 56.1678 -1.49265 -0.50573 0
M  V30 592 C 57.5788 -1.51769 -1.08734 0
M  V30 593 C 57.9298 -0.301192 -1.93874 0
M  V30 594 O 57.0548 0.589456 -2.08217 0
M  V30 595 C 57.6498 -2.75017 -1.97867 0
M  V30 596 C 56.2088 -2.80314 -2.51199 0
M  V30 597 C 55.3558 -2.4562 -1.28709 0
M  V30 598 H 58.3068 -1.56031 -0.289855 0
M  V30 599 H 58.3278 -2.5491 -2.82491 0
M  V30 600 H 57.8398 -3.63539 -1.35873 0
M  V30 601 H 55.9408 -1.96061 -3.16845 0
M  V30 602 H 56.0538 -3.82366 -2.88675 0
M  V30 603 H 54.4178 -1.97297 -1.61078 0
M  V30 604 H 55.2008 -3.36411 -0.6843 0
M  V30 605 N 57.6459 0.756429 -1.3826 0
M  V30 606 C 58.5559 1.9009 -1.37488 0
M  V30 607 C 59.5719 1.71855 -0.272366 0
M  V30 608 O 60.7479 1.94827 -0.510318 0
M  V30 609 C 57.8129 3.25421 -1.19592 0
M  V30 610 C 56.8739 3.56202 -2.39622 0
M  V30 611 C 56.1069 4.85075 -2.2257 0
M  V30 612 O 56.3299 5.57246 -1.21793 0
M  V30 613 O 55.2639 5.15269 -3.11098 0
M  V30 614 H 59.0899 1.93695 -2.33914 0
M  V30 615 H 56.6749 0.901313 -1.1915 0
M  V30 616 H 58.5569 4.06337 -1.11661 0
M  V30 617 H 57.2319 3.22634 -0.262486 0
M  V30 618 H 56.1389 2.75458 -2.53128 0
M  V30 619 H 57.4719 3.63747 -3.31586 0
M  V30 620 N 59.124 1.23083 0.984299 0
M  V30 621 C 60.371 1.06057 1.72505 0
M  V30 622 C 60.699 -0.403105 1.90277 0
M  V30 623 O 59.954 -1.3149 1.44944 0
M  V30 624 C 60.253 1.72673 3.1292 0
M  V30 625 C 59.919 3.22586 3.15038 0
M  V30 626 C 58.581 3.63489 3.15324 0
M  V30 627 C 60.933 4.185 3.10657 0
M  V30 628 C 58.261 4.98772 3.08939 0
M  V30 629 C 60.613 5.53769 3.05814 0
M  V30 630 C 59.277 5.94041 3.04419 0
M  V30 631 H 58.547 0.388091 0.631242 0
M  V30 632 H 61.194 1.52963 1.15215 0
M  V30 633 H 59.499 1.18116 3.73572 0
M  V30 634 H 61.196 1.56982 3.68996 0
M  V30 635 H 57.786 2.90022 3.15571 0
M  V30 636 H 61.97 3.87911 3.09579 0
M  V30 637 H 57.226 5.29193 3.0621 0
M  V30 638 H 61.4 6.27808 3.0138 0
M  V30 639 H 59.027 6.98833 2.99227 0
M  V30 640 N 60.6021 -1.18246 1.0419 0
M  V30 641 C 61.5341 -2.2142 0.592088 0
M  V30 642 C 62.5471 -1.59233 -0.338909 0
M  V30 643 O 63.7361 -1.78002 -0.133231 0
M  V30 644 C 60.8361 -3.38546 -0.154854 0
M  V30 645 C 60.0091 -4.3031 0.784328 0
M  V30 646 C 59.0681 -5.26138 0.0804583 0
M  V30 647 O 58.0941 -5.64738 0.711292 0
M  V30 648 N 59.2961 -5.68261 -1.18574 0
M  V30 649 H 62.0611 -2.60636 1.47949 0
M  V30 650 H 59.6221 -1.33044 0.922544 0
M  V30 651 H 61.6141 -3.99678 -0.635606 0
M  V30 652 H 60.1841 -2.98012 -0.943811 0
M  V30 653 H 59.4041 -3.66764 1.44491 0
M  V30 654 H 60.6921 -4.8852 1.42218 0
M  V30 655 H 60.0901 -5.38957 -1.71876 0
M  V30 656 H 58.6471 -6.31584 -1.61074 0
M  V30 657 N 62.0802 -0.821533 -1.34494 0
M  V30 658 C 63.0432 -0.247847 -2.27856 0
M  V30 659 C 64.0432 0.573453 -1.50227 0
M  V30 660 O 65.2332 0.389759 -1.69784 0
M  V30 661 C 62.3652 0.652698 -3.34593 0
M  V30 662 H 63.5582 -1.07146 -2.80107 0
M  V30 663 H 61.1112 -0.593291 -1.44602 0
M  V30 664 H 61.8462 1.49943 -2.87555 0
M  V30 665 H 61.6312 0.065292 -3.92046 0
M  V30 666 H 63.1212 1.04793 -4.04238 0
M  V30 667 N 63.5583 1.46682 -0.576371 0
M  V30 668 C 64.4903 2.28341 0.198231 0
M  V30 669 C 65.5033 1.38141 0.861453 0
M  V30 670 O 66.6923 1.62797 0.732082 0
M  V30 671 C 63.7923 3.12986 1.29972 0
M  V30 672 C 62.9653 4.31271 0.729639 0
M  V30 673 C 62.0243 4.97363 1.71803 0
M  V30 674 O 61.0503 5.55156 1.25658 0
M  V30 675 N 62.2523 4.93796 3.05198 0
M  V30 676 H 65.0173 2.9546 -0.502324 0
M  V30 677 H 62.5783 1.56525 -0.413715 0
M  V30 678 H 64.5703 3.54066 1.96008 0
M  V30 679 H 63.1403 2.47984 1.90323 0
M  V30 680 H 62.3603 3.94052 -0.108012 0
M  V30 681 H 63.6483 5.07739 0.328438 0
M  V30 682 H 63.0463 4.48077 3.45317 0
M  V30 683 H 61.6033 5.38837 3.6674 0
M  V30 684 N 65.0364 0.313813 1.54444 0
M  V30 685 C 66.2834 -0.291675 2.00388 0
M  V30 686 C 66.6114 -1.52904 1.2021 0
M  V30 687 O 65.8664 -1.93833 0.269707 0
M  V30 688 C 66.1654 -0.680386 3.50864 0
M  V30 689 C 65.8314 0.456699 4.48581 0
M  V30 690 C 64.4934 0.768824 4.75018 0
M  V30 691 C 66.8454 1.22098 5.06697 0
M  V30 692 C 64.1734 1.84812 5.56831 0
M  V30 693 C 66.5254 2.29029 5.89685 0
M  V30 694 C 65.1894 2.60834 6.14428 0
M  V30 695 H 64.4594 -0.106732 0.733273 0
M  V30 696 H 67.1064 0.43557 1.86481 0
M  V30 697 H 65.4114 -1.48791 3.62448 0
M  V30 698 H 67.1084 -1.16026 3.83847 0
M  V30 699 H 63.6984 0.203337 4.28117 0
M  V30 700 H 67.8824 0.993096 4.86263 0
M  V30 701 H 63.1384 2.09912 5.74236 0
M  V30 702 H 67.3124 2.887 6.33739 0
M  V30 703 H 64.9394 3.44596 6.77612 0
M  V30 704 N 66.5145 -1.57545 0.0417849 0
M  V30 705 C 67.4775 -2.09885 -0.92093 0
M  V30 706 C 68.4775 -1.01648 -1.24596 0
M  V30 707 O 69.6675 -1.27759 -1.1842 0
M  V30 708 C 66.7995 -2.57527 -2.23367 0
M  V30 709 H 67.9925 -2.96236 -0.467382 0
M  V30 710 H 65.5455 -1.5493 -0.206467 0
M  V30 711 H 66.2805 -1.74542 -2.73323 0
M  V30 712 H 66.0655 -3.36613 -2.01083 0
M  V30 713 H 67.5555 -2.98201 -2.92346 0
M  V30 714 N 67.9926 0.231505 -1.5589 0
M  V30 715 C 69.2696 0.981096 -1.69215 0
M  V30 716 C 69.6496 2.02799 -0.586164 0
M  V30 717 O 68.9976 2.24823 0.408253 0
M  V30 718 C 69.2076 1.60054 -3.10135 0
M  V30 719 C 70.5556 2.09658 -3.69227 0
M  V30 720 O 71.5796 1.69967 -3.13033 0
M  V30 721 O 70.4386 2.8258 -4.67772 0
M  V30 722 H 67.5326 0.457653 -0.688827 0
M  V30 723 H 70.0786 0.224073 -1.68214 0
M  V30 724 H 68.8506 0.844105 -3.82087 0
M  V30 725 H 68.4736 2.42336 -3.15212 0
M  V30 726 N 69.4707 1.49531 0.497807 0
M  V30 727 C 70.4007 1.6935 1.60757 0
M  V30 728 C 71.3817 0.542218 1.61227 0
M  V30 729 O 72.5667 0.778417 1.77917 0
M  V30 730 C 69.6967 1.76298 2.99226 0
M  V30 731 C 68.6507 2.91248 3.13622 0
M  V30 732 C 67.9767 2.83312 4.53474 0
M  V30 733 C 69.2767 4.3214 2.93346 0
M  V30 734 H 70.9707 2.62263 1.44425 0
M  V30 735 H 68.5167 1.26208 0.693367 0
M  V30 736 H 70.4697 1.88749 3.76765 0
M  V30 737 H 69.1937 0.799871 3.16654 0
M  V30 738 H 67.8527 2.78404 2.38509 0
M  V30 739 H 67.5007 1.84902 4.67782 0
M  V30 740 H 67.2007 3.60465 4.64046 0
M  V30 741 H 68.7247 2.97775 5.33069 0
M  V30 742 H 70.1387 4.45649 3.60652 0
M  V30 743 H 68.5357 5.1054 3.15387 0
M  V30 744 H 69.6057 4.46363 1.89441 0
M  V30 745 N 70.9488 -0.749086 1.3866 0
M  V30 746 C 71.8788 -1.8764 1.38973 0
M  V30 747 C 72.8598 -1.68178 0.255004 0
M  V30 748 O 74.0448 -1.88704 0.458754 0
M  V30 749 C 71.1748 -3.25222 1.21851 0
M  V30 750 C 70.1288 -3.59295 2.32575 0
M  V30 751 C 69.4548 -4.95663 2.00555 0
M  V30 752 C 70.7548 -3.63709 3.7485 0
M  V30 753 H 72.4488 -1.87635 2.3331 0
M  V30 754 H 69.9948 -0.901329 1.12303 0
M  V30 755 H 71.9478 -4.03746 1.20695 0
M  V30 756 H 70.6718 -3.25719 0.239775 0
M  V30 757 H 69.3308 -2.83093 2.32925 0
M  V30 758 H 68.9788 -4.92724 1.01154 0
M  V30 759 H 68.6788 -5.19429 2.74714 0
M  V30 760 H 70.2028 -5.7656 2.01024 0
M  V30 761 H 71.6168 -4.32338 3.76506 0
M  V30 762 H 70.0138 -3.98986 4.48252 0
M  V30 763 H 71.0838 -2.63834 4.06841 0
M  V30 764 N 72.4269 -1.23603 -0.977757 0
M  V30 765 C 73.3739 -1.01954 -2.07061 0
M  V30 766 C 74.3439 0.0638697 -1.65977 0
M  V30 767 O 75.5289 -0.0887624 -1.90593 0
M  V30 768 C 72.6689 -0.619658 -3.39491 0
M  V30 769 C 71.7819 -1.77547 -3.93829 0
M  V30 770 C 70.9169 -1.32212 -5.14484 0
M  V30 771 C 69.9559 -2.44852 -5.60994 0
M  V30 772 N 69.0929 -2.00456 -6.72876 0
M  V30 773 H 73.9329 -1.95495 -2.24913 0
M  V30 774 H 71.4699 -0.973861 -1.10247 0
M  V30 775 H 73.4279 -0.368898 -4.15566 0
M  V30 776 H 72.0579 0.278752 -3.21594 0
M  V30 777 H 71.1099 -2.14016 -3.14486 0
M  V30 778 H 72.4219 -2.62219 -4.24314 0
M  V30 779 H 71.5759 -1.02965 -5.97899 0
M  V30 780 H 70.3149 -0.445808 -4.85658 0
M  V30 781 H 69.3199 -2.74871 -4.76157 0
M  V30 782 H 70.5449 -3.33024 -5.91837 0
M  V30 783 H 68.4909 -1.15208 -6.45804 0
M  V30 784 H 68.4079 -2.78687 -7.02759 0
M  V30 785 H 69.6759 -1.7432 -7.59758 0
M  V30 786 N 73.905 1.17692 -1.04816 0
M  V30 787 C 74.853 2.23632 -0.63966 0
M  V30 788 C 75.847 1.6601 0.337219 0
M  V30 789 O 77.053 1.78844 0.203693 0
M  V30 790 H 73.428 0.727949 -0.188665 0
M  V30 791 H 75.399 2.55387 -1.54337 0
M  V30 792 C 74.148 3.4769 -0.0264051 0
M  V30 793 H 73.471 3.92331 -0.769164 0
M  V30 794 H 74.911 4.23418 0.222098 0
M  V30 795 C 73.37 3.13807 1.22584 0
M  V30 796 O 73.9 3.28236 2.31569 0
M  V30 797 N 72.106 2.68065 1.12202 0
M  V30 798 H 71.653 2.56525 0.235133 0
M  V30 799 H 71.611 2.45767 1.96076 0
M  V30 800 N 75.3831 0.828654 1.34056 0
M  V30 801 C 76.6131 0.431993 2.02033 0
M  V30 802 C 77.0211 -0.96844 1.62536 0
M  V30 803 O 76.3641 -1.6391 0.829408 0
M  V30 804 C 76.4261 0.461224 3.56529 0
M  V30 805 C 76.0901 1.81599 4.1937 0
M  V30 806 C 77.0871 2.7777 4.39477 0
M  V30 807 C 74.7721 2.10604 4.56017 0
M  V30 808 C 76.7661 4.01115 4.95364 0
M  V30 809 C 74.4531 3.34207 5.11614 0
M  V30 810 C 75.4511 4.2928 5.31232 0
M  V30 811 O 75.1391 5.50699 5.8565 0
M  V30 812 H 74.8711 0.170943 0.654029 0
M  V30 813 H 77.4251 1.11988 1.72185 0
M  V30 814 H 75.6551 -0.283388 3.8566 0
M  V30 815 H 77.3441 0.0838149 4.05813 0
M  V30 816 H 78.1101 2.56659 4.11523 0
M  V30 817 H 73.9891 1.37402 4.40047 0
M  V30 818 H 77.5331 4.75333 5.10592 0
M  V30 819 H 73.4301 3.55179 5.38997 0
M  V30 820 H 74.1981 5.52298 6.04077 0
M  V30 821 N 76.8612 -1.46375 0.584142 0
M  V30 822 C 77.8242 -2.28784 -0.138108 0
M  V30 823 C 78.8242 -1.38471 -0.817462 0
M  V30 824 O 80.0142 -1.60833 -0.669199 0
M  V30 825 C 77.1462 -3.18892 -1.20503 0
M  V30 826 H 78.3392 -2.94117 0.586127 0
M  V30 827 H 75.8922 -1.52509 0.342171 0
M  V30 828 H 76.6272 -2.58309 -1.96079 0
M  V30 829 H 76.4122 -3.85388 -0.722384 0
M  V30 830 H 77.9022 -3.80914 -1.71155 0
M  V30 831 N 78.3393 -0.321999 -1.54275 0
M  V30 832 C 79.5873 0.280489 -2.00144 0
M  V30 833 C 79.9083 1.52777 -1.21178 0
M  V30 834 O 79.1783 1.9338 -0.313187 0
M  V30 835 H 77.7583 0.106632 -0.73935 0
M  V30 836 H 80.4203 -0.438184 -1.8991 0
M  V30 837 H 79.5163 0.537972 -3.07428 0
M  V30 838 N 79.8174 1.5752 -0.0501392 0
M  V30 839 C 81.2334 1.56631 0.306402 0
M  V30 840 C 81.4334 1.0577 1.71508 0
M  V30 841 O 80.4894 0.713837 2.422 0
M  V30 842 C 81.8024 3.00393 0.135811 0
M  V30 843 C 83.3504 3.12315 0.206993 0
M  V30 844 C 83.8254 4.57954 0.064944 0
M  V30 845 N 85.3164 4.63041 0.121254 0
M  V30 846 C 86.0514 5.73389 0.0354381 0
M  V30 847 N 85.5474 6.92724 -0.102666 0
M  V30 848 N 87.3404 5.62026 0.090946 0
M  V30 849 H 79.4914 1.88903 -0.971046 0
M  V30 850 H 81.7544 0.869876 -0.376855 0
M  V30 851 H 81.4604 3.41635 -0.835384 0
M  V30 852 H 81.3344 3.66373 0.897275 0
M  V30 853 H 83.7214 2.70973 1.16866 0
M  V30 854 H 83.8024 2.49016 -0.585208 0
M  V30 855 H 83.4464 4.99981 -0.893394 0
M  V30 856 H 83.3764 5.19258 0.876277 0
M  V30 857 H 85.8674 3.77216 0.227284 0
M  V30 858 H 86.1804 7.72633 -0.160882 0
M  V30 859 H 84.5254 6.94864 -0.137737 0
M  V30 860 H 87.7164 4.67684 0.197388 0
M  V30 861 H 87.8894 6.47997 0.0206089 0
M  V30 862 N 81.2955 -0.223234 1.56011 0
M  V30 863 C 82.7065 -0.790368 1.69145 0
M  V30 864 C 83.0575 -1.85055 0.651845 0
M  V30 865 O 82.1825 -2.15498 -0.197359 0
M  V30 866 C 82.7775 -1.4404 3.06656 0
M  V30 867 C 81.3365 -1.95494 3.2165 0
M  V30 868 C 80.4835 -0.814506 2.65068 0
M  V30 869 H 83.4345 0.00139011 1.587 0
M  V30 870 H 83.4555 -2.30916 3.0242 0
M  V30 871 H 82.9675 -0.668543 3.82298 0
M  V30 872 H 81.0685 -2.75487 2.50874 0
M  V30 873 H 81.1815 -2.13607 4.28846 0
M  V30 874 H 79.5455 -1.22137 2.23505 0
M  V30 875 H 80.3285 -0.0553515 3.43255 0
M  V30 876 N 82.7736 -1.49793 -0.48987 0
M  V30 877 C 84.0016 -1.63568 -1.26701 0
M  V30 878 C 84.4166 -0.311465 -1.86213 0
M  V30 879 O 83.7736 0.704416 -1.68357 0
M  V30 880 C 83.8246 -2.71284 -2.38929 0
M  V30 881 O 83.5456 -3.9857 -1.81861 0
M  V30 882 C 85.0466 -2.95864 -3.3012 0
M  V30 883 H 82.2666 -0.550342 -0.383881 0
M  V30 884 H 84.8106 -1.95898 -0.586864 0
M  V30 885 H 82.9656 -2.417 -3.02753 0
M  V30 886 H 83.3796 -4.57993 -2.55622 0
M  V30 887 H 84.8536 -3.74941 -4.05121 0
M  V30 888 H 85.3306 -2.06206 -3.87783 0
M  V30 889 H 85.9366 -3.26907 -2.72051 0
M  V30 890 N 84.2517 0.741722 -1.39055 0
M  V30 891 C 85.2147 1.83733 -1.37021 0
M  V30 892 C 86.2147 1.58542 -0.268534 0
M  V30 893 O 87.4047 1.66067 -0.526076 0
M  V30 894 C 84.5367 3.2141 -1.13617 0
M  V30 895 H 85.7297 1.86941 -2.34506 0
M  V30 896 H 83.2827 0.944676 -1.24521 0
M  V30 897 H 84.0177 3.23865 -0.167863 0
M  V30 898 H 83.8027 3.4109 -1.93391 0
M  V30 899 H 85.2927 4.01477 -1.14918 0
M  V30 900 N 85.7298 1.2412 0.971189 0
M  V30 901 C 86.6598 1.05508 2.08304 0
M  V30 902 C 87.6408 -0.0308864 1.70072 0
M  V30 903 O 88.8258 0.135521 1.93727 0
M  V30 904 C 85.9558 0.655365 3.4106 0
M  V30 905 C 84.9098 1.68971 3.93234 0
M  V30 906 C 84.2358 1.14516 5.22293 0
M  V30 907 C 85.5358 3.08487 4.21465 0
M  V30 908 H 87.2298 1.98507 2.24132 0
M  V30 909 H 84.7758 0.955821 1.07704 0
M  V30 910 H 86.7288 0.51217 4.18276 0
M  V30 911 H 85.4528 -0.31032 3.25122 0
M  V30 912 H 84.1118 1.82106 3.18171 0
M  V30 913 H 83.7598 0.170189 5.02712 0
M  V30 914 H 83.4598 1.83635 5.58168 0
M  V30 915 H 84.9838 1.01401 6.02121 0
M  V30 916 H 86.3978 2.98601 4.89398 0
M  V30 917 H 84.7948 3.74926 4.68562 0
M  V30 918 H 85.8648 3.56787 3.28376 0
M  V30 919 N 87.2079 -1.17134 1.05439 0
M  V30 920 C 88.4359 -1.91372 0.786414 0
M  V30 921 C 88.8509 -1.76955 -0.658202 0
M  V30 922 O 88.2079 -1.10838 -1.44987 0
M  V30 923 C 88.2589 -3.42356 1.1608 0
M  V30 924 O 87.9799 -3.56332 2.54871 0
M  V30 925 C 89.4809 -4.33663 0.919322 0
M  V30 926 H 86.7009 -0.607118 0.285743 0
M  V30 927 H 89.2449 -1.48525 1.40572 0
M  V30 928 H 87.3999 -3.82939 0.586191 0
M  V30 929 H 87.8139 -4.49896 2.69618 0
M  V30 930 H 89.2879 -5.38099 1.231 0
M  V30 931 H 89.7649 -4.38959 -0.145359 0
M  V30 932 H 90.3709 -3.98796 1.47789 0
M  V30 933 N 88.686 -0.835752 -1.33615 0
M  V30 934 C 89.633 -0.26473 -2.29277 0
M  V30 935 C 90.603 0.617712 -1.54187 0
M  V30 936 O 91.788 0.556641 -1.825 0
M  V30 937 C 88.928 0.556777 -3.40579 0
M  V30 938 C 88.041 -0.349339 -4.30585 0
M  V30 939 C 87.176 0.482969 -5.29 0
M  V30 940 C 86.215 -0.421732 -6.10645 0
M  V30 941 N 85.352 0.372262 -7.01112 0
M  V30 942 H 90.192 -1.08582 -2.77514 0
M  V30 943 H 87.729 -0.546927 -1.36554 0
M  V30 944 H 89.687 1.04852 -4.03809 0
M  V30 945 H 88.317 1.34286 -2.93542 0
M  V30 946 H 87.369 -0.959372 -3.68104 0
M  V30 947 H 88.681 -1.04445 -4.87742 0
M  V30 948 H 87.835 1.03866 -5.97743 0
M  V30 949 H 86.574 1.21153 -4.72412 0
M  V30 950 H 85.579 -0.989464 -5.40823 0
M  V30 951 H 86.804 -1.14861 -6.69316 0
M  V30 952 H 84.75 1.08426 -6.46977 0
M  V30 953 H 84.667 -0.264198 -7.55538 0
M  V30 954 H 85.935 0.910293 -7.74167 0
M  V30 955 N 90.1641 1.46063 -0.591896 0
M  V30 956 C 91.4041 2.04228 -0.0838014 0
M  V30 957 C 91.7681 1.45231 1.25587 0
M  V30 958 O 92.9691 1.94653 1.85375 0
M  V30 959 C 91.2401 3.57389 -0.0286282 0
M  V30 960 S 92.7991 4.3678 0.420557 0
M  V30 961 H 89.6171 0.709762 -0.0419319 0
M  V30 962 H 92.2191 1.78983 -0.786465 0
M  V30 963 H 90.9231 3.97843 -1.00743 0
M  V30 964 H 90.4541 3.87185 0.69652 0
M  V30 965 H 92.4691 4.67131 1.67341 0
M  V30 966 N 91.6422 0.330177 1.54103 0
M  V30 967 C 92.5742 -0.566902 2.22079 0
M  V30 968 C 93.5872 -1.07462 1.22294 0
M  V30 969 O 94.7762 -0.987065 1.48726 0
M  V30 970 C 91.8762 -1.79138 2.87685 0
M  V30 971 C 91.0492 -1.42123 4.13666 0
M  V30 972 C 90.1082 -2.50394 4.62806 0
M  V30 973 O 89.1342 -2.14261 5.27334 0
M  V30 974 N 90.3362 -3.81433 4.37595 0
M  V30 975 H 93.1012 0.0151844 2.99696 0
M  V30 976 H 90.6622 0.153681 1.61169 0
M  V30 977 H 92.6542 -2.50975 3.1748 0
M  V30 978 H 91.2242 -2.28115 2.13734 0
M  V30 979 H 90.4442 -0.534201 3.90564 0
M  V30 980 H 91.7322 -1.14971 4.9564 0
M  V30 981 H 91.1302 -4.13584 3.8596 0
M  V30 982 H 89.6872 -4.4948 4.72029 0
M  V30 983 N 93.1203 -1.57491 0.0584922 0
M  V30 984 C 94.0683 -2.13148 -0.931168 0
M  V30 985 C 95.0623 -1.06507 -1.31729 0
M  V30 986 O 96.2683 -1.24906 -1.29609 0
M  V30 987 H 92.6433 -0.68137 -0.31818 0
M  V30 988 H 94.6143 -2.95187 -0.436707 0
M  V30 989 C 93.3633 -2.69732 -2.19408 0
M  V30 990 H 92.6863 -3.51454 -1.90578 0
M  V30 991 H 94.1263 -3.12287 -2.86798 0
M  V30 992 C 92.5853 -1.63855 -2.94369 0
M  V30 993 O 93.1153 -1.05565 -3.87581 0
M  V30 994 N 91.3213 -1.35202 -2.57233 0
M  V30 995 H 90.8683 -1.82791 -1.81508 0
M  V30 996 H 90.8263 -0.645922 -3.07693 0
M  V30 997 N 94.5984 0.214957 -1.56127 0
M  V30 998 C 95.8474 0.936451 -1.78643 0
M  V30 999 C 96.1604 1.85237 -0.628229 0
M  V30 1000 O 97.3664 2.613 -0.737186 0
M  V30 1001 C 95.8224 1.7154 -3.16389 0
M  V30 1002 C 95.4304 0.845299 -4.39953 0
M  V30 1003 C 97.1744 2.42772 -3.48227 0
M  V30 1004 C 95.0814 1.62198 -5.68723 0
M  V30 1005 H 94.0114 0.353401 -0.666051 0
M  V30 1006 H 96.6624 0.190169 -1.82512 0
M  V30 1007 H 95.0444 2.50484 -3.06715 0
M  V30 1008 H 96.2184 0.0959353 -4.607 0
M  V30 1009 H 94.5334 0.244789 -4.1568 0
M  V30 1010 H 97.1304 3.01394 -4.41663 0
M  V30 1011 H 97.4734 3.15984 -2.71035 0
M  V30 1012 H 98.0064 1.70813 -3.5926 0
M  V30 1013 H 94.7454 0.933011 -6.48826 0
M  V30 1014 H 94.2654 2.34579 -5.52026 0
M  V30 1015 H 95.9444 2.18095 -6.09133 0
M  V30 1016 N 96.0765 1.50051 0.48192 0
M  V30 1017 C 97.3045 1.64237 1.25832 0
M  V30 1018 C 97.7195 0.321336 1.86045 0
M  V30 1019 O 97.0765 -0.695478 1.68729 0
M  V30 1020 C 97.1275 2.72548 2.37487 0
M  V30 1021 O 96.8485 3.99529 1.79745 0
M  V30 1022 C 98.3495 2.9761 3.28547 0
M  V30 1023 H 95.5695 0.55237 0.380957 0
M  V30 1024 H 98.1135 1.96207 0.576467 0
M  V30 1025 H 96.2685 2.43303 3.01467 0
M  V30 1026 H 96.6825 4.59342 2.5319 0
M  V30 1027 H 98.1565 3.77084 4.03127 0
M  V30 1028 H 98.6335 2.0826 3.86684 0
M  V30 1029 H 99.2395 3.28345 2.70314 0
M  V30 1030 N 97.5546 -0.734337 1.39446 0
M  V30 1031 C 98.5176 -1.83004 1.37994 0
M  V30 1032 C 99.5176 -1.58397 0.276938 0
M  V30 1033 O 100.708 -1.65785 0.534875 0
M  V30 1034 C 97.8396 -3.20802 1.1532 0
M  V30 1035 H 99.0326 -1.85694 2.35494 0
M  V30 1036 H 96.5856 -0.938059 1.25021 0
M  V30 1037 H 97.3206 -3.23772 0.185036 0
M  V30 1038 H 97.1056 -3.4006 1.95197 0
M  V30 1039 H 98.5956 -4.00862 1.17046 0
M  V30 1040 N 99.0327 -1.24633 -0.964593 0
M  V30 1041 C 100.281 -1.08573 -1.70459 0
M  V30 1042 C 100.602 0.375655 -1.91347 0
M  V30 1043 O 99.8717 1.26779 -1.49345 0
M  V30 1044 H 98.4517 -0.398784 -0.631649 0
M  V30 1045 H 101.114 -1.56601 -1.16026 0
M  V30 1046 H 100.21 -1.58623 -2.68785 0
M  V30 1047 N 100.511 1.16574 -1.06058 0
M  V30 1048 C 101.739 1.90952 -0.796552 0
M  V30 1049 C 102.154 1.77302 0.648808 0
M  V30 1050 O 101.511 1.11605 1.44397 0
M  V30 1051 C 101.562 3.41736 -1.17894 0
M  V30 1052 O 101.283 3.54975 -2.56758 0
M  V30 1053 C 102.784 4.33169 -0.942308 0
M  V30 1054 H 100.004 0.605594 -0.288959 0
M  V30 1055 H 102.548 1.47777 -1.41358 0
M  V30 1056 H 100.703 3.82623 -0.606491 0
M  V30 1057 H 101.117 4.4846 -2.72 0
M  V30 1058 H 102.591 5.37439 -1.25952 0
M  V30 1059 H 103.068 4.3903 0.122078 0
M  V30 1060 H 103.674 3.98007 -1.49902 0
M  V30 1061 N 101.989 0.842826 1.3317 0
M  V30 1062 C 103.405 0.531128 1.50503 0
M  V30 1063 C 103.605 -0.940734 1.78192 0
M  V30 1064 O 102.661 -1.72436 1.84451 0
M  V30 1065 C 103.974 1.40789 2.65705 0
M  V30 1066 C 105.522 1.40708 2.79589 0
M  V30 1067 C 105.997 2.26878 3.97857 0
M  V30 1068 N 107.488 2.24609 4.05099 0
M  V30 1069 C 108.223 2.88019 4.95815 0
M  V30 1070 N 107.719 3.60496 5.9162 0
M  V30 1071 N 109.512 2.77469 4.88843 0
M  V30 1072 H 101.663 1.79557 1.1346 0
M  V30 1073 H 103.926 0.766267 0.558156 0
M  V30 1074 H 103.632 2.454 2.51936 0
M  V30 1075 H 103.506 1.08677 3.61205 0
M  V30 1076 H 105.893 0.368668 2.92788 0
M  V30 1077 H 105.974 1.76829 1.84838 0
M  V30 1078 H 105.618 3.3078 3.85418 0
M  V30 1079 H 105.548 1.88096 4.91861 0
M  V30 1080 H 108.039 1.71906 3.36536 0
M  V30 1081 H 108.352 4.06076 6.57512 0
M  V30 1082 H 106.697 3.64604 5.91683 0
M  V30 1083 H 109.888 2.20406 4.12963 0
M  V30 1084 H 110.061 3.2717 5.59342 0
M  V30 1085 N 103.467 -1.45747 0.599634 0
M  V30 1086 C 104.695 -2.06668 0.0978551 0
M  V30 1087 C 105.11 -1.44562 -1.21439 0
M  V30 1088 O 104.467 -0.556923 -1.73795 0
M  V30 1089 C 104.518 -3.61456 -0.0567044 0
M  V30 1090 O 104.239 -4.21242 1.20361 0
M  V30 1091 C 105.74 -4.39345 -0.590869 0
M  V30 1092 H 102.96 -0.667825 0.0651943 0
M  V30 1093 H 105.504 -1.87115 0.82511 0
M  V30 1094 H 103.659 -3.80378 -0.734251 0
M  V30 1095 H 104.073 -5.14323 1.02821 0
M  V30 1096 H 105.547 -5.48182 -0.648131 0
M  V30 1097 H 106.024 -4.08568 -1.61147 0
M  V30 1098 H 106.63 -4.25268 0.0523679 0
M  V30 1099 N 104.945 -0.338344 -1.53925 0
M  V30 1100 C 106.173 0.261298 -2.05243 0
M  V30 1101 C 106.588 1.44625 -1.21363 0
M  V30 1102 O 105.945 1.80811 -0.247736 0
M  V30 1103 C 105.996 0.681412 -3.5502 0
M  V30 1104 O 105.717 -0.456414 -4.35716 0
M  V30 1105 C 107.218 1.34232 -4.22489 0
M  V30 1106 H 104.438 0.0513685 -0.669031 0
M  V30 1107 H 106.982 -0.488822 -1.98572 0
M  V30 1108 H 105.137 1.38148 -3.61931 0
M  V30 1109 H 105.551 -0.122564 -5.24357 0
M  V30 1110 H 107.025 1.58708 -5.28693 0
M  V30 1111 H 107.502 2.29426 -3.74514 0
M  V30 1112 H 108.108 0.684424 -4.19757 0
M  V30 1113 N 106.423 1.57458 -0.0668435 0
M  V30 1114 C 107.353 2.15468 0.899764 0
M  V30 1115 C 108.334 1.08042 1.31381 0
M  V30 1116 O 109.519 1.36054 1.38574 0
M  V30 1117 C 106.649 2.71232 2.16911 0
M  V30 1118 C 105.603 3.83781 1.89463 0
M  V30 1119 C 104.929 4.26127 3.22986 0
M  V30 1120 C 106.229 5.08238 1.20381 0
M  V30 1121 H 107.923 2.96488 0.416529 0
M  V30 1122 H 105.469 1.4262 0.198908 0
M  V30 1123 H 107.422 3.10458 2.84945 0
M  V30 1124 H 106.146 1.87426 2.67468 0
M  V30 1125 H 104.805 3.45051 1.23836 0
M  V30 1126 H 104.453 3.39249 3.71374 0
M  V30 1127 H 104.153 5.01993 3.05413 0
M  V30 1128 H 105.677 4.67966 3.92225 0
M  V30 1129 H 107.091 5.44811 1.78475 0
M  V30 1130 H 105.488 5.89349 1.13083 0
M  V30 1131 H 106.558 4.84558 0.182153 0
M  V30 1132 N 107.901 -0.206675 1.56239 0
M  V30 1133 C 109.131 -0.943975 1.83773 0
M  V30 1134 C 109.539 -1.77841 0.645703 0
M  V30 1135 O 108.882 -1.79403 -0.395008 0
M  V30 1136 C 108.944 -1.899 3.05251 0
M  V30 1137 C 108.608 -1.24764 4.39639 0
M  V30 1138 C 109.605 -0.630216 5.16066 0
M  V30 1139 C 107.29 -1.25496 4.8637 0
M  V30 1140 C 109.284 -0.0287946 6.37393 0
M  V30 1141 C 106.971 -0.649698 6.07637 0
M  V30 1142 C 107.969 -0.0376845 6.8299 0
M  V30 1143 O 107.657 0.55812 8.0196 0
M  V30 1144 H 107.389 -0.281508 0.614597 0
M  V30 1145 H 109.943 -0.222458 2.04192 0
M  V30 1146 H 108.173 -2.6599 2.80689 0
M  V30 1147 H 109.862 -2.5031 3.1953 0
M  V30 1148 H 110.628 -0.616785 4.81062 0
M  V30 1149 H 106.507 -1.72072 4.27683 0
M  V30 1150 H 110.051 0.449518 6.9615 0
M  V30 1151 H 105.948 -0.660592 6.42111 0
M  V30 1152 H 106.716 0.453891 8.17241 0
M  V30 1153 N 109.379 -1.50304 -0.473955 0
M  V30 1154 C 110.309 -1.71886 -1.58042 0
M  V30 1155 C 111.29 -0.567799 -1.60344 0
M  V30 1156 O 112.475 -0.806623 -1.76656 0
M  V30 1157 C 109.605 -1.81036 -2.96384 0
M  V30 1158 C 108.559 -2.962 -3.08949 0
M  V30 1159 C 107.885 -2.9049 -4.48909 0
M  V30 1160 C 109.185 -4.36752 -2.86434 0
M  V30 1161 H 110.879 -2.64527 -1.40234 0
M  V30 1162 H 108.425 -1.27295 -0.673201 0
M  V30 1163 H 110.378 -1.94719 -3.73714 0
M  V30 1164 H 109.102 -0.850147 -3.15341 0
M  V30 1165 H 107.761 -2.82164 -2.3405 0
M  V30 1166 H 107.409 -1.92321 -4.64781 0
M  V30 1167 H 107.109 -3.67802 -4.58253 0
M  V30 1168 H 108.633 -3.06218 -5.28264 0
M  V30 1169 H 110.047 -4.5133 -3.53517 0
M  V30 1170 H 108.444 -5.15493 -3.07225 0
M  V30 1171 H 109.514 -4.49321 -1.82316 0
M  V30 1172 N 110.857 0.726932 -1.39834 0
M  V30 1173 C 111.804 1.841 -1.39197 0
M  V30 1174 C 112.774 1.642 -0.250502 0
M  V30 1175 O 113.959 1.85494 -0.446846 0
M  V30 1176 C 111.099 3.21697 -1.24919 0
M  V30 1177 C 110.212 3.53247 -2.48678 0
M  V30 1178 C 109.347 4.80289 -2.26928 0
M  V30 1179 C 108.386 5.04707 -3.4632 0
M  V30 1180 N 107.523 6.22956 -3.23836 0
M  V30 1181 H 112.363 1.83979 -2.34427 0
M  V30 1182 H 109.9 0.898876 -1.16442 0
M  V30 1183 H 111.858 4.01137 -1.1465 0
M  V30 1184 H 110.488 3.21076 -0.333153 0
M  V30 1185 H 109.54 2.68447 -2.69519 0
M  V30 1186 H 110.852 3.67205 -3.37582 0
M  V30 1187 H 110.006 5.67725 -2.13947 0
M  V30 1188 H 108.745 4.68519 -1.35431 0
M  V30 1189 H 107.75 4.1573 -3.5979 0
M  V30 1190 H 108.975 5.18357 -4.38729 0
M  V30 1191 H 106.921 6.12459 -2.35011 0
M  V30 1192 H 106.838 6.37539 -4.063 0
M  V30 1193 H 108.106 7.1321 -3.14566 0
M  V30 1194 N 112.336 1.25143 0.95797 0
M  V30 1195 C 113.752 1.01892 1.22842 0
M  V30 1196 C 113.952 -0.266311 1.99732 0
M  V30 1197 O 113.008 -0.979913 2.3271 0
M  V30 1198 C 114.321 2.24004 2.00606 0
M  V30 1199 C 115.869 2.28731 2.13662 0
M  V30 1200 C 116.344 3.5049 2.94823 0
M  V30 1201 N 117.835 3.50866 3.02403 0
M  V30 1202 C 118.57 4.4174 3.65586 0
M  V30 1203 N 118.066 5.42882 4.30408 0
M  V30 1204 N 119.859 4.29429 3.62694 0
M  V30 1205 H 112.01 2.07718 0.443493 0
M  V30 1206 H 114.273 0.912031 0.258657 0
M  V30 1207 H 113.979 3.17395 1.51503 0
M  V30 1208 H 113.853 2.26907 3.01319 0
M  V30 1209 H 116.24 1.35865 2.61963 0
M  V30 1210 H 116.321 2.29848 1.12265 0
M  V30 1211 H 115.965 4.43676 2.47213 0
M  V30 1212 H 115.895 3.46617 3.96439 0
M  V30 1213 H 118.386 2.777 2.56302 0
M  V30 1214 H 118.699 6.0844 4.76467 0
M  V30 1215 H 117.044 5.46758 4.29047 0
M  V30 1216 H 120.235 3.49643 3.11236 0
M  V30 1217 H 120.408 5.00448 4.1165 0
M  V30 1218 N 113.814 -1.1601 1.06675 0
M  V30 1219 C 114.724 -2.24156 0.692179 0
M  V30 1220 C 115.74 -1.71507 -0.293513 0
M  V30 1221 O 116.916 -2.009 -0.141861 0
M  V30 1222 C 113.981 -3.46587 0.0884131 0
M  V30 1223 C 113.042 -4.14257 1.12646 0
M  V30 1224 C 112.275 -5.30844 0.551416 0
M  V30 1225 O 112.498 -5.66858 -0.634656 0
M  V30 1226 O 111.432 -5.87848 1.29298 0
M  V30 1227 H 115.258 -2.58513 1.59388 0
M  V30 1228 H 112.843 -1.23599 0.83926 0
M  V30 1229 H 114.725 -4.20679 -0.246361 0
M  V30 1230 H 113.4 -3.13994 -0.786712 0
M  V30 1231 H 112.307 -3.42118 1.51348 0
M  V30 1232 H 113.64 -4.50914 1.97325 0
M  V30 1233 N 115.292 -0.849877 -1.32721 0
M  V30 1234 C 116.569 -0.372405 -1.92022 0
M  V30 1235 C 116.949 1.1435 -1.77447 0
M  V30 1236 O 116.297 1.96296 -1.16962 0
M  V30 1237 C 116.507 -0.831482 -3.3895 0
M  V30 1238 C 117.855 -0.845882 -4.16089 0
M  V30 1239 O 118.879 -0.775806 -3.47649 0
M  V30 1240 O 117.738 -0.943753 -5.38289 0
M  V30 1241 H 114.832 -0.107667 -0.819961 0
M  V30 1242 H 117.378 -0.93646 -1.41522 0
M  V30 1243 H 116.15 -1.87448 -3.4348 0
M  V30 1244 H 115.773 -0.24461 -3.96847 0
M  V30 1245 N 116.77 1.45427 -0.607355 0
M  V30 1246 C 117.7 2.3329 0.0989352 0
M  V30 1247 C 118.681 1.46816 0.859007 0
M  V30 1248 O 119.866 1.75588 0.829604 0
M  V30 1249 C 116.996 3.29518 1.09705 0
M  V30 1250 C 115.95 4.25626 0.450206 0
M  V30 1251 C 115.276 5.11542 1.55655 0
M  V30 1252 C 116.576 5.18505 -0.628455 0
M  V30 1253 H 118.27 2.92595 -0.634716 0
M  V30 1254 H 115.816 1.40696 -0.306681 0
M  V30 1255 H 117.769 3.89855 1.59971 0
M  V30 1256 H 116.493 2.68372 1.86129 0
M  V30 1257 H 115.152 3.66586 -0.0315886 0
M  V30 1258 H 114.8 4.46765 2.31107 0
M  V30 1259 H 114.5 5.76647 1.12925 0
M  V30 1260 H 116.024 5.74748 2.06148 0
M  V30 1261 H 117.438 5.72916 -0.209877 0
M  V30 1262 H 115.835 5.92085 -0.977489 0
M  V30 1263 H 116.905 4.60948 -1.50514 0
M  V30 1264 N 118.248 0.346503 1.53744 0
M  V30 1265 C 119.178 -0.501193 2.28058 0
M  V30 1266 C 120.159 -1.10014 1.29734 0
M  V30 1267 O 121.344 -1.12097 1.58581 0
M  V30 1268 C 118.474 -1.65078 3.05559 0
M  V30 1269 C 117.428 -1.18003 4.11411 0
M  V30 1270 C 116.754 -2.41837 4.76884 0
M  V30 1271 C 118.054 -0.278394 5.21558 0
M  V30 1272 H 119.748 0.11875 2.99164 0
M  V30 1273 H 117.294 0.0585531 1.43881 0
M  V30 1274 H 119.247 -2.25028 3.56287 0
M  V30 1275 H 117.971 -2.29767 2.32109 0
M  V30 1276 H 116.63 -0.603331 3.61601 0
M  V30 1277 H 116.278 -3.0494 4.00026 0
M  V30 1278 H 115.978 -2.1102 5.48402 0
M  V30 1279 H 117.502 -3.02508 5.30397 0
M  V30 1280 H 118.916 -0.784823 5.67903 0
M  V30 1281 H 117.313 -0.0619707 6.00068 0
M  V30 1282 H 118.383 0.684677 4.80042 0
M  V30 1283 N 119.726 -1.57421 0.075193 0
M  V30 1284 C 120.676 -2.09441 -0.901025 0
M  V30 1285 C 121.66 -1.00486 -1.25663 0
M  V30 1286 O 122.852 -1.2679 -1.23504 0
M  V30 1287 C 119.981 -2.66233 -2.16737 0
M  V30 1288 C 119.067 -3.82198 -1.83808 0
M  V30 1289 N 119.458 -4.91028 -1.21345 0
M  V30 1290 C 117.756 -3.91558 -2.13538 0
M  V30 1291 C 118.457 -5.71852 -1.06585 0
M  V30 1292 N 117.433 -5.20233 -1.57667 0
M  V30 1293 H 121.235 -2.90972 -0.413815 0
M  V30 1294 H 118.749 -1.6189 -0.128601 0
M  V30 1295 H 120.746 -3.01819 -2.87595 0
M  V30 1296 H 119.406 -1.8615 -2.66042 0
M  V30 1297 H 120.417 -5.10323 -0.88268 0
M  V30 1298 H 117.094 -3.22454 -2.65197 0
M  V30 1299 H 118.484 -6.69401 -0.578933 0
M  V30 1300 N 121.204 0.198386 -1.56346 0
M  V30 1301 C 122.452 0.91747 -1.80075 0
M  V30 1302 C 122.773 1.83929 -0.647692 0
M  V30 1303 O 122.043 1.93029 0.334166 0
M  V30 1304 H 120.623 0.341774 -0.664228 0
M  V30 1305 H 123.285 0.204684 -1.93822 0
M  V30 1306 H 122.381 1.51055 -2.7311 0
M  V30 1307 N 122.682 1.50554 0.465978 0
M  V30 1308 C 123.93 1.61479 1.21528 0
M  V30 1309 C 124.251 0.319596 1.92363 0
M  V30 1310 O 123.521 -0.663194 1.84333 0
M  V30 1311 H 122.101 0.595055 0.451573 0
M  V30 1312 H 124.763 1.87355 0.53704 0
M  V30 1313 H 123.859 2.42846 1.96042 0
M  V30 1314 N 124.16 -0.719506 1.40217 0
M  V30 1315 C 125.123 -1.8153 1.39927 0
M  V30 1316 C 126.123 -1.58095 0.293723 0
M  V30 1317 O 127.313 -1.65209 0.552429 0
M  V30 1318 C 124.445 -3.19561 1.18716 0
M  V30 1319 H 125.638 -1.83186 2.37451 0
M  V30 1320 H 123.191 -0.924746 1.26008 0
M  V30 1321 H 123.926 -3.23557 0.219366 0
M  V30 1322 H 123.711 -3.3797 1.98793 0
M  V30 1323 H 125.201 -3.99598 1.21291 0
M  V30 1324 N 125.638 -1.25649 -0.95132 0
M  V30 1325 C 126.588 -1.03004 -2.03406 0
M  V30 1326 C 127.572 0.034187 -1.60864 0
M  V30 1327 O 128.764 -0.181549 -1.76066 0
M  V30 1328 C 125.893 -0.654255 -3.37008 0
M  V30 1329 C 124.979 -1.75542 -3.86065 0
M  V30 1330 N 125.37 -2.99113 -4.07879 0
M  V30 1331 C 123.668 -1.63669 -4.14884 0
M  V30 1332 C 124.369 -3.70611 -4.48356 0
M  V30 1333 N 123.345 -2.98247 -4.54477 0
M  V30 1334 H 127.147 -1.96813 -2.1827 0
M  V30 1335 H 124.661 -1.16017 -1.13639 0
M  V30 1336 H 126.658 -0.473206 -4.14206 0
M  V30 1337 H 125.318 0.276468 -3.23521 0
M  V30 1338 H 126.329 -3.35124 -3.94857 0
M  V30 1339 H 123.006 -0.775161 -4.10241 0
M  V30 1340 H 124.396 -4.76695 -4.73509 0
M  V30 1341 N 127.117 1.15442 -1.07289 0
M  V30 1342 C 128.064 2.20161 -0.692653 0
M  V30 1343 C 129.034 1.63073 0.31564 0
M  V30 1344 O 130.219 1.89725 0.202235 0
M  V30 1345 C 127.359 3.44967 -0.0959509 0
M  V30 1346 C 126.472 4.16256 -1.15564 0
M  V30 1347 C 125.607 5.28609 -0.524011 0
M  V30 1348 C 124.646 5.91715 -1.56653 0
M  V30 1349 N 123.783 6.9554 -0.957531 0
M  V30 1350 H 128.623 2.52037 -1.59002 0
M  V30 1351 H 126.16 1.2378 -0.794798 0
M  V30 1352 H 128.118 4.16341 0.267628 0
M  V30 1353 H 126.748 3.1361 0.764772 0
M  V30 1354 H 125.8 3.43385 -1.6368 0
M  V30 1355 H 127.112 4.59268 -1.94613 0
M  V30 1356 H 126.266 6.06604 -0.108032 0
M  V30 1357 H 125.005 4.86787 0.29825 0
M  V30 1358 H 124.01 5.12433 -1.9923 0
M  V30 1359 H 125.235 6.35614 -2.39107 0
M  V30 1360 H 123.181 6.55814 -0.156162 0
M  V30 1361 H 123.098 7.36977 -1.68526 0
M  V30 1362 H 124.366 7.77435 -0.567032 0
M  V30 1363 N 128.595 0.856903 1.32268 0
M  V30 1364 C 129.823 0.475439 2.01363 0
M  V30 1365 C 130.238 -0.928486 1.64392 0
M  V30 1366 O 129.595 -1.60624 0.866387 0
M  V30 1367 C 129.646 0.607545 3.56358 0
M  V30 1368 O 129.367 1.95617 3.92002 0
M  V30 1369 C 130.868 0.225382 4.42727 0
M  V30 1370 H 128.088 0.186636 0.644521 0
M  V30 1371 H 130.632 1.15446 1.68797 0
M  V30 1372 H 128.787 -0.0237719 3.87393 0
M  V30 1373 H 129.201 1.95455 4.86721 0
M  V30 1374 H 130.675 0.368813 5.50767 0
M  V30 1375 H 131.152 -0.834369 4.31202 0
M  V30 1376 H 131.758 0.831864 4.17085 0
M  V30 1377 N 130.073 -1.45103 0.615059 0
M  V30 1378 C 131.021 -2.32331 -0.111791 0
M  V30 1379 C 132.015 -1.46409 -0.852102 0
M  V30 1380 O 133.221 -1.62849 -0.766821 0
M  V30 1381 H 129.596 -0.749993 -0.0549072 0
M  V30 1382 H 131.567 -2.91407 0.642225 0
M  V30 1383 C 130.316 -3.3015 -1.09071 0
M  V30 1384 H 129.639 -3.96265 -0.530485 0
M  V30 1385 H 131.079 -3.93898 -1.56908 0
M  V30 1386 C 129.538 -2.57875 -2.168 0
M  V30 1387 O 130.068 -2.36567 -3.24652 0
M  V30 1388 N 128.274 -2.17884 -1.92289 0
M  V30 1389 H 127.821 -2.35413 -1.04587 0
M  V30 1390 H 127.779 -1.6985 -2.64572 0
M  V30 1391 N 131.551 -0.354651 -1.53558 0
M  V30 1392 C 132.483 0.5315 -2.22952 0
M  V30 1393 C 133.496 1.05503 -1.23988 0
M  V30 1394 O 134.685 0.963279 -1.50277 0
M  V30 1395 C 131.785 1.74538 -2.90499 0
M  V30 1396 C 130.958 1.35524 -4.15875 0
M  V30 1397 C 130.017 2.42999 -4.66731 0
M  V30 1398 O 129.043 2.05844 -5.30676 0
M  V30 1399 N 130.245 3.74423 -4.43608 0
M  V30 1400 H 133.01 -0.0628615 -2.99634 0
M  V30 1401 H 130.571 -0.179302 -1.60904 0
M  V30 1402 H 132.563 2.45892 -3.21433 0
M  V30 1403 H 131.133 2.24686 -2.17336 0
M  V30 1404 H 130.353 0.471998 -3.91364 0
M  V30 1405 H 131.641 1.07071 -4.97406 0
M  V30 1406 H 131.039 4.07391 -3.92491 0
M  V30 1407 H 129.596 4.41913 -4.7912 0
M  V30 1408 N 133.029 1.57378 -0.0835403 0
M  V30 1409 C 134.275 1.94217 0.583733 0
M  V30 1410 C 134.608 0.964653 1.68547 0
M  V30 1411 O 133.883 -0.00422258 1.945 0
M  V30 1412 C 134.166 3.41253 1.14972 0
M  V30 1413 C 134.019 4.49768 0.0538277 0
M  V30 1414 C 135.338 3.89352 2.05166 0
M  V30 1415 H 132.457 0.706233 0.210724 0
M  V30 1416 H 135.099 1.89392 -0.1519 0
M  V30 1417 H 133.249 3.45496 1.77665 0
M  V30 1418 H 134.921 4.57641 -0.579851 0
M  V30 1419 H 133.164 4.29432 -0.614068 0
M  V30 1420 H 133.835 5.49817 0.490452 0
M  V30 1421 H 136.311 3.87189 1.52393 0
M  V30 1422 H 135.187 4.92822 2.41698 0
M  V30 1423 H 135.448 3.27973 2.96456 0
M  V30 1424 N 134.507 -0.190092 1.56449 0
M  V30 1425 C 135.437 -1.23816 1.97969 0
M  V30 1426 C 136.418 -1.47201 0.852395 0
M  V30 1427 O 137.603 -1.58854 1.1171 0
M  V30 1428 C 134.733 -2.5813 2.3235 0
M  V30 1429 C 133.687 -2.49348 3.47864 0
M  V30 1430 C 133.013 -3.8798 3.67934 0
M  V30 1431 C 134.313 -2.01424 4.81898 0
M  V30 1432 H 136.007 -0.89311 2.85769 0
M  V30 1433 H 133.553 -0.428177 1.37487 0
M  V30 1434 H 135.506 -3.31637 2.59991 0
M  V30 1435 H 134.23 -2.94386 1.41438 0
M  V30 1436 H 132.889 -1.78297 3.20321 0
M  V30 1437 H 132.537 -4.21597 2.74344 0
M  V30 1438 H 132.237 -3.82978 4.45648 0
M  V30 1439 H 133.761 -4.63101 3.97957 0
M  V30 1440 H 135.175 -2.64693 5.08538 0
M  V30 1441 H 133.572 -2.07413 5.63116 0
M  V30 1442 H 134.642 -0.967677 4.75146 0
M  V30 1443 N 135.985 -1.50799 -0.457987 0
M  V30 1444 C 137.233 -1.62121 -1.2067 0
M  V30 1445 C 137.554 -0.329793 -1.92191 0
M  V30 1446 O 136.824 0.653409 -1.84682 0
M  V30 1447 H 135.404 -0.597441 -0.448411 0
M  V30 1448 H 138.066 -1.87637 -0.527096 0
M  V30 1449 H 137.162 -2.43882 -1.94751 0
M  V30 1450 N 137.463 0.71206 -1.40597 0
M  V30 1451 C 138.395 1.83704 -1.37061 0
M  V30 1452 C 139.408 1.60453 -0.275426 0
M  V30 1453 O 140.597 1.70262 -0.53602 0
M  V30 1454 C 137.697 3.20172 -1.11099 0
M  V30 1455 C 136.87 3.7059 -2.3234 0
M  V30 1456 C 135.929 4.85681 -2.02485 0
M  V30 1457 O 134.955 4.9815 -2.75382 0
M  V30 1458 N 136.157 5.71735 -1.00497 0
M  V30 1459 H 138.922 1.87235 -2.34016 0
M  V30 1460 H 136.483 0.893739 -1.34996 0
M  V30 1461 H 138.475 3.94768 -0.891064 0
M  V30 1462 H 137.045 3.11767 -0.227989 0
M  V30 1463 H 136.265 2.87085 -2.7014 0
M  V30 1464 H 137.553 4.01011 -3.13157 0
M  V30 1465 H 136.951 5.64275 -0.401298 0
M  V30 1466 H 135.508 6.463 -0.844942 0
M  V30 1467 N 138.941 1.26152 0.944643 0
M  V30 1468 C 139.904 1.07474 2.0244 0
M  V30 1469 C 140.904 0.0242064 1.60782 0
M  V30 1470 O 142.094 0.267302 1.72137 0
M  V30 1471 C 139.226 0.633956 3.34953 0
M  V30 1472 H 140.419 2.03336 2.20442 0
M  V30 1473 H 137.972 1.087 1.12312 0
M  V30 1474 H 138.707 -0.326811 3.22649 0
M  V30 1475 H 138.492 1.39247 3.66542 0
M  V30 1476 H 139.982 0.52501 4.14287 0
M  V30 1477 N 140.419 -1.14872 1.07899 0
M  V30 1478 C 141.349 -2.2193 0.725887 0
M  V30 1479 C 142.33 -1.67622 -0.28927 0
M  V30 1480 O 143.515 -1.93533 -0.160787 0
M  V30 1481 C 140.645 -3.47061 0.128856 0
M  V30 1482 C 139.599 -4.14363 1.07178 0
M  V30 1483 C 138.925 -5.33636 0.337229 0
M  V30 1484 C 140.225 -4.63492 2.40775 0
M  V30 1485 H 141.919 -2.51724 1.62097 0
M  V30 1486 H 139.465 -1.20991 0.780838 0
M  V30 1487 H 141.418 -4.21199 -0.130147 0
M  V30 1488 H 140.142 -3.16617 -0.80134 0
M  V30 1489 H 138.801 -3.42173 1.3158 0
M  V30 1490 H 138.449 -4.99449 -0.596606 0
M  V30 1491 H 138.149 -5.79609 0.965788 0
M  V30 1492 H 139.673 -6.10539 0.0861567 0
M  V30 1493 H 141.087 -5.2913 2.20669 0
M  V30 1494 H 139.484 -5.20148 2.99276 0
M  V30 1495 H 140.554 -3.78834 3.02676 0
M  V30 1496 N 141.898 -0.863906 -1.31812 0
M  V30 1497 C 142.828 -0.330843 -2.31144 0
M  V30 1498 C 143.809 0.575005 -1.60087 0
M  V30 1499 O 144.994 0.493304 -1.8783 0
M  V30 1500 C 142.124 0.47374 -3.44054 0
M  V30 1501 C 141.078 -0.338481 -4.26659 0
M  V30 1502 C 140.404 0.591412 -5.31419 0
M  V30 1503 C 141.704 -1.56926 -4.98168 0
M  V30 1504 H 143.398 -1.16086 -2.75979 0
M  V30 1505 H 140.944 -0.559657 -1.32679 0
M  V30 1506 H 142.897 0.857143 -4.12591 0
M  V30 1507 H 141.621 1.33721 -2.9797 0
M  V30 1508 H 140.28 -0.703754 -3.59782 0
M  V30 1509 H 139.928 1.45199 -4.81587 0
M  V30 1510 H 139.628 0.0519022 -5.87577 0
M  V30 1511 H 141.152 0.97179 -6.02817 0
M  V30 1512 H 142.566 -1.25764 -5.59336 0
M  V30 1513 H 140.963 -2.04739 -5.64094 0
M  V30 1514 H 142.033 -2.32544 -4.25501 0
M  V30 1515 N 143.376 1.44774 -0.622745 0
M  V30 1516 C 144.339 2.29069 0.0774015 0
M  V30 1517 C 145.339 1.4059 0.780461 0
M  V30 1518 O 146.529 1.62551 0.626322 0
M  V30 1519 C 143.661 3.21974 1.12006 0
M  V30 1520 H 144.854 2.92459 -0.663901 0
M  V30 1521 H 142.407 1.51548 -0.382486 0
M  V30 1522 H 143.142 2.63417 1.89162 0
M  V30 1523 H 142.927 3.87168 0.619951 0
M  V30 1524 H 144.417 3.85318 1.60995 0
M  V30 1525 N 144.854 0.36279 1.53368 0
M  V30 1526 C 145.801 -0.485008 2.25646 0
M  V30 1527 C 146.771 -1.07982 1.2621 0
M  V30 1528 O 147.956 -1.11284 1.54986 0
M  V30 1529 C 145.096 -1.62023 3.04701 0
M  V30 1530 C 144.209 -1.05086 4.19024 0
M  V30 1531 C 143.344 -2.15496 4.85525 0
M  V30 1532 C 142.383 -1.5601 5.91884 0
M  V30 1533 N 141.52 -2.60241 6.52088 0
M  V30 1534 H 146.36 0.137864 2.97681 0
M  V30 1535 H 143.897 0.0798061 1.46883 0
M  V30 1536 H 145.855 -2.28887 3.48807 0
M  V30 1537 H 144.485 -2.2138 2.34927 0
M  V30 1538 H 143.537 -0.27259 3.79422 0
M  V30 1539 H 144.849 -0.575926 4.95464 0
M  V30 1540 H 144.003 -2.90186 5.32801 0
M  V30 1541 H 142.742 -2.66341 4.08551 0
M  V30 1542 H 141.747 -0.798338 5.43973 0
M  V30 1543 H 142.972 -1.05994 6.70777 0
M  V30 1544 H 140.918 -3.10304 5.77968 0
M  V30 1545 H 140.835 -2.17426 7.24059 0
M  V30 1546 H 142.103 -3.34641 7.04014 0
M  V30 1547 N 146.332 -1.57332 0.0918853 0
M  V30 1548 C 147.748 -1.57389 -0.264766 0
M  V30 1549 C 147.948 -1.10281 -1.68643 0
M  V30 1550 O 147.004 -0.777801 -2.40222 0
M  V30 1551 C 148.317 -3.00648 -0.0561195 0
M  V30 1552 C 149.865 -3.12754 -0.124116 0
M  V30 1553 C 150.34 -4.57965 0.0564972 0
M  V30 1554 N 151.831 -4.632 0.00155611 0
M  V30 1555 C 152.566 -5.73281 0.116598 0
M  V30 1556 N 152.062 -6.92208 0.286294 0
M  V30 1557 N 153.855 -5.6207 0.0580973 0
M  V30 1558 H 146.006 -1.86262 1.02079 0
M  V30 1559 H 148.269 -0.859579 0.399786 0
M  V30 1560 H 147.975 -3.393 0.925669 0
M  V30 1561 H 147.849 -3.68623 -0.799823 0
M  V30 1562 H 150.236 -2.73976 -1.09641 0
M  V30 1563 H 150.317 -2.47377 0.651024 0
M  V30 1564 H 149.961 -4.97436 1.02564 0
M  V30 1565 H 149.891 -5.21399 -0.738297 0
M  V30 1566 H 152.382 -3.77686 -0.127192 0
M  V30 1567 H 152.695 -7.71934 0.365676 0
M  V30 1568 H 151.04 -6.94254 0.32192 0
M  V30 1569 H 154.231 -4.68043 -0.0733204 0
M  V30 1570 H 154.404 -6.47824 0.151203 0
M  V30 1571 N 147.81 0.181792 -1.56548 0
M  V30 1572 C 148.743 1.25366 -1.90679 0
M  V30 1573 C 149.721 1.43299 -0.768376 0
M  V30 1574 O 150.905 1.58475 -1.02068 0
M  V30 1575 C 148.032 2.61826 -2.1486 0
M  V30 1576 C 147.078 2.60688 -3.37556 0
M  V30 1577 S 147.911 2.10804 -4.92262 0
M  V30 1578 C 149.067 3.49062 -5.19525 0
M  V30 1579 H 149.3 0.962277 -2.81296 0
M  V30 1580 H 146.833 0.385892 -1.495 0
M  V30 1581 H 148.791 3.40371 -2.29473 0
M  V30 1582 H 147.452 2.88169 -1.24969 0
M  V30 1583 H 146.645 3.61058 -3.51643 0
M  V30 1584 H 146.247 1.90232 -3.22006 0
M  V30 1585 H 148.539 4.45003 -5.10861 0
M  V30 1586 H 149.482 3.39859 -6.2121 0
M  V30 1587 H 149.89 3.4459 -4.47122 0
M  V30 1588 N 149.288 1.51039 0.449983 0
M  V30 1589 C 150.536 1.62759 1.19808 0
M  V30 1590 C 150.857 0.339981 1.92013 0
M  V30 1591 O 150.127 -0.643606 1.85026 0
M  V30 1592 H 148.707 0.599811 0.445237 0
M  V30 1593 H 151.369 1.87914 0.517138 0
M  V30 1594 H 150.465 2.44911 1.93455 0
M  V30 1595 N 150.766 -0.704594 1.40972 0
M  V30 1596 C 151.713 -1.81862 1.42109 0
M  V30 1597 C 152.683 -1.63781 0.276593 0
M  V30 1598 O 153.868 -1.84759 0.4763 0
M  V30 1599 C 151.008 -3.19669 1.30022 0
M  V30 1600 C 150.121 -3.49246 2.54267 0
M  V30 1601 C 149.256 -4.76618 2.3454 0
M  V30 1602 C 148.295 -4.99133 3.54306 0
M  V30 1603 N 147.432 -6.17726 3.33706 0
M  V30 1604 H 152.272 -1.80226 2.37324 0
M  V30 1605 H 149.809 -0.880238 1.17857 0
M  V30 1606 H 151.767 -3.99263 1.21018 0
M  V30 1607 H 150.397 -3.20506 0.384192 0
M  V30 1608 H 149.449 -2.64125 2.73756 0
M  V30 1609 H 150.761 -3.61788 3.43381 0
M  V30 1610 H 149.915 -5.64249 2.22952 0
M  V30 1611 H 148.654 -4.66305 1.42867 0
M  V30 1612 H 147.659 -4.09953 3.66359 0
M  V30 1613 H 148.884 -5.11311 4.4692 0
M  V30 1614 H 146.83 -6.08642 2.44725 0
M  V30 1615 H 146.747 -6.30995 4.16391 0
M  V30 1616 H 148.015 -7.08115 3.25873 0
M  V30 1617 N 152.244 -1.26651 -0.937939 0
M  V30 1618 C 153.469 -1.15279 -1.72411 0
M  V30 1619 C 153.894 0.287866 -1.85884 0
M  V30 1620 O 153.252 1.20855 -1.35143 0
M  V30 1621 C 153.3 -1.83028 -3.10698 0
M  V30 1622 O 152.404 -1.12128 -3.96864 0
M  V30 1623 H 151.745 -0.401504 -0.528858 0
M  V30 1624 H 154.275 -1.67531 -1.1745 0
M  V30 1625 H 154.285 -1.89981 -3.6107 0
M  V30 1626 H 152.96 -2.87833 -3.00208 0
M  V30 1627 H 151.537 -1.13173 -3.55312 0
M  V30 1628 N 153.722 1.14298 -1.08507 0
M  V30 1629 C 154.632 2.23027 -0.727753 0
M  V30 1630 C 155.648 1.71952 0.26619 0
M  V30 1631 O 156.824 2.011 0.109882 0
M  V30 1632 C 153.889 3.46403 -0.143541 0
M  V30 1633 C 152.95 4.12413 -1.19223 0
M  V30 1634 C 152.183 5.29899 -0.635798 0
M  V30 1635 O 152.406 5.67796 0.544393 0
M  V30 1636 O 151.34 5.85717 -1.38634 0
M  V30 1637 H 155.166 2.55945 -1.63481 0
M  V30 1638 H 152.751 1.22248 -0.858817 0
M  V30 1639 H 154.633 4.21018 0.179404 0
M  V30 1640 H 153.308 3.15206 0.736659 0
M  V30 1641 H 152.215 3.39667 -1.56772 0
M  V30 1642 H 153.548 4.47718 -2.04474 0
M  V30 1643 N 155.201 0.870884 1.31352 0
M  V30 1644 C 156.45 0.478408 1.95944 0
M  V30 1645 C 156.763 -0.974493 1.69597 0
M  V30 1646 O 157.969 -1.47316 2.28058 0
M  V30 1647 C 156.425 0.804609 3.50791 0
M  V30 1648 C 156.033 2.27433 3.85977 0
M  V30 1649 C 157.777 0.480648 4.2177 0
M  V30 1650 C 155.684 2.5429 5.33939 0
M  V30 1651 H 154.614 0.175175 0.733369 0
M  V30 1652 H 157.265 1.06391 1.4951 0
M  V30 1653 H 155.647 0.148347 3.95722 0
M  V30 1654 H 156.821 2.97373 3.52002 0
M  V30 1655 H 155.136 2.56442 3.28065 0
M  V30 1656 H 157.733 0.658519 5.30629 0
M  V30 1657 H 158.076 -0.578979 4.12254 0
M  V30 1658 H 158.609 1.09349 3.82476 0
M  V30 1659 H 155.348 3.58939 5.48491 0
M  V30 1660 H 154.868 1.88945 5.69263 0
M  V30 1661 H 156.547 2.39066 6.01212 0
M  V30 1662 N 156.679 -1.44442 0.630414 0
M  V30 1663 C 157.928 -2.01267 0.132073 0
M  V30 1664 C 158.241 -1.50172 -1.25331 0
M  V30 1665 O 159.447 -1.9912 -1.84562 0
M  V30 1666 C 157.903 -3.59422 0.185362 0
M  V30 1667 C 157.511 -4.19514 1.57201 0
M  V30 1668 C 159.255 -4.23724 -0.256553 0
M  V30 1669 C 157.162 -5.69891 1.58045 0
M  V30 1670 H 156.092 -0.752619 0.0456092 0
M  V30 1671 H 158.743 -1.65666 0.789106 0
M  V30 1672 H 157.125 -3.92318 -0.538759 0
M  V30 1673 H 158.299 -3.98156 2.31966 0
M  V30 1674 H 156.614 -3.67496 1.95795 0
M  V30 1675 H 159.211 -5.34019 -0.269767 0
M  V30 1676 H 159.554 -3.96013 -1.28372 0
M  V30 1677 H 160.087 -3.95629 0.41505 0
M  V30 1678 H 156.826 -6.02336 2.58597 0
M  V30 1679 H 156.346 -5.93373 0.875725 0
M  V30 1680 H 158.025 -6.33515 1.31408 0
M  V30 1681 N 158.157 -0.370918 -1.53173 0
M  V30 1682 C 159.12 0.460778 -2.24521 0
M  V30 1683 C 160.12 1.00536 -1.25496 0
M  V30 1684 O 161.31 0.890266 -1.49733 0
M  V30 1685 C 158.442 1.64457 -2.98608 0
M  V30 1686 H 159.635 -0.163613 -2.99453 0
M  V30 1687 H 157.188 -0.122699 -1.55818 0
M  V30 1688 H 157.923 2.30691 -2.2793 0
M  V30 1689 H 157.708 1.26099 -3.7127 0
M  V30 1690 H 159.198 2.23384 -3.5283 0
M  V30 1691 N 159.635 1.57281 -0.100228 0
M  V30 1692 C 160.545 2.17833 0.870965 0
M  V30 1693 C 161.561 1.14921 1.30649 0
M  V30 1694 O 162.737 1.47313 1.37335 0
M  V30 1695 C 159.802 2.75085 2.1102 0
M  V30 1696 C 158.863 3.9297 1.72838 0
M  V30 1697 C 158.096 4.47482 2.90854 0
M  V30 1698 O 158.319 4.00922 4.05731 0
M  V30 1699 O 157.253 5.38433 2.69023 0
M  V30 1700 H 161.079 3.0124 0.38575 0
M  V30 1701 H 158.664 1.48881 0.124397 0
M  V30 1702 H 160.546 3.11656 2.83634 0
M  V30 1703 H 159.221 1.94721 2.58584 0
M  V30 1704 H 158.128 3.61201 0.973883 0
M  V30 1705 H 159.461 4.74713 1.30033 0
M  V30 1706 N 161.113 -0.173488 1.56642 0
M  V30 1707 C 162.341 -0.906095 1.86004 0
M  V30 1708 C 162.756 -1.75921 0.685355 0
M  V30 1709 O 162.113 -1.79198 -0.345578 0
M  V30 1710 C 162.164 -1.78462 3.14378 0
M  V30 1711 O 161.885 -0.965914 4.27319 0
M  V30 1712 C 163.386 -2.62707 3.57071 0
M  V30 1713 H 160.606 -0.263341 0.617165 0
M  V30 1714 H 163.15 -0.174236 2.03756 0
M  V30 1715 H 161.305 -2.46984 2.98459 0
M  V30 1716 H 161.719 -1.56655 5.00559 0
M  V30 1717 H 163.193 -3.19969 4.49804 0
M  V30 1718 H 163.67 -3.37472 2.81086 0
M  V30 1719 H 164.276 -1.99521 3.75595 0
M  V30 1720 N 162.591 -1.51276 -0.441967 0
M  V30 1721 C 163.839 -1.63392 -1.18943 0
M  V30 1722 C 164.16 -0.350159 -1.9183 0
M  V30 1723 O 163.43 0.633784 -1.85364 0
M  V30 1724 H 162.01 -0.602164 -0.442049 0
M  V30 1725 H 164.672 -1.88186 -0.507165 0
M  V30 1726 H 163.768 -2.45934 -1.92154 0
M  V30 1727 N 164.069 0.697108 -1.41344 0
M  V30 1728 C 165.032 1.79281 -1.42797 0
M  V30 1729 C 166.032 1.57607 -0.318837 0
M  V30 1730 O 167.222 1.64309 -0.578642 0
M  V30 1731 C 164.354 3.17632 -1.23785 0
M  V30 1732 H 165.547 1.79385 -2.40335 0
M  V30 1733 H 163.1 0.904582 -1.27464 0
M  V30 1734 H 163.835 3.23167 -0.270814 0
M  V30 1735 H 163.62 3.34765 -2.04144 0
M  V30 1736 H 165.11 3.97617 -1.27633 0
M  V30 1737 N 165.547 1.27147 0.931209 0
M  V30 1738 C 166.795 1.13055 1.6752 0
M  V30 1739 C 167.116 -0.324791 1.92276 0
M  V30 1740 O 166.386 -1.22775 1.52654 0
M  V30 1741 H 164.966 0.415391 0.620854 0
M  V30 1742 H 167.628 1.59623 1.11833 0
M  V30 1743 H 166.724 1.65694 2.64485 0
M  V30 1744 N 167.025 -1.13721 1.09112 0
M  V30 1745 C 167.957 -2.1871 0.685467 0
M  V30 1746 C 168.97 -1.60527 -0.271068 0
M  V30 1747 O 170.159 -1.78407 -0.0576148 0
M  V30 1748 C 167.259 -3.38898 -0.0111255 0
M  V30 1749 C 166.432 -4.26597 0.966131 0
M  V30 1750 C 165.491 -5.25324 0.303539 0
M  V30 1751 O 164.517 -5.61213 0.950177 0
M  V30 1752 N 165.719 -5.72779 -0.943651 0
M  V30 1753 H 168.484 -2.54126 1.58871 0
M  V30 1754 H 166.045 -1.29012 0.978143 0
M  V30 1755 H 168.037 -4.02014 -0.465517 0
M  V30 1756 H 166.607 -3.01747 -0.816565 0
M  V30 1757 H 165.827 -3.60306 1.59917 0
M  V30 1758 H 167.115 -4.82048 1.6281 0
M  V30 1759 H 166.513 -5.45762 -1.48862 0
M  V30 1760 H 165.07 -6.37847 -1.34142 0
M  V30 1761 N 168.503 -0.877838 -1.30888 0
M  V30 1762 C 169.453 -0.310872 -2.25871 0
M  V30 1763 C 170.437 0.556596 -1.50966 0
M  V30 1764 O 171.629 0.402187 -1.7237 0
M  V30 1765 C 168.758 0.479821 -3.3993 0
M  V30 1766 C 167.844 -0.401333 -4.22197 0
M  V30 1767 N 168.235 -1.49848 -4.83093 0
M  V30 1768 C 166.533 -0.195167 -4.45573 0
M  V30 1769 C 167.234 -2.0425 -5.44662 0
M  V30 1770 N 166.21 -1.33843 -5.26865 0
M  V30 1771 H 170.012 -1.1493 -2.70496 0
M  V30 1772 H 167.526 -0.726458 -1.45246 0
M  V30 1773 H 169.523 0.902582 -4.07012 0
M  V30 1774 H 168.183 1.31577 -2.96846 0
M  V30 1775 H 169.194 -1.88137 -4.82519 0
M  V30 1776 H 165.871 0.604192 -4.13105 0
M  V30 1777 H 167.261 -2.96345 -6.03017 0
M  V30 1778 N 169.982 1.44106 -0.638065 0
M  V30 1779 C 171.23 2.01579 -0.145043 0
M  V30 1780 C 171.551 1.50496 1.24 0
M  V30 1781 O 170.821 0.711374 1.82527 0
M  V30 1782 H 169.401 0.745282 -0.05063 0
M  V30 1783 H 172.063 1.76516 -0.826327 0
M  V30 1784 H 171.159 3.11877 -0.118039 0
M  V30 1785 N 171.46 0.379036 1.52974 0
M  V30 1786 C 172.706 -0.206727 2.01744 0
M  V30 1787 C 173.039 -1.47314 1.26539 0
M  V30 1788 O 172.314 -1.91084 0.362903 0
M  V30 1789 C 172.597 -0.485066 3.56818 0
M  V30 1790 C 172.45 0.795919 4.42702 0
M  V30 1791 C 173.769 -1.28003 4.21074 0
M  V30 1792 H 170.888 -0.0736607 0.73331 0
M  V30 1793 H 173.53 0.506581 1.83122 0
M  V30 1794 H 171.68 -1.09272 3.72816 0
M  V30 1795 H 173.352 1.43307 4.38476 0
M  V30 1796 H 171.595 1.41344 4.10127 0
M  V30 1797 H 172.266 0.555947 5.49193 0
M  V30 1798 H 174.742 -0.765867 4.08991 0
M  V30 1799 H 173.618 -1.44352 5.29579 0
M  V30 1800 H 173.879 -2.29236 3.78026 0
M  V30 1801 N 172.938 -1.57226 0.108567 0
M  V30 1802 C 173.901 -2.13602 -0.831082 0
M  V30 1803 C 174.901 -1.06841 -1.20173 0
M  V30 1804 O 176.091 -1.32666 -1.12895 0
M  V30 1805 C 173.223 -2.66769 -2.12243 0
M  V30 1806 H 174.416 -2.97951 -0.341317 0
M  V30 1807 H 171.969 -1.55667 -0.14057 0
M  V30 1808 H 172.704 -1.85977 -2.65675 0
M  V30 1809 H 172.489 -3.44839 -1.86625 0
M  V30 1810 H 173.979 -3.10332 -2.79435 0
M  V30 1811 N 174.416 0.165178 -1.56732 0
M  V30 1812 C 175.641 0.900253 -1.86843 0
M  V30 1813 C 176.066 1.74766 -0.695596 0
M  V30 1814 O 175.424 1.77786 0.35522 0
M  V30 1815 C 175.472 1.74777 -3.15413 0
M  V30 1816 O 174.576 2.85007 -2.98068 0
M  V30 1817 H 173.917 0.251832 -0.614391 0
M  V30 1818 H 176.447 0.161468 -2.03962 0
M  V30 1819 H 176.457 2.14646 -3.46974 0
M  V30 1820 H 175.132 1.12537 -4.00385 0
M  V30 1821 H 173.709 2.48676 -2.77875 0
M  V30 1822 N 175.894 1.51508 0.433938 0
M  V30 1823 C 176.857 1.72473 1.50949 0
M  V30 1824 C 177.857 0.594725 1.49398 0
M  V30 1825 O 179.047 0.862315 1.5136 0
M  V30 1826 C 176.179 1.78431 2.90474 0
M  V30 1827 H 177.372 2.68467 1.33662 0
M  V30 1828 H 174.925 1.41549 0.662836 0
M  V30 1829 H 175.66 0.842645 3.13161 0
M  V30 1830 H 175.445 2.60558 2.93005 0
M  V30 1831 H 176.935 1.96479 3.68491 0
M  V30 1832 N 177.372 -0.689602 1.41712 0
M  V30 1833 C 178.302 -1.81577 1.46806 0
M  V30 1834 C 179.283 -1.66945 0.326105 0
M  V30 1835 O 180.468 -1.86588 0.538377 0
M  V30 1836 C 177.598 -3.19762 1.35535 0
M  V30 1837 C 176.552 -3.49107 2.47605 0
M  V30 1838 C 175.878 -4.86711 2.21397 0
M  V30 1839 C 177.178 -3.47483 3.89939 0
M  V30 1840 H 178.872 -1.7757 2.41058 0
M  V30 1841 H 176.418 -0.852887 1.16025 0
M  V30 1842 H 178.371 -3.98263 1.3771 0
M  V30 1843 H 177.095 -3.24409 0.377708 0
M  V30 1844 H 175.754 -2.72959 2.44722 0
M  V30 1845 H 175.402 -4.8799 1.21961 0
M  V30 1846 H 175.102 -5.0731 2.96497 0
M  V30 1847 H 176.626 -5.67515 2.25297 0
M  V30 1848 H 178.04 -4.1598 3.94505 0
M  V30 1849 H 176.437 -3.79615 4.64771 0
M  V30 1850 H 177.507 -2.46341 4.17665 0
M  V30 1851 N 178.85 -1.27639 -0.924453 0
M  V30 1852 C 179.813 -1.10681 -2.00705 0
M  V30 1853 C 180.813 -0.0497823 -1.60723 0
M  V30 1854 O 182.003 -0.294654 -1.7169 0
M  V30 1855 C 179.135 -0.687164 -3.33902 0
M  V30 1856 H 180.328 -2.06817 -2.17179 0
M  V30 1857 H 177.881 -1.10473 -1.10569 0
M  V30 1858 H 178.616 0.275439 -3.23128 0
M  V30 1859 H 178.401 -1.45061 -3.6428 0
M  V30 1860 H 179.891 -0.590853 -4.13399 0
M  V30 1861 N 180.328 1.1314 -1.09713 0
M  V30 1862 C 181.553 1.88862 -0.857081 0
M  V30 1863 C 181.978 1.78729 0.586304 0
M  V30 1864 O 181.336 1.13692 1.41222 0
M  V30 1865 C 181.384 3.36325 -1.30069 0
M  V30 1866 O 180.488 4.09815 -0.461007 0
M  V30 1867 H 179.829 0.587108 -0.310162 0
M  V30 1868 H 182.359 1.43129 -1.46203 0
M  V30 1869 H 182.369 3.87157 -1.28738 0
M  V30 1870 H 181.044 3.43017 -2.35185 0
M  V30 1871 H 179.621 3.68986 -0.538888 0
M  V30 1872 N 181.806 0.884767 1.30421 0
M  V30 1873 C 182.769 0.356277 2.26414 0
M  V30 1874 C 183.769 -0.501124 1.52792 0
M  V30 1875 O 184.959 -0.30831 1.7145 0
M  V30 1876 C 182.091 -0.492316 3.37326 0
M  V30 1877 H 183.284 1.20389 2.74675 0
M  V30 1878 H 180.837 0.661607 1.41607 0
M  V30 1879 H 181.572 -1.36052 2.94381 0
M  V30 1880 H 181.357 0.121832 3.91911 0
M  V30 1881 H 182.847 -0.853871 4.08777 0
M  V30 1882 N 183.284 -1.43765 0.645699 0
M  V30 1883 C 184.214 -2.33471 -0.0370477 0
M  V30 1884 C 185.195 -1.49042 -0.819779 0
M  V30 1885 O 186.38 -1.77726 -0.782758 0
M  V30 1886 C 183.51 -3.32311 -1.0093 0
M  V30 1887 C 182.464 -4.2667 -0.337201 0
M  V30 1888 C 181.79 -5.1549 -1.42037 0
M  V30 1889 C 183.09 -5.16657 0.765706 0
M  V30 1890 H 184.784 -2.90809 0.712069 0
M  V30 1891 H 182.33 -1.39834 0.343876 0
M  V30 1892 H 184.283 -3.9396 -1.49578 0
M  V30 1893 H 183.007 -2.73213 -1.78948 0
M  V30 1894 H 181.666 -3.66374 0.128771 0
M  V30 1895 H 181.314 -4.52735 -2.1918 0
M  V30 1896 H 181.014 -5.79438 -0.975966 0
M  V30 1897 H 182.538 -5.80012 -1.90838 0
M  V30 1898 H 183.952 -5.72158 0.361702 0
M  V30 1899 H 182.349 -5.89286 1.13413 0
M  V30 1900 H 183.419 -4.56796 1.62683 0
M  V30 1901 N 184.763 -0.387143 -1.52771 0
M  V30 1902 C 185.693 0.440551 -2.29306 0
M  V30 1903 C 186.674 1.06535 -1.32606 0
M  V30 1904 O 187.859 1.07853 -1.61497 0
M  V30 1905 C 184.989 1.56919 -3.09829 0
M  V30 1906 C 183.943 1.07054 -4.14395 0
M  V30 1907 C 183.269 2.29109 -4.83129 0
M  V30 1908 C 184.569 0.140015 -5.22112 0
M  V30 1909 H 186.263 -0.198026 -2.98744 0
M  V30 1910 H 183.809 -0.09668 -1.43675 0
M  V30 1911 H 185.762 2.15503 -3.62128 0
M  V30 1912 H 184.486 2.23532 -2.3812 0
M  V30 1913 H 183.145 0.507247 -3.63074 0
M  V30 1914 H 182.793 2.94227 -4.0797 0
M  V30 1915 H 182.493 1.96406 -5.53804 0
M  V30 1916 H 184.017 2.88339 -5.38231 0
M  V30 1917 H 185.431 0.633978 -5.69784 0
M  V30 1918 H 183.828 -0.0971485 -6.00021 0
M  V30 1919 H 184.898 -0.811711 -4.78058 0
M  V30 1920 N 186.241 1.57166 -0.116904 0
M  V30 1921 C 187.489 1.94737 0.540533 0
M  V30 1922 C 187.81 1.00096 1.67349 0
M  V30 1923 O 187.08 0.0568854 1.95817 0
M  V30 1924 H 185.66 0.718981 0.202669 0
M  V30 1925 H 188.322 1.94017 -0.185353 0
M  V30 1926 H 187.418 2.97719 0.936483 0
M  V30 1927 N 187.719 -0.156864 1.56817 0
M  V30 1928 C 188.649 -1.19589 2.00551 0
M  V30 1929 C 189.63 -1.4536 0.883426 0
M  V30 1930 O 190.815 -1.56449 1.15054 0
M  V30 1931 C 187.945 -2.53143 2.37773 0
M  V30 1932 C 186.899 -2.41913 3.53075 0
M  V30 1933 C 186.225 -3.80088 3.76081 0
M  V30 1934 C 187.525 -1.91157 4.86062 0
M  V30 1935 H 189.219 -0.832293 2.87599 0
M  V30 1936 H 186.765 -0.398918 1.38364 0
M  V30 1937 H 188.718 -3.26047 2.66967 0
M  V30 1938 H 187.442 -2.91319 1.4765 0
M  V30 1939 H 186.101 -1.71462 3.24031 0
M  V30 1940 H 185.749 -4.15683 2.83225 0
M  V30 1941 H 185.449 -3.73439 4.53671 0
M  V30 1942 H 186.973 -4.54556 4.0769 0
M  V30 1943 H 188.387 -2.53846 5.14038 0
M  V30 1944 H 186.784 -1.95422 5.67389 0
M  V30 1945 H 187.854 -0.866673 4.77092 0
M  V30 1946 N 189.197 -1.51736 -0.425897 0
M  V30 1947 C 190.144 -1.73875 -1.51776 0
M  V30 1948 C 191.114 -0.580702 -1.55618 0
M  V30 1949 O 192.299 -0.81641 -1.72451 0
M  V30 1950 C 189.439 -1.88012 -2.89388 0
M  V30 1951 C 188.552 -3.15606 -2.94986 0
M  V30 1952 C 187.687 -3.20271 -4.23793 0
M  V30 1953 C 186.726 -4.42134 -4.23302 0
M  V30 1954 N 185.863 -4.44284 -5.43651 0
M  V30 1955 H 190.703 -2.67071 -1.32201 0
M  V30 1956 H 188.24 -1.32351 -0.642008 0
M  V30 1957 H 190.198 -1.9419 -3.69251 0
M  V30 1958 H 188.828 -0.98213 -3.07496 0
M  V30 1959 H 187.88 -3.18681 -2.07717 0
M  V30 1960 H 189.192 -4.05486 -2.90486 0
M  V30 1961 H 188.346 -3.25428 -5.12036 0
M  V30 1962 H 187.085 -2.28299 -4.30965 0
M  V30 1963 H 186.09 -4.3714 -3.3345 0
M  V30 1964 H 187.315 -5.35382 -4.17783 0
M  V30 1965 H 185.261 -3.55188 -5.51523 0
M  V30 1966 H 185.178 -5.27988 -5.41078 0
M  V30 1967 H 186.446 -4.53649 -6.33895 0
M  V30 1968 N 190.675 0.682077 -1.42076 0
M  V30 1969 C 191.915 1.45424 -1.43636 0
M  V30 1970 C 192.279 1.91939 -0.0484001 0
M  V30 1971 O 193.48 2.6873 0.0612514 0
M  V30 1972 C 191.751 2.62427 -2.42625 0
M  V30 1973 S 193.31 3.51379 -2.62827 0
M  V30 1974 H 190.128 0.496779 -0.508657 0
M  V30 1975 H 192.73 0.794645 -1.78621 0
M  V30 1976 H 191.434 2.26481 -3.42249 0
M  V30 1977 H 190.965 3.33266 -2.09039 0
M  V30 1978 H 192.98 4.58141 -1.9058 0
M  V30 1979 N 192.153 1.28127 0.917671 0
M  V30 1980 C 193.569 1.05749 1.19538 0
M  V30 1981 C 193.769 -0.202633 2.00479 0
M  V30 1982 O 192.825 -0.905382 2.3571 0
M  V30 1983 C 194.138 2.30273 1.93378 0
M  V30 1984 C 195.686 2.35412 2.06277 0
M  V30 1985 C 196.161 3.59692 2.83524 0
M  V30 1986 N 197.652 3.60309 2.91087 0
M  V30 1987 C 198.387 4.53147 3.51348 0
M  V30 1988 N 197.883 5.563 4.12919 0
M  V30 1989 N 199.676 4.40751 3.48849 0
M  V30 1990 H 191.827 2.09024 0.377184 0
M  V30 1991 H 194.09 0.919798 0.22951 0
M  V30 1992 H 193.796 3.22055 1.41328 0
M  V30 1993 H 193.67 2.36378 2.93947 0
M  V30 1994 H 196.057 1.4413 2.57508 0
M  V30 1995 H 196.138 2.33304 1.04895 0
M  V30 1996 H 195.782 4.51316 2.32973 0
M  V30 1997 H 195.712 3.59054 3.85211 0
M  V30 1998 H 198.203 2.85714 2.47338 0
M  V30 1999 H 198.516 6.2329 4.56869 0
M  V30 2000 H 196.861 5.60131 4.11435 0
M  V30 2001 H 200.052 3.59367 2.99955 0
M  V30 2002 H 200.225 5.13291 3.9552 0
M  V30 2003 N 193.631 -1.12557 1.10312 0
M  V30 2004 C 194.88 -1.83395 0.839588 0
M  V30 2005 C 195.193 -1.84939 -0.636929 0
M  V30 2006 O 196.399 -2.51761 -1.01631 0
M  V30 2007 C 194.855 -3.29303 1.45215 0
M  V30 2008 C 194.463 -3.36122 2.96186 0
M  V30 2009 C 196.207 -4.05121 1.26796 0
M  V30 2010 C 194.114 -4.76357 3.50483 0
M  V30 2011 H 193.044 -0.687133 0.310425 0
M  V30 2012 H 195.695 -1.26746 1.32694 0
M  V30 2013 H 194.077 -3.85812 0.892469 0
M  V30 2014 H 195.251 -2.89559 3.58458 0
M  V30 2015 H 193.566 -2.73776 3.13745 0
M  V30 2016 H 196.163 -5.08668 1.64806 0
M  V30 2017 H 196.506 -4.15773 0.209409 0
M  V30 2018 H 197.039 -3.54967 1.79563 0
M  V30 2019 H 193.778 -4.70899 4.55998 0
M  V30 2020 H 193.298 -5.23377 2.92978 0
M  V30 2021 H 194.977 -5.45294 3.48228 0
M  V30 2022 N 195.109 -0.891671 -1.2995 0
M  V30 2023 C 196.339 -0.527893 -1.99742 0
M  V30 2024 C 196.747 0.88979 -1.66971 0
M  V30 2025 O 196.09 1.59766 -0.906667 0
M  V30 2026 C 196.152 -0.630804 -3.53922 0
M  V30 2027 C 195.816 -2.01401 -4.10228 0
M  V30 2028 C 196.813 -2.98422 -4.25724 0
M  V30 2029 C 194.498 -2.32121 -4.45449 0
M  V30 2030 C 196.492 -4.24293 -4.75662 0
M  V30 2031 C 194.179 -3.58237 -4.95086 0
M  V30 2032 C 195.177 -4.54137 -5.10146 0
M  V30 2033 O 194.865 -5.78014 -5.58708 0
M  V30 2034 H 194.597 -0.201953 -0.645129 0
M  V30 2035 H 197.151 -1.20076 -1.66646 0
M  V30 2036 H 195.381 0.0990616 -3.86573 0
M  V30 2037 H 197.07 -0.277338 -4.04951 0
M  V30 2038 H 197.836 -2.76001 -3.98809 0
M  V30 2039 H 193.715 -1.5824 -4.32991 0
M  V30 2040 H 197.259 -4.99153 -4.87332 0
M  V30 2041 H 193.156 -3.80491 -5.21437 0
M  V30 2042 H 193.924 -5.8049 -5.77039 0
M  V30 2043 N 196.587 1.43421 -0.653314 0
M  V30 2044 C 197.52 2.2803 0.0879804 0
M  V30 2045 C 198.498 1.39833 0.82979 0
M  V30 2046 O 199.682 1.69275 0.829341 0
M  V30 2047 C 196.809 3.19247 1.13132 0
M  V30 2048 C 195.855 4.23704 0.487546 0
M  V30 2049 S 196.688 5.30377 -0.738961 0
M  V30 2050 C 197.844 6.25162 0.30384 0
M  V30 2051 H 198.077 2.90554 -0.629739 0
M  V30 2052 H 195.61 1.47934 -0.442156 0
M  V30 2053 H 197.568 3.72346 1.72827 0
M  V30 2054 H 196.229 2.55901 1.82136 0
M  V30 2055 H 195.422 4.87631 1.27407 0
M  V30 2056 H 195.024 3.73983 -0.0352915 0
M  V30 2057 H 197.316 6.67321 1.17 0
M  V30 2058 H 198.259 7.07463 -0.300402 0
M  V30 2059 H 198.667 5.60864 0.63969 0
M  V30 2060 N 198.065 0.39524 1.52563 0
M  V30 2061 C 199.313 -0.184678 2.01254 0
M  V30 2062 C 199.634 -1.46822 1.28329 0
M  V30 2063 O 198.904 -1.91666 0.405094 0
M  V30 2064 H 197.484 -0.0712355 0.743596 0
M  V30 2065 H 200.146 0.528293 1.87603 0
M  V30 2066 H 199.242 -0.390681 3.09645 0
M  V30 2067 N 199.544 -1.57102 0.125237 0
M  V30 2068 C 200.507 -2.14471 -0.80838 0
M  V30 2069 C 201.507 -1.0811 -1.19033 0
M  V30 2070 O 202.697 -1.33856 -1.11482 0
M  V30 2071 C 199.829 -2.69005 -2.09402 0
M  V30 2072 H 201.022 -2.98297 -0.309696 0
M  V30 2073 H 198.575 -1.55807 -0.124051 0
M  V30 2074 H 199.31 -1.88785 -2.63687 0
M  V30 2075 H 199.095 -3.46799 -1.82957 0
M  V30 2076 H 200.585 -3.13278 -2.76128 0
M  V30 2077 N 201.022 0.148545 -1.56898 0
M  V30 2078 C 201.969 1.18345 -1.98149 0
M  V30 2079 C 202.939 1.42772 -0.848848 0
M  V30 2080 O 204.124 1.55132 -1.11079 0
M  V30 2081 C 201.264 2.51231 -2.36594 0
M  V30 2082 C 200.377 2.33991 -3.63142 0
M  V30 2083 C 199.512 3.59902 -3.90697 0
M  V30 2084 C 198.551 3.37692 -5.1052 0
M  V30 2085 N 197.688 4.5573 -5.34092 0
M  V30 2086 H 202.528 0.82467 -2.86362 0
M  V30 2087 H 200.065 0.395756 -1.41676 0
M  V30 2088 H 202.023 3.28713 -2.56912 0
M  V30 2089 H 200.653 2.85059 -1.51463 0
M  V30 2090 H 199.705 1.47572 -3.50609 0
M  V30 2091 H 201.017 2.13539 -4.5078 0
M  V30 2092 H 200.171 4.45813 -4.11505 0
M  V30 2093 H 198.91 3.83357 -3.01477 0
M  V30 2094 H 197.915 2.5017 -4.89587 0
M  V30 2095 H 199.14 3.15637 -6.0129 0
M  V30 2096 H 197.086 4.79361 -4.47827 0
M  V30 2097 H 197.003 4.38274 -6.15996 0
M  V30 2098 H 198.271 5.42858 -5.59397 0
M  V30 2099 N 202.5 1.5196 0.417844 0
M  V30 2100 C 203.777 1.56146 1.17803 0
M  V30 2101 C 204.157 0.337275 2.08388 0
M  V30 2102 O 203.505 -0.676447 2.18258 0
M  V30 2103 C 203.715 2.88566 1.96293 0
M  V30 2104 C 205.063 3.41244 2.52662 0
M  V30 2105 O 206.087 2.90247 2.06483 0
M  V30 2106 O 204.946 4.30273 3.36938 0
M  V30 2107 H 202.04 0.628598 0.537395 0
M  V30 2108 H 204.586 1.64283 0.425331 0
M  V30 2109 H 203.358 3.69116 1.2988 0
M  V30 2110 H 202.981 2.83681 2.78587 0
M  V30 2111 N 203.978 -0.674533 1.42435 0
M  V30 2112 C 205.224 -1.43671 1.43131 0
M  V30 2113 C 205.557 -1.94142 0.0476021 0
M  V30 2114 O 204.832 -1.70924 -0.928188 0
M  V30 2115 C 205.115 -2.63355 2.45594 0
M  V30 2116 C 204.968 -2.18514 3.93156 0
M  V30 2117 C 206.287 -3.65571 2.45043 0
M  V30 2118 H 203.406 -0.521077 0.521198 0
M  V30 2119 H 206.048 -0.766551 1.7385 0
M  V30 2120 H 204.198 -3.2053 2.19528 0
M  V30 2121 H 205.87 -1.66504 4.30202 0
M  V30 2122 H 204.113 -1.50086 4.07009 0
M  V30 2123 H 204.784 -3.04484 4.60428 0
M  V30 2124 H 207.26 -3.18113 2.68223 0
M  V30 2125 H 206.136 -4.46893 3.18713 0
M  V30 2126 H 206.397 -4.16716 1.47649 0
M  V30 2127 N 205.456 -1.28612 -0.910864 0
M  V30 2128 C 206.366 -1.14643 -2.0468 0
M  V30 2129 C 207.382 -0.0723121 -1.7385 0
M  V30 2130 O 208.558 -0.282178 -1.99413 0
M  V30 2131 C 205.623 -0.812561 -3.37044 0
M  V30 2132 C 204.684 -1.96935 -3.81465 0
M  V30 2133 C 203.917 -1.65131 -5.07511 0
M  V30 2134 O 204.14 -0.567013 -5.67575 0
M  V30 2135 O 203.074 -2.49585 -5.47714 0
M  V30 2136 H 206.9 -2.1001 -2.19384 0
M  V30 2137 H 204.485 -1.07958 -1.03274 0
M  V30 2138 H 206.367 -0.640441 -4.16505 0
M  V30 2139 H 205.042 0.111426 -3.23508 0
M  V30 2140 H 203.949 -2.19664 -3.02818 0
M  V30 2141 H 205.282 -2.87414 -3.99567 0
M  V30 2142 N 206.934 1.1197 -1.10907 0
M  V30 2143 C 208.35 1.35591 -0.841852 0
M  V30 2144 C 208.55 1.94233 0.536246 0
M  V30 2145 O 207.606 2.1717 1.28816 0
M  V30 2146 C 208.919 2.29284 -1.94549 0
M  V30 2147 C 210.467 2.42862 -1.97451 0
M  V30 2148 C 210.942 3.39873 -3.07002 0
M  V30 2149 N 212.433 3.47433 -3.06341 0
M  V30 2150 C 213.168 4.22421 -3.87748 0
M  V30 2151 N 212.664 5.00432 -4.79103 0
M  V30 2152 N 214.457 4.17876 -3.75946 0
M  V30 2153 H 206.608 0.722664 -1.99728 0
M  V30 2154 H 208.871 0.380635 -0.868229 0
M  V30 2155 H 208.577 1.93378 -2.93765 0
M  V30 2156 H 208.451 3.29452 -1.83688 0
M  V30 2157 H 210.838 2.78046 -0.988645 0
M  V30 2158 H 210.919 1.42566 -2.12388 0
M  V30 2159 H 210.563 3.05417 -4.05811 0
M  V30 2160 H 210.493 4.40011 -2.89306 0
M  V30 2161 H 212.984 2.91784 -2.40147 0
M  V30 2162 H 213.297 5.55002 -5.37766 0
M  V30 2163 H 211.642 4.99612 -4.83128 0
M  V30 2164 H 214.833 3.56016 -3.03924 0
M  V30 2165 H 215.006 4.76061 -4.39624 0
M  V30 2166 N 208.412 0.89855 1.29475 0
M  V30 2167 C 209.344 0.332726 2.26772 0
M  V30 2168 C 210.357 -0.520323 1.54261 0
M  V30 2169 O 211.546 -0.337668 1.75277 0
M  V30 2170 C 208.646 -0.544334 3.345 0
M  V30 2171 C 207.819 0.282728 4.36485 0
M  V30 2172 C 206.878 -0.526982 5.23555 0
M  V30 2173 O 205.904 0.0551165 5.69173 0
M  V30 2174 N 207.106 -1.83331 5.5079 0
M  V30 2175 H 209.871 1.16897 2.75962 0
M  V30 2176 H 207.432 0.762919 1.42798 0
M  V30 2177 H 209.424 -1.09239 3.89678 0
M  V30 2178 H 207.994 -1.28127 2.85136 0
M  V30 2179 H 207.214 1.01221 3.80983 0
M  V30 2180 H 208.502 0.84918 5.01664 0
M  V30 2181 H 207.9 -2.32898 5.15534 0
M  V30 2182 H 206.457 -2.32852 6.08788 0
M  V30 2183 N 209.89 -1.43072 0.660911 0
M  V30 2184 C 211.115 -2.06584 0.183805 0
M  V30 2185 C 211.54 -1.49257 -1.14472 0
M  V30 2186 O 210.898 -0.605528 -1.70889 0
M  V30 2187 C 210.946 -3.60418 0.114434 0
M  V30 2188 O 210.05 -4.01981 -0.921137 0
M  V30 2189 H 209.391 -0.656669 0.0983994 0
M  V30 2190 H 211.921 -1.83447 0.906006 0
M  V30 2191 H 211.931 -4.07946 -0.0663394 0
M  V30 2192 H 210.606 -4.01519 1.08422 0
M  V30 2193 H 209.183 -3.66029 -0.71253 0
M  V30 2194 N 211.368 -0.403325 -1.52352 0
M  V30 2195 C 212.779 0.0675782 -1.86578 0
M  V30 2196 C 213.13 1.44941 -1.32236 0
M  V30 2197 O 212.255 2.06112 -0.659307 0
M  V30 2198 C 212.85 0.129404 -3.38553 0
M  V30 2199 C 211.409 0.544629 -3.72439 0
M  V30 2200 C 210.556 -0.284551 -2.75836 0
M  V30 2201 H 213.507 -0.620631 -1.46061 0
M  V30 2202 H 213.528 0.94581 -3.68558 0
M  V30 2203 H 213.04 -0.87645 -3.78074 0
M  V30 2204 H 211.141 1.55734 -3.38493 0
M  V30 2205 H 211.254 0.293046 -4.78203 0
M  V30 2206 H 209.618 0.252258 -2.53448 0
M  V30 2207 H 210.401 -1.28865 -3.18196 0
M  V30 2208 N 212.846 1.57033 -0.133567 0
M  V30 2209 C 213.794 2.17348 0.828412 0
M  V30 2210 C 214.788 1.12671 1.26498 0
M  V30 2211 O 215.994 1.30947 1.23502 0
M  V30 2212 H 212.369 0.695775 0.285309 0
M  V30 2213 H 214.34 2.96935 0.295372 0
M  V30 2214 C 213.089 2.79893 2.06289 0
M  V30 2215 H 212.412 3.60147 1.73592 0
M  V30 2216 H 213.852 3.25615 2.71572 0
M  V30 2217 C 212.311 1.77713 2.86216 0
M  V30 2218 O 212.841 1.23937 3.82103 0
M  V30 2219 N 211.047 1.47321 2.50489 0
M  V30 2220 H 210.594 1.91243 1.7258 0
M  V30 2221 H 210.552 0.79199 3.04261 0
M  V30 2222 N 214.325 -0.140222 1.56975 0
M  V30 2223 C 215.571 -0.852949 1.83991 0
M  V30 2224 C 215.904 -1.80512 0.716187 0
M  V30 2225 O 215.179 -1.92479 -0.279681 0
M  V30 2226 C 215.462 -1.6215 3.21527 0
M  V30 2227 C 215.315 -0.690363 4.4447 0
M  V30 2228 C 216.634 -2.58247 3.56366 0
M  V30 2229 H 213.753 -0.308634 0.669264 0
M  V30 2230 H 216.395 -0.117898 1.89634 0
M  V30 2231 H 214.545 -2.24812 3.16847 0
M  V30 2232 H 216.217 -0.0742264 4.6124 0
M  V30 2233 H 214.46 -0.000396433 4.338 0
M  V30 2234 H 215.131 -1.2643 5.37326 0
M  V30 2235 H 217.607 -2.05701 3.61699 0
M  V30 2236 H 216.483 -3.09067 4.53617 0
M  V30 2237 H 216.744 -3.39923 2.82674 0
M  V30 2238 N 215.803 -1.52179 -0.40978 0
M  V30 2239 C 217.05 -1.66206 -1.15679 0
M  V30 2240 C 217.378 -0.391674 -1.90516 0
M  V30 2241 O 216.633 0.62533 -1.8544 0
M  V30 2242 C 216.932 -2.83428 -2.17723 0
M  V30 2243 C 216.598 -4.21672 -1.59699 0
M  V30 2244 C 215.26 -4.59274 -1.43599 0
M  V30 2245 C 217.612 -5.07825 -1.17317 0
M  V30 2246 C 214.94 -5.80709 -0.836328 0
M  V30 2247 C 217.292 -6.29864 -0.587691 0
M  V30 2248 C 215.956 -6.66216 -0.413818 0
M  V30 2249 H 215.226 -0.608192 -0.423301 0
M  V30 2250 H 217.873 -1.86279 -0.444097 0
M  V30 2251 H 216.178 -2.57687 -2.95135 0
M  V30 2252 H 217.875 -2.91477 -2.75394 0
M  V30 2253 H 214.465 -3.9204 -1.73213 0
M  V30 2254 H 218.649 -4.79359 -1.28565 0
M  V30 2255 H 213.905 -6.07498 -0.689626 0
M  V30 2256 H 218.079 -6.95948 -0.250894 0
M  V30 2257 H 215.706 -7.60182 0.0529471 0
M  V30 2258 N 217.281 0.66697 -1.42791 0
M  V30 2259 C 218.697 0.981027 -1.25889 0
M  V30 2260 C 218.897 2.00793 -0.168695 0
M  V30 2261 O 217.953 2.48321 0.45747 0
M  V30 2262 C 219.266 1.47838 -2.61848 0
M  V30 2263 C 220.814 1.59575 -2.69267 0
M  V30 2264 C 221.289 2.12704 -4.05612 0
M  V30 2265 N 222.78 2.20026 -4.07606 0
M  V30 2266 C 223.515 2.62227 -5.09926 0
M  V30 2267 N 223.011 3.03824 -6.22626 0
M  V30 2268 N 224.804 2.62045 -4.97281 0
M  V30 2269 H 216.955 -0.0127891 -2.12396 0
M  V30 2270 H 219.218 0.0568258 -0.946295 0
M  V30 2271 H 218.924 0.798299 -3.4252 0
M  V30 2272 H 218.798 2.45579 -2.86305 0
M  V30 2273 H 221.185 2.26687 -1.88936 0
M  V30 2274 H 221.266 0.60302 -2.48591 0
M  V30 2275 H 220.91 1.46198 -4.86404 0
M  V30 2276 H 220.84 3.12782 -4.23645 0
M  V30 2277 H 223.331 1.90708 -3.2625 0
M  V30 2278 H 223.644 3.34734 -6.96544 0
M  V30 2279 H 221.989 3.01662 -6.26119 0
M  V30 2280 H 225.18 2.28916 -4.08308 0
M  V30 2281 H 225.353 2.94613 -5.77154 0
M  V30 2282 N 218.759 1.29093 0.90403 0
M  V30 2283 C 219.692 1.08176 2.00931 0
M  V30 2284 C 220.67 -0.005083 1.62599 0
M  V30 2285 O 221.854 0.144765 1.87943 0
M  V30 2286 C 218.981 0.645897 3.32484 0
M  V30 2287 C 218.027 1.73081 3.89801 0
M  V30 2288 S 218.86 3.32905 4.19446 0
M  V30 2289 C 220.016 2.91176 5.54046 0
M  V30 2290 H 220.249 2.01752 2.18365 0
M  V30 2291 H 217.782 1.13191 1.0501 0
M  V30 2292 H 219.74 0.401131 4.08535 0
M  V30 2293 H 218.401 -0.270188 3.12936 0
M  V30 2294 H 217.594 1.37768 4.84805 0
M  V30 2295 H 217.196 1.92888 3.20422 0
M  V30 2296 H 219.488 2.37952 6.34338 0
M  V30 2297 H 220.431 3.85014 5.94281 0
M  V30 2298 H 220.839 2.296 5.15698 0
M  V30 2299 N 220.237 -1.11381 1.11499 0
M  V30 2300 C 221.653 -1.35143 0.849031 0
M  V30 2301 C 221.853 -1.94515 -0.525938 0
M  V30 2302 O 220.909 -2.1785 -1.27662 0
M  V30 2303 C 222.222 -2.28249 1.95762 0
M  V30 2304 C 223.77 -2.41812 1.98736 0
M  V30 2305 C 224.245 -3.3824 3.088 0
M  V30 2306 N 225.736 -3.45803 3.08179 0
M  V30 2307 C 226.471 -4.20358 3.89982 0
M  V30 2308 N 225.967 -4.97884 4.8175 0
M  V30 2309 N 227.76 -4.15877 3.78157 0
M  V30 2310 H 219.911 -0.712062 2.00109 0
M  V30 2311 H 222.174 -0.376025 0.870235 0
M  V30 2312 H 221.88 -1.91817 2.94787 0
M  V30 2313 H 221.754 -3.28473 1.85433 0
M  V30 2314 H 224.141 -2.77518 1.00338 0
M  V30 2315 H 224.222 -1.41437 2.13141 0
M  V30 2316 H 223.866 -3.03261 4.07425 0
M  V30 2317 H 223.796 -4.38471 2.91635 0
M  V30 2318 H 226.287 -2.90506 2.41691 0
M  V30 2319 H 226.6 -5.52142 5.40702 0
M  V30 2320 H 224.945 -4.97043 4.85771 0
M  V30 2321 H 228.136 -3.544 3.05808 0
M  V30 2322 H 228.309 -4.73723 4.42143 0
M  V30 2323 N 221.715 -0.905404 -1.28997 0
M  V30 2324 C 222.645 -0.404212 -2.29975 0
M  V30 2325 C 223.626 0.523784 -1.61835 0
M  V30 2326 O 224.811 0.433298 -1.89304 0
M  V30 2327 C 221.941 0.364042 -3.45387 0
M  V30 2328 C 220.895 -0.474048 -4.25367 0
M  V30 2329 C 220.221 0.422045 -5.33032 0
M  V30 2330 C 221.521 -1.72696 -4.92923 0
M  V30 2331 H 223.215 -1.24807 -2.72146 0
M  V30 2332 H 220.761 -0.601585 -1.30832 0
M  V30 2333 H 222.714 0.725447 -4.15109 0
M  V30 2334 H 221.438 1.24174 -3.02074 0
M  V30 2335 H 220.097 -0.81786 -3.57361 0
M  V30 2336 H 219.745 1.29804 -4.85963 0
M  V30 2337 H 219.445 -0.135057 -5.87445 0
M  V30 2338 H 220.969 0.779517 -6.05604 0
M  V30 2339 H 222.383 -1.43495 -5.55051 0
M  V30 2340 H 220.78 -2.22582 -5.57295 0
M  V30 2341 H 221.85 -2.45964 -4.17887 0
M  V30 2342 N 223.193 1.4272 -0.668489 0
M  V30 2343 C 224.126 2.28111 0.0637898 0
M  V30 2344 C 225.104 1.40705 0.814912 0
M  V30 2345 O 226.288 1.70146 0.81134 0
M  V30 2346 C 223.415 3.20429 1.0974 0
M  V30 2347 C 222.461 4.24197 0.442579 0
M  V30 2348 S 223.294 5.29563 -0.795173 0
M  V30 2349 C 224.45 6.25449 0.237516 0
M  V30 2350 H 224.683 2.8987 -0.660521 0
M  V30 2351 H 222.216 1.47456 -0.457821 0
M  V30 2352 H 224.174 3.74158 1.68868 0
M  V30 2353 H 222.835 2.57818 1.79411 0
M  V30 2354 H 222.028 4.88954 1.22227 0
M  V30 2355 H 221.63 3.73925 -0.0749554 0
M  V30 2356 H 223.922 6.68524 1.09915 0
M  V30 2357 H 224.865 7.07104 -0.375421 0
M  V30 2358 H 225.273 5.61511 0.580167 0
M  V30 2359 N 224.671 0.411399 1.52136 0
M  V30 2360 C 225.919 -0.163322 2.01439 0
M  V30 2361 C 226.24 -1.45453 1.29879 0
M  V30 2362 O 225.51 -1.91225 0.4254 0
M  V30 2363 H 224.09 -0.0633447 0.744309 0
M  V30 2364 H 226.752 0.548161 1.87033 0
M  V30 2365 H 225.848 -0.357817 3.10042 0
M  V30 2366 N 226.149 -1.5696 0.141893 0
M  V30 2367 C 227.112 -2.15316 -0.785587 0
M  V30 2368 C 228.112 -1.09366 -1.1788 0
M  V30 2369 O 229.302 -1.35031 -1.10056 0
M  V30 2370 C 226.434 -2.71211 -2.06537 0
M  V30 2371 H 227.627 -2.98608 -0.278041 0
M  V30 2372 H 225.18 -1.5593 -0.107519 0
M  V30 2373 H 225.915 -1.91571 -2.6167 0
M  V30 2374 H 225.7 -3.4872 -1.79268 0
M  V30 2375 H 227.19 -3.16189 -2.72789 0
M  V30 2376 N 227.627 0.131896 -1.57047 0
M  V30 2377 C 228.537 1.1815 -2.02676 0
M  V30 2378 C 229.553 1.46113 -0.944824 0
M  V30 2379 O 230.729 1.57485 -1.25541 0
M  V30 2380 C 227.794 2.49139 -2.41103 0
M  V30 2381 C 226.855 2.28688 -3.63318 0
M  V30 2382 C 226.088 3.53431 -3.99903 0
M  V30 2383 O 226.311 4.60223 -3.36973 0
M  V30 2384 O 225.245 3.45198 -4.93074 0
M  V30 2385 H 229.071 0.824069 -2.92306 0
M  V30 2386 H 226.656 0.341745 -1.45439 0
M  V30 2387 H 228.538 3.26338 -2.66611 0
M  V30 2388 H 227.213 2.84382 -1.54624 0
M  V30 2389 H 226.12 1.4939 -3.42977 0
M  V30 2390 H 227.453 1.98355 -4.50462 0
M  V30 2391 N 229.106 1.52395 0.401703 0
M  V30 2392 C 230.352 1.67065 1.14966 0
M  V30 2393 C 230.685 0.403052 1.89971 0
M  V30 2394 O 229.96 -0.598774 1.85054 0
M  V30 2395 C 230.243 2.8975 2.13815 0
M  V30 2396 C 230.096 4.26578 1.42658 0
M  V30 2397 C 231.415 3.07965 3.14397 0
M  V30 2398 H 228.534 0.607968 0.416587 0
M  V30 2399 H 231.176 1.84965 0.434511 0
M  V30 2400 H 229.326 2.74619 2.74803 0
M  V30 2401 H 230.998 4.53451 0.847329 0
M  V30 2402 H 229.241 4.27639 0.72849 0
M  V30 2403 H 229.912 5.08483 2.14823 0
M  V30 2404 H 232.388 3.22043 2.63491 0
M  V30 2405 H 231.264 3.95308 3.80819 0
M  V30 2406 H 231.525 2.21611 3.82545 0
M  V30 2407 N 230.584 -0.659388 1.43143 0
M  V30 2408 C 231.833 -1.41518 1.43721 0
M  V30 2409 C 232.146 -1.95499 0.0628176 0
M  V30 2410 O 233.352 -2.71446 -0.0539683 0
M  V30 2411 C 231.808 -2.5608 2.52885 0
M  V30 2412 C 231.416 -2.08733 3.96402 0
M  V30 2413 C 233.16 -3.3349 2.62649 0
M  V30 2414 C 231.067 -3.20469 4.97045 0
M  V30 2415 H 229.997 -0.531705 0.534608 0
M  V30 2416 H 232.648 -0.712343 1.69109 0
M  V30 2417 H 231.03 -3.28805 2.20688 0
M  V30 2418 H 232.204 -1.43059 4.3803 0
M  V30 2419 H 230.519 -1.44219 3.90627 0
M  V30 2420 H 233.116 -4.16734 3.35017 0
M  V30 2421 H 233.459 -3.8111 1.67513 0
M  V30 2422 H 233.992 -2.67842 2.94118 0
M  V30 2423 H 230.731 -2.77824 5.93712 0
M  V30 2424 H 230.251 -3.84874 4.60034 0
M  V30 2425 H 231.93 -3.85698 5.19467 0
M  V30 2426 N 232.062 -1.29571 -0.897171 0
M  V30 2427 C 233.473 -1.15964 -1.46319 0
M  V30 2428 C 233.824 0.244267 -1.94674 0
M  V30 2429 O 232.949 1.13998 -1.83939 0
M  V30 2430 C 233.544 -2.09906 -2.65942 0
M  V30 2431 C 232.103 -2.00314 -3.18671 0
M  V30 2432 C 231.25 -2.00687 -1.91363 0
M  V30 2433 H 234.201 -1.42019 -0.708268 0
M  V30 2434 H 234.222 -1.67276 -3.41759 0
M  V30 2435 H 233.734 -3.12075 -2.30718 0
M  V30 2436 H 231.835 -1.01242 -3.58582 0
M  V30 2437 H 231.948 -2.88102 -3.82798 0
M  V30 2438 H 230.312 -1.45319 -2.09175 0
M  V30 2439 H 231.095 -3.04566 -1.58413 0
M  V30 2440 N 233.54 1.10788 -1.12088 0
M  V30 2441 C 234.786 1.82942 -0.875226 0
M  V30 2442 C 235.119 1.84779 0.597538 0
M  V30 2443 O 234.394 1.30578 1.44152 0
M  V30 2444 C 234.677 3.29789 -1.44606 0
M  V30 2445 C 234.53 3.36307 -2.98693 0
M  V30 2446 C 235.849 4.26064 -1.10261 0
M  V30 2447 H 232.968 0.664195 -0.319397 0
M  V30 2448 H 235.61 1.29867 -1.38689 0
M  V30 2449 H 233.76 3.75118 -1.01089 0
M  V30 2450 H 235.432 2.99487 -3.50864 0
M  V30 2451 H 233.675 2.76318 -3.34411 0
M  V30 2452 H 234.346 4.39694 -3.33726 0
M  V30 2453 H 236.822 3.88951 -1.4784 0
M  V30 2454 H 235.698 5.27183 -1.52869 0
M  V30 2455 H 235.959 4.42098 -0.0142953 0
M  V30 2456 N 235.018 0.912232 1.28515 0
M  V30 2457 C 235.968 0.370649 2.24967 0
M  V30 2458 C 236.952 -0.516375 1.52389 0
M  V30 2459 O 238.144 -0.356345 1.73376 0
M  V30 2460 C 235.273 -0.389526 3.41083 0
M  V30 2461 C 234.359 0.51313 4.20984 0
M  V30 2462 N 234.75 1.62604 4.78951 0
M  V30 2463 C 233.048 0.313235 4.44899 0
M  V30 2464 C 233.749 2.18619 5.39055 0
M  V30 2465 N 232.725 1.47765 5.23132 0
M  V30 2466 H 236.527 1.22061 2.67354 0
M  V30 2467 H 234.041 0.764712 1.43269 0
M  V30 2468 H 236.038 -0.794353 4.09262 0
M  V30 2469 H 234.698 -1.2366 3.0023 0
M  V30 2470 H 235.709 2.00864 4.77362 0
M  V30 2471 H 232.386 -0.494452 4.14562 0
M  V30 2472 H 233.776 3.12228 5.94948 0
M  V30 2473 N 236.496 -1.42363 0.676048 0
M  V30 2474 C 237.721 -2.06377 0.205705 0
M  V30 2475 C 238.146 -1.50463 -1.12883 0
M  V30 2476 O 237.504 -0.623619 -1.70237 0
M  V30 2477 C 237.552 -3.60277 0.152655 0
M  V30 2478 O 236.656 -4.02935 -0.87845 0
M  V30 2479 H 235.997 -0.655588 0.105359 0
M  V30 2480 H 238.527 -1.82475 0.925412 0
M  V30 2481 H 238.537 -4.07993 -0.0230675 0
M  V30 2482 H 237.212 -4.00346 1.12675 0
M  V30 2483 H 235.789 -3.66764 -0.673668 0
M  V30 2484 N 237.974 -0.419461 -1.51915 0
M  V30 2485 C 239.222 0.152637 -2.01523 0
M  V30 2486 C 239.543 1.44762 -1.30649 0
M  V30 2487 O 238.813 1.90997 -0.435535 0
M  V30 2488 H 237.393 0.0593966 -0.744635 0
M  V30 2489 H 240.055 -0.558073 -1.86739 0
M  V30 2490 H 239.151 0.341369 -3.10227 0
M  V30 2491 N 239.452 1.56882 -0.150215 0
M  V30 2492 C 240.677 2.01027 0.510184 0
M  V30 2493 C 241.102 1.02966 1.57415 0
M  V30 2494 O 240.46 0.00590158 1.81299 0
M  V30 2495 C 240.508 3.43899 1.08472 0
M  V30 2496 O 239.612 3.4885 2.19948 0
M  V30 2497 H 238.953 0.652233 0.124451 0
M  V30 2498 H 241.483 2.03093 -0.247894 0
M  V30 2499 H 241.493 3.82766 1.41259 0
M  V30 2500 H 240.168 4.14776 0.305582 0
M  V30 2501 H 238.745 3.21827 1.88366 0
M  V30 2502 N 240.93 -0.123565 1.57115 0
M  V30 2503 C 241.893 -1.13583 1.99076 0
M  V30 2504 C 242.893 -1.34564 0.880296 0
M  V30 2505 O 244.083 -1.31158 1.14644 0
M  V30 2506 C 241.215 -2.49128 2.32698 0
M  V30 2507 H 242.408 -0.775287 2.89706 0
M  V30 2508 H 239.961 -0.36771 1.51913 0
M  V30 2509 H 240.696 -2.90111 1.44934 0
M  V30 2510 H 240.481 -2.35255 3.13684 0
M  V30 2511 H 241.971 -3.2199 2.65918 0
M  V30 2512 N 242.408 -1.52605 -0.393616 0
M  V30 2513 C 243.636 -1.71294 -1.16043 0
M  V30 2514 C 244.051 -0.429259 -1.83855 0
M  V30 2515 O 243.408 0.595921 -1.72496 0
M  V30 2516 C 243.459 -2.8593 -2.21193 0
M  V30 2517 O 243.18 -4.09329 -1.56146 0
M  V30 2518 C 244.681 -3.16259 -3.10636 0
M  V30 2519 H 241.901 -0.573641 -0.348104 0
M  V30 2520 H 244.445 -1.99234 -0.461092 0
M  V30 2521 H 242.6 -2.60465 -2.86769 0
M  V30 2522 H 243.014 -4.73323 -2.25978 0
M  V30 2523 H 244.488 -3.99946 -3.80456 0
M  V30 2524 H 244.965 -2.3045 -3.73884 0
M  V30 2525 H 245.571 -3.43547 -2.50711 0
M  V30 2526 N 243.887 0.651787 -1.4349 0
M  V30 2527 C 244.817 1.77621 -1.51569 0
M  V30 2528 C 245.798 1.66022 -0.370253 0
M  V30 2529 O 246.983 1.85095 -0.587658 0
M  V30 2530 C 244.113 3.16056 -1.43966 0
M  V30 2531 C 243.067 3.4242 -2.56774 0
M  V30 2532 C 242.393 4.8067 -2.34223 0
M  V30 2533 C 243.693 3.37023 -3.99015 0
M  V30 2534 H 245.387 1.71117 -2.45681 0
M  V30 2535 H 242.933 0.821825 -1.18246 0
M  V30 2536 H 244.886 3.94472 -1.48221 0
M  V30 2537 H 243.61 3.23293 -0.463586 0
M  V30 2538 H 242.269 2.66375 -2.51873 0
M  V30 2539 H 241.917 4.84585 -1.34856 0
M  V30 2540 H 241.617 4.9927 -3.09844 0
M  V30 2541 H 243.141 5.61342 -2.40265 0
M  V30 2542 H 244.555 4.05374 -4.05395 0
M  V30 2543 H 242.952 3.67159 -4.74673 0
M  V30 2544 H 244.022 2.3518 -4.2405 0
M  V30 2545 N 245.365 1.30045 0.890287 0
M  V30 2546 C 246.312 1.15976 1.99545 0
M  V30 2547 C 247.282 0.0506202 1.66023 0
M  V30 2548 O 248.467 0.219847 1.89529 0
M  V30 2549 C 245.607 0.852054 3.34416 0
M  V30 2550 C 244.72 2.04255 3.80662 0
M  V30 2551 C 243.855 1.6734 5.04154 0
M  V30 2552 C 242.894 2.82916 5.42794 0
M  V30 2553 N 242.031 2.46333 6.57468 0
M  V30 2554 H 246.871 2.10524 2.10911 0
M  V30 2555 H 244.408 1.04749 1.03276 0
M  V30 2556 H 246.366 0.654296 4.12037 0
M  V30 2557 H 244.996 -0.0565502 3.2275 0
M  V30 2558 H 244.048 2.35172 2.98995 0
M  V30 2559 H 245.36 2.90826 4.05242 0
M  V30 2560 H 244.514 1.43908 5.89386 0
M  V30 2561 H 243.253 0.779308 4.81433 0
M  V30 2562 H 242.258 3.0702 4.56091 0
M  V30 2563 H 243.483 3.73004 5.6749 0
M  V30 2564 H 241.429 1.59423 6.36334 0
M  V30 2565 H 241.346 3.26436 6.81891 0
M  V30 2566 H 242.614 2.26244 7.45945 0
M  V30 2567 N 246.843 -1.10192 1.12674 0
M  V30 2568 C 248.12 -1.78717 0.794965 0
M  V30 2569 C 248.5 -1.98628 -0.714853 0
M  V30 2570 O 247.848 -1.58135 -1.64941 0
M  V30 2571 C 248.058 -3.11546 1.5729 0
M  V30 2572 C 249.406 -3.86382 1.76052 0
M  V30 2573 O 250.43 -3.21274 1.53823 0
M  V30 2574 O 249.289 -5.03246 2.13087 0
M  V30 2575 H 246.383 -0.774702 0.289423 0
M  V30 2576 H 248.929 -1.16819 1.23091 0
M  V30 2577 H 247.701 -2.92489 2.59935 0
M  V30 2578 H 247.324 -3.81164 1.13137 0
M  V30 2579 N 248.321 -0.919034 -1.28029 0
M  V30 2580 C 249.284 -0.416182 -2.2539 0
M  V30 2581 C 250.284 0.460438 -1.54067 0
M  V30 2582 O 251.474 0.262744 -1.72207 0
M  V30 2583 C 248.606 0.402707 -3.38513 0
M  V30 2584 H 249.799 -1.27629 -2.71387 0
M  V30 2585 H 247.352 -0.698919 -1.39803 0
M  V30 2586 H 248.087 1.282 -2.97885 0
M  V30 2587 H 247.872 -0.225698 -3.9145 0
M  V30 2588 H 249.362 0.745191 -4.10897 0
M  V30 2589 N 249.799 1.42003 -0.683588 0
M  V30 2590 C 251.039 2.03282 -0.213513 0
M  V30 2591 C 251.403 1.52924 1.16097 0
M  V30 2592 O 252.604 2.06048 1.7262 0
M  V30 2593 C 250.875 3.56483 -0.255856 0
M  V30 2594 S 252.434 4.3857 0.14193 0
M  V30 2595 H 249.252 0.705659 -0.0869853 0
M  V30 2596 H 251.854 1.73619 -0.8987 0
M  V30 2597 H 250.558 3.90631 -1.25841 0
M  V30 2598 H 250.089 3.90831 0.448875 0
M  V30 2599 H 252.104 4.76828 1.37295 0
M  V30 2600 N 251.277 0.427512 1.51691 0
M  V30 2601 C 252.225 -0.403359 2.29076 0
M  V30 2602 C 253.219 -1.02962 1.34518 0
M  V30 2603 O 254.425 -0.965715 1.51901 0
M  V30 2604 H 250.8 -0.148879 0.737115 0
M  V30 2605 H 252.771 0.270295 2.97173 0
M  V30 2606 C 251.52 -1.49763 3.13794 0
M  V30 2607 H 250.843 -1.02508 3.86435 0
M  V30 2608 H 252.283 -2.05244 3.71014 0
M  V30 2609 C 250.742 -2.47536 2.28533 0
M  V30 2610 O 251.272 -3.51848 1.93819 0
M  V30 2611 N 249.478 -2.18187 1.91945 0
M  V30 2612 H 249.025 -1.33389 2.20375 0
M  V30 2613 H 248.983 -2.83848 1.35195 0
M  V30 2614 N 252.755 -1.56801 0.158532 0
M  V30 2615 C 253.665 -2.20916 -0.789518 0
M  V30 2616 C 254.681 -1.1969 -1.26294 0
M  V30 2617 O 255.857 -1.52308 -1.31773 0
M  V30 2618 C 252.922 -2.82727 -2.00665 0
M  V30 2619 C 251.983 -3.99114 -1.58134 0
M  V30 2620 C 251.216 -4.57968 -2.74045 0
M  V30 2621 O 251.439 -4.15704 -3.90572 0
M  V30 2622 O 250.373 -5.48047 -2.48855 0
M  V30 2623 H 254.199 -3.02464 -0.273681 0
M  V30 2624 H 251.784 -1.4924 -0.0690548 0
M  V30 2625 H 253.666 -3.21968 -2.71872 0
M  V30 2626 H 252.341 -2.04184 -2.51179 0
M  V30 2627 H 251.248 -3.64567 -0.839155 0
M  V30 2628 H 252.581 -4.79212 -1.12325 0
M  V30 2629 N 254.233 0.115231 -1.57178 0
M  V30 2630 C 255.196 1.12526 -1.99676 0
M  V30 2631 C 256.196 1.34095 -0.88742 0
M  V30 2632 O 257.386 1.30548 -1.15337 0
M  V30 2633 C 254.518 2.4789 -2.34015 0
M  V30 2634 H 255.711 0.759912 -2.90113 0
M  V30 2635 H 253.264 0.359648 -1.52106 0
M  V30 2636 H 253.999 2.89339 -1.4647 0
M  V30 2637 H 253.784 2.33588 -3.14927 0
M  V30 2638 H 255.274 3.20575 -2.67622 0
M  V30 2639 N 255.711 1.52812 0.385517 0
M  V30 2640 C 256.641 1.80808 1.47752 0
M  V30 2641 C 257.622 0.660318 1.5676 0
M  V30 2642 O 258.807 0.908246 1.71652 0
M  V30 2643 C 255.937 1.98008 2.85324 0
M  V30 2644 C 254.891 3.13709 2.91154 0
M  V30 2645 C 254.217 3.16169 4.31209 0
M  V30 2646 C 255.517 4.52709 2.60483 0
M  V30 2647 H 257.211 2.72253 1.24573 0
M  V30 2648 H 254.757 1.31003 0.597839 0
M  V30 2649 H 256.71 2.16176 3.61726 0
M  V30 2650 H 255.434 1.03255 3.09848 0
M  V30 2651 H 254.093 2.95329 2.17201 0
M  V30 2652 H 253.741 2.19092 4.52778 0
M  V30 2653 H 253.441 3.93894 4.36029 0
M  V30 2654 H 254.965 3.36496 5.09512 0
M  V30 2655 H 256.379 4.71173 3.26602 0
M  V30 2656 H 254.776 5.32528 2.76648 0
M  V30 2657 H 255.846 4.59186 1.55809 0
M  V30 2658 N 257.189 -0.644168 1.43834 0
M  V30 2659 C 258.605 -0.960875 1.27434 0
M  V30 2660 C 258.805 -2.00499 0.200618 0
M  V30 2661 O 257.861 -2.49018 -0.417906 0
M  V30 2662 C 259.174 -1.43653 2.64167 0
M  V30 2663 C 260.722 -1.55271 2.71772 0
M  V30 2664 C 261.197 -2.06224 4.08944 0
M  V30 2665 N 262.688 -2.13513 4.11055 0
M  V30 2666 C 263.423 -2.54081 5.14033 0
M  V30 2667 N 262.919 -2.9388 6.27381 0
M  V30 2668 N 264.712 -2.54101 5.01387 0
M  V30 2669 H 256.863 0.0465779 2.12349 0
M  V30 2670 H 259.126 -0.0417638 0.94708 0
M  V30 2671 H 258.832 -0.743706 3.43747 0
M  V30 2672 H 258.706 -2.40993 2.90176 0
M  V30 2673 H 261.093 -2.23653 1.92519 0
M  V30 2674 H 261.174 -0.563395 2.49519 0
M  V30 2675 H 260.818 -1.38441 4.88668 0
M  V30 2676 H 260.748 -3.06003 4.28567 0
M  V30 2677 H 263.239 -1.85493 3.29242 0
M  V30 2678 H 263.552 -3.2361 7.01781 0
M  V30 2679 H 261.897 -2.91663 6.30839 0
M  V30 2680 H 265.088 -2.22391 4.11898 0
M  V30 2681 H 265.261 -2.85394 5.81768 0
M  V30 2682 N 258.668 -1.30515 -0.883378 0
M  V30 2683 C 259.945 -1.10086 -1.6168 0
M  V30 2684 C 260.325 0.349269 -2.08191 0
M  V30 2685 O 259.673 1.34105 -1.85008 0
M  V30 2686 C 259.883 -2.10315 -2.78511 0
M  V30 2687 C 261.231 -2.42119 -3.48803 0
M  V30 2688 O 262.255 -2.08638 -2.88702 0
M  V30 2689 O 261.114 -2.99396 -4.57192 0
M  V30 2690 H 258.208 -0.422907 -0.710689 0
M  V30 2691 H 260.754 -1.41947 -0.930015 0
M  V30 2692 H 259.526 -3.07917 -2.41459 0
M  V30 2693 H 259.149 -1.79282 -3.54886 0
M  V30 2694 N 260.146 1.09593 -1.13257 0
M  V30 2695 C 261.392 1.82181 -0.904521 0
M  V30 2696 C 261.747 1.83967 0.563358 0
M  V30 2697 O 261.04 1.29566 1.41149 0
M  V30 2698 C 261.234 3.27802 -1.42411 0
M  V30 2699 C 261.063 3.40201 -2.94097 0
M  V30 2700 C 259.833 3.52104 -3.62424 0
M  V30 2701 C 262.031 3.32875 -3.92044 0
M  V30 2702 N 260.013 3.53169 -5.0214 0
M  V30 2703 C 261.384 3.40789 -5.17941 0
M  V30 2704 C 263.439 3.16531 -3.84334 0
M  V30 2705 C 262.142 3.34042 -6.37031 0
M  V30 2706 C 264.168 3.11109 -5.02956 0
M  V30 2707 C 263.53 3.19614 -6.27715 0
M  V30 2708 H 259.629 0.681015 -0.384373 0
M  V30 2709 H 262.213 1.3099 -1.44048 0
M  V30 2710 H 260.384 3.77466 -0.915086 0
M  V30 2711 H 262.116 3.88393 -1.13722 0
M  V30 2712 H 258.871 3.5548 -3.12939 0
M  V30 2713 H 259.295 3.57291 -5.75041 0
M  V30 2714 H 263.937 3.08827 -2.88766 0
M  V30 2715 H 261.655 3.4051 -7.32857 0
M  V30 2716 H 265.241 2.99601 -4.98729 0
M  V30 2717 H 264.121 3.15432 -7.17964 0
M  V30 2718 N 261.624 0.925811 1.2754 0
M  V30 2719 C 262.849 0.580924 1.99098 0
M  V30 2720 C 263.274 -0.833555 1.68622 0
M  V30 2721 O 262.632 -1.55903 0.925422 0
M  V30 2722 C 262.68 0.811186 3.51358 0
M  V30 2723 O 261.784 -0.124129 4.12213 0
M  V30 2724 H 261.125 0.223873 0.625122 0
M  V30 2725 H 263.655 1.24455 1.62395 0
M  V30 2726 H 263.665 0.72601 4.01489 0
M  V30 2727 H 262.34 1.84227 3.72872 0
M  V30 2728 H 260.917 0.0108006 3.72898 0
M  V30 2729 N 263.102 -1.41638 0.69111 0
M  V30 2730 C 264.35 -2.00902 0.219758 0
M  V30 2731 C 264.671 -1.54994 -1.18329 0
M  V30 2732 O 263.941 -0.778628 -1.79762 0
M  V30 2733 H 262.521 -0.74289 0.0782558 0
M  V30 2734 H 265.183 -1.73327 0.891271 0
M  V30 2735 H 264.279 -3.11224 0.233708 0
M  V30 2736 N 264.58 -0.43555 -1.51462 0
M  V30 2737 C 265.805 0.132627 -2.06976 0
M  V30 2738 C 266.23 1.35848 -1.30104 0
M  V30 2739 O 265.588 1.78112 -0.338493 0
M  V30 2740 C 265.636 0.43523 -3.57964 0
M  V30 2741 O 264.74 1.52198 -3.83288 0
M  V30 2742 H 264.081 0.00265 -0.663995 0
M  V30 2743 H 266.611 -0.616369 -1.95095 0
M  V30 2744 H 266.621 0.686206 -4.02188 0
M  V30 2745 H 265.296 -0.460739 -4.1334 0
M  V30 2746 H 263.873 1.2611 -3.50928 0
M  V30 2747 N 266.058 1.56714 -0.166846 0
M  V30 2748 C 267.288 2.00828 0.48494 0
M  V30 2749 C 267.696 1.04612 1.57648 0
M  V30 2750 O 267.039 0.0383201 1.8366 0
M  V30 2751 C 267.101 3.4137 1.12723 0
M  V30 2752 C 266.765 4.56654 0.177886 0
M  V30 2753 C 267.762 5.16402 -0.60207 0
M  V30 2754 C 265.447 5.02244 0.0750139 0
M  V30 2755 C 267.441 6.20167 -1.47215 0
M  V30 2756 C 265.128 6.05859 -0.798649 0
M  V30 2757 C 266.126 6.64691 -1.57082 0
M  V30 2758 O 265.814 7.66297 -2.42989 0
M  V30 2759 H 265.546 0.663587 0.128953 0
M  V30 2760 H 268.1 2.03692 -0.264365 0
M  V30 2761 H 266.33 3.35406 1.92457 0
M  V30 2762 H 268.019 3.69466 1.68076 0
M  V30 2763 H 268.785 4.82065 -0.53274 0
M  V30 2764 H 264.664 4.56167 0.665812 0
M  V30 2765 H 268.208 6.66016 -2.07531 0
M  V30 2766 H 264.105 6.39621 -0.869199 0
M  V30 2767 H 264.873 7.83601 -2.36455 0
M  V30 2768 N 267.536 -0.106894 1.57237 0
M  V30 2769 C 268.446 -1.14911 2.0453 0
M  V30 2770 C 269.462 -1.44592 0.96795 0
M  V30 2771 O 270.638 -1.55468 1.2803 0
M  V30 2772 C 267.703 -2.45272 2.45036 0
M  V30 2773 C 266.764 -2.22879 3.66911 0
M  V30 2774 C 265.997 -3.47024 4.05475 0
M  V30 2775 O 266.22 -4.54804 3.44252 0
M  V30 2776 O 265.154 -3.3731 4.98504 0
M  V30 2777 H 268.98 -0.777461 2.9358 0
M  V30 2778 H 266.565 -0.318563 1.45964 0
M  V30 2779 H 268.447 -3.22055 2.71769 0
M  V30 2780 H 267.122 -2.81886 1.59129 0
M  V30 2781 H 266.029 -1.43915 3.45311 0
M  V30 2782 H 267.362 -1.91163 4.53561 0
M  V30 2783 N 269.014 -1.53014 -0.377408 0
M  V30 2784 C 270.242 -1.72515 -1.14219 0
M  V30 2785 C 270.657 -0.448735 -1.8339 0
M  V30 2786 O 270.014 0.577592 -1.73119 0
M  V30 2787 C 270.065 -2.8826 -2.18148 0
M  V30 2788 O 269.786 -4.10962 -1.51795 0
M  V30 2789 C 271.287 -3.19536 -3.07264 0
M  V30 2790 H 268.507 -0.577301 -0.342001 0
M  V30 2791 H 271.051 -1.99712 -0.439935 0
M  V30 2792 H 269.206 -2.63492 -2.83991 0
M  V30 2793 H 269.62 -4.75693 -2.20945 0
M  V30 2794 H 271.094 -4.03959 -3.76193 0
M  V30 2795 H 271.571 -2.34403 -3.71419 0
M  V30 2796 H 272.177 -3.46186 -2.47053 0
M  V30 2797 N 270.492 0.636531 -1.44174 0
M  V30 2798 C 271.455 1.73063 -1.50273 0
M  V30 2799 C 272.455 1.56113 -0.385397 0
M  V30 2800 O 273.645 1.61707 -0.64781 0
M  V30 2801 C 270.777 3.12096 -1.37145 0
M  V30 2802 H 271.97 1.69031 -2.47727 0
M  V30 2803 H 269.523 0.849706 -1.31186 0
M  V30 2804 H 270.258 3.21728 -0.407636 0
M  V30 2805 H 270.043 3.25805 -2.18159 0
M  V30 2806 H 271.533 3.91846 -1.44382 0
M  V30 2807 N 271.97 1.30982 0.876444 0
M  V30 2808 C 272.92 1.14688 1.97055 0
M  V30 2809 C 273.904 0.0596593 1.60789 0
M  V30 2810 O 275.096 0.283892 1.74708 0
M  V30 2811 C 272.225 0.849627 3.3262 0
M  V30 2812 C 271.311 1.97752 3.75173 0
M  V30 2813 N 271.702 3.22384 3.89746 0
M  V30 2814 C 270 1.8758 4.04635 0
M  V30 2815 C 270.701 3.96121 4.25985 0
M  V30 2816 N 269.677 3.24237 4.36315 0
M  V30 2817 H 273.479 2.09204 2.06424 0
M  V30 2818 H 270.993 1.22445 1.06682 0
M  V30 2819 H 272.99 0.713895 4.10742 0
M  V30 2820 H 271.65 -0.087376 3.24582 0
M  V30 2821 H 272.661 3.57575 3.74647 0
M  V30 2822 H 269.338 1.01303 4.05024 0
M  V30 2823 H 270.728 5.03491 4.44911 0
M  V30 2824 N 273.449 -1.08991 1.13837 0
M  V30 2825 C 274.679 -1.84743 0.924859 0
M  V30 2826 C 275.087 -1.81629 -0.529874 0
M  V30 2827 O 274.43 -1.21397 -1.37872 0
M  V30 2828 C 274.492 -3.33568 1.34061 0
M  V30 2829 C 274.156 -3.60425 2.80968 0
M  V30 2830 C 275.153 -3.55771 3.79108 0
M  V30 2831 C 272.838 -3.88627 3.18236 0
M  V30 2832 C 274.832 -3.78939 5.12527 0
M  V30 2833 C 272.519 -4.11449 4.51833 0
M  V30 2834 C 273.517 -4.06598 5.48787 0
M  V30 2835 O 273.205 -4.28826 6.79973 0
M  V30 2836 H 272.937 -0.590258 0.329502 0
M  V30 2837 H 275.491 -1.38598 1.51591 0
M  V30 2838 H 273.721 -3.80442 0.692853 0
M  V30 2839 H 275.41 -3.90743 1.09886 0
M  V30 2840 H 276.176 -3.34005 3.51661 0
M  V30 2841 H 272.055 -3.91526 2.43369 0
M  V30 2842 H 275.599 -3.75068 5.88192 0
M  V30 2843 H 271.496 -4.32698 4.79002 0
M  V30 2844 H 272.264 -4.46264 6.86142 0
M  V30 2845 N 274.927 -0.932562 -1.27047 0
M  V30 2846 C 275.86 -0.379774 -2.25018 0
M  V30 2847 C 276.838 0.526587 -1.53837 0
M  V30 2848 O 278.022 0.465992 -1.82649 0
M  V30 2849 C 275.149 0.455187 -3.35627 0
M  V30 2850 C 274.195 -0.388428 -4.24728 0
M  V30 2851 S 275.028 -1.80701 -5.04091 0
M  V30 2852 C 276.184 -0.979865 -6.18182 0
M  V30 2853 H 276.417 -1.2101 -2.71558 0
M  V30 2854 H 273.95 -0.735078 -1.35779 0
M  V30 2855 H 275.908 0.931052 -3.99802 0
M  V30 2856 H 274.569 1.26009 -2.87716 0
M  V30 2857 H 273.762 0.25089 -5.03375 0
M  V30 2858 H 273.364 -0.798649 -3.65373 0
M  V30 2859 H 275.656 -0.218115 -6.77149 0
M  V30 2860 H 276.599 -1.73951 -6.86401 0
M  V30 2861 H 277.007 -0.51973 -5.62102 0
M  V30 2862 N 276.405 1.4127 -0.698611 0
M  V30 2863 C 277.335 2.33447 -0.049629 0
M  V30 2864 C 278.316 1.51982 0.763898 0
M  V30 2865 O 279.501 1.80509 0.716257 0
M  V30 2866 C 276.631 3.35828 0.885267 0
M  V30 2867 C 275.585 4.27627 0.178613 0
M  V30 2868 C 274.911 5.20406 1.22807 0
M  V30 2869 C 276.211 5.13459 -0.956933 0
M  V30 2870 H 277.905 2.87966 -0.81951 0
M  V30 2871 H 275.451 1.38461 -0.395538 0
M  V30 2872 H 277.404 3.9924 1.34854 0
M  V30 2873 H 276.128 2.79666 1.68685 0
M  V30 2874 H 274.787 3.65643 -0.26466 0
M  V30 2875 H 274.435 4.60558 2.02226 0
M  V30 2876 H 274.135 5.82661 0.760239 0
M  V30 2877 H 275.659 5.86695 1.69179 0
M  V30 2878 H 277.073 5.70421 -0.573805 0
M  V30 2879 H 275.47 5.8467 -1.35205 0
M  V30 2880 H 276.54 4.50443 -1.79524 0
M  V30 2881 N 277.883 0.443576 1.51229 0
M  V30 2882 C 279.131 -0.120557 2.0174 0
M  V30 2883 C 279.452 -1.42665 1.32935 0
M  V30 2884 O 278.722 -1.9028 0.465866 0
M  V30 2885 H 277.302 -0.0475426 0.745486 0
M  V30 2886 H 279.964 0.587711 1.85828 0
M  V30 2887 H 279.06 -0.291972 3.10731 0
M  V30 2888 N 279.361 -1.56624 0.175154 0
M  V30 2889 C 280.589 -2.01374 -0.474971 0
M  V30 2890 C 281.004 -1.05537 -1.56548 0
M  V30 2891 O 280.361 -0.0568668 -1.82411 0
M  V30 2892 C 280.412 -3.45923 -1.04975 0
M  V30 2893 O 280.133 -4.381 -0.00276605 0
M  V30 2894 C 281.634 -4.06093 -1.77773 0
M  V30 2895 H 278.854 -0.659962 -0.121206 0
M  V30 2896 H 281.398 -2.02601 0.27801 0
M  V30 2897 H 279.553 -3.45458 -1.75321 0
M  V30 2898 H 279.967 -5.22753 -0.427681 0
M  V30 2899 H 281.441 -5.09147 -2.13245 0
M  V30 2900 H 281.918 -3.48405 -2.67414 0
M  V30 2901 H 282.524 -4.10272 -1.12059 0
M  V30 2902 N 280.839 0.0985539 -1.57292 0
M  V30 2903 C 281.802 1.10402 -2.00858 0
M  V30 2904 C 282.802 1.33146 -0.901593 0
M  V30 2905 O 283.992 1.29318 -1.16716 0
M  V30 2906 C 281.124 2.45394 -2.36632 0
M  V30 2907 H 282.317 0.729099 -2.90902 0
M  V30 2908 H 279.87 0.343495 -1.52479 0
M  V30 2909 H 280.605 2.87769 -1.49531 0
M  V30 2910 H 280.39 2.30235 -3.17387 0
M  V30 2911 H 281.88 3.17718 -2.71007 0
M  V30 2912 N 282.317 1.53212 0.369288 0
M  V30 2913 C 283.28 1.7872 1.43498 0
M  V30 2914 C 284.28 0.657554 1.46741 0
M  V30 2915 O 285.47 0.925736 1.47566 0
M  V30 2916 C 282.602 1.90591 2.82645 0
M  V30 2917 H 283.795 2.73894 1.22156 0
M  V30 2918 H 281.348 1.44233 0.602203 0
M  V30 2919 H 282.083 0.974709 3.09306 0
M  V30 2920 H 281.868 2.72751 2.8169 0
M  V30 2921 H 283.358 2.11931 3.59826 0
M  V30 2922 N 283.795 -0.628877 1.44509 0
M  V30 2923 C 285.043 -1.38565 1.4712 0
M  V30 2924 C 285.364 -1.94712 0.105899 0
M  V30 2925 O 284.634 -1.75912 -0.862079 0
M  V30 2926 H 283.214 -0.514333 0.541729 0
M  V30 2927 H 285.876 -0.740018 1.80305 0
M  V30 2928 H 284.972 -2.21583 2.19789 0
M  V30 2929 N 285.273 -1.31445 -0.869486 0
M  V30 2930 C 286.684 -1.19042 -1.43826 0
M  V30 2931 C 287.035 0.202919 -1.95148 0
M  V30 2932 O 286.16 1.10071 -1.86315 0
M  V30 2933 C 286.755 -2.15499 -2.6143 0
M  V30 2934 C 285.314 -2.07028 -3.14351 0
M  V30 2935 C 284.461 -2.04701 -1.87063 0
M  V30 2936 H 287.412 -1.43489 -0.677984 0
M  V30 2937 H 287.433 -1.74488 -3.38134 0
M  V30 2938 H 286.945 -3.16899 -2.24046 0
M  V30 2939 H 285.046 -1.08825 -3.56354 0
M  V30 2940 H 285.159 -2.96157 -3.766 0
M  V30 2941 H 283.523 -1.49724 -2.06046 0
M  V30 2942 H 284.306 -3.07857 -1.51917 0
M  V30 2943 N 286.751 1.08385 -1.14413 0
M  V30 2944 C 287.701 2.13509 -0.79987 0
M  V30 2945 C 288.685 1.5951 0.211059 0
M  V30 2946 O 289.877 1.76995 0.0133694 0
M  V30 2947 C 287.006 3.42162 -0.279297 0
M  V30 2948 C 286.092 4.03042 -1.31976 0
M  V30 2949 N 286.483 4.38327 -2.52395 0
M  V30 2950 C 284.781 4.30379 -1.17004 0
M  V30 2951 C 285.482 4.86428 -3.19003 0
M  V30 2952 N 284.458 4.84547 -2.46405 0
M  V30 2953 H 288.26 2.38609 -1.7159 0
M  V30 2954 H 285.774 1.2572 -1.02802 0
M  V30 2955 H 287.771 4.16898 -0.0143688 0
M  V30 2956 H 286.431 3.18511 0.630923 0
M  V30 2957 H 287.442 4.29349 -2.89621 0
M  V30 2958 H 284.119 4.16281 -0.318854 0
M  V30 2959 H 285.509 5.23107 -4.21674 0
M  V30 2960 N 288.23 0.939286 1.26551 0
M  V30 2961 C 289.641 0.628782 1.75793 0
M  V30 2962 C 289.992 -0.856046 1.7654 0
M  V30 2963 O 289.117 -1.66994 1.3763 0
M  V30 2964 C 289.712 1.13465 3.19235 0
M  V30 2965 C 288.271 0.874601 3.66098 0
M  V30 2966 C 287.418 1.28667 2.45642 0
M  V30 2967 H 290.369 1.1178 1.12654 0
M  V30 2968 H 290.39 0.487609 3.77363 0
M  V30 2969 H 289.902 2.21535 3.1866 0
M  V30 2970 H 288.003 -0.191793 3.72106 0
M  V30 2971 H 288.116 1.50028 4.55004 0
M  V30 2972 H 286.48 0.705109 2.44745 0
M  V30 2973 H 287.263 2.37625 2.47769 0
M  V30 2974 N 289.708 -1.40897 0.706093 0
M  V30 2975 C 290.938 -2.05075 0.250523 0
M  V30 2976 C 291.346 -1.53275 -1.10921 0
M  V30 2977 O 290.689 -0.680281 -1.7064 0
M  V30 2978 C 290.751 -3.59219 0.142178 0
M  V30 2979 C 290.415 -4.33864 1.43566 0
M  V30 2980 C 291.412 -4.62448 2.37566 0
M  V30 2981 C 289.097 -4.72946 1.69195 0
M  V30 2982 C 291.091 -5.29088 3.5545 0
M  V30 2983 C 288.778 -5.3932 2.87362 0
M  V30 2984 C 289.776 -5.6732 3.80312 0
M  V30 2985 O 289.464 -6.32325 4.96408 0
M  V30 2986 H 289.196 -0.666645 0.112074 0
M  V30 2987 H 291.75 -1.81467 0.962239 0
M  V30 2988 H 289.98 -3.81609 -0.6254 0
M  V30 2989 H 291.669 -4.0495 -0.277584 0
M  V30 2990 H 292.435 -4.32727 2.19027 0
M  V30 2991 H 288.314 -4.50527 0.977042 0
M  V30 2992 H 291.858 -5.50859 4.28018 0
M  V30 2993 H 287.755 -5.68461 3.05814 0
M  V30 2994 H 288.523 -6.50821 4.9636 0
M  V30 2995 N 291.186 -0.45159 -1.50991 0
M  V30 2996 C 292.597 0.00818571 -1.86698 0
M  V30 2997 C 292.948 1.40661 -1.3678 0
M  V30 2998 O 292.073 2.0391 -0.724546 0
M  V30 2999 C 292.668 0.0216303 -3.38793 0
M  V30 3000 C 291.227 0.425865 -3.73983 0
M  V30 3001 C 290.374 -0.372163 -2.74791 0
M  V30 3002 H 293.325 -0.666785 -1.44013 0
M  V30 3003 H 293.346 0.828078 -3.7138 0
M  V30 3004 H 292.858 -0.996288 -3.75094 0
M  V30 3005 H 290.959 1.44886 -3.43277 0
M  V30 3006 H 291.072 0.140761 -4.78893 0
M  V30 3007 H 289.436 0.171498 -2.54122 0
M  V30 3008 H 290.219 -1.38922 -3.13935 0
M  V30 3009 N 292.664 1.56529 -0.183458 0
M  V30 3010 C 293.892 2.01623 0.464285 0
M  V30 3011 C 294.307 1.06366 1.55986 0
M  V30 3012 O 293.664 0.0665398 1.82379 0
M  V30 3013 C 293.715 3.46475 1.03139 0
M  V30 3014 O 293.436 4.38095 -0.0204675 0
M  V30 3015 C 294.937 4.0703 1.75617 0
M  V30 3016 H 292.157 0.660596 0.117704 0
M  V30 3017 H 294.701 2.02451 -0.288751 0
M  V30 3018 H 292.856 3.46383 1.73486 0
M  V30 3019 H 293.27 5.22973 0.399952 0
M  V30 3020 H 294.744 5.10271 2.10542 0
M  V30 3021 H 295.221 3.49819 2.65563 0
M  V30 3022 H 295.827 4.1086 1.09882 0
M  V30 3023 N 294.142 -0.090211 1.57342 0
M  V30 3024 C 295.391 -0.791531 1.8552 0
M  V30 3025 C 295.704 -1.79659 0.773441 0
M  V30 3026 O 296.91 -2.54616 0.942497 0
M  V30 3027 C 295.366 -1.45856 3.2902 0
M  V30 3028 C 294.974 -0.493017 4.45279 0
M  V30 3029 C 296.718 -2.14332 3.66418 0
M  V30 3030 C 294.625 -1.16491 5.79814 0
M  V30 3031 H 293.555 -0.299356 0.692027 0
M  V30 3032 H 296.206 -0.0445343 1.83446 0
M  V30 3033 H 294.588 -2.25318 3.2565 0
M  V30 3034 H 295.762 0.270464 4.60006 0
M  V30 3035 H 294.077 0.0863061 4.16311 0
M  V30 3036 H 296.674 -2.65344 4.64216 0
M  V30 3037 H 297.017 -2.93447 2.95287 0
M  V30 3038 H 297.55 -1.41724 3.71698 0
M  V30 3039 H 294.289 -0.41447 6.54188 0
M  V30 3040 H 293.809 -1.8997 5.68921 0
M  V30 3041 H 295.488 -1.69001 6.24538 0
M  V30 3042 N 295.62 -1.53406 -0.361157 0
M  V30 3043 C 296.866 -1.70054 -1.10496 0
M  V30 3044 C 297.199 -0.453278 -1.88836 0
M  V30 3045 O 296.474 0.5495 -1.86576 0
M  V30 3046 C 296.757 -2.95317 -2.06058 0
M  V30 3047 C 296.61 -4.3021 -1.31298 0
M  V30 3048 C 297.929 -3.16193 -3.06121 0
M  V30 3049 H 295.048 -0.618799 -0.400321 0
M  V30 3050 H 297.69 -1.86052 -0.385318 0
M  V30 3051 H 295.84 -2.81809 -2.67425 0
M  V30 3052 H 297.512 -4.55538 -0.726807 0
M  V30 3053 H 295.755 -4.29421 -0.614853 0
M  V30 3054 H 296.426 -5.14 -2.01265 0
M  V30 3055 H 298.902 -3.28916 -2.5486 0
M  V30 3056 H 297.778 -4.05266 -3.70204 0
M  V30 3057 H 298.039 -2.31676 -3.76535 0
M  V30 3058 N 297.098 0.621204 -1.44841 0
M  V30 3059 C 298.514 0.94048 -1.28946 0
M  V30 3060 C 298.714 2.00154 -0.23249 0
M  V30 3061 O 297.77 2.49651 0.378237 0
M  V30 3062 C 299.083 1.39433 -2.66419 0
M  V30 3063 C 300.631 1.50927 -2.74208 0
M  V30 3064 C 301.106 1.99692 -4.12174 0
M  V30 3065 N 302.597 2.06947 -4.144 0
M  V30 3066 C 303.332 2.45871 -5.1801 0
M  V30 3067 N 302.828 2.83862 -6.31977 0
M  V30 3068 N 304.621 2.46092 -5.05366 0
M  V30 3069 H 296.772 -0.0803548 -2.12248 0
M  V30 3070 H 299.035 0.0266913 -0.947624 0
M  V30 3071 H 298.741 0.688925 -3.44887 0
M  V30 3072 H 298.615 2.36347 -2.93973 0
M  V30 3073 H 301.002 2.20561 -1.96053 0
M  V30 3074 H 301.083 0.523627 -2.50383 0
M  V30 3075 H 300.727 1.30649 -4.90809 0
M  V30 3076 H 300.657 2.99146 -4.33381 0
M  V30 3077 H 303.148 1.80232 -3.32152 0
M  V30 3078 H 303.461 3.12405 -7.0684 0
M  V30 3079 H 301.806 2.8159 -6.35399 0
M  V30 3080 H 304.997 2.1581 -4.15384 0
M  V30 3081 H 305.17 2.76102 -5.86235 0
M  V30 3082 N 298.576 1.31904 0.862503 0
M  V30 3083 C 299.486 1.22161 2.00285 0
M  V30 3084 C 300.502 0.136785 1.73462 0
M  V30 3085 O 301.678 0.355994 1.98229 0
M  V30 3086 C 298.743 0.937093 3.33796 0
M  V30 3087 C 297.804 2.10957 3.73893 0
M  V30 3088 C 297.037 1.83853 5.01033 0
M  V30 3089 O 297.26 0.777274 5.65079 0
M  V30 3090 O 296.194 2.69741 5.38074 0
M  V30 3091 H 300.02 2.18008 2.11439 0
M  V30 3092 H 297.605 1.11716 0.991957 0
M  V30 3093 H 299.487 0.794583 4.13841 0
M  V30 3094 H 298.162 0.00871894 3.23699 0
M  V30 3095 H 297.069 2.30752 2.94456 0
M  V30 3096 H 298.402 3.02046 3.88625 0
M  V30 3097 N 300.054 -1.07777 1.14986 0
M  V30 3098 C 301.301 -1.8029 0.922056 0
M  V30 3099 C 301.629 -1.86531 -0.55105 0
M  V30 3100 O 300.884 -1.34189 -1.42449 0
M  V30 3101 C 301.183 -3.25495 1.47608 0
M  V30 3102 C 300.849 -3.39361 2.96893 0
M  V30 3103 C 299.511 -3.42852 3.37647 0
M  V30 3104 C 301.863 -3.42512 3.92854 0
M  V30 3105 C 299.191 -3.47094 4.73015 0
M  V30 3106 C 301.543 -3.4829 5.28088 0
M  V30 3107 C 300.207 -3.50058 5.68345 0
M  V30 3108 H 299.477 -0.659727 0.337404 0
M  V30 3109 H 302.124 -1.26854 1.43459 0
M  V30 3110 H 300.429 -3.81683 0.88463 0
M  V30 3111 H 302.126 -3.80168 1.27568 0
M  V30 3112 H 298.716 -3.37339 2.64387 0
M  V30 3113 H 302.9 -3.3904 3.62444 0
M  V30 3114 H 298.156 -3.46758 5.03556 0
M  V30 3115 H 302.33 -3.49675 6.02246 0
M  V30 3116 H 299.957 -3.53097 6.73221 0
M  V30 3117 N 301.532 -0.945985 -1.26051 0
M  V30 3118 C 302.464 -0.416662 -2.25381 0
M  V30 3119 C 303.477 0.462712 -1.56086 0
M  V30 3120 O 304.666 0.272383 -1.7641 0
M  V30 3121 C 301.766 0.419812 -3.3629 0
M  V30 3122 C 300.939 -0.444531 -4.35135 0
M  V30 3123 C 299.998 0.332305 -5.2515 0
M  V30 3124 O 299.024 -0.266324 -5.68577 0
M  V30 3125 N 300.226 1.62763 -5.57215 0
M  V30 3126 H 302.991 -1.27059 -2.71433 0
M  V30 3127 H 300.552 -0.815392 -1.39868 0
M  V30 3128 H 302.544 0.947013 -3.93464 0
M  V30 3129 H 301.114 1.17456 -2.89694 0
M  V30 3130 H 300.334 -1.15291 -3.76964 0
M  V30 3131 H 301.622 -1.03478 -4.98166 0
M  V30 3132 H 301.02 2.13603 -5.23823 0
M  V30 3133 H 299.577 2.10097 -6.17011 0
M  V30 3134 N 303.011 1.40521 -0.713556 0
M  V30 3135 C 304.427 1.54839 -0.386907 0
M  V30 3136 C 304.627 1.68532 1.1045 0
M  V30 3137 O 303.683 1.67377 1.89053 0
M  V30 3138 C 304.996 2.77792 -1.15118 0
M  V30 3139 C 306.544 2.91607 -1.13729 0
M  V30 3140 C 307.019 4.1747 -1.88368 0
M  V30 3141 N 308.51 4.24466 -1.85427 0
M  V30 3142 C 309.245 5.20755 -2.40004 0
M  V30 3143 N 308.741 6.22965 -3.03129 0
M  V30 3144 N 310.534 5.1282 -2.30158 0
M  V30 3145 H 302.685 1.29879 -1.68063 0
M  V30 3146 H 304.948 0.627896 -0.710247 0
M  V30 3147 H 304.654 2.73944 -2.20561 0
M  V30 3148 H 304.528 3.6984 -0.741477 0
M  V30 3149 H 306.915 2.94959 -0.0910608 0
M  V30 3150 H 306.996 2.00682 -1.5862 0
M  V30 3151 H 306.64 4.1488 -2.9298 0
M  V30 3152 H 306.57 5.074 -1.40898 0
M  V30 3153 H 309.061 3.51241 -1.3942 0
M  V30 3154 H 309.374 6.92859 -3.42295 0
M  V30 3155 H 307.719 6.23415 -3.07212 0
M  V30 3156 H 310.91 4.31899 -1.80501 0
M  V30 3157 H 311.083 5.87689 -2.72993 0
M  V30 3158 N 304.489 0.459591 1.5075 0
M  V30 3159 C 305.422 -0.386257 2.24907 0
M  V30 3160 C 306.4 -1.006 1.27744 0
M  V30 3161 O 307.584 -1.04416 1.56938 0
M  V30 3162 C 304.711 -1.54021 3.01654 0
M  V30 3163 C 303.757 -1.03898 4.13651 0
M  V30 3164 S 304.59 0.0370501 5.35487 0
M  V30 3165 C 305.746 -1.12105 6.15779 0
M  V30 3166 H 305.979 0.243272 2.96303 0
M  V30 3167 H 303.512 0.244339 1.52454 0
M  V30 3168 H 305.47 -2.20163 3.46466 0
M  V30 3169 H 304.131 -2.14121 2.29806 0
M  V30 3170 H 303.324 -1.90254 4.66711 0
M  V30 3171 H 302.926 -0.45545 3.71216 0
M  V30 3172 H 305.218 -2.03501 6.46215 0
M  V30 3173 H 306.161 -0.62995 7.05292 0
M  V30 3174 H 306.569 -1.36967 5.47631 0
M  V30 3175 N 305.967 -1.56429 0.191757 0
M  V30 3176 C 307.216 -1.9666 -0.448088 0
M  V30 3177 C 307.529 -1.08136 -1.62991 0
M  V30 3178 O 308.735 -1.38135 -2.33733 0
M  V30 3179 C 307.191 -3.49753 -0.848585 0
M  V30 3180 C 306.799 -4.46935 0.308764 0
M  V30 3181 C 308.543 -3.9876 -1.4557 0
M  V30 3182 C 306.45 -5.91293 -0.112506 0
M  V30 3183 H 305.38 -0.734312 -0.171179 0
M  V30 3184 H 308.031 -1.81301 0.283242 0
M  V30 3185 H 306.413 -3.60604 -1.63649 0
M  V30 3186 H 307.587 -4.47813 1.08627 0
M  V30 3187 H 305.902 -4.08102 0.827158 0
M  V30 3188 H 308.499 -5.04086 -1.78328 0
M  V30 3189 H 308.842 -3.42875 -2.36099 0
M  V30 3190 H 309.375 -3.9101 -0.731836 0
M  V30 3191 H 306.114 -6.51097 0.758514 0
M  V30 3192 H 305.634 -5.93676 -0.854941 0
M  V30 3193 H 307.313 -6.44663 -0.549448 0
M  V30 3194 N 307.445 0.0818655 -1.57387 0
M  V30 3195 C 308.693 0.781368 -1.86384 0
M  V30 3196 C 309.014 1.78618 -0.782342 0
M  V30 3197 O 308.284 1.94976 0.190061 0
M  V30 3198 H 306.864 0.291562 -0.687751 0
M  V30 3199 H 309.526 0.060348 -1.94807 0
M  V30 3200 H 308.622 1.3038 -2.83562 0
M  V30 3201 N 308.923 1.53595 0.353017 0
M  V30 3202 C 309.833 1.83897 1.45667 0
M  V30 3203 C 310.849 0.728334 1.58023 0
M  V30 3204 O 312.025 1.01968 1.73679 0
M  V30 3205 C 309.09 2.03383 2.80778 0
M  V30 3206 C 308.151 3.27262 2.77845 0
M  V30 3207 C 307.384 3.45809 4.06512 0
M  V30 3208 O 307.607 2.68387 5.03314 0
M  V30 3209 O 306.541 4.39207 4.11559 0
M  V30 3210 H 310.367 2.77686 1.2298 0
M  V30 3211 H 307.952 1.39132 0.544308 0
M  V30 3212 H 309.834 2.17698 3.60812 0
M  V30 3213 H 308.509 1.12783 3.03417 0
M  V30 3214 H 307.416 3.18359 1.96465 0
M  V30 3215 H 308.749 4.17824 2.60161 0
M  V30 3216 N 310.401 -0.613514 1.45168 0
M  V30 3217 C 311.311 -1.75296 1.55912 0
M  V30 3218 C 312.327 -1.68244 0.443856 0
M  V30 3219 O 313.503 -1.88706 0.70371 0
M  V30 3220 C 310.568 -3.1174 1.5172 0
M  V30 3221 C 309.629 -3.30291 2.74238 0
M  V30 3222 C 308.862 -4.60226 2.70236 0
M  V30 3223 O 309.085 -5.42168 1.77229 0
M  V30 3224 O 308.019 -4.81361 3.61352 0
M  V30 3225 H 311.845 -1.69183 2.52212 0
M  V30 3226 H 309.43 -0.776886 1.27612 0
M  V30 3227 H 311.312 -3.93044 1.51968 0
M  V30 3228 H 309.987 -3.18357 0.585697 0
M  V30 3229 H 308.894 -2.48598 2.79553 0
M  V30 3230 H 310.227 -3.28547 3.66494 0
M  V30 3231 N 311.879 -1.3236 -0.855495 0
M  V30 3232 C 313.107 -1.2587 -1.64208 0
M  V30 3233 C 313.522 0.173457 -1.88002 0
M  V30 3234 O 312.879 1.11027 -1.44842 0
M  V30 3235 C 312.93 -2.01424 -3.00184 0
M  V30 3236 O 312.651 -3.39051 -2.77445 0
M  V30 3237 C 314.152 -2.01948 -3.94629 0
M  V30 3238 H 311.372 -0.434318 -0.511477 0
M  V30 3239 H 313.916 -1.74469 -1.0668 0
M  V30 3240 H 312.071 -1.56549 -3.5436 0
M  V30 3241 H 312.485 -3.77711 -3.63916 0
M  V30 3242 H 313.959 -2.59297 -4.87308 0
M  V30 3243 H 314.436 -1.00554 -4.27534 0
M  V30 3244 H 315.042 -2.46767 -3.4639 0
M  V30 3245 N 313.357 1.07166 -1.15556 0
M  V30 3246 C 314.304 2.14417 -0.854055 0
M  V30 3247 C 315.274 1.64965 0.193806 0
M  V30 3248 O 316.459 1.90703 0.0609443 0
M  V30 3249 C 313.599 3.43304 -0.351574 0
M  V30 3250 C 312.712 4.06537 -1.46123 0
M  V30 3251 C 311.847 5.23266 -0.914677 0
M  V30 3252 C 310.886 5.78464 -2.00114 0
M  V30 3253 N 310.023 6.86521 -1.47083 0
M  V30 3254 H 314.863 2.39548 -1.77259 0
M  V30 3255 H 312.4 1.17543 -0.884425 0
M  V30 3256 H 314.358 4.17179 -0.0419409 0
M  V30 3257 H 312.988 3.18419 0.530037 0
M  V30 3258 H 312.04 3.30297 -1.88701 0
M  V30 3259 H 313.352 4.43567 -2.28144 0
M  V30 3260 H 312.506 6.04131 -0.557698 0
M  V30 3261 H 311.245 4.87658 -0.0636583 0
M  V30 3262 H 310.25 4.96243 -2.36692 0
M  V30 3263 H 311.475 6.16126 -2.85597 0
M  V30 3264 H 309.421 6.52849 -0.642198 0
M  V30 3265 H 309.338 7.22446 -2.22729 0
M  V30 3266 H 310.606 7.71087 -1.14215 0
M  V30 3267 N 314.835 0.952656 1.25548 0
M  V30 3268 C 315.798 0.475794 2.24207 0
M  V30 3269 C 316.798 -0.419428 1.55234 0
M  V30 3270 O 317.988 -0.216994 1.72843 0
M  V30 3271 C 315.12 -0.312814 3.39462 0
M  V30 3272 H 316.313 1.34779 2.67908 0
M  V30 3273 H 313.866 0.735739 1.37901 0
M  V30 3274 H 314.601 -1.20257 3.01179 0
M  V30 3275 H 314.386 0.329404 3.90714 0
M  V30 3276 H 315.876 -0.635986 4.12729 0
M  V30 3277 N 316.313 -1.40141 0.720998 0
M  V30 3278 C 317.245 -2.29177 0.0324669 0
M  V30 3279 C 318.258 -1.46105 -0.718126 0
M  V30 3280 O 319.447 -1.69335 -0.564608 0
M  V30 3281 C 316.547 -3.24473 -0.978292 0
M  V30 3282 C 315.72 -4.36423 -0.292115 0
M  V30 3283 C 314.779 -5.12122 -1.20901 0
M  V30 3284 O 313.805 -5.64981 -0.691766 0
M  V30 3285 N 315.007 -5.21992 -2.53978 0
M  V30 3286 H 317.772 -2.88909 0.796984 0
M  V30 3287 H 315.333 -1.51569 0.569068 0
M  V30 3288 H 317.325 -3.71987 -1.59398 0
M  V30 3289 H 315.895 -2.65871 -1.64413 0
M  V30 3290 H 315.115 -3.90967 0.503847 0
M  V30 3291 H 316.403 -5.08467 0.183971 0
M  V30 3292 H 315.801 -4.8054 -2.98493 0
M  V30 3293 H 314.358 -5.72995 -3.10677 0
M  V30 3294 N 317.792 -0.46758 -1.50504 0
M  V30 3295 C 319.041 0.0902868 -2.01498 0
M  V30 3296 C 319.354 1.411 -1.35463 0
M  V30 3297 O 320.56 2.0536 -1.77594 0
M  V30 3298 C 319.016 0.21142 -3.59278 0
M  V30 3299 C 318.624 -1.10065 -4.34269 0
M  V30 3300 C 320.368 0.721433 -4.18325 0
M  V30 3301 C 318.275 -0.943505 -5.83825 0
M  V30 3302 H 317.205 0.037517 -0.753066 0
M  V30 3303 H 319.856 -0.601943 -1.73346 0
M  V30 3304 H 318.238 0.967352 -3.84003 0
M  V30 3305 H 319.412 -1.86726 -4.21272 0
M  V30 3306 H 317.727 -1.5415 -3.86816 0
M  V30 3307 H 320.324 0.85598 -5.27804 0
M  V30 3308 H 320.667 1.71186 -3.79475 0
M  V30 3309 H 321.2 0.0229843 -3.97793 0
M  V30 3310 H 317.939 -1.90719 -6.27141 0
M  V30 3311 H 317.459 -0.217213 -5.99407 0
M  V30 3312 H 319.138 -0.608715 -6.4413 0
M  V30 3313 N 319.27 1.56325 -0.20005 0
M  V30 3314 C 320.2 2.22318 0.713916 0
M  V30 3315 C 321.181 1.18788 1.21752 0
M  V30 3316 O 322.366 1.47309 1.26545 0
M  V30 3317 C 319.496 2.88639 1.93144 0
M  V30 3318 C 318.45 3.98457 1.56255 0
M  V30 3319 C 317.776 4.51967 2.85709 0
M  V30 3320 C 319.076 5.16612 0.768747 0
M  V30 3321 H 320.77 2.98952 0.163755 0
M  V30 3322 H 318.316 1.43792 0.0773219 0
M  V30 3323 H 320.269 3.33491 2.57608 0
M  V30 3324 H 318.993 2.09419 2.50621 0
M  V30 3325 H 317.652 3.54305 0.941471 0
M  V30 3326 H 317.3 3.69503 3.41287 0
M  V30 3327 H 317 5.26071 2.6177 0
M  V30 3328 H 318.524 4.99523 3.51154 0
M  V30 3329 H 319.938 5.57977 1.3166 0
M  V30 3330 H 318.335 5.96812 0.627286 0
M  V30 3331 H 319.405 4.84358 -0.229168 0
M  V30 3332 N 320.748 -0.0735177 1.57428 0
M  V30 3333 C 322.025 -0.805903 1.78226 0
M  V30 3334 C 322.405 -1.95874 0.787189 0
M  V30 3335 O 321.753 -2.2779 -0.180029 0
M  V30 3336 C 321.963 -1.28045 3.24662 0
M  V30 3337 C 323.311 -1.71453 3.88444 0
M  V30 3338 O 324.335 -1.37616 3.28543 0
M  V30 3339 O 323.194 -2.34093 4.93825 0
M  V30 3340 H 320.288 -0.386041 0.73137 0
M  V30 3341 H 322.834 -0.0537269 1.69615 0
M  V30 3342 H 321.606 -0.455476 3.8864 0
M  V30 3343 H 321.229 -2.094 3.37991 0
M  V30 3344 N 322.226 -1.5378 -0.344866 0
M  V30 3345 C 323.173 -1.81676 -1.42346 0
M  V30 3346 C 324.143 -0.662376 -1.52321 0
M  V30 3347 O 325.328 -0.906675 -1.67881 0
M  V30 3348 C 322.468 -2.03087 -2.79015 0
M  V30 3349 C 321.581 -3.30799 -2.77842 0
M  V30 3350 C 320.716 -3.42285 -4.0622 0
M  V30 3351 C 319.755 -4.6395 -3.9927 0
M  V30 3352 N 318.892 -4.72477 -5.19336 0
M  V30 3353 H 323.732 -2.73703 -1.17858 0
M  V30 3354 H 321.269 -1.35568 -0.570949 0
M  V30 3355 H 323.227 -2.1349 -3.58438 0
M  V30 3356 H 321.857 -1.14375 -3.01858 0
M  V30 3357 H 320.909 -3.29244 -1.90533 0
M  V30 3358 H 322.221 -4.20314 -2.68584 0
M  V30 3359 H 321.375 -3.52113 -4.94066 0
M  V30 3360 H 320.114 -2.50823 -4.18258 0
M  V30 3361 H 319.119 -4.54201 -3.09809 0
M  V30 3362 H 320.344 -5.56775 -3.88817 0
M  V30 3363 H 318.29 -3.83924 -5.3192 0
M  V30 3364 H 318.207 -5.55927 -5.12329 0
M  V30 3365 H 319.475 -4.86613 -6.08957 0
M  V30 3366 N 323.704 0.605807 -1.45491 0
M  V30 3367 C 324.614 1.74466 -1.56839 0
M  V30 3368 C 325.63 1.68006 -0.452772 0
M  V30 3369 O 326.806 1.8833 -0.713708 0
M  V30 3370 C 323.871 3.10931 -1.53371 0
M  V30 3371 C 322.932 3.28832 -2.75986 0
M  V30 3372 C 322.165 4.58787 -2.72673 0
M  V30 3373 O 322.388 5.4122 -1.80102 0
M  V30 3374 O 321.322 4.79438 -3.63899 0
M  V30 3375 H 325.148 1.67843 -2.53106 0
M  V30 3376 H 322.733 0.770108 -1.28022 0
M  V30 3377 H 324.615 3.92233 -1.54051 0
M  V30 3378 H 323.29 3.18042 -0.602572 0
M  V30 3379 H 322.197 2.47112 -2.80867 0
M  V30 3380 H 323.53 3.26599 -3.68231 0
M  V30 3381 N 325.182 1.32811 0.848464 0
M  V30 3382 C 326.43 1.23479 1.59991 0
M  V30 3383 C 326.751 -0.201853 1.93952 0
M  V30 3384 O 326.021 -1.12818 1.60153 0
M  V30 3385 H 324.601 0.454034 0.593179 0
M  V30 3386 H 327.263 1.66412 1.01455 0
M  V30 3387 H 326.359 1.82178 2.53412 0
M  V30 3388 N 326.66 -1.06551 1.16123 0
M  V30 3389 C 328.076 -1.3142 0.905585 0
M  V30 3390 C 328.276 -1.96571 -0.442964 0
M  V30 3391 O 327.332 -2.23068 -1.18308 0
M  V30 3392 C 328.645 -2.19741 2.05267 0
M  V30 3393 C 330.193 -2.33165 2.08813 0
M  V30 3394 C 330.668 -3.24838 3.22868 0
M  V30 3395 N 332.159 -3.32421 3.22568 0
M  V30 3396 C 332.894 -4.0344 4.0746 0
M  V30 3397 N 332.39 -4.77003 5.02434 0
M  V30 3398 N 334.183 -3.99464 3.95456 0
M  V30 3399 H 326.334 -0.626548 2.02949 0
M  V30 3400 H 328.597 -0.338777 0.8854 0
M  V30 3401 H 328.303 -1.79142 3.02657 0
M  V30 3402 H 328.177 -3.20313 1.99198 0
M  V30 3403 H 330.564 -2.73013 1.12018 0
M  V30 3404 H 330.645 -1.3227 2.18948 0
M  V30 3405 H 330.289 -2.85708 4.19921 0
M  V30 3406 H 330.219 -4.25707 3.0997 0
M  V30 3407 H 332.71 -2.79994 2.53795 0
M  V30 3408 H 333.023 -5.28712 5.63634 0
M  V30 3409 H 331.368 -4.75992 5.06415 0
M  V30 3410 H 334.559 -3.4111 3.20564 0
M  V30 3411 H 334.732 -4.54544 4.61837 0
M  V30 3412 N 328.138 -0.959301 -1.25041 0
M  V30 3413 C 329.068 -0.501388 -2.28053 0
M  V30 3414 C 330.049 0.454673 -1.63911 0
M  V30 3415 O 331.234 0.352618 -1.90972 0
M  V30 3416 C 328.364 0.217224 -3.4662 0
M  V30 3417 C 327.318 -0.654034 -4.22973 0
M  V30 3418 C 326.644 0.195589 -5.34342 0
M  V30 3419 C 327.944 -1.93447 -4.85155 0
M  V30 3420 H 329.638 -1.36238 -2.66608 0
M  V30 3421 H 327.184 -0.656534 -1.28163 0
M  V30 3422 H 329.137 0.548732 -4.17812 0
M  V30 3423 H 327.861 1.1125 -3.07068 0
M  V30 3424 H 326.52 -0.968693 -3.5357 0
M  V30 3425 H 326.168 1.09076 -4.91031 0
M  V30 3426 H 325.868 -0.384091 -5.86343 0
M  V30 3427 H 327.392 0.521958 -6.08365 0
M  V30 3428 H 328.806 -1.66908 -5.48466 0
M  V30 3429 H 327.203 -2.46018 -5.47353 0
M  V30 3430 H 328.273 -2.63466 -4.07079 0
M  V30 3431 N 329.616 1.39756 -0.72842 0
M  V30 3432 C 331.027 1.83498 -0.344289 0
M  V30 3433 C 331.378 1.60868 1.12321 0
M  V30 3434 O 330.503 1.09634 1.86573 0
M  V30 3435 C 331.098 3.33114 -0.618112 0
M  V30 3436 C 329.657 3.753 -0.287549 0
M  V30 3437 C 328.804 2.62831 -0.884048 0
M  V30 3438 H 331.755 1.28842 -0.926578 0
M  V30 3439 H 331.776 3.80334 0.112349 0
M  V30 3440 H 331.288 3.49553 -1.68625 0
M  V30 3441 H 329.389 3.64451 0.775012 0
M  V30 3442 H 329.502 4.72945 -0.765512 0
M  V30 3443 H 327.866 2.52792 -0.311149 0
M  V30 3444 H 328.649 2.82078 -1.95671 0
M  V30 3445 N 331.094 0.475555 1.50254 0
M  V30 3446 C 332.371 -0.139685 1.95101 0
M  V30 3447 C 332.751 -1.56555 1.41611 0
M  V30 3448 O 332.099 -2.19956 0.618993 0
M  V30 3449 C 332.309 -0.0784298 3.48912 0
M  V30 3450 C 333.657 -0.265095 4.23772 0
M  V30 3451 O 334.681 -0.154808 3.55863 0
M  V30 3452 O 333.54 -0.488327 5.44314 0
M  V30 3453 H 330.634 -0.109236 0.819754 0
M  V30 3454 H 333.18 0.536276 1.61004 0
M  V30 3455 H 331.952 0.916918 3.80405 0
M  V30 3456 H 331.575 -0.795655 3.89558 0
M  V30 3457 N 332.573 -1.56217 0.208337 0
M  V30 3458 C 333.536 -2.18455 -0.693557 0
M  V30 3459 C 334.536 -1.14268 -1.13135 0
M  V30 3460 O 335.726 -1.39577 -1.0423 0
M  V30 3461 C 332.858 -2.79727 -1.94848 0
M  V30 3462 H 334.051 -2.99519 -0.15114 0
M  V30 3463 H 331.604 -1.56245 -0.041287 0
M  V30 3464 H 332.339 -2.02497 -2.53309 0
M  V30 3465 H 332.124 -3.56009 -1.64316 0
M  V30 3466 H 333.614 -3.27475 -2.59133 0
M  V30 3467 N 334.051 0.0651679 -1.57465 0
M  V30 3468 C 335.297 0.764193 -1.87851 0
M  V30 3469 C 335.63 1.76889 -0.801495 0
M  V30 3470 O 334.905 1.93594 0.187528 0
M  V30 3471 C 335.188 1.46625 -3.28897 0
M  V30 3472 C 335.041 0.477515 -4.47258 0
M  V30 3473 C 336.36 2.4095 -3.68281 0
M  V30 3474 H 333.479 0.276351 -0.683227 0
M  V30 3475 H 336.121 0.0272868 -1.8998 0
M  V30 3476 H 334.271 2.09438 -3.27212 0
M  V30 3477 H 335.943 -0.145922 -4.61069 0
M  V30 3478 H 334.186 -0.206576 -4.33308 0
M  V30 3479 H 334.857 1.0065 -5.42746 0
M  V30 3480 H 337.333 1.88209 -3.71102 0
M  V30 3481 H 336.209 2.87072 -4.67847 0
M  V30 3482 H 336.47 3.26049 -2.98571 0
M  V30 3483 N 335.529 1.53961 0.336706 0
M  V30 3484 C 336.778 1.70751 1.07363 0
M  V30 3485 C 337.091 0.481061 1.89592 0
M  V30 3486 O 338.297 0.530046 2.66276 0
M  V30 3487 C 336.753 3.01965 1.95818 0
M  V30 3488 C 336.361 4.31971 1.18764 0
M  V30 3489 C 338.105 3.28121 2.69327 0
M  V30 3490 C 336.012 5.54255 2.06289 0
M  V30 3491 H 334.942 0.636292 0.404535 0
M  V30 3492 H 337.593 1.80459 0.332681 0
M  V30 3493 H 335.975 2.86132 2.7376 0
M  V30 3494 H 337.149 4.5853 0.456849 0
M  V30 3495 H 335.464 4.12481 0.569946 0
M  V30 3496 H 338.061 4.16673 3.35094 0
M  V30 3497 H 338.404 2.45426 3.36261 0
M  V30 3498 H 338.937 3.44762 1.98454 0
M  V30 3499 H 335.676 6.39513 1.43885 0
M  V30 3500 H 335.196 5.31935 2.77138 0
M  V30 3501 H 336.875 5.90159 2.65182 0
M  V30 3502 N 337.007 -0.598083 1.45811 0
M  V30 3503 C 337.97 -1.69018 1.54808 0
M  V30 3504 C 338.97 -1.55037 0.426652 0
M  V30 3505 O 340.16 -1.59932 0.690456 0
M  V30 3506 C 337.292 -3.0835 1.45371 0
M  V30 3507 H 338.485 -1.62403 2.52121 0
M  V30 3508 H 336.038 -0.814626 1.33392 0
M  V30 3509 H 336.773 -3.20534 0.492793 0
M  V30 3510 H 336.558 -3.19907 2.26721 0
M  V30 3511 H 338.048 -3.8788 1.54721 0
M  V30 3512 N 338.485 -1.33259 -0.841409 0
M  V30 3513 C 339.725 -1.25902 -1.61022 0
M  V30 3514 C 340.089 0.173325 -1.91216 0
M  V30 3515 O 341.29 0.370824 -2.6623 0
M  V30 3516 C 339.561 -2.10735 -2.88662 0
M  V30 3517 S 341.12 -2.20541 -3.79351 0
M  V30 3518 H 337.938 -0.447958 -0.552137 0
M  V30 3519 H 340.54 -1.68263 -0.995382 0
M  V30 3520 H 339.244 -3.1384 -2.64448 0
M  V30 3521 H 338.775 -1.69201 -3.55154 0
M  V30 3522 H 340.79 -1.36462 -4.77067 0
M  V30 3523 N 339.963 1.05934 -1.16686 0
M  V30 3524 C 341.209 1.79065 -0.95203 0
M  V30 3525 C 341.542 1.87147 0.518629 0
M  V30 3526 O 340.817 1.36574 1.38484 0
M  V30 3527 C 341.1 3.23359 -1.58464 0
M  V30 3528 C 340.953 3.23336 -3.12689 0
M  V30 3529 C 342.272 4.21004 -1.28232 0
M  V30 3530 H 339.391 0.65005 -0.34728 0
M  V30 3531 H 342.033 1.23868 -1.44072 0
M  V30 3532 H 340.183 3.70493 -1.16908 0
M  V30 3533 H 341.855 2.84336 -3.6325 0
M  V30 3534 H 340.098 2.61886 -3.4583 0
M  V30 3535 H 340.769 4.25144 -3.52075 0
M  V30 3536 H 343.245 3.8233 -1.64203 0
M  V30 3537 H 342.121 5.20225 -1.75092 0
M  V30 3538 H 342.382 4.41639 -0.201791 0
M  V30 3539 N 341.441 0.965919 1.2453 0
M  V30 3540 C 342.689 0.625593 1.92174 0
M  V30 3541 C 343.01 -0.841652 1.75901 0
M  V30 3542 O 342.28 -1.60061 1.12948 0
M  V30 3543 H 340.86 0.228388 0.71123 0
M  V30 3544 H 343.522 1.2266 1.51461 0
M  V30 3545 H 342.618 0.864653 2.99884 0
M  V30 3546 N 342.919 -1.39368 0.735821 0
M  V30 3547 C 344.167 -2.00101 0.283562 0
M  V30 3548 C 344.488 -1.5868 -1.13338 0
M  V30 3549 O 343.758 -0.835423 -1.77193 0
M  V30 3550 H 342.338 -0.740024 0.101851 0
M  V30 3551 H 345 -1.70404 0.945962 0
M  V30 3552 H 344.096 -3.10323 0.332604 0
M  V30 3553 N 344.397 -0.483516 -1.5 0
M  V30 3554 C 345.645 0.067027 -2.01989 0
M  V30 3555 C 345.966 1.3909 -1.36671 0
M  V30 3556 O 345.236 1.88978 -0.516152 0
M  V30 3557 H 343.816 0.0277606 -0.746484 0
M  V30 3558 H 346.478 -0.636773 -1.84204 0
M  V30 3559 H 345.574 0.209484 -3.11396 0
M  V30 3560 N 345.875 1.56104 -0.216619 0
M  V30 3561 C 347.1 2.0301 0.424462 0
M  V30 3562 C 347.525 1.0955 1.52907 0
M  V30 3563 O 346.883 0.0827914 1.81111 0
M  V30 3564 C 346.931 3.4819 0.937883 0
M  V30 3565 O 346.035 3.57865 2.04955 0
M  V30 3566 H 345.376 0.656925 0.0966755 0
M  V30 3567 H 347.906 2.01859 -0.33381 0
M  V30 3568 H 347.916 3.88413 1.24897 0
M  V30 3569 H 346.591 4.15699 0.129387 0
M  V30 3570 H 345.168 3.29527 1.74546 0
M  V30 3571 N 347.353 -0.0568162 1.57498 0
M  V30 3572 C 348.301 -1.08452 2.05769 0
M  V30 3573 C 349.295 -1.39164 0.965903 0
M  V30 3574 O 350.501 -1.38395 1.15095 0
M  V30 3575 H 346.876 -0.367148 0.656282 0
M  V30 3576 H 348.847 -0.651368 2.91204 0
M  V30 3577 C 347.596 -2.38543 2.52968 0
M  V30 3578 H 346.919 -2.15765 3.36579 0
M  V30 3579 H 348.359 -3.08863 2.90481 0
M  V30 3580 C 346.818 -3.05562 1.41893 0
M  V30 3581 O 347.348 -3.94262 0.769442 0
M  V30 3582 N 345.554 -2.6643 1.16032 0
M  V30 3583 H 345.101 -1.94387 1.6903 0
M  V30 3584 H 345.059 -3.11593 0.419219 0
M  V30 3585 N 348.832 -1.54138 -0.328536 0
M  V30 3586 C 349.795 -1.82462 -1.38709 0
M  V30 3587 C 350.795 -0.696229 -1.44946 0
M  V30 3588 O 351.985 -0.964535 -1.4506 0
M  V30 3589 C 349.117 -1.98018 -2.77492 0
M  V30 3590 H 350.31 -2.77037 -1.14851 0
M  V30 3591 H 347.863 -1.45779 -0.563751 0
M  V30 3592 H 348.598 -1.05637 -3.06613 0
M  V30 3593 H 348.383 -2.80124 -2.74359 0
M  V30 3594 H 349.873 -2.21396 -3.54081 0
M  V30 3595 N 350.31 0.590341 -1.46126 0
M  V30 3596 C 351.559 1.34499 -1.50309 0
M  V30 3597 C 351.872 1.94977 -0.156021 0
M  V30 3598 O 353.078 2.71395 -0.0756037 0
M  V30 3599 C 351.534 2.43723 -2.64815 0
M  V30 3600 C 351.142 1.89582 -4.0591 0
M  V30 3601 C 352.886 3.20579 -2.78262 0
M  V30 3602 C 350.793 2.9639 -5.11769 0
M  V30 3603 H 349.723 0.505593 -0.559368 0
M  V30 3604 H 352.374 0.630848 -1.72315 0
M  V30 3605 H 350.756 3.17902 -2.36124 0
M  V30 3606 H 351.93 1.21997 -4.44357 0
M  V30 3607 H 350.245 1.25418 -3.97063 0
M  V30 3608 H 352.842 4.00276 -3.54519 0
M  V30 3609 H 353.185 3.72684 -1.85505 0
M  V30 3610 H 353.718 2.53505 -3.06562 0
M  V30 3611 H 350.457 2.49181 -6.06291 0
M  V30 3612 H 349.977 3.62487 -4.77873 0
M  V30 3613 H 351.656 3.60474 -5.37278 0
M  V30 3614 N 351.788 1.33704 0.83433 0
M  V30 3615 C 353.036 1.25169 1.58673 0
M  V30 3616 C 353.357 -0.18127 1.94156 0
M  V30 3617 O 352.627 -1.11113 1.6134 0
M  V30 3618 H 351.207 0.4603 0.58833 0
M  V30 3619 H 353.869 1.67478 0.996847 0
M  V30 3620 H 352.965 1.84856 2.51465 0
M  V30 3621 N 353.266 -1.05314 1.17247 0
M  V30 3622 C 354.199 -2.12512 0.831507 0
M  V30 3623 C 355.177 -1.61351 -0.201168 0
M  V30 3624 O 356.361 -1.88317 -0.0829831 0
M  V30 3625 C 353.488 -3.37848 0.24015 0
M  V30 3626 C 352.534 -4.07832 1.24801 0
M  V30 3627 S 353.367 -4.56537 2.79882 0
M  V30 3628 C 354.523 -5.85122 2.22223 0
M  V30 3629 H 354.756 -2.41106 1.7394 0
M  V30 3630 H 352.289 -1.17896 0.996988 0
M  V30 3631 H 354.247 -4.10391 -0.0945588 0
M  V30 3632 H 352.908 -3.07392 -0.645668 0
M  V30 3633 H 352.101 -4.97883 0.78287 0
M  V30 3634 H 351.703 -3.41348 1.52831 0
M  V30 3635 H 353.995 -6.58408 1.59703 0
M  V30 3636 H 354.938 -6.36381 3.10523 0
M  V30 3637 H 355.346 -5.39626 1.65722 0
M  V30 3638 N 354.744 -0.972509 -1.24016 0
M  V30 3639 C 355.991 -0.637034 -1.92219 0
M  V30 3640 C 356.319 0.828418 -1.75976 0
M  V30 3641 O 355.574 1.61206 -1.10955 0
M  V30 3642 C 355.873 -0.963694 -3.44162 0
M  V30 3643 C 355.539 -2.41807 -3.80579 0
M  V30 3644 C 354.201 -2.81556 -3.9023 0
M  V30 3645 C 356.553 -3.36172 -3.98293 0
M  V30 3646 C 353.881 -4.14702 -4.15017 0
M  V30 3647 C 356.233 -4.68952 -4.24578 0
M  V30 3648 C 354.897 -5.08472 -4.32449 0
M  V30 3649 H 354.167 -0.233107 -0.703379 0
M  V30 3650 H 356.814 -1.2249 -1.47202 0
M  V30 3651 H 355.119 -0.29365 -3.90698 0
M  V30 3652 H 356.816 -0.682449 -3.9515 0
M  V30 3653 H 353.406 -2.09988 -3.73635 0
M  V30 3654 H 357.59 -3.06644 -3.90234 0
M  V30 3655 H 352.846 -4.4494 -4.19331 0
M  V30 3656 H 357.02 -5.42037 -4.37229 0
M  V30 3657 H 354.647 -6.11665 -4.51409 0
M  V30 3658 N 356.222 1.38976 -0.743202 0
M  V30 3659 C 357.185 2.28901 -0.117014 0
M  V30 3660 C 358.185 1.46698 0.658503 0
M  V30 3661 O 359.375 1.67274 0.486305 0
M  V30 3662 C 356.507 3.30309 0.84315 0
M  V30 3663 H 357.7 2.8578 -0.909373 0
M  V30 3664 H 355.253 1.47761 -0.509547 0
M  V30 3665 H 355.988 2.785 1.66157 0
M  V30 3666 H 355.773 3.91029 0.289594 0
M  V30 3667 H 357.263 3.97577 1.2776 0
M  V30 3668 N 357.7 0.491464 1.49741 0
M  V30 3669 C 358.977 -0.118984 1.95238 0
M  V30 3670 C 359.357 -1.55044 1.43264 0
M  V30 3671 O 358.705 -2.19287 0.642287 0
M  V30 3672 C 358.915 -0.0414187 3.48975 0
M  V30 3673 C 360.263 -0.220133 4.24029 0
M  V30 3674 O 361.287 -0.117055 3.56008 0
M  V30 3675 O 360.146 -0.430567 5.44801 0
M  V30 3676 H 357.24 -0.100536 0.820866 0
M  V30 3677 H 359.786 0.553322 1.60426 0
M  V30 3678 H 358.558 0.957214 3.79412 0
M  V30 3679 H 358.181 -0.754292 3.9038 0
M  V30 3680 N 359.178 -1.55987 0.224894 0
M  V30 3681 C 360.425 -1.9839 -0.4059 0
M  V30 3682 C 360.753 -1.11261 -1.59535 0
M  V30 3683 O 360.008 -0.158314 -1.95059 0
M  V30 3684 C 360.307 -3.46394 -0.880106 0
M  V30 3685 C 359.973 -4.5046 0.19918 0
M  V30 3686 C 358.635 -4.7864 0.495661 0
M  V30 3687 C 360.987 -5.12855 0.928939 0
M  V30 3688 C 358.315 -5.66497 1.52636 0
M  V30 3689 C 360.667 -6.01828 1.949 0
M  V30 3690 C 359.331 -6.28351 2.25236 0
M  V30 3691 H 358.601 -0.725961 -0.148529 0
M  V30 3692 H 361.248 -1.88668 0.328113 0
M  V30 3693 H 359.553 -3.53337 -1.69294 0
M  V30 3694 H 361.25 -3.76577 -1.37808 0
M  V30 3695 H 357.84 -4.28579 -0.0420526 0
M  V30 3696 H 362.024 -4.9115 0.713129 0
M  V30 3697 H 357.28 -5.8531 1.76698 0
M  V30 3698 H 361.454 -6.49225 2.51951 0
M  V30 3699 H 359.081 -6.96226 3.05244 0
M  V30 3700 N 360.656 0.0484629 -1.57525 0
M  V30 3701 C 361.905 0.742065 -1.87553 0
M  V30 3702 C 362.218 1.77545 -0.820802 0
M  V30 3703 O 363.424 2.52027 -1.00967 0
M  V30 3704 C 361.88 1.37081 -3.32771 0
M  V30 3705 C 361.488 0.374786 -4.4643 0
M  V30 3706 C 363.232 2.04542 -3.71972 0
M  V30 3707 C 361.139 1.01077 -5.82698 0
M  V30 3708 H 360.069 0.280903 -0.699721 0
M  V30 3709 H 362.72 -0.00411877 -1.835 0
M  V30 3710 H 361.102 2.16605 -3.31509 0
M  V30 3711 H 362.276 -0.392331 -4.59127 0
M  V30 3712 H 360.591 -0.196653 -4.15935 0
M  V30 3713 H 363.188 2.52943 -4.71088 0
M  V30 3714 H 363.531 2.85515 -3.02964 0
M  V30 3715 H 364.064 1.31819 -3.75325 0
M  V30 3716 H 360.803 0.240878 -6.55057 0
M  V30 3717 H 360.323 1.74819 -5.73758 0
M  V30 3718 H 362.002 1.52383 -6.28799 0
M  V30 3719 N 362.134 1.5431 0.320358 0
M  V30 3720 C 363.082 1.84647 1.4145 0
M  V30 3721 C 364.076 0.718624 1.53402 0
M  V30 3722 O 365.282 0.902335 1.5575 0
M  V30 3723 H 361.657 0.585349 0.472091 0
M  V30 3724 H 363.628 2.7614 1.13089 0
M  V30 3725 C 362.377 2.09341 2.77617 0
M  V30 3726 H 361.7 2.9559 2.69196 0
M  V30 3727 H 363.14 2.3452 3.53237 0
M  V30 3728 C 361.599 0.885939 3.25043 0
M  V30 3729 O 362.129 0.0967891 4.01583 0
M  V30 3730 N 360.335 0.696682 2.82125 0
M  V30 3731 H 359.882 1.34006 2.2 0
M  V30 3732 H 359.84 -0.109712 3.14209 0
M  V30 3733 N 363.613 -0.582584 1.46437 0
M  V30 3734 C 364.89 -1.34276 1.4223 0
M  V30 3735 C 365.27 -2.10835 0.10583 0
M  V30 3736 O 364.618 -2.09485 -0.912596 0
M  V30 3737 C 364.828 -2.26865 2.65204 0
M  V30 3738 C 366.176 -2.88691 3.11356 0
M  V30 3739 O 367.2 -2.37178 2.65753 0
M  V30 3740 O 366.059 -3.82255 3.90568 0
M  V30 3741 H 363.153 -0.603326 0.565621 0
M  V30 3742 H 365.699 -0.603591 1.58603 0
M  V30 3743 H 364.471 -1.69724 3.52576 0
M  V30 3744 H 364.094 -3.08122 2.5129 0
M  V30 3745 N 365.091 -1.34144 -0.827227 0
M  V30 3746 C 366.319 -1.29325 -1.61501 0
M  V30 3747 C 366.734 0.13354 -1.88327 0
M  V30 3748 O 366.091 1.0793 -1.47164 0
M  V30 3749 C 366.142 -2.07746 -2.95844 0
M  V30 3750 O 365.863 -3.4486 -2.70191 0
M  V30 3751 C 367.364 -2.10273 -3.90256 0
M  V30 3752 H 364.584 -0.445069 -0.50215 0
M  V30 3753 H 367.128 -1.76693 -1.02955 0
M  V30 3754 H 365.283 -1.6403 -3.5096 0
M  V30 3755 H 365.697 -3.85345 -3.55822 0
M  V30 3756 H 367.171 -2.69575 -4.81698 0
M  V30 3757 H 367.648 -1.096 -4.25305 0
M  V30 3758 H 368.254 -2.54059 -3.41078 0
M  V30 3759 N 366.569 1.04691 -1.17803 0
M  V30 3760 C 367.794 1.81984 -0.994813 0
M  V30 3761 C 368.219 1.82586 0.452112 0
M  V30 3762 O 367.577 1.23854 1.324 0
M  V30 3763 C 367.625 3.2575 -1.54659 0
M  V30 3764 O 366.729 4.05267 -0.763728 0
M  V30 3765 H 366.07 0.562483 -0.352857 0
M  V30 3766 H 368.6 1.3189 -1.56417 0
M  V30 3767 H 368.61 3.76541 -1.57102 0
M  V30 3768 H 367.285 3.24627 -2.59981 0
M  V30 3769 H 365.862 3.63972 -0.811108 0
M  V30 3770 N 368.047 0.979072 1.23499 0
M  V30 3771 C 369.293 0.648178 1.92163 0
M  V30 3772 C 369.626 -0.816049 1.76222 0
M  V30 3773 O 368.901 -1.58849 1.12237 0
M  V30 3774 C 369.184 1.03773 3.44824 0
M  V30 3775 C 369.037 2.55948 3.69879 0
M  V30 3776 C 370.356 0.580653 4.36253 0
M  V30 3777 H 367.475 0.236952 0.69787 0
M  V30 3778 H 370.117 1.22012 1.45647 0
M  V30 3779 H 368.267 0.551058 3.84572 0
M  V30 3780 H 369.939 3.12179 3.3962 0
M  V30 3781 H 368.182 2.98641 3.14636 0
M  V30 3782 H 368.853 2.78255 4.76737 0
M  V30 3783 H 371.329 0.998465 4.03943 0
M  V30 3784 H 370.205 0.881663 5.41773 0
M  V30 3785 H 370.466 -0.519052 4.39042 0
M  V30 3786 N 369.525 -1.3858 0.750561 0
M  V30 3787 C 370.773 -1.99789 0.30477 0
M  V30 3788 C 371.094 -1.59874 -1.11649 0
M  V30 3789 O 370.364 -0.85417 -1.76297 0
M  V30 3790 H 368.944 -0.738902 0.109694 0
M  V30 3791 H 371.606 -1.69391 0.963983 0
M  V30 3792 H 370.702 -3.09952 0.365499 0
M  V30 3793 N 371.003 -0.499398 -1.49478 0
M  V30 3794 C 371.933 0.269244 -2.31943 0
M  V30 3795 C 372.914 0.964054 -1.40143 0
M  V30 3796 O 374.099 0.955767 -1.69052 0
M  V30 3797 C 371.229 1.33504 -3.20615 0
M  V30 3798 C 370.183 0.760202 -4.21195 0
M  V30 3799 C 369.509 1.9264 -4.98792 0
M  V30 3800 C 370.809 -0.247661 -5.21712 0
M  V30 3801 H 372.503 -0.419082 -2.96452 0
M  V30 3802 H 370.049 -0.202988 -1.42562 0
M  V30 3803 H 372.002 1.88048 -3.77115 0
M  V30 3804 H 370.726 2.05253 -2.54045 0
M  V30 3805 H 369.385 0.23653 -3.65836 0
M  V30 3806 H 369.033 2.63154 -4.28671 0
M  V30 3807 H 368.733 1.54785 -5.66847 0
M  V30 3808 H 370.257 2.4762 -5.58137 0
M  V30 3809 H 371.671 0.209579 -5.72917 0
M  V30 3810 H 370.068 -0.541962 -5.97648 0
M  V30 3811 H 371.138 -1.16409 -4.7072 0
M  V30 3812 N 372.481 1.55866 -0.233164 0
M  V30 3813 C 373.73 1.97779 0.39579 0
M  V30 3814 C 374.043 1.12419 1.60066 0
M  V30 3815 O 375.249 1.44283 2.29988 0
M  V30 3816 C 373.705 3.5188 0.755556 0
M  V30 3817 C 373.313 4.45959 -0.427152 0
M  V30 3818 C 375.057 4.02479 1.34946 0
M  V30 3819 C 372.964 5.91383 -0.0443043 0
M  V30 3820 H 371.894 0.738592 0.15165 0
M  V30 3821 H 374.545 1.80486 -0.331212 0
M  V30 3822 H 372.927 3.64816 1.5403 0
M  V30 3823 H 374.101 4.44776 -1.20462 0
M  V30 3824 H 372.416 4.05765 -0.935068 0
M  V30 3825 H 375.013 5.08637 1.649 0
M  V30 3826 H 375.356 3.49014 2.26925 0
M  V30 3827 H 375.889 3.92813 0.62791 0
M  V30 3828 H 372.628 6.48857 -0.930874 0
M  V30 3829 H 372.148 5.95734 0.697238 0
M  V30 3830 H 373.827 6.45893 0.378334 0
M  V30 3831 N 373.959 -0.0401083 1.57549 0
M  V30 3832 C 375.207 -0.731677 1.8839 0
M  V30 3833 C 375.528 -1.76481 0.829425 0
M  V30 3834 O 374.798 -1.95411 -0.1383 0
M  V30 3835 H 373.378 -0.273225 0.695239 0
M  V30 3836 H 376.04 -0.00867725 1.94898 0
M  V30 3837 H 375.136 -1.22816 2.86919 0
M  V30 3838 N 375.437 -1.54477 -0.31217 0
M  V30 3839 C 376.683 -1.73483 -1.0503 0
M  V30 3840 C 377.016 -0.513125 -1.87298 0
M  V30 3841 O 376.291 0.489864 -1.8823 0
M  V30 3842 C 376.574 -3.01723 -1.96558 0
M  V30 3843 C 376.427 -4.3417 -1.17545 0
M  V30 3844 C 377.746 -3.25772 -2.95907 0
M  V30 3845 H 374.865 -0.631222 -0.380432 0
M  V30 3846 H 377.507 -1.87184 -0.325932 0
M  V30 3847 H 375.657 -2.90174 -2.58324 0
M  V30 3848 H 377.329 -4.5762 -0.581513 0
M  V30 3849 H 375.572 -4.31159 -0.477925 0
M  V30 3850 H 376.243 -5.20143 -1.84811 0
M  V30 3851 H 378.719 -3.36857 -2.44267 0
M  V30 3852 H 377.595 -4.16838 -3.57123 0
M  V30 3853 H 377.856 -2.43537 -3.68974 0
M  V30 3854 N 376.915 0.57481 -1.46744 0
M  V30 3855 C 377.825 1.711 -1.60505 0
M  V30 3856 C 378.841 1.67008 -0.488307 0
M  V30 3857 O 380.017 1.86774 -0.753495 0
M  V30 3858 C 377.082 3.07608 -1.59932 0
M  V30 3859 C 376.143 3.22904 -2.82898 0
M  V30 3860 C 375.376 4.529 -2.82343 0
M  V30 3861 O 375.599 5.37278 -1.91542 0
M  V30 3862 O 374.533 4.71611 -3.73987 0
M  V30 3863 H 378.359 1.62436 -2.56609 0
M  V30 3864 H 375.944 0.742779 -1.29627 0
M  V30 3865 H 377.826 3.88877 -1.62336 0
M  V30 3866 H 376.501 3.16692 -0.669898 0
M  V30 3867 H 375.408 2.41099 -2.86046 0
M  V30 3868 H 376.741 3.18715 -3.75076 0
M  V30 3869 N 378.394 1.34581 0.820102 0
M  V30 3870 C 379.805 1.24298 1.39309 0
M  V30 3871 C 380.156 -0.130351 1.95767 0
M  V30 3872 O 379.281 -1.0308 1.90272 0
M  V30 3873 C 379.876 2.25054 2.53251 0
M  V30 3874 C 378.435 2.18552 3.0645 0
M  V30 3875 C 377.582 2.11503 1.79337 0
M  V30 3876 H 380.533 1.45906 0.624262 0
M  V30 3877 H 380.554 1.86917 3.31425 0
M  V30 3878 H 380.066 3.24996 2.1213 0
M  V30 3879 H 378.167 1.21976 3.52069 0
M  V30 3880 H 378.28 3.0993 3.65349 0
M  V30 3881 H 376.644 1.57268 2.00347 0
M  V30 3882 H 377.427 3.13284 1.40386 0
M  V30 3883 N 379.872 -1.04064 1.18357 0
M  V30 3884 C 381.12 -1.76915 0.977013 0
M  V30 3885 C 381.441 -1.88624 -0.494577 0
M  V30 3886 O 380.711 -1.41125 -1.3587 0
M  V30 3887 H 379.291 -0.65535 0.358504 0
M  V30 3888 H 381.953 -1.25592 1.49039 0
M  V30 3889 H 381.049 -2.78178 1.41504 0
M  V30 3890 N 381.35 -0.985608 -1.22978 0
M  V30 3891 C 382.598 -0.656087 -1.91154 0
M  V30 3892 C 382.919 0.813561 -1.77218 0
M  V30 3893 O 382.189 1.58244 -1.1548 0
M  V30 3894 H 380.769 -0.239674 -0.707506 0
M  V30 3895 H 383.431 -1.25054 -1.49491 0
M  V30 3896 H 382.527 -0.912253 -2.9847 0
M  V30 3897 N 382.828 1.3818 -0.7579 0
M  V30 3898 C 383.778 2.27741 -0.108674 0
M  V30 3899 C 384.762 1.45415 0.688709 0
M  V30 3900 O 385.954 1.68108 0.553956 0
M  V30 3901 C 383.083 3.34313 0.780367 0
M  V30 3902 C 382.169 4.24093 -0.0240977 0
M  V30 3903 N 382.56 4.9451 -1.06271 0
M  V30 3904 C 380.858 4.45542 0.202049 0
M  V30 3905 C 381.559 5.60675 -1.54979 0
M  V30 3906 N 380.535 5.36684 -0.864348 0
M  V30 3907 H 384.337 2.79649 -0.904071 0
M  V30 3908 H 381.851 1.51133 -0.594346 0
M  V30 3909 H 383.848 3.97368 1.26114 0
M  V30 3910 H 382.508 2.83962 1.57467 0
M  V30 3911 H 383.519 4.97345 -1.44459 0
M  V30 3912 H 380.196 4.06091 0.96935 0
M  V30 3913 H 381.586 6.26992 -2.41517 0
M  V30 3914 N 384.306 0.507319 1.49211 0
M  V30 3915 C 385.554 -0.0348839 2.0207 0
M  V30 3916 C 385.875 -1.36898 1.38866 0
M  V30 3917 O 385.145 -1.88133 0.546151 0
M  V30 3918 H 383.725 -0.0158812 0.746831 0
M  V30 3919 H 386.387 0.665998 1.83168 0
M  V30 3920 H 385.483 -0.159917 3.1169 0
M  V30 3921 N 385.784 -1.5574 0.241426 0
M  V30 3922 C 387.033 -1.97986 -0.385295 0
M  V30 3923 C 387.346 -1.13267 -1.59468 0
M  V30 3924 O 388.552 -1.45501 -2.2922 0
M  V30 3925 C 387.008 -3.52275 -0.736884 0
M  V30 3926 C 386.616 -4.45726 0.450796 0
M  V30 3927 C 388.36 -4.03189 -1.3281 0
M  V30 3928 C 386.267 -5.91352 0.0756662 0
M  V30 3929 H 385.197 -0.739386 -0.147731 0
M  V30 3930 H 387.848 -1.80308 0.340779 0
M  V30 3931 H 386.23 -3.65628 -1.52094 0
M  V30 3932 H 387.404 -4.44131 1.22819 0
M  V30 3933 H 385.719 -4.05264 0.956573 0
M  V30 3934 H 388.316 -5.09505 -1.62201 0
M  V30 3935 H 388.659 -3.50212 -2.25071 0
M  V30 3936 H 389.192 -3.93141 -0.607069 0
M  V30 3937 H 385.931 -6.48354 0.965272 0
M  V30 3938 H 385.451 -5.96095 -0.665635 0
M  V30 3939 H 387.13 -6.46084 -0.344075 0
M  V30 3940 N 387.262 0.0317525 -1.57568 0
M  V30 3941 C 388.172 1.05021 -2.0978 0
M  V30 3942 C 389.188 1.39809 -1.03583 0
M  V30 3943 O 390.364 1.49182 -1.35302 0
M  V30 3944 C 387.429 2.33301 -2.56459 0
M  V30 3945 C 386.49 2.0512 -3.77127 0
M  V30 3946 C 385.723 3.27283 -4.2157 0
M  V30 3947 O 385.946 4.37861 -3.65559 0
M  V30 3948 O 384.88 3.13141 -5.14029 0
M  V30 3949 H 388.706 0.636505 -2.96955 0
M  V30 3950 H 386.291 0.248559 -1.47318 0
M  V30 3951 H 388.173 3.08722 -2.86825 0
M  V30 3952 H 386.848 2.73973 -1.72397 0
M  V30 3953 H 385.755 1.27276 -3.51784 0
M  V30 3954 H 387.088 1.69305 -4.62165 0
M  V30 3955 N 388.74 1.54641 0.303973 0
M  V30 3956 C 389.968 1.77768 1.05858 0
M  V30 3957 C 390.383 0.535722 1.8104 0
M  V30 3958 O 389.74 -0.494337 1.75677 0
M  V30 3959 C 389.791 2.9834 2.04146 0
M  V30 3960 O 389.512 4.17736 1.32015 0
M  V30 3961 C 391.013 3.33832 2.91669 0
M  V30 3962 H 388.233 0.592961 0.314067 0
M  V30 3963 H 390.777 2.01583 0.344149 0
M  V30 3964 H 388.932 2.76742 2.71096 0
M  V30 3965 H 389.346 4.85693 1.97998 0
M  V30 3966 H 390.82 4.21448 3.56491 0
M  V30 3967 H 391.297 2.51857 3.59812 0
M  V30 3968 H 391.903 3.57579 2.30254 0
M  V30 3969 N 390.218 -0.567019 1.47046 0
M  V30 3970 C 391.466 -1.322 1.52864 0
M  V30 3971 C 391.787 -1.94088 0.188388 0
M  V30 3972 O 391.057 -1.7941 -0.786693 0
M  V30 3973 H 389.637 -0.490894 0.563056 0
M  V30 3974 H 392.299 -0.662879 1.83281 0
M  V30 3975 H 391.395 -2.12062 2.2899 0
M  V30 3976 N 391.696 -1.35014 -0.812953 0
M  V30 3977 C 392.606 -1.2951 -1.95613 0
M  V30 3978 C 393.622 -0.20107 -1.72834 0
M  V30 3979 O 394.798 -0.42932 -1.96771 0
M  V30 3980 C 391.863 -1.06033 -3.30088 0
M  V30 3981 C 390.924 -2.24688 -3.65805 0
M  V30 3982 C 390.157 -2.02322 -4.93864 0
M  V30 3983 O 390.38 -0.986464 -5.61805 0
M  V30 3984 O 389.314 -2.89525 -5.27692 0
M  V30 3985 H 393.14 -2.25705 -2.03202 0
M  V30 3986 H 390.725 -1.15321 -0.949811 0
M  V30 3987 H 392.607 -0.94763 -4.10607 0
M  V30 3988 H 391.282 -0.128852 -3.23443 0
M  V30 3989 H 390.189 -2.41521 -2.85689 0
M  V30 3990 H 391.522 -3.16261 -3.77147 0
M  V30 3991 N 393.175 1.03435 -1.18907 0
M  V30 3992 C 394.125 2.09924 -0.889706 0
M  V30 3993 C 395.109 1.60261 0.143216 0
M  V30 3994 O 396.301 1.76892 -0.0617122 0
M  V30 3995 C 393.43 3.40669 -0.424168 0
M  V30 3996 C 392.516 3.97082 -1.48952 0
M  V30 3997 N 392.907 4.27227 -2.70759 0
M  V30 3998 C 391.205 4.25029 -1.35152 0
M  V30 3999 C 391.906 4.7246 -3.39347 0
M  V30 4000 N 390.882 4.7366 -2.66735 0
M  V30 4001 H 394.684 2.31116 -1.81555 0
M  V30 4002 H 392.198 1.21246 -1.08042 0
M  V30 4003 H 394.195 4.16461 -0.191176 0
M  V30 4004 H 392.855 3.20901 0.495263 0
M  V30 4005 H 393.866 4.16678 -3.0757 0
M  V30 4006 H 390.543 4.14554 -0.495126 0
M  V30 4007 H 391.933 5.04751 -4.43481 0
M  V30 4008 N 394.653 0.992116 1.22453 0
M  V30 4009 C 395.901 0.666215 1.90804 0
M  V30 4010 C 396.222 -0.804152 1.77647 0
M  V30 4011 O 395.492 -1.57629 1.16318 0
M  V30 4012 H 394.072 0.243423 0.706225 0
M  V30 4013 H 396.734 1.25845 1.48825 0
M  V30 4014 H 395.83 0.928069 2.97982 0
M  V30 4015 N 396.131 -1.37776 0.765217 0
M  V30 4016 C 397.094 -2.28686 0.153416 0
M  V30 4017 C 398.094 -1.47727 -0.635081 0
M  V30 4018 O 399.284 -1.68027 -0.459632 0
M  V30 4019 C 396.416 -3.31608 -0.790495 0
M  V30 4020 H 397.609 -2.84297 0.954723 0
M  V30 4021 H 395.162 -1.46932 0.53299 0
M  V30 4022 H 395.897 -2.81109 -1.61705 0
M  V30 4023 H 395.682 -3.9144 -0.227348 0
M  V30 4024 H 397.172 -3.99559 -1.21419 0
M  V30 4025 N 397.609 -0.515225 -1.4894 0
M  V30 4026 C 399.02 -0.0710067 -1.86565 0
M  V30 4027 C 399.371 1.34733 -1.42623 0
M  V30 4028 O 398.496 2.00653 -0.810379 0
M  V30 4029 C 399.091 -0.122083 -3.3858 0
M  V30 4030 C 397.65 0.266863 -3.75453 0
M  V30 4031 C 396.797 -0.488376 -2.72966 0
M  V30 4032 H 399.748 -0.727266 -1.41055 0
M  V30 4033 H 399.769 0.669818 -3.74558 0
M  V30 4034 H 399.281 -1.15448 -3.70531 0
M  V30 4035 H 397.382 1.30196 -3.49113 0
M  V30 4036 H 397.495 -0.0624811 -4.79059 0
M  V30 4037 H 395.859 0.0635622 -2.54621 0
M  V30 4038 H 396.642 -1.52113 -3.07761 0
M  V30 4039 N 399.087 1.5561 -0.249682 0
M  V30 4040 C 400.017 2.24477 0.642826 0
M  V30 4041 C 400.998 1.22601 1.17911 0
M  V30 4042 O 402.183 1.5126 1.21795 0
M  V30 4043 C 399.313 2.94638 1.83863 0
M  V30 4044 C 398.267 4.03227 1.435 0
M  V30 4045 C 397.593 4.60828 2.71186 0
M  V30 4046 C 398.893 5.18796 0.604002 0
M  V30 4047 H 400.587 2.99321 0.0685625 0
M  V30 4048 H 398.133 1.43965 0.0315363 0
M  V30 4049 H 400.086 3.41517 2.46868 0
M  V30 4050 H 398.81 2.17287 2.43832 0
M  V30 4051 H 397.469 3.57121 0.828275 0
M  V30 4052 H 397.117 3.80174 3.29358 0
M  V30 4053 H 396.817 5.34132 2.44901 0
M  V30 4054 H 398.341 5.10442 3.35084 0
M  V30 4055 H 399.755 5.61883 1.13842 0
M  V30 4056 H 398.152 5.98506 0.437097 0
M  V30 4057 H 399.222 4.83384 -0.383147 0
M  V30 4058 N 400.565 -0.0233959 1.57583 0
M  V30 4059 C 401.512 -1.02224 2.06927 0
M  V30 4060 C 402.482 -1.35575 0.959617 0
M  V30 4061 O 403.667 -1.45815 1.23055 0
M  V30 4062 C 400.807 -2.31636 2.5581 0
M  V30 4063 C 399.92 -2.04394 3.80588 0
M  V30 4064 C 399.055 -3.27717 4.18061 0
M  V30 4065 C 398.094 -2.96056 5.3574 0
M  V30 4066 N 397.231 -4.11847 5.68618 0
M  V30 4067 H 402.071 -0.594504 2.9201 0
M  V30 4068 H 399.608 -0.281921 1.44373 0
M  V30 4069 H 401.566 -3.07258 2.82221 0
M  V30 4070 H 400.196 -2.72122 1.73636 0
M  V30 4071 H 399.248 -1.19244 3.61227 0
M  V30 4072 H 400.56 -1.77042 4.66323 0
M  V30 4073 H 399.714 -4.11702 4.4563 0
M  V30 4074 H 398.453 -3.58188 3.30988 0
M  V30 4075 H 397.458 -2.10474 5.07918 0
M  V30 4076 H 398.683 -2.66857 6.24471 0
M  V30 4077 H 396.629 -4.42258 4.84504 0
M  V30 4078 H 396.546 -3.87938 6.48876 0
M  V30 4079 H 397.814 -4.96689 6.00766 0
M  V30 4080 N 402.043 -1.548 -0.295768 0
M  V30 4081 C 402.993 -1.82497 -1.3667 0
M  V30 4082 C 403.977 -0.682434 -1.45711 0
M  V30 4083 O 405.169 -0.943207 -1.49775 0
M  V30 4084 C 402.298 -2.08036 -2.73086 0
M  V30 4085 C 401.384 -3.28488 -2.68247 0
M  V30 4086 N 401.775 -4.48924 -2.33025 0
M  V30 4087 C 400.073 -3.3062 -2.99343 0
M  V30 4088 C 400.774 -5.30956 -2.37613 0
M  V30 4089 N 399.75 -4.68805 -2.75178 0
M  V30 4090 H 403.552 -2.73175 -1.0841 0
M  V30 4091 H 401.066 -1.5437 -0.504361 0
M  V30 4092 H 403.063 -2.26027 -3.5031 0
M  V30 4093 H 401.723 -1.18629 -3.02254 0
M  V30 4094 H 402.734 -4.75432 -2.05389 0
M  V30 4095 H 399.411 -2.51336 -3.33371 0
M  V30 4096 H 400.801 -6.37199 -2.13135 0
M  V30 4097 N 403.521 0.559213 -1.47345 0
M  V30 4098 C 404.769 1.31388 -1.53563 0
M  V30 4099 C 405.09 1.93985 -0.198678 0
M  V30 4100 O 404.36 1.79825 0.777167 0
M  V30 4101 H 402.94 0.487901 -0.565652 0
M  V30 4102 H 405.602 0.65315 -1.8363 0
M  V30 4103 H 404.698 2.10844 -2.30111 0
M  V30 4104 N 404.999 1.35443 0.805782 0
M  V30 4105 C 406.415 1.15499 1.10146 0
M  V30 4106 C 406.615 -0.0319975 2.01475 0
M  V30 4107 O 405.671 -0.70236 2.42535 0
M  V30 4108 C 406.984 2.45833 1.73166 0
M  V30 4109 C 408.532 2.52047 1.85583 0
M  V30 4110 C 409.007 3.82427 2.52019 0
M  V30 4111 N 410.498 3.83682 2.59504 0
M  V30 4112 C 411.233 4.81294 3.11679 0
M  V30 4113 N 410.729 5.89294 3.64287 0
M  V30 4114 N 412.522 4.6873 3.1024 0
M  V30 4115 H 404.673 2.11469 0.198678 0
M  V30 4116 H 406.936 0.93594 0.150731 0
M  V30 4117 H 406.642 3.32874 1.13526 0
M  V30 4118 H 406.516 2.6044 2.72857 0
M  V30 4119 H 408.903 1.65435 2.44367 0
M  V30 4120 H 408.984 2.41354 0.847455 0
M  V30 4121 H 408.628 4.69437 1.93885 0
M  V30 4122 H 408.558 3.90409 3.53395 0
M  V30 4123 H 411.049 3.05648 2.22234 0
M  V30 4124 H 411.362 6.59768 4.02401 0
M  V30 4125 H 409.707 5.92985 3.62483 0
M  V30 4126 H 412.898 3.83496 2.68419 0
M  V30 4127 H 413.071 5.44965 3.50596 0
M  V30 4128 N 406.477 -1.02803 1.19454 0
M  V30 4129 C 407.723 -1.76478 0.999171 0
M  V30 4130 C 408.056 -1.88456 -0.468828 0
M  V30 4131 O 407.331 -1.40198 -1.34814 0
M  V30 4132 C 407.614 -3.19044 1.66981 0
M  V30 4133 C 407.467 -3.14932 3.21151 0
M  V30 4134 C 408.786 -4.17456 1.39349 0
M  V30 4135 H 405.905 -0.640614 0.364393 0
M  V30 4136 H 408.547 -1.20005 1.47305 0
M  V30 4137 H 406.697 -3.67263 1.2669 0
M  V30 4138 H 408.369 -2.74605 3.70661 0
M  V30 4139 H 406.612 -2.52625 3.52652 0
M  V30 4140 H 407.283 -4.1566 3.63223 0
M  V30 4141 H 409.759 -3.77842 1.74283 0
M  V30 4142 H 408.635 -5.154 1.88823 0
M  V30 4143 H 408.896 -4.40949 0.318813 0
M  V30 4144 N 407.956 -0.998596 -1.21925 0
M  V30 4145 C 409.204 -0.676325 -1.90448 0
M  V30 4146 C 409.525 0.794719 -1.78071 0
M  V30 4147 O 408.795 1.5701 -1.17152 0
M  V30 4148 H 407.375 -0.247165 -0.704925 0
M  V30 4149 H 410.037 -1.26633 -1.48156 0
M  V30 4150 H 409.133 -0.943858 -2.97486 0
M  V30 4151 N 409.434 1.37368 -0.772513 0
M  V30 4152 C 410.683 1.98918 -0.333861 0
M  V30 4153 C 410.996 1.62017 1.09589 0
M  V30 4154 O 412.202 2.16676 1.63596 0
M  V30 4155 C 410.658 3.55735 -0.545971 0
M  V30 4156 C 410.266 4.01573 -1.98603 0
M  V30 4157 C 412.01 4.24156 -0.170979 0
M  V30 4158 C 409.917 5.51102 -2.1457 0
M  V30 4159 H 408.847 0.744214 -0.121085 0
M  V30 4160 H 411.498 1.56888 -0.95175 0
M  V30 4161 H 409.88 3.95748 0.141387 0
M  V30 4162 H 411.054 3.72803 -2.7084 0
M  V30 4163 H 409.369 3.45937 -2.31769 0
M  V30 4164 H 411.966 5.34024 -0.26878 0
M  V30 4165 H 412.309 4.06917 0.878855 0
M  V30 4166 H 412.842 3.89447 -0.810914 0
M  V30 4167 H 409.581 5.73268 -3.17875 0
M  V30 4168 H 409.101 5.81554 -1.46817 0
M  V30 4169 H 410.78 6.17083 -1.94468 0
M  V30 4170 N 410.912 0.523116 1.48665 0
M  V30 4171 C 412.142 -0.00961724 2.06598 0
M  V30 4172 C 412.55 -1.29333 1.38093 0
M  V30 4173 O 411.893 -1.77846 0.46007 0
M  V30 4174 C 411.955 -0.311135 3.58151 0
M  V30 4175 C 411.619 0.878092 4.48485 0
M  V30 4176 C 412.616 1.77464 4.88674 0
M  V30 4177 C 410.301 1.08315 4.90483 0
M  V30 4178 C 412.295 2.86021 5.69623 0
M  V30 4179 C 409.982 2.17187 5.71203 0
M  V30 4180 C 410.98 3.05873 6.10681 0
M  V30 4181 O 410.668 4.12862 6.89783 0
M  V30 4182 H 410.4 0.0272658 0.67545 0
M  V30 4183 H 412.954 0.726156 1.92136 0
M  V30 4184 H 411.184 -1.10079 3.70701 0
M  V30 4185 H 412.873 -0.785125 3.98234 0
M  V30 4186 H 413.639 1.62813 4.56855 0
M  V30 4187 H 409.518 0.402149 4.59243 0
M  V30 4188 H 413.062 3.55272 6.00356 0
M  V30 4189 H 408.959 2.31824 6.02435 0
M  V30 4190 H 409.727 4.10487 7.08126 0
M  V30 4191 N 412.39 -1.55475 0.257931 0
M  V30 4192 C 413.637 -1.99207 -0.363728 0
M  V30 4193 C 413.965 -1.1462 -1.57139 0
M  V30 4194 O 413.22 -0.199653 -1.94679 0
M  V30 4195 C 413.519 -3.48183 -0.806433 0
M  V30 4196 C 413.185 -4.49936 0.294684 0
M  V30 4197 C 411.847 -4.77481 0.597076 0
M  V30 4198 C 414.199 -5.10769 1.03751 0
M  V30 4199 C 411.527 -5.63132 1.64618 0
M  V30 4200 C 413.879 -5.97558 2.07622 0
M  V30 4201 C 412.543 -6.23432 2.38514 0
M  V30 4202 H 411.813 -0.728949 -0.133097 0
M  V30 4203 H 414.46 -1.8793 0.368059 0
M  V30 4204 H 412.765 -3.56848 -1.61761 0
M  V30 4205 H 414.462 -3.79415 -1.29789 0
M  V30 4206 H 411.052 -4.28572 0.0488649 0
M  V30 4207 H 415.236 -4.89527 0.817149 0
M  V30 4208 H 410.492 -5.8143 1.89074 0
M  V30 4209 H 414.666 -6.43735 2.65666 0
M  V30 4210 H 412.293 -6.89594 3.19943 0
M  V30 4211 N 413.868 0.0150385 -1.57593 0
M  V30 4212 C 415.116 0.701613 -1.8953 0
M  V30 4213 C 415.437 1.75139 -0.857396 0
M  V30 4214 O 414.707 1.95607 0.107194 0
M  V30 4215 H 413.287 0.26213 -0.699498 0
M  V30 4216 H 415.949 -0.0223304 -1.94887 0
M  V30 4217 H 415.045 1.18236 -2.88837 0
M  V30 4218 N 415.346 1.54954 0.287554 0
M  V30 4219 C 416.279 1.81737 1.3801 0
M  V30 4220 C 417.257 0.669412 1.48181 0
M  V30 4221 O 418.441 0.910839 1.65033 0
M  V30 4222 C 415.568 1.96606 2.75796 0
M  V30 4223 C 414.614 3.19098 2.82982 0
M  V30 4224 S 415.447 4.7683 2.43707 0
M  V30 4225 C 416.603 4.94653 3.83496 0
M  V30 4226 H 416.836 2.74122 1.15085 0
M  V30 4227 H 414.369 1.46538 0.486403 0
M  V30 4228 H 416.327 2.05858 3.55152 0
M  V30 4229 H 414.988 1.05136 2.95982 0
M  V30 4230 H 414.181 3.26344 3.84077 0
M  V30 4231 H 413.783 3.08361 2.11635 0
M  V30 4232 H 416.075 4.79502 4.78628 0
M  V30 4233 H 417.018 5.96728 3.8121 0
M  V30 4234 H 417.426 4.2272 3.74123 0
M  V30 4235 N 416.824 -0.551391 1.4764 0
M  V30 4236 C 417.771 -1.65796 1.60563 0
M  V30 4237 C 418.741 -1.59932 0.448428 0
M  V30 4238 O 419.926 -1.78679 0.669222 0
M  V30 4239 C 417.066 -3.04108 1.63133 0
M  V30 4240 C 416.179 -3.20365 2.89811 0
M  V30 4241 C 415.314 -4.49109 2.8368 0
M  V30 4242 C 414.353 -4.58819 4.05156 0
M  V30 4243 N 413.49 -5.78926 3.97227 0
M  V30 4244 H 418.33 -1.54088 2.5507 0
M  V30 4245 H 415.867 -0.75052 1.26513 0
M  V30 4246 H 417.825 -3.84207 1.62606 0
M  V30 4247 H 416.455 -3.14637 0.721341 0
M  V30 4248 H 415.507 -2.33659 3.00179 0
M  V30 4249 H 416.819 -3.23402 3.79753 0
M  V30 4250 H 415.973 -5.37475 2.81434 0
M  V30 4251 H 414.712 -4.4856 1.91431 0
M  V30 4252 H 413.717 -3.68864 4.077 0
M  V30 4253 H 414.942 -4.61124 4.98539 0
M  V30 4254 H 412.888 -5.79314 3.07785 0
M  V30 4255 H 412.805 -5.83367 4.80853 0
M  V30 4256 H 414.073 -6.69637 3.99007 0
M  V30 4257 N 418.302 -1.35869 -0.798587 0
M  V30 4258 C 419.265 -1.29307 -1.89242 0
M  V30 4259 C 420.265 -0.202747 -1.59517 0
M  V30 4260 O 421.455 -0.456957 -1.681 0
M  V30 4261 C 418.587 -1.00229 -3.25833 0
M  V30 4262 H 419.78 -2.26576 -1.96478 0
M  V30 4263 H 417.333 -1.20509 -0.995358 0
M  V30 4264 H 418.068 -0.033801 -3.24282 0
M  V30 4265 H 417.853 -1.79121 -3.48795 0
M  V30 4266 H 419.343 -0.98219 -4.05885 0
M  V30 4267 N 419.78 1.02168 -1.19998 0
M  V30 4268 C 421.191 1.57135 -1.00825 0
M  V30 4269 C 421.542 1.91276 0.436818 0
M  V30 4270 O 420.667 1.71679 1.3174 0
M  V30 4271 C 421.262 2.85514 -1.82393 0
M  V30 4272 C 419.821 3.37027 -1.67601 0
M  V30 4273 C 418.968 2.10388 -1.80644 0
M  V30 4274 H 421.919 0.846106 -1.34264 0
M  V30 4275 H 421.94 3.56711 -1.32429 0
M  V30 4276 H 421.452 2.60634 -2.87561 0
M  V30 4277 H 419.553 3.66878 -0.650485 0
M  V30 4278 H 419.666 4.09572 -2.4857 0
M  V30 4279 H 418.03 2.22601 -1.23778 0
M  V30 4280 H 418.813 1.8794 -2.87286 0
M  V30 4281 N 421.258 1.00505 1.21394 0
M  V30 4282 C 422.191 0.51032 2.22421 0
M  V30 4283 C 423.169 -0.436 1.56645 0
M  V30 4284 O 424.353 -0.358709 1.85055 0
M  V30 4285 C 421.48 -0.258733 3.3771 0
M  V30 4286 C 420.526 0.635395 4.2174 0
M  V30 4287 S 421.359 2.09783 4.92698 0
M  V30 4288 C 422.515 1.33862 6.11418 0
M  V30 4289 H 422.748 1.36637 2.64041 0
M  V30 4290 H 420.281 0.812991 1.31262 0
M  V30 4291 H 422.239 -0.696372 4.0455 0
M  V30 4292 H 420.9 -1.0902 2.94573 0
M  V30 4293 H 420.093 0.0430189 5.03982 0
M  V30 4294 H 419.695 1.01031 3.60095 0
M  V30 4295 H 421.987 0.612541 6.74725 0
M  V30 4296 H 422.93 2.13675 6.75092 0
M  V30 4297 H 423.338 0.846568 5.58116 0
M  V30 4298 N 422.737 -1.36956 0.779787 0
M  V30 4299 C 423.67 -2.27896 0.117681 0
M  V30 4300 C 424.648 -1.46736 -0.700523 0
M  V30 4301 O 425.832 -1.76055 -0.673568 0
M  V30 4302 C 422.959 -3.28136 -0.839296 0
M  V30 4303 C 422.005 -4.26373 -0.10409 0
M  V30 4304 S 422.838 -5.2157 1.21348 0
M  V30 4305 C 423.994 -6.25359 0.260249 0
M  V30 4306 H 424.227 -2.83704 0.888778 0
M  V30 4307 H 421.76 -1.43352 0.57355 0
M  V30 4308 H 423.718 -3.86394 -1.38601 0
M  V30 4309 H 422.379 -2.7126 -1.58356 0
M  V30 4310 H 421.572 -4.97121 -0.82986 0
M  V30 4311 H 421.174 -3.72147 0.371858 0
M  V30 4312 H 423.466 -6.75145 -0.564435 0
M  V30 4313 H 424.409 -7.01885 0.936135 0
M  V30 4314 H 424.817 -5.64345 -0.132127 0
M  V30 4315 N 424.215 -0.530993 -1.48385 0
M  V30 4316 C 425.147 0.268353 -2.27624 0
M  V30 4317 C 426.16 0.903525 -1.35426 0
M  V30 4318 O 427.349 0.781796 -1.60469 0
M  V30 4319 C 424.449 1.39535 -3.08842 0
M  V30 4320 C 423.622 0.861913 -4.28824 0
M  V30 4321 C 422.681 1.87016 -4.91845 0
M  V30 4322 O 421.707 1.4267 -5.5103 0
M  V30 4323 N 422.909 3.20238 -4.84178 0
M  V30 4324 H 425.674 -0.41123 -2.96865 0
M  V30 4325 H 423.235 -0.365387 -1.57723 0
M  V30 4326 H 425.227 2.06803 -3.47871 0
M  V30 4327 H 423.797 1.97859 -2.42014 0
M  V30 4328 H 423.017 0.0132126 -3.94198 0
M  V30 4329 H 424.305 0.484415 -5.06489 0
M  V30 4330 H 423.703 3.58932 -4.37246 0
M  V30 4331 H 422.26 3.83136 -5.27305 0
M  V30 4332 N 425.693 1.55336 -0.266172 0
M  V30 4333 C 426.921 2.03801 0.356756 0
M  V30 4334 C 427.336 1.14485 1.50129 0
M  V30 4335 O 426.693 0.163121 1.8177 0
M  V30 4336 C 426.744 3.51455 0.846281 0
M  V30 4337 O 426.465 4.37371 -0.252663 0
M  V30 4338 C 427.966 4.15767 1.53794 0
M  V30 4339 H 425.186 0.665906 0.0825218 0
M  V30 4340 H 427.73 2.00636 -0.39566 0
M  V30 4341 H 425.885 3.55092 1.54881 0
M  V30 4342 H 426.299 5.24358 0.122173 0
M  V30 4343 H 427.773 5.20714 1.83198 0
M  V30 4344 H 428.25 3.63404 2.46646 0
M  V30 4345 H 428.856 4.16107 0.879488 0
M  V30 4346 N 427.171 -0.0066808 1.57599 0
M  V30 4347 C 428.134 -0.985035 2.06953 0
M  V30 4348 C 429.134 -1.27663 0.977687 0
M  V30 4349 O 430.324 -1.22293 1.24057 0
M  V30 4350 C 427.456 -2.3118 2.50536 0
M  V30 4351 H 428.649 -0.558255 2.94658 0
M  V30 4352 H 426.202 -0.254011 1.54222 0
M  V30 4353 H 426.937 -2.78561 1.66054 0
M  V30 4354 H 426.722 -2.11338 3.3027 0
M  V30 4355 H 428.212 -3.01377 2.8907 0
M  V30 4356 N 428.649 -1.55105 -0.279332 0
M  V30 4357 C 429.926 -1.66119 -1.03267 0
M  V30 4358 C 430.306 -0.523525 -2.04505 0
M  V30 4359 O 429.654 0.477194 -2.23462 0
M  V30 4360 C 429.864 -3.05067 -1.69515 0
M  V30 4361 C 431.212 -3.62606 -2.20912 0
M  V30 4362 O 432.236 -3.07659 -1.79512 0
M  V30 4363 O 431.095 -4.58861 -2.96831 0
M  V30 4364 H 428.189 -0.674429 -0.478618 0
M  V30 4365 H 430.735 -1.67446 -0.275694 0
M  V30 4366 H 429.507 -3.79311 -0.9612 0
M  V30 4367 H 429.13 -3.07611 -2.51915 0
M  V30 4368 N 430.127 0.543554 -1.4793 0
M  V30 4369 C 431.375 1.29752 -1.54948 0
M  V30 4370 C 431.696 1.93764 -0.219242 0
M  V30 4371 O 430.966 1.80639 0.75805 0
M  V30 4372 H 429.546 0.481874 -0.570795 0
M  V30 4373 H 432.208 0.633636 -1.84312 0
M  V30 4374 H 431.304 2.08392 -2.32334 0
M  V30 4375 N 431.605 1.3629 0.791371 0
M  V30 4376 C 432.537 1.26321 1.91248 0
M  V30 4377 C 433.55 0.18313 1.61767 0
M  V30 4378 O 434.739 0.437682 1.73051 0
M  V30 4379 C 431.839 0.925901 3.26007 0
M  V30 4380 C 431.012 2.10746 3.83281 0
M  V30 4381 C 430.071 1.74352 4.96475 0
M  V30 4382 O 429.097 2.46416 5.13096 0
M  V30 4383 N 430.299 0.676058 5.7655 0
M  V30 4384 H 433.064 2.22915 2.00323 0
M  V30 4385 H 430.625 1.29659 0.969546 0
M  V30 4386 H 432.617 0.663636 3.99222 0
M  V30 4387 H 431.187 0.0491581 3.12561 0
M  V30 4388 H 430.407 2.53264 3.02077 0
M  V30 4389 H 431.695 2.8969 4.18279 0
M  V30 4390 H 431.093 0.0776467 5.65647 0
M  V30 4391 H 429.65 0.473612 6.50077 0
M  V30 4392 N 433.083 -1.0153 1.20538 0
M  V30 4393 C 434.332 -1.74558 1.01057 0
M  V30 4394 C 434.645 -1.90168 -0.457756 0
M  V30 4395 O 435.851 -2.60301 -0.771722 0
M  V30 4396 C 434.307 -3.13963 1.75941 0
M  V30 4397 C 433.915 -3.06361 3.26875 0
M  V30 4398 C 435.659 -3.91191 1.64832 0
M  V30 4399 C 433.566 -4.40782 3.94291 0
M  V30 4400 H 432.496 -0.654417 0.374505 0
M  V30 4401 H 435.147 -1.13521 1.44171 0
M  V30 4402 H 433.529 -3.75549 1.25614 0
M  V30 4403 H 434.703 -2.54074 3.84425 0
M  V30 4404 H 433.018 -2.42625 3.38411 0
M  V30 4405 H 435.615 -4.90644 2.12539 0
M  V30 4406 H 435.958 -4.11884 0.604745 0
M  V30 4407 H 436.491 -3.36236 2.12579 0
M  V30 4408 H 433.23 -4.25292 4.98805 0
M  V30 4409 H 432.75 -4.9307 3.41529 0
M  V30 4410 H 434.429 -5.09621 3.98617 0
M  V30 4411 N 434.561 -1.01147 -1.20859 0
M  V30 4412 C 435.471 -0.58686 -2.27141 0
M  V30 4413 C 436.487 0.373198 -1.69951 0
M  V30 4414 O 437.663 0.235423 -2.00019 0
M  V30 4415 C 434.728 0.0733602 -3.46622 0
M  V30 4416 C 433.789 -0.931995 -4.19061 0
M  V30 4417 C 433.022 -0.303186 -5.32838 0
M  V30 4418 O 433.245 0.898395 -5.63281 0
M  V30 4419 O 432.179 -1.01735 -5.9324 0
M  V30 4420 H 436.005 -1.47155 -2.65667 0
M  V30 4421 H 433.59 -0.780689 -1.2738 0
M  V30 4422 H 435.472 0.442333 -4.19072 0
M  V30 4423 H 434.147 0.932329 -3.09983 0
M  V30 4424 H 433.054 -1.35224 -3.48805 0
M  V30 4425 H 434.387 -1.76076 -4.59628 0
M  V30 4426 N 436.039 1.36541 -0.78704 0
M  V30 4427 C 436.949 2.3387 -0.184896 0
M  V30 4428 C 437.965 1.60927 0.661697 0
M  V30 4429 O 439.141 1.92927 0.57804 0
M  V30 4430 C 436.206 3.40122 0.672145 0
M  V30 4431 C 435.267 4.28867 -0.19267 0
M  V30 4432 C 434.5 5.30045 0.623561 0
M  V30 4433 O 434.723 5.39232 1.8597 0
M  V30 4434 O 433.657 6.01895 0.0247068 0
M  V30 4435 H 437.483 2.87126 -0.989562 0
M  V30 4436 H 435.068 1.38969 -0.548455 0
M  V30 4437 H 436.95 4.05093 1.16094 0
M  V30 4438 H 435.625 2.89169 1.45474 0
M  V30 4439 H 434.532 3.66945 -0.728166 0
M  V30 4440 H 435.865 4.83165 -0.938722 0
M  V30 4441 N 437.518 0.538854 1.48102 0
M  V30 4442 C 438.743 0.0102694 2.07397 0
M  V30 4443 C 439.168 -1.26562 1.39153 0
M  V30 4444 O 438.526 -1.75357 0.460387 0
M  V30 4445 C 438.574 -0.187602 3.60112 0
M  V30 4446 O 437.678 -1.25432 3.92862 0
M  V30 4447 H 437.019 0.0430975 0.6626 0
M  V30 4448 H 439.549 0.749301 1.90385 0
M  V30 4449 H 439.559 -0.407517 4.0596 0
M  V30 4450 H 438.234 0.744386 4.09184 0
M  V30 4451 H 436.811 -1.01636 3.58782 0
M  V30 4452 N 438.996 -1.55193 0.274407 0
M  V30 4453 C 440.226 -2.03692 -0.345442 0
M  V30 4454 C 440.634 -1.15224 -1.50067 0
M  V30 4455 O 439.977 -0.164749 -1.8296 0
M  V30 4456 C 440.039 -3.48325 -0.88939 0
M  V30 4457 C 439.703 -4.56794 0.137115 0
M  V30 4458 C 440.7 -5.11028 0.956378 0
M  V30 4459 C 438.385 -5.01568 0.27115 0
M  V30 4460 C 440.379 -6.08552 1.89587 0
M  V30 4461 C 438.066 -5.98918 1.21412 0
M  V30 4462 C 439.064 -6.52291 2.02498 0
M  V30 4463 O 438.752 -7.47738 2.952 0
M  V30 4464 H 438.484 -0.670893 -0.0829332 0
M  V30 4465 H 441.038 -2.01387 0.404056 0
M  V30 4466 H 439.268 -3.47867 -1.68895 0
M  V30 4467 H 440.957 -3.80167 -1.42225 0
M  V30 4468 H 441.723 -4.7725 0.863559 0
M  V30 4469 H 437.602 -4.5967 -0.349987 0
M  V30 4470 H 441.146 -6.50137 2.52918 0
M  V30 4471 H 437.043 -6.32114 1.30776 0
M  V30 4472 H 437.811 -7.65451 2.89874 0
M  V30 4473 N 440.474 -0.00167713 -1.576 0
M  V30 4474 C 441.699 0.69739 -1.95323 0
M  V30 4475 C 442.124 1.6642 -0.876706 0
M  V30 4476 O 441.482 1.80548 0.165007 0
M  V30 4477 C 441.53 1.40403 -3.32144 0
M  V30 4478 O 440.634 2.5185 -3.26566 0
M  V30 4479 H 439.975 0.185373 -0.637599 0
M  V30 4480 H 442.505 -0.0553665 -2.04525 0
M  V30 4481 H 442.515 1.76707 -3.67748 0
M  V30 4482 H 441.19 0.695167 -4.10049 0
M  V30 4483 H 439.767 2.17861 -3.0264 0
M  V30 4484 N 441.952 1.55251 0.271103 0
M  V30 4485 C 443.201 1.75151 1.00025 0
M  V30 4486 C 443.514 0.561041 1.87381 0
M  V30 4487 O 444.72 0.642506 2.63788 0
M  V30 4488 C 443.176 3.09999 1.82835 0
M  V30 4489 C 442.784 4.3662 1.00336 0
M  V30 4490 C 444.528 3.39249 2.55168 0
M  V30 4491 C 442.435 5.62506 1.82595 0
M  V30 4492 H 441.365 0.652877 0.377183 0
M  V30 4493 H 444.016 1.81708 0.255843 0
M  V30 4494 H 442.398 2.97485 2.61378 0
M  V30 4495 H 443.572 4.60055 0.261959 0
M  V30 4496 H 441.887 4.14527 0.394486 0
M  V30 4497 H 444.484 4.3051 3.1712 0
M  V30 4498 H 444.827 2.59467 3.2555 0
M  V30 4499 H 445.36 3.52869 1.83653 0
M  V30 4500 H 442.099 6.45041 1.16631 0
M  V30 4501 H 441.619 5.43211 2.54327 0
M  V30 4502 H 443.298 6.00875 2.39913 0
M  V30 4503 N 443.43 -0.535701 1.48216 0
M  V30 4504 C 444.655 -1.32149 1.59848 0
M  V30 4505 C 445.08 -1.86338 0.256842 0
M  V30 4506 O 444.438 -1.64107 -0.770632 0
M  V30 4507 C 444.486 -2.45224 2.64381 0
M  V30 4508 O 443.59 -3.48093 2.21144 0
M  V30 4509 H 442.931 -0.391634 0.536208 0
M  V30 4510 H 445.461 -0.645202 1.94161 0
M  V30 4511 H 445.471 -2.91491 2.85476 0
M  V30 4512 H 444.146 -2.05143 3.61786 0
M  V30 4513 H 442.723 -3.07984 2.10239 0
M  V30 4514 N 444.908 -1.36708 -0.784132 0
M  V30 4515 C 445.871 -1.31307 -1.87859 0
M  V30 4516 C 446.871 -0.219654 -1.59293 0
M  V30 4517 O 448.061 -0.47476 -1.67606 0
M  V30 4518 C 445.193 -1.03679 -3.24751 0
M  V30 4519 H 446.386 -2.28647 -1.94064 0
M  V30 4520 H 443.939 -1.21558 -0.98252 0
M  V30 4521 H 444.674 -0.0681936 -3.24228 0
M  V30 4522 H 444.459 -1.82811 -3.46876 0
M  V30 4523 H 445.949 -1.02518 -4.04821 0
M  V30 4524 N 446.386 1.0089 -1.21074 0
M  V30 4525 C 447.634 1.74262 -1.02358 0
M  V30 4526 C 447.955 1.89869 0.444393 0
M  V30 4527 O 447.225 1.44677 1.32081 0
M  V30 4528 H 445.805 0.645615 -0.375754 0
M  V30 4529 H 448.467 1.21596 -1.52317 0
M  V30 4530 H 447.563 2.74328 -1.4883 0
M  V30 4531 N 447.864 1.01787 1.20321 0
M  V30 4532 C 448.794 0.609625 2.25401 0
M  V30 4533 C 449.775 -0.375951 1.65893 0
M  V30 4534 O 450.96 -0.261101 1.92437 0
M  V30 4535 C 448.09 -0.0515995 3.47262 0
M  V30 4536 C 447.044 0.855095 4.19371 0
M  V30 4537 C 446.37 0.0595757 5.34667 0
M  V30 4538 C 447.67 2.16374 4.75373 0
M  V30 4539 H 449.364 1.48803 2.59804 0
M  V30 4540 H 446.91 0.716934 1.24884 0
M  V30 4541 H 448.863 -0.348764 4.19954 0
M  V30 4542 H 447.587 -0.964726 3.12027 0
M  V30 4543 H 446.246 1.13628 3.48546 0
M  V30 4544 H 445.894 -0.85524 4.95676 0
M  V30 4545 H 445.594 0.663406 5.83843 0
M  V30 4546 H 447.118 -0.231105 6.10162 0
M  V30 4547 H 448.532 1.92885 5.39878 0
M  V30 4548 H 446.929 2.71853 5.34991 0
M  V30 4549 H 447.999 2.82589 3.94045 0
M  V30 4550 N 449.342 -1.36122 0.79427 0
M  V30 4551 C 450.619 -1.93398 0.292685 0
M  V30 4552 C 450.999 -1.72567 -1.21589 0
M  V30 4553 O 450.347 -1.08745 -2.00965 0
M  V30 4554 C 450.557 -3.42099 0.690614 0
M  V30 4555 C 451.905 -4.19231 0.673105 0
M  V30 4556 O 452.929 -3.50559 0.631389 0
M  V30 4557 O 451.788 -5.41732 0.720362 0
M  V30 4558 H 448.882 -0.823712 0.0736693 0
M  V30 4559 H 451.428 -1.45273 0.87714 0
M  V30 4560 H 450.2 -3.50938 1.73085 0
M  V30 4561 H 449.823 -3.97519 0.0803036 0
M  V30 4562 N 450.82 -0.546701 -1.47814 0
M  V30 4563 C 452.067 -0.0187407 -2.02491 0
M  V30 4564 C 452.395 1.32685 -1.42215 0
M  V30 4565 O 451.65 1.87413 -0.563454 0
M  V30 4566 C 451.949 0.134869 -3.57145 0
M  V30 4567 C 451.615 -1.13849 -4.3629 0
M  V30 4568 C 450.277 -1.48743 -4.57634 0
M  V30 4569 C 452.629 -1.98277 -4.82012 0
M  V30 4570 C 449.957 -2.67932 -5.21948 0
M  V30 4571 C 452.309 -3.16659 -5.4764 0
M  V30 4572 C 450.973 -3.51879 -5.67219 0
M  V30 4573 H 450.243 -0.0068577 -0.740968 0
M  V30 4574 H 452.89 -0.716097 -1.77607 0
M  V30 4575 H 451.195 0.915118 -3.80963 0
M  V30 4576 H 452.892 0.558556 -3.97091 0
M  V30 4577 H 449.482 -0.856767 -4.19949 0
M  V30 4578 H 453.666 -1.72628 -4.6531 0
M  V30 4579 H 448.922 -2.95401 -5.35302 0
M  V30 4580 H 453.096 -3.82374 -5.82033 0
M  V30 4581 H 450.723 -4.44331 -6.16825 0
M  V30 4582 N 452.299 1.55045 -0.282633 0
M  V30 4583 C 453.71 1.85473 0.213655 0
M  V30 4584 C 454.061 1.20465 1.54863 0
M  V30 4585 O 453.186 0.495676 2.10647 0
M  V30 4586 C 453.781 3.36496 0.394445 0
M  V30 4587 C 452.34 3.67022 0.834961 0
M  V30 4588 C 451.487 2.77218 -0.0674081 0
M  V30 4589 H 454.438 1.50478 -0.504202 0
M  V30 4590 H 454.459 3.60007 1.23186 0
M  V30 4591 H 453.971 3.83782 -0.577326 0
M  V30 4592 H 452.072 3.25241 1.81794 0
M  V30 4593 H 452.185 4.74433 0.667075 0
M  V30 4594 H 450.549 2.5069 0.450196 0
M  V30 4595 H 451.332 3.2732 -1.0352 0
M  V30 4596 N 453.777 0.010035 1.57597 0
M  V30 4597 C 455.002 -0.687021 1.95691 0
M  V30 4598 C 455.427 -1.65952 0.885519 0
M  V30 4599 O 454.785 -1.80633 -0.15543 0
M  V30 4600 C 454.833 -1.3864 3.32884 0
M  V30 4601 O 453.937 -2.50115 3.27897 0
M  V30 4602 H 453.278 -0.181989 0.638573 0
M  V30 4603 H 455.808 0.0662122 2.04493 0
M  V30 4604 H 455.818 -1.74754 3.6868 0
M  V30 4605 H 454.493 -0.673411 4.10412 0
M  V30 4606 H 453.07 -2.16253 3.03791 0
M  V30 4607 N 455.255 -1.55392 -0.262866 0
M  V30 4608 C 456.501 -1.76737 -0.99458 0
M  V30 4609 C 456.834 -0.572453 -1.85571 0
M  V30 4610 O 456.109 0.429732 -1.89693 0
M  V30 4611 C 456.392 -3.07824 -1.8686 0
M  V30 4612 C 456.245 -4.3769 -1.03672 0
M  V30 4613 C 457.564 -3.35021 -2.85393 0
M  V30 4614 H 454.683 -0.643005 -0.360157 0
M  V30 4615 H 457.325 -1.88126 -0.266216 0
M  V30 4616 H 455.475 -2.98245 -2.48962 0
M  V30 4617 H 457.147 -4.59238 -0.43563 0
M  V30 4618 H 455.39 -4.32461 -0.340513 0
M  V30 4619 H 456.061 -5.25759 -1.6817 0
M  V30 4620 H 458.537 -3.44458 -2.33426 0
M  V30 4621 H 457.413 -4.27989 -3.43681 0
M  V30 4622 H 457.674 -2.55153 -3.61039 0
M  V30 4623 N 456.733 0.527833 -1.48498 0
M  V30 4624 C 457.981 1.28101 -1.56316 0
M  V30 4625 C 458.302 1.9352 -0.239781 0
M  V30 4626 O 457.572 1.81433 0.738849 0
M  V30 4627 H 456.152 0.475793 -0.575873 0
M  V30 4628 H 458.814 0.614052 -1.84974 0
M  V30 4629 H 457.91 2.05916 -2.34532 0
M  V30 4630 N 458.211 1.37122 0.776871 0
M  V30 4631 C 459.622 1.28667 1.35284 0
M  V30 4632 C 459.973 -0.0680035 1.96082 0
M  V30 4633 O 459.098 -0.969743 1.93455 0
M  V30 4634 C 459.693 2.32997 2.45963 0
M  V30 4635 C 458.252 2.28191 2.99342 0
M  V30 4636 C 457.399 2.17101 1.72517 0
M  V30 4637 H 460.35 1.47819 0.577527 0
M  V30 4638 H 460.371 1.97366 3.2531 0
M  V30 4639 H 459.883 3.3158 2.01684 0
M  V30 4640 H 457.984 1.33115 3.4801 0
M  V30 4641 H 458.097 3.21397 3.55304 0
M  V30 4642 H 456.461 1.63562 1.95242 0
M  V30 4643 H 457.244 3.17591 1.30348 0
M  V30 4644 N 459.689 -1.00246 1.21608 0
M  V30 4645 C 460.621 -2.09244 0.935401 0
M  V30 4646 C 461.634 -1.62592 -0.0823594 0
M  V30 4647 O 462.823 -1.77865 0.150456 0
M  V30 4648 C 459.923 -3.36724 0.383453 0
M  V30 4649 C 459.096 -4.1245 1.45615 0
M  V30 4650 C 458.155 -5.18219 0.912991 0
M  V30 4651 O 457.181 -5.46337 1.59701 0
M  V30 4652 N 458.383 -5.7987 -0.270478 0
M  V30 4653 H 461.148 -2.33905 1.87373 0
M  V30 4654 H 458.709 -1.16748 1.12167 0
M  V30 4655 H 460.701 -4.047 0.00562157 0
M  V30 4656 H 459.271 -3.09201 -0.459758 0
M  V30 4657 H 458.491 -3.39241 2.00772 0
M  V30 4658 H 459.779 -4.59819 2.17817 0
M  V30 4659 H 459.177 -5.59381 -0.843195 0
M  V30 4660 H 457.734 -6.49126 -0.589794 0
M  V30 4661 N 461.167 -1.02423 -1.1978 0
M  V30 4662 C 462.117 -0.571689 -2.20716 0
M  V30 4663 C 463.101 0.377077 -1.56419 0
M  V30 4664 O 464.293 0.198801 -1.7588 0
M  V30 4665 C 461.422 0.0808555 -3.43205 0
M  V30 4666 C 460.508 -0.890073 -4.14655 0
M  V30 4667 N 460.899 -2.05065 -4.62366 0
M  V30 4668 C 459.197 -0.71252 -4.40272 0
M  V30 4669 C 459.898 -2.66264 -5.17183 0
M  V30 4670 N 458.874 -1.94264 -5.07703 0
M  V30 4671 H 462.676 -1.45636 -2.55279 0
M  V30 4672 H 460.19 -0.890596 -1.35802 0
M  V30 4673 H 462.187 0.422654 -4.14752 0
M  V30 4674 H 460.847 0.961274 -3.10144 0
M  V30 4675 H 461.858 -2.43026 -4.57339 0
M  V30 4676 H 458.535 0.119199 -4.1733 0
M  V30 4677 H 459.925 -3.64526 -5.64421 0
M  V30 4678 N 462.645 1.35699 -0.801477 0
M  V30 4679 C 463.608 2.28199 -0.213994 0
M  V30 4680 C 464.608 1.49359 0.595691 0
M  V30 4681 O 465.798 1.69186 0.414921 0
M  V30 4682 C 462.93 3.33587 0.702297 0
M  V30 4683 H 464.123 2.81666 -1.02976 0
M  V30 4684 H 461.676 1.45467 -0.571759 0
M  V30 4685 H 462.411 2.85297 1.54195 0
M  V30 4686 H 462.196 3.91906 0.123484 0
M  V30 4687 H 463.686 4.02638 1.10783 0
M  V30 4688 N 464.123 0.554532 1.47522 0
M  V30 4689 C 465.353 0.0342074 2.06572 0
M  V30 4690 C 465.761 -1.26375 1.40805 0
M  V30 4691 O 465.104 -1.7683 0.49769 0
M  V30 4692 C 465.166 -0.235096 3.5873 0
M  V30 4693 C 464.83 0.973024 4.46521 0
M  V30 4694 C 465.827 1.8779 4.848 0
M  V30 4695 C 463.512 1.18694 4.88075 0
M  V30 4696 C 465.506 2.98039 5.63428 0
M  V30 4697 C 463.193 2.29254 5.66468 0
M  V30 4698 C 464.191 3.18757 6.04055 0
M  V30 4699 O 463.879 4.27401 6.8087 0
M  V30 4700 H 463.611 0.041587 0.67472 0
M  V30 4701 H 466.165 0.766748 1.90552 0
M  V30 4702 H 464.395 -1.02191 3.72953 0
M  V30 4703 H 466.084 -0.700477 3.9981 0
M  V30 4704 H 466.85 1.72467 4.53299 0
M  V30 4705 H 462.729 0.49947 4.58286 0
M  V30 4706 H 466.273 3.67926 5.92685 0
M  V30 4707 H 462.17 2.4455 5.97382 0
M  V30 4708 H 462.938 4.25415 6.9926 0
M  V30 4709 N 465.601 -1.54893 0.290851 0
M  V30 4710 C 466.531 -2.26103 -0.583084 0
M  V30 4711 C 467.512 -1.25684 -1.14619 0
M  V30 4712 O 468.697 -1.54436 -1.17741 0
M  V30 4713 C 465.827 -2.99409 -1.75987 0
M  V30 4714 C 464.781 -4.0689 -1.32758 0
M  V30 4715 C 464.107 -4.67856 -2.58872 0
M  V30 4716 C 465.407 -5.20215 -0.46624 0
M  V30 4717 H 467.101 -2.99398 0.0108214 0
M  V30 4718 H 464.647 -1.43998 0.00664468 0
M  V30 4719 H 466.6 -3.47943 -2.37727 0
M  V30 4720 H 465.324 -2.23675 -2.37985 0
M  V30 4721 H 463.983 -3.59191 -0.733299 0
M  V30 4722 H 463.631 -3.88772 -3.19163 0
M  V30 4723 H 463.331 -5.40438 -2.30653 0
M  V30 4724 H 464.855 -5.19147 -3.21433 0
M  V30 4725 H 466.269 -5.64704 -0.989047 0
M  V30 4726 H 464.666 -5.99455 -0.27826 0
M  V30 4727 H 465.736 -4.82198 0.511173 0
M  V30 4728 N 467.08 -0.0183926 -1.57589 0
M  V30 4729 C 468.028 0.985111 -2.10709 0
M  V30 4730 C 469.022 1.34397 -1.0312 0
M  V30 4731 O 470.228 1.32746 -1.21567 0
M  V30 4732 H 466.603 0.335418 -0.673052 0
M  V30 4733 H 468.574 0.511689 -2.9398 0
M  V30 4734 C 467.323 2.26202 -2.64061 0
M  V30 4735 H 466.646 1.9946 -3.4649 0
M  V30 4736 H 468.086 2.94652 -3.04887 0
M  V30 4737 C 466.545 2.98444 -1.5631 0
M  V30 4738 O 467.075 3.90142 -0.956674 0
M  V30 4739 N 465.281 2.6059 -1.28612 0
M  V30 4740 H 464.828 1.86101 -1.78112 0
M  V30 4741 H 464.786 3.09238 -0.567406 0
M  V30 4742 N 468.558 1.5553 0.254621 0
M  V30 4743 C 469.783 1.81383 1.00573 0
M  V30 4744 C 470.208 0.594419 1.78461 0
M  V30 4745 O 469.566 -0.456403 1.75461 0
M  V30 4746 C 469.614 3.04892 1.92545 0
M  V30 4747 O 468.718 2.81266 3.01601 0
M  V30 4748 H 468.059 0.598969 0.286587 0
M  V30 4749 H 470.589 2.02703 0.277952 0
M  V30 4750 H 470.599 3.34119 2.34155 0
M  V30 4751 H 469.274 3.93287 1.3527 0
M  V30 4752 H 467.851 2.63185 2.64174 0
M  V30 4753 N 470.036 -0.519951 1.48776 0
M  V30 4754 C 471.285 -1.27175 1.56555 0
M  V30 4755 C 471.598 -1.9401 0.248869 0
M  V30 4756 O 472.804 -2.70725 0.205004 0
M  V30 4757 C 471.26 -2.30811 2.76142 0
M  V30 4758 C 470.868 -1.7 4.14493 0
M  V30 4759 C 472.612 -3.06937 2.9324 0
M  V30 4760 C 470.519 -2.71635 5.25327 0
M  V30 4761 H 469.449 -0.478329 0.582853 0
M  V30 4762 H 472.1 -0.547916 1.75129 0
M  V30 4763 H 470.482 -3.06274 2.51023 0
M  V30 4764 H 471.656 -1.00658 4.49672 0
M  V30 4765 H 469.971 -1.06331 4.02595 0
M  V30 4766 H 472.568 -3.82905 3.73213 0
M  V30 4767 H 472.911 -3.63409 2.03075 0
M  V30 4768 H 473.444 -2.38589 3.18308 0
M  V30 4769 H 470.183 -2.1997 6.1749 0
M  V30 4770 H 469.703 -3.39275 4.94624 0
M  V30 4771 H 471.382 -3.34429 5.53865 0
M  V30 4772 N 471.514 -1.37532 -0.769588 0
M  V30 4773 C 472.762 -1.32597 -1.5252 0
M  V30 4774 C 473.083 0.0884294 -1.94799 0
M  V30 4775 O 472.353 1.03289 -1.66458 0
M  V30 4776 H 470.933 -0.487846 -0.565699 0
M  V30 4777 H 473.595 -1.72044 -0.915806 0
M  V30 4778 H 472.691 -1.96643 -2.42359 0
M  V30 4779 N 472.992 0.995999 -1.22138 0
M  V30 4780 C 474.408 1.25917 -0.980667 0
M  V30 4781 C 474.608 1.98819 0.327604 0
M  V30 4782 O 473.664 2.29587 1.05101 0
M  V30 4783 C 474.977 2.07399 -2.17729 0
M  V30 4784 C 476.525 2.20594 -2.22052 0
M  V30 4785 C 477 3.05462 -3.41258 0
M  V30 4786 N 478.491 3.13049 -3.41401 0
M  V30 4787 C 479.226 3.78997 -4.30289 0
M  V30 4788 N 478.722 4.46899 -5.2939 0
M  V30 4789 N 480.515 3.75728 -4.18073 0
M  V30 4790 H 472.666 0.507158 -2.06256 0
M  V30 4791 H 474.929 0.28658 -0.903646 0
M  V30 4792 H 474.635 1.61191 -3.12586 0
M  V30 4793 H 474.509 3.08154 -2.17534 0
M  V30 4794 H 476.896 2.66017 -1.27745 0
M  V30 4795 H 476.977 1.1928 -2.26287 0
M  V30 4796 H 476.621 2.60739 -4.35864 0
M  V30 4797 H 476.551 4.06911 -3.34262 0
M  V30 4798 H 479.042 2.64721 -2.69688 0
M  V30 4799 H 479.355 4.94952 -5.935 0
M  V30 4800 H 477.7 4.45657 -5.33306 0
M  V30 4801 H 480.891 3.2184 -3.39907 0
M  V30 4802 H 481.064 4.26845 -4.87553 0
M  V30 4803 N 474.47 1.03057 1.19235 0
M  V30 4804 C 475.433 0.617418 2.20727 0
M  V30 4805 C 476.433 -0.319856 1.57587 0
M  V30 4806 O 477.623 -0.106633 1.73873 0
M  V30 4807 C 474.755 -0.096296 3.40764 0
M  V30 4808 H 475.948 1.51544 2.58794 0
M  V30 4809 H 473.501 0.821949 1.32942 0
M  V30 4810 H 474.236 -1.00859 3.08217 0
M  V30 4811 H 474.021 0.577217 3.87828 0
M  V30 4812 H 475.511 -0.372219 4.15938 0
M  V30 4813 N 475.948 -1.35272 0.808662 0
M  V30 4814 C 477.225 -1.93077 0.313181 0
M  V30 4815 C 477.605 -1.73847 -1.19752 0
M  V30 4816 O 476.953 -1.1087 -1.998 0
M  V30 4817 C 477.163 -3.41347 0.726859 0
M  V30 4818 C 478.511 -4.18493 0.717532 0
M  V30 4819 O 479.535 -3.4987 0.668535 0
M  V30 4820 O 478.394 -5.40937 0.777779 0
M  V30 4821 H 475.488 -0.822885 0.0824018 0
M  V30 4822 H 478.034 -1.44335 0.892499 0
M  V30 4823 H 476.806 -3.49082 1.76797 0
M  V30 4824 H 476.429 -3.97411 0.122461 0
M  V30 4825 N 477.426 -0.562348 -1.47226 0
M  V30 4826 C 478.656 -0.0451619 -2.06551 0
M  V30 4827 C 479.064 1.25626 -1.41473 0
M  V30 4828 O 478.407 1.76563 -0.507061 0
M  V30 4829 C 478.469 0.216068 -3.5885 0
M  V30 4830 C 478.133 -0.996691 -4.45999 0
M  V30 4831 C 479.13 -1.90358 -4.83797 0
M  V30 4832 C 476.815 -1.21281 -4.87438 0
M  V30 4833 C 478.809 -3.01023 -5.6184 0
M  V30 4834 C 476.496 -2.32255 -5.65244 0
M  V30 4835 C 477.494 -3.21956 -6.02356 0
M  V30 4836 O 477.182 -4.31005 -6.78594 0
M  V30 4837 H 476.914 -0.0451646 -0.67449 0
M  V30 4838 H 479.468 -0.776842 -1.90143 0
M  V30 4839 H 477.698 1.00212 -3.7349 0
M  V30 4840 H 479.387 0.679264 -4.00176 0
M  V30 4841 H 480.153 -1.74868 -4.52378 0
M  V30 4842 H 476.032 -0.523767 -4.58015 0
M  V30 4843 H 479.576 -3.71064 -5.90726 0
M  V30 4844 H 475.473 -2.47715 -5.96077 0
M  V30 4845 H 476.241 -4.29118 -6.96994 0
M  V30 4846 N 478.904 1.54736 -0.299062 0
M  V30 4847 C 480.15 2.00397 0.311244 0
M  V30 4848 C 480.483 1.18716 1.53688 0
M  V30 4849 O 479.758 0.263154 1.92712 0
M  V30 4850 C 480.041 3.53817 0.669761 0
M  V30 4851 C 479.894 4.46239 -0.564882 0
M  V30 4852 C 481.213 4.13856 1.49702 0
M  V30 4853 H 478.332 0.728493 0.111653 0
M  V30 4854 H 480.974 1.85506 -0.410774 0
M  V30 4855 H 479.124 3.66637 1.28491 0
M  V30 4856 H 480.796 4.45328 -1.20337 0
M  V30 4857 H 479.039 4.16916 -1.19849 0
M  V30 4858 H 479.71 5.5134 -0.269918 0
M  V30 4859 H 482.186 4.04461 0.977284 0
M  V30 4860 H 481.062 5.21365 1.71666 0
M  V30 4861 H 481.323 3.65608 2.48563 0
M  V30 4862 N 480.382 0.0267497 1.57577 0
M  V30 4863 C 481.607 -0.666227 1.96408 0
M  V30 4864 C 482.032 -1.65004 0.903071 0
M  V30 4865 O 481.39 -1.80787 -0.136263 0
M  V30 4866 C 481.438 -1.35101 3.34335 0
M  V30 4867 O 480.542 -2.46623 3.30531 0
M  V30 4868 H 479.883 -0.175206 0.640468 0
M  V30 4869 H 482.413 0.0878977 2.04411 0
M  V30 4870 H 482.423 -1.70834 3.70513 0
M  V30 4871 H 481.098 -0.629844 4.11103 0
M  V30 4872 H 479.675 -2.13019 3.06068 0
M  V30 4873 N 481.861 -1.55662 -0.24637 0
M  V30 4874 C 483.11 -1.7672 -0.972254 0
M  V30 4875 C 483.423 -0.59078 -1.86465 0
M  V30 4876 O 484.629 -0.684391 -2.62732 0
M  V30 4877 C 483.085 -3.12869 -1.7788 0
M  V30 4878 C 482.693 -4.38161 -0.933768 0
M  V30 4879 C 484.437 -3.43265 -2.49738 0
M  V30 4880 C 482.344 -5.6534 -1.73623 0
M  V30 4881 H 481.274 -0.658795 -0.366749 0
M  V30 4882 H 483.925 -1.82092 -0.226902 0
M  V30 4883 H 482.307 -3.01606 -2.56612 0
M  V30 4884 H 483.481 -4.60413 -0.188736 0
M  V30 4885 H 481.796 -4.15102 -0.328488 0
M  V30 4886 H 484.393 -4.35501 -3.10231 0
M  V30 4887 H 484.736 -2.64614 -3.2138 0
M  V30 4888 H 485.269 -3.55746 -1.78016 0
M  V30 4889 H 482.008 -6.46814 -1.06354 0
M  V30 4890 H 481.528 -5.47188 -2.45653 0
M  V30 4891 H 483.207 -6.04616 -2.30323 0
M  V30 4892 N 483.339 0.512053 -1.4905 0
M  V30 4893 C 484.567 1.29116 -1.61669 0
M  V30 4894 C 484.982 1.86655 -0.283787 0
M  V30 4895 O 484.339 1.67293 0.729331 0
M  V30 4896 C 484.39 2.4293 -2.67707 0
M  V30 4897 O 484.111 1.87758 -3.95826 0
M  V30 4898 C 485.612 3.34476 -2.90931 0
M  V30 4899 H 482.832 0.392009 -0.544583 0
M  V30 4900 H 485.376 0.615881 -1.95006 0
M  V30 4901 H 483.531 3.06308 -2.37179 0
M  V30 4902 H 483.945 2.62393 -4.54148 0
M  V30 4903 H 485.419 4.10642 -3.68886 0
M  V30 4904 H 485.896 3.90801 -2.00427 0
M  V30 4905 H 486.502 2.76874 -3.22832 0
M  V30 4906 N 484.817 1.37938 0.762283 0
M  V30 4907 C 486.094 1.24196 1.51112 0
M  V30 4908 C 486.474 -0.160409 2.1049 0
M  V30 4909 O 485.822 -1.16904 1.96331 0
M  V30 4910 C 486.032 2.34537 2.58445 0
M  V30 4911 C 487.38 2.7254 3.25588 0
M  V30 4912 O 488.404 2.33783 2.68745 0
M  V30 4913 O 487.263 3.39343 4.28379 0
M  V30 4914 H 484.357 0.485175 0.669727 0
M  V30 4915 H 486.903 1.49743 0.798438 0
M  V30 4916 H 485.675 3.28406 2.12756 0
M  V30 4917 H 485.298 2.10505 3.37303 0
M  V30 4918 N 486.295 -0.989507 1.22664 0
M  V30 4919 C 487.572 -1.70326 0.961688 0
M  V30 4920 C 487.952 -2.04537 -0.522279 0
M  V30 4921 O 487.3 -1.73136 -1.49118 0
M  V30 4922 C 487.51 -2.95135 1.86269 0
M  V30 4923 C 488.858 -3.67842 2.12078 0
M  V30 4924 O 489.882 -3.0515 1.83745 0
M  V30 4925 O 488.741 -4.80644 2.60083 0
M  V30 4926 H 485.835 -0.743589 0.361946 0
M  V30 4927 H 488.381 -1.04555 1.33665 0
M  V30 4928 H 487.153 -2.66382 2.8663 0
M  V30 4929 H 486.776 -3.68645 1.48952 0
M  V30 4930 N 487.773 -1.03688 -1.18687 0
M  V30 4931 C 488.683 -0.634908 -2.25845 0
M  V30 4932 C 489.699 0.337065 -1.70704 0
M  V30 4933 O 490.875 0.192943 -2.00474 0
M  V30 4934 C 487.94 -0.000180054 -3.467 0
M  V30 4935 C 487.001 -1.02067 -4.1699 0
M  V30 4936 C 486.234 -0.41614 -5.32075 0
M  V30 4937 O 486.457 0.778712 -5.65059 0
M  V30 4938 O 485.391 -1.14296 -5.90948 0
M  V30 4939 H 489.217 -1.52757 -2.62486 0
M  V30 4940 H 486.802 -0.807533 -1.25695 0
M  V30 4941 H 488.684 0.353342 -4.19916 0
M  V30 4942 H 487.359 0.866367 -3.11891 0
M  V30 4943 H 486.266 -1.42592 -3.45859 0
M  V30 4944 H 487.599 -1.85786 -4.5579 0
M  V30 4945 N 489.251 1.34841 -0.815825 0
M  V30 4946 C 490.214 2.27959 -0.238185 0
M  V30 4947 C 491.214 1.49983 0.579816 0
M  V30 4948 O 492.404 1.69617 0.396953 0
M  V30 4949 C 489.536 3.34314 0.666876 0
M  V30 4950 H 490.729 2.80558 -1.05958 0
M  V30 4951 H 488.282 1.44852 -0.587156 0
M  V30 4952 H 489.017 2.86916 1.5116 0
M  V30 4953 H 488.802 3.92014 0.0819106 0
M  V30 4954 H 490.292 4.0379 1.06506 0
M  V30 4955 N 490.729 0.570148 1.46925 0
M  V30 4956 C 491.659 -0.158274 2.32963 0
M  V30 4957 C 492.64 -0.896093 1.44583 0
M  V30 4958 O 493.825 -0.874022 1.7342 0
M  V30 4959 C 490.955 -1.18055 3.26619 0
M  V30 4960 C 489.909 -0.558379 4.24342 0
M  V30 4961 C 489.235 -1.68623 5.07415 0
M  V30 4962 C 490.535 0.496295 5.19937 0
M  V30 4963 H 492.229 0.560046 2.94115 0
M  V30 4964 H 489.775 0.270775 1.41431 0
M  V30 4965 H 491.728 -1.69841 3.85658 0
M  V30 4966 H 490.452 -1.92899 2.63548 0
M  V30 4967 H 489.111 -0.0617157 3.66548 0
M  V30 4968 H 488.759 -2.42402 4.40738 0
M  V30 4969 H 488.459 -1.27564 5.73586 0
M  V30 4970 H 489.983 -2.20709 5.69315 0
M  V30 4971 H 491.397 0.0640052 5.73264 0
M  V30 4972 H 489.794 0.82649 5.94381 0
M  V30 4973 H 490.864 1.38735 4.6463 0
M  V30 4974 N 492.207 -1.54576 0.307264 0
M  V30 4975 C 493.117 -2.27435 -0.57536 0
M  V30 4976 C 494.133 -1.31183 -1.14311 0
M  V30 4977 O 495.309 -1.64175 -1.16656 0
M  V30 4978 C 492.374 -3.00566 -1.72803 0
M  V30 4979 C 491.435 -4.12369 -1.19373 0
M  V30 4980 C 490.668 -4.82003 -2.29147 0
M  V30 4981 O 490.891 -4.51038 -3.49171 0
M  V30 4982 O 489.825 -5.69271 -1.95485 0
M  V30 4983 H 493.651 -3.03696 0.0158558 0
M  V30 4984 H 491.236 -1.49219 0.0735064 0
M  V30 4985 H 493.118 -3.46416 -2.39946 0
M  V30 4986 H 491.793 -2.27195 -2.30574 0
M  V30 4987 H 490.7 -3.70905 -0.487851 0
M  V30 4988 H 492.033 -4.87736 -0.661376 0
M  V30 4989 N 493.685 -0.035106 -1.57561 0
M  V30 4990 C 494.648 0.929819 -2.09492 0
M  V30 4991 C 495.648 1.25026 -1.01119 0
M  V30 4992 O 496.838 1.18961 -1.27255 0
M  V30 4993 C 493.97 2.24457 -2.56577 0
M  V30 4994 H 495.163 0.479935 -2.96035 0
M  V30 4995 H 492.716 0.213033 -1.54841 0
M  V30 4996 H 493.451 2.74061 -1.73382 0
M  V30 4997 H 493.236 2.02508 -3.35757 0
M  V30 4998 H 494.726 2.93607 -2.96959 0
M  V30 4999 N 495.163 1.55791 0.238111 0
M  V30 5000 C 496.41 1.78033 0.964907 0
M  V30 5001 C 496.738 0.600984 1.84982 0
M  V30 5002 O 495.993 -0.41536 1.91241 0
M  V30 5003 C 496.292 3.05869 1.84875 0
M  V30 5004 C 495.958 4.36808 1.11846 0
M  V30 5005 C 494.62 4.72388 0.916662 0
M  V30 5006 C 496.972 5.17717 0.60151 0
M  V30 5007 C 494.3 5.86406 0.185756 0
M  V30 5008 C 496.652 6.32494 -0.115972 0
M  V30 5009 C 495.316 6.66688 -0.329168 0
M  V30 5010 H 494.586 0.651469 0.353085 0
M  V30 5011 H 497.233 1.90061 0.234318 0
M  V30 5012 H 495.538 2.88891 2.64668 0
M  V30 5013 H 497.235 3.20278 2.41294 0
M  V30 5014 H 493.825 4.08862 1.28569 0
M  V30 5015 H 498.009 4.90678 0.744932 0
M  V30 5016 H 493.265 6.11399 0.0101886 0
M  V30 5017 H 497.439 6.94425 -0.524127 0
M  V30 5018 H 495.066 7.54884 -0.897474 0
M  V30 5019 N 496.642 -0.504142 1.49319 0
M  V30 5020 C 497.589 -1.60603 1.65756 0
M  V30 5021 C 498.559 -1.58425 0.499082 0
M  V30 5022 O 499.744 -1.76459 0.725728 0
M  V30 5023 C 496.884 -2.98764 1.72726 0
M  V30 5024 C 495.997 -3.10982 2.99857 0
M  V30 5025 C 495.132 -4.39857 2.97824 0
M  V30 5026 C 494.171 -4.45697 4.19548 0
M  V30 5027 N 493.308 -5.65995 4.15444 0
M  V30 5028 H 498.148 -1.45895 2.59843 0
M  V30 5029 H 495.685 -0.709891 1.28837 0
M  V30 5030 H 497.643 -3.78839 1.74747 0
M  V30 5031 H 496.273 -3.12183 0.821075 0
M  V30 5032 H 495.325 -2.23991 3.07461 0
M  V30 5033 H 496.637 -3.11157 3.89849 0
M  V30 5034 H 495.791 -5.2825 2.98391 0
M  V30 5035 H 494.53 -4.42242 2.05604 0
M  V30 5036 H 493.535 -3.55707 4.19229 0
M  V30 5037 H 494.76 -4.4503 5.12957 0
M  V30 5038 H 492.706 -5.69229 3.26059 0
M  V30 5039 H 492.623 -5.67773 4.99169 0
M  V30 5040 H 493.891 -6.56604 4.20109 0
M  V30 5041 N 498.12 -1.38341 -0.754957 0
M  V30 5042 C 499.348 -1.37704 -1.54419 0
M  V30 5043 C 499.763 0.0335243 -1.8877 0
M  V30 5044 O 499.12 0.999773 -1.52679 0
M  V30 5045 C 499.171 -2.23136 -2.84416 0
M  V30 5046 O 498.892 -3.58697 -2.51531 0
M  V30 5047 C 500.393 -2.30664 -3.78562 0
M  V30 5048 H 497.613 -0.471061 -0.477852 0
M  V30 5049 H 500.157 -1.81902 -0.934446 0
M  V30 5050 H 498.312 -1.82403 -3.41772 0
M  V30 5051 H 498.726 -4.03665 -3.34896 0
M  V30 5052 H 500.2 -2.9473 -4.66732 0
M  V30 5053 H 500.677 -1.3199 -4.18898 0
M  V30 5054 H 501.283 -2.71781 -3.27131 0
M  V30 5055 N 499.598 0.982988 -1.23187 0
M  V30 5056 C 500.528 2.09301 -1.03515 0
M  V30 5057 C 501.509 1.70035 0.0471136 0
M  V30 5058 O 502.694 1.93847 -0.117029 0
M  V30 5059 C 499.824 3.4167 -0.622791 0
M  V30 5060 C 498.778 3.94828 -1.65211 0
M  V30 5061 C 498.104 5.23362 -1.09527 0
M  V30 5062 C 499.404 4.2439 -3.04451 0
M  V30 5063 H 501.098 2.26016 -1.96359 0
M  V30 5064 H 498.644 1.08611 -0.945501 0
M  V30 5065 H 500.597 4.18746 -0.472233 0
M  V30 5066 H 499.321 3.24811 0.341329 0
M  V30 5067 H 497.98 3.19895 -1.79061 0
M  V30 5068 H 497.628 5.02852 -0.122211 0
M  V30 5069 H 497.328 5.59895 -1.783 0
M  V30 5070 H 498.852 6.03062 -0.956511 0
M  V30 5071 H 500.266 4.92225 -2.93917 0
M  V30 5072 H 498.663 4.72118 -3.70438 0
M  V30 5073 H 499.733 3.31765 -3.53638 0
M  V30 5074 N 501.076 1.04316 1.18135 0
M  V30 5075 C 502.316 0.756937 1.89868 0
M  V30 5076 C 502.68 -0.702609 1.78682 0
M  V30 5077 O 503.881 -1.10255 2.45148 0
M  V30 5078 C 502.152 1.21327 3.36176 0
M  V30 5079 S 503.711 1.05307 4.25976 0
M  V30 5080 H 500.529 0.275143 0.655604 0
M  V30 5081 H 503.131 1.33597 1.42731 0
M  V30 5082 H 501.835 2.27086 3.41848 0
M  V30 5083 H 501.366 0.628137 3.88353 0
M  V30 5084 H 503.381 -0.0280093 4.96192 0
M  V30 5085 N 502.554 -1.34406 0.822964 0
M  V30 5086 C 503.97 -1.51275 0.508727 0
M  V30 5087 C 504.17 -1.76776 -0.967083 0
M  V30 5088 O 503.226 -1.81871 -1.75155 0
M  V30 5089 C 504.539 -2.67765 1.36829 0
M  V30 5090 C 506.087 -2.81647 1.36542 0
M  V30 5091 C 506.562 -4.01181 2.20947 0
M  V30 5092 N 508.053 -4.08388 2.18571 0
M  V30 5093 C 508.788 -5.00036 2.80627 0
M  V30 5094 N 508.284 -5.96906 3.51674 0
M  V30 5095 N 510.077 -4.92908 2.70181 0
M  V30 5096 H 502.228 -1.16113 1.77852 0
M  V30 5097 H 504.491 -0.56947 0.757897 0
M  V30 5098 H 504.197 -2.55551 2.41633 0
M  V30 5099 H 504.071 -3.62779 1.03303 0
M  V30 5100 H 506.458 -2.93303 0.325163 0
M  V30 5101 H 506.539 -1.87443 1.74066 0
M  V30 5102 H 506.183 -3.90286 3.25022 0
M  V30 5103 H 506.113 -4.94599 1.80774 0
M  V30 5104 H 508.604 -3.39051 1.66891 0
M  V30 5105 H 508.917 -6.63468 3.96271 0
M  V30 5106 H 507.262 -5.9703 3.5578 0
M  V30 5107 H 510.453 -4.1619 2.14251 0
M  V30 5108 H 510.626 -5.64137 3.18831 0
M  V30 5109 N 504.032 -0.577932 -1.46621 0
M  V30 5110 C 504.982 0.178869 -2.27297 0
M  V30 5111 C 505.966 0.866279 -1.35589 0
M  V30 5112 O 507.158 0.761163 -1.59798 0
M  V30 5113 C 504.287 1.19499 -3.2183 0
M  V30 5114 C 503.373 0.50994 -4.21023 0
M  V30 5115 N 503.764 -0.43177 -5.03954 0
M  V30 5116 C 502.062 0.761287 -4.39455 0
M  V30 5117 C 502.763 -0.831693 -5.75724 0
M  V30 5118 N 501.739 -0.181897 -5.43296 0
M  V30 5119 H 505.541 -0.544859 -2.88805 0
M  V30 5120 H 503.055 -0.399373 -1.57413 0
M  V30 5121 H 505.052 1.75131 -3.78332 0
M  V30 5122 H 503.712 1.91959 -2.61881 0
M  V30 5123 H 504.723 -0.807045 -5.11573 0
M  V30 5124 H 501.4 1.47282 -3.90659 0
M  V30 5125 H 502.79 -1.6067 -6.52407 0
M  V30 5126 N 505.51 1.54411 -0.315457 0
M  V30 5127 C 506.42 2.27737 0.56329 0
M  V30 5128 C 507.436 1.31787 1.13614 0
M  V30 5129 O 508.612 1.64791 1.15784 0
M  V30 5130 C 505.677 3.01478 1.71207 0
M  V30 5131 C 504.738 4.12997 1.17185 0
M  V30 5132 C 503.971 4.83212 2.26588 0
M  V30 5133 O 504.194 4.52884 3.46775 0
M  V30 5134 O 503.128 5.70299 1.92463 0
M  V30 5135 H 506.954 3.03683 -0.0319614 0
M  V30 5136 H 504.539 1.49178 -0.0814188 0
M  V30 5137 H 506.421 3.47683 2.38106 0
M  V30 5138 H 505.096 2.28414 2.29366 0
M  V30 5139 H 504.003 3.71159 0.468174 0
M  V30 5140 H 505.336 4.8808 0.635501 0
M  V30 5141 N 506.988 0.0434614 1.5754 0
M  V30 5142 C 508.236 -0.630786 1.92004 0
M  V30 5143 C 508.557 -1.71836 0.921807 0
M  V30 5144 O 507.827 -1.9587 -0.034522 0
M  V30 5145 H 506.407 -0.235988 0.708745 0
M  V30 5146 H 509.069 0.0946462 1.9467 0
M  V30 5147 H 508.165 -1.07434 2.93026 0
M  V30 5148 N 508.466 -1.55915 -0.229846 0
M  V30 5149 C 509.715 -1.77742 -0.953455 0
M  V30 5150 C 510.028 -0.610524 -1.85828 0
M  V30 5151 O 511.234 -0.712219 -2.61992 0
M  V30 5152 C 509.69 -3.14738 -1.74551 0
M  V30 5153 C 509.298 -4.39126 -0.887242 0
M  V30 5154 C 511.042 -3.45895 -2.46084 0
M  V30 5155 C 508.949 -5.67149 -1.67617 0
M  V30 5156 H 507.879 -0.662648 -0.359741 0
M  V30 5157 H 510.53 -1.82322 -0.207576 0
M  V30 5158 H 508.912 -3.04311 -2.53399 0
M  V30 5159 H 510.086 -4.60588 -0.139892 0
M  V30 5160 H 508.401 -4.15427 -0.284443 0
M  V30 5161 H 510.998 -4.38767 -3.05594 0
M  V30 5162 H 511.341 -2.68007 -3.18556 0
M  V30 5163 H 511.874 -3.57614 -1.74233 0
M  V30 5164 H 508.613 -6.47906 -0.994881 0
M  V30 5165 H 508.133 -5.49763 -2.39836 0
M  V30 5166 H 509.812 -6.07025 -2.23898 0
M  V30 5167 N 509.944 0.496216 -1.49584 0
M  V30 5168 C 511.193 1.24668 -1.58558 0
M  V30 5169 C 511.506 1.9359 -0.279703 0
M  V30 5170 O 512.712 2.70365 -0.248048 0
M  V30 5171 C 511.168 2.26388 -2.79779 0
M  V30 5172 C 510.776 1.63384 -4.17145 0
M  V30 5173 C 512.52 3.02233 -2.98086 0
M  V30 5174 C 510.427 2.63243 -5.29582 0
M  V30 5175 H 509.357 0.468995 -0.590389 0
M  V30 5176 H 512.008 0.519985 -1.75978 0
M  V30 5177 H 510.39 3.02241 -2.55863 0
M  V30 5178 H 511.564 0.93491 -4.51216 0
M  V30 5179 H 509.879 0.999121 -4.04236 0
M  V30 5180 H 512.476 3.76919 -3.79257 0
M  V30 5181 H 512.819 3.60132 -2.08831 0
M  V30 5182 H 513.352 2.33495 -3.22063 0
M  V30 5183 H 510.091 2.10119 -6.20911 0
M  V30 5184 H 509.611 3.31363 -4.99959 0
M  V30 5185 H 511.29 3.25575 -5.59115 0
M  V30 5186 N 511.423 1.38739 0.74761 0
M  V30 5187 C 512.834 1.31507 1.32524 0
M  V30 5188 C 513.185 -0.0263963 1.96182 0
M  V30 5189 O 512.31 -0.92849 1.95469 0
M  V30 5190 C 512.905 2.38162 2.40966 0
M  V30 5191 C 511.464 2.34489 2.94434 0
M  V30 5192 C 510.611 2.20712 1.67873 0
M  V30 5193 H 513.562 1.4901 0.546043 0
M  V30 5194 H 513.583 2.04222 3.21051 0
M  V30 5195 H 513.095 3.35783 1.94605 0
M  V30 5196 H 511.196 1.40467 3.45108 0
M  V30 5197 H 511.309 3.28861 3.48407 0
M  V30 5198 H 509.673 1.67667 1.91729 0
M  V30 5199 H 510.456 3.20285 1.23582 0
M  V30 5200 N 512.901 -0.976442 1.23707 0
M  V30 5201 C 513.864 -2.0511 1.02287 0
M  V30 5202 C 514.864 -1.60791 -0.0167195 0
M  V30 5203 O 516.054 -1.72761 0.223408 0
M  V30 5204 C 513.186 -3.36458 0.548507 0
M  V30 5205 H 514.379 -2.25545 1.9766 0
M  V30 5206 H 511.932 -1.15042 1.05806 0
M  V30 5207 H 512.667 -3.21713 -0.408818 0
M  V30 5208 H 512.452 -3.69967 1.29874 0
M  V30 5209 H 513.942 -4.15489 0.419406 0
M  V30 5210 N 514.379 -1.04941 -1.1758 0
M  V30 5211 C 515.309 -0.669172 -2.23706 0
M  V30 5212 C 516.29 0.331835 -1.66832 0
M  V30 5213 O 517.475 0.209988 -1.93061 0
M  V30 5214 C 514.605 -0.0404889 -3.47276 0
M  V30 5215 C 513.559 -0.965983 -4.16957 0
M  V30 5216 C 512.885 -0.201312 -5.34321 0
M  V30 5217 C 514.185 -2.28902 -4.69469 0
M  V30 5218 H 515.879 -1.55639 -2.55767 0
M  V30 5219 H 513.425 -0.749793 -1.22939 0
M  V30 5220 H 515.378 0.237298 -4.20731 0
M  V30 5221 H 514.102 0.881658 -3.14475 0
M  V30 5222 H 512.761 -1.22829 -3.45411 0
M  V30 5223 H 512.409 0.723519 -4.97769 0
M  V30 5224 H 512.109 -0.817968 -5.81879 0
M  V30 5225 H 513.633 0.0692499 -6.10561 0
M  V30 5226 H 515.047 -2.07132 -5.34574 0
M  V30 5227 H 513.444 -2.85942 -5.27596 0
M  V30 5228 H 514.514 -2.92937 -3.86414 0
M  V30 5229 N 515.857 1.33968 -0.830081 0
M  V30 5230 C 516.767 2.33164 -0.259207 0
M  V30 5231 C 517.783 1.62951 0.610164 0
M  V30 5232 O 518.959 1.94668 0.516369 0
M  V30 5233 C 516.024 3.42088 0.563598 0
M  V30 5234 C 515.085 4.28037 -0.329014 0
M  V30 5235 C 514.318 5.3176 0.454616 0
M  V30 5236 O 514.541 5.44876 1.6872 0
M  V30 5237 O 513.475 6.01669 -0.166794 0
M  V30 5238 H 517.301 2.83832 -1.08041 0
M  V30 5239 H 514.886 1.37154 -0.59239 0
M  V30 5240 H 516.768 4.08581 1.03147 0
M  V30 5241 H 515.443 2.93651 1.36201 0
M  V30 5242 H 514.35 3.64443 -0.844538 0
M  V30 5243 H 515.683 4.79934 -1.09196 0
M  V30 5244 N 517.335 0.585699 1.46312 0
M  V30 5245 C 518.56 0.0762461 2.0726 0
M  V30 5246 C 518.985 -1.22071 1.43109 0
M  V30 5247 O 518.343 -1.73804 0.515942 0
M  V30 5248 C 518.391 -0.0729404 3.60526 0
M  V30 5249 O 517.495 -1.1287 3.96654 0
M  V30 5250 H 516.836 0.0641558 0.660893 0
M  V30 5251 H 519.366 0.809492 1.87905 0
M  V30 5252 H 519.376 -0.278158 4.07051 0
M  V30 5253 H 518.051 0.874188 4.06609 0
M  V30 5254 H 516.628 -0.901703 3.61834 0
M  V30 5255 N 518.813 -1.54241 0.323641 0
M  V30 5256 C 520.038 -2.05452 -0.283605 0
M  V30 5257 C 520.463 -1.19823 -1.44997 0
M  V30 5258 O 519.821 -0.207358 -1.8011 0
M  V30 5259 C 519.869 -3.53823 -0.695795 0
M  V30 5260 O 518.973 -3.71134 -1.79815 0
M  V30 5261 H 518.314 -0.662024 -0.0511917 0
M  V30 5262 H 520.844 -1.99079 0.472073 0
M  V30 5263 H 520.854 -3.96094 -0.978434 0
M  V30 5264 H 519.529 -4.15602 0.157287 0
M  V30 5265 H 518.106 -3.40768 -1.51431 0
M  V30 5266 N 520.291 -0.0518155 -1.57515 0
M  V30 5267 C 521.241 0.932017 -2.0808 0
M  V30 5268 C 522.225 1.27141 -0.986098 0
M  V30 5269 O 523.417 1.25373 -1.24943 0
M  V30 5270 C 520.546 2.20665 -2.62986 0
M  V30 5271 C 519.632 1.89462 -3.79427 0
M  V30 5272 N 520.023 1.28621 -4.89173 0
M  V30 5273 C 518.321 2.19327 -3.88345 0
M  V30 5274 C 519.022 1.15062 -5.70207 0
M  V30 5275 N 517.998 1.65372 -5.17835 0
M  V30 5276 H 521.8 0.456964 -2.90326 0
M  V30 5277 H 519.314 0.152619 -1.61681 0
M  V30 5278 H 521.311 2.92044 -2.97516 0
M  V30 5279 H 519.971 2.68776 -1.8218 0
M  V30 5280 H 520.982 0.958341 -5.08956 0
M  V30 5281 H 517.659 2.69955 -3.18482 0
M  V30 5282 H 519.049 0.678243 -6.68468 0
M  V30 5283 N 521.769 1.56035 0.221574 0
M  V30 5284 C 522.732 1.91584 1.2581 0
M  V30 5285 C 523.732 0.794425 1.39805 0
M  V30 5286 O 524.922 1.06217 1.38071 0
M  V30 5287 C 522.054 2.16663 2.63192 0
M  V30 5288 H 523.247 2.8429 0.954935 0
M  V30 5289 H 520.8 1.49316 0.461988 0
M  V30 5290 H 521.535 1.26508 2.98607 0
M  V30 5291 H 521.32 2.98358 2.5441 0
M  V30 5292 H 522.81 2.45262 3.37988 0
M  V30 5293 N 523.247 -0.488276 1.49845 0
M  V30 5294 C 524.177 -1.59675 1.70371 0
M  V30 5295 C 525.158 -1.60878 0.552473 0
M  V30 5296 O 526.343 -1.77417 0.78973 0
M  V30 5297 C 523.473 -2.98098 1.782 0
M  V30 5298 C 522.427 -3.11761 2.93239 0
M  V30 5299 C 521.753 -4.51661 2.86193 0
M  V30 5300 C 523.053 -2.90589 4.33999 0
M  V30 5301 H 524.747 -1.42752 2.63177 0
M  V30 5302 H 522.293 -0.685317 1.26647 0
M  V30 5303 H 524.246 -3.75555 1.91144 0
M  V30 5304 H 522.97 -3.16138 0.820018 0
M  V30 5305 H 521.629 -2.36732 2.79917 0
M  V30 5306 H 521.277 -4.66595 1.87877 0
M  V30 5307 H 520.977 -4.61742 3.63412 0
M  V30 5308 H 522.501 -5.31162 3.01163 0
M  V30 5309 H 523.915 -3.57807 4.47936 0
M  V30 5310 H 522.312 -3.1213 5.12538 0
M  V30 5311 H 523.382 -1.86595 4.4756 0
M  V30 5312 N 524.725 -1.39134 -0.740242 0
M  V30 5313 C 525.688 -1.37217 -1.83587 0
M  V30 5314 C 526.688 -0.270221 -1.58513 0
M  V30 5315 O 527.878 -0.527843 -1.6601 0
M  V30 5316 C 525.01 -1.13959 -3.21288 0
M  V30 5317 H 526.203 -2.34705 -1.86691 0
M  V30 5318 H 523.756 -1.24622 -0.94335 0
M  V30 5319 H 524.491 -0.17131 -3.23847 0
M  V30 5320 H 524.276 -1.93754 -3.40884 0
M  V30 5321 H 525.766 -1.15346 -4.01354 0
M  V30 5322 N 526.204 0.969867 -1.24223 0
M  V30 5323 C 527.154 2.04913 -0.999732 0
M  V30 5324 C 528.138 1.60795 0.0580636 0
M  V30 5325 O 529.33 1.76317 -0.155392 0
M  V30 5326 C 526.459 3.37942 -0.604154 0
M  V30 5327 C 525.545 3.88628 -1.69791 0
M  V30 5328 N 525.936 4.12274 -2.93025 0
M  V30 5329 C 524.234 4.17268 -1.57492 0
M  V30 5330 C 524.935 4.53808 -3.63914 0
M  V30 5331 N 523.911 4.58855 -2.91468 0
M  V30 5332 H 527.713 2.21168 -1.93551 0
M  V30 5333 H 525.227 1.15349 -1.14317 0
M  V30 5334 H 527.224 4.14863 -0.411665 0
M  V30 5335 H 525.884 3.23075 0.324465 0
M  V30 5336 H 526.895 3.99789 -3.29225 0
M  V30 5337 H 523.572 4.11346 -0.714175 0
M  V30 5338 H 524.962 4.80534 -4.69614 0
M  V30 5339 N 527.682 1.05563 1.17022 0
M  V30 5340 C 528.645 0.664098 2.19368 0
M  V30 5341 C 529.645 -0.286358 1.5823 0
M  V30 5342 O 530.835 -0.069728 1.7406 0
M  V30 5343 C 527.967 -0.0239932 3.40892 0
M  V30 5344 H 529.16 1.57 2.55521 0
M  V30 5345 H 526.713 0.849964 1.31169 0
M  V30 5346 H 527.448 -0.942988 3.10287 0
M  V30 5347 H 527.233 0.659351 3.86516 0
M  V30 5348 H 528.723 -0.283909 4.16634 0
M  V30 5349 N 529.16 -1.33526 0.837174 0
M  V30 5350 C 530.09 -2.31764 0.284206 0
M  V30 5351 C 531.071 -1.58896 -0.607142 0
M  V30 5352 O 532.256 -1.86798 -0.531047 0
M  V30 5353 C 529.386 -3.43029 -0.542962 0
M  V30 5354 C 528.34 -4.27255 0.252451 0
M  V30 5355 C 527.666 -5.3012 -0.69836 0
M  V30 5356 C 528.966 -5.01229 1.46858 0
M  V30 5357 H 530.66 -2.78262 1.10502 0
M  V30 5358 H 528.206 -1.3378 0.532812 0
M  V30 5359 H 530.159 -4.1078 -0.940096 0
M  V30 5360 H 528.883 -2.95216 -1.39697 0
M  V30 5361 H 527.542 -3.61127 0.631124 0
M  V30 5362 H 527.19 -4.78564 -1.54872 0
M  V30 5363 H 526.89 -5.87353 -0.170274 0
M  V30 5364 H 528.414 -6.00737 -1.09305 0
M  V30 5365 H 529.828 -5.61756 1.14469 0
M  V30 5366 H 528.225 -5.68104 1.93333 0
M  V30 5367 H 529.295 -4.301 2.23924 0
M  V30 5368 N 530.638 -0.59345 -1.46 0
M  V30 5369 C 531.585 0.133618 -2.30413 0
M  V30 5370 C 532.555 0.873736 -1.41262 0
M  V30 5371 O 533.74 0.862279 -1.70204 0
M  V30 5372 C 530.88 1.13434 -3.25924 0
M  V30 5373 C 529.993 0.39656 -4.30176 0
M  V30 5374 C 529.128 1.38575 -5.12806 0
M  V30 5375 C 528.167 0.634984 -6.08797 0
M  V30 5376 N 527.304 1.57276 -6.84258 0
M  V30 5377 H 532.144 -0.592252 -2.92055 0
M  V30 5378 H 529.681 -0.303874 -1.43927 0
M  V30 5379 H 531.639 1.72752 -3.79753 0
M  V30 5380 H 530.269 1.82779 -2.66067 0
M  V30 5381 H 529.321 -0.311861 -3.79119 0
M  V30 5382 H 530.633 -0.189869 -4.98438 0
M  V30 5383 H 529.787 2.05141 -5.70966 0
M  V30 5384 H 528.526 2.00611 -4.44529 0
M  V30 5385 H 527.531 -0.0443925 -5.49782 0
M  V30 5386 H 528.756 0.0198678 -6.79097 0
M  V30 5387 H 526.702 2.18103 -6.18682 0
M  V30 5388 H 526.619 1.03941 -7.48821 0
M  V30 5389 H 527.887 2.22844 -7.46968 0
M  V30 5390 N 532.116 1.54067 -0.331816 0
M  V30 5391 C 533.049 2.20886 0.573127 0
M  V30 5392 C 534.027 1.18876 1.10938 0
M  V30 5393 O 535.211 1.47649 1.17184 0
M  V30 5394 C 532.338 2.87706 1.78726 0
M  V30 5395 C 531.384 4.03505 1.38152 0
M  V30 5396 S 532.217 5.33919 0.41123 0
M  V30 5397 C 533.373 6.04236 1.63246 0
M  V30 5398 H 533.606 2.97299 0.00555737 0
M  V30 5399 H 531.139 1.53964 -0.115893 0
M  V30 5400 H 533.097 3.26825 2.48386 0
M  V30 5401 H 531.758 2.1108 2.32603 0
M  V30 5402 H 530.951 4.49152 2.28645 0
M  V30 5403 H 530.553 3.66102 0.764524 0
M  V30 5404 H 532.845 6.26917 2.56869 0
M  V30 5405 H 533.788 6.97546 1.218 0
M  V30 5406 H 534.196 5.34247 1.82318 0
M  V30 5407 N 533.594 0.0601682 1.57485 0
M  V30 5408 C 534.527 -0.94676 2.07634 0
M  V30 5409 C 535.505 -1.29837 0.978826 0
M  V30 5410 O 536.689 -1.40969 1.2514 0
M  V30 5411 C 533.816 -2.25822 2.52433 0
M  V30 5412 C 532.862 -2.05901 3.73507 0
M  V30 5413 S 533.695 -1.32907 5.18745 0
M  V30 5414 C 534.851 -2.65356 5.66866 0
M  V30 5415 H 535.084 -0.520003 2.92717 0
M  V30 5416 H 532.617 -0.152319 1.53647 0
M  V30 5417 H 534.575 -3.01201 2.78905 0
M  V30 5418 H 533.236 -2.65624 1.67639 0
M  V30 5419 H 532.429 -3.02929 4.02803 0
M  V30 5420 H 532.031 -1.38659 3.47347 0
M  V30 5421 H 534.323 -3.61492 5.73001 0
M  V30 5422 H 535.266 -2.40685 6.6594 0
M  V30 5423 H 535.674 -2.72028 4.94632 0
M  V30 5424 N 535.072 -1.5615 -0.213296 0
M  V30 5425 C 536.488 -1.49327 -0.56336 0
M  V30 5426 C 536.688 -0.756826 -1.86747 0
M  V30 5427 O 535.744 -0.299866 -2.50713 0
M  V30 5428 C 537.057 -2.9392 -0.634944 0
M  V30 5429 C 538.605 -3.04487 -0.725013 0
M  V30 5430 C 539.08 -4.50456 -0.82787 0
M  V30 5431 N 540.571 -4.54533 -0.891876 0
M  V30 5432 C 541.306 -5.64766 -0.991315 0
M  V30 5433 N 540.802 -6.84733 -1.05419 0
M  V30 5434 N 542.595 -5.52637 -1.02709 0
M  V30 5435 H 534.746 -2.02453 0.642366 0
M  V30 5436 H 537.009 -0.920548 0.226487 0
M  V30 5437 H 536.715 -3.50783 0.253859 0
M  V30 5438 H 536.589 -3.46274 -1.49579 0
M  V30 5439 H 538.976 -2.47685 -1.60425 0
M  V30 5440 H 539.057 -2.55289 0.161669 0
M  V30 5441 H 538.701 -5.07878 0.0469464 0
M  V30 5442 H 538.631 -4.97369 -1.73009 0
M  V30 5443 H 541.122 -3.68141 -0.85327 0
M  V30 5444 H 541.435 -7.64493 -1.13007 0
M  V30 5445 H 539.78 -6.87427 -1.02318 0
M  V30 5446 H 542.971 -4.5784 -0.974687 0
M  V30 5447 H 543.144 -6.38576 -1.10113 0
M  V30 5448 N 536.55 0.480323 -1.50102 0
M  V30 5449 C 537.46 1.60547 -1.71061 0
M  V30 5450 C 538.476 1.63564 -0.593529 0
M  V30 5451 O 539.652 1.81604 -0.870751 0
M  V30 5452 C 536.717 2.96814 -1.79171 0
M  V30 5453 C 535.778 3.04259 -3.02861 0
M  V30 5454 C 535.011 4.34027 -3.10574 0
M  V30 5455 O 535.234 5.24009 -2.25323 0
M  V30 5456 O 534.168 4.46873 -4.03223 0
M  V30 5457 H 537.994 1.45788 -2.6642 0
M  V30 5458 H 535.579 0.658838 -1.34088 0
M  V30 5459 H 537.461 3.77765 -1.86738 0
M  V30 5460 H 536.136 3.11791 -0.869947 0
M  V30 5461 H 535.043 2.22419 -3.008 0
M  V30 5462 H 536.376 2.94216 -3.94586 0
M  V30 5463 N 538.028 1.39524 0.732853 0
M  V30 5464 C 538.96 1.34318 1.85718 0
M  V30 5465 C 539.973 0.251576 1.60844 0
M  V30 5466 O 541.162 0.510685 1.71039 0
M  V30 5467 C 538.262 1.06334 3.21786 0
M  V30 5468 C 537.435 2.26813 3.73998 0
M  V30 5469 C 536.494 1.95253 4.88634 0
M  V30 5470 O 535.52 2.67957 5.02183 0
M  V30 5471 N 536.722 0.919984 5.73164 0
M  V30 5472 H 539.487 2.3121 1.90688 0
M  V30 5473 H 537.048 1.33654 0.91368 0
M  V30 5474 H 539.04 0.832363 3.96048 0
M  V30 5475 H 537.61 0.181682 3.12072 0
M  V30 5476 H 536.83 2.65849 2.91064 0
M  V30 5477 H 538.118 3.0717 4.05616 0
M  V30 5478 H 537.516 0.317487 5.64808 0
M  V30 5479 H 536.073 0.748905 6.47483 0
M  V30 5480 N 539.506 -0.963266 1.24736 0
M  V30 5481 C 540.917 -1.52145 1.08207 0
M  V30 5482 C 541.268 -1.93142 -0.345061 0
M  V30 5483 O 540.393 -1.77769 -1.23399 0
M  V30 5484 C 540.988 -2.76486 1.95808 0
M  V30 5485 C 539.547 -3.28646 1.8349 0
M  V30 5486 C 538.694 -2.01529 1.90476 0
M  V30 5487 H 541.645 -0.781083 1.38148 0
M  V30 5488 H 541.666 -3.49986 1.49297 0
M  V30 5489 H 541.178 -2.46617 2.99669 0
M  V30 5490 H 539.279 -3.63357 0.824787 0
M  V30 5491 H 539.392 -3.97246 2.67829 0
M  V30 5492 H 537.756 -2.16442 1.34258 0
M  V30 5493 H 538.539 -1.7402 2.95926 0
M  V30 5494 N 540.985 -1.06182 -1.16461 0
M  V30 5495 C 541.895 -0.682671 -2.24448 0
M  V30 5496 C 542.911 0.30078 -1.71381 0
M  V30 5497 O 544.087 0.150376 -2.00838 0
M  V30 5498 C 541.152 -0.0737202 -3.46622 0
M  V30 5499 C 540.213 -1.10889 -4.14731 0
M  V30 5500 C 539.446 -0.528908 -5.31073 0
M  V30 5501 O 539.669 0.65868 -5.66584 0
M  V30 5502 O 538.603 -1.26805 -5.88391 0
M  V30 5503 H 542.429 -1.58291 -2.59187 0
M  V30 5504 H 540.014 -0.834013 -1.23954 0
M  V30 5505 H 541.896 0.264192 -4.20571 0
M  V30 5506 H 540.571 0.800015 -3.13658 0
M  V30 5507 H 539.478 -1.49896 -3.42756 0
M  V30 5508 H 540.811 -1.95412 -4.51747 0
M  V30 5509 N 542.463 1.3308 -0.844243 0
M  V30 5510 C 543.41 2.29104 -0.279323 0
M  V30 5511 C 544.38 1.54577 0.607882 0
M  V30 5512 O 545.565 1.8285 0.545009 0
M  V30 5513 C 542.705 3.40927 0.53508 0
M  V30 5514 C 541.818 4.30354 -0.376749 0
M  V30 5515 C 540.953 5.29297 0.449276 0
M  V30 5516 C 539.992 6.10365 -0.460606 0
M  V30 5517 N 539.129 7.01335 0.327612 0
M  V30 5518 H 543.969 2.76817 -1.10346 0
M  V30 5519 H 541.506 1.36203 -0.555611 0
M  V30 5520 H 543.464 4.04469 1.02278 0
M  V30 5521 H 542.094 2.94391 1.32414 0
M  V30 5522 H 541.146 3.67485 -0.982791 0
M  V30 5523 H 542.458 4.87067 -1.07549 0
M  V30 5524 H 541.612 5.98392 1.00058 0
M  V30 5525 H 540.351 4.73174 1.18143 0
M  V30 5526 H 539.356 5.40182 -1.02388 0
M  V30 5527 H 540.581 6.68571 -1.1912 0
M  V30 5528 H 538.527 6.47655 1.04305 0
M  V30 5529 H 538.444 7.55355 -0.3123 0
M  V30 5530 H 539.712 7.74731 0.86098 0
M  V30 5531 N 543.941 0.601185 1.45683 0
M  V30 5532 C 544.851 -0.123395 2.34275 0
M  V30 5533 C 545.867 -0.86702 1.5086 0
M  V30 5534 O 547.043 -0.826049 1.8368 0
M  V30 5535 C 544.108 -1.11237 3.2837 0
M  V30 5536 C 543.169 -0.371405 4.2769 0
M  V30 5537 C 542.402 -1.31327 5.1729 0
M  V30 5538 O 542.625 -2.55078 5.10188 0
M  V30 5539 O 541.559 -0.813811 5.96373 0
M  V30 5540 H 545.385 0.604483 2.97623 0
M  V30 5541 H 542.97 0.361477 1.44961 0
M  V30 5542 H 544.852 -1.68214 3.8637 0
M  V30 5543 H 543.527 -1.82139 2.67595 0
M  V30 5544 H 542.434 0.24067 3.73325 0
M  V30 5545 H 543.767 0.296998 4.91303 0
M  V30 5546 N 545.419 -1.53889 0.339982 0
M  V30 5547 C 546.351 -2.22435 -0.55275 0
M  V30 5548 C 547.364 -1.22975 -1.06681 0
M  V30 5549 O 548.553 -1.49351 -0.977575 0
M  V30 5550 C 545.653 -2.8882 -1.77302 0
M  V30 5551 C 544.826 -4.14563 -1.39486 0
M  V30 5552 C 543.885 -4.64391 -2.47442 0
M  V30 5553 O 542.911 -5.28687 -2.10899 0
M  V30 5554 N 544.113 -4.40015 -3.78639 0
M  V30 5555 H 546.878 -2.9968 0.0342669 0
M  V30 5556 H 544.439 -1.61068 0.16394 0
M  V30 5557 H 546.431 -3.19072 -2.48948 0
M  V30 5558 H 545.001 -2.15182 -2.26749 0
M  V30 5559 H 544.221 -3.90896 -0.509321 0
M  V30 5560 H 545.509 -4.96362 -1.11813 0
M  V30 5561 H 544.907 -3.88586 -4.11118 0
M  V30 5562 H 543.464 -4.74881 -4.46465 0
M  V30 5563 N 546.897 -0.0685191 -1.57451 0
M  V30 5564 C 547.827 0.89747 -2.15564 0
M  V30 5565 C 548.808 1.31266 -1.08181 0
M  V30 5566 O 549.993 1.38429 -1.36202 0
M  V30 5567 C 547.123 2.16623 -2.71463 0
M  V30 5568 C 546.077 1.89054 -3.83982 0
M  V30 5569 C 545.403 3.22532 -4.26471 0
M  V30 5570 C 546.703 1.1984 -5.08366 0
M  V30 5571 H 548.397 0.413373 -2.96533 0
M  V30 5572 H 545.943 0.197391 -1.42641 0
M  V30 5573 H 547.896 2.84614 -3.10761 0
M  V30 5574 H 546.62 2.67269 -1.8771 0
M  V30 5575 H 545.279 1.23469 -3.45183 0
M  V30 5576 H 544.927 3.71013 -3.39644 0
M  V30 5577 H 544.627 3.04879 -5.02317 0
M  V30 5578 H 546.151 3.91727 -4.68383 0
M  V30 5579 H 547.565 1.77896 -5.45001 0
M  V30 5580 H 545.962 1.12456 -5.89469 0
M  V30 5581 H 547.032 0.176996 -4.84577 0
M  V30 5582 N 548.375 1.56261 0.205012 0
M  V30 5583 C 549.305 1.96779 1.257 0
M  V30 5584 C 550.286 0.838309 1.48008 0
M  V30 5585 O 551.471 1.10189 1.59913 0
M  V30 5586 C 548.601 2.29876 2.60335 0
M  V30 5587 C 547.555 3.45469 2.52656 0
M  V30 5588 C 546.881 3.64215 3.91473 0
M  V30 5589 C 548.181 4.79954 2.06014 0
M  V30 5590 H 549.875 2.84904 0.920338 0
M  V30 5591 H 547.421 1.37072 0.441277 0
M  V30 5592 H 549.374 2.56814 3.34102 0
M  V30 5593 H 548.098 1.38622 2.95722 0
M  V30 5594 H 546.757 3.18605 1.81345 0
M  V30 5595 H 546.405 2.70309 4.24196 0
M  V30 5596 H 546.105 4.41973 3.87213 0
M  V30 5597 H 547.629 3.93519 4.66878 0
M  V30 5598 H 549.043 5.05989 2.69533 0
M  V30 5599 H 547.44 5.61111 2.12777 0
M  V30 5600 H 548.51 4.74201 1.01297 0
M  V30 5601 N 549.853 -0.472356 1.50355 0
M  V30 5602 C 551.099 -1.22634 1.6152 0
M  V30 5603 C 551.432 -1.91645 0.313995 0
M  V30 5604 O 550.707 -1.82059 -0.684446 0
M  V30 5605 C 550.99 -2.27099 2.7946 0
M  V30 5606 C 550.843 -1.62402 4.19459 0
M  V30 5607 C 552.162 -3.28421 2.92964 0
M  V30 5608 H 549.281 -0.444494 0.587873 0
M  V30 5609 H 551.923 -0.520321 1.82737 0
M  V30 5610 H 550.073 -2.87314 2.61501 0
M  V30 5611 H 551.745 -1.05793 4.49005 0
M  V30 5612 H 549.988 -0.927184 4.23776 0
M  V30 5613 H 550.659 -2.38309 4.97909 0
M  V30 5614 H 553.135 -2.78227 3.09401 0
M  V30 5615 H 552.011 -3.98845 3.77113 0
M  V30 5616 H 552.272 -3.92467 2.03525 0
M  V30 5617 N 551.331 -1.39911 -0.725443 0
M  V30 5618 C 552.577 -1.37858 -1.48738 0
M  V30 5619 C 552.91 0.0224187 -1.94187 0
M  V30 5620 O 552.185 0.989204 -1.67466 0
M  V30 5621 C 552.468 -2.3594 -2.72038 0
M  V30 5622 C 552.321 -3.85023 -2.32546 0
M  V30 5623 C 553.64 -2.31704 -3.74167 0
M  V30 5624 H 550.759 -0.502074 -0.539528 0
M  V30 5625 H 553.401 -1.70974 -0.828728 0
M  V30 5626 H 551.551 -2.0783 -3.28236 0
M  V30 5627 H 553.223 -4.2392 -1.81905 0
M  V30 5628 H 551.466 -4.01334 -1.64661 0
M  V30 5629 H 552.137 -4.49152 -3.20884 0
M  V30 5630 H 554.613 -2.5658 -3.27576 0
M  V30 5631 H 553.489 -3.02395 -4.58092 0
M  V30 5632 H 553.75 -1.3253 -4.21768 0
M  V30 5633 N 552.809 0.956637 -1.25245 0
M  V30 5634 C 553.757 2.0743 -1.0524 0
M  V30 5635 C 554.751 1.69392 0.0160725 0
M  V30 5636 O 555.957 1.7946 -0.139382 0
M  V30 5637 H 552.332 0.678921 -0.323373 0
M  V30 5638 H 554.303 2.2146 -1.99995 0
M  V30 5639 C 553.052 3.40872 -0.685702 0
M  V30 5640 H 552.375 3.70607 -1.49968 0
M  V30 5641 H 553.815 4.19939 -0.585415 0
M  V30 5642 C 552.274 3.31367 0.608082 0
M  V30 5643 O 552.804 3.66214 1.65076 0
M  V30 5644 N 551.01 2.84486 0.592955 0
M  V30 5645 H 550.557 2.56326 -0.25592 0
M  V30 5646 H 550.515 2.78509 1.45877 0
M  V30 5647 N 554.287 1.06798 1.15896 0
M  V30 5648 C 555.217 0.704677 2.22613 0
M  V30 5649 C 556.198 -0.305252 1.67339 0
M  V30 5650 O 557.383 -0.179247 1.93371 0
M  V30 5651 C 554.513 0.0957325 3.47168 0
M  V30 5652 C 553.467 1.0322 4.15367 0
M  V30 5653 C 552.793 0.286293 5.33933 0
M  V30 5654 C 554.093 2.36341 4.65768 0
M  V30 5655 H 555.787 1.59688 2.53259 0
M  V30 5656 H 553.333 0.769257 1.21731 0
M  V30 5657 H 555.286 -0.170333 4.21056 0
M  V30 5658 H 554.01 -0.831516 3.15838 0
M  V30 5659 H 552.669 1.28309 3.43413 0
M  V30 5660 H 552.317 -0.644237 4.98857 0
M  V30 5661 H 552.017 0.910436 5.80504 0
M  V30 5662 H 553.541 0.0278938 6.10594 0
M  V30 5663 H 554.955 2.1561 5.31211 0
M  V30 5664 H 553.352 2.94299 5.2298 0
M  V30 5665 H 554.422 2.99047 3.81705 0
M  V30 5666 N 555.766 -1.3263 0.851289 0
M  V30 5667 C 556.991 -2.02097 0.466006 0
M  V30 5668 C 557.416 -1.63574 -0.928709 0
M  V30 5669 O 556.774 -0.834665 -1.60944 0
M  V30 5670 C 556.822 -3.55425 0.608737 0
M  V30 5671 O 555.926 -4.10827 -0.359878 0
M  V30 5672 H 555.267 -0.636911 0.187724 0
M  V30 5673 H 557.797 -1.69253 1.14955 0
M  V30 5674 H 557.807 -4.04986 0.495006 0
M  V30 5675 H 556.482 -3.82806 1.62581 0
M  V30 5676 H 555.059 -3.72349 -0.202666 0
M  V30 5677 N 557.244 -0.608902 -1.45362 0
M  V30 5678 C 558.492 -0.104401 -2.0183 0
M  V30 5679 C 558.813 1.27007 -1.47967 0
M  V30 5680 O 558.083 1.83924 -0.674455 0
M  V30 5681 H 556.663 -0.0356042 -0.746151 0
M  V30 5682 H 559.325 -0.790596 -1.78145 0
M  V30 5683 H 558.421 -0.0551793 -3.12051 0
M  V30 5684 N 558.722 1.53707 -0.348139 0
M  V30 5685 C 560.138 1.596 0.00361134 0
M  V30 5686 C 560.338 1.36394 1.4832 0
M  V30 5687 O 559.394 1.16046 2.24253 0
M  V30 5688 C 560.707 2.97512 -0.436682 0
M  V30 5689 C 562.255 3.10568 -0.389416 0
M  V30 5690 C 562.73 4.50866 -0.805249 0
M  V30 5691 N 564.221 4.56929 -0.759616 0
M  V30 5692 C 564.956 5.63643 -1.05327 0
M  V30 5693 N 564.452 6.78189 -1.41531 0
M  V30 5694 N 566.245 5.5354 -0.977207 0
M  V30 5695 H 558.396 1.67044 -1.31187 0
M  V30 5696 H 560.659 0.782559 -0.535075 0
M  V30 5697 H 560.365 3.19575 -1.46849 0
M  V30 5698 H 560.239 3.76742 0.185744 0
M  V30 5699 H 562.626 2.88226 0.633228 0
M  V30 5700 H 562.707 2.33387 -1.04711 0
M  V30 5701 H 562.351 4.73943 -1.82593 0
M  V30 5702 H 562.281 5.26452 -0.124989 0
M  V30 5703 H 564.772 3.74675 -0.49265 0
M  V30 5704 H 565.085 7.55541 -1.62411 0
M  V30 5705 H 563.43 6.79624 -1.45381 0
M  V30 5706 H 566.621 4.62932 -0.693675 0
M  V30 5707 H 566.794 6.36614 -1.2094 0
M  V30 5708 N 560.2 0.0768682 1.57412 0
M  V30 5709 C 561.448 -0.589918 1.93299 0
M  V30 5710 C 561.769 -1.69842 0.958049 0
M  V30 5711 O 561.039 -1.95899 0.00703261 0
M  V30 5712 H 559.619 -0.220901 0.713591 0
M  V30 5713 H 562.281 0.135917 1.94425 0
M  V30 5714 H 561.377 -1.01195 2.95239 0
M  V30 5715 N 561.678 -1.56367 -0.196722 0
M  V30 5716 C 562.955 -1.71359 -0.943159 0
M  V30 5717 C 563.335 -0.631192 -2.01443 0
M  V30 5718 O 562.683 0.358071 -2.25677 0
M  V30 5719 C 562.893 -3.13623 -1.53106 0
M  V30 5720 C 564.241 -3.73806 -2.01381 0
M  V30 5721 O 565.265 -3.16742 -1.62951 0
M  V30 5722 O 564.124 -4.73951 -2.7209 0
M  V30 5723 H 561.218 -0.698851 -0.442195 0
M  V30 5724 H 563.764 -1.68672 -0.186547 0
M  V30 5725 H 562.536 -3.83873 -0.758785 0
M  V30 5726 H 562.159 -3.20532 -2.35255 0
M  V30 5727 N 563.156 0.464375 -1.50603 0
M  V30 5728 C 564.103 1.56152 -1.69956 0
M  V30 5729 C 565.073 1.57046 -0.54091 0
M  V30 5730 O 566.258 1.74473 -0.772258 0
M  V30 5731 C 563.398 2.94079 -1.80586 0
M  V30 5732 C 562.511 3.02923 -3.07996 0
M  V30 5733 C 561.646 4.31806 -3.09382 0
M  V30 5734 C 560.685 4.34417 -4.31218 0
M  V30 5735 N 559.822 5.54782 -4.30304 0
M  V30 5736 H 564.662 1.38955 -2.6362 0
M  V30 5737 H 562.199 0.675482 -1.30674 0
M  V30 5738 H 564.157 3.74073 -1.8473 0
M  V30 5739 H 562.787 3.09896 -0.903556 0
M  V30 5740 H 561.839 2.1576 -3.13292 0
M  V30 5741 H 563.151 3.00712 -3.97962 0
M  V30 5742 H 562.305 5.20153 -3.12292 0
M  V30 5743 H 561.044 4.36636 -2.17257 0
M  V30 5744 H 560.049 3.44467 -4.28512 0
M  V30 5745 H 561.274 4.31273 -5.24576 0
M  V30 5746 H 559.22 5.60384 -3.41037 0
M  V30 5747 H 559.137 5.54339 -5.14047 0
M  V30 5748 H 560.405 6.45235 -4.3737 0
M  V30 5749 N 564.634 1.40294 0.718013 0
M  V30 5750 C 565.911 1.2894 1.47084 0
M  V30 5751 C 566.291 -0.0933625 2.10893 0
M  V30 5752 O 565.639 -1.10598 1.99951 0
M  V30 5753 C 565.849 2.4264 2.50852 0
M  V30 5754 C 567.197 2.8276 3.16752 0
M  V30 5755 O 568.221 2.42215 2.61171 0
M  V30 5756 O 567.08 3.528 4.17366 0
M  V30 5757 H 564.174 0.506236 0.653952 0
M  V30 5758 H 566.72 1.52208 0.750394 0
M  V30 5759 H 565.492 3.35009 2.022 0
M  V30 5760 H 565.115 2.21129 3.30435 0
M  V30 5761 N 566.112 -0.949982 1.2575 0
M  V30 5762 C 567.361 -1.68956 1.10168 0
M  V30 5763 C 567.674 -1.92327 -0.356309 0
M  V30 5764 O 568.88 -2.64026 -0.632657 0
M  V30 5765 C 567.336 -3.04196 1.92336 0
M  V30 5766 C 566.944 -2.88603 3.42655 0
M  V30 5767 C 568.688 -3.81904 1.85336 0
M  V30 5768 C 566.595 -4.19262 4.17101 0
M  V30 5769 H 565.525 -0.633645 0.408668 0
M  V30 5770 H 568.176 -1.05719 1.49986 0
M  V30 5771 H 566.558 -3.68363 1.45344 0
M  V30 5772 H 567.732 -2.3334 3.97353 0
M  V30 5773 H 566.047 -2.24345 3.50796 0
M  V30 5774 H 568.644 -4.78688 2.38248 0
M  V30 5775 H 568.987 -4.08099 0.822226 0
M  V30 5776 H 569.52 -3.24495 2.30104 0
M  V30 5777 H 566.259 -3.98254 5.20648 0
M  V30 5778 H 565.779 -4.74273 3.67186 0
M  V30 5779 H 567.458 -4.87775 4.25071 0
M  V30 5780 N 567.59 -1.07411 -1.15328 0
M  V30 5781 C 568.837 -0.797649 -1.86128 0
M  V30 5782 C 569.165 0.676298 -1.82364 0
M  V30 5783 O 568.42 1.51223 -1.24218 0
M  V30 5784 C 568.719 -1.25191 -3.34757 0
M  V30 5785 C 568.385 -2.73191 -3.58716 0
M  V30 5786 C 567.047 -3.13616 -3.64964 0
M  V30 5787 C 569.399 -3.68718 -3.6837 0
M  V30 5788 C 566.727 -4.48383 -3.78377 0
M  V30 5789 C 569.079 -5.03248 -3.83306 0
M  V30 5790 C 567.743 -5.43293 -3.878 0
M  V30 5791 H 567.013 -0.29188 -0.681092 0
M  V30 5792 H 569.66 -1.34524 -1.36292 0
M  V30 5793 H 567.965 -0.623712 -3.86804 0
M  V30 5794 H 569.662 -1.01489 -3.87945 0
M  V30 5795 H 566.252 -2.40898 -3.54494 0
M  V30 5796 H 570.436 -3.38614 -3.62842 0
M  V30 5797 H 565.692 -4.78877 -3.80114 0
M  V30 5798 H 569.866 -5.77142 -3.89718 0
M  V30 5799 H 567.493 -6.47721 -3.97946 0
M  V30 5800 N 569.068 1.32177 -0.85831 0
M  V30 5801 C 570.296 2.01313 -0.477582 0
M  V30 5802 C 570.711 1.6449 0.926736 0
M  V30 5803 O 570.068 0.868096 1.60531 0
M  V30 5804 C 570.119 3.56293 -0.611337 0
M  V30 5805 O 569.84 3.91794 -1.96034 0
M  V30 5806 C 571.341 4.42702 -0.230093 0
M  V30 5807 H 568.561 0.644323 -0.187322 0
M  V30 5808 H 571.105 1.68674 -1.15626 0
M  V30 5809 H 569.26 3.87395 0.0196494 0
M  V30 5810 H 569.674 4.86513 -1.95973 0
M  V30 5811 H 571.148 5.50727 -0.374674 0
M  V30 5812 H 571.625 4.3129 0.829779 0
M  V30 5813 H 572.231 4.16997 -0.836302 0
M  V30 5814 N 570.547 0.616602 1.45037 0
M  V30 5815 C 571.793 0.115501 2.02471 0
M  V30 5816 C 572.126 -1.25406 1.4828 0
M  V30 5817 O 571.401 -1.82922 0.661051 0
M  V30 5818 C 571.684 0.0863588 3.59996 0
M  V30 5819 C 571.537 1.48723 4.24501 0
M  V30 5820 C 572.856 -0.596762 4.36035 0
M  V30 5821 H 569.975 0.0434461 0.735718 0
M  V30 5822 H 572.617 0.7903 1.72784 0
M  V30 5823 H 570.767 -0.488277 3.85419 0
M  V30 5824 H 572.439 2.10964 4.10234 0
M  V30 5825 H 570.682 2.04534 3.82555 0
M  V30 5826 H 571.353 1.419 5.3345 0
M  V30 5827 H 573.829 -0.10824 4.15959 0
M  V30 5828 H 572.705 -0.586289 5.4576 0
M  V30 5829 H 572.966 -1.66451 4.09569 0
M  V30 5830 N 572.025 -1.5352 0.356285 0
M  V30 5831 C 572.975 -2.22204 -0.510815 0
M  V30 5832 C 573.959 -1.21393 -1.05605 0
M  V30 5833 O 575.151 -1.46883 -0.987639 0
M  V30 5834 C 572.28 -3.00786 -1.65478 0
M  V30 5835 C 571.366 -4.08965 -1.12287 0
M  V30 5836 N 571.757 -5.04829 -0.313191 0
M  V30 5837 C 570.055 -4.23505 -1.39856 0
M  V30 5838 C 570.756 -5.81695 -0.0230322 0
M  V30 5839 N 569.732 -5.40074 -0.618144 0
M  V30 5840 H 573.534 -2.93676 0.114711 0
M  V30 5841 H 571.048 -1.61572 0.163811 0
M  V30 5842 H 573.045 -3.48502 -2.28806 0
M  V30 5843 H 571.705 -2.30843 -2.28345 0
M  V30 5844 H 572.716 -5.17879 0.0468202 0
M  V30 5845 H 569.393 -3.64786 -2.0307 0
M  V30 5846 H 570.783 -6.68931 0.630927 0
M  V30 5847 N 573.503 -0.0852151 -1.57369 0
M  V30 5848 C 574.78 0.622534 -1.85429 0
M  V30 5849 C 575.16 1.86962 -0.980229 0
M  V30 5850 O 574.508 2.28445 -0.0500219 0
M  V30 5851 C 574.718 0.947374 -3.35896 0
M  V30 5852 C 576.066 1.31509 -4.03721 0
M  V30 5853 O 577.09 1.03869 -3.40719 0
M  V30 5854 O 575.949 1.83231 -5.14868 0
M  V30 5855 H 573.043 0.310513 -0.766492 0
M  V30 5856 H 575.589 -0.117164 -1.69295 0
M  V30 5857 H 574.361 0.0622264 -3.91251 0
M  V30 5858 H 573.984 1.74338 -3.5734 0
M  V30 5859 N 574.981 1.5647 0.188427 0
M  V30 5860 C 576.23 1.80207 0.905995 0
M  V30 5861 C 576.543 0.659579 1.84144 0
M  V30 5862 O 577.749 0.781431 2.60011 0
M  V30 5863 C 576.205 3.19255 1.66145 0
M  V30 5864 C 575.813 4.41324 0.770504 0
M  V30 5865 C 577.557 3.52298 2.36826 0
M  V30 5866 C 575.464 5.71394 1.52521 0
M  V30 5867 H 574.394 0.671953 0.342045 0
M  V30 5868 H 577.045 1.82808 0.159164 0
M  V30 5869 H 575.427 3.10922 2.45242 0
M  V30 5870 H 576.601 4.60797 0.0177261 0
M  V30 5871 H 574.916 4.16035 0.174199 0
M  V30 5872 H 577.513 4.46715 2.93854 0
M  V30 5873 H 577.856 2.76359 3.11338 0
M  V30 5874 H 578.389 3.62108 1.6469 0
M  V30 5875 H 575.128 6.50316 0.82275 0
M  V30 5876 H 574.648 5.55928 2.25175 0
M  V30 5877 H 576.327 6.12747 2.07725 0
M  V30 5878 N 576.459 -0.456382 1.50847 0
M  V30 5879 C 577.389 -1.56025 1.73719 0
M  V30 5880 C 578.37 -1.5967 0.586473 0
M  V30 5881 O 579.555 -1.75702 0.827185 0
M  V30 5882 C 576.685 -2.94251 1.84483 0
M  V30 5883 C 575.639 -3.05471 2.99786 0
M  V30 5884 C 574.965 -4.45489 2.95709 0
M  V30 5885 C 576.265 -2.81318 4.40065 0
M  V30 5886 H 577.959 -1.37138 2.66146 0
M  V30 5887 H 575.505 -0.658299 1.28072 0
M  V30 5888 H 577.458 -3.71417 1.99067 0
M  V30 5889 H 576.182 -3.14328 0.886891 0
M  V30 5890 H 574.841 -2.30741 2.84876 0
M  V30 5891 H 574.489 -4.62505 1.97732 0
M  V30 5892 H 574.189 -4.53929 3.73125 0
M  V30 5893 H 575.713 -5.24655 3.12362 0
M  V30 5894 H 577.127 -3.48226 4.55425 0
M  V30 5895 H 575.524 -3.01188 5.19043 0
M  V30 5896 H 576.594 -1.7706 4.51418 0
M  V30 5897 N 577.937 -1.40673 -0.710563 0
M  V30 5898 C 578.884 -1.41336 -1.82463 0
M  V30 5899 C 579.854 -0.269648 -1.63897 0
M  V30 5900 O 581.039 -0.468463 -1.8496 0
M  V30 5901 C 578.179 -1.28665 -3.20218 0
M  V30 5902 C 577.292 -2.52784 -3.5032 0
M  V30 5903 C 576.427 -2.32517 -4.77608 0
M  V30 5904 C 575.466 -3.52187 -5.0063 0
M  V30 5905 N 574.603 -3.31084 -6.19135 0
M  V30 5906 H 579.443 -2.36558 -1.8123 0
M  V30 5907 H 576.98 -1.17483 -0.885226 0
M  V30 5908 H 578.938 -1.19324 -3.99772 0
M  V30 5909 H 577.568 -0.370602 -3.20666 0
M  V30 5910 H 576.62 -2.72634 -2.65283 0
M  V30 5911 H 577.932 -3.41845 -3.63241 0
M  V30 5912 H 577.086 -2.20558 -5.65189 0
M  V30 5913 H 575.825 -1.40889 -4.66906 0
M  V30 5914 H 574.83 -3.64617 -4.11502 0
M  V30 5915 H 576.055 -4.44749 -5.13201 0
M  V30 5916 H 574.001 -2.42143 -6.09674 0
M  V30 5917 H 573.918 -4.13713 -6.32754 0
M  V30 5918 H 575.186 -3.22868 -7.0949 0
M  V30 5919 N 579.415 0.9433 -1.26252 0
M  V30 5920 C 580.378 2.02326 -1.07689 0
M  V30 5921 C 581.378 1.60779 -0.0259174 0
M  V30 5922 O 582.568 1.72108 -0.269134 0
M  V30 5923 C 579.7 3.34886 -0.63752 0
M  V30 5924 H 580.893 2.20225 -2.0357 0
M  V30 5925 H 578.446 1.12197 -1.08819 0
M  V30 5926 H 579.181 3.22684 0.323377 0
M  V30 5927 H 578.966 3.66393 -1.39637 0
M  V30 5928 H 580.456 4.14231 -0.529418 0
M  V30 5929 N 580.893 1.08022 1.14757 0
M  V30 5930 C 582.309 0.807072 1.3769 0
M  V30 5931 C 582.509 -0.585504 1.92806 0
M  V30 5932 O 581.565 -1.34301 2.13821 0
M  V30 5933 C 582.878 1.88651 2.34161 0
M  V30 5934 C 584.426 1.91206 2.47809 0
M  V30 5935 C 584.901 2.98253 3.47576 0
M  V30 5936 N 586.392 2.974 3.55117 0
M  V30 5937 C 587.127 3.76872 4.32152 0
M  V30 5938 N 586.623 4.66212 5.12463 0
M  V30 5939 N 588.416 3.6519 4.27309 0
M  V30 5940 H 580.567 1.97824 0.77326 0
M  V30 5941 H 582.83 0.85826 0.402608 0
M  V30 5942 H 582.536 2.88749 2.00791 0
M  V30 5943 H 582.41 1.75244 3.3402 0
M  V30 5944 H 584.797 0.917564 2.80472 0
M  V30 5945 H 584.878 2.08691 1.47925 0
M  V30 5946 H 584.522 3.97907 3.15646 0
M  V30 5947 H 584.452 2.78014 4.47231 0
M  V30 5948 H 586.943 2.32643 2.97801 0
M  V30 5949 H 587.256 5.23468 5.68508 0
M  V30 5950 H 585.601 4.70257 5.11745 0
M  V30 5951 H 588.792 2.94765 3.63636 0
M  V30 5952 H 588.965 4.27366 4.87095 0
M  V30 5953 N 582.371 -1.3172 0.865308 0
M  V30 5954 C 583.619 -1.96487 0.472995 0
M  V30 5955 C 583.94 -1.68761 -0.976975 0
M  V30 5956 O 583.21 -1.00051 -1.68424 0
M  V30 5957 H 581.79 -0.726947 0.171922 0
M  V30 5958 H 584.452 -1.60612 1.10407 0
M  V30 5959 H 583.548 -3.0574 0.62687 0
M  V30 5960 N 583.85 -0.624285 -1.44708 0
M  V30 5961 C 584.76 0.0861083 -2.34442 0
M  V30 5962 C 585.776 0.84291 -1.5222 0
M  V30 5963 O 586.952 0.796723 -1.84971 0
M  V30 5964 C 584.017 1.05999 -3.30099 0
M  V30 5965 C 583.077 0.303316 -4.28227 0
M  V30 5966 C 582.311 1.23081 -5.19314 0
M  V30 5967 O 582.534 2.46929 -5.14181 0
M  V30 5968 O 581.468 0.71883 -5.97592 0
M  V30 5969 H 585.293 -0.651756 -2.96624 0
M  V30 5970 H 582.879 -0.384493 -1.44368 0
M  V30 5971 H 584.76 1.62046 -3.88997 0
M  V30 5972 H 583.436 1.77859 -2.70459 0
M  V30 5973 H 582.343 -0.300033 -3.72895 0
M  V30 5974 H 583.676 -0.375123 -4.90768 0
M  V30 5975 N 585.328 1.53329 -0.364422 0
M  V30 5976 C 586.577 2.00421 0.226747 0
M  V30 5977 C 586.89 1.25581 1.49963 0
M  V30 5978 O 588.096 1.63256 2.16933 0
M  V30 5979 C 586.552 3.57017 0.454618 0
M  V30 5980 C 586.16 4.40734 -0.803568 0
M  V30 5981 C 587.904 4.12468 1.00351 0
M  V30 5982 C 585.811 5.8888 -0.545345 0
M  V30 5983 H 584.741 0.748787 0.0885082 0
M  V30 5984 H 587.392 1.7703 -0.482983 0
M  V30 5985 H 585.774 3.76558 1.22558 0
M  V30 5986 H 586.948 4.32967 -1.57723 0
M  V30 5987 H 585.263 3.96381 -1.27559 0
M  V30 5988 H 587.86 5.20783 1.212 0
M  V30 5989 H 588.203 3.6699 1.9653 0
M  V30 5990 H 588.736 3.96721 0.29274 0
M  V30 5991 H 585.475 6.38633 -1.47743 0
M  V30 5992 H 584.995 5.99499 0.189842 0
M  V30 5993 H 586.674 6.46776 -0.170425 0
M  V30 5994 O 586.845 0.233579 1.59802 0
M  V30 5995 H 587.536 -0.344607 1.9061 0
M  V30 END ATOM
M  V30 BEGIN BOND
M  V30 END BOND
M  V30 END CTAB
M  END
$$$$
