drugbank_target|P0A2Y7 Chorismate synthase (DB03247; DB03350)
 OpenBabel12092120023D

  0  0  0     0  0            999 V3000
M  V30 BEGIN CTAB
M  V30 COUNTS 6039 6086 0 0 0
M  V30 BEGIN ATOM
M  V30 1 H -0.908 1.98254 -0.117106 0
M  V30 2 N 0 1.576 0 0
M  V30 3 C 0.933 2.03868 1.02534 0
M  V30 4 C 1.911 0.928543 1.3348 0
M  V30 5 O 3.095 1.19667 1.45644 0
M  V30 6 C 0.222 2.43627 2.35294 0
M  V30 7 C -0.732 3.65373 2.2001 0
M  V30 8 S 0.101 5.13292 1.52614 0
M  V30 9 C 1.257 5.56322 2.86805 0
M  V30 10 H 1.49 2.90518 0.631377 0
M  V30 11 H -0.977 1.52953 0.210867 0
M  V30 12 H 0.981 2.67203 3.11629 0
M  V30 13 H -0.358 1.57376 2.7183 0
M  V30 14 H -1.165 3.90944 3.18086 0
M  V30 15 H -1.563 3.418 1.51819 0
M  V30 16 H 0.729 5.58782 3.83104 0
M  V30 17 H 1.672 6.56266 2.65933 0
M  V30 18 H 2.08 4.83886 2.90714 0
M  V30 19 N 1.4781 -0.272755 1.55222 0
M  V30 20 C 2.8941 -0.619959 1.47067 0
M  V30 21 C 3.0941 -1.895 0.684978 0
M  V30 22 O 2.1501 -2.51675 0.203931 0
M  V30 23 C 3.4631 -0.746693 2.91282 0
M  V30 24 C 5.0111 -0.840731 3.01497 0
M  V30 25 C 5.4861 -0.99924 4.46967 0
M  V30 26 N 6.9771 -1.06476 4.50796 0
M  V30 27 C 7.7121 -1.20621 5.6057 0
M  V30 28 N 7.2081 -1.31483 6.80209 0
M  V30 29 N 9.0011 -1.23733 5.48312 0
M  V30 30 H 1.1521 0.564606 2.04758 0
M  V30 31 H 3.4151 0.191177 0.928523 0
M  V30 32 H 3.1211 0.119753 3.51496 0
M  V30 33 H 2.9951 -1.6269 3.40311 0
M  V30 34 H 5.3821 -1.69764 2.41379 0
M  V30 35 H 5.4631 0.0640874 2.5572 0
M  V30 36 H 5.1071 -0.146984 5.07687 0
M  V30 37 H 5.0371 -1.91871 4.90401 0
M  V30 38 H 7.5281 -0.993196 3.64615 0
M  V30 39 H 7.8411 -1.42111 7.59621 0
M  V30 40 H 6.1861 -1.28487 6.8302 0
M  V30 41 H 9.3771 -1.14877 4.53785 0
M  V30 42 H 9.5501 -1.34412 6.33906 0
M  V30 43 N 2.9562 -1.48159 -0.537278 0
M  V30 44 C 4.1862 -1.59223 -1.3165 0
M  V30 45 C 4.5942 -0.248849 -1.87556 0
M  V30 46 O 3.9372 0.770949 -1.6674 0
M  V30 47 C 3.9992 -2.57365 -2.51005 0
M  V30 48 C 3.6632 -4.02603 -2.16239 0
M  V30 49 C 4.6602 -4.90503 -1.72344 0
M  V30 50 C 2.3452 -4.48088 -2.26986 0
M  V30 51 C 4.3392 -6.21913 -1.39651 0
M  V30 52 C 2.0262 -5.7952 -1.93906 0
M  V30 53 C 3.0242 -6.66255 -1.50309 0
M  V30 54 O 2.7122 -7.95243 -1.17659 0
M  V30 55 H 2.4442 -0.539831 -0.406889 0
M  V30 56 H 4.9982 -1.94655 -0.655641 0
M  V30 57 H 3.2282 -2.1704 -3.20048 0
M  V30 58 H 4.9172 -2.58342 -3.13072 0
M  V30 59 H 5.6832 -4.56604 -1.63517 0
M  V30 60 H 1.5622 -3.80769 -2.59877 0
M  V30 61 H 5.1062 -6.89569 -1.0555 0
M  V30 62 H 1.0032 -6.12957 -2.02371 0
M  V30 63 H 1.7712 -8.0793 -1.31119 0
M  V30 64 N 4.4343 0.785586 -1.36625 0
M  V30 65 C 5.3643 1.91259 -1.33949 0
M  V30 66 C 6.3453 1.68795 -0.210325 0
M  V30 67 O 7.5303 1.89854 -0.408561 0
M  V30 68 C 4.6603 3.28339 -1.13186 0
M  V30 69 C 3.6143 3.65335 -2.22967 0
M  V30 70 C 2.9403 5.00806 -1.87342 0
M  V30 71 C 4.2403 3.7352 -3.65075 0
M  V30 72 H 5.9343 1.93755 -2.28253 0
M  V30 73 H 3.4803 0.930788 -1.09874 0
M  V30 74 H 5.4333 4.06804 -1.09948 0
M  V30 75 H 4.1573 3.2624 -0.153332 0
M  V30 76 H 2.8163 2.89169 -2.25337 0
M  V30 77 H 2.4643 4.95233 -0.880545 0
M  V30 78 H 2.1643 5.26529 -2.60846 0
M  V30 79 H 3.6883 5.81687 -1.85667 0
M  V30 80 H 5.1023 4.42168 -3.64911 0
M  V30 81 H 3.4993 4.10731 -4.37516 0
M  V30 82 H 4.5693 2.74527 -3.99703 0
M  V30 83 N 5.9124 1.20967 1.01018 0
M  V30 84 C 7.1404 1.04956 1.78303 0
M  V30 85 C 7.5554 -0.400915 1.84494 0
M  V30 86 O 6.9124 -1.27826 1.30257 0
M  V30 87 C 6.9634 1.63403 3.22462 0
M  V30 88 O 6.6844 3.02775 3.16637 0
M  V30 89 C 8.1854 1.52432 4.16268 0
M  V30 90 H 5.4054 0.368858 0.560522 0
M  V30 91 H 7.9494 1.60193 1.27116 0
M  V30 92 H 6.1044 1.1227 3.70775 0
M  V30 93 H 6.5184 3.30626 4.07169 0
M  V30 94 H 7.9924 1.98078 5.15237 0
M  V30 95 H 8.4694 0.477875 4.36592 0
M  V30 96 H 9.0754 2.02787 3.73841 0
M  V30 97 N 7.3905 -1.2043 1.01659 0
M  V30 98 C 8.3535 -2.21433 0.591616 0
M  V30 99 C 9.3535 -1.57203 -0.338226 0
M  V30 100 O 10.5435 -1.73737 -0.126918 0
M  V30 101 C 7.6755 -3.40628 -0.136058 0
M  V30 102 H 8.8685 -2.60545 1.48514 0
M  V30 103 H 6.4215 -1.33893 0.806379 0
M  V30 104 H 7.1565 -3.07019 -1.04449 0
M  V30 105 H 6.9415 -3.88475 0.531917 0
M  V30 106 H 8.4315 -4.15475 -0.420735 0
M  V30 107 N 8.8686 -0.792821 -1.36206 0
M  V30 108 C 10.1166 -0.366062 -1.98757 0
M  V30 109 C 10.4376 1.0668 -1.63231 0
M  V30 110 O 9.7076 1.73587 -0.907978 0
M  V30 111 H 8.2876 -0.132364 -0.735179 0
M  V30 112 H 10.9496 -1.01562 -1.66347 0
M  V30 113 H 10.0456 -0.460638 -3.08682 0
M  V30 114 N 10.3467 1.47872 -0.545128 0
M  V30 115 C 11.2567 2.33633 0.212746 0
M  V30 116 C 12.2727 1.4744 0.923983 0
M  V30 117 O 13.4487 1.80393 0.895572 0
M  V30 118 C 10.5137 3.23884 1.23693 0
M  V30 119 C 9.5747 4.25961 0.534417 0
M  V30 120 C 8.8077 5.11899 1.5098 0
M  V30 121 O 9.0307 5.00077 2.7437 0
M  V30 122 O 7.9647 5.92831 1.0409 0
M  V30 123 H 11.7907 2.99714 -0.490416 0
M  V30 124 H 9.3757 1.46235 -0.305871 0
M  V30 125 H 11.2577 3.79666 1.82843 0
M  V30 126 H 9.9327 2.60446 1.92222 0
M  V30 127 H 8.8397 3.73972 -0.0979679 0
M  V30 128 H 10.1727 4.92079 -0.109213 0
M  V30 129 N 11.8248 0.280983 1.55075 0
M  V30 130 C 13.0498 -0.340154 2.04592 0
M  V30 131 C 13.4748 -1.48246 1.15779 0
M  V30 132 O 12.8328 -1.80614 0.15761 0
M  V30 133 C 12.8808 -0.793104 3.5177 0
M  V30 134 O 11.9848 -1.89981 3.66034 0
M  V30 135 H 11.3258 -0.0694289 0.66036 0
M  V30 136 H 13.8558 0.416993 2.00306 0
M  V30 137 H 13.8658 -1.08729 3.93245 0
M  V30 138 H 12.5408 0.0426163 4.15878 0
M  V30 139 H 11.1178 -1.60771 3.36463 0
M  V30 140 N 13.3029 -1.57598 0.00835791 0
M  V30 141 C 14.2529 -2.05431 -0.989045 0
M  V30 142 C 15.2369 -0.950662 -1.29812 0
M  V30 143 O 16.4289 -1.21438 -1.28771 0
M  V30 144 C 13.5579 -2.56801 -2.27833 0
M  V30 145 C 12.6439 -3.74058 -1.99853 0
M  V30 146 N 13.0349 -4.8544 -1.42062 0
M  V30 147 C 11.3329 -3.82148 -2.29953 0
M  V30 148 C 12.0339 -5.66817 -1.30743 0
M  V30 149 N 11.0099 -5.13077 -1.7959 0
M  V30 150 H 14.8119 -2.88955 -0.536853 0
M  V30 151 H 12.3259 -1.61199 -0.197148 0
M  V30 152 H 14.3229 -2.89349 -3.00137 0
M  V30 153 H 12.9829 -1.74699 -2.73698 0
M  V30 154 H 13.9939 -5.0612 -1.09833 0
M  V30 155 H 10.6709 -3.10916 -2.78635 0
M  V30 156 H 12.0609 -6.66343 -0.862328 0
M  V30 157 N 14.781 0.264519 -1.55364 0
M  V30 158 C 16.029 0.993021 -1.76021 0
M  V30 159 C 16.35 1.86511 -0.569099 0
M  V30 160 O 15.62 1.91438 0.415735 0
M  V30 161 H 14.2 0.369639 -0.649135 0
M  V30 162 H 16.862 0.286707 -1.9278 0
M  V30 163 H 15.958 1.62502 -2.66457 0
M  V30 164 N 16.2591 1.48442 0.529413 0
M  V30 165 C 17.6701 1.5002 1.11134 0
M  V30 166 C 18.0211 0.27031 1.94329 0
M  V30 167 O 17.1461 -0.622507 2.07253 0
M  V30 168 C 17.7411 2.71834 2.02217 0
M  V30 169 C 16.3001 2.76283 2.55627 0
M  V30 170 C 15.4471 2.43542 1.326 0
M  V30 171 H 18.3981 1.5555 0.314641 0
M  V30 172 H 18.4191 2.50384 2.8651 0
M  V30 173 H 17.9311 3.61331 1.41639 0
M  V30 174 H 16.0321 1.90995 3.19924 0
M  V30 175 H 16.1451 3.77725 2.94721 0
M  V30 176 H 14.5091 1.94709 1.64196 0
M  V30 177 H 15.2921 3.3528 0.737734 0
M  V30 178 N 17.7372 -0.778329 1.37039 0
M  V30 179 C 19.1532 -1.07796 1.17695 0
M  V30 180 C 19.3532 -2.01498 0.00860115 0
M  V30 181 O 18.4092 -2.43901 -0.653352 0
M  V30 182 C 19.7222 -1.68178 2.49272 0
M  V30 183 C 21.2702 -1.80467 2.55735 0
M  V30 184 C 21.7452 -2.44263 3.87427 0
M  V30 185 N 23.2362 -2.51721 3.88833 0
M  V30 186 C 23.9712 -3.01919 4.87476 0
M  V30 187 N 23.4672 -3.5234 5.96513 0
M  V30 188 N 25.2602 -3.00733 4.74885 0
M  V30 189 H 17.4112 -0.156032 2.11826 0
M  V30 190 H 19.6742 -0.131844 0.938787 0
M  V30 191 H 19.3802 -1.06796 3.35093 0
M  V30 192 H 19.2542 -2.67554 2.65885 0
M  V30 193 H 21.6412 -2.40984 1.70325 0
M  V30 194 H 21.7222 -0.798656 2.43013 0
M  V30 195 H 21.3662 -1.84388 4.73248 0
M  V30 196 H 21.2962 -3.45458 3.9745 0
M  V30 197 H 23.7872 -2.1603 3.10063 0
M  V30 198 H 24.1002 -3.89027 6.67741 0
M  V30 199 H 22.4452 -3.50462 6.00168 0
M  V30 200 H 25.6362 -2.60638 3.88826 0
M  V30 201 H 25.8092 -3.39545 5.51918 0
M  V30 202 N 19.2153 -1.21501 -1.00376 0
M  V30 203 C 20.1453 -0.999478 -2.11028 0
M  V30 204 C 21.1263 0.0759671 -1.6993 0
M  V30 205 O 22.3113 -0.0841106 -1.94018 0
M  V30 206 C 19.4413 -0.564709 -3.42678 0
M  V30 207 C 18.3953 -1.58486 -3.97576 0
M  V30 208 C 17.7213 -1.00628 -5.25146 0
M  V30 209 C 19.0213 -2.97204 -4.29496 0
M  V30 210 H 20.7153 -1.92495 -2.29317 0
M  V30 211 H 18.2613 -0.92693 -1.102 0
M  V30 212 H 20.2143 -0.401091 -4.19487 0
M  V30 213 H 18.9383 0.396411 -3.24185 0
M  V30 214 H 17.5973 -1.73606 -3.22888 0
M  V30 215 H 17.2453 -0.0368439 -5.02987 0
M  V30 216 H 16.9453 -1.68771 -5.62841 0
M  V30 217 H 18.4693 -0.854015 -6.04598 0
M  V30 218 H 19.8833 -2.8552 -4.97143 0
M  V30 219 H 18.2803 -3.62372 -4.78338 0
M  V30 220 H 19.3503 -3.47956 -3.3772 0
M  V30 221 N 20.6934 1.19889 -1.02296 0
M  V30 222 C 21.9214 1.9339 -0.735399 0
M  V30 223 C 22.3364 1.75148 0.704887 0
M  V30 224 O 21.6934 1.06954 1.47875 0
M  V30 225 C 21.7444 3.45313 -1.06962 0
M  V30 226 O 21.4654 3.62964 -2.45334 0
M  V30 227 C 22.9664 4.35948 -0.804021 0
M  V30 228 H 20.1864 0.61448 -0.269546 0
M  V30 229 H 22.7304 1.522 -1.36585 0
M  V30 230 H 20.8854 3.84359 -0.484455 0
M  V30 231 H 21.2994 4.56886 -2.57595 0
M  V30 232 H 22.7734 5.41174 -1.0879 0
M  V30 233 H 23.2504 4.3842 0.261691 0
M  V30 234 H 23.8564 4.02574 -1.37164 0
M  V30 235 N 22.1715 0.800033 1.35784 0
M  V30 236 C 23.1345 0.211565 2.28221 0
M  V30 237 C 24.1345 -0.59728 1.49296 0
M  V30 238 O 25.3245 -0.416721 1.69142 0
M  V30 239 C 22.4565 -0.705846 3.33513 0
M  V30 240 H 23.6495 1.02677 2.81776 0
M  V30 241 H 21.2025 0.570211 1.45528 0
M  V30 242 H 21.9375 -1.54498 2.85133 0
M  V30 243 H 21.7225 -0.127655 3.91892 0
M  V30 244 H 23.2125 -1.11211 4.02519 0
M  V30 245 N 23.6496 -1.47581 0.552962 0
M  V30 246 C 24.8986 -2.01684 0.0251995 0
M  V30 247 C 25.2116 -1.43317 -1.33115 0
M  V30 248 O 26.4176 -1.89057 -1.94858 0
M  V30 249 C 24.8736 -3.599 -0.00542052 0
M  V30 250 C 24.4816 -4.27257 1.34742 0
M  V30 251 C 26.2256 -4.21768 -0.4808 0
M  V30 252 C 24.1326 -5.77467 1.27614 0
M  V30 253 H 23.0626 -0.753979 0.00565033 0
M  V30 254 H 25.7136 -1.69616 0.70018 0
M  V30 255 H 24.0956 -3.88911 -0.745961 0
M  V30 256 H 25.2696 -4.09893 2.10534 0
M  V30 257 H 23.5846 -3.77358 1.76039 0
M  V30 258 H 26.1816 -5.31838 -0.55246 0
M  V30 259 H 26.5246 -3.88651 -1.49184 0
M  V30 260 H 27.0576 -3.97273 0.204752 0
M  V30 261 H 23.7966 -6.15196 2.26304 0
M  V30 262 H 23.3166 -5.9718 0.55996 0
M  V30 263 H 24.9956 -6.3959 0.976421 0
M  V30 264 N 25.1277 -0.289203 -1.54924 0
M  V30 265 C 26.3767 0.324231 -1.99077 0
M  V30 266 C 26.6897 1.5591 -1.18117 0
M  V30 267 O 27.8957 2.24637 -1.52481 0
M  V30 268 C 26.3517 0.628209 -3.54375 0
M  V30 269 C 25.9597 -0.587647 -4.44129 0
M  V30 270 C 27.7037 1.20349 -4.07083 0
M  V30 271 C 25.6107 -0.257475 -5.90839 0
M  V30 272 H 24.5407 0.124924 -0.743579 0
M  V30 273 H 27.1917 -0.396063 -1.79175 0
M  V30 274 H 25.5737 1.40778 -3.70132 0
M  V30 275 H 26.7477 -1.36418 -4.40144 0
M  V30 276 H 25.0627 -1.08074 -4.0213 0
M  V30 277 H 27.6597 1.46456 -5.14252 0
M  V30 278 H 28.0027 2.14195 -3.56968 0
M  V30 279 H 28.5357 0.485889 -3.94821 0
M  V30 280 H 25.2747 -1.16419 -6.45079 0
M  V30 281 H 24.7947 0.482018 -5.9786 0
M  V30 282 H 26.4737 0.145238 -6.46837 0
M  V30 283 N 26.6058 1.57591 -0.0167156 0
M  V30 284 C 27.5158 2.1291 0.98521 0
M  V30 285 C 28.5318 1.07834 1.36557 0
M  V30 286 O 29.7078 1.39826 1.44951 0
M  V30 287 C 26.7728 2.63512 2.25305 0
M  V30 288 C 25.8338 3.83256 1.93426 0
M  V30 289 C 25.0668 4.31435 3.14165 0
M  V30 290 O 25.2898 3.78851 4.26413 0
M  V30 291 O 24.2238 5.23416 2.97186 0
M  V30 292 H 28.0498 2.98772 0.544888 0
M  V30 293 H 25.6348 1.48012 0.203141 0
M  V30 294 H 27.5168 2.96183 2.99756 0
M  V30 295 H 26.1918 1.8074 2.68542 0
M  V30 296 H 25.0988 3.55531 1.16398 0
M  V30 297 H 26.4318 4.67153 1.55013 0
M  V30 298 N 28.0839 -0.256276 1.55502 0
M  V30 299 C 29.3319 -0.983672 1.76545 0
M  V30 300 C 29.6529 -1.86206 0.578982 0
M  V30 301 O 28.9229 -1.91656 -0.405577 0
M  V30 302 H 27.5029 -0.366191 0.651086 0
M  V30 303 H 30.1649 -0.276479 1.92929 0
M  V30 304 H 29.2609 -1.61087 2.67315 0
M  V30 305 N 29.562 -1.4872 -0.521534 0
M  V30 306 C 30.811 -1.56419 -1.27341 0
M  V30 307 C 31.124 -0.246805 -1.94037 0
M  V30 308 O 32.33 -0.202122 -2.70747 0
M  V30 309 C 30.786 -2.75896 -2.31105 0
M  V30 310 C 30.394 -4.14311 -1.70441 0
M  V30 311 C 32.138 -2.92913 -3.07249 0
M  V30 312 C 30.045 -5.25038 -2.72194 0
M  V30 313 H 28.975 -0.582344 -0.478949 0
M  V30 314 H 31.626 -1.75071 -0.549779 0
M  V30 315 H 30.008 -2.50697 -3.06541 0
M  V30 316 H 31.182 -4.49564 -1.01136 0
M  V30 317 H 29.497 -4.02482 -1.06759 0
M  V30 318 H 32.094 -3.72805 -3.83302 0
M  V30 319 H 32.437 -2.02689 -3.63625 0
M  V30 320 H 32.97 -3.18054 -2.38928 0
M  V30 321 H 29.709 -6.17255 -2.20627 0
M  V30 322 H 29.229 -4.94263 -3.39801 0
M  V30 323 H 30.908 -5.53508 -3.35019 0
M  V30 324 N 31.0401 0.771051 -1.3745 0
M  V30 325 C 32.4511 1.34737 -1.29239 0
M  V30 326 C 32.8021 1.96109 0.0596908 0
M  V30 327 O 31.9271 1.93865 0.961534 0
M  V30 328 C 32.5221 2.44973 -2.34037 0
M  V30 329 C 31.0811 2.98372 -2.29458 0
M  V30 330 C 30.2281 1.71595 -2.17831 0
M  V30 331 H 33.1791 0.571256 -1.48062 0
M  V30 332 H 33.2001 3.24471 -1.98744 0
M  V30 333 H 32.7121 2.00276 -3.32432 0
M  V30 334 H 30.8131 3.47443 -1.34589 0
M  V30 335 H 30.9261 3.53939 -3.229 0
M  V30 336 H 29.2901 1.94547 -1.64388 0
M  V30 337 H 30.0731 1.29001 -3.18141 0
M  V30 338 N 32.5182 1.22032 0.997298 0
M  V30 339 C 33.4812 0.987909 2.06816 0
M  V30 340 C 34.4812 -0.0440084 1.6074 0
M  V30 341 O 35.6712 0.194053 1.73116 0
M  V30 342 C 32.8032 0.49132 3.37341 0
M  V30 343 H 33.9962 1.93803 2.28868 0
M  V30 344 H 31.5492 1.03838 1.16822 0
M  V30 345 H 32.2842 -0.463364 3.20973 0
M  V30 346 H 32.0692 1.23575 3.72118 0
M  V30 347 H 33.5592 0.348824 4.16141 0
M  V30 348 N 33.9963 -1.19345 1.0293 0
M  V30 349 C 35.2443 -1.88665 0.724574 0
M  V30 350 C 35.5653 -1.80036 -0.749144 0
M  V30 351 O 34.8353 -1.2111 -1.53978 0
M  V30 352 H 33.4153 -0.698406 0.265025 0
M  V30 353 H 36.0773 -1.44885 1.30362 0
M  V30 354 H 35.1733 -2.94987 1.01926 0
M  V30 355 N 35.4744 -0.807222 -1.35358 0
M  V30 356 C 36.4044 -0.232509 -2.3234 0
M  V30 357 C 37.3854 0.642386 -1.57504 0
M  V30 358 O 38.5704 0.572526 -1.85569 0
M  V30 359 C 35.7004 0.619238 -3.41735 0
M  V30 360 C 34.6544 -0.157215 -4.27711 0
M  V30 361 C 33.9804 0.816273 -5.28433 0
M  V30 362 C 35.2804 -1.35656 -5.04376 0
M  V30 363 H 36.9744 -1.04276 -2.80654 0
M  V30 364 H 34.5204 -0.50288 -1.34934 0
M  V30 365 H 36.4734 1.03137 -4.08584 0
M  V30 366 H 35.1974 1.46239 -2.92031 0
M  V30 367 H 33.8564 -0.550525 -3.62443 0
M  V30 368 H 33.5044 1.65494 -4.74996 0
M  V30 369 H 33.2044 0.301067 -5.86828 0
M  V30 370 H 34.7284 1.22659 -5.98153 0
M  V30 371 H 36.1424 -1.01927 -5.64166 0
M  V30 372 H 34.5394 -1.8063 -5.7227 0
M  V30 373 H 35.6094 -2.14288 -4.34981 0
M  V30 374 N 36.9525 1.47285 -0.560781 0
M  V30 375 C 38.3635 1.86258 -0.128343 0
M  V30 376 C 38.7145 1.46699 1.30284 0
M  V30 377 O 37.8395 0.871698 1.98067 0
M  V30 378 C 38.4345 3.38044 -0.22614 0
M  V30 379 C 36.9935 3.76096 0.151283 0
M  V30 380 C 36.1405 2.71335 -0.572084 0
M  V30 381 H 39.0915 1.38752 -0.770297 0
M  V30 382 H 39.1125 3.76441 0.554322 0
M  V30 383 H 38.6245 3.66806 -1.26788 0
M  V30 384 H 36.7255 3.52951 1.19399 0
M  V30 385 H 36.8385 4.78641 -0.209765 0
M  V30 386 H 35.2025 2.54696 -0.0147653 0
M  V30 387 H 35.9855 3.02938 -1.61504 0
M  V30 388 N 38.4306 0.297415 1.54768 0
M  V30 389 C 39.3606 -0.573494 2.26348 0
M  V30 390 C 40.3416 -1.14085 1.26169 0
M  V30 391 O 41.5266 -1.17086 1.54934 0
M  V30 392 C 38.6566 -1.74716 3.00153 0
M  V30 393 C 37.6106 -1.31032 4.07449 0
M  V30 394 C 36.9366 -2.56887 4.68949 0
M  V30 395 C 38.2366 -0.444183 5.20408 0
M  V30 396 H 39.9306 0.0235131 2.99391 0
M  V30 397 H 37.4766 0.0127488 1.43994 0
M  V30 398 H 39.4296 -2.3625 3.48947 0
M  V30 399 H 38.1536 -2.37035 2.24682 0
M  V30 400 H 36.8126 -0.718066 3.59499 0
M  V30 401 H 36.4606 -3.17512 3.90122 0
M  V30 402 H 36.1606 -2.2836 5.41411 0
M  V30 403 H 37.6846 -3.19229 5.20505 0
M  V30 404 H 39.0986 -0.9651 5.65118 0
M  V30 405 H 37.4956 -0.252846 5.99567 0
M  V30 406 H 38.5656 0.531609 4.81977 0
M  V30 407 N 39.9087 -1.5758 0.0250728 0
M  V30 408 C 41.1367 -1.9593 -0.664747 0
M  V30 409 C 41.5517 -0.901352 -1.65895 0
M  V30 410 O 40.9087 0.117255 -1.82123 0
M  V30 411 C 40.9597 -3.34342 -1.37468 0
M  V30 412 O 40.6807 -4.36079 -0.420324 0
M  V30 413 C 42.1817 -3.873 -2.1567 0
M  V30 414 H 39.4017 -0.645405 -0.183557 0
M  V30 415 H 41.9457 -2.04329 0.0836372 0
M  V30 416 H 40.1007 -3.27175 -2.0745 0
M  V30 417 H 40.5147 -5.16297 -0.923991 0
M  V30 418 H 41.9887 -4.86504 -2.60803 0
M  V30 419 H 42.4657 -3.21331 -2.99405 0
M  V30 420 H 43.0717 -3.97723 -1.50654 0
M  V30 421 N 41.3868 0.248026 -1.55636 0
M  V30 422 C 42.3498 1.29044 -1.89421 0
M  V30 423 C 43.3498 1.41134 -0.770581 0
M  V30 424 O 44.5398 1.39854 -1.03858 0
M  V30 425 C 41.6718 2.66831 -2.12165 0
M  V30 426 H 42.8648 1.00305 -2.82629 0
M  V30 427 H 40.4178 0.487265 -1.48511 0
M  V30 428 H 41.1528 3.00711 -1.21422 0
M  V30 429 H 40.9378 2.59438 -2.93997 0
M  V30 430 H 42.4278 3.42103 -2.3949 0
M  V30 431 N 42.8649 1.48995 0.513639 0
M  V30 432 C 43.7749 1.67443 1.64317 0
M  V30 433 C 44.7909 0.556947 1.64846 0
M  V30 434 O 45.9669 0.830082 1.83498 0
M  V30 435 C 43.0319 1.72515 3.00732 0
M  V30 436 C 42.0929 2.96009 3.1093 0
M  V30 437 C 41.3259 3.00829 4.40837 0
M  V30 438 O 41.5489 2.13594 5.28898 0
M  V30 439 O 40.4829 3.93168 4.55744 0
M  V30 440 H 44.3089 2.63106 1.51687 0
M  V30 441 H 41.8939 1.32588 0.688543 0
M  V30 442 H 43.7759 1.78277 3.81831 0
M  V30 443 H 42.4509 0.800278 3.13651 0
M  V30 444 H 41.3579 2.9577 2.29065 0
M  V30 445 H 42.6909 3.87934 3.02933 0
M  V30 446 N 44.343 -0.763751 1.37857 0
M  V30 447 C 45.62 -1.51244 1.24035 0
M  V30 448 C 46 -2.10472 -0.162649 0
M  V30 449 O 45.348 -1.96206 -1.17112 0
M  V30 450 C 45.558 -2.58694 2.34261 0
M  V30 451 C 46.906 -3.25878 2.72193 0
M  V30 452 O 47.93 -2.68993 2.33497 0
M  V30 453 O 46.789 -4.2874 3.38887 0
M  V30 454 H 43.883 -0.670243 0.484462 0
M  V30 455 H 46.429 -0.800031 1.49658 0
M  V30 456 H 45.201 -2.13105 3.2818 0
M  V30 457 H 44.824 -3.37527 2.10146 0
M  V30 458 N 45.8211 -1.22559 -0.990812 0
M  V30 459 C 47.0701 -1.04553 -1.72486 0
M  V30 460 C 47.3831 0.419349 -1.91052 0
M  V30 461 O 48.5891 0.719121 -2.61803 0
M  V30 462 C 47.0451 -1.82231 -3.10355 0
M  V30 463 C 46.6531 -3.32981 -2.99713 0
M  V30 464 C 48.3971 -1.7268 -3.87791 0
M  V30 465 C 46.3041 -4.03091 -4.32748 0
M  V30 466 H 45.2341 -0.387614 -0.646739 0
M  V30 467 H 47.8851 -1.46429 -1.10593 0
M  V30 468 H 46.2671 -1.33155 -3.72942 0
M  V30 469 H 47.4411 -3.89466 -2.46278 0
M  V30 470 H 45.7561 -3.43231 -2.35758 0
M  V30 471 H 48.3531 -2.22381 -4.86262 0
M  V30 472 H 48.6961 -0.687607 -4.10582 0
M  V30 473 H 49.2291 -2.1931 -3.31885 0
M  V30 474 H 45.9681 -5.07273 -4.15156 0
M  V30 475 H 45.4881 -3.51394 -4.86089 0
M  V30 476 H 47.1671 -4.08804 -5.01486 0
M  V30 477 N 47.2992 1.18797 -1.03562 0
M  V30 478 C 48.2472 2.24297 -0.615905 0
M  V30 479 C 49.2412 1.65643 0.354808 0
M  V30 480 O 50.4472 1.78618 0.22265 0
M  V30 481 H 46.8222 0.729909 -0.180934 0
M  V30 482 H 48.7932 2.5701 -1.5162 0
M  V30 483 C 47.5422 3.47698 0.0104735 0
M  V30 484 H 46.8652 3.93125 -0.727509 0
M  V30 485 H 48.3052 4.23159 0.266995 0
M  V30 486 C 46.7642 3.12489 1.25905 0
M  V30 487 O 47.2942 3.25761 2.35038 0
M  V30 488 N 45.5002 2.6686 1.15039 0
M  V30 489 H 45.0472 2.56261 0.262328 0
M  V30 490 H 45.0052 2.43674 1.98672 0
M  V30 491 N 48.7773 0.814389 1.34928 0
M  V30 492 C 49.6873 0.231978 2.3345 0
M  V30 493 C 50.7033 -0.629139 1.62228 0
M  V30 494 O 51.8793 -0.539052 1.94052 0
M  V30 495 C 48.9443 -0.603482 3.41407 0
M  V30 496 C 48.0053 0.279037 4.28392 0
M  V30 497 C 47.2383 -0.516643 5.31193 0
M  V30 498 O 47.4613 -1.75068 5.4287 0
M  V30 499 O 46.3953 0.0965652 6.01823 0
M  V30 500 H 50.2213 1.04721 2.85074 0
M  V30 501 H 47.8063 0.576343 1.37836 0
M  V30 502 H 49.6883 -1.07908 4.0735 0
M  V30 503 H 48.3633 -1.39618 2.92042 0
M  V30 504 H 47.2703 0.801948 3.65403 0
M  V30 505 H 48.6033 1.03588 4.81176 0
M  V30 506 N 50.2554 -1.46986 0.568584 0
M  V30 507 C 51.5324 -1.95592 -0.0174074 0
M  V30 508 C 51.9124 -1.51124 -1.47393 0
M  V30 509 O 51.2604 -0.755329 -2.15655 0
M  V30 510 C 51.4704 -3.48719 0.139913 0
M  V30 511 C 52.8184 -4.246 0.000426376 0
M  V30 512 O 53.8424 -3.56135 0.0680316 0
M  V30 513 O 52.7014 -5.46302 -0.146988 0
M  V30 514 H 49.7954 -0.82498 -0.0577599 0
M  V30 515 H 52.3414 -1.57335 0.635909 0
M  V30 516 H 51.1134 -3.73927 1.15301 0
M  V30 517 H 50.7364 -3.93771 -0.550491 0
M  V30 518 N 51.7335 -0.305618 -1.54608 0
M  V30 519 C 52.6635 0.561482 -2.26649 0
M  V30 520 C 53.6445 1.13415 -1.26772 0
M  V30 521 O 54.8295 1.16262 -1.55553 0
M  V30 522 C 51.9595 1.73122 -3.01075 0
M  V30 523 C 50.9135 1.2887 -4.08138 0
M  V30 524 C 50.2395 2.54396 -4.70305 0
M  V30 525 C 51.5395 0.416578 -5.20636 0
M  V30 526 H 53.2335 -0.0393902 -2.99374 0
M  V30 527 H 50.7795 -0.020385 -1.43986 0
M  V30 528 H 52.7325 2.34396 -3.50195 0
M  V30 529 H 51.4565 2.3584 -2.25936 0
M  V30 530 H 50.1155 0.698991 -3.59875 0
M  V30 531 H 49.7635 3.15439 -3.918 0
M  V30 532 H 49.4635 2.25486 -5.42614 0
M  V30 533 H 50.9875 3.16464 -5.2219 0
M  V30 534 H 52.4015 0.935116 -5.65622 0
M  V30 535 H 50.7985 0.221046 -5.99693 0
M  V30 536 H 51.8685 -0.557162 -4.81688 0
M  V30 537 N 53.2116 1.57565 -0.0334293 0
M  V30 538 C 54.6276 1.56297 0.322997 0
M  V30 539 C 54.8276 1.03945 1.7262 0
M  V30 540 O 53.8836 0.688109 2.42943 0
M  V30 541 C 55.1966 3.00232 0.167664 0
M  V30 542 C 56.7446 3.12078 0.240107 0
M  V30 543 C 57.2196 4.57859 0.113513 0
M  V30 544 N 58.7106 4.62887 0.170359 0
M  V30 545 C 59.4456 5.73319 0.0962517 0
M  V30 546 N 58.9416 6.92794 -0.0291881 0
M  V30 547 N 60.7346 5.61898 0.150551 0
M  V30 548 H 52.8856 1.89923 -0.950956 0
M  V30 549 H 55.1486 0.873824 -0.367608 0
M  V30 550 H 54.8546 3.42501 -0.799102 0
M  V30 551 H 54.7286 3.654 0.936083 0
M  V30 552 H 57.1156 2.69718 1.19733 0
M  V30 553 H 57.1966 2.49623 -0.558763 0
M  V30 554 H 56.8406 5.009 -0.840314 0
M  V30 555 H 56.7706 5.18299 0.931302 0
M  V30 556 H 59.2616 3.76954 0.26728 0
M  V30 557 H 59.5746 7.7276 -0.0789252 0
M  V30 558 H 57.9196 6.94971 -0.0640299 0
M  V30 559 H 61.1106 4.67448 0.246981 0
M  V30 560 H 61.2836 6.47938 0.0893365 0
M  V30 561 N 54.6897 -0.239769 1.55765 0
M  V30 562 C 56.1057 -0.588624 1.48349 0
M  V30 563 C 56.3057 -1.88005 0.72502 0
M  V30 564 O 55.3617 -2.51186 0.257269 0
M  V30 565 C 56.6747 -0.68474 2.928 0
M  V30 566 C 58.2227 -0.77659 3.03213 0
M  V30 567 C 58.6977 -0.904207 4.48986 0
M  V30 568 N 60.1887 -0.968896 4.52953 0
M  V30 569 C 60.9237 -1.08703 5.63002 0
M  V30 570 N 60.4197 -1.17026 6.82845 0
M  V30 571 N 62.2127 -1.12074 5.50814 0
M  V30 572 H 54.3637 0.607911 2.03515 0
M  V30 573 H 56.6267 0.21083 0.924259 0
M  V30 574 H 56.3327 0.194284 3.51163 0
M  V30 575 H 56.2067 -1.55435 3.43686 0
M  V30 576 H 58.5937 -1.64606 2.44926 0
M  V30 577 H 58.6747 0.118315 2.55526 0
M  V30 578 H 58.3187 -0.0392633 5.07885 0
M  V30 579 H 58.2487 -1.81426 4.9436 0
M  V30 580 H 60.7397 -0.915633 3.6664 0
M  V30 581 H 61.0527 -1.25966 7.62465 0
M  V30 582 H 59.3977 -1.13971 6.85591 0
M  V30 583 H 62.5887 -1.05226 4.5612 0
M  V30 584 H 62.7617 -1.20936 6.36615 0
M  V30 585 N 56.1678 -1.49265 -0.50573 0
M  V30 586 C 57.5838 -1.35923 -0.836486 0
M  V30 587 C 57.7838 -0.388704 -1.97715 0
M  V30 588 O 56.8398 0.181336 -2.51848 0
M  V30 589 C 58.1528 -2.76531 -1.18115 0
M  V30 590 C 59.7008 -2.85197 -1.28964 0
M  V30 591 C 60.1758 -4.26561 -1.66761 0
M  V30 592 N 61.6668 -4.2935 -1.73819 0
M  V30 593 C 62.4018 -5.35693 -2.045 0
M  V30 594 N 61.8978 -6.52287 -2.33438 0
M  V30 595 N 63.6908 -5.23105 -2.05711 0
M  V30 596 H 55.8418 -2.10965 0.246519 0
M  V30 597 H 58.1048 -0.9468 0.0476887 0
M  V30 598 H 57.8108 -3.49226 -0.416398 0
M  V30 599 H 57.6848 -3.11599 -2.1257 0
M  V30 600 H 60.0718 -2.12742 -2.04511 0
M  V30 601 H 60.1528 -2.53718 -0.325704 0
M  V30 602 H 59.7968 -4.99541 -0.917656 0
M  V30 603 H 59.7268 -4.55502 -2.64246 0
M  V30 604 H 62.2178 -3.4526 -1.53635 0
M  V30 605 H 62.5308 -7.29158 -2.56024 0
M  V30 606 H 60.8758 -6.55521 -2.30905 0
M  V30 607 H 64.0668 -4.31026 -1.82577 0
M  V30 608 H 64.2398 -6.06078 -2.29289 0
M  V30 609 N 57.6459 0.756429 -1.3826 0
M  V30 610 C 58.5779 1.87971 -1.31147 0
M  V30 611 C 59.5909 1.61248 -0.224239 0
M  V30 612 O 60.7799 1.71881 -0.481581 0
M  V30 613 C 57.8799 3.23545 -1.00857 0
M  V30 614 C 57.0529 3.77794 -2.20432 0
M  V30 615 C 56.1119 4.91877 -1.86931 0
M  V30 616 O 55.1379 5.06659 -2.59395 0
M  V30 617 N 56.3399 5.74643 -0.822568 0
M  V30 618 H 59.1049 1.94585 -2.2794 0
M  V30 619 H 56.6659 0.936234 -1.32084 0
M  V30 620 H 58.6579 3.97403 -0.765021 0
M  V30 621 H 57.2279 3.12335 -0.128687 0
M  V30 622 H 56.4479 2.95534 -2.6087 0
M  V30 623 H 57.7359 4.10771 -3.00241 0
M  V30 624 H 57.1339 5.65266 -0.221575 0
M  V30 625 H 55.6909 6.48661 -0.638899 0
M  V30 626 N 59.124 1.23083 0.984299 0
M  V30 627 C 60.372 1.05848 1.72165 0
M  V30 628 C 60.693 -0.406049 1.90726 0
M  V30 629 O 59.963 -1.29139 1.47309 0
M  V30 630 H 58.543 0.388685 0.637913 0
M  V30 631 H 61.205 1.54736 1.18503 0
M  V30 632 H 60.301 1.54327 2.71274 0
M  V30 633 N 60.6021 -1.18246 1.0419 0
M  V30 634 C 61.8501 -1.87886 0.744543 0
M  V30 635 C 62.1711 -1.8082 -0.730006 0
M  V30 636 O 61.4411 -1.22736 -1.52685 0
M  V30 637 H 60.0211 -0.695556 0.272417 0
M  V30 638 H 62.6831 -1.43494 1.31892 0
M  V30 639 H 61.7791 -2.9389 1.05049 0
M  V30 640 N 62.0802 -0.821533 -1.34494 0
M  V30 641 C 63.3102 -0.421272 -2.02259 0
M  V30 642 C 63.7182 0.977047 -1.6202 0
M  V30 643 O 63.0612 1.64348 -0.820703 0
M  V30 644 C 63.1232 -0.44231 -3.56769 0
M  V30 645 C 62.7872 -1.79372 -4.20327 0
M  V30 646 C 63.7842 -2.75435 -4.40944 0
M  V30 647 C 61.4692 -2.08182 -4.57127 0
M  V30 648 C 63.4632 -3.98482 -4.97484 0
M  V30 649 C 61.1502 -3.31489 -5.13379 0
M  V30 650 C 62.1482 -4.26457 -5.33501 0
M  V30 651 O 61.8362 -5.47585 -5.88562 0
M  V30 652 H 61.5682 -0.167473 -0.654927 0
M  V30 653 H 64.1222 -1.11073 -1.72777 0
M  V30 654 H 62.3522 0.303836 -3.85505 0
M  V30 655 H 64.0412 -0.0622925 -4.05852 0
M  V30 656 H 64.8072 -2.54473 -4.12878 0
M  V30 657 H 60.6862 -1.35066 -4.4077 0
M  V30 658 H 64.2302 -4.72618 -5.13106 0
M  V30 659 H 60.1272 -3.52316 -5.40873 0
M  V30 660 H 60.8952 -5.49086 -6.06998 0
M  V30 661 N 63.5583 1.46682 -0.576371 0
M  V30 662 C 64.8063 2.02013 -0.0594163 0
M  V30 663 C 65.1273 1.45101 1.30271 0
M  V30 664 O 64.3973 0.633317 1.8538 0
M  V30 665 H 62.9773 0.746759 -0.0189745 0
M  V30 666 H 65.6393 1.79862 -0.750717 0
M  V30 667 H 64.7353 3.12097 0.014345 0
M  V30 668 N 65.0364 0.313813 1.54444 0
M  V30 669 C 66.4524 -0.0391619 1.59552 0
M  V30 670 C 66.6524 -1.51322 1.33056 0
M  V30 671 O 65.7084 -2.26782 1.11022 0
M  V30 672 C 67.0214 0.370302 2.98411 0
M  V30 673 C 68.5694 0.320139 3.11358 0
M  V30 674 C 69.0444 0.704617 4.52547 0
M  V30 675 N 70.5354 0.657645 4.58508 0
M  V30 676 C 71.2704 0.927453 5.6585 0
M  V30 677 N 70.7664 1.26389 6.81174 0
M  V30 678 N 72.5594 0.853662 5.5558 0
M  V30 679 H 64.7104 1.27433 1.69925 0
M  V30 680 H 66.9734 0.517511 0.794284 0
M  V30 681 H 66.6794 1.39694 3.22767 0
M  V30 682 H 66.5534 -0.269619 3.76235 0
M  V30 683 H 68.9404 -0.697275 2.86744 0
M  V30 684 H 69.0214 0.99486 2.35661 0
M  V30 685 H 68.6654 1.7199 4.77893 0
M  V30 686 H 68.5954 0.00768843 5.26599 0
M  V30 687 H 71.0864 0.409067 3.75679 0
M  V30 688 H 71.3994 1.4554 7.58972 0
M  V30 689 H 69.7444 1.30206 6.82694 0
M  V30 690 H 72.9354 0.590383 4.64362 0
M  V30 691 H 73.1084 1.0673 6.3915 0
M  V30 692 N 66.5145 -1.57545 0.0417849 0
M  V30 693 C 67.7625 -1.91937 -0.632829 0
M  V30 694 C 68.0835 -0.919978 -1.71934 0
M  V30 695 O 67.3535 0.0366064 -1.95866 0
M  V30 696 H 65.9335 -0.708493 -0.236742 0
M  V30 697 H 68.5955 -1.9468 0.0925745 0
M  V30 698 H 67.6915 -2.92912 -1.07746 0
M  V30 699 N 67.9926 0.231505 -1.5589 0
M  V30 700 C 69.2406 0.955461 -1.78088 0
M  V30 701 C 69.5616 1.85262 -0.608533 0
M  V30 702 O 68.8316 1.92277 0.375035 0
M  V30 703 H 67.4116 0.355787 -0.656829 0
M  V30 704 H 70.0736 0.245751 -1.93344 0
M  V30 705 H 69.1696 1.56814 -2.69844 0
M  V30 706 N 69.4707 1.49531 0.497807 0
M  V30 707 C 70.8867 1.36365 0.829266 0
M  V30 708 C 71.0867 0.399184 1.97506 0
M  V30 709 O 70.1427 -0.167977 2.51941 0
M  V30 710 C 71.4557 2.77153 1.16647 0
M  V30 711 C 73.0037 2.85877 1.27449 0
M  V30 712 C 73.4787 4.2744 1.64497 0
M  V30 713 N 74.9697 4.30265 1.7154 0
M  V30 714 C 75.7047 5.3677 2.01656 0
M  V30 715 N 75.2007 6.53516 2.29976 0
M  V30 716 N 76.9937 5.24189 2.02934 0
M  V30 717 H 69.1447 2.10831 -0.257703 0
M  V30 718 H 71.4077 0.946534 -0.0527091 0
M  V30 719 H 71.1137 3.49442 0.397872 0
M  V30 720 H 70.9877 3.12722 2.10915 0
M  V30 721 H 73.3747 2.13824 2.0338 0
M  V30 722 H 73.4557 2.53887 0.312244 0
M  V30 723 H 73.0997 5.00021 0.891151 0
M  V30 724 H 73.0297 4.56896 2.61827 0
M  V30 725 H 75.5207 3.4607 1.51802 0
M  V30 726 H 75.8337 7.30506 2.52153 0
M  V30 727 H 74.1787 6.56737 2.27425 0
M  V30 728 H 77.3697 4.31988 1.80289 0
M  V30 729 H 77.5427 6.07286 2.26071 0
M  V30 730 N 70.9488 -0.749086 1.3866 0
M  V30 731 C 71.8818 -1.87111 1.30631 0
M  V30 732 C 72.8598 -1.61572 0.18251 0
M  V30 733 O 74.0438 -1.85019 0.360592 0
M  V30 734 C 71.1708 -3.22815 1.02511 0
M  V30 735 C 70.2168 -3.67234 2.1689 0
M  V30 736 S 71.0498 -3.78245 3.79066 0
M  V30 737 C 72.2058 -5.16761 3.53142 0
M  V30 738 H 72.4388 -1.93636 2.25594 0
M  V30 739 H 69.9718 -0.912525 1.24549 0
M  V30 740 H 71.9298 -4.01181 0.869701 0
M  V30 741 H 70.5908 -3.13964 0.0925884 0
M  V30 742 H 69.7838 -4.65677 1.92771 0
M  V30 743 H 69.3858 -2.96034 2.28561 0
M  V30 744 H 71.6778 -6.02656 3.09534 0
M  V30 745 H 72.6208 -5.45902 4.50995 0
M  V30 746 H 73.0288 -4.85771 2.87554 0
M  V30 747 N 72.4269 -1.23603 -0.977757 0
M  V30 748 C 73.3739 -1.01954 -2.07061 0
M  V30 749 C 74.3439 0.0638697 -1.65977 0
M  V30 750 O 75.5289 -0.0887624 -1.90593 0
M  V30 751 C 72.6689 -0.619658 -3.39491 0
M  V30 752 C 71.7819 -1.77547 -3.93829 0
M  V30 753 C 70.9169 -1.32212 -5.14484 0
M  V30 754 C 69.9559 -2.44852 -5.60994 0
M  V30 755 N 69.0929 -2.00456 -6.72876 0
M  V30 756 H 73.9329 -1.95495 -2.24913 0
M  V30 757 H 71.4699 -0.973861 -1.10247 0
M  V30 758 H 73.4279 -0.368898 -4.15566 0
M  V30 759 H 72.0579 0.278752 -3.21594 0
M  V30 760 H 71.1099 -2.14016 -3.14486 0
M  V30 761 H 72.4219 -2.62219 -4.24314 0
M  V30 762 H 71.5759 -1.02965 -5.97899 0
M  V30 763 H 70.3149 -0.445808 -4.85658 0
M  V30 764 H 69.3199 -2.74871 -4.76157 0
M  V30 765 H 70.5449 -3.33024 -5.91837 0
M  V30 766 H 68.4909 -1.15208 -6.45804 0
M  V30 767 H 68.4079 -2.78687 -7.02759 0
M  V30 768 H 69.6759 -1.7432 -7.59758 0
M  V30 769 N 73.905 1.17692 -1.04816 0
M  V30 770 C 75.154 1.87192 -0.751132 0
M  V30 771 C 75.467 1.8169 0.724441 0
M  V30 772 O 76.673 2.46625 1.13527 0
M  V30 773 C 75.129 3.35857 -1.29338 0
M  V30 774 C 74.737 3.4987 -2.79812 0
M  V30 775 C 76.481 4.10709 -1.07322 0
M  V30 776 C 74.388 4.92536 -3.27356 0
M  V30 777 H 73.318 0.701162 -0.277288 0
M  V30 778 H 75.969 1.32932 -1.26496 0
M  V30 779 H 74.351 3.89631 -0.707376 0
M  V30 780 H 75.525 3.06332 -3.44235 0
M  V30 781 H 73.84 2.88433 -3.00325 0
M  V30 782 H 76.437 5.15952 -1.4035 0
M  V30 783 H 76.78 4.16299 -0.0108001 0
M  V30 784 H 77.313 3.6313 -1.62423 0
M  V30 785 H 74.052 4.92119 -4.33012 0
M  V30 786 H 73.572 5.3676 -2.67673 0
M  V30 787 H 75.251 5.61288 -3.21815 0
M  V30 788 N 75.3831 0.828654 1.34056 0
M  V30 789 C 76.2931 0.256725 2.33191 0
M  V30 790 C 77.3091 -0.611898 1.62886 0
M  V30 791 O 78.4851 -0.51844 1.94613 0
M  V30 792 C 75.5501 -0.567238 3.42028 0
M  V30 793 C 74.6111 0.324458 4.28072 0
M  V30 794 C 73.8441 -0.460274 5.31712 0
M  V30 795 O 74.0671 -1.693 5.44696 0
M  V30 796 O 73.0011 0.160391 6.01686 0
M  V30 797 H 76.8271 1.07739 2.83947 0
M  V30 798 H 74.4121 0.59093 1.37217 0
M  V30 799 H 76.2941 -1.03582 4.08471 0
M  V30 800 H 74.9691 -1.36513 2.93506 0
M  V30 801 H 73.8761 0.840659 3.64532 0
M  V30 802 H 75.2091 1.08685 4.8005 0
M  V30 803 N 76.8612 -1.46375 0.584142 0
M  V30 804 C 77.8092 -2.32042 -0.161047 0
M  V30 805 C 78.8032 -1.44569 -0.882966 0
M  V30 806 O 80.0092 -1.61186 -0.801191 0
M  V30 807 H 76.3842 -0.748659 -0.0708033 0
M  V30 808 H 78.3552 -2.92704 0.580269 0
M  V30 809 C 77.1042 -3.27762 -1.1605 0
M  V30 810 H 76.4272 -3.95051 -0.614419 0
M  V30 811 H 77.8672 -3.90481 -1.65228 0
M  V30 812 C 76.3262 -2.53218 -2.22221 0
M  V30 813 O 76.8562 -2.29628 -3.29597 0
M  V30 814 N 75.0622 -2.13756 -1.96868 0
M  V30 815 H 74.6092 -2.33142 -1.09557 0
M  V30 816 H 74.5672 -1.642 -2.68115 0
M  V30 817 N 78.3393 -0.321999 -1.54275 0
M  V30 818 C 79.6163 0.335232 -1.92706 0
M  V30 819 C 79.9963 1.70006 -1.25145 0
M  V30 820 O 79.3443 2.25067 -0.394596 0
M  V30 821 C 79.5543 0.429008 -3.46353 0
M  V30 822 C 80.9023 0.690029 -4.18956 0
M  V30 823 O 81.9263 0.511992 -3.52501 0
M  V30 824 O 80.7853 1.03338 -5.36641 0
M  V30 825 H 77.8793 0.191143 -0.804608 0
M  V30 826 H 80.4253 -0.3716 -1.65581 0
M  V30 827 H 79.1973 -0.529611 -3.87699 0
M  V30 828 H 78.8203 1.18348 -3.79578 0
M  V30 829 N 79.8174 1.5752 -0.0501392 0
M  V30 830 C 80.7494 2.08413 0.95376 0
M  V30 831 C 81.7624 1.01175 1.27544 0
M  V30 832 O 82.9514 1.28744 1.23641 0
M  V30 833 C 80.0514 2.51138 2.27559 0
M  V30 834 C 79.2244 3.817 2.13598 0
M  V30 835 C 78.2834 4.10749 3.28895 0
M  V30 836 O 77.3094 4.80685 3.04845 0
M  V30 837 N 78.5114 3.62579 4.5334 0
M  V30 838 H 81.2764 2.95165 0.519383 0
M  V30 839 H 78.8374 1.61327 0.136127 0
M  V30 840 H 80.8294 2.67648 3.03557 0
M  V30 841 H 79.3994 1.6964 2.62567 0
M  V30 842 H 78.6194 3.74782 1.22197 0
M  V30 843 H 79.9074 4.67201 2.01496 0
M  V30 844 H 79.3054 3.06039 4.75769 0
M  V30 845 H 77.8624 3.84329 5.26436 0
M  V30 846 N 81.2955 -0.223234 1.56011 0
M  V30 847 C 82.5415 -0.949279 1.79211 0
M  V30 848 C 82.8745 -1.84054 0.619494 0
M  V30 849 O 82.1495 -1.90726 -0.381317 0
M  V30 850 C 82.4325 -1.78965 3.12479 0
M  V30 851 C 82.2855 -0.924997 4.40186 0
M  V30 852 C 83.6045 -2.76774 3.42175 0
M  V30 853 H 80.7235 -0.343676 0.651963 0
M  V30 854 H 83.3655 -0.218253 1.88742 0
M  V30 855 H 81.5155 -2.41291 3.04485 0
M  V30 856 H 83.1875 -0.318615 4.60198 0
M  V30 857 H 81.4305 -0.230344 4.33188 0
M  V30 858 H 82.1015 -1.54735 5.29869 0
M  V30 859 H 84.5775 -2.24584 3.50287 0
M  V30 860 H 83.4535 -3.32678 4.36597 0
M  V30 861 H 83.7145 -3.54429 2.64258 0
M  V30 862 N 82.7736 -1.49793 -0.48987 0
M  V30 863 C 84.0196 -1.60078 -1.24511 0
M  V30 864 C 84.3526 -0.291608 -1.91998 0
M  V30 865 O 83.6276 0.705647 -1.81248 0
M  V30 866 C 83.9106 -2.76791 -2.30345 0
M  V30 867 C 83.7636 -4.17535 -1.67286 0
M  V30 868 C 85.0826 -2.89111 -3.31817 0
M  V30 869 H 82.2016 -0.582645 -0.451324 0
M  V30 870 H 84.8436 -1.82117 -0.541612 0
M  V30 871 H 82.9936 -2.5813 -2.90346 0
M  V30 872 H 84.6656 -4.4774 -1.11026 0
M  V30 873 H 82.9086 -4.22665 -0.976577 0
M  V30 874 H 83.5796 -4.95094 -2.44103 0
M  V30 875 H 86.0556 -3.06133 -2.81819 0
M  V30 876 H 84.9316 -3.72433 -4.03219 0
M  V30 877 H 85.1926 -1.9893 -3.94815 0
M  V30 878 N 84.2517 0.741722 -1.39055 0
M  V30 879 C 85.4987 1.50114 -1.35912 0
M  V30 880 C 85.8267 1.94443 0.0470937 0
M  V30 881 O 85.0817 1.66612 1.02659 0
M  V30 882 C 85.3807 2.7592 -2.27163 0
M  V30 883 C 85.0467 2.50493 -3.74919 0
M  V30 884 C 83.7087 2.43267 -4.1518 0
M  V30 885 C 86.0607 2.28585 -4.684 0
M  V30 886 C 83.3887 2.12166 -5.46994 0
M  V30 887 C 85.7407 1.99002 -6.00484 0
M  V30 888 C 84.4047 1.90241 -6.39816 0
M  V30 889 H 83.6747 0.549306 -0.497336 0
M  V30 890 H 86.3217 0.851896 -1.71508 0
M  V30 891 H 84.6267 3.45553 -1.84663 0
M  V30 892 H 86.3237 3.33923 -2.22028 0
M  V30 893 H 82.9137 2.56992 -3.43006 0
M  V30 894 H 87.0977 2.33139 -4.38132 0
M  V30 895 H 82.3537 2.03901 -5.76398 0
M  V30 896 H 86.5277 1.81057 -6.72452 0
M  V30 897 H 84.1547 1.65907 -7.41875 0
M  V30 898 N 85.7298 1.2412 0.971189 0
M  V30 899 C 86.9578 1.10575 1.74874 0
M  V30 900 C 87.3728 -0.342017 1.85676 0
M  V30 901 O 86.7298 -1.23617 1.34258 0
M  V30 902 C 86.7808 1.73579 3.171 0
M  V30 903 O 86.5018 3.12695 3.06844 0
M  V30 904 C 88.0028 1.65598 4.11208 0
M  V30 905 H 85.2228 0.386504 0.548503 0
M  V30 906 H 87.7668 1.64156 1.21955 0
M  V30 907 H 85.9218 1.24009 3.67016 0
M  V30 908 H 86.3358 3.43412 3.96445 0
M  V30 909 H 87.8098 2.1437 5.08674 0
M  V30 910 H 88.2868 0.616532 4.34851 0
M  V30 911 H 88.8928 2.14578 3.67201 0
M  V30 912 N 87.2079 -1.17134 1.05439 0
M  V30 913 C 88.4329 -1.91913 0.786396 0
M  V30 914 C 88.8579 -1.7643 -0.652234 0
M  V30 915 O 88.2159 -1.08372 -1.45345 0
M  V30 916 C 88.2639 -3.40921 1.17497 0
M  V30 917 O 87.3679 -4.11244 0.308589 0
M  V30 918 H 86.7089 -0.598215 0.288158 0
M  V30 919 H 89.2389 -1.48457 1.4079 0
M  V30 920 H 89.2489 -3.91668 1.14281 0
M  V30 921 H 87.9239 -3.5151 2.22292 0
M  V30 922 H 86.5009 -3.70731 0.40157 0
M  V30 923 N 88.686 -0.835752 -1.33615 0
M  V30 924 C 89.934 -0.429109 -1.97492 0
M  V30 925 C 90.255 1.01433 -1.66543 0
M  V30 926 O 89.525 1.70611 -0.962744 0
M  V30 927 H 88.105 -0.155686 -0.730596 0
M  V30 928 H 90.767 -1.06802 -1.63031 0
M  V30 929 H 89.863 -0.55861 -3.0706 0
M  V30 930 N 90.1641 1.46063 -0.591896 0
M  V30 931 C 91.4101 2.02638 -0.0811191 0
M  V30 932 C 91.7431 1.4613 1.27905 0
M  V30 933 O 91.0181 0.629908 1.84017 0
M  V30 934 C 91.3011 3.60091 -0.0252436 0
M  V30 935 C 91.1541 4.26965 -1.41496 0
M  V30 936 C 92.4731 4.3496 0.670685 0
M  V30 937 H 89.5921 0.73635 -0.0309524 0
M  V30 938 H 92.2341 1.741 -0.760859 0
M  V30 939 H 90.3841 3.84535 0.553624 0
M  V30 940 H 92.0561 4.13756 -2.0397 0
M  V30 941 H 90.2991 3.85971 -1.98011 0
M  V30 942 H 90.9701 5.35781 -1.32825 0
M  V30 943 H 93.4461 4.15716 0.178825 0
M  V30 944 H 92.3221 5.44686 0.678837 0
M  V30 945 H 92.5831 4.06685 1.73379 0
M  V30 946 N 91.6422 0.330177 1.54103 0
M  V30 947 C 93.0582 -0.0222371 1.59585 0
M  V30 948 C 93.2582 -1.49902 1.34654 0
M  V30 949 O 92.3142 -2.25592 1.13421 0
M  V30 950 C 93.6272 0.401932 2.98002 0
M  V30 951 C 95.1752 0.353145 3.11001 0
M  V30 952 C 95.6502 0.752576 4.51775 0
M  V30 953 N 97.1412 0.706239 4.57784 0
M  V30 954 C 97.8762 0.987417 5.64834 0
M  V30 955 N 97.3722 1.33607 6.79795 0
M  V30 956 N 99.1652 0.91254 5.54643 0
M  V30 957 H 91.3162 1.29228 1.68564 0
M  V30 958 H 93.5792 0.525906 0.78875 0
M  V30 959 H 93.2852 1.4311 3.21267 0
M  V30 960 H 93.1592 -0.229699 3.765 0
M  V30 961 H 95.5462 -0.666822 2.87467 0
M  V30 962 H 95.6272 1.0198 2.34593 0
M  V30 963 H 95.2712 1.77049 4.76042 0
M  V30 964 H 95.2012 0.0635409 5.26562 0
M  V30 965 H 97.6922 0.44889 3.75224 0
M  V30 966 H 98.0052 1.53582 7.57385 0
M  V30 967 H 96.3502 1.37439 6.81275 0
M  V30 968 H 99.5412 0.639601 4.6371 0
M  V30 969 H 99.7142 1.13503 6.37982 0
M  V30 970 N 93.1203 -1.57491 0.0584922 0
M  V30 971 C 94.0703 -2.08474 -0.923188 0
M  V30 972 C 95.0543 -0.991479 -1.26722 0
M  V30 973 O 96.2463 -1.25473 -1.24842 0
M  V30 974 C 93.3753 -2.6392 -2.19548 0
M  V30 975 C 92.4613 -3.80227 -1.87852 0
M  V30 976 N 92.8523 -4.89714 -1.26546 0
M  V30 977 C 91.1503 -3.89271 -2.17679 0
M  V30 978 C 91.8513 -5.70689 -1.12644 0
M  V30 979 N 90.8273 -5.18531 -1.63176 0
M  V30 980 H 94.6293 -2.90517 -0.444653 0
M  V30 981 H 92.1433 -1.61745 -0.145764 0
M  V30 982 H 94.1403 -2.98752 -2.9078 0
M  V30 983 H 92.8003 -1.83318 -2.68001 0
M  V30 984 H 93.8113 -5.09358 -0.936757 0
M  V30 985 H 90.4883 -3.19623 -2.68602 0
M  V30 986 H 91.8783 -6.6875 -0.6499 0
M  V30 987 N 94.5984 0.214957 -1.56127 0
M  V30 988 C 95.8464 0.936518 -1.79091 0
M  V30 989 C 96.1674 1.84606 -0.628148 0
M  V30 990 O 95.4374 1.92664 0.35462 0
M  V30 991 H 94.0174 0.3488 -0.660566 0
M  V30 992 H 96.6794 0.22523 -1.93594 0
M  V30 993 H 95.7754 1.53943 -2.71492 0
M  V30 994 N 96.0765 1.50051 0.48192 0
M  V30 995 C 97.0235 1.68122 1.58125 0
M  V30 996 C 97.9935 0.522545 1.57666 0
M  V30 997 O 99.1785 0.751844 1.75362 0
M  V30 998 C 96.3185 1.77142 2.96167 0
M  V30 999 C 95.4315 3.0444 3.06497 0
M  V30 1000 C 94.5665 3.04321 4.35387 0
M  V30 1001 C 93.6055 4.26118 4.3942 0
M  V30 1002 N 92.7425 4.238 5.59766 0
M  V30 1003 H 97.5825 2.6198 1.42022 0
M  V30 1004 H 95.1195 1.29877 0.690687 0
M  V30 1005 H 97.0775 1.80352 3.76203 0
M  V30 1006 H 95.7075 0.867329 3.1093 0
M  V30 1007 H 94.7595 3.10752 2.19402 0
M  V30 1008 H 96.0715 3.94426 3.05336 0
M  V30 1009 H 95.2255 3.062 5.23762 0
M  V30 1010 H 93.9645 2.12147 4.39141 0
M  V30 1011 H 92.9695 4.24463 3.49444 0
M  V30 1012 H 94.1945 5.19507 4.37366 0
M  V30 1013 H 92.1405 3.34474 5.64326 0
M  V30 1014 H 92.0575 5.07542 5.60301 0
M  V30 1015 H 93.3255 4.2981 6.50295 0
M  V30 1016 N 97.5546 -0.734337 1.39446 0
M  V30 1017 C 98.7826 -1.52358 1.39981 0
M  V30 1018 C 99.1976 -1.88799 -0.0054975 0
M  V30 1019 O 98.5546 -1.54146 -0.976998 0
M  V30 1020 C 98.6056 -2.81072 2.27333 0
M  V30 1021 O 98.3266 -2.46178 3.62392 0
M  V30 1022 C 99.8276 -3.75096 2.36259 0
M  V30 1023 H 97.0476 -0.470806 0.478103 0
M  V30 1024 H 99.5916 -0.907339 1.83269 0
M  V30 1025 H 97.7466 -3.39026 1.87457 0
M  V30 1026 H 98.1606 -3.28866 4.08592 0
M  V30 1027 H 99.6346 -4.62305 3.01626 0
M  V30 1028 H 100.112 -4.16892 1.38194 0
M  V30 1029 H 100.718 -3.23061 2.76608 0
M  V30 1030 N 99.0327 -1.24633 -0.964593 0
M  V30 1031 C 100.261 -1.11501 -1.74285 0
M  V30 1032 C 100.676 0.332165 -1.85855 0
M  V30 1033 O 100.033 1.22903 -1.34911 0
M  V30 1034 C 100.084 -1.75258 -3.16175 0
M  V30 1035 O 99.8047 -3.14318 -3.05182 0
M  V30 1036 C 101.306 -1.67776 -4.10324 0
M  V30 1037 H 98.5257 -0.389407 -0.546446 0
M  V30 1038 H 101.07 -1.64801 -1.21083 0
M  V30 1039 H 99.2247 -1.25954 -3.66353 0
M  V30 1040 H 99.6387 -3.4551 -3.94618 0
M  V30 1041 H 101.113 -2.17064 -5.0753 0
M  V30 1042 H 101.59 -0.639584 -4.34518 0
M  V30 1043 H 102.196 -2.16522 -3.66058 0
M  V30 1044 N 100.511 1.16574 -1.06058 0
M  V30 1045 C 101.759 1.86677 -0.77434 0
M  V30 1046 C 102.08 1.81959 0.701147 0
M  V30 1047 O 101.35 1.2515 1.50713 0
M  V30 1048 H 99.9298 0.691134 -0.283449 0
M  V30 1049 H 102.592 1.41378 -1.34158 0
M  V30 1050 H 101.688 2.92181 -1.09711 0
M  V30 1051 N 101.989 0.842826 1.3317 0
M  V30 1052 C 102.952 0.284065 2.27433 0
M  V30 1053 C 103.952 -0.54948 1.5112 0
M  V30 1054 O 105.142 -0.362699 1.70382 0
M  V30 1055 C 102.274 -0.599384 3.35589 0
M  V30 1056 H 103.467 1.11589 2.78366 0
M  V30 1057 H 101.02 0.616221 1.4364 0
M  V30 1058 H 101.755 -1.45349 2.89904 0
M  V30 1059 H 101.54 -0.00291266 3.921 0
M  V30 1060 H 103.03 -0.983488 4.05854 0
M  V30 1061 N 103.467 -1.45747 0.599634 0
M  V30 1062 C 104.878 -1.85853 0.177681 0
M  V30 1063 C 105.229 -1.50102 -1.26348 0
M  V30 1064 O 104.354 -0.923905 -1.95686 0
M  V30 1065 C 104.949 -3.37326 0.315688 0
M  V30 1066 C 103.508 -3.76365 -0.0515144 0
M  V30 1067 C 102.655 -2.69722 0.643822 0
M  V30 1068 H 105.606 -1.36661 0.806814 0
M  V30 1069 H 105.627 -3.77778 -0.454321 0
M  V30 1070 H 105.139 -3.63315 1.36468 0
M  V30 1071 H 103.24 -3.55993 -1.09999 0
M  V30 1072 H 103.353 -4.77916 0.336594 0
M  V30 1073 H 101.717 -2.54567 0.0822881 0
M  V30 1074 H 102.5 -2.98549 1.6948 0
M  V30 1075 N 104.945 -0.338344 -1.53925 0
M  V30 1076 C 106.194 0.260732 -2.00008 0
M  V30 1077 C 106.507 1.52073 -1.23017 0
M  V30 1078 O 107.713 2.19672 -1.5955 0
M  V30 1079 C 106.169 0.51515 -3.56194 0
M  V30 1080 C 105.777 -0.728645 -4.42035 0
M  V30 1081 C 107.521 1.07337 -4.10706 0
M  V30 1082 C 105.428 -0.445315 -5.89721 0
M  V30 1083 H 104.358 0.101205 -0.747177 0
M  V30 1084 H 107.009 -0.452866 -1.77824 0
M  V30 1085 H 105.391 1.28932 -3.74423 0
M  V30 1086 H 106.565 -1.50352 -4.35581 0
M  V30 1087 H 104.88 -1.20813 -3.98489 0
M  V30 1088 H 107.477 1.30022 -5.18651 0
M  V30 1089 H 107.82 2.0273 -3.63602 0
M  V30 1090 H 108.353 0.360034 -3.96167 0
M  V30 1091 H 105.092 -1.36883 -6.41049 0
M  V30 1092 H 104.612 0.291569 -5.99091 0
M  V30 1093 H 106.291 -0.0606218 -6.46972 0
M  V30 1094 N 106.423 1.57458 -0.0668435 0
M  V30 1095 C 107.651 1.97624 0.612565 0
M  V30 1096 C 108.066 0.94502 1.63447 0
M  V30 1097 O 107.423 -0.0689276 1.8237 0
M  V30 1098 C 107.474 3.37869 1.28555 0
M  V30 1099 O 107.195 4.3704 0.304557 0
M  V30 1100 C 108.696 3.92882 2.05325 0
M  V30 1101 H 105.916 0.650045 0.166381 0
M  V30 1102 H 108.46 2.04035 -0.137782 0
M  V30 1103 H 106.615 3.3256 1.98702 0
M  V30 1104 H 107.029 5.18565 0.786779 0
M  V30 1105 H 108.503 4.93247 2.47812 0
M  V30 1106 H 108.98 3.29156 2.9078 0
M  V30 1107 H 109.586 4.01577 1.40056 0
M  V30 1108 N 107.901 -0.206675 1.56239 0
M  V30 1109 C 108.834 -1.28383 1.88661 0
M  V30 1110 C 109.812 -1.44504 0.745481 0
M  V30 1111 O 110.996 -1.60079 0.995336 0
M  V30 1112 C 108.123 -2.65211 2.10667 0
M  V30 1113 C 107.169 -2.66025 3.33366 0
M  V30 1114 S 108.002 -2.18609 4.88846 0
M  V30 1115 C 109.158 -3.57283 5.13906 0
M  V30 1116 H 109.391 -1.00691 2.7973 0
M  V30 1117 H 106.924 -0.409627 1.48867 0
M  V30 1118 H 108.882 -3.43979 2.24029 0
M  V30 1119 H 107.543 -2.90121 1.20369 0
M  V30 1120 H 106.736 -3.66607 3.45855 0
M  V30 1121 H 106.338 -1.95331 3.18938 0
M  V30 1122 H 108.63 -4.53074 5.03717 0
M  V30 1123 H 109.573 -3.49699 6.15724 0
M  V30 1124 H 109.981 -3.51659 4.41583 0
M  V30 1125 N 109.379 -1.50304 -0.473955 0
M  V30 1126 C 110.656 -1.51667 -1.23518 0
M  V30 1127 C 111.036 -0.259701 -2.09496 0
M  V30 1128 O 110.384 0.756986 -2.15597 0
M  V30 1129 C 110.594 -2.81082 -2.06868 0
M  V30 1130 C 111.942 -3.31631 -2.65153 0
M  V30 1131 O 112.966 -2.82384 -2.17113 0
M  V30 1132 O 111.825 -4.17471 -3.52675 0
M  V30 1133 H 108.919 -0.60822 -0.560355 0
M  V30 1134 H 111.465 -1.62592 -0.486011 0
M  V30 1135 H 110.237 -3.64041 -1.4349 0
M  V30 1136 H 109.86 -2.73146 -2.88924 0
M  V30 1137 N 110.857 0.726932 -1.39834 0
M  V30 1138 C 112.103 1.48884 -1.377 0
M  V30 1139 C 112.436 1.94185 0.0244852 0
M  V30 1140 O 111.711 1.67361 0.990986 0
M  V30 1141 C 111.994 2.72288 -2.3565 0
M  V30 1142 C 111.847 2.32956 -3.84775 0
M  V30 1143 C 113.166 3.74414 -2.31306 0
M  V30 1144 H 110.285 0.540062 -0.5015 0
M  V30 1145 H 112.927 0.830547 -1.70886 0
M  V30 1146 H 111.077 3.28457 -2.07481 0
M  V30 1147 H 112.749 1.82356 -4.23726 0
M  V30 1148 H 110.992 1.65088 -4.01159 0
M  V30 1149 H 111.663 3.21362 -4.4881 0
M  V30 1150 H 114.139 3.27849 -2.56231 0
M  V30 1151 H 113.015 4.58414 -3.01907 0
M  V30 1152 H 113.276 4.21909 -1.32081 0
M  V30 1153 N 112.336 1.25143 0.95797 0
M  V30 1154 C 113.585 1.0909 1.69654 0
M  V30 1155 C 113.898 -0.368548 1.92097 0
M  V30 1156 O 115.104 -0.649455 2.63618 0
M  V30 1157 C 113.56 1.90395 3.05414 0
M  V30 1158 C 113.168 3.4081 2.90779 0
M  V30 1159 C 114.912 1.82901 3.83076 0
M  V30 1160 C 112.819 4.14423 4.21909 0
M  V30 1161 H 111.749 0.404625 0.636235 0
M  V30 1162 H 114.4 1.4931 1.06672 0
M  V30 1163 H 112.782 1.42996 3.69281 0
M  V30 1164 H 113.956 3.95859 2.35865 0
M  V30 1165 H 112.271 3.49361 2.26575 0
M  V30 1166 H 114.868 2.35196 4.80195 0
M  V30 1167 H 115.211 0.796224 4.08615 0
M  V30 1168 H 115.744 2.28033 3.25954 0
M  V30 1169 H 112.483 5.18102 4.01561 0
M  V30 1170 H 112.003 3.64159 4.76601 0
M  V30 1171 H 113.682 4.21956 4.90471 0
M  V30 1172 N 113.814 -1.1601 1.06675 0
M  V30 1173 C 114.762 -2.22586 0.675157 0
M  V30 1174 C 115.756 -1.66525 -0.310766 0
M  V30 1175 O 116.962 -1.79145 -0.175215 0
M  V30 1176 H 113.337 -0.724855 0.200223 0
M  V30 1177 H 115.308 -2.52899 1.58381 0
M  V30 1178 C 114.057 -3.47604 0.0817162 0
M  V30 1179 H 113.38 -3.91058 0.831484 0
M  V30 1180 H 114.82 -4.23718 -0.154708 0
M  V30 1181 C 113.279 -3.15718 -1.17576 0
M  V30 1182 O 113.809 -3.31878 -2.26318 0
M  V30 1183 N 112.015 -2.69816 -1.07923 0
M  V30 1184 H 111.562 -2.56866 -0.194293 0
M  V30 1185 H 111.52 -2.48855 -1.92141 0
M  V30 1186 N 115.292 -0.849877 -1.32721 0
M  V30 1187 C 116.239 -0.289033 -2.28983 0
M  V30 1188 C 117.209 0.601324 -1.54833 0
M  V30 1189 O 118.394 0.537253 -1.8308 0
M  V30 1190 C 115.534 0.520623 -3.4115 0
M  V30 1191 C 114.647 -0.394989 -4.3019 0
M  V30 1192 C 113.782 0.426834 -5.29482 0
M  V30 1193 C 112.821 -0.486476 -6.10164 0
M  V30 1194 N 111.958 0.297879 -7.01468 0
M  V30 1195 H 116.798 -1.11519 -2.76347 0
M  V30 1196 H 114.335 -0.56138 -1.35967 0
M  V30 1197 H 116.293 1.00563 -4.04899 0
M  V30 1198 H 114.923 1.31165 -2.9495 0
M  V30 1199 H 113.975 -0.99836 -3.67065 0
M  V30 1200 H 115.287 -1.09612 -4.86607 0
M  V30 1201 H 114.441 0.975205 -5.98811 0
M  V30 1202 H 113.18 1.16136 -4.73671 0
M  V30 1203 H 112.185 -1.04677 -5.39743 0
M  V30 1204 H 113.41 -1.21953 -6.6806 0
M  V30 1205 H 111.356 1.01558 -6.48091 0
M  V30 1206 H 111.273 -0.344318 -7.55216 0
M  V30 1207 H 112.541 0.828131 -7.75089 0
M  V30 1208 N 116.77 1.45427 -0.607355 0
M  V30 1209 C 118.047 1.9557 -0.0344566 0
M  V30 1210 C 118.427 1.54979 1.43334 0
M  V30 1211 O 117.775 0.812241 2.13576 0
M  V30 1212 C 117.985 3.48226 -0.232321 0
M  V30 1213 C 119.333 4.2445 -0.113001 0
M  V30 1214 O 120.357 3.55829 -0.162431 0
M  V30 1215 O 119.216 5.465 0.00209442 0
M  V30 1216 H 116.31 0.826222 0.0358667 0
M  V30 1217 H 118.856 1.55594 -0.6774 0
M  V30 1218 H 117.628 3.70739 -1.25174 0
M  V30 1219 H 117.251 3.95092 0.445896 0
M  V30 1220 N 118.248 0.346503 1.53744 0
M  V30 1221 C 119.198 -0.524953 2.21874 0
M  V30 1222 C 120.182 -1.06376 1.20718 0
M  V30 1223 O 121.374 -0.996972 1.46251 0
M  V30 1224 C 118.503 -1.6739 2.99726 0
M  V30 1225 C 117.589 -1.14888 4.08242 0
M  V30 1226 N 117.98 -0.345329 5.0462 0
M  V30 1227 C 116.278 -1.4255 4.22606 0
M  V30 1228 C 116.979 -0.0600706 5.81669 0
M  V30 1229 N 115.955 -0.65252 5.39669 0
M  V30 1230 H 119.757 0.0960091 2.93743 0
M  V30 1231 H 117.271 0.15352 1.61673 0
M  V30 1232 H 119.268 -2.3102 3.47038 0
M  V30 1233 H 117.928 -2.29811 2.29384 0
M  V30 1234 H 118.939 0.0138439 5.17898 0
M  V30 1235 H 115.616 -2.05389 3.63486 0
M  V30 1236 H 117.006 0.588321 6.69319 0
M  V30 1237 N 119.726 -1.57421 0.075193 0
M  V30 1238 C 120.658 -2.09904 -0.920483 0
M  V30 1239 C 121.671 -1.03191 -1.25918 0
M  V30 1240 O 122.86 -1.30695 -1.21577 0
M  V30 1241 C 119.96 -2.54726 -2.23534 0
M  V30 1242 C 119.133 -3.8505 -2.07498 0
M  V30 1243 C 118.192 -4.15929 -3.22319 0
M  V30 1244 O 117.218 -4.85474 -2.9716 0
M  V30 1245 N 118.42 -3.69745 -4.47514 0
M  V30 1246 H 121.185 -2.95954 -0.472359 0
M  V30 1247 H 118.746 -1.61523 -0.110444 0
M  V30 1248 H 120.738 -2.72443 -2.9926 0
M  V30 1249 H 119.308 -1.73795 -2.59835 0
M  V30 1250 H 118.528 -3.76679 -1.16219 0
M  V30 1251 H 119.816 -4.70348 -1.94038 0
M  V30 1252 H 119.214 -3.13569 -4.7084 0
M  V30 1253 H 117.771 -3.92655 -5.20255 0
M  V30 1254 N 121.204 0.198386 -1.56346 0
M  V30 1255 C 122.151 1.24589 -1.94284 0
M  V30 1256 C 123.121 1.454 -0.802997 0
M  V30 1257 O 124.306 1.58588 -1.06087 0
M  V30 1258 C 121.446 2.58631 -2.28482 0
M  V30 1259 C 120.559 2.45426 -3.55514 0
M  V30 1260 C 119.694 3.7215 -3.79049 0
M  V30 1261 C 118.733 3.53763 -4.99518 0
M  V30 1262 N 117.87 4.72491 -5.19323 0
M  V30 1263 H 122.71 0.915356 -2.83593 0
M  V30 1264 H 120.247 0.440629 -1.40346 0
M  V30 1265 H 122.205 3.3672 -2.46324 0
M  V30 1266 H 120.835 2.89734 -1.42317 0
M  V30 1267 H 119.887 1.58652 -3.45737 0
M  V30 1268 H 121.199 2.27772 -4.43758 0
M  V30 1269 H 120.353 4.58679 -3.97113 0
M  V30 1270 H 119.092 3.92754 -2.89129 0
M  V30 1271 H 118.097 2.65619 -4.8138 0
M  V30 1272 H 119.322 3.34607 -5.90944 0
M  V30 1273 H 117.268 4.93365 -4.3235 0
M  V30 1274 H 117.185 4.5765 -6.01741 0
M  V30 1275 H 118.453 5.6038 -5.41843 0
M  V30 1276 N 122.682 1.50554 0.465978 0
M  V30 1277 C 123.928 1.63006 1.21658 0
M  V30 1278 C 124.283 0.328613 1.89573 0
M  V30 1279 O 123.576 -0.673813 1.79361 0
M  V30 1280 C 123.77 2.75152 2.28093 0
M  V30 1281 C 123.599 4.16075 1.7062 0
M  V30 1282 C 122.369 4.82408 1.50368 0
M  V30 1283 C 124.567 5.00145 1.1983 0
M  V30 1284 N 122.549 6.07532 0.881924 0
M  V30 1285 C 123.92 6.16035 0.700083 0
M  V30 1286 C 125.975 4.85882 1.08733 0
M  V30 1287 C 124.678 7.19228 0.101835 0
M  V30 1288 C 126.704 5.89257 0.503016 0
M  V30 1289 C 126.066 7.04398 0.0152005 0
M  V30 1290 H 122.165 0.650596 0.433877 0
M  V30 1291 H 124.749 1.8769 0.517746 0
M  V30 1292 H 122.92 2.52181 2.95397 0
M  V30 1293 H 124.652 2.76935 2.95109 0
M  V30 1294 H 121.407 4.39788 1.75737 0
M  V30 1295 H 121.831 6.7443 0.589312 0
M  V30 1296 H 126.473 3.97144 1.4504 0
M  V30 1297 H 124.191 8.07637 -0.273426 0
M  V30 1298 H 127.777 5.80286 0.419451 0
M  V30 1299 H 126.657 7.83021 -0.429856 0
M  V30 1300 N 124.16 -0.719506 1.40217 0
M  V30 1301 C 125.09 -1.8465 1.42922 0
M  V30 1302 C 126.071 -1.67599 0.29062 0
M  V30 1303 O 127.256 -1.87688 0.498677 0
M  V30 1304 C 124.386 -3.22565 1.28722 0
M  V30 1305 C 123.34 -3.54281 2.40144 0
M  V30 1306 C 122.666 -4.91298 2.11023 0
M  V30 1307 C 123.966 -3.55676 3.82481 0
M  V30 1308 H 125.66 -1.82644 2.37237 0
M  V30 1309 H 123.206 -0.877305 1.1419 0
M  V30 1310 H 125.159 -4.01095 1.29232 0
M  V30 1311 H 123.883 -3.25137 0.308811 0
M  V30 1312 H 122.542 -2.78088 2.38877 0
M  V30 1313 H 122.19 -4.90468 1.11582 0
M  V30 1314 H 121.89 -5.13485 2.8567 0
M  V30 1315 H 123.414 -5.72166 2.13209 0
M  V30 1316 H 124.828 -4.24254 3.85592 0
M  V30 1317 H 123.225 -3.89388 4.56614 0
M  V30 1318 H 124.295 -2.55144 4.12346 0
M  V30 1319 N 125.638 -1.25649 -0.95132 0
M  V30 1320 C 126.915 -1.01361 -1.67288 0
M  V30 1321 C 127.295 0.459135 -2.06046 0
M  V30 1322 O 126.643 1.43723 -1.7764 0
M  V30 1323 C 126.853 -1.95256 -2.89268 0
M  V30 1324 C 128.201 -2.23289 -3.61147 0
M  V30 1325 O 129.225 -1.93041 -2.99355 0
M  V30 1326 O 128.084 -2.74741 -4.72419 0
M  V30 1327 H 125.178 -0.38464 -0.732107 0
M  V30 1328 H 127.724 -1.36817 -1.00395 0
M  V30 1329 H 126.496 -2.94685 -2.57442 0
M  V30 1330 H 126.119 -1.60218 -3.6389 0
M  V30 1331 N 127.117 1.15442 -1.07289 0
M  V30 1332 C 128.366 1.85557 -0.790669 0
M  V30 1333 C 128.679 1.83186 0.685739 0
M  V30 1334 O 129.885 2.48977 1.0827 0
M  V30 1335 C 128.341 3.33038 -1.36433 0
M  V30 1336 C 127.949 3.43856 -2.8717 0
M  V30 1337 C 129.693 4.0834 -1.1601 0
M  V30 1338 C 127.6 4.85482 -3.3773 0
M  V30 1339 H 126.53 0.695122 -0.292098 0
M  V30 1340 H 129.181 1.30219 -1.29287 0
M  V30 1341 H 127.563 3.88043 -0.789864 0
M  V30 1342 H 128.737 2.98961 -3.50655 0
M  V30 1343 H 127.052 2.81998 -3.06376 0
M  V30 1344 H 129.649 5.12859 -1.51262 0
M  V30 1345 H 129.992 4.16182 -0.0991007 0
M  V30 1346 H 130.525 3.59603 -1.70089 0
M  V30 1347 H 127.264 4.82823 -4.43353 0
M  V30 1348 H 126.784 5.30961 -2.78999 0
M  V30 1349 H 128.463 5.54335 -3.33648 0
M  V30 1350 N 128.595 0.856903 1.32268 0
M  V30 1351 C 129.528 0.247937 2.26849 0
M  V30 1352 C 130.506 -0.615382 1.50505 0
M  V30 1353 O 131.69 -0.571689 1.79622 0
M  V30 1354 C 128.817 -0.650093 3.32403 0
M  V30 1355 C 127.863 0.140138 4.2627 0
M  V30 1356 S 128.696 1.51004 5.13769 0
M  V30 1357 C 129.852 0.61778 6.22844 0
M  V30 1358 H 130.085 1.04971 2.78152 0
M  V30 1359 H 127.618 0.654665 1.39834 0
M  V30 1360 H 129.576 -1.16256 3.93694 0
M  V30 1361 H 128.237 -1.4257 2.7988 0
M  V30 1362 H 127.43 -0.543945 5.01056 0
M  V30 1363 H 127.032 0.584267 3.69408 0
M  V30 1364 H 129.324 -0.177053 6.77269 0
M  V30 1365 H 130.267 1.33636 6.95375 0
M  V30 1366 H 130.675 0.191124 5.64176 0
M  V30 1367 N 130.073 -1.45103 0.615059 0
M  V30 1368 C 131.298 -2.07064 0.117988 0
M  V30 1369 C 131.723 -1.4554 -1.19163 0
M  V30 1370 O 131.081 -0.550855 -1.72729 0
M  V30 1371 C 131.129 -3.606 -0.000288387 0
M  V30 1372 O 130.233 -3.98847 -1.04856 0
M  V30 1373 H 129.574 -0.659467 0.0774581 0
M  V30 1374 H 132.104 -1.86236 0.847186 0
M  V30 1375 H 132.114 -4.07529 -0.196091 0
M  V30 1376 H 130.789 -4.04765 0.955932 0
M  V30 1377 H 129.366 -3.63577 -0.828619 0
M  V30 1378 N 131.551 -0.354651 -1.53558 0
M  V30 1379 C 132.514 0.484566 -2.24019 0
M  V30 1380 C 133.514 1.01861 -1.24422 0
M  V30 1381 O 134.704 0.906097 -1.4878 0
M  V30 1382 C 131.836 1.67615 -2.96847 0
M  V30 1383 H 133.029 -0.131843 -2.9961 0
M  V30 1384 H 130.582 -0.106165 -1.55939 0
M  V30 1385 H 131.317 2.33095 -2.25471 0
M  V30 1386 H 131.102 1.30029 -3.69912 0
M  V30 1387 H 132.592 2.27114 -3.50441 0
M  V30 1388 N 133.029 1.57378 -0.0835403 0
M  V30 1389 C 133.939 2.16897 0.894021 0
M  V30 1390 C 134.955 1.13528 1.31861 0
M  V30 1391 O 136.131 1.45848 1.3889 0
M  V30 1392 C 133.196 2.72831 2.13925 0
M  V30 1393 C 132.257 3.91115 1.76997 0
M  V30 1394 C 131.49 4.44371 2.95584 0
M  V30 1395 O 131.713 3.96596 4.09961 0
M  V30 1396 O 130.647 5.35549 2.74719 0
M  V30 1397 H 134.473 3.00814 0.417679 0
M  V30 1398 H 132.058 1.48741 0.140181 0
M  V30 1399 H 133.94 3.0863 2.86924 0
M  V30 1400 H 132.615 1.91967 2.60635 0
M  V30 1401 H 131.522 3.60148 1.01214 0
M  V30 1402 H 132.855 4.73307 1.3506 0
M  V30 1403 N 134.507 -0.190092 1.56449 0
M  V30 1404 C 135.784 -0.935886 1.71757 0
M  V30 1405 C 136.164 -2.01173 0.639726 0
M  V30 1406 O 135.512 -2.25827 -0.348502 0
M  V30 1407 C 135.722 -1.51775 3.1427 0
M  V30 1408 C 137.07 -1.99794 3.74656 0
M  V30 1409 O 138.094 -1.61607 3.1743 0
M  V30 1410 O 136.953 -2.70079 4.751 0
M  V30 1411 H 134.047 -0.439229 0.700719 0
M  V30 1412 H 136.593 -0.179395 1.68749 0
M  V30 1413 H 135.365 -0.742505 3.84191 0
M  V30 1414 H 134.988 -2.33894 3.21527 0
M  V30 1415 N 135.985 -1.50799 -0.457987 0
M  V30 1416 C 137.234 -1.6168 -1.20593 0
M  V30 1417 C 137.547 -0.32888 -1.92815 0
M  V30 1418 O 138.753 -0.316773 -2.69646 0
M  V30 1419 C 137.209 -2.8545 -2.19195 0
M  V30 1420 C 136.817 -4.21168 -1.52715 0
M  V30 1421 C 138.561 -3.05681 -2.94549 0
M  V30 1422 C 136.468 -5.3611 -2.4968 0
M  V30 1423 H 135.398 -0.602134 -0.453818 0
M  V30 1424 H 138.049 -1.77245 -0.475031 0
M  V30 1425 H 136.431 -2.63472 -2.95632 0
M  V30 1426 H 137.605 -4.53449 -0.819775 0
M  V30 1427 H 135.92 -4.06648 -0.895922 0
M  V30 1428 H 138.517 -3.88727 -3.67145 0
M  V30 1429 H 138.86 -2.17929 -3.54701 0
M  V30 1430 H 139.393 -3.27901 -2.25223 0
M  V30 1431 H 136.132 -6.26057 -1.94249 0
M  V30 1432 H 135.652 -5.0823 -3.18532 0
M  V30 1433 H 137.331 -5.6722 -3.11241 0
M  V30 1434 N 137.463 0.71206 -1.40597 0
M  V30 1435 C 138.373 1.8562 -1.43466 0
M  V30 1436 C 139.389 1.70902 -0.326902 0
M  V30 1437 O 140.565 1.93105 -0.572043 0
M  V30 1438 C 137.63 3.21451 -1.29884 0
M  V30 1439 C 136.691 3.48398 -2.50833 0
M  V30 1440 C 135.924 4.77749 -2.3789 0
M  V30 1441 O 136.147 5.53089 -1.39459 0
M  V30 1442 O 135.081 5.05111 -3.27333 0
M  V30 1443 H 138.907 1.86155 -2.39958 0
M  V30 1444 H 136.492 0.86295 -1.21957 0
M  V30 1445 H 138.374 4.02579 -1.24531 0
M  V30 1446 H 137.049 3.21636 -0.364997 0
M  V30 1447 H 135.956 2.67265 -2.61763 0
M  V30 1448 H 137.289 3.53014 -3.4299 0
M  V30 1449 N 138.941 1.26152 0.944643 0
M  V30 1450 C 140.218 1.02247 1.66748 0
M  V30 1451 C 140.598 -0.448202 2.06287 0
M  V30 1452 O 139.946 -1.42779 1.78399 0
M  V30 1453 C 140.156 1.96788 2.88228 0
M  V30 1454 C 141.504 2.25201 3.59958 0
M  V30 1455 O 142.528 1.94626 2.98327 0
M  V30 1456 O 141.387 2.77242 4.70956 0
M  V30 1457 H 138.481 0.388517 0.730057 0
M  V30 1458 H 141.027 1.37348 0.99668 0
M  V30 1459 H 139.799 2.96047 2.55875 0
M  V30 1460 H 139.422 1.62145 3.63035 0
M  V30 1461 N 140.419 -1.14872 1.07899 0
M  V30 1462 C 141.835 -1.37776 0.805606 0
M  V30 1463 C 142.035 -1.92743 -0.587555 0
M  V30 1464 O 141.091 -2.13678 -1.34528 0
M  V30 1465 C 142.404 -2.34361 1.88402 0
M  V30 1466 C 143.952 -2.48012 1.90942 0
M  V30 1467 C 144.427 -3.47893 2.97883 0
M  V30 1468 N 145.918 -3.55433 2.97021 0
M  V30 1469 C 146.653 -4.32553 3.76412 0
M  V30 1470 N 146.149 -5.12959 4.65666 0
M  V30 1471 N 147.942 -4.27697 3.64735 0
M  V30 1472 H 140.093 -0.775365 1.97742 0
M  V30 1473 H 142.356 -0.403521 0.857831 0
M  V30 1474 H 142.062 -2.01098 2.88535 0
M  V30 1475 H 141.936 -3.34206 1.74889 0
M  V30 1476 H 144.323 -2.8057 0.914579 0
M  V30 1477 H 144.404 -1.48147 2.08534 0
M  V30 1478 H 144.048 -3.16069 3.97571 0
M  V30 1479 H 143.978 -4.47527 2.77538 0
M  V30 1480 H 146.469 -2.98048 2.32326 0
M  V30 1481 H 146.782 -5.69065 5.22862 0
M  V30 1482 H 145.127 -5.12245 4.69712 0
M  V30 1483 H 148.318 -3.63949 2.94378 0
M  V30 1484 H 148.491 -4.8755 4.26848 0
M  V30 1485 N 141.898 -0.863906 -1.31812 0
M  V30 1486 C 142.828 -0.330843 -2.31144 0
M  V30 1487 C 143.809 0.575005 -1.60087 0
M  V30 1488 O 144.994 0.493304 -1.8783 0
M  V30 1489 C 142.124 0.47374 -3.44054 0
M  V30 1490 C 141.078 -0.338481 -4.26659 0
M  V30 1491 C 140.404 0.591412 -5.31419 0
M  V30 1492 C 141.704 -1.56926 -4.98168 0
M  V30 1493 H 143.398 -1.16086 -2.75979 0
M  V30 1494 H 140.944 -0.559657 -1.32679 0
M  V30 1495 H 142.897 0.857143 -4.12591 0
M  V30 1496 H 141.621 1.33721 -2.9797 0
M  V30 1497 H 140.28 -0.703754 -3.59782 0
M  V30 1498 H 139.928 1.45199 -4.81587 0
M  V30 1499 H 139.628 0.0519022 -5.87577 0
M  V30 1500 H 141.152 0.97179 -6.02817 0
M  V30 1501 H 142.566 -1.25764 -5.59336 0
M  V30 1502 H 140.963 -2.04739 -5.64094 0
M  V30 1503 H 142.033 -2.32544 -4.25501 0
M  V30 1504 N 143.376 1.44774 -0.622745 0
M  V30 1505 C 144.323 2.30635 0.0871679 0
M  V30 1506 C 145.293 1.42994 0.845097 0
M  V30 1507 O 146.478 1.71907 0.827812 0
M  V30 1508 C 143.618 3.28144 1.06844 0
M  V30 1509 C 142.731 4.30888 0.309809 0
M  V30 1510 C 141.866 5.15494 1.28215 0
M  V30 1511 C 140.905 6.09953 0.512198 0
M  V30 1512 N 140.042 6.87287 1.43458 0
M  V30 1513 H 144.882 2.90803 -0.650974 0
M  V30 1514 H 142.419 1.43286 -0.33281 0
M  V30 1515 H 144.377 3.83157 1.65066 0
M  V30 1516 H 143.007 2.69695 1.77382 0
M  V30 1517 H 142.059 3.78414 -0.388181 0
M  V30 1518 H 143.371 4.97955 -0.290254 0
M  V30 1519 H 142.525 5.74983 1.93596 0
M  V30 1520 H 141.264 4.48481 1.91614 0
M  V30 1521 H 140.269 5.49581 -0.155151 0
M  V30 1522 H 141.494 6.78999 -0.116958 0
M  V30 1523 H 139.44 6.2295 2.05594 0
M  V30 1524 H 139.357 7.50763 0.888335 0
M  V30 1525 H 140.625 7.51306 2.07749 0
M  V30 1526 N 144.854 0.36279 1.53368 0
M  V30 1527 C 146.079 -0.231226 2.06107 0
M  V30 1528 C 146.504 -1.419 1.23474 0
M  V30 1529 O 145.862 -1.79524 0.253128 0
M  V30 1530 C 145.91 -0.605523 3.5548 0
M  V30 1531 O 145.014 -1.70312 3.7559 0
M  V30 1532 H 144.355 -0.034327 0.663112 0
M  V30 1533 H 146.885 0.522584 1.97814 0
M  V30 1534 H 146.895 -0.877314 3.98456 0
M  V30 1535 H 145.57 0.263004 4.15068 0
M  V30 1536 H 144.147 -1.4271 3.44512 0
M  V30 1537 N 146.332 -1.57332 0.0918853 0
M  V30 1538 C 147.279 -2.13847 -0.868211 0
M  V30 1539 C 148.249 -1.05618 -1.28196 0
M  V30 1540 O 149.434 -1.33387 -1.36427 0
M  V30 1541 C 146.574 -2.72062 -2.12312 0
M  V30 1542 C 145.687 -3.94514 -1.7602 0
M  V30 1543 C 144.822 -4.40903 -2.96273 0
M  V30 1544 C 143.861 -5.55953 -2.56092 0
M  V30 1545 N 142.998 -5.97209 -3.69169 0
M  V30 1546 H 147.838 -2.95575 -0.379406 0
M  V30 1547 H 145.375 -1.46048 -0.175606 0
M  V30 1548 H 147.333 -3.03931 -2.858 0
M  V30 1549 H 145.963 -1.93068 -2.58698 0
M  V30 1550 H 145.015 -3.68979 -0.925135 0
M  V30 1551 H 146.327 -4.7802 -1.42472 0
M  V30 1552 H 145.481 -4.74539 -3.78018 0
M  V30 1553 H 144.22 -3.56291 -3.33029 0
M  V30 1554 H 143.225 -5.21948 -1.72773 0
M  V30 1555 H 144.45 -6.42311 -2.20484 0
M  V30 1556 H 142.396 -5.15543 -4.05649 0
M  V30 1557 H 142.313 -6.75504 -3.39456 0
M  V30 1558 H 143.581 -6.35475 -4.51434 0
M  V30 1559 N 147.81 0.181792 -1.56548 0
M  V30 1560 C 149.226 0.53316 -1.50431 0
M  V30 1561 C 149.426 1.85184 -0.794297 0
M  V30 1562 O 148.482 2.50058 -0.350318 0
M  V30 1563 C 149.795 0.575597 -2.9514 0
M  V30 1564 C 151.343 0.663519 -3.05886 0
M  V30 1565 C 151.818 0.736946 -4.52032 0
M  V30 1566 N 153.309 0.800118 -4.56237 0
M  V30 1567 C 154.044 0.877327 -5.66649 0
M  V30 1568 N 153.54 0.916016 -6.86718 0
M  V30 1569 N 155.333 0.915542 -5.54594 0
M  V30 1570 H 147.484 -0.683025 -2.01118 0
M  V30 1571 H 149.747 -0.244988 -0.915797 0
M  V30 1572 H 149.453 -0.324482 -3.502 0
M  V30 1573 H 149.327 1.42572 -3.49218 0
M  V30 1574 H 151.714 1.55403 -2.50867 0
M  V30 1575 H 151.795 -0.21307 -2.54911 0
M  V30 1576 H 151.439 -0.149262 -5.07681 0
M  V30 1577 H 151.369 1.62953 -5.00753 0
M  V30 1578 H 153.86 0.778926 -3.69785 0
M  V30 1579 H 154.173 0.975813 -7.66614 0
M  V30 1580 H 152.518 0.884469 -6.89349 0
M  V30 1581 H 155.709 0.882245 -4.59711 0
M  V30 1582 H 155.882 0.972253 -6.40665 0
M  V30 1583 N 149.288 1.51039 0.449983 0
M  V30 1584 C 150.235 1.71439 1.54523 0
M  V30 1585 C 151.205 0.555871 1.56522 0
M  V30 1586 O 152.39 0.788871 1.73728 0
M  V30 1587 C 149.53 1.83384 2.92343 0
M  V30 1588 C 148.643 3.10873 2.9997 0
M  V30 1589 C 147.778 3.13488 4.28834 0
M  V30 1590 C 146.817 4.35343 4.30282 0
M  V30 1591 N 145.954 4.35579 5.5065 0
M  V30 1592 H 150.794 2.64934 1.36433 0
M  V30 1593 H 148.331 1.31312 0.662982 0
M  V30 1594 H 150.289 1.88291 3.72293 0
M  V30 1595 H 148.919 0.933086 3.0902 0
M  V30 1596 H 147.971 3.15336 2.12761 0
M  V30 1597 H 149.283 4.00814 2.96901 0
M  V30 1598 H 148.437 3.17241 5.17149 0
M  V30 1599 H 147.176 2.21414 4.34543 0
M  V30 1600 H 146.181 4.3178 3.40362 0
M  V30 1601 H 147.406 5.28668 4.26248 0
M  V30 1602 H 145.352 3.46369 5.57104 0
M  V30 1603 H 145.269 5.19313 5.49409 0
M  V30 1604 H 146.537 4.43507 6.41032 0
M  V30 1605 N 150.766 -0.704594 1.40972 0
M  V30 1606 C 152.015 -1.46018 1.39146 0
M  V30 1607 C 152.328 -1.956 0.000589254 0
M  V30 1608 O 153.534 -2.71137 -0.1403 0
M  V30 1609 C 151.99 -2.63996 2.4461 0
M  V30 1610 C 151.598 -2.21238 3.89561 0
M  V30 1611 C 153.342 -3.41677 2.51907 0
M  V30 1612 C 151.249 -3.3612 4.86598 0
M  V30 1613 H 150.179 -0.548444 0.517422 0
M  V30 1614 H 152.83 -0.765784 1.66757 0
M  V30 1615 H 151.212 -3.3566 2.10115 0
M  V30 1616 H 152.386 -1.56923 4.33257 0
M  V30 1617 H 150.701 -1.56574 3.85841 0
M  V30 1618 H 153.298 -4.27182 3.2159 0
M  V30 1619 H 153.641 -3.86247 1.55303 0
M  V30 1620 H 154.174 -2.77064 2.85448 0
M  V30 1621 H 150.913 -2.96572 5.84573 0
M  V30 1622 H 150.433 -3.99315 4.47557 0
M  V30 1623 H 152.112 -4.02029 5.06934 0
M  V30 1624 N 152.244 -1.26651 -0.937939 0
M  V30 1625 C 153.472 -1.15173 -1.7188 0
M  V30 1626 C 153.887 0.292668 -1.86518 0
M  V30 1627 O 153.244 1.20014 -1.37488 0
M  V30 1628 C 153.295 -1.81925 -3.12387 0
M  V30 1629 O 153.016 -3.2072 -2.98446 0
M  V30 1630 C 154.517 -1.76442 -4.06673 0
M  V30 1631 H 151.737 -0.400911 -0.538063 0
M  V30 1632 H 154.281 -1.67332 -1.1756 0
M  V30 1633 H 152.436 -1.33696 -3.63599 0
M  V30 1634 H 152.85 -3.53802 -3.872 0
M  V30 1635 H 154.324 -2.27781 -5.02812 0
M  V30 1636 H 154.801 -0.731608 -4.33064 0
M  V30 1637 H 155.407 -2.24238 -3.61382 0
M  V30 1638 N 153.722 1.14298 -1.08507 0
M  V30 1639 C 154.672 2.17449 -0.685569 0
M  V30 1640 C 155.656 1.58167 0.295315 0
M  V30 1641 O 156.848 1.76675 0.107172 0
M  V30 1642 C 153.977 3.43161 -0.0975318 0
M  V30 1643 C 153.063 4.09471 -1.10426 0
M  V30 1644 N 153.454 4.51089 -2.28806 0
M  V30 1645 C 151.752 4.35976 -0.940258 0
M  V30 1646 C 152.453 5.02654 -2.9277 0
M  V30 1647 N 151.429 4.96927 -2.20374 0
M  V30 1648 H 155.231 2.47369 -1.587 0
M  V30 1649 H 152.745 1.30992 -0.959936 0
M  V30 1650 H 154.742 4.16388 0.20664 0
M  V30 1651 H 153.402 3.14719 0.798872 0
M  V30 1652 H 154.413 4.44097 -2.66455 0
M  V30 1653 H 151.09 4.17386 -0.0977441 0
M  V30 1654 H 152.48 5.44723 -3.93352 0
M  V30 1655 N 155.201 0.870884 1.31352 0
M  V30 1656 C 156.612 0.534714 1.78879 0
M  V30 1657 C 156.963 -0.948423 1.71754 0
M  V30 1658 O 156.088 -1.74055 1.28584 0
M  V30 1659 C 156.683 0.963839 3.24801 0
M  V30 1660 C 155.242 0.679311 3.70219 0
M  V30 1661 C 154.389 1.15465 2.52117 0
M  V30 1662 H 157.34 1.05651 1.18421 0
M  V30 1663 H 157.361 0.286892 3.79417 0
M  V30 1664 H 156.873 2.04332 3.29955 0
M  V30 1665 H 154.974 -0.388769 3.70566 0
M  V30 1666 H 155.087 1.25698 4.62317 0
M  V30 1667 H 153.451 0.574383 2.48139 0
M  V30 1668 H 154.234 2.24157 2.60016 0
M  V30 1669 N 156.679 -1.44442 0.630414 0
M  V30 1670 C 158.095 -1.56832 0.295973 0
M  V30 1671 C 158.295 -1.61806 -1.20088 0
M  V30 1672 O 157.351 -1.5607 -1.9849 0
M  V30 1673 C 158.664 -2.84031 0.987264 0
M  V30 1674 C 160.212 -2.97742 0.96534 0
M  V30 1675 C 160.687 -4.27743 1.63708 0
M  V30 1676 N 162.178 -4.34555 1.60364 0
M  V30 1677 C 162.913 -5.33862 2.09234 0
M  V30 1678 N 162.409 -6.39578 2.66292 0
M  V30 1679 N 164.202 -5.25366 1.99867 0
M  V30 1680 H 156.353 -1.39457 1.60205 0
M  V30 1681 H 158.616 -0.668237 0.672431 0
M  V30 1682 H 158.322 -2.86338 2.04215 0
M  V30 1683 H 158.196 -3.73534 0.524588 0
M  V30 1684 H 160.583 -2.94989 -0.0810639 0
M  V30 1685 H 160.664 -2.09589 1.4665 0
M  V30 1686 H 160.308 -4.31255 2.68293 0
M  V30 1687 H 160.238 -5.14752 1.11076 0
M  V30 1688 H 162.729 -3.58772 1.18705 0
M  V30 1689 H 163.042 -7.11637 3.01317 0
M  V30 1690 H 161.387 -6.40265 2.70343 0
M  V30 1691 H 164.578 -4.41688 1.55013 0
M  V30 1692 H 164.751 -6.02606 2.38265 0
M  V30 1693 N 158.157 -0.370918 -1.53173 0
M  V30 1694 C 159.568 0.107139 -1.86392 0
M  V30 1695 C 159.919 1.47714 -1.29132 0
M  V30 1696 O 159.044 2.07464 -0.615439 0
M  V30 1697 C 159.639 0.201187 -3.38202 0
M  V30 1698 C 158.198 0.623507 -3.712 0
M  V30 1699 C 157.345 -0.225978 -2.76378 0
M  V30 1700 H 160.296 -0.58951 -1.47345 0
M  V30 1701 H 160.317 1.02377 -3.66468 0
M  V30 1702 H 159.829 -0.796058 -3.79848 0
M  V30 1703 H 157.93 1.62879 -3.35114 0
M  V30 1704 H 158.043 0.394414 -4.77474 0
M  V30 1705 H 156.407 0.305962 -2.52856 0
M  V30 1706 H 157.19 -1.22086 -3.20858 0
M  V30 1707 N 159.635 1.57281 -0.100228 0
M  V30 1708 C 160.883 1.94153 0.561157 0
M  V30 1709 C 161.204 0.983157 1.68401 0
M  V30 1710 O 160.474 0.0361132 1.95867 0
M  V30 1711 H 159.054 0.716791 0.210283 0
M  V30 1712 H 161.716 1.94202 -0.164765 0
M  V30 1713 H 160.812 2.96709 0.968008 0
M  V30 1714 N 161.113 -0.173488 1.56642 0
M  V30 1715 C 162.063 -1.21941 1.92651 0
M  V30 1716 C 163.047 -1.39912 0.794577 0
M  V30 1717 O 164.239 -1.41919 1.05773 0
M  V30 1718 C 161.368 -2.55935 2.28806 0
M  V30 1719 C 160.454 -2.41667 3.48508 0
M  V30 1720 N 160.845 -1.9711 4.65813 0
M  V30 1721 C 159.143 -2.72499 3.53072 0
M  V30 1722 C 159.844 -1.95253 5.47952 0
M  V30 1723 N 158.82 -2.37575 4.88937 0
M  V30 1724 H 162.622 -0.866581 2.80834 0
M  V30 1725 H 160.136 -0.381776 1.57849 0
M  V30 1726 H 162.133 -3.31511 2.52797 0
M  V30 1727 H 160.793 -2.92022 1.41961 0
M  V30 1728 H 161.804 -1.67481 4.90072 0
M  V30 1729 H 158.481 -3.12639 2.767 0
M  V30 1730 H 159.871 -1.6252 6.51948 0
M  V30 1731 N 162.591 -1.51276 -0.441967 0
M  V30 1732 C 163.554 -1.7167 -1.51862 0
M  V30 1733 C 164.554 -0.586793 -1.49711 0
M  V30 1734 O 165.744 -0.854276 -1.51815 0
M  V30 1735 C 162.876 -1.76889 -2.91416 0
M  V30 1736 H 164.069 -2.67754 -1.35084 0
M  V30 1737 H 161.622 -1.41196 -0.670333 0
M  V30 1738 H 162.357 -0.826026 -3.13604 0
M  V30 1739 H 162.142 -2.59001 -2.94382 0
M  V30 1740 H 163.632 -1.94522 -3.69528 0
M  V30 1741 N 164.069 0.697108 -1.41344 0
M  V30 1742 C 165.346 1.45154 -1.31109 0
M  V30 1743 C 165.726 2.11009 0.0620449 0
M  V30 1744 O 165.074 2.01571 1.07618 0
M  V30 1745 C 165.284 2.47223 -2.46337 0
M  V30 1746 C 166.632 3.1252 -2.87431 0
M  V30 1747 O 167.656 2.57547 -2.46065 0
M  V30 1748 O 166.515 4.12083 -3.58957 0
M  V30 1749 H 163.609 0.646365 -0.515889 0
M  V30 1750 H 166.155 0.727716 -1.53305 0
M  V30 1751 H 164.927 1.97204 -3.37974 0
M  V30 1752 H 164.55 3.27116 -2.2601 0
M  V30 1753 N 165.547 1.27147 0.931209 0
M  V30 1754 C 166.477 1.12081 2.04842 0
M  V30 1755 C 167.458 0.0232364 1.70084 0
M  V30 1756 O 168.643 0.197085 1.93197 0
M  V30 1757 C 165.773 0.76354 3.38803 0
M  V30 1758 C 164.727 1.81396 3.87659 0
M  V30 1759 C 164.053 1.31075 5.18385 0
M  V30 1760 C 165.353 3.21739 4.11438 0
M  V30 1761 H 167.047 2.05537 2.17703 0
M  V30 1762 H 164.593 0.989603 1.04608 0
M  V30 1763 H 166.546 0.644982 4.16435 0
M  V30 1764 H 165.27 -0.206727 3.25945 0
M  V30 1765 H 163.929 1.92136 3.12217 0
M  V30 1766 H 163.577 0.330037 5.01916 0
M  V30 1767 H 163.277 2.013 5.52044 0
M  V30 1768 H 164.801 1.20506 5.98591 0
M  V30 1769 H 166.215 3.14019 4.79651 0
M  V30 1770 H 164.612 3.89644 4.56397 0
M  V30 1771 H 165.682 3.67054 3.16859 0
M  V30 1772 N 167.025 -1.13721 1.09112 0
M  V30 1773 C 168.271 -1.85198 0.826414 0
M  V30 1774 C 168.604 -1.83129 -0.646319 0
M  V30 1775 O 167.879 -1.2671 -1.47563 0
M  V30 1776 C 168.162 -3.33507 1.35812 0
M  V30 1777 C 168.015 -3.44108 2.89672 0
M  V30 1778 C 169.334 -4.28838 0.989256 0
M  V30 1779 H 166.453 -0.67243 0.301675 0
M  V30 1780 H 169.095 -1.33499 1.35197 0
M  V30 1781 H 167.245 -3.77666 0.911082 0
M  V30 1782 H 168.917 -3.08684 3.428 0
M  V30 1783 H 167.16 -2.85087 3.26967 0
M  V30 1784 H 167.831 -4.48388 3.21951 0
M  V30 1785 H 170.307 -3.92734 1.37475 0
M  V30 1786 H 169.183 -5.31051 1.38838 0
M  V30 1787 H 169.444 -4.4198 -0.102924 0
M  V30 1788 N 168.503 -0.877838 -1.30888 0
M  V30 1789 C 169.751 -0.491723 -1.96027 0
M  V30 1790 C 170.072 0.960827 -1.69685 0
M  V30 1791 O 169.342 1.67462 -1.01654 0
M  V30 1792 H 167.922 -0.17885 -0.725273 0
M  V30 1793 H 170.584 -1.11935 -1.59551 0
M  V30 1794 H 169.68 -0.656016 -3.05128 0
M  V30 1795 N 169.982 1.44106 -0.638065 0
M  V30 1796 C 171.23 2.01579 -0.145043 0
M  V30 1797 C 171.551 1.50496 1.24 0
M  V30 1798 O 170.821 0.711374 1.82527 0
M  V30 1799 H 169.401 0.745282 -0.05063 0
M  V30 1800 H 172.063 1.76516 -0.826327 0
M  V30 1801 H 171.159 3.11877 -0.118039 0
M  V30 1802 N 171.46 0.379036 1.52974 0
M  V30 1803 C 172.709 -0.207612 2.00629 0
M  V30 1804 C 173.022 -1.48758 1.27006 0
M  V30 1805 O 174.228 -2.15365 1.65318 0
M  V30 1806 C 172.684 -0.42053 3.57435 0
M  V30 1807 C 172.292 0.845587 4.39948 0
M  V30 1808 C 174.036 -0.964102 4.13407 0
M  V30 1809 C 171.943 0.601513 5.88333 0
M  V30 1810 H 170.873 -0.0813591 0.749598 0
M  V30 1811 H 173.524 0.499853 1.76561 0
M  V30 1812 H 171.906 -1.18959 3.7771 0
M  V30 1813 H 173.08 1.61848 4.31442 0
M  V30 1814 H 171.395 1.31336 3.95145 0
M  V30 1815 H 173.992 -1.16225 5.21916 0
M  V30 1816 H 174.335 -1.93019 3.68849 0
M  V30 1817 H 174.868 -0.25487 3.96983 0
M  V30 1818 H 171.607 1.53831 6.37194 0
M  V30 1819 H 171.127 -0.132628 5.99653 0
M  V30 1820 H 172.806 0.232134 6.46583 0
M  V30 1821 N 172.938 -1.57226 0.108567 0
M  V30 1822 C 173.885 -2.14756 -0.845481 0
M  V30 1823 C 174.855 -1.06971 -1.27068 0
M  V30 1824 O 176.04 -1.34827 -1.35005 0
M  V30 1825 C 173.18 -2.74298 -2.09415 0
M  V30 1826 C 172.293 -3.96358 -1.71826 0
M  V30 1827 C 171.428 -4.44021 -2.9158 0
M  V30 1828 C 170.467 -5.58637 -2.50181 0
M  V30 1829 N 169.604 -6.01091 -3.62814 0
M  V30 1830 H 174.444 -2.95961 -0.348035 0
M  V30 1831 H 171.981 -1.46226 -0.160106 0
M  V30 1832 H 173.939 -3.06945 -2.82561 0
M  V30 1833 H 172.569 -1.95801 -2.56636 0
M  V30 1834 H 171.621 -3.69939 -0.885947 0
M  V30 1835 H 172.933 -4.79504 -1.37394 0
M  V30 1836 H 172.087 -4.78522 -3.72963 0
M  V30 1837 H 170.826 -3.59803 -3.29231 0
M  V30 1838 H 169.831 -5.23751 -1.67228 0
M  V30 1839 H 171.056 -6.44613 -2.13659 0
M  V30 1840 H 169.002 -5.19817 -4.00158 0
M  V30 1841 H 168.919 -6.79066 -3.32273 0
M  V30 1842 H 170.187 -6.40227 -4.44668 0
M  V30 1843 N 174.416 0.165178 -1.56732 0
M  V30 1844 C 175.646 0.894919 -1.86212 0
M  V30 1845 C 176.054 1.76066 -0.692627 0
M  V30 1846 O 175.397 1.80387 0.347303 0
M  V30 1847 C 175.459 1.8174 -3.10179 0
M  V30 1848 C 175.123 1.13064 -4.42793 0
M  V30 1849 C 176.12 0.493169 -5.17556 0
M  V30 1850 C 173.805 1.12556 -4.89527 0
M  V30 1851 C 175.799 -0.140209 -6.37246 0
M  V30 1852 C 173.486 0.488366 -6.09145 0
M  V30 1853 C 174.484 -0.143411 -6.82849 0
M  V30 1854 O 174.172 -0.77055 -8.00199 0
M  V30 1855 H 173.904 0.265114 -0.621844 0
M  V30 1856 H 176.458 0.168242 -2.0471 0
M  V30 1857 H 174.688 2.58455 -2.87642 0
M  V30 1858 H 176.377 2.4175 -3.26055 0
M  V30 1859 H 177.143 0.489023 -4.82528 0
M  V30 1860 H 173.022 1.60672 -4.32094 0
M  V30 1861 H 176.566 -0.633932 -6.94714 0
M  V30 1862 H 172.463 0.490116 -6.43637 0
M  V30 1863 H 173.231 -0.670408 -8.1575 0
M  V30 1864 N 175.894 1.51508 0.433938 0
M  V30 1865 C 177.31 1.39759 0.770682 0
M  V30 1866 C 177.51 0.482594 1.95636 0
M  V30 1867 O 176.566 -0.0609691 2.52426 0
M  V30 1868 C 177.879 2.81851 1.04787 0
M  V30 1869 C 179.427 2.91025 1.1521 0
M  V30 1870 C 179.902 4.34032 1.46219 0
M  V30 1871 N 181.393 4.37154 1.53136 0
M  V30 1872 C 182.128 5.4484 1.78709 0
M  V30 1873 N 181.624 6.62682 2.02051 0
M  V30 1874 N 183.417 5.32324 1.80519 0
M  V30 1875 H 175.568 2.09548 -0.346892 0
M  V30 1876 H 177.831 0.943446 -0.0928074 0
M  V30 1877 H 177.537 3.50815 0.249304 0
M  V30 1878 H 177.411 3.21386 1.97461 0
M  V30 1879 H 179.798 2.22257 1.94128 0
M  V30 1880 H 179.879 2.54983 0.204281 0
M  V30 1881 H 179.523 5.03351 0.678274 0
M  V30 1882 H 179.453 4.6759 2.42212 0
M  V30 1883 H 181.944 3.52197 1.36987 0
M  V30 1884 H 182.257 7.40543 2.20943 0
M  V30 1885 H 180.602 6.65791 1.99366 0
M  V30 1886 H 183.793 4.39246 1.61805 0
M  V30 1887 H 183.966 6.16328 2.00111 0
M  V30 1888 N 177.372 -0.689602 1.41712 0
M  V30 1889 C 178.619 -1.44966 1.4139 0
M  V30 1890 C 178.947 -1.94484 0.025105 0
M  V30 1891 O 178.202 -1.70307 -0.964048 0
M  V30 1892 C 178.501 -2.67298 2.37247 0
M  V30 1893 C 178.167 -2.36405 3.83958 0
M  V30 1894 C 176.829 -2.27691 4.23923 0
M  V30 1895 C 179.181 -2.11043 4.76561 0
M  V30 1896 C 176.509 -1.91719 5.54492 0
M  V30 1897 C 178.861 -1.76578 6.07456 0
M  V30 1898 C 177.525 -1.66363 6.46436 0
M  V30 1899 H 176.795 -0.53047 0.517381 0
M  V30 1900 H 179.442 -0.787655 1.74552 0
M  V30 1901 H 177.747 -3.38461 1.9736 0
M  V30 1902 H 179.444 -3.25452 2.34269 0
M  V30 1903 H 176.034 -2.44085 3.52308 0
M  V30 1904 H 180.218 -2.16717 4.46483 0
M  V30 1905 H 175.474 -1.82367 5.83568 0
M  V30 1906 H 179.648 -1.55974 6.78708 0
M  V30 1907 H 177.275 -1.38258 7.47522 0
M  V30 1908 N 178.85 -1.27639 -0.924453 0
M  V30 1909 C 180.127 -1.04887 -1.651 0
M  V30 1910 C 180.507 0.415327 -2.06974 0
M  V30 1911 O 179.855 1.39923 -1.80648 0
M  V30 1912 C 180.065 -2.01348 -2.85061 0
M  V30 1913 C 181.413 -2.30899 -3.56329 0
M  V30 1914 O 182.437 -1.99348 -2.95193 0
M  V30 1915 O 181.296 -2.84699 -4.66485 0
M  V30 1916 H 178.39 -0.400083 -0.723784 0
M  V30 1917 H 180.936 -1.38916 -0.974703 0
M  V30 1918 H 179.708 -3.0008 -2.51133 0
M  V30 1919 H 179.331 -1.679 -3.6041 0
M  V30 1920 N 180.328 1.1314 -1.09713 0
M  V30 1921 C 181.605 1.80762 -0.747302 0
M  V30 1922 C 181.985 1.96663 0.767265 0
M  V30 1923 O 181.333 1.53706 1.69076 0
M  V30 1924 C 181.543 3.15606 -1.48975 0
M  V30 1925 C 182.891 3.90914 -1.65746 0
M  V30 1926 O 183.915 3.25239 -1.45251 0
M  V30 1927 O 182.774 5.08718 -1.9967 0
M  V30 1928 H 179.868 0.782103 -0.268782 0
M  V30 1929 H 182.414 1.20041 -1.19951 0
M  V30 1930 H 181.186 2.99278 -2.52088 0
M  V30 1931 H 180.809 3.84029 -1.02991 0
M  V30 1932 N 181.806 0.884767 1.30421 0
M  V30 1933 C 182.736 0.367574 2.30589 0
M  V30 1934 C 183.717 -0.549464 1.60981 0
M  V30 1935 O 184.902 -0.46336 1.88591 0
M  V30 1936 C 182.032 -0.418944 3.44764 0
M  V30 1937 C 180.986 0.406316 4.26067 0
M  V30 1938 C 180.312 -0.506793 5.32293 0
M  V30 1939 C 181.612 1.64832 4.95608 0
M  V30 1940 H 183.306 1.20462 2.74097 0
M  V30 1941 H 180.852 0.580695 1.31772 0
M  V30 1942 H 182.805 -0.791395 4.13902 0
M  V30 1943 H 181.529 -1.28964 3.0006 0
M  V30 1944 H 180.188 0.760903 3.58617 0
M  V30 1945 H 179.836 -1.37519 4.83836 0
M  V30 1946 H 179.536 0.0415828 5.87585 0
M  V30 1947 H 181.06 -0.875764 6.04287 0
M  V30 1948 H 182.474 1.34646 5.57264 0
M  V30 1949 H 180.871 2.13688 5.60765 0
M  V30 1950 H 181.941 2.39284 4.21748 0
M  V30 1951 N 183.284 -1.43765 0.645699 0
M  V30 1952 C 184.7 -1.56509 0.312591 0
M  V30 1953 C 184.9 -1.6307 -1.18365 0
M  V30 1954 O 183.956 -1.58167 -1.96824 0
M  V30 1955 C 185.269 -2.82968 1.01733 0
M  V30 1956 C 186.817 -2.96701 0.996865 0
M  V30 1957 C 187.292 -4.25982 1.68236 0
M  V30 1958 N 188.783 -4.32829 1.64964 0
M  V30 1959 C 189.518 -5.31613 2.14885 0
M  V30 1960 N 189.014 -6.36718 2.73061 0
M  V30 1961 N 190.807 -5.23217 2.05428 0
M  V30 1962 H 182.958 -1.3775 1.61675 0
M  V30 1963 H 185.221 -0.661067 0.679481 0
M  V30 1964 H 184.927 -2.84156 2.0724 0
M  V30 1965 H 184.801 -3.72957 0.564177 0
M  V30 1966 H 187.188 -2.95058 -0.0497719 0
M  V30 1967 H 187.269 -2.08022 1.48865 0
M  V30 1968 H 186.913 -4.28386 2.72852 0
M  V30 1969 H 186.843 -5.13545 1.16529 0
M  V30 1970 H 189.334 -3.57493 1.22503 0
M  V30 1971 H 189.647 -7.08401 3.08848 0
M  V30 1972 H 187.992 -6.37362 2.77118 0
M  V30 1973 H 191.183 -4.40019 1.59689 0
M  V30 1974 H 191.356 -6.00045 2.44643 0
M  V30 1975 N 184.763 -0.387143 -1.52771 0
M  V30 1976 C 185.711 0.463953 -2.27926 0
M  V30 1977 C 186.705 1.06493 -1.31741 0
M  V30 1978 O 187.911 1.00565 -1.49287 0
M  V30 1979 H 184.286 0.16837 -0.732909 0
M  V30 1980 H 186.257 -0.19141 -2.97785 0
M  V30 1981 C 185.006 1.5803 -3.09713 0
M  V30 1982 H 184.329 1.12718 -3.83581 0
M  V30 1983 H 185.769 2.15008 -3.65442 0
M  V30 1984 C 184.228 2.53509 -2.2189 0
M  V30 1985 O 184.758 3.56863 -1.84422 0
M  V30 1986 N 182.964 2.23199 -1.86093 0
M  V30 1987 H 182.511 1.39185 -2.16761 0
M  V30 1988 H 182.469 2.87333 -1.27621 0
M  V30 1989 N 186.241 1.57166 -0.116904 0
M  V30 1990 C 187.466 1.999 0.55271 0
M  V30 1991 C 187.891 0.996039 1.59564 0
M  V30 1992 O 187.249 -0.032556 1.81271 0
M  V30 1993 C 187.297 3.4152 1.15742 0
M  V30 1994 O 186.401 3.44106 2.27299 0
M  V30 1995 H 185.742 0.649447 0.138258 0
M  V30 1996 H 188.272 2.03573 -0.204759 0
M  V30 1997 H 188.282 3.79684 1.49346 0
M  V30 1998 H 186.957 4.14034 0.393493 0
M  V30 1999 H 185.534 3.17759 1.9515 0
M  V30 2000 N 187.719 -0.156864 1.56817 0
M  V30 2001 C 188.649 -1.19589 2.00551 0
M  V30 2002 C 189.63 -1.4536 0.883426 0
M  V30 2003 O 190.815 -1.56449 1.15054 0
M  V30 2004 C 187.945 -2.53143 2.37773 0
M  V30 2005 C 186.899 -2.41913 3.53075 0
M  V30 2006 C 186.225 -3.80088 3.76081 0
M  V30 2007 C 187.525 -1.91157 4.86062 0
M  V30 2008 H 189.219 -0.832293 2.87599 0
M  V30 2009 H 186.765 -0.398918 1.38364 0
M  V30 2010 H 188.718 -3.26047 2.66967 0
M  V30 2011 H 187.442 -2.91319 1.4765 0
M  V30 2012 H 186.101 -1.71462 3.24031 0
M  V30 2013 H 185.749 -4.15683 2.83225 0
M  V30 2014 H 185.449 -3.73439 4.53671 0
M  V30 2015 H 186.973 -4.54556 4.0769 0
M  V30 2016 H 188.387 -2.53846 5.14038 0
M  V30 2017 H 186.784 -1.95422 5.67389 0
M  V30 2018 H 187.854 -0.866673 4.77092 0
M  V30 2019 N 189.197 -1.51736 -0.425897 0
M  V30 2020 C 190.107 -1.76738 -1.54275 0
M  V30 2021 C 191.123 -0.65211 -1.61318 0
M  V30 2022 O 192.299 -0.935654 -1.78346 0
M  V30 2023 C 189.364 -1.89755 -2.90162 0
M  V30 2024 C 188.425 -3.13633 -2.93143 0
M  V30 2025 C 187.658 -3.2602 -4.22548 0
M  V30 2026 O 187.881 -2.44067 -5.15546 0
M  V30 2027 O 186.815 -4.19071 -4.32046 0
M  V30 2028 H 190.641 -2.71502 -1.36089 0
M  V30 2029 H 188.226 -1.36376 -0.610069 0
M  V30 2030 H 190.108 -2.00236 -3.70788 0
M  V30 2031 H 188.783 -0.981785 -3.08452 0
M  V30 2032 H 187.69 -3.08622 -2.11431 0
M  V30 2033 H 189.023 -4.04936 -2.798 0
M  V30 2034 N 190.675 0.682077 -1.42076 0
M  V30 2035 C 192.091 0.994324 -1.24841 0
M  V30 2036 C 192.291 2.0096 -0.147389 0
M  V30 2037 O 191.347 2.47822 0.483782 0
M  V30 2038 C 192.66 1.50607 -2.60265 0
M  V30 2039 C 194.208 1.62421 -2.6756 0
M  V30 2040 C 194.683 2.16994 -4.03333 0
M  V30 2041 N 196.174 2.24337 -4.0525 0
M  V30 2042 C 196.909 2.67621 -5.07116 0
M  V30 2043 N 196.405 3.1041 -6.19368 0
M  V30 2044 N 198.198 2.67305 -4.94474 0
M  V30 2045 H 190.349 0.00973908 -2.12398 0
M  V30 2046 H 192.612 0.0668593 -0.945639 0
M  V30 2047 H 192.318 0.834583 -3.41654 0
M  V30 2048 H 192.192 2.48602 -2.83684 0
M  V30 2049 H 194.579 2.28678 -1.86521 0
M  V30 2050 H 194.66 0.629352 -2.47937 0
M  V30 2051 H 194.304 1.51349 -4.84826 0
M  V30 2052 H 194.234 3.17258 -4.20304 0
M  V30 2053 H 196.725 1.94158 -3.24209 0
M  V30 2054 H 197.038 3.42103 -6.92954 0
M  V30 2055 H 195.383 3.08286 -6.22884 0
M  V30 2056 H 198.574 2.33233 -4.05857 0
M  V30 2057 H 198.747 3.00718 -5.73997 0
M  V30 2058 N 192.153 1.28127 0.917671 0
M  V30 2059 C 193.378 1.18007 1.70555 0
M  V30 2060 C 193.803 -0.258257 1.86319 0
M  V30 2061 O 193.161 -1.1869 1.37049 0
M  V30 2062 C 193.209 1.87948 3.07746 0
M  V30 2063 O 192.313 1.18427 3.9503 0
M  V30 2064 H 191.654 0.409867 0.522403 0
M  V30 2065 H 194.184 1.69379 1.1477 0
M  V30 2066 H 194.194 1.95701 3.58001 0
M  V30 2067 H 192.869 2.92573 2.95591 0
M  V30 2068 H 191.446 1.18811 3.53466 0
M  V30 2069 N 193.631 -1.12557 1.10312 0
M  V30 2070 C 194.856 -1.88405 0.867085 0
M  V30 2071 C 195.281 -1.79038 -0.576817 0
M  V30 2072 O 194.639 -1.14439 -1.40618 0
M  V30 2073 C 194.687 -3.3563 1.31851 0
M  V30 2074 O 193.791 -4.09565 0.482734 0
M  V30 2075 H 193.132 -0.585455 0.313271 0
M  V30 2076 H 195.662 -1.42352 1.4696 0
M  V30 2077 H 195.672 -3.86469 1.3079 0
M  V30 2078 H 194.347 -3.41765 2.37001 0
M  V30 2079 H 192.924 -3.68695 0.558448 0
M  V30 2080 N 195.109 -0.891671 -1.2995 0
M  V30 2081 C 196.072 -0.36828 -2.26222 0
M  V30 2082 C 197.072 0.493014 -1.53056 0
M  V30 2083 O 198.262 0.299213 -1.71611 0
M  V30 2084 C 195.394 0.47442 -3.37583 0
M  V30 2085 H 196.587 -1.21844 -2.74033 0
M  V30 2086 H 194.14 -0.669107 -1.41254 0
M  V30 2087 H 194.875 1.34489 -2.95099 0
M  V30 2088 H 194.66 -0.142615 -3.91841 0
M  V30 2089 H 196.15 0.83218 -4.09224 0
M  V30 2090 N 196.587 1.43421 -0.653314 0
M  V30 2091 C 198.003 1.56341 -0.320886 0
M  V30 2092 C 198.203 1.63696 1.17499 0
M  V30 2093 O 197.259 1.59208 1.95982 0
M  V30 2094 C 198.572 2.82424 -1.03233 0
M  V30 2095 C 200.12 2.96168 -1.01259 0
M  V30 2096 C 200.595 4.25084 -1.70492 0
M  V30 2097 N 202.086 4.31948 -1.67257 0
M  V30 2098 C 202.821 5.30466 -2.17701 0
M  V30 2099 N 202.317 6.35261 -2.76434 0
M  V30 2100 N 204.11 5.2212 -2.082 0
M  V30 2101 H 196.261 1.3689 -1.62403 0
M  V30 2102 H 198.524 0.657455 -0.682977 0
M  V30 2103 H 198.23 2.83053 -2.08744 0
M  V30 2104 H 198.104 3.72653 -0.583948 0
M  V30 2105 H 200.491 2.9508 0.0341235 0
M  V30 2106 H 200.572 2.07229 -1.49966 0
M  V30 2107 H 200.216 4.26932 -2.7512 0
M  V30 2108 H 200.146 5.1292 -1.19251 0
M  V30 2109 H 202.637 3.56838 -1.24398 0
M  V30 2110 H 202.95 7.06754 -3.12601 0
M  V30 2111 H 201.295 6.35884 -2.80495 0
M  V30 2112 H 204.486 4.39166 -1.62021 0
M  V30 2113 H 204.659 5.98739 -2.47822 0
M  V30 2114 N 198.065 0.39524 1.52563 0
M  V30 2115 C 198.975 -0.444232 2.30356 0
M  V30 2116 C 199.991 -1.06615 1.37511 0
M  V30 2117 O 201.167 -1.07067 1.70583 0
M  V30 2118 C 198.232 -1.55315 3.09964 0
M  V30 2119 C 197.293 -0.955734 4.18526 0
M  V30 2120 C 196.526 -2.01181 4.9433 0
M  V30 2121 O 196.749 -3.22781 4.70285 0
M  V30 2122 O 195.683 -1.62579 5.79527 0
M  V30 2123 H 199.509 0.189667 3.03107 0
M  V30 2124 H 197.094 0.1588 1.48554 0
M  V30 2125 H 198.976 -2.19724 3.59582 0
M  V30 2126 H 197.651 -2.17191 2.4002 0
M  V30 2127 H 196.558 -0.274743 3.7309 0
M  V30 2128 H 197.891 -0.381109 4.90722 0
M  V30 2129 N 199.544 -1.57102 0.125237 0
M  V30 2130 C 200.772 -1.99761 -0.538797 0
M  V30 2131 C 201.187 -1.00503 -1.59827 0
M  V30 2132 O 200.544 0.00119474 -1.825 0
M  V30 2133 C 200.595 -3.42408 -1.15927 0
M  V30 2134 O 200.316 -4.37869 -0.142143 0
M  V30 2135 C 201.817 -4.00232 -1.90602 0
M  V30 2136 H 199.037 -0.655772 -0.14214 0
M  V30 2137 H 201.581 -2.03383 0.213413 0
M  V30 2138 H 199.736 -3.39706 -1.86223 0
M  V30 2139 H 200.15 -5.21128 -0.593775 0
M  V30 2140 H 201.624 -5.02105 -2.29335 0
M  V30 2141 H 202.101 -3.39721 -2.78363 0
M  V30 2142 H 202.707 -4.06499 -1.25055 0
M  V30 2143 N 201.022 0.148545 -1.56898 0
M  V30 2144 C 202.25 0.876389 -1.87422 0
M  V30 2145 C 202.665 1.74809 -0.713256 0
M  V30 2146 O 202.022 1.79725 0.317025 0
M  V30 2147 C 202.073 1.73438 -3.17178 0
M  V30 2148 O 201.794 0.897809 -4.28802 0
M  V30 2149 C 203.295 2.56993 -3.61205 0
M  V30 2150 H 200.515 0.253489 -0.621277 0
M  V30 2151 H 203.059 0.141798 -2.04008 0
M  V30 2152 H 201.214 2.42205 -3.0235 0
M  V30 2153 H 201.628 1.48672 -5.02988 0
M  V30 2154 H 203.102 3.12773 -4.54838 0
M  V30 2155 H 203.579 3.32958 -2.86419 0
M  V30 2156 H 204.185 1.9352 -3.78722 0
M  V30 2157 N 202.5 1.5196 0.417844 0
M  V30 2158 C 203.433 1.69387 1.52916 0
M  V30 2159 C 204.411 0.541419 1.53321 0
M  V30 2160 O 205.595 0.767695 1.72159 0
M  V30 2161 C 202.722 1.72525 2.91467 0
M  V30 2162 C 201.768 2.93967 3.09008 0
M  V30 2163 S 202.601 4.54461 2.83242 0
M  V30 2164 C 203.757 4.60372 4.24038 0
M  V30 2165 H 203.99 2.63382 1.37903 0
M  V30 2166 H 201.523 1.41889 0.608845 0
M  V30 2167 H 203.481 1.75018 3.7132 0
M  V30 2168 H 202.142 0.796733 3.03827 0
M  V30 2169 H 201.335 2.92619 4.10353 0
M  V30 2170 H 200.937 2.89316 2.37007 0
M  V30 2171 H 203.229 4.37213 5.17544 0
M  V30 2172 H 204.172 5.62273 4.30412 0
M  V30 2173 H 204.58 3.89492 4.08602 0
M  V30 2174 N 203.978 -0.674533 1.42435 0
M  V30 2175 C 205.394 -0.98769 1.25367 0
M  V30 2176 C 205.594 -2.00879 0.158044 0
M  V30 2177 O 204.65 -2.48075 -0.470633 0
M  V30 2178 C 205.963 -1.49224 2.6106 0
M  V30 2179 C 207.511 -1.61 2.68417 0
M  V30 2180 C 207.986 -2.14852 4.04478 0
M  V30 2181 N 209.477 -2.22185 4.06434 0
M  V30 2182 C 210.212 -2.64928 5.08528 0
M  V30 2183 N 209.708 -3.07121 6.21006 0
M  V30 2184 N 211.501 -2.64679 4.95885 0
M  V30 2185 H 203.652 0.00152503 2.124 0
M  V30 2186 H 205.915 -0.0618434 0.945981 0
M  V30 2187 H 205.621 -0.816453 3.42092 0
M  V30 2188 H 205.495 -2.47094 2.84999 0
M  V30 2189 H 207.882 -2.27686 1.87732 0
M  V30 2190 H 207.963 -0.616195 2.48267 0
M  V30 2191 H 207.607 -1.48775 4.85622 0
M  V30 2192 H 207.537 -3.15024 4.2198 0
M  V30 2193 H 210.028 -1.92435 3.25234 0
M  V30 2194 H 210.341 -3.38423 6.94759 0
M  V30 2195 H 208.686 -3.04978 6.24511 0
M  V30 2196 H 211.877 -2.31078 4.07088 0
M  V30 2197 H 212.05 -2.9767 5.75584 0
M  V30 2198 N 205.456 -1.28612 -0.910864 0
M  V30 2199 C 206.702 -1.16106 -1.66274 0
M  V30 2200 C 207.035 0.289113 -1.92036 0
M  V30 2201 O 206.31 1.21 -1.52281 0
M  V30 2202 C 206.593 -1.96309 -3.01885 0
M  V30 2203 C 206.446 -3.49405 -2.8326 0
M  V30 2204 C 207.765 -1.78076 -4.02463 0
M  V30 2205 H 204.884 -0.423152 -0.603417 0
M  V30 2206 H 207.526 -1.57961 -1.05586 0
M  V30 2207 H 205.676 -1.60742 -3.53687 0
M  V30 2208 H 207.348 -3.94894 -2.38446 0
M  V30 2209 H 205.591 -3.74893 -2.18261 0
M  V30 2210 H 206.262 -4.00784 -3.79574 0
M  V30 2211 H 208.738 -2.0912 -3.59733 0
M  V30 2212 H 207.614 -2.36561 -4.95308 0
M  V30 2213 H 207.875 -0.733008 -4.35981 0
M  V30 2214 N 206.934 1.1197 -1.10907 0
M  V30 2215 C 207.897 2.16031 -0.765707 0
M  V30 2216 C 208.897 1.59393 0.212235 0
M  V30 2217 O 210.087 1.74196 -0.0115441 0
M  V30 2218 C 207.219 3.40632 -0.135053 0
M  V30 2219 H 208.412 2.47919 -1.68748 0
M  V30 2220 H 205.965 1.27061 -0.910226 0
M  V30 2221 H 206.7 3.14348 0.797218 0
M  V30 2222 H 206.485 3.8302 -0.838937 0
M  V30 2223 H 207.975 4.17505 0.0892469 0
M  V30 2224 N 208.412 0.89855 1.29475 0
M  V30 2225 C 209.658 0.524658 1.95896 0
M  V30 2226 C 209.991 -0.926468 1.70676 0
M  V30 2227 O 209.266 -1.65665 1.01908 0
M  V30 2228 C 209.549 0.81633 3.50725 0
M  V30 2229 C 209.402 2.31907 3.85408 0
M  V30 2230 C 210.721 0.302038 4.39062 0
M  V30 2231 H 207.84 0.19209 0.711527 0
M  V30 2232 H 210.482 1.12502 1.53112 0
M  V30 2233 H 208.632 0.305369 3.87298 0
M  V30 2234 H 210.304 2.89949 3.58786 0
M  V30 2235 H 208.547 2.78027 3.32992 0
M  V30 2236 H 209.218 2.47373 4.93468 0
M  V30 2237 H 211.694 0.739551 4.09475 0
M  V30 2238 H 210.57 0.535331 5.46283 0
M  V30 2239 H 210.831 -0.797216 4.34853 0
M  V30 2240 N 209.89 -1.43072 0.660911 0
M  V30 2241 C 211.138 -2.01323 0.177094 0
M  V30 2242 C 211.459 -1.5245 -1.2159 0
M  V30 2243 O 210.729 -0.740322 -1.81373 0
M  V30 2244 H 209.309 -0.744382 0.0624804 0
M  V30 2245 H 211.971 -1.75179 0.854305 0
M  V30 2246 H 211.067 -3.11649 0.167641 0
M  V30 2247 N 211.368 -0.403325 -1.52352 0
M  V30 2248 C 212.331 0.413051 -2.25447 0
M  V30 2249 C 213.331 0.978513 -1.276 0
M  V30 2250 O 214.521 0.858305 -1.51587 0
M  V30 2251 C 211.653 1.58087 -3.02029 0
M  V30 2252 H 212.846 -0.227094 -2.99039 0
M  V30 2253 H 210.399 -0.155722 -1.55522 0
M  V30 2254 H 211.134 2.25804 -2.32772 0
M  V30 2255 H 210.919 1.18195 -3.73861 0
M  V30 2256 H 212.409 2.1585 -3.57489 0
M  V30 2257 N 212.846 1.57033 -0.133567 0
M  V30 2258 C 214.092 1.95976 0.521649 0
M  V30 2259 C 214.425 1.01779 1.65393 0
M  V30 2260 O 213.7 0.0576581 1.94415 0
M  V30 2261 C 213.983 3.44738 1.04057 0
M  V30 2262 C 213.836 4.49711 -0.0892897 0
M  V30 2263 C 215.155 3.95682 1.92675 0
M  V30 2264 H 212.274 0.712579 0.188149 0
M  V30 2265 H 214.916 1.88813 -0.212076 0
M  V30 2266 H 213.066 3.50973 1.66583 0
M  V30 2267 H 214.738 4.55565 -0.725152 0
M  V30 2268 H 212.981 4.27261 -0.750378 0
M  V30 2269 H 213.652 5.51099 0.315284 0
M  V30 2270 H 216.128 3.91841 1.39998 0
M  V30 2271 H 215.004 5.00262 2.25897 0
M  V30 2272 H 215.265 3.37239 2.85872 0
M  V30 2273 N 214.325 -0.140222 1.56975 0
M  V30 2274 C 215.288 -1.15689 1.97861 0
M  V30 2275 C 216.288 -1.3549 0.865974 0
M  V30 2276 O 217.478 -1.32367 1.13246 0
M  V30 2277 C 214.61 -2.51582 2.30042 0
M  V30 2278 H 215.803 -0.805971 2.88867 0
M  V30 2279 H 213.356 -0.383801 1.51515 0
M  V30 2280 H 214.091 -2.91632 1.41849 0
M  V30 2281 H 213.876 -2.38569 3.11171 0
M  V30 2282 H 215.366 -3.24792 2.62488 0
M  V30 2283 N 215.803 -1.52179 -0.40978 0
M  V30 2284 C 216.75 -1.75475 -1.49924 0
M  V30 2285 C 217.72 -0.597175 -1.54994 0
M  V30 2286 O 218.905 -0.834655 -1.71575 0
M  V30 2287 C 216.045 -1.9107 -2.87378 0
M  V30 2288 C 215.158 -3.18717 -2.91622 0
M  V30 2289 C 214.293 -3.24747 -4.20372 0
M  V30 2290 C 213.332 -4.46598 -4.18588 0
M  V30 2291 N 212.469 -4.50025 -5.38908 0
M  V30 2292 H 217.309 -2.68458 -1.29361 0
M  V30 2293 H 214.846 -1.33024 -0.627934 0
M  V30 2294 H 216.804 -1.98096 -3.6717 0
M  V30 2295 H 215.434 -1.01469 -3.06437 0
M  V30 2296 H 214.486 -3.20866 -2.04326 0
M  V30 2297 H 215.798 -4.08544 -2.86169 0
M  V30 2298 H 214.952 -3.30841 -5.08556 0
M  V30 2299 H 213.691 -2.32857 -4.28519 0
M  V30 2300 H 212.696 -4.40652 -3.28794 0
M  V30 2301 H 213.921 -5.39783 -4.12081 0
M  V30 2302 H 211.867 -3.61017 -5.47725 0
M  V30 2303 H 211.784 -5.33697 -5.35447 0
M  V30 2304 H 213.052 -4.60347 -6.29048 0
M  V30 2305 N 217.281 0.66697 -1.42791 0
M  V30 2306 C 218.697 0.981027 -1.25889 0
M  V30 2307 C 218.897 2.00793 -0.168695 0
M  V30 2308 O 217.953 2.48321 0.45747 0
M  V30 2309 C 219.266 1.47838 -2.61848 0
M  V30 2310 C 220.814 1.59575 -2.69267 0
M  V30 2311 C 221.289 2.12704 -4.05612 0
M  V30 2312 N 222.78 2.20026 -4.07606 0
M  V30 2313 C 223.515 2.62227 -5.09926 0
M  V30 2314 N 223.011 3.03824 -6.22626 0
M  V30 2315 N 224.804 2.62045 -4.97281 0
M  V30 2316 H 216.955 -0.0127891 -2.12396 0
M  V30 2317 H 219.218 0.0568258 -0.946295 0
M  V30 2318 H 218.924 0.798299 -3.4252 0
M  V30 2319 H 218.798 2.45579 -2.86305 0
M  V30 2320 H 221.185 2.26687 -1.88936 0
M  V30 2321 H 221.266 0.60302 -2.48591 0
M  V30 2322 H 220.91 1.46198 -4.86404 0
M  V30 2323 H 220.84 3.12782 -4.23645 0
M  V30 2324 H 223.331 1.90708 -3.2625 0
M  V30 2325 H 223.644 3.34734 -6.96544 0
M  V30 2326 H 221.989 3.01662 -6.26119 0
M  V30 2327 H 225.18 2.28916 -4.08308 0
M  V30 2328 H 225.353 2.94613 -5.77154 0
M  V30 2329 N 218.759 1.29093 0.90403 0
M  V30 2330 C 219.689 1.16401 2.02418 0
M  V30 2331 C 220.67 0.0593085 1.69997 0
M  V30 2332 O 221.855 0.238021 1.92736 0
M  V30 2333 C 218.985 0.835233 3.37107 0
M  V30 2334 C 217.939 1.89578 3.83724 0
M  V30 2335 C 217.265 1.42041 5.15489 0
M  V30 2336 C 218.565 3.30394 4.04521 0
M  V30 2337 H 220.259 2.10109 2.13295 0
M  V30 2338 H 217.805 1.01157 1.02486 0
M  V30 2339 H 219.758 0.733169 4.14973 0
M  V30 2340 H 218.482 -0.137543 3.2631 0
M  V30 2341 H 217.141 1.98715 3.08071 0
M  V30 2342 H 216.789 0.436426 5.01103 0
M  V30 2343 H 216.489 2.12964 5.4765 0
M  V30 2344 H 218.013 1.33176 5.959 0
M  V30 2345 H 219.427 3.24123 4.72882 0
M  V30 2346 H 217.824 3.99237 4.48029 0
M  V30 2347 H 218.894 3.73692 3.09002 0
M  V30 2348 N 220.237 -1.11381 1.11499 0
M  V30 2349 C 221.167 -2.19509 0.796125 0
M  V30 2350 C 222.148 -1.68458 -0.235796 0
M  V30 2351 O 223.333 -1.93947 -0.0991344 0
M  V30 2352 C 220.463 -3.46475 0.239205 0
M  V30 2353 C 219.417 -4.10744 1.20307 0
M  V30 2354 C 218.743 -5.32293 0.50683 0
M  V30 2355 C 220.043 -4.55597 2.55399 0
M  V30 2356 H 221.737 -2.46439 1.70024 0
M  V30 2357 H 219.283 -1.18446 0.818935 0
M  V30 2358 H 221.236 -4.214 0.00392006 0
M  V30 2359 H 219.96 -3.19006 -0.700206 0
M  V30 2360 H 218.619 -3.37813 1.42399 0
M  V30 2361 H 218.267 -5.01095 -0.437408 0
M  V30 2362 H 217.967 -5.76243 1.1497 0
M  V30 2363 H 219.491 -6.09956 0.280351 0
M  V30 2364 H 220.905 -5.21841 2.37391 0
M  V30 2365 H 219.302 -5.10363 3.15673 0
M  V30 2366 H 220.372 -3.69013 3.14575 0
M  V30 2367 N 221.715 -0.905404 -1.28997 0
M  V30 2368 C 222.678 -0.392253 -2.25819 0
M  V30 2369 C 223.678 0.476753 -1.5357 0
M  V30 2370 O 224.868 0.280994 -1.71919 0
M  V30 2371 C 222 0.438588 -3.38067 0
M  V30 2372 H 223.193 -1.24743 -2.72725 0
M  V30 2373 H 220.746 -0.684051 -1.40536 0
M  V30 2374 H 221.481 1.31352 -2.96508 0
M  V30 2375 H 221.266 -0.184167 -3.91667 0
M  V30 2376 H 222.756 0.78873 -4.10084 0
M  V30 2377 N 223.193 1.4272 -0.668489 0
M  V30 2378 C 224.103 2.34596 0.0139753 0
M  V30 2379 C 225.119 1.5474 0.795703 0
M  V30 2380 O 226.295 1.87334 0.739466 0
M  V30 2381 C 223.36 3.33202 0.957982 0
M  V30 2382 C 222.421 4.28957 0.17149 0
M  V30 2383 C 221.654 5.22853 1.07053 0
M  V30 2384 O 221.877 5.21531 2.31001 0
M  V30 2385 O 220.811 5.9952 0.534727 0
M  V30 2386 H 224.637 2.9448 -0.742661 0
M  V30 2387 H 222.222 1.43117 -0.428705 0
M  V30 2388 H 224.104 3.93796 1.50008 0
M  V30 2389 H 222.779 2.758 1.69458 0
M  V30 2390 H 221.686 3.71796 -0.414558 0
M  V30 2391 H 223.019 4.89383 -0.52586 0
M  V30 2392 N 224.671 0.411399 1.52136 0
M  V30 2393 C 225.601 -0.404015 2.29978 0
M  V30 2394 C 226.582 -1.04412 1.34284 0
M  V30 2395 O 227.767 -1.0527 1.63192 0
M  V30 2396 C 224.897 -1.5197 3.12286 0
M  V30 2397 C 223.851 -1.00448 4.16046 0
M  V30 2398 C 223.177 -2.21393 4.86712 0
M  V30 2399 C 224.477 -0.0569336 5.22269 0
M  V30 2400 H 226.171 0.245529 2.98392 0
M  V30 2401 H 223.717 0.119525 1.43503 0
M  V30 2402 H 225.67 -2.09715 3.6551 0
M  V30 2403 H 224.394 -2.19716 2.41646 0
M  V30 2404 H 223.053 -0.449421 3.63835 0
M  V30 2405 H 222.701 -2.87699 4.12599 0
M  V30 2406 H 222.401 -1.87571 5.56858 0
M  V30 2407 H 223.925 -2.7974 5.4275 0
M  V30 2408 H 225.339 -0.54325 5.7072 0
M  V30 2409 H 223.736 0.192594 5.99791 0
M  V30 2410 H 224.806 0.887663 4.76706 0
M  V30 2411 N 226.149 -1.5696 0.141893 0
M  V30 2412 C 227.426 -1.87553 -0.555281 0
M  V30 2413 C 227.806 -1.04699 -1.83306 0
M  V30 2414 O 227.154 -0.132346 -2.28116 0
M  V30 2415 C 227.364 -3.39093 -0.825664 0
M  V30 2416 C 228.712 -4.08199 -1.16869 0
M  V30 2417 O 229.736 -3.44242 -0.915185 0
M  V30 2418 O 228.595 -5.21139 -1.6455 0
M  V30 2419 H 225.689 -0.777188 -0.282679 0
M  V30 2420 H 228.235 -1.68763 0.17812 0
M  V30 2421 H 227.007 -3.91221 0.0788633 0
M  V30 2422 H 226.63 -3.63393 -1.61343 0
M  V30 2423 N 227.627 0.131896 -1.57047 0
M  V30 2424 C 228.56 1.19236 -1.94571 0
M  V30 2425 C 229.538 1.40782 -0.813576 0
M  V30 2426 O 230.722 1.55148 -1.07058 0
M  V30 2427 C 227.849 2.54858 -2.23081 0
M  V30 2428 C 226.895 2.49817 -3.45679 0
M  V30 2429 S 227.728 1.95036 -4.98719 0
M  V30 2430 C 228.884 3.32357 -5.30367 0
M  V30 2431 H 229.117 0.872297 -2.84215 0
M  V30 2432 H 226.65 0.338134 -1.50652 0
M  V30 2433 H 228.608 3.32898 -2.40185 0
M  V30 2434 H 227.269 2.84047 -1.34074 0
M  V30 2435 H 226.462 3.49688 -3.62952 0
M  V30 2436 H 226.064 1.79892 -3.27895 0
M  V30 2437 H 228.356 4.28525 -5.2476 0
M  V30 2438 H 229.299 3.19923 -6.31708 0
M  V30 2439 H 229.707 3.3019 -4.57859 0
M  V30 2440 N 229.106 1.52395 0.401703 0
M  V30 2441 C 230.016 1.7917 1.51444 0
M  V30 2442 C 231.032 0.677691 1.6026 0
M  V30 2443 O 232.208 0.963909 1.76835 0
M  V30 2444 C 229.273 1.94347 2.87107 0
M  V30 2445 C 228.334 3.18257 2.88116 0
M  V30 2446 C 227.567 3.32701 4.17308 0
M  V30 2447 O 227.79 2.52238 5.11598 0
M  V30 2448 O 226.724 4.25891 4.25324 0
M  V30 2449 H 230.55 2.73633 1.31752 0
M  V30 2450 H 228.135 1.3733 0.588296 0
M  V30 2451 H 230.017 2.06109 3.67555 0
M  V30 2452 H 228.692 1.03073 3.06851 0
M  V30 2453 H 227.599 3.11947 2.06494 0
M  V30 2454 H 228.932 4.09336 2.73322 0
M  V30 2455 N 230.584 -0.659388 1.43143 0
M  V30 2456 C 231.833 -1.41518 1.43721 0
M  V30 2457 C 232.146 -1.95499 0.0628176 0
M  V30 2458 O 233.352 -2.71446 -0.0539683 0
M  V30 2459 C 231.808 -2.5608 2.52885 0
M  V30 2460 C 231.416 -2.08733 3.96402 0
M  V30 2461 C 233.16 -3.3349 2.62649 0
M  V30 2462 C 231.067 -3.20469 4.97045 0
M  V30 2463 H 229.997 -0.531705 0.534608 0
M  V30 2464 H 232.648 -0.712343 1.69109 0
M  V30 2465 H 231.03 -3.28805 2.20688 0
M  V30 2466 H 232.204 -1.43059 4.3803 0
M  V30 2467 H 230.519 -1.44219 3.90627 0
M  V30 2468 H 233.116 -4.16734 3.35017 0
M  V30 2469 H 233.459 -3.8111 1.67513 0
M  V30 2470 H 233.992 -2.67842 2.94118 0
M  V30 2471 H 230.731 -2.77824 5.93712 0
M  V30 2472 H 230.251 -3.84874 4.60034 0
M  V30 2473 H 231.93 -3.85698 5.19467 0
M  V30 2474 N 232.062 -1.29571 -0.897171 0
M  V30 2475 C 233.025 -1.14913 -1.98312 0
M  V30 2476 C 234.025 -0.0838629 -1.60581 0
M  V30 2477 O 235.215 -0.331006 -1.71026 0
M  V30 2478 C 232.347 -0.757835 -3.3237 0
M  V30 2479 H 233.54 -2.11377 -2.12743 0
M  V30 2480 H 231.093 -1.12793 -1.08201 0
M  V30 2481 H 231.828 0.206837 -3.2364 0
M  V30 2482 H 231.613 -1.52755 -3.61121 0
M  V30 2483 H 233.103 -0.678408 -4.12053 0
M  V30 2484 N 233.54 1.10788 -1.12088 0
M  V30 2485 C 234.488 2.19111 -0.780587 0
M  V30 2486 C 235.482 1.67818 0.230961 0
M  V30 2487 O 236.688 1.79777 0.0895427 0
M  V30 2488 H 233.063 0.714477 -0.234578 0
M  V30 2489 H 235.034 2.45055 -1.70266 0
M  V30 2490 C 233.783 3.46818 -0.24747 0
M  V30 2491 H 233.106 3.86646 -1.01712 0
M  V30 2492 H 234.546 4.23973 -0.0476291 0
M  V30 2493 C 233.005 3.20968 1.02378 0
M  V30 2494 O 233.535 3.42298 2.10226 0
M  V30 2495 N 231.741 2.74658 0.949271 0
M  V30 2496 H 231.288 2.57501 0.0715173 0
M  V30 2497 H 231.246 2.57739 1.80049 0
M  V30 2498 N 235.018 0.912232 1.28515 0
M  V30 2499 C 235.968 0.370649 2.24967 0
M  V30 2500 C 236.952 -0.516375 1.52389 0
M  V30 2501 O 238.144 -0.356345 1.73376 0
M  V30 2502 C 235.273 -0.389526 3.41083 0
M  V30 2503 C 234.359 0.51313 4.20984 0
M  V30 2504 N 234.75 1.62604 4.78951 0
M  V30 2505 C 233.048 0.313235 4.44899 0
M  V30 2506 C 233.749 2.18619 5.39055 0
M  V30 2507 N 232.725 1.47765 5.23132 0
M  V30 2508 H 236.527 1.22061 2.67354 0
M  V30 2509 H 234.041 0.764712 1.43269 0
M  V30 2510 H 236.038 -0.794353 4.09262 0
M  V30 2511 H 234.698 -1.2366 3.0023 0
M  V30 2512 H 235.709 2.00864 4.77362 0
M  V30 2513 H 232.386 -0.494452 4.14562 0
M  V30 2514 H 233.776 3.12228 5.94948 0
M  V30 2515 N 236.496 -1.42363 0.676048 0
M  V30 2516 C 237.742 -2.0182 0.199125 0
M  V30 2517 C 238.075 -1.53339 -1.19168 0
M  V30 2518 O 237.35 -0.736124 -1.80032 0
M  V30 2519 C 237.633 -3.59331 0.235144 0
M  V30 2520 C 237.486 -4.17989 1.66149 0
M  V30 2521 C 238.805 -4.3813 -0.41595 0
M  V30 2522 H 235.924 -0.733293 0.0738311 0
M  V30 2523 H 238.566 -1.69368 0.86107 0
M  V30 2524 H 236.716 -3.87109 -0.328487 0
M  V30 2525 H 238.388 -4.0116 2.27747 0
M  V30 2526 H 236.631 -3.7377 2.20178 0
M  V30 2527 H 237.302 -5.27126 1.63837 0
M  V30 2528 H 239.778 -4.16051 0.0638529 0
M  V30 2529 H 238.654 -5.47717 -0.360115 0
M  V30 2530 H 238.915 -4.16101 -1.49373 0
M  V30 2531 N 237.974 -0.419461 -1.51915 0
M  V30 2532 C 239.22 0.153166 -2.02221 0
M  V30 2533 C 239.553 1.43907 -1.30401 0
M  V30 2534 O 238.828 1.90055 -0.413438 0
M  V30 2535 C 239.111 0.390291 -3.57979 0
M  V30 2536 C 238.964 -0.913014 -4.40436 0
M  V30 2537 C 240.283 1.16794 -4.2432 0
M  V30 2538 H 237.402 0.0541924 -0.735005 0
M  V30 2539 H 240.044 -0.554955 -1.81715 0
M  V30 2540 H 238.194 0.993491 -3.75582 0
M  V30 2541 H 239.866 -1.54882 -4.34522 0
M  V30 2542 H 238.109 -1.52168 -4.06236 0
M  V30 2543 H 238.78 -0.701361 -5.47526 0
M  V30 2544 H 241.256 0.657161 -4.10878 0
M  V30 2545 H 240.132 1.3026 -5.3322 0
M  V30 2546 H 240.393 2.19132 -3.83971 0
M  V30 2547 N 239.452 1.56882 -0.150215 0
M  V30 2548 C 240.698 1.96518 0.500834 0
M  V30 2549 C 241.031 1.03527 1.64304 0
M  V30 2550 O 240.306 0.0782751 1.94342 0
M  V30 2551 C 240.589 3.45822 1.00395 0
M  V30 2552 C 240.442 4.49591 -0.136983 0
M  V30 2553 C 241.761 3.97704 1.88467 0
M  V30 2554 H 238.88 0.714535 0.18058 0
M  V30 2555 H 241.522 1.88577 -0.232091 0
M  V30 2556 H 239.672 3.5272 1.62851 0
M  V30 2557 H 241.344 4.5477 -0.77343 0
M  V30 2558 H 239.587 4.26441 -0.795652 0
M  V30 2559 H 240.258 5.51402 0.256815 0
M  V30 2560 H 242.734 3.93304 1.35834 0
M  V30 2561 H 241.61 5.0263 2.20578 0
M  V30 2562 H 241.871 3.40252 2.82279 0
M  V30 2563 N 240.93 -0.123565 1.57115 0
M  V30 2564 C 242.177 -0.832153 1.84612 0
M  V30 2565 C 242.505 -1.80093 0.734627 0
M  V30 2566 O 241.76 -1.93766 -0.27442 0
M  V30 2567 C 242.059 -1.62016 3.18568 0
M  V30 2568 C 241.725 -0.796084 4.43817 0
M  V30 2569 C 240.387 -0.568816 4.77826 0
M  V30 2570 C 242.739 -0.221364 5.2073 0
M  V30 2571 C 240.067 0.243499 5.86194 0
M  V30 2572 C 242.419 0.578117 6.29953 0
M  V30 2573 C 241.083 0.815744 6.62497 0
M  V30 2574 H 240.353 -0.304507 0.675542 0
M  V30 2575 H 243 -0.0947248 1.91266 0
M  V30 2576 H 241.305 -2.42837 3.0747 0
M  V30 2577 H 243.002 -2.17231 3.37064 0
M  V30 2578 H 239.592 -0.983307 4.17168 0
M  V30 2579 H 243.776 -0.384173 4.94811 0
M  V30 2580 H 239.032 0.436871 6.09837 0
M  V30 2581 H 243.206 1.03046 6.88734 0
M  V30 2582 H 240.833 1.44701 7.46301 0
M  V30 2583 N 242.408 -1.52605 -0.393616 0
M  V30 2584 C 243.656 -1.67093 -1.13685 0
M  V30 2585 C 243.977 -0.411011 -1.90619 0
M  V30 2586 O 243.247 0.574491 -1.87287 0
M  V30 2587 H 241.827 -0.615923 -0.422668 0
M  V30 2588 H 244.489 -1.89704 -0.447039 0
M  V30 2589 H 243.585 -2.51922 -1.84232 0
M  V30 2590 N 243.887 0.651787 -1.4349 0
M  V30 2591 C 245.135 1.40888 -1.44897 0
M  V30 2592 C 245.456 1.94856 -0.0749086 0
M  V30 2593 O 244.726 1.74518 0.889956 0
M  V30 2594 H 243.306 0.522887 -0.533478 0
M  V30 2595 H 245.968 0.768609 -1.79104 0
M  V30 2596 H 245.064 2.25052 -2.16236 0
M  V30 2597 N 245.365 1.30045 0.890287 0
M  V30 2598 C 246.312 1.15976 1.99545 0
M  V30 2599 C 247.282 0.0506202 1.66023 0
M  V30 2600 O 248.467 0.219847 1.89529 0
M  V30 2601 C 245.607 0.852054 3.34416 0
M  V30 2602 C 244.72 2.04255 3.80662 0
M  V30 2603 C 243.855 1.6734 5.04154 0
M  V30 2604 C 242.894 2.82916 5.42794 0
M  V30 2605 N 242.031 2.46333 6.57468 0
M  V30 2606 H 246.871 2.10524 2.10911 0
M  V30 2607 H 244.408 1.04749 1.03276 0
M  V30 2608 H 246.366 0.654296 4.12037 0
M  V30 2609 H 244.996 -0.0565502 3.2275 0
M  V30 2610 H 244.048 2.35172 2.98995 0
M  V30 2611 H 245.36 2.90826 4.05242 0
M  V30 2612 H 244.514 1.43908 5.89386 0
M  V30 2613 H 243.253 0.779308 4.81433 0
M  V30 2614 H 242.258 3.0702 4.56091 0
M  V30 2615 H 243.483 3.73004 5.6749 0
M  V30 2616 H 241.429 1.59423 6.36334 0
M  V30 2617 H 241.346 3.26436 6.81891 0
M  V30 2618 H 242.614 2.26244 7.45945 0
M  V30 2619 N 246.843 -1.10192 1.12674 0
M  V30 2620 C 247.753 -2.20172 0.810026 0
M  V30 2621 C 248.769 -1.72821 -0.202188 0
M  V30 2622 O 249.945 -2.01369 -0.0351691 0
M  V30 2623 C 247.01 -3.45631 0.272007 0
M  V30 2624 C 246.071 -4.07704 1.34447 0
M  V30 2625 C 245.304 -5.27175 0.832029 0
M  V30 2626 O 245.527 -5.69425 -0.333284 0
M  V30 2627 O 244.461 -5.80168 1.60277 0
M  V30 2628 H 248.287 -2.49701 1.72867 0
M  V30 2629 H 245.872 -1.18977 0.903597 0
M  V30 2630 H 247.754 -4.21394 -0.0230219 0
M  V30 2631 H 246.429 -3.17723 -0.619164 0
M  V30 2632 H 245.336 -3.33614 1.6927 0
M  V30 2633 H 246.669 -4.3982 2.2095 0
M  V30 2634 N 248.321 -0.919034 -1.28029 0
M  V30 2635 C 249.57 -0.550802 -1.94034 0
M  V30 2636 C 249.883 0.910877 -1.73096 0
M  V30 2637 O 251.089 1.3875 -2.33368 0
M  V30 2638 C 249.545 -0.934249 -3.47563 0
M  V30 2639 C 249.153 -2.41602 -3.7727 0
M  V30 2640 C 250.897 -0.636854 -4.19696 0
M  V30 2641 C 248.804 -2.73932 -5.24133 0
M  V30 2642 H 247.734 -0.202273 -0.726362 0
M  V30 2643 H 250.385 -1.11867 -1.45458 0
M  V30 2644 H 248.767 -0.295115 -3.94899 0
M  V30 2645 H 249.941 -3.10233 -3.40723 0
M  V30 2646 H 248.256 -2.68441 -3.18321 0
M  V30 2647 H 250.853 -0.855005 -5.2782 0
M  V30 2648 H 251.196 0.425575 -4.14119 0
M  V30 2649 H 251.729 -1.23469 -3.78154 0
M  V30 2650 H 248.468 -3.79049 -5.34792 0
M  V30 2651 H 247.988 -2.09942 -5.61858 0
M  V30 2652 H 249.667 -2.61215 -5.91925 0
M  V30 2653 N 249.799 1.42003 -0.683588 0
M  V30 2654 C 251.076 1.95112 -0.138075 0
M  V30 2655 C 251.456 1.62359 1.34918 0
M  V30 2656 O 250.804 0.924311 2.08971 0
M  V30 2657 C 251.014 3.46505 -0.416581 0
M  V30 2658 C 252.362 4.23254 -0.337834 0
M  V30 2659 O 253.386 3.54468 -0.35082 0
M  V30 2660 O 252.245 5.45743 -0.287596 0
M  V30 2661 H 249.339 0.826961 -0.00797996 0
M  V30 2662 H 251.885 1.51784 -0.758924 0
M  V30 2663 H 250.657 3.63582 -1.4465 0
M  V30 2664 H 250.28 3.969 0.235839 0
M  V30 2665 N 251.277 0.427512 1.51691 0
M  V30 2666 C 252.523 -0.142439 2.02299 0
M  V30 2667 C 252.856 -1.43214 1.31162 0
M  V30 2668 O 252.131 -1.89833 0.423511 0
M  V30 2669 C 252.414 -0.371301 3.58181 0
M  V30 2670 C 252.267 0.936358 4.39946 0
M  V30 2671 C 253.586 -1.14542 4.24933 0
M  V30 2672 H 250.705 -0.0502937 0.735282 0
M  V30 2673 H 253.347 0.564584 1.81418 0
M  V30 2674 H 251.497 -0.973559 3.76104 0
M  V30 2675 H 253.169 1.57184 4.33694 0
M  V30 2676 H 251.412 1.5432 4.05423 0
M  V30 2677 H 252.083 0.730388 5.47147 0
M  V30 2678 H 254.559 -0.635362 4.11221 0
M  V30 2679 H 253.435 -1.27431 5.33903 0
M  V30 2680 H 253.696 -2.17093 3.85127 0
M  V30 2681 N 252.755 -1.56801 0.158532 0
M  V30 2682 C 254.166 -1.83189 -0.360366 0
M  V30 2683 C 254.517 -1.07778 -1.63946 0
M  V30 2684 O 253.642 -0.326718 -2.13919 0
M  V30 2685 C 254.237 -3.32297 -0.660595 0
M  V30 2686 C 252.796 -3.59227 -1.12398 0
M  V30 2687 C 251.943 -2.76877 -0.153097 0
M  V30 2688 H 254.894 -1.54008 0.383031 0
M  V30 2689 H 254.915 -3.4908 -1.51405 0
M  V30 2690 H 254.427 -3.87156 0.270527 0
M  V30 2691 H 252.528 -3.09766 -2.07064 0
M  V30 2692 H 252.641 -4.67632 -1.04197 0
M  V30 2693 H 251.005 -2.46319 -0.647983 0
M  V30 2694 H 251.788 -3.34511 0.77182 0
M  V30 2695 N 254.233 0.115231 -1.57178 0
M  V30 2696 C 255.143 1.15994 -2.03918 0
M  V30 2697 C 256.159 1.45103 -0.960268 0
M  V30 2698 O 257.335 1.56144 -1.27204 0
M  V30 2699 C 254.4 2.46568 -2.43732 0
M  V30 2700 C 253.461 2.24822 -3.65723 0
M  V30 2701 C 252.694 3.4917 -4.03629 0
M  V30 2702 O 252.917 4.56623 -3.41835 0
M  V30 2703 O 251.851 3.39949 -4.96708 0
M  V30 2704 H 255.677 0.793019 -2.93164 0
M  V30 2705 H 253.262 0.3263 -1.45793 0
M  V30 2706 H 255.144 3.23492 -2.70057 0
M  V30 2707 H 253.819 2.82726 -1.57631 0
M  V30 2708 H 252.726 1.45744 -3.44542 0
M  V30 2709 H 254.059 1.93566 -4.52541 0
M  V30 2710 N 255.711 1.52812 0.385517 0
M  V30 2711 C 256.659 1.78482 1.49155 0
M  V30 2712 C 257.653 0.652914 1.56312 0
M  V30 2713 O 258.859 0.835464 1.59436 0
M  V30 2714 H 255.234 0.5648 0.496493 0
M  V30 2715 H 257.205 2.71095 1.24699 0
M  V30 2716 C 255.954 1.97378 2.86247 0
M  V30 2717 H 255.277 2.83907 2.81491 0
M  V30 2718 H 256.717 2.19327 3.62866 0
M  V30 2719 C 255.176 0.74728 3.28508 0
M  V30 2720 O 255.706 -0.0736232 4.01633 0
M  V30 2721 N 253.912 0.576396 2.84826 0
M  V30 2722 H 253.459 1.24555 2.25486 0
M  V30 2723 H 253.417 -0.24288 3.1346 0
M  V30 2724 N 257.189 -0.644168 1.43834 0
M  V30 2725 C 258.119 -1.76814 1.52509 0
M  V30 2726 C 259.1 -1.65823 0.379052 0
M  V30 2727 O 260.285 -1.84781 0.597466 0
M  V30 2728 C 257.415 -3.15288 1.4564 0
M  V30 2729 C 256.369 -3.41053 2.58586 0
M  V30 2730 C 255.695 -4.79421 2.36769 0
M  V30 2731 C 256.995 -3.34902 4.00797 0
M  V30 2732 H 258.689 -1.69812 2.46586 0
M  V30 2733 H 256.235 -0.815542 1.1868 0
M  V30 2734 H 258.188 -3.93681 1.50311 0
M  V30 2735 H 256.912 -3.23043 0.480725 0
M  V30 2736 H 255.571 -2.65035 2.53282 0
M  V30 2737 H 255.219 -4.83863 1.37424 0
M  V30 2738 H 254.919 -4.9762 3.12487 0
M  V30 2739 H 256.443 -5.6006 2.43238 0
M  V30 2740 H 257.857 -4.03218 4.07539 0
M  V30 2741 H 256.254 -3.64637 4.76613 0
M  V30 2742 H 257.324 -2.32928 4.25291 0
M  V30 2743 N 258.668 -1.30515 -0.883378 0
M  V30 2744 C 259.896 -1.22359 -1.66841 0
M  V30 2745 C 260.311 0.213296 -1.87591 0
M  V30 2746 O 259.668 1.14075 -1.42454 0
M  V30 2747 C 259.719 -1.95011 -3.04389 0
M  V30 2748 O 259.44 -3.3309 -2.84575 0
M  V30 2749 C 260.941 -1.93532 -3.98824 0
M  V30 2750 H 258.161 -0.423371 -0.520575 0
M  V30 2751 H 260.705 -1.72167 -1.10357 0
M  V30 2752 H 258.86 -1.48997 -3.57601 0
M  V30 2753 H 259.274 -3.69907 -3.71846 0
M  V30 2754 H 260.748 -2.48902 -4.92699 0
M  V30 2755 H 261.225 -0.914627 -4.29571 0
M  V30 2756 H 261.831 -2.39364 -3.51547 0
M  V30 2757 N 260.146 1.09593 -1.13257 0
M  V30 2758 C 261.392 1.82003 -0.89458 0
M  V30 2759 C 261.725 1.85402 0.577906 0
M  V30 2760 O 261 1.32099 1.42759 0
M  V30 2761 C 261.283 3.28237 -1.48096 0
M  V30 2762 C 261.136 3.3312 -3.02244 0
M  V30 2763 C 262.455 4.24871 -1.14774 0
M  V30 2764 H 259.574 0.66077 -0.326424 0
M  V30 2765 H 262.216 1.28389 -1.40058 0
M  V30 2766 H 260.366 3.74024 -1.05062 0
M  V30 2767 H 262.038 2.95748 -3.54021 0
M  V30 2768 H 260.281 2.72756 -3.37323 0
M  V30 2769 H 260.952 4.3613 -3.38371 0
M  V30 2770 H 263.428 3.87361 -1.51957 0
M  V30 2771 H 262.304 5.25532 -1.58452 0
M  V30 2772 H 262.565 4.42058 -0.0611849 0
M  V30 2773 N 261.624 0.925811 1.2754 0
M  V30 2774 C 262.587 0.428129 2.25166 0
M  V30 2775 C 263.587 -0.452261 1.54309 0
M  V30 2776 O 264.777 -0.253608 1.72344 0
M  V30 2777 C 261.909 -0.384749 3.38722 0
M  V30 2778 H 263.102 1.29066 2.70706 0
M  V30 2779 H 260.655 0.706323 1.3943 0
M  V30 2780 H 261.39 -1.26618 2.98561 0
M  V30 2781 H 261.175 0.246454 3.91325 0
M  V30 2782 H 262.665 -0.723389 4.11287 0
M  V30 2783 N 263.102 -1.41638 0.69111 0
M  V30 2784 C 264.012 -2.34588 0.0233487 0
M  V30 2785 C 265.028 -1.55987 -0.770984 0
M  V30 2786 O 266.204 -1.88486 -0.709569 0
M  V30 2787 C 263.269 -3.34684 -0.904851 0
M  V30 2788 C 262.33 -4.29176 -0.103225 0
M  V30 2789 C 261.563 -5.2449 -0.987216 0
M  V30 2790 O 261.786 -5.2514 -2.22674 0
M  V30 2791 O 260.72 -6.00295 -0.439281 0
M  V30 2792 H 264.546 -2.93261 0.789416 0
M  V30 2793 H 262.131 -1.42417 0.45142 0
M  V30 2794 H 264.013 -3.96133 -1.43724 0
M  V30 2795 H 262.688 -2.78461 -1.65049 0
M  V30 2796 H 261.595 -3.71089 0.473655 0
M  V30 2797 H 262.928 -4.88484 0.60365 0
M  V30 2798 N 264.58 -0.43555 -1.51462 0
M  V30 2799 C 265.829 0.133007 -2.01261 0
M  V30 2800 C 266.142 1.43942 -1.32439 0
M  V30 2801 O 267.348 2.09081 -1.73198 0
M  V30 2802 C 265.804 0.287581 -3.58749 0
M  V30 2803 C 265.412 -1.00829 -4.36506 0
M  V30 2804 C 267.156 0.810004 -4.167 0
M  V30 2805 C 265.063 -0.819454 -5.85695 0
M  V30 2806 H 263.993 0.0534822 -0.752101 0
M  V30 2807 H 266.644 -0.565038 -1.74584 0
M  V30 2808 H 265.026 1.04859 -3.81865 0
M  V30 2809 H 266.2 -1.77749 -4.25138 0
M  V30 2810 H 264.515 -1.45911 -3.89999 0
M  V30 2811 H 267.112 0.967743 -5.2587 0
M  V30 2812 H 267.455 1.79196 -3.75758 0
M  V30 2813 H 267.988 0.107357 -3.97655 0
M  V30 2814 H 264.727 -1.77374 -6.31046 0
M  V30 2815 H 264.247 -0.0900208 -5.99732 0
M  V30 2816 H 265.926 -0.471949 -6.45276 0
M  V30 2817 N 266.058 1.56714 -0.166846 0
M  V30 2818 C 267.005 2.17746 0.765193 0
M  V30 2819 C 267.975 1.11614 1.23011 0
M  V30 2820 O 269.16 1.39745 1.29908 0
M  V30 2821 C 266.3 2.81882 1.9909 0
M  V30 2822 C 265.413 4.02462 1.56997 0
M  V30 2823 C 264.548 4.54537 2.749 0
M  V30 2824 C 263.587 5.67538 2.29275 0
M  V30 2825 N 262.724 6.14142 3.40255 0
M  V30 2826 H 267.564 2.97048 0.237952 0
M  V30 2827 H 265.101 1.4672 0.105725 0
M  V30 2828 H 267.059 3.17221 2.70974 0
M  V30 2829 H 265.689 2.05191 2.49192 0
M  V30 2830 H 264.741 3.72973 0.748037 0
M  V30 2831 H 266.053 4.84273 1.19503 0
M  V30 2832 H 265.207 4.92035 3.54946 0
M  V30 2833 H 263.946 3.71774 3.1565 0
M  V30 2834 H 262.951 5.29597 1.47674 0
M  V30 2835 H 264.176 6.52099 1.89588 0
M  V30 2836 H 262.122 5.3431 3.8059 0
M  V30 2837 H 262.039 6.9093 3.06841 0
M  V30 2838 H 263.307 6.56289 4.206 0
M  V30 2839 N 267.536 -0.106894 1.57237 0
M  V30 2840 C 268.468 -1.15646 1.97885 0
M  V30 2841 C 269.481 -1.36981 0.879779 0
M  V30 2842 O 270.67 -1.35841 1.15799 0
M  V30 2843 C 267.77 -2.51425 2.27241 0
M  V30 2844 C 266.943 -2.50529 3.58545 0
M  V30 2845 C 266.002 -3.68145 3.75973 0
M  V30 2846 O 265.028 -3.51176 4.47956 0
M  V30 2847 N 266.23 -4.87177 3.15656 0
M  V30 2848 H 268.995 -0.81059 2.8853 0
M  V30 2849 H 266.556 -0.296024 1.59171 0
M  V30 2850 H 268.548 -3.28689 2.36105 0
M  V30 2851 H 267.118 -2.78147 1.42663 0
M  V30 2852 H 266.338 -1.58894 3.60758 0
M  V30 2853 H 267.626 -2.46997 4.44826 0
M  V30 2854 H 267.024 -5.03868 2.57165 0
M  V30 2855 H 265.581 -5.62075 3.30023 0
M  V30 2856 N 269.014 -1.53014 -0.377408 0
M  V30 2857 C 270.43 -1.42523 -0.718281 0
M  V30 2858 C 270.63 -0.55487 -1.9371 0
M  V30 2859 O 269.686 -0.0327593 -2.52479 0
M  V30 2860 C 270.999 -2.85546 -0.942539 0
M  V30 2861 C 272.547 -2.95101 -1.04329 0
M  V30 2862 C 273.022 -4.3916 -1.3001 0
M  V30 2863 N 274.513 -4.42536 -1.36806 0
M  V30 2864 C 275.248 -5.51097 -1.58364 0
M  V30 2865 N 274.744 -6.69724 -1.77317 0
M  V30 2866 N 276.537 -5.38657 -1.60638 0
M  V30 2867 H 268.688 -2.08116 0.424426 0
M  V30 2868 H 270.951 -0.939352 0.127759 0
M  V30 2869 H 270.657 -3.51499 -0.118929 0
M  V30 2870 H 270.531 -3.28493 -1.85397 0
M  V30 2871 H 272.918 -2.29309 -1.85745 0
M  V30 2872 H 272.999 -2.55566 -0.109505 0
M  V30 2873 H 272.643 -5.05521 -0.490991 0
M  V30 2874 H 272.573 -4.76258 -2.24691 0
M  V30 2875 H 275.064 -3.57039 -1.23821 0
M  V30 2876 H 275.377 -7.48233 -1.93306 0
M  V30 2877 H 273.722 -6.72732 -1.74518 0
M  V30 2878 H 276.913 -4.44948 -1.45391 0
M  V30 2879 H 277.086 -6.2333 -1.77098 0
M  V30 2880 N 270.492 0.636531 -1.44174 0
M  V30 2881 C 271.455 1.73063 -1.50273 0
M  V30 2882 C 272.455 1.56113 -0.385397 0
M  V30 2883 O 273.645 1.61707 -0.64781 0
M  V30 2884 C 270.777 3.12096 -1.37145 0
M  V30 2885 H 271.97 1.69031 -2.47727 0
M  V30 2886 H 269.523 0.849706 -1.31186 0
M  V30 2887 H 270.258 3.21728 -0.407636 0
M  V30 2888 H 270.043 3.25805 -2.18159 0
M  V30 2889 H 271.533 3.91846 -1.44382 0
M  V30 2890 N 271.97 1.30982 0.876444 0
M  V30 2891 C 272.933 1.18054 1.96459 0
M  V30 2892 C 273.933 0.109399 1.60427 0
M  V30 2893 O 275.123 0.358173 1.70478 0
M  V30 2894 C 272.255 0.810616 3.31122 0
M  V30 2895 H 273.448 2.14735 2.09354 0
M  V30 2896 H 271.001 1.145 1.06392 0
M  V30 2897 H 271.736 -0.155322 3.23928 0
M  V30 2898 H 271.521 1.58481 3.58645 0
M  V30 2899 H 273.011 0.743876 4.10921 0
M  V30 2900 N 273.449 -1.08991 1.13837 0
M  V30 2901 C 274.381 -2.15606 0.777612 0
M  V30 2902 C 275.394 -1.61533 -0.202739 0
M  V30 2903 O 276.583 -1.78491 0.0181055 0
M  V30 2904 C 273.683 -3.3864 0.132623 0
M  V30 2905 C 272.856 -4.22115 1.1462 0
M  V30 2906 C 271.915 -5.23564 0.526074 0
M  V30 2907 O 270.941 -5.56678 1.18735 0
M  V30 2908 N 272.143 -5.76266 -0.699866 0
M  V30 2909 H 274.908 -2.47159 1.69506 0
M  V30 2910 H 272.469 -1.24747 1.03198 0
M  V30 2911 H 274.461 -4.03626 -0.29459 0
M  V30 2912 H 273.031 -3.04938 -0.687849 0
M  V30 2913 H 272.251 -3.53199 1.75055 0
M  V30 2914 H 273.539 -4.74709 1.83109 0
M  V30 2915 H 272.937 -5.51585 -1.25581 0
M  V30 2916 H 271.494 -6.42963 -1.06968 0
M  V30 2917 N 274.927 -0.932562 -1.27047 0
M  V30 2918 C 276.152 -0.591474 -1.98787 0
M  V30 2919 C 276.577 0.824601 -1.69062 0
M  V30 2920 O 275.935 1.5541 -0.933677 0
M  V30 2921 C 275.983 -0.829808 -3.50922 0
M  V30 2922 O 275.087 0.102266 -4.12273 0
M  V30 2923 H 274.428 -0.227185 -0.623926 0
M  V30 2924 H 276.958 -1.25314 -1.61733 0
M  V30 2925 H 276.968 -0.747292 -4.01098 0
M  V30 2926 H 275.643 -1.86201 -3.7189 0
M  V30 2927 H 274.22 -0.0305761 -3.72887 0
M  V30 2928 N 276.405 1.4127 -0.698611 0
M  V30 2929 C 277.315 2.34573 -0.0357891 0
M  V30 2930 C 278.331 1.56393 0.762701 0
M  V30 2931 O 279.507 1.8886 0.699564 0
M  V30 2932 C 276.572 3.35159 0.887089 0
M  V30 2933 C 275.633 4.29225 0.0804634 0
M  V30 2934 C 274.866 5.25006 0.959387 0
M  V30 2935 O 275.089 5.26314 2.19886 0
M  V30 2936 O 274.023 6.00519 0.407439 0
M  V30 2937 H 277.849 2.92838 -0.804957 0
M  V30 2938 H 275.434 1.42175 -0.458966 0
M  V30 2939 H 277.316 3.9689 1.41621 0
M  V30 2940 H 275.991 2.79333 1.6357 0
M  V30 2941 H 274.898 3.70833 -0.493328 0
M  V30 2942 H 276.231 4.88157 -0.629547 0
M  V30 2943 N 277.883 0.443576 1.51229 0
M  V30 2944 C 279.129 -0.120975 2.02439 0
M  V30 2945 C 279.462 -1.41815 1.32674 0
M  V30 2946 O 278.737 -1.89373 0.443622 0
M  V30 2947 C 279.02 -0.333291 3.58554 0
M  V30 2948 C 278.873 0.982968 4.38928 0
M  V30 2949 C 280.192 -1.10028 4.26124 0
M  V30 2950 H 277.311 -0.0424923 0.735774 0
M  V30 2951 H 279.953 0.583794 1.80809 0
M  V30 2952 H 278.103 -0.933614 3.77115 0
M  V30 2953 H 279.775 1.61775 4.32003 0
M  V30 2954 H 278.018 1.58611 4.03763 0
M  V30 2955 H 278.689 0.788379 5.46341 0
M  V30 2956 H 281.165 -0.591711 4.11871 0
M  V30 2957 H 280.041 -1.21761 5.35225 0
M  V30 2958 H 280.302 -2.12996 3.87408 0
M  V30 2959 N 279.361 -1.56624 0.175154 0
M  V30 2960 C 280.586 -2.01813 -0.478137 0
M  V30 2961 C 281.011 -1.05457 -1.55757 0
M  V30 2962 O 280.369 -0.0347439 -1.81267 0
M  V30 2963 C 280.417 -3.45581 -1.02987 0
M  V30 2964 O 279.521 -3.52305 -2.14371 0
M  V30 2965 H 278.862 -0.65413 -0.114059 0
M  V30 2966 H 281.392 -2.02673 0.280173 0
M  V30 2967 H 281.402 -3.84965 -1.35151 0
M  V30 2968 H 280.077 -4.1521 -0.239556 0
M  V30 2969 H 278.654 -3.24783 -1.83222 0
M  V30 2970 N 280.839 0.0985539 -1.57292 0
M  V30 2971 C 282.088 0.801358 -1.85098 0
M  V30 2972 C 282.401 1.80066 -0.763902 0
M  V30 2973 O 283.607 2.55112 -0.928981 0
M  V30 2974 C 282.063 1.47599 -3.28242 0
M  V30 2975 C 281.671 0.516624 -4.45011 0
M  V30 2976 C 283.415 2.16272 -3.65276 0
M  V30 2977 C 281.322 1.19564 -5.79188 0
M  V30 2978 H 280.252 0.303022 -0.69043 0
M  V30 2979 H 282.903 0.0542623 -1.8342 0
M  V30 2980 H 281.285 2.27042 -3.2445 0
M  V30 2981 H 282.459 -0.246065 -4.60143 0
M  V30 2982 H 280.774 -0.064227 -4.1635 0
M  V30 2983 H 283.371 2.67802 -4.62803 0
M  V30 2984 H 283.714 2.95009 -2.93727 0
M  V30 2985 H 284.247 1.43693 -3.70941 0
M  V30 2986 H 280.986 0.449157 -6.53959 0
M  V30 2987 H 280.506 1.92984 -5.67906 0
M  V30 2988 H 282.185 1.7231 -6.23633 0
M  V30 2989 N 282.317 1.53212 0.369288 0
M  V30 2990 C 283.563 1.69466 1.11397 0
M  V30 2991 C 283.896 0.443257 1.89074 0
M  V30 2992 O 283.171 -0.559386 1.86282 0
M  V30 2993 C 283.454 2.9422 2.07621 0
M  V30 2994 C 283.307 4.29508 1.33577 0
M  V30 2995 C 284.626 3.14565 3.07794 0
M  V30 2996 H 281.745 0.616667 0.403597 0
M  V30 2997 H 284.387 1.85845 0.395179 0
M  V30 2998 H 282.537 2.80387 2.68916 0
M  V30 2999 H 284.209 4.55147 0.750955 0
M  V30 3000 H 282.452 4.29088 0.637618 0
M  V30 3001 H 283.123 5.12926 2.03989 0
M  V30 3002 H 285.599 3.2756 2.56601 0
M  V30 3003 H 284.475 4.03297 3.72348 0
M  V30 3004 H 284.736 2.29675 3.77759 0
M  V30 3005 N 283.795 -0.628877 1.44509 0
M  V30 3006 C 284.743 -1.76193 1.51852 0
M  V30 3007 C 285.737 -1.64849 0.390042 0
M  V30 3008 O 286.943 -1.709 0.565082 0
M  V30 3009 H 283.318 -0.581728 0.476547 0
M  V30 3010 H 285.289 -1.67123 2.47209 0
M  V30 3011 C 284.038 -3.14533 1.48204 0
M  V30 3012 H 283.361 -3.23911 2.34354 0
M  V30 3013 H 284.801 -3.93701 1.57402 0
M  V30 3014 C 283.26 -3.36287 0.203142 0
M  V30 3015 O 283.79 -3.9509 -0.725745 0
M  V30 3016 N 281.996 -2.90408 0.105563 0
M  V30 3017 H 281.543 -2.42739 0.862301 0
M  V30 3018 H 281.501 -3.05339 -0.749371 0
M  V30 3019 N 285.273 -1.31445 -0.869486 0
M  V30 3020 C 286.205 -1.14955 -1.98287 0
M  V30 3021 C 287.218 -0.0885037 -1.62559 0
M  V30 3022 O 288.407 -0.336044 -1.75308 0
M  V30 3023 C 285.507 -0.734255 -3.3085 0
M  V30 3024 C 284.68 -1.88042 -3.94917 0
M  V30 3025 C 283.739 -1.4511 -5.05796 0
M  V30 3026 O 282.765 -2.16082 -5.2659 0
M  V30 3027 N 283.967 -0.338763 -5.79511 0
M  V30 3028 H 286.732 -2.10856 -2.12979 0
M  V30 3029 H 284.293 -1.23786 -1.04349 0
M  V30 3030 H 286.285 -0.42975 -4.02412 0
M  V30 3031 H 284.855 0.133158 -3.12316 0
M  V30 3032 H 284.075 -2.35222 -3.1633 0
M  V30 3033 H 285.363 -2.6481 -4.34457 0
M  V30 3034 H 284.761 0.252274 -5.65137 0
M  V30 3035 H 283.318 -0.0937925 -6.51733 0
M  V30 3036 N 286.751 1.08385 -1.14413 0
M  V30 3037 C 287.661 2.18856 -0.844951 0
M  V30 3038 C 288.677 1.73121 0.174668 0
M  V30 3039 O 289.853 2.014 0.00312857 0
M  V30 3040 C 286.918 3.45155 -0.32696 0
M  V30 3041 C 285.979 4.05513 -1.40916 0
M  V30 3042 C 285.212 5.25784 -0.915793 0
M  V30 3043 O 285.435 5.69884 0.242651 0
M  V30 3044 O 284.369 5.77545 -1.69487 0
M  V30 3045 H 288.195 2.46919 -1.76818 0
M  V30 3046 H 285.78 1.17524 -0.922411 0
M  V30 3047 H 287.662 4.21377 -0.0440211 0
M  V30 3048 H 286.337 3.18668 0.568539 0
M  V30 3049 H 285.244 3.30879 -1.74556 0
M  V30 3050 H 286.577 4.3625 -2.27919 0
M  V30 3051 N 288.23 0.939286 1.26551 0
M  V30 3052 C 289.646 0.641304 1.46149 0
M  V30 3053 C 289.846 -0.805964 1.84679 0
M  V30 3054 O 288.902 -1.58278 1.96734 0
M  V30 3055 C 290.215 1.6011 2.54529 0
M  V30 3056 C 291.763 1.6106 2.68382 0
M  V30 3057 C 292.238 2.55765 3.79932 0
M  V30 3058 N 293.729 2.5404 3.87322 0
M  V30 3059 C 294.464 3.24004 4.73085 0
M  V30 3060 N 293.96 4.03388 5.63249 0
M  V30 3061 N 295.753 3.12965 4.66914 0
M  V30 3062 H 287.904 1.87478 0.998285 0
M  V30 3063 H 290.167 0.805559 0.499779 0
M  V30 3064 H 289.873 2.63412 2.33039 0
M  V30 3065 H 289.747 1.35171 3.52149 0
M  V30 3066 H 292.134 0.584835 2.89247 0
M  V30 3067 H 292.215 1.90053 1.71212 0
M  V30 3068 H 291.859 3.58458 3.5982 0
M  V30 3069 H 291.789 2.24063 4.76554 0
M  V30 3070 H 294.28 1.96396 3.22858 0
M  V30 3071 H 294.593 4.5373 6.25579 0
M  V30 3072 H 292.938 4.07489 5.63008 0
M  V30 3073 H 296.129 2.50432 3.95476 0
M  V30 3074 H 296.302 3.67759 5.33533 0
M  V30 3075 N 289.708 -1.40897 0.706093 0
M  V30 3076 C 290.618 -2.3455 0.0482286 0
M  V30 3077 C 291.634 -1.56796 -0.754396 0
M  V30 3078 O 292.81 -1.89228 -0.689538 0
M  V30 3079 C 289.875 -3.35625 -0.869303 0
M  V30 3080 C 288.936 -4.29261 -0.0576994 0
M  V30 3081 C 288.169 -5.25508 -0.931531 0
M  V30 3082 O 288.392 -5.27472 -2.17092 0
M  V30 3083 O 287.326 -6.00727 -0.375587 0
M  V30 3084 H 291.152 -2.92407 0.820476 0
M  V30 3085 H 288.737 -1.4193 0.4665 0
M  V30 3086 H 290.619 -3.97635 -1.39514 0
M  V30 3087 H 289.294 -2.80196 -1.62086 0
M  V30 3088 H 288.201 -3.70566 0.512988 0
M  V30 3089 H 289.534 -4.87817 0.655426 0
M  V30 3090 N 291.186 -0.45159 -1.50991 0
M  V30 3091 C 292.118 0.388634 -2.25881 0
M  V30 3092 C 293.131 0.974041 -1.30446 0
M  V30 3093 O 294.32 0.865758 -1.56099 0
M  V30 3094 C 291.42 1.5571 -3.01011 0
M  V30 3095 C 290.593 1.08801 -4.23652 0
M  V30 3096 C 289.652 2.12825 -4.8124 0
M  V30 3097 O 288.678 1.71678 -5.42693 0
M  V30 3098 N 289.88 3.45453 -4.66522 0
M  V30 3099 H 292.645 -0.25329 -2.98628 0
M  V30 3100 H 290.206 -0.281268 -1.59438 0
M  V30 3101 H 292.198 2.24952 -3.3642 0
M  V30 3102 H 290.768 2.10409 -2.31186 0
M  V30 3103 H 289.988 0.22215 -3.93574 0
M  V30 3104 H 291.276 0.752213 -5.03209 0
M  V30 3105 H 290.674 3.81605 -4.17605 0
M  V30 3106 H 289.231 4.10549 -5.06254 0
M  V30 3107 N 292.664 1.56529 -0.183458 0
M  V30 3108 C 293.574 2.22144 0.754272 0
M  V30 3109 C 294.59 1.21684 1.24374 0
M  V30 3110 O 295.766 1.54385 1.29333 0
M  V30 3111 C 292.831 2.85884 1.96141 0
M  V30 3112 C 291.892 4.01579 1.51765 0
M  V30 3113 C 291.125 4.6227 2.66725 0
M  V30 3114 O 291.348 4.21865 3.83909 0
M  V30 3115 O 290.282 5.51936 2.40104 0
M  V30 3116 H 294.108 3.02861 0.225527 0
M  V30 3117 H 291.693 1.49331 0.0453032 0
M  V30 3118 H 293.575 3.26253 2.66715 0
M  V30 3119 H 292.25 2.08154 2.47899 0
M  V30 3120 H 291.157 3.65856 0.781049 0
M  V30 3121 H 292.49 4.80938 1.04686 0
M  V30 3122 N 294.142 -0.090211 1.57342 0
M  V30 3123 C 295.391 -0.791531 1.8552 0
M  V30 3124 C 295.704 -1.79659 0.773441 0
M  V30 3125 O 296.91 -2.54616 0.942497 0
M  V30 3126 C 295.366 -1.45856 3.2902 0
M  V30 3127 C 294.974 -0.493017 4.45279 0
M  V30 3128 C 296.718 -2.14332 3.66418 0
M  V30 3129 C 294.625 -1.16491 5.79814 0
M  V30 3130 H 293.555 -0.299356 0.692027 0
M  V30 3131 H 296.206 -0.0445343 1.83446 0
M  V30 3132 H 294.588 -2.25318 3.2565 0
M  V30 3133 H 295.762 0.270464 4.60006 0
M  V30 3134 H 294.077 0.0863061 4.16311 0
M  V30 3135 H 296.674 -2.65344 4.64216 0
M  V30 3136 H 297.017 -2.93447 2.95287 0
M  V30 3137 H 297.55 -1.41724 3.71698 0
M  V30 3138 H 294.289 -0.41447 6.54188 0
M  V30 3139 H 293.809 -1.8997 5.68921 0
M  V30 3140 H 295.488 -1.69001 6.24538 0
M  V30 3141 N 295.62 -1.53406 -0.361157 0
M  V30 3142 C 296.567 -1.80156 -1.44265 0
M  V30 3143 C 297.537 -0.646183 -1.53015 0
M  V30 3144 O 298.722 -0.888818 -1.68833 0
M  V30 3145 C 295.862 -2.00116 -2.81154 0
M  V30 3146 C 294.975 -3.27833 -2.81335 0
M  V30 3147 C 294.11 -3.37957 -4.09828 0
M  V30 3148 C 293.149 -4.59689 -4.04168 0
M  V30 3149 N 292.286 -4.66942 -5.24318 0
M  V30 3150 H 297.126 -2.72438 -1.20754 0
M  V30 3151 H 294.663 -1.34954 -0.585296 0
M  V30 3152 H 296.621 -2.09677 -3.60682 0
M  V30 3153 H 295.251 -1.11167 -3.03054 0
M  V30 3154 H 294.303 -3.27204 -1.94014 0
M  V30 3155 H 295.615 -4.17442 -2.73027 0
M  V30 3156 H 294.769 -3.46853 -4.97773 0
M  V30 3157 H 293.508 -2.46372 -4.20894 0
M  V30 3158 H 292.513 -4.50889 -3.14609 0
M  V30 3159 H 293.738 -5.5262 -3.947 0
M  V30 3160 H 291.684 -3.7826 -5.35962 0
M  V30 3161 H 291.601 -5.50462 -5.18197 0
M  V30 3162 H 292.869 -4.80127 -6.14084 0
M  V30 3163 N 297.098 0.621204 -1.44841 0
M  V30 3164 C 298.375 1.38 -1.38619 0
M  V30 3165 C 298.755 2.11041 -0.0498935 0
M  V30 3166 O 298.103 2.06992 0.967816 0
M  V30 3167 C 298.313 2.33817 -2.59096 0
M  V30 3168 C 299.661 2.96844 -3.03593 0
M  V30 3169 O 300.685 2.44141 -2.59371 0
M  V30 3170 O 299.544 3.92476 -3.80296 0
M  V30 3171 H 296.638 0.61811 -0.549426 0
M  V30 3172 H 299.184 0.645429 -1.56947 0
M  V30 3173 H 297.956 1.79012 -3.47952 0
M  V30 3174 H 297.579 3.14676 -2.43032 0
M  V30 3175 N 298.576 1.31904 0.862503 0
M  V30 3176 C 299.806 1.24817 1.64634 0
M  V30 3177 C 300.214 -0.187579 1.88268 0
M  V30 3178 O 299.557 -1.13253 1.44635 0
M  V30 3179 C 299.619 1.92996 3.03303 0
M  V30 3180 C 299.283 3.42336 3.02746 0
M  V30 3181 C 300.28 4.37956 2.80162 0
M  V30 3182 C 297.965 3.84147 3.2363 0
M  V30 3183 C 299.959 5.73361 2.78453 0
M  V30 3184 C 297.646 5.19663 3.21549 0
M  V30 3185 C 298.644 6.14081 2.98988 0
M  V30 3186 O 298.332 7.47118 2.96766 0
M  V30 3187 H 298.064 0.432222 0.519769 0
M  V30 3188 H 300.618 1.7445 1.08427 0
M  V30 3189 H 298.848 1.37922 3.61268 0
M  V30 3190 H 300.537 1.79723 3.63943 0
M  V30 3191 H 301.303 4.06981 2.63802 0
M  V30 3192 H 297.182 3.11083 3.40218 0
M  V30 3193 H 300.726 6.4703 2.60763 0
M  V30 3194 H 296.623 5.5027 3.37451 0
M  V30 3195 H 297.391 7.56382 3.12775 0
M  V30 3196 N 300.054 -1.07777 1.14986 0
M  V30 3197 C 301.303 -1.79669 0.916617 0
M  V30 3198 C 301.616 -1.87474 -0.557917 0
M  V30 3199 O 302.822 -2.55845 -0.908617 0
M  V30 3200 C 301.278 -3.22848 1.59051 0
M  V30 3201 C 300.886 -3.23257 3.10176 0
M  V30 3202 C 302.63 -3.99379 1.43864 0
M  V30 3203 C 300.537 -4.61063 3.70372 0
M  V30 3204 H 299.467 -0.673349 0.33929 0
M  V30 3205 H 302.118 -1.21003 1.37951 0
M  V30 3206 H 300.5 -3.8168 1.0553 0
M  V30 3207 H 301.674 -2.74095 3.70417 0
M  V30 3208 H 299.989 -2.60222 3.25074 0
M  V30 3209 H 302.586 -5.0122 1.86232 0
M  V30 3210 H 302.929 -4.14511 0.385564 0
M  V30 3211 H 303.462 -3.47032 1.94457 0
M  V30 3212 H 300.201 -4.51135 4.7556 0
M  V30 3213 H 299.721 -5.1048 3.14913 0
M  V30 3214 H 301.4 -5.30034 3.71043 0
M  V30 3215 N 301.532 -0.945985 -1.26051 0
M  V30 3216 C 302.809 -0.513816 -1.88731 0
M  V30 3217 C 303.189 1.00872 -1.8544 0
M  V30 3218 O 302.537 1.8708 -1.312 0
M  V30 3219 C 302.747 -1.08062 -3.31849 0
M  V30 3220 C 304.095 -1.1522 -4.08668 0
M  V30 3221 O 305.119 -1.03155 -3.40936 0
M  V30 3222 O 303.978 -1.34044 -5.29806 0
M  V30 3223 H 301.072 -0.168193 -0.809716 0
M  V30 3224 H 303.618 -1.03886 -1.34186 0
M  V30 3225 H 302.39 -2.1241 -3.2863 0
M  V30 3226 H 302.013 -0.538307 -3.93939 0
M  V30 3227 N 303.011 1.40521 -0.713556 0
M  V30 3228 C 303.943 2.29191 -0.0203126 0
M  V30 3229 C 304.956 1.45723 0.725864 0
M  V30 3230 O 306.145 1.69033 0.573581 0
M  V30 3231 C 303.245 3.2395 0.995486 0
M  V30 3232 C 302.418 4.36262 0.315256 0
M  V30 3233 C 301.477 5.11474 1.23616 0
M  V30 3234 O 300.503 5.64606 0.721719 0
M  V30 3235 N 301.705 5.20638 2.56743 0
M  V30 3236 H 304.47 2.89327 -0.781652 0
M  V30 3237 H 302.031 1.51869 -0.561022 0
M  V30 3238 H 304.023 3.71137 1.61368 0
M  V30 3239 H 302.593 2.64995 1.6582 0
M  V30 3240 H 301.813 3.91228 -0.483106 0
M  V30 3241 H 303.101 5.08558 -0.157004 0
M  V30 3242 H 302.499 4.7895 3.01037 0
M  V30 3243 H 301.056 5.71339 3.13712 0
M  V30 3244 N 304.489 0.459591 1.5075 0
M  V30 3245 C 305.738 -0.100971 2.01447 0
M  V30 3246 C 306.051 -1.41816 1.34713 0
M  V30 3247 O 307.257 -2.06299 1.76502 0
M  V30 3248 C 305.713 -0.23047 3.59161 0
M  V30 3249 C 305.321 1.0776 4.34847 0
M  V30 3250 C 307.065 -0.743608 4.17936 0
M  V30 3251 C 304.972 0.91253 5.84317 0
M  V30 3252 H 303.902 -0.0415102 0.752856 0
M  V30 3253 H 306.553 0.592742 1.73663 0
M  V30 3254 H 304.935 -0.987703 3.83485 0
M  V30 3255 H 306.109 1.8449 4.22256 0
M  V30 3256 H 304.424 1.52097 3.87628 0
M  V30 3257 H 307.021 -0.883959 5.27343 0
M  V30 3258 H 307.364 -1.73196 3.78562 0
M  V30 3259 H 307.897 -0.04408 3.97776 0
M  V30 3260 H 304.636 1.87391 6.28144 0
M  V30 3261 H 304.156 0.185422 5.99513 0
M  V30 3262 H 305.835 0.574547 6.44444 0
M  V30 3263 N 305.967 -1.56429 0.191757 0
M  V30 3264 C 306.914 -2.18936 -0.730454 0
M  V30 3265 C 307.884 -1.13557 -1.21219 0
M  V30 3266 O 309.069 -1.41794 -1.27668 0
M  V30 3267 C 306.209 -2.85013 -1.9458 0
M  V30 3268 C 305.322 -4.04909 -1.50574 0
M  V30 3269 C 304.457 -4.58853 -2.67634 0
M  V30 3270 C 303.496 -5.71114 -2.20217 0
M  V30 3271 N 302.633 -6.19478 -3.30442 0
M  V30 3272 H 307.473 -2.97389 -0.190664 0
M  V30 3273 H 305.01 -1.46869 -0.0823694 0
M  V30 3274 H 306.968 -3.21492 -2.65893 0
M  V30 3275 H 305.598 -2.09129 -2.45896 0
M  V30 3276 H 304.65 -3.74115 -0.688605 0
M  V30 3277 H 305.962 -4.86113 -1.11784 0
M  V30 3278 H 305.116 -4.97619 -3.47074 0
M  V30 3279 H 303.855 -3.76749 -3.09696 0
M  V30 3280 H 302.86 -5.31879 -1.3923 0
M  V30 3281 H 304.085 -6.55033 -1.79189 0
M  V30 3282 H 302.031 -5.40297 -3.72041 0
M  V30 3283 H 301.948 -6.95725 -2.9581 0
M  V30 3284 H 303.216 -6.62898 -4.10106 0
M  V30 3285 N 307.445 0.0818655 -1.57387 0
M  V30 3286 C 308.861 0.436412 -1.53517 0
M  V30 3287 C 309.061 1.79758 -0.910459 0
M  V30 3288 O 308.117 2.47324 -0.508636 0
M  V30 3289 C 309.43 0.386734 -2.98203 0
M  V30 3290 C 310.978 0.467644 -3.09487 0
M  V30 3291 C 311.453 0.447978 -4.55804 0
M  V30 3292 N 312.944 0.508348 -4.60402 0
M  V30 3293 C 313.679 0.515184 -5.71081 0
M  V30 3294 N 313.175 0.477435 -6.91153 0
M  V30 3295 N 314.968 0.560988 -5.59294 0
M  V30 3296 H 307.119 -0.809546 -1.96367 0
M  V30 3297 H 309.382 -0.302733 -0.898363 0
M  V30 3298 H 309.088 -0.546539 -3.47427 0
M  V30 3299 H 308.962 1.20075 -3.57578 0
M  V30 3300 H 311.349 1.39134 -2.60242 0
M  V30 3301 H 311.43 -0.374753 -2.5304 0
M  V30 3302 H 311.074 -0.471826 -5.05704 0
M  V30 3303 H 311.004 1.30777 -5.10103 0
M  V30 3304 H 313.495 0.54218 -3.7399 0
M  V30 3305 H 313.808 0.486299 -7.71268 0
M  V30 3306 H 312.153 0.444278 -6.93579 0
M  V30 3307 H 315.344 0.5881 -4.64391 0
M  V30 3308 H 315.517 0.562846 -6.45551 0
M  V30 3309 N 308.923 1.53595 0.353017 0
M  V30 3310 C 310.2 1.61002 1.11075 0
M  V30 3311 C 310.58 0.425356 2.0677 0
M  V30 3312 O 309.928 -0.583267 2.2093 0
M  V30 3313 C 310.138 2.96631 1.83877 0
M  V30 3314 C 311.486 3.51653 2.37961 0
M  V30 3315 O 312.51 2.98743 1.93987 0
M  V30 3316 O 311.369 4.44177 3.18386 0
M  V30 3317 H 308.463 0.650825 0.510251 0
M  V30 3318 H 311.009 1.6594 0.35527 0
M  V30 3319 H 309.781 3.74293 1.14108 0
M  V30 3320 H 309.404 2.95242 2.66304 0
M  V30 3321 N 310.401 -0.613514 1.45168 0
M  V30 3322 C 311.649 -1.36997 1.48581 0
M  V30 3323 C 311.97 -1.94589 0.126545 0
M  V30 3324 O 311.24 -1.76816 -0.843372 0
M  V30 3325 H 309.82 -0.508558 0.547154 0
M  V30 3326 H 312.482 -0.720853 1.81079 0
M  V30 3327 H 311.578 -2.1924 2.22127 0
M  V30 3328 N 311.879 -1.3236 -0.855495 0
M  V30 3329 C 313.156 -1.13491 -1.59309 0
M  V30 3330 C 313.536 0.30503 -2.08885 0
M  V30 3331 O 312.884 1.30151 -1.87811 0
M  V30 3332 C 313.094 -2.16176 -2.73987 0
M  V30 3333 C 314.442 -2.49463 -3.43589 0
M  V30 3334 O 315.466 -2.14715 -2.84211 0
M  V30 3335 O 314.325 -3.09027 -4.50738 0
M  V30 3336 H 311.419 -0.437887 -0.701559 0
M  V30 3337 H 313.965 -1.43887 -0.899696 0
M  V30 3338 H 312.737 -3.1297 -2.34873 0
M  V30 3339 H 312.36 -1.86769 -3.51003 0
M  V30 3340 N 313.357 1.07166 -1.15556 0
M  V30 3341 C 314.585 1.83514 -0.955519 0
M  V30 3342 C 315 1.82163 0.49621 0
M  V30 3343 O 314.357 1.23441 1.34419 0
M  V30 3344 C 314.408 3.30515 -1.46432 0
M  V30 3345 O 314.129 3.31937 -2.85918 0
M  V30 3346 C 315.63 4.23625 -1.30603 0
M  V30 3347 H 312.85 0.578926 -0.339244 0
M  V30 3348 H 315.394 1.35265 -1.53374 0
M  V30 3349 H 313.549 3.76106 -0.928584 0
M  V30 3350 H 313.963 4.23794 -3.09029 0
M  V30 3351 H 315.437 5.24831 -1.71047 0
M  V30 3352 H 315.914 4.38485 -0.250441 0
M  V30 3353 H 316.52 3.83871 -1.83094 0
M  V30 3354 N 314.835 0.952656 1.25548 0
M  V30 3355 C 316.084 0.602053 1.92505 0
M  V30 3356 C 316.397 -0.864663 1.75451 0
M  V30 3357 O 317.603 -1.32514 2.36965 0
M  V30 3358 C 316.059 1.02607 3.44963 0
M  V30 3359 C 315.667 2.51519 3.70732 0
M  V30 3360 C 317.411 0.747905 4.1786 0
M  V30 3361 C 315.318 2.87732 5.16686 0
M  V30 3362 H 314.248 0.22146 0.720744 0
M  V30 3363 H 316.899 1.15684 1.42441 0
M  V30 3364 H 315.281 0.399712 3.93978 0
M  V30 3365 H 316.455 3.19157 3.32378 0
M  V30 3366 H 314.77 2.76786 3.11092 0
M  V30 3367 H 317.367 0.994647 5.25367 0
M  V30 3368 H 317.71 -0.315629 4.15102 0
M  V30 3369 H 318.243 1.33452 3.74747 0
M  V30 3370 H 314.982 3.93095 5.24554 0
M  V30 3371 H 314.502 2.24765 5.56094 0
M  V30 3372 H 316.181 2.76817 5.84792 0
M  V30 3373 N 316.313 -1.40141 0.720998 0
M  V30 3374 C 317.561 -2.0039 0.262323 0
M  V30 3375 C 317.882 -1.57469 -1.15015 0
M  V30 3376 O 317.152 -0.816582 -1.78069 0
M  V30 3377 H 315.732 -0.741063 0.093996 0
M  V30 3378 H 318.394 -1.71398 0.927835 0
M  V30 3379 H 317.49 -3.10658 0.299671 0
M  V30 3380 N 317.792 -0.46758 -1.50504 0
M  V30 3381 C 319.04 0.0884469 -2.01906 0
M  V30 3382 C 319.361 1.40532 -1.35188 0
M  V30 3383 O 318.631 1.89515 -0.496079 0
M  V30 3384 H 317.211 0.0356765 -0.746148 0
M  V30 3385 H 319.873 -0.6172 -1.84869 0
M  V30 3386 H 318.969 0.2425 -3.11156 0
M  V30 3387 N 319.27 1.56325 -0.20005 0
M  V30 3388 C 320.516 1.98012 0.438059 0
M  V30 3389 C 320.849 1.08702 1.60927 0
M  V30 3390 O 320.124 0.140064 1.93995 0
M  V30 3391 C 320.407 3.48841 0.893419 0
M  V30 3392 C 320.26 4.48928 -0.279947 0
M  V30 3393 C 321.579 4.03498 1.75719 0
M  V30 3394 H 318.698 0.719918 0.157757 0
M  V30 3395 H 321.34 1.87743 -0.291968 0
M  V30 3396 H 319.49 3.57723 1.51547 0
M  V30 3397 H 321.162 4.52079 -0.91772 0
M  V30 3398 H 319.405 4.23694 -0.930919 0
M  V30 3399 H 320.076 5.5194 0.0812601 0
M  V30 3400 H 322.552 3.97427 1.23253 0
M  V30 3401 H 321.428 5.09393 2.04476 0
M  V30 3402 H 321.689 3.4906 2.71311 0
M  V30 3403 N 320.748 -0.0735177 1.57428 0
M  V30 3404 C 321.994 -0.774145 1.87443 0
M  V30 3405 C 322.327 -1.77311 0.792103 0
M  V30 3406 O 321.602 -1.93492 -0.197793 0
M  V30 3407 C 321.885 -1.48367 3.28115 0
M  V30 3408 C 321.738 -0.501227 4.46999 0
M  V30 3409 C 323.057 -2.429 3.66998 0
M  V30 3410 H 320.176 -0.279971 0.681752 0
M  V30 3411 H 322.818 -0.0373616 1.89963 0
M  V30 3412 H 320.968 -2.11171 3.26097 0
M  V30 3413 H 322.64 0.121468 4.6114 0
M  V30 3414 H 320.883 0.183593 4.33411 0
M  V30 3415 H 321.554 -1.03526 5.42205 0
M  V30 3416 H 324.03 -1.90175 3.70098 0
M  V30 3417 H 322.906 -2.89549 4.66318 0
M  V30 3418 H 323.167 -3.27628 2.96837 0
M  V30 3419 N 322.226 -1.5378 -0.344866 0
M  V30 3420 C 323.136 -1.84667 -1.4469 0
M  V30 3421 C 324.152 -0.736704 -1.57635 0
M  V30 3422 O 325.328 -1.02888 -1.73136 0
M  V30 3423 C 322.393 -2.04869 -2.79696 0
M  V30 3424 C 321.454 -3.28731 -2.76106 0
M  V30 3425 C 320.687 -3.4796 -4.04673 0
M  V30 3426 O 320.91 -2.71052 -5.01883 0
M  V30 3427 O 319.844 -4.41383 -4.09224 0
M  V30 3428 H 323.67 -2.78334 -1.21506 0
M  V30 3429 H 321.255 -1.39418 -0.536921 0
M  V30 3430 H 323.137 -2.19609 -3.59652 0
M  V30 3431 H 321.812 -1.14391 -3.02814 0
M  V30 3432 H 320.719 -3.19396 -1.94774 0
M  V30 3433 H 322.052 -4.19198 -2.57941 0
M  V30 3434 N 323.704 0.605807 -1.45491 0
M  V30 3435 C 324.932 1.39136 -1.5313 0
M  V30 3436 C 325.347 1.88082 -0.164507 0
M  V30 3437 O 324.704 1.62316 0.834247 0
M  V30 3438 C 324.755 2.59463 -2.51716 0
M  V30 3439 O 324.476 2.12551 -3.83084 0
M  V30 3440 C 325.977 3.52301 -2.6907 0
M  V30 3441 H 323.197 0.425849 -0.51855 0
M  V30 3442 H 325.741 0.73865 -1.90694 0
M  V30 3443 H 323.896 3.20772 -2.17219 0
M  V30 3444 H 324.31 2.90744 -4.36541 0
M  V30 3445 H 325.784 4.33271 -3.42024 0
M  V30 3446 H 326.261 4.02757 -1.75167 0
M  V30 3447 H 326.867 2.96845 -3.04571 0
M  V30 3448 N 325.182 1.32811 0.848464 0
M  V30 3449 C 326.428 1.23907 1.60546 0
M  V30 3450 C 326.761 -0.197161 1.93197 0
M  V30 3451 O 326.036 -1.13596 1.5788 0
M  V30 3452 C 326.319 2.10489 2.92175 0
M  V30 3453 C 326.172 3.62522 2.66266 0
M  V30 3454 C 327.491 1.97075 3.93509 0
M  V30 3455 H 324.61 0.451459 0.58254 0
M  V30 3456 H 327.252 1.62818 0.979296 0
M  V30 3457 H 325.402 1.77434 3.45614 0
M  V30 3458 H 327.074 4.05821 2.19334 0
M  V30 3459 H 325.317 3.84879 2.00126 0
M  V30 3460 H 325.988 4.18437 3.6002 0
M  V30 3461 H 328.464 2.26045 3.49346 0
M  V30 3462 H 327.34 2.59923 4.83457 0
M  V30 3463 H 327.601 0.940186 4.31987 0
M  V30 3464 N 326.66 -1.06551 1.16123 0
M  V30 3465 C 327.906 -1.79567 0.94252 0
M  V30 3466 C 328.239 -1.86869 -0.528547 0
M  V30 3467 O 327.514 -1.35838 -1.39206 0
M  V30 3468 C 327.797 -3.24195 1.56747 0
M  V30 3469 C 327.65 -3.24989 3.10969 0
M  V30 3470 C 328.969 -4.21678 1.25998 0
M  V30 3471 H 326.088 -0.651883 0.343828 0
M  V30 3472 H 328.73 -1.2463 1.43413 0
M  V30 3473 H 326.88 -3.71107 1.14942 0
M  V30 3474 H 328.552 -2.86258 3.61737 0
M  V30 3475 H 326.795 -2.63716 3.44436 0
M  V30 3476 H 327.466 -4.27005 3.49815 0
M  V30 3477 H 329.942 -3.83196 1.62174 0
M  V30 3478 H 328.818 -5.21146 1.7233 0
M  V30 3479 H 329.079 -4.4174 0.178367 0
M  V30 3480 N 328.138 -0.959301 -1.25041 0
M  V30 3481 C 329.386 -0.615393 -1.92503 0
M  V30 3482 C 329.707 0.850969 -1.75452 0
M  V30 3483 O 328.977 1.60658 -1.12098 0
M  V30 3484 H 327.557 -0.224613 -0.712431 0
M  V30 3485 H 330.219 -1.21855 -1.5211 0
M  V30 3486 H 329.315 -0.848738 -3.00338 0
M  V30 3487 N 329.616 1.39756 -0.72842 0
M  V30 3488 C 330.864 2.00248 -0.272946 0
M  V30 3489 C 331.185 1.58077 1.14178 0
M  V30 3490 O 330.455 0.826014 1.77634 0
M  V30 3491 H 329.035 0.740554 -0.0979247 0
M  V30 3492 H 331.697 1.70903 -0.936912 0
M  V30 3493 H 330.793 3.10495 -0.316142 0
M  V30 3494 N 331.094 0.475555 1.50254 0
M  V30 3495 C 332.34 -0.0780073 2.0265 0
M  V30 3496 C 332.673 -1.38968 1.35652 0
M  V30 3497 O 331.948 -1.8839 0.483691 0
M  V30 3498 C 332.231 -0.257161 3.59181 0
M  V30 3499 C 332.084 1.07585 4.36744 0
M  V30 3500 C 333.403 -1.00965 4.28362 0
M  V30 3501 H 330.522 -0.0268758 0.73651 0
M  V30 3502 H 333.164 0.622015 1.7953 0
M  V30 3503 H 331.314 -0.853412 3.79011 0
M  V30 3504 H 332.986 1.70902 4.28474 0
M  V30 3505 H 331.229 1.6714 4.00308 0
M  V30 3506 H 331.9 0.904088 5.44546 0
M  V30 3507 H 334.376 -0.504214 4.13034 0
M  V30 3508 H 333.252 -1.10381 5.37687 0
M  V30 3509 H 333.513 -2.04731 3.91839 0
M  V30 3510 N 332.573 -1.56217 0.208337 0
M  V30 3511 C 333.984 -1.84243 -0.301904 0
M  V30 3512 C 334.335 -1.12939 -1.60434 0
M  V30 3513 O 333.46 -0.39461 -2.12772 0
M  V30 3514 C 334.055 -3.34231 -0.554543 0
M  V30 3515 C 332.614 -3.62621 -1.00912 0
M  V30 3516 C 331.761 -2.77224 -0.064933 0
M  V30 3517 H 334.712 -1.52712 0.431833 0
M  V30 3518 H 334.733 -3.5372 -1.40223 0
M  V30 3519 H 334.245 -3.86099 0.393561 0
M  V30 3520 H 332.346 -3.16197 -1.97104 0
M  V30 3521 H 332.459 -4.7071 -0.892674 0
M  V30 3522 H 330.823 -2.48256 -0.56929 0
M  V30 3523 H 331.606 -3.31887 0.877851 0
M  V30 3524 N 334.051 0.0651679 -1.57465 0
M  V30 3525 C 335.297 0.764193 -1.87851 0
M  V30 3526 C 335.63 1.76889 -0.801495 0
M  V30 3527 O 334.905 1.93594 0.187528 0
M  V30 3528 C 335.188 1.46625 -3.28897 0
M  V30 3529 C 335.041 0.477515 -4.47258 0
M  V30 3530 C 336.36 2.4095 -3.68281 0
M  V30 3531 H 333.479 0.276351 -0.683227 0
M  V30 3532 H 336.121 0.0272868 -1.8998 0
M  V30 3533 H 334.271 2.09438 -3.27212 0
M  V30 3534 H 335.943 -0.145922 -4.61069 0
M  V30 3535 H 334.186 -0.206576 -4.33308 0
M  V30 3536 H 334.857 1.0065 -5.42746 0
M  V30 3537 H 337.333 1.88209 -3.71102 0
M  V30 3538 H 336.209 2.87072 -4.67847 0
M  V30 3539 H 336.47 3.26049 -2.98571 0
M  V30 3540 N 335.529 1.53961 0.336706 0
M  V30 3541 C 336.777 1.71197 1.07405 0
M  V30 3542 C 337.098 0.481475 1.88962 0
M  V30 3543 O 336.368 -0.504585 1.8929 0
M  V30 3544 H 334.948 0.631185 0.399517 0
M  V30 3545 H 337.61 1.91232 0.376323 0
M  V30 3546 H 336.706 2.58587 1.74755 0
M  V30 3547 N 337.007 -0.598083 1.45811 0
M  V30 3548 C 337.937 -1.71873 1.58057 0
M  V30 3549 C 338.918 -1.64533 0.431615 0
M  V30 3550 O 340.103 -1.82787 0.65595 0
M  V30 3551 C 337.233 -3.10495 1.55597 0
M  V30 3552 C 336.187 -3.32654 2.69305 0
M  V30 3553 C 335.513 -4.71646 2.51902 0
M  V30 3554 C 336.813 -3.21981 4.11248 0
M  V30 3555 H 338.507 -1.61881 2.51863 0
M  V30 3556 H 336.053 -0.777372 1.21214 0
M  V30 3557 H 338.006 -3.88699 1.6276 0
M  V30 3558 H 336.73 -3.2135 0.583255 0
M  V30 3559 H 335.389 -2.56843 2.61586 0
M  V30 3560 H 335.037 -4.79246 1.52748 0
M  V30 3561 H 334.737 -4.87426 3.2816 0
M  V30 3562 H 336.261 -5.52038 2.60933 0
M  V30 3563 H 337.675 -3.90049 4.20161 0
M  V30 3564 H 336.072 -3.49289 4.87972 0
M  V30 3565 H 337.142 -2.1928 4.32486 0
M  V30 3566 N 338.485 -1.33259 -0.841409 0
M  V30 3567 C 339.733 -1.24326 -1.59334 0
M  V30 3568 C 340.054 0.191564 -1.94057 0
M  V30 3569 O 339.324 1.11967 -1.60749 0
M  V30 3570 H 337.904 -0.457174 -0.590763 0
M  V30 3571 H 340.566 -1.66947 -1.00571 0
M  V30 3572 H 339.662 -1.8352 -2.52442 0
M  V30 3573 N 339.963 1.05934 -1.16686 0
M  V30 3574 C 341.188 1.83029 -0.975455 0
M  V30 3575 C 341.613 1.82096 0.471452 0
M  V30 3576 O 340.971 1.22443 1.33706 0
M  V30 3577 C 341.019 3.27372 -1.51195 0
M  V30 3578 O 340.123 4.06054 -0.720701 0
M  V30 3579 H 339.464 0.566194 -0.346872 0
M  V30 3580 H 341.994 1.33541 -1.55009 0
M  V30 3581 H 342.004 3.78186 -1.53099 0
M  V30 3582 H 340.679 3.27366 -2.56523 0
M  V30 3583 H 339.256 3.64812 -0.772458 0
M  V30 3584 N 341.441 0.965919 1.2453 0
M  V30 3585 C 342.671 0.643451 1.96324 0
M  V30 3586 C 343.079 -0.790927 1.71875 0
M  V30 3587 O 342.422 -1.54208 0.998273 0
M  V30 3588 C 342.484 0.836078 3.49643 0
M  V30 3589 C 342.148 2.24975 3.97788 0
M  V30 3590 C 343.145 3.22735 4.07601 0
M  V30 3591 C 340.83 2.57697 4.31158 0
M  V30 3592 C 342.824 4.51303 4.50116 0
M  V30 3593 C 340.511 3.86492 4.73357 0
M  V30 3594 C 341.509 4.83107 4.828 0
M  V30 3595 O 341.197 6.09605 5.24058 0
M  V30 3596 H 340.929 0.239223 0.632257 0
M  V30 3597 H 343.483 1.29587 1.59362 0
M  V30 3598 H 341.713 0.12649 3.86493 0
M  V30 3599 H 343.402 0.512965 4.02646 0
M  V30 3600 H 344.168 2.98783 3.82039 0
M  V30 3601 H 340.047 1.83216 4.23028 0
M  V30 3602 H 343.591 5.26716 4.57401 0
M  V30 3603 H 339.488 4.10245 4.98366 0
M  V30 3604 H 340.256 6.13146 5.42213 0
M  V30 3605 N 342.919 -1.39368 0.735821 0
M  V30 3606 C 344.165 -2.00794 0.284544 0
M  V30 3607 C 344.498 -1.58255 -1.12557 0
M  V30 3608 O 343.773 -0.811819 -1.76748 0
M  V30 3609 C 344.056 -3.58011 0.387337 0
M  V30 3610 C 343.909 -4.10566 1.83728 0
M  V30 3611 C 345.228 -4.395 -0.22975 0
M  V30 3612 H 342.347 -0.729501 0.104866 0
M  V30 3613 H 344.989 -1.65564 0.93213 0
M  V30 3614 H 343.139 -3.88154 -0.164006 0
M  V30 3615 H 344.811 -3.91139 2.44556 0
M  V30 3616 H 343.054 -3.64095 2.35833 0
M  V30 3617 H 343.725 -5.19702 1.86047 0
M  V30 3618 H 346.201 -4.15406 0.240257 0
M  V30 3619 H 345.077 -5.48752 -0.127485 0
M  V30 3620 H 345.338 -4.22062 -1.3159 0
M  V30 3621 N 344.397 -0.483516 -1.5 0
M  V30 3622 C 345.329 0.340634 -2.26655 0
M  V30 3623 C 346.342 0.946152 -1.32483 0
M  V30 3624 O 347.531 0.832453 -1.579 0
M  V30 3625 C 344.631 1.4929 -3.04246 0
M  V30 3626 C 343.804 0.997903 -4.25865 0
M  V30 3627 C 342.863 2.02569 -4.85646 0
M  V30 3628 O 341.889 1.60128 -5.46212 0
M  V30 3629 N 343.091 3.3548 -4.73744 0
M  V30 3630 H 345.856 -0.316577 -2.98023 0
M  V30 3631 H 343.417 -0.315024 -1.58806 0
M  V30 3632 H 345.409 2.17766 -3.41116 0
M  V30 3633 H 343.979 2.05458 -2.35597 0
M  V30 3634 H 343.199 0.138617 -3.93956 0
M  V30 3635 H 344.487 0.645305 -5.04691 0
M  V30 3636 H 343.885 3.72661 -4.25605 0
M  V30 3637 H 342.442 3.99718 -5.14848 0
M  V30 3638 N 345.875 1.56104 -0.216619 0
M  V30 3639 C 347.121 1.99219 0.410301 0
M  V30 3640 C 347.476 1.10169 1.57735 0
M  V30 3641 O 346.769 0.150598 1.91007 0
M  V30 3642 C 346.963 3.45923 0.898464 0
M  V30 3643 C 346.792 4.49163 -0.219748 0
M  V30 3644 C 345.562 5.00642 -0.684516 0
M  V30 3645 C 347.76 5.03751 -1.03629 0
M  V30 3646 N 345.742 5.87579 -1.7783 0
M  V30 3647 C 347.113 5.87566 -1.97904 0
M  V30 3648 C 349.168 4.86128 -1.07629 0
M  V30 3649 C 347.871 6.5564 -2.95851 0
M  V30 3650 C 349.897 5.54958 -2.04392 0
M  V30 3651 C 349.259 6.38536 -2.97407 0
M  V30 3652 H 345.358 0.773206 0.11695 0
M  V30 3653 H 347.942 1.9193 -0.327258 0
M  V30 3654 H 346.113 3.53669 1.6054 0
M  V30 3655 H 347.845 3.75963 1.49779 0
M  V30 3656 H 344.6 4.72807 -0.27399 0
M  V30 3657 H 345.024 6.3575 -2.32705 0
M  V30 3658 H 349.666 4.21168 -0.371099 0
M  V30 3659 H 347.384 7.19785 -3.67335 0
M  V30 3660 H 350.97 5.43289 -2.08154 0
M  V30 3661 H 349.85 6.90858 -3.71059 0
M  V30 3662 N 347.353 -0.0568162 1.57498 0
M  V30 3663 C 348.63 -0.786954 1.79071 0
M  V30 3664 C 349.01 -1.95028 0.80792 0
M  V30 3665 O 348.358 -2.27968 -0.155858 0
M  V30 3666 C 348.568 -1.24594 3.26002 0
M  V30 3667 C 349.916 -1.67323 3.90241 0
M  V30 3668 O 350.94 -1.34124 3.29984 0
M  V30 3669 O 349.799 -2.28842 4.9628 0
M  V30 3670 H 346.893 -0.378262 0.735423 0
M  V30 3671 H 349.439 -0.035734 1.69662 0
M  V30 3672 H 348.211 -0.41423 3.89101 0
M  V30 3673 H 347.834 -2.05803 3.40192 0
M  V30 3674 N 348.832 -1.54138 -0.328536 0
M  V30 3675 C 350.248 -1.44736 -0.672574 0
M  V30 3676 C 350.448 -0.616217 -1.91846 0
M  V30 3677 O 349.504 -0.113067 -2.52247 0
M  V30 3678 C 350.817 -2.884 -0.851217 0
M  V30 3679 C 352.365 -2.98271 -0.948877 0
M  V30 3680 C 352.84 -4.43074 -1.15973 0
M  V30 3681 N 354.331 -4.46665 -1.22658 0
M  V30 3682 C 355.066 -5.55857 -1.40751 0
M  V30 3683 N 354.562 -6.75026 -1.5592 0
M  V30 3684 N 356.355 -5.43495 -1.4342 0
M  V30 3685 H 348.506 -2.06661 0.490421 0
M  V30 3686 H 350.769 -0.934812 0.157579 0
M  V30 3687 H 350.475 -3.51699 -0.00704236 0
M  V30 3688 H 350.349 -3.34225 -1.74853 0
M  V30 3689 H 352.736 -2.35102 -1.78356 0
M  V30 3690 H 352.817 -2.55785 -0.0281435 0
M  V30 3691 H 352.461 -5.06827 -0.329915 0
M  V30 3692 H 352.391 -4.83165 -2.09426 0
M  V30 3693 H 354.882 -3.60797 -1.124 0
M  V30 3694 H 355.195 -7.54004 -1.69404 0
M  V30 3695 H 353.54 -6.77944 -1.53027 0
M  V30 3696 H 356.731 -4.49349 -1.31162 0
M  V30 3697 H 356.904 -6.28649 -1.57178 0
M  V30 3698 N 350.31 0.590341 -1.46126 0
M  V30 3699 C 351.257 1.69994 -1.56111 0
M  V30 3700 C 352.227 1.61065 -0.405867 0
M  V30 3701 O 353.412 1.8039 -0.621613 0
M  V30 3702 C 350.552 3.08326 -1.55013 0
M  V30 3703 C 349.665 3.27936 -2.81215 0
M  V30 3704 C 348.8 4.56473 -2.71673 0
M  V30 3705 C 347.839 4.694 -3.92849 0
M  V30 3706 N 346.976 5.89254 -3.81738 0
M  V30 3707 H 351.816 1.60797 -2.50895 0
M  V30 3708 H 349.353 0.783799 -1.24479 0
M  V30 3709 H 351.311 3.88383 -1.52362 0
M  V30 3710 H 349.941 3.16439 -0.637667 0
M  V30 3711 H 348.993 2.41536 -2.93879 0
M  V30 3712 H 350.305 3.33357 -3.71045 0
M  V30 3713 H 349.459 5.44748 -2.67085 0
M  V30 3714 H 348.198 4.53477 -1.7947 0
M  V30 3715 H 347.203 3.79544 -3.97777 0
M  V30 3716 H 348.428 4.7418 -4.86138 0
M  V30 3717 H 346.374 5.87271 -2.92317 0
M  V30 3718 H 346.291 5.95911 -4.65217 0
M  V30 3719 H 347.559 6.79981 -3.81112 0
M  V30 3720 N 351.788 1.33704 0.83433 0
M  V30 3721 C 352.718 1.26967 1.95963 0
M  V30 3722 C 353.699 0.149337 1.69443 0
M  V30 3723 O 354.884 0.339852 1.91203 0
M  V30 3724 C 352.014 1.01275 3.32206 0
M  V30 3725 C 350.968 2.09652 3.73136 0
M  V30 3726 C 350.294 1.69166 5.07235 0
M  V30 3727 C 351.594 3.51372 3.86439 0
M  V30 3728 H 353.288 2.2112 2.01857 0
M  V30 3729 H 350.834 1.06447 0.969793 0
M  V30 3730 H 352.787 0.952106 4.10503 0
M  V30 3731 H 351.511 0.0356203 3.26581 0
M  V30 3732 H 350.17 2.14766 2.97104 0
M  V30 3733 H 349.818 0.701437 4.98085 0
M  V30 3734 H 349.518 2.41694 5.35591 0
M  V30 3735 H 351.042 1.64576 5.88003 0
M  V30 3736 H 352.456 3.48734 4.55036 0
M  V30 3737 H 350.853 4.22425 4.26236 0
M  V30 3738 H 351.923 3.89546 2.88759 0
M  V30 3739 N 353.266 -1.05314 1.17247 0
M  V30 3740 C 354.543 -1.75184 0.87005 0
M  V30 3741 C 354.923 -2.01481 -0.629965 0
M  V30 3742 O 354.271 -1.64988 -1.58086 0
M  V30 3743 C 354.481 -3.04594 1.70363 0
M  V30 3744 C 355.829 -3.78567 1.92281 0
M  V30 3745 O 356.853 -3.14461 1.67311 0
M  V30 3746 O 355.712 -4.93755 2.3424 0
M  V30 3747 H 352.806 -0.761729 0.322021 0
M  V30 3748 H 355.352 -1.11493 1.27935 0
M  V30 3749 H 354.124 -2.81201 2.72106 0
M  V30 3750 H 353.747 -3.76022 1.29202 0
M  V30 3751 N 354.744 -0.972509 -1.24016 0
M  V30 3752 C 355.707 -0.511403 -2.23422 0
M  V30 3753 C 356.707 0.394679 -1.55881 0
M  V30 3754 O 357.897 0.189469 -1.73167 0
M  V30 3755 C 355.029 0.258769 -3.39916 0
M  V30 3756 H 356.222 -1.39024 -2.6573 0
M  V30 3757 H 353.775 -0.757585 -1.36713 0
M  V30 3758 H 354.51 1.1545 -3.03054 0
M  V30 3759 H 354.295 -0.391522 -3.9014 0
M  V30 3760 H 355.785 0.570244 -4.13688 0
M  V30 3761 N 356.222 1.38976 -0.743202 0
M  V30 3762 C 357.638 1.53984 -0.419664 0
M  V30 3763 C 357.838 1.70837 1.0685 0
M  V30 3764 O 356.894 1.7135 1.8546 0
M  V30 3765 C 358.207 2.75287 -1.20985 0
M  V30 3766 C 359.755 2.89129 -1.19889 0
M  V30 3767 C 360.23 4.13381 -1.97181 0
M  V30 3768 N 361.721 4.20437 -1.94389 0
M  V30 3769 C 362.456 5.15547 -2.50996 0
M  V30 3770 N 361.952 6.16395 -3.16274 0
M  V30 3771 N 363.745 5.07822 -2.40984 0
M  V30 3772 H 355.896 1.26285 -1.7078 0
M  V30 3773 H 358.159 0.612689 -0.723406 0
M  V30 3774 H 357.865 2.69204 -2.26323 0
M  V30 3775 H 357.739 3.68184 -0.819759 0
M  V30 3776 H 360.126 2.947 -0.153606 0
M  V30 3777 H 360.207 1.97272 -1.62841 0
M  V30 3778 H 359.851 4.08572 -3.01714 0
M  V30 3779 H 359.781 5.04298 -1.51629 0
M  V30 3780 H 362.272 3.48205 -1.46839 0
M  V30 3781 H 362.585 6.85443 -3.56915 0
M  V30 3782 H 360.93 6.16758 -3.20367 0
M  V30 3783 H 364.121 4.27973 -1.89622 0
M  V30 3784 H 364.294 5.81767 -2.85397 0
M  V30 3785 N 357.7 0.491464 1.49741 0
M  V30 3786 C 358.63 -0.28154 2.31796 0
M  V30 3787 C 359.611 -0.971473 1.3963 0
M  V30 3788 O 360.796 -0.964719 1.68543 0
M  V30 3789 C 357.926 -1.35203 3.19902 0
M  V30 3790 C 356.88 -0.782529 4.20786 0
M  V30 3791 C 356.206 -1.95283 4.97764 0
M  V30 3792 C 357.506 0.21999 5.21837 0
M  V30 3793 H 359.2 0.403355 2.96671 0
M  V30 3794 H 356.746 0.195425 1.42668 0
M  V30 3795 H 358.699 -1.90045 3.76113 0
M  V30 3796 H 357.423 -2.06598 2.52953 0
M  V30 3797 H 356.082 -0.255928 3.65706 0
M  V30 3798 H 355.73 -2.65423 4.2727 0
M  V30 3799 H 355.43 -1.57789 5.66018 0
M  V30 3800 H 356.954 -2.50577 5.56816 0
M  V30 3801 H 358.368 -0.23996 5.72798 0
M  V30 3802 H 356.765 0.51026 5.97927 0
M  V30 3803 H 357.835 1.13911 4.7133 0
M  V30 3804 N 359.178 -1.55987 0.224894 0
M  V30 3805 C 360.141 -2.19178 -0.670348 0
M  V30 3806 C 361.141 -1.15461 -1.11917 0
M  V30 3807 O 362.331 -1.40675 -1.02743 0
M  V30 3808 C 359.463 -2.81777 -1.9187 0
M  V30 3809 H 360.656 -2.99662 -0.119364 0
M  V30 3810 H 358.209 -1.5628 -0.0247128 0
M  V30 3811 H 358.944 -2.05172 -2.51147 0
M  V30 3812 H 358.729 -3.57732 -1.60531 0
M  V30 3813 H 360.219 -3.30205 -2.55645 0
M  V30 3814 N 360.656 0.0484629 -1.57525 0
M  V30 3815 C 361.588 1.08222 -2.02041 0
M  V30 3816 C 362.601 1.33621 -0.930012 0
M  V30 3817 O 363.79 1.3145 -1.20761 0
M  V30 3818 C 360.89 2.42818 -2.36416 0
M  V30 3819 C 360.063 2.37049 -3.67596 0
M  V30 3820 C 359.122 3.53937 -3.89378 0
M  V30 3821 O 358.148 3.34308 -4.60681 0
M  V30 3822 N 359.35 4.75126 -3.3352 0
M  V30 3823 H 362.115 0.702946 -2.9134 0
M  V30 3824 H 359.676 0.236745 -1.6016 0
M  V30 3825 H 361.668 3.197 -2.48141 0
M  V30 3826 H 360.238 2.72661 -1.52888 0
M  V30 3827 H 359.458 1.45395 -3.66407 0
M  V30 3828 H 360.746 2.30318 -4.53686 0
M  V30 3829 H 360.144 4.93976 -2.75688 0
M  V30 3830 H 358.701 5.49439 -3.50656 0
M  V30 3831 N 362.134 1.5431 0.320358 0
M  V30 3832 C 363.097 1.83195 1.3774 0
M  V30 3833 C 364.097 0.703906 1.44575 0
M  V30 3834 O 365.287 0.972214 1.44546 0
M  V30 3835 C 362.419 1.99487 2.76438 0
M  V30 3836 H 363.612 2.77642 1.1338 0
M  V30 3837 H 361.165 1.46076 0.556012 0
M  V30 3838 H 361.9 1.07262 3.06048 0
M  V30 3839 H 361.685 2.81575 2.7287 0
M  V30 3840 H 363.175 2.23271 3.52902 0
M  V30 3841 N 363.613 -0.582584 1.46437 0
M  V30 3842 C 364.859 -1.34278 1.51978 0
M  V30 3843 C 365.192 -1.93446 0.170973 0
M  V30 3844 O 364.467 -1.76481 -0.817608 0
M  V30 3845 C 364.75 -2.47203 2.61845 0
M  V30 3846 C 364.603 -1.93069 4.06257 0
M  V30 3847 C 365.922 -3.49247 2.67795 0
M  V30 3848 H 363.041 -0.486876 0.553282 0
M  V30 3849 H 365.683 -0.654437 1.78374 0
M  V30 3850 H 363.833 -3.0592 2.39469 0
M  V30 3851 H 365.505 -1.38808 4.3992 0
M  V30 3852 H 363.748 -1.23898 4.1573 0
M  V30 3853 H 364.419 -2.74586 4.7886 0
M  V30 3854 H 366.895 -3.00411 2.8791 0
M  V30 3855 H 365.771 -4.25719 3.46489 0
M  V30 3856 H 366.032 -4.06482 1.73852 0
M  V30 3857 N 365.091 -1.34144 -0.827227 0
M  V30 3858 C 366.337 -1.26446 -1.58554 0
M  V30 3859 C 366.67 0.1664 -1.93486 0
M  V30 3860 O 365.945 1.1107 -1.59667 0
M  V30 3861 C 366.228 -2.15111 -2.8879 0
M  V30 3862 C 366.081 -3.66712 -2.60465 0
M  V30 3863 C 367.4 -2.03311 -3.90324 0
M  V30 3864 H 364.519 -0.46067 -0.575284 0
M  V30 3865 H 367.161 -1.64356 -0.953269 0
M  V30 3866 H 365.311 -1.8291 -3.42748 0
M  V30 3867 H 366.983 -4.09259 -2.1285 0
M  V30 3868 H 365.226 -3.88014 -1.93978 0
M  V30 3869 H 365.897 -4.24112 -3.53317 0
M  V30 3870 H 368.373 -2.31574 -3.45706 0
M  V30 3871 H 367.249 -2.67582 -4.79261 0
M  V30 3872 H 367.51 -1.00879 -4.30437 0
M  V30 3873 N 366.569 1.04691 -1.17803 0
M  V30 3874 C 367.794 1.81984 -0.994813 0
M  V30 3875 C 368.219 1.82586 0.452112 0
M  V30 3876 O 367.577 1.23854 1.324 0
M  V30 3877 C 367.625 3.2575 -1.54659 0
M  V30 3878 O 366.729 4.05267 -0.763728 0
M  V30 3879 H 366.07 0.562483 -0.352857 0
M  V30 3880 H 368.6 1.3189 -1.56417 0
M  V30 3881 H 368.61 3.76541 -1.57102 0
M  V30 3882 H 367.285 3.24627 -2.59981 0
M  V30 3883 H 365.862 3.63972 -0.811108 0
M  V30 3884 N 368.047 0.979072 1.23499 0
M  V30 3885 C 369.296 0.642751 1.91185 0
M  V30 3886 C 369.609 -0.827253 1.77245 0
M  V30 3887 O 370.815 -1.27458 2.39722 0
M  V30 3888 C 369.271 1.09901 3.42709 0
M  V30 3889 C 368.879 2.59327 3.65313 0
M  V30 3890 C 370.623 0.836371 4.16179 0
M  V30 3891 C 368.53 2.98627 5.10467 0
M  V30 3892 H 367.46 0.236698 0.715884 0
M  V30 3893 H 370.111 1.1868 1.39955 0
M  V30 3894 H 368.493 0.48319 3.93041 0
M  V30 3895 H 369.667 3.26136 3.25533 0
M  V30 3896 H 367.982 2.83323 3.05151 0
M  V30 3897 H 370.579 1.10586 5.23139 0
M  V30 3898 H 370.922 -0.227509 4.15678 0
M  V30 3899 H 371.455 1.41371 3.71832 0
M  V30 3900 H 368.194 4.04133 5.16098 0
M  V30 3901 H 367.714 2.3651 5.51201 0
M  V30 3902 H 369.393 2.89159 5.78788 0
M  V30 3903 N 369.525 -1.3858 0.750561 0
M  V30 3904 C 370.473 -2.32339 0.110162 0
M  V30 3905 C 371.467 -1.53864 -0.708674 0
M  V30 3906 O 372.673 -1.69417 -0.608112 0
M  V30 3907 H 369.048 -0.751812 0.0168275 0
M  V30 3908 H 371.019 -2.83959 0.917053 0
M  V30 3909 C 369.768 -3.39043 -0.771067 0
M  V30 3910 H 369.091 -3.99517 -0.150374 0
M  V30 3911 H 370.531 -4.07061 -1.1865 0
M  V30 3912 C 368.99 -2.77365 -1.91234 0
M  V30 3913 O 369.52 -2.66434 -3.00626 0
M  V30 3914 N 367.726 -2.35219 -1.70646 0
M  V30 3915 H 367.273 -2.4431 -0.81673 0
M  V30 3916 H 367.231 -1.94294 -2.47178 0
M  V30 3917 N 371.003 -0.499398 -1.49478 0
M  V30 3918 C 371.966 0.268838 -2.27618 0
M  V30 3919 C 372.966 0.895383 -1.33565 0
M  V30 3920 O 374.156 0.760164 -1.56739 0
M  V30 3921 C 371.288 1.38559 -3.11471 0
M  V30 3922 H 372.481 -0.416812 -2.96989 0
M  V30 3923 H 370.034 -0.254313 -1.54217 0
M  V30 3924 H 370.769 2.10544 -2.46661 0
M  V30 3925 H 370.554 0.941797 -3.80621 0
M  V30 3926 H 372.044 1.92678 -3.70493 0
M  V30 3927 N 372.481 1.55866 -0.233164 0
M  V30 3928 C 373.728 1.98603 0.395374 0
M  V30 3929 C 374.056 1.12105 1.58942 0
M  V30 3930 O 373.311 0.168656 1.94972 0
M  V30 3931 C 373.61 3.46856 0.861724 0
M  V30 3932 C 373.276 4.50348 -0.223066 0
M  V30 3933 C 371.938 4.78371 -0.521038 0
M  V30 3934 C 374.29 5.12355 -0.956124 0
M  V30 3935 C 371.618 5.6568 -1.55638 0
M  V30 3936 C 373.97 6.00786 -1.98089 0
M  V30 3937 C 372.634 6.27148 -2.28565 0
M  V30 3938 H 371.904 0.726739 0.144677 0
M  V30 3939 H 374.551 1.88491 -0.338114 0
M  V30 3940 H 372.856 3.5423 1.67418 0
M  V30 3941 H 374.553 3.77302 1.35809 0
M  V30 3942 H 371.143 4.28596 0.0193234 0
M  V30 3943 H 375.327 4.90765 -0.739166 0
M  V30 3944 H 370.583 5.84365 -1.798 0
M  V30 3945 H 374.757 6.4788 -2.55391 0
M  V30 3946 H 372.384 6.94597 -3.08932 0
M  V30 3947 N 373.959 -0.0401083 1.57549 0
M  V30 3948 C 374.906 -1.04413 2.05831 0
M  V30 3949 C 375.876 -1.36585 0.945184 0
M  V30 3950 O 377.061 -1.47112 1.21502 0
M  V30 3951 C 374.201 -2.34336 2.53339 0
M  V30 3952 C 373.314 -2.08419 3.78398 0
M  V30 3953 C 372.449 -3.32133 4.14561 0
M  V30 3954 C 371.488 -3.01721 5.3257 0
M  V30 3955 N 370.625 -4.17855 5.64218 0
M  V30 3956 H 375.465 -0.625442 2.91363 0
M  V30 3957 H 373.002 -0.297218 1.44066 0
M  V30 3958 H 374.96 -3.10234 2.78946 0
M  V30 3959 H 373.59 -2.73948 1.7074 0
M  V30 3960 H 372.642 -1.23069 3.59942 0
M  V30 3961 H 373.954 -1.81978 4.64419 0
M  V30 3962 H 373.108 -4.16406 4.41238 0
M  V30 3963 H 371.847 -3.61678 3.2717 0
M  V30 3964 H 370.852 -2.15849 5.05657 0
M  V30 3965 H 372.077 -2.73466 6.21605 0
M  V30 3966 H 370.023 -4.47372 4.79786 0
M  V30 3967 H 369.94 -3.94798 6.44725 0
M  V30 3968 H 371.208 -5.03033 5.95465 0
M  V30 3969 N 375.437 -1.54477 -0.31217 0
M  V30 3970 C 376.685 -1.72884 -1.04668 0
M  V30 3971 C 377.006 -0.511477 -1.88173 0
M  V30 3972 O 376.276 0.474407 -1.90069 0
M  V30 3973 H 374.856 -0.637461 -0.389425 0
M  V30 3974 H 377.518 -1.91807 -0.345852 0
M  V30 3975 H 376.614 -2.61334 -1.70619 0
M  V30 3976 N 376.915 0.57481 -1.46744 0
M  V30 3977 C 378.161 1.3347 -1.52688 0
M  V30 3978 C 378.494 1.93353 -0.181229 0
M  V30 3979 O 377.769 1.76912 0.808237 0
M  V30 3980 C 378.052 2.45811 -2.63152 0
M  V30 3981 C 377.905 1.90912 -4.07275 0
M  V30 3982 C 379.224 3.47822 -2.69644 0
M  V30 3983 H 376.343 0.483935 -0.555856 0
M  V30 3984 H 378.985 0.644968 -1.78718 0
M  V30 3985 H 377.135 3.04646 -2.41088 0
M  V30 3986 H 378.807 1.36473 -4.4065 0
M  V30 3987 H 377.05 1.21691 -4.16382 0
M  V30 3988 H 377.721 2.72042 -4.80309 0
M  V30 3989 H 380.197 2.9888 -2.895 0
M  V30 3990 H 379.073 4.23876 -3.48742 0
M  V30 3991 H 379.334 4.05555 -1.76005 0
M  V30 3992 N 378.394 1.34581 0.820102 0
M  V30 3993 C 379.304 1.28471 1.96297 0
M  V30 3994 C 380.32 0.191902 1.72939 0
M  V30 3995 O 381.496 0.418879 1.96996 0
M  V30 3996 C 378.561 1.04281 3.30645 0
M  V30 3997 C 377.622 2.22745 3.66992 0
M  V30 3998 C 376.855 1.997 4.9493 0
M  V30 3999 O 377.078 0.956656 5.6232 0
M  V30 4000 O 376.012 2.86723 5.2922 0
M  V30 4001 H 379.838 2.24624 2.04396 0
M  V30 4002 H 377.423 1.14816 0.955913 0
M  V30 4003 H 379.305 0.925841 4.11104 0
M  V30 4004 H 377.98 0.111697 3.23507 0
M  V30 4005 H 376.887 2.40003 2.86966 0
M  V30 4006 H 378.22 3.14257 3.78819 0
M  V30 4007 N 379.872 -1.04064 1.18357 0
M  V30 4008 C 381.119 -1.77265 0.978947 0
M  V30 4009 C 381.447 -1.88189 -0.491428 0
M  V30 4010 O 380.702 -1.38653 -1.38108 0
M  V30 4011 C 381.001 -3.20634 1.57888 0
M  V30 4012 C 380.667 -3.29743 3.07539 0
M  V30 4013 C 379.329 -3.31937 3.48384 0
M  V30 4014 C 381.681 -3.29841 4.03552 0
M  V30 4015 C 379.009 -3.3187 4.83818 0
M  V30 4016 C 381.361 -3.31313 5.38901 0
M  V30 4017 C 380.025 -3.31799 5.79194 0
M  V30 4018 H 379.295 -0.648659 0.358222 0
M  V30 4019 H 381.942 -1.22225 1.47422 0
M  V30 4020 H 380.247 -3.78675 1.00561 0
M  V30 4021 H 381.944 -3.75917 1.39598 0
M  V30 4022 H 378.534 -3.28757 2.74986 0
M  V30 4023 H 382.718 -3.27337 3.73047 0
M  V30 4024 H 377.974 -3.30562 5.14333 0
M  V30 4025 H 382.148 -3.30338 6.13066 0
M  V30 4026 H 379.775 -3.315 6.84114 0
M  V30 4027 N 381.35 -0.985608 -1.22978 0
M  V30 4028 C 382.598 -0.656087 -1.91154 0
M  V30 4029 C 382.919 0.813561 -1.77218 0
M  V30 4030 O 382.189 1.58244 -1.1548 0
M  V30 4031 H 380.769 -0.239674 -0.707506 0
M  V30 4032 H 383.431 -1.25054 -1.49491 0
M  V30 4033 H 382.527 -0.912253 -2.9847 0
M  V30 4034 N 382.828 1.3818 -0.7579 0
M  V30 4035 C 383.758 2.33027 -0.148597 0
M  V30 4036 C 384.739 1.55085 0.69875 0
M  V30 4037 O 385.924 1.83384 0.639053 0
M  V30 4038 C 383.054 3.3928 0.742034 0
M  V30 4039 C 382.008 4.28 -0.00291946 0
M  V30 4040 C 381.334 5.25146 1.00625 0
M  V30 4041 C 382.634 5.08938 -1.17385 0
M  V30 4042 H 384.328 2.84231 -0.940909 0
M  V30 4043 H 381.874 1.36659 -0.453908 0
M  V30 4044 H 383.827 4.046 1.17799 0
M  V30 4045 H 382.551 2.86569 1.56671 0
M  V30 4046 H 381.21 3.64192 -0.419504 0
M  V30 4047 H 380.858 4.68721 1.8251 0
M  V30 4048 H 380.558 5.85361 0.512428 0
M  V30 4049 H 382.082 5.93342 1.44143 0
M  V30 4050 H 383.496 5.67474 -0.815224 0
M  V30 4051 H 381.893 5.7841 -1.59882 0
M  V30 4052 H 382.963 4.42424 -1.98468 0
M  V30 4053 N 384.306 0.507319 1.49211 0
M  V30 4054 C 385.554 -0.0348839 2.0207 0
M  V30 4055 C 385.875 -1.36898 1.38866 0
M  V30 4056 O 385.145 -1.88133 0.546151 0
M  V30 4057 H 383.725 -0.0158812 0.746831 0
M  V30 4058 H 386.387 0.665998 1.83168 0
M  V30 4059 H 385.483 -0.159917 3.1169 0
M  V30 4060 N 385.784 -1.5574 0.241426 0
M  V30 4061 C 387.031 -1.9881 -0.384836 0
M  V30 4062 C 387.359 -1.12947 -1.58346 0
M  V30 4063 O 386.614 -0.178993 -1.9488 0
M  V30 4064 C 386.913 -3.47308 -0.843317 0
M  V30 4065 C 386.579 -4.50223 0.246946 0
M  V30 4066 C 385.241 -4.78088 0.546399 0
M  V30 4067 C 387.593 -5.11841 0.983282 0
M  V30 4068 C 384.921 -5.64846 1.58636 0
M  V30 4069 C 387.273 -5.99727 2.01272 0
M  V30 4070 C 385.937 -6.25927 2.31888 0
M  V30 4071 H 385.207 -0.727496 -0.140821 0
M  V30 4072 H 387.854 -1.8831 0.348106 0
M  V30 4073 H 386.159 -3.55112 -1.65537 0
M  V30 4074 H 387.856 -3.78017 -1.33806 0
M  V30 4075 H 384.446 -4.286 0.00340639 0
M  V30 4076 H 388.63 -4.90366 0.765182 0
M  V30 4077 H 383.886 -5.83403 1.82896 0
M  V30 4078 H 388.06 -6.46517 2.58823 0
M  V30 4079 H 385.687 -6.92949 3.12611 0
M  V30 4080 N 387.262 0.0317525 -1.57568 0
M  V30 4081 C 388.172 1.05021 -2.0978 0
M  V30 4082 C 389.188 1.39809 -1.03583 0
M  V30 4083 O 390.364 1.49182 -1.35302 0
M  V30 4084 C 387.429 2.33301 -2.56459 0
M  V30 4085 C 386.49 2.0512 -3.77127 0
M  V30 4086 C 385.723 3.27283 -4.2157 0
M  V30 4087 O 385.946 4.37861 -3.65559 0
M  V30 4088 O 384.88 3.13141 -5.14029 0
M  V30 4089 H 388.706 0.636505 -2.96955 0
M  V30 4090 H 386.291 0.248559 -1.47318 0
M  V30 4091 H 388.173 3.08722 -2.86825 0
M  V30 4092 H 386.848 2.73973 -1.72397 0
M  V30 4093 H 385.755 1.27276 -3.51784 0
M  V30 4094 H 387.088 1.69305 -4.62165 0
M  V30 4095 N 388.74 1.54641 0.303973 0
M  V30 4096 C 389.703 1.84646 1.35789 0
M  V30 4097 C 390.703 0.7192 1.4382 0
M  V30 4098 O 391.893 0.987491 1.43507 0
M  V30 4099 C 389.025 2.02407 2.74307 0
M  V30 4100 H 390.218 2.78829 1.10429 0
M  V30 4101 H 387.771 1.46658 0.540487 0
M  V30 4102 H 388.506 1.10502 3.04893 0
M  V30 4103 H 388.291 2.84453 2.69868 0
M  V30 4104 H 389.781 2.27002 3.50514 0
M  V30 4105 N 390.218 -0.567019 1.47046 0
M  V30 4106 C 391.466 -1.322 1.52864 0
M  V30 4107 C 391.787 -1.94088 0.188388 0
M  V30 4108 O 391.057 -1.7941 -0.786693 0
M  V30 4109 H 389.637 -0.490894 0.563056 0
M  V30 4110 H 392.299 -0.662879 1.83281 0
M  V30 4111 H 391.395 -2.12062 2.2899 0
M  V30 4112 N 391.696 -1.35014 -0.812953 0
M  V30 4113 C 392.926 -1.30841 -1.59888 0
M  V30 4114 C 393.334 0.117576 -1.88834 0
M  V30 4115 O 392.677 1.07807 -1.48739 0
M  V30 4116 C 392.739 -2.0412 -2.95931 0
M  V30 4117 C 392.403 -3.53336 -2.89832 0
M  V30 4118 C 393.4 -4.48052 -2.63714 0
M  V30 4119 C 391.085 -3.95894 -3.0915 0
M  V30 4120 C 393.079 -5.833 -2.56982 0
M  V30 4121 C 390.766 -5.31239 -3.0204 0
M  V30 4122 C 391.764 -6.24754 -2.75991 0
M  V30 4123 O 391.452 -7.57617 -2.68833 0
M  V30 4124 H 391.184 -0.451215 -0.50337 0
M  V30 4125 H 393.738 -1.78354 -1.01877 0
M  V30 4126 H 391.968 -1.51235 -3.559 0
M  V30 4127 H 393.657 -1.93107 -3.57022 0
M  V30 4128 H 394.423 -4.16492 -2.48515 0
M  V30 4129 H 390.302 -3.23495 -3.28438 0
M  V30 4130 H 393.846 -6.56263 -2.36569 0
M  V30 4131 H 389.743 -5.62415 -3.16796 0
M  V30 4132 H 390.511 -7.67469 -2.84487 0
M  V30 4133 N 393.175 1.03435 -1.18907 0
M  V30 4134 C 394.591 1.28973 -0.940111 0
M  V30 4135 C 394.791 1.97676 0.390691 0
M  V30 4136 O 393.847 2.26127 1.12352 0
M  V30 4137 C 395.16 2.14221 -2.11021 0
M  V30 4138 C 396.708 2.27547 -2.14922 0
M  V30 4139 C 397.183 3.16164 -3.31367 0
M  V30 4140 N 398.674 3.23752 -3.31269 0
M  V30 4141 C 399.409 3.92495 -4.18014 0
M  V30 4142 N 398.905 4.63515 -5.14904 0
M  V30 4143 N 400.698 3.88838 -4.05908 0
M  V30 4144 H 392.849 0.57252 -2.04538 0
M  V30 4145 H 395.112 0.315184 -0.894071 0
M  V30 4146 H 394.818 1.71054 -3.073 0
M  V30 4147 H 394.692 3.14919 -2.0762 0
M  V30 4148 H 397.079 2.69947 -1.19217 0
M  V30 4149 H 397.16 1.26418 -2.22378 0
M  V30 4150 H 396.804 2.74474 -4.27348 0
M  V30 4151 H 396.734 4.17339 -3.21148 0
M  V30 4152 H 399.225 2.73167 -2.61129 0
M  V30 4153 H 399.538 5.13583 -5.77453 0
M  V30 4154 H 397.883 4.62398 -5.18857 0
M  V30 4155 H 401.074 3.32491 -3.29495 0
M  V30 4156 H 401.247 4.4214 -4.73726 0
M  V30 4157 N 394.653 0.992116 1.22453 0
M  V30 4158 C 395.6 0.541731 2.24352 0
M  V30 4159 C 396.57 -0.425519 1.60557 0
M  V30 4160 O 397.755 -0.330453 1.87917 0
M  V30 4161 C 394.895 -0.138248 3.44823 0
M  V30 4162 C 394.008 0.870649 4.23136 0
M  V30 4163 C 393.143 0.164269 5.30946 0
M  V30 4164 C 392.182 1.16159 6.00977 0
M  V30 4165 N 391.319 0.483568 7.00433 0
M  V30 4166 H 396.159 1.41541 2.62241 0
M  V30 4167 H 393.696 0.709013 1.28885 0
M  V30 4168 H 395.654 -0.5494 4.13567 0
M  V30 4169 H 394.284 -0.975721 3.077 0
M  V30 4170 H 393.336 1.40013 3.53696 0
M  V30 4171 H 394.648 1.63014 4.7141 0
M  V30 4172 H 393.802 -0.303653 6.0594 0
M  V30 4173 H 392.541 -0.627733 4.83643 0
M  V30 4174 H 391.546 1.64015 5.24766 0
M  V30 4175 H 392.771 1.95445 6.50368 0
M  V30 4176 H 390.717 -0.289012 6.55363 0
M  V30 4177 H 390.634 1.18152 7.4671 0
M  V30 4178 H 391.902 0.0384219 7.79491 0
M  V30 4179 N 396.131 -1.37776 0.765217 0
M  V30 4180 C 397.379 -1.99454 0.325943 0
M  V30 4181 C 397.7 -1.61049 -1.09947 0
M  V30 4182 O 396.97 -0.872821 -1.75381 0
M  V30 4183 H 395.55 -0.737697 0.117525 0
M  V30 4184 H 398.212 -1.68359 0.981895 0
M  V30 4185 H 397.308 -3.09547 0.398353 0
M  V30 4186 N 397.609 -0.515225 -1.4894 0
M  V30 4187 C 398.834 0.022727 -2.07388 0
M  V30 4188 C 399.259 1.2876 -1.37122 0
M  V30 4189 O 398.617 1.76067 -0.432431 0
M  V30 4190 C 398.665 0.244869 -3.59768 0
M  V30 4191 O 397.769 1.31667 -3.90817 0
M  V30 4192 H 397.11 -0.0325506 -0.663202 0
M  V30 4193 H 399.64 -0.718918 -1.91553 0
M  V30 4194 H 399.65 0.47205 -4.0526 0
M  V30 4195 H 398.325 -0.679194 -4.10317 0
M  V30 4196 H 396.902 1.07331 -3.5712 0
M  V30 4197 N 399.087 1.5561 -0.249682 0
M  V30 4198 C 400.019 2.18834 0.681496 0
M  V30 4199 C 401.032 1.16546 1.1367 0
M  V30 4200 O 402.221 1.43397 1.06299 0
M  V30 4201 C 399.321 2.77992 1.9384 0
M  V30 4202 C 398.494 4.05725 1.63419 0
M  V30 4203 C 397.553 4.49174 2.74096 0
M  V30 4204 O 396.579 5.15492 2.41364 0
M  V30 4205 N 397.781 4.17191 4.03649 0
M  V30 4206 H 400.546 2.9937 0.140514 0
M  V30 4207 H 398.107 1.6175 -0.0697541 0
M  V30 4208 H 400.099 3.04015 2.67127 0
M  V30 4209 H 398.669 2.01596 2.38909 0
M  V30 4210 H 397.889 3.87261 0.736358 0
M  V30 4211 H 399.177 4.88999 1.40562 0
M  V30 4212 H 398.575 3.63955 4.33074 0
M  V30 4213 H 397.132 4.48043 4.73393 0
M  V30 4214 N 400.565 -0.0233959 1.57583 0
M  V30 4215 C 401.811 -0.714119 1.89811 0
M  V30 4216 C 402.144 -1.74702 0.848113 0
M  V30 4217 O 401.419 -1.94023 -0.136135 0
M  V30 4218 C 401.702 -1.37853 3.32669 0
M  V30 4219 C 401.555 -0.358764 4.48367 0
M  V30 4220 C 402.874 -2.31101 3.7454 0
M  V30 4221 H 399.993 -0.25814 0.690314 0
M  V30 4222 H 402.635 0.0230927 1.89986 0
M  V30 4223 H 400.785 -2.00689 3.3265 0
M  V30 4224 H 402.457 0.268115 4.6052 0
M  V30 4225 H 400.7 0.321387 4.32608 0
M  V30 4226 H 401.371 -0.862242 5.45224 0
M  V30 4227 H 403.847 -1.78304 3.75961 0
M  V30 4228 H 402.723 -2.74567 4.75294 0
M  V30 4229 H 402.984 -3.18018 3.0711 0
M  V30 4230 N 402.043 -1.548 -0.295768 0
M  V30 4231 C 402.976 -1.81003 -1.38972 0
M  V30 4232 C 403.954 -0.661544 -1.48534 0
M  V30 4233 O 405.138 -0.902074 -1.65514 0
M  V30 4234 C 402.265 -1.95141 -2.76835 0
M  V30 4235 C 401.311 -3.17592 -2.84671 0
M  V30 4236 S 402.144 -4.75531 -2.46232 0
M  V30 4237 C 403.3 -4.92613 -3.86114 0
M  V30 4238 H 403.533 -2.73507 -1.16537 0
M  V30 4239 H 401.066 -1.46278 -0.494168 0
M  V30 4240 H 403.024 -2.03972 -3.56238 0
M  V30 4241 H 401.685 -1.03565 -2.96535 0
M  V30 4242 H 400.878 -3.24303 -3.85803 0
M  V30 4243 H 400.48 -3.07235 -2.13267 0
M  V30 4244 H 402.772 -4.76957 -4.81164 0
M  V30 4245 H 403.715 -5.94698 -3.8437 0
M  V30 4246 H 404.123 -4.2073 -3.76359 0
M  V30 4247 N 403.521 0.559213 -1.47345 0
M  V30 4248 C 404.798 1.31997 -1.44348 0
M  V30 4249 C 405.178 2.1064 -0.139358 0
M  V30 4250 O 404.526 2.1091 0.879153 0
M  V30 4251 C 404.736 2.22618 -2.68779 0
M  V30 4252 C 406.084 2.83701 -3.1591 0
M  V30 4253 O 407.108 2.32921 -2.69493 0
M  V30 4254 O 405.967 3.75993 -3.966 0
M  V30 4255 H 403.061 0.594251 -0.575147 0
M  V30 4256 H 405.607 0.578282 -1.59543 0
M  V30 4257 H 404.379 1.64093 -3.55231 0
M  V30 4258 H 404.002 3.04085 -2.5616 0
M  V30 4259 N 404.999 1.35443 0.805782 0
M  V30 4260 C 405.909 1.30546 1.94923 0
M  V30 4261 C 406.925 0.210233 1.72725 0
M  V30 4262 O 408.101 0.43975 1.9654 0
M  V30 4263 C 405.166 1.07782 3.29521 0
M  V30 4264 C 404.227 2.26625 3.64609 0
M  V30 4265 C 403.46 2.04938 4.92784 0
M  V30 4266 O 403.683 1.01624 5.61274 0
M  V30 4267 O 402.617 2.9232 5.26149 0
M  V30 4268 H 406.443 2.26779 2.02002 0
M  V30 4269 H 404.028 1.15823 0.943682 0
M  V30 4270 H 405.91 0.969392 4.10098 0
M  V30 4271 H 404.585 0.146003 3.23371 0
M  V30 4272 H 403.492 2.43033 2.84404 0
M  V30 4273 H 404.825 3.18257 3.75464 0
M  V30 4274 N 406.477 -1.02803 1.19454 0
M  V30 4275 C 407.726 -1.7562 0.991996 0
M  V30 4276 C 408.039 -1.89672 -0.477901 0
M  V30 4277 O 409.245 -2.59468 -0.799287 0
M  V30 4278 C 407.701 -3.15812 1.72601 0
M  V30 4279 C 407.309 -3.0981 3.23607 0
M  V30 4280 C 409.053 -3.92918 1.60674 0
M  V30 4281 C 406.96 -4.44939 3.89594 0
M  V30 4282 H 405.89 -0.658352 0.367543 0
M  V30 4283 H 408.541 -1.15044 1.42959 0
M  V30 4284 H 406.923 -3.7686 1.21624 0
M  V30 4285 H 408.097 -2.58138 3.81709 0
M  V30 4286 H 406.412 -2.46201 3.35819 0
M  V30 4287 H 409.009 -4.9287 2.07323 0
M  V30 4288 H 409.352 -4.12502 0.561025 0
M  V30 4289 H 409.885 -3.38472 2.09001 0
M  V30 4290 H 406.624 -4.30559 4.94267 0
M  V30 4291 H 406.144 -4.96664 3.36281 0
M  V30 4292 H 407.823 -5.1382 3.93189 0
M  V30 4293 N 407.956 -0.998596 -1.21925 0
M  V30 4294 C 408.886 -0.573688 -2.26343 0
M  V30 4295 C 409.867 0.402296 -1.65274 0
M  V30 4296 O 411.052 0.291683 -1.91997 0
M  V30 4297 C 408.182 0.106839 -3.47136 0
M  V30 4298 C 407.136 -0.788269 -4.20678 0
M  V30 4299 C 406.462 0.0254927 -5.34694 0
M  V30 4300 C 407.762 -2.08784 -4.78755 0
M  V30 4301 H 409.456 -1.44651 -2.62138 0
M  V30 4302 H 407.002 -0.696975 -1.26009 0
M  V30 4303 H 408.955 0.415531 -4.19346 0
M  V30 4304 H 407.679 1.01424 -3.10452 0
M  V30 4305 H 406.338 -1.08069 -3.50309 0
M  V30 4306 H 405.986 0.933989 -4.94253 0
M  V30 4307 H 405.686 -0.570437 -5.84825 0
M  V30 4308 H 407.21 0.328147 -6.09718 0
M  V30 4309 H 408.624 -1.84272 -5.42878 0
M  V30 4310 H 407.021 -2.63307 -5.39249 0
M  V30 4311 H 408.091 -2.76284 -3.98491 0
M  V30 4312 N 409.434 1.37368 -0.772513 0
M  V30 4313 C 410.68 2.00423 -0.3467 0
M  V30 4314 C 411.035 1.60224 1.06518 0
M  V30 4315 O 410.328 0.838712 1.72268 0
M  V30 4316 C 410.522 3.54817 -0.428876 0
M  V30 4317 C 410.351 4.10011 -1.84719 0
M  V30 4318 C 409.121 4.40927 -2.46803 0
M  V30 4319 C 411.319 4.30955 -2.80681 0
M  V30 4320 N 409.301 4.8184 -3.80399 0
M  V30 4321 C 410.672 4.74486 -3.99078 0
M  V30 4322 C 412.727 4.1309 -2.77958 0
M  V30 4323 C 411.43 5.02023 -5.15136 0
M  V30 4324 C 413.456 4.41764 -3.9319 0
M  V30 4325 C 412.818 4.85535 -5.10328 0
M  V30 4326 H 408.917 0.762413 -0.173927 0
M  V30 4327 H 411.501 1.66666 -1.00651 0
M  V30 4328 H 409.672 3.87881 0.200757 0
M  V30 4329 H 411.404 4.04696 0.0190668 0
M  V30 4330 H 408.159 4.30033 -1.98415 0
M  V30 4331 H 408.583 5.06604 -4.49089 0
M  V30 4332 H 413.225 3.7842 -1.88568 0
M  V30 4333 H 410.943 5.35582 -6.05126 0
M  V30 4334 H 414.529 4.29528 -3.92425 0
M  V30 4335 H 413.409 5.07296 -5.98013 0
M  V30 4336 N 410.912 0.523116 1.48665 0
M  V30 4337 C 412.137 -0.0117284 2.07397 0
M  V30 4338 C 412.562 -1.28031 1.37803 0
M  V30 4339 O 411.92 -1.75836 0.441762 0
M  V30 4340 C 411.968 -0.225786 3.59892 0
M  V30 4341 O 411.072 -1.29592 3.91509 0
M  V30 4342 H 410.413 0.0360673 0.66302 0
M  V30 4343 H 412.943 0.729066 1.9117 0
M  V30 4344 H 412.953 -0.450552 4.05505 0
M  V30 4345 H 411.628 0.700944 4.09951 0
M  V30 4346 H 410.205 -1.05436 3.57684 0
M  V30 4347 N 412.39 -1.55475 0.257931 0
M  V30 4348 C 413.337 -2.21837 -0.636939 0
M  V30 4349 C 414.307 -1.18596 -1.16294 0
M  V30 4350 O 415.492 -1.47081 -1.21539 0
M  V30 4351 C 412.632 -2.9301 -1.82317 0
M  V30 4352 C 411.745 -4.10931 -1.33265 0
M  V30 4353 C 410.88 -4.69791 -2.47931 0
M  V30 4354 C 409.919 -5.7994 -1.95796 0
M  V30 4355 N 409.056 -6.32935 -3.0387 0
M  V30 4356 H 413.896 -2.9793 -0.0643591 0
M  V30 4357 H 411.433 -1.47086 -0.0200031 0
M  V30 4358 H 413.391 -3.3248 -2.52018 0
M  V30 4359 H 412.021 -2.1937 -2.36805 0
M  V30 4360 H 411.073 -3.76699 -0.52931 0
M  V30 4361 H 412.385 -4.90417 -0.910654 0
M  V30 4362 H 411.539 -5.11892 -3.25656 0
M  V30 4363 H 410.278 -3.89545 -2.93438 0
M  V30 4364 H 409.283 -5.37305 -1.16546 0
M  V30 4365 H 410.508 -6.62043 -1.51246 0
M  V30 4366 H 408.454 -5.55591 -3.48791 0
M  V30 4367 H 408.371 -7.07645 -2.66035 0
M  V30 4368 H 409.639 -6.79695 -3.81621 0
M  V30 4369 N 413.868 0.0150385 -1.57593 0
M  V30 4370 C 414.778 1.02791 -2.10882 0
M  V30 4371 C 415.794 1.38702 -1.0506 0
M  V30 4372 O 416.97 1.47739 -1.36877 0
M  V30 4373 C 414.035 2.30568 -2.58919 0
M  V30 4374 C 413.096 2.01108 -3.79281 0
M  V30 4375 C 412.329 3.22794 -4.25018 0
M  V30 4376 O 412.552 4.33959 -3.70183 0
M  V30 4377 O 411.486 3.07672 -5.17322 0
M  V30 4378 H 415.312 0.604973 -2.97613 0
M  V30 4379 H 412.897 0.23292 -1.47573 0
M  V30 4380 H 414.779 3.05662 -2.90084 0
M  V30 4381 H 413.454 2.72129 -1.75293 0
M  V30 4382 H 412.361 1.23537 -3.53114 0
M  V30 4383 H 413.694 1.64394 -4.63935 0
M  V30 4384 N 415.346 1.54954 0.287554 0
M  V30 4385 C 416.623 1.65569 1.04146 0
M  V30 4386 C 417.003 0.512672 2.0478 0
M  V30 4387 O 416.351 -0.489038 2.23205 0
M  V30 4388 C 416.561 3.04163 1.71131 0
M  V30 4389 C 417.909 3.61429 2.22832 0
M  V30 4390 O 418.933 3.06702 1.81141 0
M  V30 4391 O 417.792 4.57281 2.9926 0
M  V30 4392 H 414.886 0.671881 0.482188 0
M  V30 4393 H 417.432 1.67297 0.28457 0
M  V30 4394 H 416.204 3.78796 0.981303 0
M  V30 4395 H 415.827 3.06271 2.53543 0
M  V30 4396 N 416.824 -0.551391 1.4764 0
M  V30 4397 C 418.072 -1.30572 1.54258 0
M  V30 4398 C 418.393 -1.93877 0.208963 0
M  V30 4399 O 417.663 -1.80234 -0.767619 0
M  V30 4400 H 416.243 -0.484894 0.568231 0
M  V30 4401 H 418.905 -0.643402 1.83974 0
M  V30 4402 H 418.001 -2.09621 2.31226 0
M  V30 4403 N 418.302 -1.35869 -0.798587 0
M  V30 4404 C 419.532 -1.32529 -1.58491 0
M  V30 4405 C 419.94 0.0975405 -1.88948 0
M  V30 4406 O 419.283 1.06224 -1.49874 0
M  V30 4407 C 419.345 -2.07247 -2.9375 0
M  V30 4408 C 419.009 -3.56391 -2.86068 0
M  V30 4409 C 420.006 -4.50824 -2.58947 0
M  V30 4410 C 417.691 -3.9915 -3.04933 0
M  V30 4411 C 419.685 -5.85993 -2.5078 0
M  V30 4412 C 417.372 -5.34413 -2.96389 0
M  V30 4413 C 418.37 -6.27646 -2.69349 0
M  V30 4414 O 418.058 -7.60426 -2.60782 0
M  V30 4415 H 417.79 -0.456529 -0.498556 0
M  V30 4416 H 420.344 -1.79425 -0.999799 0
M  V30 4417 H 418.574 -1.55001 -3.54276 0
M  V30 4418 H 420.263 -1.96883 -3.54954 0
M  V30 4419 H 421.029 -4.19104 -2.44084 0
M  V30 4420 H 416.908 -3.26961 -3.24989 0
M  V30 4421 H 420.452 -6.58735 -2.29595 0
M  V30 4422 H 416.349 -5.65743 -3.10813 0
M  V30 4423 H 417.117 -7.70444 -2.76331 0
M  V30 4424 N 419.78 1.02168 -1.19998 0
M  V30 4425 C 421.008 1.79296 -1.03249 0
M  V30 4426 C 421.423 1.84103 0.418502 0
M  V30 4427 O 420.78 1.29031 1.29063 0
M  V30 4428 C 420.831 3.24007 -1.60319 0
M  V30 4429 O 420.552 3.19512 -2.99739 0
M  V30 4430 C 422.053 4.17704 -1.48453 0
M  V30 4431 H 419.273 0.564016 -0.363493 0
M  V30 4432 H 421.817 1.28639 -1.58973 0
M  V30 4433 H 419.972 3.7183 -1.08727 0
M  V30 4434 H 420.386 4.10306 -3.26725 0
M  V30 4435 H 421.86 5.17104 -1.93153 0
M  V30 4436 H 422.337 4.37029 -0.436193 0
M  V30 4437 H 422.943 3.7576 -1.99211 0
M  V30 4438 N 421.258 1.00505 1.21394 0
M  V30 4439 C 422.674 0.717873 1.42544 0
M  V30 4440 C 422.874 -0.706936 1.88692 0
M  V30 4441 O 421.93 -1.47627 2.04847 0
M  V30 4442 C 423.243 1.73377 2.45684 0
M  V30 4443 C 424.791 1.75059 2.59467 0
M  V30 4444 C 425.266 2.75545 3.6584 0
M  V30 4445 N 426.757 2.74213 3.73311 0
M  V30 4446 C 427.492 3.48626 4.55245 0
M  V30 4447 N 426.988 4.32678 5.41075 0
M  V30 4448 N 428.781 3.37276 4.49668 0
M  V30 4449 H 420.932 1.92506 0.897503 0
M  V30 4450 H 423.195 0.830919 0.456375 0
M  V30 4451 H 422.901 2.75395 2.18748 0
M  V30 4452 H 422.775 1.53647 3.44489 0
M  V30 4453 H 425.162 0.737337 2.8574 0
M  V30 4454 H 425.243 1.98861 1.60897 0
M  V30 4455 H 424.887 3.77028 3.40313 0
M  V30 4456 H 424.817 2.49009 4.64007 0
M  V30 4457 H 427.308 2.13234 3.11993 0
M  V30 4458 H 427.621 4.86253 6.00648 0
M  V30 4459 H 425.966 4.3676 5.40616 0
M  V30 4460 H 429.157 2.71043 3.81646 0
M  V30 4461 H 429.33 3.95524 5.13288 0
M  V30 4462 N 422.737 -1.36956 0.779787 0
M  V30 4463 C 424.153 -1.52817 0.460342 0
M  V30 4464 C 424.353 -1.7361 -1.02283 0
M  V30 4465 O 423.409 -1.76207 -1.80852 0
M  V30 4466 C 424.722 -2.71983 1.28241 0
M  V30 4467 C 426.27 -2.85849 1.27512 0
M  V30 4468 C 426.745 -4.08008 2.08072 0
M  V30 4469 N 428.236 -4.15135 2.05467 0
M  V30 4470 C 428.971 -5.08711 2.64577 0
M  V30 4471 N 428.467 -6.07792 3.32506 0
M  V30 4472 N 430.26 -5.01254 2.54363 0
M  V30 4473 H 422.411 -1.21713 1.74068 0
M  V30 4474 H 424.674 -0.593294 0.739396 0
M  V30 4475 H 424.38 -2.63109 2.33381 0
M  V30 4476 H 424.254 -3.65882 0.917088 0
M  V30 4477 H 426.641 -2.94189 0.231686 0
M  V30 4478 H 426.722 -1.92886 1.68014 0
M  V30 4479 H 426.366 -4.00429 3.12441 0
M  V30 4480 H 426.296 -5.001 1.64947 0
M  V30 4481 H 428.787 -3.44189 1.5602 0
M  V30 4482 H 429.1 -6.75739 3.74963 0
M  V30 4483 H 427.445 -6.08047 3.36606 0
M  V30 4484 H 430.636 -4.22795 2.00902 0
M  V30 4485 H 430.809 -5.73995 3.00722 0
M  V30 4486 N 424.215 -0.530993 -1.48385 0
M  V30 4487 C 425.443 -0.00134122 -2.069 0
M  V30 4488 C 425.858 1.2805 -1.3874 0
M  V30 4489 O 425.215 1.76204 -0.475244 0
M  V30 4490 C 425.266 0.225256 -3.60798 0
M  V30 4491 O 424.987 -1.0058 -4.26398 0
M  V30 4492 C 426.488 0.795172 -4.3611 0
M  V30 4493 H 423.708 -0.0339704 -0.67014 0
M  V30 4494 H 426.252 -0.736926 -1.90761 0
M  V30 4495 H 424.407 0.910891 -3.76539 0
M  V30 4496 H 424.821 -0.787165 -5.1856 0
M  V30 4497 H 426.295 0.903143 -5.44562 0
M  V30 4498 H 426.772 1.80031 -4.00606 0
M  V30 4499 H 427.378 0.146069 -4.25049 0
M  V30 4500 N 425.693 1.55336 -0.266172 0
M  V30 4501 C 426.641 2.23587 0.641228 0
M  V30 4502 C 427.635 1.22986 1.16494 0
M  V30 4503 O 428.841 1.40943 1.1196 0
M  V30 4504 H 425.216 0.717452 0.225315 0
M  V30 4505 H 427.187 2.9837 0.0426561 0
M  V30 4506 C 425.936 2.96369 1.81826 0
M  V30 4507 H 425.259 3.73563 1.42445 0
M  V30 4508 H 426.699 3.47459 2.42998 0
M  V30 4509 C 425.158 2.0133 2.70125 0
M  V30 4510 O 425.688 1.55875 3.70224 0
M  V30 4511 N 423.894 1.6802 2.37102 0
M  V30 4512 H 423.441 2.05181 1.55751 0
M  V30 4513 H 423.399 1.047 2.96454 0
M  V30 4514 N 427.171 -0.0066808 1.57599 0
M  V30 4515 C 428.119 -1.01851 2.09115 0
M  V30 4516 C 429.113 -1.36021 1.00969 0
M  V30 4517 O 430.319 -1.34663 1.19439 0
M  V30 4518 H 426.694 -0.346083 0.667631 0
M  V30 4519 H 428.665 -0.558394 2.93129 0
M  V30 4520 C 427.414 -2.30374 2.60429 0
M  V30 4521 H 426.737 -2.04947 3.43273 0
M  V30 4522 H 428.177 -2.99466 3.00161 0
M  V30 4523 C 426.636 -3.00893 1.51542 0
M  V30 4524 O 427.166 -3.91614 0.894484 0
M  V30 4525 N 425.372 -2.62603 1.2445 0
M  V30 4526 H 424.919 -1.88911 1.75129 0
M  V30 4527 H 424.877 -3.10101 0.518137 0
M  V30 4528 N 428.649 -1.55105 -0.279332 0
M  V30 4529 C 429.579 -1.90557 -1.34945 0
M  V30 4530 C 430.56 -0.766738 -1.51839 0
M  V30 4531 O 431.745 -1.02434 -1.64988 0
M  V30 4532 C 428.875 -2.17193 -2.71006 0
M  V30 4533 C 427.829 -3.33021 -2.68851 0
M  V30 4534 C 427.155 -3.45123 -4.08405 0
M  V30 4535 C 428.455 -4.69578 -2.28678 0
M  V30 4536 H 430.149 -2.80188 -1.05522 0
M  V30 4537 H 427.695 -1.34811 -0.506173 0
M  V30 4538 H 429.648 -2.40581 -3.45975 0
M  V30 4539 H 428.372 -1.24355 -3.01999 0
M  V30 4540 H 427.031 -3.0959 -1.9634 0
M  V30 4541 H 426.679 -2.49762 -4.3661 0
M  V30 4542 H 426.379 -4.22995 -4.07859 0
M  V30 4543 H 427.903 -3.70796 -4.85121 0
M  V30 4544 H 429.317 -4.92553 -2.93368 0
M  V30 4545 H 427.714 -5.5032 -2.39306 0
M  V30 4546 H 428.784 -4.68828 -1.23807 0
M  V30 4547 N 430.127 0.543554 -1.4793 0
M  V30 4548 C 431.375 1.29752 -1.54948 0
M  V30 4549 C 431.696 1.93764 -0.219242 0
M  V30 4550 O 430.966 1.80639 0.75805 0
M  V30 4551 H 429.546 0.481874 -0.570795 0
M  V30 4552 H 432.208 0.633636 -1.84312 0
M  V30 4553 H 431.304 2.08392 -2.32334 0
M  V30 4554 N 431.605 1.3629 0.791371 0
M  V30 4555 C 432.853 1.30154 1.5461 0
M  V30 4556 C 433.174 -0.119409 1.94634 0
M  V30 4557 O 432.444 -1.05924 1.64794 0
M  V30 4558 H 431.024 0.478784 0.573389 0
M  V30 4559 H 433.686 1.70565 0.94306 0
M  V30 4560 H 432.782 1.92762 2.45457 0
M  V30 4561 N 433.083 -1.0153 1.20538 0
M  V30 4562 C 434.33 -1.75149 1.01633 0
M  V30 4563 C 434.658 -1.89189 -0.451399 0
M  V30 4564 O 433.913 -1.41551 -1.35136 0
M  V30 4565 C 434.212 -3.17213 1.64654 0
M  V30 4566 C 433.878 -3.23146 3.14464 0
M  V30 4567 C 432.54 -3.24472 3.55347 0
M  V30 4568 C 434.892 -3.21207 4.10458 0
M  V30 4569 C 432.22 -3.21532 4.90748 0
M  V30 4570 C 434.572 -3.19808 5.45807 0
M  V30 4571 C 433.236 -3.19439 5.86102 0
M  V30 4572 H 432.506 -0.640914 0.3719 0
M  V30 4573 H 435.153 -1.19071 1.49981 0
M  V30 4574 H 433.458 -3.76457 1.08571 0
M  V30 4575 H 435.155 -3.72871 1.4754 0
M  V30 4576 H 431.745 -3.2285 2.81897 0
M  V30 4577 H 435.929 -3.19351 3.79906 0
M  V30 4578 H 431.185 -3.19578 5.21229 0
M  V30 4579 H 435.359 -3.1726 6.19935 0
M  V30 4580 H 432.986 -3.16915 6.90991 0
M  V30 4581 N 434.561 -1.01147 -1.20859 0
M  V30 4582 C 435.471 -0.58686 -2.27141 0
M  V30 4583 C 436.487 0.373198 -1.69951 0
M  V30 4584 O 437.663 0.235423 -2.00019 0
M  V30 4585 C 434.728 0.0733602 -3.46622 0
M  V30 4586 C 433.789 -0.931995 -4.19061 0
M  V30 4587 C 433.022 -0.303186 -5.32838 0
M  V30 4588 O 433.245 0.898395 -5.63281 0
M  V30 4589 O 432.179 -1.01735 -5.9324 0
M  V30 4590 H 436.005 -1.47155 -2.65667 0
M  V30 4591 H 433.59 -0.780689 -1.2738 0
M  V30 4592 H 435.472 0.442333 -4.19072 0
M  V30 4593 H 434.147 0.932329 -3.09983 0
M  V30 4594 H 433.054 -1.35224 -3.48805 0
M  V30 4595 H 434.387 -1.76076 -4.59628 0
M  V30 4596 N 436.039 1.36541 -0.78704 0
M  V30 4597 C 437.287 1.98911 -0.357633 0
M  V30 4598 C 437.608 1.62778 1.07371 0
M  V30 4599 O 436.878 0.900612 1.73971 0
M  V30 4600 H 435.458 0.735734 -0.129246 0
M  V30 4601 H 438.12 1.66776 -1.00855 0
M  V30 4602 H 437.216 3.08874 -0.447549 0
M  V30 4603 N 437.518 0.538854 1.48102 0
M  V30 4604 C 438.766 0.00798599 2.02098 0
M  V30 4605 C 439.087 -1.33922 1.41739 0
M  V30 4606 O 438.357 -1.86932 0.585934 0
M  V30 4607 H 436.937 -3.62179e-05 0.747 0
M  V30 4608 H 439.599 0.7047 1.81714 0
M  V30 4609 H 438.695 -0.0937672 3.11959 0
M  V30 4610 N 438.996 -1.55193 0.274407 0
M  V30 4611 C 439.929 -2.18606 -0.654712 0
M  V30 4612 C 440.907 -1.14677 -1.15273 0
M  V30 4613 O 442.091 -1.43198 -1.22583 0
M  V30 4614 C 439.218 -2.80875 -1.89281 0
M  V30 4615 C 438.264 -3.981 -1.53032 0
M  V30 4616 S 439.097 -5.32025 -0.609107 0
M  V30 4617 C 440.253 -5.97761 -1.85559 0
M  V30 4618 H 440.486 -2.97074 -0.115894 0
M  V30 4619 H 438.019 -1.54288 0.05867 0
M  V30 4620 H 439.977 -3.17381 -2.60345 0
M  V30 4621 H 438.638 -2.02302 -2.40277 0
M  V30 4622 H 437.831 -4.40356 -2.45158 0
M  V30 4623 H 437.433 -3.63013 -0.899874 0
M  V30 4624 H 439.725 -6.16951 -2.7996 0
M  V30 4625 H 440.668 -6.92545 -1.47605 0
M  V30 4626 H 441.076 -5.27113 -2.02021 0
M  V30 4627 N 440.474 -0.00167713 -1.576 0
M  V30 4628 C 441.702 0.693759 -1.94922 0
M  V30 4629 C 442.117 1.67215 -0.876626 0
M  V30 4630 O 441.474 1.81929 0.144279 0
M  V30 4631 C 441.525 1.42416 -3.32265 0
M  V30 4632 O 441.246 0.485014 -4.35407 0
M  V30 4633 C 442.747 2.21395 -3.84056 0
M  V30 4634 H 439.967 0.193118 -0.642609 0
M  V30 4635 H 442.511 -0.0532952 -2.04431 0
M  V30 4636 H 440.666 2.12284 -3.24059 0
M  V30 4637 H 441.08 1.00053 -5.14868 0
M  V30 4638 H 442.554 2.67996 -4.82578 0
M  V30 4639 H 443.031 3.04142 -3.16851 0
M  V30 4640 H 443.637 1.56542 -3.95443 0
M  V30 4641 N 441.952 1.55251 0.271103 0
M  V30 4642 C 442.9 1.89054 1.35504 0
M  V30 4643 C 443.894 0.767064 1.51038 0
M  V30 4644 O 445.1 0.951429 1.528 0
M  V30 4645 H 441.475 0.600072 0.45323 0
M  V30 4646 H 443.446 2.79598 1.04247 0
M  V30 4647 C 442.195 2.18068 2.70817 0
M  V30 4648 H 441.518 3.04005 2.59656 0
M  V30 4649 H 442.958 2.4564 3.45597 0
M  V30 4650 C 441.417 0.988901 3.2206 0
M  V30 4651 O 441.947 0.224501 4.01072 0
M  V30 4652 N 440.153 0.786085 2.79766 0
M  V30 4653 H 439.7 1.40937 2.15626 0
M  V30 4654 H 439.658 -0.00969349 3.14399 0
M  V30 4655 N 443.43 -0.535701 1.48216 0
M  V30 4656 C 444.678 -1.28928 1.55634 0
M  V30 4657 C 444.999 -1.93645 0.229514 0
M  V30 4658 O 444.269 -1.81038 -0.74846 0
M  V30 4659 H 442.849 -0.47884 0.573342 0
M  V30 4660 H 445.511 -0.623853 1.84646 0
M  V30 4661 H 444.607 -2.07157 2.33436 0
M  V30 4662 N 444.908 -1.36708 -0.784132 0
M  V30 4663 C 445.84 -1.27333 -1.90575 0
M  V30 4664 C 446.853 -0.191706 -1.61667 0
M  V30 4665 O 448.042 -0.446854 -1.72816 0
M  V30 4666 C 445.142 -0.943177 -3.25511 0
M  V30 4667 C 444.315 -2.12776 -3.82158 0
M  V30 4668 C 443.374 -1.76983 -4.95544 0
M  V30 4669 O 442.4 -2.49134 -5.11782 0
M  V30 4670 N 443.602 -0.706624 -5.76183 0
M  V30 4671 H 446.367 -2.23974 -1.99138 0
M  V30 4672 H 443.928 -1.30171 -0.962656 0
M  V30 4673 H 445.92 -0.684799 -3.98864 0
M  V30 4674 H 444.49 -0.0657333 -3.12531 0
M  V30 4675 H 443.71 -2.54863 -3.0073 0
M  V30 4676 H 444.998 -2.91904 -4.16737 0
M  V30 4677 H 444.396 -0.107643 -5.65598 0
M  V30 4678 H 442.953 -0.50808 -6.49817 0
M  V30 4679 N 446.386 1.0089 -1.21074 0
M  V30 4680 C 447.797 1.56056 -1.02486 0
M  V30 4681 C 448.148 1.91728 0.416506 0
M  V30 4682 O 447.273 1.73066 1.29912 0
M  V30 4683 C 447.868 2.83563 -1.85411 0
M  V30 4684 C 446.427 3.3523 -1.71166 0
M  V30 4685 C 445.574 2.0846 -1.82865 0
M  V30 4686 H 448.525 0.831818 -1.35154 0
M  V30 4687 H 448.546 3.55286 -1.36205 0
M  V30 4688 H 448.058 2.57569 -2.9031 0
M  V30 4689 H 446.159 3.66167 -0.689361 0
M  V30 4690 H 446.272 4.06913 -2.52901 0
M  V30 4691 H 444.636 2.21275 -1.26132 0
M  V30 4692 H 445.419 1.84883 -2.89263 0
M  V30 4693 N 447.864 1.01787 1.20321 0
M  V30 4694 C 449.113 0.703249 1.89043 0
M  V30 4695 C 449.426 -0.770445 1.79787 0
M  V30 4696 O 450.632 -1.19767 2.43656 0
M  V30 4697 C 449.088 1.20749 3.3904 0
M  V30 4698 C 448.696 2.70817 3.56878 0
M  V30 4699 C 450.44 0.968352 4.13308 0
M  V30 4700 C 448.347 3.14716 5.00708 0
M  V30 4701 H 447.277 0.259354 0.707991 0
M  V30 4702 H 449.928 1.23072 1.36108 0
M  V30 4703 H 448.31 0.607989 3.91305 0
M  V30 4704 H 449.484 3.36327 3.14993 0
M  V30 4705 H 447.799 2.92888 2.95983 0
M  V30 4706 H 450.396 1.27173 5.19356 0
M  V30 4707 H 450.739 -0.095149 4.16191 0
M  V30 4708 H 451.272 1.53129 3.67146 0
M  V30 4709 H 448.011 4.20347 5.02979 0
M  V30 4710 H 447.531 2.53927 5.43398 0
M  V30 4711 H 449.21 3.07426 5.69296 0
M  V30 4712 N 449.342 -1.36122 0.79427 0
M  V30 4713 C 450.588 -1.99406 0.369452 0
M  V30 4714 C 450.921 -1.62886 -1.05743 0
M  V30 4715 O 450.196 -0.886053 -1.73145 0
M  V30 4716 C 450.479 -3.56046 0.538833 0
M  V30 4717 C 450.332 -4.02404 2.00976 0
M  V30 4718 C 451.651 -4.40079 -0.0431359 0
M  V30 4719 H 448.77 -0.724397 0.135712 0
M  V30 4720 H 451.412 -1.61461 1.00151 0
M  V30 4721 H 449.562 -3.885 0.000771004 0
M  V30 4722 H 451.234 -3.80415 2.60926 0
M  V30 4723 H 449.477 -3.53765 2.51063 0
M  V30 4724 H 450.148 -5.11344 2.07922 0
M  V30 4725 H 452.624 -4.14013 0.416228 0
M  V30 4726 H 451.5 -5.48799 0.105374 0
M  V30 4727 H 451.761 -4.27264 -1.13571 0
M  V30 4728 N 450.82 -0.546701 -1.47814 0
M  V30 4729 C 452.066 -0.0187684 -2.02791 0
M  V30 4730 C 452.399 1.32338 -1.42128 0
M  V30 4731 O 451.674 1.85867 -0.573023 0
M  V30 4732 C 451.957 0.0854985 -3.59998 0
M  V30 4733 C 451.81 -1.283 -4.31114 0
M  V30 4734 C 453.129 0.80412 -4.32691 0
M  V30 4735 H 450.248 -0.0082946 -0.736953 0
M  V30 4736 H 452.89 -0.706962 -1.76358 0
M  V30 4737 H 451.04 0.671609 -3.82651 0
M  V30 4738 H 452.712 -1.91151 -4.19832 0
M  V30 4739 H 450.955 -1.86049 -3.91878 0
M  V30 4740 H 451.626 -1.16287 -5.39612 0
M  V30 4741 H 454.102 0.306576 -4.14969 0
M  V30 4742 H 452.978 0.846011 -5.42341 0
M  V30 4743 H 453.239 1.85802 -4.01161 0
M  V30 4744 N 452.299 1.55045 -0.282633 0
M  V30 4745 C 453.715 1.59441 0.0712997 0
M  V30 4746 C 453.915 1.2998 1.53972 0
M  V30 4747 O 452.971 1.06431 2.28973 0
M  V30 4748 C 454.284 2.99097 -0.310104 0
M  V30 4749 C 455.832 3.1194 -0.257343 0
M  V30 4750 C 456.307 4.53875 -0.613297 0
M  V30 4751 N 457.798 4.5974 -0.565134 0
M  V30 4752 C 458.533 5.67603 -0.81326 0
M  V30 4753 N 458.029 6.83582 -1.1264 0
M  V30 4754 N 459.822 5.57187 -0.741553 0
M  V30 4755 H 451.973 1.72458 -1.23984 0
M  V30 4756 H 454.236 0.804549 -0.501403 0
M  V30 4757 H 453.942 3.25516 -1.33163 0
M  V30 4758 H 453.816 3.75616 0.345366 0
M  V30 4759 H 456.203 2.85281 0.754905 0
M  V30 4760 H 456.284 2.37618 -0.947178 0
M  V30 4761 H 455.928 4.81261 -1.62327 0
M  V30 4762 H 455.858 5.26508 0.09841 0
M  V30 4763 H 458.349 3.76427 -0.333294 0
M  V30 4764 H 458.662 7.6175 -1.30219 0
M  V30 4765 H 457.007 6.85179 -1.16425 0
M  V30 4766 H 460.198 4.65457 -0.496705 0
M  V30 4767 H 460.371 6.41171 -0.938306 0
M  V30 4768 N 453.777 0.010035 1.57597 0
M  V30 4769 C 455.025 -0.671371 1.90623 0
M  V30 4770 C 455.346 -1.73753 0.885151 0
M  V30 4771 O 454.616 -1.95752 -0.0760611 0
M  V30 4772 H 453.196 -0.250968 0.703579 0
M  V30 4773 H 455.858 0.0533325 1.94827 0
M  V30 4774 H 454.954 -1.13626 2.90681 0
M  V30 4775 N 455.255 -1.55392 -0.262866 0
M  V30 4776 C 456.501 -1.76737 -0.99458 0
M  V30 4777 C 456.834 -0.572453 -1.85571 0
M  V30 4778 O 456.109 0.429732 -1.89693 0
M  V30 4779 C 456.392 -3.07824 -1.8686 0
M  V30 4780 C 456.245 -4.3769 -1.03672 0
M  V30 4781 C 457.564 -3.35021 -2.85393 0
M  V30 4782 H 454.683 -0.643005 -0.360157 0
M  V30 4783 H 457.325 -1.88126 -0.266216 0
M  V30 4784 H 455.475 -2.98245 -2.48962 0
M  V30 4785 H 457.147 -4.59238 -0.43563 0
M  V30 4786 H 455.39 -4.32461 -0.340513 0
M  V30 4787 H 456.061 -5.25759 -1.6817 0
M  V30 4788 H 458.537 -3.44458 -2.33426 0
M  V30 4789 H 457.413 -4.27989 -3.43681 0
M  V30 4790 H 457.674 -2.55153 -3.61039 0
M  V30 4791 N 456.733 0.527833 -1.48498 0
M  V30 4792 C 457.666 1.64892 -1.57753 0
M  V30 4793 C 458.644 1.5687 -0.427867 0
M  V30 4794 O 459.828 1.77311 -0.639764 0
M  V30 4795 C 456.955 3.03301 -1.50752 0
M  V30 4796 C 456.001 3.29675 -2.70586 0
M  V30 4797 S 456.834 3.15712 -4.32535 0
M  V30 4798 C 457.99 4.56564 -4.28136 0
M  V30 4799 H 458.223 1.56792 -2.52594 0
M  V30 4800 H 455.756 0.710959 -1.37057 0
M  V30 4801 H 457.714 3.83123 -1.474 0
M  V30 4802 H 456.375 3.08839 -0.572454 0
M  V30 4803 H 455.568 4.3065 -2.61833 0
M  V30 4804 H 455.17 2.57526 -2.71212 0
M  V30 4805 H 457.462 5.48126 -3.98201 0
M  V30 4806 H 458.405 4.70371 -5.29298 0
M  V30 4807 H 458.813 4.35987 -3.58574 0
M  V30 4808 N 458.211 1.37122 0.776871 0
M  V30 4809 C 459.158 1.3247 1.88998 0
M  V30 4810 C 460.128 0.191143 1.64997 0
M  V30 4811 O 461.313 0.379683 1.86984 0
M  V30 4812 C 458.453 1.13241 3.25992 0
M  V30 4813 C 457.566 2.35782 3.61982 0
M  V30 4814 C 456.701 2.09465 4.88158 0
M  V30 4815 C 455.74 3.279 5.16864 0
M  V30 4816 N 454.877 3.01167 6.34226 0
M  V30 4817 H 459.717 2.27642 1.9231 0
M  V30 4818 H 457.254 1.13125 0.94027 0
M  V30 4819 H 459.212 1.00115 4.0501 0
M  V30 4820 H 457.842 0.217186 3.22069 0
M  V30 4821 H 456.894 2.59666 2.77989 0
M  V30 4822 H 458.206 3.24125 3.79137 0
M  V30 4823 H 457.36 1.93341 5.75069 0
M  V30 4824 H 456.099 1.18452 4.73097 0
M  V30 4825 H 455.104 3.44569 4.2843 0
M  V30 4826 H 456.329 4.19757 5.33836 0
M  V30 4827 H 454.275 2.12779 6.20533 0
M  V30 4828 H 454.192 3.83052 6.51772 0
M  V30 4829 H 455.46 2.88649 7.24087 0
M  V30 4830 N 459.689 -1.00246 1.21608 0
M  V30 4831 C 461.1 -1.55511 1.03312 0
M  V30 4832 C 461.451 -1.91946 -0.406332 0
M  V30 4833 O 460.576 -1.73753 -1.28992 0
M  V30 4834 C 461.171 -2.82576 1.86913 0
M  V30 4835 C 459.73 -3.34318 1.72941 0
M  V30 4836 C 458.877 -2.07487 1.83968 0
M  V30 4837 H 461.828 -0.824638 1.35593 0
M  V30 4838 H 461.849 -3.54559 1.38087 0
M  V30 4839 H 461.361 -2.56026 2.91672 0
M  V30 4840 H 459.462 -3.65797 0.70877 0
M  V30 4841 H 459.575 -4.05566 2.55055 0
M  V30 4842 H 457.939 -2.20603 1.27304 0
M  V30 4843 H 458.722 -1.83346 2.9024 0
M  V30 4844 N 461.167 -1.02423 -1.1978 0
M  V30 4845 C 462.416 -0.713265 -1.88667 0
M  V30 4846 C 462.729 0.7609 -1.80193 0
M  V30 4847 O 463.935 1.18473 -2.44288 0
M  V30 4848 C 462.391 -1.22545 -3.38394 0
M  V30 4849 C 461.999 -2.72706 -3.55437 0
M  V30 4850 C 463.743 -0.990257 -4.12788 0
M  V30 4851 C 461.65 -3.17367 -4.99031 0
M  V30 4852 H 460.58 -0.263105 -0.706606 0
M  V30 4853 H 463.231 -1.23792 -1.35454 0
M  V30 4854 H 461.613 -0.628732 -3.90977 0
M  V30 4855 H 462.787 -3.37993 -3.13205 0
M  V30 4856 H 461.102 -2.94453 -2.94425 0
M  V30 4857 H 463.699 -1.29926 -5.18675 0
M  V30 4858 H 464.042 0.0730761 -4.16236 0
M  V30 4859 H 464.575 -1.55074 -3.66329 0
M  V30 4860 H 461.314 -4.23009 -5.00743 0
M  V30 4861 H 460.834 -2.56805 -5.42044 0
M  V30 4862 H 462.513 -3.10441 -5.67658 0
M  V30 4863 N 462.645 1.35699 -0.801477 0
M  V30 4864 C 464.056 1.81415 -0.441073 0
M  V30 4865 C 464.407 1.66595 1.03636 0
M  V30 4866 O 463.532 1.19369 1.80499 0
M  V30 4867 C 464.127 3.29369 -0.793819 0
M  V30 4868 C 462.686 3.73248 -0.486083 0
M  V30 4869 C 461.833 2.57775 -1.02213 0
M  V30 4870 H 464.784 1.23749 -0.993572 0
M  V30 4871 H 464.805 3.80395 -0.0894158 0
M  V30 4872 H 464.317 3.40123 -1.86917 0
M  V30 4873 H 462.418 3.68046 0.580735 0
M  V30 4874 H 462.531 4.68222 -1.01513 0
M  V30 4875 H 460.895 2.50788 -0.444712 0
M  V30 4876 H 461.678 2.71309 -2.10348 0
M  V30 4877 N 464.123 0.554532 1.47522 0
M  V30 4878 C 465.351 0.034257 2.06872 0
M  V30 4879 C 465.766 -1.25826 1.40759 0
M  V30 4880 O 465.123 -1.75425 0.503217 0
M  V30 4881 C 465.174 -0.167827 3.6111 0
M  V30 4882 O 464.895 1.07351 4.24744 0
M  V30 4883 C 466.396 -0.72569 4.3732 0
M  V30 4884 H 463.616 0.0446275 0.669514 0
M  V30 4885 H 466.16 0.767181 1.89564 0
M  V30 4886 H 464.315 -0.850872 3.7794 0
M  V30 4887 H 464.729 0.869563 5.17242 0
M  V30 4888 H 466.203 -0.816394 5.45929 0
M  V30 4889 H 466.68 -1.73635 4.0342 0
M  V30 4890 H 467.286 -0.0784292 4.25228 0
M  V30 4891 N 465.601 -1.54893 0.290851 0
M  V30 4892 C 466.531 -2.26103 -0.583084 0
M  V30 4893 C 467.512 -1.25684 -1.14619 0
M  V30 4894 O 468.697 -1.54436 -1.17741 0
M  V30 4895 C 465.827 -2.99409 -1.75987 0
M  V30 4896 C 464.781 -4.0689 -1.32758 0
M  V30 4897 C 464.107 -4.67856 -2.58872 0
M  V30 4898 C 465.407 -5.20215 -0.46624 0
M  V30 4899 H 467.101 -2.99398 0.0108214 0
M  V30 4900 H 464.647 -1.43998 0.00664468 0
M  V30 4901 H 466.6 -3.47943 -2.37727 0
M  V30 4902 H 465.324 -2.23675 -2.37985 0
M  V30 4903 H 463.983 -3.59191 -0.733299 0
M  V30 4904 H 463.631 -3.88772 -3.19163 0
M  V30 4905 H 463.331 -5.40438 -2.30653 0
M  V30 4906 H 464.855 -5.19147 -3.21433 0
M  V30 4907 H 466.269 -5.64704 -0.989047 0
M  V30 4908 H 464.666 -5.99455 -0.27826 0
M  V30 4909 H 465.736 -4.82198 0.511173 0
M  V30 4910 N 467.08 -0.0183926 -1.57589 0
M  V30 4911 C 468.31 0.67207 -1.95363 0
M  V30 4912 C 468.718 1.66807 -0.892872 0
M  V30 4913 O 468.061 1.83204 0.134958 0
M  V30 4914 C 468.123 1.44397 -3.29226 0
M  V30 4915 C 467.787 0.607511 -4.52944 0
M  V30 4916 C 468.784 -0.112657 -5.19778 0
M  V30 4917 C 466.469 0.548068 -4.99301 0
M  V30 4918 C 468.463 -0.881057 -6.31281 0
M  V30 4919 C 466.15 -0.224044 -6.10689 0
M  V30 4920 C 467.148 -0.937323 -6.76538 0
M  V30 4921 O 466.836 -1.6968 -7.85789 0
M  V30 4922 H 466.568 0.190925 -0.648478 0
M  V30 4923 H 469.122 -0.0711994 -2.05277 0
M  V30 4924 H 467.352 2.23214 -3.15773 0
M  V30 4925 H 469.041 2.02152 -3.51979 0
M  V30 4926 H 469.807 -0.0759998 -4.8494 0
M  V30 4927 H 465.686 1.09281 -4.4786 0
M  V30 4928 H 469.23 -1.43832 -6.82611 0
M  V30 4929 H 465.127 -0.262457 -6.44966 0
M  V30 4930 H 465.895 -1.61544 -8.024 0
M  V30 4931 N 468.558 1.5553 0.254621 0
M  V30 4932 C 469.505 1.89666 1.31512 0
M  V30 4933 C 470.475 0.750057 1.482 0
M  V30 4934 O 471.66 1.00301 1.62309 0
M  V30 4935 C 468.8 2.19009 2.667 0
M  V30 4936 C 467.913 3.46435 2.58083 0
M  V30 4937 C 467.048 3.65386 3.85573 0
M  V30 4938 C 466.087 4.8644 3.71541 0
M  V30 4939 N 465.224 5.01952 4.90906 0
M  V30 4940 H 470.064 2.80109 1.017 0
M  V30 4941 H 467.601 1.38666 0.490938 0
M  V30 4942 H 469.559 2.34025 3.45381 0
M  V30 4943 H 468.189 1.31779 2.94676 0
M  V30 4944 H 467.241 3.39792 1.71013 0
M  V30 4945 H 468.553 4.35258 2.43622 0
M  V30 4946 H 467.707 3.80319 4.72697 0
M  V30 4947 H 466.446 2.74781 4.02922 0
M  V30 4948 H 465.451 4.71491 2.82801 0
M  V30 4949 H 466.676 5.78497 3.55694 0
M  V30 4950 H 464.622 4.14283 5.08631 0
M  V30 4951 H 464.539 5.84851 4.79046 0
M  V30 4952 H 465.807 5.21289 5.7955 0
M  V30 4953 N 470.036 -0.519951 1.48776 0
M  V30 4954 C 471.447 -1.10177 1.50725 0
M  V30 4955 C 471.798 -1.94153 0.282678 0
M  V30 4956 O 470.923 -2.07645 -0.609298 0
M  V30 4957 C 471.518 -2.00482 2.73116 0
M  V30 4958 C 470.077 -2.53862 2.77905 0
M  V30 4959 C 469.224 -1.31047 2.44381 0
M  V30 4960 H 472.175 -0.30473 1.55747 0
M  V30 4961 H 472.196 -2.8491 2.52203 0
M  V30 4962 H 471.708 -1.39335 3.62225 0
M  V30 4963 H 469.809 -3.18702 1.93029 0
M  V30 4964 H 469.922 -2.9231 3.79594 0
M  V30 4965 H 468.286 -1.62953 1.95751 0
M  V30 4966 H 469.069 -0.71637 3.35743 0
M  V30 4967 N 471.514 -1.37532 -0.769588 0
M  V30 4968 C 472.444 -1.36172 -1.89682 0
M  V30 4969 C 473.425 -0.23001 -1.68538 0
M  V30 4970 O 474.61 -0.43069 -1.89364 0
M  V30 4971 C 471.74 -1.1701 -3.26995 0
M  V30 4972 C 470.694 -2.27216 -3.62708 0
M  V30 4973 C 470.02 -1.93174 -4.98586 0
M  V30 4974 C 471.32 -3.6941 -3.69234 0
M  V30 4975 H 473.014 -2.30499 -1.91078 0
M  V30 4976 H 470.56 -1.10953 -0.917902 0
M  V30 4977 H 472.513 -1.14688 -4.05493 0
M  V30 4978 H 471.237 -0.191395 -3.26039 0
M  V30 4979 H 469.896 -2.28697 -2.86519 0
M  V30 4980 H 469.544 -0.938281 -4.94171 0
M  V30 4981 H 469.244 -2.66973 -5.23449 0
M  V30 4982 H 470.768 -1.92443 -5.79481 0
M  V30 4983 H 472.182 -3.70047 -4.37879 0
M  V30 4984 H 470.579 -4.4228 -4.05597 0
M  V30 4985 H 471.649 -4.0288 -2.69844 0
M  V30 4986 N 472.992 0.995999 -1.22138 0
M  V30 4987 C 473.925 2.08302 -0.931952 0
M  V30 4988 C 474.903 1.62127 0.123956 0
M  V30 4989 O 476.087 1.88499 -0.00696004 0
M  V30 4990 C 473.214 3.36317 -0.401068 0
M  V30 4991 C 472.26 4.01413 -1.44117 0
M  V30 4992 S 473.093 4.42664 -3.01345 0
M  V30 4993 C 474.249 5.73853 -2.49887 0
M  V30 4994 H 474.482 2.32532 -1.85246 0
M  V30 4995 H 472.015 1.13005 -1.0521 0
M  V30 4996 H 473.973 4.10375 -0.101352 0
M  V30 4997 H 472.634 3.10123 0.498272 0
M  V30 4998 H 471.827 4.9358 -1.01952 0
M  V30 4999 H 471.429 3.33668 -1.68943 0
M  V30 5000 H 473.721 6.50039 -1.90934 0
M  V30 5001 H 474.664 6.20841 -3.40532 0
M  V30 5002 H 475.072 5.31105 -1.9128 0
M  V30 5003 N 474.47 1.03057 1.19235 0
M  V30 5004 C 475.695 0.74757 1.93458 0
M  V30 5005 C 476.12 -0.687648 1.7508 0
M  V30 5006 O 475.478 -1.47499 1.05422 0
M  V30 5007 C 475.526 1.10604 3.43219 0
M  V30 5008 O 474.63 0.225671 4.11782 0
M  V30 5009 H 473.971 0.276047 0.603899 0
M  V30 5010 H 476.501 1.3777 1.51263 0
M  V30 5011 H 476.511 1.06366 3.93891 0
M  V30 5012 H 475.186 2.15165 3.55917 0
M  V30 5013 H 473.763 0.326795 3.71465 0
M  V30 5014 N 475.948 -1.35272 0.808662 0
M  V30 5015 C 477.194 -1.99003 0.390581 0
M  V30 5016 C 477.527 -1.63999 -1.0401 0
M  V30 5017 O 476.802 -0.904368 -1.72196 0
M  V30 5018 C 477.085 -3.55454 0.576566 0
M  V30 5019 C 476.938 -4.00249 2.05233 0
M  V30 5020 C 478.257 -4.401 0.00354277 0
M  V30 5021 H 475.376 -0.722917 0.143388 0
M  V30 5022 H 478.018 -1.6039 1.01858 0
M  V30 5023 H 476.168 -3.88477 0.0419766 0
M  V30 5024 H 477.84 -3.77626 2.64946 0
M  V30 5025 H 476.083 -3.51082 2.54801 0
M  V30 5026 H 476.754 -5.0911 2.13333 0
M  V30 5027 H 479.23 -4.13548 0.460117 0
M  V30 5028 H 478.106 -5.48656 0.163575 0
M  V30 5029 H 478.367 -4.28444 -1.09032 0
M  V30 5030 N 477.426 -0.562348 -1.47226 0
M  V30 5031 C 478.703 0.0256985 -1.95583 0
M  V30 5032 C 479.083 1.48032 -1.50498 0
M  V30 5033 O 478.431 2.15973 -0.746181 0
M  V30 5034 C 478.641 -0.125129 -3.48776 0
M  V30 5035 C 479.989 0.0175728 -4.24596 0
M  V30 5036 O 481.013 -0.0529341 -3.56161 0
M  V30 5037 O 479.872 0.170145 -5.46235 0
M  V30 5038 H 476.966 0.0612565 -0.824728 0
M  V30 5039 H 479.512 -0.629233 -1.57603 0
M  V30 5040 H 478.284 -1.13715 -3.74412 0
M  V30 5041 H 477.907 0.567178 -3.93534 0
M  V30 5042 N 478.904 1.54736 -0.299062 0
M  V30 5043 C 480.153 1.99279 0.311549 0
M  V30 5044 C 480.466 1.19107 1.55154 0
M  V30 5045 O 481.672 1.53908 2.23662 0
M  V30 5046 C 480.128 3.54768 0.605632 0
M  V30 5047 C 479.736 4.43746 -0.615914 0
M  V30 5048 C 481.48 4.07841 1.17754 0
M  V30 5049 C 479.387 5.90663 -0.29509 0
M  V30 5050 H 478.317 0.744359 0.120187 0
M  V30 5051 H 480.968 1.78919 -0.407464 0
M  V30 5052 H 479.35 3.71021 1.38419 0
M  V30 5053 H 480.524 4.39267 -1.39218 0
M  V30 5054 H 478.839 4.01434 -1.10633 0
M  V30 5055 H 481.436 5.15174 1.43179 0
M  V30 5056 H 481.779 3.58324 2.11918 0
M  V30 5057 H 482.312 3.95123 0.460739 0
M  V30 5058 H 479.051 6.44325 -1.20524 0
M  V30 5059 H 478.571 5.98155 0.44394 0
M  V30 5060 H 480.25 6.46916 0.104048 0
M  V30 5061 N 480.382 0.0267497 1.57577 0
M  V30 5062 C 481.292 -0.971633 2.13533 0
M  V30 5063 C 482.308 -1.35868 1.08701 0
M  V30 5064 O 483.484 -1.44058 1.40746 0
M  V30 5065 C 480.549 -2.23622 2.64941 0
M  V30 5066 C 479.61 -1.90982 3.8448 0
M  V30 5067 C 478.843 -3.11411 4.33427 0
M  V30 5068 O 479.066 -4.23992 3.81558 0
M  V30 5069 O 478 -2.93848 5.25297 0
M  V30 5070 H 481.826 -0.525853 2.99113 0
M  V30 5071 H 479.411 -0.193712 1.48139 0
M  V30 5072 H 481.293 -2.97864 2.98086 0
M  V30 5073 H 479.968 -2.67386 1.82446 0
M  V30 5074 H 478.875 -1.14132 3.56265 0
M  V30 5075 H 480.208 -1.52036 4.6813 0
M  V30 5076 N 481.861 -1.55662 -0.24637 0
M  V30 5077 C 483.089 -1.81575 -0.991876 0
M  V30 5078 C 483.504 -0.602545 -1.78927 0
M  V30 5079 O 482.861 0.428795 -1.77391 0
M  V30 5080 C 482.912 -3.05711 -1.92933 0
M  V30 5081 O 482.633 -4.22348 -1.1642 0
M  V30 5082 C 484.134 -3.44428 -2.79078 0
M  V30 5083 H 481.354 -0.604209 -0.291844 0
M  V30 5084 H 483.898 -2.02722 -0.269095 0
M  V30 5085 H 482.053 -2.86612 -2.60638 0
M  V30 5086 H 482.467 -4.92706 -1.79835 0
M  V30 5087 H 483.941 -4.34388 -3.40603 0
M  V30 5088 H 484.418 -2.65037 -3.50217 0
M  V30 5089 H 485.024 -3.65879 -2.16824 0
M  V30 5090 N 483.339 0.512053 -1.4905 0
M  V30 5091 C 484.289 1.61142 -1.61298 0
M  V30 5092 C 485.273 1.53908 -0.46916 0
M  V30 5093 O 486.465 1.61625 -0.721547 0
M  V30 5094 C 483.594 2.998 -1.67256 0
M  V30 5095 C 482.68 3.12072 -2.87179 0
M  V30 5096 N 483.071 2.94263 -4.11391 0
M  V30 5097 C 481.369 3.43156 -2.84886 0
M  V30 5098 C 482.07 3.10426 -4.91946 0
M  V30 5099 N 481.046 3.38808 -4.251 0
M  V30 5100 H 484.848 1.46011 -2.55065 0
M  V30 5101 H 482.362 0.717934 -1.45669 0
M  V30 5102 H 484.359 3.78794 -1.74128 0
M  V30 5103 H 483.019 3.1601 -0.746195 0
M  V30 5104 H 484.03 2.70661 -4.41546 0
M  V30 5105 H 480.707 3.65611 -2.01581 0
M  V30 5106 H 482.097 3.01243 -6.00585 0
M  V30 5107 N 484.817 1.37938 0.762283 0
M  V30 5108 C 485.727 1.36681 1.90671 0
M  V30 5109 C 486.743 0.265078 1.71969 0
M  V30 5110 O 487.919 0.502055 1.95042 0
M  V30 5111 C 484.984 1.18211 3.25925 0
M  V30 5112 C 484.045 2.3811 3.57214 0
M  V30 5113 C 483.278 2.20512 4.86014 0
M  V30 5114 O 483.501 1.19429 5.57757 0
M  V30 5115 O 482.435 3.08911 5.16583 0
M  V30 5116 H 486.261 2.33091 1.94685 0
M  V30 5117 H 483.846 1.18767 0.906356 0
M  V30 5118 H 485.728 1.09937 4.06807 0
M  V30 5119 H 484.403 0.248807 3.22742 0
M  V30 5120 H 483.31 2.51958 2.76529 0
M  V30 5121 H 484.643 3.30041 3.65149 0
M  V30 5122 N 486.295 -0.989507 1.22664 0
M  V30 5123 C 487.706 -1.54406 1.04955 0
M  V30 5124 C 488.057 -1.92366 -0.385951 0
M  V30 5125 O 487.182 -1.75111 -1.27142 0
M  V30 5126 C 487.777 -2.80578 1.89899 0
M  V30 5127 C 486.336 -3.32464 1.76478 0
M  V30 5128 C 485.483 -2.05524 1.86159 0
M  V30 5129 H 488.434 -0.810211 1.3646 0
M  V30 5130 H 488.455 -3.53075 1.4184 0
M  V30 5131 H 487.967 -2.52918 2.94371 0
M  V30 5132 H 486.068 -3.65024 0.747528 0
M  V30 5133 H 486.181 -4.02838 2.59342 0
M  V30 5134 H 484.545 -2.19241 1.29636 0
M  V30 5135 H 485.328 -1.80258 2.92168 0
M  V30 5136 N 487.773 -1.03688 -1.18687 0
M  V30 5137 C 489.003 -0.756819 -1.92239 0
M  V30 5138 C 489.411 0.689374 -1.76194 0
M  V30 5139 O 488.754 1.48126 -1.08648 0
M  V30 5140 C 488.816 -1.03851 -3.44173 0
M  V30 5141 C 488.48 -2.47785 -3.83994 0
M  V30 5142 C 489.477 -3.4595 -3.88091 0
M  V30 5143 C 487.162 -2.82397 -4.154 0
M  V30 5144 C 489.156 -4.76779 -4.23038 0
M  V30 5145 C 486.843 -4.13433 -4.50018 0
M  V30 5146 C 487.841 -5.10434 -4.53813 0
M  V30 5147 O 487.529 -6.39122 -4.87625 0
M  V30 5148 H 487.261 -0.275678 -0.617234 0
M  V30 5149 H 489.815 -1.38658 -1.51536 0
M  V30 5150 H 488.045 -0.351612 -3.85098 0
M  V30 5151 H 489.734 -0.746846 -3.9897 0
M  V30 5152 H 490.5 -3.20549 -3.63969 0
M  V30 5153 H 486.379 -2.07568 -4.11627 0
M  V30 5154 H 489.923 -5.52488 -4.25914 0
M  V30 5155 H 485.82 -4.38604 -4.736 0
M  V30 5156 H 486.588 -6.43715 -5.05542 0
M  V30 5157 N 489.251 1.34841 -0.815825 0
M  V30 5158 C 490.198 2.29644 -0.230664 0
M  V30 5159 C 491.168 1.53253 0.640533 0
M  V30 5160 O 492.353 1.81653 0.583672 0
M  V30 5161 C 489.493 3.39715 0.607275 0
M  V30 5162 C 488.606 4.31056 -0.28538 0
M  V30 5163 C 487.741 5.28225 0.561446 0
M  V30 5164 C 486.78 6.11204 -0.331035 0
M  V30 5165 N 485.917 7.00483 0.476302 0
M  V30 5166 H 490.757 2.79095 -1.0445 0
M  V30 5167 H 488.294 1.37351 -0.526595 0
M  V30 5168 H 490.252 4.02208 1.10835 0
M  V30 5169 H 488.882 2.91517 1.38629 0
M  V30 5170 H 487.934 3.69487 -0.904621 0
M  V30 5171 H 489.246 4.89239 -0.97193 0
M  V30 5172 H 488.4 5.96135 1.12728 0
M  V30 5173 H 487.139 4.70562 1.28153 0
M  V30 5174 H 486.144 5.42232 -0.909069 0
M  V30 5175 H 487.369 6.70947 -1.04912 0
M  V30 5176 H 485.315 6.45296 1.18019 0
M  V30 5177 H 485.232 7.55847 -0.152008 0
M  V30 5178 H 486.5 7.7273 1.02512 0
M  V30 5179 N 490.729 0.570148 1.46925 0
M  V30 5180 C 491.692 -0.159933 2.28641 0
M  V30 5181 C 492.692 -0.830638 1.37685 0
M  V30 5182 O 493.882 -0.684516 1.60187 0
M  V30 5183 C 491.014 -1.2354 3.17727 0
M  V30 5184 H 492.207 0.558035 2.94662 0
M  V30 5185 H 489.76 0.327603 1.52828 0
M  V30 5186 H 490.495 -1.98535 2.56426 0
M  V30 5187 H 490.28 -0.759125 3.84681 0
M  V30 5188 H 491.77 -1.74782 3.79264 0
M  V30 5189 N 492.207 -1.54576 0.307264 0
M  V30 5190 C 493.435 -2.04675 -0.302597 0
M  V30 5191 C 493.85 -1.18425 -1.47041 0
M  V30 5192 O 493.207 -0.211257 -1.81273 0
M  V30 5193 C 493.258 -3.53575 -0.752801 0
M  V30 5194 O 492.979 -4.36547 0.368536 0
M  V30 5195 C 494.48 -4.19699 -1.42717 0
M  V30 5196 H 491.7 -0.66786 -0.0648374 0
M  V30 5197 H 494.244 -1.99516 0.448716 0
M  V30 5198 H 492.399 -3.59074 -1.45412 0
M  V30 5199 H 492.813 -5.24497 0.0168937 0
M  V30 5200 H 494.287 -5.25388 -1.69327 0
M  V30 5201 H 494.764 -3.69815 -2.36925 0
M  V30 5202 H 495.37 -4.18293 -0.768856 0
M  V30 5203 N 493.685 -0.035106 -1.57561 0
M  V30 5204 C 494.931 0.64318 -1.92331 0
M  V30 5205 C 495.264 1.71434 -0.912368 0
M  V30 5206 O 494.539 1.94395 0.0640303 0
M  V30 5207 C 494.822 1.25411 -3.37556 0
M  V30 5208 C 494.675 0.192109 -4.4939 0
M  V30 5209 C 495.994 2.17041 -3.82859 0
M  V30 5210 H 493.113 0.232341 -0.699419 0
M  V30 5211 H 495.755 -0.0935889 -1.89769 0
M  V30 5212 H 493.905 1.88205 -3.39869 0
M  V30 5213 H 495.577 -0.438849 -4.59208 0
M  V30 5214 H 493.82 -0.481725 -4.31117 0
M  V30 5215 H 494.491 0.659292 -5.48049 0
M  V30 5216 H 496.967 1.64228 -3.8232 0
M  V30 5217 H 495.843 2.56738 -4.85157 0
M  V30 5218 H 496.104 3.06401 -3.18702 0
M  V30 5219 N 495.163 1.55791 0.238111 0
M  V30 5220 C 496.073 1.94196 1.31625 0
M  V30 5221 C 497.089 0.843545 1.52185 0
M  V30 5222 O 498.265 1.1457 1.65637 0
M  V30 5223 C 495.33 2.2365 2.64918 0
M  V30 5224 C 494.391 3.46971 2.52804 0
M  V30 5225 C 493.624 3.7501 3.79741 0
M  V30 5226 O 493.847 3.04982 4.82019 0
M  V30 5227 O 492.781 4.68525 3.77846 0
M  V30 5228 H 496.607 2.86044 1.02043 0
M  V30 5229 H 494.192 1.42786 0.439603 0
M  V30 5230 H 496.074 2.43863 3.4367 0
M  V30 5231 H 494.749 1.34979 2.94215 0
M  V30 5232 H 493.656 3.32055 1.72309 0
M  V30 5233 H 494.989 4.35971 2.28451 0
M  V30 5234 N 496.642 -0.504142 1.49319 0
M  V30 5235 C 498.058 -0.835039 1.36012 0
M  V30 5236 C 498.258 -1.97674 0.390808 0
M  V30 5237 O 497.314 -2.51867 -0.178655 0
M  V30 5238 C 498.627 -1.17821 2.76656 0
M  V30 5239 C 500.175 -1.2866 2.85334 0
M  V30 5240 C 500.65 -1.66307 4.26739 0
M  V30 5241 N 502.141 -1.73362 4.29534 0
M  V30 5242 C 502.876 -2.0393 5.35911 0
M  V30 5243 N 502.372 -2.32744 6.52535 0
M  V30 5244 N 504.165 -2.05155 5.23324 0
M  V30 5245 H 496.316 0.248764 2.10938 0
M  V30 5246 H 498.579 0.0486962 0.946748 0
M  V30 5247 H 498.285 -0.412682 3.4927 0
M  V30 5248 H 498.159 -2.12239 3.11825 0
M  V30 5249 H 500.546 -2.04285 2.1296 0
M  V30 5250 H 500.627 -0.323004 2.53752 0
M  V30 5251 H 500.271 -0.91234 4.99639 0
M  V30 5252 H 500.201 -2.63761 4.55782 0
M  V30 5253 H 502.692 -1.53268 3.45424 0
M  V30 5254 H 503.005 -2.55248 7.2943 0
M  V30 5255 H 501.35 -2.30207 6.55767 0
M  V30 5256 H 504.541 -1.82119 4.3122 0
M  V30 5257 H 504.714 -2.28644 6.06322 0
M  V30 5258 N 498.12 -1.38341 -0.754957 0
M  V30 5259 C 499.345 -1.37882 -1.5493 0
M  V30 5260 C 499.77 0.0296385 -1.88077 0
M  V30 5261 O 499.128 1.01133 -1.50472 0
M  V30 5262 C 499.176 -2.23996 -2.82592 0
M  V30 5263 O 498.28 -1.65612 -3.77686 0
M  V30 5264 H 497.621 -0.470384 -0.468652 0
M  V30 5265 H 500.151 -1.82084 -0.933082 0
M  V30 5266 H 500.161 -2.37806 -3.3153 0
M  V30 5267 H 498.836 -3.26365 -2.57796 0
M  V30 5268 H 497.413 -1.60936 -3.36384 0
M  V30 5269 N 499.598 0.982988 -1.23187 0
M  V30 5270 C 500.875 1.69814 -0.970707 0
M  V30 5271 C 501.255 2.04811 0.511424 0
M  V30 5272 O 500.603 1.73924 1.48198 0
M  V30 5273 C 500.813 2.94143 -1.87831 0
M  V30 5274 C 502.161 3.66712 -2.14026 0
M  V30 5275 O 503.185 3.04171 -1.8536 0
M  V30 5276 O 502.044 4.79258 -2.62629 0
M  V30 5277 H 499.138 0.741659 -0.365884 0
M  V30 5278 H 501.684 1.03844 -1.34218 0
M  V30 5279 H 500.456 2.64858 -2.88038 0
M  V30 5280 H 500.079 3.6785 -1.50905 0
M  V30 5281 N 501.076 1.04316 1.18135 0
M  V30 5282 C 502.487 0.775505 1.69832 0
M  V30 5283 C 502.838 -0.703348 1.8316 0
M  V30 5284 O 501.963 -1.54729 1.51287 0
M  V30 5285 C 502.558 1.40112 3.0847 0
M  V30 5286 C 501.117 1.18172 3.57368 0
M  V30 5287 C 500.264 1.49022 2.33854 0
M  V30 5288 H 503.215 1.20925 1.02775 0
M  V30 5289 H 503.236 0.805672 3.71873 0
M  V30 5290 H 502.748 2.47744 2.98738 0
M  V30 5291 H 500.849 0.124258 3.72393 0
M  V30 5292 H 500.962 1.8805 4.40652 0
M  V30 5293 H 499.326 0.909995 2.37889 0
M  V30 5294 H 500.109 2.57768 2.26738 0
M  V30 5295 N 502.554 -1.34406 0.822964 0
M  V30 5296 C 503.782 -2.02508 0.424039 0
M  V30 5297 C 504.197 -1.61975 -0.970022 0
M  V30 5298 O 503.554 -0.825228 -1.62777 0
M  V30 5299 C 503.605 -3.57789 0.516657 0
M  V30 5300 O 503.326 -3.96853 1.85577 0
M  V30 5301 C 504.827 -4.43157 0.112637 0
M  V30 5302 H 502.047 -0.649063 0.170173 0
M  V30 5303 H 504.591 -1.7168 1.11113 0
M  V30 5304 H 502.746 -3.87207 -0.122353 0
M  V30 5305 H 503.16 -4.91538 1.83005 0
M  V30 5306 H 504.634 -5.51527 0.228526 0
M  V30 5307 H 505.111 -4.28939 -0.943837 0
M  V30 5308 H 505.717 -4.19067 0.725449 0
M  V30 5309 N 504.032 -0.577932 -1.46621 0
M  V30 5310 C 504.995 0.147805 -2.28723 0
M  V30 5311 C 505.995 0.823325 -1.38123 0
M  V30 5312 O 507.185 0.676011 -1.60548 0
M  V30 5313 C 504.317 1.21853 -3.18378 0
M  V30 5314 H 505.51 -0.573654 -2.94362 0
M  V30 5315 H 503.063 -0.335703 -1.52652 0
M  V30 5316 H 503.798 1.97173 -2.57475 0
M  V30 5317 H 503.583 0.738714 -3.85078 0
M  V30 5318 H 505.073 1.72768 -3.80186 0
M  V30 5319 N 505.51 1.54411 -0.315457 0
M  V30 5320 C 506.44 2.27002 0.547039 0
M  V30 5321 C 507.421 1.27492 1.12605 0
M  V30 5322 O 508.606 1.5629 1.15269 0
M  V30 5323 C 505.736 3.02171 1.71201 0
M  V30 5324 C 504.69 4.0895 1.26268 0
M  V30 5325 C 504.016 4.71915 2.51396 0
M  V30 5326 C 505.316 5.20891 0.383419 0
M  V30 5327 H 507.01 2.99343 -0.0584517 0
M  V30 5328 H 504.556 1.4397 -0.0295527 0
M  V30 5329 H 506.509 3.51681 2.32161 0
M  V30 5330 H 505.233 2.27433 2.34397 0
M  V30 5331 H 503.892 3.60312 0.676062 0
M  V30 5332 H 503.54 3.93801 3.12937 0
M  V30 5333 H 503.24 5.44039 2.22026 0
M  V30 5334 H 504.764 5.24195 3.13133 0
M  V30 5335 H 506.178 5.66206 0.899082 0
M  V30 5336 H 504.575 5.99821 0.182857 0
M  V30 5337 H 505.645 4.81324 -0.587821 0
M  V30 5338 N 506.988 0.0434614 1.5754 0
M  V30 5339 C 508.399 -0.493343 1.80064 0
M  V30 5340 C 508.75 -1.71388 0.955023 0
M  V30 5341 O 507.875 -2.15736 0.169434 0
M  V30 5342 C 508.47 -0.90179 3.26578 0
M  V30 5343 C 507.029 -1.38362 3.50047 0
M  V30 5344 C 506.176 -0.355129 2.75017 0
M  V30 5345 H 509.127 0.2694 1.56397 0
M  V30 5346 H 509.148 -1.76523 3.37075 0
M  V30 5347 H 508.66 -0.013271 3.88098 0
M  V30 5348 H 506.761 -2.29159 2.93798 0
M  V30 5349 H 506.874 -1.3811 4.58762 0
M  V30 5350 H 505.238 -0.826348 2.40922 0
M  V30 5351 H 506.021 0.525172 3.39259 0
M  V30 5352 N 508.466 -1.55915 -0.229846 0
M  V30 5353 C 509.429 -1.90914 -1.26824 0
M  V30 5354 C 510.429 -0.786999 -1.40225 0
M  V30 5355 O 511.619 -1.05484 -1.38632 0
M  V30 5356 C 508.751 -2.15264 -2.64337 0
M  V30 5357 H 509.944 -2.8378 -0.969998 0
M  V30 5358 H 507.497 -1.49069 -0.4699 0
M  V30 5359 H 508.232 -1.24923 -2.99274 0
M  V30 5360 H 508.017 -2.97005 -2.55989 0
M  V30 5361 H 509.507 -2.43467 -3.39284 0
M  V30 5362 N 509.944 0.496216 -1.49584 0
M  V30 5363 C 510.907 1.57952 -1.66084 0
M  V30 5364 C 511.907 1.51729 -0.53244 0
M  V30 5365 O 513.097 1.54796 -0.79899 0
M  V30 5366 C 510.229 2.97604 -1.66268 0
M  V30 5367 H 511.422 1.44649 -2.6271 0
M  V30 5368 H 508.975 0.7208 -1.38687 0
M  V30 5369 H 509.71 3.16378 -0.712432 0
M  V30 5370 H 509.495 3.03528 -2.4822 0
M  V30 5371 H 510.985 3.76301 -1.81073 0
M  V30 5372 N 511.423 1.38739 0.74761 0
M  V30 5373 C 512.671 1.35007 1.50391 0
M  V30 5374 C 512.992 -0.0574274 1.94915 0
M  V30 5375 O 512.262 -1.00628 1.6808 0
M  V30 5376 H 510.842 0.496784 0.557866 0
M  V30 5377 H 513.504 1.73479 0.888319 0
M  V30 5378 H 512.6 2.00474 2.392 0
M  V30 5379 N 512.901 -0.976442 1.23707 0
M  V30 5380 C 513.834 -2.06793 0.964973 0
M  V30 5381 C 514.812 -1.62304 -0.0981472 0
M  V30 5382 O 515.996 -1.88464 0.0369477 0
M  V30 5383 C 513.123 -3.35636 0.454522 0
M  V30 5384 C 512.169 -3.99069 1.50485 0
M  V30 5385 S 513.002 -4.37814 3.0835 0
M  V30 5386 C 514.158 -5.69805 2.58985 0
M  V30 5387 H 514.391 -2.29556 1.88922 0
M  V30 5388 H 511.924 -1.11317 1.06995 0
M  V30 5389 H 513.882 -4.10162 0.166626 0
M  V30 5390 H 512.543 -3.10876 -0.448871 0
M  V30 5391 H 511.736 -4.91896 1.09792 0
M  V30 5392 H 511.338 -3.30938 1.7423 0
M  V30 5393 H 513.63 -6.46919 2.01252 0
M  V30 5394 H 514.573 -6.15345 3.50366 0
M  V30 5395 H 514.981 -5.27994 1.99705 0
M  V30 5396 N 514.379 -1.04941 -1.1758 0
M  V30 5397 C 515.625 -0.759112 -1.88057 0
M  V30 5398 C 515.958 0.711918 -1.8068 0
M  V30 5399 O 515.233 1.52035 -1.21308 0
M  V30 5400 C 515.516 -1.237 -3.38187 0
M  V30 5401 C 515.369 -2.77078 -3.54327 0
M  V30 5402 C 516.688 -0.834014 -4.32125 0
M  V30 5403 H 513.807 -0.277237 -0.682868 0
M  V30 5404 H 516.449 -1.30296 -1.38286 0
M  V30 5405 H 514.599 -0.774337 -3.80705 0
M  V30 5406 H 516.271 -3.31449 -3.20842 0
M  V30 5407 H 514.514 -3.16477 -2.96689 0
M  V30 5408 H 515.185 -3.05577 -4.59703 0
M  V30 5409 H 517.661 -1.23228 -3.97434 0
M  V30 5410 H 516.537 -1.19603 -5.35711 0
M  V30 5411 H 516.798 0.262195 -4.41322 0
M  V30 5412 N 515.857 1.33968 -0.830081 0
M  V30 5413 C 516.79 2.27303 -0.202182 0
M  V30 5414 C 517.768 1.49235 0.645581 0
M  V30 5415 O 518.952 1.78433 0.607762 0
M  V30 5416 C 516.079 3.31025 0.716932 0
M  V30 5417 C 515.125 4.26466 -0.0542271 0
M  V30 5418 S 515.958 5.16707 -1.40622 0
M  V30 5419 C 517.114 6.23962 -0.492167 0
M  V30 5420 H 517.347 2.8021 -0.99346 0
M  V30 5421 H 514.88 1.41124 -0.626359 0
M  V30 5422 H 516.838 3.91271 1.24165 0
M  V30 5423 H 515.499 2.76951 1.4818 0
M  V30 5424 H 514.692 4.99858 0.644785 0
M  V30 5425 H 514.294 3.7051 -0.509722 0
M  V30 5426 H 516.586 6.76774 0.31347 0
M  V30 5427 H 517.529 6.97927 -1.19599 0
M  V30 5428 H 517.937 5.64447 -0.0774176 0
M  V30 5429 N 517.335 0.585699 1.46312 0
M  V30 5430 C 518.245 -0.148236 2.34131 0
M  V30 5431 C 519.261 -0.882972 1.49932 0
M  V30 5432 O 520.437 -0.845484 1.82794 0
M  V30 5433 C 517.502 -1.14714 3.27172 0
M  V30 5434 C 516.563 -0.416746 4.27272 0
M  V30 5435 C 515.796 -1.36806 5.15868 0
M  V30 5436 O 516.019 -2.60475 5.07454 0
M  V30 5437 O 514.953 -0.877018 5.95476 0
M  V30 5438 H 518.779 0.572882 2.98248 0
M  V30 5439 H 516.364 0.346082 1.45336 0
M  V30 5440 H 518.246 -1.72303 3.84564 0
M  V30 5441 H 516.921 -1.84967 2.65648 0
M  V30 5442 H 515.828 0.201061 3.73559 0
M  V30 5443 H 517.161 0.244872 4.9159 0
M  V30 5444 N 518.813 -1.54241 0.323641 0
M  V30 5445 C 519.776 -2.22997 -0.529602 0
M  V30 5446 C 520.776 -1.22345 -1.04347 0
M  V30 5447 O 521.966 -1.46924 -0.935889 0
M  V30 5448 C 519.098 -2.93409 -1.73562 0
M  V30 5449 H 520.291 -2.99815 0.0714518 0
M  V30 5450 H 517.844 -1.56121 0.0747258 0
M  V30 5451 H 518.579 -2.20729 -2.37591 0
M  V30 5452 H 518.364 -3.67217 -1.37456 0
M  V30 5453 H 519.854 -3.45794 -2.34128 0
M  V30 5454 N 520.291 -0.0518155 -1.57515 0
M  V30 5455 C 521.537 0.622745 -1.93002 0
M  V30 5456 C 521.87 1.70456 -0.930499 0
M  V30 5457 O 521.145 1.94452 0.0434086 0
M  V30 5458 C 521.428 1.21824 -3.38867 0
M  V30 5459 C 521.281 0.144434 -4.49568 0
M  V30 5460 C 522.6 2.12968 -3.8514 0
M  V30 5461 H 519.719 0.22491 -0.701844 0
M  V30 5462 H 522.361 -0.113711 -1.89659 0
M  V30 5463 H 520.511 1.8459 -3.41846 0
M  V30 5464 H 522.183 -0.48753 -4.58717 0
M  V30 5465 H 520.426 -0.527424 -4.30582 0
M  V30 5466 H 521.097 0.601127 -5.48717 0
M  V30 5467 H 523.573 1.60163 -3.8404 0
M  V30 5468 H 522.449 2.51578 -4.87852 0
M  V30 5469 H 522.71 3.03004 -3.21934 0
M  V30 5470 N 521.769 1.56035 0.221574 0
M  V30 5471 C 523.015 1.79312 0.947372 0
M  V30 5472 C 523.348 0.621453 1.83988 0
M  V30 5473 O 522.623 -0.379287 1.90766 0
M  V30 5474 C 522.906 3.1267 1.78633 0
M  V30 5475 C 522.759 4.40284 0.920312 0
M  V30 5476 C 524.078 3.4247 2.7641 0
M  V30 5477 H 521.197 0.652328 0.342982 0
M  V30 5478 H 523.839 1.88765 0.216244 0
M  V30 5479 H 521.989 3.04741 2.40967 0
M  V30 5480 H 523.661 4.60232 0.313718 0
M  V30 5481 H 521.904 4.33212 0.225734 0
M  V30 5482 H 522.575 5.30033 1.54171 0
M  V30 5483 H 525.051 3.50526 2.24211 0
M  V30 5484 H 523.927 4.3695 3.32213 0
M  V30 5485 H 524.188 2.64635 3.54148 0
M  V30 5486 N 523.247 -0.488276 1.49845 0
M  V30 5487 C 524.21 -1.57069 1.66919 0
M  V30 5488 C 525.21 -1.51445 0.540479 0
M  V30 5489 O 526.4 -1.5437 0.807188 0
M  V30 5490 C 523.532 -2.96718 1.67844 0
M  V30 5491 H 524.725 -1.43254 2.63474 0
M  V30 5492 H 522.278 -0.713435 1.39068 0
M  V30 5493 H 523.013 -3.15996 0.7292 0
M  V30 5494 H 522.798 -3.02208 2.49826 0
M  V30 5495 H 524.288 -3.75335 1.83066 0
M  V30 5496 N 524.725 -1.39134 -0.740242 0
M  V30 5497 C 525.953 -1.39334 -1.5295 0
M  V30 5498 C 526.368 0.0135008 -1.88795 0
M  V30 5499 O 525.725 0.983524 -1.5373 0
M  V30 5500 C 525.776 -2.2614 -2.82034 0
M  V30 5501 O 525.497 -3.61345 -2.47712 0
M  V30 5502 C 526.998 -2.34666 -3.76094 0
M  V30 5503 H 524.218 -0.476103 -0.472828 0
M  V30 5504 H 526.762 -1.82883 -0.9151 0
M  V30 5505 H 524.917 -1.86018 -3.39818 0
M  V30 5506 H 525.331 -4.07194 -3.30595 0
M  V30 5507 H 526.805 -2.99663 -4.63579 0
M  V30 5508 H 527.282 -1.36426 -4.17474 0
M  V30 5509 H 527.888 -2.75236 -3.2423 0
M  V30 5510 N 526.204 0.969867 -1.24223 0
M  V30 5511 C 527.45 1.7151 -1.08223 0
M  V30 5512 C 527.783 1.90478 0.37838 0
M  V30 5513 O 527.058 1.4647 1.27971 0
M  V30 5514 C 527.341 3.10714 -1.82013 0
M  V30 5515 C 527.194 2.9925 -3.35811 0
M  V30 5516 C 528.513 4.10332 -1.59108 0
M  V30 5517 H 525.632 0.622499 -0.394543 0
M  V30 5518 H 528.274 1.1284 -1.52863 0
M  V30 5519 H 526.424 3.608 -1.44068 0
M  V30 5520 H 528.096 2.56608 -3.83341 0
M  V30 5521 H 526.339 2.35512 -3.64303 0
M  V30 5522 H 527.01 3.97857 -3.82641 0
M  V30 5523 H 529.486 3.69097 -1.92111 0
M  V30 5524 H 528.362 5.05804 -2.13198 0
M  V30 5525 H 528.623 4.38926 -0.528832 0
M  V30 5526 N 527.682 1.05563 1.17022 0
M  V30 5527 C 528.612 0.681026 2.23348 0
M  V30 5528 C 529.593 -0.322983 1.67005 0
M  V30 5529 O 530.778 -0.199746 1.9317 0
M  V30 5530 C 527.908 0.0589053 3.4725 0
M  V30 5531 C 526.862 0.988082 4.16438 0
M  V30 5532 C 526.188 0.229646 5.34207 0
M  V30 5533 C 527.488 2.31388 4.68249 0
M  V30 5534 H 529.182 1.56993 2.54938 0
M  V30 5535 H 526.728 0.756302 1.2254 0
M  V30 5536 H 528.681 -0.214982 4.20851 0
M  V30 5537 H 527.405 -0.864968 3.14938 0
M  V30 5538 H 526.064 1.24659 3.44754 0
M  V30 5539 H 525.712 -0.697111 4.98146 0
M  V30 5540 H 525.412 0.848815 5.81437 0
M  V30 5541 H 526.936 -0.0368694 6.10589 0
M  V30 5542 H 528.35 2.09964 5.33468 0
M  V30 5543 H 526.747 2.88736 5.26072 0
M  V30 5544 H 527.817 2.94982 3.84855 0
M  V30 5545 N 529.16 -1.33526 0.837174 0
M  V30 5546 C 530.123 -2.27551 0.274421 0
M  V30 5547 C 531.123 -1.50886 -0.555881 0
M  V30 5548 O 532.313 -1.70227 -0.369918 0
M  V30 5549 C 529.445 -3.35332 -0.613605 0
M  V30 5550 H 530.638 -2.78837 1.10408 0
M  V30 5551 H 528.191 -1.439 0.610126 0
M  V30 5552 H 528.926 -2.89285 -1.46577 0
M  V30 5553 H 528.711 -3.92095 -0.0195341 0
M  V30 5554 H 530.201 -4.05433 -1.00068 0
M  V30 5555 N 530.638 -0.59345 -1.46 0
M  V30 5556 C 531.57 0.171569 -2.28557 0
M  V30 5557 C 532.583 0.845273 -1.39137 0
M  V30 5558 O 533.772 0.713033 -1.6364 0
M  V30 5559 C 530.872 1.26311 -3.14482 0
M  V30 5560 C 530.045 0.679258 -4.32094 0
M  V30 5561 C 529.104 1.65987 -4.99334 0
M  V30 5562 O 528.13 1.19171 -5.56585 0
M  V30 5563 N 529.332 2.99414 -4.97324 0
M  V30 5564 H 532.097 -0.536771 -2.94854 0
M  V30 5565 H 529.658 -0.431954 -1.56031 0
M  V30 5566 H 531.65 1.91863 -3.5633 0
M  V30 5567 H 530.22 1.87416 -2.50188 0
M  V30 5568 H 529.44 -0.153992 -3.93899 0
M  V30 5569 H 530.728 0.26916 -5.08088 0
M  V30 5570 H 530.126 3.40064 -4.52076 0
M  V30 5571 H 528.683 3.60426 -5.4308 0
M  V30 5572 N 532.116 1.54067 -0.331816 0
M  V30 5573 C 533.026 2.28322 0.539104 0
M  V30 5574 C 534.042 1.32985 1.1221 0
M  V30 5575 O 535.218 1.6601 1.1403 0
M  V30 5576 C 532.283 3.03277 1.68 0
M  V30 5577 C 531.344 4.14216 1.12798 0
M  V30 5578 C 530.577 4.85588 2.2145 0
M  V30 5579 O 530.8 4.56536 3.41952 0
M  V30 5580 O 529.734 5.72309 1.86404 0
M  V30 5581 H 533.56 3.03632 -0.0641692 0
M  V30 5582 H 531.145 1.49083 -0.0972365 0
M  V30 5583 H 533.027 3.50189 2.34405 0
M  V30 5584 H 531.702 2.30834 2.2693 0
M  V30 5585 H 530.609 3.71635 0.428782 0
M  V30 5586 H 531.942 4.88727 0.583698 0
M  V30 5587 N 533.594 0.0601682 1.57485 0
M  V30 5588 C 534.843 -0.611101 1.9222 0
M  V30 5589 C 535.156 -1.71469 0.941159 0
M  V30 5590 O 536.362 -2.44473 1.18089 0
M  V30 5591 C 534.818 -1.13832 3.41424 0
M  V30 5592 C 534.426 -0.0663596 4.47951 0
M  V30 5593 C 536.17 -1.78432 3.85178 0
M  V30 5594 C 534.077 -0.606965 5.88277 0
M  V30 5595 H 533.007 -0.232033 0.71741 0
M  V30 5596 H 535.658 0.130518 1.83035 0
M  V30 5597 H 534.04 -1.93254 3.45643 0
M  V30 5598 H 535.214 0.707682 4.55333 0
M  V30 5599 H 533.529 0.482715 4.13593 0
M  V30 5600 H 536.126 -2.1989 4.87394 0
M  V30 5601 H 536.469 -2.63966 3.21913 0
M  V30 5602 H 537.002 -1.05651 3.83514 0
M  V30 5603 H 533.741 0.21095 6.5516 0
M  V30 5604 H 533.261 -1.34879 5.84438 0
M  V30 5605 H 534.94 -1.08704 6.37803 0
M  V30 5606 N 535.072 -1.5615 -0.213296 0
M  V30 5607 C 536.002 -1.96109 -1.26742 0
M  V30 5608 C 536.983 -0.830448 -1.48451 0
M  V30 5609 O 538.168 -1.09339 -1.60495 0
M  V30 5610 C 535.298 -2.28492 -2.61551 0
M  V30 5611 C 534.252 -3.44124 -2.54485 0
M  V30 5612 C 533.578 -3.62134 -3.93399 0
M  V30 5613 C 534.878 -4.78855 -2.08556 0
M  V30 5614 H 536.572 -2.84412 -0.935434 0
M  V30 5615 H 534.118 -1.36836 -0.44854 0
M  V30 5616 H 536.071 -2.55039 -3.3546 0
M  V30 5617 H 534.795 -1.37052 -2.96453 0
M  V30 5618 H 533.454 -3.17639 -1.83033 0
M  V30 5619 H 533.102 -2.68055 -4.25623 0
M  V30 5620 H 532.802 -4.39913 -3.89551 0
M  V30 5621 H 534.326 -3.91038 -4.68958 0
M  V30 5622 H 535.74 -5.04552 -2.72213 0
M  V30 5623 H 534.137 -5.59975 -2.1575 0
M  V30 5624 H 535.207 -4.73657 -1.03811 0
M  V30 5625 N 536.55 0.480323 -1.50102 0
M  V30 5626 C 537.46 1.60547 -1.71061 0
M  V30 5627 C 538.476 1.63564 -0.593529 0
M  V30 5628 O 539.652 1.81604 -0.870751 0
M  V30 5629 C 536.717 2.96814 -1.79171 0
M  V30 5630 C 535.778 3.04259 -3.02861 0
M  V30 5631 C 535.011 4.34027 -3.10574 0
M  V30 5632 O 535.234 5.24009 -2.25323 0
M  V30 5633 O 534.168 4.46873 -4.03223 0
M  V30 5634 H 537.994 1.45788 -2.6642 0
M  V30 5635 H 535.579 0.658838 -1.34088 0
M  V30 5636 H 537.461 3.77765 -1.86738 0
M  V30 5637 H 536.136 3.11791 -0.869947 0
M  V30 5638 H 535.043 2.22419 -3.008 0
M  V30 5639 H 536.376 2.94216 -3.94586 0
M  V30 5640 N 538.028 1.39524 0.732853 0
M  V30 5641 C 538.975 1.38416 1.84688 0
M  V30 5642 C 539.945 0.243539 1.64305 0
M  V30 5643 O 541.13 0.438979 1.85681 0
M  V30 5644 C 538.27 1.23555 3.22224 0
M  V30 5645 C 537.383 2.47179 3.54298 0
M  V30 5646 C 536.518 2.2489 4.81246 0
M  V30 5647 C 535.557 3.44178 5.0617 0
M  V30 5648 N 534.694 3.21192 6.24323 0
M  V30 5649 H 539.534 2.33645 1.84971 0
M  V30 5650 H 537.071 1.16059 0.903804 0
M  V30 5651 H 539.029 1.12949 4.0162 0
M  V30 5652 H 537.659 0.31954 3.21215 0
M  V30 5653 H 536.711 2.68379 2.69587 0
M  V30 5654 H 538.023 3.36022 3.68633 0
M  V30 5655 H 537.177 2.11538 5.68627 0
M  V30 5656 H 535.916 1.33443 4.69089 0
M  V30 5657 H 534.921 3.58025 4.17251 0
M  V30 5658 H 536.146 4.36528 5.20212 0
M  V30 5659 H 534.092 2.32413 6.1345 0
M  V30 5660 H 534.009 4.03594 6.39256 0
M  V30 5661 H 535.277 3.1154 7.14537 0
M  V30 5662 N 539.506 -0.963266 1.24736 0
M  V30 5663 C 540.753 -1.7068 1.0897 0
M  V30 5664 C 541.081 -1.90934 -0.370751 0
M  V30 5665 O 540.336 -1.47155 -1.29011 0
M  V30 5666 C 540.635 -3.09944 1.7796 0
M  V30 5667 C 540.301 -3.09518 3.27887 0
M  V30 5668 C 538.963 -3.09109 3.68789 0
M  V30 5669 C 541.315 -3.03509 4.23712 0
M  V30 5670 C 538.643 -3.00429 5.03944 0
M  V30 5671 C 540.995 -2.96371 5.5888 0
M  V30 5672 C 539.659 -2.94293 5.99123 0
M  V30 5673 H 538.929 -0.624564 0.398749 0
M  V30 5674 H 541.576 -1.12603 1.54896 0
M  V30 5675 H 539.881 -3.71513 1.2444 0
M  V30 5676 H 541.578 -3.66278 1.63222 0
M  V30 5677 H 538.168 -3.10603 2.95337 0
M  V30 5678 H 542.352 -3.0295 3.93109 0
M  V30 5679 H 537.608 -2.97183 5.34314 0
M  V30 5680 H 541.782 -2.90681 6.32833 0
M  V30 5681 H 539.409 -2.87322 7.03811 0
M  V30 5682 N 540.985 -1.06182 -1.16461 0
M  V30 5683 C 542.21 -0.798599 -1.91408 0
M  V30 5684 C 542.635 0.640987 -1.76842 0
M  V30 5685 O 541.993 1.44652 -1.09296 0
M  V30 5686 C 542.041 -1.19665 -3.40165 0
M  V30 5687 O 541.145 -0.334768 -4.11039 0
M  V30 5688 H 540.486 -0.291961 -0.596368 0
M  V30 5689 H 543.016 -1.41732 -1.47557 0
M  V30 5690 H 543.026 -1.16772 -3.90933 0
M  V30 5691 H 541.701 -2.24526 -3.50087 0
M  V30 5692 H 540.278 -0.425168 -3.70468 0
M  V30 5693 N 542.463 1.3308 -0.844243 0
M  V30 5694 C 543.688 2.02341 -0.455282 0
M  V30 5695 C 544.113 1.6308 0.93737 0
M  V30 5696 O 543.471 0.826118 1.61385 0
M  V30 5697 C 543.519 3.55743 -0.58988 0
M  V30 5698 O 542.623 4.1063 0.38166 0
M  V30 5699 H 541.964 0.637898 -0.184343 0
M  V30 5700 H 544.494 1.6986 -1.14056 0
M  V30 5701 H 544.504 4.05243 -0.473522 0
M  V30 5702 H 543.179 3.83662 -1.60549 0
M  V30 5703 H 541.756 3.72236 0.22241 0
M  V30 5704 N 543.941 0.601185 1.45683 0
M  V30 5705 C 545.218 0.0261659 1.95582 0
M  V30 5706 C 545.598 -1.4399 1.5437 0
M  V30 5707 O 544.946 -2.13919 0.80318 0
M  V30 5708 C 545.156 0.217557 3.48321 0
M  V30 5709 C 546.504 0.0950076 4.24494 0
M  V30 5710 O 547.528 0.147345 3.55895 0
M  V30 5711 O 546.387 -0.025261 5.46494 0
M  V30 5712 H 543.481 -0.0393688 0.826062 0
M  V30 5713 H 546.027 0.670798 1.55879 0
M  V30 5714 H 544.799 1.23601 3.71266 0
M  V30 5715 H 544.422 -0.46264 3.94899 0
M  V30 5716 N 545.419 -1.53889 0.339982 0
M  V30 5717 C 546.367 -2.26391 -0.533822 0
M  V30 5718 C 547.361 -1.28404 -1.10493 0
M  V30 5719 O 548.567 -1.46124 -1.05108 0
M  V30 5720 H 544.942 -0.727385 -0.190828 0
M  V30 5721 H 546.913 -2.98233 0.0997484 0
M  V30 5722 C 545.662 -3.04707 -1.67479 0
M  V30 5723 H 544.985 -3.79934 -1.2446 0
M  V30 5724 H 546.425 -3.58657 -2.26144 0
M  V30 5725 C 544.884 -2.13989 -2.60212 0
M  V30 5726 O 545.414 -1.73361 -3.62366 0
M  V30 5727 N 543.62 -1.79141 -2.28816 0
M  V30 5728 H 543.167 -2.12378 -1.45785 0
M  V30 5729 H 543.125 -1.18725 -2.91121 0
M  V30 5730 N 546.897 -0.0685191 -1.57451 0
M  V30 5731 C 547.827 0.89747 -2.15564 0
M  V30 5732 C 548.808 1.31266 -1.08181 0
M  V30 5733 O 549.993 1.38429 -1.36202 0
M  V30 5734 C 547.123 2.16623 -2.71463 0
M  V30 5735 C 546.077 1.89054 -3.83982 0
M  V30 5736 C 545.403 3.22532 -4.26471 0
M  V30 5737 C 546.703 1.1984 -5.08366 0
M  V30 5738 H 548.397 0.413373 -2.96533 0
M  V30 5739 H 545.943 0.197391 -1.42641 0
M  V30 5740 H 547.896 2.84614 -3.10761 0
M  V30 5741 H 546.62 2.67269 -1.8771 0
M  V30 5742 H 545.279 1.23469 -3.45183 0
M  V30 5743 H 544.927 3.71013 -3.39644 0
M  V30 5744 H 544.627 3.04879 -5.02317 0
M  V30 5745 H 546.151 3.91727 -4.68383 0
M  V30 5746 H 547.565 1.77896 -5.45001 0
M  V30 5747 H 545.962 1.12456 -5.89469 0
M  V30 5748 H 547.032 0.176996 -4.84577 0
M  V30 5749 N 548.375 1.56261 0.205012 0
M  V30 5750 C 549.285 1.96944 1.27476 0
M  V30 5751 C 550.301 0.875636 1.50362 0
M  V30 5752 O 551.477 1.18058 1.6317 0
M  V30 5753 C 548.542 2.29219 2.60115 0
M  V30 5754 C 547.603 3.52255 2.45387 0
M  V30 5755 C 546.836 3.8298 3.71701 0
M  V30 5756 O 547.059 3.15138 4.75441 0
M  V30 5757 O 545.993 4.76435 3.67823 0
M  V30 5758 H 549.819 2.88144 0.959527 0
M  V30 5759 H 547.404 1.43686 0.409217 0
M  V30 5760 H 549.286 2.51098 3.3842 0
M  V30 5761 H 547.961 1.4119 2.91285 0
M  V30 5762 H 546.868 3.35635 1.65227 0
M  V30 5763 H 548.201 4.40719 2.19152 0
M  V30 5764 N 549.853 -0.472356 1.50355 0
M  V30 5765 C 550.763 -1.59637 1.7191 0
M  V30 5766 C 551.779 -1.63247 0.602195 0
M  V30 5767 O 552.955 -1.81139 0.880369 0
M  V30 5768 C 550.02 -2.9586 1.80742 0
M  V30 5769 C 549.081 -3.02649 3.04471 0
M  V30 5770 C 548.314 -4.32374 3.12872 0
M  V30 5771 O 548.537 -5.22807 2.28099 0
M  V30 5772 O 547.471 -4.44728 4.05587 0
M  V30 5773 H 551.297 -1.44373 2.67189 0
M  V30 5774 H 548.882 -0.651717 1.34436 0
M  V30 5775 H 550.764 -3.7677 1.88739 0
M  V30 5776 H 549.439 -3.11325 0.88647 0
M  V30 5777 H 548.346 -2.20821 3.01975 0
M  V30 5778 H 549.679 -2.92119 3.9614 0
M  V30 5779 N 551.331 -1.39911 -0.725443 0
M  V30 5780 C 552.261 -1.42138 -1.85254 0
M  V30 5781 C 553.242 -0.283513 -1.67721 0
M  V30 5782 O 554.427 -0.490717 -1.87898 0
M  V30 5783 C 551.557 -1.27354 -3.23107 0
M  V30 5784 C 550.511 -2.3864 -3.55296 0
M  V30 5785 C 549.837 -2.08939 -4.92188 0
M  V30 5786 C 551.137 -3.8097 -3.57295 0
M  V30 5787 H 552.831 -2.36461 -1.83648 0
M  V30 5788 H 550.377 -1.13817 -0.882138 0
M  V30 5789 H 552.33 -1.2753 -4.01639 0
M  V30 5790 H 551.054 -0.295025 -3.25265 0
M  V30 5791 H 549.713 -2.37696 -2.79099 0
M  V30 5792 H 549.361 -1.09502 -4.90936 0
M  V30 5793 H 549.061 -2.83491 -5.14691 0
M  V30 5794 H 550.585 -2.10781 -5.73065 0
M  V30 5795 H 551.999 -3.8379 -4.25885 0
M  V30 5796 H 550.396 -4.5496 -3.9132 0
M  V30 5797 H 551.466 -4.11261 -2.5689 0
M  V30 5798 N 552.809 0.956637 -1.25245 0
M  V30 5799 C 553.756 2.053 -1.05454 0
M  V30 5800 C 554.726 1.66062 0.0356889 0
M  V30 5801 O 555.911 1.90415 -0.121099 0
M  V30 5802 C 553.051 3.38391 -0.677191 0
M  V30 5803 C 552.164 3.90758 -1.84206 0
M  V30 5804 C 551.299 5.12165 -1.40926 0
M  V30 5805 C 550.338 5.56757 -2.54338 0
M  V30 5806 N 549.475 6.69376 -2.11848 0
M  V30 5807 H 554.315 2.21562 -1.99284 0
M  V30 5808 H 551.852 1.08578 -0.992434 0
M  V30 5809 H 553.81 4.1488 -0.43938 0
M  V30 5810 H 552.44 3.22021 0.224127 0
M  V30 5811 H 551.492 3.10808 -2.19323 0
M  V30 5812 H 552.804 4.19802 -2.69383 0
M  V30 5813 H 551.958 5.96065 -1.13098 0
M  V30 5814 H 550.697 4.84832 -0.528175 0
M  V30 5815 H 549.702 4.71423 -2.82913 0
M  V30 5816 H 550.927 5.861 -3.43022 0
M  V30 5817 H 548.873 6.43756 -1.26153 0
M  V30 5818 H 548.79 6.97927 -2.90574 0
M  V30 5819 H 550.058 7.5669 -1.87191 0
M  V30 5820 N 554.287 1.06798 1.15896 0
M  V30 5821 C 555.197 0.694564 2.24083 0
M  V30 5822 C 556.213 -0.291687 1.71538 0
M  V30 5823 O 557.389 -0.139723 2.00915 0
M  V30 5824 C 554.454 0.0921014 3.46578 0
M  V30 5825 C 553.515 1.13087 4.14137 0
M  V30 5826 C 552.748 0.557064 5.30785 0
M  V30 5827 O 552.971 -0.628623 5.66925 0
M  V30 5828 O 551.905 1.29924 5.8771 0
M  V30 5829 H 555.731 1.59663 2.58344 0
M  V30 5830 H 553.316 0.840575 1.2351 0
M  V30 5831 H 555.198 -0.241884 4.20705 0
M  V30 5832 H 553.873 -0.78337 3.14078 0
M  V30 5833 H 552.78 1.51712 3.41957 0
M  V30 5834 H 554.113 1.97805 4.50704 0
M  V30 5835 N 555.766 -1.3263 0.851289 0
M  V30 5836 C 556.729 -2.27247 0.298541 0
M  V30 5837 C 557.729 -1.51467 -0.539847 0
M  V30 5838 O 558.919 -1.7061 -0.351843 0
M  V30 5839 C 556.051 -3.35964 -0.578004 0
M  V30 5840 H 557.244 -2.7765 1.13359 0
M  V30 5841 H 554.797 -1.43245 0.625354 0
M  V30 5842 H 555.532 -2.90823 -1.435 0
M  V30 5843 H 555.317 -3.92094 0.0220539 0
M  V30 5844 H 556.807 -4.06472 -0.957626 0
M  V30 5845 N 557.244 -0.608902 -1.45362 0
M  V30 5846 C 558.49 -0.104762 -2.02529 0
M  V30 5847 C 558.823 1.26191 -1.47613 0
M  V30 5848 O 558.098 1.8327 -0.65134 0
M  V30 5849 C 558.381 -0.0672661 -3.60037 0
M  V30 5850 C 558.234 -1.4647 -4.25284 0
M  V30 5851 C 559.553 0.619877 -4.35713 0
M  V30 5852 H 556.672 -0.0395438 -0.735938 0
M  V30 5853 H 559.314 -0.781126 -1.73201 0
M  V30 5854 H 557.464 0.50871 -3.85155 0
M  V30 5855 H 559.136 -2.08785 -4.11347 0
M  V30 5856 H 557.379 -2.02502 -3.83634 0
M  V30 5857 H 558.05 -1.39069 -5.34195 0
M  V30 5858 H 560.526 0.130297 -4.15896 0
M  V30 5859 H 559.402 0.615224 -5.45441 0
M  V30 5860 H 559.663 1.68621 -4.0868 0
M  V30 5861 N 558.722 1.53707 -0.348139 0
M  V30 5862 C 559.685 2.23812 0.494058 0
M  V30 5863 C 560.685 1.23989 1.02388 0
M  V30 5864 O 561.875 1.48395 0.912396 0
M  V30 5865 C 559.007 2.96133 1.68872 0
M  V30 5866 H 560.2 2.99663 -0.119141 0
M  V30 5867 H 557.753 1.55983 -0.0995539 0
M  V30 5868 H 558.488 2.24481 2.34049 0
M  V30 5869 H 558.273 3.69357 1.31596 0
M  V30 5870 H 559.763 3.49475 2.28597 0
M  V30 5871 N 560.2 0.0768682 1.57412 0
M  V30 5872 C 561.147 -0.888577 2.13009 0
M  V30 5873 C 562.117 -1.29198 1.0439 0
M  V30 5874 O 563.302 -1.37694 1.3208 0
M  V30 5875 C 560.442 -2.14899 2.70023 0
M  V30 5876 C 559.555 -1.79777 3.92816 0
M  V30 5877 C 558.69 -3.00467 4.38056 0
M  V30 5878 C 557.729 -2.61385 5.53484 0
M  V30 5879 N 556.866 -3.74851 5.93659 0
M  V30 5880 H 561.706 -0.407593 2.95199 0
M  V30 5881 H 559.243 -0.189534 1.45874 0
M  V30 5882 H 561.201 -2.88688 3.0119 0
M  V30 5883 H 559.831 -2.60529 1.9059 0
M  V30 5884 H 558.883 -0.960301 3.68079 0
M  V30 5885 H 560.195 -1.47027 4.76639 0
M  V30 5886 H 559.349 -3.82529 4.7091 0
M  V30 5887 H 558.088 -3.36413 3.53097 0
M  V30 5888 H 557.093 -1.77746 5.20275 0
M  V30 5889 H 558.318 -2.26603 6.40178 0
M  V30 5890 H 556.264 -4.1055 5.11649 0
M  V30 5891 H 556.181 -3.45887 6.72234 0
M  V30 5892 H 557.449 -4.57477 6.31138 0
M  V30 5893 N 561.678 -1.56367 -0.196722 0
M  V30 5894 C 562.628 -1.9082 -1.24787 0
M  V30 5895 C 563.612 -0.773719 -1.41076 0
M  V30 5896 O 564.804 -1.03655 -1.43474 0
M  V30 5897 C 561.933 -2.24982 -2.59303 0
M  V30 5898 C 561.019 -3.44882 -2.46814 0
M  V30 5899 N 561.41 -4.62835 -2.04003 0
M  V30 5900 C 559.708 -3.48988 -2.77711 0
M  V30 5901 C 560.409 -5.44993 -2.03366 0
M  V30 5902 N 559.385 -4.85356 -2.44807 0
M  V30 5903 H 563.187 -2.79516 -0.908175 0
M  V30 5904 H 560.701 -1.57265 -0.405166 0
M  V30 5905 H 562.698 -2.47848 -3.35227 0
M  V30 5906 H 561.358 -1.37611 -2.94098 0
M  V30 5907 H 562.369 -4.87532 -1.74738 0
M  V30 5908 H 559.046 -2.72029 -3.16712 0
M  V30 5909 H 560.436 -6.49464 -1.72181 0
M  V30 5910 N 563.156 0.464375 -1.50603 0
M  V30 5911 C 564.572 0.798684 -1.38178 0
M  V30 5912 C 564.772 1.96568 -0.44308 0
M  V30 5913 O 563.828 2.52252 0.111814 0
M  V30 5914 C 565.141 1.10444 -2.79683 0
M  V30 5915 C 566.689 1.2105 -2.88645 0
M  V30 5916 C 567.164 1.54934 -4.30998 0
M  V30 5917 N 568.655 1.61913 -4.3398 0
M  V30 5918 C 569.39 1.8965 -5.41129 0
M  V30 5919 N 568.886 2.15361 -6.58477 0
M  V30 5920 N 570.679 1.91207 -5.28579 0
M  V30 5921 H 562.83 -0.304603 -2.10204 0
M  V30 5922 H 565.093 -0.0737804 -0.945125 0
M  V30 5923 H 564.799 0.319934 -3.50242 0
M  V30 5924 H 564.673 2.03896 -3.17342 0
M  V30 5925 H 567.06 1.98567 -2.18301 0
M  V30 5926 H 567.141 0.255613 -2.5452 0
M  V30 5927 H 566.785 0.779549 -5.01882 0
M  V30 5928 H 566.715 2.51584 -4.62615 0
M  V30 5929 H 569.206 1.44055 -3.49366 0
M  V30 5930 H 569.519 2.35818 -7.35941 0
M  V30 5931 H 567.864 2.1274 -6.6164 0
M  V30 5932 H 571.055 1.70622 -4.35897 0
M  V30 5933 H 571.228 2.12488 -6.12171 0
M  V30 5934 N 564.634 1.40294 0.718013 0
M  V30 5935 C 565.911 1.2894 1.47084 0
M  V30 5936 C 566.291 -0.0933625 2.10893 0
M  V30 5937 O 565.639 -1.10598 1.99951 0
M  V30 5938 C 565.849 2.4264 2.50852 0
M  V30 5939 C 567.197 2.8276 3.16752 0
M  V30 5940 O 568.221 2.42215 2.61171 0
M  V30 5941 O 567.08 3.528 4.17366 0
M  V30 5942 H 564.174 0.506236 0.653952 0
M  V30 5943 H 566.72 1.52208 0.750394 0
M  V30 5944 H 565.492 3.35009 2.022 0
M  V30 5945 H 565.115 2.21129 3.30435 0
M  V30 5946 N 566.112 -0.949982 1.2575 0
M  V30 5947 C 567.342 -1.72721 1.13363 0
M  V30 5948 C 567.75 -1.86562 -0.314842 0
M  V30 5949 O 567.093 -1.36621 -1.22803 0
M  V30 5950 C 567.155 -3.15695 1.7198 0
M  V30 5951 C 566.819 -3.25268 3.21014 0
M  V30 5952 C 567.816 -3.09222 4.17945 0
M  V30 5953 C 565.501 -3.4894 3.61312 0
M  V30 5954 C 567.495 -3.16701 5.53154 0
M  V30 5955 C 565.182 -3.56055 4.96657 0
M  V30 5956 C 566.18 -3.3995 5.92387 0
M  V30 5957 O 565.868 -3.46757 7.25269 0
M  V30 5958 H 565.6 -0.547888 0.395973 0
M  V30 5959 H 568.154 -1.20009 1.66694 0
M  V30 5960 H 566.384 -3.69791 1.13101 0
M  V30 5961 H 568.073 -3.75295 1.54624 0
M  V30 5962 H 568.839 -2.90798 3.88151 0
M  V30 5963 H 564.718 -3.60534 2.87291 0
M  V30 5964 H 568.262 -3.04048 6.27854 0
M  V30 5965 H 564.159 -3.73997 5.26115 0
M  V30 5966 H 564.927 -3.63358 7.33426 0
M  V30 5967 N 567.59 -1.07411 -1.15328 0
M  V30 5968 C 568.818 -0.818782 -1.90009 0
M  V30 5969 C 569.233 0.628072 -1.78047 0
M  V30 5970 O 568.59 1.43085 -1.13282 0
M  V30 5971 C 568.641 -1.21874 -3.40337 0
M  V30 5972 O 568.362 -2.60883 -3.51954 0
M  V30 5973 C 569.863 -0.992796 -4.3204 0
M  V30 5974 H 567.083 -0.296007 -0.60218 0
M  V30 5975 H 569.627 -1.43073 -1.46117 0
M  V30 5976 H 567.782 -0.651103 -3.81889 0
M  V30 5977 H 568.196 -2.77216 -4.45255 0
M  V30 5978 H 569.67 -1.32215 -5.35932 0
M  V30 5979 H 570.147 0.0708331 -4.39143 0
M  V30 5980 H 570.753 -1.54537 -3.9623 0
M  V30 5981 N 569.068 1.32177 -0.85831 0
M  V30 5982 C 570.015 2.28794 -0.303607 0
M  V30 5983 C 570.985 1.55213 0.591453 0
M  V30 5984 O 572.17 1.83418 0.525585 0
M  V30 5985 C 569.31 3.41475 0.49889 0
M  V30 5986 C 568.423 4.2993 -0.422373 0
M  V30 5987 C 567.558 5.29743 0.393111 0
M  V30 5988 C 566.597 6.09842 -0.525317 0
M  V30 5989 N 565.734 7.01643 0.253208 0
M  V30 5990 H 570.574 2.75631 -1.13276 0
M  V30 5991 H 568.111 1.35606 -0.570026 0
M  V30 5992 H 570.069 4.05531 0.979826 0
M  V30 5993 H 568.699 2.95779 1.29284 0
M  V30 5994 H 567.751 3.66422 -1.02171 0
M  V30 5995 H 569.063 4.85899 -1.12709 0
M  V30 5996 H 568.217 5.9942 0.937056 0
M  V30 5997 H 566.956 4.744 1.13117 0
M  V30 5998 H 565.961 5.39066 -1.08112 0
M  V30 5999 H 567.186 6.6727 -1.26205 0
M  V30 6000 H 565.132 6.48725 0.974295 0
M  V30 6001 H 565.049 7.54981 -0.392398 0
M  V30 6002 H 566.317 7.756 0.778761 0
M  V30 6003 N 570.547 0.616602 1.45037 0
M  V30 6004 C 571.495 -0.109318 2.32343 0
M  V30 6005 C 572.489 -0.850543 1.465 0
M  V30 6006 O 573.695 -0.765088 1.62931 0
M  V30 6007 H 570.07 -0.0541091 0.750051 0
M  V30 6008 H 572.041 0.645326 2.91338 0
M  V30 6009 C 570.79 -1.0872 3.30266 0
M  V30 6010 H 570.113 -0.526267 3.96321 0
M  V30 6011 H 571.553 -1.56489 3.94065 0
M  V30 6012 C 570.012 -2.16525 2.58105 0
M  V30 6013 O 570.542 -3.244 2.36913 0
M  V30 6014 N 568.748 -1.92057 2.18088 0
M  V30 6015 H 568.295 -1.04337 2.35524 0
M  V30 6016 H 568.253 -2.64391 1.70131 0
M  V30 6017 N 572.025 -1.5352 0.356285 0
M  V30 6018 C 573.255 -2.05236 -0.236983 0
M  V30 6019 C 573.663 -1.23016 -1.43749 0
M  V30 6020 O 573.006 -0.2615 -1.81829 0
M  V30 6021 C 573.068 -3.52549 -0.7035 0
M  V30 6022 C 572.732 -4.55425 0.379059 0
M  V30 6023 C 573.729 -5.0524 1.22592 0
M  V30 6024 C 571.414 -4.99425 0.536638 0
M  V30 6025 C 573.408 -5.97647 2.21578 0
M  V30 6026 C 571.095 -5.9164 1.52988 0
M  V30 6027 C 572.093 -6.4064 2.3679 0
M  V30 6028 O 571.781 -7.31039 3.34421 0
M  V30 6029 H 571.513 -0.674346 -0.047254 0
M  V30 6030 H 574.067 -1.98962 0.510238 0
M  V30 6031 H 572.297 -3.56331 -1.50217 0
M  V30 6032 H 573.986 -3.87171 -1.21873 0
M  V30 6033 H 574.752 -4.72002 1.11532 0
M  V30 6034 H 570.631 -4.60879 -0.105834 0
M  V30 6035 H 574.175 -6.35816 2.87025 0
M  V30 6036 H 570.072 -6.24293 1.64099 0
M  V30 6037 H 570.84 -7.49009 3.30041 0
M  V30 6038 O 573.542 -0.225101 -1.59924 0
M  V30 6039 H 574.233 0.354711 -1.90425 0
M  V30 END ATOM
M  V30 BEGIN BOND
M  V30 END BOND
M  V30 END CTAB
M  END
$$$$
