drugbank_target|P0A3Y5 Aminoglycoside 3'-phosphotransferase (DB04395)
 OpenBabel12092120013D

  0  0  0     0  0            999 V3000
M  V30 BEGIN CTAB
M  V30 COUNTS 4286 4334 0 0 0
M  V30 BEGIN ATOM
M  V30 1 H -0.908 1.98254 -0.117106 0
M  V30 2 N 0 1.576 0 0
M  V30 3 C 0.933 2.03868 1.02534 0
M  V30 4 C 1.911 0.928543 1.3348 0
M  V30 5 O 3.095 1.19667 1.45644 0
M  V30 6 C 0.222 2.43627 2.35294 0
M  V30 7 C -0.732 3.65373 2.2001 0
M  V30 8 S 0.101 5.13292 1.52614 0
M  V30 9 C 1.257 5.56322 2.86805 0
M  V30 10 H 1.49 2.90518 0.631377 0
M  V30 11 H -0.977 1.52953 0.210867 0
M  V30 12 H 0.981 2.67203 3.11629 0
M  V30 13 H -0.358 1.57376 2.7183 0
M  V30 14 H -1.165 3.90944 3.18086 0
M  V30 15 H -1.563 3.418 1.51819 0
M  V30 16 H 0.729 5.58782 3.83104 0
M  V30 17 H 1.672 6.56266 2.65933 0
M  V30 18 H 2.08 4.83886 2.90714 0
M  V30 19 N 1.4781 -0.272755 1.55222 0
M  V30 20 C 2.4411 -1.32041 1.87344 0
M  V30 21 C 3.4411 -1.42342 0.74803 0
M  V30 22 O 4.6311 -1.41488 1.0162 0
M  V30 23 C 1.7631 -2.70173 2.07893 0
M  V30 24 H 2.9561 -1.04789 2.80997 0
M  V30 25 H 0.5091 -0.51083 1.47717 0
M  V30 26 H 1.2441 -3.02605 1.16622 0
M  V30 27 H 1.0291 -2.64082 2.89833 0
M  V30 28 H 2.5191 -3.45869 2.34017 0
M  V30 29 N 2.9562 -1.48159 -0.537278 0
M  V30 30 C 3.9032 -1.62138 -1.64256 0
M  V30 31 C 4.8732 -0.463668 -1.59497 0
M  V30 32 O 6.0582 -0.686241 -1.78032 0
M  V30 33 C 3.1982 -1.66028 -3.02537 0
M  V30 34 C 2.3112 -2.92855 -3.17585 0
M  V30 35 C 1.4462 -2.87952 -4.46382 0
M  V30 36 C 0.4852 -4.09516 -4.54932 0
M  V30 37 N -0.3778 -4.02733 -5.75109 0
M  V30 38 H 4.4622 -2.56529 -1.51647 0
M  V30 39 H 1.9992 -1.27224 -0.738414 0
M  V30 40 H 3.9572 -1.66265 -3.82638 0
M  V30 41 H 2.5872 -0.751331 -3.13934 0
M  V30 42 H 1.6392 -3.02395 -2.30784 0
M  V30 43 H 2.9512 -3.82822 -3.19764 0
M  V30 44 H 2.1052 -2.8655 -5.34765 0
M  V30 45 H 0.8442 -1.95702 -4.46712 0
M  V30 46 H -0.1508 -4.11201 -3.64957 0
M  V30 47 H 1.0742 -5.02917 -4.56346 0
M  V30 48 H -0.9798 -3.13299 -5.76351 0
M  V30 49 H -1.0628 -4.86397 -5.78752 0
M  V30 50 H 0.2052 -4.05379 -6.65799 0
M  V30 51 N 4.4343 0.785586 -1.36625 0
M  V30 52 C 5.3673 1.90509 -1.25625 0
M  V30 53 C 6.3453 1.62 -0.139607 0
M  V30 54 O 7.5293 1.8591 -0.31141 0
M  V30 55 C 4.6563 3.25419 -0.939158 0
M  V30 56 C 3.7023 3.72856 -2.07077 0
M  V30 57 S 4.5353 3.88162 -3.68904 0
M  V30 58 C 5.6913 5.25942 -3.39317 0
M  V30 59 H 5.9243 1.99549 -2.20381 0
M  V30 60 H 3.4573 0.945226 -1.22085 0
M  V30 61 H 5.4153 4.03346 -0.763029 0
M  V30 62 H 4.0763 3.14099 -0.00931402 0
M  V30 63 H 3.2693 4.70624 -1.80357 0
M  V30 64 H 2.8713 3.01989 -2.20632 0
M  V30 65 H 5.1633 6.10651 -2.93447 0
M  V30 66 H 6.1063 5.57668 -4.36363 0
M  V30 67 H 6.5143 4.93224 -2.74573 0
M  V30 68 N 5.9124 1.20967 1.01018 0
M  V30 69 C 7.3284 0.965905 1.27053 0
M  V30 70 C 7.5284 -0.350785 1.98423 0
M  V30 71 O 6.5844 -1.07773 2.28344 0
M  V30 72 C 7.8974 2.15294 2.09926 0
M  V30 73 C 9.4454 2.19463 2.23171 0
M  V30 74 C 9.9204 3.3767 3.09424 0
M  V30 75 N 11.4114 3.37724 3.17012 0
M  V30 76 C 12.1464 4.25837 3.83993 0
M  V30 77 N 11.6424 5.24138 4.53047 0
M  V30 78 N 13.4354 4.1366 3.80581 0
M  V30 79 H 5.5864 2.0565 0.531194 0
M  V30 80 H 7.8494 0.90024 0.297106 0
M  V30 81 H 7.5554 3.10684 1.64828 0
M  V30 82 H 7.4294 2.13923 3.10672 0
M  V30 83 H 9.8164 1.24632 2.6749 0
M  V30 84 H 9.8974 2.2488 1.21912 0
M  V30 85 H 9.5414 4.32791 2.65808 0
M  V30 86 H 9.4714 3.29491 4.10784 0
M  V30 87 H 11.9624 2.6658 2.6785 0
M  V30 88 H 12.2754 5.87684 5.01844 0
M  V30 89 H 10.6204 5.28068 4.5185 0
M  V30 90 H 13.8114 3.36127 3.25785 0
M  V30 91 H 13.9844 4.82538 4.32505 0
M  V30 92 N 7.3905 -1.2043 1.01659 0
M  V30 93 C 8.6395 -1.89118 0.701237 0
M  V30 94 C 8.9525 -1.79705 -0.772358 0
M  V30 95 O 10.1585 -2.43528 -1.20026 0
M  V30 96 C 8.6145 -3.39168 1.20388 0
M  V30 97 C 8.2225 -3.57166 2.70438 0
M  V30 98 C 9.9665 -4.1341 0.963953 0
M  V30 99 C 7.8735 -5.01042 3.14183 0
M  V30 100 H 6.8035 -0.708267 0.2586 0
M  V30 101 H 9.4545 -1.36239 1.22927 0
M  V30 102 H 7.8365 -3.91369 0.603824 0
M  V30 103 H 9.0105 -3.15351 3.35992 0
M  V30 104 H 7.3255 -2.96294 2.92572 0
M  V30 105 H 9.9225 -5.19491 1.26621 0
M  V30 106 H 10.2655 -4.16181 -0.099578 0
M  V30 107 H 10.7985 -3.67309 1.52738 0
M  V30 108 H 7.5375 -5.03426 4.19812 0
M  V30 109 H 7.0575 -5.43668 2.53348 0
M  V30 110 H 8.7365 -5.69623 3.0682 0
M  V30 111 N 8.8686 -0.792821 -1.36206 0
M  V30 112 C 10.0936 -0.377701 -2.03932 0
M  V30 113 C 10.5186 0.998947 -1.59382 0
M  V30 114 O 9.8766 1.64421 -0.763903 0
M  V30 115 C 9.9246 -0.453635 -3.57735 0
M  V30 116 O 9.0286 0.538151 -4.08874 0
M  V30 117 H 8.3696 -0.159855 -0.644471 0
M  V30 118 H 10.8996 -1.07488 -1.7409 0
M  V30 119 H 10.9096 -0.318464 -4.06755 0
M  V30 120 H 9.5846 -1.45784 -3.89512 0
M  V30 121 H 8.1616 0.364359 -3.71116 0
M  V30 122 N 10.3467 1.47872 -0.545128 0
M  V30 123 C 11.7577 1.86384 -0.108581 0
M  V30 124 C 12.1087 1.45309 1.31832 0
M  V30 125 O 11.2337 0.850641 1.9898 0
M  V30 126 C 11.8287 3.38265 -0.190274 0
M  V30 127 C 10.3877 3.75914 0.191164 0
M  V30 128 C 9.5347 2.71926 -0.543273 0
M  V30 129 H 12.4857 1.39561 -0.755537 0
M  V30 130 H 12.5067 3.75831 0.594217 0
M  V30 131 H 12.0187 3.6813 -1.2289 0
M  V30 132 H 10.1197 3.51665 1.23136 0
M  V30 133 H 10.2327 4.78836 -0.158987 0
M  V30 134 H 8.5967 2.54697 0.0122495 0
M  V30 135 H 9.3797 3.04634 -1.58282 0
M  V30 136 N 11.8248 0.280983 1.55075 0
M  V30 137 C 12.7348 -0.61388 2.26426 0
M  V30 138 C 13.7508 -1.16521 1.29224 0
M  V30 139 O 14.9268 -1.19426 1.62171 0
M  V30 140 C 11.9918 -1.7788 2.9759 0
M  V30 141 C 11.0528 -1.26355 4.10284 0
M  V30 142 C 10.2858 -2.37295 4.78045 0
M  V30 143 O 10.5088 -3.56777 4.45047 0
M  V30 144 O 9.4428 -2.05119 5.65871 0
M  V30 145 H 13.2688 -0.0356932 3.03679 0
M  V30 146 H 10.8538 0.0481686 1.49322 0
M  V30 147 H 12.7358 -2.45791 3.42293 0
M  V30 148 H 11.4108 -2.34397 2.23249 0
M  V30 149 H 10.3178 -0.550735 3.70024 0
M  V30 150 H 11.6508 -0.744065 4.86543 0
M  V30 151 N 13.3029 -1.57598 0.00835791 0
M  V30 152 C 14.2329 -2.1198 -0.979113 0
M  V30 153 C 15.2139 -1.03091 -1.35301 0
M  V30 154 O 16.3989 -1.30818 -1.43528 0
M  V30 155 C 13.5289 -2.62995 -2.26828 0
M  V30 156 C 12.4829 -3.76485 -2.03576 0
M  V30 157 C 11.8089 -4.13846 -3.38579 0
M  V30 158 C 13.1089 -5.0342 -1.39161 0
M  V30 159 H 14.8029 -2.94738 -0.526281 0
M  V30 160 H 12.3489 -1.41783 -0.251704 0
M  V30 161 H 14.3019 -2.99669 -2.96271 0
M  V30 162 H 13.0259 -1.7737 -2.7424 0
M  V30 163 H 11.6849 -3.40217 -1.36557 0
M  V30 164 H 11.3329 -3.25232 -3.83709 0
M  V30 165 H 11.0329 -4.90312 -3.23834 0
M  V30 166 H 12.5569 -4.53086 -4.09323 0
M  V30 167 H 13.9709 -5.37812 -1.98573 0
M  V30 168 H 12.3679 -5.84746 -1.34878 0
M  V30 169 H 13.4379 -4.83548 -0.361868 0
M  V30 170 N 14.781 0.264519 -1.55364 0
M  V30 171 C 15.728 1.32717 -1.88825 0
M  V30 172 C 16.698 1.48675 -0.740605 0
M  V30 173 O 17.883 1.62945 -0.992657 0
M  V30 174 C 15.023 2.68089 -2.17307 0
M  V30 175 C 14.136 2.60284 -3.44785 0
M  V30 176 C 13.271 3.87892 -3.62924 0
M  V30 177 C 12.31 3.74631 -4.84064 0
M  V30 178 N 11.447 4.94092 -4.98816 0
M  V30 179 H 16.287 1.03481 -2.79456 0
M  V30 180 H 13.824 0.499757 -1.3835 0
M  V30 181 H 15.782 3.46864 -2.31821 0
M  V30 182 H 14.412 2.95509 -1.299 0
M  V30 183 H 13.464 1.73173 -3.38697 0
M  V30 184 H 14.776 2.46388 -4.33698 0
M  V30 185 H 13.93 4.75109 -3.77302 0
M  V30 186 H 12.669 4.04664 -2.7221 0
M  V30 187 H 11.674 2.85797 -4.69681 0
M  V30 188 H 12.899 3.5937 -5.76221 0
M  V30 189 H 10.845 5.11259 -4.11036 0
M  V30 190 H 10.762 4.8276 -5.81789 0
M  V30 191 H 12.03 5.82857 -5.17588 0
M  V30 192 N 16.2591 1.48442 0.529413 0
M  V30 193 C 17.2061 1.63007 1.63394 0
M  V30 194 C 18.1761 0.47212 1.59249 0
M  V30 195 O 19.3611 0.695673 1.77666 0
M  V30 196 C 16.5011 1.6763 3.01653 0
M  V30 197 C 15.6141 2.94535 3.16027 0
M  V30 198 C 14.7491 2.90316 4.44849 0
M  V30 199 C 13.7881 4.11923 4.52754 0
M  V30 200 N 12.9251 4.05777 5.72965 0
M  V30 201 H 17.7651 2.5733 1.50285 0
M  V30 202 H 15.3021 1.27613 0.731656 0
M  V30 203 H 17.2601 1.68292 3.81751 0
M  V30 204 H 15.8901 0.76797 3.13532 0
M  V30 205 H 14.9421 3.03615 2.29177 0
M  V30 206 H 16.2541 3.84512 3.17729 0
M  V30 207 H 15.4081 2.89382 5.33238 0
M  V30 208 H 14.1471 1.98068 4.45668 0
M  V30 209 H 13.1521 4.13131 3.62771 0
M  V30 210 H 14.3771 5.0533 4.53672 0
M  V30 211 H 12.3231 3.16351 5.74681 0
M  V30 212 H 12.2401 4.8946 5.76164 0
M  V30 213 H 13.5081 4.08904 6.6364 0
M  V30 214 N 17.7372 -0.778329 1.37039 0
M  V30 215 C 18.6672 -1.90546 1.34962 0
M  V30 216 C 19.6482 -1.68681 0.219274 0
M  V30 217 O 20.8332 -1.89634 0.418624 0
M  V30 218 C 17.9632 -3.27734 1.14925 0
M  V30 219 C 16.9172 -3.64147 2.24902 0
M  V30 220 C 16.2432 -4.99806 1.89996 0
M  V30 221 C 17.5432 -3.71579 3.67051 0
M  V30 222 H 19.2372 -1.92541 2.29277 0
M  V30 223 H 16.7832 -0.924948 1.10366 0
M  V30 224 H 18.7362 -4.06215 1.12104 0
M  V30 225 H 17.4602 -3.26154 0.170631 0
M  V30 226 H 16.1192 -2.8797 2.26868 0
M  V30 227 H 15.7672 -4.94759 0.906796 0
M  V30 228 H 15.4672 -5.25139 2.63634 0
M  V30 229 H 16.9912 -5.80694 1.88749 0
M  V30 230 H 18.4052 -4.40227 3.67251 0
M  V30 231 H 16.8022 -4.08405 4.39688 0
M  V30 232 H 17.8722 -2.72404 4.01154 0
M  V30 233 N 19.2153 -1.21501 -1.00376 0
M  V30 234 C 20.4643 -1.02718 -1.73586 0
M  V30 235 C 20.7773 0.439589 -1.90596 0
M  V30 236 O 21.9833 0.746848 -2.61026 0
M  V30 237 C 20.4393 -1.78929 -3.1227 0
M  V30 238 C 20.0473 -3.29783 -3.03228 0
M  V30 239 C 21.7913 -1.68557 -3.89601 0
M  V30 240 C 19.6983 -3.98479 -4.36999 0
M  V30 241 H 18.6283 -0.380733 -0.650814 0
M  V30 242 H 21.2793 -1.45248 -1.1214 0
M  V30 243 H 19.6613 -1.29192 -3.74333 0
M  V30 244 H 20.8353 -3.86832 -2.50395 0
M  V30 245 H 19.1503 -3.40711 -2.39385 0
M  V30 246 H 21.7473 -2.17211 -4.88593 0
M  V30 247 H 22.0903 -0.644021 -4.11288 0
M  V30 248 H 22.6233 -2.15778 -3.34193 0
M  V30 249 H 19.3623 -5.02841 -4.20513 0
M  V30 250 H 18.8823 -3.46219 -4.89788 0
M  V30 251 H 20.5613 -4.03462 -5.05794 0
M  V30 252 N 20.6934 1.19889 -1.02296 0
M  V30 253 C 21.6034 2.26571 -0.608508 0
M  V30 254 C 22.6194 1.70299 0.356964 0
M  V30 255 O 23.7954 2.00235 0.216326 0
M  V30 256 C 20.8604 3.46677 0.0402814 0
M  V30 257 C 19.9214 4.18153 -0.97194 0
M  V30 258 C 19.1544 5.32525 -0.354016 0
M  V30 259 O 19.3774 5.64112 0.844604 0
M  V30 260 O 18.3114 5.92242 -1.07391 0
M  V30 261 H 22.1374 2.64251 -1.49684 0
M  V30 262 H 19.7224 1.26629 -0.792809 0
M  V30 263 H 21.6044 4.19475 0.402324 0
M  V30 264 H 20.2794 3.10858 0.902707 0
M  V30 265 H 19.1864 3.47499 -1.38546 0
M  V30 266 H 20.5194 4.57927 -1.80454 0
M  V30 267 N 22.1715 0.800033 1.35784 0
M  V30 268 C 23.1185 0.203848 2.29898 0
M  V30 269 C 24.0885 -0.658375 1.52495 0
M  V30 270 O 25.2735 -0.604832 1.8096 0
M  V30 271 C 22.4135 -0.64688 3.38983 0
M  V30 272 C 21.5265 0.235054 4.3136 0
M  V30 273 C 20.6615 -0.623054 5.27533 0
M  V30 274 C 19.7005 0.259682 6.11549 0
M  V30 275 N 18.8375 -0.558019 6.99879 0
M  V30 276 H 23.6775 1.01186 2.80295 0
M  V30 277 H 21.2145 0.51053 1.37957 0
M  V30 278 H 23.1725 -1.15521 4.00887 0
M  V30 279 H 21.8025 -1.42021 2.89879 0
M  V30 280 H 20.8545 0.861438 3.70518 0
M  V30 281 H 22.1665 0.914768 4.9034 0
M  V30 282 H 21.3205 -1.19678 5.94779 0
M  V30 283 H 20.0595 -1.33636 4.69034 0
M  V30 284 H 19.0645 0.845726 5.43256 0
M  V30 285 H 20.2895 0.970748 6.72126 0
M  V30 286 H 18.2355 -1.25542 6.43875 0
M  V30 287 H 18.1525 0.0637872 7.55973 0
M  V30 288 H 19.4205 -1.11523 7.71481 0
M  V30 289 N 23.6496 -1.47581 0.552962 0
M  V30 290 C 24.8796 -2.06575 0.0320091 0
M  V30 291 C 25.2876 -1.4067 -1.26525 0
M  V30 292 O 24.6306 -0.495808 -1.76883 0
M  V30 293 C 24.6926 -3.58705 -0.238913 0
M  V30 294 C 24.3566 -4.46625 0.968272 0
M  V30 295 C 25.3536 -4.85 1.87274 0
M  V30 296 C 23.0386 -4.88201 1.18175 0
M  V30 297 C 25.0326 -5.63745 2.9744 0
M  V30 298 C 22.7196 -5.66712 2.28651 0
M  V30 299 C 23.7176 -6.04394 3.18114 0
M  V30 300 O 23.4056 -6.81324 4.26676 0
M  V30 301 H 23.1376 -0.674763 0.0408689 0
M  V30 302 H 25.6916 -1.90634 0.764719 0
M  V30 303 H 23.9216 -3.72844 -1.02588 0
M  V30 304 H 25.6106 -3.99735 -0.704731 0
M  V30 305 H 26.3766 -4.53482 1.71984 0
M  V30 306 H 22.2556 -4.58339 0.494593 0
M  V30 307 H 25.7996 -5.93077 3.67296 0
M  V30 308 H 21.6966 -5.97642 2.43915 0
M  V30 309 H 22.4646 -6.99712 4.24671 0
M  V30 310 N 25.1277 -0.289203 -1.54924 0
M  V30 311 C 26.5437 0.0645403 -1.59469 0
M  V30 312 C 26.7437 1.53419 -1.30632 0
M  V30 313 O 25.7997 2.2852 -1.074 0
M  V30 314 C 27.1127 -0.32278 -2.98963 0
M  V30 315 C 28.6607 -0.270564 -3.11828 0
M  V30 316 C 29.1357 -0.632532 -4.53611 0
M  V30 317 N 30.6267 -0.584617 -4.59496 0
M  V30 318 C 31.3617 -0.837314 -5.67254 0
M  V30 319 N 30.8577 -1.15536 -6.83098 0
M  V30 320 N 32.6507 -0.765166 -5.56868 0
M  V30 321 H 24.8017 -1.24714 -1.71931 0
M  V30 322 H 27.0647 -0.504809 -0.802416 0
M  V30 323 H 26.7707 -1.34541 -3.24948 0
M  V30 324 H 26.6447 0.32944 -3.75759 0
M  V30 325 H 29.0317 0.742805 -2.85598 0
M  V30 326 H 29.1127 -0.957242 -2.37214 0
M  V30 327 H 28.7567 -1.64365 -4.80569 0
M  V30 328 H 28.6867 0.07609 -5.26545 0
M  V30 329 H 31.1777 -0.349248 -3.76283 0
M  V30 330 H 31.4907 -1.33447 -7.61191 0
M  V30 331 H 29.8357 -1.19328 -6.84679 0
M  V30 332 H 33.0267 -0.516432 -4.65243 0
M  V30 333 H 33.1997 -0.965477 -6.40767 0
M  V30 334 N 26.6058 1.57591 -0.0167156 0
M  V30 335 C 27.8458 1.93145 0.668902 0
M  V30 336 C 28.2098 0.892406 1.7 0
M  V30 337 O 29.4108 1.13373 2.43721 0
M  V30 338 C 27.6818 3.33678 1.28039 0
M  V30 339 S 29.2408 3.91142 1.9888 0
M  V30 340 H 26.0588 0.67593 0.220545 0
M  V30 341 H 28.6608 1.95347 -0.0774105 0
M  V30 342 H 27.3648 4.07126 0.517339 0
M  V30 343 H 26.8958 3.3489 2.06427 0
M  V30 344 H 28.9108 3.73571 3.26587 0
M  V30 345 N 28.0839 -0.256276 1.55502 0
M  V30 346 C 29.3299 -0.987079 1.77157 0
M  V30 347 C 29.6629 -1.85327 0.580315 0
M  V30 348 O 28.9379 -1.89874 -0.421686 0
M  V30 349 C 29.2209 -1.85553 3.08613 0
M  V30 350 C 29.0739 -1.01816 4.38125 0
M  V30 351 C 30.3929 -2.8397 3.36228 0
M  V30 352 H 27.5119 -0.357428 0.644526 0
M  V30 353 H 30.1539 -0.258239 1.88237 0
M  V30 354 H 28.3039 -2.47695 2.99298 0
M  V30 355 H 29.9759 -0.416159 4.59419 0
M  V30 356 H 28.2189 -0.322178 4.32602 0
M  V30 357 H 28.8899 -1.65939 5.26468 0
M  V30 358 H 31.3659 -2.31964 3.45445 0
M  V30 359 H 30.2419 -3.41864 4.29442 0
M  V30 360 H 30.5029 -3.59955 2.56681 0
M  V30 361 N 29.562 -1.4872 -0.521534 0
M  V30 362 C 30.509 -1.63871 -1.62527 0
M  V30 363 C 31.479 -0.480559 -1.58996 0
M  V30 364 O 32.664 -0.705085 -1.77294 0
M  V30 365 C 29.804 -1.69227 -3.00759 0
M  V30 366 C 28.917 -2.96207 -3.14461 0
M  V30 367 C 28.052 -2.92671 -4.43303 0
M  V30 368 C 27.091 -4.14318 -4.50563 0
M  V30 369 N 26.228 -4.0881 -5.70805 0
M  V30 370 H 31.068 -2.58123 -1.48918 0
M  V30 371 H 28.605 -1.28 -0.724878 0
M  V30 372 H 30.563 -1.70314 -3.80853 0
M  V30 373 H 29.193 -0.784586 -3.1312 0
M  V30 374 H 28.245 -3.04826 -2.27564 0
M  V30 375 H 29.557 -3.86192 -3.15686 0
M  V30 376 H 28.711 -2.92206 -5.31696 0
M  V30 377 H 27.45 -2.00429 -4.44612 0
M  V30 378 H 26.455 -4.15049 -3.60575 0
M  V30 379 H 27.68 -5.07729 -4.50986 0
M  V30 380 H 25.626 -3.19394 -5.72995 0
M  V30 381 H 25.543 -4.92509 -5.7356 0
M  V30 382 H 26.811 -4.12418 -6.61462 0
M  V30 383 N 31.0401 0.771051 -1.3745 0
M  V30 384 C 32.3171 1.519 -1.23231 0
M  V30 385 C 32.6971 2.10383 0.173809 0
M  V30 386 O 32.0451 1.95583 1.18151 0
M  V30 387 C 32.2551 2.59933 -2.32886 0
M  V30 388 C 33.6031 3.27316 -2.70461 0
M  V30 389 O 34.6271 2.70228 -2.32068 0
M  V30 390 O 33.4861 4.30531 -3.36608 0
M  V30 391 H 30.5801 0.672803 -0.480901 0
M  V30 392 H 33.1261 0.807957 -1.49232 0
M  V30 393 H 31.8981 2.14842 -3.27045 0
M  V30 394 H 31.5211 3.38637 -2.08353 0
M  V30 395 N 32.5182 1.22032 0.997298 0
M  V30 396 C 33.7462 1.06841 1.7718 0
M  V30 397 C 34.1612 -0.381325 1.84909 0
M  V30 398 O 33.5182 -1.26437 1.31605 0
M  V30 399 C 33.5692 1.66814 3.20711 0
M  V30 400 O 33.2902 3.06116 3.13408 0
M  V30 401 C 34.7912 1.56838 4.14628 0
M  V30 402 H 32.0112 0.374782 0.556578 0
M  V30 403 H 34.5552 1.61532 1.2541 0
M  V30 404 H 32.7102 1.16196 3.69564 0
M  V30 405 H 33.1242 3.34926 4.0364 0
M  V30 406 H 34.5982 2.03532 5.13107 0
M  V30 407 H 35.0752 0.524155 4.36061 0
M  V30 408 H 35.6812 2.06741 3.7167 0
M  V30 409 N 33.9963 -1.19345 1.0293 0
M  V30 410 C 34.9063 -2.26245 0.620515 0
M  V30 411 C 35.9223 -1.70486 -0.347928 0
M  V30 412 O 37.0983 -2.00347 -0.205704 0
M  V30 413 C 34.1633 -3.46693 -0.0218957 0
M  V30 414 C 33.2243 -4.17632 0.994102 0
M  V30 415 C 32.4573 -5.32329 0.382253 0
M  V30 416 O 32.6803 -5.64552 -0.814676 0
M  V30 417 O 31.6143 -5.91664 1.10531 0
M  V30 418 H 35.4403 -2.63453 1.51083 0
M  V30 419 H 33.0253 -1.26207 0.799513 0
M  V30 420 H 34.9073 -4.19683 -0.380072 0
M  V30 421 H 33.5823 -3.11333 -0.886209 0
M  V30 422 H 32.4893 -3.4676 1.40387 0
M  V30 423 H 33.8223 -4.56964 1.8288 0
M  V30 424 N 35.4744 -0.807222 -1.35358 0
M  V30 425 C 36.7224 -0.387122 -1.98358 0
M  V30 426 C 37.0434 1.04942 -1.64354 0
M  V30 427 O 36.3134 1.72615 -0.926339 0
M  V30 428 H 34.8934 -0.140154 -0.733734 0
M  V30 429 H 37.5554 -1.0332 -1.6526 0
M  V30 430 H 36.6514 -0.493352 -3.08176 0
M  V30 431 N 36.9525 1.47285 -0.560781 0
M  V30 432 C 37.8855 2.27009 0.232821 0
M  V30 433 C 38.8635 1.34273 0.917039 0
M  V30 434 O 40.0475 1.63659 0.935315 0
M  V30 435 C 37.1745 3.11406 1.33206 0
M  V30 436 C 36.2205 4.19746 0.756019 0
M  V30 437 S 37.0535 5.34003 -0.400165 0
M  V30 438 C 38.2095 6.21964 0.700805 0
M  V30 439 H 38.4425 2.93971 -0.443683 0
M  V30 440 H 35.9755 1.50446 -0.347181 0
M  V30 441 H 37.9335 3.60601 1.96156 0
M  V30 442 H 36.5945 2.438 1.98041 0
M  V30 443 H 35.7875 4.78541 1.5816 0
M  V30 444 H 35.3895 3.73451 0.202619 0
M  V30 445 H 37.6815 6.58529 1.59202 0
M  V30 446 H 38.6245 7.07941 0.150126 0
M  V30 447 H 39.0325 5.5566 0.995083 0
M  V30 448 N 38.4306 0.297415 1.54768 0
M  V30 449 C 39.6556 -0.318435 2.04941 0
M  V30 450 C 40.0806 -1.4701 1.17345 0
M  V30 451 O 39.4386 -1.80436 0.176758 0
M  V30 452 C 39.4866 -0.755749 3.52592 0
M  V30 453 O 38.5906 -1.86088 3.68028 0
M  V30 454 H 37.9316 -0.062421 0.661059 0
M  V30 455 H 40.4616 0.438215 1.99852 0
M  V30 456 H 40.4716 -1.04552 3.94376 0
M  V30 457 H 39.1466 0.0867233 4.1581 0
M  V30 458 H 37.7236 -1.57193 3.38149 0
M  V30 459 N 39.9087 -1.5758 0.0250728 0
M  V30 460 C 41.3197 -1.79476 -0.514323 0
M  V30 461 C 41.6707 -0.934956 -1.72491 0
M  V30 462 O 40.7957 -0.144245 -2.15919 0
M  V30 463 C 41.3907 -3.25503 -0.939842 0
M  V30 464 C 39.9497 -3.48408 -1.42438 0
M  V30 465 C 39.0967 -2.74583 -0.387201 0
M  V30 466 H 42.0477 -1.567 0.25113 0
M  V30 467 H 42.0687 -3.34992 -1.80445 0
M  V30 468 H 41.5807 -3.88056 -0.0585628 0
M  V30 469 H 39.6817 -2.91103 -2.32572 0
M  V30 470 H 39.7947 -4.57119 -1.43455 0
M  V30 471 H 38.1587 -2.39942 -0.854409 0
M  V30 472 H 38.9417 -3.39849 0.485543 0
M  V30 473 N 41.3868 0.248026 -1.55636 0
M  V30 474 C 42.3498 1.29044 -1.89421 0
M  V30 475 C 43.3498 1.41134 -0.770581 0
M  V30 476 O 44.5398 1.39854 -1.03858 0
M  V30 477 C 41.6718 2.66831 -2.12165 0
M  V30 478 H 42.8648 1.00305 -2.82629 0
M  V30 479 H 40.4178 0.487265 -1.48511 0
M  V30 480 H 41.1528 3.00711 -1.21422 0
M  V30 481 H 40.9378 2.59438 -2.93997 0
M  V30 482 H 42.4278 3.42103 -2.3949 0
M  V30 483 N 42.8649 1.48995 0.513639 0
M  V30 484 C 43.8119 1.6473 1.61656 0
M  V30 485 C 44.7819 0.488984 1.58739 0
M  V30 486 O 45.9669 0.714478 1.76918 0
M  V30 487 C 43.1069 1.7082 2.99858 0
M  V30 488 C 42.2199 2.9787 3.12885 0
M  V30 489 C 41.3549 2.95017 4.41744 0
M  V30 490 C 40.3939 4.16702 4.48359 0
M  V30 491 N 39.5309 4.11832 5.68629 0
M  V30 492 H 44.3709 2.58909 1.47547 0
M  V30 493 H 41.9079 1.28382 0.71808 0
M  V30 494 H 43.8659 1.72331 3.79944 0
M  V30 495 H 42.4959 0.801181 3.12699 0
M  V30 496 H 41.5479 3.06029 2.25944 0
M  V30 497 H 42.8599 3.8786 3.13633 0
M  V30 498 H 42.0139 2.95021 5.30139 0
M  V30 499 H 40.7529 2.02784 4.43542 0
M  V30 500 H 39.7579 4.16955 3.58369 0
M  V30 501 H 40.9829 5.10113 4.48287 0
M  V30 502 H 38.9289 3.22428 5.71293 0
M  V30 503 H 38.8459 4.95543 5.7094 0
M  V30 504 H 40.1139 4.1592 6.59266 0
M  V30 505 N 44.343 -0.763751 1.37857 0
M  V30 506 C 45.589 -1.52483 1.33704 0
M  V30 507 C 45.922 -1.94051 -0.0759612 0
M  V30 508 O 45.197 -1.64675 -1.03501 0
M  V30 509 C 45.48 -2.78441 2.28348 0
M  V30 510 C 45.333 -2.43075 3.78463 0
M  V30 511 C 46.652 -3.80415 2.21298 0
M  V30 512 H 43.771 -0.553169 0.487005 0
M  V30 513 H 46.413 -0.875562 1.68624 0
M  V30 514 H 44.563 -3.33842 1.987 0
M  V30 515 H 46.235 -1.93527 4.18742 0
M  V30 516 H 44.478 -1.75666 3.96641 0
M  V30 517 H 45.149 -3.33149 4.40132 0
M  V30 518 H 47.625 -3.34527 2.47449 0
M  V30 519 H 46.501 -4.66257 2.89647 0
M  V30 520 H 46.762 -4.25262 1.20849 0
M  V30 521 N 45.8211 -1.22559 -0.990812 0
M  V30 522 C 47.0511 -1.07623 -1.76355 0
M  V30 523 C 47.4591 0.37601 -1.85426 0
M  V30 524 O 46.8021 1.27228 -1.32509 0
M  V30 525 C 46.8641 -1.61507 -3.21179 0
M  V30 526 C 46.5281 -3.10146 -3.35646 0
M  V30 527 C 47.5251 -4.07553 -3.22796 0
M  V30 528 C 45.2101 -3.49644 -3.60631 0
M  V30 529 C 47.2041 -5.42442 -3.34716 0
M  V30 530 C 44.8911 -4.84682 -3.72192 0
M  V30 531 C 45.8891 -5.8089 -3.59243 0
M  V30 532 O 45.5771 -7.13476 -3.70415 0
M  V30 533 H 45.3091 -0.377745 -0.560611 0
M  V30 534 H 47.8631 -1.62658 -1.25425 0
M  V30 535 H 46.0931 -1.00881 -3.73309 0
M  V30 536 H 47.7821 -1.42202 -3.80175 0
M  V30 537 H 48.5481 -3.78381 -3.03403 0
M  V30 538 H 44.4271 -2.75282 -3.69785 0
M  V30 539 H 47.9711 -6.17518 -3.24526 0
M  V30 540 H 43.8681 -5.13534 -3.91092 0
M  V30 541 H 44.6361 -7.21083 -3.87275 0
M  V30 542 N 47.2992 1.18797 -1.03562 0
M  V30 543 C 48.2462 2.22253 -0.622259 0
M  V30 544 C 49.2162 1.61987 0.36736 0
M  V30 545 O 50.4012 1.88986 0.262492 0
M  V30 546 C 47.5412 3.45097 0.0138462 0
M  V30 547 C 46.6542 4.19722 -1.02263 0
M  V30 548 C 45.7892 5.30009 -0.355573 0
M  V30 549 C 44.8282 5.96399 -1.37749 0
M  V30 550 N 43.9652 6.98234 -0.735766 0
M  V30 551 H 48.8052 2.56968 -1.50903 0
M  V30 552 H 46.3422 1.26245 -0.755017 0
M  V30 553 H 48.3002 4.15279 0.399948 0
M  V30 554 H 46.9302 3.11018 0.864158 0
M  V30 555 H 45.9822 3.48418 -1.52673 0
M  V30 556 H 47.2942 4.65227 -1.79903 0
M  V30 557 H 46.4482 6.0664 0.0850095 0
M  V30 558 H 45.1872 4.85592 0.452967 0
M  V30 559 H 44.1922 5.18512 -1.82826 0
M  V30 560 H 45.4172 6.42899 -2.18764 0
M  V30 561 H 43.3632 6.55979 0.0525597 0
M  V30 562 H 43.2802 7.41965 -1.44995 0
M  V30 563 H 44.5482 7.78845 -0.31941 0
M  V30 564 N 48.7773 0.814389 1.34928 0
M  V30 565 C 49.7073 0.244827 2.32213 0
M  V30 566 C 50.6883 -0.634024 1.57842 0
M  V30 567 O 51.8733 -0.562676 1.8587 0
M  V30 568 C 49.0033 -0.601106 3.42058 0
M  V30 569 C 47.9573 0.179896 4.27622 0
M  V30 570 C 47.2833 -0.788237 5.28858 0
M  V30 571 C 48.5833 1.38329 5.03649 0
M  V30 572 H 50.2773 1.05763 2.80097 0
M  V30 573 H 47.8233 0.510029 1.34665 0
M  V30 574 H 49.7763 -1.00968 4.09125 0
M  V30 575 H 48.5003 -1.44688 2.92802 0
M  V30 576 H 47.1593 0.569739 3.62146 0
M  V30 577 H 46.8073 -1.62973 4.75866 0
M  V30 578 H 46.5073 -0.269942 5.8698 0
M  V30 579 H 48.0313 -1.19485 5.98795 0
M  V30 580 H 49.4453 1.04918 5.63618 0
M  V30 581 H 47.8423 1.83662 5.71304 0
M  V30 582 H 48.9123 2.16592 4.33839 0
M  V30 583 N 50.2554 -1.46986 0.568584 0
M  V30 584 C 51.5014 -2.02741 0.0488709 0
M  V30 585 C 51.8344 -1.44077 -1.30214 0
M  V30 586 O 51.1094 -0.600552 -1.84996 0
M  V30 587 C 51.3924 -3.60086 -0.032047 0
M  V30 588 C 51.2454 -4.29162 1.34686 0
M  V30 589 C 52.5644 -4.33838 -0.739798 0
M  V30 590 H 49.6834 -0.736749 0.0192338 0
M  V30 591 H 52.3254 -1.75289 0.733065 0
M  V30 592 H 50.4754 -3.83606 -0.61473 0
M  V30 593 H 52.1474 -4.16948 1.97362 0
M  V30 594 H 50.3904 -3.89073 1.91846 0
M  V30 595 H 51.0614 -5.37826 1.24285 0
M  V30 596 H 53.5374 -4.15378 -0.244939 0
M  V30 597 H 52.4134 -5.43537 -0.765406 0
M  V30 598 H 52.6744 -4.03875 -1.79827 0
M  V30 599 N 51.7335 -0.305618 -1.54608 0
M  V30 600 C 52.9815 0.301701 -1.99835 0
M  V30 601 C 53.3025 1.54054 -1.19551 0
M  V30 602 O 52.5725 1.93702 -0.292658 0
M  V30 603 H 51.1525 0.114468 -0.738178 0
M  V30 604 H 53.8145 -0.418016 -1.90364 0
M  V30 605 H 52.9105 0.570548 -3.06841 0
M  V30 606 N 53.2116 1.57565 -0.0334293 0
M  V30 607 C 54.1216 2.13943 0.962572 0
M  V30 608 C 55.1376 1.09276 1.35406 0
M  V30 609 O 56.3136 1.41355 1.4346 0
M  V30 610 C 53.3786 2.65887 2.22497 0
M  V30 611 C 52.4396 3.85286 1.8935 0
M  V30 612 C 51.6726 4.34743 3.09571 0
M  V30 613 O 51.8956 3.83352 4.22371 0
M  V30 614 O 50.8296 5.26538 2.91618 0
M  V30 615 H 54.6556 2.99333 0.513169 0
M  V30 616 H 52.2406 1.4822 0.18743 0
M  V30 617 H 54.1226 2.99346 2.96598 0
M  V30 618 H 52.7976 1.83578 2.6661 0
M  V30 619 H 51.7046 3.56746 1.1262 0
M  V30 620 H 53.0376 4.68771 1.5005 0
M  V30 621 N 54.6897 -0.239769 1.55765 0
M  V30 622 C 55.6377 -1.31668 1.91745 0
M  V30 623 C 56.6317 -1.49462 0.797338 0
M  V30 624 O 57.8377 -1.50852 0.982021 0
M  V30 625 H 54.2127 -0.441048 0.609082 0
M  V30 626 H 56.1837 -0.985923 2.81642 0
M  V30 627 C 54.9327 -2.66368 2.2348 0
M  V30 628 H 54.2557 -2.53478 3.09175 0
M  V30 629 H 55.6957 -3.40578 2.52553 0
M  V30 630 C 54.1547 -3.20002 1.05359 0
M  V30 631 O 54.6847 -4.00538 0.305261 0
M  V30 632 N 52.8907 -2.78126 0.842292 0
M  V30 633 H 52.4377 -2.12742 1.45253 0
M  V30 634 H 52.3957 -3.14354 0.053652 0
M  V30 635 N 56.1678 -1.49265 -0.50573 0
M  V30 636 C 57.0778 -1.68312 -1.63427 0
M  V30 637 C 58.0938 -0.565682 -1.64548 0
M  V30 638 O 59.2698 -0.839801 -1.83055 0
M  V30 639 C 56.3348 -1.74107 -2.99813 0
M  V30 640 C 55.3958 -2.97653 -3.09356 0
M  V30 641 C 54.6288 -3.03163 -4.39236 0
M  V30 642 O 54.8518 -2.16396 -5.27758 0
M  V30 643 O 53.7858 -3.9558 -4.53652 0
M  V30 644 H 57.6118 -2.63907 -1.50289 0
M  V30 645 H 55.1968 -1.32951 -0.681502 0
M  V30 646 H 57.0788 -1.803 -3.80881 0
M  V30 647 H 55.7538 -0.816901 -3.13223 0
M  V30 648 H 54.6608 -2.96981 -2.27493 0
M  V30 649 H 55.9938 -3.89535 -3.00871 0
M  V30 650 N 57.6459 0.756429 -1.3826 0
M  V30 651 C 58.5939 1.89149 -1.35372 0
M  V30 652 C 59.5879 1.67691 -0.24004 0
M  V30 653 O 60.7939 1.75294 -0.408919 0
M  V30 654 H 57.1689 0.622271 -0.422236 0
M  V30 655 H 59.1399 1.88701 -2.31159 0
M  V30 656 C 57.8889 3.26599 -1.19284 0
M  V30 657 H 57.2119 3.43695 -2.0424 0
M  V30 658 H 58.6519 4.06274 -1.21316 0
M  V30 659 C 57.1109 3.3675 0.100454 0
M  V30 660 O 57.6409 3.86951 1.07851 0
M  V30 661 N 55.8469 2.90179 0.15633 0
M  V30 662 H 55.3939 2.49517 -0.640253 0
M  V30 663 H 55.3519 2.97352 1.02123 0
M  V30 664 N 59.124 1.23083 0.984299 0
M  V30 665 C 60.054 1.03292 2.09411 0
M  V30 666 C 61.035 -0.048923 1.7003 0
M  V30 667 O 62.22 0.114967 1.93859 0
M  V30 668 C 59.35 0.619155 3.41736 0
M  V30 669 C 58.304 1.64791 3.95004 0
M  V30 670 C 57.63 1.0897 5.23478 0
M  V30 671 C 58.93 3.03999 4.24714 0
M  V30 672 H 60.624 1.96119 2.26225 0
M  V30 673 H 58.17 0.944344 1.08711 0
M  V30 674 H 60.123 0.467777 4.18796 0
M  V30 675 H 58.847 -0.344786 3.24775 0
M  V30 676 H 57.506 1.78721 3.20085 0
M  V30 677 H 57.154 0.11686 5.02864 0
M  V30 678 H 56.854 1.77704 5.60085 0
M  V30 679 H 58.378 0.950093 6.03163 0
M  V30 680 H 59.792 2.93393 4.92538 0
M  V30 681 H 58.189 3.69936 4.72512 0
M  V30 682 H 59.259 3.53285 3.32142 0
M  V30 683 N 60.6021 -1.18246 1.0419 0
M  V30 684 C 61.8321 -1.91916 0.764961 0
M  V30 685 C 62.2401 -1.76485 -0.681898 0
M  V30 686 O 61.5831 -1.09275 -1.47664 0
M  V30 687 C 61.6451 -3.4373 1.05309 0
M  V30 688 C 61.3091 -3.8294 2.4941 0
M  V30 689 C 62.3061 -3.86621 3.47592 0
M  V30 690 C 59.9911 -4.142 2.84155 0
M  V30 691 C 61.9851 -4.21013 4.78568 0
M  V30 692 C 59.6721 -4.48262 4.15337 0
M  V30 693 C 60.6701 -4.51645 5.12353 0
M  V30 694 O 60.3581 -4.84911 6.41183 0
M  V30 695 H 60.0901 -0.61606 0.278292 0
M  V30 696 H 62.6441 -1.50947 1.39299 0
M  V30 697 H 60.8741 -3.84946 0.367933 0
M  V30 698 H 62.5631 -3.9865 0.763752 0
M  V30 699 H 63.3291 -3.62607 3.22089 0
M  V30 700 H 59.2081 -4.10743 2.09311 0
M  V30 701 H 62.7521 -4.23568 5.54289 0
M  V30 702 H 58.6491 -4.71737 4.40607 0
M  V30 703 H 59.4171 -5.02809 6.45852 0
M  V30 704 N 62.0802 -0.821533 -1.34494 0
M  V30 705 C 63.0102 -0.257138 -2.3208 0
M  V30 706 C 63.9912 0.625645 -1.58176 0
M  V30 707 O 65.1762 0.552811 -1.86166 0
M  V30 708 C 62.3062 0.582958 -3.42372 0
M  V30 709 C 61.2602 -0.202571 -4.2752 0
M  V30 710 C 60.5862 0.760179 -5.29269 0
M  V30 711 C 61.8862 -1.40998 -5.02908 0
M  V30 712 H 63.5802 -1.07247 -2.79532 0
M  V30 713 H 61.1262 -0.517163 -1.34393 0
M  V30 714 H 63.0792 0.987972 -4.09655 0
M  V30 715 H 61.8032 1.43133 -2.93565 0
M  V30 716 H 60.4622 -0.588936 -3.61838 0
M  V30 717 H 60.1102 1.60447 -4.76724 0
M  V30 718 H 59.8102 0.238809 -5.87115 0
M  V30 719 H 61.3342 1.16308 -5.9942 0
M  V30 720 H 62.7482 -1.07905 -5.63054 0
M  V30 721 H 61.1452 -1.86689 -5.70322 0
M  V30 722 H 62.2152 -2.1889 -4.32684 0
M  V30 723 N 63.5583 1.46682 -0.576371 0
M  V30 724 C 64.5053 2.30241 0.160499 0
M  V30 725 C 65.4753 1.40233 0.890162 0
M  V30 726 O 66.6603 1.69186 0.882084 0
M  V30 727 C 63.8003 3.24578 1.1723 0
M  V30 728 C 62.9133 4.29684 0.446736 0
M  V30 729 C 62.0483 5.11154 1.44551 0
M  V30 730 C 61.0873 6.08015 0.70599 0
M  V30 731 N 60.2243 6.82376 1.65251 0
M  V30 732 H 65.0643 2.92727 -0.558127 0
M  V30 733 H 62.6013 1.44272 -0.287056 0
M  V30 734 H 64.5593 3.77711 1.77172 0
M  V30 735 H 63.1893 2.63916 1.85872 0
M  V30 736 H 62.2413 3.79458 -0.267594 0
M  V30 737 H 63.5533 4.98626 -0.131686 0
M  V30 738 H 62.7073 5.68533 2.11791 0
M  V30 739 H 61.4463 4.42158 2.05786 0
M  V30 740 H 60.4513 5.49796 0.0197725 0
M  V30 741 H 61.6763 6.79028 0.09912 0
M  V30 742 H 59.6223 6.16094 2.25308 0
M  V30 743 H 59.5393 7.47556 1.12673 0
M  V30 744 H 60.8073 7.44316 2.31546 0
M  V30 745 N 65.0364 0.313813 1.54444 0
M  V30 746 C 65.9694 -0.598866 2.20202 0
M  V30 747 C 66.9474 -1.12318 1.17573 0
M  V30 748 O 68.1314 -1.18899 1.46271 0
M  V30 749 C 65.2584 -1.82071 2.85601 0
M  V30 750 C 64.3044 -1.42851 4.01865 0
M  V30 751 S 65.1374 -0.473512 5.33402 0
M  V30 752 C 66.2934 -1.70286 6.0229 0
M  V30 753 H 66.5264 -0.0402532 2.97273 0
M  V30 754 H 64.0594 0.0979165 1.54089 0
M  V30 755 H 66.0174 -2.52184 3.23904 0
M  V30 756 H 64.6784 -2.3505 2.08351 0
M  V30 757 H 63.8714 -2.33871 4.46453 0
M  V30 758 H 63.4734 -0.807198 3.65185 0
M  V30 759 H 65.7654 -2.64168 6.23876 0
M  V30 760 H 66.7084 -1.29932 6.96077 0
M  V30 761 H 67.1164 -1.88541 5.32083 0
M  V30 762 N 66.5145 -1.57545 0.0417849 0
M  V30 763 C 67.7425 -1.96624 -0.643928 0
M  V30 764 C 68.1575 -0.918897 -1.64929 0
M  V30 765 O 67.5145 0.0979323 -1.82237 0
M  V30 766 C 67.5655 -3.35781 -1.33914 0
M  V30 767 O 67.2865 -4.365 -0.374048 0
M  V30 768 C 68.7875 -3.89566 -2.1155 0
M  V30 769 H 66.0075 -0.647316 -0.176702 0
M  V30 770 H 68.5515 -2.04229 0.105304 0
M  V30 771 H 66.7065 -3.29357 -2.03968 0
M  V30 772 H 67.1205 -5.17248 -0.869179 0
M  V30 773 H 68.5945 -4.89242 -2.55628 0
M  V30 774 H 69.0715 -3.24488 -2.9598 0
M  V30 775 H 69.6775 -3.99298 -1.46427 0
M  V30 776 N 67.9926 0.231505 -1.5589 0
M  V30 777 C 69.2696 0.981096 -1.69215 0
M  V30 778 C 69.6496 2.02799 -0.586164 0
M  V30 779 O 68.9976 2.24823 0.408253 0
M  V30 780 C 69.2076 1.60054 -3.10135 0
M  V30 781 C 70.5556 2.09658 -3.69227 0
M  V30 782 O 71.5796 1.69967 -3.13033 0
M  V30 783 O 70.4386 2.8258 -4.67772 0
M  V30 784 H 67.5326 0.457653 -0.688827 0
M  V30 785 H 70.0786 0.224073 -1.68214 0
M  V30 786 H 68.8506 0.844105 -3.82087 0
M  V30 787 H 68.4736 2.42336 -3.15212 0
M  V30 788 N 69.4707 1.49531 0.497807 0
M  V30 789 C 70.6957 1.63159 1.28039 0
M  V30 790 C 71.1207 0.30418 1.85624 0
M  V30 791 O 70.4787 -0.728618 1.66015 0
M  V30 792 C 70.5267 2.70537 2.38416 0
M  V30 793 O 69.6307 2.29931 3.42353 0
M  V30 794 H 68.9717 0.546001 0.377861 0
M  V30 795 H 71.5017 1.9574 0.59558 0
M  V30 796 H 71.5117 2.92802 2.84132 0
M  V30 797 H 70.1867 3.6689 1.95869 0
M  V30 798 H 68.7637 2.18009 3.02533 0
M  V30 799 N 70.9488 -0.749086 1.3866 0
M  V30 800 C 72.3648 -1.05276 1.19955 0
M  V30 801 C 72.5648 -2.01435 0.05134 0
M  V30 802 O 71.6208 -2.45232 -0.60147 0
M  V30 803 C 72.9338 -1.62853 2.52783 0
M  V30 804 C 74.4818 -1.75002 2.59506 0
M  V30 805 C 74.9568 -2.35991 3.92521 0
M  V30 806 N 76.4478 -2.43416 3.94085 0
M  V30 807 C 77.1828 -2.91511 4.9377 0
M  V30 808 N 76.6788 -3.39608 6.03853 0
M  V30 809 N 78.4718 -2.90592 4.81157 0
M  V30 810 H 70.6228 -0.111066 2.12109 0
M  V30 811 H 72.8858 -0.111901 0.941373 0
M  V30 812 H 72.5918 -0.99664 3.37283 0
M  V30 813 H 72.4658 -2.61854 2.715 0
M  V30 814 H 74.8528 -2.37317 1.75398 0
M  V30 815 H 74.9338 -0.74693 2.44652 0
M  V30 816 H 74.5778 -1.74308 4.77053 0
M  V30 817 H 74.5078 -3.3695 4.04688 0
M  V30 818 H 76.9988 -2.09405 3.14576 0
M  V30 819 H 77.3118 -3.74775 6.75843 0
M  V30 820 H 75.6568 -3.37653 6.07466 0
M  V30 821 H 78.8478 -2.52332 3.94267 0
M  V30 822 H 79.0208 -3.27762 5.58996 0
M  V30 823 N 72.4269 -1.23603 -0.977757 0
M  V30 824 C 73.6569 -1.09487 -1.75203 0
M  V30 825 C 74.0649 0.356321 -1.85814 0
M  V30 826 O 73.4079 1.25816 -1.33851 0
M  V30 827 C 73.4699 -1.64905 -3.19447 0
M  V30 828 C 73.1339 -3.13688 -3.32338 0
M  V30 829 C 74.1309 -4.10953 -3.18455 0
M  V30 830 C 71.8159 -3.53449 -3.56902 0
M  V30 831 C 73.8099 -5.45962 -3.28944 0
M  V30 832 C 71.4969 -4.88602 -3.6703 0
M  V30 833 C 72.4949 -5.84668 -3.53062 0
M  V30 834 O 72.1829 -7.17365 -3.62826 0
M  V30 835 H 71.9149 -0.38367 -0.556573 0
M  V30 836 H 74.4689 -1.6398 -1.23693 0
M  V30 837 H 72.6989 -1.04835 -3.72218 0
M  V30 838 H 74.3879 -1.46226 -3.78646 0
M  V30 839 H 75.1539 -3.81577 -2.99372 0
M  V30 840 H 71.0329 -2.79188 -3.66844 0
M  V30 841 H 74.5769 -6.20925 -3.17958 0
M  V30 842 H 70.4739 -5.17653 -3.85623 0
M  V30 843 H 71.2419 -7.2515 -3.79605 0
M  V30 844 N 73.905 1.17692 -1.04816 0
M  V30 845 C 74.852 2.21581 -0.645797 0
M  V30 846 C 75.822 1.62367 0.350159 0
M  V30 847 O 77.007 1.89254 0.242433 0
M  V30 848 C 74.147 3.45092 -0.0227568 0
M  V30 849 C 73.26 4.18613 -1.06709 0
M  V30 850 C 72.395 5.29602 -0.411767 0
M  V30 851 C 71.434 5.94904 -1.44067 0
M  V30 852 N 70.571 6.97414 -0.809781 0
M  V30 853 H 75.411 2.55353 -1.5362 0
M  V30 854 H 72.948 1.25438 -0.768364 0
M  V30 855 H 74.906 4.15679 0.35588 0
M  V30 856 H 73.536 3.11917 0.831122 0
M  V30 857 H 72.588 3.46779 -1.5636 0
M  V30 858 H 73.9 4.63293 -1.84827 0
M  V30 859 H 73.054 6.06696 0.0206623 0
M  V30 860 H 71.793 4.86045 0.401438 0
M  V30 861 H 70.798 5.16544 -1.88316 0
M  V30 862 H 72.023 6.40542 -2.25571 0
M  V30 863 H 69.969 6.55998 -0.0170186 0
M  V30 864 H 69.886 7.40386 -1.52856 0
M  V30 865 H 71.154 7.78463 -0.401999 0
M  V30 866 N 75.3831 0.828654 1.34056 0
M  V30 867 C 76.6311 0.41863 1.97717 0
M  V30 868 C 76.9521 -1.02314 1.66002 0
M  V30 869 O 76.2221 -1.71119 0.953683 0
M  V30 870 H 74.8021 0.151809 0.731412 0
M  V30 871 H 77.4641 1.05936 1.63596 0
M  V30 872 H 76.5601 0.542318 3.07352 0
M  V30 873 N 76.8612 -1.46375 0.584142 0
M  V30 874 C 78.0892 -2.06761 0.0759296 0
M  V30 875 C 78.5042 -1.43266 -1.22965 0
M  V30 876 O 77.8612 -0.538458 -1.74376 0
M  V30 877 C 77.9122 -3.61375 -0.0950384 0
M  V30 878 O 77.6332 -4.22495 1.15887 0
M  V30 879 C 79.1342 -4.38693 -0.637434 0
M  V30 880 H 76.3542 -0.668479 0.0581075 0
M  V30 881 H 78.8982 -1.8798 0.805218 0
M  V30 882 H 77.0532 -3.79578 -0.774554 0
M  V30 883 H 77.4672 -5.15385 0.973598 0
M  V30 884 H 78.9412 -5.47464 -0.706237 0
M  V30 885 H 79.4182 -4.06836 -1.65472 0
M  V30 886 H 80.0242 -4.25299 0.00725967 0
M  V30 887 N 78.3393 -0.321999 -1.54275 0
M  V30 888 C 79.5673 0.283052 -2.04955 0
M  V30 889 C 79.9823 1.45904 -1.19823 0
M  V30 890 O 79.3393 1.81063 -0.228545 0
M  V30 891 C 79.3903 0.719028 -3.54277 0
M  V30 892 O 79.1113 -0.410175 -4.36176 0
M  V30 893 C 80.6123 1.38705 -4.21041 0
M  V30 894 H 77.8323 0.0584616 -0.668448 0
M  V30 895 H 80.3763 -0.467734 -1.99079 0
M  V30 896 H 78.5313 1.41979 -3.60445 0
M  V30 897 H 78.9453 -0.0669416 -5.24457 0
M  V30 898 H 80.4193 1.64306 -5.2698 0
M  V30 899 H 80.8963 2.33385 -3.72059 0
M  V30 900 H 81.5023 0.728906 -4.19007 0
M  V30 901 N 79.8174 1.5752 -0.0501392 0
M  V30 902 C 81.0474 1.96678 0.632573 0
M  V30 903 C 81.4554 0.926298 1.64974 0
M  V30 904 O 80.7984 -0.09802 1.83438 0
M  V30 905 C 80.8604 3.32068 1.37735 0
M  V30 906 C 80.5244 4.54076 0.516131 0
M  V30 907 C 81.5214 5.19445 -0.217357 0
M  V30 908 C 79.2064 5.00304 0.44736 0
M  V30 909 C 81.2004 6.29378 -1.00807 0
M  V30 910 C 78.8874 6.10114 -0.347038 0
M  V30 911 C 79.8854 6.74512 -1.07344 0
M  V30 912 O 79.5734 7.82211 -1.85477 0
M  V30 913 H 79.3054 0.652193 0.177821 0
M  V30 914 H 81.8594 2.05091 -0.112543 0
M  V30 915 H 80.0894 3.20206 2.16807 0
M  V30 916 H 81.7784 3.55981 1.95019 0
M  V30 917 H 82.5444 4.84689 -0.173688 0
M  V30 918 H 78.4234 4.49971 1.00235 0
M  V30 919 H 81.9674 6.79575 -1.57556 0
M  V30 920 H 77.8644 6.44307 -0.392349 0
M  V30 921 H 78.6324 7.98982 -1.77678 0
M  V30 922 N 81.2955 -0.223234 1.56011 0
M  V30 923 C 82.5725 -0.972108 1.69733 0
M  V30 924 C 82.9525 -2.02485 0.59691 0
M  V30 925 O 82.3005 -2.25037 -0.396324 0
M  V30 926 C 82.5105 -1.58407 3.10979 0
M  V30 927 C 83.8585 -2.07696 3.70334 0
M  V30 928 O 84.8825 -1.68304 3.1393 0
M  V30 929 O 83.7415 -2.80096 4.69264 0
M  V30 930 H 80.8355 -0.453993 0.691245 0
M  V30 931 H 83.3815 -0.215149 1.68331 0
M  V30 932 H 82.1535 -0.823831 3.82529 0
M  V30 933 H 81.7765 -2.40661 3.16493 0
M  V30 934 N 82.7736 -1.49793 -0.48987 0
M  V30 935 C 84.0196 -1.60078 -1.24511 0
M  V30 936 C 84.3526 -0.291608 -1.91998 0
M  V30 937 O 83.6276 0.705647 -1.81248 0
M  V30 938 C 83.9106 -2.76791 -2.30345 0
M  V30 939 C 83.7636 -4.17535 -1.67286 0
M  V30 940 C 85.0826 -2.89111 -3.31817 0
M  V30 941 H 82.2016 -0.582645 -0.451324 0
M  V30 942 H 84.8436 -1.82117 -0.541612 0
M  V30 943 H 82.9936 -2.5813 -2.90346 0
M  V30 944 H 84.6656 -4.4774 -1.11026 0
M  V30 945 H 82.9086 -4.22665 -0.976577 0
M  V30 946 H 83.5796 -4.95094 -2.44103 0
M  V30 947 H 86.0556 -3.06133 -2.81819 0
M  V30 948 H 84.9316 -3.72433 -4.03219 0
M  V30 949 H 85.1926 -1.9893 -3.94815 0
M  V30 950 N 84.2517 0.741722 -1.39055 0
M  V30 951 C 85.1617 1.88621 -1.39496 0
M  V30 952 C 86.1777 1.71557 -0.290578 0
M  V30 953 O 87.3537 1.94275 -0.530954 0
M  V30 954 C 84.4187 3.24134 -1.23037 0
M  V30 955 C 83.4797 3.5364 -2.43387 0
M  V30 956 C 82.7127 4.82687 -2.27703 0
M  V30 957 O 82.9357 5.55922 -1.27696 0
M  V30 958 O 81.8697 5.1194 -3.16545 0
M  V30 959 H 85.6957 1.91203 -2.35956 0
M  V30 960 H 83.2807 0.888625 -1.20099 0
M  V30 961 H 85.1627 4.0513 -1.15964 0
M  V30 962 H 83.8377 3.22337 -0.296691 0
M  V30 963 H 82.7447 2.72758 -2.56035 0
M  V30 964 H 84.0777 3.60209 -3.35425 0
M  V30 965 N 85.7298 1.2412 0.971189 0
M  V30 966 C 87.1458 1.00584 1.23916 0
M  V30 967 C 87.3458 -0.287481 1.99439 0
M  V30 968 O 86.4018 -1.00454 2.31658 0
M  V30 969 C 87.7148 2.21864 2.0297 0
M  V30 970 C 89.2628 2.26452 2.16076 0
M  V30 971 C 89.7378 3.47343 2.98524 0
M  V30 972 N 91.2288 3.47639 3.06107 0
M  V30 973 C 91.9638 4.37837 3.70251 0
M  V30 974 N 91.4598 5.38286 4.36142 0
M  V30 975 N 93.2528 4.25558 3.67228 0
M  V30 976 H 85.4038 2.07236 0.465499 0
M  V30 977 H 87.6668 0.909236 0.268315 0
M  V30 978 H 87.3728 3.15771 1.54861 0
M  V30 979 H 87.2468 2.23698 3.03709 0
M  V30 980 H 89.6338 1.33078 2.6339 0
M  V30 981 H 89.7148 2.28645 1.14696 0
M  V30 982 H 89.3588 4.41029 2.51905 0
M  V30 983 H 89.2888 3.42393 4.00093 0
M  V30 984 H 91.7798 2.74966 2.59233 0
M  V30 985 H 92.0928 6.03352 4.82894 0
M  V30 986 H 90.4378 5.42176 4.34822 0
M  V30 987 H 93.6288 3.46322 3.14927 0
M  V30 988 H 93.8018 4.96054 4.16935 0
M  V30 989 N 87.2079 -1.17134 1.05439 0
M  V30 990 C 88.1179 -2.24878 0.668365 0
M  V30 991 C 89.1339 -1.71186 -0.311687 0
M  V30 992 O 90.3099 -2.00738 -0.163161 0
M  V30 993 C 87.3749 -3.46662 0.051648 0
M  V30 994 C 86.4359 -4.15429 1.08246 0
M  V30 995 C 85.6689 -5.31399 0.495082 0
M  V30 996 O 85.8919 -5.66153 -0.694743 0
M  V30 997 O 84.8259 -5.89187 1.23056 0
M  V30 998 H 88.6519 -2.60189 1.56637 0
M  V30 999 H 86.2369 -1.24482 0.826104 0
M  V30 1000 H 88.1189 -4.20394 -0.290966 0
M  V30 1001 H 86.7939 -3.13142 -0.819971 0
M  V30 1002 H 85.7009 -3.43704 1.47711 0
M  V30 1003 H 87.0339 -4.52982 1.92532 0
M  V30 1004 N 88.686 -0.835752 -1.33615 0
M  V30 1005 C 89.633 -0.26473 -2.29277 0
M  V30 1006 C 90.603 0.617712 -1.54187 0
M  V30 1007 O 91.788 0.556641 -1.825 0
M  V30 1008 C 88.928 0.556777 -3.40579 0
M  V30 1009 C 88.041 -0.349339 -4.30585 0
M  V30 1010 C 87.176 0.482969 -5.29 0
M  V30 1011 C 86.215 -0.421732 -6.10645 0
M  V30 1012 N 85.352 0.372262 -7.01112 0
M  V30 1013 H 90.192 -1.08582 -2.77514 0
M  V30 1014 H 87.729 -0.546927 -1.36554 0
M  V30 1015 H 89.687 1.04852 -4.03809 0
M  V30 1016 H 88.317 1.34286 -2.93542 0
M  V30 1017 H 87.369 -0.959372 -3.68104 0
M  V30 1018 H 88.681 -1.04445 -4.87742 0
M  V30 1019 H 87.835 1.03866 -5.97743 0
M  V30 1020 H 86.574 1.21153 -4.72412 0
M  V30 1021 H 85.579 -0.989464 -5.40823 0
M  V30 1022 H 86.804 -1.14861 -6.69316 0
M  V30 1023 H 84.75 1.08426 -6.46977 0
M  V30 1024 H 84.667 -0.264198 -7.55538 0
M  V30 1025 H 85.935 0.910293 -7.74167 0
M  V30 1026 N 90.1641 1.46063 -0.591896 0
M  V30 1027 C 91.4411 1.95595 -0.0137119 0
M  V30 1028 C 91.8211 1.5345 1.4497 0
M  V30 1029 O 91.1691 0.789543 2.14426 0
M  V30 1030 C 91.3791 3.48453 -0.195373 0
M  V30 1031 C 92.7271 4.24546 -0.0679765 0
M  V30 1032 O 93.7511 3.55982 -0.124681 0
M  V30 1033 O 92.6101 5.46467 0.0600579 0
M  V30 1034 H 89.7041 0.825795 0.0446279 0
M  V30 1035 H 92.2501 1.56303 -0.660859 0
M  V30 1036 H 91.0221 3.72045 -1.21235 0
M  V30 1037 H 90.6451 3.94597 0.487775 0
M  V30 1038 N 91.6422 0.330177 1.54103 0
M  V30 1039 C 92.5752 -0.575477 2.20825 0
M  V30 1040 C 93.5532 -1.11064 1.18758 0
M  V30 1041 O 94.7372 -1.17341 1.47524 0
M  V30 1042 C 91.8642 -1.79032 2.87516 0
M  V30 1043 C 90.9102 -1.38581 4.03358 0
M  V30 1044 S 91.7432 -0.416911 5.33875 0
M  V30 1045 C 92.8992 -1.63889 6.04062 0
M  V30 1046 H 93.1322 -0.00872114 2.97299 0
M  V30 1047 H 90.6652 0.114254 1.53977 0
M  V30 1048 H 92.6232 -2.48734 3.2656 0
M  V30 1049 H 91.2842 -2.32827 2.10832 0
M  V30 1050 H 90.4772 -2.29123 4.48908 0
M  V30 1051 H 90.0792 -0.768419 3.66021 0
M  V30 1052 H 92.3712 -2.57536 6.26643 0
M  V30 1053 H 93.3142 -1.22542 6.97416 0
M  V30 1054 H 93.7222 -1.82887 5.34053 0
M  V30 1055 N 93.1203 -1.57491 0.0584922 0
M  V30 1056 C 94.0533 -2.07533 -0.948969 0
M  V30 1057 C 95.0313 -0.977444 -1.29942 0
M  V30 1058 O 96.2153 -1.2499 -1.41102 0
M  V30 1059 C 93.3423 -2.52192 -2.2609 0
M  V30 1060 C 92.3883 -3.73287 -2.06298 0
M  V30 1061 S 93.2213 -5.18603 -1.33459 0
M  V30 1062 C 94.3773 -5.66583 -2.65959 0
M  V30 1063 H 94.6103 -2.92662 -0.523118 0
M  V30 1064 H 92.1433 -1.53631 -0.153954 0
M  V30 1065 H 94.1013 -2.78585 -3.01498 0
M  V30 1066 H 92.7623 -1.67356 -2.65802 0
M  V30 1067 H 91.9553 -4.0248 -3.03357 0
M  V30 1068 H 91.5573 -3.47199 -1.39029 0
M  V30 1069 H 93.8493 -5.72616 -3.62101 0
M  V30 1070 H 94.7923 -6.65684 -2.41393 0
M  V30 1071 H 95.2003 -4.94342 -2.72554 0
M  V30 1072 N 94.5984 0.214957 -1.56127 0
M  V30 1073 C 95.5284 1.2695 -1.95974 0
M  V30 1074 C 96.5094 1.48539 -0.828868 0
M  V30 1075 O 97.6944 1.60611 -1.09168 0
M  V30 1076 C 94.8244 2.61794 -2.28214 0
M  V30 1077 C 93.7784 2.54851 -3.43853 0
M  V30 1078 C 93.1044 3.93785 -3.61715 0
M  V30 1079 C 94.4044 2.09065 -4.78632 0
M  V30 1080 H 96.0984 0.93846 -2.84312 0
M  V30 1081 H 93.6444 0.449996 -1.36788 0
M  V30 1082 H 95.5974 3.35731 -2.54682 0
M  V30 1083 H 94.3214 2.96599 -1.36736 0
M  V30 1084 H 92.9804 1.8337 -3.17444 0
M  V30 1085 H 92.6284 4.25908 -2.67602 0
M  V30 1086 H 92.3284 3.90019 -4.39498 0
M  V30 1087 H 93.8524 4.69374 -3.90539 0
M  V30 1088 H 95.2664 2.7275 -5.04262 0
M  V30 1089 H 93.6634 2.16346 -5.59745 0
M  V30 1090 H 94.7334 1.04315 -4.73547 0
M  V30 1091 N 96.0765 1.50051 0.48192 0
M  V30 1092 C 97.3225 1.61706 1.2338 0
M  V30 1093 C 97.6775 0.308488 1.89911 0
M  V30 1094 O 96.9705 -0.692798 1.78636 0
M  V30 1095 C 97.1645 2.72717 2.30998 0
M  V30 1096 C 96.9935 4.14242 1.75024 0
M  V30 1097 C 95.7635 4.80786 1.55476 0
M  V30 1098 C 97.9615 4.98846 1.25128 0
M  V30 1099 N 95.9435 6.06563 0.946311 0
M  V30 1100 C 97.3145 6.15258 0.765382 0
M  V30 1101 C 99.3695 4.84702 1.13881 0
M  V30 1102 C 98.0725 7.19079 0.178113 0
M  V30 1103 C 100.098 5.8869 0.565486 0
M  V30 1104 C 99.4605 7.04343 0.0899105 0
M  V30 1105 H 95.5595 0.645958 0.440753 0
M  V30 1106 H 98.1435 1.8713 0.537624 0
M  V30 1107 H 96.3145 2.49033 2.98055 0
M  V30 1108 H 98.0465 2.73789 2.9803 0
M  V30 1109 H 94.8015 4.37899 1.80392 0
M  V30 1110 H 95.2255 6.73767 0.660812 0
M  V30 1111 H 99.8675 3.95583 1.49244 0
M  V30 1112 H 97.5855 8.07882 -0.187749 0
M  V30 1113 H 101.171 5.79808 0.480974 0
M  V30 1114 H 100.051 7.83433 -0.346782 0
M  V30 1115 N 97.5546 -0.734337 1.39446 0
M  V30 1116 C 98.4846 -1.86155 1.40955 0
M  V30 1117 C 99.4656 -1.67898 0.272827 0
M  V30 1118 O 100.651 -1.88207 0.478743 0
M  V30 1119 C 97.7806 -3.23912 1.25294 0
M  V30 1120 C 96.7346 -3.56808 2.36373 0
M  V30 1121 C 96.0606 -4.93508 2.058 0
M  V30 1122 C 97.3606 -3.59713 3.78687 0
M  V30 1123 H 99.0546 -1.8515 2.35287 0
M  V30 1124 H 96.6006 -0.889367 1.13253 0
M  V30 1125 H 98.5536 -4.02443 1.2497 0
M  V30 1126 H 97.2776 -3.25446 0.274308 0
M  V30 1127 H 95.9366 -2.80606 2.35914 0
M  V30 1128 H 95.5846 -4.91623 1.06374 0
M  V30 1129 H 95.2846 -5.16486 2.80208 0
M  V30 1130 H 96.8086 -5.74396 2.07128 0
M  V30 1131 H 98.2226 -4.2832 3.81071 0
M  V30 1132 H 96.6196 -3.94209 4.52459 0
M  V30 1133 H 97.6896 -2.59504 4.09617 0
M  V30 1134 N 99.0327 -1.24633 -0.964593 0
M  V30 1135 C 99.9427 -1.05859 -2.09359 0
M  V30 1136 C 100.959 0.00148855 -1.74 0
M  V30 1137 O 102.135 -0.197346 -2.00431 0
M  V30 1138 C 99.1997 -0.668879 -3.40187 0
M  V30 1139 C 98.2607 -1.80578 -3.89474 0
M  V30 1140 C 97.4937 -1.43457 -5.14058 0
M  V30 1141 O 97.7167 -0.325775 -5.69469 0
M  V30 1142 O 96.6507 -2.2613 -5.57807 0
M  V30 1143 H 100.477 -2.00516 -2.28094 0
M  V30 1144 H 98.0617 -1.03481 -1.0776 0
M  V30 1145 H 99.9437 -0.463211 -4.18846 0
M  V30 1146 H 98.6187 0.248536 -3.22744 0
M  V30 1147 H 97.5257 -2.06623 -3.11862 0
M  V30 1148 H 98.8587 -2.70208 -4.11398 0
M  V30 1149 N 100.511 1.16574 -1.06058 0
M  V30 1150 C 101.759 1.86677 -0.77434 0
M  V30 1151 C 102.08 1.81959 0.701147 0
M  V30 1152 O 101.35 1.2515 1.50713 0
M  V30 1153 H 99.9298 0.691134 -0.283449 0
M  V30 1154 H 102.592 1.41378 -1.34158 0
M  V30 1155 H 101.688 2.92181 -1.09711 0
M  V30 1156 N 101.989 0.842826 1.3317 0
M  V30 1157 C 102.936 0.276885 2.29133 0
M  V30 1158 C 103.906 -0.609527 1.54512 0
M  V30 1159 O 105.091 -0.546955 1.82792 0
M  V30 1160 C 102.231 -0.538707 3.40869 0
M  V30 1161 C 101.344 0.372169 4.30394 0
M  V30 1162 C 100.479 -0.454908 5.29249 0
M  V30 1163 C 99.5179 0.45411 6.10413 0
M  V30 1164 N 98.6549 -0.335075 7.013 0
M  V30 1165 H 103.495 1.10052 2.76934 0
M  V30 1166 H 101.032 0.554161 1.36262 0
M  V30 1167 H 102.99 -1.02709 4.0436 0
M  V30 1168 H 101.62 -1.32727 2.9425 0
M  V30 1169 H 100.672 0.97888 3.6759 0
M  V30 1170 H 101.984 1.0703 4.87182 0
M  V30 1171 H 101.138 -1.00695 5.98285 0
M  V30 1172 H 99.8769 -1.18646 4.73048 0
M  V30 1173 H 98.8819 1.01813 5.40291 0
M  V30 1174 H 100.107 1.18409 6.68697 0
M  V30 1175 H 98.0529 -1.04994 6.47543 0
M  V30 1176 H 97.9699 0.304262 7.55387 0
M  V30 1177 H 99.2379 -0.869224 7.74638 0
M  V30 1178 N 103.467 -1.45747 0.599634 0
M  V30 1179 C 104.397 -2.33235 -0.111306 0
M  V30 1180 C 105.378 -1.46359 -0.866781 0
M  V30 1181 O 106.563 -1.75146 -0.838904 0
M  V30 1182 C 103.693 -3.28932 -1.11451 0
M  V30 1183 C 102.647 -4.25381 -0.472772 0
M  V30 1184 C 101.973 -5.1071 -1.58365 0
M  V30 1185 C 103.273 -5.18831 0.600948 0
M  V30 1186 H 104.967 -2.92927 0.61919 0
M  V30 1187 H 102.513 -1.40857 0.299215 0
M  V30 1188 H 104.466 -3.89002 -1.62036 0
M  V30 1189 H 103.19 -2.67381 -1.8755 0
M  V30 1190 H 101.849 -3.66598 0.0121472 0
M  V30 1191 H 101.497 -4.45533 -2.33473 0
M  V30 1192 H 101.197 -5.7604 -1.15982 0
M  V30 1193 H 102.721 -5.73647 -2.09194 0
M  V30 1194 H 104.135 -5.73019 0.179491 0
M  V30 1195 H 102.532 -5.92595 0.946076 0
M  V30 1196 H 103.602 -4.6174 1.48068 0
M  V30 1197 N 104.945 -0.338344 -1.53925 0
M  V30 1198 C 106.356 0.146651 -1.86123 0
M  V30 1199 C 106.707 1.5042 -1.2597 0
M  V30 1200 O 105.832 2.08723 -0.571294 0
M  V30 1201 C 106.427 0.272879 -3.37699 0
M  V30 1202 C 104.986 0.702103 -3.69794 0
M  V30 1203 C 104.133 -0.167304 -2.76795 0
M  V30 1204 H 107.084 -0.558123 -1.48562 0
M  V30 1205 H 107.105 1.10128 -3.64214 0
M  V30 1206 H 106.617 -0.715307 -3.81451 0
M  V30 1207 H 104.718 1.6995 -3.31584 0
M  V30 1208 H 104.831 0.495604 -4.7653 0
M  V30 1209 H 103.195 0.359527 -2.5215 0
M  V30 1210 H 103.978 -1.15253 -3.23375 0
M  V30 1211 N 106.423 1.57458 -0.0668435 0
M  V30 1212 C 107.669 1.93587 0.6043 0
M  V30 1213 C 108.002 0.946722 1.69561 0
M  V30 1214 O 107.277 -0.0248516 1.94484 0
M  V30 1215 C 107.56 3.40014 1.18585 0
M  V30 1216 C 107.413 4.49685 0.101529 0
M  V30 1217 C 108.732 3.87154 2.09284 0
M  V30 1218 H 105.851 0.703958 0.218202 0
M  V30 1219 H 108.493 1.89542 -0.131804 0
M  V30 1220 H 106.643 3.43592 1.81319 0
M  V30 1221 H 108.315 4.5823 -0.531279 0
M  V30 1222 H 106.558 4.30059 -0.568487 0
M  V30 1223 H 107.229 5.49266 0.54874 0
M  V30 1224 H 109.705 3.85551 1.56491 0
M  V30 1225 H 108.581 4.90231 2.46911 0
M  V30 1226 H 108.842 3.2481 2.99918 0
M  V30 1227 N 107.901 -0.206675 1.56239 0
M  V30 1228 C 109.312 -0.772383 1.69974 0
M  V30 1229 C 109.663 -1.84353 0.671436 0
M  V30 1230 O 108.788 -2.15695 -0.174491 0
M  V30 1231 C 109.383 -1.40779 3.08167 0
M  V30 1232 C 107.942 -1.92072 3.23706 0
M  V30 1233 C 107.089 -0.786347 2.65917 0
M  V30 1234 H 110.04 0.0182223 1.5869 0
M  V30 1235 H 110.061 -2.27696 3.04852 0
M  V30 1236 H 109.573 -0.627958 3.82986 0
M  V30 1237 H 107.674 -2.7281 2.53782 0
M  V30 1238 H 107.787 -2.09046 4.31087 0
M  V30 1239 H 106.151 -1.1976 2.24788 0
M  V30 1240 H 106.934 -0.0189416 3.43295 0
M  V30 1241 N 109.379 -1.50304 -0.473955 0
M  V30 1242 C 110.326 -1.68959 -1.57231 0
M  V30 1243 C 111.296 -0.530899 -1.57387 0
M  V30 1244 O 112.481 -0.761133 -1.74961 0
M  V30 1245 C 109.621 -1.7871 -2.95223 0
M  V30 1246 C 108.734 -3.06061 -3.04878 0
M  V30 1247 C 107.869 -3.06626 -4.33767 0
M  V30 1248 C 106.908 -4.28443 -4.37154 0
M  V30 1249 N 106.045 -4.26763 -5.5751 0
M  V30 1250 H 110.885 -2.6273 -1.40631 0
M  V30 1251 H 108.422 -1.30241 -0.683789 0
M  V30 1252 H 110.38 -1.82344 -3.75242 0
M  V30 1253 H 109.01 -0.883806 -3.10465 0
M  V30 1254 H 108.062 -3.11911 -2.17751 0
M  V30 1255 H 109.374 -3.96039 -3.0324 0
M  V30 1256 H 108.528 -3.08973 -5.22131 0
M  V30 1257 H 107.267 -2.14473 -4.3801 0
M  V30 1258 H 106.272 -4.2631 -3.47188 0
M  V30 1259 H 107.497 -5.2182 -4.34605 0
M  V30 1260 H 105.443 -3.37462 -5.62544 0
M  V30 1261 H 105.36 -5.10507 -5.57601 0
M  V30 1262 H 106.628 -4.33253 -6.48006 0
M  V30 1263 N 110.857 0.726932 -1.39834 0
M  V30 1264 C 112.103 1.48884 -1.377 0
M  V30 1265 C 112.436 1.94185 0.0244852 0
M  V30 1266 O 111.711 1.67361 0.990986 0
M  V30 1267 C 111.994 2.72288 -2.3565 0
M  V30 1268 C 111.847 2.32956 -3.84775 0
M  V30 1269 C 113.166 3.74414 -2.31306 0
M  V30 1270 H 110.285 0.540062 -0.5015 0
M  V30 1271 H 112.927 0.830547 -1.70886 0
M  V30 1272 H 111.077 3.28457 -2.07481 0
M  V30 1273 H 112.749 1.82356 -4.23726 0
M  V30 1274 H 110.992 1.65088 -4.01159 0
M  V30 1275 H 111.663 3.21362 -4.4881 0
M  V30 1276 H 114.139 3.27849 -2.56231 0
M  V30 1277 H 113.015 4.58414 -3.01907 0
M  V30 1278 H 113.276 4.21909 -1.32081 0
M  V30 1279 N 112.336 1.25143 0.95797 0
M  V30 1280 C 113.266 1.07711 2.07173 0
M  V30 1281 C 114.247 -0.0128462 1.70095 0
M  V30 1282 O 115.432 0.156061 1.93572 0
M  V30 1283 C 112.562 0.691503 3.40346 0
M  V30 1284 C 111.516 1.73132 3.9142 0
M  V30 1285 C 110.842 1.20049 5.21049 0
M  V30 1286 C 112.142 3.1294 4.1817 0
M  V30 1287 H 113.836 2.00873 2.22014 0
M  V30 1288 H 111.382 0.967191 1.06684 0
M  V30 1289 H 113.335 0.556505 4.17709 0
M  V30 1290 H 112.059 -0.275819 3.25433 0
M  V30 1291 H 110.718 1.8547 3.16222 0
M  V30 1292 H 110.366 0.223499 5.02503 0
M  V30 1293 H 110.066 1.89545 5.56189 0
M  V30 1294 H 111.59 1.07782 6.01012 0
M  V30 1295 H 113.004 3.03775 4.86203 0
M  V30 1296 H 111.401 3.79875 4.64559 0
M  V30 1297 H 112.471 3.6025 3.24573 0
M  V30 1298 N 113.814 -1.1601 1.06675 0
M  V30 1299 C 114.764 -2.18512 0.650888 0
M  V30 1300 C 115.748 -1.57677 -0.320441 0
M  V30 1301 O 116.94 -1.76482 -0.135266 0
M  V30 1302 C 114.069 -3.43273 0.0429255 0
M  V30 1303 C 113.155 -4.11176 1.03898 0
M  V30 1304 N 113.546 -4.54672 2.216 0
M  V30 1305 C 111.844 -4.37417 0.870779 0
M  V30 1306 C 112.545 -5.07248 2.84736 0
M  V30 1307 N 111.521 -5.0037 2.12441 0
M  V30 1308 H 115.323 -2.49863 1.54745 0
M  V30 1309 H 112.837 -1.32503 0.938975 0
M  V30 1310 H 114.834 -4.16006 -0.272857 0
M  V30 1311 H 113.494 -3.13408 -0.84884 0
M  V30 1312 H 114.505 -4.4828 2.59356 0
M  V30 1313 H 111.182 -4.17488 0.0313293 0
M  V30 1314 H 112.572 -5.50912 3.84636 0
M  V30 1315 N 115.292 -0.849877 -1.32721 0
M  V30 1316 C 116.539 -0.450923 -1.97416 0
M  V30 1317 C 116.867 0.992376 -1.67279 0
M  V30 1318 O 116.122 1.71048 -0.950845 0
M  V30 1319 C 116.421 -0.631272 -3.51781 0
M  V30 1320 C 116.087 -2.04432 -4.01894 0
M  V30 1321 C 114.749 -2.4308 -4.1529 0
M  V30 1322 C 117.101 -2.96679 -4.28522 0
M  V30 1323 C 114.429 -3.73257 -4.52654 0
M  V30 1324 C 116.781 -4.26349 -4.67343 0
M  V30 1325 C 115.445 -4.64939 -4.78945 0
M  V30 1326 H 114.715 -0.165004 -0.722395 0
M  V30 1327 H 117.362 -1.07901 -1.58207 0
M  V30 1328 H 115.667 0.0800767 -3.91718 0
M  V30 1329 H 117.364 -0.302709 -3.99856 0
M  V30 1330 H 113.954 -1.73419 -3.91949 0
M  V30 1331 H 118.138 -2.68054 -4.17685 0
M  V30 1332 H 113.394 -4.02946 -4.59831 0
M  V30 1333 H 117.568 -4.97895 -4.86902 0
M  V30 1334 H 115.195 -5.65855 -5.07654 0
M  V30 1335 N 116.77 1.45427 -0.607355 0
M  V30 1336 C 117.68 2.34325 0.113463 0
M  V30 1337 C 118.696 1.51226 0.860617 0
M  V30 1338 O 119.872 1.84029 0.818255 0
M  V30 1339 C 116.937 3.28839 1.09844 0
M  V30 1340 C 115.998 4.27844 0.353271 0
M  V30 1341 C 115.231 5.17842 1.29133 0
M  V30 1342 O 115.454 5.11264 2.52913 0
M  V30 1343 O 114.388 5.96713 0.788523 0
M  V30 1344 H 118.214 2.97364 -0.617094 0
M  V30 1345 H 115.799 1.44807 -0.367619 0
M  V30 1346 H 117.681 3.8708 1.66575 0
M  V30 1347 H 116.356 2.68365 1.81003 0
M  V30 1348 H 115.263 3.7322 -0.256494 0
M  V30 1349 H 116.596 4.91173 -0.317822 0
M  V30 1350 N 118.248 0.346503 1.53744 0
M  V30 1351 C 119.664 -0.00530975 1.59599 0
M  V30 1352 C 119.864 -1.48465 1.36236 0
M  V30 1353 O 118.92 -2.24376 1.15808 0
M  V30 1354 C 120.233 0.433516 2.97559 0
M  V30 1355 C 121.781 0.386111 3.10609 0
M  V30 1356 C 122.256 0.800451 4.50951 0
M  V30 1357 N 123.747 0.754753 4.5701 0
M  V30 1358 C 124.482 1.04727 5.63755 0
M  V30 1359 N 123.978 1.4081 6.7834 0
M  V30 1360 N 125.771 0.971316 5.53644 0
M  V30 1361 H 117.922 1.31009 1.67184 0
M  V30 1362 H 120.185 0.534242 0.783128 0
M  V30 1363 H 119.891 1.46509 3.19731 0
M  V30 1364 H 119.765 -0.189753 3.76722 0
M  V30 1365 H 122.152 -0.636295 2.88158 0
M  V30 1366 H 122.233 1.04462 2.33498 0
M  V30 1367 H 121.877 1.82088 4.74137 0
M  V30 1368 H 121.807 0.119386 5.26465 0
M  V30 1369 H 124.298 0.488662 3.74727 0
M  V30 1370 H 124.611 1.61607 7.55714 0
M  V30 1371 H 122.956 1.44657 6.79779 0
M  V30 1372 H 126.147 0.688748 4.63005 0
M  V30 1373 H 126.32 1.20263 6.36742 0
M  V30 1374 N 119.726 -1.57421 0.075193 0
M  V30 1375 C 120.676 -2.09441 -0.901025 0
M  V30 1376 C 121.66 -1.00486 -1.25663 0
M  V30 1377 O 122.852 -1.2679 -1.23504 0
M  V30 1378 C 119.981 -2.66233 -2.16737 0
M  V30 1379 C 119.067 -3.82198 -1.83808 0
M  V30 1380 N 119.458 -4.91028 -1.21345 0
M  V30 1381 C 117.756 -3.91558 -2.13538 0
M  V30 1382 C 118.457 -5.71852 -1.06585 0
M  V30 1383 N 117.433 -5.20233 -1.57667 0
M  V30 1384 H 121.235 -2.90972 -0.413815 0
M  V30 1385 H 118.749 -1.6189 -0.128601 0
M  V30 1386 H 120.746 -3.01819 -2.87595 0
M  V30 1387 H 119.406 -1.8615 -2.66042 0
M  V30 1388 H 120.417 -5.10323 -0.88268 0
M  V30 1389 H 117.094 -3.22454 -2.65197 0
M  V30 1390 H 118.484 -6.69401 -0.578933 0
M  V30 1391 N 121.204 0.198386 -1.56346 0
M  V30 1392 C 122.481 0.944982 -1.71258 0
M  V30 1393 C 122.861 2.0151 -0.629048 0
M  V30 1394 O 122.209 2.25639 0.360473 0
M  V30 1395 C 122.419 1.5344 -3.1346 0
M  V30 1396 C 123.767 2.01778 -3.73591 0
M  V30 1397 O 124.791 1.63288 -3.16568 0
M  V30 1398 O 123.65 2.72594 -4.73661 0
M  V30 1399 H 120.744 0.442939 -0.69838 0
M  V30 1400 H 123.29 0.188342 -1.68652 0
M  V30 1401 H 122.062 0.762869 -3.83792 0
M  V30 1402 H 121.685 2.35596 -3.20282 0
M  V30 1403 N 122.682 1.50554 0.465978 0
M  V30 1404 C 123.93 1.61479 1.21528 0
M  V30 1405 C 124.251 0.319596 1.92363 0
M  V30 1406 O 123.521 -0.663194 1.84333 0
M  V30 1407 H 122.101 0.595055 0.451573 0
M  V30 1408 H 124.763 1.87355 0.53704 0
M  V30 1409 H 123.859 2.42846 1.96042 0
M  V30 1410 N 124.16 -0.719506 1.40217 0
M  V30 1411 C 125.406 -1.48034 1.39491 0
M  V30 1412 C 125.761 -1.92399 -0.00443536 0
M  V30 1413 O 125.054 -1.64993 -0.974061 0
M  V30 1414 C 125.248 -2.72271 2.31524 0
M  V30 1415 C 125.077 -2.40055 3.80268 0
M  V30 1416 C 123.847 -2.31588 4.49105 0
M  V30 1417 C 126.045 -2.04581 4.71859 0
M  V30 1418 N 124.027 -1.92006 5.83101 0
M  V30 1419 C 125.398 -1.75568 5.94623 0
M  V30 1420 C 127.453 -1.91183 4.59732 0
M  V30 1421 C 126.156 -1.34505 7.06612 0
M  V30 1422 C 128.182 -1.51524 5.71659 0
M  V30 1423 C 127.544 -1.23406 6.93506 0
M  V30 1424 H 123.643 -0.539927 0.565688 0
M  V30 1425 H 126.227 -0.834764 1.75897 0
M  V30 1426 H 124.398 -3.34584 1.97251 0
M  V30 1427 H 126.13 -3.38584 2.21682 0
M  V30 1428 H 122.885 -2.49199 4.02737 0
M  V30 1429 H 123.309 -1.74764 6.54054 0
M  V30 1430 H 127.951 -2.11584 3.66049 0
M  V30 1431 H 125.669 -1.12846 8.00182 0
M  V30 1432 H 129.255 -1.41741 5.6427 0
M  V30 1433 H 128.135 -0.931788 7.78645 0
M  V30 1434 N 125.638 -1.25649 -0.95132 0
M  V30 1435 C 126.863 -1.13443 -1.73624 0
M  V30 1436 C 127.288 0.307565 -1.85568 0
M  V30 1437 O 126.646 1.22282 -1.33854 0
M  V30 1438 C 126.694 -1.79723 -3.12621 0
M  V30 1439 O 125.798 -1.07912 -3.98031 0
M  V30 1440 H 125.139 -0.395872 -0.533086 0
M  V30 1441 H 127.669 -1.66276 -1.1922 0
M  V30 1442 H 127.679 -1.86141 -3.63064 0
M  V30 1443 H 126.354 -2.84633 -3.03244 0
M  V30 1444 H 124.931 -1.09398 -3.56492 0
M  V30 1445 N 127.117 1.15442 -1.07289 0
M  V30 1446 C 128.065 2.22225 -0.686952 0
M  V30 1447 C 129.059 1.66688 0.30193 0
M  V30 1448 O 130.265 1.79236 0.165712 0
M  V30 1449 H 126.64 0.723783 -0.204064 0
M  V30 1450 H 128.611 2.52056 -1.5972 0
M  V30 1451 C 127.36 3.47556 -0.100149 0
M  V30 1452 H 126.683 3.90612 -0.852211 0
M  V30 1453 H 128.123 4.23794 0.132235 0
M  V30 1454 C 126.582 3.16337 1.159 0
M  V30 1455 O 127.112 3.33074 2.24555 0
M  V30 1456 N 125.318 2.70385 1.06491 0
M  V30 1457 H 124.865 2.56966 0.180668 0
M  V30 1458 H 124.823 2.49871 1.90819 0
M  V30 1459 N 128.595 0.856903 1.32268 0
M  V30 1460 C 129.525 0.31858 2.31316 0
M  V30 1461 C 130.506 -0.583487 1.59779 0
M  V30 1462 O 131.691 -0.503259 1.87566 0
M  V30 1463 C 128.821 -0.491979 3.43798 0
M  V30 1464 C 127.775 0.315849 4.26833 0
M  V30 1465 C 127.101 -0.619586 5.31098 0
M  V30 1466 C 128.401 1.54282 4.98993 0
M  V30 1467 H 130.095 1.14621 2.76591 0
M  V30 1468 H 127.641 0.552613 1.32974 0
M  V30 1469 H 129.594 -0.879012 4.1213 0
M  V30 1470 H 128.318 -1.35299 2.97257 0
M  V30 1471 H 126.977 0.684664 3.6015 0
M  V30 1472 H 126.625 -1.47751 4.8081 0
M  V30 1473 H 126.325 -0.0830621 5.87541 0
M  V30 1474 H 127.849 -1.00375 6.02293 0
M  V30 1475 H 129.263 1.22796 5.59995 0
M  V30 1476 H 127.66 2.01745 5.65172 0
M  V30 1477 H 128.73 2.30285 4.26728 0
M  V30 1478 N 130.073 -1.45103 0.615059 0
M  V30 1479 C 131.003 -2.33339 -0.0865619 0
M  V30 1480 C 131.984 -1.4727 -0.851209 0
M  V30 1481 O 133.169 -1.76026 -0.820281 0
M  V30 1482 C 130.299 -3.30095 -1.07956 0
M  V30 1483 C 129.253 -4.25858 -0.427628 0
M  V30 1484 C 128.579 -5.12361 -1.5294 0
M  V30 1485 C 129.879 -5.18165 0.655944 0
M  V30 1486 H 131.573 -2.92254 0.650224 0
M  V30 1487 H 129.119 -1.40532 0.314138 0
M  V30 1488 H 131.072 -3.90698 -1.57901 0
M  V30 1489 H 129.796 -2.69355 -1.84703 0
M  V30 1490 H 128.455 -3.66564 0.0510292 0
M  V30 1491 H 128.103 -4.47984 -2.28734 0
M  V30 1492 H 127.803 -5.77238 -1.09865 0
M  V30 1493 H 129.327 -5.75833 -2.03098 0
M  V30 1494 H 130.741 -5.72796 0.240257 0
M  V30 1495 H 129.138 -5.91559 1.00888 0
M  V30 1496 H 130.208 -4.60144 1.52957 0
M  V30 1497 N 131.551 -0.354651 -1.53558 0
M  V30 1498 C 132.484 0.540273 -2.21712 0
M  V30 1499 C 133.462 1.09161 -1.2051 0
M  V30 1500 O 134.646 1.14979 -1.49372 0
M  V30 1501 C 131.773 1.74435 -2.90328 0
M  V30 1502 C 130.819 1.32146 -4.05512 0
M  V30 1503 S 131.652 0.331924 -5.3447 0
M  V30 1504 C 132.808 1.54258 -6.06593 0
M  V30 1505 H 133.041 -0.0385776 -2.97275 0
M  V30 1506 H 130.574 -0.138736 -1.53775 0
M  V30 1507 H 132.532 2.43507 -3.30476 0
M  V30 1508 H 131.193 2.29444 -2.1451 0
M  V30 1509 H 130.386 2.21952 -4.52497 0
M  V30 1510 H 129.988 0.710091 -3.67197 0
M  V30 1511 H 132.28 2.47534 -6.30661 0
M  V30 1512 H 133.223 1.11431 -6.99277 0
M  V30 1513 H 133.631 1.74367 -5.36895 0
M  V30 1514 N 133.029 1.57378 -0.0835403 0
M  V30 1515 C 134.254 1.98682 0.594987 0
M  V30 1516 C 134.679 0.961969 1.61641 0
M  V30 1517 O 134.037 -0.0709989 1.81161 0
M  V30 1518 C 134.085 3.38988 1.2296 0
M  V30 1519 O 133.189 3.39208 2.34546 0
M  V30 1520 H 132.53 0.646368 0.152002 0
M  V30 1521 H 135.06 2.03961 -0.161533 0
M  V30 1522 H 135.07 3.76431 1.57366 0
M  V30 1523 H 133.745 4.13107 0.481228 0
M  V30 1524 H 132.322 3.13548 2.01846 0
M  V30 1525 N 134.507 -0.190092 1.56449 0
M  V30 1526 C 135.417 -1.25591 1.98152 0
M  V30 1527 C 136.433 -1.49519 0.889944 0
M  V30 1528 O 137.609 -1.62036 1.19609 0
M  V30 1529 C 134.674 -2.57916 2.3169 0
M  V30 1530 C 133.735 -2.42015 3.5458 0
M  V30 1531 C 132.968 -3.6803 3.8651 0
M  V30 1532 O 133.191 -4.72413 3.1966 0
M  V30 1533 O 132.125 -3.6326 4.79923 0
M  V30 1534 H 135.951 -0.931988 2.89046 0
M  V30 1535 H 133.536 -0.395488 1.4407 0
M  V30 1536 H 135.418 -3.36008 2.54316 0
M  V30 1537 H 134.093 -2.89925 1.43963 0
M  V30 1538 H 133 -1.62017 3.37196 0
M  V30 1539 H 134.333 -2.14937 4.4279 0
M  V30 1540 N 135.985 -1.50799 -0.457987 0
M  V30 1541 C 136.948 -1.7005 -1.53674 0
M  V30 1542 C 137.948 -0.570881 -1.50325 0
M  V30 1543 O 139.138 -0.838126 -1.52712 0
M  V30 1544 C 136.27 -1.73788 -2.93276 0
M  V30 1545 H 137.463 -2.66306 -1.37917 0
M  V30 1546 H 135.016 -1.40477 -0.685271 0
M  V30 1547 H 135.751 -0.792717 -3.14462 0
M  V30 1548 H 135.536 -2.55864 -2.97113 0
M  V30 1549 H 137.026 -1.90591 -3.71571 0
M  V30 1550 N 137.463 0.71206 -1.40597 0
M  V30 1551 C 138.74 1.46536 -1.29563 0
M  V30 1552 C 139.12 2.10931 0.0844217 0
M  V30 1553 O 138.468 2.00418 1.0975 0
M  V30 1554 C 138.678 2.49821 -2.43701 0
M  V30 1555 C 140.026 3.15551 -2.841 0
M  V30 1556 O 141.05 2.60142 -2.4332 0
M  V30 1557 O 139.909 4.15867 -3.54566 0
M  V30 1558 H 137.003 0.651801 -0.509004 0
M  V30 1559 H 139.549 0.743935 -1.52524 0
M  V30 1560 H 138.321 2.00778 -3.35863 0
M  V30 1561 H 137.944 3.29495 -2.22528 0
M  V30 1562 N 138.941 1.26152 0.944643 0
M  V30 1563 C 140.189 1.11271 1.6871 0
M  V30 1564 C 140.51 -0.345166 1.91921 0
M  V30 1565 O 139.78 -1.24387 1.51343 0
M  V30 1566 H 138.36 0.408783 0.625224 0
M  V30 1567 H 141.022 1.58427 1.1352 0
M  V30 1568 H 140.118 1.62879 2.66227 0
M  V30 1569 N 140.419 -1.14872 1.07899 0
M  V30 1570 C 141.665 -1.86064 0.806725 0
M  V30 1571 C 141.998 -1.82434 -0.665706 0
M  V30 1572 O 141.273 -1.25138 -1.48899 0
M  V30 1573 C 141.556 -3.34929 1.32267 0
M  V30 1574 C 141.409 -3.47161 2.86006 0
M  V30 1575 C 142.728 -4.29863 0.943717 0
M  V30 1576 H 139.847 -0.675591 0.294526 0
M  V30 1577 H 142.489 -1.34925 1.33773 0
M  V30 1578 H 140.639 -3.78611 0.870974 0
M  V30 1579 H 142.311 -3.12302 3.39507 0
M  V30 1580 H 140.554 -2.88539 3.23925 0
M  V30 1581 H 141.225 -4.51777 3.17177 0
M  V30 1582 H 143.701 -3.9417 1.33302 0
M  V30 1583 H 142.577 -5.32494 1.33198 0
M  V30 1584 H 142.838 -4.41846 -0.149796 0
M  V30 1585 N 141.898 -0.863906 -1.31812 0
M  V30 1586 C 142.828 -0.330843 -2.31144 0
M  V30 1587 C 143.809 0.575005 -1.60087 0
M  V30 1588 O 144.994 0.493304 -1.8783 0
M  V30 1589 C 142.124 0.47374 -3.44054 0
M  V30 1590 C 141.078 -0.338481 -4.26659 0
M  V30 1591 C 140.404 0.591412 -5.31419 0
M  V30 1592 C 141.704 -1.56926 -4.98168 0
M  V30 1593 H 143.398 -1.16086 -2.75979 0
M  V30 1594 H 140.944 -0.559657 -1.32679 0
M  V30 1595 H 142.897 0.857143 -4.12591 0
M  V30 1596 H 141.621 1.33721 -2.9797 0
M  V30 1597 H 140.28 -0.703754 -3.59782 0
M  V30 1598 H 139.928 1.45199 -4.81587 0
M  V30 1599 H 139.628 0.0519022 -5.87577 0
M  V30 1600 H 141.152 0.97179 -6.02817 0
M  V30 1601 H 142.566 -1.25764 -5.59336 0
M  V30 1602 H 140.963 -2.04739 -5.64094 0
M  V30 1603 H 142.033 -2.32544 -4.25501 0
M  V30 1604 N 143.376 1.44774 -0.622745 0
M  V30 1605 C 144.616 2.04004 -0.127102 0
M  V30 1606 C 144.98 1.47862 1.22478 0
M  V30 1607 O 146.181 1.98541 1.81204 0
M  V30 1608 C 144.452 3.57247 -0.104429 0
M  V30 1609 S 146.011 4.37574 0.327814 0
M  V30 1610 H 142.829 0.708713 -0.0569776 0
M  V30 1611 H 145.431 1.77275 -0.824253 0
M  V30 1612 H 144.135 3.95616 -1.09159 0
M  V30 1613 H 143.666 3.88575 0.614236 0
M  V30 1614 H 145.681 4.70575 1.57395 0
M  V30 1615 N 144.854 0.36279 1.53368 0
M  V30 1616 C 146.079 -0.231226 2.06107 0
M  V30 1617 C 146.504 -1.419 1.23474 0
M  V30 1618 O 145.862 -1.79524 0.253128 0
M  V30 1619 C 145.91 -0.605523 3.5548 0
M  V30 1620 O 145.014 -1.70312 3.7559 0
M  V30 1621 H 144.355 -0.034327 0.663112 0
M  V30 1622 H 146.885 0.522584 1.97814 0
M  V30 1623 H 146.895 -0.877314 3.98456 0
M  V30 1624 H 145.57 0.263004 4.15068 0
M  V30 1625 H 144.147 -1.4271 3.44512 0
M  V30 1626 N 146.332 -1.57332 0.0918853 0
M  V30 1627 C 147.242 -2.17368 -0.882505 0
M  V30 1628 C 148.258 -1.14226 -1.31257 0
M  V30 1629 O 149.434 -1.46582 -1.38115 0
M  V30 1630 C 146.499 -2.73962 -2.12476 0
M  V30 1631 C 145.56 -3.92048 -1.7492 0
M  V30 1632 C 144.793 -4.45933 -2.93223 0
M  V30 1633 O 145.016 -3.98764 -4.07852 0
M  V30 1634 O 143.95 -5.36999 -2.71875 0
M  V30 1635 H 147.776 -3.01031 -0.40172 0
M  V30 1636 H 145.361 -1.48813 -0.132291 0
M  V30 1637 H 147.243 -3.10147 -2.85283 0
M  V30 1638 H 145.918 -1.93347 -2.59613 0
M  V30 1639 H 144.825 -3.6068 -0.993025 0
M  V30 1640 H 146.158 -4.74017 -1.32548 0
M  V30 1641 N 147.81 0.181792 -1.56548 0
M  V30 1642 C 148.72 1.24538 -1.98815 0
M  V30 1643 C 149.736 1.49045 -0.897861 0
M  V30 1644 O 150.912 1.61399 -1.20467 0
M  V30 1645 C 147.977 2.56683 -2.33055 0
M  V30 1646 C 147.038 2.40131 -3.55859 0
M  V30 1647 C 146.271 3.65975 -3.88456 0
M  V30 1648 O 146.494 4.70711 -3.22161 0
M  V30 1649 O 145.428 3.6071 -4.81842 0
M  V30 1650 H 149.254 0.916647 -2.89536 0
M  V30 1651 H 146.839 0.387842 -1.44278 0
M  V30 1652 H 148.721 3.34655 -2.56094 0
M  V30 1653 H 147.396 2.89157 -1.45498 0
M  V30 1654 H 146.303 1.60226 -3.38051 0
M  V30 1655 H 147.636 2.12585 -4.43924 0
M  V30 1656 N 149.288 1.51039 0.449983 0
M  V30 1657 C 150.518 1.66627 1.22143 0
M  V30 1658 C 150.926 0.357776 1.85786 0
M  V30 1659 O 150.269 -0.672424 1.70951 0
M  V30 1660 C 150.331 2.71562 2.35573 0
M  V30 1661 C 149.995 4.14526 1.92399 0
M  V30 1662 C 150.992 4.99717 1.43453 0
M  V30 1663 C 148.677 4.60559 2.00475 0
M  V30 1664 C 150.671 6.28998 1.03155 0
M  V30 1665 C 148.358 5.8984 1.59788 0
M  V30 1666 C 149.356 6.73886 1.11208 0
M  V30 1667 O 149.044 8.0075 0.710935 0
M  V30 1668 H 148.776 0.562635 0.374724 0
M  V30 1669 H 151.33 1.98146 0.541036 0
M  V30 1670 H 149.56 2.3533 3.06849 0
M  V30 1671 H 151.249 2.76156 2.97478 0
M  V30 1672 H 152.015 4.65361 1.36618 0
M  V30 1673 H 147.894 3.95273 2.37235 0
M  V30 1674 H 151.438 6.9455 0.651663 0
M  V30 1675 H 147.335 6.23713 1.66289 0
M  V30 1676 H 148.103 8.142 0.837913 0
M  V30 1677 N 150.766 -0.704594 1.40972 0
M  V30 1678 C 151.676 -1.84856 1.44448 0
M  V30 1679 C 152.692 -1.70726 0.335961 0
M  V30 1680 O 153.868 -1.92799 0.582276 0
M  V30 1681 C 150.933 -3.20758 1.31587 0
M  V30 1682 C 149.994 -3.47063 2.52677 0
M  V30 1683 C 149.227 -4.76481 2.4042 0
M  V30 1684 O 149.45 -5.52341 1.42391 0
M  V30 1685 O 148.384 -5.03367 3.30007 0
M  V30 1686 H 152.21 -1.8488 2.40942 0
M  V30 1687 H 149.795 -0.85647 1.22413 0
M  V30 1688 H 151.677 -4.01913 1.26665 0
M  V30 1689 H 150.352 -3.21438 0.382049 0
M  V30 1690 H 149.259 -2.65873 2.63177 0
M  V30 1691 H 150.592 -3.5119 3.44858 0
M  V30 1692 N 152.244 -1.26651 -0.937939 0
M  V30 1693 C 153.521 -1.0313 -1.66204 0
M  V30 1694 C 153.901 0.437256 -2.06522 0
M  V30 1695 O 153.249 1.41831 -1.79154 0
M  V30 1696 C 153.459 -1.98314 -2.87181 0
M  V30 1697 C 154.807 -2.27107 -3.58758 0
M  V30 1698 O 155.831 -1.96205 -2.97291 0
M  V30 1699 O 154.69 -2.79736 -4.69479 0
M  V30 1700 H 151.784 -0.392384 -0.727986 0
M  V30 1701 H 154.33 -1.37874 -0.989382 0
M  V30 1702 H 153.102 -2.97399 -2.54302 0
M  V30 1703 H 152.725 -1.64068 -3.6217 0
M  V30 1704 N 153.722 1.14298 -1.08507 0
M  V30 1705 C 154.632 2.23027 -0.727753 0
M  V30 1706 C 155.648 1.71952 0.26619 0
M  V30 1707 O 156.824 2.011 0.109882 0
M  V30 1708 C 153.889 3.46403 -0.143541 0
M  V30 1709 C 152.95 4.12413 -1.19223 0
M  V30 1710 C 152.183 5.29899 -0.635798 0
M  V30 1711 O 152.406 5.67796 0.544393 0
M  V30 1712 O 151.34 5.85717 -1.38634 0
M  V30 1713 H 155.166 2.55945 -1.63481 0
M  V30 1714 H 152.751 1.22248 -0.858817 0
M  V30 1715 H 154.633 4.21018 0.179404 0
M  V30 1716 H 153.308 3.15206 0.736659 0
M  V30 1717 H 152.215 3.39667 -1.56772 0
M  V30 1718 H 153.548 4.47718 -2.04474 0
M  V30 1719 N 155.201 0.870884 1.31352 0
M  V30 1720 C 156.133 0.28455 2.27427 0
M  V30 1721 C 157.146 -0.552927 1.53123 0
M  V30 1722 O 158.335 -0.374771 1.74521 0
M  V30 1723 C 155.435 -0.615164 3.3327 0
M  V30 1724 C 154.608 0.190079 4.36987 0
M  V30 1725 C 153.667 -0.637917 5.22319 0
M  V30 1726 O 152.693 -0.065626 5.69162 0
M  V30 1727 N 153.895 -1.94973 5.46778 0
M  V30 1728 H 156.66 1.11017 2.7838 0
M  V30 1729 H 154.221 0.732458 1.44384 0
M  V30 1730 H 156.213 -1.1748 3.87273 0
M  V30 1731 H 154.783 -1.34146 2.82354 0
M  V30 1732 H 154.003 0.931165 3.83044 0
M  V30 1733 H 155.291 0.742579 5.03352 0
M  V30 1734 H 154.689 -2.4378 5.10478 0
M  V30 1735 H 153.246 -2.45713 6.03712 0
M  V30 1736 N 156.679 -1.44442 0.630414 0
M  V30 1737 C 157.904 -2.06927 0.139944 0
M  V30 1738 C 158.329 -1.46795 -1.17613 0
M  V30 1739 O 157.687 -0.569144 -1.72135 0
M  V30 1740 C 157.735 -3.6058 0.0379581 0
M  V30 1741 O 156.839 -3.99937 -1.0062 0
M  V30 1742 H 156.18 -0.658608 0.0844483 0
M  V30 1743 H 158.71 -1.85327 0.866891 0
M  V30 1744 H 158.72 -4.07714 -0.152856 0
M  V30 1745 H 157.395 -4.03728 0.998809 0
M  V30 1746 H 155.972 -3.64436 -0.79001 0
M  V30 1747 N 158.157 -0.370918 -1.53173 0
M  V30 1748 C 159.568 0.107139 -1.86392 0
M  V30 1749 C 159.919 1.47714 -1.29132 0
M  V30 1750 O 159.044 2.07464 -0.615439 0
M  V30 1751 C 159.639 0.201187 -3.38202 0
M  V30 1752 C 158.198 0.623507 -3.712 0
M  V30 1753 C 157.345 -0.225978 -2.76378 0
M  V30 1754 H 160.296 -0.58951 -1.47345 0
M  V30 1755 H 160.317 1.02377 -3.66468 0
M  V30 1756 H 159.829 -0.796058 -3.79848 0
M  V30 1757 H 157.93 1.62879 -3.35114 0
M  V30 1758 H 158.043 0.394414 -4.77474 0
M  V30 1759 H 156.407 0.305962 -2.52856 0
M  V30 1760 H 157.19 -1.22086 -3.20858 0
M  V30 1761 N 159.635 1.57281 -0.100228 0
M  V30 1762 C 160.545 2.17833 0.870965 0
M  V30 1763 C 161.561 1.14921 1.30649 0
M  V30 1764 O 162.737 1.47313 1.37335 0
M  V30 1765 C 159.802 2.75085 2.1102 0
M  V30 1766 C 158.863 3.9297 1.72838 0
M  V30 1767 C 158.096 4.47482 2.90854 0
M  V30 1768 O 158.319 4.00922 4.05731 0
M  V30 1769 O 157.253 5.38433 2.69023 0
M  V30 1770 H 161.079 3.0124 0.38575 0
M  V30 1771 H 158.664 1.48881 0.124397 0
M  V30 1772 H 160.546 3.11656 2.83634 0
M  V30 1773 H 159.221 1.94721 2.58584 0
M  V30 1774 H 158.128 3.61201 0.973883 0
M  V30 1775 H 159.461 4.74713 1.30033 0
M  V30 1776 N 161.113 -0.173488 1.56642 0
M  V30 1777 C 162.06 -1.21482 1.96242 0
M  V30 1778 C 163.03 -1.44104 0.826027 0
M  V30 1779 O 164.215 -1.5688 1.08597 0
M  V30 1780 C 161.355 -2.54964 2.32567 0
M  V30 1781 C 160.468 -2.39739 3.59373 0
M  V30 1782 C 159.603 -3.66072 3.84921 0
M  V30 1783 C 158.642 -3.45771 5.05083 0
M  V30 1784 N 157.779 -4.64169 5.26775 0
M  V30 1785 H 162.619 -0.870123 2.85014 0
M  V30 1786 H 160.156 -0.418245 1.41029 0
M  V30 1787 H 162.114 -3.32758 2.5165 0
M  V30 1788 H 160.744 -2.87433 1.46908 0
M  V30 1789 H 159.796 -1.53131 3.48217 0
M  V30 1790 H 161.108 -2.20683 4.47326 0
M  V30 1791 H 160.262 -4.52303 4.0436 0
M  V30 1792 H 159.001 -3.88105 2.9534 0
M  V30 1793 H 158.006 -2.57927 4.85545 0
M  V30 1794 H 159.231 -3.25163 5.96193 0
M  V30 1795 H 157.177 -4.86425 4.40144 0
M  V30 1796 H 157.094 -4.48019 6.08946 0
M  V30 1797 H 158.362 -5.51689 5.5069 0
M  V30 1798 N 162.591 -1.51276 -0.441967 0
M  V30 1799 C 163.84 -1.6295 -1.18871 0
M  V30 1800 C 164.153 -0.349312 -1.92456 0
M  V30 1801 O 165.359 -0.345355 -2.69295 0
M  V30 1802 C 163.815 -2.87759 -2.16155 0
M  V30 1803 C 163.423 -4.22764 -1.48239 0
M  V30 1804 C 165.167 -3.08788 -2.91291 0
M  V30 1805 C 163.074 -5.38728 -2.4398 0
M  V30 1806 H 162.004 -0.606913 -0.447406 0
M  V30 1807 H 164.655 -1.77739 -0.456205 0
M  V30 1808 H 163.037 -2.66593 -2.92821 0
M  V30 1809 H 164.211 -4.54293 -0.771635 0
M  V30 1810 H 162.526 -4.07575 -0.852741 0
M  V30 1811 H 165.123 -3.92599 -3.63002 0
M  V30 1812 H 165.466 -2.21679 -3.5237 0
M  V30 1813 H 165.999 -3.30272 -2.21733 0
M  V30 1814 H 162.738 -6.28082 -1.87598 0
M  V30 1815 H 162.258 -5.1158 -3.13123 0
M  V30 1816 H 163.937 -5.70489 -3.05207 0
M  V30 1817 N 164.069 0.697108 -1.41344 0
M  V30 1818 C 165.318 1.45279 -1.39918 0
M  V30 1819 C 165.631 1.95597 -0.0109624 0
M  V30 1820 O 166.837 2.71208 0.125919 0
M  V30 1821 C 165.293 2.62695 -2.46007 0
M  V30 1822 C 164.901 2.19169 -3.90729 0
M  V30 1823 C 166.645 3.40336 -2.53715 0
M  V30 1824 C 164.552 3.33535 -4.88373 0
M  V30 1825 H 163.482 0.545692 -0.520323 0
M  V30 1826 H 166.133 0.756929 -1.67161 0
M  V30 1827 H 164.515 3.34541 -2.11892 0
M  V30 1828 H 165.689 1.54623 -4.34083 0
M  V30 1829 H 164.004 1.54525 -3.86666 0
M  V30 1830 H 166.601 4.2547 -3.2385 0
M  V30 1831 H 166.944 3.85418 -1.5735 0
M  V30 1832 H 167.477 2.75546 -2.86913 0
M  V30 1833 H 164.216 2.93468 -5.86137 0
M  V30 1834 H 163.736 3.96936 -4.49668 0
M  V30 1835 H 165.415 3.99335 -5.09059 0
M  V30 1836 N 165.547 1.27147 0.931209 0
M  V30 1837 C 166.457 1.11372 2.06478 0
M  V30 1838 C 167.473 0.044645 1.73943 0
M  V30 1839 O 168.649 0.250417 1.99837 0
M  V30 1840 C 165.714 0.758838 3.38294 0
M  V30 1841 C 164.775 1.90841 3.84549 0
M  V30 1842 C 164.008 1.57036 5.10074 0
M  V30 1843 O 164.231 0.476645 5.68405 0
M  V30 1844 O 163.165 2.40839 5.51616 0
M  V30 1845 H 166.991 2.06493 2.22698 0
M  V30 1846 H 164.576 1.06301 1.04978 0
M  V30 1847 H 166.458 0.574098 4.17471 0
M  V30 1848 H 165.133 -0.162879 3.2329 0
M  V30 1849 H 164.04 2.14819 3.06274 0
M  V30 1850 H 165.373 2.81021 4.04089 0
M  V30 1851 N 167.025 -1.13721 1.09112 0
M  V30 1852 C 167.955 -2.21148 0.749385 0
M  V30 1853 C 168.936 -1.6792 -0.271475 0
M  V30 1854 O 170.121 -1.93693 -0.140251 0
M  V30 1855 C 167.251 -3.46905 0.165659 0
M  V30 1856 C 166.205 -4.13203 1.11567 0
M  V30 1857 C 165.531 -5.33248 0.393809 0
M  V30 1858 C 166.831 -4.60912 2.45678 0
M  V30 1859 H 168.525 -2.4999 1.64758 0
M  V30 1860 H 166.071 -1.20156 0.793626 0
M  V30 1861 H 168.024 -4.21313 -0.085466 0
M  V30 1862 H 166.748 -3.17449 -0.767714 0
M  V30 1863 H 165.407 -3.40758 1.35202 0
M  V30 1864 H 165.055 -5.00054 -0.543599 0
M  V30 1865 H 164.755 -5.78552 1.02721 0
M  V30 1866 H 166.279 -6.10413 0.150908 0
M  V30 1867 H 167.693 -5.26759 2.26269 0
M  V30 1868 H 166.09 -5.16944 3.04776 0
M  V30 1869 H 167.16 -3.75603 3.06677 0
M  V30 1870 N 168.503 -0.877838 -1.30888 0
M  V30 1871 C 169.733 -0.506678 -2.00291 0
M  V30 1872 C 170.141 0.907449 -1.66018 0
M  V30 1873 O 169.484 1.60719 -0.88967 0
M  V30 1874 C 169.546 -0.59323 -3.54572 0
M  V30 1875 C 169.21 -1.97038 -4.12341 0
M  V30 1876 C 170.207 -2.93889 -4.28865 0
M  V30 1877 C 167.892 -2.27383 -4.47886 0
M  V30 1878 C 169.886 -4.19224 -4.80136 0
M  V30 1879 C 167.573 -3.52965 -4.98857 0
M  V30 1880 C 168.571 -4.48701 -5.14934 0
M  V30 1881 O 168.259 -5.72056 -5.64808 0
M  V30 1882 H 167.991 -0.1951 -0.647234 0
M  V30 1883 H 170.545 -1.18301 -1.6791 0
M  V30 1884 H 168.775 0.140057 -3.86446 0
M  V30 1885 H 170.464 -0.234372 -4.05223 0
M  V30 1886 H 171.23 -2.71756 -4.01714 0
M  V30 1887 H 167.109 -1.53639 -4.34645 0
M  V30 1888 H 170.653 -4.93956 -4.92599 0
M  V30 1889 H 166.55 -3.74939 -5.25443 0
M  V30 1890 H 167.318 -5.74337 -5.83163 0
M  V30 1891 N 169.982 1.44106 -0.638065 0
M  V30 1892 C 170.945 2.29138 0.0531013 0
M  V30 1893 C 171.945 1.41409 0.765506 0
M  V30 1894 O 173.135 1.63206 0.609046 0
M  V30 1895 C 170.267 3.23144 1.08584 0
M  V30 1896 H 171.46 2.91739 -0.694883 0
M  V30 1897 H 169.013 1.51134 -0.398538 0
M  V30 1898 H 169.748 2.65408 1.86357 0
M  V30 1899 H 169.533 3.87804 0.578852 0
M  V30 1900 H 171.023 3.87004 1.56899 0
M  V30 1901 N 171.46 0.379036 1.52974 0
M  V30 1902 C 172.37 -0.468639 2.29872 0
M  V30 1903 C 173.386 -1.08067 1.36373 0
M  V30 1904 O 174.562 -1.08871 1.69438 0
M  V30 1905 C 171.627 -1.58594 3.083 0
M  V30 1906 C 170.688 -1.00007 4.17489 0
M  V30 1907 C 169.921 -2.06413 4.92168 0
M  V30 1908 O 170.144 -3.27751 4.66835 0
M  V30 1909 O 169.078 -1.68717 5.7777 0
M  V30 1910 H 172.904 0.157508 3.03291 0
M  V30 1911 H 170.489 0.143035 1.48714 0
M  V30 1912 H 172.371 -2.23525 3.57232 0
M  V30 1913 H 171.046 -2.19724 2.37703 0
M  V30 1914 H 169.953 -0.314299 3.72777 0
M  V30 1915 H 171.286 -0.433135 4.90291 0
M  V30 1916 N 172.938 -1.57226 0.108567 0
M  V30 1917 C 174.178 -1.96717 -0.555155 0
M  V30 1918 C 174.542 -0.990003 -1.64508 0
M  V30 1919 O 175.743 -1.2739 -2.36696 0
M  V30 1920 C 174.014 -3.40575 -1.08367 0
M  V30 1921 S 175.573 -4.02072 -1.75737 0
M  V30 1922 H 172.391 -0.687638 -0.180762 0
M  V30 1923 H 174.993 -1.94563 0.191172 0
M  V30 1924 H 173.697 -4.0945 -0.279092 0
M  V30 1925 H 173.228 -3.46356 -1.86551 0
M  V30 1926 H 175.243 -3.91977 -3.04251 0
M  V30 1927 N 174.416 0.165178 -1.56732 0
M  V30 1928 C 175.665 0.879143 -1.81532 0
M  V30 1929 C 175.978 1.83144 -0.686842 0
M  V30 1930 O 177.184 2.58823 -0.819944 0
M  V30 1931 C 175.64 1.61388 -3.21686 0
M  V30 1932 C 175.248 0.704904 -4.4242 0
M  V30 1933 C 176.992 2.3157 -3.55774 0
M  V30 1934 C 174.899 1.44022 -5.73595 0
M  V30 1935 H 173.829 0.332033 -0.676957 0
M  V30 1936 H 176.48 0.132008 -1.83025 0
M  V30 1937 H 174.862 2.40599 -3.14529 0
M  V30 1938 H 176.036 -0.0506815 -4.60772 0
M  V30 1939 H 174.351 0.112419 -4.16248 0
M  V30 1940 H 176.948 2.8719 -4.51028 0
M  V30 1941 H 177.291 3.07201 -2.8095 0
M  V30 1942 H 177.824 1.59297 -3.64513 0
M  V30 1943 H 174.563 0.72612 -6.51466 0
M  V30 1944 H 174.083 2.16898 -5.5921 0
M  V30 1945 H 175.762 1.98606 -6.15764 0
M  V30 1946 N 175.894 1.51508 0.433938 0
M  V30 1947 C 177.31 1.39759 0.770682 0
M  V30 1948 C 177.51 0.482594 1.95636 0
M  V30 1949 O 176.566 -0.0609691 2.52426 0
M  V30 1950 C 177.879 2.81851 1.04787 0
M  V30 1951 C 179.427 2.91025 1.1521 0
M  V30 1952 C 179.902 4.34032 1.46219 0
M  V30 1953 N 181.393 4.37154 1.53136 0
M  V30 1954 C 182.128 5.4484 1.78709 0
M  V30 1955 N 181.624 6.62682 2.02051 0
M  V30 1956 N 183.417 5.32324 1.80519 0
M  V30 1957 H 175.568 2.09548 -0.346892 0
M  V30 1958 H 177.831 0.943446 -0.0928074 0
M  V30 1959 H 177.537 3.50815 0.249304 0
M  V30 1960 H 177.411 3.21386 1.97461 0
M  V30 1961 H 179.798 2.22257 1.94128 0
M  V30 1962 H 179.879 2.54983 0.204281 0
M  V30 1963 H 179.523 5.03351 0.678274 0
M  V30 1964 H 179.453 4.6759 2.42212 0
M  V30 1965 H 181.944 3.52197 1.36987 0
M  V30 1966 H 182.257 7.40543 2.20943 0
M  V30 1967 H 180.602 6.65791 1.99366 0
M  V30 1968 H 183.793 4.39246 1.61805 0
M  V30 1969 H 183.966 6.16328 2.00111 0
M  V30 1970 N 177.372 -0.689602 1.41712 0
M  V30 1971 C 178.302 -1.81577 1.46806 0
M  V30 1972 C 179.283 -1.66945 0.326105 0
M  V30 1973 O 180.468 -1.86588 0.538377 0
M  V30 1974 C 177.598 -3.19762 1.35535 0
M  V30 1975 C 176.552 -3.49107 2.47605 0
M  V30 1976 C 175.878 -4.86711 2.21397 0
M  V30 1977 C 177.178 -3.47483 3.89939 0
M  V30 1978 H 178.872 -1.7757 2.41058 0
M  V30 1979 H 176.418 -0.852887 1.16025 0
M  V30 1980 H 178.371 -3.98263 1.3771 0
M  V30 1981 H 177.095 -3.24409 0.377708 0
M  V30 1982 H 175.754 -2.72959 2.44722 0
M  V30 1983 H 175.402 -4.8799 1.21961 0
M  V30 1984 H 175.102 -5.0731 2.96497 0
M  V30 1985 H 176.626 -5.67515 2.25297 0
M  V30 1986 H 178.04 -4.1598 3.94505 0
M  V30 1987 H 176.437 -3.79615 4.64771 0
M  V30 1988 H 177.507 -2.46341 4.17665 0
M  V30 1989 N 178.85 -1.27639 -0.924453 0
M  V30 1990 C 180.097 -1.14167 -1.67249 0
M  V30 1991 C 180.425 0.311863 -1.91984 0
M  V30 1992 O 179.68 1.24425 -1.51053 0
M  V30 1993 C 179.979 -1.87407 -3.04325 0
M  V30 1994 C 179.645 -3.37249 -2.99289 0
M  V30 1995 C 178.307 -3.7812 -2.97622 0
M  V30 1996 C 180.659 -4.32845 -2.90336 0
M  V30 1997 C 177.987 -5.12944 -2.8479 0
M  V30 1998 C 180.339 -5.6773 -2.79045 0
M  V30 1999 C 179.003 -6.07889 -2.7573 0
M  V30 2000 H 178.273 -0.417766 -0.612007 0
M  V30 2001 H 180.92 -1.58286 -1.07786 0
M  V30 2002 H 179.225 -1.35805 -3.67511 0
M  V30 2003 H 180.922 -1.74408 -3.61086 0
M  V30 2004 H 177.512 -3.04748 -3.01374 0
M  V30 2005 H 181.696 -4.02239 -2.90719 0
M  V30 2006 H 176.952 -5.432 -2.80612 0
M  V30 2007 H 181.126 -6.41472 -2.71083 0
M  V30 2008 H 178.753 -7.12314 -2.65544 0
M  V30 2009 N 180.328 1.1314 -1.09713 0
M  V30 2010 C 181.278 2.16709 -0.708593 0
M  V30 2011 C 182.262 1.58471 0.278523 0
M  V30 2012 O 183.454 1.76779 0.088427 0
M  V30 2013 C 180.583 3.43039 -0.133923 0
M  V30 2014 C 179.669 4.08277 -1.14763 0
M  V30 2015 N 180.06 4.48637 -2.33577 0
M  V30 2016 C 178.358 4.34954 -0.986446 0
M  V30 2017 C 179.059 4.9952 -2.98085 0
M  V30 2018 N 178.035 4.94561 -2.25632 0
M  V30 2019 H 181.837 2.45672 -1.61315 0
M  V30 2020 H 179.351 1.29967 -0.973775 0
M  V30 2021 H 181.348 4.16583 0.162465 0
M  V30 2022 H 180.008 3.15549 0.765447 0
M  V30 2023 H 181.019 4.41246 -2.7115 0
M  V30 2024 H 177.696 4.17258 -0.142008 0
M  V30 2025 H 179.086 5.40521 -3.99108 0
M  V30 2026 N 181.806 0.884767 1.30421 0
M  V30 2027 C 183.031 0.517288 2.00845 0
M  V30 2028 C 183.456 -0.886779 1.65885 0
M  V30 2029 O 182.814 -1.58768 0.875354 0
M  V30 2030 C 182.862 0.698994 3.5376 0
M  V30 2031 O 181.966 -0.255208 4.1161 0
M  V30 2032 H 181.307 0.203872 0.631927 0
M  V30 2033 H 183.837 1.19225 1.66272 0
M  V30 2034 H 183.847 0.597912 4.03595 0
M  V30 2035 H 182.522 1.72271 3.78544 0
M  V30 2036 H 181.099 -0.10784 3.72744 0
M  V30 2037 N 183.284 -1.43765 0.645699 0
M  V30 2038 C 184.533 -2.01116 0.153412 0
M  V30 2039 C 184.846 -1.51493 -1.23731 0
M  V30 2040 O 186.052 -2.01067 -1.8244 0
M  V30 2041 C 184.508 -3.59206 0.223473 0
M  V30 2042 C 184.116 -4.17823 1.61642 0
M  V30 2043 C 185.86 -4.23972 -0.211597 0
M  V30 2044 C 183.767 -5.68183 1.64081 0
M  V30 2045 H 182.697 -0.752093 0.0535891 0
M  V30 2046 H 185.348 -1.6482 0.806633 0
M  V30 2047 H 183.73 -3.92867 -0.497118 0
M  V30 2048 H 184.904 -3.95674 2.36176 0
M  V30 2049 H 183.219 -3.65399 1.99681 0
M  V30 2050 H 185.816 -5.34275 -0.213112 0
M  V30 2051 H 186.159 -3.97352 -1.24165 0
M  V30 2052 H 186.692 -3.95166 0.456988 0
M  V30 2053 H 183.431 -5.99559 2.64971 0
M  V30 2054 H 182.951 -5.9241 0.938611 0
M  V30 2055 H 184.63 -6.32085 1.3812 0
M  V30 2056 N 184.763 -0.387143 -1.52771 0
M  V30 2057 C 186.04 0.253197 -1.93954 0
M  V30 2058 C 186.42 1.64545 -1.32243 0
M  V30 2059 O 185.768 2.23191 -0.489699 0
M  V30 2060 C 185.978 0.281722 -3.47861 0
M  V30 2061 C 187.326 0.511715 -4.21505 0
M  V30 2062 O 188.35 0.362023 -3.54356 0
M  V30 2063 O 187.209 0.804847 -5.40541 0
M  V30 2064 H 184.303 0.156845 -0.811991 0
M  V30 2065 H 186.849 -0.441494 -1.63856 0
M  V30 2066 H 185.621 -0.693571 -3.85104 0
M  V30 2067 H 185.244 1.02142 -3.84256 0
M  V30 2068 N 186.241 1.57166 -0.116904 0
M  V30 2069 C 187.49 1.94298 0.541407 0
M  V30 2070 C 187.803 1.00236 1.67964 0
M  V30 2071 O 189.009 1.26826 2.40057 0
M  V30 2072 C 187.465 3.45306 1.01449 0
M  V30 2073 C 187.073 4.47899 -0.0951738 0
M  V30 2074 C 188.817 3.91361 1.6443 0
M  V30 2075 C 186.724 5.90083 0.394491 0
M  V30 2076 H 185.654 0.725308 0.206019 0
M  V30 2077 H 188.305 1.82446 -0.196419 0
M  V30 2078 H 186.687 3.52385 1.80667 0
M  V30 2079 H 187.861 4.52486 -0.871374 0
M  V30 2080 H 186.176 4.11583 -0.631505 0
M  V30 2081 H 188.773 4.95004 2.02176 0
M  V30 2082 H 189.116 3.3122 2.52189 0
M  V30 2083 H 189.649 3.87073 0.917559 0
M  V30 2084 H 186.388 6.53974 -0.447004 0
M  V30 2085 H 185.908 5.88921 1.13722 0
M  V30 2086 H 187.587 6.41307 0.856399 0
M  V30 2087 N 187.719 -0.156864 1.56817 0
M  V30 2088 C 188.944 -0.890331 1.87318 0
M  V30 2089 C 189.369 -1.74394 0.704855 0
M  V30 2090 O 188.727 -1.77972 -0.345786 0
M  V30 2091 C 188.775 -1.73102 3.16336 0
M  V30 2092 O 187.879 -2.83422 2.99576 0
M  V30 2093 H 187.22 -0.24857 0.615718 0
M  V30 2094 H 189.75 -0.150649 2.04045 0
M  V30 2095 H 189.76 -2.12803 3.48107 0
M  V30 2096 H 188.435 -1.10412 4.00976 0
M  V30 2097 H 187.012 -2.47199 2.7919 0
M  V30 2098 N 189.197 -1.51736 -0.425897 0
M  V30 2099 C 190.474 -1.55519 -1.1863 0
M  V30 2100 C 190.854 -0.326219 -2.08564 0
M  V30 2101 O 190.202 0.688012 -2.17896 0
M  V30 2102 C 190.412 -2.87521 -1.9782 0
M  V30 2103 C 191.76 -3.39899 -2.54468 0
M  V30 2104 O 192.784 -2.89148 -2.08019 0
M  V30 2105 O 191.643 -4.2848 -3.39215 0
M  V30 2106 H 188.737 -0.625739 -0.540721 0
M  V30 2107 H 191.283 -1.64055 -0.434038 0
M  V30 2108 H 190.055 -3.68422 -1.31836 0
M  V30 2109 H 189.678 -2.822 -2.80088 0
M  V30 2110 N 190.675 0.682077 -1.42076 0
M  V30 2111 C 191.915 1.45424 -1.43636 0
M  V30 2112 C 192.279 1.91939 -0.0484001 0
M  V30 2113 O 193.48 2.6873 0.0612514 0
M  V30 2114 C 191.751 2.62427 -2.42625 0
M  V30 2115 S 193.31 3.51379 -2.62827 0
M  V30 2116 H 190.128 0.496779 -0.508657 0
M  V30 2117 H 192.73 0.794645 -1.78621 0
M  V30 2118 H 191.434 2.26481 -3.42249 0
M  V30 2119 H 190.965 3.33266 -2.09039 0
M  V30 2120 H 192.98 4.58141 -1.9058 0
M  V30 2121 N 192.153 1.28127 0.917671 0
M  V30 2122 C 193.564 1.13622 1.48145 0
M  V30 2123 C 193.915 -0.275207 1.9426 0
M  V30 2124 O 193.04 -1.1691 1.82102 0
M  V30 2125 C 193.635 2.05648 2.69248 0
M  V30 2126 C 192.194 1.95219 3.21818 0
M  V30 2127 C 191.341 1.97618 1.94532 0
M  V30 2128 H 194.292 1.40874 0.730772 0
M  V30 2129 H 194.313 1.61818 3.44377 0
M  V30 2130 H 193.825 3.08365 2.35653 0
M  V30 2131 H 191.926 0.955244 3.60147 0
M  V30 2132 H 192.039 2.81976 3.87333 0
M  V30 2133 H 190.403 1.41973 2.11461 0
M  V30 2134 H 191.186 3.02007 1.63238 0
M  V30 2135 N 193.631 -1.12557 1.10312 0
M  V30 2136 C 194.861 -1.87592 0.865617 0
M  V30 2137 C 195.269 -1.79851 -0.587389 0
M  V30 2138 O 194.612 -1.16949 -1.41664 0
M  V30 2139 C 194.674 -3.37665 1.23381 0
M  V30 2140 C 194.338 -3.69181 2.69359 0
M  V30 2141 C 195.335 -3.67652 3.67597 0
M  V30 2142 C 193.02 -3.98555 3.05711 0
M  V30 2143 C 195.014 -3.95053 5.00212 0
M  V30 2144 C 192.701 -4.25616 4.38514 0
M  V30 2145 C 193.699 -4.23851 5.35574 0
M  V30 2146 O 193.387 -4.50242 6.65986 0
M  V30 2147 H 193.119 -0.600442 0.310557 0
M  V30 2148 H 195.673 -1.4335 1.47105 0
M  V30 2149 H 193.903 -3.82454 0.571467 0
M  V30 2150 H 195.592 -3.94041 0.973994 0
M  V30 2151 H 196.358 -3.45024 3.40857 0
M  V30 2152 H 192.237 -3.99071 2.30789 0
M  V30 2153 H 195.781 -3.93591 5.75962 0
M  V30 2154 H 191.678 -4.47718 4.64994 0
M  V30 2155 H 192.446 -4.67867 6.71597 0
M  V30 2156 N 195.109 -0.891671 -1.2995 0
M  V30 2157 C 196.337 -0.52866 -2.00032 0
M  V30 2158 C 196.752 0.884574 -1.66795 0
M  V30 2159 O 196.109 1.5827 -0.908669 0
M  V30 2160 C 196.16 -0.701814 -3.54622 0
M  V30 2161 O 195.881 -2.05942 -3.86678 0
M  V30 2162 C 197.382 -0.342683 -4.41973 0
M  V30 2163 H 194.602 -0.203659 -0.639347 0
M  V30 2164 H 197.146 -1.19881 -1.65677 0
M  V30 2165 H 195.301 -0.0789468 -3.8732 0
M  V30 2166 H 195.715 -2.08291 -4.81368 0
M  V30 2167 H 197.189 -0.514709 -5.49595 0
M  V30 2168 H 197.666 0.71975 -4.33262 0
M  V30 2169 H 198.272 -0.942154 -4.14733 0
M  V30 2170 N 196.587 1.43421 -0.653314 0
M  V30 2171 C 197.535 2.32546 0.0501531 0
M  V30 2172 C 198.529 1.48617 0.812985 0
M  V30 2173 O 199.735 1.64825 0.723375 0
M  V30 2174 H 196.11 0.751185 0.0350032 0
M  V30 2175 H 198.081 2.89602 -0.719261 0
M  V30 2176 C 196.83 3.32925 1.00279 0
M  V30 2177 H 196.153 3.97532 0.425236 0
M  V30 2178 H 197.593 3.9792 1.46409 0
M  V30 2179 C 196.052 2.63532 2.09886 0
M  V30 2180 O 196.582 2.45092 3.18265 0
M  V30 2181 N 194.788 2.22905 1.86445 0
M  V30 2182 H 194.335 2.38103 0.98309 0
M  V30 2183 H 194.293 1.76805 2.59976 0
M  V30 2184 N 198.065 0.39524 1.52563 0
M  V30 2185 C 199.29 -0.187456 2.06551 0
M  V30 2186 C 199.715 -1.39249 1.26457 0
M  V30 2187 O 199.073 -1.78947 0.291151 0
M  V30 2188 C 199.121 -0.529985 3.56684 0
M  V30 2189 O 198.225 -1.62307 3.79118 0
M  V30 2190 H 197.566 -0.0202537 0.663691 0
M  V30 2191 H 200.096 0.564426 1.96661 0
M  V30 2192 H 200.106 -0.792598 4.00227 0
M  V30 2193 H 198.781 0.350987 4.14416 0
M  V30 2194 H 197.358 -1.3537 3.47461 0
M  V30 2195 N 199.544 -1.57102 0.125237 0
M  V30 2196 C 200.474 -2.18659 -0.819174 0
M  V30 2197 C 201.455 -1.12843 -1.27281 0
M  V30 2198 O 202.64 -1.41104 -1.33429 0
M  V30 2199 C 199.77 -2.79096 -2.06695 0
M  V30 2200 C 198.724 -3.90548 -1.75088 0
M  V30 2201 C 198.05 -4.37821 -3.06948 0
M  V30 2202 C 199.35 -5.12356 -1.01435 0
M  V30 2203 H 201.044 -2.9783 -0.306202 0
M  V30 2204 H 198.59 -1.4326 -0.145839 0
M  V30 2205 H 200.543 -3.2082 -2.73226 0
M  V30 2206 H 199.267 -1.97223 -2.60328 0
M  V30 2207 H 197.926 -3.49409 -1.10944 0
M  V30 2208 H 197.574 -3.52799 -3.58527 0
M  V30 2209 H 197.274 -5.12982 -2.86571 0
M  V30 2210 H 198.798 -4.822 -3.74587 0
M  V30 2211 H 200.212 -5.5106 -1.58132 0
M  V30 2212 H 198.609 -5.9314 -0.911319 0
M  V30 2213 H 199.679 -4.849 -0.00218681 0
M  V30 2214 N 201.022 0.148545 -1.56898 0
M  V30 2215 C 202.299 0.890019 -1.74178 0
M  V30 2216 C 202.679 1.99407 -0.692839 0
M  V30 2217 O 202.027 2.26671 0.288505 0
M  V30 2218 C 202.237 1.43389 -3.18183 0
M  V30 2219 C 203.585 1.89791 -3.79822 0
M  V30 2220 O 204.609 1.53134 -3.21603 0
M  V30 2221 O 203.468 2.57387 -4.82093 0
M  V30 2222 H 200.562 0.420496 -0.712118 0
M  V30 2223 H 203.108 0.134591 -1.69165 0
M  V30 2224 H 201.88 0.640383 -3.86024 0
M  V30 2225 H 201.503 2.25287 -3.27615 0
M  V30 2226 N 202.5 1.5196 0.417844 0
M  V30 2227 C 203.725 1.69717 1.1921 0
M  V30 2228 C 204.15 0.402148 1.83751 0
M  V30 2229 O 203.508 -0.639593 1.69643 0
M  V30 2230 C 203.556 2.82794 2.2374 0
M  V30 2231 O 202.66 2.47756 3.29683 0
M  V30 2232 H 202.001 0.565263 0.348387 0
M  V30 2233 H 204.531 1.98621 0.490985 0
M  V30 2234 H 204.541 3.07452 2.68212 0
M  V30 2235 H 203.216 3.76756 1.76146 0
M  V30 2236 H 201.793 2.33739 2.90552 0
M  V30 2237 N 203.978 -0.674533 1.42435 0
M  V30 2238 C 205.394 -0.98769 1.25367 0
M  V30 2239 C 205.594 -2.00879 0.158044 0
M  V30 2240 O 204.65 -2.48075 -0.470633 0
M  V30 2241 C 205.963 -1.49224 2.6106 0
M  V30 2242 C 207.511 -1.61 2.68417 0
M  V30 2243 C 207.986 -2.14852 4.04478 0
M  V30 2244 N 209.477 -2.22185 4.06434 0
M  V30 2245 C 210.212 -2.64928 5.08528 0
M  V30 2246 N 209.708 -3.07121 6.21006 0
M  V30 2247 N 211.501 -2.64679 4.95885 0
M  V30 2248 H 203.652 0.00152503 2.124 0
M  V30 2249 H 205.915 -0.0618434 0.945981 0
M  V30 2250 H 205.621 -0.816453 3.42092 0
M  V30 2251 H 205.495 -2.47094 2.84999 0
M  V30 2252 H 207.882 -2.27686 1.87732 0
M  V30 2253 H 207.963 -0.616195 2.48267 0
M  V30 2254 H 207.607 -1.48775 4.85622 0
M  V30 2255 H 207.537 -3.15024 4.2198 0
M  V30 2256 H 210.028 -1.92435 3.25234 0
M  V30 2257 H 210.341 -3.38423 6.94759 0
M  V30 2258 H 208.686 -3.04978 6.24511 0
M  V30 2259 H 211.877 -2.31078 4.07088 0
M  V30 2260 H 212.05 -2.9767 5.75584 0
M  V30 2261 N 205.456 -1.28612 -0.910864 0
M  V30 2262 C 206.386 -1.15326 -2.03032 0
M  V30 2263 C 207.367 -0.0502924 -1.70026 0
M  V30 2264 O 208.552 -0.227797 -1.92859 0
M  V30 2265 C 205.682 -0.817343 -3.37545 0
M  V30 2266 C 204.636 -1.8754 -3.84724 0
M  V30 2267 C 203.962 -1.39305 -5.16235 0
M  V30 2268 C 205.262 -3.28244 -4.06267 0
M  V30 2269 H 206.956 -2.08975 -2.14406 0
M  V30 2270 H 204.502 -1.00612 -1.03021 0
M  V30 2271 H 206.455 -0.711151 -4.15356 0
M  V30 2272 H 205.179 0.154846 -3.26233 0
M  V30 2273 H 203.838 -1.97079 -3.09121 0
M  V30 2274 H 203.486 -0.409846 -5.01328 0
M  V30 2275 H 203.186 -2.10057 -5.48771 0
M  V30 2276 H 204.71 -1.30014 -5.96598 0
M  V30 2277 H 206.124 -3.21611 -4.74594 0
M  V30 2278 H 204.521 -3.96855 -4.5014 0
M  V30 2279 H 205.591 -3.72048 -3.10979 0
M  V30 2280 N 206.934 1.1197 -1.10907 0
M  V30 2281 C 207.897 2.16031 -0.765707 0
M  V30 2282 C 208.897 1.59393 0.212235 0
M  V30 2283 O 210.087 1.74196 -0.0115441 0
M  V30 2284 C 207.219 3.40632 -0.135053 0
M  V30 2285 H 208.412 2.47919 -1.68748 0
M  V30 2286 H 205.965 1.27061 -0.910226 0
M  V30 2287 H 206.7 3.14348 0.797218 0
M  V30 2288 H 206.485 3.8302 -0.838937 0
M  V30 2289 H 207.975 4.17505 0.0892469 0
M  V30 2290 N 208.412 0.89855 1.29475 0
M  V30 2291 C 209.322 0.379974 2.31502 0
M  V30 2292 C 210.338 -0.524695 1.659 0
M  V30 2293 O 211.514 -0.414551 1.97087 0
M  V30 2294 C 208.579 -0.385138 3.44554 0
M  V30 2295 C 207.64 0.550914 4.2575 0
M  V30 2296 C 206.873 -0.177778 5.33404 0
M  V30 2297 O 207.096 -1.40189 5.52904 0
M  V30 2298 O 206.03 0.479106 5.9999 0
M  V30 2299 H 209.856 1.22639 2.77837 0
M  V30 2300 H 207.441 0.662834 1.33891 0
M  V30 2301 H 209.323 -0.817841 4.13388 0
M  V30 2302 H 207.998 -1.20763 3.0033 0
M  V30 2303 H 206.905 1.03271 3.59564 0
M  V30 2304 H 208.238 1.33979 4.73614 0
M  V30 2305 N 209.89 -1.43072 0.660911 0
M  V30 2306 C 210.82 -2.33497 -0.0122829 0
M  V30 2307 C 211.801 -1.49903 -0.803925 0
M  V30 2308 O 212.986 -1.78546 -0.763864 0
M  V30 2309 C 210.116 -3.33363 -0.973994 0
M  V30 2310 C 209.07 -4.27003 -0.291928 0
M  V30 2311 C 208.396 -5.16967 -1.36562 0
M  V30 2312 C 209.696 -5.15816 0.820462 0
M  V30 2313 H 211.39 -2.90038 0.742873 0
M  V30 2314 H 208.936 -1.39461 0.358688 0
M  V30 2315 H 210.889 -3.95524 -1.45392 0
M  V30 2316 H 209.613 -2.75095 -1.7604 0
M  V30 2317 H 208.272 -3.66217 0.167623 0
M  V30 2318 H 207.92 -4.55034 -2.14366 0
M  V30 2319 H 207.62 -5.80441 -0.914454 0
M  V30 2320 H 209.144 -5.82003 -1.84675 0
M  V30 2321 H 210.558 -5.71742 0.422366 0
M  V30 2322 H 208.955 -5.8805 1.19656 0
M  V30 2323 H 210.025 -4.55045 1.67518 0
M  V30 2324 N 211.368 -0.403325 -1.52352 0
M  V30 2325 C 212.645 0.232611 -1.94212 0
M  V30 2326 C 213.025 1.63133 -1.33981 0
M  V30 2327 O 212.373 2.22659 -0.513344 0
M  V30 2328 C 212.583 0.244811 -3.4814 0
M  V30 2329 C 213.931 0.46698 -4.22024 0
M  V30 2330 O 214.955 0.324419 -3.5472 0
M  V30 2331 O 213.814 0.74747 -5.41364 0
M  V30 2332 H 210.908 0.148223 -0.813609 0
M  V30 2333 H 213.454 -0.458848 -1.63379 0
M  V30 2334 H 212.226 -0.734378 -3.84347 0
M  V30 2335 H 211.849 0.980611 -3.85318 0
M  V30 2336 N 212.846 1.57033 -0.133567 0
M  V30 2337 C 214.076 1.99754 0.527429 0
M  V30 2338 C 214.484 1.01245 1.59832 0
M  V30 2339 O 213.827 -0.000645496 1.837 0
M  V30 2340 C 213.889 3.38903 1.19939 0
M  V30 2341 C 213.553 4.56174 0.274709 0
M  V30 2342 C 214.55 5.17563 -0.492398 0
M  V30 2343 C 212.235 5.01972 0.18153 0
M  V30 2344 C 214.229 6.2315 -1.34027 0
M  V30 2345 C 211.916 6.07416 -0.669958 0
M  V30 2346 C 212.914 6.67874 -1.42947 0
M  V30 2347 O 212.602 7.71279 -2.2668 0
M  V30 2348 H 212.334 0.660702 0.142999 0
M  V30 2349 H 214.888 2.04207 -0.221099 0
M  V30 2350 H 213.118 3.31248 1.99528 0
M  V30 2351 H 214.807 3.65818 1.75875 0
M  V30 2352 H 215.573 4.83087 -0.430367 0
M  V30 2353 H 211.452 4.54652 0.762422 0
M  V30 2354 H 214.996 6.70268 -1.93357 0
M  V30 2355 H 210.893 6.41321 -0.73333 0
M  V30 2356 H 211.661 7.88441 -2.1978 0
M  V30 2357 N 214.325 -0.140222 1.56975 0
M  V30 2358 C 215.255 -1.17456 2.01808 0
M  V30 2359 C 216.236 -1.44415 0.898794 0
M  V30 2360 O 217.421 -1.5522 1.16707 0
M  V30 2361 C 214.551 -2.50607 2.40444 0
M  V30 2362 C 213.505 -2.38155 3.55621 0
M  V30 2363 C 212.831 -3.76078 3.80091 0
M  V30 2364 C 214.131 -1.85991 4.88062 0
M  V30 2365 H 215.825 -0.801743 2.88466 0
M  V30 2366 H 213.371 -0.38422 1.38779 0
M  V30 2367 H 215.324 -3.23197 2.7041 0
M  V30 2368 H 214.048 -2.89737 1.50732 0
M  V30 2369 H 212.707 -1.68016 3.25832 0
M  V30 2370 H 212.355 -4.12656 2.87618 0
M  V30 2371 H 212.055 -3.68606 4.57606 0
M  V30 2372 H 213.579 -4.50206 4.12488 0
M  V30 2373 H 214.993 -2.4838 5.16701 0
M  V30 2374 H 213.39 -1.89393 5.6943 0
M  V30 2375 H 214.46 -0.816023 4.77984 0
M  V30 2376 N 215.803 -1.52179 -0.40978 0
M  V30 2377 C 216.733 -1.78435 -1.5061 0
M  V30 2378 C 217.714 -0.635295 -1.57791 0
M  V30 2379 O 218.899 -0.880823 -1.73076 0
M  V30 2380 C 216.029 -1.93444 -2.88439 0
M  V30 2381 C 214.983 -3.09038 -2.96108 0
M  V30 2382 C 214.309 -3.09268 -4.36185 0
M  V30 2383 C 215.609 -4.48508 -2.67652 0
M  V30 2384 H 217.303 -2.70237 -1.28889 0
M  V30 2385 H 214.849 -1.30036 -0.618605 0
M  V30 2386 H 216.802 -2.10394 -3.65119 0
M  V30 2387 H 215.526 -0.983129 -3.11452 0
M  V30 2388 H 214.185 -2.91837 -2.21872 0
M  V30 2389 H 213.833 -2.11861 -4.56206 0
M  V30 2390 H 213.533 -3.86907 -4.42241 0
M  V30 2391 H 215.057 -3.28348 -5.14801 0
M  V30 2392 H 216.471 -4.65918 -3.34056 0
M  V30 2393 H 214.868 -5.28059 -2.85085 0
M  V30 2394 H 215.938 -4.56649 -1.63095 0
M  V30 2395 N 217.281 0.66697 -1.42791 0
M  V30 2396 C 218.229 1.80157 -1.47127 0
M  V30 2397 C 219.223 1.65825 -0.346199 0
M  V30 2398 O 220.429 1.72338 -0.519572 0
M  V30 2399 H 216.804 0.594158 -0.460956 0
M  V30 2400 H 218.775 1.73619 -2.42692 0
M  V30 2401 C 217.524 3.18351 -1.39813 0
M  V30 2402 H 216.847 3.3001 -2.25684 0
M  V30 2403 H 218.287 3.97736 -1.46908 0
M  V30 2404 C 216.746 3.36707 -0.11391 0
M  V30 2405 O 217.276 3.93027 0.830241 0
M  V30 2406 N 215.482 2.90586 -0.0285295 0
M  V30 2407 H 215.029 2.4494 -0.79764 0
M  V30 2408 H 214.987 3.03245 0.830063 0
M  V30 2409 N 218.759 1.29093 0.90403 0
M  V30 2410 C 219.707 1.13727 2.02901 0
M  V30 2411 C 220.701 0.0539853 1.69314 0
M  V30 2412 O 221.907 0.213469 1.7873 0
M  V30 2413 H 218.282 0.35117 0.664969 0
M  V30 2414 H 220.253 2.08982 2.13001 0
M  V30 2415 C 219.002 0.826066 3.37745 0
M  V30 2416 H 218.325 1.65164 3.64089 0
M  V30 2417 H 219.765 0.758559 4.17159 0
M  V30 2418 C 218.224 -0.470541 3.33598 0
M  V30 2419 O 218.754 -1.49792 3.72727 0
M  V30 2420 N 216.96 -0.474812 2.86695 0
M  V30 2421 H 216.507 0.361692 2.55048 0
M  V30 2422 H 216.465 -1.34236 2.84303 0
M  V30 2423 N 220.237 -1.11381 1.11499 0
M  V30 2424 C 221.514 -1.7955 0.775965 0
M  V30 2425 C 221.894 -1.97859 -0.73588 0
M  V30 2426 O 221.242 -1.56376 -1.66609 0
M  V30 2427 C 221.452 -3.13196 1.53977 0
M  V30 2428 C 222.8 -3.88227 1.71944 0
M  V30 2429 O 223.824 -3.22887 1.50407 0
M  V30 2430 O 222.683 -5.05477 2.07738 0
M  V30 2431 H 219.777 -0.777728 0.28119 0
M  V30 2432 H 222.323 -1.18118 1.21845 0
M  V30 2433 H 221.095 -2.95229 2.56818 0
M  V30 2434 H 220.718 -3.82342 1.09088 0
M  V30 2435 N 221.715 -0.905404 -1.28997 0
M  V30 2436 C 222.645 -0.404212 -2.29975 0
M  V30 2437 C 223.626 0.523784 -1.61835 0
M  V30 2438 O 224.811 0.433298 -1.89304 0
M  V30 2439 C 221.941 0.364042 -3.45387 0
M  V30 2440 C 220.895 -0.474048 -4.25367 0
M  V30 2441 C 220.221 0.422045 -5.33032 0
M  V30 2442 C 221.521 -1.72696 -4.92923 0
M  V30 2443 H 223.215 -1.24807 -2.72146 0
M  V30 2444 H 220.761 -0.601585 -1.30832 0
M  V30 2445 H 222.714 0.725447 -4.15109 0
M  V30 2446 H 221.438 1.24174 -3.02074 0
M  V30 2447 H 220.097 -0.81786 -3.57361 0
M  V30 2448 H 219.745 1.29804 -4.85963 0
M  V30 2449 H 219.445 -0.135057 -5.87445 0
M  V30 2450 H 220.969 0.779517 -6.05604 0
M  V30 2451 H 222.383 -1.43495 -5.55051 0
M  V30 2452 H 220.78 -2.22582 -5.57295 0
M  V30 2453 H 221.85 -2.45964 -4.17887 0
M  V30 2454 N 223.193 1.4272 -0.668489 0
M  V30 2455 C 224.156 2.292 0.00448567 0
M  V30 2456 C 225.156 1.43001 0.735339 0
M  V30 2457 O 226.346 1.64461 0.57429 0
M  V30 2458 C 223.478 3.25375 1.01705 0
M  V30 2459 H 224.671 2.90199 -0.756608 0
M  V30 2460 H 222.224 1.50254 -0.430506 0
M  V30 2461 H 222.959 2.69301 1.80686 0
M  V30 2462 H 222.744 3.88944 0.496463 0
M  V30 2463 H 224.234 3.90245 1.48655 0
M  V30 2464 N 224.671 0.411399 1.52136 0
M  V30 2465 C 225.948 -0.222308 1.94333 0
M  V30 2466 C 226.328 -1.6242 1.34844 0
M  V30 2467 O 225.676 -2.22384 0.525145 0
M  V30 2468 C 225.886 -0.226345 3.48265 0
M  V30 2469 C 227.234 -0.444592 4.22266 0
M  V30 2470 O 228.258 -0.305602 3.54887 0
M  V30 2471 O 227.117 -0.718749 5.41753 0
M  V30 2472 H 224.211 -0.143907 0.814383 0
M  V30 2473 H 226.757 0.467506 1.63133 0
M  V30 2474 H 225.529 0.75475 3.83952 0
M  V30 2475 H 225.152 -0.960163 3.85832 0
M  V30 2476 N 226.149 -1.5696 0.141893 0
M  V30 2477 C 227.395 -1.9625 -0.511248 0
M  V30 2478 C 227.728 -1.02654 -1.64851 0
M  V30 2479 O 227.003 -0.0679676 -1.94381 0
M  V30 2480 C 227.286 -3.45285 -1.02227 0
M  V30 2481 C 227.139 -4.49658 0.113138 0
M  V30 2482 C 228.458 -3.96698 -1.90574 0
M  V30 2483 H 225.577 -0.713567 -0.184367 0
M  V30 2484 H 228.219 -1.88698 0.222087 0
M  V30 2485 H 226.369 -3.51852 -1.64719 0
M  V30 2486 H 228.041 -4.55174 0.749302 0
M  V30 2487 H 226.284 -4.26857 0.773026 0
M  V30 2488 H 226.955 -5.51258 -0.286053 0
M  V30 2489 H 229.431 -3.92578 -1.37918 0
M  V30 2490 H 228.307 -5.01453 -2.2324 0
M  V30 2491 H 228.568 -3.3875 -2.84079 0
M  V30 2492 N 227.627 0.131896 -1.57047 0
M  V30 2493 C 228.904 0.871495 -1.75112 0
M  V30 2494 C 229.284 1.9866 -0.713949 0
M  V30 2495 O 228.632 2.26965 0.264447 0
M  V30 2496 C 228.842 1.40007 -3.19686 0
M  V30 2497 C 230.19 1.85752 -3.81813 0
M  V30 2498 O 231.214 1.49715 -3.23209 0
M  V30 2499 O 230.073 2.5226 -4.84796 0
M  V30 2500 H 227.167 0.412919 -0.716538 0
M  V30 2501 H 229.713 0.116641 -1.69299 0
M  V30 2502 H 228.485 0.599404 -3.86682 0
M  V30 2503 H 228.108 2.218 -3.29986 0
M  V30 2504 N 229.106 1.52395 0.401703 0
M  V30 2505 C 230.346 1.68498 1.15705 0
M  V30 2506 C 230.71 0.409748 1.87577 0
M  V30 2507 O 231.911 0.446983 2.65058 0
M  V30 2508 C 230.182 2.87789 2.11924 0
M  V30 2509 S 231.741 3.24415 2.95466 0
M  V30 2510 H 228.559 0.593267 0.391862 0
M  V30 2511 H 231.161 1.90408 0.443282 0
M  V30 2512 H 229.865 3.7884 1.57824 0
M  V30 2513 H 229.396 2.68175 2.87829 0
M  V30 2514 H 231.411 2.73614 4.13944 0
M  V30 2515 N 230.584 -0.659388 1.43143 0
M  V30 2516 C 231.494 -1.80167 1.50256 0
M  V30 2517 C 232.51 -1.69571 0.390106 0
M  V30 2518 O 233.686 -1.90849 0.643319 0
M  V30 2519 C 230.751 -3.16409 1.41725 0
M  V30 2520 C 229.812 -3.38848 2.63591 0
M  V30 2521 C 229.045 -4.68591 2.55458 0
M  V30 2522 O 229.268 -5.47532 1.59891 0
M  V30 2523 O 228.202 -4.92614 3.45854 0
M  V30 2524 H 232.028 -1.77121 2.46702 0
M  V30 2525 H 229.613 -0.817092 1.25076 0
M  V30 2526 H 231.495 -3.9768 1.39387 0
M  V30 2527 H 230.17 -3.20059 0.484118 0
M  V30 2528 H 229.077 -2.57366 2.71502 0
M  V30 2529 H 230.41 -3.4004 3.55856 0
M  V30 2530 N 232.062 -1.29571 -0.897171 0
M  V30 2531 C 233.01 -1.14802 -2.02295 0
M  V30 2532 C 234.004 -0.0629637 -1.69283 0
M  V30 2533 O 235.21 -0.222945 -1.78614 0
M  V30 2534 H 231.585 -0.354692 -0.663097 0
M  V30 2535 H 233.556 -2.10108 -2.11889 0
M  V30 2536 C 232.305 -0.843966 -3.37302 0
M  V30 2537 H 231.628 -1.67093 -3.63208 0
M  V30 2538 H 233.068 -0.780672 -4.16751 0
M  V30 2539 C 231.527 0.452843 -3.33843 0
M  V30 2540 O 232.057 1.47813 -3.73516 0
M  V30 2541 N 230.263 0.459601 -2.86943 0
M  V30 2542 H 229.81 -0.375213 -2.54853 0
M  V30 2543 H 229.768 1.32726 -2.85011 0
M  V30 2544 N 233.54 1.10788 -1.12088 0
M  V30 2545 C 234.786 1.8313 -0.885148 0
M  V30 2546 C 235.141 1.8336 0.582839 0
M  V30 2547 O 234.434 1.28062 1.42516 0
M  V30 2548 C 234.628 3.29294 -1.38926 0
M  V30 2549 C 234.457 3.43302 -2.90472 0
M  V30 2550 C 233.227 3.55928 -3.58669 0
M  V30 2551 C 235.425 3.37014 -3.88492 0
M  V30 2552 N 233.407 3.58475 -4.98366 0
M  V30 2553 C 234.778 3.46263 -5.14298 0
M  V30 2554 C 236.833 3.20589 -3.80955 0
M  V30 2555 C 235.536 3.4078 -6.33452 0
M  V30 2556 C 237.562 3.16427 -4.99628 0
M  V30 2557 C 236.924 3.26253 -6.2429 0
M  V30 2558 H 233.023 0.685054 -0.377128 0
M  V30 2559 H 235.607 1.3251 -1.4265 0
M  V30 2560 H 233.778 3.78416 -0.874999 0
M  V30 2561 H 235.51 3.89578 -1.09596 0
M  V30 2562 H 232.265 3.58779 -3.09151 0
M  V30 2563 H 232.689 3.6337 -5.71219 0
M  V30 2564 H 237.331 3.11873 -2.85474 0
M  V30 2565 H 235.049 3.48263 -7.29204 0
M  V30 2566 H 238.635 3.04874 -4.95523 0
M  V30 2567 H 237.515 3.2303 -7.14578 0
M  V30 2568 N 235.018 0.912232 1.28515 0
M  V30 2569 C 235.928 0.404506 2.31086 0
M  V30 2570 C 236.944 -0.50707 1.66448 0
M  V30 2571 O 238.12 -0.393624 1.97516 0
M  V30 2572 C 235.185 -0.348572 3.44943 0
M  V30 2573 C 234.246 0.59604 4.25142 0
M  V30 2574 C 233.479 -0.121194 5.33562 0
M  V30 2575 O 233.702 -1.34317 5.5436 0
M  V30 2576 O 232.636 0.542716 5.99448 0
M  V30 2577 H 236.462 1.25579 2.76521 0
M  V30 2578 H 234.047 0.676998 1.33181 0
M  V30 2579 H 235.929 -0.77395 4.14232 0
M  V30 2580 H 234.604 -1.17571 3.01594 0
M  V30 2581 H 233.511 1.07079 3.58448 0
M  V30 2582 H 234.844 1.38995 4.72167 0
M  V30 2583 N 236.496 -1.42363 0.676048 0
M  V30 2584 C 237.406 -2.346 -0.00153389 0
M  V30 2585 C 238.422 -1.5516 -0.787485 0
M  V30 2586 O 239.598 -1.87723 -0.729521 0
M  V30 2587 C 236.663 -3.33705 -0.940298 0
M  V30 2588 C 235.724 -4.29042 -0.148739 0
M  V30 2589 C 234.957 -5.23413 -1.04279 0
M  V30 2590 O 235.18 -5.22749 -2.28232 0
M  V30 2591 O 234.114 -5.99795 -0.502925 0
M  V30 2592 H 237.94 -2.94082 0.758268 0
M  V30 2593 H 235.525 -1.42888 0.436289 0
M  V30 2594 H 237.407 -3.94586 -1.47917 0
M  V30 2595 H 236.082 -2.76695 -1.67993 0
M  V30 2596 H 234.989 -3.71571 0.43427 0
M  V30 2597 H 236.322 -4.89097 0.551805 0
M  V30 2598 N 237.974 -0.419461 -1.51915 0
M  V30 2599 C 239.251 0.211999 -1.94448 0
M  V30 2600 C 239.631 1.61703 -1.35703 0
M  V30 2601 O 238.979 2.22102 -0.536931 0
M  V30 2602 C 239.189 0.207872 -3.4838 0
M  V30 2603 C 240.537 0.422192 -4.22496 0
M  V30 2604 O 241.561 0.286778 -3.55044 0
M  V30 2605 O 240.42 0.690009 -5.42126 0
M  V30 2606 H 237.514 0.139586 -0.815135 0
M  V30 2607 H 240.06 -0.476151 -1.62883 0
M  V30 2608 H 238.832 -0.775102 -3.83546 0
M  V30 2609 H 238.455 0.939688 -3.86336 0
M  V30 2610 N 239.452 1.56882 -0.150215 0
M  V30 2611 C 240.68 2.00593 0.506948 0
M  V30 2612 C 241.095 1.03033 1.58208 0
M  V30 2613 O 240.452 0.0278396 1.82479 0
M  V30 2614 C 240.503 3.44209 1.10465 0
M  V30 2615 O 240.224 4.3804 0.0724636 0
M  V30 2616 C 241.725 4.03214 1.84211 0
M  V30 2617 H 238.945 0.65795 0.13169 0
M  V30 2618 H 241.489 2.03018 -0.245743 0
M  V30 2619 H 239.644 3.42625 1.80795 0
M  V30 2620 H 240.058 5.22007 0.510793 0
M  V30 2621 H 241.532 5.0569 2.21318 0
M  V30 2622 H 242.009 3.44107 2.72923 0
M  V30 2623 H 242.615 4.08437 1.18572 0
M  V30 2624 N 240.93 -0.123565 1.57115 0
M  V30 2625 C 242.341 -0.681198 1.73829 0
M  V30 2626 C 242.692 -1.80535 0.768214 0
M  V30 2627 O 241.817 -2.16317 -0.0599103 0
M  V30 2628 C 242.412 -1.24246 3.15196 0
M  V30 2629 C 240.971 -1.74643 3.33432 0
M  V30 2630 C 240.118 -0.644284 2.69711 0
M  V30 2631 H 243.069 0.102315 1.5837 0
M  V30 2632 H 243.09 -2.11216 3.16493 0
M  V30 2633 H 242.602 -0.424062 3.85776 0
M  V30 2634 H 240.703 -2.58974 2.67886 0
M  V30 2635 H 240.816 -1.85902 4.41562 0
M  V30 2636 H 239.18 -1.07676 2.3082 0
M  V30 2637 H 239.963 0.163058 3.42913 0
M  V30 2638 N 242.408 -1.52605 -0.393616 0
M  V30 2639 C 243.655 -1.67424 -1.1391 0
M  V30 2640 C 243.983 -0.411859 -1.90089 0
M  V30 2641 O 243.238 0.605626 -1.86093 0
M  V30 2642 C 243.537 -2.85721 -2.14705 0
M  V30 2643 C 243.203 -4.23342 -1.55218 0
M  V30 2644 C 241.865 -4.60771 -1.3872 0
M  V30 2645 C 244.217 -5.09041 -1.11924 0
M  V30 2646 C 241.545 -5.81563 -0.774689 0
M  V30 2647 C 243.897 -6.30452 -0.520853 0
M  V30 2648 C 242.561 -6.66617 -0.343134 0
M  V30 2649 H 241.831 -0.612648 -0.416826 0
M  V30 2650 H 244.478 -1.8674 -0.424315 0
M  V30 2651 H 242.783 -2.60803 -2.92385 0
M  V30 2652 H 244.48 -2.94382 -2.72288 0
M  V30 2653 H 241.07 -3.93855 -1.69045 0
M  V30 2654 H 245.254 -4.80695 -1.23473 0
M  V30 2655 H 240.51 -6.08196 -0.625154 0
M  V30 2656 H 244.684 -6.96175 -0.177065 0
M  V30 2657 H 242.311 -7.60083 0.133571 0
M  V30 2658 N 243.887 0.651787 -1.4349 0
M  V30 2659 C 244.834 1.76462 -1.4876 0
M  V30 2660 C 245.804 1.62641 -0.337189 0
M  V30 2661 O 246.989 1.82864 -0.544544 0
M  V30 2662 C 244.129 3.14623 -1.41796 0
M  V30 2663 C 243.242 3.39568 -2.67053 0
M  V30 2664 C 242.377 4.67585 -2.52068 0
M  V30 2665 C 241.416 4.85639 -3.72587 0
M  V30 2666 N 240.553 6.04915 -3.56402 0
M  V30 2667 H 245.393 1.71293 -2.43849 0
M  V30 2668 H 242.93 0.835889 -1.21043 0
M  V30 2669 H 244.888 3.94496 -1.35753 0
M  V30 2670 H 243.518 3.18859 -0.50288 0
M  V30 2671 H 242.57 2.53783 -2.8337 0
M  V30 2672 H 243.882 3.48795 -3.56572 0
M  V30 2673 H 243.036 5.55586 -2.4374 0
M  V30 2674 H 241.775 4.60681 -1.60075 0
M  V30 2675 H 240.78 3.96073 -3.81321 0
M  V30 2676 H 242.005 4.94372 -4.65589 0
M  V30 2677 H 239.951 5.9914 -2.67146 0
M  V30 2678 H 239.868 6.15106 -4.39524 0
M  V30 2679 H 241.136 6.95533 -3.51929 0
M  V30 2680 N 245.365 1.30045 0.890287 0
M  V30 2681 C 246.642 1.09227 1.62262 0
M  V30 2682 C 247.022 -0.360305 2.08002 0
M  V30 2683 O 246.37 -1.35084 1.84295 0
M  V30 2684 C 246.58 2.08835 2.79623 0
M  V30 2685 C 247.928 2.40266 3.50082 0
M  V30 2686 O 248.952 2.07104 2.89804 0
M  V30 2687 O 247.811 2.96967 4.58773 0
M  V30 2688 H 244.905 0.419132 0.712922 0
M  V30 2689 H 247.451 1.41451 0.937529 0
M  V30 2690 H 246.223 3.06633 2.43089 0
M  V30 2691 H 245.846 1.77397 3.55832 0
M  V30 2692 N 246.843 -1.10192 1.12674 0
M  V30 2693 C 248.254 -1.63707 0.897604 0
M  V30 2694 C 248.605 -1.87812 -0.567546 0
M  V30 2695 O 247.73 -1.62196 -1.43253 0
M  V30 2696 C 248.325 -2.974 1.62292 0
M  V30 2697 C 246.884 -3.47772 1.43986 0
M  V30 2698 C 246.031 -2.22332 1.65722 0
M  V30 2699 H 248.982 -0.936587 1.28116 0
M  V30 2700 H 249.003 -3.64986 1.07541 0
M  V30 2701 H 248.515 -2.79824 2.68924 0
M  V30 2702 H 246.616 -3.70487 0.396206 0
M  V30 2703 H 246.729 -4.25723 2.19765 0
M  V30 2704 H 245.093 -2.30599 1.08149 0
M  V30 2705 H 245.876 -2.07285 2.73657 0
M  V30 2706 N 248.321 -0.919034 -1.28029 0
M  V30 2707 C 249.737 -0.617972 -1.4715 0
M  V30 2708 C 249.937 0.835242 -1.83374 0
M  V30 2709 O 248.993 1.61388 -1.94191 0
M  V30 2710 C 250.306 -1.56041 -2.57044 0
M  V30 2711 C 251.854 -1.56769 -2.7091 0
M  V30 2712 C 252.329 -2.49688 -3.83953 0
M  V30 2713 N 253.82 -2.47845 -3.91314 0
M  V30 2714 C 254.555 -3.16437 -4.78179 0
M  V30 2715 N 254.051 -3.94376 -5.69596 0
M  V30 2716 N 255.844 -3.05498 -4.71834 0
M  V30 2717 H 247.995 -1.85866 -1.02798 0
M  V30 2718 H 250.258 -0.797506 -0.512531 0
M  V30 2719 H 249.964 -2.59671 -2.372 0
M  V30 2720 H 249.838 -1.29551 -3.54255 0
M  V30 2721 H 252.225 -0.538745 -2.90141 0
M  V30 2722 H 252.306 -1.87305 -1.74214 0
M  V30 2723 H 251.95 -3.52688 -3.65477 0
M  V30 2724 H 251.88 -2.16453 -4.80058 0
M  V30 2725 H 254.371 -1.91234 -3.25941 0
M  V30 2726 H 254.684 -4.43721 -6.32718 0
M  V30 2727 H 253.029 -3.98481 -5.69419 0
M  V30 2728 H 256.22 -2.44108 -3.99411 0
M  V30 2729 H 256.393 -3.59225 -5.39316 0
M  V30 2730 N 249.799 1.42003 -0.683588 0
M  V30 2731 C 250.709 2.34597 -0.0109075 0
M  V30 2732 C 251.725 1.55576 0.779245 0
M  V30 2733 O 252.901 1.88107 0.719555 0
M  V30 2734 C 249.966 3.34199 0.922588 0
M  V30 2735 C 249.027 4.29115 0.125984 0
M  V30 2736 C 248.26 5.23959 1.01502 0
M  V30 2737 O 248.483 5.23952 2.25456 0
M  V30 2738 O 247.417 6.00053 0.47111 0
M  V30 2739 H 251.243 2.93675 -0.773853 0
M  V30 2740 H 248.828 1.42654 -0.443861 0
M  V30 2741 H 250.71 3.95365 1.45823 0
M  V30 2742 H 249.385 2.77582 1.66523 0
M  V30 2743 H 248.292 3.71335 -0.453969 0
M  V30 2744 H 249.625 4.88798 -0.577736 0
M  V30 2745 N 251.277 0.427512 1.51691 0
M  V30 2746 C 252.207 -0.3796 2.30394 0
M  V30 2747 C 253.188 -1.02982 1.35384 0
M  V30 2748 O 254.373 -1.03534 1.643 0
M  V30 2749 C 251.503 -1.48649 3.1388 0
M  V30 2750 C 250.457 -0.960294 4.17088 0
M  V30 2751 C 249.783 -2.16219 4.89033 0
M  V30 2752 C 251.083 -0.00153679 5.223 0
M  V30 2753 H 252.777 0.277164 2.98114 0
M  V30 2754 H 250.323 0.134739 1.43368 0
M  V30 2755 H 252.276 -2.05826 3.67714 0
M  V30 2756 H 251 -2.1714 2.43962 0
M  V30 2757 H 249.659 -0.410806 3.64291 0
M  V30 2758 H 249.307 -2.83307 4.15628 0
M  V30 2759 H 249.007 -1.81654 5.58816 0
M  V30 2760 H 250.531 -2.73968 5.45687 0
M  V30 2761 H 251.945 -0.482687 5.71264 0
M  V30 2762 H 250.342 0.256199 5.99553 0
M  V30 2763 H 251.412 0.938174 4.75738 0
M  V30 2764 N 252.755 -1.56801 0.158532 0
M  V30 2765 C 253.985 -2.00568 -0.495583 0
M  V30 2766 C 254.393 -1.03774 -1.58201 0
M  V30 2767 O 253.736 -0.0285797 -1.83678 0
M  V30 2768 C 253.798 -3.40768 -1.14532 0
M  V30 2769 C 253.462 -4.56553 -0.202101 0
M  V30 2770 C 254.459 -5.16714 0.574675 0
M  V30 2771 C 252.144 -5.02197 -0.101648 0
M  V30 2772 C 254.138 -6.20939 1.43924 0
M  V30 2773 C 251.825 -6.06274 0.766508 0
M  V30 2774 C 252.823 -6.65515 1.53555 0
M  V30 2775 O 252.511 -7.67575 2.38922 0
M  V30 2776 H 252.243 -0.662893 -0.13247 0
M  V30 2777 H 254.797 -2.03829 0.253559 0
M  V30 2778 H 253.027 -3.34381 -1.94233 0
M  V30 2779 H 254.716 -3.6857 -1.70033 0
M  V30 2780 H 255.482 -4.82341 0.507167 0
M  V30 2781 H 251.361 -4.55807 -0.689994 0
M  V30 2782 H 254.905 -6.67107 2.03996 0
M  V30 2783 H 250.802 -6.40073 0.835266 0
M  V30 2784 H 251.57 -7.84844 2.32296 0
M  V30 2785 N 254.233 0.115231 -1.57178 0
M  V30 2786 C 255.51 0.852873 -1.76027 0
M  V30 2787 C 255.89 1.97892 -0.73498 0
M  V30 2788 O 255.238 2.27232 0.24036 0
M  V30 2789 C 255.448 1.36608 -3.21153 0
M  V30 2790 C 256.796 1.81692 -3.83762 0
M  V30 2791 O 257.82 1.46278 -3.24779 0
M  V30 2792 O 256.679 2.47104 -4.87444 0
M  V30 2793 H 253.773 0.405296 -0.720877 0
M  V30 2794 H 256.319 0.0986785 -1.69413 0
M  V30 2795 H 255.091 0.558357 -3.87296 0
M  V30 2796 H 254.714 2.18287 -3.3232 0
M  V30 2797 N 255.711 1.52812 0.385517 0
M  V30 2798 C 256.958 1.68026 1.1302 0
M  V30 2799 C 257.286 0.421934 1.89868 0
M  V30 2800 O 256.541 -0.595749 1.86412 0
M  V30 2801 C 256.84 2.86856 2.13187 0
M  V30 2802 C 256.506 4.24159 1.5297 0
M  V30 2803 C 255.168 4.61501 1.36274 0
M  V30 2804 C 257.52 5.09627 1.09223 0
M  V30 2805 C 254.848 5.81966 0.743837 0
M  V30 2806 C 257.2 6.30719 0.487411 0
M  V30 2807 C 255.864 6.6679 0.307777 0
M  V30 2808 H 255.134 0.614849 0.413571 0
M  V30 2809 H 257.781 1.86962 0.414405 0
M  V30 2810 H 256.086 2.6235 2.90998 0
M  V30 2811 H 257.783 2.95821 2.70722 0
M  V30 2812 H 254.373 3.94746 1.66954 0
M  V30 2813 H 258.557 4.81343 1.20922 0
M  V30 2814 H 253.813 6.08519 0.592891 0
M  V30 2815 H 257.987 6.96259 0.140143 0
M  V30 2816 H 255.614 7.60001 -0.173879 0
M  V30 2817 N 257.189 -0.644168 1.43834 0
M  V30 2818 C 258.119 -1.76814 1.52509 0
M  V30 2819 C 259.1 -1.65823 0.379052 0
M  V30 2820 O 260.285 -1.84781 0.597466 0
M  V30 2821 C 257.415 -3.15288 1.4564 0
M  V30 2822 C 256.369 -3.41053 2.58586 0
M  V30 2823 C 255.695 -4.79421 2.36769 0
M  V30 2824 C 256.995 -3.34902 4.00797 0
M  V30 2825 H 258.689 -1.69812 2.46586 0
M  V30 2826 H 256.235 -0.815542 1.1868 0
M  V30 2827 H 258.188 -3.93681 1.50311 0
M  V30 2828 H 256.912 -3.23043 0.480725 0
M  V30 2829 H 255.571 -2.65035 2.53282 0
M  V30 2830 H 255.219 -4.83863 1.37424 0
M  V30 2831 H 254.919 -4.9762 3.12487 0
M  V30 2832 H 256.443 -5.6006 2.43238 0
M  V30 2833 H 257.857 -4.03218 4.07539 0
M  V30 2834 H 256.254 -3.64637 4.76613 0
M  V30 2835 H 257.324 -2.32928 4.25291 0
M  V30 2836 N 258.668 -1.30515 -0.883378 0
M  V30 2837 C 259.615 -1.17032 -1.98927 0
M  V30 2838 C 260.585 -0.0594241 -1.65994 0
M  V30 2839 O 261.77 -0.229895 -1.8941 0
M  V30 2840 C 258.91 -0.869777 -3.33959 0
M  V30 2841 C 258.023 -2.06271 -3.79574 0
M  V30 2842 C 257.158 -1.70011 -5.03259 0
M  V30 2843 C 256.197 -2.8579 -5.41286 0
M  V30 2844 N 255.334 -2.49816 -6.56153 0
M  V30 2845 H 260.174 -2.1164 -2.09792 0
M  V30 2846 H 257.711 -1.05296 -1.02719 0
M  V30 2847 H 259.669 -0.676138 -4.11685 0
M  V30 2848 H 258.299 0.0394332 -3.22776 0
M  V30 2849 H 257.351 -2.36755 -2.97744 0
M  V30 2850 H 258.663 -2.92971 -4.03694 0
M  V30 2851 H 257.817 -1.47032 -5.88614 0
M  V30 2852 H 256.556 -0.804829 -4.81013 0
M  V30 2853 H 255.561 -3.09434 -4.54456 0
M  V30 2854 H 256.786 -3.76008 -5.65504 0
M  V30 2855 H 254.732 -1.62795 -6.35479 0
M  V30 2856 H 254.649 -3.30048 -6.8015 0
M  V30 2857 H 255.917 -2.30197 -7.44735 0
M  V30 2858 N 260.146 1.09593 -1.13257 0
M  V30 2859 C 261.374 1.855 -0.916378 0
M  V30 2860 C 261.789 1.81069 0.534738 0
M  V30 2861 O 261.146 1.20562 1.37007 0
M  V30 2862 C 261.197 3.33546 -1.39388 0
M  V30 2863 O 260.918 3.37927 -2.78813 0
M  V30 2864 C 262.419 4.26299 -1.21588 0
M  V30 2865 H 259.639 0.585991 -0.326887 0
M  V30 2866 H 262.183 1.38488 -1.5047 0
M  V30 2867 H 260.338 3.77992 -0.848597 0
M  V30 2868 H 260.752 4.30254 -2.9997 0
M  V30 2869 H 262.226 5.28341 -1.59876 0
M  V30 2870 H 262.703 4.38918 -0.157376 0
M  V30 2871 H 263.309 3.87668 -1.7491 0
M  V30 2872 N 261.624 0.925811 1.2754 0
M  V30 2873 C 262.534 0.428993 2.30644 0
M  V30 2874 C 263.55 -0.489387 1.66976 0
M  V30 2875 O 264.726 -0.372653 1.97922 0
M  V30 2876 C 261.791 -0.311967 3.45294 0
M  V30 2877 C 260.852 0.641098 4.24486 0
M  V30 2878 C 260.085 -0.0645955 5.33661 0
M  V30 2879 O 260.308 -1.28429 5.55754 0
M  V30 2880 O 259.242 0.606265 5.98839 0
M  V30 2881 H 263.068 1.28504 2.75173 0
M  V30 2882 H 260.653 0.691086 1.32455 0
M  V30 2883 H 262.535 -0.729972 4.15029 0
M  V30 2884 H 261.21 -1.14365 3.02824 0
M  V30 2885 H 260.117 1.10874 3.57292 0
M  V30 2886 H 261.45 1.43995 4.70666 0
M  V30 2887 N 263.102 -1.41638 0.69111 0
M  V30 2888 C 264.049 -2.30789 0.0229705 0
M  V30 2889 C 265.019 -1.46863 -0.775911 0
M  V30 2890 O 266.204 -1.75661 -0.74485 0
M  V30 2891 C 263.344 -3.32868 -0.910666 0
M  V30 2892 C 262.457 -4.31875 -0.103874 0
M  V30 2893 C 261.592 -5.21024 -1.03475 0
M  V30 2894 C 260.631 -6.11702 -0.220598 0
M  V30 2895 N 259.768 -6.93349 -1.10504 0
M  V30 2896 H 264.608 -2.87366 0.788978 0
M  V30 2897 H 262.145 -1.41535 0.400794 0
M  V30 2898 H 264.103 -3.90596 -1.46597 0
M  V30 2899 H 262.733 -2.77851 -1.64312 0
M  V30 2900 H 261.785 -3.76131 0.568285 0
M  V30 2901 H 263.097 -4.96003 0.527504 0
M  V30 2902 H 262.251 -5.83565 -1.65943 0
M  V30 2903 H 260.99 -4.57112 -1.69999 0
M  V30 2904 H 259.995 -5.48215 0.417187 0
M  V30 2905 H 261.22 -6.77668 0.440784 0
M  V30 2906 H 259.166 -6.3205 -1.75638 0
M  V30 2907 H 259.083 -7.54146 -0.529125 0
M  V30 2908 H 260.351 -7.60362 -1.71667 0
M  V30 2909 N 264.58 -0.43555 -1.51462 0
M  V30 2910 C 265.991 0.0279871 -1.86679 0
M  V30 2911 C 266.342 1.42104 -1.35281 0
M  V30 2912 O 265.467 2.04667 -0.702878 0
M  V30 2913 C 266.062 0.0575626 -3.38751 0
M  V30 2914 C 264.621 0.465507 -3.7351 0
M  V30 2915 C 263.768 -0.342996 -2.75171 0
M  V30 2916 H 266.719 -0.651473 -1.44712 0
M  V30 2917 H 266.74 0.867421 -3.70481 0
M  V30 2918 H 266.252 -0.956448 -3.7613 0
M  V30 2919 H 264.353 1.48519 -3.41721 0
M  V30 2920 H 264.466 0.191546 -4.78717 0
M  V30 2921 H 262.83 0.198442 -2.53926 0
M  V30 2922 H 263.613 -1.35585 -3.15391 0
M  V30 2923 N 266.058 1.56714 -0.166846 0
M  V30 2924 C 266.968 2.21331 0.777791 0
M  V30 2925 C 267.984 1.20358 1.25658 0
M  V30 2926 O 269.16 1.53005 1.30964 0
M  V30 2927 C 266.225 2.83787 1.99163 0
M  V30 2928 C 265.286 3.99947 1.56016 0
M  V30 2929 C 264.519 4.59415 2.71613 0
M  V30 2930 O 264.742 4.17769 3.88362 0
M  V30 2931 O 263.676 5.49359 2.45945 0
M  V30 2932 H 267.502 3.02605 0.257636 0
M  V30 2933 H 265.087 1.49275 0.0611393 0
M  V30 2934 H 266.969 3.23405 2.70161 0
M  V30 2935 H 265.644 2.05513 2.50092 0
M  V30 2936 H 264.551 3.65007 0.819809 0
M  V30 2937 H 265.884 4.79801 1.09782 0
M  V30 2938 N 267.536 -0.106894 1.57237 0
M  V30 2939 C 268.446 -1.14911 2.0453 0
M  V30 2940 C 269.462 -1.44592 0.96795 0
M  V30 2941 O 270.638 -1.55468 1.2803 0
M  V30 2942 C 267.703 -2.45272 2.45036 0
M  V30 2943 C 266.764 -2.22879 3.66911 0
M  V30 2944 C 265.997 -3.47024 4.05475 0
M  V30 2945 O 266.22 -4.54804 3.44252 0
M  V30 2946 O 265.154 -3.3731 4.98504 0
M  V30 2947 H 268.98 -0.777461 2.9358 0
M  V30 2948 H 266.565 -0.318563 1.45964 0
M  V30 2949 H 268.447 -3.22055 2.71769 0
M  V30 2950 H 267.122 -2.81886 1.59129 0
M  V30 2951 H 266.029 -1.43915 3.45311 0
M  V30 2952 H 267.362 -1.91163 4.53561 0
M  V30 2953 N 269.014 -1.53014 -0.377408 0
M  V30 2954 C 269.924 -1.81557 -1.48574 0
M  V30 2955 C 270.94 -0.703102 -1.59162 0
M  V30 2956 O 272.116 -0.99192 -1.75279 0
M  V30 2957 C 269.181 -1.9889 -2.83978 0
M  V30 2958 C 268.242 -3.22801 -2.83016 0
M  V30 2959 C 267.475 -3.39298 -4.11962 0
M  V30 2960 O 267.698 -2.60345 -5.0752 0
M  V30 2961 O 266.632 -4.32604 -4.18494 0
M  V30 2962 H 270.458 -2.75695 -1.27382 0
M  V30 2963 H 268.043 -1.38248 -0.566373 0
M  V30 2964 H 269.925 -2.11931 -3.6423 0
M  V30 2965 H 268.6 -1.07942 -3.05172 0
M  V30 2966 H 267.507 -3.15193 -2.01505 0
M  V30 2967 H 268.84 -4.13632 -2.66775 0
M  V30 2968 N 270.492 0.636531 -1.44174 0
M  V30 2969 C 271.422 1.76003 -1.53444 0
M  V30 2970 C 272.403 1.65619 -0.387841 0
M  V30 2971 O 273.588 1.84461 -0.607257 0
M  V30 2972 C 270.718 3.14511 -1.4731 0
M  V30 2973 C 269.672 3.39677 -2.60391 0
M  V30 2974 C 268.998 4.78159 -2.39308 0
M  V30 2975 C 270.298 3.32772 -4.02567 0
M  V30 2976 H 271.992 1.68501 -2.47483 0
M  V30 2977 H 269.538 0.809237 -1.19111 0
M  V30 2978 H 271.491 3.92878 -1.52397 0
M  V30 2979 H 270.215 3.22783 -0.49785 0
M  V30 2980 H 268.874 2.63688 -2.54684 0
M  V30 2981 H 268.522 4.83128 -1.39988 0
M  V30 2982 H 268.222 4.95956 -3.15122 0
M  V30 2983 H 269.746 5.58762 -2.46205 0
M  V30 2984 H 271.16 4.01051 -4.09672 0
M  V30 2985 H 269.557 3.62104 -4.7854 0
M  V30 2986 H 270.627 2.30669 -4.2652 0
M  V30 2987 N 271.97 1.30982 0.876444 0
M  V30 2988 C 273.216 1.20474 1.63138 0
M  V30 2989 C 273.549 -0.238096 1.92735 0
M  V30 2990 O 272.824 -1.1692 1.55435 0
M  V30 2991 C 273.107 2.04244 2.96574 0
M  V30 2992 C 272.96 3.56793 2.73896 0
M  V30 2993 C 274.279 1.88684 3.97601 0
M  V30 2994 H 271.398 0.439001 0.591985 0
M  V30 2995 H 274.04 1.60704 1.01361 0
M  V30 2996 H 272.19 1.70063 3.493 0
M  V30 2997 H 273.862 4.01077 2.27892 0
M  V30 2998 H 272.105 3.80548 2.08245 0
M  V30 2999 H 272.776 4.10706 3.68815 0
M  V30 3000 H 275.252 2.18584 3.54062 0
M  V30 3001 H 274.128 2.4961 4.88862 0
M  V30 3002 H 274.389 0.848343 4.33884 0
M  V30 3003 N 273.449 -1.08991 1.13837 0
M  V30 3004 C 274.696 -1.81258 0.902882 0
M  V30 3005 C 275.024 -1.85936 -0.570803 0
M  V30 3006 O 274.279 -1.3267 -1.43865 0
M  V30 3007 C 274.578 -3.27042 1.44147 0
M  V30 3008 C 274.244 -3.4249 2.93276 0
M  V30 3009 C 272.906 -3.46414 3.33992 0
M  V30 3010 C 275.258 -3.4666 3.892 0
M  V30 3011 C 272.586 -3.52091 4.69307 0
M  V30 3012 C 274.938 -3.53872 5.24364 0
M  V30 3013 C 273.602 -3.56066 5.646 0
M  V30 3014 H 272.872 -0.663268 0.330388 0
M  V30 3015 H 275.519 -1.28368 1.42105 0
M  V30 3016 H 273.824 -3.82599 0.844097 0
M  V30 3017 H 275.521 -3.81499 1.23528 0
M  V30 3018 H 272.111 -3.40124 2.60794 0
M  V30 3019 H 276.295 -3.42865 3.58828 0
M  V30 3020 H 271.551 -3.52079 4.9985 0
M  V30 3021 H 275.725 -3.56043 5.98503 0
M  V30 3022 H 273.352 -3.60218 6.69438 0
M  V30 3023 N 274.927 -0.932562 -1.27047 0
M  V30 3024 C 276.152 -0.591474 -1.98787 0
M  V30 3025 C 276.577 0.824601 -1.69062 0
M  V30 3026 O 275.935 1.5541 -0.933677 0
M  V30 3027 C 275.983 -0.829808 -3.50922 0
M  V30 3028 O 275.087 0.102266 -4.12273 0
M  V30 3029 H 274.428 -0.227185 -0.623926 0
M  V30 3030 H 276.958 -1.25314 -1.61733 0
M  V30 3031 H 276.968 -0.747292 -4.01098 0
M  V30 3032 H 275.643 -1.86201 -3.7189 0
M  V30 3033 H 274.22 -0.0305761 -3.72887 0
M  V30 3034 N 276.405 1.4127 -0.698611 0
M  V30 3035 C 277.355 2.27997 -0.0119836 0
M  V30 3036 C 278.339 1.42363 0.749765 0
M  V30 3037 O 279.531 1.65607 0.624758 0
M  V30 3038 C 276.66 3.30702 0.921458 0
M  V30 3039 C 275.746 4.23814 0.155796 0
M  V30 3040 N 276.137 4.98572 -0.852015 0
M  V30 3041 C 274.435 4.44284 0.390836 0
M  V30 3042 C 275.136 5.66744 -1.3106 0
M  V30 3043 N 274.112 5.39867 -0.635944 0
M  V30 3044 H 277.914 2.83232 -0.784649 0
M  V30 3045 H 275.428 1.53518 -0.529711 0
M  V30 3046 H 277.425 3.91661 1.42854 0
M  V30 3047 H 276.085 2.77028 1.69369 0
M  V30 3048 H 277.096 5.03024 -1.23235 0
M  V30 3049 H 273.773 4.01614 1.14071 0
M  V30 3050 H 275.163 6.36672 -2.14707 0
M  V30 3051 N 277.883 0.443576 1.51229 0
M  V30 3052 C 279.131 -0.120557 2.0174 0
M  V30 3053 C 279.452 -1.42665 1.32935 0
M  V30 3054 O 278.722 -1.9028 0.465866 0
M  V30 3055 H 277.302 -0.0475426 0.745486 0
M  V30 3056 H 279.964 0.587711 1.85828 0
M  V30 3057 H 279.06 -0.291972 3.10731 0
M  V30 3058 N 279.361 -1.56624 0.175154 0
M  V30 3059 C 280.638 -1.88688 -0.515373 0
M  V30 3060 C 281.018 -1.08564 -1.81044 0
M  V30 3061 O 280.366 -0.180703 -2.27784 0
M  V30 3062 C 280.576 -3.40768 -0.753552 0
M  V30 3063 C 281.924 -4.10587 -1.08184 0
M  V30 3064 O 282.948 -3.46106 -0.841961 0
M  V30 3065 O 281.807 -5.24512 -1.53459 0
M  V30 3066 H 278.901 -0.78301 -0.26613 0
M  V30 3067 H 281.447 -1.68347 0.213877 0
M  V30 3068 H 280.219 -3.90965 0.161829 0
M  V30 3069 H 279.842 -3.66733 -1.53598 0
M  V30 3070 N 280.839 0.0985539 -1.57292 0
M  V30 3071 C 281.769 1.12064 -2.04851 0
M  V30 3072 C 282.75 1.41981 -0.936767 0
M  V30 3073 O 283.935 1.52071 -1.20781 0
M  V30 3074 C 281.065 2.44144 -2.47004 0
M  V30 3075 C 280.019 2.28643 -3.6181 0
M  V30 3076 C 279.345 3.65869 -3.89929 0
M  V30 3077 C 280.645 1.72986 -4.92822 0
M  V30 3078 H 282.339 0.724979 -2.9049 0
M  V30 3079 H 279.885 0.34729 -1.39749 0
M  V30 3080 H 281.838 3.15914 -2.78884 0
M  V30 3081 H 280.562 2.85639 -1.5836 0
M  V30 3082 H 279.221 1.59318 -3.30172 0
M  V30 3083 H 278.869 4.04885 -2.98458 0
M  V30 3084 H 278.569 3.56344 -4.67218 0
M  V30 3085 H 280.093 4.39112 -4.2428 0
M  V30 3086 H 281.507 2.34593 -5.23105 0
M  V30 3087 H 279.904 1.74229 -5.74251 0
M  V30 3088 H 280.974 0.689007 -4.7998 0
M  V30 3089 N 282.317 1.53212 0.369288 0
M  V30 3090 C 283.565 1.68881 1.11012 0
M  V30 3091 C 283.886 0.441285 1.89941 0
M  V30 3092 O 283.156 -0.544623 1.88177 0
M  V30 3093 H 281.736 0.622569 0.412816 0
M  V30 3094 H 284.398 1.90391 0.416802 0
M  V30 3095 H 283.494 2.54822 1.80201 0
M  V30 3096 N 283.795 -0.628877 1.44509 0
M  V30 3097 C 285.072 -1.38733 1.37886 0
M  V30 3098 C 285.452 -2.11065 0.0387008 0
M  V30 3099 O 284.8 -2.06476 -0.97878 0
M  V30 3100 C 285.01 -2.35188 2.57852 0
M  V30 3101 C 286.358 -2.9845 3.02014 0
M  V30 3102 O 287.382 -2.45513 2.58073 0
M  V30 3103 O 286.241 -3.94487 3.78209 0
M  V30 3104 H 283.335 -0.621015 0.54614 0
M  V30 3105 H 285.881 -0.653744 1.56602 0
M  V30 3106 H 284.653 -1.80855 3.46998 0
M  V30 3107 H 284.276 -3.1596 2.4136 0
M  V30 3108 N 285.273 -1.31445 -0.869486 0
M  V30 3109 C 286.498 -1.24256 -1.66058 0
M  V30 3110 C 286.923 0.188928 -1.87149 0
M  V30 3111 O 286.281 1.13522 -1.4136 0
M  V30 3112 C 286.329 -1.9924 -3.00559 0
M  V30 3113 O 285.433 -1.33007 -3.90362 0
M  V30 3114 H 284.774 -0.428973 -0.506831 0
M  V30 3115 H 287.304 -1.73521 -1.08404 0
M  V30 3116 H 287.314 -2.08854 -3.50491 0
M  V30 3117 H 285.989 -3.03342 -2.84528 0
M  V30 3118 H 284.566 -1.31848 -3.48813 0
M  V30 3119 N 286.751 1.08385 -1.14413 0
M  V30 3120 C 287.699 2.17406 -0.826888 0
M  V30 3121 C 288.693 1.6827 0.195312 0
M  V30 3122 O 289.899 1.79927 0.0513892 0
M  V30 3123 H 286.274 0.70934 -0.249681 0
M  V30 3124 H 288.245 2.41388 -1.75426 0
M  V30 3125 C 286.994 3.46215 -0.320979 0
M  V30 3126 H 286.317 3.84401 -1.0989 0
M  V30 3127 H 287.757 4.23777 -0.137549 0
M  V30 3128 C 286.216 3.23067 0.955472 0
M  V30 3129 O 286.746 3.4668 2.02918 0
M  V30 3130 N 284.952 2.7661 0.890798 0
M  V30 3131 H 284.499 2.57594 0.0168815 0
M  V30 3132 H 284.457 2.61501 1.74542 0
M  V30 3133 N 288.23 0.939286 1.26551 0
M  V30 3134 C 289.479 0.581601 1.93133 0
M  V30 3135 C 289.792 -0.883224 1.74524 0
M  V30 3136 O 290.998 -1.3502 2.35546 0
M  V30 3137 C 289.454 0.989425 3.46032 0
M  V30 3138 C 289.062 2.47573 3.73379 0
M  V30 3139 C 290.806 0.703544 4.18629 0
M  V30 3140 C 288.713 2.82235 5.19709 0
M  V30 3141 H 287.643 0.213803 0.723052 0
M  V30 3142 H 290.294 1.14167 1.4366 0
M  V30 3143 H 288.676 0.357902 3.94379 0
M  V30 3144 H 289.85 3.15614 3.35744 0
M  V30 3145 H 288.165 2.73471 3.1401 0
M  V30 3146 H 290.762 0.938869 5.26393 0
M  V30 3147 H 291.105 -0.359639 4.14744 0
M  V30 3148 H 291.638 1.2947 3.76141 0
M  V30 3149 H 288.377 3.87509 5.28694 0
M  V30 3150 H 287.897 2.18854 5.58447 0
M  V30 3151 H 289.576 2.70599 5.87695 0
M  V30 3152 N 289.708 -1.40897 0.706093 0
M  V30 3153 C 290.955 -2.01054 0.241531 0
M  V30 3154 C 291.283 -1.55956 -1.16223 0
M  V30 3155 O 290.538 -0.766336 -1.80072 0
M  V30 3156 C 290.837 -3.5646 0.259099 0
M  V30 3157 C 290.503 -4.21106 1.61184 0
M  V30 3158 C 289.165 -4.38479 1.98216 0
M  V30 3159 C 291.517 -4.57256 2.50132 0
M  V30 3160 C 288.845 -4.89282 3.2376 0
M  V30 3161 C 291.197 -5.09454 3.7502 0
M  V30 3162 C 289.861 -5.25037 4.12181 0
M  V30 3163 H 289.131 -0.73571 0.0883825 0
M  V30 3164 H 291.778 -1.68645 0.907257 0
M  V30 3165 H 290.083 -3.88721 -0.490189 0
M  V30 3166 H 291.78 -4.00826 -0.11804 0
M  V30 3167 H 288.37 -4.07966 1.31384 0
M  V30 3168 H 292.554 -4.43479 2.228 0
M  V30 3169 H 287.81 -4.99531 3.52532 0
M  V30 3170 H 291.984 -5.36404 4.44121 0
M  V30 3171 H 289.611 -5.64164 5.09532 0
M  V30 3172 N 291.186 -0.45159 -1.50991 0
M  V30 3173 C 292.432 0.110237 -2.025 0
M  V30 3174 C 292.765 1.41109 -1.33424 0
M  V30 3175 O 292.04 1.89135 -0.453659 0
M  V30 3176 C 292.323 0.314271 -3.58726 0
M  V30 3177 C 292.176 -1.00623 -4.38401 0
M  V30 3178 C 293.495 1.07767 -4.26702 0
M  V30 3179 H 290.614 0.0385897 -0.735989 0
M  V30 3180 H 293.256 -0.593374 -1.80497 0
M  V30 3181 H 291.406 0.913601 -3.77605 0
M  V30 3182 H 293.078 -1.64064 -4.31139 0
M  V30 3183 H 291.321 -1.6075 -4.02917 0
M  V30 3184 H 291.992 -0.817341 -5.45915 0
M  V30 3185 H 294.468 0.56986 -4.12179 0
M  V30 3186 H 293.344 1.18921 -5.35863 0
M  V30 3187 H 293.605 2.10939 -3.88532 0
M  V30 3188 N 292.664 1.56529 -0.183458 0
M  V30 3189 C 293.611 2.18546 0.742055 0
M  V30 3190 C 294.581 1.12912 1.2182 0
M  V30 3191 O 295.766 1.41115 1.28418 0
M  V30 3192 C 292.906 2.83977 1.96089 0
M  V30 3193 C 292.019 4.04105 1.52719 0
M  V30 3194 C 291.154 4.57427 2.70063 0
M  V30 3195 C 290.193 5.69938 2.23243 0
M  V30 3196 N 289.33 6.17717 3.33722 0
M  V30 3197 H 294.17 2.97284 0.206432 0
M  V30 3198 H 291.707 1.46823 0.0901571 0
M  V30 3199 H 293.665 3.20077 2.67594 0
M  V30 3200 H 292.295 2.07822 2.47002 0
M  V30 3201 H 291.347 3.73745 0.708436 0
M  V30 3202 H 292.659 4.85513 1.1436 0
M  V30 3203 H 291.813 4.95772 3.49708 0
M  V30 3204 H 290.552 3.75101 3.11689 0
M  V30 3205 H 289.557 5.31133 1.42048 0
M  V30 3206 H 290.782 6.54073 1.82661 0
M  V30 3207 H 288.728 5.38317 3.74902 0
M  V30 3208 H 288.645 6.94146 2.99495 0
M  V30 3209 H 289.913 6.60713 4.13616 0
M  V30 3210 N 294.142 -0.090211 1.57342 0
M  V30 3211 C 295.419 -0.824761 1.77361 0
M  V30 3212 C 295.799 -1.96698 0.76637 0
M  V30 3213 O 295.147 -2.27586 -0.204179 0
M  V30 3214 C 295.357 -1.31481 3.23286 0
M  V30 3215 C 296.705 -1.75563 3.86604 0
M  V30 3216 O 297.729 -1.41093 3.27065 0
M  V30 3217 O 296.588 -2.39317 4.91314 0
M  V30 3218 H 293.682 -0.393776 0.727234 0
M  V30 3219 H 296.228 -0.0717138 1.69548 0
M  V30 3220 H 295 -0.496671 3.88135 0
M  V30 3221 H 294.623 -2.12973 3.35751 0
M  V30 3222 N 295.62 -1.53406 -0.361157 0
M  V30 3223 C 296.868 -1.69467 -1.10115 0
M  V30 3224 C 297.189 -0.451352 -1.89705 0
M  V30 3225 O 296.459 0.534636 -1.88463 0
M  V30 3226 H 295.039 -0.624749 -0.409508 0
M  V30 3227 H 297.701 -1.90609 -0.406699 0
M  V30 3228 H 296.797 -2.55774 -1.78847 0
M  V30 3229 N 297.098 0.621204 -1.44841 0
M  V30 3230 C 298.045 1.73267 -1.5247 0
M  V30 3231 C 299.015 1.6189 -0.371611 0
M  V30 3232 O 300.2 1.81668 -0.58321 0
M  V30 3233 C 297.34 3.11545 -1.48438 0
M  V30 3234 C 296.453 3.33827 -2.74196 0
M  V30 3235 C 295.588 4.62133 -2.61929 0
M  V30 3236 C 294.627 4.77627 -3.82804 0
M  V30 3237 N 293.764 5.97219 -3.69153 0
M  V30 3238 H 298.604 1.66082 -2.47428 0
M  V30 3239 H 296.141 0.810026 -1.22788 0
M  V30 3240 H 298.099 3.91528 -1.4409 0
M  V30 3241 H 296.729 3.1772 -0.570402 0
M  V30 3242 H 295.781 2.47715 -2.88689 0
M  V30 3243 H 297.093 3.41153 -3.6389 0
M  V30 3244 H 296.247 5.50291 -2.5547 0
M  V30 3245 H 294.986 4.57182 -1.69811 0
M  V30 3246 H 293.991 3.87896 -3.89637 0
M  V30 3247 H 295.216 4.84385 -4.75971 0
M  V30 3248 H 293.162 5.93339 -2.79794 0
M  V30 3249 H 293.079 6.05644 -4.52472 0
M  V30 3250 H 294.347 6.87912 -3.66603 0
M  V30 3251 N 298.576 1.31904 0.862503 0
M  V30 3252 C 299.822 1.22197 1.61851 0
M  V30 3253 C 300.155 -0.217641 1.92977 0
M  V30 3254 O 299.43 -1.15264 1.56666 0
M  V30 3255 C 299.713 2.07378 2.94391 0
M  V30 3256 C 299.566 3.59678 2.70096 0
M  V30 3257 C 300.885 1.92891 3.95577 0
M  V30 3258 H 298.004 0.445255 0.587296 0
M  V30 3259 H 300.646 1.6177 0.99651 0
M  V30 3260 H 298.796 1.73758 3.47477 0
M  V30 3261 H 300.468 4.03472 2.23625 0
M  V30 3262 H 298.711 3.82735 2.04197 0
M  V30 3263 H 299.382 4.14595 3.64438 0
M  V30 3264 H 301.858 2.22327 3.51724 0
M  V30 3265 H 300.734 2.54781 4.86187 0
M  V30 3266 H 300.995 0.894315 4.3296 0
M  V30 3267 N 300.054 -1.07777 1.14986 0
M  V30 3268 C 301.279 -1.84558 0.946213 0
M  V30 3269 C 301.704 -1.81323 -0.500362 0
M  V30 3270 O 301.062 -1.20301 -1.35637 0
M  V30 3271 C 301.11 -3.29736 1.45968 0
M  V30 3272 O 300.214 -4.07149 0.65601 0
M  V30 3273 H 299.555 -0.571641 0.33782 0
M  V30 3274 H 302.085 -1.35991 1.52865 0
M  V30 3275 H 302.095 -3.80574 1.47063 0
M  V30 3276 H 300.77 -3.31406 2.51283 0
M  V30 3277 H 299.347 -3.65994 0.714322 0
M  V30 3278 N 301.532 -0.945985 -1.26051 0
M  V30 3279 C 302.78 -0.594941 -1.93145 0
M  V30 3280 C 303.101 0.86953 -1.7454 0
M  V30 3281 O 302.371 1.61838 -1.10387 0
M  V30 3282 H 300.951 -0.217044 -0.714773 0
M  V30 3283 H 303.613 -1.20235 -1.53393 0
M  V30 3284 H 302.709 -0.816835 -3.01221 0
M  V30 3285 N 303.011 1.40521 -0.713556 0
M  V30 3286 C 304.258 2.00923 -0.25219 0
M  V30 3287 C 304.586 1.56571 1.15395 0
M  V30 3288 O 303.841 0.775874 1.79663 0
M  V30 3289 C 304.14 3.56317 -0.278 0
M  V30 3290 C 303.806 4.20246 -1.63415 0
M  V30 3291 C 302.468 4.37422 -2.00538 0
M  V30 3292 C 304.82 4.55923 -2.52554 0
M  V30 3293 C 302.148 4.87558 -3.2635 0
M  V30 3294 C 304.5 5.07458 -3.77716 0
M  V30 3295 C 303.164 5.22843 -4.14959 0
M  V30 3296 H 302.434 0.735231 -0.0922829 0
M  V30 3297 H 305.081 1.68161 -0.916188 0
M  V30 3298 H 303.386 3.88976 0.469567 0
M  V30 3299 H 305.083 4.00883 0.0967819 0
M  V30 3300 H 301.673 4.07263 -1.33546 0
M  V30 3301 H 305.857 4.42291 -2.25149 0
M  V30 3302 H 301.113 4.97654 -3.55176 0
M  V30 3303 H 305.287 5.34041 -4.4696 0
M  V30 3304 H 302.914 5.61454 -5.12516 0
M  V30 3305 N 304.489 0.459591 1.5075 0
M  V30 3306 C 305.738 -0.100971 2.01447 0
M  V30 3307 C 306.051 -1.41816 1.34713 0
M  V30 3308 O 307.257 -2.06299 1.76502 0
M  V30 3309 C 305.713 -0.23047 3.59161 0
M  V30 3310 C 305.321 1.0776 4.34847 0
M  V30 3311 C 307.065 -0.743608 4.17936 0
M  V30 3312 C 304.972 0.91253 5.84317 0
M  V30 3313 H 303.902 -0.0415102 0.752856 0
M  V30 3314 H 306.553 0.592742 1.73663 0
M  V30 3315 H 304.935 -0.987703 3.83485 0
M  V30 3316 H 306.109 1.8449 4.22256 0
M  V30 3317 H 304.424 1.52097 3.87628 0
M  V30 3318 H 307.021 -0.883959 5.27343 0
M  V30 3319 H 307.364 -1.73196 3.78562 0
M  V30 3320 H 307.897 -0.04408 3.97776 0
M  V30 3321 H 304.636 1.87391 6.28144 0
M  V30 3322 H 304.156 0.185422 5.99513 0
M  V30 3323 H 305.835 0.574547 6.44444 0
M  V30 3324 N 305.967 -1.56429 0.191757 0
M  V30 3325 C 307.244 -1.89224 -0.495332 0
M  V30 3326 C 307.624 -1.10478 -1.79883 0
M  V30 3327 O 306.972 -0.204852 -2.2758 0
M  V30 3328 C 307.182 -3.41548 -0.717367 0
M  V30 3329 C 308.53 -4.11711 -1.03823 0
M  V30 3330 O 309.554 -3.4698 -0.805204 0
M  V30 3331 O 308.413 -5.2611 -1.47887 0
M  V30 3332 H 305.507 -0.785788 -0.25781 0
M  V30 3333 H 308.053 -1.68111 0.231721 0
M  V30 3334 H 306.825 -3.90772 0.203287 0
M  V30 3335 H 306.448 -3.68342 -1.497 0
M  V30 3336 N 307.445 0.0818655 -1.57387 0
M  V30 3337 C 308.375 1.09885 -2.06028 0
M  V30 3338 C 309.356 1.4098 -0.951774 0
M  V30 3339 O 310.541 1.50781 -1.22387 0
M  V30 3340 C 307.671 2.4151 -2.4958 0
M  V30 3341 C 306.625 2.24792 -3.64215 0
M  V30 3342 C 305.951 3.61712 -3.93787 0
M  V30 3343 C 307.251 1.67749 -4.94629 0
M  V30 3344 H 308.945 0.694128 -2.91243 0
M  V30 3345 H 306.491 0.332448 -1.4011 0
M  V30 3346 H 308.444 3.12939 -2.82219 0
M  V30 3347 H 307.168 2.83943 -1.61381 0
M  V30 3348 H 305.827 1.55807 -3.31843 0
M  V30 3349 H 305.475 4.01697 -3.02735 0
M  V30 3350 H 305.175 3.51368 -4.70971 0
M  V30 3351 H 306.699 4.34587 -4.28913 0
M  V30 3352 H 308.113 2.29032 -5.25564 0
M  V30 3353 H 306.51 1.68128 -5.76067 0
M  V30 3354 H 307.58 0.638059 -4.80684 0
M  V30 3355 N 308.923 1.53595 0.353017 0
M  V30 3356 C 310.171 1.70049 1.09215 0
M  V30 3357 C 310.492 0.461406 1.89463 0
M  V30 3358 O 309.762 -0.524633 1.88744 0
M  V30 3359 H 308.342 0.626912 0.40619 0
M  V30 3360 H 311.004 1.90822 0.396585 0
M  V30 3361 H 310.1 2.56718 1.77488 0
M  V30 3362 N 310.401 -0.613514 1.45168 0
M  V30 3363 C 311.817 -0.933629 1.29443 0
M  V30 3364 C 312.017 -2.00028 0.243101 0
M  V30 3365 O 311.073 -2.49848 -0.364992 0
M  V30 3366 C 312.386 -1.38018 2.67155 0
M  V30 3367 C 313.934 -1.49471 2.75004 0
M  V30 3368 C 314.409 -1.97503 4.13227 0
M  V30 3369 N 315.9 -2.04746 4.15491 0
M  V30 3370 C 316.635 -2.43121 5.19307 0
M  V30 3371 N 316.131 -2.80506 6.33473 0
M  V30 3372 N 317.924 -2.43408 5.06664 0
M  V30 3373 H 310.075 0.0916097 2.12202 0
M  V30 3374 H 312.338 -0.0216655 0.947752 0
M  V30 3375 H 312.044 -0.670625 3.45247 0
M  V30 3376 H 311.918 -2.34784 2.95222 0
M  V30 3377 H 314.305 -2.19519 1.9722 0
M  V30 3378 H 314.386 -0.510342 2.50657 0
M  V30 3379 H 314.03 -1.28045 4.91495 0
M  V30 3380 H 313.96 -2.96843 4.34962 0
M  V30 3381 H 316.451 -1.78468 3.33103 0
M  V30 3382 H 316.764 -3.08652 7.08487 0
M  V30 3383 H 315.109 -2.78216 6.36884 0
M  V30 3384 H 318.3 -2.13604 4.16523 0
M  V30 3385 H 318.473 -2.72989 5.87691 0
M  V30 3386 N 311.879 -1.3236 -0.855495 0
M  V30 3387 C 313.104 -1.2601 -1.64731 0
M  V30 3388 C 313.529 0.169068 -1.87339 0
M  V30 3389 O 312.887 1.12016 -1.42556 0
M  V30 3390 C 312.935 -2.02417 -2.98429 0
M  V30 3391 O 312.039 -1.3714 -3.8893 0
M  V30 3392 H 311.38 -0.434325 -0.502253 0
M  V30 3393 H 313.91 -1.74661 -1.06558 0
M  V30 3394 H 313.92 -2.12559 -3.48257 0
M  V30 3395 H 312.595 -3.06343 -2.81295 0
M  V30 3396 H 311.172 -1.3554 -3.47395 0
M  V30 3397 N 313.357 1.07166 -1.15556 0
M  V30 3398 C 314.605 1.79443 -0.929764 0
M  V30 3399 C 314.926 1.87246 0.544414 0
M  V30 3400 O 314.196 1.37473 1.39564 0
M  V30 3401 H 312.776 0.664625 -0.341003 0
M  V30 3402 H 315.438 1.29499 -1.45657 0
M  V30 3403 H 314.534 2.81832 -1.34079 0
M  V30 3404 N 314.835 0.952656 1.25548 0
M  V30 3405 C 316.251 0.656769 1.4546 0
M  V30 3406 C 316.451 -0.78633 1.85524 0
M  V30 3407 O 315.507 -1.56183 1.98402 0
M  V30 3408 C 316.82 1.62801 2.52817 0
M  V30 3409 C 318.368 1.63897 2.66659 0
M  V30 3410 C 318.843 2.5978 3.77198 0
M  V30 3411 N 320.334 2.58133 3.84606 0
M  V30 3412 C 321.069 3.29003 4.69621 0
M  V30 3413 N 320.565 4.09339 5.58939 0
M  V30 3414 N 322.358 3.179 4.63569 0
M  V30 3415 H 314.509 1.88526 0.978344 0
M  V30 3416 H 316.772 0.810815 0.491206 0
M  V30 3417 H 316.478 2.65869 2.30232 0
M  V30 3418 H 316.352 1.38898 3.50695 0
M  V30 3419 H 318.739 0.615481 2.8861 0
M  V30 3420 H 318.82 1.91858 1.69187 0
M  V30 3421 H 318.464 3.62254 3.55997 0
M  V30 3422 H 318.394 2.29105 4.7415 0
M  V30 3423 H 320.885 1.99809 3.20757 0
M  V30 3424 H 321.198 4.6034 6.20731 0
M  V30 3425 H 319.543 4.13438 5.58654 0
M  V30 3426 H 322.734 2.54612 3.92798 0
M  V30 3427 H 322.907 3.73398 5.29602 0
M  V30 3428 N 316.313 -1.40141 0.720998 0
M  V30 3429 C 317.276 -2.29058 0.0805834 0
M  V30 3430 C 318.276 -1.45632 -0.681758 0
M  V30 3431 O 319.466 -1.6648 -0.512856 0
M  V30 3432 C 316.598 -3.28925 -0.895593 0
M  V30 3433 H 317.791 -2.87191 0.863793 0
M  V30 3434 H 315.344 -1.48553 0.485975 0
M  V30 3435 H 316.079 -2.75822 -1.70566 0
M  V30 3436 H 315.864 -3.90519 -0.351766 0
M  V30 3437 H 317.354 -3.95494 -1.34069 0
M  V30 3438 N 317.792 -0.46758 -1.50504 0
M  V30 3439 C 319.069 0.15003 -1.95024 0
M  V30 3440 C 319.449 1.57304 -1.40779 0
M  V30 3441 O 318.797 2.20281 -0.607319 0
M  V30 3442 C 319.007 0.0969324 -3.48865 0
M  V30 3443 C 320.355 0.287565 -4.23625 0
M  V30 3444 O 321.379 0.173678 -3.55776 0
M  V30 3445 O 320.238 0.517186 -5.44047 0
M  V30 3446 H 317.332 0.113582 -0.819163 0
M  V30 3447 H 319.878 -0.52773 -1.61286 0
M  V30 3448 H 318.65 -0.896732 -3.80886 0
M  V30 3449 H 318.273 0.816303 -3.8913 0
M  V30 3450 N 319.27 1.56325 -0.20005 0
M  V30 3451 C 320.217 2.1932 0.718833 0
M  V30 3452 C 321.187 1.14198 1.20615 0
M  V30 3453 O 322.372 1.42469 1.26914 0
M  V30 3454 C 319.512 2.86041 1.93066 0
M  V30 3455 C 318.625 4.05702 1.48425 0
M  V30 3456 C 317.76 4.60266 2.65196 0
M  V30 3457 C 316.799 5.72273 2.17185 0
M  V30 3458 N 315.936 6.21221 3.27152 0
M  V30 3459 H 320.776 2.97486 0.17489 0
M  V30 3460 H 318.313 1.46911 0.0745794 0
M  V30 3461 H 320.271 3.22897 2.64184 0
M  V30 3462 H 318.901 2.1043 2.44783 0
M  V30 3463 H 317.953 3.74475 0.668755 0
M  V30 3464 H 319.265 4.86699 1.09204 0
M  V30 3465 H 318.419 4.99453 3.4443 0
M  V30 3466 H 317.158 3.78386 3.07693 0
M  V30 3467 H 316.163 5.3261 1.36407 0
M  V30 3468 H 317.388 6.55974 1.75713 0
M  V30 3469 H 315.334 5.42263 3.69171 0
M  V30 3470 H 315.251 6.97284 2.92116 0
M  V30 3471 H 316.519 6.65063 4.06585 0
M  V30 3472 N 320.748 -0.0735177 1.57428 0
M  V30 3473 C 321.994 -0.768909 1.88307 0
M  V30 3474 C 322.349 -1.75273 0.793535 0
M  V30 3475 O 321.642 -1.90527 -0.202466 0
M  V30 3476 C 321.836 -1.51799 3.23561 0
M  V30 3477 C 321.665 -0.608217 4.45568 0
M  V30 3478 C 320.435 -0.245808 5.04702 0
M  V30 3479 C 322.633 0.0942904 5.14214 0
M  V30 3480 N 320.615 0.66987 6.10234 0
M  V30 3481 C 321.986 0.867222 6.13905 0
M  V30 3482 C 324.041 0.165943 4.97623 0
M  V30 3483 C 322.744 1.70515 6.98797 0
M  V30 3484 C 324.77 0.990837 5.83041 0
M  V30 3485 C 324.132 1.75182 6.82269 0
M  V30 3486 H 320.231 -0.25685 0.738615 0
M  V30 3487 H 322.815 -0.030499 1.94676 0
M  V30 3488 H 320.986 -2.22713 3.18203 0
M  V30 3489 H 322.718 -2.16226 3.42094 0
M  V30 3490 H 319.473 -0.598284 4.69806 0
M  V30 3491 H 319.897 1.1209 6.67656 0
M  V30 3492 H 324.539 -0.408064 4.20826 0
M  V30 3493 H 322.257 2.29013 7.7497 0
M  V30 3494 H 325.843 1.04923 5.72261 0
M  V30 3495 H 324.723 2.37983 7.47217 0
M  V30 3496 N 322.226 -1.5378 -0.344866 0
M  V30 3497 C 323.456 -1.74646 -1.10374 0
M  V30 3498 C 323.864 -0.48491 -1.8288 0
M  V30 3499 O 323.207 0.553062 -1.75177 0
M  V30 3500 C 323.269 -2.87145 -2.16306 0
M  V30 3501 C 322.933 -4.26795 -1.63386 0
M  V30 3502 C 323.93 -5.08412 -1.08688 0
M  V30 3503 C 321.615 -4.73276 -1.68272 0
M  V30 3504 C 323.609 -6.34609 -0.595792 0
M  V30 3505 C 321.296 -5.99446 -1.18776 0
M  V30 3506 C 322.294 -6.79946 -0.645215 0
M  V30 3507 O 321.982 -8.03745 -0.157626 0
M  V30 3508 H 321.714 -0.587112 -0.335075 0
M  V30 3509 H 324.268 -2.01403 -0.403252 0
M  V30 3510 H 322.498 -2.55909 -2.89909 0
M  V30 3511 H 324.187 -2.95992 -2.77747 0
M  V30 3512 H 324.953 -4.73666 -1.04236 0
M  V30 3513 H 320.832 -4.10677 -2.09442 0
M  V30 3514 H 324.376 -6.97389 -0.171654 0
M  V30 3515 H 320.273 -6.33687 -1.22928 0
M  V30 3516 H 321.041 -8.18038 -0.275037 0
M  V30 3517 N 323.704 0.605807 -1.45491 0
M  V30 3518 C 324.981 1.36522 -1.40075 0
M  V30 3519 C 325.361 2.10976 -0.0722744 0
M  V30 3520 O 324.709 2.08007 0.945808 0
M  V30 3521 C 324.919 2.31056 -2.61561 0
M  V30 3522 C 326.267 2.93608 -3.06724 0
M  V30 3523 O 327.291 2.41376 -2.61946 0
M  V30 3524 O 326.15 3.88421 -3.84437 0
M  V30 3525 H 323.244 0.612248 -0.555951 0
M  V30 3526 H 325.79 0.628747 -1.57623 0
M  V30 3527 H 324.562 1.75311 -3.49831 0
M  V30 3528 H 324.185 3.12081 -2.46356 0
M  V30 3529 N 325.182 1.32811 0.848464 0
M  V30 3530 C 326.431 1.23075 1.59798 0
M  V30 3531 C 326.744 -0.204419 1.94529 0
M  V30 3532 O 327.95 -0.423701 2.68173 0
M  V30 3533 C 326.406 2.15594 2.88179 0
M  V30 3534 C 326.014 3.64228 2.60849 0
M  V30 3535 C 327.758 2.14709 3.66197 0
M  V30 3536 C 325.665 4.48689 3.85269 0
M  V30 3537 H 324.595 0.457091 0.599653 0
M  V30 3538 H 327.246 1.57813 0.936342 0
M  V30 3539 H 325.628 1.73778 3.55833 0
M  V30 3540 H 326.802 4.14424 2.01467 0
M  V30 3541 H 325.117 3.67306 1.96151 0
M  V30 3542 H 327.714 2.75046 4.58534 0
M  V30 3543 H 328.057 1.13966 4.00397 0
M  V30 3544 H 328.59 2.54837 3.05455 0
M  V30 3545 H 325.329 5.5027 3.56207 0
M  V30 3546 H 324.849 4.03241 4.44024 0
M  V30 3547 H 326.528 4.62006 4.52946 0
M  V30 3548 N 326.66 -1.06551 1.16123 0
M  V30 3549 C 327.623 -2.12132 0.867906 0
M  V30 3550 C 328.623 -1.60224 -0.135944 0
M  V30 3551 O 329.813 -1.73943 0.0946422 0
M  V30 3552 C 326.945 -3.396 0.297419 0
M  V30 3553 H 328.138 -2.39586 1.80385 0
M  V30 3554 H 325.691 -1.22574 0.969812 0
M  V30 3555 H 326.426 -3.17794 -0.64633 0
M  V30 3556 H 326.211 -3.78581 1.02073 0
M  V30 3557 H 327.701 -4.17455 0.110052 0
M  V30 3558 N 328.138 -0.959301 -1.25041 0
M  V30 3559 C 329.385 -0.616611 -1.92884 0
M  V30 3560 C 329.713 0.847036 -1.75087 0
M  V30 3561 O 328.968 1.62374 -1.09239 0
M  V30 3562 C 329.267 -0.927136 -3.45165 0
M  V30 3563 C 328.933 -2.37757 -3.83122 0
M  V30 3564 C 327.595 -2.77402 -3.93194 0
M  V30 3565 C 329.947 -3.31929 -4.01836 0
M  V30 3566 C 327.275 -4.10277 -4.19392 0
M  V30 3567 C 329.627 -4.64423 -4.29528 0
M  V30 3568 C 328.291 -5.03857 -4.37818 0
M  V30 3569 H 327.561 -0.225634 -0.705812 0
M  V30 3570 H 330.208 -1.20921 -1.48493 0
M  V30 3571 H 328.513 -0.252195 -3.90987 0
M  V30 3572 H 330.21 -0.6405 -3.95852 0
M  V30 3573 H 326.8 -2.06013 -3.75841 0
M  V30 3574 H 330.984 -3.02488 -3.93465 0
M  V30 3575 H 326.24 -4.40467 -4.24027 0
M  V30 3576 H 330.414 -5.37369 -4.42953 0
M  V30 3577 H 328.041 -6.06843 -4.57871 0
M  V30 3578 N 329.616 1.39756 -0.72842 0
M  V30 3579 C 330.856 2.025 -0.278078 0
M  V30 3580 C 331.22 1.5654 1.11173 0
M  V30 3581 O 332.421 2.11435 1.65978 0
M  V30 3582 C 330.692 3.55489 -0.369139 0
M  V30 3583 S 332.251 4.388 0.00232983 0
M  V30 3584 H 329.069 0.702534 -0.109391 0
M  V30 3585 H 331.671 1.70672 -0.95348 0
M  V30 3586 H 330.375 3.86429 -1.38204 0
M  V30 3587 H 329.906 3.92061 0.324308 0
M  V30 3588 H 331.921 4.80954 1.22055 0
M  V30 3589 N 331.094 0.475555 1.50254 0
M  V30 3590 C 332.34 -0.0780073 2.0265 0
M  V30 3591 C 332.673 -1.38968 1.35652 0
M  V30 3592 O 331.948 -1.8839 0.483691 0
M  V30 3593 C 332.231 -0.257161 3.59181 0
M  V30 3594 C 332.084 1.07585 4.36744 0
M  V30 3595 C 333.403 -1.00965 4.28362 0
M  V30 3596 H 330.522 -0.0268758 0.73651 0
M  V30 3597 H 333.164 0.622015 1.7953 0
M  V30 3598 H 331.314 -0.853412 3.79011 0
M  V30 3599 H 332.986 1.70902 4.28474 0
M  V30 3600 H 331.229 1.6714 4.00308 0
M  V30 3601 H 331.9 0.904088 5.44546 0
M  V30 3602 H 334.376 -0.504214 4.13034 0
M  V30 3603 H 333.252 -1.10381 5.37687 0
M  V30 3604 H 333.513 -2.04731 3.91839 0
M  V30 3605 N 332.573 -1.56217 0.208337 0
M  V30 3606 C 333.989 -1.58919 -0.14729 0
M  V30 3607 C 334.189 -1.22486 -1.59998 0
M  V30 3608 O 333.245 -0.953849 -2.3379 0
M  V30 3609 C 334.558 -3.00236 0.167048 0
M  V30 3610 C 336.106 -3.12813 0.108219 0
M  V30 3611 C 336.581 -4.56284 0.396049 0
M  V30 3612 N 338.072 -4.61912 0.345142 0
M  V30 3613 C 338.807 -5.70837 0.541523 0
M  V30 3614 N 338.303 -6.88178 0.798968 0
M  V30 3615 N 340.096 -5.60091 0.474867 0
M  V30 3616 H 332.247 -1.78177 1.15614 0
M  V30 3617 H 334.51 -0.827555 0.462446 0
M  V30 3618 H 334.216 -3.31499 1.1748 0
M  V30 3619 H 334.09 -3.7354 -0.524184 0
M  V30 3620 H 336.477 -2.81354 -0.890157 0
M  V30 3621 H 336.558 -2.41866 0.832729 0
M  V30 3622 H 336.202 -4.88458 1.3918 0
M  V30 3623 H 336.132 -5.25439 -0.349502 0
M  V30 3624 H 338.623 -3.77589 0.153316 0
M  V30 3625 H 338.936 -7.67095 0.93727 0
M  V30 3626 H 337.281 -6.89953 0.836013 0
M  V30 3627 H 340.472 -4.67297 0.274064 0
M  V30 3628 H 340.645 -6.44917 0.631326 0
M  V30 3629 N 334.051 0.0651679 -1.57465 0
M  V30 3630 C 335.276 0.779605 -1.9219 0
M  V30 3631 C 335.701 1.69988 -0.805333 0
M  V30 3632 O 335.059 1.79685 0.241435 0
M  V30 3633 C 335.107 1.54364 -3.2589 0
M  V30 3634 O 334.211 2.65474 -3.1559 0
M  V30 3635 H 333.552 0.212249 -0.629163 0
M  V30 3636 H 336.082 0.0314294 -2.04576 0
M  V30 3637 H 336.092 1.92146 -3.59922 0
M  V30 3638 H 334.767 0.868457 -4.06732 0
M  V30 3639 H 333.344 2.30501 -2.93128 0
M  V30 3640 N 335.529 1.53961 0.336706 0
M  V30 3641 C 336.778 1.70751 1.07363 0
M  V30 3642 C 337.091 0.481061 1.89592 0
M  V30 3643 O 338.297 0.530046 2.66276 0
M  V30 3644 C 336.753 3.01965 1.95818 0
M  V30 3645 C 336.361 4.31971 1.18764 0
M  V30 3646 C 338.105 3.28121 2.69327 0
M  V30 3647 C 336.012 5.54255 2.06289 0
M  V30 3648 H 334.942 0.636292 0.404535 0
M  V30 3649 H 337.593 1.80459 0.332681 0
M  V30 3650 H 335.975 2.86132 2.7376 0
M  V30 3651 H 337.149 4.5853 0.456849 0
M  V30 3652 H 335.464 4.12481 0.569946 0
M  V30 3653 H 338.061 4.16673 3.35094 0
M  V30 3654 H 338.404 2.45426 3.36261 0
M  V30 3655 H 338.937 3.44762 1.98454 0
M  V30 3656 H 335.676 6.39513 1.43885 0
M  V30 3657 H 335.196 5.31935 2.77138 0
M  V30 3658 H 336.875 5.90159 2.65182 0
M  V30 3659 N 337.007 -0.598083 1.45811 0
M  V30 3660 C 338.423 -0.919847 1.30426 0
M  V30 3661 C 338.623 -1.99759 0.264303 0
M  V30 3662 O 337.679 -2.50221 -0.338472 0
M  V30 3663 C 338.992 -1.35176 2.68603 0
M  V30 3664 C 340.54 -1.46546 2.76574 0
M  V30 3665 C 341.015 -1.9311 4.15298 0
M  V30 3666 N 342.506 -2.00328 4.1764 0
M  V30 3667 C 343.241 -2.37599 5.21856 0
M  V30 3668 N 342.737 -2.73771 6.36413 0
M  V30 3669 N 344.53 -2.38021 5.09218 0
M  V30 3670 H 336.681 0.114111 2.12093 0
M  V30 3671 H 338.944 -0.0116121 0.947929 0
M  V30 3672 H 338.65 -0.633969 3.45939 0
M  V30 3673 H 338.524 -2.3164 2.97696 0
M  V30 3674 H 340.911 -2.17415 1.99537 0
M  V30 3675 H 340.992 -0.483727 2.51185 0
M  V30 3676 H 340.636 -1.22824 4.92825 0
M  V30 3677 H 340.566 -2.92213 4.38086 0
M  V30 3678 H 343.057 -1.74925 3.34977 0
M  V30 3679 H 343.37 -3.0112 7.11721 0
M  V30 3680 H 341.715 -2.71445 6.39799 0
M  V30 3681 H 344.906 -2.09174 4.18765 0
M  V30 3682 H 345.079 -2.66741 5.90554 0
M  V30 3683 N 338.485 -1.33259 -0.841409 0
M  V30 3684 C 339.395 -1.25332 -1.98316 0
M  V30 3685 C 340.411 -0.164364 -1.73222 0
M  V30 3686 O 341.587 -0.387486 -1.97637 0
M  V30 3687 C 338.652 -0.990078 -3.32262 0
M  V30 3688 C 337.713 -2.16879 -3.70489 0
M  V30 3689 C 336.946 -1.91801 -4.98044 0
M  V30 3690 O 337.169 -0.867075 -5.63771 0
M  V30 3691 O 336.103 -2.78267 -5.33714 0
M  V30 3692 H 339.929 -2.21344 -2.07944 0
M  V30 3693 H 337.514 -1.1328 -0.974058 0
M  V30 3694 H 339.396 -0.860321 -4.12524 0
M  V30 3695 H 338.071 -0.0602155 -3.23644 0
M  V30 3696 H 336.978 -2.35407 -2.90748 0
M  V30 3697 H 338.311 -3.0819 -3.8377 0
M  V30 3698 N 339.963 1.05934 -1.16686 0
M  V30 3699 C 341.24 1.75643 -0.860747 0
M  V30 3700 C 341.62 2.01144 0.640641 0
M  V30 3701 O 340.968 1.64147 1.58959 0
M  V30 3702 C 341.178 3.05493 -1.68745 0
M  V30 3703 C 342.526 3.79581 -1.90271 0
M  V30 3704 O 343.55 3.15344 -1.65641 0
M  V30 3705 O 342.409 4.9499 -2.31618 0
M  V30 3706 H 339.503 0.763426 -0.317977 0
M  V30 3707 H 342.049 1.1217 -1.27342 0
M  V30 3708 H 340.821 2.8264 -2.70611 0
M  V30 3709 H 340.444 3.76702 -1.27206 0
M  V30 3710 N 341.441 0.965919 1.2453 0
M  V30 3711 C 342.69 0.622437 1.91856 0
M  V30 3712 C 343.003 -0.846006 1.76358 0
M  V30 3713 O 344.209 -1.29993 2.38357 0
M  V30 3714 C 342.665 1.0626 3.43856 0
M  V30 3715 C 342.273 2.55437 3.68043 0
M  V30 3716 C 344.017 0.792183 4.17043 0
M  V30 3717 C 341.924 2.93196 5.13605 0
M  V30 3718 H 340.854 0.229092 0.718354 0
M  V30 3719 H 343.505 1.17189 1.41206 0
M  V30 3720 H 341.887 0.441476 3.93531 0
M  V30 3721 H 343.061 3.22665 3.28974 0
M  V30 3722 H 341.376 2.8007 3.08139 0
M  V30 3723 H 343.973 1.05031 5.24283 0
M  V30 3724 H 344.316 -0.271584 4.15413 0
M  V30 3725 H 344.849 1.37419 3.73311 0
M  V30 3726 H 341.588 3.98636 5.20355 0
M  V30 3727 H 341.108 2.30651 5.53679 0
M  V30 3728 H 342.787 2.83004 5.81823 0
M  V30 3729 N 342.919 -1.39368 0.735821 0
M  V30 3730 C 344.167 -2.00101 0.283562 0
M  V30 3731 C 344.488 -1.5868 -1.13338 0
M  V30 3732 O 343.758 -0.835423 -1.77193 0
M  V30 3733 H 342.338 -0.740024 0.101851 0
M  V30 3734 H 345 -1.70404 0.945962 0
M  V30 3735 H 344.096 -3.10323 0.332604 0
M  V30 3736 N 344.397 -0.483516 -1.5 0
M  V30 3737 C 345.307 0.309172 -2.32554 0
M  V30 3738 C 346.323 0.984159 -1.43493 0
M  V30 3739 O 347.499 0.969399 -1.76535 0
M  V30 3740 C 344.564 1.36979 -3.18493 0
M  V30 3741 C 343.625 0.710095 -4.23387 0
M  V30 3742 C 342.858 1.72018 -5.05218 0
M  V30 3743 O 343.081 2.94813 -4.88305 0
M  V30 3744 O 342.015 1.28515 -5.8802 0
M  V30 3745 H 345.841 -0.366064 -3.01486 0
M  V30 3746 H 343.426 -0.24514 -1.47375 0
M  V30 3747 H 345.308 1.98385 -3.71781 0
M  V30 3748 H 343.983 2.02828 -2.52275 0
M  V30 3749 H 342.89 0.0567539 -3.74057 0
M  V30 3750 H 344.223 0.0943557 -4.9211 0
M  V30 3751 N 345.875 1.56104 -0.216619 0
M  V30 3752 C 346.785 2.23694 0.706982 0
M  V30 3753 C 347.801 1.24295 1.21765 0
M  V30 3754 O 348.977 1.57094 1.2603 0
M  V30 3755 C 346.042 2.8998 1.90033 0
M  V30 3756 C 345.103 4.04708 1.43213 0
M  V30 3757 C 344.336 4.67824 2.56859 0
M  V30 3758 O 344.559 4.29913 3.74874 0
M  V30 3759 O 343.493 5.56905 2.28343 0
M  V30 3760 H 347.319 3.03272 0.161235 0
M  V30 3761 H 344.904 1.49394 0.0136177 0
M  V30 3762 H 346.786 3.31837 2.59735 0
M  V30 3763 H 345.461 2.13365 2.43428 0
M  V30 3764 H 344.368 3.6743 0.70327 0
M  V30 3765 H 345.701 4.83051 0.944615 0
M  V30 3766 N 347.353 -0.0568162 1.57498 0
M  V30 3767 C 348.285 -1.09292 2.01464 0
M  V30 3768 C 349.298 -1.34112 0.922913 0
M  V30 3769 O 350.487 -1.32089 1.20062 0
M  V30 3770 C 347.587 -2.44068 2.35125 0
M  V30 3771 C 346.76 -2.38995 3.66333 0
M  V30 3772 C 345.819 -3.55997 3.87495 0
M  V30 3773 O 344.845 -3.36746 4.58901 0
M  V30 3774 N 346.047 -4.76888 3.30996 0
M  V30 3775 H 348.812 -0.718386 2.90963 0
M  V30 3776 H 346.373 -0.245235 1.60032 0
M  V30 3777 H 348.365 -3.21011 2.46443 0
M  V30 3778 H 346.935 -2.73468 1.5144 0
M  V30 3779 H 346.155 -1.47336 3.65631 0
M  V30 3780 H 347.443 -2.3272 4.52458 0
M  V30 3781 H 346.841 -4.95431 2.73065 0
M  V30 3782 H 345.398 -5.51291 3.47738 0
M  V30 3783 N 348.832 -1.54138 -0.328536 0
M  V30 3784 C 350.062 -1.75807 -1.08516 0
M  V30 3785 C 350.47 -0.50428 -1.82356 0
M  V30 3786 O 349.813 0.534451 -1.75754 0
M  V30 3787 C 349.875 -2.89423 -2.13248 0
M  V30 3788 C 349.539 -4.28504 -1.5885 0
M  V30 3789 C 350.536 -5.09536 -1.03289 0
M  V30 3790 C 348.221 -4.75034 -1.63243 0
M  V30 3791 C 350.215 -6.35206 -0.52845 0
M  V30 3792 C 347.902 -6.00672 -1.12411 0
M  V30 3793 C 348.9 -6.80592 -0.573062 0
M  V30 3794 O 348.588 -8.03867 -0.0723692 0
M  V30 3795 H 348.32 -0.590633 -0.328829 0
M  V30 3796 H 350.874 -2.01819 -0.381868 0
M  V30 3797 H 349.104 -2.5897 -2.87178 0
M  V30 3798 H 350.793 -2.98921 -2.74592 0
M  V30 3799 H 351.559 -4.74745 -0.99206 0
M  V30 3800 H 347.438 -4.12875 -2.05074 0
M  V30 3801 H 350.982 -6.97532 -0.0976774 0
M  V30 3802 H 346.879 -6.34955 -1.162 0
M  V30 3803 H 347.647 -8.18283 -0.188258 0
M  V30 3804 N 350.31 0.590341 -1.46126 0
M  V30 3805 C 351.556 1.35082 -1.51264 0
M  V30 3806 C 351.889 1.93534 -0.160711 0
M  V30 3807 O 351.164 1.76045 0.826956 0
M  V30 3808 C 351.447 2.48588 -2.6053 0
M  V30 3809 C 351.3 1.95221 -4.05227 0
M  V30 3810 C 352.619 3.50662 -2.6594 0
M  V30 3811 H 349.738 0.489803 -0.550692 0
M  V30 3812 H 352.38 0.663887 -1.78024 0
M  V30 3813 H 350.53 3.07186 -2.37843 0
M  V30 3814 H 352.202 1.41139 -4.39178 0
M  V30 3815 H 350.445 1.26101 -4.15068 0
M  V30 3816 H 351.116 2.77121 -4.77397 0
M  V30 3817 H 353.592 3.01934 -2.86313 0
M  V30 3818 H 352.468 4.27551 -3.44226 0
M  V30 3819 H 352.729 4.07399 -1.71694 0
M  V30 3820 N 351.788 1.33704 0.83433 0
M  V30 3821 C 352.698 1.26382 1.97648 0
M  V30 3822 C 353.714 0.173548 1.73132 0
M  V30 3823 O 354.89 0.397962 1.97429 0
M  V30 3824 C 351.955 1.00769 3.31733 0
M  V30 3825 C 351.016 2.1884 3.69334 0
M  V30 3826 C 350.249 1.9444 4.9702 0
M  V30 3827 O 350.472 0.896961 5.63303 0
M  V30 3828 O 349.406 2.81093 5.32231 0
M  V30 3829 H 353.232 2.22444 2.06767 0
M  V30 3830 H 350.817 1.13795 0.968037 0
M  V30 3831 H 352.699 0.882186 4.12062 0
M  V30 3832 H 351.374 0.0773783 3.23608 0
M  V30 3833 H 350.281 2.36946 2.89495 0
M  V30 3834 H 351.614 3.10221 3.82131 0
M  V30 3835 N 353.266 -1.05314 1.17247 0
M  V30 3836 C 354.196 -2.1498 0.911362 0
M  V30 3837 C 355.177 -1.69471 -0.146169 0
M  V30 3838 O 356.362 -1.942 0.003812 0
M  V30 3839 C 353.492 -3.4472 0.422528 0
M  V30 3840 C 352.446 -4.03789 1.4191 0
M  V30 3841 C 351.772 -5.28858 0.788274 0
M  V30 3842 C 353.072 -4.41418 2.7919 0
M  V30 3843 H 354.766 -2.3708 1.82848 0
M  V30 3844 H 352.312 -1.13938 0.880569 0
M  V30 3845 H 354.265 -4.20787 0.227289 0
M  V30 3846 H 352.989 -3.22269 -0.530123 0
M  V30 3847 H 351.648 -3.2979 1.60106 0
M  V30 3848 H 351.296 -5.02709 -0.171173 0
M  V30 3849 H 350.996 -5.69338 1.45353 0
M  V30 3850 H 352.52 -6.07612 0.603282 0
M  V30 3851 H 353.934 -5.08524 2.64719 0
M  V30 3852 H 352.331 -4.92913 3.42282 0
M  V30 3853 H 353.401 -3.51819 3.33693 0
M  V30 3854 N 354.744 -0.972509 -1.24016 0
M  V30 3855 C 355.991 -0.637034 -1.92219 0
M  V30 3856 C 356.319 0.828418 -1.75976 0
M  V30 3857 O 355.574 1.61206 -1.10955 0
M  V30 3858 C 355.873 -0.963694 -3.44162 0
M  V30 3859 C 355.539 -2.41807 -3.80579 0
M  V30 3860 C 354.201 -2.81556 -3.9023 0
M  V30 3861 C 356.553 -3.36172 -3.98293 0
M  V30 3862 C 353.881 -4.14702 -4.15017 0
M  V30 3863 C 356.233 -4.68952 -4.24578 0
M  V30 3864 C 354.897 -5.08472 -4.32449 0
M  V30 3865 H 354.167 -0.233107 -0.703379 0
M  V30 3866 H 356.814 -1.2249 -1.47202 0
M  V30 3867 H 355.119 -0.29365 -3.90698 0
M  V30 3868 H 356.816 -0.682449 -3.9515 0
M  V30 3869 H 353.406 -2.09988 -3.73635 0
M  V30 3870 H 357.59 -3.06644 -3.90234 0
M  V30 3871 H 352.846 -4.4494 -4.19331 0
M  V30 3872 H 357.02 -5.42037 -4.37229 0
M  V30 3873 H 354.647 -6.11665 -4.51409 0
M  V30 3874 N 356.222 1.38976 -0.743202 0
M  V30 3875 C 357.469 2.00343 -0.294752 0
M  V30 3876 C 357.797 1.58983 1.12047 0
M  V30 3877 O 357.052 0.813809 1.77977 0
M  V30 3878 C 357.351 3.55647 -0.353517 0
M  V30 3879 C 357.017 4.16685 -1.72292 0
M  V30 3880 C 355.679 4.3307 -2.09771 0
M  V30 3881 C 358.031 4.50464 -2.62168 0
M  V30 3882 C 355.359 4.80526 -3.36618 0
M  V30 3883 C 357.711 4.99332 -3.88395 0
M  V30 3884 C 356.375 5.13924 -4.25956 0
M  V30 3885 H 355.645 0.733108 -0.107857 0
M  V30 3886 H 358.292 1.6618 -0.951651 0
M  V30 3887 H 356.597 3.89884 0.386954 0
M  V30 3888 H 358.294 4.00998 0.0117269 0
M  V30 3889 H 354.884 4.04339 -1.42155 0
M  V30 3890 H 359.068 4.37416 -2.3448 0
M  V30 3891 H 354.324 4.90008 -3.65653 0
M  V30 3892 H 358.498 5.2444 -4.58187 0
M  V30 3893 H 356.125 5.50457 -5.2431 0
M  V30 3894 N 357.7 0.491464 1.49741 0
M  V30 3895 C 358.977 -0.118984 1.95238 0
M  V30 3896 C 359.357 -1.55044 1.43264 0
M  V30 3897 O 358.705 -2.19287 0.642287 0
M  V30 3898 C 358.915 -0.0414187 3.48975 0
M  V30 3899 C 360.263 -0.220133 4.24029 0
M  V30 3900 O 361.287 -0.117055 3.56008 0
M  V30 3901 O 360.146 -0.430567 5.44801 0
M  V30 3902 H 357.24 -0.100536 0.820866 0
M  V30 3903 H 359.786 0.553322 1.60426 0
M  V30 3904 H 358.558 0.957214 3.79412 0
M  V30 3905 H 358.181 -0.754292 3.9038 0
M  V30 3906 N 359.178 -1.55987 0.224894 0
M  V30 3907 C 360.108 -2.23426 -0.678457 0
M  V30 3908 C 361.089 -1.20709 -1.19847 0
M  V30 3909 O 362.274 -1.49304 -1.24186 0
M  V30 3910 C 359.404 -2.91676 -1.88527 0
M  V30 3911 C 358.358 -4.00893 -1.49896 0
M  V30 3912 C 357.684 -4.56455 -2.78483 0
M  V30 3913 C 358.984 -5.17769 -0.686461 0
M  V30 3914 H 360.678 -2.99175 -0.116173 0
M  V30 3915 H 358.224 -1.43897 -0.054436 0
M  V30 3916 H 360.177 -3.37547 -2.5227 0
M  V30 3917 H 358.901 -2.1338 -2.47258 0
M  V30 3918 H 357.56 -3.55758 -0.884985 0
M  V30 3919 H 357.208 -3.74886 -3.35365 0
M  V30 3920 H 356.908 -5.30169 -2.53368 0
M  V30 3921 H 358.432 -5.05047 -3.43162 0
M  V30 3922 H 359.846 -5.60001 -1.22767 0
M  V30 3923 H 358.243 -5.97735 -0.532259 0
M  V30 3924 H 359.313 -4.83932 0.306196 0
M  V30 3925 N 360.656 0.0484629 -1.57525 0
M  V30 3926 C 361.586 1.0549 -2.08313 0
M  V30 3927 C 362.567 1.38929 -0.981463 0
M  V30 3928 O 363.752 1.48151 -1.25558 0
M  V30 3929 C 360.882 2.36162 -2.54646 0
M  V30 3930 C 359.836 2.17016 -3.68901 0
M  V30 3931 C 359.162 3.53278 -4.01371 0
M  V30 3932 C 360.462 1.57219 -4.98076 0
M  V30 3933 H 362.156 0.632195 -2.92649 0
M  V30 3934 H 359.702 0.302654 -1.40784 0
M  V30 3935 H 361.655 3.06882 -2.88793 0
M  V30 3936 H 360.379 2.80456 -1.67368 0
M  V30 3937 H 359.038 1.48733 -3.35073 0
M  V30 3938 H 358.686 3.95185 -3.11188 0
M  V30 3939 H 358.386 3.41299 -4.78318 0
M  V30 3940 H 359.91 4.25391 -4.38035 0
M  V30 3941 H 361.324 2.17832 -5.30304 0
M  V30 3942 H 359.721 1.55871 -5.79503 0
M  V30 3943 H 360.791 0.535956 -4.81929 0
M  V30 3944 N 362.134 1.5431 0.320358 0
M  V30 3945 C 363.382 1.72327 1.05583 0
M  V30 3946 C 363.703 0.50149 1.88441 0
M  V30 3947 O 362.973 -0.48448 1.89815 0
M  V30 3948 H 361.553 0.635387 0.3928 0
M  V30 3949 H 364.215 1.91621 0.356019 0
M  V30 3950 H 363.311 2.60426 1.72003 0
M  V30 3951 N 363.613 -0.582584 1.46437 0
M  V30 3952 C 364.862 -1.337 1.5102 0
M  V30 3953 C 365.175 -1.94891 0.166359 0
M  V30 3954 O 366.381 -2.71351 0.0899954 0
M  V30 3955 C 364.837 -2.42315 2.66104 0
M  V30 3956 C 364.445 -1.87427 4.06909 0
M  V30 3957 C 366.189 -3.19099 2.79958 0
M  V30 3958 C 364.096 -2.93672 5.13333 0
M  V30 3959 H 363.026 -0.502619 0.562041 0
M  V30 3960 H 365.677 -0.621701 1.72647 0
M  V30 3961 H 364.059 -3.16645 2.37807 0
M  V30 3962 H 365.233 -1.19639 4.44998 0
M  V30 3963 H 363.548 -1.2331 3.97723 0
M  V30 3964 H 366.145 -3.9839 3.56636 0
M  V30 3965 H 366.488 -3.71695 1.87479 0
M  V30 3966 H 367.021 -2.51875 3.07902 0
M  V30 3967 H 363.76 -2.45962 6.07604 0
M  V30 3968 H 363.28 -3.59948 4.79789 0
M  V30 3969 H 364.959 -3.5762 5.39182 0
M  V30 3970 N 365.091 -1.34144 -0.827227 0
M  V30 3971 C 366.038 -1.25364 -1.93785 0
M  V30 3972 C 367.008 -0.129774 -1.65592 0
M  V30 3973 O 368.193 -0.310024 -1.88264 0
M  V30 3974 C 365.333 -1.01064 -3.2997 0
M  V30 3975 C 364.446 -2.22185 -3.70484 0
M  V30 3976 C 363.581 -1.91203 -4.95595 0
M  V30 3977 C 362.62 -3.08491 -5.28677 0
M  V30 3978 N 361.757 -2.77421 -6.44967 0
M  V30 3979 H 366.597 -2.20347 -2.00627 0
M  V30 3980 H 364.134 -1.09558 -0.981608 0
M  V30 3981 H 366.092 -0.850139 -4.08446 0
M  V30 3982 H 364.722 -0.0975026 -3.22653 0
M  V30 3983 H 363.774 -2.4917 -2.87434 0
M  V30 3984 H 365.086 -3.0983 -3.90905 0
M  V30 3985 H 364.24 -1.71864 -5.81848 0
M  V30 3986 H 362.979 -1.00812 -4.77167 0
M  V30 3987 H 361.984 -3.28431 -4.40923 0
M  V30 3988 H 363.209 -3.99655 -5.49047 0
M  V30 3989 H 361.155 -1.89601 -6.28003 0
M  V30 3990 H 361.072 -3.58598 -6.6554 0
M  V30 3991 H 362.34 -2.61577 -7.34301 0
M  V30 3992 N 366.569 1.04691 -1.17803 0
M  V30 3993 C 367.98 1.59238 -0.974689 0
M  V30 3994 C 368.331 1.90306 0.477292 0
M  V30 3995 O 367.456 1.68846 1.35352 0
M  V30 3996 C 368.051 2.89318 -1.76296 0
M  V30 3997 C 366.61 3.40506 -1.60414 0
M  V30 3998 C 365.757 2.14172 -1.76141 0
M  V30 3999 H 368.708 0.874395 -1.32439 0
M  V30 4000 H 368.729 3.5944 -1.24833 0
M  V30 4001 H 368.241 2.66675 -2.81968 0
M  V30 4002 H 366.342 3.68175 -0.572519 0
M  V30 4003 H 366.455 4.14753 -2.39827 0
M  V30 4004 H 364.819 2.25176 -1.19028 0
M  V30 4005 H 365.602 1.93992 -2.83235 0
M  V30 4006 N 368.047 0.979072 1.23499 0
M  V30 4007 C 369.324 0.563674 1.87302 0
M  V30 4008 C 369.704 -0.959199 1.88049 0
M  V30 4009 O 369.052 -1.83535 1.36114 0
M  V30 4010 C 369.262 1.16822 3.28867 0
M  V30 4011 C 370.61 1.26014 4.0547 0
M  V30 4012 O 371.634 1.12158 3.38082 0
M  V30 4013 O 370.493 1.48044 5.26066 0
M  V30 4014 H 367.587 0.189602 0.804972 0
M  V30 4015 H 370.133 1.07407 1.31384 0
M  V30 4016 H 368.905 2.21049 3.22883 0
M  V30 4017 H 368.528 0.642564 3.92373 0
M  V30 4018 N 369.525 -1.3858 0.750561 0
M  V30 4019 C 370.771 -2.0095 0.31477 0
M  V30 4020 C 371.126 -1.58509 -1.09053 0
M  V30 4021 O 370.419 -0.8112 -1.7358 0
M  V30 4022 C 370.613 -3.55455 0.372373 0
M  V30 4023 C 370.442 -4.12898 1.78173 0
M  V30 4024 C 369.212 -4.44797 2.39757 0
M  V30 4025 C 371.41 -4.35366 2.7379 0
M  V30 4026 N 369.392 -4.87831 3.72685 0
M  V30 4027 C 370.763 -4.80775 3.91478 0
M  V30 4028 C 372.818 -4.1746 2.71351 0
M  V30 4029 C 371.521 -5.10155 5.07084 0
M  V30 4030 C 373.547 -4.47963 3.86113 0
M  V30 4031 C 372.909 -4.93593 5.02539 0
M  V30 4032 H 369.008 -0.765083 0.161776 0
M  V30 4033 H 371.592 -1.68246 0.979867 0
M  V30 4034 H 369.763 -3.87512 -0.26244 0
M  V30 4035 H 371.495 -4.04614 -0.0834479 0
M  V30 4036 H 368.25 -4.33135 1.91548 0
M  V30 4037 H 368.674 -5.13685 4.40972 0
M  V30 4038 H 373.316 -3.81372 1.82524 0
M  V30 4039 H 371.034 -5.45141 5.96529 0
M  V30 4040 H 374.62 -4.35717 3.85542 0
M  V30 4041 H 373.5 -5.16746 5.89867 0
M  V30 4042 N 371.003 -0.499398 -1.49478 0
M  V30 4043 C 371.913 0.284489 -2.32869 0
M  V30 4044 C 372.929 0.968885 -1.44529 0
M  V30 4045 O 374.105 0.95062 -1.77553 0
M  V30 4046 C 371.17 1.33594 -3.19928 0
M  V30 4047 C 370.231 0.665149 -4.24116 0
M  V30 4048 C 369.464 1.6665 -5.07014 0
M  V30 4049 O 369.687 2.89618 -4.91404 0
M  V30 4050 O 368.621 1.22271 -5.8935 0
M  V30 4051 H 372.447 -0.39802 -3.01081 0
M  V30 4052 H 370.032 -0.260758 -1.47107 0
M  V30 4053 H 371.914 1.94431 -3.73864 0
M  V30 4054 H 370.589 2.0014 -2.54412 0
M  V30 4055 H 369.496 0.0170769 -3.74096 0
M  V30 4056 H 370.829 0.0421555 -4.92182 0
M  V30 4057 N 372.481 1.55866 -0.233164 0
M  V30 4058 C 373.428 2.20796 0.67215 0
M  V30 4059 C 374.398 1.16731 1.18166 0
M  V30 4060 O 375.583 1.45129 1.23864 0
M  V30 4061 C 372.723 2.90072 1.86955 0
M  V30 4062 C 371.836 4.08759 1.39786 0
M  V30 4063 C 370.971 4.65787 2.55374 0
M  V30 4064 C 370.01 5.76752 2.04998 0
M  V30 4065 N 369.147 6.28021 3.13901 0
M  V30 4066 H 373.987 2.9779 0.111749 0
M  V30 4067 H 371.524 1.47036 0.0434007 0
M  V30 4068 H 373.482 3.28428 2.57276 0
M  V30 4069 H 372.112 2.15575 2.40265 0
M  V30 4070 H 371.164 3.7581 0.589173 0
M  V30 4071 H 372.476 4.88906 0.98856 0
M  V30 4072 H 371.63 5.06646 3.33758 0
M  V30 4073 H 370.369 3.84828 2.99598 0
M  V30 4074 H 369.374 5.35383 1.25079 0
M  V30 4075 H 370.599 6.59553 1.61759 0
M  V30 4076 H 368.545 5.49971 3.57586 0
M  V30 4077 H 368.462 7.03323 2.7726 0
M  V30 4078 H 369.73 6.73538 3.92386 0
M  V30 4079 N 373.959 -0.0401083 1.57549 0
M  V30 4080 C 375.208 -0.732108 1.87944 0
M  V30 4081 C 375.521 -1.77107 0.830206 0
M  V30 4082 O 376.727 -2.51488 1.02302 0
M  V30 4083 C 375.183 -1.35315 3.33494 0
M  V30 4084 C 374.791 -0.351105 4.46622 0
M  V30 4085 C 376.535 -2.02566 3.73051 0
M  V30 4086 C 374.442 -0.979859 5.83226 0
M  V30 4087 H 373.372 -0.277188 0.701201 0
M  V30 4088 H 376.023 0.0138501 1.83495 0
M  V30 4089 H 374.405 -2.14844 3.32653 0
M  V30 4090 H 375.579 0.416674 4.58912 0
M  V30 4091 H 373.894 0.218708 4.15825 0
M  V30 4092 H 376.491 -2.50441 4.72423 0
M  V30 4093 H 376.834 -2.83904 3.04474 0
M  V30 4094 H 377.367 -1.29827 3.76018 0
M  V30 4095 H 374.106 -0.206135 6.55176 0
M  V30 4096 H 373.626 -1.71774 5.74677 0
M  V30 4097 H 375.305 -1.49046 6.29599 0
M  V30 4098 N 375.437 -1.54477 -0.31217 0
M  V30 4099 C 376.384 -1.84655 -1.38461 0
M  V30 4100 C 377.354 -0.694536 -1.50882 0
M  V30 4101 O 378.539 -0.942081 -1.6592 0
M  V30 4102 C 375.679 -2.0896 -2.74645 0
M  V30 4103 C 374.792 -3.36618 -2.70763 0
M  V30 4104 C 373.927 -3.50824 -3.98868 0
M  V30 4105 C 372.966 -4.72315 -3.89339 0
M  V30 4106 N 372.103 -4.83387 -5.09197 0
M  V30 4107 H 376.943 -2.76142 -1.12026 0
M  V30 4108 H 374.48 -1.36748 -0.542065 0
M  V30 4109 H 376.438 -2.21045 -3.53829 0
M  V30 4110 H 375.068 -1.20752 -2.99364 0
M  V30 4111 H 374.12 -3.33211 -1.83506 0
M  V30 4112 H 375.432 -4.25917 -2.59608 0
M  V30 4113 H 374.586 -3.62513 -4.86486 0
M  V30 4114 H 373.325 -2.59638 -4.12843 0
M  V30 4115 H 372.33 -4.6067 -3.00105 0
M  V30 4116 H 373.555 -5.64897 -3.76919 0
M  V30 4117 H 371.501 -3.9512 -5.23657 0
M  V30 4118 H 371.418 -5.66669 -5.00422 0
M  V30 4119 H 372.686 -4.9942 -5.98498 0
M  V30 4120 N 376.915 0.57481 -1.46744 0
M  V30 4121 C 378.145 1.35659 -1.55821 0
M  V30 4122 C 378.553 1.88129 -0.201036 0
M  V30 4123 O 377.896 1.64723 0.813134 0
M  V30 4124 C 377.958 2.57473 -2.50894 0
M  V30 4125 C 377.622 2.26415 -3.9697 0
M  V30 4126 C 378.619 1.84771 -4.85958 0
M  V30 4127 C 376.304 2.38316 -4.42166 0
M  V30 4128 C 378.298 1.55434 -6.18158 0
M  V30 4129 C 375.985 2.08591 -5.74398 0
M  V30 4130 C 376.983 1.67216 -6.62214 0
M  V30 4131 O 376.671 1.37859 -7.91991 0
M  V30 4132 H 376.403 0.420496 -0.529301 0
M  V30 4133 H 378.957 0.704967 -1.92923 0
M  V30 4134 H 377.187 3.25468 -2.08824 0
M  V30 4135 H 378.876 3.19546 -2.50291 0
M  V30 4136 H 379.642 1.75085 -4.52295 0
M  V30 4137 H 375.521 2.69483 -3.74032 0
M  V30 4138 H 379.065 1.23065 -6.86659 0
M  V30 4139 H 374.962 2.17905 -6.07608 0
M  V30 4140 H 375.73 1.51638 -8.04331 0
M  V30 4141 N 378.394 1.34581 0.820102 0
M  V30 4142 C 379.624 1.29991 1.6058 0
M  V30 4143 C 380.032 -0.127588 1.88769 0
M  V30 4144 O 379.375 -1.08595 1.48165 0
M  V30 4145 C 379.437 2.02548 2.9701 0
M  V30 4146 C 379.101 3.51794 2.91701 0
M  V30 4147 C 380.098 4.46647 2.66087 0
M  V30 4148 C 377.783 3.94249 3.11245 0
M  V30 4149 C 379.777 5.81929 2.60071 0
M  V30 4150 C 377.464 5.2963 3.04853 0
M  V30 4151 C 378.462 6.23282 2.793 0
M  V30 4152 O 378.15 7.56181 2.72847 0
M  V30 4153 H 377.882 0.448539 0.505756 0
M  V30 4154 H 380.436 1.77811 1.02822 0
M  V30 4155 H 378.666 1.49345 3.56697 0
M  V30 4156 H 380.355 1.91211 3.58041 0
M  V30 4157 H 381.121 4.15168 2.5072 0
M  V30 4158 H 377 3.21749 3.30149 0
M  V30 4159 H 380.544 6.54999 2.40046 0
M  V30 4160 H 376.441 5.60727 3.19774 0
M  V30 4161 H 377.209 7.6595 2.88553 0
M  V30 4162 N 379.872 -1.04064 1.18357 0
M  V30 4163 C 381.121 -1.76662 0.973313 0
M  V30 4164 C 381.434 -1.89154 -0.497991 0
M  V30 4165 O 382.64 -2.58606 -0.826762 0
M  V30 4166 C 381.096 -3.17624 1.69242 0
M  V30 4167 C 380.704 -3.13225 3.20303 0
M  V30 4168 C 382.448 -3.946 1.56497 0
M  V30 4169 C 380.355 -4.49046 3.84853 0
M  V30 4170 H 379.285 -0.662214 0.36054 0
M  V30 4171 H 381.936 -1.16553 1.41731 0
M  V30 4172 H 380.318 -3.78129 1.1762 0
M  V30 4173 H 381.492 -2.62172 3.78949 0
M  V30 4174 H 379.807 -2.49749 3.33189 0
M  V30 4175 H 382.404 -4.95042 2.02084 0
M  V30 4176 H 382.747 -4.13074 0.517243 0
M  V30 4177 H 383.28 -3.4067 2.05399 0
M  V30 4178 H 380.019 -4.35777 4.89672 0
M  V30 4179 H 379.539 -5.00203 3.30994 0
M  V30 4180 H 381.218 -5.17961 3.87718 0
M  V30 4181 N 381.35 -0.985608 -1.22978 0
M  V30 4182 C 382.28 -0.549649 -2.26939 0
M  V30 4183 C 383.261 0.419803 -1.64838 0
M  V30 4184 O 384.446 0.31203 -1.91677 0
M  V30 4185 C 381.576 0.143652 -3.47003 0
M  V30 4186 C 380.53 -0.743606 -4.21491 0
M  V30 4187 C 379.856 0.0822027 -5.34637 0
M  V30 4188 C 381.156 -2.03694 -4.80943 0
M  V30 4189 H 382.85 -1.41862 -2.63658 0
M  V30 4190 H 380.396 -0.683571 -1.26741 0
M  V30 4191 H 382.349 0.459985 -4.18882 0
M  V30 4192 H 381.073 1.04711 -3.09359 0
M  V30 4193 H 379.732 -1.04347 -3.51436 0
M  V30 4194 H 379.38 0.986359 -4.93234 0
M  V30 4195 H 379.08 -0.508377 -5.85397 0
M  V30 4196 H 380.604 0.392797 -6.09335 0
M  V30 4197 H 382.018 -1.78504 -5.44802 0
M  V30 4198 H 380.415 -2.57573 -5.42011 0
M  V30 4199 H 381.485 -2.72042 -4.01399 0
M  V30 4200 N 382.828 1.3818 -0.7579 0
M  V30 4201 C 383.758 2.33027 -0.148597 0
M  V30 4202 C 384.739 1.55085 0.69875 0
M  V30 4203 O 385.924 1.83384 0.639053 0
M  V30 4204 C 383.054 3.3928 0.742034 0
M  V30 4205 C 382.008 4.28 -0.00291946 0
M  V30 4206 C 381.334 5.25146 1.00625 0
M  V30 4207 C 382.634 5.08938 -1.17385 0
M  V30 4208 H 384.328 2.84231 -0.940909 0
M  V30 4209 H 381.874 1.36659 -0.453908 0
M  V30 4210 H 383.827 4.046 1.17799 0
M  V30 4211 H 382.551 2.86569 1.56671 0
M  V30 4212 H 381.21 3.64192 -0.419504 0
M  V30 4213 H 380.858 4.68721 1.8251 0
M  V30 4214 H 380.558 5.85361 0.512428 0
M  V30 4215 H 382.082 5.93342 1.44143 0
M  V30 4216 H 383.496 5.67474 -0.815224 0
M  V30 4217 H 381.893 5.7841 -1.59882 0
M  V30 4218 H 382.963 4.42424 -1.98468 0
M  V30 4219 N 384.306 0.507319 1.49211 0
M  V30 4220 C 385.583 -0.0982702 1.95353 0
M  V30 4221 C 385.963 -1.53516 1.449 0
M  V30 4222 O 385.311 -2.18594 0.66551 0
M  V30 4223 C 385.521 -0.00440283 3.49 0
M  V30 4224 C 386.869 -0.175147 4.24239 0
M  V30 4225 O 387.893 -0.0792891 3.56112 0
M  V30 4226 O 386.752 -0.37276 5.45227 0
M  V30 4227 H 383.846 -0.0918236 0.821887 0
M  V30 4228 H 386.392 0.570307 1.5983 0
M  V30 4229 H 385.164 0.997402 3.78375 0
M  V30 4230 H 384.787 -0.712845 3.91158 0
M  V30 4231 N 385.784 -1.5574 0.241426 0
M  V30 4232 C 386.694 -2.2479 -0.671305 0
M  V30 4233 C 387.71 -1.26217 -1.19772 0
M  V30 4234 O 388.886 -1.59079 -1.23514 0
M  V30 4235 C 385.951 -2.92966 -1.85396 0
M  V30 4236 C 385.012 -4.06935 -1.36756 0
M  V30 4237 C 384.245 -4.71851 -2.49384 0
M  V30 4238 O 384.468 -4.35823 -3.67987 0
M  V30 4239 O 383.402 -5.60467 -2.19454 0
M  V30 4240 H 387.228 -3.0349 -0.112966 0
M  V30 4241 H 384.813 -1.49397 0.0101513 0
M  V30 4242 H 386.695 -3.35927 -2.54423 0
M  V30 4243 H 385.37 -2.17211 -2.40002 0
M  V30 4244 H 384.277 -3.68503 -0.644726 0
M  V30 4245 H 385.61 -4.84492 -0.867647 0
M  V30 4246 N 387.262 0.0317525 -1.57568 0
M  V30 4247 C 388.192 1.03274 -2.0942 0
M  V30 4248 C 389.173 1.3788 -0.996143 0
M  V30 4249 O 390.358 1.46811 -1.27122 0
M  V30 4250 C 387.488 2.33448 -2.57137 0
M  V30 4251 C 386.442 2.13091 -3.71182 0
M  V30 4252 C 385.768 3.49001 -4.05095 0
M  V30 4253 C 387.068 1.51928 -4.99715 0
M  V30 4254 H 388.762 0.60112 -2.93303 0
M  V30 4255 H 386.308 0.287705 -1.41097 0
M  V30 4256 H 388.261 3.03802 -2.92032 0
M  V30 4257 H 386.985 2.78665 -1.70333 0
M  V30 4258 H 385.644 1.45171 -3.36632 0
M  V30 4259 H 385.292 3.91862 -3.15362 0
M  V30 4260 H 384.992 3.36207 -4.81911 0
M  V30 4261 H 386.516 4.20721 -4.42522 0
M  V30 4262 H 387.93 2.12196 -5.32584 0
M  V30 4263 H 386.327 1.49716 -5.81124 0
M  V30 4264 H 387.397 0.484811 -4.8247 0
M  V30 4265 N 388.74 1.54641 0.303973 0
M  V30 4266 C 389.987 1.7378 1.03955 0
M  V30 4267 C 390.315 0.521986 1.87365 0
M  V30 4268 O 389.57 -0.496099 1.89308 0
M  V30 4269 C 389.869 2.97753 1.97681 0
M  V30 4270 C 389.535 4.31671 1.30271 0
M  V30 4271 C 388.197 4.68075 1.11619 0
M  V30 4272 C 390.549 5.147 0.82055 0
M  V30 4273 C 387.877 5.8509 0.434304 0
M  V30 4274 C 390.229 6.32416 0.152395 0
M  V30 4275 C 388.893 6.67484 -0.0461067 0
M  V30 4276 H 388.163 0.635908 0.380398 0
M  V30 4277 H 390.81 1.88896 0.314718 0
M  V30 4278 H 389.115 2.77406 2.76682 0
M  V30 4279 H 390.812 3.09756 2.54661 0
M  V30 4280 H 387.402 4.03041 1.45795 0
M  V30 4281 H 391.586 4.87077 0.952374 0
M  V30 4282 H 386.842 6.10806 0.269495 0
M  V30 4283 H 391.016 6.96023 -0.229126 0
M  V30 4284 H 388.643 7.58011 -0.576494 0
M  V30 4285 O 390.257 -0.449877 1.55108 0
M  V30 4286 H 390.948 -1.10376 1.59176 0
M  V30 END ATOM
M  V30 BEGIN BOND
M  V30 END BOND
M  V30 END CTAB
M  END
$$$$
