drugbank_target|P0A3S0 Neocarzinostatin (DB04408)
 OpenBabel12092120013D

  0  0  0     0  0            999 V3000
M  V30 BEGIN CTAB
M  V30 COUNTS 1512 1525 0 0 0
M  V30 BEGIN ATOM
M  V30 1 H -0.908 1.98254 -0.117106 0
M  V30 2 N 0 1.576 0 0
M  V30 3 C 0.963 2.07369 0.976253 0
M  V30 4 C 1.963 0.98309 1.27248 0
M  V30 5 O 3.153 1.24574 1.21766 0
M  V30 6 C 0.285 2.51514 2.30116 0
M  V30 7 H 1.478 2.94892 0.545759 0
M  V30 8 H -0.969 1.54328 0.247471 0
M  V30 9 H -0.234 1.67234 2.77855 0
M  V30 10 H -0.449 3.31163 2.09937 0
M  V30 11 H 1.041 2.90345 3.00149 0
M  V30 12 N 1.4781 -0.272755 1.55222 0
M  V30 13 C 2.4411 -1.32041 1.87344 0
M  V30 14 C 3.4411 -1.42342 0.74803 0
M  V30 15 O 4.6311 -1.41488 1.0162 0
M  V30 16 C 1.7631 -2.70173 2.07893 0
M  V30 17 H 2.9561 -1.04789 2.80997 0
M  V30 18 H 0.5091 -0.51083 1.47717 0
M  V30 19 H 1.2441 -3.02605 1.16622 0
M  V30 20 H 1.0291 -2.64082 2.89833 0
M  V30 21 H 2.5191 -3.45869 2.34017 0
M  V30 22 N 2.9562 -1.48159 -0.537278 0
M  V30 23 C 4.3672 -1.49429 -1.11928 0
M  V30 24 C 4.7182 -0.26 -1.9447 0
M  V30 25 O 3.8432 0.633489 -2.0692 0
M  V30 26 C 4.4382 -2.70758 -2.03656 0
M  V30 27 C 2.9972 -2.74923 -2.57088 0
M  V30 28 C 2.1442 -2.42835 -1.3389 0
M  V30 29 H 5.0952 -1.55381 -0.322886 0
M  V30 30 H 5.1162 -2.48861 -2.87834 0
M  V30 31 H 4.6282 -3.60575 -1.43553 0
M  V30 32 H 2.7292 -1.89296 -3.20933 0
M  V30 33 H 2.8422 -3.76157 -2.9672 0
M  V30 34 H 1.2062 -1.93836 -1.65226 0
M  V30 35 H 1.9892 -3.34884 -0.755504 0
M  V30 36 N 4.4343 0.785586 -1.36625 0
M  V30 37 C 5.6623 1.57448 -1.3423 0
M  V30 38 C 6.0773 1.88649 0.0755653 0
M  V30 39 O 5.4343 1.50414 1.03354 0
M  V30 40 C 5.4853 2.89316 -2.16745 0
M  V30 41 O 5.2063 2.59459 -3.53005 0
M  V30 42 C 6.7073 3.83606 -2.22174 0
M  V30 43 H 3.9273 0.488226 -0.4603 0
M  V30 44 H 6.4713 0.974733 -1.79775 0
M  V30 45 H 4.6263 3.4575 -1.74745 0
M  V30 46 H 5.0403 3.43804 -3.96105 0
M  V30 47 H 6.5143 4.73181 -2.8426 0
M  V30 48 H 6.9913 4.21734 -1.22627 0
M  V30 49 H 7.5973 3.33104 -2.64427 0
M  V30 50 N 5.9124 1.20967 1.01018 0
M  V30 51 C 6.8754 0.965918 2.07853 0
M  V30 52 C 7.8754 -0.0610545 1.60684 0
M  V30 53 O 9.0654 0.175681 1.73312 0
M  V30 54 C 6.1974 0.455513 3.37843 0
M  V30 55 H 7.3904 1.91365 2.3091 0
M  V30 56 H 4.9434 1.02594 1.17916 0
M  V30 57 H 5.6784 -0.497381 3.20463 0
M  V30 58 H 5.4634 1.19622 3.73407 0
M  V30 59 H 6.9534 0.304667 4.16487 0
M  V30 60 N 7.3905 -1.2043 1.01659 0
M  V30 61 C 8.6185 -1.93777 0.725132 0
M  V30 62 C 9.0335 -1.74772 -0.714166 0
M  V30 63 O 8.3905 -1.06169 -1.4844 0
M  V30 64 C 8.4415 -3.45876 1.05129 0
M  V30 65 O 8.1625 -3.6426 2.43406 0
M  V30 66 C 9.6635 -4.36368 0.780891 0
M  V30 67 H 6.8835 -0.615901 0.266284 0
M  V30 68 H 9.4275 -1.52922 1.35776 0
M  V30 69 H 7.5825 -3.8461 0.464065 0
M  V30 70 H 7.9965 -4.58246 2.55169 0
M  V30 71 H 9.4705 -5.41743 1.05918 0
M  V30 72 H 9.9475 -4.38275 -0.284937 0
M  V30 73 H 10.5535 -4.03296 1.35027 0
M  V30 74 N 8.8686 -0.792821 -1.36206 0
M  V30 75 C 10.1146 -0.36733 -1.99446 0
M  V30 76 C 10.4476 1.05917 -1.62774 0
M  V30 77 O 9.7226 1.7324 -0.88421 0
M  V30 78 C 10.0056 -0.535044 -3.56103 0
M  V30 79 C 9.8586 -2.00548 -4.02617 0
M  V30 80 C 11.1776 0.0478191 -4.40074 0
M  V30 81 H 8.2966 -0.134941 -0.724541 0
M  V30 82 H 10.9386 -0.999794 -1.61568 0
M  V30 83 H 9.0886 0.00336329 -3.885 0
M  V30 84 H 10.7606 -2.60521 -3.80692 0
M  V30 85 H 9.0036 -2.50686 -3.54032 0
M  V30 86 H 9.6746 -2.07377 -5.11565 0
M  V30 87 H 12.1506 -0.411822 -4.14057 0
M  V30 88 H 11.0266 -0.0995336 -5.4881 0
M  V30 89 H 11.2876 1.14025 -4.27142 0
M  V30 90 N 10.3467 1.47872 -0.545128 0
M  V30 91 C 11.5747 2.06889 -0.021084 0
M  V30 92 C 11.9897 1.39955 1.2672 0
M  V30 93 O 11.3467 0.492036 1.75742 0
M  V30 94 C 11.3977 3.60996 0.190817 0
M  V30 95 O 11.1187 4.25419 -1.04644 0
M  V30 96 C 12.6197 4.36849 0.753521 0
M  V30 97 H 9.8397 0.669785 -0.0403635 0
M  V30 98 H 12.3837 1.90049 -0.755095 0
M  V30 99 H 10.5387 3.77391 0.87492 0
M  V30 100 H 10.9527 5.17785 -0.836611 0
M  V30 101 H 12.4267 5.45399 0.851139 0
M  V30 102 H 12.9037 4.02306 1.762 0
M  V30 103 H 13.5097 4.25169 0.105503 0
M  V30 104 N 11.8248 0.280983 1.55075 0
M  V30 105 C 13.2358 -0.215629 1.85451 0
M  V30 106 C 13.5868 -1.54991 1.203 0
M  V30 107 O 12.7118 -2.10699 0.493435 0
M  V30 108 C 13.3068 -0.398026 3.36454 0
M  V30 109 C 11.8658 -0.838866 3.66933 0
M  V30 110 C 11.0128 0.064458 2.77225 0
M  V30 111 H 13.9638 0.502601 1.50531 0
M  V30 112 H 13.9848 -1.23569 3.59876 0
M  V30 113 H 13.4968 0.573241 3.83843 0
M  V30 114 H 11.5978 -1.8214 3.25048 0
M  V30 115 H 11.7108 -0.672123 4.74362 0
M  V30 116 H 10.0748 -0.452863 2.50642 0
M  V30 117 H 10.8578 1.03172 3.2743 0
M  V30 118 N 13.3029 -1.57598 0.00835791 0
M  V30 119 C 14.5279 -1.95617 -0.689103 0
M  V30 120 C 14.9529 -0.883753 -1.66046 0
M  V30 121 O 14.3109 0.157352 -1.80616 0
M  V30 122 C 14.3589 -3.32736 -1.38994 0
M  V30 123 O 13.4629 -3.27631 -2.50463 0
M  V30 124 H 12.8039 -0.638379 -0.182668 0
M  V30 125 H 15.3339 -2.045 0.064036 0
M  V30 126 H 15.3439 -3.68494 -1.75147 0
M  V30 127 H 14.0189 -4.1034 -0.677778 0
M  V30 128 H 12.5959 -3.03561 -2.16576 0
M  V30 129 N 14.781 0.264519 -1.55364 0
M  V30 130 C 16.006 1.01726 -1.80739 0
M  V30 131 C 16.431 1.78836 -0.583044 0
M  V30 132 O 15.789 1.75167 0.467566 0
M  V30 133 C 15.837 1.94482 -3.03659 0
M  V30 134 O 14.941 3.03386 -2.7934 0
M  V30 135 H 14.282 0.290395 -0.597132 0
M  V30 136 H 16.812 0.290854 -2.02522 0
M  V30 137 H 16.822 2.36278 -3.32621 0
M  V30 138 H 15.497 1.37772 -3.92418 0
M  V30 139 H 14.074 2.65844 -2.61498 0
M  V30 140 N 16.2591 1.48442 0.529413 0
M  V30 141 C 17.5071 1.56179 1.28267 0
M  V30 142 C 17.8281 0.237721 1.93546 0
M  V30 143 O 17.0981 -0.740779 1.81354 0
M  V30 144 H 15.6781 0.575367 0.476405 0
M  V30 145 H 18.3401 1.84909 0.61602 0
M  V30 146 H 17.4361 2.34312 2.06165 0
M  V30 147 N 17.7372 -0.778329 1.37039 0
M  V30 148 C 18.6672 -1.90546 1.34962 0
M  V30 149 C 19.6482 -1.68681 0.219274 0
M  V30 150 O 20.8332 -1.89634 0.418624 0
M  V30 151 C 17.9632 -3.27734 1.14925 0
M  V30 152 C 16.9172 -3.64147 2.24902 0
M  V30 153 C 16.2432 -4.99806 1.89996 0
M  V30 154 C 17.5432 -3.71579 3.67051 0
M  V30 155 H 19.2372 -1.92541 2.29277 0
M  V30 156 H 16.7832 -0.924948 1.10366 0
M  V30 157 H 18.7362 -4.06215 1.12104 0
M  V30 158 H 17.4602 -3.26154 0.170631 0
M  V30 159 H 16.1192 -2.8797 2.26868 0
M  V30 160 H 15.7672 -4.94759 0.906796 0
M  V30 161 H 15.4672 -5.25139 2.63634 0
M  V30 162 H 16.9912 -5.80694 1.88749 0
M  V30 163 H 18.4052 -4.40227 3.67251 0
M  V30 164 H 16.8022 -4.08405 4.39688 0
M  V30 165 H 17.8722 -2.72404 4.01154 0
M  V30 166 N 19.2153 -1.21501 -1.00376 0
M  V30 167 C 20.4403 -1.05977 -1.78279 0
M  V30 168 C 20.8653 0.385994 -1.84097 0
M  V30 169 O 20.2233 1.27849 -1.28547 0
M  V30 170 C 20.2713 -1.66302 -3.19963 0
M  V30 171 O 19.3753 -0.909333 -4.0225 0
M  V30 172 H 18.7163 -0.372906 -0.549397 0
M  V30 173 H 21.2463 -1.6107 -1.26165 0
M  V30 174 H 21.2563 -1.70574 -3.70632 0
M  V30 175 H 19.9313 -2.71515 -3.15043 0
M  V30 176 H 18.5083 -0.941795 -3.60811 0
M  V30 177 N 20.6934 1.19889 -1.02296 0
M  V30 178 C 21.9704 1.85148 -0.630832 0
M  V30 179 C 22.3504 1.91385 0.890782 0
M  V30 180 O 21.6984 1.42642 1.78509 0
M  V30 181 C 21.9084 3.24442 -1.28602 0
M  V30 182 C 23.2564 4.00663 -1.4055 0
M  V30 183 O 24.2804 3.33818 -1.24273 0
M  V30 184 O 23.1394 5.20387 -1.66913 0
M  V30 185 H 20.2334 0.797613 -0.218499 0
M  V30 186 H 22.7794 1.27427 -1.12074 0
M  V30 187 H 21.5514 3.14704 -2.32545 0
M  V30 188 H 21.1744 3.89802 -0.7836 0
M  V30 189 N 22.1715 0.800033 1.35784 0
M  V30 190 C 23.4195 0.376597 1.9856 0
M  V30 191 C 23.7405 -1.05812 1.63795 0
M  V30 192 O 23.0105 -1.73103 0.917171 0
M  V30 193 H 21.5905 0.136261 0.734467 0
M  V30 194 H 24.2525 1.02442 1.65806 0
M  V30 195 H 23.3485 0.477002 3.08433 0
M  V30 196 N 23.6496 -1.47581 0.552962 0
M  V30 197 C 24.8776 -2.06875 0.0320556 0
M  V30 198 C 25.2926 -1.40625 -1.25976 0
M  V30 199 O 24.6496 -0.501349 -1.75479 0
M  V30 200 C 24.7006 -3.61092 -0.17167 0
M  V30 201 O 24.4216 -4.24858 1.06899 0
M  V30 202 C 25.9226 -4.37242 -0.730344 0
M  V30 203 H 23.1426 -0.669561 0.043915 0
M  V30 204 H 25.6866 -1.89646 0.765163 0
M  V30 205 H 23.8416 -3.7785 -0.854894 0
M  V30 206 H 24.2556 -5.17334 0.864059 0
M  V30 207 H 25.7296 -5.45842 -0.822203 0
M  V30 208 H 26.2066 -4.03235 -1.74064 0
M  V30 209 H 26.8126 -4.25219 -0.0829543 0
M  V30 210 N 25.1277 -0.289203 -1.54924 0
M  V30 211 C 26.3737 0.323998 -2.00195 0
M  V30 212 C 26.7067 1.54441 -1.17735 0
M  V30 213 O 25.9817 1.92875 -0.250878 0
M  V30 214 C 26.2647 0.692276 -3.53383 0
M  V30 215 C 26.1177 -0.536457 -4.46589 0
M  V30 216 C 27.4367 1.52335 -4.12895 0
M  V30 217 H 24.5557 0.116289 -0.727768 0
M  V30 218 H 27.1977 -0.398954 -1.85764 0
M  V30 219 H 25.3477 1.30822 -3.65811 0
M  V30 220 H 27.0197 -1.17499 -4.46085 0
M  V30 221 H 25.2627 -1.17192 -4.1767 0
M  V30 222 H 25.9337 -0.234806 -5.515 0
M  V30 223 H 28.4097 1.00302 -4.0383 0
M  V30 224 H 27.2857 1.74982 -5.20262 0
M  V30 225 H 27.5467 2.50886 -3.64018 0
M  V30 226 N 26.6058 1.57591 -0.0167156 0
M  V30 227 C 27.8518 1.91567 0.665582 0
M  V30 228 C 28.1848 0.892298 1.72487 0
M  V30 229 O 27.4598 -0.0867127 1.94307 0
M  V30 230 C 27.7428 3.36069 1.29342 0
M  V30 231 C 27.5958 4.49135 0.244541 0
M  V30 232 C 28.9148 3.803 2.21495 0
M  V30 233 H 26.0338 0.69666 0.240488 0
M  V30 234 H 28.6758 1.89866 -0.0714356 0
M  V30 235 H 26.8258 3.3765 1.92158 0
M  V30 236 H 28.4978 4.59689 -0.385228 0
M  V30 237 H 26.7408 4.3165 -0.431379 0
M  V30 238 H 27.4118 5.47242 0.723207 0
M  V30 239 H 29.8878 3.80377 1.68678 0
M  V30 240 H 28.7638 4.82127 2.62382 0
M  V30 241 H 29.0248 3.15104 3.101 0
M  V30 242 N 28.0839 -0.256276 1.55502 0
M  V30 243 C 29.0309 -1.31714 1.89526 0
M  V30 244 C 30.0009 -1.4828 0.748479 0
M  V30 245 O 31.1859 -1.62416 1.00128 0
M  V30 246 C 28.3259 -2.66933 2.18725 0
M  V30 247 C 27.4389 -2.58452 3.4616 0
M  V30 248 C 26.5739 -3.85961 3.64976 0
M  V30 249 C 25.6129 -3.72059 4.86044 0
M  V30 250 N 24.7499 -4.9144 5.01429 0
M  V30 251 H 29.5899 -1.01998 2.80001 0
M  V30 252 H 27.1269 -0.492413 1.38613 0
M  V30 253 H 29.0849 -3.4563 2.33657 0
M  V30 254 H 27.7149 -2.94816 1.31466 0
M  V30 255 H 26.7669 -1.71374 3.3961 0
M  V30 256 H 28.0789 -2.44085 4.34999 0
M  V30 257 H 27.2329 -4.73101 3.79816 0
M  V30 258 H 25.9719 -4.03215 2.74353 0
M  V30 259 H 24.9769 -2.83302 4.7119 0
M  V30 260 H 26.2019 -3.56309 5.78118 0
M  V30 261 H 24.1479 -5.09072 4.13741 0
M  V30 262 H 24.0649 -4.79668 5.84341 0
M  V30 263 H 25.3329 -5.80104 5.20672 0
M  V30 264 N 29.562 -1.4872 -0.521534 0
M  V30 265 C 30.808 -1.574 -1.27879 0
M  V30 266 C 31.141 -0.250817 -1.92573 0
M  V30 267 O 30.416 0.743934 -1.79711 0
M  V30 268 C 30.699 -2.71843 -2.36164 0
M  V30 269 C 30.552 -4.13893 -1.76105 0
M  V30 270 C 31.871 -2.82008 -3.37875 0
M  V30 271 H 28.99 -0.572941 -0.463581 0
M  V30 272 H 31.632 -1.80927 -0.580119 0
M  V30 273 H 29.782 -2.51914 -2.95756 0
M  V30 274 H 31.454 -4.45284 -1.20499 0
M  V30 275 H 29.697 -4.20498 -1.06601 0
M  V30 276 H 30.368 -4.89804 -2.5455 0
M  V30 277 H 32.844 -3.00086 -2.88249 0
M  V30 278 H 31.72 -3.63796 -4.11028 0
M  V30 279 H 31.981 -1.90511 -3.98946 0
M  V30 280 N 31.0401 0.771051 -1.3745 0
M  V30 281 C 32.0031 1.86598 -1.33093 0
M  V30 282 C 33.0031 1.59076 -0.234845 0
M  V30 283 O 34.1931 1.67145 -0.490732 0
M  V30 284 C 31.3251 3.23747 -1.06773 0
M  V30 285 H 32.5181 1.91873 -2.30488 0
M  V30 286 H 30.0711 0.970876 -1.2249 0
M  V30 287 H 30.8061 3.24148 -0.099129 0
M  V30 288 H 30.5911 3.45115 -1.86112 0
M  V30 289 H 32.0811 4.03824 -1.06377 0
M  V30 290 N 32.5182 1.22032 0.997298 0
M  V30 291 C 33.7662 1.04016 1.73278 0
M  V30 292 C 34.0872 -0.426255 1.90284 0
M  V30 293 O 33.3572 -1.30694 1.45931 0
M  V30 294 H 31.9372 0.381897 0.642 0
M  V30 295 H 34.5992 1.5347 1.20137 0
M  V30 296 H 33.6952 1.51441 2.72896 0
M  V30 297 N 33.9963 -1.19345 1.0293 0
M  V30 298 C 34.9593 -2.20793 0.615069 0
M  V30 299 C 35.9593 -1.57553 -0.321533 0
M  V30 300 O 37.1493 -1.73862 -0.108483 0
M  V30 301 C 34.2813 -3.40754 -0.0999222 0
M  V30 302 H 35.4743 -2.58955 1.51269 0
M  V30 303 H 33.0273 -1.3303 0.820534 0
M  V30 304 H 33.7623 -3.0811 -1.01187 0
M  V30 305 H 33.5473 -3.87889 0.57309 0
M  V30 306 H 35.0373 -4.15898 -0.376645 0
M  V30 307 N 35.4744 -0.807222 -1.35358 0
M  V30 308 C 36.7224 -0.387122 -1.98358 0
M  V30 309 C 37.0434 1.04942 -1.64354 0
M  V30 310 O 36.3134 1.72615 -0.926339 0
M  V30 311 H 34.8934 -0.140154 -0.733734 0
M  V30 312 H 37.5554 -1.0332 -1.6526 0
M  V30 313 H 36.6514 -0.493352 -3.08176 0
M  V30 314 N 36.9525 1.47285 -0.560781 0
M  V30 315 C 37.8825 2.32857 0.173105 0
M  V30 316 C 38.8635 1.44009 0.905281 0
M  V30 317 O 40.0485 1.7286 0.885046 0
M  V30 318 C 37.1785 3.25861 1.20133 0
M  V30 319 C 36.1325 4.23978 0.585388 0
M  V30 320 C 35.4585 5.06332 1.7185 0
M  V30 321 C 36.7585 5.20242 -0.463178 0
M  V30 322 H 38.4525 2.94466 -0.541307 0
M  V30 323 H 35.9985 1.41601 -0.261764 0
M  V30 324 H 37.9515 3.84569 1.72293 0
M  V30 325 H 36.6755 2.62315 1.94573 0
M  V30 326 H 35.3345 3.66501 0.085054 0
M  V30 327 H 34.9825 4.39186 2.45203 0
M  V30 328 H 34.6825 5.72762 1.31213 0
M  V30 329 H 36.2065 5.67899 2.24329 0
M  V30 330 H 37.6205 5.73293 -0.027502 0
M  V30 331 H 36.0175 5.94896 -0.788627 0
M  V30 332 H 37.0875 4.65504 -1.35773 0
M  V30 333 N 38.4306 0.297415 1.54768 0
M  V30 334 C 39.3626 -0.613881 2.20826 0
M  V30 335 C 40.3756 -1.10032 1.19987 0
M  V30 336 O 41.5646 -1.01839 1.46598 0
M  V30 337 C 38.6646 -1.852 2.83821 0
M  V30 338 C 37.8376 -1.50865 4.10559 0
M  V30 339 C 36.8966 -2.60154 4.57391 0
M  V30 340 O 35.9226 -2.25398 5.2267 0
M  V30 341 N 37.1246 -3.90629 4.29406 0
M  V30 342 H 39.8896 -0.048389 2.99661 0
M  V30 343 H 37.4506 0.11946 1.61459 0
M  V30 344 H 39.4426 -2.57652 3.12086 0
M  V30 345 H 38.0126 -2.32597 2.08847 0
M  V30 346 H 37.2326 -0.616925 3.89343 0
M  V30 347 H 38.5206 -1.25458 4.9309 0
M  V30 348 H 37.9186 -4.21677 3.77101 0
M  V30 349 H 36.4756 -4.59391 4.62388 0
M  V30 350 N 39.9087 -1.5758 0.0250728 0
M  V30 351 C 40.8717 -2.08896 -0.943139 0
M  V30 352 C 41.8717 -1.00321 -1.25668 0
M  V30 353 O 43.0617 -1.26495 -1.19769 0
M  V30 354 C 40.1937 -2.55143 -2.26086 0
M  V30 355 H 41.3867 -2.95723 -0.498775 0
M  V30 356 H 38.9397 -1.54703 -0.222888 0
M  V30 357 H 39.6747 -1.71633 -2.75159 0
M  V30 358 H 39.4597 -3.34461 -2.04641 0
M  V30 359 H 40.9497 -2.95083 -2.95492 0
M  V30 360 N 41.3868 0.248026 -1.55636 0
M  V30 361 C 42.6348 0.974295 -1.77065 0
M  V30 362 C 42.9558 1.85897 -0.588849 0
M  V30 363 O 42.2258 1.91868 0.395407 0
M  V30 364 H 40.8058 0.362733 -0.653019 0
M  V30 365 H 43.4678 0.266244 -1.93073 0
M  V30 366 H 42.5638 1.59667 -2.68166 0
M  V30 367 N 42.8649 1.48995 0.513639 0
M  V30 368 C 44.0929 1.61531 1.29288 0
M  V30 369 C 44.5079 0.281801 1.86685 0
M  V30 370 O 43.8649 -0.731111 1.67215 0
M  V30 371 C 43.9159 2.67449 2.43215 0
M  V30 372 O 43.6369 3.95626 1.88179 0
M  V30 373 C 45.1379 2.90575 3.34785 0
M  V30 374 H 42.3579 0.544165 0.392588 0
M  V30 375 H 44.9019 1.9494 0.617956 0
M  V30 376 H 43.0569 2.36853 3.0656 0
M  V30 377 H 43.4709 4.53868 2.62876 0
M  V30 378 H 44.9449 3.68449 4.11035 0
M  V30 379 H 45.4219 2.00011 3.91015 0
M  V30 380 H 46.0279 3.22538 2.77218 0
M  V30 381 N 44.343 -0.763751 1.37857 0
M  V30 382 C 45.306 -1.85889 1.34081 0
M  V30 383 C 46.306 -1.58949 0.243277 0
M  V30 384 O 47.496 -1.66882 0.499589 0
M  V30 385 C 44.628 -3.23176 1.08489 0
M  V30 386 H 45.821 -1.90648 2.31502 0
M  V30 387 H 43.374 -0.964367 1.23003 0
M  V30 388 H 44.109 -3.24091 0.116318 0
M  V30 389 H 43.894 -3.44124 1.8794 0
M  V30 390 H 45.384 -4.03254 1.08517 0
M  V30 391 N 45.8211 -1.22559 -0.990812 0
M  V30 392 C 47.0511 -1.07623 -1.76355 0
M  V30 393 C 47.4591 0.37601 -1.85426 0
M  V30 394 O 46.8021 1.27228 -1.32509 0
M  V30 395 C 46.8641 -1.61507 -3.21179 0
M  V30 396 C 46.5281 -3.10146 -3.35646 0
M  V30 397 C 47.5251 -4.07553 -3.22796 0
M  V30 398 C 45.2101 -3.49644 -3.60631 0
M  V30 399 C 47.2041 -5.42442 -3.34716 0
M  V30 400 C 44.8911 -4.84682 -3.72192 0
M  V30 401 C 45.8891 -5.8089 -3.59243 0
M  V30 402 O 45.5771 -7.13476 -3.70415 0
M  V30 403 H 45.3091 -0.377745 -0.560611 0
M  V30 404 H 47.8631 -1.62658 -1.25425 0
M  V30 405 H 46.0931 -1.00881 -3.73309 0
M  V30 406 H 47.7821 -1.42202 -3.80175 0
M  V30 407 H 48.5481 -3.78381 -3.03403 0
M  V30 408 H 44.4271 -2.75282 -3.69785 0
M  V30 409 H 47.9711 -6.17518 -3.24526 0
M  V30 410 H 43.8681 -5.13534 -3.91092 0
M  V30 411 H 44.6361 -7.21083 -3.87275 0
M  V30 412 N 47.2992 1.18797 -1.03562 0
M  V30 413 C 48.5762 1.84469 -0.650434 0
M  V30 414 C 48.9562 1.92319 0.870433 0
M  V30 415 O 48.3042 1.44528 1.76986 0
M  V30 416 C 48.5142 3.2306 -1.32036 0
M  V30 417 C 49.8622 3.9915 -1.44792 0
M  V30 418 O 50.8862 3.32481 -1.27806 0
M  V30 419 O 49.7452 5.18587 -1.72423 0
M  V30 420 H 46.8392 0.795251 -0.226946 0
M  V30 421 H 49.3852 1.26231 -1.13419 0
M  V30 422 H 48.1572 3.1222 -2.3587 0
M  V30 423 H 47.7802 3.88949 -0.8249 0
M  V30 424 N 48.7773 0.814389 1.34928 0
M  V30 425 C 50.0233 0.399013 1.98836 0
M  V30 426 C 50.3563 -1.03314 1.64438 0
M  V30 427 O 49.6313 -1.71811 0.911659 0
M  V30 428 C 49.9143 0.591629 3.55207 0
M  V30 429 C 49.7673 2.06928 3.99376 0
M  V30 430 C 51.0863 0.022199 4.40094 0
M  V30 431 H 48.2053 0.146451 0.722303 0
M  V30 432 H 50.8473 1.02537 1.59957 0
M  V30 433 H 48.9973 0.0584441 3.88456 0
M  V30 434 H 50.6693 2.66544 3.76499 0
M  V30 435 H 48.9123 2.56287 3.49999 0
M  V30 436 H 49.5833 2.1549 5.08201 0
M  V30 437 H 52.0593 0.477643 4.13349 0
M  V30 438 H 50.9353 0.186832 5.48582 0
M  V30 439 H 51.1963 -1.07215 4.28902 0
M  V30 440 N 50.2554 -1.46986 0.568584 0
M  V30 441 C 51.5034 -2.02041 0.0487022 0
M  V30 442 C 51.8244 -1.44408 -1.31039 0
M  V30 443 O 51.0944 -0.623477 -1.85714 0
M  V30 444 H 49.6744 -0.746849 0.015014 0
M  V30 445 H 52.3364 -1.80257 0.741168 0
M  V30 446 H 51.4324 -3.12085 -0.0308961 0
M  V30 447 N 51.7335 -0.305618 -1.54608 0
M  V30 448 C 52.6655 0.602161 -2.21149 0
M  V30 449 C 53.6785 1.09394 -1.20569 0
M  V30 450 O 54.8675 1.0106 -1.47136 0
M  V30 451 C 51.9675 1.83692 -2.84799 0
M  V30 452 C 51.1405 1.48686 -4.11353 0
M  V30 453 C 50.1995 2.57725 -4.58764 0
M  V30 454 O 49.2255 2.22623 -5.23858 0
M  V30 455 N 50.4275 3.88346 -4.31471 0
M  V30 456 H 53.1925 0.0324966 -2.99682 0
M  V30 457 H 50.7535 -0.128021 -1.61393 0
M  V30 458 H 52.7455 2.55994 -3.13448 0
M  V30 459 H 51.3155 2.31486 -2.10078 0
M  V30 460 H 50.5355 0.596269 -3.89664 0
M  V30 461 H 51.8235 1.22842 -4.93748 0
M  V30 462 H 51.2215 4.19671 -3.79331 0
M  V30 463 H 49.7785 4.56932 -4.64818 0
M  V30 464 N 53.2116 1.57565 -0.0334293 0
M  V30 465 C 54.4516 1.93844 0.648379 0
M  V30 466 C 54.8156 0.910387 1.69044 0
M  V30 467 O 56.0166 1.15952 2.42505 0
M  V30 468 C 54.2876 3.35017 1.24492 0
M  V30 469 S 55.8466 3.93229 1.94721 0
M  V30 470 H 52.6646 0.678231 0.213364 0
M  V30 471 H 55.2666 1.95254 -0.0981253 0
M  V30 472 H 53.9706 4.07652 0.474128 0
M  V30 473 H 53.5016 3.37061 2.02864 0
M  V30 474 H 55.5166 3.77014 3.22606 0
M  V30 475 N 54.6897 -0.239769 1.55765 0
M  V30 476 C 55.6527 -1.28038 1.90103 0
M  V30 477 C 56.6527 -1.40723 0.778055 0
M  V30 478 O 57.8427 -1.39301 1.04599 0
M  V30 479 C 54.9747 -2.65702 2.13577 0
M  V30 480 H 56.1677 -0.988048 2.83157 0
M  V30 481 H 53.7207 -0.479382 1.48767 0
M  V30 482 H 54.4557 -3.00063 1.23015 0
M  V30 483 H 54.2407 -2.57875 2.95369 0
M  V30 484 H 55.7307 -3.40828 2.41301 0
M  V30 485 N 56.1678 -1.49265 -0.50573 0
M  V30 486 C 57.4138 -1.59723 -1.25937 0
M  V30 487 C 57.7688 -0.278236 -1.90378 0
M  V30 488 O 57.0618 0.72113 -1.77511 0
M  V30 489 C 57.2558 -2.69008 -2.35308 0
M  V30 490 C 57.0848 -4.11405 -1.81592 0
M  V30 491 C 55.8548 -4.78252 -1.63105 0
M  V30 492 C 58.0528 -4.96792 -1.33048 0
M  V30 493 N 56.0348 -6.0498 -1.04269 0
M  V30 494 C 57.4058 -6.13962 -0.863168 0
M  V30 495 C 59.4608 -4.82828 -1.21577 0
M  V30 496 C 58.1638 -7.18705 -0.292489 0
M  V30 497 C 60.1898 -5.87716 -0.65907 0
M  V30 498 C 59.5518 -7.0411 -0.201954 0
M  V30 499 H 55.6508 -0.638864 -0.450973 0
M  V30 500 H 58.2348 -1.86251 -0.567326 0
M  V30 501 H 56.4058 -2.4426 -3.01979 0
M  V30 502 H 58.1378 -2.69013 -3.02348 0
M  V30 503 H 54.8928 -4.34974 -1.87336 0
M  V30 504 H 55.3168 -6.72631 -0.767919 0
M  V30 505 H 59.9588 -3.93159 -1.55518 0
M  V30 506 H 57.6768 -8.08078 0.0591987 0
M  V30 507 H 61.2628 -5.7897 -0.573156 0
M  V30 508 H 60.1428 -7.83885 0.222101 0
M  V30 509 N 57.6459 0.756429 -1.3826 0
M  V30 510 C 58.8919 1.51772 -1.34511 0
M  V30 511 C 59.2249 1.94089 0.0656691 0
M  V30 512 O 58.4999 1.65221 1.02626 0
M  V30 513 C 58.7829 2.77226 -2.29821 0
M  V30 514 C 58.6359 2.41065 -3.79747 0
M  V30 515 C 59.9549 3.79236 -2.23312 0
M  V30 516 H 57.0739 0.550578 -0.489931 0
M  V30 517 H 59.7159 0.866607 -1.69086 0
M  V30 518 H 57.8659 3.32784 -2.00467 0
M  V30 519 H 59.5379 1.91303 -4.19763 0
M  V30 520 H 57.7809 1.7356 -3.97567 0
M  V30 521 H 58.4519 3.3081 -4.41892 0
M  V30 522 H 60.9279 3.3321 -2.49219 0
M  V30 523 H 59.8039 4.64714 -2.92116 0
M  V30 524 H 60.0649 4.24615 -1.23102 0
M  V30 525 N 59.124 1.23083 0.984299 0
M  V30 526 C 60.401 0.9689 1.69917 0
M  V30 527 C 60.781 -0.513604 2.04757 0
M  V30 528 O 60.129 -1.48383 1.73767 0
M  V30 529 C 60.339 1.87518 2.94343 0
M  V30 530 C 61.687 2.13636 3.6694 0
M  V30 531 O 62.711 1.85036 3.04368 0
M  V30 532 O 61.57 2.62119 4.79537 0
M  V30 533 H 58.664 0.365095 0.742048 0
M  V30 534 H 61.21 1.34107 1.03987 0
M  V30 535 H 59.982 2.87756 2.65164 0
M  V30 536 H 59.605 1.50514 3.6801 0
M  V30 537 N 60.6021 -1.18246 1.0419 0
M  V30 538 C 61.8301 -1.92195 0.766072 0
M  V30 539 C 62.2451 -1.76247 -0.676933 0
M  V30 540 O 61.6021 -1.09293 -1.46155 0
M  V30 541 C 61.6531 -3.43568 1.12442 0
M  V30 542 O 61.3741 -3.59015 2.51078 0
M  V30 543 C 62.8751 -4.34613 0.873275 0
M  V30 544 H 60.0951 -0.610114 0.279288 0
M  V30 545 H 62.6391 -1.50007 1.38989 0
M  V30 546 H 60.7941 -3.8354 0.545542 0
M  V30 547 H 61.2081 -4.5273 2.64831 0
M  V30 548 H 62.6821 -5.39374 1.17385 0
M  V30 549 H 63.1591 -4.38781 -0.191909 0
M  V30 550 H 63.7651 -4.00341 1.43551 0
M  V30 551 N 62.0802 -0.821533 -1.34494 0
M  V30 552 C 63.3282 -0.408139 -1.97936 0
M  V30 553 C 63.6492 1.03193 -1.65457 0
M  V30 554 O 62.9192 1.71622 -0.944595 0
M  V30 555 H 61.4992 -0.147928 -0.732206 0
M  V30 556 H 64.1612 -1.05067 -1.64155 0
M  V30 557 H 63.2572 -0.52601 -3.07635 0
M  V30 558 N 63.5583 1.46682 -0.576371 0
M  V30 559 C 64.8043 2.02712 -0.0596221 0
M  V30 560 C 65.1373 1.44765 1.29448 0
M  V30 561 O 64.4123 0.610355 1.84675 0
M  V30 562 C 64.6953 3.60098 0.0129503 0
M  V30 563 C 64.5483 4.28441 -1.3696 0
M  V30 564 C 65.8673 4.34224 0.71678 0
M  V30 565 H 62.9863 0.736637 -0.0231407 0
M  V30 566 H 65.6283 1.74898 -0.742351 0
M  V30 567 H 63.7783 3.83926 0.594378 0
M  V30 568 H 65.4503 4.15896 -1.9957 0
M  V30 569 H 63.6933 3.8805 -1.93907 0
M  V30 570 H 64.3643 5.3716 -1.27135 0
M  V30 571 H 66.8403 4.15503 0.222908 0
M  V30 572 H 65.7163 5.43936 0.73657 0
M  V30 573 H 65.9773 4.04823 1.77682 0
M  V30 574 N 65.0364 0.313813 1.54444 0
M  V30 575 C 65.9664 -0.549454 2.26943 0
M  V30 576 C 66.9474 -1.12741 1.27372 0
M  V30 577 O 68.1324 -1.15436 1.56167 0
M  V30 578 C 65.2624 -1.71523 3.01989 0
M  V30 579 C 64.2164 -1.26703 4.08816 0
M  V30 580 C 63.5424 -2.51898 4.71647 0
M  V30 581 C 64.8424 -0.388962 5.2085 0
M  V30 582 H 66.5364 0.0552661 2.99349 0
M  V30 583 H 64.0824 0.0280207 1.43973 0
M  V30 584 H 66.0354 -2.32535 3.51433 0
M  V30 585 H 64.7594 -2.34639 2.27183 0
M  V30 586 H 63.4184 -0.679896 3.6024 0
M  V30 587 H 63.0664 -3.13356 3.93468 0
M  V30 588 H 62.7664 -2.22605 5.43802 0
M  V30 589 H 64.2904 -3.1369 5.23861 0
M  V30 590 H 65.7044 -0.905107 5.6611 0
M  V30 591 H 64.1014 -0.18924 5.99802 0
M  V30 592 H 65.1714 0.582699 4.81386 0
M  V30 593 N 66.5145 -1.57545 0.0417849 0
M  V30 594 C 67.4775 -2.09885 -0.92093 0
M  V30 595 C 68.4775 -1.01648 -1.24596 0
M  V30 596 O 69.6675 -1.27759 -1.1842 0
M  V30 597 C 66.7995 -2.57527 -2.23367 0
M  V30 598 H 67.9925 -2.96236 -0.467382 0
M  V30 599 H 65.5455 -1.5493 -0.206467 0
M  V30 600 H 66.2805 -1.74542 -2.73323 0
M  V30 601 H 66.0655 -3.36613 -2.01083 0
M  V30 602 H 67.5555 -2.98201 -2.92346 0
M  V30 603 N 67.9926 0.231505 -1.5589 0
M  V30 604 C 69.2326 0.964533 -1.80211 0
M  V30 605 C 69.5966 1.81926 -0.613744 0
M  V30 606 O 70.7976 2.58526 -0.736045 0
M  V30 607 C 69.0686 1.78956 -3.09369 0
M  V30 608 S 70.6276 2.57959 -3.54969 0
M  V30 609 H 67.4456 0.324173 -0.632798 0
M  V30 610 H 70.0476 0.230985 -1.94131 0
M  V30 611 H 68.7516 1.15161 -3.93911 0
M  V30 612 H 68.2826 2.56559 -2.9823 0
M  V30 613 H 70.2976 3.81309 -3.17519 0
M  V30 614 N 69.4707 1.49531 0.497807 0
M  V30 615 C 70.4187 1.66926 1.61983 0
M  V30 616 C 71.4127 0.535167 1.60724 0
M  V30 617 O 72.6187 0.714896 1.65195 0
M  V30 618 H 68.9937 0.526415 0.537021 0
M  V30 619 H 70.9647 2.61098 1.44465 0
M  V30 620 C 69.7137 1.75602 3.00099 0
M  V30 621 H 69.0367 2.62244 3.01775 0
M  V30 622 H 70.4767 1.91807 3.78135 0
M  V30 623 C 68.9357 0.501543 3.33146 0
M  V30 624 O 69.4657 -0.371342 3.9998 0
M  V30 625 N 67.6717 0.363531 2.88317 0
M  V30 626 H 67.2187 1.07485 2.34104 0
M  V30 627 H 67.1767 -0.474728 3.10795 0
M  V30 628 N 70.9488 -0.749086 1.3866 0
M  V30 629 C 72.3598 -1.32664 1.31366 0
M  V30 630 C 72.7108 -1.96179 -0.028484 0
M  V30 631 O 71.8358 -1.9537 -0.93057 0
M  V30 632 C 72.4308 -2.41219 2.37905 0
M  V30 633 C 70.9898 -2.94684 2.34176 0
M  V30 634 C 70.1368 -1.68108 2.20533 0
M  V30 635 H 73.0878 -0.547628 1.48952 0
M  V30 636 H 73.1088 -3.21268 2.0388 0
M  V30 637 H 72.6208 -1.94962 3.35576 0
M  V30 638 H 70.7218 -3.45258 1.401 0
M  V30 639 H 70.8348 -3.48757 3.2849 0
M  V30 640 H 69.1988 -1.91907 1.67463 0
M  V30 641 H 69.9818 -1.23923 3.20153 0
M  V30 642 N 72.4269 -1.23603 -0.977757 0
M  V30 643 C 73.3899 -1.02069 -2.05218 0
M  V30 644 C 74.3899 0.0184305 -1.60789 0
M  V30 645 O 75.5799 -0.221569 -1.72785 0
M  V30 646 C 72.7119 -0.544926 -3.36517 0
M  V30 647 H 73.9049 -1.9742 -2.25755 0
M  V30 648 H 71.4579 -1.05684 -1.15155 0
M  V30 649 H 72.1929 0.412241 -3.21669 0
M  V30 650 H 71.9779 -1.2948 -3.70105 0
M  V30 651 H 73.4679 -0.414985 -4.15533 0
M  V30 652 N 73.905 1.17692 -1.04816 0
M  V30 653 C 75.182 1.83768 -0.669963 0
M  V30 654 C 75.562 1.93232 0.849986 0
M  V30 655 O 74.91 1.46397 1.75443 0
M  V30 656 C 75.12 3.21641 -1.35455 0
M  V30 657 C 76.468 3.97592 -1.49017 0
M  V30 658 O 77.492 3.31107 -1.31326 0
M  V30 659 O 76.351 5.16729 -1.77914 0
M  V30 660 H 73.445 0.792799 -0.235368 0
M  V30 661 H 75.991 1.25021 -1.14751 0
M  V30 662 H 74.763 3.097 -2.39168 0
M  V30 663 H 74.386 3.88052 -0.866107 0
M  V30 664 N 75.3831 0.828654 1.34056 0
M  V30 665 C 76.6301 0.419458 1.98108 0
M  V30 666 C 76.9581 -1.01886 1.65679 0
M  V30 667 O 76.2131 -1.72539 0.923512 0
M  V30 668 C 76.5121 0.575226 3.52741 0
M  V30 669 C 76.1781 1.98012 4.05095 0
M  V30 670 C 74.8401 2.36442 4.19104 0
M  V30 671 C 77.1921 2.89824 4.33188 0
M  V30 672 C 74.5201 3.66009 4.58535 0
M  V30 673 C 76.8721 4.1886 4.74066 0
M  V30 674 C 75.5361 4.5726 4.86281 0
M  V30 675 H 74.8061 0.153491 0.724929 0
M  V30 676 H 77.4531 1.05371 1.59904 0
M  V30 677 H 75.7581 -0.142385 3.91541 0
M  V30 678 H 77.4551 0.239057 4.00287 0
M  V30 679 H 74.0451 1.67162 3.94658 0
M  V30 680 H 78.2291 2.61375 4.21897 0
M  V30 681 H 73.4851 3.95579 4.66184 0
M  V30 682 H 77.6591 4.90086 4.94761 0
M  V30 683 H 75.2861 5.57707 5.16592 0
M  V30 684 N 76.8612 -1.46375 0.584142 0
M  V30 685 C 78.0862 -2.07268 0.0740405 0
M  V30 686 C 78.5112 -1.42979 -1.22223 0
M  V30 687 O 77.8692 -0.514092 -1.73859 0
M  V30 688 C 77.9172 -3.60518 -0.0767769 0
M  V30 689 O 77.0212 -3.96533 -1.13292 0
M  V30 690 H 76.3622 -0.660961 0.0634524 0
M  V30 691 H 78.8922 -1.87991 0.807492 0
M  V30 692 H 78.9022 -4.07021 -0.282489 0
M  V30 693 H 77.5772 -4.06702 0.86986 0
M  V30 694 H 76.1542 -3.61738 -0.905553 0
M  V30 695 N 78.3393 -0.321999 -1.54275 0
M  V30 696 C 79.5643 0.285791 -2.05422 0
M  V30 697 C 79.9893 1.45124 -1.19669 0
M  V30 698 O 79.3473 1.80132 -0.205441 0
M  V30 699 C 79.3953 0.69956 -3.53749 0
M  V30 700 O 78.4993 1.8021 -3.70942 0
M  V30 701 H 77.8403 0.0518962 -0.661969 0
M  V30 702 H 80.3703 -0.469954 -1.9913 0
M  V30 703 H 80.3803 0.982649 -3.9599 0
M  V30 704 H 79.0553 -0.152864 -4.15619 0
M  V30 705 H 77.6323 1.51794 -3.40607 0
M  V30 706 N 79.8174 1.5752 -0.0501392 0
M  V30 707 C 81.0634 1.92936 0.624798 0
M  V30 708 C 81.3964 0.928685 1.70555 0
M  V30 709 O 80.6714 -0.0454779 1.94447 0
M  V30 710 C 80.9544 3.38737 1.22185 0
M  V30 711 C 80.8074 4.49552 0.149218 0
M  V30 712 C 82.1264 3.84913 2.13378 0
M  V30 713 H 79.2454 0.701604 0.225657 0
M  V30 714 H 81.8874 1.89671 -0.111693 0
M  V30 715 H 80.0374 3.4165 1.84953 0
M  V30 716 H 81.7094 4.58768 -0.482648 0
M  V30 717 H 79.9524 4.30638 -0.522841 0
M  V30 718 H 80.6234 5.48653 0.606966 0
M  V30 719 H 83.0994 3.8387 1.60572 0
M  V30 720 H 81.9754 4.87584 2.52097 0
M  V30 721 H 82.2364 3.21611 3.03346 0
M  V30 722 N 81.2955 -0.223234 1.56011 0
M  V30 723 C 82.5235 -0.964812 1.83027 0
M  V30 724 C 82.9385 -1.78013 0.62904 0
M  V30 725 O 82.2955 -1.78008 -0.402414 0
M  V30 726 C 82.3465 -1.88373 3.08542 0
M  V30 727 O 82.0675 -1.10137 4.2403 0
M  V30 728 C 83.5685 -2.73934 3.48533 0
M  V30 729 H 80.7885 -0.282842 0.608475 0
M  V30 730 H 83.3325 -0.238971 2.03099 0
M  V30 731 H 81.4875 -2.56354 2.9045 0
M  V30 732 H 81.9015 -1.72501 4.95322 0
M  V30 733 H 83.3755 -3.34117 4.39397 0
M  V30 734 H 83.8525 -3.46244 2.70207 0
M  V30 735 H 84.4585 -2.11369 3.69057 0
M  V30 736 N 82.7736 -1.49793 -0.48987 0
M  V30 737 C 83.7366 -1.66752 -1.57246 0
M  V30 738 C 84.7366 -0.538867 -1.51502 0
M  V30 739 O 85.9266 -0.805545 -1.54456 0
M  V30 740 C 83.0586 -1.67528 -2.96896 0
M  V30 741 H 84.2516 -2.63321 -1.43534 0
M  V30 742 H 81.8046 -1.38992 -0.714914 0
M  V30 743 H 82.5396 -0.725837 -3.16073 0
M  V30 744 H 82.3246 -2.49504 -3.02473 0
M  V30 745 H 83.8146 -1.82667 -3.7553 0
M  V30 746 N 84.2517 0.741722 -1.39055 0
M  V30 747 C 85.5287 1.49252 -1.26425 0
M  V30 748 C 85.9087 2.10705 0.129144 0
M  V30 749 O 85.2567 1.98045 1.13976 0
M  V30 750 C 85.4667 2.54934 -2.38347 0
M  V30 751 C 86.8147 3.21506 -2.77343 0
M  V30 752 O 87.8387 2.65245 -2.37747 0
M  V30 753 O 86.6977 4.23294 -3.45665 0
M  V30 754 H 83.7917 0.662451 -0.495064 0
M  V30 755 H 86.3377 0.776121 -1.50912 0
M  V30 756 H 85.1097 2.07857 -3.31529 0
M  V30 757 H 84.7327 3.34141 -2.15489 0
M  V30 758 N 85.7298 1.2412 0.971189 0
M  V30 759 C 86.6928 1.03156 2.04674 0
M  V30 760 C 87.6928 -0.00990322 1.60797 0
M  V30 761 O 88.8828 0.230729 1.72665 0
M  V30 762 C 86.0148 0.562765 3.36223 0
M  V30 763 H 87.2078 1.98614 2.24705 0
M  V30 764 H 84.7608 1.06293 1.14593 0
M  V30 765 H 85.4958 -0.395176 3.21883 0
M  V30 766 H 85.2808 1.31441 3.69413 0
M  V30 767 H 86.7708 0.437015 4.15307 0
M  V30 768 N 87.2079 -1.17134 1.05439 0
M  V30 769 C 88.1559 -2.23289 0.651511 0
M  V30 770 C 89.1499 -1.66186 -0.328411 0
M  V30 771 O 90.3559 -1.78949 -0.194206 0
M  V30 772 H 86.7309 -0.726938 0.192523 0
M  V30 773 H 88.7019 -2.54565 1.55689 0
M  V30 774 C 87.4509 -3.47671 0.0448436 0
M  V30 775 H 86.7739 -3.91918 0.78996 0
M  V30 776 H 88.2139 -4.2353 -0.19964 0
M  V30 777 C 86.6729 -3.14453 -1.20918 0
M  V30 778 O 87.2029 -3.29459 -2.29825 0
M  V30 779 N 85.4089 -2.68657 -1.10779 0
M  V30 780 H 84.9559 -2.56646 -0.221526 0
M  V30 781 H 84.9139 -2.46804 -1.9477 0
M  V30 782 N 88.686 -0.835752 -1.33615 0
M  V30 783 C 89.934 -0.429109 -1.97492 0
M  V30 784 C 90.255 1.01433 -1.66543 0
M  V30 785 O 89.525 1.70611 -0.962744 0
M  V30 786 H 88.105 -0.155686 -0.730596 0
M  V30 787 H 90.767 -1.06802 -1.63031 0
M  V30 788 H 89.863 -0.55861 -3.0706 0
M  V30 789 N 90.1641 1.46063 -0.591896 0
M  V30 790 C 91.3891 2.07226 -0.0850314 0
M  V30 791 C 91.8141 1.43625 1.21463 0
M  V30 792 O 91.1721 0.523305 1.73583 0
M  V30 793 C 91.2201 3.60554 0.0576567 0
M  V30 794 O 90.3241 3.97128 1.11188 0
M  V30 795 H 89.6651 0.660615 -0.0669568 0
M  V30 796 H 92.1951 1.8756 -0.81745 0
M  V30 797 H 92.2051 4.07165 0.2609 0
M  V30 798 H 90.8801 4.06235 -0.891416 0
M  V30 799 H 89.4571 3.62213 0.886356 0
M  V30 800 N 91.6422 0.330177 1.54103 0
M  V30 801 C 92.6052 -0.520144 2.2322 0
M  V30 802 C 93.6052 -1.03828 1.22786 0
M  V30 803 O 94.7952 -0.929652 1.4732 0
M  V30 804 C 91.9272 -1.72317 2.94142 0
M  V30 805 H 93.1202 0.0841605 2.99782 0
M  V30 806 H 90.6732 0.0813433 1.56088 0
M  V30 807 H 91.4082 -2.36653 2.21734 0
M  V30 808 H 91.1932 -1.35898 3.67796 0
M  V30 809 H 92.6832 -2.3266 3.46784 0
M  V30 810 N 93.1203 -1.57491 0.0584922 0
M  V30 811 C 94.3453 -1.97711 -0.62652 0
M  V30 812 C 94.7703 -0.936132 -1.63151 0
M  V30 813 O 94.1283 0.099811 -1.81025 0
M  V30 814 C 94.1763 -3.36989 -1.28338 0
M  V30 815 O 93.2803 -3.35433 -2.39913 0
M  V30 816 H 92.6213 -0.643868 -0.162266 0
M  V30 817 H 95.1513 -2.04193 0.129064 0
M  V30 818 H 95.1613 -3.73879 -1.63335 0
M  V30 819 H 93.8363 -4.12289 -0.546889 0
M  V30 820 H 92.4133 -3.10298 -2.06809 0
M  V30 821 N 94.5984 0.214957 -1.56127 0
M  V30 822 C 95.8264 0.955092 -1.83536 0
M  V30 823 C 96.2414 1.77677 -0.638472 0
M  V30 824 O 95.5984 1.78219 0.392968 0
M  V30 825 C 95.6494 1.86734 -3.09536 0
M  V30 826 O 95.3704 1.07887 -4.24608 0
M  V30 827 C 96.8714 2.72082 -3.4998 0
M  V30 828 H 94.0914 0.279611 -0.609966 0
M  V30 829 H 96.6354 0.228197 -2.03223 0
M  V30 830 H 94.7904 2.5481 -2.91806 0
M  V30 831 H 95.2044 1.69872 -4.9623 0
M  V30 832 H 96.6784 3.31782 -4.41163 0
M  V30 833 H 97.1554 3.44806 -2.7204 0
M  V30 834 H 97.7614 2.09409 -3.70173 0
M  V30 835 N 96.0765 1.50051 0.48192 0
M  V30 836 C 97.3015 1.64508 1.26301 0
M  V30 837 C 97.7265 0.323851 1.85291 0
M  V30 838 O 97.0845 -0.710969 1.66778 0
M  V30 839 C 97.1325 2.7305 2.35533 0
M  V30 840 O 96.2365 2.3355 3.39895 0
M  V30 841 H 95.5775 0.549978 0.372048 0
M  V30 842 H 98.1075 1.9636 0.574786 0
M  V30 843 H 98.1175 2.95799 2.8101 0
M  V30 844 H 96.7925 3.68946 1.91967 0
M  V30 845 H 95.3695 2.21205 3.00204 0
M  V30 846 N 97.5546 -0.734337 1.39446 0
M  V30 847 C 98.4846 -1.86155 1.40955 0
M  V30 848 C 99.4656 -1.67898 0.272827 0
M  V30 849 O 100.651 -1.88207 0.478743 0
M  V30 850 C 97.7806 -3.23912 1.25294 0
M  V30 851 C 96.7346 -3.56808 2.36373 0
M  V30 852 C 96.0606 -4.93508 2.058 0
M  V30 853 C 97.3606 -3.59713 3.78687 0
M  V30 854 H 99.0546 -1.8515 2.35287 0
M  V30 855 H 96.6006 -0.889367 1.13253 0
M  V30 856 H 98.5536 -4.02443 1.2497 0
M  V30 857 H 97.2776 -3.25446 0.274308 0
M  V30 858 H 95.9366 -2.80606 2.35914 0
M  V30 859 H 95.5846 -4.91623 1.06374 0
M  V30 860 H 95.2846 -5.16486 2.80208 0
M  V30 861 H 96.8086 -5.74396 2.07128 0
M  V30 862 H 98.2226 -4.2832 3.81071 0
M  V30 863 H 96.6196 -3.94209 4.52459 0
M  V30 864 H 97.6896 -2.59504 4.09617 0
M  V30 865 N 99.0327 -1.24633 -0.964593 0
M  V30 866 C 100.261 -1.11501 -1.74285 0
M  V30 867 C 100.676 0.332165 -1.85855 0
M  V30 868 O 100.033 1.22903 -1.34911 0
M  V30 869 C 100.084 -1.75258 -3.16175 0
M  V30 870 O 99.8047 -3.14318 -3.05182 0
M  V30 871 C 101.306 -1.67776 -4.10324 0
M  V30 872 H 98.5257 -0.389407 -0.546446 0
M  V30 873 H 101.07 -1.64801 -1.21083 0
M  V30 874 H 99.2247 -1.25954 -3.66353 0
M  V30 875 H 99.6387 -3.4551 -3.94618 0
M  V30 876 H 101.113 -2.17064 -5.0753 0
M  V30 877 H 101.59 -0.639584 -4.34518 0
M  V30 878 H 102.196 -2.16522 -3.66058 0
M  V30 879 N 100.511 1.16574 -1.06058 0
M  V30 880 C 101.757 1.87324 -0.777022 0
M  V30 881 C 102.09 1.81351 0.694645 0
M  V30 882 O 101.365 1.22753 1.50871 0
M  V30 883 C 101.648 3.36991 -1.26922 0
M  V30 884 C 101.501 3.51667 -2.80447 0
M  V30 885 C 102.82 4.3131 -0.87521 0
M  V30 886 H 99.9388 0.680191 -0.28374 0
M  V30 887 H 102.581 1.37036 -1.3161 0
M  V30 888 H 100.731 3.79949 -0.81063 0
M  V30 889 H 102.403 3.17664 -3.34495 0
M  V30 890 H 100.646 2.93656 -3.19294 0
M  V30 891 H 101.317 4.56766 -3.0995 0
M  V30 892 H 103.793 3.9624 -1.27014 0
M  V30 893 H 102.669 5.34545 -1.2471 0
M  V30 894 H 102.93 4.41552 0.220071 0
M  V30 895 N 101.989 0.842826 1.3317 0
M  V30 896 C 103.405 0.531128 1.50503 0
M  V30 897 C 103.605 -0.940734 1.78192 0
M  V30 898 O 102.661 -1.72436 1.84451 0
M  V30 899 C 103.974 1.40789 2.65705 0
M  V30 900 C 105.522 1.40708 2.79589 0
M  V30 901 C 105.997 2.26878 3.97857 0
M  V30 902 N 107.488 2.24609 4.05099 0
M  V30 903 C 108.223 2.88019 4.95815 0
M  V30 904 N 107.719 3.60496 5.9162 0
M  V30 905 N 109.512 2.77469 4.88843 0
M  V30 906 H 101.663 1.79557 1.1346 0
M  V30 907 H 103.926 0.766267 0.558156 0
M  V30 908 H 103.632 2.454 2.51936 0
M  V30 909 H 103.506 1.08677 3.61205 0
M  V30 910 H 105.893 0.368668 2.92788 0
M  V30 911 H 105.974 1.76829 1.84838 0
M  V30 912 H 105.618 3.3078 3.85418 0
M  V30 913 H 105.548 1.88096 4.91861 0
M  V30 914 H 108.039 1.71906 3.36536 0
M  V30 915 H 108.352 4.06076 6.57512 0
M  V30 916 H 106.697 3.64604 5.91683 0
M  V30 917 H 109.888 2.20406 4.12963 0
M  V30 918 H 110.061 3.2717 5.59342 0
M  V30 919 N 103.467 -1.45747 0.599634 0
M  V30 920 C 104.883 -1.57424 0.26264 0
M  V30 921 C 105.083 -1.59222 -1.23493 0
M  V30 922 O 104.139 -1.51825 -2.01756 0
M  V30 923 C 105.452 -2.86061 0.926795 0
M  V30 924 C 107 -2.99722 0.901967 0
M  V30 925 C 107.475 -4.31119 1.54598 0
M  V30 926 N 108.966 -4.37858 1.5111 0
M  V30 927 C 109.701 -5.3818 1.97863 0
M  V30 928 N 109.197 -6.45083 2.52666 0
M  V30 929 N 110.99 -5.29487 1.88679 0
M  V30 930 H 103.141 -1.42823 1.57211 0
M  V30 931 H 105.404 -0.68235 0.658105 0
M  V30 932 H 105.11 -2.90605 1.98095 0
M  V30 933 H 104.984 -3.74563 0.445238 0
M  V30 934 H 107.371 -2.9475 -0.143617 0
M  V30 935 H 107.452 -2.12652 1.42171 0
M  V30 936 H 107.096 -4.36849 2.59085 0
M  V30 937 H 107.026 -5.16992 1.00132 0
M  V30 938 H 109.517 -3.61209 1.11068 0
M  V30 939 H 109.83 -7.17869 2.86155 0
M  V30 940 H 108.175 -6.45856 2.56701 0
M  V30 941 H 111.366 -4.44877 1.4561 0
M  V30 942 H 111.539 -6.07524 2.25429 0
M  V30 943 N 104.945 -0.338344 -1.53925 0
M  V30 944 C 106.17 0.263987 -2.05713 0
M  V30 945 C 106.595 1.43847 -1.21201 0
M  V30 946 O 105.953 1.79904 -0.224535 0
M  V30 947 C 106.001 0.662 -3.54471 0
M  V30 948 O 105.105 1.76265 -3.72833 0
M  V30 949 H 104.446 0.0448722 -0.662482 0
M  V30 950 H 106.976 -0.491048 -1.9862 0
M  V30 951 H 106.986 0.940594 -3.9701 0
M  V30 952 H 105.661 -0.196937 -4.15433 0
M  V30 953 H 104.238 1.48173 -3.42198 0
M  V30 954 N 106.423 1.57458 -0.0668435 0
M  V30 955 C 107.67 1.93301 0.603406 0
M  V30 956 C 107.998 0.946486 1.69917 0
M  V30 957 O 107.253 -0.0387021 1.95662 0
M  V30 958 C 107.552 3.35784 1.22409 0
M  V30 959 C 107.218 4.50179 0.254955 0
M  V30 960 C 105.88 4.81199 -0.0116746 0
M  V30 961 C 108.232 5.19598 -0.408338 0
M  V30 962 C 105.56 5.78978 -0.94877 0
M  V30 963 C 107.912 6.18381 -1.33372 0
M  V30 964 C 106.576 6.47821 -1.60887 0
M  V30 965 H 105.846 0.707338 0.220802 0
M  V30 966 H 108.493 1.91012 -0.136665 0
M  V30 967 H 106.798 3.34515 2.03978 0
M  V30 968 H 108.495 3.60804 1.74989 0
M  V30 969 H 105.085 4.25983 0.472954 0
M  V30 970 H 109.269 4.95832 -0.215456 0
M  V30 971 H 104.525 6.00115 -1.16925 0
M  V30 972 H 108.699 6.71277 -1.85367 0
M  V30 973 H 106.326 7.23399 -2.33661 0
M  V30 974 N 107.901 -0.206675 1.56239 0
M  V30 975 C 108.811 -1.27686 1.96808 0
M  V30 976 C 109.827 -1.50455 0.874035 0
M  V30 977 O 111.003 -1.63295 1.17884 0
M  V30 978 C 108.068 -2.60358 2.28942 0
M  V30 979 C 107.129 -2.45762 3.51994 0
M  V30 980 C 106.362 -3.72108 3.82585 0
M  V30 981 O 106.585 -4.75776 3.14631 0
M  V30 982 O 105.519 -3.6833 4.76043 0
M  V30 983 H 109.345 -0.962593 2.88041 0
M  V30 984 H 106.93 -0.410746 1.43643 0
M  V30 985 H 108.812 -3.38687 2.50737 0
M  V30 986 H 107.487 -2.91435 1.4088 0
M  V30 987 H 106.394 -1.65584 3.35459 0
M  V30 988 H 107.727 -2.19621 4.40486 0
M  V30 989 N 109.379 -1.50304 -0.473955 0
M  V30 990 C 110.627 -1.60832 -1.22382 0
M  V30 991 C 110.948 -0.30939 -1.9253 0
M  V30 992 O 110.218 0.67296 -1.83978 0
M  V30 993 H 108.798 -0.592652 -0.454723 0
M  V30 994 H 111.46 -1.87068 -0.546968 0
M  V30 995 H 110.556 -2.41803 -1.97327 0
M  V30 996 N 110.857 0.726932 -1.39834 0
M  V30 997 C 112.104 1.48664 -1.37496 0
M  V30 998 C 112.432 1.94482 0.0264678 0
M  V30 999 O 111.687 1.67692 1.00886 0
M  V30 1000 C 111.986 2.73495 -2.30077 0
M  V30 1001 C 111.652 2.46502 -3.77555 0
M  V30 1002 C 110.314 2.3885 -4.17737 0
M  V30 1003 C 112.666 2.23604 -4.70798 0
M  V30 1004 C 109.994 2.06352 -5.49214 0
M  V30 1005 C 112.346 1.92622 -6.02561 0
M  V30 1006 C 111.01 1.83444 -6.41798 0
M  V30 1007 H 110.28 0.544001 -0.503135 0
M  V30 1008 H 112.927 0.833657 -1.72402 0
M  V30 1009 H 111.232 3.43575 -1.88317 0
M  V30 1010 H 112.929 3.31549 -2.25558 0
M  V30 1011 H 109.519 2.5334 -3.45712 0
M  V30 1012 H 113.703 2.28479 -4.40581 0
M  V30 1013 H 108.959 1.97776 -5.78528 0
M  V30 1014 H 113.133 1.73914 -6.74334 0
M  V30 1015 H 110.76 1.58029 -7.43593 0
M  V30 1016 N 112.336 1.25143 0.95797 0
M  V30 1017 C 113.266 1.07711 2.07173 0
M  V30 1018 C 114.247 -0.0128462 1.70095 0
M  V30 1019 O 115.432 0.156061 1.93572 0
M  V30 1020 C 112.562 0.691503 3.40346 0
M  V30 1021 C 111.516 1.73132 3.9142 0
M  V30 1022 C 110.842 1.20049 5.21049 0
M  V30 1023 C 112.142 3.1294 4.1817 0
M  V30 1024 H 113.836 2.00873 2.22014 0
M  V30 1025 H 111.382 0.967191 1.06684 0
M  V30 1026 H 113.335 0.556505 4.17709 0
M  V30 1027 H 112.059 -0.275819 3.25433 0
M  V30 1028 H 110.718 1.8547 3.16222 0
M  V30 1029 H 110.366 0.223499 5.02503 0
M  V30 1030 H 110.066 1.89545 5.56189 0
M  V30 1031 H 111.59 1.07782 6.01012 0
M  V30 1032 H 113.004 3.03775 4.86203 0
M  V30 1033 H 111.401 3.79875 4.64559 0
M  V30 1034 H 112.471 3.6025 3.24573 0
M  V30 1035 N 113.814 -1.1601 1.06675 0
M  V30 1036 C 115.061 -1.86633 0.785781 0
M  V30 1037 C 115.389 -1.81929 -0.687896 0
M  V30 1038 O 114.644 -1.23253 -1.52011 0
M  V30 1039 C 114.943 -3.35547 1.23057 0
M  V30 1040 C 114.609 -3.60448 2.70902 0
M  V30 1041 C 113.271 -3.66954 3.11285 0
M  V30 1042 C 115.623 -3.7071 3.66365 0
M  V30 1043 C 112.951 -3.81225 4.45965 0
M  V30 1044 C 115.303 -3.86503 5.00797 0
M  V30 1045 C 113.967 -3.91252 5.40813 0
M  V30 1046 H 113.237 -0.682937 0.287538 0
M  V30 1047 H 115.884 -1.37146 1.33654 0
M  V30 1048 H 114.189 -3.87193 0.59907 0
M  V30 1049 H 115.886 -3.88583 0.990163 0
M  V30 1050 H 112.476 -3.56021 2.38636 0
M  V30 1051 H 116.66 -3.64991 3.36296 0
M  V30 1052 H 111.916 -3.83155 4.76447 0
M  V30 1053 H 116.09 -3.93385 5.74649 0
M  V30 1054 H 113.717 -4.02062 6.45174 0
M  V30 1055 N 115.292 -0.849877 -1.32721 0
M  V30 1056 C 116.569 -0.372405 -1.92022 0
M  V30 1057 C 116.949 1.1435 -1.77447 0
M  V30 1058 O 116.297 1.96296 -1.16962 0
M  V30 1059 C 116.507 -0.831482 -3.3895 0
M  V30 1060 C 117.855 -0.845882 -4.16089 0
M  V30 1061 O 118.879 -0.775806 -3.47649 0
M  V30 1062 O 117.738 -0.943753 -5.38289 0
M  V30 1063 H 114.832 -0.107667 -0.819961 0
M  V30 1064 H 117.378 -0.93646 -1.41522 0
M  V30 1065 H 116.15 -1.87448 -3.4348 0
M  V30 1066 H 115.773 -0.24461 -3.96847 0
M  V30 1067 N 116.77 1.45427 -0.607355 0
M  V30 1068 C 118.018 2.01841 -0.102253 0
M  V30 1069 C 118.339 1.47832 1.27164 0
M  V30 1070 O 117.609 0.672497 1.83995 0
M  V30 1071 H 116.189 0.746188 -0.0348101 0
M  V30 1072 H 118.851 1.78229 -0.7887 0
M  V30 1073 H 117.947 3.12057 -0.0518585 0
M  V30 1074 N 118.248 0.346503 1.53744 0
M  V30 1075 C 119.476 -0.25041 2.05379 0
M  V30 1076 C 119.891 -1.43979 1.22129 0
M  V30 1077 O 119.248 -1.80677 0.257321 0
M  V30 1078 C 119.299 -0.662575 3.55376 0
M  V30 1079 O 119.02 0.479515 4.35468 0
M  V30 1080 C 120.521 -1.31989 4.23195 0
M  V30 1081 H 117.741 -0.0478198 0.669294 0
M  V30 1082 H 120.285 0.499346 1.9831 0
M  V30 1083 H 118.44 -1.36227 3.62658 0
M  V30 1084 H 118.854 0.15037 5.24284 0
M  V30 1085 H 120.328 -1.55902 5.29527 0
M  V30 1086 H 120.805 -2.27436 3.75725 0
M  V30 1087 H 121.411 -0.662154 4.20114 0
M  V30 1088 N 119.726 -1.57421 0.075193 0
M  V30 1089 C 121.142 -1.57099 -0.281444 0
M  V30 1090 C 121.342 -1.08486 -1.69803 0
M  V30 1091 O 120.398 -0.752279 -2.41033 0
M  V30 1092 C 121.711 -3.00571 -0.0880041 0
M  V30 1093 C 123.259 -3.12605 -0.157281 0
M  V30 1094 C 123.734 -4.57999 0.0079207 0
M  V30 1095 N 125.225 -4.63176 -0.0475725 0
M  V30 1096 C 125.96 -5.73373 0.0557876 0
M  V30 1097 N 125.456 -6.92473 0.21286 0
M  V30 1098 N 127.249 -5.621 -0.00152098 0
M  V30 1099 H 119.4 -1.87335 1.00098 0
M  V30 1100 H 121.663 -0.86377 0.390646 0
M  V30 1101 H 121.369 -3.40262 0.889629 0
M  V30 1102 H 121.243 -3.67754 -0.838875 0
M  V30 1103 H 123.63 -2.72798 -1.1254 0
M  V30 1104 H 123.711 -2.48053 0.62475 0
M  V30 1105 H 123.355 -4.98496 0.972824 0
M  V30 1106 H 123.285 -5.20586 -0.793556 0
M  V30 1107 H 125.776 -3.7753 -0.167244 0
M  V30 1108 H 126.089 -7.72279 0.283781 0
M  V30 1109 H 124.434 -6.94556 0.248267 0
M  V30 1110 H 127.625 -4.67938 -0.122958 0
M  V30 1111 H 127.798 -6.47948 0.0824844 0
M  V30 1112 N 121.204 0.198386 -1.56346 0
M  V30 1113 C 122.45 0.916115 -1.81601 0
M  V30 1114 C 122.805 1.81025 -0.651744 0
M  V30 1115 O 122.098 1.88316 0.353229 0
M  V30 1116 C 122.292 1.77031 -3.10475 0
M  V30 1117 C 122.121 0.960365 -4.39326 0
M  V30 1118 C 120.891 0.646093 -5.01152 0
M  V30 1119 C 123.089 0.314628 -5.13337 0
M  V30 1120 N 121.071 -0.182828 -6.13628 0
M  V30 1121 C 122.442 -0.37664 -6.18855 0
M  V30 1122 C 124.497 0.230019 -4.97368 0
M  V30 1123 C 123.2 -1.14445 -7.10137 0
M  V30 1124 C 125.226 -0.524389 -5.89071 0
M  V30 1125 C 124.588 -1.20412 -6.94032 0
M  V30 1126 H 120.687 0.314732 -0.715868 0
M  V30 1127 H 123.271 0.185102 -1.93818 0
M  V30 1128 H 121.442 2.47295 -2.99499 0
M  V30 1129 H 123.174 2.42727 -3.2383 0
M  V30 1130 H 119.929 0.969724 -4.63566 0
M  V30 1131 H 120.353 -0.586802 -6.74452 0
M  V30 1132 H 124.995 0.741184 -4.16253 0
M  V30 1133 H 122.713 -1.66706 -7.90718 0
M  V30 1134 H 126.299 -0.591167 -5.78789 0
M  V30 1135 H 125.179 -1.77853 -7.63766 0
M  V30 1136 N 122.682 1.50554 0.465978 0
M  V30 1137 C 123.93 1.61479 1.21528 0
M  V30 1138 C 124.251 0.319596 1.92363 0
M  V30 1139 O 123.521 -0.663194 1.84333 0
M  V30 1140 H 122.101 0.595055 0.451573 0
M  V30 1141 H 124.763 1.87355 0.53704 0
M  V30 1142 H 123.859 2.42846 1.96042 0
M  V30 1143 N 124.16 -0.719506 1.40217 0
M  V30 1144 C 125.388 -1.50864 1.41589 0
M  V30 1145 C 125.803 -1.88794 0.0145275 0
M  V30 1146 O 125.16 -1.55174 -0.960594 0
M  V30 1147 C 125.211 -2.78646 2.30302 0
M  V30 1148 O 124.932 -2.42321 3.64983 0
M  V30 1149 C 126.433 -3.72569 2.40224 0
M  V30 1150 H 123.653 -0.465709 0.48307 0
M  V30 1151 H 126.197 -0.88785 1.84221 0
M  V30 1152 H 124.352 -3.37019 1.91042 0
M  V30 1153 H 124.766 -3.24514 4.12057 0
M  V30 1154 H 126.24 -4.5908 3.06512 0
M  V30 1155 H 126.717 -4.15403 1.42608 0
M  V30 1156 H 127.323 -3.20109 2.80019 0
M  V30 1157 N 125.638 -1.25649 -0.95132 0
M  V30 1158 C 126.884 -1.10757 -1.69884 0
M  V30 1159 C 127.217 0.350061 -1.91019 0
M  V30 1160 O 126.492 1.25783 -1.48354 0
M  V30 1161 C 126.775 -1.86606 -3.07978 0
M  V30 1162 C 126.628 -3.40217 -2.94232 0
M  V30 1163 C 127.947 -1.65182 -4.07925 0
M  V30 1164 H 125.066 -0.40374 -0.616574 0
M  V30 1165 H 127.708 -1.54521 -1.10558 0
M  V30 1166 H 125.858 -1.49409 -3.58621 0
M  V30 1167 H 127.53 -3.87108 -2.50889 0
M  V30 1168 H 125.773 -3.67759 -2.30078 0
M  V30 1169 H 126.444 -3.88505 -3.92133 0
M  V30 1170 H 128.92 -1.9757 -3.66204 0
M  V30 1171 H 127.796 -2.20683 -5.02583 0
M  V30 1172 H 128.057 -0.593933 -4.38092 0
M  V30 1173 N 127.117 1.15442 -1.07289 0
M  V30 1174 C 128.394 1.82306 -0.708792 0
M  V30 1175 C 128.774 1.94991 0.808807 0
M  V30 1176 O 128.122 1.50085 1.72298 0
M  V30 1177 C 128.332 3.18695 -1.42247 0
M  V30 1178 C 129.68 3.94341 -1.57417 0
M  V30 1179 O 130.704 3.28247 -1.38319 0
M  V30 1180 O 129.563 5.12839 -1.88834 0
M  V30 1181 H 126.657 0.787628 -0.252132 0
M  V30 1182 H 129.203 1.22559 -1.17377 0
M  V30 1183 H 127.975 3.04557 -2.45684 0
M  V30 1184 H 127.598 3.86128 -0.948223 0
M  V30 1185 N 128.595 0.856903 1.32268 0
M  V30 1186 C 129.835 0.467705 1.98977 0
M  V30 1187 C 130.199 -0.959231 1.66321 0
M  V30 1188 O 131.4 -1.4531 2.26138 0
M  V30 1189 C 129.671 0.70256 3.50427 0
M  V30 1190 S 131.23 0.411269 4.36868 0
M  V30 1191 H 128.048 0.175121 0.689096 0
M  V30 1192 H 130.65 1.1101 1.60925 0
M  V30 1193 H 129.354 1.74012 3.71683 0
M  V30 1194 H 128.885 0.0466707 3.93372 0
M  V30 1195 H 130.9 -0.761799 4.90317 0
M  V30 1196 N 130.073 -1.45103 0.615059 0
M  V30 1197 C 131.301 -2.06553 0.11977 0
M  V30 1198 C 131.716 -1.45842 -1.19898 0
M  V30 1199 O 131.073 -0.575325 -1.73194 0
M  V30 1200 C 131.124 -3.61495 -0.018364 0
M  V30 1201 O 130.845 -4.19942 1.24822 0
M  V30 1202 C 132.346 -4.39947 -0.544237 0
M  V30 1203 H 129.566 -0.667096 0.0722739 0
M  V30 1204 H 132.11 -1.8623 0.84491 0
M  V30 1205 H 130.265 -3.81135 -0.693865 0
M  V30 1206 H 130.679 -5.13204 1.0827 0
M  V30 1207 H 132.153 -5.48838 -0.589953 0
M  V30 1208 H 132.63 -4.10255 -1.56805 0
M  V30 1209 H 133.236 -4.25188 0.0974703 0
M  V30 1210 N 131.551 -0.354651 -1.53558 0
M  V30 1211 C 132.779 0.239515 -2.05509 0
M  V30 1212 C 133.194 1.4333 -1.2289 0
M  V30 1213 O 132.551 1.80538 -0.266899 0
M  V30 1214 C 132.602 0.643719 -3.55723 0
M  V30 1215 O 132.323 -0.502602 -4.35207 0
M  V30 1216 C 133.824 1.29743 -4.23889 0
M  V30 1217 H 131.044 0.0442697 -0.669538 0
M  V30 1218 H 133.588 -0.509856 -1.98042 0
M  V30 1219 H 131.743 1.34302 -3.63376 0
M  V30 1220 H 132.157 -0.178172 -5.24197 0
M  V30 1221 H 133.631 1.53091 -5.30346 0
M  V30 1222 H 134.108 2.25441 -3.76926 0
M  V30 1223 H 134.714 0.639865 -4.20459 0
M  V30 1224 N 133.029 1.57378 -0.0835403 0
M  V30 1225 C 133.992 2.12252 0.864959 0
M  V30 1226 C 134.992 1.04916 1.21858 0
M  V30 1227 O 136.182 1.30853 1.14991 0
M  V30 1228 C 133.314 2.63358 2.16461 0
M  V30 1229 H 134.507 2.97371 0.388676 0
M  V30 1230 H 132.06 1.55423 0.165317 0
M  V30 1231 H 132.795 1.81727 2.686 0
M  V30 1232 H 132.58 3.41826 1.92087 0
M  V30 1233 H 134.07 3.05847 2.84337 0
M  V30 1234 N 134.507 -0.190092 1.56449 0
M  V30 1235 C 135.47 -1.21925 1.9408 0
M  V30 1236 C 136.47 -1.38176 0.822431 0
M  V30 1237 O 137.66 -1.35903 1.08977 0
M  V30 1238 C 134.792 -2.58773 2.21922 0
M  V30 1239 H 135.985 -0.897464 2.86157 0
M  V30 1240 H 133.538 -0.43181 1.50217 0
M  V30 1241 H 134.273 -2.95998 1.32499 0
M  V30 1242 H 134.058 -2.48348 3.03424 0
M  V30 1243 H 135.548 -3.32978 2.52022 0
M  V30 1244 N 135.985 -1.50799 -0.457987 0
M  V30 1245 C 137.225 -1.64088 -1.21879 0
M  V30 1246 C 137.589 -0.339848 -1.88968 0
M  V30 1247 O 138.79 -0.348301 -2.66534 0
M  V30 1248 C 137.061 -2.79726 -2.2246 0
M  V30 1249 S 138.62 -3.13225 -3.07303 0
M  V30 1250 H 135.438 -0.578314 -0.41361 0
M  V30 1251 H 138.04 -1.88632 -0.513645 0
M  V30 1252 H 136.744 -3.72722 -1.71775 0
M  V30 1253 H 136.275 -2.57308 -2.97584 0
M  V30 1254 H 138.29 -2.58062 -4.23814 0
M  V30 1255 N 137.463 0.71206 -1.40597 0
M  V30 1256 C 138.395 1.83704 -1.37061 0
M  V30 1257 C 139.408 1.60453 -0.275426 0
M  V30 1258 O 140.597 1.70262 -0.53602 0
M  V30 1259 C 137.697 3.20172 -1.11099 0
M  V30 1260 C 136.87 3.7059 -2.3234 0
M  V30 1261 C 135.929 4.85681 -2.02485 0
M  V30 1262 O 134.955 4.9815 -2.75382 0
M  V30 1263 N 136.157 5.71735 -1.00497 0
M  V30 1264 H 138.922 1.87235 -2.34016 0
M  V30 1265 H 136.483 0.893739 -1.34996 0
M  V30 1266 H 138.475 3.94768 -0.891064 0
M  V30 1267 H 137.045 3.11767 -0.227989 0
M  V30 1268 H 136.265 2.87085 -2.7014 0
M  V30 1269 H 137.553 4.01011 -3.13157 0
M  V30 1270 H 136.951 5.64275 -0.401298 0
M  V30 1271 H 135.508 6.463 -0.844942 0
M  V30 1272 N 138.941 1.26152 0.944643 0
M  V30 1273 C 140.187 1.11657 1.69294 0
M  V30 1274 C 140.52 -0.339926 1.91202 0
M  V30 1275 O 139.795 -1.24994 1.49019 0
M  V30 1276 C 140.078 1.88236 3.06984 0
M  V30 1277 C 139.931 3.41772 2.92424 0
M  V30 1278 C 141.25 1.67343 4.07043 0
M  V30 1279 H 138.369 0.407004 0.614424 0
M  V30 1280 H 141.011 1.55106 1.09737 0
M  V30 1281 H 139.161 1.51308 3.57824 0
M  V30 1282 H 140.833 3.88433 2.48832 0
M  V30 1283 H 139.076 3.68974 2.28124 0
M  V30 1284 H 139.747 3.90579 3.90067 0
M  V30 1285 H 142.223 1.99509 3.65151 0
M  V30 1286 H 141.099 2.23346 5.01406 0
M  V30 1287 H 141.36 0.617158 4.37771 0
M  V30 1288 N 140.419 -1.14872 1.07899 0
M  V30 1289 C 141.667 -1.85422 0.803941 0
M  V30 1290 C 141.988 -1.83051 -0.67211 0
M  V30 1291 O 141.258 -1.27532 -1.48703 0
M  V30 1292 H 139.838 -0.686537 0.294408 0
M  V30 1293 H 142.5 -1.39226 1.3639 0
M  V30 1294 H 141.596 -2.90399 1.14346 0
M  V30 1295 N 141.898 -0.863906 -1.31812 0
M  V30 1296 C 142.828 -0.330843 -2.31144 0
M  V30 1297 C 143.809 0.575005 -1.60087 0
M  V30 1298 O 144.994 0.493304 -1.8783 0
M  V30 1299 C 142.124 0.47374 -3.44054 0
M  V30 1300 C 141.078 -0.338481 -4.26659 0
M  V30 1301 C 140.404 0.591412 -5.31419 0
M  V30 1302 C 141.704 -1.56926 -4.98168 0
M  V30 1303 H 143.398 -1.16086 -2.75979 0
M  V30 1304 H 140.944 -0.559657 -1.32679 0
M  V30 1305 H 142.897 0.857143 -4.12591 0
M  V30 1306 H 141.621 1.33721 -2.9797 0
M  V30 1307 H 140.28 -0.703754 -3.59782 0
M  V30 1308 H 139.928 1.45199 -4.81587 0
M  V30 1309 H 139.628 0.0519022 -5.87577 0
M  V30 1310 H 141.152 0.97179 -6.02817 0
M  V30 1311 H 142.566 -1.25764 -5.59336 0
M  V30 1312 H 140.963 -2.04739 -5.64094 0
M  V30 1313 H 142.033 -2.32544 -4.25501 0
M  V30 1314 N 143.376 1.44774 -0.622745 0
M  V30 1315 C 144.601 2.06999 -0.128968 0
M  V30 1316 C 145.026 1.4617 1.1839 0
M  V30 1317 O 144.384 0.560007 1.72434 0
M  V30 1318 C 144.432 3.60595 -0.0188351 0
M  V30 1319 O 143.536 3.99398 1.02739 0
M  V30 1320 H 142.877 0.659047 -0.0809544 0
M  V30 1321 H 145.407 1.85784 -0.85705 0
M  V30 1322 H 145.417 4.07627 0.174476 0
M  V30 1323 H 144.092 4.04252 -0.977384 0
M  V30 1324 H 142.669 3.64011 0.809326 0
M  V30 1325 N 144.854 0.36279 1.53368 0
M  V30 1326 C 146.131 -0.284021 1.93527 0
M  V30 1327 C 146.511 -1.66628 1.29608 0
M  V30 1328 O 145.859 -2.23942 0.45413 0
M  V30 1329 C 146.069 -0.337028 3.47369 0
M  V30 1330 C 147.417 -0.578708 4.20638 0
M  V30 1331 O 148.441 -0.418352 3.53735 0
M  V30 1332 O 147.3 -0.89074 5.39192 0
M  V30 1333 H 144.394 -0.169743 0.809393 0
M  V30 1334 H 146.94 0.41537 1.64538 0
M  V30 1335 H 145.712 0.632217 3.86159 0
M  V30 1336 H 145.335 -1.08243 3.82582 0
M  V30 1337 N 146.332 -1.57332 0.0918853 0
M  V30 1338 C 147.295 -2.12708 -0.85369 0
M  V30 1339 C 148.295 -1.05561 -1.213 0
M  V30 1340 O 149.485 -1.31461 -1.14296 0
M  V30 1341 C 146.617 -2.64503 -2.15061 0
M  V30 1342 H 147.81 -2.97573 -0.3729 0
M  V30 1343 H 145.363 -1.55509 -0.157072 0
M  V30 1344 H 146.098 -1.83149 -2.67632 0
M  V30 1345 H 145.883 -3.4284 -1.90272 0
M  V30 1346 H 147.373 -3.07351 -2.82711 0
M  V30 1347 N 147.81 0.181792 -1.56548 0
M  V30 1348 C 148.773 1.20894 -1.94724 0
M  V30 1349 C 149.773 1.37738 -0.829747 0
M  V30 1350 O 150.963 1.35323 -1.09697 0
M  V30 1351 C 148.095 2.57593 -2.23291 0
M  V30 1352 H 149.288 0.882275 -2.86629 0
M  V30 1353 H 146.841 0.423838 -1.50444 0
M  V30 1354 H 147.576 2.95291 -1.34067 0
M  V30 1355 H 147.361 2.46735 -3.04736 0
M  V30 1356 H 148.851 3.31637 -2.53785 0
M  V30 1357 N 149.288 1.51039 0.449983 0
M  V30 1358 C 150.536 1.62759 1.19808 0
M  V30 1359 C 150.857 0.339981 1.92013 0
M  V30 1360 O 150.127 -0.643606 1.85026 0
M  V30 1361 H 148.707 0.599811 0.445237 0
M  V30 1362 H 151.369 1.87914 0.517138 0
M  V30 1363 H 150.465 2.44911 1.93455 0
M  V30 1364 N 150.766 -0.704594 1.40972 0
M  V30 1365 C 151.714 -1.83994 1.42299 0
M  V30 1366 C 152.708 -1.66684 0.302111 0
M  V30 1367 O 153.914 -1.73655 0.473697 0
M  V30 1368 H 150.289 -0.606171 0.44504 0
M  V30 1369 H 152.26 -1.79992 2.38003 0
M  V30 1370 C 151.009 -3.21946 1.31323 0
M  V30 1371 H 150.332 -3.35878 2.16855 0
M  V30 1372 H 151.772 -4.01491 1.36311 0
M  V30 1373 C 150.231 -3.36891 0.0245977 0
M  V30 1374 O 150.761 -3.90687 -0.934153 0
M  V30 1375 N 148.967 -2.90559 -0.0485243 0
M  V30 1376 H 148.514 -2.46968 0.732419 0
M  V30 1377 H 148.472 -3.00937 -0.910171 0
M  V30 1378 N 152.244 -1.26651 -0.937939 0
M  V30 1379 C 153.492 -1.12165 -1.68118 0
M  V30 1380 C 153.813 0.334983 -1.92101 0
M  V30 1381 O 153.083 1.23583 -1.52 0
M  V30 1382 H 151.663 -0.412093 -0.623048 0
M  V30 1383 H 154.325 -1.59027 -1.12678 0
M  V30 1384 H 153.421 -1.64289 -2.6536 0
M  V30 1385 N 153.722 1.14298 -1.08507 0
M  V30 1386 C 155.133 1.66926 -0.836227 0
M  V30 1387 C 155.484 1.85576 0.63686 0
M  V30 1388 O 154.609 1.56767 1.49175 0
M  V30 1389 C 155.204 3.03219 -1.51142 0
M  V30 1390 C 153.763 3.52876 -1.30979 0
M  V30 1391 C 152.91 2.2833 -1.57356 0
M  V30 1392 H 155.861 0.983491 -1.24552 0
M  V30 1393 H 155.882 3.68726 -0.939211 0
M  V30 1394 H 155.394 2.89612 -2.58353 0
M  V30 1395 H 153.495 3.71703 -0.258429 0
M  V30 1396 H 153.608 4.33586 -2.03814 0
M  V30 1397 H 151.972 2.34454 -0.995164 0
M  V30 1398 H 152.755 2.17298 -2.65775 0
M  V30 1399 N 155.201 0.870884 1.31352 0
M  V30 1400 C 156.111 0.330783 2.32256 0
M  V30 1401 C 157.127 -0.559767 1.6475 0
M  V30 1402 O 158.303 -0.456263 1.96164 0
M  V30 1403 C 155.368 -0.458137 3.4366 0
M  V30 1404 C 154.429 0.460482 4.26823 0
M  V30 1405 C 153.662 -0.290881 5.32907 0
M  V30 1406 O 153.885 -1.51885 5.49806 0
M  V30 1407 O 152.819 0.351732 6.00871 0
M  V30 1408 H 156.645 1.16718 2.80376 0
M  V30 1409 H 154.23 0.634285 1.35267 0
M  V30 1410 H 156.112 -0.905343 4.1156 0
M  V30 1411 H 154.787 -1.27106 2.97701 0
M  V30 1412 H 153.694 0.956207 3.61673 0
M  V30 1413 H 155.027 1.23903 4.7635 0
M  V30 1414 N 156.679 -1.44442 0.630414 0
M  V30 1415 C 157.927 -2.01653 0.134351 0
M  V30 1416 C 158.248 -1.49836 -1.24796 0
M  V30 1417 O 157.518 -0.701684 -1.82902 0
M  V30 1418 H 156.098 -0.74554 0.0466769 0
M  V30 1419 H 158.76 -1.76952 0.816955 0
M  V30 1420 H 157.856 -3.11935 0.101498 0
M  V30 1421 N 158.157 -0.370918 -1.53173 0
M  V30 1422 C 159.403 0.217423 -2.01631 0
M  V30 1423 C 159.736 1.47983 -1.25756 0
M  V30 1424 O 159.011 1.91274 -0.352764 0
M  V30 1425 C 159.294 0.503982 -3.56556 0
M  V30 1426 C 159.147 -0.77243 -4.43118 0
M  V30 1427 C 160.466 1.30234 -4.20389 0
M  V30 1428 H 157.585 0.0775486 -0.732909 0
M  V30 1429 H 160.227 -0.496863 -1.83388 0
M  V30 1430 H 158.377 1.11248 -3.72231 0
M  V30 1431 H 160.049 -1.4098 -4.39229 0
M  V30 1432 H 158.292 -1.39167 -4.10871 0
M  V30 1433 H 158.963 -0.526815 -5.4948 0
M  V30 1434 H 161.439 0.787546 -4.08579 0
M  V30 1435 H 160.315 1.47158 -5.28806 0
M  V30 1436 H 160.576 2.31237 -3.76805 0
M  V30 1437 N 159.635 1.57281 -0.100228 0
M  V30 1438 C 160.598 2.13158 0.842398 0
M  V30 1439 C 161.598 1.06202 1.20738 0
M  V30 1440 O 162.788 1.32066 1.13597 0
M  V30 1441 C 159.92 2.65639 2.13655 0
M  V30 1442 H 161.113 2.97766 0.357114 0
M  V30 1443 H 158.666 1.5559 0.148823 0
M  V30 1444 H 159.401 1.84566 2.66657 0
M  V30 1445 H 159.186 3.43844 1.88451 0
M  V30 1446 H 160.676 3.08846 2.81077 0
M  V30 1447 N 161.113 -0.173488 1.56642 0
M  V30 1448 C 162.362 -0.888758 1.81063 0
M  V30 1449 C 162.675 -1.83506 0.67712 0
M  V30 1450 O 163.881 -2.59254 0.806206 0
M  V30 1451 C 162.337 -1.63091 3.20826 0
M  V30 1452 C 161.945 -0.728357 4.4204 0
M  V30 1453 C 163.689 -2.33454 3.54541 0
M  V30 1454 C 161.596 -1.47062 5.72823 0
M  V30 1455 H 160.526 -0.335618 0.675186 0
M  V30 1456 H 163.177 -0.141712 1.82952 0
M  V30 1457 H 161.559 -2.42263 3.13248 0
M  V30 1458 H 162.733 0.0262449 4.60793 0
M  V30 1459 H 161.048 -0.134492 4.16183 0
M  V30 1460 H 163.645 -2.89578 4.49498 0
M  V30 1461 H 163.988 -3.08687 2.79317 0
M  V30 1462 H 164.521 -1.61227 3.63663 0
M  V30 1463 H 161.26 -0.760658 6.51072 0
M  V30 1464 H 160.78 -2.1986 5.58052 0
M  V30 1465 H 162.459 -2.01868 6.14702 0
M  V30 1466 N 162.591 -1.51276 -0.441967 0
M  V30 1467 C 163.816 -1.67799 -1.21895 0
M  V30 1468 C 164.241 -0.372864 -1.84367 0
M  V30 1469 O 163.599 0.666501 -1.68604 0
M  V30 1470 C 163.647 -2.79199 -2.28211 0
M  V30 1471 O 162.751 -2.42479 -3.33583 0
M  V30 1472 H 162.092 -0.559649 -0.357336 0
M  V30 1473 H 164.622 -1.97815 -0.522522 0
M  V30 1474 H 164.632 -3.03146 -2.73069 0
M  V30 1475 H 163.307 -3.73906 -1.82118 0
M  V30 1476 H 161.884 -2.29087 -2.94234 0
M  V30 1477 N 164.069 0.697108 -1.41344 0
M  V30 1478 C 165.316 1.45714 -1.40619 0
M  V30 1479 C 165.644 1.94494 -0.0147907 0
M  V30 1480 O 164.899 1.69794 0.973066 0
M  V30 1481 C 165.198 2.68553 -2.35826 0
M  V30 1482 C 164.864 2.38438 -3.82698 0
M  V30 1483 C 163.526 2.29936 -4.22709 0
M  V30 1484 C 165.878 2.13567 -4.75435 0
M  V30 1485 C 163.206 1.94656 -5.53467 0
M  V30 1486 C 165.558 1.79797 -6.06511 0
M  V30 1487 C 164.222 1.69789 -6.45545 0
M  V30 1488 H 163.492 0.533206 -0.51456 0
M  V30 1489 H 166.139 0.796901 -1.74131 0
M  V30 1490 H 164.444 3.39503 -1.95563 0
M  V30 1491 H 166.141 3.2669 -2.32539 0
M  V30 1492 H 162.731 2.4595 -3.51008 0
M  V30 1493 H 166.915 2.19082 -4.45328 0
M  V30 1494 H 162.171 1.8546 -5.82593 0
M  V30 1495 H 166.345 1.59572 -6.77872 0
M  V30 1496 H 163.972 1.4222 -7.46778 0
M  V30 1497 N 165.547 1.27147 0.931209 0
M  V30 1498 C 166.495 1.09398 2.05268 0
M  V30 1499 C 167.489 0.0180591 1.6939 0
M  V30 1500 O 168.695 0.17551 1.79142 0
M  V30 1501 H 165.07 0.336986 0.672268 0
M  V30 1502 H 167.041 2.04416 2.17386 0
M  V30 1503 C 165.79 0.75424 3.39421 0
M  V30 1504 H 165.113 1.57404 3.67511 0
M  V30 1505 H 166.553 0.669903 4.18674 0
M  V30 1506 C 165.012 -0.541197 3.32525 0
M  V30 1507 O 165.542 -1.57664 3.69466 0
M  V30 1508 N 163.748 -0.535517 2.85623 0
M  V30 1509 H 163.295 0.307511 2.55758 0
M  V30 1510 H 163.253 -1.40236 2.81392 0
M  V30 1511 O 167.064 -1.06532 1.21381 0
M  V30 1512 H 167.755 -1.67472 0.973291 0
M  V30 END ATOM
M  V30 BEGIN BOND
M  V30 END BOND
M  V30 END CTAB
M  END
$$$$
