drugbank_target|P0A333 pH-gated potassium channel KcsA (DB07416)
 OpenBabel12092120423D

  0  0  0     0  0            999 V3000
M  V30 BEGIN CTAB
M  V30 COUNTS 2535 2563 0 0 0
M  V30 BEGIN ATOM
M  V30 1 H -0.908 1.98254 -0.117106 0
M  V30 2 N 0 1.576 0 0
M  V30 3 C 0.933 2.03868 1.02534 0
M  V30 4 C 1.911 0.928543 1.3348 0
M  V30 5 O 3.095 1.19667 1.45644 0
M  V30 6 C 0.222 2.43627 2.35294 0
M  V30 7 C -0.732 3.65373 2.2001 0
M  V30 8 S 0.101 5.13292 1.52614 0
M  V30 9 C 1.257 5.56322 2.86805 0
M  V30 10 H 1.49 2.90518 0.631377 0
M  V30 11 H -0.977 1.52953 0.210867 0
M  V30 12 H 0.981 2.67203 3.11629 0
M  V30 13 H -0.358 1.57376 2.7183 0
M  V30 14 H -1.165 3.90944 3.18086 0
M  V30 15 H -1.563 3.418 1.51819 0
M  V30 16 H 0.729 5.58782 3.83104 0
M  V30 17 H 1.672 6.56266 2.65933 0
M  V30 18 H 2.08 4.83886 2.90714 0
M  V30 19 N 1.4781 -0.272755 1.55222 0
M  V30 20 C 2.8891 -0.84378 1.66545 0
M  V30 21 C 3.2401 -1.87035 0.592641 0
M  V30 22 O 2.3651 -2.14761 -0.265818 0
M  V30 23 C 2.9601 -1.53723 3.01918 0
M  V30 24 C 1.5191 -2.05628 3.15268 0
M  V30 25 C 0.6661 -0.898424 2.62343 0
M  V30 26 H 3.6171 -0.0490998 1.58624 0
M  V30 27 H 3.6381 -2.40421 2.94921 0
M  V30 28 H 3.1501 -0.78983 3.79978 0
M  V30 29 H 1.2511 -2.83329 2.41983 0
M  V30 30 H 1.3641 -2.27142 4.21833 0
M  V30 31 H -0.2719 -1.29186 2.19506 0
M  V30 32 H 0.5111 -0.164528 3.42906 0
M  V30 33 N 2.9562 -1.48159 -0.537278 0
M  V30 34 C 4.3672 -1.49429 -1.11928 0
M  V30 35 C 4.7182 -0.26 -1.9447 0
M  V30 36 O 3.8432 0.633489 -2.0692 0
M  V30 37 C 4.4382 -2.70758 -2.03656 0
M  V30 38 C 2.9972 -2.74923 -2.57088 0
M  V30 39 C 2.1442 -2.42835 -1.3389 0
M  V30 40 H 5.0952 -1.55381 -0.322886 0
M  V30 41 H 5.1162 -2.48861 -2.87834 0
M  V30 42 H 4.6282 -3.60575 -1.43553 0
M  V30 43 H 2.7292 -1.89296 -3.20933 0
M  V30 44 H 2.8422 -3.76157 -2.9672 0
M  V30 45 H 1.2062 -1.93836 -1.65226 0
M  V30 46 H 1.9892 -3.34884 -0.755504 0
M  V30 47 N 4.4343 0.785586 -1.36625 0
M  V30 48 C 5.3673 1.90509 -1.25625 0
M  V30 49 C 6.3453 1.62 -0.139607 0
M  V30 50 O 7.5293 1.8591 -0.31141 0
M  V30 51 C 4.6563 3.25419 -0.939158 0
M  V30 52 C 3.7023 3.72856 -2.07077 0
M  V30 53 S 4.5353 3.88162 -3.68904 0
M  V30 54 C 5.6913 5.25942 -3.39317 0
M  V30 55 H 5.9243 1.99549 -2.20381 0
M  V30 56 H 3.4573 0.945226 -1.22085 0
M  V30 57 H 5.4153 4.03346 -0.763029 0
M  V30 58 H 4.0763 3.14099 -0.00931402 0
M  V30 59 H 3.2693 4.70624 -1.80357 0
M  V30 60 H 2.8713 3.01989 -2.20632 0
M  V30 61 H 5.1633 6.10651 -2.93447 0
M  V30 62 H 6.1063 5.57668 -4.36363 0
M  V30 63 H 6.5143 4.93224 -2.74573 0
M  V30 64 N 5.9124 1.20967 1.01018 0
M  V30 65 C 6.8424 0.988272 2.11555 0
M  V30 66 C 7.8234 -0.0849778 1.69888 0
M  V30 67 O 9.0084 0.0738202 1.9406 0
M  V30 68 C 6.1384 0.546528 3.42973 0
M  V30 69 C 5.0924 1.56375 3.9841 0
M  V30 70 C 4.4184 0.97842 5.25672 0
M  V30 71 C 5.7184 2.94922 4.31066 0
M  V30 72 H 7.4124 1.91276 2.30334 0
M  V30 73 H 4.9584 0.921073 1.1069 0
M  V30 74 H 6.9114 0.378839 4.19694 0
M  V30 75 H 5.6354 -0.413598 3.23971 0
M  V30 76 H 4.2944 1.71891 3.23804 0
M  V30 77 H 3.9424 0.0101688 5.02999 0
M  V30 78 H 3.6424 1.65784 5.63728 0
M  V30 79 H 5.1664 0.821939 6.05043 0
M  V30 80 H 6.5804 2.8288 4.9865 0
M  V30 81 H 4.9774 3.5983 4.80253 0
M  V30 82 H 6.0474 3.4616 3.39561 0
M  V30 83 N 7.3905 -1.2043 1.01659 0
M  V30 84 C 8.6155 -1.94318 0.724942 0
M  V30 85 C 9.0405 -1.74266 -0.708034 0
M  V30 86 O 8.3985 -1.03694 -1.48719 0
M  V30 87 C 8.4465 -3.44486 1.06591 0
M  V30 88 O 7.5505 -4.12017 0.177599 0
M  V30 89 H 6.8915 -0.60708 0.26898 0
M  V30 90 H 9.4215 -1.52861 1.35995 0
M  V30 91 H 9.4315 -3.95106 1.01762 0
M  V30 92 H 8.1065 -3.58404 2.10997 0
M  V30 93 H 6.6835 -3.71821 0.283421 0
M  V30 94 N 8.8686 -0.792821 -1.36206 0
M  V30 95 C 10.1166 -0.366062 -1.98757 0
M  V30 96 C 10.4376 1.0668 -1.63231 0
M  V30 97 O 9.7076 1.73587 -0.907978 0
M  V30 98 H 8.2876 -0.132364 -0.735179 0
M  V30 99 H 10.9496 -1.01562 -1.66347 0
M  V30 100 H 10.0456 -0.460638 -3.08682 0
M  V30 101 N 10.3467 1.47872 -0.545128 0
M  V30 102 C 11.2767 2.32661 0.197793 0
M  V30 103 C 12.2577 1.43041 0.920504 0
M  V30 104 O 13.4427 1.71912 0.90333 0
M  V30 105 C 10.5727 3.24569 1.23582 0
M  V30 106 C 9.5267 4.23333 0.630323 0
M  V30 107 C 8.8527 5.0448 1.77211 0
M  V30 108 C 10.1527 5.20704 -0.407974 0
M  V30 109 H 11.8467 2.95024 -0.510045 0
M  V30 110 H 9.3927 1.4187 -0.246731 0
M  V30 111 H 11.3457 3.8272 1.76362 0
M  V30 112 H 10.0697 2.60236 1.97344 0
M  V30 113 H 8.7287 3.6639 0.123922 0
M  V30 114 H 8.3767 4.36561 2.49847 0
M  V30 115 H 8.0767 5.71339 1.37281 0
M  V30 116 H 9.6007 5.65487 2.3034 0
M  V30 117 H 11.0147 5.7329 0.033305 0
M  V30 118 H 9.4117 5.95699 -0.725486 0
M  V30 119 H 10.4817 4.66917 -1.30828 0
M  V30 120 N 11.8248 0.280983 1.55075 0
M  V30 121 C 12.7548 -0.597469 2.25727 0
M  V30 122 C 13.7358 -1.15417 1.24952 0
M  V30 123 O 14.9208 -1.18722 1.53684 0
M  V30 124 C 12.0508 -1.7789 2.98283 0
M  V30 125 C 11.0048 -1.35347 4.06036 0
M  V30 126 C 10.3308 -2.61846 4.66198 0
M  V30 127 C 11.6308 -0.499354 5.19907 0
M  V30 128 H 13.3248 -0.00824265 2.99399 0
M  V30 129 H 10.8708 -0.0025244 1.44 0
M  V30 130 H 12.8238 -2.39937 3.46422 0
M  V30 131 H 11.5478 -2.39405 2.22155 0
M  V30 132 H 10.2068 -0.756156 3.58717 0
M  V30 133 H 9.8548 -3.21632 3.86732 0
M  V30 134 H 9.5548 -2.3409 5.38958 0
M  V30 135 H 11.0788 -3.24732 5.1709 0
M  V30 136 H 12.4928 -1.02498 5.64063 0
M  V30 137 H 10.8898 -0.316424 5.99265 0
M  V30 138 H 11.9598 0.480459 4.82514 0
M  V30 139 N 13.3029 -1.57598 0.00835791 0
M  V30 140 C 14.2659 -2.07884 -0.965242 0
M  V30 141 C 15.2659 -0.989825 -1.26725 0
M  V30 142 O 16.4559 -1.25218 -1.21104 0
M  V30 143 C 13.5879 -2.52731 -2.28779 0
M  V30 144 H 14.7809 -2.95178 -0.530112 0
M  V30 145 H 12.3339 -1.54458 -0.239283 0
M  V30 146 H 13.0689 -1.68705 -2.76964 0
M  V30 147 H 12.8539 -3.32272 -2.08177 0
M  V30 148 H 14.3439 -2.91933 -2.98605 0
M  V30 149 N 14.781 0.264519 -1.55364 0
M  V30 150 C 16.197 0.61215 -1.47394 0
M  V30 151 C 16.397 1.89134 -0.695018 0
M  V30 152 O 15.453 2.51563 -0.217275 0
M  V30 153 C 16.766 0.731235 -2.91674 0
M  V30 154 C 18.314 0.82473 -3.01939 0
M  V30 155 C 18.789 0.975522 -4.4749 0
M  V30 156 N 20.28 1.04083 -4.51354 0
M  V30 157 C 21.015 1.17646 -5.61201 0
M  V30 158 N 20.511 1.27874 -6.80896 0
M  V30 159 N 22.304 1.20823 -5.48961 0
M  V30 160 H 14.455 -0.575456 -2.04456 0
M  V30 161 H 16.718 -0.196099 -0.927496 0
M  V30 162 H 16.424 -0.138392 -3.51428 0
M  V30 163 H 16.298 1.60883 -3.41169 0
M  V30 164 H 18.685 1.68482 -2.42276 0
M  V30 165 H 18.766 -0.0776479 -2.55682 0
M  V30 166 H 18.41 0.120058 -5.07758 0
M  V30 167 H 18.34 1.89268 -4.91412 0
M  V30 168 H 20.831 0.973846 -3.65136 0
M  V30 169 H 21.144 1.38081 -7.60364 0
M  V30 170 H 19.489 1.24863 -6.83692 0
M  V30 171 H 22.68 1.12469 -4.54388 0
M  V30 172 H 22.853 1.31049 -6.3461 0
M  V30 173 N 16.2591 1.48442 0.529413 0
M  V30 174 C 17.1891 1.65902 1.64313 0
M  V30 175 C 18.1701 0.507897 1.6234 0
M  V30 176 O 19.3551 0.740503 1.79528 0
M  V30 177 C 16.4851 1.69911 3.02898 0
M  V30 178 C 15.4391 2.8453 3.19729 0
M  V30 179 C 14.7651 2.73629 4.59381 0
M  V30 180 C 16.0651 4.25821 3.02447 0
M  V30 181 H 17.7591 2.5914 1.49955 0
M  V30 182 H 15.3051 1.24709 0.719982 0
M  V30 183 H 17.2581 1.80715 3.80684 0
M  V30 184 H 15.9821 0.732524 3.18279 0
M  V30 185 H 14.6411 2.73283 2.44361 0
M  V30 186 H 14.2891 1.74938 4.71599 0
M  V30 187 H 13.9891 3.50541 4.71588 0
M  V30 188 H 15.5131 2.86401 5.39265 0
M  V30 189 H 16.9271 4.37898 3.70024 0
M  V30 190 H 15.3241 5.03735 3.26146 0
M  V30 191 H 16.3941 4.42244 1.98867 0
M  V30 192 N 17.7372 -0.778329 1.37039 0
M  V30 193 C 18.9832 -1.53892 1.32079 0
M  V30 194 C 19.3162 -1.9396 -0.0965386 0
M  V30 195 O 18.5912 -1.63568 -1.05242 0
M  V30 196 C 18.8742 -2.80847 2.25382 0
M  V30 197 C 18.7272 -2.47076 3.75864 0
M  V30 198 C 20.0462 -3.82741 2.1725 0
M  V30 199 H 17.1652 -0.558303 0.48111 0
M  V30 200 H 19.8072 -0.893397 1.67685 0
M  V30 201 H 17.9572 -3.35931 1.95148 0
M  V30 202 H 19.6292 -1.97957 4.16666 0
M  V30 203 H 17.8722 -1.79863 3.94755 0
M  V30 204 H 18.5432 -3.37798 4.36574 0
M  V30 205 H 21.0192 -3.37133 2.43887 0
M  V30 206 H 19.8952 -4.69303 2.84686 0
M  V30 207 H 20.1562 -4.2652 1.16331 0
M  V30 208 N 19.2153 -1.21501 -1.00376 0
M  V30 209 C 20.1623 -0.975387 -2.09177 0
M  V30 210 C 21.1323 0.0990615 -1.65804 0
M  V30 211 O 22.3173 -0.0483147 -1.90739 0
M  V30 212 C 19.4573 -0.547507 -3.40729 0
M  V30 213 C 18.5703 -1.69153 -3.97506 0
M  V30 214 C 17.7053 -1.2127 -5.17172 0
M  V30 215 C 16.7443 -2.32897 -5.66061 0
M  V30 216 N 15.8813 -1.86138 -6.76976 0
M  V30 217 H 20.7213 -1.9068 -2.29009 0
M  V30 218 H 18.2583 -0.950257 -1.12288 0
M  V30 219 H 20.2163 -0.280667 -4.16255 0
M  V30 220 H 18.8463 0.346904 -3.20931 0
M  V30 221 H 17.8983 -2.07298 -3.18954 0
M  V30 222 H 19.2103 -2.5316 -4.29781 0
M  V30 223 H 18.3643 -0.902591 -5.99948 0
M  V30 224 H 17.1033 -0.342692 -4.86495 0
M  V30 225 H 16.1083 -2.64709 -4.81881 0
M  V30 226 H 17.3333 -3.20396 -5.98768 0
M  V30 227 H 15.2793 -1.01484 -6.48103 0
M  V30 228 H 15.1963 -2.63717 -7.08512 0
M  V30 229 H 16.4643 -1.58165 -7.63285 0
M  V30 230 N 20.6934 1.19889 -1.02296 0
M  V30 231 C 21.6234 2.25141 -0.619174 0
M  V30 232 C 22.6044 1.66051 0.368915 0
M  V30 233 O 23.7894 1.92546 0.252941 0
M  V30 234 C 20.9194 3.4728 0.0368783 0
M  V30 235 C 19.8734 4.19005 -0.872865 0
M  V30 236 C 19.1994 5.34637 -0.0822402 0
M  V30 237 C 20.4994 4.74452 -2.18387 0
M  V30 238 H 22.1934 2.59171 -1.49903 0
M  V30 239 H 19.7394 1.24579 -0.722222 0
M  V30 240 H 21.6924 4.20098 0.330958 0
M  V30 241 H 20.4164 3.12433 0.95149 0
M  V30 242 H 19.0754 3.48061 -1.15105 0
M  V30 243 H 18.7234 4.96034 0.83422 0
M  V30 244 H 18.4234 5.83557 -0.688149 0
M  V30 245 H 19.9474 6.10255 0.205238 0
M  V30 246 H 21.3614 5.39055 -1.95172 0
M  V30 247 H 19.7584 5.33834 -2.74119 0
M  V30 248 H 20.8284 3.92844 -2.84257 0
M  V30 249 N 22.1715 0.800033 1.35784 0
M  V30 250 C 23.1015 0.220184 2.3246 0
M  V30 251 C 24.0825 -0.65073 1.57161 0
M  V30 252 O 25.2675 -0.582359 1.85263 0
M  V30 253 C 22.3975 -0.637353 3.41402 0
M  V30 254 C 21.3515 0.134531 4.27789 0
M  V30 255 C 20.6775 -0.844285 5.27992 0
M  V30 256 C 21.9775 1.32979 5.05088 0
M  V30 257 H 23.6715 1.02787 2.81203 0
M  V30 258 H 21.2175 0.495717 1.35199 0
M  V30 259 H 23.1705 -1.05302 4.08031 0
M  V30 260 H 21.8945 -1.47785 2.91251 0
M  V30 261 H 20.5535 0.531296 3.6273 0
M  V30 262 H 20.2015 -1.68011 4.74111 0
M  V30 263 H 19.9015 -0.332184 5.8666 0
M  V30 264 H 21.4255 -1.2583 5.97494 0
M  V30 265 H 22.8395 0.98934 5.64699 0
M  V30 266 H 21.2365 1.77593 5.7322 0
M  V30 267 H 22.3065 2.11978 4.36111 0
M  V30 268 N 23.6496 -1.47581 0.552962 0
M  V30 269 C 24.5796 -2.32762 -0.185451 0
M  V30 270 C 25.5606 -1.43527 -0.912905 0
M  V30 271 O 26.7456 -1.72388 -0.894201 0
M  V30 272 C 23.8756 -3.25219 -1.21859 0
M  V30 273 C 22.8296 -4.23661 -0.607864 0
M  V30 274 C 22.1556 -5.05413 -1.74533 0
M  V30 275 C 23.4556 -5.20481 0.435582 0
M  V30 276 H 25.1496 -2.94749 0.525684 0
M  V30 277 H 22.6956 -1.41738 0.254251 0
M  V30 278 H 24.6486 -3.8365 -1.7433 0
M  V30 279 H 23.3726 -2.61279 -1.95961 0
M  V30 280 H 22.0316 -3.66451 -0.104489 0
M  V30 281 H 21.6796 -4.3788 -2.47529 0
M  V30 282 H 21.3796 -5.72059 -1.34249 0
M  V30 283 H 22.9036 -5.66701 -2.27338 0
M  V30 284 H 24.3176 -5.733 -0.00290157 0
M  V30 285 H 22.7146 -5.95305 0.757067 0
M  V30 286 H 23.7846 -4.66217 1.33303 0
M  V30 287 N 25.1277 -0.289203 -1.54924 0
M  V30 288 C 26.3757 0.322879 -1.99504 0
M  V30 289 C 26.6967 1.55313 -1.1791 0
M  V30 290 O 25.9667 1.94001 -0.272097 0
M  V30 291 H 24.5467 0.122291 -0.736922 0
M  V30 292 H 27.2087 -0.397802 -1.90797 0
M  V30 293 H 26.3047 0.603061 -3.06218 0
M  V30 294 N 26.6058 1.57591 -0.0167156 0
M  V30 295 C 28.0218 1.55946 0.339557 0
M  V30 296 C 28.2218 1.02109 1.73713 0
M  V30 297 O 27.2778 0.662303 2.43659 0
M  V30 298 C 28.5908 3.00037 0.199499 0
M  V30 299 C 30.1388 3.11805 0.273193 0
M  V30 300 C 30.6138 4.57713 0.162068 0
M  V30 301 N 32.1048 4.6268 0.219444 0
M  V30 302 C 32.8398 5.73185 0.157054 0
M  V30 303 N 32.3358 6.92786 0.0442936 0
M  V30 304 N 34.1288 5.61707 0.21014 0
M  V30 305 H 26.2798 1.90921 -0.930758 0
M  V30 306 H 28.5428 0.877674 -0.358319 0
M  V30 307 H 28.2488 3.4333 -0.76273 0
M  V30 308 H 28.1228 3.64387 0.974786 0
M  V30 309 H 30.5098 2.68433 1.22587 0
M  V30 310 H 30.5908 2.50201 -0.532256 0
M  V30 311 H 30.2348 5.01763 -0.78714 0
M  V30 312 H 30.1648 5.17283 0.986222 0
M  V30 313 H 32.6558 3.76649 0.307246 0
M  V30 314 H 32.9688 7.728 0.00304069 0
M  V30 315 H 31.3138 6.94999 0.00968457 0
M  V30 316 H 34.5048 4.6716 0.296546 0
M  V30 317 H 34.6778 6.47807 0.158054 0
M  V30 318 N 28.0839 -0.256276 1.55502 0
M  V30 319 C 29.0339 -1.31981 1.85916 0
M  V30 320 C 30.0179 -1.43927 0.719296 0
M  V30 321 O 31.2099 -1.47326 0.981019 0
M  V30 322 C 28.3389 -2.67703 2.14918 0
M  V30 323 C 27.4249 -2.59801 3.35208 0
M  V30 324 N 27.8159 -2.21524 4.54709 0
M  V30 325 C 26.1139 -2.90832 3.38131 0
M  V30 326 C 26.8149 -2.24024 5.36832 0
M  V30 327 N 25.7909 -2.63158 4.75656 0
M  V30 328 H 29.5929 -1.01423 2.75845 0
M  V30 329 H 27.1069 -0.464911 1.55603 0
M  V30 330 H 29.1039 -3.44445 2.34869 0
M  V30 331 H 27.7639 -2.99137 1.26282 0
M  V30 332 H 28.7749 -1.93223 4.80505 0
M  V30 333 H 25.4519 -3.26867 2.59739 0
M  V30 334 H 26.8419 -1.9685 6.42417 0
M  V30 335 N 29.562 -1.4872 -0.521534 0
M  V30 336 C 30.81 -1.56857 -1.27437 0
M  V30 337 C 31.131 -0.247982 -1.93417 0
M  V30 338 O 30.401 0.731151 -1.81744 0
M  V30 339 H 28.981 -0.577885 -0.473347 0
M  V30 340 H 31.643 -1.85233 -0.606205 0
M  V30 341 H 30.739 -2.35402 -2.0492 0
M  V30 342 N 31.0401 0.771051 -1.3745 0
M  V30 343 C 32.2651 1.56529 -1.36065 0
M  V30 344 C 32.6901 1.88029 0.0515859 0
M  V30 345 O 32.0481 1.49282 1.02882 0
M  V30 346 C 32.0961 2.85187 -2.20683 0
M  V30 347 O 31.2001 3.79593 -1.61193 0
M  V30 348 H 30.5411 0.47411 -0.464883 0
M  V30 349 H 33.0711 0.954269 -1.80983 0
M  V30 350 H 33.0811 3.34283 -2.33921 0
M  V30 351 H 31.7561 2.61588 -3.23334 0
M  V30 352 H 30.3331 3.38239 -1.56999 0
M  V30 353 N 32.5182 1.22032 0.997298 0
M  V30 354 C 33.4812 0.987909 2.06816 0
M  V30 355 C 34.4812 -0.0440084 1.6074 0
M  V30 356 O 35.6712 0.194053 1.73116 0
M  V30 357 C 32.8032 0.49132 3.37341 0
M  V30 358 H 33.9962 1.93803 2.28868 0
M  V30 359 H 31.5492 1.03838 1.16822 0
M  V30 360 H 32.2842 -0.463364 3.20973 0
M  V30 361 H 32.0692 1.23575 3.72118 0
M  V30 362 H 33.5592 0.348824 4.16141 0
M  V30 363 N 33.9963 -1.19345 1.0293 0
M  V30 364 C 34.9263 -2.2481 0.631105 0
M  V30 365 C 35.9073 -1.66245 -0.360104 0
M  V30 366 O 37.0923 -1.92677 -0.242726 0
M  V30 367 C 34.2223 -3.47295 -0.0184607 0
M  V30 368 C 33.1763 -4.18536 0.895073 0
M  V30 369 C 32.5023 -5.34586 0.110592 0
M  V30 370 C 33.8023 -4.73287 2.209 0
M  V30 371 H 35.4963 -2.58372 1.51275 0
M  V30 372 H 33.0423 -1.24194 0.728818 0
M  V30 373 H 34.9953 -4.20268 -0.308675 0
M  V30 374 H 33.7193 -3.12933 -0.934907 0
M  V30 375 H 32.3783 -3.47446 1.16949 0
M  V30 376 H 32.0263 -4.96469 -0.807902 0
M  V30 377 H 31.7263 -5.83183 0.719087 0
M  V30 378 H 33.2503 -6.10355 -0.172871 0
M  V30 379 H 34.6643 -5.38013 1.98028 0
M  V30 380 H 33.0613 -5.32373 2.76946 0
M  V30 381 H 34.1313 -3.91331 2.86336 0
M  V30 382 N 35.4744 -0.807222 -1.35358 0
M  V30 383 C 36.4244 -0.190706 -2.27201 0
M  V30 384 C 37.4084 0.635838 -1.47804 0
M  V30 385 O 38.6004 0.492991 -1.69996 0
M  V30 386 C 35.7294 0.659337 -3.36909 0
M  V30 387 C 34.8154 -0.176971 -4.23731 0
M  V30 388 N 35.2064 -1.24029 -4.90357 0
M  V30 389 C 33.5044 0.0412953 -4.45981 0
M  V30 390 C 34.2054 -1.75092 -5.54723 0
M  V30 391 N 33.1814 -1.05727 -5.33219 0
M  V30 392 H 36.9834 -1.0043 -2.76208 0
M  V30 393 H 34.4974 -0.648445 -1.48892 0
M  V30 394 H 36.4944 1.11706 -4.01656 0
M  V30 395 H 35.1544 1.47127 -2.89454 0
M  V30 396 H 36.1654 -1.62295 -4.91814 0
M  V30 397 H 32.8424 0.82232 -4.09322 0
M  V30 398 H 34.2324 -2.63963 -6.17878 0
M  V30 399 N 36.9525 1.47285 -0.560781 0
M  V30 400 C 38.1985 2.03347 -0.0463654 0
M  V30 401 C 38.5535 1.42702 1.2905 0
M  V30 402 O 37.8465 0.574619 1.8278 0
M  V30 403 C 38.0405 3.57258 0.100784 0
M  V30 404 C 37.8695 4.32827 -1.22027 0
M  V30 405 C 36.6395 4.72588 -1.78854 0
M  V30 406 C 38.8375 4.67739 -2.13834 0
M  V30 407 N 36.8195 5.32816 -3.04927 0
M  V30 408 C 38.1905 5.28307 -3.24487 0
M  V30 409 C 40.2455 4.49667 -2.13784 0
M  V30 410 C 38.9485 5.72711 -4.35194 0
M  V30 411 C 40.9745 4.95073 -3.23506 0
M  V30 412 C 40.3365 5.55693 -4.32879 0
M  V30 413 H 36.4355 0.779755 -0.0592166 0
M  V30 414 H 39.0195 1.79723 -0.748857 0
M  V30 415 H 37.1905 3.80642 0.772404 0
M  V30 416 H 38.9225 3.9996 0.617589 0
M  V30 417 H 35.6775 4.54656 -1.32609 0
M  V30 418 H 36.1015 5.67471 -3.69197 0
M  V30 419 H 40.7435 4.02154 -1.30507 0
M  V30 420 H 38.4615 6.19214 -5.1923 0
M  V30 421 H 42.0475 4.82859 -3.24559 0
M  V30 422 H 40.9275 5.90188 -5.1638 0
M  V30 423 N 38.4306 0.297415 1.54768 0
M  V30 424 C 39.8466 -0.0560823 1.59501 0
M  V30 425 C 40.0466 -1.52725 1.31444 0
M  V30 426 O 39.1026 -2.27947 1.08611 0
M  V30 427 C 40.4156 0.338631 2.98787 0
M  V30 428 C 41.9636 0.287097 3.11681 0
M  V30 429 C 42.4386 0.656579 4.53269 0
M  V30 430 N 43.9296 0.608977 4.59179 0
M  V30 431 C 44.6646 0.867385 5.66802 0
M  V30 432 N 44.1606 1.19157 6.82476 0
M  V30 433 N 45.9536 0.794687 5.56454 0
M  V30 434 H 38.1046 1.25624 1.71267 0
M  V30 435 H 40.3676 0.509057 0.799728 0
M  V30 436 H 40.0736 1.36263 3.2423 0
M  V30 437 H 39.9476 -0.309508 3.75928 0
M  V30 438 H 42.3346 -0.727649 2.85988 0
M  V30 439 H 42.4156 0.969809 2.36703 0
M  V30 440 H 42.0596 1.66912 4.7969 0
M  V30 441 H 41.9896 -0.0481649 5.26578 0
M  V30 442 H 44.4806 0.369198 3.76092 0
M  V30 443 H 44.7936 1.37482 7.60473 0
M  V30 444 H 43.1386 1.22958 6.84037 0
M  V30 445 H 46.3296 0.541098 4.64962 0
M  V30 446 H 46.5026 0.999445 6.40246 0
M  V30 447 N 39.9087 -1.5758 0.0250728 0
M  V30 448 C 40.8717 -2.08896 -0.943139 0
M  V30 449 C 41.8717 -1.00321 -1.25668 0
M  V30 450 O 43.0617 -1.26495 -1.19769 0
M  V30 451 C 40.1937 -2.55143 -2.26086 0
M  V30 452 H 41.3867 -2.95723 -0.498775 0
M  V30 453 H 38.9397 -1.54703 -0.222888 0
M  V30 454 H 39.6747 -1.71633 -2.75159 0
M  V30 455 H 39.4597 -3.34461 -2.04641 0
M  V30 456 H 40.9497 -2.95083 -2.95492 0
M  V30 457 N 41.3868 0.248026 -1.55636 0
M  V30 458 C 42.3498 1.29044 -1.89421 0
M  V30 459 C 43.3498 1.41134 -0.770581 0
M  V30 460 O 44.5398 1.39854 -1.03858 0
M  V30 461 C 41.6718 2.66831 -2.12165 0
M  V30 462 H 42.8648 1.00305 -2.82629 0
M  V30 463 H 40.4178 0.487265 -1.48511 0
M  V30 464 H 41.1528 3.00711 -1.21422 0
M  V30 465 H 40.9378 2.59438 -2.93997 0
M  V30 466 H 42.4278 3.42103 -2.3949 0
M  V30 467 N 42.8649 1.48995 0.513639 0
M  V30 468 C 44.1129 1.57531 1.26604 0
M  V30 469 C 44.4339 0.258236 1.93283 0
M  V30 470 O 43.7039 -0.721502 1.8213 0
M  V30 471 H 42.2839 0.580387 0.470276 0
M  V30 472 H 44.9459 1.85552 0.596373 0
M  V30 473 H 44.0419 2.36486 2.03669 0
M  V30 474 N 44.343 -0.763751 1.37857 0
M  V30 475 C 45.306 -1.85889 1.34081 0
M  V30 476 C 46.306 -1.58949 0.243277 0
M  V30 477 O 47.496 -1.66882 0.499589 0
M  V30 478 C 44.628 -3.23176 1.08489 0
M  V30 479 H 45.821 -1.90648 2.31502 0
M  V30 480 H 43.374 -0.964367 1.23003 0
M  V30 481 H 44.109 -3.24091 0.116318 0
M  V30 482 H 43.894 -3.44124 1.8794 0
M  V30 483 H 45.384 -4.03254 1.08517 0
M  V30 484 N 45.8211 -1.22559 -0.990812 0
M  V30 485 C 46.7841 -0.998863 -2.0629 0
M  V30 486 C 47.7841 0.0354834 -1.60761 0
M  V30 487 O 48.9741 -0.203231 -1.7301 0
M  V30 488 C 46.1061 -0.509203 -3.37076 0
M  V30 489 H 47.2991 -1.95014 -2.27837 0
M  V30 490 H 44.8521 -1.04456 -1.16269 0
M  V30 491 H 45.5871 0.446335 -3.21214 0
M  V30 492 H 45.3721 -1.25547 -3.71457 0
M  V30 493 H 46.8621 -0.370888 -4.1595 0
M  V30 494 N 47.2992 1.18797 -1.03562 0
M  V30 495 C 48.5272 1.92599 -0.755869 0
M  V30 496 C 48.9422 1.75886 0.686271 0
M  V30 497 O 48.2992 1.08517 1.46732 0
M  V30 498 C 48.3502 3.44159 -1.10619 0
M  V30 499 O 48.0712 3.60341 -2.4917 0
M  V30 500 C 49.5722 4.3507 -0.850214 0
M  V30 501 H 46.7922 0.611587 -0.276048 0
M  V30 502 H 49.3362 1.50742 -1.38192 0
M  V30 503 H 47.4912 3.83823 -0.525194 0
M  V30 504 H 47.9052 4.54128 -2.62427 0
M  V30 505 H 49.3792 5.39989 -1.14523 0
M  V30 506 H 49.8562 4.38673 0.215176 0
M  V30 507 H 50.4622 4.01097 -1.41426 0
M  V30 508 N 48.7773 0.814389 1.34928 0
M  V30 509 C 50.0233 0.399013 1.98836 0
M  V30 510 C 50.3563 -1.03314 1.64438 0
M  V30 511 O 49.6313 -1.71811 0.911659 0
M  V30 512 C 49.9143 0.591629 3.55207 0
M  V30 513 C 49.7673 2.06928 3.99376 0
M  V30 514 C 51.0863 0.022199 4.40094 0
M  V30 515 H 48.2053 0.146451 0.722303 0
M  V30 516 H 50.8473 1.02537 1.59957 0
M  V30 517 H 48.9973 0.0584441 3.88456 0
M  V30 518 H 50.6693 2.66544 3.76499 0
M  V30 519 H 48.9123 2.56287 3.49999 0
M  V30 520 H 49.5833 2.1549 5.08201 0
M  V30 521 H 52.0593 0.477643 4.13349 0
M  V30 522 H 50.9353 0.186832 5.48582 0
M  V30 523 H 51.1963 -1.07215 4.28902 0
M  V30 524 N 50.2554 -1.46986 0.568584 0
M  V30 525 C 51.1854 -2.32946 -0.160753 0
M  V30 526 C 52.1664 -1.44487 -0.897631 0
M  V30 527 O 53.3514 -1.73327 -0.875867 0
M  V30 528 C 50.4814 -3.26494 -1.18403 0
M  V30 529 C 49.4354 -4.24282 -0.562895 0
M  V30 530 C 48.7614 -5.07236 -1.69163 0
M  V30 531 C 50.0614 -5.19989 0.490761 0
M  V30 532 H 51.7554 -2.94175 0.556916 0
M  V30 533 H 49.3014 -1.4146 0.26927 0
M  V30 534 H 51.2544 -3.85477 -1.70251 0
M  V30 535 H 49.9784 -2.63343 -1.93179 0
M  V30 536 H 48.6374 -3.66541 -0.0656164 0
M  V30 537 H 48.2854 -4.4048 -2.42871 0
M  V30 538 H 47.9854 -5.7345 -1.28174 0
M  V30 539 H 49.5094 -5.6908 -2.21314 0
M  V30 540 H 50.9234 -5.73271 0.0579047 0
M  V30 541 H 49.3204 -5.94469 0.820165 0
M  V30 542 H 50.3904 -4.64777 1.3824 0
M  V30 543 N 51.7335 -0.305618 -1.54608 0
M  V30 544 C 52.6635 0.561482 -2.26649 0
M  V30 545 C 53.6445 1.13415 -1.26772 0
M  V30 546 O 54.8295 1.16262 -1.55553 0
M  V30 547 C 51.9595 1.73122 -3.01075 0
M  V30 548 C 50.9135 1.2887 -4.08138 0
M  V30 549 C 50.2395 2.54396 -4.70305 0
M  V30 550 C 51.5395 0.416578 -5.20636 0
M  V30 551 H 53.2335 -0.0393902 -2.99374 0
M  V30 552 H 50.7795 -0.020385 -1.43986 0
M  V30 553 H 52.7325 2.34396 -3.50195 0
M  V30 554 H 51.4565 2.3584 -2.25936 0
M  V30 555 H 50.1155 0.698991 -3.59875 0
M  V30 556 H 49.7635 3.15439 -3.918 0
M  V30 557 H 49.4635 2.25486 -5.42614 0
M  V30 558 H 50.9875 3.16464 -5.2219 0
M  V30 559 H 52.4015 0.935116 -5.65622 0
M  V30 560 H 50.7985 0.221046 -5.99693 0
M  V30 561 H 51.8685 -0.557162 -4.81688 0
M  V30 562 N 53.2116 1.57565 -0.0334293 0
M  V30 563 C 54.4576 1.92262 0.645226 0
M  V30 564 C 54.7906 0.910543 1.71531 0
M  V30 565 O 54.0656 -0.066099 1.94388 0
M  V30 566 C 54.3486 3.37422 1.2577 0
M  V30 567 C 54.2016 4.49369 0.196891 0
M  V30 568 C 55.5206 3.82628 2.17449 0
M  V30 569 H 52.6396 0.699171 0.233085 0
M  V30 570 H 55.2816 1.89779 -0.0915694 0
M  V30 571 H 53.4316 3.39669 1.88566 0
M  V30 572 H 55.1036 4.59254 -0.433962 0
M  V30 573 H 53.3466 4.31168 -0.477137 0
M  V30 574 H 54.0176 5.47978 0.665124 0
M  V30 575 H 56.4936 3.82145 1.64634 0
M  V30 576 H 55.3696 4.84883 2.57254 0
M  V30 577 H 55.6306 3.18376 3.0674 0
M  V30 578 N 54.6897 -0.239769 1.55765 0
M  V30 579 C 55.9387 -0.964754 1.77131 0
M  V30 580 C 56.2517 -1.86213 0.59868 0
M  V30 581 O 57.4577 -2.6244 0.695522 0
M  V30 582 C 55.9137 -1.76552 3.1362 0
M  V30 583 C 55.5217 -0.915185 4.38553 0
M  V30 584 C 57.2657 -2.48281 3.44321 0
M  V30 585 C 55.1727 -1.71225 5.66071 0
M  V30 586 H 54.1027 -0.363953 0.660344 0
M  V30 587 H 56.7537 -0.219181 1.82186 0
M  V30 588 H 55.1357 -2.55331 3.02691 0
M  V30 589 H 56.3097 -0.169217 4.60489 0
M  V30 590 H 54.6247 -0.310889 4.15238 0
M  V30 591 H 57.2217 -3.08382 4.36812 0
M  V30 592 H 57.5647 -3.20256 2.65973 0
M  V30 593 H 58.0977 -1.76507 3.56497 0
M  V30 594 H 54.8367 -1.03612 6.4726 0
M  V30 595 H 54.3567 -2.43331 5.48224 0
M  V30 596 H 56.0357 -2.27758 6.05587 0
M  V30 597 N 56.1678 -1.49265 -0.50573 0
M  V30 598 C 57.4138 -1.58748 -1.26202 0
M  V30 599 C 57.7468 -0.271227 -1.92297 0
M  V30 600 O 57.0218 0.724831 -1.80489 0
M  V30 601 C 57.3048 -2.74332 -2.33268 0
M  V30 602 C 57.1578 -4.15737 -1.71705 0
M  V30 603 C 58.4768 -2.85576 -3.34865 0
M  V30 604 H 55.5958 -0.577826 -0.457478 0
M  V30 605 H 58.2378 -1.81532 -0.560897 0
M  V30 606 H 56.3878 -2.55036 -2.93068 0
M  V30 607 H 58.0598 -4.46537 -1.15769 0
M  V30 608 H 56.3028 -4.21605 -1.02135 0
M  V30 609 H 56.9738 -4.92477 -2.49341 0
M  V30 610 H 59.4498 -3.03127 -2.8505 0
M  V30 611 H 58.3258 -3.68135 -4.07146 0
M  V30 612 H 58.5868 -1.94732 -3.96903 0
M  V30 613 N 57.6459 0.756429 -1.3826 0
M  V30 614 C 58.5759 1.88374 -1.37976 0
M  V30 615 C 59.5569 1.68311 -0.246082 0
M  V30 616 O 60.7419 1.88944 -0.44874 0
M  V30 617 C 57.8719 3.25864 -1.20125 0
M  V30 618 C 56.8259 3.60523 -2.30666 0
M  V30 619 C 56.1519 4.9672 -1.97923 0
M  V30 620 C 57.4519 3.65692 -3.72916 0
M  V30 621 H 59.1459 1.88869 -2.32312 0
M  V30 622 H 56.6919 0.907272 -1.11824 0
M  V30 623 H 58.6449 4.0438 -1.18552 0
M  V30 624 H 57.3689 3.25841 -0.222498 0
M  V30 625 H 56.0279 2.84324 -2.3142 0
M  V30 626 H 55.6759 4.93253 -0.985393 0
M  V30 627 H 55.3759 5.20878 -2.71955 0
M  V30 628 H 56.8999 5.77618 -1.97964 0
M  V30 629 H 58.3139 4.34328 -3.74208 0
M  V30 630 H 56.7109 4.01358 -4.4613 0
M  V30 631 H 57.7809 2.65987 -4.05436 0
M  V30 632 N 59.124 1.23083 0.984299 0
M  V30 633 C 60.054 1.03292 2.09411 0
M  V30 634 C 61.035 -0.048923 1.7003 0
M  V30 635 O 62.22 0.114967 1.93859 0
M  V30 636 C 59.35 0.619155 3.41736 0
M  V30 637 C 58.304 1.64791 3.95004 0
M  V30 638 C 57.63 1.0897 5.23478 0
M  V30 639 C 58.93 3.03999 4.24714 0
M  V30 640 H 60.624 1.96119 2.26225 0
M  V30 641 H 58.17 0.944344 1.08711 0
M  V30 642 H 60.123 0.467777 4.18796 0
M  V30 643 H 58.847 -0.344786 3.24775 0
M  V30 644 H 57.506 1.78721 3.20085 0
M  V30 645 H 57.154 0.11686 5.02864 0
M  V30 646 H 56.854 1.77704 5.60085 0
M  V30 647 H 58.378 0.950093 6.03163 0
M  V30 648 H 59.792 2.93393 4.92538 0
M  V30 649 H 58.189 3.69936 4.72512 0
M  V30 650 H 59.259 3.53285 3.32142 0
M  V30 651 N 60.6021 -1.18246 1.0419 0
M  V30 652 C 61.5651 -2.20128 0.638452 0
M  V30 653 C 62.5651 -1.57885 -0.304805 0
M  V30 654 O 63.7551 -1.73967 -0.0900369 0
M  V30 655 C 60.8871 -3.4084 -0.0637751 0
M  V30 656 H 62.0801 -2.57336 1.54007 0
M  V30 657 H 59.6331 -1.32152 0.834598 0
M  V30 658 H 60.3681 -3.09166 -0.979136 0
M  V30 659 H 60.1531 -3.8726 0.614198 0
M  V30 660 H 61.6431 -4.16274 -0.332512 0
M  V30 661 N 62.0802 -0.821533 -1.34494 0
M  V30 662 C 63.3282 -0.408139 -1.97936 0
M  V30 663 C 63.6492 1.03193 -1.65457 0
M  V30 664 O 62.9192 1.71622 -0.944595 0
M  V30 665 H 61.4992 -0.147928 -0.732206 0
M  V30 666 H 64.1612 -1.05067 -1.64155 0
M  V30 667 H 63.2572 -0.52601 -3.07635 0
M  V30 668 N 63.5583 1.46682 -0.576371 0
M  V30 669 C 64.7833 2.07304 -0.0630475 0
M  V30 670 C 65.2083 1.42329 1.2298 0
M  V30 671 O 64.5663 0.504865 1.74129 0
M  V30 672 C 64.6143 3.60472 0.095895 0
M  V30 673 O 63.7183 3.95927 1.15394 0
M  V30 674 H 63.0593 0.661288 -0.0599463 0
M  V30 675 H 65.5893 1.88417 -0.797511 0
M  V30 676 H 65.5993 4.06865 0.304071 0
M  V30 677 H 64.2743 4.07157 -0.84828 0
M  V30 678 H 62.8513 3.61252 0.924724 0
M  V30 679 N 65.0364 0.313813 1.54444 0
M  V30 680 C 66.2664 -0.293491 2.04505 0
M  V30 681 C 66.6744 -1.47086 1.19005 0
M  V30 682 O 66.0174 -1.82481 0.211257 0
M  V30 683 C 66.0794 -0.800455 3.50475 0
M  V30 684 C 65.7434 0.253322 4.56297 0
M  V30 685 C 66.7404 1.08612 5.08428 0
M  V30 686 C 64.4254 0.398708 5.00715 0
M  V30 687 C 66.4194 2.05013 6.0353 0
M  V30 688 C 64.1064 1.36614 5.95634 0
M  V30 689 C 65.1044 2.19033 6.46926 0
M  V30 690 O 64.7924 3.14134 7.39983 0
M  V30 691 H 64.5244 -0.0658325 0.672787 0
M  V30 692 H 67.0784 0.455177 2.00293 0
M  V30 693 H 65.3084 -1.59987 3.52053 0
M  V30 694 H 66.9974 -1.32504 3.83663 0
M  V30 695 H 67.7634 0.984736 4.74898 0
M  V30 696 H 63.6424 -0.23289 4.60411 0
M  V30 697 H 67.1864 2.69382 6.4349 0
M  V30 698 H 63.0834 1.4682 6.28581 0
M  V30 699 H 63.8514 3.0926 7.57826 0
M  V30 700 N 66.5145 -1.57545 0.0417849 0
M  V30 701 C 67.4445 -2.14009 -0.933929 0
M  V30 702 C 68.4255 -1.05938 -1.33083 0
M  V30 703 O 69.6105 -1.33833 -1.40721 0
M  V30 704 C 66.7405 -2.67747 -2.21199 0
M  V30 705 C 65.6945 -3.80718 -1.95544 0
M  V30 706 C 65.0205 -4.20935 -3.29724 0
M  V30 707 C 66.3205 -5.06258 -1.28452 0
M  V30 708 H 68.0145 -2.95788 -0.463645 0
M  V30 709 H 65.5605 -1.42285 -0.221573 0
M  V30 710 H 67.5135 -3.05886 -2.89848 0
M  V30 711 H 66.2375 -1.83147 -2.70416 0
M  V30 712 H 64.8965 -3.43037 -1.2931 0
M  V30 713 H 64.5445 -3.33298 -3.76724 0
M  V30 714 H 64.2445 -4.9707 -3.13361 0
M  V30 715 H 65.7685 -4.61666 -3.9962 0
M  V30 716 H 67.1825 -5.41903 -1.8712 0
M  V30 717 H 65.5795 -5.87475 -1.22445 0
M  V30 718 H 66.6495 -4.84207 -0.259219 0
M  V30 719 N 67.9926 0.231505 -1.5589 0
M  V30 720 C 68.9556 1.27028 -1.90779 0
M  V30 721 C 69.9556 1.40308 -0.785507 0
M  V30 722 O 71.1456 1.38744 -1.05336 0
M  V30 723 C 68.2776 2.64566 -2.14983 0
M  V30 724 H 69.4706 0.973017 -2.83677 0
M  V30 725 H 67.0236 0.471486 -1.49019 0
M  V30 726 H 67.7586 2.99406 -1.24604 0
M  V30 727 H 67.5436 2.56305 -2.96732 0
M  V30 728 H 69.0336 3.39543 -2.43105 0
M  V30 729 N 69.4707 1.49531 0.497807 0
M  V30 730 C 70.7167 1.59415 1.25358 0
M  V30 731 C 71.0497 0.281422 1.9215 0
M  V30 732 O 70.3247 -0.715249 1.80871 0
M  V30 733 C 70.6077 2.75566 2.3181 0
M  V30 734 C 70.4607 4.16642 1.69498 0
M  V30 735 C 71.7797 2.87347 3.33346 0
M  V30 736 H 68.8987 0.580244 0.454408 0
M  V30 737 H 71.5407 1.81827 0.551262 0
M  V30 738 H 69.6907 2.56587 2.91711 0
M  V30 739 H 71.3627 4.47145 1.13399 0
M  V30 740 H 69.6057 4.22141 0.998978 0
M  V30 741 H 70.2767 4.93792 2.46725 0
M  V30 742 H 72.7527 3.04634 2.83438 0
M  V30 743 H 71.6287 3.70289 4.05188 0
M  V30 744 H 71.8897 1.96834 3.95865 0
M  V30 745 N 70.9488 -0.749086 1.3866 0
M  V30 746 C 71.8788 -1.8764 1.38973 0
M  V30 747 C 72.8598 -1.68178 0.255004 0
M  V30 748 O 74.0448 -1.88704 0.458754 0
M  V30 749 C 71.1748 -3.25222 1.21851 0
M  V30 750 C 70.1288 -3.59295 2.32575 0
M  V30 751 C 69.4548 -4.95663 2.00555 0
M  V30 752 C 70.7548 -3.63709 3.7485 0
M  V30 753 H 72.4488 -1.87635 2.3331 0
M  V30 754 H 69.9948 -0.901329 1.12303 0
M  V30 755 H 71.9478 -4.03746 1.20695 0
M  V30 756 H 70.6718 -3.25719 0.239775 0
M  V30 757 H 69.3308 -2.83093 2.32925 0
M  V30 758 H 68.9788 -4.92724 1.01154 0
M  V30 759 H 68.6788 -5.19429 2.74714 0
M  V30 760 H 70.2028 -5.7656 2.01024 0
M  V30 761 H 71.6168 -4.32338 3.76506 0
M  V30 762 H 70.0138 -3.98986 4.48252 0
M  V30 763 H 71.0838 -2.63834 4.06841 0
M  V30 764 N 72.4269 -1.23603 -0.977757 0
M  V30 765 C 73.3899 -1.02069 -2.05218 0
M  V30 766 C 74.3899 0.0184305 -1.60789 0
M  V30 767 O 75.5799 -0.221569 -1.72785 0
M  V30 768 C 72.7119 -0.544926 -3.36517 0
M  V30 769 H 73.9049 -1.9742 -2.25755 0
M  V30 770 H 71.4579 -1.05684 -1.15155 0
M  V30 771 H 72.1929 0.412241 -3.21669 0
M  V30 772 H 71.9779 -1.2948 -3.70105 0
M  V30 773 H 73.4679 -0.414985 -4.15533 0
M  V30 774 N 73.905 1.17692 -1.04816 0
M  V30 775 C 74.815 2.25229 -0.65643 0
M  V30 776 C 75.831 1.71018 0.320761 0
M  V30 777 O 77.007 2.00649 0.173805 0
M  V30 778 C 74.072 3.46684 -0.0332629 0
M  V30 779 C 73.133 4.15997 -1.06042 0
M  V30 780 C 72.366 5.31654 -0.466893 0
M  V30 781 O 72.589 5.65777 0.724758 0
M  V30 782 O 71.523 5.89831 -1.1993 0
M  V30 783 H 75.349 2.61016 -1.55255 0
M  V30 784 H 72.934 1.24919 -0.81949 0
M  V30 785 H 74.816 4.20234 0.313256 0
M  V30 786 H 73.491 3.12703 0.836566 0
M  V30 787 H 72.398 3.44482 -1.45886 0
M  V30 788 H 73.731 4.53996 -1.90127 0
M  V30 789 N 75.3831 0.828654 1.34056 0
M  V30 790 C 76.7991 0.515135 1.51058 0
M  V30 791 C 76.9991 -0.959581 1.77184 0
M  V30 792 O 76.0551 -1.74382 1.82612 0
M  V30 793 C 77.3681 1.37963 2.67183 0
M  V30 794 C 78.9161 1.37735 2.81066 0
M  V30 795 C 79.3911 2.22645 4.00241 0
M  V30 796 N 80.8821 2.203 4.07458 0
M  V30 797 C 81.6171 2.82744 4.98842 0
M  V30 798 N 81.1131 3.54201 5.9541 0
M  V30 799 N 82.9061 2.72268 4.91759 0
M  V30 800 H 75.0571 1.78343 1.15358 0
M  V30 801 H 77.3201 0.760304 0.566252 0
M  V30 802 H 77.0261 2.42714 2.54525 0
M  V30 803 H 76.9001 1.0484 3.62338 0
M  V30 804 H 79.2871 0.337593 2.93163 0
M  V30 805 H 79.3681 1.74859 1.86703 0
M  V30 806 H 79.0121 3.26674 3.88905 0
M  V30 807 H 78.9421 1.82869 4.93829 0
M  V30 808 H 81.4331 1.68327 3.38341 0
M  V30 809 H 81.7461 3.9908 6.61782 0
M  V30 810 H 80.0911 3.58308 5.95517 0
M  V30 811 H 83.2821 2.16014 4.15278 0
M  V30 812 H 83.4551 3.21219 5.62781 0
M  V30 813 N 76.8612 -1.46375 0.584142 0
M  V30 814 C 78.1092 -2.01978 0.0701287 0
M  V30 815 C 78.4302 -1.4579 -1.295 0
M  V30 816 O 77.7002 -0.64314 -1.85042 0
M  V30 817 H 76.2802 -0.746648 0.0229345 0
M  V30 818 H 78.9422 -1.79461 0.760245 0
M  V30 819 H 78.0382 -3.121 0.0022064 0
M  V30 820 N 78.3393 -0.321999 -1.54275 0
M  V30 821 C 79.3023 0.531975 -2.22941 0
M  V30 822 C 80.3023 1.04478 -1.22234 0
M  V30 823 O 81.4923 0.937452 -1.46825 0
M  V30 824 C 78.6243 1.73874 -2.93224 0
M  V30 825 H 79.8173 -0.0682612 -2.99822 0
M  V30 826 H 77.3703 -0.0730644 -1.56129 0
M  V30 827 H 78.1053 2.37825 -2.20476 0
M  V30 828 H 77.8903 1.37847 -3.6707 0
M  V30 829 H 79.3803 2.34496 -3.45545 0
M  V30 830 N 79.8174 1.5752 -0.0501392 0
M  V30 831 C 81.2284 1.80271 0.485705 0
M  V30 832 C 81.5794 0.96228 1.70981 0
M  V30 833 O 80.7044 0.178578 2.15662 0
M  V30 834 C 81.2994 3.26957 0.887938 0
M  V30 835 C 79.8584 3.5063 1.36877 0
M  V30 836 C 79.0054 2.75165 0.343468 0
M  V30 837 H 81.9564 1.56281 -0.276028 0
M  V30 838 H 81.9774 3.37821 1.75093 0
M  V30 839 H 81.4894 3.881 -0.0031809 0
M  V30 840 H 79.5904 2.94766 2.27911 0
M  V30 841 H 79.7034 4.59343 1.36164 0
M  V30 842 H 78.0674 2.4127 0.816128 0
M  V30 843 H 78.8504 3.39034 -0.539548 0
M  V30 844 N 81.2955 -0.223234 1.56011 0
M  V30 845 C 82.5435 -0.946003 1.78592 0
M  V30 846 C 82.8645 -1.84936 0.618349 0
M  V30 847 O 82.1345 -1.92473 -0.364833 0
M  V30 848 H 80.7145 -0.352298 0.658707 0
M  V30 849 H 83.3765 -0.235494 1.93472 0
M  V30 850 H 82.4725 -1.55381 2.70672 0
M  V30 851 N 82.7736 -1.49793 -0.48987 0
M  V30 852 C 83.7366 -1.66752 -1.57246 0
M  V30 853 C 84.7366 -0.538867 -1.51502 0
M  V30 854 O 85.9266 -0.805545 -1.54456 0
M  V30 855 C 83.0586 -1.67528 -2.96896 0
M  V30 856 H 84.2516 -2.63321 -1.43534 0
M  V30 857 H 81.8046 -1.38992 -0.714914 0
M  V30 858 H 82.5396 -0.725837 -3.16073 0
M  V30 859 H 82.3246 -2.49504 -3.02473 0
M  V30 860 H 83.8146 -1.82667 -3.7553 0
M  V30 861 N 84.2517 0.741722 -1.39055 0
M  V30 862 C 85.1837 1.8657 -1.33133 0
M  V30 863 C 86.1967 1.61001 -0.241329 0
M  V30 864 O 87.3857 1.7136 -0.499784 0
M  V30 865 C 84.4857 3.22457 -1.04283 0
M  V30 866 C 83.6587 3.75435 -2.24427 0
M  V30 867 C 82.7177 4.89867 -1.92138 0
M  V30 868 O 81.7437 5.03879 -2.64754 0
M  V30 869 N 82.9457 5.73738 -0.88347 0
M  V30 870 H 85.7107 1.92156 -2.29991 0
M  V30 871 H 83.2717 0.922172 -1.3307 0
M  V30 872 H 85.2637 3.9657 -0.807128 0
M  V30 873 H 83.8337 3.12181 -0.161807 0
M  V30 874 H 83.0537 2.92751 -2.6399 0
M  V30 875 H 84.3417 4.07563 -3.04581 0
M  V30 876 H 83.7397 5.64999 -0.281517 0
M  V30 877 H 82.2967 6.47947 -0.707662 0
M  V30 878 N 85.7298 1.2412 0.971189 0
M  V30 879 C 86.6598 1.05508 2.08304 0
M  V30 880 C 87.6408 -0.0308864 1.70072 0
M  V30 881 O 88.8258 0.135521 1.93727 0
M  V30 882 C 85.9558 0.655365 3.4106 0
M  V30 883 C 84.9098 1.68971 3.93234 0
M  V30 884 C 84.2358 1.14516 5.22293 0
M  V30 885 C 85.5358 3.08487 4.21465 0
M  V30 886 H 87.2298 1.98507 2.24132 0
M  V30 887 H 84.7758 0.955821 1.07704 0
M  V30 888 H 86.7288 0.51217 4.18276 0
M  V30 889 H 85.4528 -0.31032 3.25122 0
M  V30 890 H 84.1118 1.82106 3.18171 0
M  V30 891 H 83.7598 0.170189 5.02712 0
M  V30 892 H 83.4598 1.83635 5.58168 0
M  V30 893 H 84.9838 1.01401 6.02121 0
M  V30 894 H 86.3978 2.98601 4.89398 0
M  V30 895 H 84.7948 3.74926 4.68562 0
M  V30 896 H 85.8648 3.56787 3.28376 0
M  V30 897 N 87.2079 -1.17134 1.05439 0
M  V30 898 C 88.4569 -1.86791 0.761049 0
M  V30 899 C 88.7699 -1.82072 -0.714795 0
M  V30 900 O 89.9759 -2.47223 -1.12218 0
M  V30 901 C 88.4319 -3.35166 1.31117 0
M  V30 902 C 88.0399 -3.48381 2.81664 0
M  V30 903 C 89.7839 -4.10134 1.09499 0
M  V30 904 C 87.6909 -4.90793 3.29964 0
M  V30 905 H 86.6209 -0.699681 0.281002 0
M  V30 906 H 89.2719 -1.3226 1.27199 0
M  V30 907 H 87.6539 -3.8925 0.72803 0
M  V30 908 H 88.8279 -3.04502 3.45855 0
M  V30 909 H 87.1429 -2.86836 3.01851 0
M  V30 910 H 89.7399 -5.152 1.43084 0
M  V30 911 H 90.0829 -4.16287 0.0328772 0
M  V30 912 H 90.6159 -3.62264 1.64346 0
M  V30 913 H 87.3549 -4.89816 4.35616 0
M  V30 914 H 86.8749 -5.35333 2.70516 0
M  V30 915 H 88.5539 -5.59573 3.24787 0
M  V30 916 N 88.686 -0.835752 -1.33615 0
M  V30 917 C 89.914 -0.443344 -2.02094 0
M  V30 918 C 90.329 0.954522 -1.62894 0
M  V30 919 O 89.686 1.61982 -0.840723 0
M  V30 920 C 89.737 -0.550775 -3.5728 0
M  V30 921 O 89.458 -1.89356 -3.95065 0
M  V30 922 C 90.959 -0.154919 -4.43029 0
M  V30 923 H 88.179 -0.176359 -0.647409 0
M  V30 924 H 90.723 -1.12746 -1.70612 0
M  V30 925 H 88.878 0.0853997 -3.87306 0
M  V30 926 H 89.292 -1.87687 -4.89769 0
M  V30 927 H 90.766 -0.281144 -5.51284 0
M  V30 928 H 91.243 0.902863 -4.2982 0
M  V30 929 H 91.849 -0.765404 -4.18356 0
M  V30 930 N 90.1641 1.46063 -0.591896 0
M  V30 931 C 91.3941 2.06418 -0.0867676 0
M  V30 932 C 91.8021 1.43975 1.22751 0
M  V30 933 O 91.1451 0.542531 1.75506 0
M  V30 934 C 91.2071 3.59213 0.143725 0
M  V30 935 C 90.8711 4.439 -1.08635 0
M  V30 936 C 91.8681 4.79864 -2.00067 0
M  V30 937 C 89.5531 4.84896 -1.31077 0
M  V30 938 C 91.5471 5.55661 -3.12282 0
M  V30 939 C 89.2341 5.6045 -2.43596 0
M  V30 940 C 90.2321 5.95747 -3.34027 0
M  V30 941 O 89.9201 6.69772 -4.4459 0
M  V30 942 H 89.6521 0.673443 -0.0587447 0
M  V30 943 H 92.2061 1.88539 -0.814994 0
M  V30 944 H 90.4361 3.75433 0.926668 0
M  V30 945 H 92.1251 4.01463 0.5985 0
M  V30 946 H 92.8911 4.48763 -1.83947 0
M  V30 947 H 88.7701 4.56867 -0.61594 0
M  V30 948 H 92.3141 5.8313 -3.82891 0
M  V30 949 H 88.2111 5.90965 -2.59674 0
M  V30 950 H 88.9791 6.88207 -4.43073 0
M  V30 951 N 91.6422 0.330177 1.54103 0
M  V30 952 C 93.0532 -0.15652 1.86043 0
M  V30 953 C 93.4042 -1.51086 1.2517 0
M  V30 954 O 92.5292 -2.09023 0.560217 0
M  V30 955 C 93.1242 -0.290784 3.3755 0
M  V30 956 C 91.6832 -0.721705 3.69416 0
M  V30 957 C 90.8302 0.152622 2.7688 0
M  V30 958 H 93.7812 0.550237 1.48856 0
M  V30 959 H 93.8022 -1.12058 3.63625 0
M  V30 960 H 93.3142 0.695068 3.81825 0
M  V30 961 H 91.4152 -1.71706 3.30678 0
M  V30 962 H 91.5282 -0.520869 4.7626 0
M  V30 963 H 89.8922 -0.372894 2.51956 0
M  V30 964 H 90.6752 1.13536 3.23982 0
M  V30 965 N 93.1203 -1.57491 0.0584922 0
M  V30 966 C 94.5363 -1.56792 -0.298091 0
M  V30 967 C 94.7363 -1.06679 -1.70944 0
M  V30 968 O 93.7923 -0.726672 -2.41818 0
M  V30 969 C 95.1053 -3.00461 -0.119879 0
M  V30 970 C 96.6533 -3.1242 -0.190428 0
M  V30 971 C 97.1283 -4.57982 -0.0406567 0
M  V30 972 N 98.6193 -4.63099 -0.0966958 0
M  V30 973 C 99.3543 -5.734 -0.00502943 0
M  V30 974 N 98.8503 -6.9266 0.139402 0
M  V30 975 N 100.643 -5.62067 -0.0611391 0
M  V30 976 H 92.7943 -1.88386 0.98105 0
M  V30 977 H 95.0573 -0.867865 0.381463 0
M  V30 978 H 94.7633 -3.41187 0.85349 0
M  V30 979 H 94.6373 -3.66843 -0.877833 0
M  V30 980 H 97.0243 -2.71589 -1.15427 0
M  V30 981 H 97.1053 -2.48702 0.598405 0
M  V30 982 H 96.7493 -4.995 0.919897 0
M  V30 983 H 96.6793 -5.19715 -0.848727 0
M  V30 984 H 99.1703 -3.77331 -0.207277 0
M  V30 985 H 99.4833 -7.72536 0.201855 0
M  V30 986 H 97.8283 -6.94781 0.174586 0
M  V30 987 H 101.019 -4.67782 -0.172583 0
M  V30 988 H 101.192 -6.47999 0.0137562 0
M  V30 989 N 94.5984 0.214957 -1.56127 0
M  V30 990 C 95.5614 1.24997 -1.92116 0
M  V30 991 C 96.5614 1.39467 -0.800344 0
M  V30 992 O 97.7514 1.37619 -1.06802 0
M  V30 993 C 94.8834 2.62271 -2.17777 0
M  V30 994 H 96.0764 0.942875 -2.84693 0
M  V30 995 H 93.6294 0.455654 -1.49511 0
M  V30 996 H 94.3644 2.98068 -1.27773 0
M  V30 997 H 94.1494 2.53143 -2.99434 0
M  V30 998 H 95.6394 3.36946 -2.46693 0
M  V30 999 N 96.0765 1.50051 0.48192 0
M  V30 1000 C 97.0065 1.71046 1.58951 0
M  V30 1001 C 97.9875 0.559288 1.60642 0
M  V30 1002 O 99.1725 0.797243 1.77081 0
M  V30 1003 C 96.3025 1.79462 2.97339 0
M  V30 1004 C 95.2565 2.94558 3.10515 0
M  V30 1005 C 94.5825 2.88105 4.50444 0
M  V30 1006 C 95.8825 4.35227 2.88747 0
M  V30 1007 H 97.5765 2.6378 1.41635 0
M  V30 1008 H 95.1225 1.26936 0.679942 0
M  V30 1009 H 97.0755 1.92734 3.74742 0
M  V30 1010 H 95.7995 0.833412 3.15788 0
M  V30 1011 H 94.4585 2.80918 2.35543 0
M  V30 1012 H 94.1065 1.89853 4.65795 0
M  V30 1013 H 93.8065 3.65366 4.60197 0
M  V30 1014 H 95.3305 3.03412 5.29881 0
M  V30 1015 H 96.7445 4.49449 3.55905 0
M  V30 1016 H 95.1415 5.13856 3.09955 0
M  V30 1017 H 96.2115 4.48347 1.84696 0
M  V30 1018 N 97.5546 -0.734337 1.39446 0
M  V30 1019 C 98.8006 -1.49505 1.37913 0
M  V30 1020 C 99.1556 -1.92384 -0.0248416 0
M  V30 1021 O 98.4486 -1.6395 -0.991506 0
M  V30 1022 C 98.6426 -2.74711 2.28623 0
M  V30 1023 C 98.4716 -2.44075 3.777 0
M  V30 1024 C 97.2416 -2.36338 4.46623 0
M  V30 1025 C 99.4396 -2.09574 4.69663 0
M  V30 1026 N 97.4216 -1.9818 5.81032 0
M  V30 1027 C 98.7926 -1.81865 5.92727 0
M  V30 1028 C 100.848 -1.96048 4.57678 0
M  V30 1029 C 99.5506 -1.41992 7.05146 0
M  V30 1030 C 101.577 -1.57579 5.7002 0
M  V30 1031 C 100.939 -1.30754 6.92158 0
M  V30 1032 H 97.0376 -0.545896 0.55993 0
M  V30 1033 H 99.6216 -0.853373 1.75002 0
M  V30 1034 H 97.7926 -3.36657 1.93692 0
M  V30 1035 H 99.5246 -3.40916 2.18078 0
M  V30 1036 H 96.2796 -2.53456 4.00071 0
M  V30 1037 H 96.7036 -1.81691 6.52163 0
M  V30 1038 H 101.346 -2.15455 3.63784 0
M  V30 1039 H 99.0636 -1.21327 7.9894 0
M  V30 1040 H 102.65 -1.47718 5.62735 0
M  V30 1041 H 101.53 -1.01432 7.77612 0
M  V30 1042 N 99.0327 -1.24633 -0.964593 0
M  V30 1043 C 100.279 -1.09957 -1.71117 0
M  V30 1044 C 100.634 0.357422 -1.89051 0
M  V30 1045 O 99.9267 1.26029 -1.44317 0
M  V30 1046 C 100.121 -1.7763 -3.10133 0
M  V30 1047 C 99.9497 -3.29759 -3.05759 0
M  V30 1048 C 98.7197 -3.98981 -3.10068 0
M  V30 1049 C 100.918 -4.26305 -2.87695 0
M  V30 1050 N 98.8997 -5.37966 -2.95747 0
M  V30 1051 C 100.271 -5.52308 -2.81702 0
M  V30 1052 C 102.326 -4.16842 -2.72299 0
M  V30 1053 C 101.029 -6.69931 -2.61887 0
M  V30 1054 C 103.055 -5.34147 -2.53853 0
M  V30 1055 C 102.417 -6.59084 -2.48572 0
M  V30 1056 H 98.5157 -0.457003 -0.634564 0
M  V30 1057 H 101.1 -1.57592 -1.14337 0
M  V30 1058 H 99.2707 -1.32504 -3.65099 0
M  V30 1059 H 101.003 -1.55786 -3.73514 0
M  V30 1060 H 97.7577 -3.50169 -3.18871 0
M  V30 1061 H 98.1817 -6.10877 -2.91818 0
M  V30 1062 H 102.824 -3.21007 -2.75163 0
M  V30 1063 H 100.542 -7.65886 -2.57767 0
M  V30 1064 H 104.128 -5.28678 -2.4288 0
M  V30 1065 H 103.008 -7.48324 -2.34481 0
M  V30 1066 N 100.511 1.16574 -1.06058 0
M  V30 1067 C 101.736 1.91493 -0.796562 0
M  V30 1068 C 102.161 1.76773 0.642868 0
M  V30 1069 O 101.519 1.09142 1.44768 0
M  V30 1070 C 101.567 3.40293 -1.19303 0
M  V30 1071 O 100.671 4.11074 -0.330394 0
M  V30 1072 H 100.012 0.596678 -0.291326 0
M  V30 1073 H 102.542 1.47708 -1.41575 0
M  V30 1074 H 102.552 3.91057 -1.16356 0
M  V30 1075 H 101.227 3.50326 -2.24153 0
M  V30 1076 H 99.8038 3.70513 -0.421225 0
M  V30 1077 N 101.989 0.842826 1.3317 0
M  V30 1078 C 103.235 0.441099 1.97945 0
M  V30 1079 C 103.568 -0.998024 1.66593 0
M  V30 1080 O 102.843 -1.69839 0.947898 0
M  V30 1081 C 103.126 0.666841 3.53872 0
M  V30 1082 C 102.979 2.15352 3.94897 0
M  V30 1083 C 104.298 0.115544 4.39948 0
M  V30 1084 H 101.417 0.161739 0.719034 0
M  V30 1085 H 104.059 1.05907 1.57746 0
M  V30 1086 H 102.209 0.140828 3.88245 0
M  V30 1087 H 103.881 2.7447 3.70761 0
M  V30 1088 H 102.124 2.63653 3.44484 0
M  V30 1089 H 102.795 2.26221 5.03516 0
M  V30 1090 H 105.271 0.565213 4.12243 0
M  V30 1091 H 104.147 0.303152 5.48062 0
M  V30 1092 H 104.408 -0.980935 4.3108 0
M  V30 1093 N 103.467 -1.45747 0.599634 0
M  V30 1094 C 104.377 -2.34262 -0.125888 0
M  V30 1095 C 105.393 -1.50768 -0.868625 0
M  V30 1096 O 106.569 -1.83592 -0.828003 0
M  V30 1097 C 103.634 -3.28252 -1.11587 0
M  V30 1098 C 102.695 -4.27651 -0.375956 0
M  V30 1099 C 101.928 -5.1715 -1.31877 0
M  V30 1100 O 102.151 -5.09916 -2.55621 0
M  V30 1101 O 101.085 -5.96286 -0.820157 0
M  V30 1102 H 104.911 -2.97688 0.601315 0
M  V30 1103 H 102.496 -1.44999 0.359934 0
M  V30 1104 H 104.378 -3.86191 -1.68626 0
M  V30 1105 H 103.053 -2.67401 -1.82424 0
M  V30 1106 H 101.96 -3.7335 0.236698 0
M  V30 1107 H 103.293 -4.91334 0.29177 0
M  V30 1108 N 104.945 -0.338344 -1.53925 0
M  V30 1109 C 106.173 0.261298 -2.05243 0
M  V30 1110 C 106.588 1.44625 -1.21363 0
M  V30 1111 O 105.945 1.80811 -0.247736 0
M  V30 1112 C 105.996 0.681412 -3.5502 0
M  V30 1113 O 105.717 -0.456414 -4.35716 0
M  V30 1114 C 107.218 1.34232 -4.22489 0
M  V30 1115 H 104.438 0.0513685 -0.669031 0
M  V30 1116 H 106.982 -0.488822 -1.98572 0
M  V30 1117 H 105.137 1.38148 -3.61931 0
M  V30 1118 H 105.551 -0.122564 -5.24357 0
M  V30 1119 H 107.025 1.58708 -5.28693 0
M  V30 1120 H 107.502 2.29426 -3.74514 0
M  V30 1121 H 108.108 0.684424 -4.19757 0
M  V30 1122 N 106.423 1.57458 -0.0668435 0
M  V30 1123 C 107.386 2.11323 0.887422 0
M  V30 1124 C 108.386 1.03618 1.22964 0
M  V30 1125 O 109.576 1.29626 1.16373 0
M  V30 1126 C 106.708 2.61048 2.19242 0
M  V30 1127 H 107.901 2.96942 0.420194 0
M  V30 1128 H 105.454 1.55239 0.181793 0
M  V30 1129 H 106.189 1.78868 2.70512 0
M  V30 1130 H 105.974 3.39769 1.95702 0
M  V30 1131 H 107.464 3.02814 2.87565 0
M  V30 1132 N 107.901 -0.206675 1.56239 0
M  V30 1133 C 109.129 -0.945345 1.8404 0
M  V30 1134 C 109.544 -1.77336 0.647885 0
M  V30 1135 O 108.901 -1.78425 -0.383511 0
M  V30 1136 C 108.952 -1.8509 3.10522 0
M  V30 1137 O 108.673 -1.05634 4.25174 0
M  V30 1138 C 110.174 -2.70222 3.51418 0
M  V30 1139 H 107.394 -0.276372 0.61144 0
M  V30 1140 H 109.938 -0.217417 2.03341 0
M  V30 1141 H 108.093 -2.53259 2.93153 0
M  V30 1142 H 108.507 -1.67238 4.97124 0
M  V30 1143 H 109.981 -3.29438 4.42916 0
M  V30 1144 H 110.458 -3.43358 2.73864 0
M  V30 1145 H 111.064 -2.07443 3.71278 0
M  V30 1146 N 109.379 -1.50304 -0.473955 0
M  V30 1147 C 110.607 -1.64902 -1.24959 0
M  V30 1148 C 111.022 -0.331198 -1.85872 0
M  V30 1149 O 110.379 0.68652 -1.69095 0
M  V30 1150 C 110.43 -2.73803 -2.36038 0
M  V30 1151 O 110.151 -4.00477 -1.77624 0
M  V30 1152 C 111.652 -2.99349 -3.26964 0
M  V30 1153 H 108.872 -0.554383 -0.378022 0
M  V30 1154 H 111.416 -1.9651 -0.566054 0
M  V30 1155 H 109.571 -2.44898 -3.00173 0
M  V30 1156 H 109.985 -4.60678 -2.5075 0
M  V30 1157 H 111.459 -3.79217 -4.01121 0
M  V30 1158 H 111.936 -2.10307 -3.85574 0
M  V30 1159 H 112.542 -3.29774 -2.68569 0
M  V30 1160 N 110.857 0.726932 -1.39834 0
M  V30 1161 C 112.103 1.48884 -1.377 0
M  V30 1162 C 112.436 1.94185 0.0244852 0
M  V30 1163 O 111.711 1.67361 0.990986 0
M  V30 1164 C 111.994 2.72288 -2.3565 0
M  V30 1165 C 111.847 2.32956 -3.84775 0
M  V30 1166 C 113.166 3.74414 -2.31306 0
M  V30 1167 H 110.285 0.540062 -0.5015 0
M  V30 1168 H 112.927 0.830547 -1.70886 0
M  V30 1169 H 111.077 3.28457 -2.07481 0
M  V30 1170 H 112.749 1.82356 -4.23726 0
M  V30 1171 H 110.992 1.65088 -4.01159 0
M  V30 1172 H 111.663 3.21362 -4.4881 0
M  V30 1173 H 114.139 3.27849 -2.56231 0
M  V30 1174 H 113.015 4.58414 -3.01907 0
M  V30 1175 H 113.276 4.21909 -1.32081 0
M  V30 1176 N 112.336 1.25143 0.95797 0
M  V30 1177 C 113.584 1.09476 1.69881 0
M  V30 1178 C 113.905 -0.365502 1.91544 0
M  V30 1179 O 113.175 -1.25985 1.50015 0
M  V30 1180 H 111.755 0.402128 0.629525 0
M  V30 1181 H 114.417 1.57214 1.15194 0
M  V30 1182 H 113.513 1.60046 2.6794 0
M  V30 1183 N 113.814 -1.1601 1.06675 0
M  V30 1184 C 115.044 -1.90251 0.805497 0
M  V30 1185 C 115.452 -1.77891 -0.64431 0
M  V30 1186 O 114.795 -1.12383 -1.45313 0
M  V30 1187 C 114.857 -3.41419 1.12576 0
M  V30 1188 C 114.521 -3.77564 2.57477 0
M  V30 1189 C 115.518 -3.79161 3.55715 0
M  V30 1190 C 113.203 -4.08079 2.92877 0
M  V30 1191 C 115.197 -4.10767 4.8739 0
M  V30 1192 C 112.884 -4.39351 4.24751 0
M  V30 1193 C 113.882 -4.40675 5.21818 0
M  V30 1194 O 113.57 -4.71202 6.51325 0
M  V30 1195 H 113.302 -0.610018 0.291297 0
M  V30 1196 H 115.856 -1.47958 1.4247 0
M  V30 1197 H 114.086 -3.84079 0.449503 0
M  V30 1198 H 115.775 -3.9694 0.84814 0
M  V30 1199 H 116.541 -3.55693 3.29708 0
M  V30 1200 H 112.42 -4.06211 2.17976 0
M  V30 1201 H 115.964 -4.11715 5.63148 0
M  V30 1202 H 111.861 -4.62285 4.50514 0
M  V30 1203 H 112.629 -4.88996 6.56373 0
M  V30 1204 N 115.292 -0.849877 -1.32721 0
M  V30 1205 C 116.54 -0.450032 -1.97026 0
M  V30 1206 C 116.861 0.996604 -1.67609 0
M  V30 1207 O 116.131 1.6958 -0.980786 0
M  V30 1208 H 114.711 -0.163426 -0.728904 0
M  V30 1209 H 117.373 -1.08526 -1.6189 0
M  V30 1210 H 116.469 -0.591146 -3.0645 0
M  V30 1211 N 116.77 1.45427 -0.607355 0
M  V30 1212 C 118.047 1.9557 -0.0344566 0
M  V30 1213 C 118.427 1.54979 1.43334 0
M  V30 1214 O 117.775 0.812241 2.13576 0
M  V30 1215 C 117.985 3.48226 -0.232321 0
M  V30 1216 C 119.333 4.2445 -0.113001 0
M  V30 1217 O 120.357 3.55829 -0.162431 0
M  V30 1218 O 119.216 5.465 0.00209442 0
M  V30 1219 H 116.31 0.826222 0.0358667 0
M  V30 1220 H 118.856 1.55594 -0.6774 0
M  V30 1221 H 117.628 3.70739 -1.25174 0
M  V30 1222 H 117.251 3.95092 0.445896 0
M  V30 1223 N 118.248 0.346503 1.53744 0
M  V30 1224 C 119.178 -0.501193 2.28058 0
M  V30 1225 C 120.159 -1.10014 1.29734 0
M  V30 1226 O 121.344 -1.12097 1.58581 0
M  V30 1227 C 118.474 -1.65078 3.05559 0
M  V30 1228 C 117.428 -1.18003 4.11411 0
M  V30 1229 C 116.754 -2.41837 4.76884 0
M  V30 1230 C 118.054 -0.278394 5.21558 0
M  V30 1231 H 119.748 0.11875 2.99164 0
M  V30 1232 H 117.294 0.0585531 1.43881 0
M  V30 1233 H 119.247 -2.25028 3.56287 0
M  V30 1234 H 117.971 -2.29767 2.32109 0
M  V30 1235 H 116.63 -0.603331 3.61601 0
M  V30 1236 H 116.278 -3.0494 4.00026 0
M  V30 1237 H 115.978 -2.1102 5.48402 0
M  V30 1238 H 117.502 -3.02508 5.30397 0
M  V30 1239 H 118.916 -0.784823 5.67903 0
M  V30 1240 H 117.313 -0.0619707 6.00068 0
M  V30 1241 H 118.383 0.684677 4.80042 0
M  V30 1242 N 119.726 -1.57421 0.075193 0
M  V30 1243 C 120.956 -1.97659 -0.601203 0
M  V30 1244 C 121.364 -0.952427 -1.63479 0
M  V30 1245 O 120.707 0.0688241 -1.83571 0
M  V30 1246 C 120.769 -3.34218 -1.32434 0
M  V30 1247 C 120.433 -4.5484 -0.443826 0
M  V30 1248 C 121.43 -5.19034 0.299969 0
M  V30 1249 C 119.115 -5.00952 -0.367709 0
M  V30 1250 C 121.109 -6.27695 1.10807 0
M  V30 1251 C 118.796 -6.09484 0.444058 0
M  V30 1252 C 119.794 -6.72719 1.18061 0
M  V30 1253 O 119.482 -7.79161 1.97898 0
M  V30 1254 H 119.214 -0.65494 -0.167422 0
M  V30 1255 H 121.768 -2.04886 0.145157 0
M  V30 1256 H 119.998 -3.23615 -2.11685 0
M  V30 1257 H 121.687 -3.59038 -1.89331 0
M  V30 1258 H 122.453 -4.84351 0.250776 0
M  V30 1259 H 118.332 -4.51509 -0.930638 0
M  V30 1260 H 121.876 -6.76982 1.68347 0
M  V30 1261 H 117.773 -6.43601 0.494803 0
M  V30 1262 H 118.541 -7.96055 1.90367 0
M  V30 1263 N 121.204 0.198386 -1.56346 0
M  V30 1264 C 122.615 0.763358 -1.70381 0
M  V30 1265 C 122.966 1.83995 -0.681203 0
M  V30 1266 O 122.091 2.15785 0.16305 0
M  V30 1267 C 122.686 1.39143 -3.08909 0
M  V30 1268 C 121.245 1.90352 -3.2472 0
M  V30 1269 C 120.392 0.772233 -2.6633 0
M  V30 1270 H 123.343 -0.0266377 -1.58678 0
M  V30 1271 H 123.364 2.26076 -3.06055 0
M  V30 1272 H 122.876 0.607638 -3.83314 0
M  V30 1273 H 120.977 2.71461 -2.55225 0
M  V30 1274 H 121.09 2.06757 -4.3219 0
M  V30 1275 H 119.454 1.18566 -2.2542 0
M  V30 1276 H 120.237 0.00073556 -3.433 0
M  V30 1277 N 122.682 1.50554 0.465978 0
M  V30 1278 C 123.928 1.62038 1.21949 0
M  V30 1279 C 124.261 0.322116 1.9151 0
M  V30 1280 O 123.536 -0.676723 1.82348 0
M  V30 1281 C 123.819 2.80421 2.25912 0
M  V30 1282 C 123.672 4.20144 1.60622 0
M  V30 1283 C 124.991 2.94354 3.27176 0
M  V30 1284 H 122.11 0.589752 0.441998 0
M  V30 1285 H 124.752 1.82956 0.51257 0
M  V30 1286 H 122.902 2.62717 2.86203 0
M  V30 1287 H 124.574 4.49449 1.03889 0
M  V30 1288 H 122.817 4.24165 0.909211 0
M  V30 1289 H 123.488 4.98914 2.36196 0
M  V30 1290 H 125.964 3.10578 2.76913 0
M  V30 1291 H 124.84 3.788 3.97242 0
M  V30 1292 H 125.101 2.05186 3.916 0
M  V30 1293 N 124.16 -0.719506 1.40217 0
M  V30 1294 C 125.388 -1.50864 1.41589 0
M  V30 1295 C 125.803 -1.88794 0.0145275 0
M  V30 1296 O 125.16 -1.55174 -0.960594 0
M  V30 1297 C 125.211 -2.78646 2.30302 0
M  V30 1298 O 124.932 -2.42321 3.64983 0
M  V30 1299 C 126.433 -3.72569 2.40224 0
M  V30 1300 H 123.653 -0.465709 0.48307 0
M  V30 1301 H 126.197 -0.88785 1.84221 0
M  V30 1302 H 124.352 -3.37019 1.91042 0
M  V30 1303 H 124.766 -3.24514 4.12057 0
M  V30 1304 H 126.24 -4.5908 3.06512 0
M  V30 1305 H 126.717 -4.15403 1.42608 0
M  V30 1306 H 127.323 -3.20109 2.80019 0
M  V30 1307 N 125.638 -1.25649 -0.95132 0
M  V30 1308 C 126.568 -1.08808 -2.06599 0
M  V30 1309 C 127.549 0.00382547 -1.701 0
M  V30 1310 O 128.734 -0.166325 -1.93486 0
M  V30 1311 C 125.864 -0.709542 -3.39975 0
M  V30 1312 C 124.818 -1.75206 -3.90496 0
M  V30 1313 C 124.144 -1.22811 -5.20405 0
M  V30 1314 C 125.444 -3.15153 -4.16504 0
M  V30 1315 H 127.138 -2.02048 -2.20946 0
M  V30 1316 H 124.684 -0.972835 -1.06169 0
M  V30 1317 H 126.637 -0.578649 -4.17408 0
M  V30 1318 H 125.361 0.258556 -3.25575 0
M  V30 1319 H 124.02 -1.87145 -3.15234 0
M  V30 1320 H 123.668 -0.250145 -5.02378 0
M  V30 1321 H 123.368 -1.92492 -5.55176 0
M  V30 1322 H 124.892 -1.10968 -6.00432 0
M  V30 1323 H 126.306 -3.06349 -4.84586 0
M  V30 1324 H 124.703 -3.82333 -4.62538 0
M  V30 1325 H 125.773 -3.61966 -3.22658 0
M  V30 1326 N 127.117 1.15442 -1.07289 0
M  V30 1327 C 128.363 1.8672 -0.806679 0
M  V30 1328 C 128.718 1.80723 0.660084 0
M  V30 1329 O 128.011 1.21902 1.47819 0
M  V30 1330 C 128.205 3.3489 -1.24834 0
M  V30 1331 C 128.034 3.55313 -2.7565 0
M  V30 1332 C 126.804 3.7082 -3.4325 0
M  V30 1333 C 129.002 3.53188 -3.73848 0
M  V30 1334 N 126.984 3.7929 -4.82713 0
M  V30 1335 C 128.355 3.67765 -4.99149 0
M  V30 1336 C 130.41 3.36459 -3.67015 0
M  V30 1337 C 129.113 3.6734 -6.18428 0
M  V30 1338 C 131.139 3.37333 -4.85758 0
M  V30 1339 C 130.501 3.52438 -6.09891 0
M  V30 1340 H 126.6 0.700433 -0.347733 0
M  V30 1341 H 129.184 1.38441 -1.36902 0
M  V30 1342 H 127.355 3.81786 -0.713713 0
M  V30 1343 H 129.087 3.93875 -0.929745 0
M  V30 1344 H 125.842 3.71568 -2.93656 0
M  V30 1345 H 126.266 3.8727 -5.55294 0
M  V30 1346 H 130.908 3.237 -2.71989 0
M  V30 1347 H 128.626 3.78878 -7.13777 0
M  V30 1348 H 132.212 3.25617 -4.82146 0
M  V30 1349 H 131.092 3.53047 -7.00234 0
M  V30 1350 N 128.595 0.856903 1.32268 0
M  V30 1351 C 129.843 0.460474 1.96784 0
M  V30 1352 C 130.164 -0.987701 1.68135 0
M  V30 1353 O 129.434 -1.69058 0.989765 0
M  V30 1354 H 128.014 0.167289 0.728027 0
M  V30 1355 H 130.676 1.09383 1.61312 0
M  V30 1356 H 129.772 0.60739 3.06133 0
M  V30 1357 N 130.073 -1.45103 0.615059 0
M  V30 1358 C 131.489 -1.57137 0.279322 0
M  V30 1359 C 131.689 -1.60523 -1.21797 0
M  V30 1360 O 130.745 -1.53956 -2.00134 0
M  V30 1361 C 132.058 -2.85062 0.957083 0
M  V30 1362 C 133.606 -2.98749 0.933706 0
M  V30 1363 C 134.081 -4.29455 1.59162 0
M  V30 1364 N 135.572 -4.36231 1.55746 0
M  V30 1365 C 136.307 -5.36051 2.0356 0
M  V30 1366 N 135.803 -6.42367 2.59494 0
M  V30 1367 N 137.596 -5.27456 1.94284 0
M  V30 1368 H 129.747 -1.41148 1.58717 0
M  V30 1369 H 132.01 -0.675331 0.665306 0
M  V30 1370 H 131.716 -2.88488 2.01166 0
M  V30 1371 H 131.59 -3.7407 0.48494 0
M  V30 1372 H 133.977 -2.94886 -0.112347 0
M  V30 1373 H 134.058 -2.11132 1.44419 0
M  V30 1374 H 133.702 -4.34077 2.63704 0
M  V30 1375 H 133.632 -5.15901 1.0561 0
M  V30 1376 H 136.123 -3.60011 1.14893 0
M  V30 1377 H 136.436 -7.14793 2.93752 0
M  V30 1378 H 134.781 -6.43097 2.63537 0
M  V30 1379 H 137.972 -4.43308 1.5032 0
M  V30 1380 H 138.145 -6.05099 2.3186 0
M  V30 1381 N 131.551 -0.354651 -1.53558 0
M  V30 1382 C 132.481 0.489091 -2.2832 0
M  V30 1383 C 133.462 1.09324 -1.30316 0
M  V30 1384 O 134.647 1.11255 -1.59173 0
M  V30 1385 C 131.777 1.63456 -3.0643 0
M  V30 1386 C 130.731 1.1582 -4.12031 0
M  V30 1387 C 130.057 2.39305 -4.7816 0
M  V30 1388 C 131.357 0.250731 -5.21698 0
M  V30 1389 H 133.051 -0.134614 -2.99097 0
M  V30 1390 H 130.597 -0.0661826 -1.43848 0
M  V30 1391 H 132.55 2.23136 -3.57475 0
M  V30 1392 H 131.274 2.28533 -2.33325 0
M  V30 1393 H 129.933 0.584146 -3.61916 0
M  V30 1394 H 129.581 3.02814 -4.01637 0
M  V30 1395 H 129.281 2.08109 -5.49513 0
M  V30 1396 H 130.805 2.99691 -5.31994 0
M  V30 1397 H 132.219 0.754695 -5.68311 0
M  V30 1398 H 130.616 0.0301468 -6.00092 0
M  V30 1399 H 131.686 -0.710125 -4.79672 0
M  V30 1400 N 133.029 1.57378 -0.0835403 0
M  V30 1401 C 134.275 1.94217 0.583733 0
M  V30 1402 C 134.608 0.964653 1.68547 0
M  V30 1403 O 133.883 -0.00422258 1.945 0
M  V30 1404 C 134.166 3.41253 1.14972 0
M  V30 1405 C 134.019 4.49768 0.0538277 0
M  V30 1406 C 135.338 3.89352 2.05166 0
M  V30 1407 H 132.457 0.706233 0.210724 0
M  V30 1408 H 135.099 1.89392 -0.1519 0
M  V30 1409 H 133.249 3.45496 1.77665 0
M  V30 1410 H 134.921 4.57641 -0.579851 0
M  V30 1411 H 133.164 4.29432 -0.614068 0
M  V30 1412 H 133.835 5.49817 0.490452 0
M  V30 1413 H 136.311 3.87189 1.52393 0
M  V30 1414 H 135.187 4.92822 2.41698 0
M  V30 1415 H 135.448 3.27973 2.96456 0
M  V30 1416 N 134.507 -0.190092 1.56449 0
M  V30 1417 C 135.47 -1.21925 1.9408 0
M  V30 1418 C 136.47 -1.38176 0.822431 0
M  V30 1419 O 137.66 -1.35903 1.08977 0
M  V30 1420 C 134.792 -2.58773 2.21922 0
M  V30 1421 H 135.985 -0.897464 2.86157 0
M  V30 1422 H 133.538 -0.43181 1.50217 0
M  V30 1423 H 134.273 -2.95998 1.32499 0
M  V30 1424 H 134.058 -2.48348 3.03424 0
M  V30 1425 H 135.548 -3.32978 2.52022 0
M  V30 1426 N 135.985 -1.50799 -0.457987 0
M  V30 1427 C 137.231 -1.62683 -1.21088 0
M  V30 1428 C 137.564 -0.332268 -1.91336 0
M  V30 1429 O 136.839 0.667043 -1.82704 0
M  V30 1430 C 137.122 -2.81615 -2.24422 0
M  V30 1431 C 136.975 -4.20989 -1.58392 0
M  V30 1432 C 138.294 -2.96085 -3.2561 0
M  V30 1433 H 135.413 -0.592087 -0.438864 0
M  V30 1434 H 138.055 -1.83225 -0.50286 0
M  V30 1435 H 136.205 -2.64231 -2.84806 0
M  V30 1436 H 137.877 -4.49994 -1.01504 0
M  V30 1437 H 136.12 -4.24641 -0.886704 0
M  V30 1438 H 136.791 -5.0016 -2.33547 0
M  V30 1439 H 139.267 -3.12042 -2.75262 0
M  V30 1440 H 138.143 -3.80902 -3.95228 0
M  V30 1441 H 138.404 -2.0726 -3.90507 0
M  V30 1442 N 137.463 0.71206 -1.40597 0
M  V30 1443 C 138.709 1.47416 -1.39271 0
M  V30 1444 C 139.042 1.942 0.00388791 0
M  V30 1445 O 138.317 1.68403 0.973179 0
M  V30 1446 C 138.6 2.69774 -2.38525 0
M  V30 1447 C 138.453 2.28861 -3.87224 0
M  V30 1448 C 139.772 3.71939 -2.35264 0
M  V30 1449 H 136.891 0.534713 -0.5072 0
M  V30 1450 H 139.533 0.812375 -1.71757 0
M  V30 1451 H 137.683 3.26238 -2.10953 0
M  V30 1452 H 139.355 1.77852 -4.25636 0
M  V30 1453 H 137.598 1.60824 -4.02887 0
M  V30 1454 H 138.269 3.16584 -4.52193 0
M  V30 1455 H 140.745 3.25113 -2.59694 0
M  V30 1456 H 139.621 4.55186 -3.06753 0
M  V30 1457 H 139.882 4.20484 -1.36549 0
M  V30 1458 N 138.941 1.26152 0.944643 0
M  V30 1459 C 140.187 1.11657 1.69294 0
M  V30 1460 C 140.52 -0.339926 1.91202 0
M  V30 1461 O 139.795 -1.24994 1.49019 0
M  V30 1462 C 140.078 1.88236 3.06984 0
M  V30 1463 C 139.931 3.41772 2.92424 0
M  V30 1464 C 141.25 1.67343 4.07043 0
M  V30 1465 H 138.369 0.407004 0.614424 0
M  V30 1466 H 141.011 1.55106 1.09737 0
M  V30 1467 H 139.161 1.51308 3.57824 0
M  V30 1468 H 140.833 3.88433 2.48832 0
M  V30 1469 H 139.076 3.68974 2.28124 0
M  V30 1470 H 139.747 3.90579 3.90067 0
M  V30 1471 H 142.223 1.99509 3.65151 0
M  V30 1472 H 141.099 2.23346 5.01406 0
M  V30 1473 H 141.36 0.617158 4.37771 0
M  V30 1474 N 140.419 -1.14872 1.07899 0
M  V30 1475 C 141.352 -2.18794 0.64841 0
M  V30 1476 C 142.33 -1.59065 -0.337189 0
M  V30 1477 O 143.514 -1.86936 -0.242284 0
M  V30 1478 C 140.641 -3.38667 -0.0470417 0
M  V30 1479 C 139.687 -4.16942 0.897884 0
M  V30 1480 S 140.52 -4.78615 2.40183 0
M  V30 1481 C 141.676 -6.0185 1.71834 0
M  V30 1482 H 141.909 -2.5498 1.52881 0
M  V30 1483 H 139.442 -1.25922 0.893484 0
M  V30 1484 H 141.4 -4.08113 -0.442027 0
M  V30 1485 H 140.061 -3.00814 -0.903861 0
M  V30 1486 H 139.254 -5.02726 0.358096 0
M  V30 1487 H 138.856 -3.53073 1.23352 0
M  V30 1488 H 141.148 -6.69574 1.03328 0
M  V30 1489 H 142.091 -6.60408 2.55473 0
M  V30 1490 H 142.499 -5.5173 1.19392 0
M  V30 1491 N 141.898 -0.863906 -1.31812 0
M  V30 1492 C 143.144 -0.472535 -1.97218 0
M  V30 1493 C 143.477 0.971394 -1.68159 0
M  V30 1494 O 142.752 1.68309 -0.974798 0
M  V30 1495 C 143.035 -0.723054 -3.52766 0
M  V30 1496 C 142.888 -2.21608 -3.91421 0
M  V30 1497 C 144.207 -0.185522 -4.39709 0
M  V30 1498 H 141.326 -0.173158 -0.71637 0
M  V30 1499 H 143.968 -1.08403 -1.56041 0
M  V30 1500 H 142.118 -0.202577 -3.87971 0
M  V30 1501 H 143.79 -2.80334 -3.66347 0
M  V30 1502 H 142.033 -2.691 -3.40246 0
M  V30 1503 H 142.704 -2.34203 -4.99853 0
M  V30 1504 H 145.18 -0.630726 -4.11292 0
M  V30 1505 H 144.056 -0.390306 -5.47511 0
M  V30 1506 H 144.317 0.912229 -4.32586 0
M  V30 1507 N 143.376 1.44774 -0.622745 0
M  V30 1508 C 144.339 2.29069 0.0774015 0
M  V30 1509 C 145.339 1.4059 0.780461 0
M  V30 1510 O 146.529 1.62551 0.626322 0
M  V30 1511 C 143.661 3.21974 1.12006 0
M  V30 1512 H 144.854 2.92459 -0.663901 0
M  V30 1513 H 142.407 1.51548 -0.382486 0
M  V30 1514 H 143.142 2.63417 1.89162 0
M  V30 1515 H 142.927 3.87168 0.619951 0
M  V30 1516 H 144.417 3.85318 1.60995 0
M  V30 1517 N 144.854 0.36279 1.53368 0
M  V30 1518 C 146.102 -0.227326 2.00817 0
M  V30 1519 C 146.423 -1.49511 1.25186 0
M  V30 1520 O 145.693 -1.92482 0.364348 0
M  V30 1521 H 144.273 -0.0869923 0.741917 0
M  V30 1522 H 146.935 0.488381 1.88682 0
M  V30 1523 H 146.031 -0.456273 3.08747 0
M  V30 1524 N 146.332 -1.57332 0.0918853 0
M  V30 1525 C 147.581 -1.93412 -0.572249 0
M  V30 1526 C 147.894 -0.975515 -1.69538 0
M  V30 1527 O 149.1 -1.22991 -2.42045 0
M  V30 1528 C 147.556 -3.43648 -1.0693 0
M  V30 1529 C 147.164 -4.47994 0.0239049 0
M  V30 1530 C 148.908 -3.88695 -1.70635 0
M  V30 1531 C 146.815 -5.89381 -0.488319 0
M  V30 1532 H 145.745 -0.721939 -0.217532 0
M  V30 1533 H 148.396 -1.82735 0.167369 0
M  V30 1534 H 146.778 -3.49466 -1.8625 0
M  V30 1535 H 147.952 -4.53815 0.799277 0
M  V30 1536 H 146.267 -4.12536 0.565946 0
M  V30 1537 H 148.864 -4.91725 -2.10025 0
M  V30 1538 H 149.207 -3.27166 -2.57426 0
M  V30 1539 H 149.74 -3.85564 -0.979023 0
M  V30 1540 H 146.479 -6.54602 0.342906 0
M  V30 1541 H 145.999 -5.87037 -1.23077 0
M  V30 1542 H 147.678 -6.39863 -0.958317 0
M  V30 1543 N 147.81 0.181792 -1.56548 0
M  V30 1544 C 149.038 0.915947 -1.85521 0
M  V30 1545 C 149.453 1.76282 -0.676016 0
M  V30 1546 O 148.81 1.79012 0.355077 0
M  V30 1547 C 148.861 1.80126 -3.13427 0
M  V30 1548 O 148.582 0.988562 -4.26801 0
M  V30 1549 C 150.083 2.64597 -3.55673 0
M  V30 1550 H 147.303 0.26661 -0.61576 0
M  V30 1551 H 149.847 0.185039 -2.03661 0
M  V30 1552 H 148.002 2.48563 -2.97145 0
M  V30 1553 H 148.416 1.59308 -4.99721 0
M  V30 1554 H 149.89 3.2235 -4.48101 0
M  V30 1555 H 150.367 3.38958 -2.79292 0
M  V30 1556 H 150.973 2.0151 -3.74532 0
M  V30 1557 N 149.288 1.51039 0.449983 0
M  V30 1558 C 150.513 1.6715 1.22783 0
M  V30 1559 C 150.938 0.363081 1.84563 0
M  V30 1560 O 150.296 -0.675433 1.68249 0
M  V30 1561 C 150.344 2.77985 2.29689 0
M  V30 1562 O 149.448 2.40707 3.34864 0
M  V30 1563 H 148.789 0.557746 0.360299 0
M  V30 1564 H 151.319 1.97535 0.533005 0
M  V30 1565 H 151.329 3.01693 2.74673 0
M  V30 1566 H 150.004 3.72935 1.84098 0
M  V30 1567 H 148.581 2.27523 2.95445 0
M  V30 1568 N 150.766 -0.704594 1.40972 0
M  V30 1569 C 152.013 -1.46458 1.39844 0
M  V30 1570 C 152.341 -1.94499 0.00447594 0
M  V30 1571 O 151.596 -1.69275 -0.982057 0
M  V30 1572 C 151.895 -2.698 2.34399 0
M  V30 1573 C 151.561 -2.40464 3.81429 0
M  V30 1574 C 150.223 -2.32174 4.21484 0
M  V30 1575 C 152.575 -2.16086 4.74296 0
M  V30 1576 C 149.903 -1.97589 5.52427 0
M  V30 1577 C 152.255 -1.83011 6.05549 0
M  V30 1578 C 150.919 -1.7321 6.44635 0
M  V30 1579 H 150.189 -0.535927 0.511725 0
M  V30 1580 H 152.836 -0.806124 1.73706 0
M  V30 1581 H 151.141 -3.40536 1.93759 0
M  V30 1582 H 152.838 -3.27919 2.30804 0
M  V30 1583 H 149.428 -2.47808 3.49699 0
M  V30 1584 H 153.612 -2.2144 4.4416 0
M  V30 1585 H 148.868 -1.88547 5.81601 0
M  V30 1586 H 153.042 -1.63164 6.77016 0
M  V30 1587 H 150.669 -1.46179 7.46013 0
M  V30 1588 N 152.244 -1.26651 -0.937939 0
M  V30 1589 C 153.492 -1.12165 -1.68118 0
M  V30 1590 C 153.813 0.334983 -1.92101 0
M  V30 1591 O 153.083 1.23583 -1.52 0
M  V30 1592 H 151.663 -0.412093 -0.623048 0
M  V30 1593 H 154.325 -1.59027 -1.12678 0
M  V30 1594 H 153.421 -1.64289 -2.6536 0
M  V30 1595 N 153.722 1.14298 -1.08507 0
M  V30 1596 C 154.652 2.21542 -0.737646 0
M  V30 1597 C 155.633 1.67773 0.280377 0
M  V30 1598 O 156.818 1.93616 0.150521 0
M  V30 1599 C 153.948 3.46988 -0.147259 0
M  V30 1600 C 152.902 4.13789 -1.09374 0
M  V30 1601 C 152.228 5.33449 -0.365524 0
M  V30 1602 C 153.528 4.62208 -2.4323 0
M  V30 1603 H 155.222 2.5086 -1.6343 0
M  V30 1604 H 152.768 1.20576 -0.787243 0
M  V30 1605 H 154.721 4.21262 0.107808 0
M  V30 1606 H 153.445 3.17037 0.784538 0
M  V30 1607 H 152.104 3.4147 -1.33393 0
M  V30 1608 H 151.752 4.99759 0.57011 0
M  V30 1609 H 151.452 5.79088 -0.996512 0
M  V30 1610 H 152.976 6.10485 -0.118534 0
M  V30 1611 H 154.39 5.27952 -2.23472 0
M  V30 1612 H 152.787 5.18553 -3.02031 0
M  V30 1613 H 153.857 3.77224 -3.04681 0
M  V30 1614 N 155.201 0.870884 1.31352 0
M  V30 1615 C 156.447 0.482987 1.96965 0
M  V30 1616 C 156.78 -0.962462 1.68672 0
M  V30 1617 O 156.055 -1.6779 0.98371 0
M  V30 1618 C 156.338 0.741752 3.52378 0
M  V30 1619 C 156.191 2.2368 3.9024 0
M  V30 1620 C 157.51 0.208838 4.39604 0
M  V30 1621 H 154.629 0.176955 0.715441 0
M  V30 1622 H 157.271 1.09229 1.55464 0
M  V30 1623 H 155.421 0.223149 3.87859 0
M  V30 1624 H 157.093 2.82273 3.64856 0
M  V30 1625 H 155.336 2.70901 3.38814 0
M  V30 1626 H 156.007 2.3685 4.98604 0
M  V30 1627 H 158.483 0.652529 4.10952 0
M  V30 1628 H 157.359 0.419336 5.47296 0
M  V30 1629 H 157.62 -0.889275 4.33064 0
M  V30 1630 N 156.679 -1.44442 0.630414 0
M  V30 1631 C 157.907 -2.06414 0.141671 0
M  V30 1632 C 158.322 -1.47105 -1.18345 0
M  V30 1633 O 157.679 -0.593662 -1.72574 0
M  V30 1634 C 157.73 -3.61494 0.0199784 0
M  V30 1635 O 157.451 -4.18594 1.29269 0
M  V30 1636 C 158.952 -4.40499 -0.497544 0
M  V30 1637 H 156.172 -0.666292 0.0793452 0
M  V30 1638 H 158.716 -1.85323 0.864614 0
M  V30 1639 H 156.871 -3.8185 -0.653402 0
M  V30 1640 H 157.285 -5.12026 1.13707 0
M  V30 1641 H 158.759 -5.49433 -0.531708 0
M  V30 1642 H 159.236 -4.11895 -1.52445 0
M  V30 1643 H 159.842 -4.25061 0.142562 0
M  V30 1644 N 158.157 -0.370918 -1.53173 0
M  V30 1645 C 159.12 0.460778 -2.24521 0
M  V30 1646 C 160.12 1.00536 -1.25496 0
M  V30 1647 O 161.31 0.890266 -1.49733 0
M  V30 1648 C 158.442 1.64457 -2.98608 0
M  V30 1649 H 159.635 -0.163613 -2.99453 0
M  V30 1650 H 157.188 -0.122699 -1.55818 0
M  V30 1651 H 157.923 2.30691 -2.2793 0
M  V30 1652 H 157.708 1.26099 -3.7127 0
M  V30 1653 H 159.198 2.23384 -3.5283 0
M  V30 1654 N 159.635 1.57281 -0.100228 0
M  V30 1655 C 160.598 2.13158 0.842398 0
M  V30 1656 C 161.598 1.06202 1.20738 0
M  V30 1657 O 162.788 1.32066 1.13597 0
M  V30 1658 C 159.92 2.65639 2.13655 0
M  V30 1659 H 161.113 2.97766 0.357114 0
M  V30 1660 H 158.666 1.5559 0.148823 0
M  V30 1661 H 159.401 1.84566 2.66657 0
M  V30 1662 H 159.186 3.43844 1.88451 0
M  V30 1663 H 160.676 3.08846 2.81077 0
M  V30 1664 N 161.113 -0.173488 1.56642 0
M  V30 1665 C 162.043 -1.2171 1.99271 0
M  V30 1666 C 163.024 -1.46289 0.867959 0
M  V30 1667 O 164.209 -1.5766 1.13388 0
M  V30 1668 C 161.339 -2.55651 2.35074 0
M  V30 1669 C 160.293 -2.45645 3.50489 0
M  V30 1670 C 159.619 -3.84056 3.72028 0
M  V30 1671 C 160.919 -1.96302 4.84007 0
M  V30 1672 H 162.613 -0.86275 2.867 0
M  V30 1673 H 160.159 -0.413571 1.37933 0
M  V30 1674 H 162.112 -3.2886 2.63494 0
M  V30 1675 H 160.836 -2.92869 1.44552 0
M  V30 1676 H 159.495 -1.7489 3.22194 0
M  V30 1677 H 159.143 -4.18664 2.788 0
M  V30 1678 H 158.843 -3.7823 4.49684 0
M  V30 1679 H 160.367 -4.58854 4.02846 0
M  V30 1680 H 161.781 -2.59284 5.11317 0
M  V30 1681 H 160.178 -2.01429 5.65284 0
M  V30 1682 H 161.248 -0.917226 4.76146 0
M  V30 1683 N 162.591 -1.51276 -0.441967 0
M  V30 1684 C 163.554 -1.7167 -1.51862 0
M  V30 1685 C 164.554 -0.586793 -1.49711 0
M  V30 1686 O 165.744 -0.854276 -1.51815 0
M  V30 1687 C 162.876 -1.76889 -2.91416 0
M  V30 1688 H 164.069 -2.67754 -1.35084 0
M  V30 1689 H 161.622 -1.41196 -0.670333 0
M  V30 1690 H 162.357 -0.826026 -3.13604 0
M  V30 1691 H 162.142 -2.59001 -2.94382 0
M  V30 1692 H 163.632 -1.94522 -3.69528 0
M  V30 1693 N 164.069 0.697108 -1.41344 0
M  V30 1694 C 165.297 1.48593 -1.43972 0
M  V30 1695 C 165.712 1.88747 -0.0445612 0
M  V30 1696 O 165.069 1.56682 0.935785 0
M  V30 1697 C 165.12 2.74946 -2.34706 0
M  V30 1698 O 164.841 2.36484 -3.68791 0
M  V30 1699 C 166.342 3.687 -2.46121 0
M  V30 1700 H 163.562 0.457964 -0.490418 0
M  V30 1701 H 166.106 0.858429 -1.8561 0
M  V30 1702 H 164.261 3.33937 -1.9638 0
M  V30 1703 H 164.675 3.17918 -4.17167 0
M  V30 1704 H 166.149 4.54145 -3.13777 0
M  V30 1705 H 166.626 4.13081 -1.49199 0
M  V30 1706 H 167.232 3.15613 -2.85076 0
M  V30 1707 N 165.547 1.27147 0.931209 0
M  V30 1708 C 166.793 1.14455 1.68141 0
M  V30 1709 C 167.148 -0.307172 1.89932 0
M  V30 1710 O 166.441 -1.22158 1.47607 0
M  V30 1711 C 166.635 1.8579 3.05314 0
M  V30 1712 C 166.464 3.3775 2.96909 0
M  V30 1713 C 165.234 4.07062 2.99381 0
M  V30 1714 C 167.432 4.33783 2.76291 0
M  V30 1715 N 165.414 5.45618 2.8138 0
M  V30 1716 C 166.785 5.59582 2.6696 0
M  V30 1717 C 168.84 4.23915 2.61152 0
M  V30 1718 C 167.543 6.76639 2.44033 0
M  V30 1719 C 169.569 5.40689 2.39602 0
M  V30 1720 C 168.931 6.65443 2.3101 0
M  V30 1721 H 165.03 0.473667 0.622225 0
M  V30 1722 H 167.614 1.60568 1.10118 0
M  V30 1723 H 165.785 1.42138 3.61457 0
M  V30 1724 H 167.517 1.65634 3.69253 0
M  V30 1725 H 164.272 3.585 3.09475 0
M  V30 1726 H 164.696 6.184 2.75519 0
M  V30 1727 H 169.338 3.28189 2.66555 0
M  V30 1728 H 167.056 7.72451 2.3737 0
M  V30 1729 H 170.642 5.34932 2.28778 0
M  V30 1730 H 169.522 7.54277 2.14558 0
M  V30 1731 N 167.025 -1.13721 1.09112 0
M  V30 1732 C 168.272 -1.84924 0.825192 0
M  V30 1733 C 168.6 -1.83347 -0.649151 0
M  V30 1734 O 167.855 -1.26449 -1.49362 0
M  V30 1735 C 168.154 -3.32861 1.30146 0
M  V30 1736 C 167.82 -3.54621 2.78486 0
M  V30 1737 C 166.482 -3.60268 3.18999 0
M  V30 1738 C 168.834 -3.62855 3.74146 0
M  V30 1739 C 166.162 -3.71679 4.53951 0
M  V30 1740 C 168.514 -3.75793 5.08883 0
M  V30 1741 C 167.178 -3.79692 5.4899 0
M  V30 1742 H 166.448 -0.676684 0.301959 0
M  V30 1743 H 169.095 -1.3428 1.36533 0
M  V30 1744 H 167.4 -3.85835 0.681064 0
M  V30 1745 H 169.097 -3.86395 1.07236 0
M  V30 1746 H 165.687 -3.50879 2.46134 0
M  V30 1747 H 169.871 -3.57775 3.43963 0
M  V30 1748 H 165.127 -3.72963 4.84467 0
M  V30 1749 H 169.301 -3.81107 5.82864 0
M  V30 1750 H 166.928 -3.88287 6.53558 0
M  V30 1751 N 168.503 -0.877838 -1.30888 0
M  V30 1752 C 169.749 -0.493426 -1.96706 0
M  V30 1753 C 170.082 0.953504 -1.6918 0
M  V30 1754 O 169.357 1.67266 -0.992594 0
M  V30 1755 C 169.64 -0.760429 -3.51979 0
M  V30 1756 C 169.493 -2.25747 -3.89048 0
M  V30 1757 C 170.812 -0.232148 -4.39487 0
M  V30 1758 H 167.931 -0.180746 -0.714493 0
M  V30 1759 H 170.573 -1.10052 -1.54882 0
M  V30 1760 H 168.723 -0.243715 -3.87735 0
M  V30 1761 H 170.395 -2.84204 -3.63354 0
M  V30 1762 H 168.638 -2.72694 -3.37373 0
M  V30 1763 H 169.309 -2.39491 -4.97341 0
M  V30 1764 H 171.785 -0.674314 -4.106 0
M  V30 1765 H 170.661 -0.448355 -5.47066 0
M  V30 1766 H 170.922 0.866297 -4.33529 0
M  V30 1767 N 169.982 1.44106 -0.638065 0
M  V30 1768 C 171.23 2.01579 -0.145043 0
M  V30 1769 C 171.551 1.50496 1.24 0
M  V30 1770 O 170.821 0.711374 1.82527 0
M  V30 1771 H 169.401 0.745282 -0.05063 0
M  V30 1772 H 172.063 1.76516 -0.826327 0
M  V30 1773 H 171.159 3.11877 -0.118039 0
M  V30 1774 N 171.46 0.379036 1.52974 0
M  V30 1775 C 172.876 0.0285448 1.59574 0
M  V30 1776 C 173.076 -1.45542 1.39355 0
M  V30 1777 O 172.132 -2.2187 1.20541 0
M  V30 1778 C 173.445 0.496535 2.96572 0
M  V30 1779 C 174.993 0.451909 3.0972 0
M  V30 1780 C 175.468 0.895924 4.49152 0
M  V30 1781 N 176.959 0.851522 4.55306 0
M  V30 1782 C 177.694 1.16661 5.61407 0
M  V30 1783 N 177.19 1.55166 6.752 0
M  V30 1784 N 178.983 1.08853 5.51459 0
M  V30 1785 H 171.134 1.34525 1.64367 0
M  V30 1786 H 173.397 0.550733 0.771619 0
M  V30 1787 H 173.103 1.53258 3.16552 0
M  V30 1788 H 172.977 -0.109802 3.7704 0
M  V30 1789 H 175.364 -0.575029 2.89443 0
M  V30 1790 H 175.445 1.09392 2.3123 0
M  V30 1791 H 175.089 1.92104 4.70168 0
M  V30 1792 H 175.019 0.23103 5.26093 0
M  V30 1793 H 177.51 0.568038 3.73606 0
M  V30 1794 H 177.823 1.776 7.52116 0
M  V30 1795 H 176.168 1.59044 6.76557 0
M  V30 1796 H 179.359 0.786803 4.6144 0
M  V30 1797 H 179.532 1.33742 6.34048 0
M  V30 1798 N 172.938 -1.57226 0.108567 0
M  V30 1799 C 173.848 -2.18292 -0.859401 0
M  V30 1800 C 174.864 -1.15612 -1.30038 0
M  V30 1801 O 176.04 -1.48039 -1.36552 0
M  V30 1802 C 173.105 -2.762 -2.09558 0
M  V30 1803 C 172.166 -3.93881 -1.70752 0
M  V30 1804 C 171.399 -4.49018 -2.88477 0
M  V30 1805 O 171.622 -4.03068 -4.036 0
M  V30 1806 O 170.556 -5.39852 -2.66164 0
M  V30 1807 H 174.382 -3.01441 -0.369769 0
M  V30 1808 H 171.967 -1.48945 -0.1165 0
M  V30 1809 H 173.849 -3.13156 -2.81978 0
M  V30 1810 H 172.524 -1.96089 -2.57548 0
M  V30 1811 H 171.431 -3.61713 -0.954714 0
M  V30 1812 H 172.764 -4.75396 -1.27513 0
M  V30 1813 N 174.416 0.165178 -1.56732 0
M  V30 1814 C 175.348 1.22911 -1.93457 0
M  V30 1815 C 176.361 1.40152 -0.828333 0
M  V30 1816 O 177.55 1.40046 -1.10677 0
M  V30 1817 C 174.65 2.59686 -2.17753 0
M  V30 1818 C 173.823 2.63663 -3.48999 0
M  V30 1819 C 172.882 3.81845 -3.62051 0
M  V30 1820 O 171.908 3.67559 -4.34613 0
M  V30 1821 N 173.11 4.98557 -2.97357 0
M  V30 1822 H 175.875 0.917118 -2.85323 0
M  V30 1823 H 173.436 0.354895 -1.57962 0
M  V30 1824 H 175.428 3.37225 -2.23743 0
M  V30 1825 H 173.998 2.83251 -1.32242 0
M  V30 1826 H 173.218 1.72173 -3.54612 0
M  V30 1827 H 174.506 2.63336 -4.35352 0
M  V30 1828 H 173.904 5.13065 -2.38287 0
M  V30 1829 H 172.461 5.73936 -3.08934 0
M  V30 1830 N 175.894 1.51508 0.433938 0
M  V30 1831 C 176.804 1.75917 1.5521 0
M  V30 1832 C 177.82 0.643545 1.61662 0
M  V30 1833 O 178.996 0.926183 1.7884 0
M  V30 1834 C 176.061 1.88213 2.91164 0
M  V30 1835 C 175.122 3.12074 2.94802 0
M  V30 1836 C 174.355 3.23774 4.24271 0
M  V30 1837 O 174.578 2.4133 5.16833 0
M  V30 1838 O 173.512 4.16774 4.34262 0
M  V30 1839 H 177.338 2.70777 1.37527 0
M  V30 1840 H 174.923 1.36051 0.617293 0
M  V30 1841 H 176.805 1.98267 3.71845 0
M  V30 1842 H 175.48 0.965413 3.08968 0
M  V30 1843 H 174.387 3.07497 2.13065 0
M  V30 1844 H 175.72 4.03446 2.81943 0
M  V30 1845 N 177.372 -0.689602 1.41712 0
M  V30 1846 C 178.788 -1.00093 1.24312 0
M  V30 1847 C 178.988 -2.01036 0.136729 0
M  V30 1848 O 178.044 -2.47562 -0.496918 0
M  V30 1849 C 179.357 -1.51985 2.59463 0
M  V30 1850 C 180.905 -1.63838 2.66695 0
M  V30 1851 C 181.38 -2.1913 4.02177 0
M  V30 1852 N 182.871 -2.26483 4.04054 0
M  V30 1853 C 183.606 -2.70306 5.0569 0
M  V30 1854 N 183.102 -3.13691 6.17713 0
M  V30 1855 N 184.895 -2.69923 4.9305 0
M  V30 1856 H 177.046 -0.0210029 2.1239 0
M  V30 1857 H 179.309 -0.0718733 0.945272 0
M  V30 1858 H 179.015 -0.85269 3.41207 0
M  V30 1859 H 178.889 -2.50103 2.82362 0
M  V30 1860 H 181.276 -2.29664 1.85306 0
M  V30 1861 H 181.357 -0.642492 2.476 0
M  V30 1862 H 181.001 -1.53918 4.84016 0
M  V30 1863 H 180.931 -3.19482 4.18615 0
M  V30 1864 H 183.422 -1.95874 3.23174 0
M  V30 1865 H 183.735 -3.45773 6.9113 0
M  V30 1866 H 182.08 -3.11585 6.21241 0
M  V30 1867 H 185.271 -2.35382 4.04614 0
M  V30 1868 H 185.444 -3.03758 5.72394 0
M  V30 1869 N 178.85 -1.27639 -0.924453 0
M  V30 1870 C 180.266 -1.05113 -1.20097 0
M  V30 1871 C 180.466 0.213262 -2.00368 0
M  V30 1872 O 179.522 0.91787 -2.35226 0
M  V30 1873 C 180.835 -2.29244 -1.94596 0
M  V30 1874 C 182.383 -2.34315 -2.07522 0
M  V30 1875 C 182.858 -3.58183 -2.85427 0
M  V30 1876 N 184.349 -3.5876 -2.92994 0
M  V30 1877 C 185.084 -4.51277 -3.53746 0
M  V30 1878 N 184.58 -5.54102 -4.15863 0
M  V30 1879 N 186.373 -4.38894 -3.51181 0
M  V30 1880 H 178.524 -2.08821 -0.388264 0
M  V30 1881 H 180.787 -0.918568 -0.234385 0
M  V30 1882 H 180.493 -3.21301 -1.43034 0
M  V30 1883 H 180.367 -2.34816 -2.95197 0
M  V30 1884 H 182.754 -1.42762 -2.58269 0
M  V30 1885 H 182.835 -2.32744 -1.06131 0
M  V30 1886 H 182.479 -4.50074 -2.35363 0
M  V30 1887 H 182.409 -3.57006 -3.8711 0
M  V30 1888 H 184.9 -2.84398 -2.4885 0
M  V30 1889 H 185.213 -6.20859 -4.60168 0
M  V30 1890 H 183.558 -5.57941 -4.144 0
M  V30 1891 H 186.749 -3.57772 -3.01856 0
M  V30 1892 H 186.922 -5.11186 -3.98237 0
M  V30 1893 N 180.328 1.1314 -1.09713 0
M  V30 1894 C 181.576 1.84119 -0.833338 0
M  V30 1895 C 181.897 1.84097 0.642904 0
M  V30 1896 O 181.167 1.29881 1.46655 0
M  V30 1897 H 179.747 0.681766 -0.305293 0
M  V30 1898 H 182.409 1.37038 -1.38588 0
M  V30 1899 H 181.505 2.88543 -1.18951 0
M  V30 1900 N 181.806 0.884767 1.30421 0
M  V30 1901 C 182.756 0.322846 2.25703 0
M  V30 1902 C 183.74 -0.548582 1.51259 0
M  V30 1903 O 184.932 -0.39304 1.72581 0
M  V30 1904 C 182.061 -0.461787 3.4018 0
M  V30 1905 C 181.147 0.423717 4.21978 0
M  V30 1906 N 181.538 1.52408 4.82292 0
M  V30 1907 C 179.836 0.218795 4.45463 0
M  V30 1908 C 180.537 2.07136 5.43571 0
M  V30 1909 N 179.513 1.36635 5.26148 0
M  V30 1910 H 183.315 1.16363 2.69883 0
M  V30 1911 H 180.829 0.73415 1.44859 0
M  V30 1912 H 182.826 -0.880985 4.07485 0
M  V30 1913 H 181.486 -1.30001 2.9754 0
M  V30 1914 H 182.497 1.90693 4.81515 0
M  V30 1915 H 179.174 -0.582275 4.1342 0
M  V30 1916 H 180.564 2.99538 6.01437 0
M  V30 1917 N 183.284 -1.43765 0.645699 0
M  V30 1918 C 184.531 -2.01898 0.15604 0
M  V30 1919 C 184.859 -1.50887 -1.22733 0
M  V30 1920 O 184.114 -0.689271 -1.8316 0
M  V30 1921 C 184.413 -3.57238 0.107679 0
M  V30 1922 C 184.079 -4.27564 1.43178 0
M  V30 1923 C 182.741 -4.46492 1.7944 0
M  V30 1924 C 185.093 -4.67454 2.30513 0
M  V30 1925 C 182.421 -5.02573 3.02716 0
M  V30 1926 C 184.773 -5.24901 3.53074 0
M  V30 1927 C 183.437 -5.42046 3.89541 0
M  V30 1928 H 182.707 -0.738797 0.057099 0
M  V30 1929 H 185.354 -1.72341 0.834912 0
M  V30 1930 H 183.659 -3.86293 -0.654618 0
M  V30 1931 H 185.356 -3.99965 -0.287938 0
M  V30 1932 H 181.946 -4.13171 1.13963 0
M  V30 1933 H 186.13 -4.5253 2.0379 0
M  V30 1934 H 181.386 -5.14033 3.31028 0
M  V30 1935 H 185.56 -5.54758 4.20971 0
M  V30 1936 H 183.187 -5.85268 4.85145 0
M  V30 1937 N 184.763 -0.387143 -1.52771 0
M  V30 1938 C 186.009 0.196025 -2.0185 0
M  V30 1939 C 186.342 1.46641 -1.27319 0
M  V30 1940 O 185.617 1.90889 -0.373032 0
M  V30 1941 C 185.9 0.466136 -3.5707 0
M  V30 1942 C 185.753 -0.819385 -4.42274 0
M  V30 1943 C 187.072 1.25768 -4.21747 0
M  V30 1944 H 184.191 0.0697708 -0.73369 0
M  V30 1945 H 186.833 -0.516286 -1.82851 0
M  V30 1946 H 184.983 1.07293 -3.7339 0
M  V30 1947 H 186.655 -1.4563 -4.37709 0
M  V30 1948 H 184.898 -1.43517 -4.09372 0
M  V30 1949 H 185.569 -0.585065 -5.48891 0
M  V30 1950 H 188.045 0.744167 -4.09391 0
M  V30 1951 H 186.921 1.41541 -5.30337 0
M  V30 1952 H 187.182 2.27228 -3.79236 0
M  V30 1953 N 186.241 1.57166 -0.116904 0
M  V30 1954 C 187.657 1.5779 0.239693 0
M  V30 1955 C 187.857 1.1295 1.66867 0
M  V30 1956 O 186.913 0.81592 2.38954 0
M  V30 1957 C 188.226 3.00699 0.00828202 0
M  V30 1958 C 189.774 3.12912 0.0743438 0
M  V30 1959 C 190.249 4.57817 -0.129348 0
M  V30 1960 N 191.74 4.63139 -0.075247 0
M  V30 1961 C 192.475 5.73023 -0.207788 0
M  V30 1962 N 191.971 6.91665 -0.396382 0
M  V30 1963 N 193.764 5.61906 -0.14751 0
M  V30 1964 H 185.915 1.84615 -1.05029 0
M  V30 1965 H 188.178 0.85311 -0.41341 0
M  V30 1966 H 187.884 3.37784 -0.979531 0
M  V30 1967 H 187.758 3.69848 0.741077 0
M  V30 1968 H 190.145 2.75686 1.05268 0
M  V30 1969 H 190.226 2.4631 -0.690297 0
M  V30 1970 H 189.87 4.95742 -1.10465 0
M  V30 1971 H 189.8 5.22507 0.655253 0
M  V30 1972 H 192.291 3.7784 0.0670898 0
M  V30 1973 H 192.604 7.71255 -0.488437 0
M  V30 1974 H 190.949 6.93654 -0.432329 0
M  V30 1975 H 194.14 4.681 -0.00115036 0
M  V30 1976 H 194.313 6.47501 -0.254247 0
M  V30 1977 N 187.719 -0.156864 1.56817 0
M  V30 1978 C 188.669 -1.19891 1.93934 0
M  V30 1979 C 189.653 -1.39061 0.809372 0
M  V30 1980 O 190.845 -1.40789 1.07273 0
M  V30 1981 C 187.974 -2.53493 2.31508 0
M  V30 1982 C 187.06 -2.37957 3.51052 0
M  V30 1983 N 187.451 -1.92158 4.67877 0
M  V30 1984 C 185.749 -2.68739 3.55943 0
M  V30 1985 C 186.45 -1.8943 5.49992 0
M  V30 1986 N 185.426 -2.32375 4.91429 0
M  V30 1987 H 189.228 -0.836746 2.81737 0
M  V30 1988 H 186.742 -0.365012 1.58245 0
M  V30 1989 H 188.739 -3.28811 2.56299 0
M  V30 1990 H 187.399 -2.905 1.45051 0
M  V30 1991 H 188.41 -1.62274 4.91821 0
M  V30 1992 H 185.087 -3.09687 2.80001 0
M  V30 1993 H 186.477 -1.55596 6.53636 0
M  V30 1994 N 189.197 -1.51736 -0.425897 0
M  V30 1995 C 190.422 -1.69082 -1.20108 0
M  V30 1996 C 190.847 -0.392398 -1.83962 0
M  V30 1997 O 190.205 0.64858 -1.69302 0
M  V30 1998 C 190.253 -2.81604 -2.25237 0
M  V30 1999 O 189.357 -2.46004 -3.30992 0
M  V30 2000 H 188.698 -0.563408 -0.35138 0
M  V30 2001 H 191.228 -1.98358 -0.501512 0
M  V30 2002 H 191.238 -3.06025 -2.69838 0
M  V30 2003 H 189.913 -3.75817 -1.78142 0
M  V30 2004 H 188.49 -2.32195 -2.91787 0
M  V30 2005 N 190.675 0.682077 -1.42076 0
M  V30 2006 C 191.585 1.82535 -1.47371 0
M  V30 2007 C 192.601 1.7017 -0.363079 0
M  V30 2008 O 193.777 1.91848 -0.612875 0
M  V30 2009 C 190.842 3.18624 -1.36674 0
M  V30 2010 C 189.903 3.42999 -2.58167 0
M  V30 2011 C 189.136 4.72595 -2.4797 0
M  V30 2012 O 189.359 5.50006 -1.5116 0
M  V30 2013 O 188.293 4.98054 -3.37974 0
M  V30 2014 H 192.119 1.81023 -2.43853 0
M  V30 2015 H 189.704 0.836887 -1.2376 0
M  V30 2016 H 191.586 3.99847 -1.33043 0
M  V30 2017 H 190.261 3.20789 -0.433138 0
M  V30 2018 H 189.168 2.61653 -2.67373 0
M  V30 2019 H 190.501 3.45659 -3.50401 0
M  V30 2020 N 192.153 1.28127 0.917671 0
M  V30 2021 C 193.1 1.11717 2.0196 0
M  V30 2022 C 194.07 0.0153929 1.66093 0
M  V30 2023 O 195.255 0.179596 1.89953 0
M  V30 2024 C 192.395 0.780927 3.36148 0
M  V30 2025 C 191.508 1.96135 3.84909 0
M  V30 2026 C 190.643 1.56609 5.0759 0
M  V30 2027 C 189.682 2.71339 5.48673 0
M  V30 2028 N 188.819 2.32332 6.62545 0
M  V30 2029 H 193.659 2.06003 2.15329 0
M  V30 2030 H 191.196 1.02535 1.05475 0
M  V30 2031 H 193.154 0.56675 4.13333 0
M  V30 2032 H 191.784 -0.124998 3.22558 0
M  V30 2033 H 190.836 2.28777 3.03916 0
M  V30 2034 H 192.148 2.82165 4.1132 0
M  V30 2035 H 191.302 1.31374 5.92305 0
M  V30 2036 H 190.041 0.677014 4.82978 0
M  V30 2037 H 189.046 2.97276 4.62501 0
M  V30 2038 H 190.271 3.60882 5.75274 0
M  V30 2039 H 188.217 1.45889 6.39572 0
M  V30 2040 H 188.134 3.11899 6.88662 0
M  V30 2041 H 189.402 2.10371 7.50576 0
M  V30 2042 N 193.631 -1.12557 1.10312 0
M  V30 2043 C 194.594 -2.16434 0.75424 0
M  V30 2044 C 195.594 -1.59278 -0.220685 0
M  V30 2045 O 196.784 -1.742 0.00230591 0
M  V30 2046 C 193.916 -3.40699 0.116987 0
M  V30 2047 H 195.109 -2.48811 1.67431 0
M  V30 2048 H 192.662 -1.27542 0.903475 0
M  V30 2049 H 193.397 -3.13921 -0.813877 0
M  V30 2050 H 193.182 -3.83459 0.818613 0
M  V30 2051 H 194.672 -4.17451 -0.111387 0
M  V30 2052 N 195.109 -0.891671 -1.2995 0
M  V30 2053 C 196.072 -0.36828 -2.26222 0
M  V30 2054 C 197.072 0.493014 -1.53056 0
M  V30 2055 O 198.262 0.299213 -1.71611 0
M  V30 2056 C 195.394 0.47442 -3.37583 0
M  V30 2057 H 196.587 -1.21844 -2.74033 0
M  V30 2058 H 194.14 -0.669107 -1.41254 0
M  V30 2059 H 194.875 1.34489 -2.95099 0
M  V30 2060 H 194.66 -0.142615 -3.91841 0
M  V30 2061 H 196.15 0.83218 -4.09224 0
M  V30 2062 N 196.587 1.43421 -0.653314 0
M  V30 2063 C 197.497 2.34568 0.0388565 0
M  V30 2064 C 198.513 1.53888 0.81207 0
M  V30 2065 O 199.689 1.86539 0.759294 0
M  V30 2066 C 196.754 3.32167 0.993269 0
M  V30 2067 C 195.815 4.28751 0.216977 0
M  V30 2068 C 195.048 5.21688 1.12593 0
M  V30 2069 O 195.271 5.19052 2.36519 0
M  V30 2070 O 194.205 5.98919 0.598284 0
M  V30 2071 H 198.031 2.95251 -0.711386 0
M  V30 2072 H 195.616 1.43564 -0.413502 0
M  V30 2073 H 197.498 3.92183 1.54176 0
M  V30 2074 H 196.173 2.73987 1.72374 0
M  V30 2075 H 195.08 3.72215 -0.375101 0
M  V30 2076 H 196.413 4.89913 -0.473924 0
M  V30 2077 N 198.065 0.39524 1.52563 0
M  V30 2078 C 198.975 -0.444232 2.30356 0
M  V30 2079 C 199.991 -1.06615 1.37511 0
M  V30 2080 O 201.167 -1.07067 1.70583 0
M  V30 2081 C 198.232 -1.55315 3.09964 0
M  V30 2082 C 197.293 -0.955734 4.18526 0
M  V30 2083 C 196.526 -2.01181 4.9433 0
M  V30 2084 O 196.749 -3.22781 4.70285 0
M  V30 2085 O 195.683 -1.62579 5.79527 0
M  V30 2086 H 199.509 0.189667 3.03107 0
M  V30 2087 H 197.094 0.1588 1.48554 0
M  V30 2088 H 198.976 -2.19724 3.59582 0
M  V30 2089 H 197.651 -2.17191 2.4002 0
M  V30 2090 H 196.558 -0.274743 3.7309 0
M  V30 2091 H 197.891 -0.381109 4.90722 0
M  V30 2092 N 199.544 -1.57102 0.125237 0
M  V30 2093 C 200.507 -2.14471 -0.80838 0
M  V30 2094 C 201.507 -1.0811 -1.19033 0
M  V30 2095 O 202.697 -1.33856 -1.11482 0
M  V30 2096 C 199.829 -2.69005 -2.09402 0
M  V30 2097 H 201.022 -2.98297 -0.309696 0
M  V30 2098 H 198.575 -1.55807 -0.124051 0
M  V30 2099 H 199.31 -1.88785 -2.63687 0
M  V30 2100 H 199.095 -3.46799 -1.82957 0
M  V30 2101 H 200.585 -3.13278 -2.76128 0
M  V30 2102 N 201.022 0.148545 -1.56898 0
M  V30 2103 C 202.252 0.875118 -1.8715 0
M  V30 2104 C 202.66 1.75322 -0.711262 0
M  V30 2105 O 202.003 1.80745 0.328151 0
M  V30 2106 C 202.065 1.7844 -3.12089 0
M  V30 2107 C 201.729 1.08361 -4.43967 0
M  V30 2108 C 202.726 0.438247 -5.1805 0
M  V30 2109 C 200.411 1.07358 -4.90693 0
M  V30 2110 C 202.405 -0.20779 -6.37061 0
M  V30 2111 C 200.092 0.42373 -6.09629 0
M  V30 2112 C 201.09 -0.215829 -6.82659 0
M  V30 2113 O 200.778 -0.855378 -7.99336 0
M  V30 2114 H 200.51 0.258504 -0.624621 0
M  V30 2115 H 203.064 0.14652 -2.04877 0
M  V30 2116 H 201.294 2.55389 -2.90367 0
M  V30 2117 H 202.983 2.38279 -3.286 0
M  V30 2118 H 203.749 0.437817 -4.8302 0
M  V30 2119 H 199.628 1.5608 -4.33774 0
M  V30 2120 H 203.172 -0.70758 -6.94002 0
M  V30 2121 H 199.069 0.421822 -6.4412 0
M  V30 2122 H 199.837 -0.756892 -8.14993 0
M  V30 2123 N 202.5 1.5196 0.417844 0
M  V30 2124 C 203.728 1.69426 1.18753 0
M  V30 2125 C 204.143 0.399955 1.84515 0
M  V30 2126 O 203.5 -0.623288 1.71527 0
M  V30 2127 C 203.551 2.82375 2.25714 0
M  V30 2128 O 203.272 4.06793 1.62638 0
M  V30 2129 C 204.773 3.11277 3.15628 0
M  V30 2130 H 201.993 0.568031 0.357186 0
M  V30 2131 H 204.537 1.98475 0.49273 0
M  V30 2132 H 202.692 2.5587 2.90877 0
M  V30 2133 H 203.106 4.69667 2.3348 0
M  V30 2134 H 204.58 3.93843 3.86771 0
M  V30 2135 H 205.057 2.24473 3.77503 0
M  V30 2136 H 205.663 3.39515 2.56144 0
M  V30 2137 N 203.978 -0.674533 1.42435 0
M  V30 2138 C 205.394 -0.98769 1.25367 0
M  V30 2139 C 205.594 -2.00879 0.158044 0
M  V30 2140 O 204.65 -2.48075 -0.470633 0
M  V30 2141 C 205.963 -1.49224 2.6106 0
M  V30 2142 C 207.511 -1.61 2.68417 0
M  V30 2143 C 207.986 -2.14852 4.04478 0
M  V30 2144 N 209.477 -2.22185 4.06434 0
M  V30 2145 C 210.212 -2.64928 5.08528 0
M  V30 2146 N 209.708 -3.07121 6.21006 0
M  V30 2147 N 211.501 -2.64679 4.95885 0
M  V30 2148 H 203.652 0.00152503 2.124 0
M  V30 2149 H 205.915 -0.0618434 0.945981 0
M  V30 2150 H 205.621 -0.816453 3.42092 0
M  V30 2151 H 205.495 -2.47094 2.84999 0
M  V30 2152 H 207.882 -2.27686 1.87732 0
M  V30 2153 H 207.963 -0.616195 2.48267 0
M  V30 2154 H 207.607 -1.48775 4.85622 0
M  V30 2155 H 207.537 -3.15024 4.2198 0
M  V30 2156 H 210.028 -1.92435 3.25234 0
M  V30 2157 H 210.341 -3.38423 6.94759 0
M  V30 2158 H 208.686 -3.04978 6.24511 0
M  V30 2159 H 211.877 -2.31078 4.07088 0
M  V30 2160 H 212.05 -2.9767 5.75584 0
M  V30 2161 N 205.456 -1.28612 -0.910864 0
M  V30 2162 C 206.684 -1.18792 -1.69399 0
M  V30 2163 C 207.099 0.253039 -1.87097 0
M  V30 2164 O 206.456 1.17071 -1.40003 0
M  V30 2165 C 206.507 -1.88511 -3.08457 0
M  V30 2166 O 206.228 -3.26979 -2.91576 0
M  V30 2167 C 207.729 -1.85029 -4.02839 0
M  V30 2168 H 204.949 -0.412233 -0.529438 0
M  V30 2169 H 207.493 -1.69788 -1.13984 0
M  V30 2170 H 205.648 -1.41379 -3.60681 0
M  V30 2171 H 206.062 -3.61936 -3.79608 0
M  V30 2172 H 207.536 -2.38395 -4.97867 0
M  V30 2173 H 208.013 -0.823303 -4.31414 0
M  V30 2174 H 208.619 -2.31853 -3.56545 0
M  V30 2175 N 206.934 1.1197 -1.10907 0
M  V30 2176 C 208.162 1.87402 -0.876824 0
M  V30 2177 C 208.577 1.79894 0.573025 0
M  V30 2178 O 207.934 1.17629 1.39534 0
M  V30 2179 C 207.985 3.36428 -1.32282 0
M  V30 2180 O 207.706 3.43765 -2.71582 0
M  V30 2181 C 209.207 4.28783 -1.12518 0
M  V30 2182 H 206.427 0.592793 -0.314384 0
M  V30 2183 H 208.971 1.41649 -1.47499 0
M  V30 2184 H 207.126 3.79706 -0.768229 0
M  V30 2185 H 207.54 4.3652 -2.90776 0
M  V30 2186 H 209.014 5.31613 -1.48633 0
M  V30 2187 H 209.491 4.39153 -0.0642394 0
M  V30 2188 H 210.097 3.91291 -1.66648 0
M  V30 2189 N 208.412 0.89855 1.29475 0
M  V30 2190 C 209.828 0.594483 1.48115 0
M  V30 2191 C 210.028 -0.86431 1.82022 0
M  V30 2192 O 209.084 -1.64457 1.91599 0
M  V30 2193 C 210.397 1.51932 2.59494 0
M  V30 2194 C 211.945 1.5244 2.7337 0
M  V30 2195 C 212.42 2.43548 3.87877 0
M  V30 2196 N 213.911 2.41589 3.95208 0
M  V30 2197 C 214.646 3.08789 4.83153 0
M  V30 2198 N 214.142 3.85265 5.75798 0
M  V30 2199 N 215.935 2.97952 4.76635 0
M  V30 2200 H 208.086 1.84207 1.05742 0
M  V30 2201 H 210.349 0.789251 0.525154 0
M  V30 2202 H 210.055 2.55865 2.41301 0
M  V30 2203 H 209.929 1.23899 3.56271 0
M  V30 2204 H 212.316 0.492518 2.90961 0
M  V30 2205 H 212.397 1.8451 1.77172 0
M  V30 2206 H 212.041 3.46829 3.71041 0
M  V30 2207 H 211.971 2.08788 4.83441 0
M  V30 2208 H 214.462 1.86025 3.28943 0
M  V30 2209 H 214.775 4.33598 6.39697 0
M  V30 2210 H 213.12 3.89371 5.75687 0
M  V30 2211 H 216.311 2.37723 4.03244 0
M  V30 2212 H 216.484 3.50599 5.44962 0
M  V30 2213 N 209.89 -1.43072 0.660911 0
M  V30 2214 C 210.853 -2.29194 -0.0166406 0
M  V30 2215 C 211.853 -1.42609 -0.742912 0
M  V30 2216 O 213.043 -1.64155 -0.583004 0
M  V30 2217 C 210.175 -3.24831 -1.0343 0
M  V30 2218 H 211.368 -2.90596 0.741208 0
M  V30 2219 H 208.921 -1.5048 0.422532 0
M  V30 2220 H 209.656 -2.68339 -1.82111 0
M  V30 2221 H 209.441 -3.88676 -0.517082 0
M  V30 2222 H 210.931 -3.89451 -1.50723 0
M  V30 2223 N 211.368 -0.403325 -1.52352 0
M  V30 2224 C 212.298 0.416205 -2.29761 0
M  V30 2225 C 213.279 1.05123 -1.33728 0
M  V30 2226 O 214.464 1.06134 -1.62632 0
M  V30 2227 C 211.594 1.53624 -3.11475 0
M  V30 2228 C 210.548 1.02653 -4.15507 0
M  V30 2229 C 209.874 2.23971 -4.85532 0
M  V30 2230 C 211.174 0.08463 -5.22231 0
M  V30 2231 H 212.868 -0.229701 -2.98518 0
M  V30 2232 H 210.414 -0.111913 -1.43564 0
M  V30 2233 H 212.367 2.1165 -3.64393 0
M  V30 2234 H 211.091 2.20994 -2.40477 0
M  V30 2235 H 209.75 0.46871 -3.63591 0
M  V30 2236 H 209.398 2.89883 -4.11068 0
M  V30 2237 H 209.098 1.90521 -5.55856 0
M  V30 2238 H 210.622 2.82614 -5.41259 0
M  V30 2239 H 212.036 0.573509 -5.70424 0
M  V30 2240 H 210.433 -0.160783 -5.99885 0
M  V30 2241 H 211.503 -0.86237 -4.7717 0
M  V30 2242 N 212.846 1.57033 -0.133567 0
M  V30 2243 C 213.796 2.12641 0.822671 0
M  V30 2244 C 214.78 1.05081 1.21847 0
M  V30 2245 O 215.972 1.31287 1.18713 0
M  V30 2246 C 213.101 2.74094 2.06706 0
M  V30 2247 C 212.187 3.88757 1.69497 0
M  V30 2248 N 212.578 4.95194 1.03037 0
M  V30 2249 C 210.876 3.99213 1.98859 0
M  V30 2250 C 211.577 5.75414 0.852873 0
M  V30 2251 N 210.553 5.25726 1.3825 0
M  V30 2252 H 214.355 2.92308 0.305537 0
M  V30 2253 H 211.869 1.62256 0.0684276 0
M  V30 2254 H 213.866 3.12285 2.76195 0
M  V30 2255 H 212.526 1.95896 2.5895 0
M  V30 2256 H 213.537 5.13247 0.692669 0
M  V30 2257 H 210.214 3.32075 2.53047 0
M  V30 2258 H 211.604 6.71089 0.330091 0
M  V30 2259 N 214.325 -0.140222 1.56975 0
M  V30 2260 C 215.235 -1.19223 2.02047 0
M  V30 2261 C 216.251 -1.46612 0.937062 0
M  V30 2262 O 217.427 -1.58148 1.24704 0
M  V30 2263 C 214.492 -2.50414 2.39778 0
M  V30 2264 C 213.553 -2.30612 3.621 0
M  V30 2265 C 212.786 -3.55547 3.98023 0
M  V30 2266 O 213.009 -4.62004 3.34528 0
M  V30 2267 O 211.943 -3.47808 4.91237 0
M  V30 2268 H 215.769 -0.839559 2.91865 0
M  V30 2269 H 213.354 -0.349453 1.45256 0
M  V30 2270 H 215.236 -3.27747 2.64877 0
M  V30 2271 H 213.911 -2.85198 1.53114 0
M  V30 2272 H 212.818 -1.51207 3.4218 0
M  V30 2273 H 214.151 -2.00741 4.49404 0
M  V30 2274 N 215.803 -1.52179 -0.40978 0
M  V30 2275 C 217.219 -1.40968 -0.74835 0
M  V30 2276 C 217.419 -0.513657 -1.94843 0
M  V30 2277 O 216.475 0.0208026 -2.52491 0
M  V30 2278 C 217.788 -2.83483 -1.0029 0
M  V30 2279 C 219.336 -2.92821 -1.10565 0
M  V30 2280 C 219.811 -4.36303 -1.39296 0
M  V30 2281 N 221.302 -4.39535 -1.46162 0
M  V30 2282 C 222.037 -5.47614 -1.70018 0
M  V30 2283 N 221.533 -6.65812 -1.91483 0
M  V30 2284 N 223.326 -5.35129 -1.72027 0
M  V30 2285 H 215.477 -2.0897 0.380186 0
M  V30 2286 H 217.74 -0.94185 0.107805 0
M  V30 2287 H 217.446 -3.51168 -0.193461 0
M  V30 2288 H 217.32 -3.24487 -1.92323 0
M  V30 2289 H 219.707 -2.25318 -1.90568 0
M  V30 2290 H 219.788 -2.55276 -0.16369 0
M  V30 2291 H 219.432 -5.04366 -0.598109 0
M  V30 2292 H 219.362 -4.71385 -2.34743 0
M  V30 2293 H 221.853 -3.54332 -1.31367 0
M  V30 2294 H 222.166 -7.43964 -2.09134 0
M  V30 2295 H 220.511 -6.68879 -1.88749 0
M  V30 2296 H 223.702 -4.41764 -1.54796 0
M  V30 2297 H 223.875 -6.19433 -1.9028 0
M  V30 2298 N 217.281 0.66697 -1.42791 0
M  V30 2299 C 218.528 1.42699 -1.43678 0
M  V30 2300 C 218.856 1.94419 -0.0560425 0
M  V30 2301 O 218.111 1.7182 0.936831 0
M  V30 2302 C 218.41 2.6349 -2.4147 0
M  V30 2303 C 218.076 2.30267 -3.8767 0
M  V30 2304 C 216.738 2.20918 -4.27491 0
M  V30 2305 C 219.09 2.03435 -4.79858 0
M  V30 2306 C 216.418 1.82873 -5.57471 0
M  V30 2307 C 218.77 1.66892 -6.10188 0
M  V30 2308 C 217.434 1.56058 -6.49001 0
M  V30 2309 H 216.704 0.522171 -0.525755 0
M  V30 2310 H 219.351 0.759785 -1.75783 0
M  V30 2311 H 217.656 3.35279 -2.0272 0
M  V30 2312 H 219.353 3.21684 -2.39417 0
M  V30 2313 H 215.943 2.38449 -3.56146 0
M  V30 2314 H 220.127 2.09586 -4.49875 0
M  V30 2315 H 215.383 1.7306 -5.86396 0
M  V30 2316 H 219.557 1.45157 -6.81104 0
M  V30 2317 H 217.184 1.26348 -7.49627 0
M  V30 2318 N 218.759 1.29093 0.90403 0
M  V30 2319 C 220.036 1.075 1.63411 0
M  V30 2320 C 220.416 -0.382346 2.07609 0
M  V30 2321 O 219.764 -1.37031 1.82851 0
M  V30 2322 C 219.974 2.05858 2.81822 0
M  V30 2323 C 221.322 2.36539 3.52611 0
M  V30 2324 O 222.346 2.04019 2.91984 0
M  V30 2325 O 221.205 2.92085 4.61897 0
M  V30 2326 H 218.299 0.411547 0.717327 0
M  V30 2327 H 220.845 1.40449 0.952479 0
M  V30 2328 H 219.617 3.04037 2.46327 0
M  V30 2329 H 219.24 1.73613 3.57693 0
M  V30 2330 N 220.237 -1.11381 1.11499 0
M  V30 2331 C 221.653 -1.35143 0.849031 0
M  V30 2332 C 221.853 -1.94515 -0.525938 0
M  V30 2333 O 220.909 -2.1785 -1.27662 0
M  V30 2334 C 222.222 -2.28249 1.95762 0
M  V30 2335 C 223.77 -2.41812 1.98736 0
M  V30 2336 C 224.245 -3.3824 3.088 0
M  V30 2337 N 225.736 -3.45803 3.08179 0
M  V30 2338 C 226.471 -4.20358 3.89982 0
M  V30 2339 N 225.967 -4.97884 4.8175 0
M  V30 2340 N 227.76 -4.15877 3.78157 0
M  V30 2341 H 219.911 -0.712062 2.00109 0
M  V30 2342 H 222.174 -0.376025 0.870235 0
M  V30 2343 H 221.88 -1.91817 2.94787 0
M  V30 2344 H 221.754 -3.28473 1.85433 0
M  V30 2345 H 224.141 -2.77518 1.00338 0
M  V30 2346 H 224.222 -1.41437 2.13141 0
M  V30 2347 H 223.866 -3.03261 4.07425 0
M  V30 2348 H 223.796 -4.38471 2.91635 0
M  V30 2349 H 226.287 -2.90506 2.41691 0
M  V30 2350 H 226.6 -5.52142 5.40702 0
M  V30 2351 H 224.945 -4.97043 4.85771 0
M  V30 2352 H 228.136 -3.544 3.05808 0
M  V30 2353 H 228.309 -4.73723 4.42143 0
M  V30 2354 N 221.715 -0.905404 -1.28997 0
M  V30 2355 C 222.645 -0.404212 -2.29975 0
M  V30 2356 C 223.626 0.523784 -1.61835 0
M  V30 2357 O 224.811 0.433298 -1.89304 0
M  V30 2358 C 221.941 0.364042 -3.45387 0
M  V30 2359 C 220.895 -0.474048 -4.25367 0
M  V30 2360 C 220.221 0.422045 -5.33032 0
M  V30 2361 C 221.521 -1.72696 -4.92923 0
M  V30 2362 H 223.215 -1.24807 -2.72146 0
M  V30 2363 H 220.761 -0.601585 -1.30832 0
M  V30 2364 H 222.714 0.725447 -4.15109 0
M  V30 2365 H 221.438 1.24174 -3.02074 0
M  V30 2366 H 220.097 -0.81786 -3.57361 0
M  V30 2367 H 219.745 1.29804 -4.85963 0
M  V30 2368 H 219.445 -0.135057 -5.87445 0
M  V30 2369 H 220.969 0.779517 -6.05604 0
M  V30 2370 H 222.383 -1.43495 -5.55051 0
M  V30 2371 H 220.78 -2.22582 -5.57295 0
M  V30 2372 H 221.85 -2.45964 -4.17887 0
M  V30 2373 N 223.193 1.4272 -0.668489 0
M  V30 2374 C 224.103 2.34596 0.0139753 0
M  V30 2375 C 225.119 1.5474 0.795703 0
M  V30 2376 O 226.295 1.87334 0.739466 0
M  V30 2377 C 223.36 3.33202 0.957982 0
M  V30 2378 C 222.421 4.28957 0.17149 0
M  V30 2379 C 221.654 5.22853 1.07053 0
M  V30 2380 O 221.877 5.21531 2.31001 0
M  V30 2381 O 220.811 5.9952 0.534727 0
M  V30 2382 H 224.637 2.9448 -0.742661 0
M  V30 2383 H 222.222 1.43117 -0.428705 0
M  V30 2384 H 224.104 3.93796 1.50008 0
M  V30 2385 H 222.779 2.758 1.69458 0
M  V30 2386 H 221.686 3.71796 -0.414558 0
M  V30 2387 H 223.019 4.89383 -0.52586 0
M  V30 2388 N 224.671 0.411399 1.52136 0
M  V30 2389 C 226.087 0.0623865 1.59478 0
M  V30 2390 C 226.287 -1.42554 1.4241 0
M  V30 2391 O 225.343 -2.19263 1.2522 0
M  V30 2392 C 226.656 0.559331 2.95452 0
M  V30 2393 C 228.204 0.517503 3.08692 0
M  V30 2394 C 228.679 0.990994 4.4715 0
M  V30 2395 N 230.17 0.947908 4.53397 0
M  V30 2396 C 230.905 1.28544 5.58806 0
M  V30 2397 N 230.401 1.69454 6.71757 0
M  V30 2398 N 232.194 1.20526 5.49026 0
M  V30 2399 H 224.345 1.37982 1.61477 0
M  V30 2400 H 226.608 0.566977 0.759764 0
M  V30 2401 H 226.314 1.59938 3.1323 0
M  V30 2402 H 226.188 -0.0298014 3.77188 0
M  V30 2403 H 228.575 -0.513505 2.90598 0
M  V30 2404 H 228.656 1.14272 2.28857 0
M  V30 2405 H 228.3 2.02034 4.65988 0
M  V30 2406 H 228.23 0.34257 5.25485 0
M  V30 2407 H 230.721 0.647157 3.72317 0
M  V30 2408 H 231.034 1.93513 7.48179 0
M  V30 2409 H 229.379 1.73359 6.73032 0
M  V30 2410 H 232.57 0.884505 4.59667 0
M  V30 2411 H 232.743 1.47161 6.31069 0
M  V30 2412 N 226.149 -1.5696 0.141893 0
M  V30 2413 C 227.082 -2.12271 -0.837627 0
M  V30 2414 C 228.06 -1.04495 -1.24578 0
M  V30 2415 O 229.244 -1.32293 -1.34278 0
M  V30 2416 C 226.371 -2.63822 -2.12404 0
M  V30 2417 C 225.417 -3.83698 -1.86221 0
M  V30 2418 S 226.25 -5.24948 -1.05781 0
M  V30 2419 C 227.406 -5.79884 -2.35552 0
M  V30 2420 H 227.639 -2.95023 -0.367249 0
M  V30 2421 H 225.172 -1.54231 -0.0723014 0
M  V30 2422 H 227.13 -2.94175 -2.86307 0
M  V30 2423 H 225.791 -1.8121 -2.56557 0
M  V30 2424 H 224.984 -4.17995 -2.81596 0
M  V30 2425 H 224.586 -3.5408 -1.20429 0
M  V30 2426 H 226.878 -5.91005 -3.31239 0
M  V30 2427 H 227.821 -6.77544 -2.05767 0
M  V30 2428 H 228.229 -5.08095 -2.45967 0
M  V30 2429 N 227.627 0.131896 -1.57047 0
M  V30 2430 C 228.557 1.16384 -2.02428 0
M  V30 2431 C 229.538 1.43936 -0.90644 0
M  V30 2432 O 230.723 1.54599 -1.17528 0
M  V30 2433 C 227.853 2.49328 -2.4177 0
M  V30 2434 C 226.807 2.36266 -3.56879 0
M  V30 2435 C 226.133 3.74057 -3.8208 0
M  V30 2436 C 227.433 1.834 -4.89042 0
M  V30 2437 H 229.127 0.786433 -2.88887 0
M  V30 2438 H 226.673 0.376855 -1.38981 0
M  V30 2439 H 228.626 3.21759 -2.7212 0
M  V30 2440 H 227.35 2.88934 -1.52266 0
M  V30 2441 H 226.009 1.66286 -3.26718 0
M  V30 2442 H 225.657 4.11125 -2.89803 0
M  V30 2443 H 225.357 3.66174 -4.59554 0
M  V30 2444 H 226.881 4.48012 -4.1487 0
M  V30 2445 H 228.295 2.45636 -5.18011 0
M  V30 2446 H 226.692 1.8637 -5.70426 0
M  V30 2447 H 227.762 0.790662 -4.7841 0
M  V30 2448 N 229.106 1.52395 0.401703 0
M  V30 2449 C 230.383 1.57387 1.16141 0
M  V30 2450 C 230.763 0.359359 2.08019 0
M  V30 2451 O 230.111 -0.65326 2.18963 0
M  V30 2452 C 230.321 2.90631 1.93221 0
M  V30 2453 C 231.669 3.43904 2.49028 0
M  V30 2454 O 232.693 2.92421 2.03393 0
M  V30 2455 O 231.552 4.33823 3.32356 0
M  V30 2456 H 228.646 0.634262 0.530698 0
M  V30 2457 H 231.192 1.64725 0.407883 0
M  V30 2458 H 229.964 3.70473 1.25958 0
M  V30 2459 H 229.587 2.8662 2.75563 0
M  V30 2460 N 230.584 -0.659388 1.43143 0
M  V30 2461 C 231.861 -1.41627 1.34912 0
M  V30 2462 C 232.241 -2.11099 -0.00607785 0
M  V30 2463 O 231.589 -2.04353 -1.02236 0
M  V30 2464 C 231.799 -2.40604 2.52805 0
M  V30 2465 C 233.147 -3.04789 2.95616 0
M  V30 2466 O 234.171 -2.50932 2.52807 0
M  V30 2467 O 233.03 -4.02421 3.69756 0
M  V30 2468 H 230.124 -0.63246 0.532844 0
M  V30 2469 H 232.67 -0.686814 1.5518 0
M  V30 2470 H 231.442 -1.88174 3.43083 0
M  V30 2471 H 231.065 -3.21009 2.34604 0
M  V30 2472 N 232.062 -1.29571 -0.897171 0
M  V30 2473 C 233.01 -1.14802 -2.02295 0
M  V30 2474 C 234.004 -0.0629637 -1.69283 0
M  V30 2475 O 235.21 -0.222945 -1.78614 0
M  V30 2476 H 231.585 -0.354692 -0.663097 0
M  V30 2477 H 233.556 -2.10108 -2.11889 0
M  V30 2478 C 232.305 -0.843966 -3.37302 0
M  V30 2479 H 231.628 -1.67093 -3.63208 0
M  V30 2480 H 233.068 -0.780672 -4.16751 0
M  V30 2481 C 231.527 0.452843 -3.33843 0
M  V30 2482 O 232.057 1.47813 -3.73516 0
M  V30 2483 N 230.263 0.459601 -2.86943 0
M  V30 2484 H 229.81 -0.375213 -2.54853 0
M  V30 2485 H 229.768 1.32726 -2.85011 0
M  V30 2486 N 233.54 1.10788 -1.12088 0
M  V30 2487 C 234.956 1.34691 -0.856186 0
M  V30 2488 C 235.156 1.94791 0.515615 0
M  V30 2489 O 234.212 2.18524 1.26505 0
M  V30 2490 C 235.525 2.27208 -1.9697 0
M  V30 2491 C 237.073 2.40755 -2.00016 0
M  V30 2492 C 237.548 3.36598 -3.1059 0
M  V30 2493 N 239.039 3.44164 -3.10008 0
M  V30 2494 C 239.774 4.18284 -3.92206 0
M  V30 2495 N 239.27 4.95322 -4.84384 0
M  V30 2496 N 241.063 4.13865 -3.80357 0
M  V30 2497 H 233.214 0.70144 -2.00483 0
M  V30 2498 H 235.477 0.371405 -0.872217 0
M  V30 2499 H 235.183 1.90251 -2.958 0
M  V30 2500 H 235.057 3.27485 -1.87172 0
M  V30 2501 H 237.444 2.76982 -1.01808 0
M  V30 2502 H 237.525 1.40305 -2.13888 0
M  V30 2503 H 237.169 3.01096 -4.09028 0
M  V30 2504 H 237.099 4.36918 -2.93956 0
M  V30 2505 H 239.59 2.8922 -2.43228 0
M  V30 2506 H 239.903 5.49267 -5.43623 0
M  V30 2507 H 238.248 4.94459 -4.884 0
M  V30 2508 H 241.439 3.52773 -3.07683 0
M  V30 2509 H 241.612 4.71372 -4.44649 0
M  V30 2510 N 235.018 0.912232 1.28515 0
M  V30 2511 C 236.434 0.610159 1.47476 0
M  V30 2512 C 236.634 -0.844955 1.82928 0
M  V30 2513 O 235.69 -1.62416 1.93332 0
M  V30 2514 C 237.003 1.54675 2.57868 0
M  V30 2515 C 238.551 1.55331 2.71738 0
M  V30 2516 C 239.026 2.47649 3.85272 0
M  V30 2517 N 240.517 2.45767 3.92623 0
M  V30 2518 C 241.252 3.13896 4.79851 0
M  V30 2519 N 240.748 3.9135 5.71679 0
M  V30 2520 N 242.541 3.02991 4.73448 0
M  V30 2521 H 234.692 1.85318 1.03783 0
M  V30 2522 H 236.955 0.794777 0.516753 0
M  V30 2523 H 236.661 2.5841 2.38574 0
M  V30 2524 H 236.535 1.27671 3.54937 0
M  V30 2525 H 238.922 0.52335 2.90422 0
M  V30 2526 H 239.003 1.86378 1.75205 0
M  V30 2527 H 238.647 3.50745 3.67342 0
M  V30 2528 H 238.577 2.13904 4.81199 0
M  V30 2529 H 241.068 1.89503 3.26951 0
M  V30 2530 H 241.381 4.40359 6.35062 0
M  V30 2531 H 239.726 3.95455 5.71524 0
M  V30 2532 H 242.917 2.41987 4.007 0
M  V30 2533 H 243.09 3.5636 5.41213 0
M  V30 2534 O 236.535 -1.39418 0.815163 0
M  V30 2535 H 237.226 -1.89641 0.394473 0
M  V30 END ATOM
M  V30 BEGIN BOND
M  V30 END BOND
M  V30 END CTAB
M  END
$$$$
