drugbank_target|P0A444 Photosystem II protein D1 1 (DB04735)
 OpenBabel12092120303D

  0  0  0     0  0            999 V3000
M  V30 BEGIN CTAB
M  V30 COUNTS 5521 5608 0 0 0
M  V30 BEGIN ATOM
M  V30 1 H -0.908 1.98254 -0.117106 0
M  V30 2 N 0 1.576 0 0
M  V30 3 C 0.933 2.03868 1.02534 0
M  V30 4 C 1.911 0.928543 1.3348 0
M  V30 5 O 3.095 1.19667 1.45644 0
M  V30 6 C 0.222 2.43627 2.35294 0
M  V30 7 C -0.732 3.65373 2.2001 0
M  V30 8 S 0.101 5.13292 1.52614 0
M  V30 9 C 1.257 5.56322 2.86805 0
M  V30 10 H 1.49 2.90518 0.631377 0
M  V30 11 H -0.977 1.52953 0.210867 0
M  V30 12 H 0.981 2.67203 3.11629 0
M  V30 13 H -0.358 1.57376 2.7183 0
M  V30 14 H -1.165 3.90944 3.18086 0
M  V30 15 H -1.563 3.418 1.51819 0
M  V30 16 H 0.729 5.58782 3.83104 0
M  V30 17 H 1.672 6.56266 2.65933 0
M  V30 18 H 2.08 4.83886 2.90714 0
M  V30 19 N 1.4781 -0.272755 1.55222 0
M  V30 20 C 2.7061 -1.02255 1.79865 0
M  V30 21 C 3.1211 -1.79924 0.572088 0
M  V30 22 O 2.4781 -1.76638 -0.458842 0
M  V30 23 C 2.5291 -1.98094 3.02392 0
M  V30 24 O 2.2501 -1.23572 4.20311 0
M  V30 25 C 3.7511 -2.84884 3.39641 0
M  V30 26 H 0.9711 -0.302057 0.599168 0
M  V30 27 H 3.5151 -0.303465 2.02236 0
M  V30 28 H 1.6701 -2.65465 2.82147 0
M  V30 29 H 2.0841 -1.88172 4.89583 0
M  V30 30 H 3.5581 -3.47927 4.28545 0
M  V30 31 H 4.0351 -3.54665 2.59055 0
M  V30 32 H 4.6411 -2.23003 3.62146 0
M  V30 33 N 2.9562 -1.48159 -0.537278 0
M  V30 34 C 4.1842 -1.59454 -1.31841 0
M  V30 35 C 4.5992 -0.252065 -1.8711 0
M  V30 36 O 3.9562 0.757621 -1.66031 0
M  V30 37 C 4.0072 -2.63546 -2.47439 0
M  V30 38 O 3.7282 -3.92583 -1.94449 0
M  V30 39 C 5.2292 -2.85212 -3.39366 0
M  V30 40 H 2.4492 -0.53785 -0.401196 0
M  V30 41 H 4.9932 -1.93932 -0.648891 0
M  V30 42 H 3.1482 -2.31946 -3.1029 0
M  V30 43 H 3.5622 -4.49629 -2.70063 0
M  V30 44 H 5.0362 -3.61863 -4.16844 0
M  V30 45 H 5.5132 -1.93765 -3.94147 0
M  V30 46 H 6.1192 -3.18086 -2.82314 0
M  V30 47 N 4.4343 0.785586 -1.36625 0
M  V30 48 C 5.6623 1.57448 -1.3423 0
M  V30 49 C 6.0773 1.88649 0.0755653 0
M  V30 50 O 5.4343 1.50414 1.03354 0
M  V30 51 C 5.4853 2.89316 -2.16745 0
M  V30 52 O 5.2063 2.59459 -3.53005 0
M  V30 53 C 6.7073 3.83606 -2.22174 0
M  V30 54 H 3.9273 0.488226 -0.4603 0
M  V30 55 H 6.4713 0.974733 -1.79775 0
M  V30 56 H 4.6263 3.4575 -1.74745 0
M  V30 57 H 5.0403 3.43804 -3.96105 0
M  V30 58 H 6.5143 4.73181 -2.8426 0
M  V30 59 H 6.9913 4.21734 -1.22627 0
M  V30 60 H 7.5973 3.33104 -2.64427 0
M  V30 61 N 5.9124 1.20967 1.01018 0
M  V30 62 C 6.8424 0.988272 2.11555 0
M  V30 63 C 7.8234 -0.0849778 1.69888 0
M  V30 64 O 9.0084 0.0738202 1.9406 0
M  V30 65 C 6.1384 0.546528 3.42973 0
M  V30 66 C 5.0924 1.56375 3.9841 0
M  V30 67 C 4.4184 0.97842 5.25672 0
M  V30 68 C 5.7184 2.94922 4.31066 0
M  V30 69 H 7.4124 1.91276 2.30334 0
M  V30 70 H 4.9584 0.921073 1.1069 0
M  V30 71 H 6.9114 0.378839 4.19694 0
M  V30 72 H 5.6354 -0.413598 3.23971 0
M  V30 73 H 4.2944 1.71891 3.23804 0
M  V30 74 H 3.9424 0.0101688 5.02999 0
M  V30 75 H 3.6424 1.65784 5.63728 0
M  V30 76 H 5.1664 0.821939 6.05043 0
M  V30 77 H 6.5804 2.8288 4.9865 0
M  V30 78 H 4.9774 3.5983 4.80253 0
M  V30 79 H 6.0474 3.4616 3.39561 0
M  V30 80 N 7.3905 -1.2043 1.01659 0
M  V30 81 C 8.3225 -2.22626 0.544988 0
M  V30 82 C 9.3355 -1.58479 -0.372609 0
M  V30 83 O 10.5245 -1.77679 -0.170958 0
M  V30 84 C 7.6245 -3.38141 -0.22663 0
M  V30 85 C 6.7975 -4.31877 0.692876 0
M  V30 86 C 5.8565 -5.26191 -0.0311616 0
M  V30 87 O 4.8825 -5.6612 0.591343 0
M  V30 88 N 6.0845 -5.65618 -1.30601 0
M  V30 89 H 8.8495 -2.63716 1.42388 0
M  V30 90 H 6.4105 -1.34971 0.894116 0
M  V30 91 H 8.4025 -3.98239 -0.72024 0
M  V30 92 H 6.9725 -2.95943 -1.00681 0
M  V30 93 H 6.1925 -3.69746 1.36679 0
M  V30 94 H 7.4805 -4.91426 1.31824 0
M  V30 95 H 6.8785 -5.3519 -1.83269 0
M  V30 96 H 5.4355 -6.28025 -1.74435 0
M  V30 97 N 8.8686 -0.792821 -1.36206 0
M  V30 98 C 10.2846 -0.474903 -1.52371 0
M  V30 99 C 10.4846 1.00622 -1.74578 0
M  V30 100 O 9.5406 1.79162 -1.77924 0
M  V30 101 C 10.8536 -1.3083 -2.70747 0
M  V30 102 C 12.4016 -1.30234 -2.84619 0
M  V30 103 C 12.8766 -2.11956 -4.06004 0
M  V30 104 N 14.3676 -2.09419 -4.13156 0
M  V30 105 C 15.1026 -2.69419 -5.06163 0
M  V30 106 N 14.5986 -3.3829 -6.04592 0
M  V30 107 N 16.3916 -2.59134 -4.98804 0
M  V30 108 H 8.5426 -1.75222 -1.20046 0
M  V30 109 H 10.8056 -0.745024 -0.586211 0
M  V30 110 H 10.5116 -2.35881 -2.6087 0
M  V30 111 H 10.3856 -0.95196 -3.6499 0
M  V30 112 H 12.7726 -0.259748 -2.93955 0
M  V30 113 H 12.8536 -1.69847 -1.91274 0
M  V30 114 H 12.4976 -3.16248 -3.97429 0
M  V30 115 H 12.4276 -1.69711 -4.98503 0
M  V30 116 H 14.9186 -1.59297 -3.42685 0
M  V30 117 H 15.2316 -3.81394 -6.7213 0
M  V30 118 H 13.5766 -3.42393 -6.04807 0
M  V30 119 H 16.7676 -2.04927 -4.20859 0
M  V30 120 H 16.9406 -3.06185 -5.711 0
M  V30 121 N 10.3467 1.47872 -0.545128 0
M  V30 122 C 11.7627 1.5829 -0.204032 0
M  V30 123 C 11.9627 1.54529 1.29317 0
M  V30 124 O 11.0187 1.44232 2.07252 0
M  V30 125 C 12.3317 2.89304 -0.819987 0
M  V30 126 C 13.8797 3.02864 -0.790105 0
M  V30 127 C 14.3547 4.3656 -1.38491 0
M  V30 128 N 15.8457 4.43165 -1.34755 0
M  V30 129 C 16.5807 5.45153 -1.77753 0
M  V30 130 N 16.0767 6.54016 -2.2855 0
M  V30 131 N 17.8697 5.36125 -1.68897 0
M  V30 132 H 10.0207 1.4856 -1.51802 0
M  V30 133 H 12.2837 0.706305 -0.632327 0
M  V30 134 H 11.9897 2.97757 -1.87173 0
M  V30 135 H 11.8637 3.75957 -0.305915 0
M  V30 136 H 14.2507 2.94014 0.252913 0
M  V30 137 H 14.3317 2.17782 -1.34181 0
M  V30 138 H 13.9757 4.46164 -2.42693 0
M  V30 139 H 13.9057 5.20353 -0.808754 0
M  V30 140 H 16.3967 3.65083 -0.975855 0
M  V30 141 H 16.7097 7.27994 -2.59314 0
M  V30 142 H 15.0547 6.54938 -2.32553 0
M  V30 143 H 18.2457 4.49975 -1.28998 0
M  V30 144 H 18.4187 6.15472 -2.02726 0
M  V30 145 N 11.8248 0.280983 1.55075 0
M  V30 146 C 12.7348 -0.61388 2.26426 0
M  V30 147 C 13.7508 -1.16521 1.29224 0
M  V30 148 O 14.9268 -1.19426 1.62171 0
M  V30 149 C 11.9918 -1.7788 2.9759 0
M  V30 150 C 11.0528 -1.26355 4.10284 0
M  V30 151 C 10.2858 -2.37295 4.78045 0
M  V30 152 O 10.5088 -3.56777 4.45047 0
M  V30 153 O 9.4428 -2.05119 5.65871 0
M  V30 154 H 13.2688 -0.0356932 3.03679 0
M  V30 155 H 10.8538 0.0481686 1.49322 0
M  V30 156 H 12.7358 -2.45791 3.42293 0
M  V30 157 H 11.4108 -2.34397 2.23249 0
M  V30 158 H 10.3178 -0.550735 3.70024 0
M  V30 159 H 11.6508 -0.744065 4.86543 0
M  V30 160 N 13.3029 -1.57598 0.00835791 0
M  V30 161 C 14.5279 -1.95617 -0.689103 0
M  V30 162 C 14.9529 -0.883753 -1.66046 0
M  V30 163 O 14.3109 0.157352 -1.80616 0
M  V30 164 C 14.3589 -3.32736 -1.38994 0
M  V30 165 O 13.4629 -3.27631 -2.50463 0
M  V30 166 H 12.8039 -0.638379 -0.182668 0
M  V30 167 H 15.3339 -2.045 0.064036 0
M  V30 168 H 15.3439 -3.68494 -1.75147 0
M  V30 169 H 14.0189 -4.1034 -0.677778 0
M  V30 170 H 12.5959 -3.03561 -2.16576 0
M  V30 171 N 14.781 0.264519 -1.55364 0
M  V30 172 C 15.744 1.31046 -1.88042 0
M  V30 173 C 16.744 1.41943 -0.755569 0
M  V30 174 O 17.934 1.40947 -1.02369 0
M  V30 175 C 15.066 2.69067 -2.09323 0
M  V30 176 H 16.259 1.03297 -2.81549 0
M  V30 177 H 13.812 0.502989 -1.47986 0
M  V30 178 H 14.547 3.01982 -1.18226 0
M  V30 179 H 14.332 2.62542 -2.91229 0
M  V30 180 H 15.822 3.44623 -2.35848 0
M  V30 181 N 16.2591 1.48442 0.529413 0
M  V30 182 C 17.2071 1.63452 1.65487 0
M  V30 183 C 18.2011 0.500955 1.61823 0
M  V30 184 O 19.4071 0.679695 1.66674 0
M  V30 185 H 15.7821 0.514905 0.548066 0
M  V30 186 H 17.7531 2.57975 1.49971 0
M  V30 187 C 16.5021 1.69196 3.03756 0
M  V30 188 H 15.8251 2.55784 3.07269 0
M  V30 189 H 17.2651 1.83743 3.82119 0
M  V30 190 C 15.7241 0.430765 3.34135 0
M  V30 191 O 16.2541 -0.4561 3.99102 0
M  V30 192 N 14.4601 0.302293 2.89023 0
M  V30 193 H 14.0071 1.02496 2.36331 0
M  V30 194 H 13.9651 -0.540546 3.09718 0
M  V30 195 N 17.7372 -0.778329 1.37039 0
M  V30 196 C 18.6672 -1.90546 1.34962 0
M  V30 197 C 19.6482 -1.68681 0.219274 0
M  V30 198 O 20.8332 -1.89634 0.418624 0
M  V30 199 C 17.9632 -3.27734 1.14925 0
M  V30 200 C 16.9172 -3.64147 2.24902 0
M  V30 201 C 16.2432 -4.99806 1.89996 0
M  V30 202 C 17.5432 -3.71579 3.67051 0
M  V30 203 H 19.2372 -1.92541 2.29277 0
M  V30 204 H 16.7832 -0.924948 1.10366 0
M  V30 205 H 18.7362 -4.06215 1.12104 0
M  V30 206 H 17.4602 -3.26154 0.170631 0
M  V30 207 H 16.1192 -2.8797 2.26868 0
M  V30 208 H 15.7672 -4.94759 0.906796 0
M  V30 209 H 15.4672 -5.25139 2.63634 0
M  V30 210 H 16.9912 -5.80694 1.88749 0
M  V30 211 H 18.4052 -4.40227 3.67251 0
M  V30 212 H 16.8022 -4.08405 4.39688 0
M  V30 213 H 17.8722 -2.72404 4.01154 0
M  V30 214 N 19.2153 -1.21501 -1.00376 0
M  V30 215 C 20.4613 -1.04457 -1.74529 0
M  V30 216 C 20.8163 0.417386 -1.87818 0
M  V30 217 O 20.1093 1.30556 -1.40234 0
M  V30 218 C 20.3033 -1.67673 -3.15627 0
M  V30 219 C 20.1323 -3.19865 -3.16096 0
M  V30 220 C 18.9023 -3.88915 -3.22604 0
M  V30 221 C 21.1003 -4.16936 -3.01112 0
M  V30 222 N 19.0823 -5.28284 -3.12712 0
M  V30 223 C 20.4533 -5.43066 -2.99131 0
M  V30 224 C 22.5083 -4.07968 -2.85423 0
M  V30 225 C 21.2113 -6.6126 -2.83068 0
M  V30 226 C 23.2373 -5.258 -2.70718 0
M  V30 227 C 22.5993 -6.50842 -2.69414 0
M  V30 228 H 18.6983 -0.436584 -0.648782 0
M  V30 229 H 21.2823 -1.53875 -1.19293 0
M  V30 230 H 19.4533 -1.20822 -3.6913 0
M  V30 231 H 21.1853 -1.43824 -3.78281 0
M  V30 232 H 17.9403 -3.39847 -3.2985 0
M  V30 233 H 18.3643 -6.01284 -3.11105 0
M  V30 234 H 23.0063 -3.1209 -2.85236 0
M  V30 235 H 20.7243 -7.57298 -2.82002 0
M  V30 236 H 24.3103 -5.20683 -2.59577 0
M  V30 237 H 23.1903 -7.40485 -2.5817 0
M  V30 238 N 20.6934 1.19889 -1.02296 0
M  V30 239 C 21.6034 2.26571 -0.608508 0
M  V30 240 C 22.6194 1.70299 0.356964 0
M  V30 241 O 23.7954 2.00235 0.216326 0
M  V30 242 C 20.8604 3.46677 0.0402814 0
M  V30 243 C 19.9214 4.18153 -0.97194 0
M  V30 244 C 19.1544 5.32525 -0.354016 0
M  V30 245 O 19.3774 5.64112 0.844604 0
M  V30 246 O 18.3114 5.92242 -1.07391 0
M  V30 247 H 22.1374 2.64251 -1.49684 0
M  V30 248 H 19.7224 1.26629 -0.792809 0
M  V30 249 H 21.6044 4.19475 0.402324 0
M  V30 250 H 20.2794 3.10858 0.902707 0
M  V30 251 H 19.1864 3.47499 -1.38546 0
M  V30 252 H 20.5194 4.57927 -1.80454 0
M  V30 253 N 22.1715 0.800033 1.35784 0
M  V30 254 C 23.5875 0.482977 1.52117 0
M  V30 255 C 23.7875 -0.996948 1.75109 0
M  V30 256 O 22.8435 -1.78216 1.78872 0
M  V30 257 C 24.1565 1.32264 2.70049 0
M  V30 258 C 25.7045 1.31742 2.83924 0
M  V30 259 C 26.1795 2.14106 4.04874 0
M  V30 260 N 27.6705 2.11607 4.12039 0
M  V30 261 C 28.4055 2.72099 5.04727 0
M  V30 262 N 27.9015 3.41492 6.02789 0
M  V30 263 N 29.6945 2.61776 4.97423 0
M  V30 264 H 21.8455 1.75856 1.19115 0
M  V30 265 H 24.1085 0.748122 0.582252 0
M  V30 266 H 23.8145 2.37261 2.59616 0
M  V30 267 H 23.6885 0.971303 3.6448 0
M  V30 268 H 26.0755 0.275333 2.93813 0
M  V30 269 H 26.1565 1.70859 1.9037 0
M  V30 270 H 25.8005 3.18351 3.95746 0
M  V30 271 H 25.7305 1.72353 4.97596 0
M  V30 272 H 28.2215 1.61112 3.41835 0
M  V30 273 H 28.5345 3.84953 6.70098 0
M  V30 274 H 26.8795 3.45596 6.02983 0
M  V30 275 H 30.0705 2.07157 4.19766 0
M  V30 276 H 30.2435 3.0921 5.69468 0
M  V30 277 N 23.6496 -1.47581 0.552962 0
M  V30 278 C 24.8966 -2.02482 0.0273243 0
M  V30 279 C 25.2246 -1.42776 -1.32081 0
M  V30 280 O 24.4796 -0.571393 -1.87173 0
M  V30 281 C 24.7786 -3.57199 -0.119728 0
M  V30 282 C 24.4446 -4.35804 1.15697 0
M  V30 283 C 23.1066 -4.57 1.50681 0
M  V30 284 C 25.4586 -4.81167 2.00319 0
M  V30 285 C 22.7866 -5.20807 2.70142 0
M  V30 286 C 25.1386 -5.46293 3.18978 0
M  V30 287 C 23.8026 -5.65722 3.54281 0
M  V30 288 H 23.0726 -0.740933 0.00999866 0
M  V30 289 H 25.7196 -1.77302 0.72362 0
M  V30 290 H 24.0246 -3.81348 -0.89896 0
M  V30 291 H 25.7216 -3.97324 -0.541718 0
M  V30 292 H 22.3116 -4.19582 0.874561 0
M  V30 293 H 26.4956 -4.64574 1.74599 0
M  V30 294 H 21.7516 -5.34045 2.97668 0
M  V30 295 H 25.9256 -5.80407 3.84838 0
M  V30 296 H 23.5526 -6.14936 4.46942 0
M  V30 297 N 25.1277 -0.289203 -1.54924 0
M  V30 298 C 26.3677 0.324536 -2.01807 0
M  V30 299 C 26.7317 1.5199 -1.17316 0
M  V30 300 O 27.9327 2.20422 -1.53843 0
M  V30 301 C 26.2037 0.683578 -3.50802 0
M  V30 302 S 27.7627 1.28185 -4.19659 0
M  V30 303 H 24.5807 0.100236 -0.703899 0
M  V30 304 H 27.1827 -0.414325 -1.91059 0
M  V30 305 H 25.8867 -0.195073 -4.09936 0
M  V30 306 H 25.4177 1.45354 -3.65562 0
M  V30 307 H 27.4327 2.57006 -4.24456 0
M  V30 308 N 26.6058 1.57591 -0.0167156 0
M  V30 309 C 27.5538 2.10604 0.987353 0
M  V30 310 C 28.5478 1.02977 1.34507 0
M  V30 311 O 29.7538 1.21425 1.32875 0
M  V30 312 H 26.1288 0.672695 0.336134 0
M  V30 313 H 28.0998 2.93925 0.514817 0
M  V30 314 C 26.8488 2.6382 2.26483 0
M  V30 315 H 26.1718 3.46278 1.99829 0
M  V30 316 H 27.6118 3.04573 2.94977 0
M  V30 317 C 26.0708 1.55992 2.9861 0
M  V30 318 O 26.6008 0.952521 3.90243 0
M  V30 319 N 24.8068 1.28335 2.60727 0
M  V30 320 H 24.3538 1.77914 1.86291 0
M  V30 321 H 24.3118 0.564115 3.09298 0
M  V30 322 N 28.0839 -0.256276 1.55502 0
M  V30 323 C 29.3299 -0.982884 1.78076 0
M  V30 324 C 29.6849 -1.83319 0.584109 0
M  V30 325 O 28.9779 -1.86875 -0.422877 0
M  V30 326 C 29.1719 -1.88432 3.03691 0
M  V30 327 C 29.0009 -1.12276 4.35459 0
M  V30 328 C 27.7709 -0.831647 4.98409 0
M  V30 329 C 29.9689 -0.504933 5.11815 0
M  V30 330 N 27.9509 -0.0450423 6.13883 0
M  V30 331 C 29.3219 0.146696 6.19826 0
M  V30 332 C 31.3769 -0.414455 4.96172 0
M  V30 333 C 30.0799 0.880103 7.13895 0
M  V30 334 C 32.1059 0.305398 5.90611 0
M  V30 335 C 31.4679 0.945701 6.98023 0
M  V30 336 H 27.5669 -0.341084 0.703694 0
M  V30 337 H 30.1509 -0.256909 1.92998 0
M  V30 338 H 28.3219 -2.58241 2.90114 0
M  V30 339 H 30.0539 -2.54579 3.14598 0
M  V30 340 H 26.8089 -1.14111 4.59647 0
M  V30 341 H 27.2329 0.336079 6.76165 0
M  V30 342 H 31.8749 -0.895163 4.13215 0
M  V30 343 H 29.5929 1.37244 7.9636 0
M  V30 344 H 33.1789 0.375946 5.80584 0
M  V30 345 H 32.0589 1.49383 7.6984 0
M  V30 346 N 29.562 -1.4872 -0.521534 0
M  V30 347 C 30.808 -1.574 -1.27879 0
M  V30 348 C 31.141 -0.250817 -1.92573 0
M  V30 349 O 30.416 0.743934 -1.79711 0
M  V30 350 C 30.699 -2.71843 -2.36164 0
M  V30 351 C 30.552 -4.13893 -1.76105 0
M  V30 352 C 31.871 -2.82008 -3.37875 0
M  V30 353 H 28.99 -0.572941 -0.463581 0
M  V30 354 H 31.632 -1.80927 -0.580119 0
M  V30 355 H 29.782 -2.51914 -2.95756 0
M  V30 356 H 31.454 -4.45284 -1.20499 0
M  V30 357 H 29.697 -4.20498 -1.06601 0
M  V30 358 H 30.368 -4.89804 -2.5455 0
M  V30 359 H 32.844 -3.00086 -2.88249 0
M  V30 360 H 31.72 -3.63796 -4.11028 0
M  V30 361 H 31.981 -1.90511 -3.98946 0
M  V30 362 N 31.0401 0.771051 -1.3745 0
M  V30 363 C 32.2681 1.56015 -1.35893 0
M  V30 364 C 32.6831 1.88718 0.0555523 0
M  V30 365 O 32.0401 1.51502 1.01752 0
M  V30 366 C 32.0911 2.87001 -2.19801 0
M  V30 367 O 31.8121 2.557 -3.55738 0
M  V30 368 C 33.3131 3.81228 -2.26231 0
M  V30 369 H 30.5331 0.483317 -0.465453 0
M  V30 370 H 33.0771 0.955611 -1.80799 0
M  V30 371 H 31.2321 3.43877 -1.78402 0
M  V30 372 H 31.6461 3.39584 -3.99729 0
M  V30 373 H 33.1201 4.70139 -2.89263 0
M  V30 374 H 33.5971 4.20409 -1.27093 0
M  V30 375 H 34.2031 3.30281 -2.67945 0
M  V30 376 N 32.5182 1.22032 0.997298 0
M  V30 377 C 33.7432 1.06921 1.77715 0
M  V30 378 C 34.1682 -0.376226 1.84299 0
M  V30 379 O 33.5262 -1.27165 1.29223 0
M  V30 380 C 33.5742 1.67996 3.19076 0
M  V30 381 O 32.6782 0.930653 4.01762 0
M  V30 382 H 32.0192 0.375814 0.547412 0
M  V30 383 H 34.5492 1.61737 1.25309 0
M  V30 384 H 34.5592 1.72538 3.69723 0
M  V30 385 H 33.2342 2.73182 3.13599 0
M  V30 386 H 31.8112 0.960917 3.60307 0
M  V30 387 N 33.9963 -1.19345 1.0293 0
M  V30 388 C 35.2243 -1.92997 0.745644 0
M  V30 389 C 35.6393 -1.75519 -0.695589 0
M  V30 390 O 34.9963 -1.07737 -1.47306 0
M  V30 391 C 35.0473 -3.44741 1.08792 0
M  V30 392 O 34.7683 -3.61658 2.47256 0
M  V30 393 C 36.2693 -4.35515 0.827129 0
M  V30 394 H 33.4893 -0.613042 0.272801 0
M  V30 395 H 36.0333 -1.51473 1.3739 0
M  V30 396 H 34.1883 -3.84097 0.504832 0
M  V30 397 H 34.6023 -4.55514 2.60015 0
M  V30 398 H 36.0763 -5.40589 1.11658 0
M  V30 399 H 36.5533 -4.38552 -0.238436 0
M  V30 400 H 37.1593 -4.01841 1.39297 0
M  V30 401 N 35.4744 -0.807222 -1.35358 0
M  V30 402 C 36.7514 -0.311126 -1.9311 0
M  V30 403 C 37.1314 1.19937 -1.73719 0
M  V30 404 O 36.4794 1.99918 -1.10657 0
M  V30 405 C 36.6894 -0.723226 -3.41424 0
M  V30 406 C 38.0374 -0.713078 -4.18569 0
M  V30 407 O 39.0614 -0.664811 -3.49941 0
M  V30 408 O 37.9204 -0.772022 -5.41019 0
M  V30 409 H 35.0144 -0.081526 -0.822972 0
M  V30 410 H 37.5604 -0.890962 -1.4443 0
M  V30 411 H 36.3324 -1.76426 -3.4927 0
M  V30 412 H 35.9554 -0.118232 -3.97424 0
M  V30 413 N 36.9525 1.47285 -0.560781 0
M  V30 414 C 37.9005 2.31756 0.197942 0
M  V30 415 C 38.8945 1.43146 0.905854 0
M  V30 416 O 40.1005 1.59891 0.826733 0
M  V30 417 H 36.4755 0.747438 0.0827049 0
M  V30 418 H 38.4465 2.9359 -0.533629 0
M  V30 419 C 37.1955 3.25874 1.21249 0
M  V30 420 H 36.5185 3.94023 0.67719 0
M  V30 421 H 37.9585 3.87803 1.71419 0
M  V30 422 C 36.4175 2.49651 2.26221 0
M  V30 423 O 36.9475 2.24355 3.33208 0
M  V30 424 N 35.1535 2.10597 2.00243 0
M  V30 425 H 34.7005 2.31369 1.13252 0
M  V30 426 H 34.6585 1.59913 2.70694 0
M  V30 427 N 38.4306 0.297415 1.54768 0
M  V30 428 C 39.8466 -0.0560823 1.59501 0
M  V30 429 C 40.0466 -1.52725 1.31444 0
M  V30 430 O 39.1026 -2.27947 1.08611 0
M  V30 431 C 40.4156 0.338631 2.98787 0
M  V30 432 C 41.9636 0.287097 3.11681 0
M  V30 433 C 42.4386 0.656579 4.53269 0
M  V30 434 N 43.9296 0.608977 4.59179 0
M  V30 435 C 44.6646 0.867385 5.66802 0
M  V30 436 N 44.1606 1.19157 6.82476 0
M  V30 437 N 45.9536 0.794687 5.56454 0
M  V30 438 H 38.1046 1.25624 1.71267 0
M  V30 439 H 40.3676 0.509057 0.799728 0
M  V30 440 H 40.0736 1.36263 3.2423 0
M  V30 441 H 39.9476 -0.309508 3.75928 0
M  V30 442 H 42.3346 -0.727649 2.85988 0
M  V30 443 H 42.4156 0.969809 2.36703 0
M  V30 444 H 42.0596 1.66912 4.7969 0
M  V30 445 H 41.9896 -0.0481649 5.26578 0
M  V30 446 H 44.4806 0.369198 3.76092 0
M  V30 447 H 44.7936 1.37482 7.60473 0
M  V30 448 H 43.1386 1.22958 6.84037 0
M  V30 449 H 46.3296 0.541098 4.64962 0
M  V30 450 H 46.5026 0.999445 6.40246 0
M  V30 451 N 39.9087 -1.5758 0.0250728 0
M  V30 452 C 40.8387 -2.13007 -0.956575 0
M  V30 453 C 41.8197 -1.0452 -1.342 0
M  V30 454 O 43.0047 -1.32332 -1.42133 0
M  V30 455 C 40.1347 -2.65386 -2.24026 0
M  V30 456 C 39.0887 -3.78623 -1.99571 0
M  V30 457 C 38.4147 -4.17414 -3.3417 0
M  V30 458 C 39.7147 -5.04867 -1.33814 0
M  V30 459 H 41.4087 -2.9528 -0.494991 0
M  V30 460 H 38.9547 -1.42042 -0.236651 0
M  V30 461 H 40.9077 -3.02794 -2.93076 0
M  V30 462 H 39.6317 -1.80268 -2.72343 0
M  V30 463 H 38.2907 -3.41646 -1.32941 0
M  V30 464 H 37.9387 -3.29284 -3.80238 0
M  V30 465 H 37.6387 -4.93719 -3.18615 0
M  V30 466 H 39.1627 -4.57402 -4.04495 0
M  V30 467 H 40.5767 -5.39888 -1.92857 0
M  V30 468 H 38.9737 -5.86144 -1.28669 0
M  V30 469 H 40.0437 -4.83904 -0.310561 0
M  V30 470 N 41.3868 0.248026 -1.55636 0
M  V30 471 C 42.6168 0.992367 -1.81206 0
M  V30 472 C 43.0248 1.7949 -0.598324 0
M  V30 473 O 42.3678 1.78292 0.442434 0
M  V30 474 C 42.4298 1.97926 -3.00109 0
M  V30 475 C 42.0938 1.36377 -4.36177 0
M  V30 476 C 43.0908 0.76682 -5.14214 0
M  V30 477 C 40.7758 1.38347 -4.82872 0
M  V30 478 C 42.7698 0.197778 -6.37093 0
M  V30 479 C 40.4568 0.810574 -6.057 0
M  V30 480 C 41.4548 0.218754 -6.8265 0
M  V30 481 O 41.1428 -0.345298 -8.03158 0
M  V30 482 H 40.8748 0.297704 -0.606917 0
M  V30 483 H 43.4288 0.276517 -2.0353 0
M  V30 484 H 41.6588 2.73339 -2.73538 0
M  V30 485 H 43.3478 2.58694 -3.12781 0
M  V30 486 H 44.1138 0.744114 -4.79258 0
M  V30 487 H 39.9928 1.8335 -4.2297 0
M  V30 488 H 43.5368 -0.264788 -6.97097 0
M  V30 489 H 39.4338 0.830604 -6.40134 0
M  V30 490 H 40.2018 -0.237055 -8.18157 0
M  V30 491 N 42.8649 1.48995 0.513639 0
M  V30 492 C 44.1109 1.58076 1.27042 0
M  V30 493 C 44.4439 0.261026 1.92438 0
M  V30 494 O 43.7189 -0.734393 1.80103 0
M  V30 495 C 44.0019 2.73091 2.34719 0
M  V30 496 C 43.8549 4.14821 1.73907 0
M  V30 497 C 45.1739 2.83796 3.36375 0
M  V30 498 H 42.2929 0.575391 0.460536 0
M  V30 499 H 44.9349 1.81232 0.570516 0
M  V30 500 H 43.0849 2.53479 2.94416 0
M  V30 501 H 44.7569 4.45917 1.18135 0
M  V30 502 H 42.9999 4.21058 1.0437 0
M  V30 503 H 43.6709 4.91147 2.51949 0
M  V30 504 H 46.1469 3.01611 2.86653 0
M  V30 505 H 45.0229 3.65971 4.09093 0
M  V30 506 H 45.2839 1.92624 3.9793 0
M  V30 507 N 44.343 -0.763751 1.37857 0
M  V30 508 C 45.591 -1.51957 1.33243 0
M  V30 509 C 45.912 -1.94835 -0.0801709 0
M  V30 510 O 45.182 -1.66894 -1.02582 0
M  V30 511 H 43.762 -0.563626 0.49024 0
M  V30 512 H 46.424 -0.908504 1.7243 0
M  V30 513 H 45.52 -2.41523 1.97669 0
M  V30 514 N 45.8211 -1.22559 -0.990812 0
M  V30 515 C 47.0671 -1.06303 -1.73411 0
M  V30 516 C 47.4221 0.397442 -1.8825 0
M  V30 517 O 46.7151 1.29062 -1.41611 0
M  V30 518 C 46.9091 -1.71011 -3.13831 0
M  V30 519 C 46.7381 -3.232 -3.12685 0
M  V30 520 C 45.5081 -3.92314 -3.18461 0
M  V30 521 C 47.7061 -4.20107 -2.96673 0
M  V30 522 N 45.6881 -5.31571 -3.07091 0
M  V30 523 C 47.0591 -5.46208 -2.93354 0
M  V30 524 C 49.1141 -4.10973 -2.8108 0
M  V30 525 C 47.8171 -6.64225 -2.76039 0
M  V30 526 C 49.8431 -5.28642 -2.65126 0
M  V30 527 C 49.2051 -6.53663 -2.62496 0
M  V30 528 H 45.3041 -0.443441 -0.644115 0
M  V30 529 H 47.8881 -1.55131 -1.17654 0
M  V30 530 H 46.0591 -1.2473 -3.67827 0
M  V30 531 H 47.7911 -1.47828 -3.76735 0
M  V30 532 H 44.5461 -3.43326 -3.26227 0
M  V30 533 H 44.9701 -6.0455 -3.0471 0
M  V30 534 H 49.6121 -3.15098 -2.8191 0
M  V30 535 H 47.3301 -7.60246 -2.73954 0
M  V30 536 H 50.9161 -5.23407 -2.54039 0
M  V30 537 H 49.7961 -7.43182 -2.50302 0
M  V30 538 N 47.2992 1.18797 -1.03562 0
M  V30 539 C 48.5462 1.8865 -0.736023 0
M  V30 540 C 48.8742 1.80041 0.735889 0
M  V30 541 O 48.1292 1.19179 1.55225 0
M  V30 542 C 48.4282 3.38692 -1.14117 0
M  V30 543 C 48.0942 3.67504 -2.6125 0
M  V30 544 C 46.7562 3.75078 -3.01447 0
M  V30 545 C 49.1082 3.80293 -3.56408 0
M  V30 546 C 46.4362 3.92915 -4.35701 0
M  V30 547 C 48.7882 3.99645 -4.90374 0
M  V30 548 C 47.4522 4.05453 -5.30249 0
M  V30 549 H 46.7222 0.690321 -0.26933 0
M  V30 550 H 49.3692 1.40641 -1.29971 0
M  V30 551 H 47.6742 3.88645 -0.496202 0
M  V30 552 H 49.3712 3.91072 -0.886789 0
M  V30 553 H 45.9612 3.62223 -2.29113 0
M  V30 554 H 50.1452 3.73779 -3.26501 0
M  V30 555 H 45.4012 3.95653 -4.66121 0
M  V30 556 H 49.5752 4.08482 -5.64017 0
M  V30 557 H 47.2022 4.19027 -6.34288 0
M  V30 558 N 48.7773 0.814389 1.34928 0
M  V30 559 C 50.0253 0.397636 1.9815 0
M  V30 560 C 50.3463 -1.04069 1.64908 0
M  V30 561 O 49.6163 -1.72121 0.93548 0
M  V30 562 H 48.1963 0.144043 0.732981 0
M  V30 563 H 50.8583 1.04195 1.6471 0
M  V30 564 H 49.9543 0.509688 3.0791 0
M  V30 565 N 50.2554 -1.46986 0.568584 0
M  V30 566 C 51.5014 -2.02741 0.0488709 0
M  V30 567 C 51.8344 -1.44077 -1.30214 0
M  V30 568 O 51.1094 -0.600552 -1.84996 0
M  V30 569 C 51.3924 -3.60086 -0.032047 0
M  V30 570 C 51.2454 -4.29162 1.34686 0
M  V30 571 C 52.5644 -4.33838 -0.739798 0
M  V30 572 H 49.6834 -0.736749 0.0192338 0
M  V30 573 H 52.3254 -1.75289 0.733065 0
M  V30 574 H 50.4754 -3.83606 -0.61473 0
M  V30 575 H 52.1474 -4.16948 1.97362 0
M  V30 576 H 50.3904 -3.89073 1.91846 0
M  V30 577 H 51.0614 -5.37826 1.24285 0
M  V30 578 H 53.5374 -4.15378 -0.244939 0
M  V30 579 H 52.4134 -5.43537 -0.765406 0
M  V30 580 H 52.6744 -4.03875 -1.79827 0
M  V30 581 N 51.7335 -0.305618 -1.54608 0
M  V30 582 C 52.9825 0.303098 -1.9941 0
M  V30 583 C 53.2955 1.54648 -1.19764 0
M  V30 584 O 54.5015 2.23007 -1.54855 0
M  V30 585 C 52.9575 0.590588 -3.55021 0
M  V30 586 C 52.5655 -0.634719 -4.43481 0
M  V30 587 C 54.3095 1.16025 -4.08336 0
M  V30 588 C 52.2165 -0.320126 -5.90533 0
M  V30 589 H 51.1465 0.117031 -0.744862 0
M  V30 590 H 53.7975 -0.415045 -1.78745 0
M  V30 591 H 52.1795 1.36845 -3.71604 0
M  V30 592 H 53.3535 -1.41079 -4.38672 0
M  V30 593 H 51.6685 -1.12333 -4.00962 0
M  V30 594 H 54.2655 1.40994 -5.15776 0
M  V30 595 H 54.6085 2.10397 -3.5922 0
M  V30 596 H 55.1415 0.443985 -3.95315 0
M  V30 597 H 51.8805 -1.23254 -6.43808 0
M  V30 598 H 51.4005 0.418579 -5.98338 0
M  V30 599 H 53.0795 0.0766241 -6.46955 0
M  V30 600 N 53.2116 1.57565 -0.0334293 0
M  V30 601 C 54.1446 2.05997 0.981866 0
M  V30 602 C 55.1226 0.956647 1.3148 0
M  V30 603 O 56.3066 1.22729 1.43073 0
M  V30 604 C 53.4336 2.48564 2.30074 0
M  V30 605 C 52.4796 3.69958 2.12211 0
M  V30 606 S 53.3126 5.16414 1.41692 0
M  V30 607 C 54.4686 5.6228 2.7494 0
M  V30 608 H 54.7016 2.91792 0.569612 0
M  V30 609 H 52.2346 1.53366 0.178376 0
M  V30 610 H 54.1926 2.73753 3.05892 0
M  V30 611 H 52.8536 1.63106 2.68431 0
M  V30 612 H 52.0466 3.97603 3.09722 0
M  V30 613 H 51.6486 3.44943 1.44535 0
M  V30 614 H 53.9406 5.66783 3.71165 0
M  V30 615 H 54.8836 6.61759 2.51953 0
M  V30 616 H 55.2916 4.89944 2.80384 0
M  V30 617 N 54.6897 -0.239769 1.55765 0
M  V30 618 C 55.9387 -0.964754 1.77131 0
M  V30 619 C 56.2517 -1.86213 0.59868 0
M  V30 620 O 57.4577 -2.6244 0.695522 0
M  V30 621 C 55.9137 -1.76552 3.1362 0
M  V30 622 C 55.5217 -0.915185 4.38553 0
M  V30 623 C 57.2657 -2.48281 3.44321 0
M  V30 624 C 55.1727 -1.71225 5.66071 0
M  V30 625 H 54.1027 -0.363953 0.660344 0
M  V30 626 H 56.7537 -0.219181 1.82186 0
M  V30 627 H 55.1357 -2.55331 3.02691 0
M  V30 628 H 56.3097 -0.169217 4.60489 0
M  V30 629 H 54.6247 -0.310889 4.15238 0
M  V30 630 H 57.2217 -3.08382 4.36812 0
M  V30 631 H 57.5647 -3.20256 2.65973 0
M  V30 632 H 58.0977 -1.76507 3.56497 0
M  V30 633 H 54.8367 -1.03612 6.4726 0
M  V30 634 H 54.3567 -2.43331 5.48224 0
M  V30 635 H 56.0357 -2.27758 6.05587 0
M  V30 636 N 56.1678 -1.49265 -0.50573 0
M  V30 637 C 57.5788 -1.51769 -1.08734 0
M  V30 638 C 57.9298 -0.301192 -1.93874 0
M  V30 639 O 57.0548 0.589456 -2.08217 0
M  V30 640 C 57.6498 -2.75017 -1.97867 0
M  V30 641 C 56.2088 -2.80314 -2.51199 0
M  V30 642 C 55.3558 -2.4562 -1.28709 0
M  V30 643 H 58.3068 -1.56031 -0.289855 0
M  V30 644 H 58.3278 -2.5491 -2.82491 0
M  V30 645 H 57.8398 -3.63539 -1.35873 0
M  V30 646 H 55.9408 -1.96061 -3.16845 0
M  V30 647 H 56.0538 -3.82366 -2.88675 0
M  V30 648 H 54.4178 -1.97297 -1.61078 0
M  V30 649 H 55.2008 -3.36411 -0.6843 0
M  V30 650 N 57.6459 0.756429 -1.3826 0
M  V30 651 C 58.8739 1.54565 -1.3754 0
M  V30 652 C 59.2889 1.88767 0.0355331 0
M  V30 653 O 58.6459 1.52572 1.0014 0
M  V30 654 C 58.6969 2.84654 -2.22833 0
M  V30 655 O 58.4179 2.51912 -3.5843 0
M  V30 656 C 59.9189 3.78807 -2.30261 0
M  V30 657 H 57.1389 0.478353 -0.470553 0
M  V30 658 H 59.6829 0.936381 -1.81803 0
M  V30 659 H 57.8379 3.41965 -1.8204 0
M  V30 660 H 58.2519 3.35325 -4.03308 0
M  V30 661 H 59.7259 4.67045 -2.94233 0
M  V30 662 H 60.2029 4.19038 -1.31545 0
M  V30 663 H 60.8089 3.2742 -2.71433 0
M  V30 664 N 59.124 1.23083 0.984299 0
M  V30 665 C 60.054 1.03292 2.09411 0
M  V30 666 C 61.035 -0.048923 1.7003 0
M  V30 667 O 62.22 0.114967 1.93859 0
M  V30 668 C 59.35 0.619155 3.41736 0
M  V30 669 C 58.304 1.64791 3.95004 0
M  V30 670 C 57.63 1.0897 5.23478 0
M  V30 671 C 58.93 3.03999 4.24714 0
M  V30 672 H 60.624 1.96119 2.26225 0
M  V30 673 H 58.17 0.944344 1.08711 0
M  V30 674 H 60.123 0.467777 4.18796 0
M  V30 675 H 58.847 -0.344786 3.24775 0
M  V30 676 H 57.506 1.78721 3.20085 0
M  V30 677 H 57.154 0.11686 5.02864 0
M  V30 678 H 56.854 1.77704 5.60085 0
M  V30 679 H 58.378 0.950093 6.03163 0
M  V30 680 H 59.792 2.93393 4.92538 0
M  V30 681 H 58.189 3.69936 4.72512 0
M  V30 682 H 59.259 3.53285 3.32142 0
M  V30 683 N 60.6021 -1.18246 1.0419 0
M  V30 684 C 61.5321 -2.24127 0.654914 0
M  V30 685 C 62.5131 -1.66617 -0.342451 0
M  V30 686 O 63.6981 -1.92924 -0.222277 0
M  V30 687 C 60.8281 -3.47295 0.0183757 0
M  V30 688 C 59.7821 -4.17563 0.939414 0
M  V30 689 C 59.1081 -5.34438 0.167286 0
M  V30 690 C 60.4081 -4.70917 2.25908 0
M  V30 691 H 62.1021 -2.56753 1.54007 0
M  V30 692 H 59.6481 -1.23414 0.74195 0
M  V30 693 H 61.6011 -4.20572 -0.264082 0
M  V30 694 H 60.3251 -3.13907 -0.901664 0
M  V30 695 H 58.9841 -3.46186 1.20628 0
M  V30 696 H 58.6321 -4.97298 -0.7552 0
M  V30 697 H 58.3321 -5.82388 0.780901 0
M  V30 698 H 59.8561 -6.10504 -0.108125 0
M  V30 699 H 61.2701 -5.35882 2.03724 0
M  V30 700 H 59.6671 -5.29406 2.82577 0
M  V30 701 H 60.7371 -3.88272 2.9047 0
M  V30 702 N 62.0802 -0.821533 -1.34494 0
M  V30 703 C 63.0432 -0.247847 -2.27856 0
M  V30 704 C 64.0432 0.573453 -1.50227 0
M  V30 705 O 65.2332 0.389759 -1.69784 0
M  V30 706 C 62.3652 0.652698 -3.34593 0
M  V30 707 H 63.5582 -1.07146 -2.80107 0
M  V30 708 H 61.1112 -0.593291 -1.44602 0
M  V30 709 H 61.8462 1.49943 -2.87555 0
M  V30 710 H 61.6312 0.065292 -3.92046 0
M  V30 711 H 63.1212 1.04793 -4.04238 0
M  V30 712 N 63.5583 1.46682 -0.576371 0
M  V30 713 C 64.5213 2.28707 0.150239 0
M  V30 714 C 65.5213 1.38035 0.824794 0
M  V30 715 O 66.7113 1.60476 0.677719 0
M  V30 716 C 63.8433 3.18248 1.22192 0
M  V30 717 H 65.0363 2.94423 -0.570521 0
M  V30 718 H 62.5893 1.52688 -0.334078 0
M  V30 719 H 63.3243 2.57265 1.97447 0
M  V30 720 H 63.1093 3.85 0.742812 0
M  V30 721 H 64.5993 3.80001 1.73172 0
M  V30 722 N 65.0364 0.313813 1.54444 0
M  V30 723 C 66.2644 -0.293918 2.04802 0
M  V30 724 C 66.6794 -1.46537 1.19047 0
M  V30 725 O 66.0364 -1.81182 0.218939 0
M  V30 726 C 66.0874 -0.737806 3.53891 0
M  V30 727 O 65.8084 0.387038 4.36387 0
M  V30 728 C 67.3094 -1.40936 4.203 0
M  V30 729 H 64.5294 -0.0620057 0.668129 0
M  V30 730 H 67.0734 0.457169 1.99324 0
M  V30 731 H 65.2284 -1.43889 3.59687 0
M  V30 732 H 65.6424 0.0391274 5.24485 0
M  V30 733 H 67.1164 -1.67099 5.26101 0
M  V30 734 H 67.5934 -2.35355 3.70816 0
M  V30 735 H 68.1994 -0.751117 4.18615 0
M  V30 736 N 66.5145 -1.57545 0.0417849 0
M  V30 737 C 67.7635 -1.91494 -0.633492 0
M  V30 738 C 68.0765 -0.921084 -1.72556 0
M  V30 739 O 69.2825 -1.15228 -2.45835 0
M  V30 740 C 67.7385 -3.40072 -1.17808 0
M  V30 741 C 67.3465 -4.47843 -0.118633 0
M  V30 742 C 69.0905 -3.8307 -1.82915 0
M  V30 743 C 66.9975 -5.87529 -0.675578 0
M  V30 744 H 65.9275 -0.714653 -0.24039 0
M  V30 745 H 68.5785 -1.83175 0.109148 0
M  V30 746 H 66.9605 -3.43364 -1.97274 0
M  V30 747 H 68.1345 -4.56128 0.654494 0
M  V30 748 H 66.4495 -4.14128 0.434414 0
M  V30 749 H 69.0465 -4.84794 -2.25563 0
M  V30 750 H 69.3895 -3.1881 -2.67705 0
M  V30 751 H 69.9225 -3.82255 -1.10119 0
M  V30 752 H 66.6615 -6.55362 0.134475 0
M  V30 753 H 66.1815 -5.82824 -1.4169 0
M  V30 754 H 67.8605 -6.36491 -1.1614 0
M  V30 755 N 67.9926 0.231505 -1.5589 0
M  V30 756 C 69.2326 0.964533 -1.80211 0
M  V30 757 C 69.5966 1.81926 -0.613744 0
M  V30 758 O 70.7976 2.58526 -0.736045 0
M  V30 759 C 69.0686 1.78956 -3.09369 0
M  V30 760 S 70.6276 2.57959 -3.54969 0
M  V30 761 H 67.4456 0.324173 -0.632798 0
M  V30 762 H 70.0476 0.230985 -1.94131 0
M  V30 763 H 68.7516 1.15161 -3.93911 0
M  V30 764 H 68.2826 2.56559 -2.9823 0
M  V30 765 H 70.2976 3.81309 -3.17519 0
M  V30 766 N 69.4707 1.49531 0.497807 0
M  V30 767 C 70.7177 1.59179 1.25173 0
M  V30 768 C 71.0457 0.279932 1.92475 0
M  V30 769 O 70.3007 -0.732383 1.81479 0
M  V30 770 C 70.5997 2.70252 2.33878 0
M  V30 771 C 70.2657 4.11644 1.84012 0
M  V30 772 C 68.9277 4.50121 1.70132 0
M  V30 773 C 71.2797 5.00121 1.46725 0
M  V30 774 C 68.6077 5.74845 1.17348 0
M  V30 775 C 70.9597 6.25366 0.95392 0
M  V30 776 C 69.6237 6.6267 0.801538 0
M  V30 777 H 68.8937 0.582478 0.45804 0
M  V30 778 H 71.5407 1.83373 0.551948 0
M  V30 779 H 69.8457 2.40041 3.09657 0
M  V30 780 H 71.5427 2.74925 2.9192 0
M  V30 781 H 68.1327 3.81274 1.95775 0
M  V30 782 H 72.3167 4.71048 1.56294 0
M  V30 783 H 67.5727 6.02444 1.04264 0
M  V30 784 H 71.7467 6.93301 0.656225 0
M  V30 785 H 69.3737 7.59197 0.390351 0
M  V30 786 N 70.9488 -0.749086 1.3866 0
M  V30 787 C 72.1948 -1.51056 1.35314 0
M  V30 788 C 72.5278 -1.94121 -0.0553751 0
M  V30 789 O 71.8028 -1.65763 -1.01749 0
M  V30 790 C 72.0858 -2.76003 2.31288 0
M  V30 791 C 71.9388 -2.39047 3.8102 0
M  V30 792 C 73.2578 -3.78046 2.2532 0
M  V30 793 H 70.3768 -0.547972 0.492844 0
M  V30 794 H 73.0188 -0.857628 1.69543 0
M  V30 795 H 71.1688 -3.31716 2.02229 0
M  V30 796 H 72.8408 -1.89074 4.20771 0
M  V30 797 H 71.0838 -1.71449 3.98482 0
M  V30 798 H 71.7548 -3.28462 4.4364 0
M  V30 799 H 74.2308 -3.31884 2.50983 0
M  V30 800 H 73.1068 -4.63159 2.94576 0
M  V30 801 H 73.3678 -4.23957 1.25352 0
M  V30 802 N 72.4269 -1.23603 -0.977757 0
M  V30 803 C 73.6759 -1.06377 -1.71368 0
M  V30 804 C 73.9889 0.399062 -1.91486 0
M  V30 805 O 75.1949 0.691312 -2.62551 0
M  V30 806 C 73.6509 -1.85512 -3.08404 0
M  V30 807 C 73.2589 -3.36141 -2.96164 0
M  V30 808 C 75.0029 -1.76783 -3.85938 0
M  V30 809 C 72.9099 -4.07659 -4.28449 0
M  V30 810 H 71.8399 -0.394452 -0.642591 0
M  V30 811 H 74.4909 -1.47594 -1.09034 0
M  V30 812 H 72.8729 -1.37103 -3.71509 0
M  V30 813 H 74.0469 -3.92056 -2.42133 0
M  V30 814 H 72.3619 -3.45712 -2.32104 0
M  V30 815 H 74.9589 -2.27526 -4.83876 0
M  V30 816 H 75.3019 -0.731116 -4.0983 0
M  V30 817 H 75.8349 -2.22818 -3.2954 0
M  V30 818 H 72.5739 -5.11648 -4.09752 0
M  V30 819 H 72.0939 -3.5653 -4.82334 0
M  V30 820 H 73.7729 -4.141 -4.97122 0
M  V30 821 N 73.905 1.17692 -1.04816 0
M  V30 822 C 74.868 2.19787 -0.650117 0
M  V30 823 C 75.868 1.58044 0.296427 0
M  V30 824 O 77.058 1.74012 0.0808097 0
M  V30 825 C 74.19 3.40869 0.0456987 0
M  V30 826 H 75.383 2.56516 -1.5537 0
M  V30 827 H 72.936 1.31708 -0.841594 0
M  V30 828 H 73.671 3.09681 0.962726 0
M  V30 829 H 73.456 3.86928 -0.634727 0
M  V30 830 H 74.946 4.16445 0.310432 0
M  V30 831 N 75.3831 0.828654 1.34056 0
M  V30 832 C 76.6301 0.419458 1.98108 0
M  V30 833 C 76.9581 -1.01886 1.65679 0
M  V30 834 O 76.2131 -1.72539 0.923512 0
M  V30 835 C 76.5121 0.575226 3.52741 0
M  V30 836 C 76.1781 1.98012 4.05095 0
M  V30 837 C 74.8401 2.36442 4.19104 0
M  V30 838 C 77.1921 2.89824 4.33188 0
M  V30 839 C 74.5201 3.66009 4.58535 0
M  V30 840 C 76.8721 4.1886 4.74066 0
M  V30 841 C 75.5361 4.5726 4.86281 0
M  V30 842 H 74.8061 0.153491 0.724929 0
M  V30 843 H 77.4531 1.05371 1.59904 0
M  V30 844 H 75.7581 -0.142385 3.91541 0
M  V30 845 H 77.4551 0.239057 4.00287 0
M  V30 846 H 74.0451 1.67162 3.94658 0
M  V30 847 H 78.2291 2.61375 4.21897 0
M  V30 848 H 73.4851 3.95579 4.66184 0
M  V30 849 H 77.6591 4.90086 4.94761 0
M  V30 850 H 75.2861 5.57707 5.16592 0
M  V30 851 N 76.8612 -1.46375 0.584142 0
M  V30 852 C 78.1102 -2.01585 0.0679741 0
M  V30 853 C 78.4232 -1.46109 -1.30045 0
M  V30 854 O 79.6292 -1.93148 -1.90804 0
M  V30 855 C 78.0852 -3.5983 0.0709207 0
M  V30 856 C 77.6932 -4.24303 1.43775 0
M  V30 857 C 79.4372 -4.22693 -0.391228 0
M  V30 858 C 77.3442 -5.74631 1.39834 0
M  V30 859 H 76.2742 -0.753689 0.0216421 0
M  V30 860 H 78.9252 -1.68093 0.736001 0
M  V30 861 H 77.3072 -3.90405 -0.663299 0
M  V30 862 H 78.4812 -4.05335 2.19181 0
M  V30 863 H 76.7962 -3.73539 1.84004 0
M  V30 864 H 79.3932 -5.3289 -0.439524 0
M  V30 865 H 79.7362 -3.91728 -1.40906 0
M  V30 866 H 80.2692 -3.96749 0.288974 0
M  V30 867 H 77.0082 -6.10258 2.39303 0
M  V30 868 H 76.5282 -5.95858 0.686505 0
M  V30 869 H 78.2072 -6.37375 1.11187 0
M  V30 870 N 78.3393 -0.321999 -1.54275 0
M  V30 871 C 79.3023 0.531975 -2.22941 0
M  V30 872 C 80.3023 1.04478 -1.22234 0
M  V30 873 O 81.4923 0.937452 -1.46825 0
M  V30 874 C 78.6243 1.73874 -2.93224 0
M  V30 875 H 79.8173 -0.0682612 -2.99822 0
M  V30 876 H 77.3703 -0.0730644 -1.56129 0
M  V30 877 H 78.1053 2.37825 -2.20476 0
M  V30 878 H 77.8903 1.37847 -3.6707 0
M  V30 879 H 79.3803 2.34496 -3.45545 0
M  V30 880 N 79.8174 1.5752 -0.0501392 0
M  V30 881 C 80.7804 2.1037 0.909786 0
M  V30 882 C 81.7804 1.02308 1.24056 0
M  V30 883 O 82.9704 1.28385 1.17741 0
M  V30 884 C 80.1024 2.58708 2.21998 0
M  V30 885 H 81.2954 2.96479 0.451665 0
M  V30 886 H 78.8484 1.55038 0.198248 0
M  V30 887 H 79.5834 1.75989 2.72394 0
M  V30 888 H 79.3684 3.37675 1.99295 0
M  V30 889 H 80.8584 2.99747 2.9076 0
M  V30 890 N 81.2955 -0.223234 1.56011 0
M  V30 891 C 82.7065 -0.790368 1.69145 0
M  V30 892 C 83.0575 -1.85055 0.651845 0
M  V30 893 O 82.1825 -2.15498 -0.197359 0
M  V30 894 C 82.7775 -1.4404 3.06656 0
M  V30 895 C 81.3365 -1.95494 3.2165 0
M  V30 896 C 80.4835 -0.814506 2.65068 0
M  V30 897 H 83.4345 0.00139011 1.587 0
M  V30 898 H 83.4555 -2.30916 3.0242 0
M  V30 899 H 82.9675 -0.668543 3.82298 0
M  V30 900 H 81.0685 -2.75487 2.50874 0
M  V30 901 H 81.1815 -2.13607 4.28846 0
M  V30 902 H 79.5455 -1.22137 2.23505 0
M  V30 903 H 80.3285 -0.0553515 3.43255 0
M  V30 904 N 82.7736 -1.49793 -0.48987 0
M  V30 905 C 84.1846 -1.52914 -1.07118 0
M  V30 906 C 84.5356 -0.321738 -1.93544 0
M  V30 907 O 83.6606 0.567338 -2.08831 0
M  V30 908 C 84.2556 -2.771 -1.94938 0
M  V30 909 C 82.8146 -2.82963 -2.48212 0
M  V30 910 C 81.9616 -2.46972 -1.26096 0
M  V30 911 H 84.9126 -1.56329 -0.273289 0
M  V30 912 H 84.9336 -2.57892 -2.79771 0
M  V30 913 H 84.4456 -3.64959 -1.32009 0
M  V30 914 H 82.5466 -1.99411 -3.14748 0
M  V30 915 H 82.6596 -3.85406 -2.84603 0
M  V30 916 H 81.0236 -1.98994 -1.58976 0
M  V30 917 H 81.8066 -3.37118 -0.648581 0
M  V30 918 N 84.2517 0.741722 -1.39055 0
M  V30 919 C 85.4977 1.50336 -1.36113 0
M  V30 920 C 85.8307 1.94148 0.0450796 0
M  V30 921 O 85.1057 1.66301 1.00868 0
M  V30 922 C 85.3887 2.74773 -2.32749 0
M  V30 923 C 85.2417 2.37023 -3.82283 0
M  V30 924 C 86.5607 3.76846 -2.27322 0
M  V30 925 H 83.6797 0.545351 -0.495743 0
M  V30 926 H 86.3217 0.848624 -1.69995 0
M  V30 927 H 84.4717 3.30639 -2.03986 0
M  V30 928 H 86.1437 1.8684 -4.21768 0
M  V30 929 H 84.3867 1.69334 -3.99385 0
M  V30 930 H 85.0577 3.26104 -4.45376 0
M  V30 931 H 87.5337 3.30548 -2.5274 0
M  V30 932 H 86.4097 4.6159 -2.97028 0
M  V30 933 H 86.6707 4.23286 -1.27599 0
M  V30 934 N 85.7298 1.2412 0.971189 0
M  V30 935 C 87.0068 0.986867 1.6888 0
M  V30 936 C 87.3868 -0.491857 2.0529 0
M  V30 937 O 86.7348 -1.46531 1.75331 0
M  V30 938 C 86.9448 1.9063 2.92338 0
M  V30 939 C 88.2928 2.17515 3.64654 0
M  V30 940 O 89.3168 1.88254 3.02388 0
M  V30 941 O 88.1758 2.6719 4.7673 0
M  V30 942 H 85.2698 0.372944 0.738134 0
M  V30 943 H 87.8158 1.35203 1.02559 0
M  V30 944 H 86.5878 2.90552 2.62097 0
M  V30 945 H 86.2108 1.54408 3.66393 0
M  V30 946 N 87.2079 -1.17134 1.05439 0
M  V30 947 C 88.4569 -1.86791 0.761049 0
M  V30 948 C 88.7699 -1.82072 -0.714795 0
M  V30 949 O 89.9759 -2.47223 -1.12218 0
M  V30 950 C 88.4319 -3.35166 1.31117 0
M  V30 951 C 88.0399 -3.48381 2.81664 0
M  V30 952 C 89.7839 -4.10134 1.09499 0
M  V30 953 C 87.6909 -4.90793 3.29964 0
M  V30 954 H 86.6209 -0.699681 0.281002 0
M  V30 955 H 89.2719 -1.3226 1.27199 0
M  V30 956 H 87.6539 -3.8925 0.72803 0
M  V30 957 H 88.8279 -3.04502 3.45855 0
M  V30 958 H 87.1429 -2.86836 3.01851 0
M  V30 959 H 89.7399 -5.152 1.43084 0
M  V30 960 H 90.0829 -4.16287 0.0328772 0
M  V30 961 H 90.6159 -3.62264 1.64346 0
M  V30 962 H 87.3549 -4.89816 4.35616 0
M  V30 963 H 86.8749 -5.35333 2.70516 0
M  V30 964 H 88.5539 -5.59573 3.24787 0
M  V30 965 N 88.686 -0.835752 -1.33615 0
M  V30 966 C 89.963 -0.352017 -1.92406 0
M  V30 967 C 90.343 1.16225 -1.76224 0
M  V30 968 O 89.691 1.97526 -1.14873 0
M  V30 969 C 89.901 -0.795485 -3.39813 0
M  V30 970 C 91.249 -0.801703 -4.16963 0
M  V30 971 O 92.273 -0.738889 -3.48452 0
M  V30 972 O 91.132 -0.886607 -5.3926 0
M  V30 973 H 88.226 -0.0989641 -0.821057 0
M  V30 974 H 90.772 -0.921397 -1.42507 0
M  V30 975 H 89.544 -1.83795 -3.45449 0
M  V30 976 H 89.167 -0.202505 -3.97084 0
M  V30 977 N 90.1641 1.46063 -0.591896 0
M  V30 978 C 91.4121 2.01938 -0.0808391 0
M  V30 979 C 91.7331 1.46475 1.28725 0
M  V30 980 O 91.0031 0.652944 1.84698 0
M  V30 981 H 89.5831 0.746516 -0.0268938 0
M  V30 982 H 92.2451 1.79055 -0.769752 0
M  V30 983 H 91.3411 3.12094 -0.0187578 0
M  V30 984 N 91.6422 0.330177 1.54103 0
M  V30 985 C 92.8912 -0.271336 1.99867 0
M  V30 986 C 93.2042 -1.52723 1.22209 0
M  V30 987 O 94.4102 -2.20515 1.58383 0
M  V30 988 C 92.8662 -0.534032 3.55916 0
M  V30 989 C 92.4742 0.705193 4.42415 0
M  V30 990 C 94.2182 -1.09514 4.1013 0
M  V30 991 C 92.1252 0.414035 5.89949 0
M  V30 992 H 91.0552 -0.105166 0.74663 0
M  V30 993 H 93.7062 0.443429 1.78062 0
M  V30 994 H 92.0882 -1.30915 3.73734 0
M  V30 995 H 93.2622 1.4804 4.36372 0
M  V30 996 H 91.5772 1.18698 3.99124 0
M  V30 997 H 94.1742 -1.3277 5.17954 0
M  V30 998 H 94.5172 -2.04656 3.62521 0
M  V30 999 H 95.0502 -0.381038 3.95971 0
M  V30 1000 H 91.7892 1.33481 6.41766 0
M  V30 1001 H 91.3092 -0.323336 5.98928 0
M  V30 1002 H 92.9882 0.0263105 6.46995 0
M  V30 1003 N 93.1203 -1.57491 0.0584922 0
M  V30 1004 C 94.5363 -1.56792 -0.298091 0
M  V30 1005 C 94.7363 -1.06679 -1.70944 0
M  V30 1006 O 93.7923 -0.726672 -2.41818 0
M  V30 1007 C 95.1053 -3.00461 -0.119879 0
M  V30 1008 C 96.6533 -3.1242 -0.190428 0
M  V30 1009 C 97.1283 -4.57982 -0.0406567 0
M  V30 1010 N 98.6193 -4.63099 -0.0966958 0
M  V30 1011 C 99.3543 -5.734 -0.00502943 0
M  V30 1012 N 98.8503 -6.9266 0.139402 0
M  V30 1013 N 100.643 -5.62067 -0.0611391 0
M  V30 1014 H 92.7943 -1.88386 0.98105 0
M  V30 1015 H 95.0573 -0.867865 0.381463 0
M  V30 1016 H 94.7633 -3.41187 0.85349 0
M  V30 1017 H 94.6373 -3.66843 -0.877833 0
M  V30 1018 H 97.0243 -2.71589 -1.15427 0
M  V30 1019 H 97.1053 -2.48702 0.598405 0
M  V30 1020 H 96.7493 -4.995 0.919897 0
M  V30 1021 H 96.6793 -5.19715 -0.848727 0
M  V30 1022 H 99.1703 -3.77331 -0.207277 0
M  V30 1023 H 99.4833 -7.72536 0.201855 0
M  V30 1024 H 97.8283 -6.94781 0.174586 0
M  V30 1025 H 101.019 -4.67782 -0.172583 0
M  V30 1026 H 101.192 -6.47999 0.0137562 0
M  V30 1027 N 94.5984 0.214957 -1.56127 0
M  V30 1028 C 95.5084 1.28727 -1.96129 0
M  V30 1029 C 96.5244 1.50916 -0.866044 0
M  V30 1030 O 97.7004 1.63918 -1.17016 0
M  V30 1031 C 94.7654 2.61569 -2.27558 0
M  V30 1032 C 93.8264 2.47625 -3.50685 0
M  V30 1033 C 93.0594 3.74132 -3.80606 0
M  V30 1034 O 93.2824 4.77438 -3.12104 0
M  V30 1035 O 92.2164 3.70849 -4.74083 0
M  V30 1036 H 96.0424 0.977855 -2.87527 0
M  V30 1037 H 93.6274 0.418358 -1.43423 0
M  V30 1038 H 95.5094 3.40012 -2.48938 0
M  V30 1039 H 94.1844 2.92178 -1.39332 0
M  V30 1040 H 93.0914 1.67361 -3.34576 0
M  V30 1041 H 94.4244 2.21954 -4.39315 0
M  V30 1042 N 96.0765 1.50051 0.48192 0
M  V30 1043 C 97.4875 1.5348 1.06305 0
M  V30 1044 C 97.8385 0.331997 1.93371 0
M  V30 1045 O 96.9635 -0.556256 2.09129 0
M  V30 1046 C 97.5585 2.7813 1.93466 0
M  V30 1047 C 96.1175 2.84275 2.46707 0
M  V30 1048 C 95.2645 2.47637 1.24785 0
M  V30 1049 H 98.2155 1.56472 0.264995 0
M  V30 1050 H 98.2365 2.59372 2.78399 0
M  V30 1051 H 97.7485 3.65654 1.30072 0
M  V30 1052 H 95.8495 2.01077 3.13686 0
M  V30 1053 H 95.9625 3.8691 2.82555 0
M  V30 1054 H 94.3265 1.99835 1.57918 0
M  V30 1055 H 95.1095 3.37457 0.630694 0
M  V30 1056 N 97.5546 -0.734337 1.39446 0
M  V30 1057 C 98.8006 -1.49613 1.36908 0
M  V30 1058 C 99.1336 -1.94169 -0.0347829 0
M  V30 1059 O 98.4086 -1.66833 -0.999847 0
M  V30 1060 C 98.6916 -2.73534 2.34203 0
M  V30 1061 C 98.5446 -2.34993 3.83534 0
M  V30 1062 C 99.8636 -3.75635 2.29317 0
M  V30 1063 H 96.9826 -0.542714 0.498629 0
M  V30 1064 H 99.6246 -0.839597 1.70443 0
M  V30 1065 H 97.7746 -3.29553 2.05736 0
M  V30 1066 H 99.4466 -1.84601 4.22753 0
M  V30 1067 H 97.6896 -1.67213 4.00278 0
M  V30 1068 H 98.3606 -3.23738 4.47099 0
M  V30 1069 H 100.837 -3.29203 2.54489 0
M  V30 1070 H 99.7126 -4.60008 2.99472 0
M  V30 1071 H 99.9736 -4.22603 1.29842 0
M  V30 1072 N 99.0327 -1.24633 -0.964593 0
M  V30 1073 C 100.258 -1.11596 -1.74818 0
M  V30 1074 C 100.683 0.32723 -1.85232 0
M  V30 1075 O 100.041 1.23695 -1.32549 0
M  V30 1076 C 100.089 -1.76397 -3.1451 0
M  V30 1077 O 99.1927 -1.03685 -3.99153 0
M  V30 1078 H 98.5337 -0.390196 -0.537255 0
M  V30 1079 H 101.064 -1.65002 -1.20977 0
M  V30 1080 H 101.074 -1.8228 -3.65018 0
M  V30 1081 H 99.7487 -2.81401 -3.06246 0
M  V30 1082 H 98.3257 -1.05611 -3.57632 0
M  V30 1083 N 100.511 1.16574 -1.06058 0
M  V30 1084 C 101.759 1.86677 -0.77434 0
M  V30 1085 C 102.08 1.81959 0.701147 0
M  V30 1086 O 101.35 1.2515 1.50713 0
M  V30 1087 H 99.9298 0.691134 -0.283449 0
M  V30 1088 H 102.592 1.41378 -1.34158 0
M  V30 1089 H 101.688 2.92181 -1.09711 0
M  V30 1090 N 101.989 0.842826 1.3317 0
M  V30 1091 C 103.214 0.453129 2.02389 0
M  V30 1092 C 103.639 -0.939105 1.6298 0
M  V30 1093 O 102.997 -1.61472 0.8244 0
M  V30 1094 C 103.045 0.586094 3.55805 0
M  V30 1095 O 102.149 -0.386029 4.10589 0
M  V30 1096 H 101.49 0.183664 0.638094 0
M  V30 1097 H 104.02 1.13875 1.69981 0
M  V30 1098 H 104.03 0.469209 4.05293 0
M  V30 1099 H 102.705 1.6014 3.83833 0
M  V30 1100 H 101.282 -0.226371 3.72212 0
M  V30 1101 N 103.467 -1.45747 0.599634 0
M  V30 1102 C 104.397 -2.33235 -0.111306 0
M  V30 1103 C 105.378 -1.46359 -0.866781 0
M  V30 1104 O 106.563 -1.75146 -0.838904 0
M  V30 1105 C 103.693 -3.28932 -1.11451 0
M  V30 1106 C 102.647 -4.25381 -0.472772 0
M  V30 1107 C 101.973 -5.1071 -1.58365 0
M  V30 1108 C 103.273 -5.18831 0.600948 0
M  V30 1109 H 104.967 -2.92927 0.61919 0
M  V30 1110 H 102.513 -1.40857 0.299215 0
M  V30 1111 H 104.466 -3.89002 -1.62036 0
M  V30 1112 H 103.19 -2.67381 -1.8755 0
M  V30 1113 H 101.849 -3.66598 0.0121472 0
M  V30 1114 H 101.497 -4.45533 -2.33473 0
M  V30 1115 H 101.197 -5.7604 -1.15982 0
M  V30 1116 H 102.721 -5.73647 -2.09194 0
M  V30 1117 H 104.135 -5.73019 0.179491 0
M  V30 1118 H 102.532 -5.92595 0.946076 0
M  V30 1119 H 103.602 -4.6174 1.48068 0
M  V30 1120 N 104.945 -0.338344 -1.53925 0
M  V30 1121 C 105.875 0.51328 -2.27789 0
M  V30 1122 C 106.856 1.107 -1.29149 0
M  V30 1123 O 108.041 1.12937 -1.57984 0
M  V30 1124 C 105.171 1.66697 -3.04679 0
M  V30 1125 C 104.125 1.20183 -4.1078 0
M  V30 1126 C 103.451 2.44363 -4.75595 0
M  V30 1127 C 104.751 0.30605 -5.21403 0
M  V30 1128 H 106.445 -0.102883 -2.99223 0
M  V30 1129 H 103.991 -0.0509219 -1.4391 0
M  V30 1130 H 105.944 2.26915 -3.55088 0
M  V30 1131 H 104.668 2.30995 -2.30887 0
M  V30 1132 H 103.327 0.622499 -3.61276 0
M  V30 1133 H 102.975 3.07057 -3.98403 0
M  V30 1134 H 102.675 2.13925 -5.47275 0
M  V30 1135 H 104.199 3.05317 -5.28786 0
M  V30 1136 H 105.613 0.814929 -5.67478 0
M  V30 1137 H 104.01 0.0937929 -6.00027 0
M  V30 1138 H 105.08 -0.65921 -4.80398 0
M  V30 1139 N 106.423 1.57458 -0.0668435 0
M  V30 1140 C 107.653 1.97337 0.611677 0
M  V30 1141 C 108.061 0.943744 1.63982 0
M  V30 1142 O 107.404 -0.0785584 1.83532 0
M  V30 1143 C 107.466 3.33511 1.34205 0
M  V30 1144 C 107.13 4.54598 0.467941 0
M  V30 1145 C 108.127 5.19186 -0.272439 0
M  V30 1146 C 105.812 5.0075 0.39427 0
M  V30 1147 C 107.806 6.28274 -1.07476 0
M  V30 1148 C 105.493 6.09711 -0.411729 0
M  V30 1149 C 106.491 6.73335 -1.14492 0
M  V30 1150 O 106.179 7.80199 -1.93763 0
M  V30 1151 H 105.911 0.654042 0.170893 0
M  V30 1152 H 108.465 2.04961 -0.134289 0
M  V30 1153 H 106.695 3.22487 2.13398 0
M  V30 1154 H 108.384 3.58029 1.91233 0
M  V30 1155 H 109.15 4.84477 -0.225086 0
M  V30 1156 H 105.029 4.51009 0.954569 0
M  V30 1157 H 108.573 6.77866 -1.64755 0
M  V30 1158 H 104.47 6.43854 -0.460664 0
M  V30 1159 H 105.238 7.97053 -1.86142 0
M  V30 1160 N 107.901 -0.206675 1.56239 0
M  V30 1161 C 109.149 -0.927007 1.79586 0
M  V30 1162 C 109.47 -1.8427 0.637929 0
M  V30 1163 O 108.74 -1.92849 -0.344398 0
M  V30 1164 H 107.32 -0.345292 0.662407 0
M  V30 1165 H 109.982 -0.21496 1.93711 0
M  V30 1166 H 109.078 -1.52501 2.72305 0
M  V30 1167 N 109.379 -1.50304 -0.473955 0
M  V30 1168 C 110.327 -1.69482 -1.59307 0
M  V30 1169 C 111.321 -0.560669 -1.59853 0
M  V30 1170 O 112.527 -0.741087 -1.64036 0
M  V30 1171 H 108.902 -0.534892 -0.528578 0
M  V30 1172 H 110.873 -2.63364 -1.40293 0
M  V30 1173 C 109.622 -1.80354 -2.97267 0
M  V30 1174 H 108.945 -2.67012 -2.97564 0
M  V30 1175 H 110.385 -1.97798 -3.75036 0
M  V30 1176 C 108.844 -0.55448 -3.32306 0
M  V30 1177 O 109.374 0.307661 -4.0052 0
M  V30 1178 N 107.58 -0.409354 -2.87702 0
M  V30 1179 H 107.127 -1.11196 -2.32364 0
M  V30 1180 H 107.085 0.425223 -3.11511 0
M  V30 1181 N 110.857 0.726932 -1.39834 0
M  V30 1182 C 111.805 1.86235 -1.39353 0
M  V30 1183 C 112.799 1.67144 -0.275555 0
M  V30 1184 O 114.005 1.74387 -0.44601 0
M  V30 1185 H 110.38 0.613174 -0.43534 0
M  V30 1186 H 112.351 1.83756 -2.35109 0
M  V30 1187 C 111.1 3.23995 -1.26185 0
M  V30 1188 H 110.423 3.39285 -2.11484 0
M  V30 1189 H 111.863 4.03609 -1.29907 0
M  V30 1190 C 110.322 3.36888 0.0290018 0
M  V30 1191 O 110.852 3.89152 0.99619 0
M  V30 1192 N 109.058 2.90446 0.0947437 0
M  V30 1193 H 108.605 2.48102 -0.693035 0
M  V30 1194 H 108.563 2.99451 0.957932 0
M  V30 1195 N 112.336 1.25143 0.95797 0
M  V30 1196 C 113.585 1.0909 1.69654 0
M  V30 1197 C 113.898 -0.368548 1.92097 0
M  V30 1198 O 115.104 -0.649455 2.63618 0
M  V30 1199 C 113.56 1.90395 3.05414 0
M  V30 1200 C 113.168 3.4081 2.90779 0
M  V30 1201 C 114.912 1.82901 3.83076 0
M  V30 1202 C 112.819 4.14423 4.21909 0
M  V30 1203 H 111.749 0.404625 0.636235 0
M  V30 1204 H 114.4 1.4931 1.06672 0
M  V30 1205 H 112.782 1.42996 3.69281 0
M  V30 1206 H 113.956 3.95859 2.35865 0
M  V30 1207 H 112.271 3.49361 2.26575 0
M  V30 1208 H 114.868 2.35196 4.80195 0
M  V30 1209 H 115.211 0.796224 4.08615 0
M  V30 1210 H 115.744 2.28033 3.25954 0
M  V30 1211 H 112.483 5.18102 4.01561 0
M  V30 1212 H 112.003 3.64159 4.76601 0
M  V30 1213 H 113.682 4.21956 4.90471 0
M  V30 1214 N 113.814 -1.1601 1.06675 0
M  V30 1215 C 115.063 -1.85973 0.780818 0
M  V30 1216 C 115.376 -1.82819 -0.695444 0
M  V30 1217 O 116.582 -2.484 -1.09589 0
M  V30 1218 C 115.038 -3.33757 1.34665 0
M  V30 1219 C 114.646 -3.45374 2.85343 0
M  V30 1220 C 116.39 -4.0895 1.13843 0
M  V30 1221 C 114.297 -4.87266 3.35151 0
M  V30 1222 H 113.227 -0.696661 0.288407 0
M  V30 1223 H 115.878 -1.30903 1.28595 0
M  V30 1224 H 114.26 -3.88456 0.769274 0
M  V30 1225 H 115.434 -3.00816 3.49065 0
M  V30 1226 H 113.749 -2.83619 3.04876 0
M  V30 1227 H 116.346 -5.13654 1.4854 0
M  V30 1228 H 116.689 -4.16229 0.0770282 0
M  V30 1229 H 117.222 -3.605 1.68179 0
M  V30 1230 H 113.961 -4.85168 4.40786 0
M  V30 1231 H 113.481 -5.32433 2.76179 0
M  V30 1232 H 115.16 -5.56097 3.30704 0
M  V30 1233 N 115.292 -0.849877 -1.32721 0
M  V30 1234 C 116.52 -0.464754 -2.01613 0
M  V30 1235 C 116.935 0.937191 -1.63897 0
M  V30 1236 O 116.292 1.61081 -0.857856 0
M  V30 1237 C 116.343 -0.588638 -3.56675 0
M  V30 1238 O 116.064 -1.93535 -3.93034 0
M  V30 1239 C 117.565 -0.2019 -4.4284 0
M  V30 1240 H 114.785 -0.183215 -0.645502 0
M  V30 1241 H 117.329 -1.1455 -1.69407 0
M  V30 1242 H 115.484 0.0443159 -3.87375 0
M  V30 1243 H 115.898 -1.92871 -4.87751 0
M  V30 1244 H 117.372 -0.339599 -5.50954 0
M  V30 1245 H 117.849 0.857224 -4.30753 0
M  V30 1246 H 118.455 -0.809733 -4.17521 0
M  V30 1247 N 116.77 1.45427 -0.607355 0
M  V30 1248 C 118.018 2.01841 -0.102253 0
M  V30 1249 C 118.339 1.47832 1.27164 0
M  V30 1250 O 117.609 0.672497 1.83995 0
M  V30 1251 H 116.189 0.746188 -0.0348101 0
M  V30 1252 H 118.851 1.78229 -0.7887 0
M  V30 1253 H 117.947 3.12057 -0.0518585 0
M  V30 1254 N 118.248 0.346503 1.53744 0
M  V30 1255 C 119.211 -0.496439 2.23759 0
M  V30 1256 C 120.211 -1.0252 1.2388 0
M  V30 1257 O 121.401 -0.913974 1.48297 0
M  V30 1258 C 118.533 -1.69187 2.95954 0
M  V30 1259 H 119.726 0.115952 2.99676 0
M  V30 1260 H 117.279 0.0978939 1.55993 0
M  V30 1261 H 118.014 -2.34288 2.24231 0
M  V30 1262 H 117.799 -1.31989 3.69217 0
M  V30 1263 H 119.289 -2.28969 3.49232 0
M  V30 1264 N 119.726 -1.57421 0.075193 0
M  V30 1265 C 120.972 -1.93905 -0.594025 0
M  V30 1266 C 121.305 -0.955701 -1.69056 0
M  V30 1267 O 120.58 0.0145373 -1.94495 0
M  V30 1268 C 120.863 -3.40638 -1.1678 0
M  V30 1269 C 120.716 -4.49733 -0.0776792 0
M  V30 1270 C 122.035 -3.88259 -2.07228 0
M  V30 1271 H 119.154 -0.705105 -0.214466 0
M  V30 1272 H 121.796 -1.8947 0.141854 0
M  V30 1273 H 119.946 -3.44549 -1.79494 0
M  V30 1274 H 121.618 -4.57942 0.555573 0
M  V30 1275 H 119.861 -4.29751 0.591286 0
M  V30 1276 H 120.532 -5.49549 -0.519603 0
M  V30 1277 H 123.008 -3.86376 -1.54445 0
M  V30 1278 H 121.884 -4.91533 -2.44308 0
M  V30 1279 H 122.145 -3.26396 -2.98191 0
M  V30 1280 N 121.204 0.198386 -1.56346 0
M  V30 1281 C 122.45 0.920648 -1.80698 0
M  V30 1282 C 122.783 1.83045 -0.648697 0
M  V30 1283 O 122.058 1.91308 0.350925 0
M  V30 1284 C 122.341 1.73971 -3.15287 0
M  V30 1285 C 122.194 0.85485 -4.41602 0
M  V30 1286 C 123.513 2.71296 -3.46535 0
M  V30 1287 H 120.632 0.333261 -0.657348 0
M  V30 1288 H 123.274 0.188198 -1.89066 0
M  V30 1289 H 121.424 2.36416 -3.08285 0
M  V30 1290 H 123.096 0.245362 -4.60647 0
M  V30 1291 H 121.339 0.161398 -4.335 0
M  V30 1292 H 122.01 1.46286 -5.32264 0
M  V30 1293 H 124.486 2.18983 -3.53816 0
M  V30 1294 H 123.362 3.2569 -4.41834 0
M  V30 1295 H 123.623 3.5018 -2.69864 0
M  V30 1296 N 122.682 1.50554 0.465978 0
M  V30 1297 C 124.093 1.54599 1.04671 0
M  V30 1298 C 124.444 0.352488 1.93008 0
M  V30 1299 O 123.569 -0.534044 2.09707 0
M  V30 1300 C 124.164 2.80166 1.90505 0
M  V30 1301 C 122.723 2.86876 2.43678 0
M  V30 1302 C 121.87 2.48947 1.22151 0
M  V30 1303 H 124.821 1.56744 0.248384 0
M  V30 1304 H 124.842 2.62311 2.75633 0
M  V30 1305 H 124.354 3.67013 1.26186 0
M  V30 1306 H 122.455 2.04393 3.11536 0
M  V30 1307 H 122.568 3.89885 2.78436 0
M  V30 1308 H 120.932 2.01498 1.5579 0
M  V30 1309 H 121.715 3.38107 0.594866 0
M  V30 1310 N 124.16 -0.719506 1.40217 0
M  V30 1311 C 125.385 -1.51371 1.4178 0
M  V30 1312 C 125.81 -1.88091 0.0182355 0
M  V30 1313 O 125.168 -1.52997 -0.972707 0
M  V30 1314 C 125.216 -2.768 2.31115 0
M  V30 1315 O 124.32 -3.73349 1.7517 0
M  V30 1316 H 123.661 -0.456529 0.482159 0
M  V30 1317 H 126.191 -0.88644 1.844 0
M  V30 1318 H 126.201 -3.25371 2.46167 0
M  V30 1319 H 124.876 -2.49407 3.3282 0
M  V30 1320 H 123.453 -3.32179 1.69444 0
M  V30 1321 N 125.638 -1.25649 -0.95132 0
M  V30 1322 C 126.863 -1.13443 -1.73624 0
M  V30 1323 C 127.288 0.307565 -1.85568 0
M  V30 1324 O 126.646 1.22282 -1.33854 0
M  V30 1325 C 126.694 -1.79723 -3.12621 0
M  V30 1326 O 125.798 -1.07912 -3.98031 0
M  V30 1327 H 125.139 -0.395872 -0.533086 0
M  V30 1328 H 127.669 -1.66276 -1.1922 0
M  V30 1329 H 127.679 -1.86141 -3.63064 0
M  V30 1330 H 126.354 -2.84633 -3.03244 0
M  V30 1331 H 124.931 -1.09398 -3.56492 0
M  V30 1332 N 127.117 1.15442 -1.07289 0
M  V30 1333 C 128.065 2.22225 -0.686952 0
M  V30 1334 C 129.059 1.66688 0.30193 0
M  V30 1335 O 130.265 1.79236 0.165712 0
M  V30 1336 H 126.64 0.723783 -0.204064 0
M  V30 1337 H 128.611 2.52056 -1.5972 0
M  V30 1338 C 127.36 3.47556 -0.100149 0
M  V30 1339 H 126.683 3.90612 -0.852211 0
M  V30 1340 H 128.123 4.23794 0.132235 0
M  V30 1341 C 126.582 3.16337 1.159 0
M  V30 1342 O 127.112 3.33074 2.24555 0
M  V30 1343 N 125.318 2.70385 1.06491 0
M  V30 1344 H 124.865 2.56966 0.180668 0
M  V30 1345 H 124.823 2.49871 1.90819 0
M  V30 1346 N 128.595 0.856903 1.32268 0
M  V30 1347 C 129.558 0.308171 2.27119 0
M  V30 1348 C 130.558 -0.533421 1.51695 0
M  V30 1349 O 131.748 -0.344607 1.70757 0
M  V30 1350 C 128.88 -0.563757 3.36206 0
M  V30 1351 H 130.073 1.14535 2.77167 0
M  V30 1352 H 127.626 0.631421 1.42978 0
M  V30 1353 H 128.361 -1.42266 2.91429 0
M  V30 1354 H 128.146 0.0386749 3.92081 0
M  V30 1355 H 129.636 -0.940386 4.06874 0
M  V30 1356 N 130.073 -1.45103 0.615059 0
M  V30 1357 C 131.322 -2.01396 0.110718 0
M  V30 1358 C 131.635 -1.48834 -1.26916 0
M  V30 1359 O 132.841 -1.97152 -1.86664 0
M  V30 1360 C 131.297 -3.59599 0.14723 0
M  V30 1361 C 130.905 -4.21158 1.52743 0
M  V30 1362 C 132.649 -4.23428 -0.30148 0
M  V30 1363 C 130.556 -5.71535 1.51992 0
M  V30 1364 H 129.486 -0.753061 0.0376241 0
M  V30 1365 H 132.137 -1.66494 0.77149 0
M  V30 1366 H 130.519 -3.91724 -0.580339 0
M  V30 1367 H 131.693 -4.00594 2.2773 0
M  V30 1368 H 130.008 -3.69552 1.91886 0
M  V30 1369 H 132.605 -5.33703 -0.326392 0
M  V30 1370 H 132.948 -3.94629 -1.32565 0
M  V30 1371 H 133.481 -3.96047 0.373065 0
M  V30 1372 H 130.22 -6.05044 2.52193 0
M  V30 1373 H 129.74 -5.94268 0.81274 0
M  V30 1374 H 131.419 -6.34873 1.24681 0
M  V30 1375 N 131.551 -0.354651 -1.53558 0
M  V30 1376 C 132.799 0.237972 -2.00694 0
M  V30 1377 C 133.12 1.50173 -1.24391 0
M  V30 1378 O 132.39 1.92673 -0.354135 0
M  V30 1379 H 130.97 0.0909256 -0.741446 0
M  V30 1380 H 133.632 -0.478368 -1.88938 0
M  V30 1381 H 132.728 0.47264 -3.085 0
M  V30 1382 N 133.029 1.57378 -0.0835403 0
M  V30 1383 C 133.959 2.1641 0.87686 0
M  V30 1384 C 134.94 1.09429 1.30228 0
M  V30 1385 O 136.125 1.37516 1.37124 0
M  V30 1386 C 133.255 2.73517 2.14022 0
M  V30 1387 C 132.209 3.85769 1.85381 0
M  V30 1388 C 131.535 4.29529 3.18448 0
M  V30 1389 C 132.835 5.09486 1.14984 0
M  V30 1390 H 134.529 2.96914 0.385059 0
M  V30 1391 H 132.075 1.42823 0.18377 0
M  V30 1392 H 134.028 3.13463 2.81636 0
M  V30 1393 H 132.752 1.90252 2.65465 0
M  V30 1394 H 131.411 3.46345 1.20169 0
M  V30 1395 H 131.059 3.43169 3.67755 0
M  V30 1396 H 130.759 5.05204 3.00071 0
M  V30 1397 H 132.283 4.72099 3.8724 0
M  V30 1398 H 133.697 5.46674 1.72687 0
M  V30 1399 H 132.094 5.90515 1.06826 0
M  V30 1400 H 133.164 4.84724 0.130749 0
M  V30 1401 N 134.507 -0.190092 1.56449 0
M  V30 1402 C 135.457 -1.23977 1.91347 0
M  V30 1403 C 136.441 -1.40747 0.779693 0
M  V30 1404 O 137.633 -1.43033 1.04262 0
M  V30 1405 C 134.762 -2.58347 2.26079 0
M  V30 1406 C 133.848 -2.4535 3.45925 0
M  V30 1407 N 134.239 -2.02039 4.63696 0
M  V30 1408 C 132.537 -2.76229 3.50162 0
M  V30 1409 C 133.238 -2.01053 5.4585 0
M  V30 1410 N 132.214 -2.42747 4.8639 0
M  V30 1411 H 136.016 -0.896318 2.79899 0
M  V30 1412 H 133.53 -0.398496 1.57435 0
M  V30 1413 H 135.527 -3.34173 2.49267 0
M  V30 1414 H 134.187 -2.93512 1.38856 0
M  V30 1415 H 135.198 -1.7267 4.88268 0
M  V30 1416 H 131.875 -3.15556 2.73369 0
M  V30 1417 H 133.265 -1.69426 6.50188 0
M  V30 1418 N 135.985 -1.50799 -0.457987 0
M  V30 1419 C 137.232 -1.62442 -1.20908 0
M  V30 1420 C 137.56 -0.330865 -1.91665 0
M  V30 1421 O 136.815 0.68401 -1.83357 0
M  V30 1422 C 137.114 -2.76358 -2.2663 0
M  V30 1423 C 136.78 -4.16378 -1.73033 0
M  V30 1424 C 135.442 -4.54473 -1.58138 0
M  V30 1425 C 137.794 -5.03836 -1.33413 0
M  V30 1426 C 135.122 -5.77754 -1.02065 0
M  V30 1427 C 137.474 -6.27676 -0.78778 0
M  V30 1428 C 136.138 -6.64562 -0.625561 0
M  V30 1429 H 135.408 -0.594417 -0.442435 0
M  V30 1430 H 138.055 -1.84772 -0.503136 0
M  V30 1431 H 136.36 -2.48167 -3.03184 0
M  V30 1432 H 138.057 -2.82568 -2.84528 0
M  V30 1433 H 134.647 -3.86331 -1.85598 0
M  V30 1434 H 138.831 -4.75026 -1.4375 0
M  V30 1435 H 134.087 -6.04997 -0.882547 0
M  V30 1436 H 138.261 -6.94797 -0.472177 0
M  V30 1437 H 135.888 -7.59965 -0.188926 0
M  V30 1438 N 137.463 0.71206 -1.40597 0
M  V30 1439 C 138.693 1.49894 -1.42181 0
M  V30 1440 C 139.101 1.89189 -0.0208078 0
M  V30 1441 O 138.444 1.56223 0.966436 0
M  V30 1442 C 138.506 2.80215 -2.25211 0
M  V30 1443 C 138.17 2.63221 -3.73582 0
M  V30 1444 C 139.167 2.30249 -4.66135 0
M  V30 1445 C 136.852 2.79376 -4.17438 0
M  V30 1446 C 138.846 2.13645 -6.00529 0
M  V30 1447 C 136.533 2.6239 -5.51901 0
M  V30 1448 C 137.531 2.29573 -6.43262 0
M  V30 1449 O 137.219 2.12719 -7.75246 0
M  V30 1450 H 136.951 0.469031 -0.486812 0
M  V30 1451 H 139.505 0.88564 -1.85326 0
M  V30 1452 H 137.735 3.4389 -1.76852 0
M  V30 1453 H 139.424 3.41947 -2.18694 0
M  V30 1454 H 140.19 2.17398 -4.33547 0
M  V30 1455 H 136.069 3.03906 -3.46644 0
M  V30 1456 H 139.613 1.87953 -6.71803 0
M  V30 1457 H 135.51 2.74826 -5.84073 0
M  V30 1458 H 136.278 2.27611 -7.86216 0
M  V30 1459 N 138.941 1.26152 0.944643 0
M  V30 1460 C 140.352 1.10454 1.50522 0
M  V30 1461 C 140.703 -0.31635 1.93633 0
M  V30 1462 O 139.828 -1.20746 1.79581 0
M  V30 1463 C 140.423 1.99891 2.73549 0
M  V30 1464 C 138.982 1.88348 3.25886 0
M  V30 1465 C 138.129 1.93447 1.9868 0
M  V30 1466 H 141.08 1.39292 0.760489 0
M  V30 1467 H 141.101 1.54477 3.47732 0
M  V30 1468 H 140.613 3.03297 2.42141 0
M  V30 1469 H 138.714 0.878636 3.62092 0
M  V30 1470 H 138.827 2.73696 3.93227 0
M  V30 1471 H 137.191 1.37456 2.14425 0
M  V30 1472 H 137.974 2.98476 1.69607 0
M  V30 1473 N 140.419 -1.14872 1.07899 0
M  V30 1474 C 141.668 -1.85135 0.800499 0
M  V30 1475 C 141.981 -1.83547 -0.676014 0
M  V30 1476 O 143.187 -2.49548 -1.06948 0
M  V30 1477 C 141.643 -3.3231 1.38197 0
M  V30 1478 C 141.251 -3.42329 2.8899 0
M  V30 1479 C 142.995 -4.0772 1.18174 0
M  V30 1480 C 140.902 -4.83684 3.403 0
M  V30 1481 H 139.832 -0.693563 0.29578 0
M  V30 1482 H 142.483 -1.29532 1.29976 0
M  V30 1483 H 140.865 -3.87618 0.810431 0
M  V30 1484 H 142.039 -2.97097 3.52236 0
M  V30 1485 H 140.354 -2.80369 3.07867 0
M  V30 1486 H 142.951 -5.12049 1.5398 0
M  V30 1487 H 143.294 -4.16124 0.12117 0
M  V30 1488 H 143.827 -3.58696 1.71994 0
M  V30 1489 H 140.566 -4.80465 4.45907 0
M  V30 1490 H 140.086 -5.29474 2.81811 0
M  V30 1491 H 141.765 -5.52558 3.36584 0
M  V30 1492 N 141.898 -0.863906 -1.31812 0
M  V30 1493 C 143.144 -0.481841 -1.9761 0
M  V30 1494 C 143.499 0.954048 -1.6708 0
M  V30 1495 O 142.792 1.66182 -0.953624 0
M  V30 1496 C 142.986 -0.668547 -3.51091 0
M  V30 1497 C 142.815 -2.12103 -3.96538 0
M  V30 1498 C 141.585 -2.76141 -4.23171 0
M  V30 1499 C 143.783 -3.09265 -4.10925 0
M  V30 1500 N 141.765 -4.12205 -4.54929 0
M  V30 1501 C 143.136 -4.30341 -4.46326 0
M  V30 1502 C 145.191 -3.05337 -3.93286 0
M  V30 1503 C 143.894 -5.48 -4.65928 0
M  V30 1504 C 145.92 -4.22248 -4.14078 0
M  V30 1505 C 145.282 -5.42085 -4.49804 0
M  V30 1506 H 141.381 -0.225238 -0.74886 0
M  V30 1507 H 143.965 -1.11723 -1.59455 0
M  V30 1508 H 142.136 -0.0627898 -3.88349 0
M  V30 1509 H 143.868 -0.255467 -4.03893 0
M  V30 1510 H 140.623 -2.27125 -4.15585 0
M  V30 1511 H 141.047 -4.82416 -4.74978 0
M  V30 1512 H 145.689 -2.138 -3.64759 0
M  V30 1513 H 143.407 -6.40059 -4.93305 0
M  V30 1514 H 146.993 -4.20654 -4.01922 0
M  V30 1515 H 145.873 -6.31044 -4.65567 0
M  V30 1516 N 143.376 1.44774 -0.622745 0
M  V30 1517 C 144.286 2.34433 0.0886031 0
M  V30 1518 C 145.302 1.52131 0.844529 0
M  V30 1519 O 146.478 1.84886 0.798691 0
M  V30 1520 C 143.543 3.29986 1.0635 0
M  V30 1521 C 142.604 4.28195 0.307873 0
M  V30 1522 C 141.837 5.19183 1.23633 0
M  V30 1523 O 142.06 5.13918 2.47476 0
M  V30 1524 O 140.994 5.97515 0.725189 0
M  V30 1525 H 144.82 2.96693 -0.648599 0
M  V30 1526 H 142.405 1.44408 -0.382957 0
M  V30 1527 H 144.287 3.88825 1.6246 0
M  V30 1528 H 142.962 2.70269 1.78146 0
M  V30 1529 H 141.869 3.72927 -0.296064 0
M  V30 1530 H 143.202 4.90808 -0.3699 0
M  V30 1531 N 144.854 0.36279 1.53368 0
M  V30 1532 C 145.817 -0.472679 2.24273 0
M  V30 1533 C 146.817 -1.012 1.24961 0
M  V30 1534 O 148.007 -0.898194 1.49259 0
M  V30 1535 C 145.139 -1.66039 2.97731 0
M  V30 1536 H 146.332 0.14773 2.99536 0
M  V30 1537 H 143.885 0.114434 1.55881 0
M  V30 1538 H 144.62 -2.31896 2.26704 0
M  V30 1539 H 144.405 -1.28066 3.70596 0
M  V30 1540 H 145.895 -2.25252 3.51641 0
M  V30 1541 N 146.332 -1.57332 0.0918853 0
M  V30 1542 C 147.295 -2.12708 -0.85369 0
M  V30 1543 C 148.295 -1.05561 -1.213 0
M  V30 1544 O 149.485 -1.31461 -1.14296 0
M  V30 1545 C 146.617 -2.64503 -2.15061 0
M  V30 1546 H 147.81 -2.97573 -0.3729 0
M  V30 1547 H 145.363 -1.55509 -0.157072 0
M  V30 1548 H 146.098 -1.83149 -2.67632 0
M  V30 1549 H 145.883 -3.4284 -1.90272 0
M  V30 1550 H 147.373 -3.07351 -2.82711 0
M  V30 1551 N 147.81 0.181792 -1.56548 0
M  V30 1552 C 149.035 0.920019 -1.85877 0
M  V30 1553 C 149.46 1.75494 -0.677021 0
M  V30 1554 O 148.818 1.77399 0.374056 0
M  V30 1555 C 148.866 1.78112 -3.13542 0
M  V30 1556 O 147.97 2.88152 -2.95029 0
M  V30 1557 H 147.311 0.258334 -0.611686 0
M  V30 1558 H 149.841 0.183092 -2.03779 0
M  V30 1559 H 149.851 2.18314 -3.44678 0
M  V30 1560 H 148.526 1.16777 -3.99169 0
M  V30 1561 H 147.103 2.51609 -2.75222 0
M  V30 1562 N 149.288 1.51039 0.449983 0
M  V30 1563 C 150.218 1.74379 1.55288 0
M  V30 1564 C 151.199 0.593236 1.5942 0
M  V30 1565 O 152.384 0.834625 1.7535 0
M  V30 1566 C 149.514 1.85728 2.93466 0
M  V30 1567 C 148.468 3.01078 3.04197 0
M  V30 1568 C 147.794 2.97595 4.44231 0
M  V30 1569 C 149.094 4.41254 2.7945 0
M  V30 1570 H 150.788 2.66725 1.36008 0
M  V30 1571 H 148.334 1.2835 0.652864 0
M  V30 1572 H 150.287 2.0064 3.70569 0
M  V30 1573 H 149.011 0.900207 3.13949 0
M  V30 1574 H 147.67 2.85851 2.29531 0
M  V30 1575 H 147.318 1.99691 4.61663 0
M  V30 1576 H 147.018 3.75046 4.52343 0
M  V30 1577 H 148.542 3.14583 5.23326 0
M  V30 1578 H 149.956 4.56897 3.46292 0
M  V30 1579 H 148.353 5.20315 2.98985 0
M  V30 1580 H 149.423 4.52164 1.75144 0
M  V30 1581 N 150.766 -0.704594 1.40972 0
M  V30 1582 C 152.043 -1.45847 1.30338 0
M  V30 1583 C 152.423 -2.10973 -0.0732344 0
M  V30 1584 O 151.771 -2.00997 -1.08685 0
M  V30 1585 C 151.981 -2.48525 2.45023 0
M  V30 1586 C 153.329 -3.1404 2.8577 0
M  V30 1587 O 154.353 -2.58848 2.44696 0
M  V30 1588 O 153.212 -4.13981 3.56766 0
M  V30 1589 H 150.306 -0.649092 0.512454 0
M  V30 1590 H 152.852 -0.735836 1.52917 0
M  V30 1591 H 151.624 -1.98994 3.36923 0
M  V30 1592 H 151.247 -3.2831 2.24272 0
M  V30 1593 N 152.244 -1.26651 -0.937939 0
M  V30 1594 C 153.154 -1.10276 -2.07066 0
M  V30 1595 C 154.17 -0.0354197 -1.73964 0
M  V30 1596 O 155.346 -0.239816 -1.99967 0
M  V30 1597 C 152.411 -0.740887 -3.38691 0
M  V30 1598 C 151.472 -1.88799 -3.85556 0
M  V30 1599 C 150.705 -1.54329 -5.10899 0
M  V30 1600 O 150.928 -0.446494 -5.6865 0
M  V30 1601 O 149.862 -2.37911 -5.52885 0
M  V30 1602 H 153.688 -2.05309 -2.23789 0
M  V30 1603 H 151.273 -1.05743 -1.0554 0
M  V30 1604 H 153.155 -0.55195 -4.1777 0
M  V30 1605 H 151.83 0.180022 -3.23199 0
M  V30 1606 H 150.737 -2.13191 -3.07409 0
M  V30 1607 H 152.07 -2.78874 -4.05574 0
M  V30 1608 N 153.722 1.14298 -1.08507 0
M  V30 1609 C 154.968 1.85854 -0.826438 0
M  V30 1610 C 155.323 1.81413 0.640878 0
M  V30 1611 O 154.616 1.23463 1.46518 0
M  V30 1612 C 154.81 3.33547 -1.28379 0
M  V30 1613 C 154.639 3.52369 -2.79403 0
M  V30 1614 C 153.409 3.67159 -3.47164 0
M  V30 1615 C 155.607 3.49203 -3.77573 0
M  V30 1616 N 153.589 3.74149 -4.86709 0
M  V30 1617 C 154.96 3.6245 -5.03021 0
M  V30 1618 C 157.015 3.32547 -3.70563 0
M  V30 1619 C 155.718 3.60761 -6.2229 0
M  V30 1620 C 157.744 3.32162 -4.89308 0
M  V30 1621 C 157.106 3.45949 -6.13595 0
M  V30 1622 H 153.205 0.696705 -0.355143 0
M  V30 1623 H 155.789 1.36981 -1.38362 0
M  V30 1624 H 153.96 3.81008 -0.754166 0
M  V30 1625 H 155.692 3.92867 -0.971469 0
M  V30 1626 H 152.447 3.68433 -2.9758 0
M  V30 1627 H 152.871 3.81359 -5.5937 0
M  V30 1628 H 157.513 3.20797 -2.75407 0
M  V30 1629 H 155.231 3.71286 -7.17755 0
M  V30 1630 H 158.817 3.20485 -4.85573 0
M  V30 1631 H 157.697 3.456 -7.03939 0
M  V30 1632 N 155.201 0.870884 1.31352 0
M  V30 1633 C 156.131 0.343096 2.30966 0
M  V30 1634 C 157.112 -0.566507 1.60389 0
M  V30 1635 O 158.297 -0.483336 1.88089 0
M  V30 1636 C 155.427 -0.455487 3.443 0
M  V30 1637 C 154.381 0.361103 4.26474 0
M  V30 1638 C 153.707 -0.563221 5.31725 0
M  V30 1639 C 155.007 1.59566 4.97329 0
M  V30 1640 H 156.701 1.17548 2.75359 0
M  V30 1641 H 154.247 0.566686 1.32381 0
M  V30 1642 H 156.2 -0.83525 4.13039 0
M  V30 1643 H 154.924 -1.32139 2.98675 0
M  V30 1644 H 153.583 0.722825 3.59403 0
M  V30 1645 H 153.231 -1.42643 4.82351 0
M  V30 1646 H 152.931 -0.0207409 5.87596 0
M  V30 1647 H 154.455 -0.939808 6.03324 0
M  V30 1648 H 155.869 1.28728 5.58661 0
M  V30 1649 H 154.266 2.07728 5.63 0
M  V30 1650 H 155.336 2.34798 4.24262 0
M  V30 1651 N 156.679 -1.44442 0.630414 0
M  V30 1652 C 157.909 -2.06115 0.141465 0
M  V30 1653 C 158.317 -1.47179 -1.1889 0
M  V30 1654 O 157.66 -0.588873 -1.74006 0
M  V30 1655 C 157.722 -3.59467 -0.0484355 0
M  V30 1656 C 157.386 -4.40864 1.20366 0
M  V30 1657 C 158.383 -4.74391 2.12719 0
M  V30 1658 C 156.068 -4.8125 1.43887 0
M  V30 1659 C 158.062 -5.47186 3.26904 0
M  V30 1660 C 155.749 -5.53795 2.5837 0
M  V30 1661 C 156.747 -5.86682 3.49705 0
M  V30 1662 O 156.435 -6.57749 4.62191 0
M  V30 1663 H 156.167 -0.671648 0.0765792 0
M  V30 1664 H 158.721 -1.86312 0.864695 0
M  V30 1665 H 156.951 -3.77758 -0.826803 0
M  V30 1666 H 158.64 -4.02909 -0.491849 0
M  V30 1667 H 159.406 -4.43728 1.95781 0
M  V30 1668 H 155.285 -4.55073 0.736853 0
M  V30 1669 H 158.829 -5.72773 3.98217 0
M  V30 1670 H 154.726 -5.83872 2.75251 0
M  V30 1671 H 155.494 -6.76217 4.61164 0
M  V30 1672 N 158.157 -0.370918 -1.53173 0
M  V30 1673 C 159.105 0.488101 -2.27421 0
M  V30 1674 C 160.099 1.07884 -1.30604 0
M  V30 1675 O 161.305 1.02143 -1.48212 0
M  V30 1676 H 157.68 0.176134 -0.731082 0
M  V30 1677 H 159.651 -0.159815 -2.97972 0
M  V30 1678 C 158.4 1.61306 -3.08019 0
M  V30 1679 H 157.723 1.1678 -3.82364 0
M  V30 1680 H 159.163 2.18872 -3.63141 0
M  V30 1681 C 157.622 2.55848 -2.19188 0
M  V30 1682 O 158.152 3.58799 -1.80626 0
M  V30 1683 N 156.358 2.2516 -1.83715 0
M  V30 1684 H 155.905 1.41476 -2.15273 0
M  V30 1685 H 155.863 2.8867 -1.24567 0
M  V30 1686 N 159.635 1.57281 -0.100228 0
M  V30 1687 C 160.883 1.94153 0.561157 0
M  V30 1688 C 161.204 0.983157 1.68401 0
M  V30 1689 O 160.474 0.0361132 1.95867 0
M  V30 1690 H 159.054 0.716791 0.210283 0
M  V30 1691 H 161.716 1.94202 -0.164765 0
M  V30 1692 H 160.812 2.96709 0.968008 0
M  V30 1693 N 161.113 -0.173488 1.56642 0
M  V30 1694 C 162.361 -0.888706 1.81512 0
M  V30 1695 C 162.682 -1.82875 0.676872 0
M  V30 1696 O 161.952 -1.93536 -0.303414 0
M  V30 1697 H 160.532 -0.331164 0.669582 0
M  V30 1698 H 163.194 -0.173823 1.94123 0
M  V30 1699 H 162.29 -1.46691 2.75478 0
M  V30 1700 N 162.591 -1.51276 -0.441967 0
M  V30 1701 C 164.002 -1.56244 -1.02199 0
M  V30 1702 C 164.353 -0.383149 -1.92422 0
M  V30 1703 O 163.478 0.500613 -2.1053 0
M  V30 1704 C 164.073 -2.83162 -1.86024 0
M  V30 1705 C 162.632 -2.90716 -2.39084 0
M  V30 1706 C 161.779 -2.50858 -1.18175 0
M  V30 1707 H 164.73 -1.5712 -0.223416 0
M  V30 1708 H 164.751 -2.66663 -2.71425 0
M  V30 1709 H 164.263 -3.68974 -1.20331 0
M  V30 1710 H 162.364 -2.09323 -3.08244 0
M  V30 1711 H 162.477 -3.94266 -2.72198 0
M  V30 1712 H 160.841 -2.03951 -1.52565 0
M  V30 1713 H 161.624 -3.3901 -0.541001 0
M  V30 1714 N 164.069 0.697108 -1.41344 0
M  V30 1715 C 165.299 1.48377 -1.43763 0
M  V30 1716 C 165.707 1.89156 -0.0408726 0
M  V30 1717 O 165.05 1.57239 0.949812 0
M  V30 1718 C 165.112 2.7781 -2.2817 0
M  V30 1719 C 164.776 2.59244 -3.76353 0
M  V30 1720 C 165.773 2.25292 -4.68551 0
M  V30 1721 C 163.458 2.74933 -4.20378 0
M  V30 1722 C 165.452 2.07264 -6.02761 0
M  V30 1723 C 163.139 2.56521 -5.54653 0
M  V30 1724 C 164.137 2.22737 -6.4566 0
M  V30 1725 O 163.825 2.04485 -7.77458 0
M  V30 1726 H 163.557 0.463842 -0.491759 0
M  V30 1727 H 166.111 0.865934 -1.86255 0
M  V30 1728 H 164.341 3.41995 -1.8049 0
M  V30 1729 H 166.03 3.39608 -2.22309 0
M  V30 1730 H 166.796 2.12787 -4.35829 0
M  V30 1731 H 162.675 3.00213 -3.49848 0
M  V30 1732 H 166.219 1.80817 -6.73759 0
M  V30 1733 H 162.116 2.68616 -5.86955 0
M  V30 1734 H 162.884 2.1926 -7.88586 0
M  V30 1735 N 165.547 1.27147 0.931209 0
M  V30 1736 C 166.479 1.05364 2.03546 0
M  V30 1737 C 167.492 0.0108438 1.62796 0
M  V30 1738 O 168.681 0.25202 1.76712 0
M  V30 1739 C 165.781 0.575566 3.33977 0
M  V30 1740 C 164.954 1.68985 4.03439 0
M  V30 1741 C 164.013 1.20813 5.12143 0
M  V30 1742 O 163.039 1.90712 5.363 0
M  V30 1743 N 164.241 0.0618851 5.80467 0
M  V30 1744 H 167.006 2.00454 2.22796 0
M  V30 1745 H 164.567 1.18666 1.10136 0
M  V30 1746 H 166.559 0.237264 4.04004 0
M  V30 1747 H 165.129 -0.282016 3.11325 0
M  V30 1748 H 164.349 2.19861 3.27192 0
M  V30 1749 H 165.637 2.4378 4.46597 0
M  V30 1750 H 165.035 -0.521621 5.6329 0
M  V30 1751 H 163.592 -0.217264 6.51438 0
M  V30 1752 N 167.025 -1.13721 1.09112 0
M  V30 1753 C 167.955 -2.21148 0.749385 0
M  V30 1754 C 168.936 -1.6792 -0.271475 0
M  V30 1755 O 170.121 -1.93693 -0.140251 0
M  V30 1756 C 167.251 -3.46905 0.165659 0
M  V30 1757 C 166.205 -4.13203 1.11567 0
M  V30 1758 C 165.531 -5.33248 0.393809 0
M  V30 1759 C 166.831 -4.60912 2.45678 0
M  V30 1760 H 168.525 -2.4999 1.64758 0
M  V30 1761 H 166.071 -1.20156 0.793626 0
M  V30 1762 H 168.024 -4.21313 -0.085466 0
M  V30 1763 H 166.748 -3.17449 -0.767714 0
M  V30 1764 H 165.407 -3.40758 1.35202 0
M  V30 1765 H 165.055 -5.00054 -0.543599 0
M  V30 1766 H 164.755 -5.78552 1.02721 0
M  V30 1767 H 166.279 -6.10413 0.150908 0
M  V30 1768 H 167.693 -5.26759 2.26269 0
M  V30 1769 H 166.09 -5.16944 3.04776 0
M  V30 1770 H 167.16 -3.75603 3.06677 0
M  V30 1771 N 168.503 -0.877838 -1.30888 0
M  V30 1772 C 169.752 -0.488793 -1.95688 0
M  V30 1773 C 170.065 0.965485 -1.70111 0
M  V30 1774 O 171.271 1.46104 -2.28836 0
M  V30 1775 C 169.727 -0.823201 -3.50359 0
M  V30 1776 C 169.335 -2.29477 -3.84765 0
M  V30 1777 C 171.079 -0.503009 -4.21509 0
M  V30 1778 C 168.986 -2.57118 -5.32583 0
M  V30 1779 H 167.916 -0.179062 -0.732429 0
M  V30 1780 H 170.567 -1.07183 -1.48943 0
M  V30 1781 H 168.949 -0.169331 -3.95638 0
M  V30 1782 H 170.123 -2.99236 -3.5042 0
M  V30 1783 H 168.438 -2.58178 -3.267 0
M  V30 1784 H 171.035 -0.68665 -5.30273 0
M  V30 1785 H 171.378 0.557109 -4.12555 0
M  V30 1786 H 171.911 -1.11376 -3.8189 0
M  V30 1787 H 168.65 -3.61843 -5.4658 0
M  V30 1788 H 168.17 -1.91961 -5.68253 0
M  V30 1789 H 169.849 -2.42251 -5.99936 0
M  V30 1790 N 169.982 1.44106 -0.638065 0
M  V30 1791 C 171.231 2.01194 -0.142744 0
M  V30 1792 C 171.544 1.50835 1.24532 0
M  V30 1793 O 172.75 2.00096 1.83504 0
M  V30 1794 C 171.206 3.59319 -0.20442 0
M  V30 1795 C 170.814 4.18674 -1.59423 0
M  V30 1796 C 172.558 4.23854 0.234079 0
M  V30 1797 C 170.465 5.69045 -1.61065 0
M  V30 1798 H 169.395 0.752367 -0.0495998 0
M  V30 1799 H 172.046 1.65246 -0.797881 0
M  V30 1800 H 170.428 3.92598 0.517946 0
M  V30 1801 H 171.602 3.96921 -2.34074 0
M  V30 1802 H 169.917 3.66453 -1.97741 0
M  V30 1803 H 172.514 5.34155 0.241443 0
M  V30 1804 H 172.857 3.96688 1.2627 0
M  V30 1805 H 173.39 3.95403 -0.436025 0
M  V30 1806 H 170.129 6.00956 -2.61787 0
M  V30 1807 H 169.649 5.929 -0.90718 0
M  V30 1808 H 171.328 6.32809 -1.34766 0
M  V30 1809 N 171.46 0.379036 1.52974 0
M  V30 1810 C 172.707 -0.206421 2.01445 0
M  V30 1811 C 173.035 -1.47668 1.26587 0
M  V30 1812 O 172.29 -1.92514 0.351675 0
M  V30 1813 C 172.589 -0.53096 3.53434 0
M  V30 1814 C 172.255 0.646546 4.46241 0
M  V30 1815 C 170.917 0.969604 4.7133 0
M  V30 1816 C 173.269 1.43479 5.01062 0
M  V30 1817 C 170.597 2.08263 5.48492 0
M  V30 1818 C 172.949 2.53834 5.7944 0
M  V30 1819 C 171.613 2.86659 6.02812 0
M  V30 1820 H 170.883 -0.0755349 0.73714 0
M  V30 1821 H 173.53 0.514271 1.84465 0
M  V30 1822 H 171.835 -1.33285 3.68432 0
M  V30 1823 H 173.532 -0.996417 3.88423 0
M  V30 1824 H 170.122 0.384734 4.2687 0
M  V30 1825 H 174.306 1.19844 4.81613 0
M  V30 1826 H 169.562 2.34078 5.64816 0
M  V30 1827 H 173.736 3.15319 6.20924 0
M  V30 1828 H 171.363 3.73026 6.62387 0
M  V30 1829 N 172.938 -1.57226 0.108567 0
M  V30 1830 C 173.888 -2.11305 -0.856396 0
M  V30 1831 C 174.872 -1.03129 -1.23504 0
M  V30 1832 O 176.064 -1.29381 -1.20787 0
M  V30 1833 C 173.193 -2.70771 -2.11041 0
M  V30 1834 C 172.279 -3.86011 -1.7566 0
M  V30 1835 N 172.67 -4.93492 -1.10902 0
M  V30 1836 C 170.968 -3.95999 -2.05185 0
M  V30 1837 C 171.669 -5.73984 -0.944308 0
M  V30 1838 N 170.645 -5.2346 -1.46596 0
M  V30 1839 H 174.447 -2.91784 -0.352002 0
M  V30 1840 H 171.961 -1.62126 -0.0942324 0
M  V30 1841 H 173.958 -3.07851 -2.81128 0
M  V30 1842 H 172.618 -1.91751 -2.62034 0
M  V30 1843 H 173.629 -5.1208 -0.774235 0
M  V30 1844 H 170.306 -3.28007 -2.58298 0
M  V30 1845 H 171.696 -6.70479 -0.436813 0
M  V30 1846 N 174.416 0.165178 -1.56732 0
M  V30 1847 C 175.663 0.880807 -1.8234 0
M  V30 1848 C 175.991 1.81977 -0.686621 0
M  V30 1849 O 175.246 1.92971 0.325697 0
M  V30 1850 C 175.545 1.70405 -3.1416 0
M  V30 1851 C 175.211 0.913475 -4.4155 0
M  V30 1852 C 173.873 0.695303 -4.7615 0
M  V30 1853 C 176.225 0.359349 -5.1996 0
M  V30 1854 C 173.553 -0.0879947 -5.86634 0
M  V30 1855 C 175.905 -0.410893 -6.31264 0
M  V30 1856 C 174.569 -0.639808 -6.64427 0
M  V30 1857 H 173.839 0.32231 -0.667231 0
M  V30 1858 H 176.486 0.145402 -1.90947 0
M  V30 1859 H 174.791 2.50903 -3.00923 0
M  V30 1860 H 176.488 2.26091 -3.31186 0
M  V30 1861 H 173.078 1.09357 -4.14414 0
M  V30 1862 H 177.262 0.515228 -4.93618 0
M  V30 1863 H 172.518 -0.27503 -6.10781 0
M  V30 1864 H 176.692 -0.847494 -6.91224 0
M  V30 1865 H 174.319 -1.24864 -7.49875 0
M  V30 1866 N 175.894 1.51508 0.433938 0
M  V30 1867 C 176.824 1.76016 1.53429 0
M  V30 1868 C 177.805 0.610112 1.58782 0
M  V30 1869 O 178.99 0.853177 1.74455 0
M  V30 1870 C 176.12 1.88831 2.9148 0
M  V30 1871 C 175.074 3.04288 3.00987 0
M  V30 1872 C 174.4 3.0229 4.4105 0
M  V30 1873 C 175.7 4.44193 2.74754 0
M  V30 1874 H 177.394 2.68152 1.33171 0
M  V30 1875 H 174.94 1.29035 0.639214 0
M  V30 1876 H 176.893 2.04559 3.6842 0
M  V30 1877 H 175.617 0.933455 3.12976 0
M  V30 1878 H 174.276 2.8827 2.26486 0
M  V30 1879 H 173.924 2.04576 4.59519 0
M  V30 1880 H 173.624 3.79822 4.4834 0
M  V30 1881 H 175.148 3.20116 5.1996 0
M  V30 1882 H 176.562 4.60544 3.41426 0
M  V30 1883 H 174.959 5.23457 2.9345 0
M  V30 1884 H 176.029 4.53996 1.70339 0
M  V30 1885 N 177.372 -0.689602 1.41712 0
M  V30 1886 C 178.302 -1.81577 1.46806 0
M  V30 1887 C 179.283 -1.66945 0.326105 0
M  V30 1888 O 180.468 -1.86588 0.538377 0
M  V30 1889 C 177.598 -3.19762 1.35535 0
M  V30 1890 C 176.552 -3.49107 2.47605 0
M  V30 1891 C 175.878 -4.86711 2.21397 0
M  V30 1892 C 177.178 -3.47483 3.89939 0
M  V30 1893 H 178.872 -1.7757 2.41058 0
M  V30 1894 H 176.418 -0.852887 1.16025 0
M  V30 1895 H 178.371 -3.98263 1.3771 0
M  V30 1896 H 177.095 -3.24409 0.377708 0
M  V30 1897 H 175.754 -2.72959 2.44722 0
M  V30 1898 H 175.402 -4.8799 1.21961 0
M  V30 1899 H 175.102 -5.0731 2.96497 0
M  V30 1900 H 176.626 -5.67515 2.25297 0
M  V30 1901 H 178.04 -4.1598 3.94505 0
M  V30 1902 H 176.437 -3.79615 4.64771 0
M  V30 1903 H 177.507 -2.46341 4.17665 0
M  V30 1904 N 178.85 -1.27639 -0.924453 0
M  V30 1905 C 180.098 -1.13941 -1.66918 0
M  V30 1906 C 180.419 0.314589 -1.92446 0
M  V30 1907 O 179.689 1.21964 -1.53303 0
M  V30 1908 H 178.269 -0.418678 -0.618642 0
M  V30 1909 H 180.931 -1.60213 -1.10985 0
M  V30 1910 H 180.027 -1.67094 -2.63602 0
M  V30 1911 N 180.328 1.1314 -1.09713 0
M  V30 1912 C 181.291 2.16831 -0.742751 0
M  V30 1913 C 182.291 1.59159 0.229129 0
M  V30 1914 O 183.481 1.74199 0.00693237 0
M  V30 1915 C 180.613 3.40756 -0.0989168 0
M  V30 1916 H 181.806 2.49695 -1.66109 0
M  V30 1917 H 179.359 1.2802 -0.896699 0
M  V30 1918 H 180.094 3.13485 0.830514 0
M  V30 1919 H 179.879 3.83888 -0.798265 0
M  V30 1920 H 181.369 4.17386 0.133524 0
M  V30 1921 N 181.806 0.884767 1.30421 0
M  V30 1922 C 183.031 0.517288 2.00845 0
M  V30 1923 C 183.456 -0.886779 1.65885 0
M  V30 1924 O 182.814 -1.58768 0.875354 0
M  V30 1925 C 182.862 0.698994 3.5376 0
M  V30 1926 O 181.966 -0.255208 4.1161 0
M  V30 1927 H 181.307 0.203872 0.631927 0
M  V30 1928 H 183.837 1.19225 1.66272 0
M  V30 1929 H 183.847 0.597912 4.03595 0
M  V30 1930 H 182.522 1.72271 3.78544 0
M  V30 1931 H 181.099 -0.10784 3.72744 0
M  V30 1932 N 183.284 -1.43765 0.645699 0
M  V30 1933 C 184.524 -2.03776 0.159542 0
M  V30 1934 C 184.888 -1.49792 -1.2011 0
M  V30 1935 O 186.089 -2.01398 -1.78023 0
M  V30 1936 C 184.36 -3.57036 0.161251 0
M  V30 1937 S 185.919 -4.3804 -0.258159 0
M  V30 1938 H 182.737 -0.707717 0.0682454 0
M  V30 1939 H 185.339 -1.75941 0.852352 0
M  V30 1940 H 184.043 -3.9383 1.15439 0
M  V30 1941 H 183.574 -3.89503 -0.552339 0
M  V30 1942 H 185.589 -4.7302 -1.49889 0
M  V30 1943 N 184.763 -0.387143 -1.52771 0
M  V30 1944 C 185.993 0.195585 -2.05672 0
M  V30 1945 C 186.401 1.41241 -1.25887 0
M  V30 1946 O 185.744 1.81265 -0.298081 0
M  V30 1947 C 185.806 0.632327 -3.53895 0
M  V30 1948 C 185.47 -0.470739 -4.54569 0
M  V30 1949 C 186.467 -1.32746 -5.02667 0
M  V30 1950 C 184.152 -0.637151 -4.98243 0
M  V30 1951 C 186.146 -2.33574 -5.93061 0
M  V30 1952 C 183.833 -1.64877 -5.88438 0
M  V30 1953 C 184.831 -2.49649 -6.35739 0
M  V30 1954 O 184.519 -3.49082 -7.24153 0
M  V30 1955 H 184.251 0.033658 -0.675162 0
M  V30 1956 H 186.805 -0.550221 -1.97893 0
M  V30 1957 H 185.035 1.43008 -3.59285 0
M  V30 1958 H 186.724 1.14048 -3.89548 0
M  V30 1959 H 187.49 -1.21019 -4.69659 0
M  V30 1960 H 183.369 0.0129567 -4.60998 0
M  V30 1961 H 186.913 -2.99777 -6.29904 0
M  V30 1962 H 182.81 -1.76643 -6.2086 0
M  V30 1963 H 183.578 -3.45065 -7.42208 0
M  V30 1964 N 186.241 1.57166 -0.116904 0
M  V30 1965 C 187.174 2.10912 0.871291 0
M  V30 1966 C 188.152 1.025 1.26224 0
M  V30 1967 O 189.336 1.3014 1.36366 0
M  V30 1968 C 186.463 2.6041 2.16574 0
M  V30 1969 C 185.509 3.80687 1.92302 0
M  V30 1970 S 186.342 5.23199 1.14119 0
M  V30 1971 C 187.498 5.76064 2.44748 0
M  V30 1972 H 187.731 2.94401 0.414138 0
M  V30 1973 H 185.264 1.54096 0.096829 0
M  V30 1974 H 187.222 2.89583 2.9095 0
M  V30 1975 H 185.883 1.77106 2.59408 0
M  V30 1976 H 185.076 4.13462 2.8821 0
M  V30 1977 H 184.678 3.5212 1.26047 0
M  V30 1978 H 186.97 5.8566 3.406 0
M  V30 1979 H 187.913 6.74184 2.16521 0
M  V30 1980 H 188.321 5.04117 2.54019 0
M  V30 1981 N 187.719 -0.156864 1.56817 0
M  V30 1982 C 188.967 -0.869404 1.82444 0
M  V30 1983 C 189.288 -1.82147 0.69623 0
M  V30 1984 O 188.558 -1.93847 -0.28287 0
M  V30 1985 H 187.138 -0.324043 0.673056 0
M  V30 1986 H 189.8 -0.153224 1.94297 0
M  V30 1987 H 188.896 -1.43761 2.77019 0
M  V30 1988 N 189.197 -1.51736 -0.425897 0
M  V30 1989 C 190.613 -1.40166 -0.76326 0
M  V30 1990 C 190.813 -0.492962 -1.95377 0
M  V30 1991 O 189.869 0.0475815 -2.52455 0
M  V30 1992 C 191.182 -2.82403 -1.03291 0
M  V30 1993 C 192.73 -2.91632 -1.13665 0
M  V30 1994 C 193.205 -4.34801 -1.43916 0
M  V30 1995 N 194.696 -4.3796 -1.50816 0
M  V30 1996 C 195.431 -5.4578 -1.75817 0
M  V30 1997 N 194.927 -6.63744 -1.98534 0
M  V30 1998 N 196.72 -5.33274 -1.77694 0
M  V30 1999 H 188.871 -2.09361 0.358 0
M  V30 2000 H 191.134 -0.942941 0.0978094 0
M  V30 2001 H 190.84 -3.50943 -0.230696 0
M  V30 2002 H 190.714 -3.22428 -1.95754 0
M  V30 2003 H 193.101 -2.23284 -1.92947 0
M  V30 2004 H 193.182 -2.55088 -0.190756 0
M  V30 2005 H 192.826 -5.03703 -0.65157 0
M  V30 2006 H 192.756 -4.68868 -2.39729 0
M  V30 2007 H 195.247 -3.52919 -1.35118 0
M  V30 2008 H 195.56 -7.41704 -2.17013 0
M  V30 2009 H 193.905 -6.66839 -1.95832 0
M  V30 2010 H 197.096 -4.40098 -1.59473 0
M  V30 2011 H 197.269 -6.1738 -1.9684 0
M  V30 2012 N 190.675 0.682077 -1.42076 0
M  V30 2013 C 191.607 1.80755 -1.40926 0
M  V30 2014 C 192.62 1.59833 -0.309398 0
M  V30 2015 O 193.809 1.69087 -0.572014 0
M  V30 2016 C 190.909 3.17744 -1.17865 0
M  V30 2017 C 190.082 3.65578 -2.40149 0
M  V30 2018 C 189.141 4.81277 -2.12742 0
M  V30 2019 O 188.167 4.92197 -2.85887 0
M  V30 2020 N 189.369 5.69474 -1.12602 0
M  V30 2021 H 192.134 1.82229 -2.37935 0
M  V30 2022 H 189.695 0.864903 -1.36861 0
M  V30 2023 H 191.687 3.9279 -0.9746 0
M  V30 2024 H 190.257 3.11214 -0.294068 0
M  V30 2025 H 189.477 2.81291 -2.76169 0
M  V30 2026 H 190.765 3.94278 -3.21593 0
M  V30 2027 H 190.163 5.63297 -0.520899 0
M  V30 2028 H 188.72 6.44363 -0.981842 0
M  V30 2029 N 192.153 1.28127 0.917671 0
M  V30 2030 C 193.399 1.16232 1.66918 0
M  V30 2031 C 193.754 -0.28701 1.90247 0
M  V30 2032 O 193.047 -1.20586 1.48895 0
M  V30 2033 C 193.241 1.89018 3.03327 0
M  V30 2034 C 193.07 3.4088 2.9331 0
M  V30 2035 C 191.84 4.10214 2.95047 0
M  V30 2036 C 194.038 4.36689 2.71675 0
M  V30 2037 N 192.02 5.48571 2.75577 0
M  V30 2038 C 193.391 5.62382 2.6101 0
M  V30 2039 C 195.446 4.26661 2.56641 0
M  V30 2040 C 194.149 6.79189 2.36843 0
M  V30 2041 C 196.175 5.432 2.33853 0
M  V30 2042 C 195.537 6.67855 2.23939 0
M  V30 2043 H 191.636 0.48024 0.617166 0
M  V30 2044 H 194.22 1.61727 1.08409 0
M  V30 2045 H 192.391 1.45963 3.59929 0
M  V30 2046 H 194.123 1.69541 3.67475 0
M  V30 2047 H 190.878 3.61762 3.05655 0
M  V30 2048 H 191.302 6.21287 2.68945 0
M  V30 2049 H 195.944 3.30998 2.63059 0
M  V30 2050 H 193.662 7.74926 2.29164 0
M  V30 2051 H 197.248 5.37328 2.23091 0
M  V30 2052 H 196.128 7.56511 2.06546 0
M  V30 2053 N 193.631 -1.12557 1.10312 0
M  V30 2054 C 194.541 -2.21841 0.763142 0
M  V30 2055 C 195.557 -1.72354 -0.238801 0
M  V30 2056 O 196.733 -2.01249 -0.0778746 0
M  V30 2057 C 193.798 -3.46131 0.198632 0
M  V30 2058 C 192.859 -4.10464 1.25769 0
M  V30 2059 C 192.092 -5.28821 0.72002 0
M  V30 2060 O 192.315 -5.6859 -0.453993 0
M  V30 2061 O 191.249 -5.83437 1.47935 0
M  V30 2062 H 195.075 -2.53312 1.67532 0
M  V30 2063 H 192.66 -1.20867 0.878157 0
M  V30 2064 H 194.542 -4.2125 -0.112401 0
M  V30 2065 H 193.217 -3.16338 -0.686419 0
M  V30 2066 H 192.124 -3.3713 1.62156 0
M  V30 2067 H 193.457 -4.44408 2.11571 0
M  V30 2068 N 195.109 -0.891671 -1.2995 0
M  V30 2069 C 196.039 -0.379797 -2.30391 0
M  V30 2070 C 197.02 0.540919 -1.6127 0
M  V30 2071 O 198.205 0.453352 -1.88834 0
M  V30 2072 C 195.335 0.400654 -3.44981 0
M  V30 2073 C 194.289 -0.428905 -4.25846 0
M  V30 2074 C 193.615 0.478557 -5.32554 0
M  V30 2075 C 194.915 -1.67458 -4.94727 0
M  V30 2076 H 196.609 -1.21914 -2.73454 0
M  V30 2077 H 194.155 -0.587675 -1.31462 0
M  V30 2078 H 196.108 0.769434 -4.14316 0
M  V30 2079 H 194.832 1.27371 -3.0074 0
M  V30 2080 H 193.491 -0.779911 -3.58208 0
M  V30 2081 H 193.139 1.34951 -4.84559 0
M  V30 2082 H 192.839 -0.0727433 -5.87555 0
M  V30 2083 H 194.363 0.843705 -6.04743 0
M  V30 2084 H 195.777 -1.376 -5.56542 0
M  V30 2085 H 194.174 -2.16659 -5.59624 0
M  V30 2086 H 195.244 -2.41518 -4.20473 0
M  V30 2087 N 196.587 1.43421 -0.653314 0
M  V30 2088 C 197.812 2.06678 -0.172846 0
M  V30 2089 C 198.237 1.48648 1.15262 0
M  V30 2090 O 197.595 0.596457 1.71208 0
M  V30 2091 C 197.643 3.60474 -0.0953184 0
M  V30 2092 O 196.747 4.01487 0.942442 0
M  V30 2093 H 196.088 0.657181 -0.0949155 0
M  V30 2094 H 198.618 1.83925 -0.896265 0
M  V30 2095 H 198.628 4.07905 0.0879728 0
M  V30 2096 H 197.303 4.02088 -1.06291 0
M  V30 2097 H 195.88 3.65646 0.731932 0
M  V30 2098 N 198.065 0.39524 1.52563 0
M  V30 2099 C 199.295 -0.184675 2.05773 0
M  V30 2100 C 199.703 -1.40571 1.26635 0
M  V30 2101 O 199.046 -1.81105 0.30769 0
M  V30 2102 C 199.108 -0.613551 3.54226 0
M  V30 2103 C 198.772 0.49484 4.54313 0
M  V30 2104 C 199.769 1.3541 5.01956 0
M  V30 2105 C 197.454 0.663565 4.97898 0
M  V30 2106 C 199.448 2.36716 5.91814 0
M  V30 2107 C 197.135 1.67996 5.87555 0
M  V30 2108 C 198.133 2.53017 6.34406 0
M  V30 2109 O 197.821 3.52917 7.22291 0
M  V30 2110 H 197.553 -0.030077 0.675331 0
M  V30 2111 H 200.107 0.560708 1.97599 0
M  V30 2112 H 198.337 -1.411 3.60038 0
M  V30 2113 H 200.026 -1.11981 3.90148 0
M  V30 2114 H 200.792 1.23509 4.6901 0
M  V30 2115 H 196.671 0.0114913 4.60999 0
M  V30 2116 H 200.215 3.03113 6.28306 0
M  V30 2117 H 196.112 1.79933 6.19915 0
M  V30 2118 H 196.88 3.48996 7.40367 0
M  V30 2119 N 199.544 -1.57102 0.125237 0
M  V30 2120 C 200.96 -1.57915 -0.231322 0
M  V30 2121 C 201.16 -1.13833 -1.66266 0
M  V30 2122 O 200.216 -0.828581 -2.38518 0
M  V30 2123 C 201.529 -3.00699 0.00766489 0
M  V30 2124 C 203.077 -3.12947 -0.0577483 0
M  V30 2125 C 203.552 -4.57742 0.153626 0
M  V30 2126 N 205.043 -4.63092 0.0998073 0
M  V30 2127 C 205.778 -5.72905 0.238174 0
M  V30 2128 N 205.274 -6.91445 0.433057 0
M  V30 2129 N 207.067 -5.6182 0.177308 0
M  V30 2130 H 199.218 -1.84055 1.06007 0
M  V30 2131 H 201.481 -0.850905 0.417929 0
M  V30 2132 H 201.187 -3.3726 0.997431 0
M  V30 2133 H 201.061 -3.70236 -0.721452 0
M  V30 2134 H 203.448 -2.7624 -1.03804 0
M  V30 2135 H 203.529 -2.4594 0.70335 0
M  V30 2136 H 203.173 -4.95149 1.13092 0
M  V30 2137 H 203.103 -5.22848 -0.627534 0
M  V30 2138 H 205.594 -3.77871 -0.047051 0
M  V30 2139 H 205.907 -7.70985 0.529332 0
M  V30 2140 H 204.252 -6.93415 0.469109 0
M  V30 2141 H 207.443 -4.68093 0.0259748 0
M  V30 2142 H 207.616 -6.47357 0.288582 0
M  V30 2143 N 201.022 0.148545 -1.56898 0
M  V30 2144 C 201.952 1.18524 -2.01182 0
M  V30 2145 C 202.933 1.4489 -0.891123 0
M  V30 2146 O 204.118 1.55836 -1.15882 0
M  V30 2147 C 201.248 2.51879 -2.39112 0
M  V30 2148 C 200.202 2.40038 -3.54353 0
M  V30 2149 C 199.528 3.78089 -3.78091 0
M  V30 2150 C 200.828 1.88577 -4.87069 0
M  V30 2151 H 202.522 0.817029 -2.88036 0
M  V30 2152 H 200.068 0.391575 -1.38574 0
M  V30 2153 H 202.021 3.24627 -2.68692 0
M  V30 2154 H 200.745 2.90532 -1.49193 0
M  V30 2155 H 199.404 1.69742 -3.24936 0
M  V30 2156 H 199.052 4.14175 -2.85426 0
M  V30 2157 H 198.752 3.71028 -4.55645 0
M  V30 2158 H 200.276 4.52387 -4.10095 0
M  V30 2159 H 201.69 2.51117 -5.15377 0
M  V30 2160 H 200.087 1.9241 -5.68417 0
M  V30 2161 H 201.157 0.84136 -4.77545 0
M  V30 2162 N 202.5 1.5196 0.417844 0
M  V30 2163 C 203.748 1.65263 1.16329 0
M  V30 2164 C 204.069 0.380634 1.91249 0
M  V30 2165 O 203.339 -0.604214 1.86349 0
M  V30 2166 H 201.919 0.60912 0.432414 0
M  V30 2167 H 204.581 1.88969 0.477162 0
M  V30 2168 H 203.677 2.4896 1.88217 0
M  V30 2169 N 203.978 -0.674533 1.42435 0
M  V30 2170 C 204.911 -1.79924 1.40366 0
M  V30 2171 C 205.889 -1.60378 0.267899 0
M  V30 2172 O 207.073 -1.82847 0.458159 0
M  V30 2173 C 204.2 -3.16927 1.19478 0
M  V30 2174 C 203.246 -3.55221 2.36051 0
M  V30 2175 S 204.079 -3.5762 3.98583 0
M  V30 2176 C 205.235 -4.97315 3.80038 0
M  V30 2177 H 205.468 -1.81405 2.35541 0
M  V30 2178 H 203.001 -0.845221 1.29211 0
M  V30 2179 H 204.959 -3.96007 1.08114 0
M  V30 2180 H 203.62 -3.13031 0.258883 0
M  V30 2181 H 202.813 -4.54804 2.17185 0
M  V30 2182 H 202.415 -2.83502 2.43932 0
M  V30 2183 H 204.707 -5.85401 3.41045 0
M  V30 2184 H 205.65 -5.21228 4.79298 0
M  V30 2185 H 206.058 -4.69845 3.12899 0
M  V30 2186 N 205.456 -1.28612 -0.910864 0
M  V30 2187 C 206.872 -1.06381 -1.18976 0
M  V30 2188 C 207.072 0.191998 -2.00583 0
M  V30 2189 O 206.128 0.892869 -2.36187 0
M  V30 2190 C 207.441 -2.31295 -1.92154 0
M  V30 2191 C 208.989 -2.36503 -2.05025 0
M  V30 2192 C 209.464 -3.61191 -2.81612 0
M  V30 2193 N 210.955 -3.61847 -2.89172 0
M  V30 2194 C 211.69 -4.55004 -3.4894 0
M  V30 2195 N 211.186 -5.58482 -4.09963 0
M  V30 2196 N 212.979 -4.42594 -3.46506 0
M  V30 2197 H 205.13 -2.09221 -0.366094 0
M  V30 2198 H 207.393 -0.921003 -0.224629 0
M  V30 2199 H 207.099 -3.228 -1.39618 0
M  V30 2200 H 206.973 -2.37934 -2.9269 0
M  V30 2201 H 209.36 -1.45494 -2.5674 0
M  V30 2202 H 209.441 -2.33857 -1.03657 0
M  V30 2203 H 209.085 -4.52545 -2.30576 0
M  V30 2204 H 209.015 -3.61092 -3.83302 0
M  V30 2205 H 211.506 -2.87022 -2.45819 0
M  V30 2206 H 211.819 -6.25704 -4.53557 0
M  V30 2207 H 210.164 -5.62305 -4.08459 0
M  V30 2208 H 213.355 -3.60953 -2.98045 0
M  V30 2209 H 213.528 -5.15381 -3.92793 0
M  V30 2210 N 206.934 1.1197 -1.10907 0
M  V30 2211 C 208.345 1.65114 -0.871446 0
M  V30 2212 C 208.696 1.86885 0.597353 0
M  V30 2213 O 207.821 1.59896 1.45816 0
M  V30 2214 C 208.416 2.99944 -1.5754 0
M  V30 2215 C 206.975 3.50018 -1.38435 0
M  V30 2216 C 206.122 2.24941 -1.62164 0
M  V30 2217 H 209.073 0.956851 -1.2661 0
M  V30 2218 H 209.094 3.66651 -1.01721 0
M  V30 2219 H 208.606 2.84067 -2.64438 0
M  V30 2220 H 206.707 3.71071 -0.337214 0
M  V30 2221 H 206.82 4.29165 -2.12965 0
M  V30 2222 H 205.184 2.3229 -1.04467 0
M  V30 2223 H 205.967 2.11612 -2.70324 0
M  V30 2224 N 208.412 0.89855 1.29475 0
M  V30 2225 C 209.658 0.534065 1.96263 0
M  V30 2226 C 210.013 -0.909415 1.69551 0
M  V30 2227 O 209.306 -1.63596 0.997349 0
M  V30 2228 C 209.5 0.761398 3.49195 0
M  V30 2229 C 209.329 2.22542 3.90775 0
M  V30 2230 C 208.099 2.87264 4.15701 0
M  V30 2231 C 210.297 3.20051 4.02581 0
M  V30 2232 N 208.279 4.24121 4.4384 0
M  V30 2233 C 209.65 4.42023 4.34759 0
M  V30 2234 C 211.705 3.15657 3.85052 0
M  V30 2235 C 210.408 5.60161 4.51235 0
M  V30 2236 C 212.434 4.33078 4.02737 0
M  V30 2237 C 211.796 5.5382 4.35273 0
M  V30 2238 H 207.895 0.245013 0.742625 0
M  V30 2239 H 210.479 1.15912 1.56437 0
M  V30 2240 H 208.65 0.165732 3.88046 0
M  V30 2241 H 210.382 0.362462 4.03074 0
M  V30 2242 H 207.137 2.38064 4.09417 0
M  V30 2243 H 207.561 4.94839 4.6202 0
M  V30 2244 H 212.203 2.23396 3.58962 0
M  V30 2245 H 209.921 6.52913 4.76162 0
M  V30 2246 H 213.507 4.31163 3.90628 0
M  V30 2247 H 212.387 6.43166 4.48672 0
M  V30 2248 N 209.89 -1.43072 0.660911 0
M  V30 2249 C 211.139 -2.00942 0.174735 0
M  V30 2250 C 211.452 -1.52797 -1.22117 0
M  V30 2251 O 212.658 -2.02991 -1.80297 0
M  V30 2252 C 211.114 -3.58948 0.261559 0
M  V30 2253 C 210.722 -4.16085 1.66064 0
M  V30 2254 C 212.466 -4.24173 -0.166617 0
M  V30 2255 C 210.373 -5.6641 1.70098 0
M  V30 2256 H 209.303 -0.751483 0.0615631 0
M  V30 2257 H 211.954 -1.63955 0.824069 0
M  V30 2258 H 210.336 -3.93372 -0.455421 0
M  V30 2259 H 211.51 -3.93147 2.40359 0
M  V30 2260 H 209.825 -3.6326 2.03546 0
M  V30 2261 H 212.422 -5.34471 -0.156433 0
M  V30 2262 H 212.765 -3.98647 -1.19943 0
M  V30 2263 H 213.298 -3.94659 0.498875 0
M  V30 2264 H 210.037 -5.96715 2.71315 0
M  V30 2265 H 209.557 -5.91382 1.00139 0
M  V30 2266 H 211.236 -6.30585 1.44816 0
M  V30 2267 N 211.368 -0.403325 -1.52352 0
M  V30 2268 C 212.608 0.173946 -2.03659 0
M  V30 2269 C 212.972 1.42869 -1.28267 0
M  V30 2270 O 214.173 2.08403 -1.69769 0
M  V30 2271 C 212.444 0.421478 -3.54906 0
M  V30 2272 S 214.003 0.967027 -4.28012 0
M  V30 2273 H 210.821 0.0477461 -0.709395 0
M  V30 2274 H 213.423 -0.554906 -1.87459 0
M  V30 2275 H 212.127 -0.498616 -4.0736 0
M  V30 2276 H 211.658 1.17837 -3.75337 0
M  V30 2277 H 213.673 2.24812 -4.4235 0
M  V30 2278 N 212.846 1.57033 -0.133567 0
M  V30 2279 C 214.092 1.95976 0.521649 0
M  V30 2280 C 214.425 1.01779 1.65393 0
M  V30 2281 O 213.7 0.0576581 1.94415 0
M  V30 2282 C 213.983 3.44738 1.04057 0
M  V30 2283 C 213.836 4.49711 -0.0892897 0
M  V30 2284 C 215.155 3.95682 1.92675 0
M  V30 2285 H 212.274 0.712579 0.188149 0
M  V30 2286 H 214.916 1.88813 -0.212076 0
M  V30 2287 H 213.066 3.50973 1.66583 0
M  V30 2288 H 214.738 4.55565 -0.725152 0
M  V30 2289 H 212.981 4.27261 -0.750378 0
M  V30 2290 H 213.652 5.51099 0.315284 0
M  V30 2291 H 216.128 3.91841 1.39998 0
M  V30 2292 H 215.004 5.00262 2.25897 0
M  V30 2293 H 215.265 3.37239 2.85872 0
M  V30 2294 N 214.325 -0.140222 1.56975 0
M  V30 2295 C 215.288 -1.15689 1.97861 0
M  V30 2296 C 216.288 -1.3549 0.865974 0
M  V30 2297 O 217.478 -1.32367 1.13246 0
M  V30 2298 C 214.61 -2.51582 2.30042 0
M  V30 2299 H 215.803 -0.805971 2.88867 0
M  V30 2300 H 213.356 -0.383801 1.51515 0
M  V30 2301 H 214.091 -2.91632 1.41849 0
M  V30 2302 H 213.876 -2.38569 3.11171 0
M  V30 2303 H 215.366 -3.24792 2.62488 0
M  V30 2304 N 215.803 -1.52179 -0.40978 0
M  V30 2305 C 217.033 -1.69807 -1.17682 0
M  V30 2306 C 217.441 -0.406908 -1.84773 0
M  V30 2307 O 216.784 0.626863 -1.72673 0
M  V30 2308 C 216.846 -2.77712 -2.2829 0
M  V30 2309 C 216.51 -4.19481 -1.81341 0
M  V30 2310 C 217.507 -5.03345 -1.30154 0
M  V30 2311 C 215.192 -4.65713 -1.88194 0
M  V30 2312 C 217.186 -6.31511 -0.864416 0
M  V30 2313 C 214.873 -5.93869 -1.44093 0
M  V30 2314 C 215.871 -6.76597 -0.933023 0
M  V30 2315 O 215.559 -8.02354 -0.49838 0
M  V30 2316 H 215.291 -0.572372 -0.359675 0
M  V30 2317 H 217.845 -1.99511 -0.488311 0
M  V30 2318 H 216.075 -2.43383 -3.00502 0
M  V30 2319 H 217.764 -2.83946 -2.90051 0
M  V30 2320 H 218.53 -4.68819 -1.24232 0
M  V30 2321 H 214.409 -4.01424 -2.26671 0
M  V30 2322 H 217.953 -6.96033 -0.467286 0
M  V30 2323 H 213.85 -6.27903 -1.49694 0
M  V30 2324 H 214.618 -8.16135 -0.621747 0
M  V30 2325 N 217.281 0.66697 -1.42791 0
M  V30 2326 C 218.506 1.46004 -1.47301 0
M  V30 2327 C 218.931 1.87894 -0.0880317 0
M  V30 2328 O 218.289 1.56502 0.915253 0
M  V30 2329 C 218.337 2.68031 -2.41229 0
M  V30 2330 O 217.441 3.6659 -1.88906 0
M  V30 2331 H 216.782 0.43832 -0.49877 0
M  V30 2332 H 219.312 0.817391 -1.87563 0
M  V30 2333 H 219.322 3.1601 -2.58073 0
M  V30 2334 H 217.997 2.36883 -3.41847 0
M  V30 2335 H 216.574 3.25661 -1.81656 0
M  V30 2336 N 218.759 1.29093 0.90403 0
M  V30 2337 C 219.722 1.1386 1.98919 0
M  V30 2338 C 220.722 0.0753457 1.60623 0
M  V30 2339 O 221.912 0.321931 1.71199 0
M  V30 2340 C 219.044 0.740198 3.32767 0
M  V30 2341 H 220.237 2.10246 2.13861 0
M  V30 2342 H 217.79 1.12218 1.08797 0
M  V30 2343 H 218.525 -0.223997 3.23525 0
M  V30 2344 H 218.31 1.50838 3.61926 0
M  V30 2345 H 219.8 0.656546 4.12407 0
M  V30 2346 N 220.237 -1.11381 1.11499 0
M  V30 2347 C 221.648 -1.6465 0.880191 0
M  V30 2348 C 221.999 -1.87199 -0.587434 0
M  V30 2349 O 221.124 -1.60667 -1.44966 0
M  V30 2350 C 221.719 -2.99105 1.59128 0
M  V30 2351 C 220.278 -3.49279 1.40289 0
M  V30 2352 C 219.425 -2.24077 1.63354 0
M  V30 2353 H 222.376 -0.950123 1.27116 0
M  V30 2354 H 222.397 -3.66107 1.03664 0
M  V30 2355 H 221.909 -2.82661 2.65941 0
M  V30 2356 H 220.01 -3.70887 0.356888 0
M  V30 2357 H 220.123 -4.2803 2.15238 0
M  V30 2358 H 218.487 -2.31733 1.05698 0
M  V30 2359 H 219.27 -2.10175 2.71443 0
M  V30 2360 N 221.715 -0.905404 -1.28997 0
M  V30 2361 C 222.645 -0.404212 -2.29975 0
M  V30 2362 C 223.626 0.523784 -1.61835 0
M  V30 2363 O 224.811 0.433298 -1.89304 0
M  V30 2364 C 221.941 0.364042 -3.45387 0
M  V30 2365 C 220.895 -0.474048 -4.25367 0
M  V30 2366 C 220.221 0.422045 -5.33032 0
M  V30 2367 C 221.521 -1.72696 -4.92923 0
M  V30 2368 H 223.215 -1.24807 -2.72146 0
M  V30 2369 H 220.761 -0.601585 -1.30832 0
M  V30 2370 H 222.714 0.725447 -4.15109 0
M  V30 2371 H 221.438 1.24174 -3.02074 0
M  V30 2372 H 220.097 -0.81786 -3.57361 0
M  V30 2373 H 219.745 1.29804 -4.85963 0
M  V30 2374 H 219.445 -0.135057 -5.87445 0
M  V30 2375 H 220.969 0.779517 -6.05604 0
M  V30 2376 H 222.383 -1.43495 -5.55051 0
M  V30 2377 H 220.78 -2.22582 -5.57295 0
M  V30 2378 H 221.85 -2.45964 -4.17887 0
M  V30 2379 N 223.193 1.4272 -0.668489 0
M  V30 2380 C 224.156 2.292 0.00448567 0
M  V30 2381 C 225.156 1.43001 0.735339 0
M  V30 2382 O 226.346 1.64461 0.57429 0
M  V30 2383 C 223.478 3.25375 1.01705 0
M  V30 2384 H 224.671 2.90199 -0.756608 0
M  V30 2385 H 222.224 1.50254 -0.430506 0
M  V30 2386 H 222.959 2.69301 1.80686 0
M  V30 2387 H 222.744 3.88944 0.496463 0
M  V30 2388 H 224.234 3.90245 1.48655 0
M  V30 2389 N 224.671 0.411399 1.52136 0
M  V30 2390 C 225.896 -0.165538 2.06738 0
M  V30 2391 C 226.321 -1.379 1.27926 0
M  V30 2392 O 225.679 -1.78628 0.310114 0
M  V30 2393 C 225.727 -0.492124 3.57226 0
M  V30 2394 O 224.831 -1.58276 3.80818 0
M  V30 2395 H 224.172 -0.0132132 0.663869 0
M  V30 2396 H 226.702 0.585253 1.96051 0
M  V30 2397 H 226.712 -0.750104 4.01045 0
M  V30 2398 H 225.387 0.394922 4.14021 0
M  V30 2399 H 223.964 -1.31677 3.48877 0
M  V30 2400 N 226.149 -1.5696 0.141893 0
M  V30 2401 C 227.112 -2.15316 -0.785587 0
M  V30 2402 C 228.112 -1.09366 -1.1788 0
M  V30 2403 O 229.302 -1.35031 -1.10056 0
M  V30 2404 C 226.434 -2.71211 -2.06537 0
M  V30 2405 H 227.627 -2.98608 -0.278041 0
M  V30 2406 H 225.18 -1.5593 -0.107519 0
M  V30 2407 H 225.915 -1.91571 -2.6167 0
M  V30 2408 H 225.7 -3.4872 -1.79268 0
M  V30 2409 H 227.19 -3.16189 -2.72789 0
M  V30 2410 N 227.627 0.131896 -1.57047 0
M  V30 2411 C 228.874 0.841932 -1.84168 0
M  V30 2412 C 229.202 1.8048 -0.725066 0
M  V30 2413 O 228.457 1.93618 0.284692 0
M  V30 2414 C 228.756 1.63703 -3.17704 0
M  V30 2415 C 228.422 0.81961 -4.43388 0
M  V30 2416 C 227.084 0.594148 -4.77518 0
M  V30 2417 C 229.436 0.248977 -5.20605 0
M  V30 2418 C 226.764 -0.212409 -5.86315 0
M  V30 2419 C 229.116 -0.544701 -6.30251 0
M  V30 2420 C 227.78 -0.780599 -6.6292 0
M  V30 2421 H 227.05 0.308085 -0.673917 0
M  V30 2422 H 229.697 0.104867 -1.91213 0
M  V30 2423 H 228.002 2.44464 -3.06177 0
M  V30 2424 H 229.699 2.19015 -3.35907 0
M  V30 2425 H 226.289 1.00542 -4.16641 0
M  V30 2426 H 230.473 0.410408 -4.946 0
M  V30 2427 H 225.729 -0.404524 -6.1006 0
M  V30 2428 H 229.903 -0.993922 -6.89271 0
M  V30 2429 H 227.53 -1.40742 -7.47058 0
M  V30 2430 N 229.106 1.52395 0.401703 0
M  V30 2431 C 230.069 1.75636 1.47257 0
M  V30 2432 C 231.069 0.62628 1.48103 0
M  V30 2433 O 232.259 0.894227 1.49497 0
M  V30 2434 C 229.391 1.84553 2.86624 0
M  V30 2435 H 230.584 2.71241 1.27938 0
M  V30 2436 H 228.137 1.42923 0.632662 0
M  V30 2437 H 228.872 0.908882 3.11303 0
M  V30 2438 H 228.657 2.66715 2.87412 0
M  V30 2439 H 230.147 2.04251 3.64241 0
M  V30 2440 N 230.584 -0.659388 1.43143 0
M  V30 2441 C 231.83 -1.42145 1.44647 0
M  V30 2442 C 232.163 -1.9408 0.0681907 0
M  V30 2443 O 231.438 -1.71899 -0.910007 0
M  V30 2444 C 231.721 -2.60735 2.48373 0
M  V30 2445 C 231.574 -2.14332 3.95451 0
M  V30 2446 C 232.893 -3.62951 2.48906 0
M  V30 2447 H 230.012 -0.51552 0.526696 0
M  V30 2448 H 232.654 -0.748069 1.74654 0
M  V30 2449 H 230.804 -3.18184 2.22916 0
M  V30 2450 H 232.476 -1.61932 4.31944 0
M  V30 2451 H 230.719 -1.4576 4.08578 0
M  V30 2452 H 231.39 -2.99583 4.63631 0
M  V30 2453 H 233.866 -3.1525 2.71582 0
M  V30 2454 H 232.742 -4.43487 3.23435 0
M  V30 2455 H 233.003 -4.15126 1.52061 0
M  V30 2456 N 232.062 -1.29571 -0.897171 0
M  V30 2457 C 233.309 -1.17689 -1.6479 0
M  V30 2458 C 233.637 0.27107 -1.92602 0
M  V30 2459 O 232.892 1.21193 -1.53658 0
M  V30 2460 C 233.191 -1.9382 -3.00281 0
M  V30 2461 C 232.857 -3.43522 -2.92068 0
M  V30 2462 C 231.519 -3.84348 -2.89535 0
M  V30 2463 C 233.871 -4.38906 -2.81089 0
M  V30 2464 C 231.199 -5.18869 -2.73846 0
M  V30 2465 C 233.551 -5.73521 -2.66939 0
M  V30 2466 C 232.215 -6.13601 -2.62774 0
M  V30 2467 H 231.485 -0.430654 -0.603008 0
M  V30 2468 H 234.132 -1.60536 -1.04404 0
M  V30 2469 H 232.437 -1.4357 -3.64547 0
M  V30 2470 H 234.134 -1.82028 -3.57305 0
M  V30 2471 H 230.724 -3.11072 -2.94842 0
M  V30 2472 H 234.908 -4.08315 -2.82121 0
M  V30 2473 H 230.164 -5.4903 -2.69027 0
M  V30 2474 H 234.338 -6.47078 -2.57416 0
M  V30 2475 H 231.965 -7.17786 -2.50375 0
M  V30 2476 N 233.54 1.10788 -1.12088 0
M  V30 2477 C 234.47 2.19083 -0.807755 0
M  V30 2478 C 235.451 1.6858 0.226859 0
M  V30 2479 O 236.636 1.93997 0.0888475 0
M  V30 2480 C 233.766 3.46344 -0.257576 0
M  V30 2481 C 232.72 4.101 -1.22483 0
M  V30 2482 C 232.046 5.32016 -0.535052 0
M  V30 2483 C 233.346 4.54236 -2.57811 0
M  V30 2484 H 235.04 2.45534 -1.71328 0
M  V30 2485 H 232.586 1.1801 -0.825205 0
M  V30 2486 H 234.539 4.21392 -0.0262679 0
M  V30 2487 H 233.263 3.19373 0.683278 0
M  V30 2488 H 231.922 3.37054 -1.44189 0
M  V30 2489 H 231.57 5.01319 0.410827 0
M  V30 2490 H 231.27 5.75625 -1.18024 0
M  V30 2491 H 232.794 6.09799 -0.312695 0
M  V30 2492 H 234.208 5.20575 -2.40155 0
M  V30 2493 H 232.605 5.08682 -3.18375 0
M  V30 2494 H 233.675 3.6734 -3.16528 0
M  V30 2495 N 235.018 0.912232 1.28515 0
M  V30 2496 C 236.267 0.540504 1.94323 0
M  V30 2497 C 236.58 -0.920044 1.72611 0
M  V30 2498 O 237.786 -1.39986 2.32629 0
M  V30 2499 C 236.242 0.915803 3.48053 0
M  V30 2500 C 235.85 2.39598 3.78546 0
M  V30 2501 C 237.594 0.614588 4.20027 0
M  V30 2502 C 235.501 2.71148 5.25578 0
M  V30 2503 H 234.431 0.198418 0.727424 0
M  V30 2504 H 237.082 1.11094 1.46049 0
M  V30 2505 H 235.464 0.274168 3.9505 0
M  V30 2506 H 236.638 3.08422 3.42364 0
M  V30 2507 H 234.953 2.66749 3.1974 0
M  V30 2508 H 237.55 0.827002 5.28266 0
M  V30 2509 H 237.893 -0.447531 4.13887 0
M  V30 2510 H 238.426 1.21462 3.78803 0
M  V30 2511 H 235.165 3.76207 5.36794 0
M  V30 2512 H 234.685 2.0696 5.62963 0
M  V30 2513 H 236.364 2.58072 5.93302 0
M  V30 2514 N 236.496 -1.42363 0.676048 0
M  V30 2515 C 237.726 -2.05561 0.206967 0
M  V30 2516 C 238.134 -1.50887 -1.14148 0
M  V30 2517 O 237.477 -0.643933 -1.72044 0
M  V30 2518 C 237.539 -3.5944 0.0659508 0
M  V30 2519 C 237.203 -4.36812 1.34331 0
M  V30 2520 C 238.2 -4.67383 2.27704 0
M  V30 2521 C 235.885 -4.76429 1.59125 0
M  V30 2522 C 237.879 -5.36509 3.44147 0
M  V30 2523 C 235.566 -5.45294 2.75857 0
M  V30 2524 C 236.564 -5.75259 3.68193 0
M  V30 2525 O 236.252 -6.42712 4.82883 0
M  V30 2526 H 235.984 -0.668872 0.0979084 0
M  V30 2527 H 238.538 -1.83467 0.923531 0
M  V30 2528 H 236.768 -3.80197 -0.706204 0
M  V30 2529 H 238.457 -4.0427 -0.363418 0
M  V30 2530 H 239.223 -4.37275 2.09799 0
M  V30 2531 H 235.102 -4.52498 0.881258 0
M  V30 2532 H 238.646 -5.59814 4.16238 0
M  V30 2533 H 234.543 -5.7482 2.93688 0
M  V30 2534 H 235.311 -6.61204 4.82444 0
M  V30 2535 N 237.974 -0.419461 -1.51915 0
M  V30 2536 C 239.385 0.0477853 -1.86639 0
M  V30 2537 C 239.736 1.43531 -1.33766 0
M  V30 2538 O 238.861 2.05401 -0.68113 0
M  V30 2539 C 239.456 0.0934885 -3.38671 0
M  V30 2540 C 238.015 0.505097 -3.72996 0
M  V30 2541 C 237.162 -0.313792 -2.75519 0
M  V30 2542 H 240.113 -0.636088 -1.45395 0
M  V30 2543 H 240.134 0.906667 -3.6954 0
M  V30 2544 H 239.646 -0.916501 -3.77123 0
M  V30 2545 H 237.747 1.52135 -3.40126 0
M  V30 2546 H 237.86 0.242309 -4.78487 0
M  V30 2547 H 236.224 0.225363 -2.53701 0
M  V30 2548 H 237.007 -1.32232 -3.16812 0
M  V30 2549 N 239.452 1.56882 -0.150215 0
M  V30 2550 C 240.701 1.95403 0.500071 0
M  V30 2551 C 241.014 1.03777 1.658 0
M  V30 2552 O 242.22 1.31889 2.37313 0
M  V30 2553 C 240.676 3.4738 0.941018 0
M  V30 2554 C 240.284 4.47596 -0.190158 0
M  V30 2555 C 242.028 3.9476 1.56091 0
M  V30 2556 C 239.935 5.90787 0.269237 0
M  V30 2557 H 238.865 0.729515 0.190588 0
M  V30 2558 H 241.516 1.81988 -0.235074 0
M  V30 2559 H 239.898 3.56138 1.73152 0
M  V30 2560 H 241.072 4.50536 -0.967157 0
M  V30 2561 H 239.387 4.10151 -0.718666 0
M  V30 2562 H 241.984 4.99181 1.9163 0
M  V30 2563 H 242.327 3.36494 2.45107 0
M  V30 2564 H 242.86 3.88932 0.835249 0
M  V30 2565 H 239.599 6.52879 -0.585621 0
M  V30 2566 H 239.119 5.912 1.01204 0
M  V30 2567 H 240.798 6.42979 0.720176 0
M  V30 2568 N 240.93 -0.123565 1.57115 0
M  V30 2569 C 242.178 -0.83051 1.84247 0
M  V30 2570 C 242.499 -1.80629 0.73471 0
M  V30 2571 O 241.769 -1.94403 -0.241688 0
M  V30 2572 H 240.349 -0.309694 0.679778 0
M  V30 2573 H 243.011 -0.111976 1.94578 0
M  V30 2574 H 242.107 -1.37852 2.80006 0
M  V30 2575 N 242.408 -1.52605 -0.393616 0
M  V30 2576 C 243.34 -1.73303 -1.49995 0
M  V30 2577 C 244.353 -0.613473 -1.50799 0
M  V30 2578 O 245.542 -0.889049 -1.54784 0
M  V30 2579 C 242.642 -1.77245 -2.88855 0
M  V30 2580 C 241.815 -3.06483 -3.12069 0
M  V30 2581 C 240.874 -3.02033 -4.30886 0
M  V30 2582 O 239.9 -3.75907 -4.27414 0
M  V30 2583 N 241.102 -2.20897 -5.36828 0
M  V30 2584 H 243.867 -2.68756 -1.32629 0
M  V30 2585 H 241.428 -1.51036 -0.583083 0
M  V30 2586 H 243.42 -1.7178 -3.66434 0
M  V30 2587 H 241.99 -0.891993 -2.99603 0
M  V30 2588 H 241.21 -3.25474 -2.22396 0
M  V30 2589 H 242.498 -3.91947 -3.2443 0
M  V30 2590 H 241.896 -1.60336 -5.42502 0
M  V30 2591 H 240.453 -2.21275 -6.13091 0
M  V30 2592 N 243.887 0.651787 -1.4349 0
M  V30 2593 C 245.135 1.40888 -1.44897 0
M  V30 2594 C 245.456 1.94856 -0.0749086 0
M  V30 2595 O 244.726 1.74518 0.889956 0
M  V30 2596 H 243.306 0.522887 -0.533478 0
M  V30 2597 H 245.968 0.768609 -1.79104 0
M  V30 2598 H 245.064 2.25052 -2.16236 0
M  V30 2599 N 245.365 1.30045 0.890287 0
M  V30 2600 C 246.59 1.21598 1.68014 0
M  V30 2601 C 247.015 -0.218678 1.86825 0
M  V30 2602 O 246.373 -1.15756 1.39536 0
M  V30 2603 C 246.421 1.94434 3.03691 0
M  V30 2604 O 245.525 1.2678 3.92429 0
M  V30 2605 H 244.866 0.420856 0.513592 0
M  V30 2606 H 247.396 1.71775 1.11151 0
M  V30 2607 H 247.406 2.03251 3.5377 0
M  V30 2608 H 246.081 2.98777 2.89318 0
M  V30 2609 H 244.658 1.26282 3.50866 0
M  V30 2610 N 246.843 -1.10192 1.12674 0
M  V30 2611 C 248.09 -1.82205 0.883606 0
M  V30 2612 C 248.418 -1.8532 -0.590492 0
M  V30 2613 O 247.673 -1.31137 -1.45264 0
M  V30 2614 C 247.972 -3.28552 1.4067 0
M  V30 2615 C 247.638 -3.45582 2.89627 0
M  V30 2616 C 246.3 -3.49937 3.30299 0
M  V30 2617 C 248.652 -3.50768 3.85501 0
M  V30 2618 C 245.98 -3.57049 4.65546 0
M  V30 2619 C 248.332 -3.59414 5.20581 0
M  V30 2620 C 246.996 -3.62034 5.60792 0
M  V30 2621 H 246.266 -0.666735 0.323334 0
M  V30 2622 H 248.913 -1.29868 1.40736 0
M  V30 2623 H 247.218 -3.83473 0.80347 0
M  V30 2624 H 248.915 -3.82788 1.19475 0
M  V30 2625 H 245.505 -3.42871 2.57172 0
M  V30 2626 H 249.689 -3.46651 3.55171 0
M  V30 2627 H 244.945 -3.57361 4.96088 0
M  V30 2628 H 249.119 -3.62371 5.94693 0
M  V30 2629 H 246.746 -3.67298 6.6558 0
M  V30 2630 N 248.321 -0.919034 -1.28029 0
M  V30 2631 C 249.546 -0.570357 -1.99403 0
M  V30 2632 C 249.971 0.842486 -1.68178 0
M  V30 2633 O 249.329 1.56391 -0.917141 0
M  V30 2634 C 249.377 -0.792541 -3.51783 0
M  V30 2635 O 248.481 0.145988 -4.12142 0
M  V30 2636 H 247.822 -0.220555 -0.6263 0
M  V30 2637 H 250.352 -1.23592 -1.63053 0
M  V30 2638 H 250.362 -0.704708 -4.01868 0
M  V30 2639 H 249.037 -1.82247 -3.73844 0
M  V30 2640 H 247.614 0.00897528 -3.72899 0
M  V30 2641 N 249.799 1.42003 -0.683588 0
M  V30 2642 C 251.076 1.95112 -0.138075 0
M  V30 2643 C 251.456 1.62359 1.34918 0
M  V30 2644 O 250.804 0.924311 2.08971 0
M  V30 2645 C 251.014 3.46505 -0.416581 0
M  V30 2646 C 252.362 4.23254 -0.337834 0
M  V30 2647 O 253.386 3.54468 -0.35082 0
M  V30 2648 O 252.245 5.45743 -0.287596 0
M  V30 2649 H 249.339 0.826961 -0.00797996 0
M  V30 2650 H 251.885 1.51784 -0.758924 0
M  V30 2651 H 250.657 3.63582 -1.4465 0
M  V30 2652 H 250.28 3.969 0.235839 0
M  V30 2653 N 251.277 0.427512 1.51691 0
M  V30 2654 C 252.525 -0.141948 2.01601 0
M  V30 2655 C 252.846 -1.44067 1.31414 0
M  V30 2656 O 252.116 -1.90763 0.445658 0
M  V30 2657 H 250.696 -0.0554468 0.744939 0
M  V30 2658 H 253.358 0.567968 1.86441 0
M  V30 2659 H 252.454 -0.324913 3.10404 0
M  V30 2660 N 252.755 -1.56801 0.158532 0
M  V30 2661 C 253.688 -2.13148 -0.815065 0
M  V30 2662 C 254.666 -1.0581 -1.23462 0
M  V30 2663 O 255.85 -1.3371 -1.32868 0
M  V30 2664 C 252.977 -2.6606 -2.09594 0
M  V30 2665 C 252.023 -3.85651 -1.82141 0
M  V30 2666 S 252.856 -5.26041 -1.00207 0
M  V30 2667 C 254.012 -5.8235 -2.29389 0
M  V30 2668 H 254.245 -2.95396 -0.335937 0
M  V30 2669 H 251.778 -1.54299 -0.0559391 0
M  V30 2670 H 253.736 -2.97195 -2.8317 0
M  V30 2671 H 252.397 -1.83921 -2.54621 0
M  V30 2672 H 251.59 -4.20958 -2.77147 0
M  V30 2673 H 251.192 -3.55338 -1.16667 0
M  V30 2674 H 253.484 -5.94485 -3.24952 0
M  V30 2675 H 254.427 -6.79688 -1.9857 0
M  V30 2676 H 254.835 -5.10675 -2.40564 0
M  V30 2677 N 254.233 0.115231 -1.57178 0
M  V30 2678 C 255.644 0.67197 -1.74188 0
M  V30 2679 C 255.995 1.80125 -0.777777 0
M  V30 2680 O 255.12 2.16346 0.0484376 0
M  V30 2681 C 255.715 1.22573 -3.1585 0
M  V30 2682 C 254.274 1.72872 -3.34353 0
M  V30 2683 C 253.421 0.629972 -2.70049 0
M  V30 2684 H 256.372 -0.110712 -1.58313 0
M  V30 2685 H 256.393 2.09535 -3.17609 0
M  V30 2686 H 255.905 0.403598 -3.85996 0
M  V30 2687 H 254.006 2.5755 -2.69256 0
M  V30 2688 H 254.119 1.83557 -4.42542 0
M  V30 2689 H 252.483 1.0645 -2.31388 0
M  V30 2690 H 253.266 -0.181241 -3.42821 0
M  V30 2691 N 255.711 1.52812 0.385517 0
M  V30 2692 C 256.641 1.80808 1.47752 0
M  V30 2693 C 257.622 0.660318 1.5676 0
M  V30 2694 O 258.807 0.908246 1.71652 0
M  V30 2695 C 255.937 1.98008 2.85324 0
M  V30 2696 C 254.891 3.13709 2.91154 0
M  V30 2697 C 254.217 3.16169 4.31209 0
M  V30 2698 C 255.517 4.52709 2.60483 0
M  V30 2699 H 257.211 2.72253 1.24573 0
M  V30 2700 H 254.757 1.31003 0.597839 0
M  V30 2701 H 256.71 2.16176 3.61726 0
M  V30 2702 H 255.434 1.03255 3.09848 0
M  V30 2703 H 254.093 2.95329 2.17201 0
M  V30 2704 H 253.741 2.19092 4.52778 0
M  V30 2705 H 253.441 3.93894 4.36029 0
M  V30 2706 H 254.965 3.36496 5.09512 0
M  V30 2707 H 256.379 4.71173 3.26602 0
M  V30 2708 H 254.776 5.32528 2.76648 0
M  V30 2709 H 255.846 4.59186 1.55809 0
M  V30 2710 N 257.189 -0.644168 1.43834 0
M  V30 2711 C 258.437 -1.40117 1.45642 0
M  V30 2712 C 258.758 -1.94814 0.0852413 0
M  V30 2713 O 258.028 -1.74988 -0.880688 0
M  V30 2714 H 256.608 -0.52005 0.536243 0
M  V30 2715 H 259.27 -0.7591 1.7951 0
M  V30 2716 H 258.366 -2.23902 2.17427 0
M  V30 2717 N 258.668 -1.30515 -0.883378 0
M  V30 2718 C 259.917 -1.18795 -1.63005 0
M  V30 2719 C 260.23 0.255923 -1.93919 0
M  V30 2720 O 261.436 0.494654 -2.66956 0
M  V30 2721 C 259.892 -2.07878 -2.93794 0
M  V30 2722 C 259.5 -3.57184 -2.70414 0
M  V30 2723 C 261.244 -2.04924 -3.71761 0
M  V30 2724 C 259.151 -4.38317 -3.97029 0
M  V30 2725 H 258.081 -0.441031 -0.611562 0
M  V30 2726 H 260.732 -1.55275 -0.977854 0
M  V30 2727 H 259.114 -1.64283 -3.60315 0
M  V30 2728 H 260.288 -4.08937 -2.12384 0
M  V30 2729 H 258.603 -3.61976 -2.0582 0
M  V30 2730 H 261.2 -2.62792 -4.65665 0
M  V30 2731 H 261.543 -1.0331 -4.03277 0
M  V30 2732 H 262.076 -2.46649 -3.12104 0
M  V30 2733 H 258.815 -5.40632 -3.70671 0
M  V30 2734 H 258.335 -3.91326 -4.54559 0
M  V30 2735 H 260.014 -4.49834 -4.65036 0
M  V30 2736 N 260.146 1.09593 -1.13257 0
M  V30 2737 C 261.371 1.8604 -0.916732 0
M  V30 2738 C 261.796 1.80504 0.529146 0
M  V30 2739 O 261.154 1.18127 1.37534 0
M  V30 2740 C 261.202 3.32017 -1.40703 0
M  V30 2741 O 260.306 4.08141 -0.591153 0
M  V30 2742 H 259.647 0.576943 -0.328683 0
M  V30 2743 H 262.177 1.38405 -1.50682 0
M  V30 2744 H 262.187 3.82865 -1.4099 0
M  V30 2745 H 260.862 3.35361 -2.45979 0
M  V30 2746 H 259.439 3.67084 -0.656005 0
M  V30 2747 N 261.624 0.925811 1.2754 0
M  V30 2748 C 262.872 0.564138 1.94067 0
M  V30 2749 C 263.193 -0.897188 1.73134 0
M  V30 2750 O 262.463 -1.63573 1.07799 0
M  V30 2751 H 261.043 0.205645 0.718136 0
M  V30 2752 H 263.705 1.1778 1.55287 0
M  V30 2753 H 262.801 0.76881 3.02483 0
M  V30 2754 N 263.102 -1.41638 0.69111 0
M  V30 2755 C 264.33 -2.05628 0.22909 0
M  V30 2756 C 264.745 -1.51992 -1.11999 0
M  V30 2757 O 264.102 -0.666322 -1.69901 0
M  V30 2758 C 264.153 -3.61084 0.173283 0
M  V30 2759 O 263.874 -4.12735 1.46907 0
M  V30 2760 C 265.375 -4.42213 -0.310266 0
M  V30 2761 H 262.595 -0.662327 0.107534 0
M  V30 2762 H 265.139 -1.81489 0.942438 0
M  V30 2763 H 263.294 -3.84278 -0.490858 0
M  V30 2764 H 263.708 -5.06743 1.35322 0
M  V30 2765 H 265.182 -5.51194 -0.298196 0
M  V30 2766 H 265.659 -4.1799 -1.34838 0
M  V30 2767 H 266.265 -4.24074 0.322716 0
M  V30 2768 N 264.58 -0.43555 -1.51462 0
M  V30 2769 C 265.827 0.131514 -2.02072 0
M  V30 2770 C 266.155 1.42868 -1.31981 0
M  V30 2771 O 265.41 1.91076 -0.422883 0
M  V30 2772 C 265.709 0.39942 -3.55161 0
M  V30 2773 C 265.375 -0.81172 -4.43533 0
M  V30 2774 C 264.037 -1.14387 -4.67407 0
M  V30 2775 C 266.389 -1.61976 -4.95392 0
M  V30 2776 C 263.717 -2.28477 -5.40384 0
M  V30 2777 C 266.069 -2.75164 -5.6962 0
M  V30 2778 C 264.733 -3.08835 -5.91758 0
M  V30 2779 H 264.003 0.0481244 -0.739436 0
M  V30 2780 H 266.65 -0.58238 -1.8243 0
M  V30 2781 H 264.955 1.19519 -3.73125 0
M  V30 2782 H 266.652 0.85157 -3.91854 0
M  V30 2783 H 263.242 -0.542898 -4.25148 0
M  V30 2784 H 267.426 -1.37637 -4.76833 0
M  V30 2785 H 262.682 -2.5488 -5.55739 0
M  V30 2786 H 266.856 -3.38147 -6.08793 0
M  V30 2787 H 264.483 -3.97353 -6.48086 0
M  V30 2788 N 266.058 1.56714 -0.166846 0
M  V30 2789 C 267.006 2.19056 0.782123 0
M  V30 2790 C 268 1.15328 1.24079 0
M  V30 2791 O 269.206 1.33537 1.20697 0
M  V30 2792 H 265.581 0.70167 0.270486 0
M  V30 2793 H 267.552 2.97494 0.232322 0
M  V30 2794 C 266.301 2.84206 2.00306 0
M  V30 2795 H 265.624 3.63748 1.65914 0
M  V30 2796 H 267.064 3.31302 2.64604 0
M  V30 2797 C 265.523 1.83744 2.82382 0
M  V30 2798 O 266.053 1.32014 3.79388 0
M  V30 2799 N 264.259 1.52601 2.47308 0
M  V30 2800 H 263.806 1.9486 1.68485 0
M  V30 2801 H 263.764 0.856351 3.02513 0
M  V30 2802 N 267.536 -0.106894 1.57237 0
M  V30 2803 C 268.783 -0.812526 1.85484 0
M  V30 2804 C 269.111 -1.79304 0.753687 0
M  V30 2805 O 268.366 -1.94047 -0.253853 0
M  V30 2806 C 268.665 -1.58628 3.20268 0
M  V30 2807 C 268.331 -0.748967 4.44636 0
M  V30 2808 C 266.993 -0.518104 4.78403 0
M  V30 2809 C 269.345 -0.166122 5.20935 0
M  V30 2810 C 266.673 0.305659 5.85903 0
M  V30 2811 C 269.025 0.644899 6.29304 0
M  V30 2812 C 267.689 0.885965 6.61594 0
M  V30 2813 H 266.959 -0.297324 0.678734 0
M  V30 2814 H 269.606 -0.0744332 1.91355 0
M  V30 2815 H 267.911 -2.39562 3.10028 0
M  V30 2816 H 269.608 -2.13643 3.39349 0
M  V30 2817 H 266.198 -0.939006 4.18187 0
M  V30 2818 H 270.382 -0.33167 4.95191 0
M  V30 2819 H 265.638 0.501528 6.0934 0
M  V30 2820 H 269.812 1.10345 6.87602 0
M  V30 2821 H 267.439 1.52609 7.44725 0
M  V30 2822 N 269.014 -1.53014 -0.377408 0
M  V30 2823 C 269.947 -1.73382 -1.48371 0
M  V30 2824 C 270.925 -0.581879 -1.51832 0
M  V30 2825 O 272.109 -0.81307 -1.70063 0
M  V30 2826 C 269.236 -1.80192 -2.8679 0
M  V30 2827 C 268.282 -3.02056 -3.01105 0
M  V30 2828 S 269.115 -4.61811 -2.71093 0
M  V30 2829 C 270.271 -4.71453 -4.11683 0
M  V30 2830 H 270.504 -2.66946 -1.30872 0
M  V30 2831 H 268.037 -1.43453 -0.571012 0
M  V30 2832 H 269.995 -1.84802 -3.6655 0
M  V30 2833 H 268.656 -0.877008 -3.01608 0
M  V30 2834 H 267.849 -3.03396 -4.02451 0
M  V30 2835 H 267.451 -2.95498 -2.29253 0
M  V30 2836 H 269.743 -4.50781 -5.0577 0
M  V30 2837 H 270.686 -5.73487 -4.15353 0
M  V30 2838 H 271.094 -4.00189 -3.98132 0
M  V30 2839 N 270.492 0.636531 -1.44174 0
M  V30 2840 C 271.741 1.39213 -1.45954 0
M  V30 2841 C 272.054 1.95374 -0.0939119 0
M  V30 2842 O 273.26 2.71498 0.0107767 0
M  V30 2843 C 271.716 2.52025 -2.56927 0
M  V30 2844 C 271.324 2.024 -3.99673 0
M  V30 2845 C 273.068 3.29269 -2.67922 0
M  V30 2846 C 270.975 3.12521 -5.0208 0
M  V30 2847 H 269.905 0.523132 -0.542999 0
M  V30 2848 H 272.556 0.685349 -1.70221 0
M  V30 2849 H 270.938 3.25253 -2.25891 0
M  V30 2850 H 272.112 1.36073 -4.40251 0
M  V30 2851 H 270.427 1.37987 -3.92872 0
M  V30 2852 H 273.024 4.11352 -3.41605 0
M  V30 2853 H 273.367 3.78397 -1.73555 0
M  V30 2854 H 273.9 2.63129 -2.98342 0
M  V30 2855 H 270.639 2.68343 -5.98057 0
M  V30 2856 H 270.159 3.77507 -4.66099 0
M  V30 2857 H 271.838 3.77385 -5.25538 0
M  V30 2858 N 271.97 1.30982 0.876444 0
M  V30 2859 C 273.216 1.20474 1.63138 0
M  V30 2860 C 273.549 -0.238096 1.92735 0
M  V30 2861 O 272.824 -1.1692 1.55435 0
M  V30 2862 C 273.107 2.04244 2.96574 0
M  V30 2863 C 272.96 3.56793 2.73896 0
M  V30 2864 C 274.279 1.88684 3.97601 0
M  V30 2865 H 271.398 0.439001 0.591985 0
M  V30 2866 H 274.04 1.60704 1.01361 0
M  V30 2867 H 272.19 1.70063 3.493 0
M  V30 2868 H 273.862 4.01077 2.27892 0
M  V30 2869 H 272.105 3.80548 2.08245 0
M  V30 2870 H 272.776 4.10706 3.68815 0
M  V30 2871 H 275.252 2.18584 3.54062 0
M  V30 2872 H 274.128 2.4961 4.88862 0
M  V30 2873 H 274.389 0.848343 4.33884 0
M  V30 2874 N 273.449 -1.08991 1.13837 0
M  V30 2875 C 274.696 -1.81258 0.902882 0
M  V30 2876 C 275.024 -1.85936 -0.570803 0
M  V30 2877 O 274.279 -1.3267 -1.43865 0
M  V30 2878 C 274.578 -3.27042 1.44147 0
M  V30 2879 C 274.244 -3.4249 2.93276 0
M  V30 2880 C 272.906 -3.46414 3.33992 0
M  V30 2881 C 275.258 -3.4666 3.892 0
M  V30 2882 C 272.586 -3.52091 4.69307 0
M  V30 2883 C 274.938 -3.53872 5.24364 0
M  V30 2884 C 273.602 -3.56066 5.646 0
M  V30 2885 H 272.872 -0.663268 0.330388 0
M  V30 2886 H 275.519 -1.28368 1.42105 0
M  V30 2887 H 273.824 -3.82599 0.844097 0
M  V30 2888 H 275.521 -3.81499 1.23528 0
M  V30 2889 H 272.111 -3.40124 2.60794 0
M  V30 2890 H 276.295 -3.42865 3.58828 0
M  V30 2891 H 271.551 -3.52079 4.9985 0
M  V30 2892 H 275.725 -3.56043 5.98503 0
M  V30 2893 H 273.352 -3.60218 6.69438 0
M  V30 2894 N 274.927 -0.932562 -1.27047 0
M  V30 2895 C 275.859 -0.392734 -2.2581 0
M  V30 2896 C 276.872 0.479241 -1.55586 0
M  V30 2897 O 278.061 0.291078 -1.76111 0
M  V30 2898 C 275.161 0.455456 -3.35826 0
M  V30 2899 C 274.334 -0.398355 -4.35582 0
M  V30 2900 C 273.393 0.387985 -5.24768 0
M  V30 2901 O 272.419 -0.206003 -5.68827 0
M  V30 2902 N 273.621 1.68664 -5.55457 0
M  V30 2903 H 276.386 -1.24173 -2.72766 0
M  V30 2904 H 273.947 -0.800511 -1.40725 0
M  V30 2905 H 275.939 0.988692 -3.92437 0
M  V30 2906 H 274.509 1.20522 -2.88432 0
M  V30 2907 H 273.729 -1.11286 -3.78165 0
M  V30 2908 H 275.017 -0.981889 -4.99236 0
M  V30 2909 H 274.415 2.19147 -5.21528 0
M  V30 2910 H 272.972 2.1663 -6.14748 0
M  V30 2911 N 276.405 1.4127 -0.698611 0
M  V30 2912 C 277.368 2.29158 -0.044132 0
M  V30 2913 C 278.368 1.44529 0.704841 0
M  V30 2914 O 279.558 1.65643 0.539276 0
M  V30 2915 C 276.69 3.27459 0.947809 0
M  V30 2916 H 277.883 2.88529 -0.817994 0
M  V30 2917 H 275.436 1.49307 -0.46228 0
M  V30 2918 H 276.171 2.73073 1.74933 0
M  V30 2919 H 275.956 3.8991 0.41385 0
M  V30 2920 H 277.446 3.93311 1.40344 0
M  V30 2921 N 277.883 0.443576 1.51229 0
M  V30 2922 C 278.793 -0.370721 2.31652 0
M  V30 2923 C 279.809 -1.02186 1.40833 0
M  V30 2924 O 280.985 -1.01586 1.73903 0
M  V30 2925 C 278.05 -1.45376 3.14749 0
M  V30 2926 C 277.111 -0.822099 4.21355 0
M  V30 2927 C 276.344 -1.85353 5.0048 0
M  V30 2928 O 276.567 -3.07656 4.80316 0
M  V30 2929 O 275.501 -1.4406 5.84406 0
M  V30 2930 H 279.327 0.286002 3.0235 0
M  V30 2931 H 276.912 0.20598 1.47973 0
M  V30 2932 H 278.794 -2.08173 3.66391 0
M  V30 2933 H 277.469 -2.09445 2.46809 0
M  V30 2934 H 276.376 -0.155909 3.73775 0
M  V30 2935 H 277.709 -0.224797 4.91686 0
M  V30 2936 N 279.361 -1.56624 0.175154 0
M  V30 2937 C 280.311 -2.14747 -0.766004 0
M  V30 2938 C 281.295 -1.08275 -1.19018 0
M  V30 2939 O 282.487 -1.34388 -1.15191 0
M  V30 2940 C 279.616 -2.79478 -1.99366 0
M  V30 2941 C 278.702 -3.93114 -1.5913 0
M  V30 2942 N 279.093 -4.97752 -0.89872 0
M  V30 2943 C 277.391 -4.04345 -1.88204 0
M  V30 2944 C 278.092 -5.77473 -0.700012 0
M  V30 2945 N 277.068 -5.29207 -1.24263 0
M  V30 2946 H 280.87 -2.93015 -0.22793 0
M  V30 2947 H 278.384 -1.6238 -0.0253843 0
M  V30 2948 H 280.381 -3.19498 -2.67818 0
M  V30 2949 H 279.041 -2.02692 -2.53665 0
M  V30 2950 H 280.052 -5.14903 -0.556347 0
M  V30 2951 H 276.729 -3.38667 -2.44153 0
M  V30 2952 H 278.119 -6.71728 -0.152047 0
M  V30 2953 N 280.839 0.0985539 -1.57292 0
M  V30 2954 C 281.787 1.1387 -2.02821 0
M  V30 2955 C 282.781 1.41676 -0.928666 0
M  V30 2956 O 283.987 1.41398 -1.11385 0
M  V30 2957 H 280.362 0.384419 -0.646317 0
M  V30 2958 H 282.333 0.728347 -2.89375 0
M  V30 2959 C 281.082 2.45166 -2.46554 0
M  V30 2960 H 280.405 2.24613 -3.3074 0
M  V30 2961 H 281.845 3.16456 -2.8219 0
M  V30 2962 C 280.304 3.09216 -1.33742 0
M  V30 2963 O 280.834 3.96163 -0.66464 0
M  V30 2964 N 279.04 2.69413 -1.08928 0
M  V30 2965 H 278.587 1.98801 -1.63817 0
M  V30 2966 H 278.545 3.12594 -0.336458 0
M  V30 2967 N 282.317 1.53212 0.369288 0
M  V30 2968 C 283.566 1.68436 1.10961 0
M  V30 2969 C 283.879 0.440738 1.9057 0
M  V30 2970 O 285.085 0.473446 2.6734 0
M  V30 2971 C 283.541 2.97744 2.0218 0
M  V30 2972 C 283.149 4.29355 1.279 0
M  V30 2973 C 284.893 3.22334 2.76226 0
M  V30 2974 C 282.8 5.49755 2.17999 0
M  V30 2975 H 281.73 0.627568 0.41794 0
M  V30 2976 H 284.381 1.79713 0.370884 0
M  V30 2977 H 282.763 2.8026 2.79768 0
M  V30 2978 H 283.937 4.57458 0.554007 0
M  V30 2979 H 282.252 4.11179 0.657311 0
M  V30 2980 H 284.849 4.09471 3.43857 0
M  V30 2981 H 285.192 2.38238 3.41392 0
M  V30 2982 H 285.725 3.40475 2.05723 0
M  V30 2983 H 282.464 6.36318 1.57417 0
M  V30 2984 H 281.984 5.25937 2.88359 0
M  V30 2985 H 283.663 5.84401 2.77641 0
M  V30 2986 N 283.795 -0.628877 1.44509 0
M  V30 2987 C 284.725 -1.75187 1.54376 0
M  V30 2988 C 285.706 -1.65411 0.396618 0
M  V30 2989 O 286.891 -1.84137 0.617031 0
M  V30 2990 C 284.021 -3.13725 1.48976 0
M  V30 2991 C 282.975 -3.38291 2.62189 0
M  V30 2992 C 282.301 -4.76883 2.41841 0
M  V30 2993 C 283.601 -3.30632 4.04326 0
M  V30 2994 H 285.295 -1.67187 2.48373 0
M  V30 2995 H 282.841 -0.802909 1.19538 0
M  V30 2996 H 284.794 -3.92064 1.54478 0
M  V30 2997 H 283.518 -3.22515 0.514961 0
M  V30 2998 H 282.177 -2.62334 2.56079 0
M  V30 2999 H 281.825 -4.82378 1.42548 0
M  V30 3000 H 281.525 -4.94278 3.17747 0
M  V30 3001 H 283.049 -5.57449 2.49165 0
M  V30 3002 H 284.463 -3.98873 4.11793 0
M  V30 3003 H 282.86 -3.59561 4.80454 0
M  V30 3004 H 283.93 -2.28404 4.27738 0
M  V30 3005 N 285.273 -1.31445 -0.869486 0
M  V30 3006 C 286.206 -1.13465 -1.97992 0
M  V30 3007 C 287.184 -0.0380291 -1.62556 0
M  V30 3008 O 288.368 -0.194544 -1.87493 0
M  V30 3009 C 285.495 -0.733822 -3.30655 0
M  V30 3010 C 284.541 -1.83356 -3.85075 0
M  V30 3011 S 285.374 -3.43909 -4.10472 0
M  V30 3012 C 286.53 -3.05763 -5.46132 0
M  V30 3013 H 286.763 -2.07471 -2.1294 0
M  V30 3014 H 284.296 -1.15936 -1.01972 0
M  V30 3015 H 286.254 -0.509306 -4.07328 0
M  V30 3016 H 284.915 0.187123 -3.13542 0
M  V30 3017 H 284.108 -1.50574 -4.80982 0
M  V30 3018 H 283.71 -2.01315 -3.15195 0
M  V30 3019 H 286.002 -2.54686 -6.27807 0
M  V30 3020 H 286.945 -4.00635 -5.83864 0
M  V30 3021 H 287.353 -2.43192 -5.09429 0
M  V30 3022 N 286.751 1.08385 -1.14413 0
M  V30 3023 C 287.701 2.13509 -0.79987 0
M  V30 3024 C 288.685 1.5951 0.211059 0
M  V30 3025 O 289.877 1.76995 0.0133694 0
M  V30 3026 C 287.006 3.42162 -0.279297 0
M  V30 3027 C 286.092 4.03042 -1.31976 0
M  V30 3028 N 286.483 4.38327 -2.52395 0
M  V30 3029 C 284.781 4.30379 -1.17004 0
M  V30 3030 C 285.482 4.86428 -3.19003 0
M  V30 3031 N 284.458 4.84547 -2.46405 0
M  V30 3032 H 288.26 2.38609 -1.7159 0
M  V30 3033 H 285.774 1.2572 -1.02802 0
M  V30 3034 H 287.771 4.16898 -0.0143688 0
M  V30 3035 H 286.431 3.18511 0.630923 0
M  V30 3036 H 287.442 4.29349 -2.89621 0
M  V30 3037 H 284.119 4.16281 -0.318854 0
M  V30 3038 H 285.509 5.23107 -4.21674 0
M  V30 3039 N 288.23 0.939286 1.26551 0
M  V30 3040 C 289.641 0.628782 1.75793 0
M  V30 3041 C 289.992 -0.856046 1.7654 0
M  V30 3042 O 289.117 -1.66994 1.3763 0
M  V30 3043 C 289.712 1.13465 3.19235 0
M  V30 3044 C 288.271 0.874601 3.66098 0
M  V30 3045 C 287.418 1.28667 2.45642 0
M  V30 3046 H 290.369 1.1178 1.12654 0
M  V30 3047 H 290.39 0.487609 3.77363 0
M  V30 3048 H 289.902 2.21535 3.1866 0
M  V30 3049 H 288.003 -0.191793 3.72106 0
M  V30 3050 H 288.116 1.50028 4.55004 0
M  V30 3051 H 286.48 0.705109 2.44745 0
M  V30 3052 H 287.263 2.37625 2.47769 0
M  V30 3053 N 289.708 -1.40897 0.706093 0
M  V30 3054 C 290.955 -2.01054 0.241531 0
M  V30 3055 C 291.283 -1.55956 -1.16223 0
M  V30 3056 O 290.538 -0.766336 -1.80072 0
M  V30 3057 C 290.837 -3.5646 0.259099 0
M  V30 3058 C 290.503 -4.21106 1.61184 0
M  V30 3059 C 289.165 -4.38479 1.98216 0
M  V30 3060 C 291.517 -4.57256 2.50132 0
M  V30 3061 C 288.845 -4.89282 3.2376 0
M  V30 3062 C 291.197 -5.09454 3.7502 0
M  V30 3063 C 289.861 -5.25037 4.12181 0
M  V30 3064 H 289.131 -0.73571 0.0883825 0
M  V30 3065 H 291.778 -1.68645 0.907257 0
M  V30 3066 H 290.083 -3.88721 -0.490189 0
M  V30 3067 H 291.78 -4.00826 -0.11804 0
M  V30 3068 H 288.37 -4.07966 1.31384 0
M  V30 3069 H 292.554 -4.43479 2.228 0
M  V30 3070 H 287.81 -4.99531 3.52532 0
M  V30 3071 H 291.984 -5.36404 4.44121 0
M  V30 3072 H 289.611 -5.64164 5.09532 0
M  V30 3073 N 291.186 -0.45159 -1.50991 0
M  V30 3074 C 292.136 0.370861 -2.24964 0
M  V30 3075 C 293.12 0.978074 -1.2776 0
M  V30 3076 O 294.312 0.893854 -1.52772 0
M  V30 3077 C 291.441 1.46344 -3.10545 0
M  V30 3078 C 290.527 0.864924 -4.15187 0
M  V30 3079 N 290.918 -0.00311354 -5.058 0
M  V30 3080 C 289.216 1.13099 -4.31422 0
M  V30 3081 C 289.917 -0.340772 -5.80701 0
M  V30 3082 N 288.893 0.279203 -5.42883 0
M  V30 3083 H 292.695 -0.298134 -2.92384 0
M  V30 3084 H 290.209 -0.264528 -1.60231 0
M  V30 3085 H 292.206 2.06565 -3.62128 0
M  V30 3086 H 290.866 2.13463 -2.4467 0
M  V30 3087 H 291.877 -0.37058 -5.16572 0
M  V30 3088 H 288.554 1.79861 -3.76771 0
M  V30 3089 H 289.944 -1.048 -6.63677 0
M  V30 3090 N 292.664 1.56529 -0.183458 0
M  V30 3091 C 293.596 2.15747 0.773697 0
M  V30 3092 C 294.609 1.1162 1.1851 0
M  V30 3093 O 295.798 1.3876 1.12285 0
M  V30 3094 C 292.898 2.6952 2.05456 0
M  V30 3095 C 292.071 3.98429 1.8048 0
M  V30 3096 C 291.13 4.37145 2.92901 0
M  V30 3097 O 290.156 5.04791 2.6301 0
M  V30 3098 N 291.358 3.99695 4.2098 0
M  V30 3099 H 294.123 2.98505 0.26736 0
M  V30 3100 H 291.684 1.619 -0.0010878 0
M  V30 3101 H 293.676 2.92412 2.79781 0
M  V30 3102 H 292.246 1.91282 2.47245 0
M  V30 3103 H 291.466 3.8379 0.899947 0
M  V30 3104 H 292.754 4.82597 1.61175 0
M  V30 3105 H 292.152 3.4526 4.48121 0
M  V30 3106 H 290.709 4.27562 4.9197 0
M  V30 3107 N 294.142 -0.090211 1.57342 0
M  V30 3108 C 295.072 -1.10976 2.05443 0
M  V30 3109 C 296.053 -1.41482 0.944284 0
M  V30 3110 O 297.238 -1.51428 1.21586 0
M  V30 3111 C 294.368 -2.42831 2.48295 0
M  V30 3112 C 293.322 -2.26721 3.63018 0
M  V30 3113 C 292.648 -3.63796 3.91863 0
M  V30 3114 C 293.948 -1.7037 4.93732 0
M  V30 3115 H 295.642 -0.709564 2.9087 0
M  V30 3116 H 293.188 -0.339874 1.39932 0
M  V30 3117 H 295.141 -3.14431 2.80555 0
M  V30 3118 H 293.865 -2.84795 1.59873 0
M  V30 3119 H 292.524 -1.57565 3.31012 0
M  V30 3120 H 292.172 -4.03297 3.00601 0
M  V30 3121 H 291.872 -3.53861 4.69101 0
M  V30 3122 H 293.396 -4.36855 4.26603 0
M  V30 3123 H 294.81 -2.31816 5.24342 0
M  V30 3124 H 293.207 -1.71181 5.75167 0
M  V30 3125 H 294.277 -0.663542 4.80339 0
M  V30 3126 N 295.62 -1.53406 -0.361157 0
M  V30 3127 C 296.868 -1.69467 -1.10115 0
M  V30 3128 C 297.189 -0.451352 -1.89705 0
M  V30 3129 O 296.459 0.534636 -1.88463 0
M  V30 3130 H 295.039 -0.624749 -0.409508 0
M  V30 3131 H 297.701 -1.90609 -0.406699 0
M  V30 3132 H 296.797 -2.55774 -1.78847 0
M  V30 3133 N 297.098 0.621204 -1.44841 0
M  V30 3134 C 298.344 1.3826 -1.48365 0
M  V30 3135 C 298.677 1.93831 -0.119624 0
M  V30 3136 O 297.952 1.74251 0.864111 0
M  V30 3137 C 298.235 2.54058 -2.55199 0
M  V30 3138 C 298.088 2.03772 -4.00995 0
M  V30 3139 C 299.407 3.56225 -2.58442 0
M  V30 3140 H 296.526 0.501374 -0.540179 0
M  V30 3141 H 299.168 0.7015 -1.76576 0
M  V30 3142 H 297.318 3.12162 -2.31274 0
M  V30 3143 H 298.99 1.50423 -4.36086 0
M  V30 3144 H 297.233 1.34876 -4.12299 0
M  V30 3145 H 297.904 2.87185 -4.71411 0
M  V30 3146 H 300.38 3.07939 -2.79844 0
M  V30 3147 H 299.256 4.34756 -3.3508 0
M  V30 3148 H 299.517 4.10949 -1.63013 0
M  V30 3149 N 298.576 1.31904 0.862503 0
M  V30 3150 C 299.539 1.20131 1.95195 0
M  V30 3151 C 300.539 0.126409 1.60302 0
M  V30 3152 O 301.729 0.376234 1.70089 0
M  V30 3153 C 298.861 0.845691 3.30244 0
M  V30 3154 H 300.054 2.16943 2.07064 0
M  V30 3155 H 297.607 1.15622 1.05172 0
M  V30 3156 H 298.342 -0.120957 3.24074 0
M  V30 3157 H 298.127 1.62276 3.56944 0
M  V30 3158 H 299.617 0.787418 4.10109 0
M  V30 3159 N 300.054 -1.07777 1.14986 0
M  V30 3160 C 301.302 -1.79934 0.920235 0
M  V30 3161 C 301.623 -1.86955 -0.554336 0
M  V30 3162 O 300.893 -1.36731 -1.40291 0
M  V30 3163 H 299.473 -0.666424 0.337473 0
M  V30 3164 H 302.135 -1.3027 1.44968 0
M  V30 3165 H 301.231 -2.82539 1.32583 0
M  V30 3166 N 301.532 -0.945985 -1.26051 0
M  V30 3167 C 302.778 -0.597002 -1.93814 0
M  V30 3168 C 303.111 0.862484 -1.73997 0
M  V30 3169 O 302.386 1.61769 -1.07986 0
M  V30 3170 C 302.669 -0.945937 -3.47454 0
M  V30 3171 C 302.522 -2.46052 -3.76535 0
M  V30 3172 C 303.841 -0.464785 -4.37639 0
M  V30 3173 H 300.96 -0.218366 -0.703907 0
M  V30 3174 H 303.602 -1.18107 -1.48831 0
M  V30 3175 H 301.752 -0.448902 -3.85898 0
M  V30 3176 H 303.424 -3.03065 -3.47778 0
M  V30 3177 H 301.667 -2.90194 -3.22444 0
M  V30 3178 H 302.338 -2.65517 -4.83947 0
M  V30 3179 H 304.814 -0.891016 -4.06448 0
M  V30 3180 H 303.69 -0.737712 -5.4392 0
M  V30 3181 H 303.951 0.635274 -4.37512 0
M  V30 3182 N 303.011 1.40521 -0.713556 0
M  V30 3183 C 304.258 2.00923 -0.25219 0
M  V30 3184 C 304.586 1.56571 1.15395 0
M  V30 3185 O 303.841 0.775874 1.79663 0
M  V30 3186 C 304.14 3.56317 -0.278 0
M  V30 3187 C 303.806 4.20246 -1.63415 0
M  V30 3188 C 302.468 4.37422 -2.00538 0
M  V30 3189 C 304.82 4.55923 -2.52554 0
M  V30 3190 C 302.148 4.87558 -3.2635 0
M  V30 3191 C 304.5 5.07458 -3.77716 0
M  V30 3192 C 303.164 5.22843 -4.14959 0
M  V30 3193 H 302.434 0.735231 -0.0922829 0
M  V30 3194 H 305.081 1.68161 -0.916188 0
M  V30 3195 H 303.386 3.88976 0.469567 0
M  V30 3196 H 305.083 4.00883 0.0967819 0
M  V30 3197 H 301.673 4.07263 -1.33546 0
M  V30 3198 H 305.857 4.42291 -2.25149 0
M  V30 3199 H 301.113 4.97654 -3.55176 0
M  V30 3200 H 305.287 5.34041 -4.4696 0
M  V30 3201 H 302.914 5.61454 -5.12516 0
M  V30 3202 N 304.489 0.459591 1.5075 0
M  V30 3203 C 305.737 -0.0991532 2.01857 0
M  V30 3204 C 306.058 -1.41247 1.34441 0
M  V30 3205 O 305.328 -1.89775 0.486022 0
M  V30 3206 H 303.908 -0.039633 0.745948 0
M  V30 3207 H 306.57 0.607387 1.85194 0
M  V30 3208 H 305.666 -0.258998 3.11023 0
M  V30 3209 N 305.967 -1.56429 0.191757 0
M  V30 3210 C 307.215 -1.97095 -0.447006 0
M  V30 3211 C 307.536 -1.07967 -1.62383 0
M  V30 3212 O 306.806 -0.150248 -1.95323 0
M  V30 3213 H 305.386 -0.727832 -0.168135 0
M  V30 3214 H 308.048 -1.92911 0.27771 0
M  V30 3215 H 307.144 -3.01848 -0.793371 0
M  V30 3216 N 307.445 0.0818655 -1.57387 0
M  V30 3217 C 308.408 1.08265 -2.02018 0
M  V30 3218 C 309.408 1.32183 -0.915664 0
M  V30 3219 O 310.598 1.28073 -1.18081 0
M  V30 3220 C 307.73 2.42871 -2.39221 0
M  V30 3221 H 308.923 0.698204 -2.91659 0
M  V30 3222 H 306.476 0.327303 -1.52835 0
M  V30 3223 H 307.211 2.86167 -1.52575 0
M  V30 3224 H 306.996 2.26855 -3.19811 0
M  V30 3225 H 308.486 3.14826 -2.74362 0
M  V30 3226 N 308.923 1.53595 0.353017 0
M  V30 3227 C 309.853 1.83902 1.43883 0
M  V30 3228 C 310.834 0.693421 1.55324 0
M  V30 3229 O 312.019 0.944452 1.69687 0
M  V30 3230 C 309.149 2.04016 2.8106 0
M  V30 3231 C 308.103 3.19814 2.84434 0
M  V30 3232 C 307.429 3.25244 4.24406 0
M  V30 3233 C 308.729 4.58133 2.50822 0
M  V30 3234 H 310.423 2.74835 1.1877 0
M  V30 3235 H 307.969 1.32242 0.569917 0
M  V30 3236 H 309.922 2.238 3.57059 0
M  V30 3237 H 308.646 1.09804 3.07588 0
M  V30 3238 H 307.305 2.9987 2.10887 0
M  V30 3239 H 306.953 2.28646 4.48029 0
M  V30 3240 H 306.653 4.03054 4.27576 0
M  V30 3241 H 308.177 3.47228 5.0226 0
M  V30 3242 H 309.591 4.77995 3.16534 0
M  V30 3243 H 307.988 5.38276 2.6529 0
M  V30 3244 H 309.058 4.62387 1.46034 0
M  V30 3245 N 310.401 -0.613514 1.45168 0
M  V30 3246 C 311.648 -1.37268 1.48875 0
M  V30 3247 C 311.976 -1.94077 0.128161 0
M  V30 3248 O 311.231 -1.75178 -0.872416 0
M  V30 3249 C 311.53 -2.54347 2.51083 0
M  V30 3250 C 311.196 -2.1572 3.95949 0
M  V30 3251 C 309.858 -2.04899 4.35396 0
M  V30 3252 C 312.21 -1.85485 4.87078 0
M  V30 3253 C 309.538 -1.62057 5.63875 0
M  V30 3254 C 311.89 -1.4413 6.15962 0
M  V30 3255 C 310.554 -1.31863 6.54346 0
M  V30 3256 H 309.824 -0.502299 0.544773 0
M  V30 3257 H 312.471 -0.694021 1.78481 0
M  V30 3258 H 310.776 -3.27524 2.15024 0
M  V30 3259 H 312.473 -3.12577 2.51191 0
M  V30 3260 H 309.063 -2.25066 3.64751 0
M  V30 3261 H 313.247 -1.92745 4.57343 0
M  V30 3262 H 308.503 -1.51177 5.92415 0
M  V30 3263 H 312.677 -1.19778 6.86022 0
M  V30 3264 H 310.304 -0.984392 7.538 0
M  V30 3265 N 311.879 -1.3236 -0.855495 0
M  V30 3266 C 313.119 -1.24187 -1.62348 0
M  V30 3267 C 313.483 0.193597 -1.91021 0
M  V30 3268 O 314.684 0.39904 -2.65822 0
M  V30 3269 C 312.955 -2.07661 -2.90881 0
M  V30 3270 S 314.514 -2.16505 -3.81669 0
M  V30 3271 H 311.332 -0.442076 -0.556857 0
M  V30 3272 H 313.934 -1.67198 -1.01317 0
M  V30 3273 H 312.638 -3.11018 -2.67761 0
M  V30 3274 H 312.169 -1.65425 -3.56929 0
M  V30 3275 H 314.184 -1.31394 -4.78487 0
M  V30 3276 N 313.357 1.07166 -1.15556 0
M  V30 3277 C 314.32 2.12589 -0.856644 0
M  V30 3278 C 315.32 1.6015 0.14444 0
M  V30 3279 O 316.51 1.7399 -0.0854163 0
M  V30 3280 C 313.642 3.39753 -0.279405 0
M  V30 3281 H 314.835 2.40539 -1.79112 0
M  V30 3282 H 312.388 1.23086 -0.963298 0
M  V30 3283 H 313.123 3.17447 0.663174 0
M  V30 3284 H 312.908 3.79117 -1.00063 0
M  V30 3285 H 314.398 4.17507 -0.0879113 0
M  V30 3286 N 314.835 0.952656 1.25548 0
M  V30 3287 C 315.768 0.415525 2.24385 0
M  V30 3288 C 316.746 -0.502046 1.54655 0
M  V30 3289 O 317.93 -0.436875 1.83368 0
M  V30 3290 C 315.057 -0.401734 3.36309 0
M  V30 3291 C 314.103 0.455949 4.24056 0
M  V30 3292 S 314.936 1.88698 5.01152 0
M  V30 3293 C 316.092 1.07809 6.16545 0
M  V30 3294 H 316.325 1.25315 2.69599 0
M  V30 3295 H 313.858 0.756587 1.34592 0
M  V30 3296 H 315.816 -0.867329 4.01233 0
M  V30 3297 H 314.477 -1.21416 2.89684 0
M  V30 3298 H 313.67 -0.170776 5.03711 0
M  V30 3299 H 313.272 0.856675 3.64056 0
M  V30 3300 H 315.564 0.325816 6.76716 0
M  V30 3301 H 316.507 1.84849 6.83547 0
M  V30 3302 H 316.915 0.60909 5.61204 0
M  V30 3303 N 316.313 -1.40141 0.720998 0
M  V30 3304 C 317.263 -2.27949 0.0482544 0
M  V30 3305 C 318.247 -1.43538 -0.727021 0
M  V30 3306 O 319.439 -1.6658 -0.598332 0
M  V30 3307 C 316.568 -3.32126 -0.868729 0
M  V30 3308 C 315.654 -4.24008 -0.0883515 0
M  V30 3309 N 316.045 -4.97154 0.931226 0
M  V30 3310 C 314.343 -4.4485 -0.320105 0
M  V30 3311 C 315.044 -5.64587 1.4006 0
M  V30 3312 N 314.02 -5.38787 0.721752 0
M  V30 3313 H 317.822 -2.81948 0.829609 0
M  V30 3314 H 315.336 -1.52656 0.554067 0
M  V30 3315 H 317.333 -3.93884 -1.36605 0
M  V30 3316 H 315.993 -2.79687 -1.6494 0
M  V30 3317 H 317.004 -5.01 1.31222 0
M  V30 3318 H 313.681 -4.03378 -1.07668 0
M  V30 3319 H 315.071 -6.33175 2.24808 0
M  V30 3320 N 317.792 -0.46758 -1.50504 0
M  V30 3321 C 319.04 0.0884469 -2.01906 0
M  V30 3322 C 319.361 1.40532 -1.35188 0
M  V30 3323 O 318.631 1.89515 -0.496079 0
M  V30 3324 H 317.211 0.0356765 -0.746148 0
M  V30 3325 H 319.873 -0.6172 -1.84869 0
M  V30 3326 H 318.969 0.2425 -3.11156 0
M  V30 3327 N 319.27 1.56325 -0.20005 0
M  V30 3328 C 320.495 2.02548 0.44597 0
M  V30 3329 C 320.92 1.07922 1.5406 0
M  V30 3330 O 320.278 0.0635775 1.81188 0
M  V30 3331 C 320.326 3.47175 0.974761 0
M  V30 3332 O 319.43 3.55671 2.08739 0
M  V30 3333 H 318.771 0.655862 0.103638 0
M  V30 3334 H 321.301 2.02201 -0.312381 0
M  V30 3335 H 321.311 3.87067 1.2901 0
M  V30 3336 H 319.986 4.15538 0.17347 0
M  V30 3337 H 318.563 3.27657 1.78032 0
M  V30 3338 N 320.748 -0.0735177 1.57428 0
M  V30 3339 C 321.678 -1.0879 2.06608 0
M  V30 3340 C 322.659 -1.40473 0.959237 0
M  V30 3341 O 323.844 -1.5013 1.23185 0
M  V30 3342 C 320.974 -2.40183 2.50857 0
M  V30 3343 C 319.928 -2.22858 3.65402 0
M  V30 3344 C 319.254 -3.59619 3.957 0
M  V30 3345 C 320.554 -1.65123 4.95511 0
M  V30 3346 H 322.248 -0.678673 2.91607 0
M  V30 3347 H 319.794 -0.325013 1.40284 0
M  V30 3348 H 321.747 -3.11437 2.83874 0
M  V30 3349 H 320.471 -2.83083 1.62885 0
M  V30 3350 H 319.13 -1.54045 3.32664 0
M  V30 3351 H 318.778 -4.00086 3.04861 0
M  V30 3352 H 318.478 -3.48866 4.72828 0
M  V30 3353 H 320.002 -4.32306 4.31212 0
M  V30 3354 H 321.416 -2.26241 5.26771 0
M  V30 3355 H 319.813 -1.65071 5.7695 0
M  V30 3356 H 320.883 -0.612559 4.81015 0
M  V30 3357 N 322.226 -1.5378 -0.344866 0
M  V30 3358 C 323.472 -1.71216 -1.08687 0
M  V30 3359 C 323.805 -0.473281 -1.88345 0
M  V30 3360 O 323.08 0.52968 -1.87149 0
M  V30 3361 C 323.363 -2.97486 -2.02914 0
M  V30 3362 C 323.216 -4.31579 -1.26727 0
M  V30 3363 C 324.535 -3.19422 -3.0275 0
M  V30 3364 H 321.654 -0.62301 -0.393735 0
M  V30 3365 H 324.296 -1.8645 -0.365563 0
M  V30 3366 H 322.446 -2.84629 -2.64421 0
M  V30 3367 H 324.118 -4.56284 -0.67845 0
M  V30 3368 H 322.361 -4.30049 -0.569273 0
M  V30 3369 H 323.032 -5.16106 -1.95803 0
M  V30 3370 H 325.508 -3.316 -2.51357 0
M  V30 3371 H 324.384 -4.09169 -3.65885 0
M  V30 3372 H 324.645 -2.35656 -3.74057 0
M  V30 3373 N 323.704 0.605807 -1.45491 0
M  V30 3374 C 324.932 1.39136 -1.5313 0
M  V30 3375 C 325.347 1.88082 -0.164507 0
M  V30 3376 O 324.704 1.62316 0.834247 0
M  V30 3377 C 324.755 2.59463 -2.51716 0
M  V30 3378 O 324.476 2.12551 -3.83084 0
M  V30 3379 C 325.977 3.52301 -2.6907 0
M  V30 3380 H 323.197 0.425849 -0.51855 0
M  V30 3381 H 325.741 0.73865 -1.90694 0
M  V30 3382 H 323.896 3.20772 -2.17219 0
M  V30 3383 H 324.31 2.90744 -4.36541 0
M  V30 3384 H 325.784 4.33271 -3.42024 0
M  V30 3385 H 326.261 4.02757 -1.75167 0
M  V30 3386 H 326.867 2.96845 -3.04571 0
M  V30 3387 N 325.182 1.32811 0.848464 0
M  V30 3388 C 326.407 1.26882 1.6406 0
M  V30 3389 C 326.832 -0.15913 1.87426 0
M  V30 3390 O 326.19 -1.11258 1.43148 0
M  V30 3391 C 326.238 2.03997 2.97351 0
M  V30 3392 O 325.342 1.39201 3.88197 0
M  V30 3393 H 324.683 0.436982 0.499943 0
M  V30 3394 H 327.213 1.75224 1.0563 0
M  V30 3395 H 327.223 2.14403 3.47124 0
M  V30 3396 H 325.898 3.0783 2.79666 0
M  V30 3397 H 324.475 1.37381 3.46671 0
M  V30 3398 N 326.66 -1.06551 1.16123 0
M  V30 3399 C 327.885 -1.83544 0.965735 0
M  V30 3400 C 328.31 -1.81843 -0.481102 0
M  V30 3401 O 327.668 -1.21732 -1.34354 0
M  V30 3402 C 327.716 -3.28169 1.49457 0
M  V30 3403 O 326.82 -4.0643 0.699157 0
M  V30 3404 H 326.161 -0.568026 0.343864 0
M  V30 3405 H 328.691 -1.34362 1.54299 0
M  V30 3406 H 328.701 -3.78992 1.51092 0
M  V30 3407 H 327.376 -3.28722 2.54784 0
M  V30 3408 H 325.953 -3.65216 0.7531 0
M  V30 3409 N 328.138 -0.959301 -1.25041 0
M  V30 3410 C 329.068 -0.501388 -2.28053 0
M  V30 3411 C 330.049 0.454673 -1.63911 0
M  V30 3412 O 331.234 0.352618 -1.90972 0
M  V30 3413 C 328.364 0.217224 -3.4662 0
M  V30 3414 C 327.318 -0.654034 -4.22973 0
M  V30 3415 C 326.644 0.195589 -5.34342 0
M  V30 3416 C 327.944 -1.93447 -4.85155 0
M  V30 3417 H 329.638 -1.36238 -2.66608 0
M  V30 3418 H 327.184 -0.656534 -1.28163 0
M  V30 3419 H 329.137 0.548732 -4.17812 0
M  V30 3420 H 327.861 1.1125 -3.07068 0
M  V30 3421 H 326.52 -0.968693 -3.5357 0
M  V30 3422 H 326.168 1.09076 -4.91031 0
M  V30 3423 H 325.868 -0.384091 -5.86343 0
M  V30 3424 H 327.392 0.521958 -6.08365 0
M  V30 3425 H 328.806 -1.66908 -5.48466 0
M  V30 3426 H 327.203 -2.46018 -5.47353 0
M  V30 3427 H 328.273 -2.63466 -4.07079 0
M  V30 3428 N 329.616 1.39756 -0.72842 0
M  V30 3429 C 330.865 1.99879 -0.270407 0
M  V30 3430 C 331.178 1.58449 1.14688 0
M  V30 3431 O 332.384 2.11362 1.70407 0
M  V30 3432 C 330.84 3.57292 -0.43252 0
M  V30 3433 C 330.448 4.07688 -1.85727 0
M  V30 3434 C 332.192 4.24485 -0.0359507 0
M  V30 3435 C 330.099 5.5765 -1.96928 0
M  V30 3436 H 329.029 0.747689 -0.0973472 0
M  V30 3437 H 331.68 1.59837 -0.901355 0
M  V30 3438 H 330.062 3.95097 0.267219 0
M  V30 3439 H 331.236 3.81231 -2.58843 0
M  V30 3440 H 329.551 3.53135 -2.20646 0
M  V30 3441 H 332.148 5.34609 -0.0987484 0
M  V30 3442 H 332.491 4.03915 1.00787 0
M  V30 3443 H 333.024 3.9183 -0.686604 0
M  V30 3444 H 329.763 5.8309 -2.99476 0
M  V30 3445 H 329.283 5.8593 -1.28241 0
M  V30 3446 H 330.962 6.22957 -1.74737 0
M  V30 3447 N 331.094 0.475555 1.50254 0
M  V30 3448 C 332.51 0.12997 1.5907 0
M  V30 3449 C 332.71 -1.36385 1.48328 0
M  V30 3450 O 331.766 -2.13754 1.34407 0
M  V30 3451 C 333.079 0.684139 2.92814 0
M  V30 3452 C 334.627 0.647965 3.0622 0
M  V30 3453 C 335.102 1.17975 4.42545 0
M  V30 3454 N 336.593 1.13936 4.48969 0
M  V30 3455 C 337.328 1.52129 5.52851 0
M  V30 3456 N 336.824 1.97793 6.63965 0
M  V30 3457 N 338.617 1.43704 5.4342 0
M  V30 3458 H 330.768 1.44706 1.55479 0
M  V30 3459 H 333.031 0.598691 0.735033 0
M  V30 3460 H 332.737 1.73079 3.06164 0
M  V30 3461 H 332.611 0.130204 3.76975 0
M  V30 3462 H 334.998 -0.38979 2.92514 0
M  V30 3463 H 335.079 1.23876 2.23805 0
M  V30 3464 H 334.723 2.21616 4.57 0
M  V30 3465 H 334.653 0.565138 5.23559 0
M  V30 3466 H 337.144 0.804488 3.69238 0
M  V30 3467 H 337.457 2.25072 7.39299 0
M  V30 3468 H 335.802 2.01749 6.65073 0
M  V30 3469 H 338.993 1.07867 4.55502 0
M  V30 3470 H 339.166 1.73794 6.24259 0
M  V30 3471 N 332.573 -1.56217 0.208337 0
M  V30 3472 C 333.483 -2.23316 -0.718836 0
M  V30 3473 C 334.499 -1.23648 -1.22422 0
M  V30 3474 O 335.675 -1.56423 -1.26861 0
M  V30 3475 C 332.74 -2.88968 -1.91568 0
M  V30 3476 C 331.801 -4.03943 -1.45357 0
M  V30 3477 C 331.034 -4.66455 -2.59337 0
M  V30 3478 O 331.257 -4.27919 -3.77149 0
M  V30 3479 O 330.191 -5.55686 -2.31293 0
M  V30 3480 H 334.017 -3.03182 -0.177315 0
M  V30 3481 H 331.602 -1.49384 -0.0215402 0
M  V30 3482 H 333.484 -3.30455 -2.61491 0
M  V30 3483 H 332.159 -2.12071 -2.44556 0
M  V30 3484 H 331.066 -3.67052 -0.722746 0
M  V30 3485 H 332.399 -4.82543 -0.970219 0
M  V30 3486 N 334.051 0.0651679 -1.57465 0
M  V30 3487 C 335.279 0.775808 -1.91804 0
M  V30 3488 C 335.694 1.70782 -0.804916 0
M  V30 3489 O 335.051 1.81153 0.221311 0
M  V30 3490 C 335.102 1.56381 -3.25925 0
M  V30 3491 O 334.823 0.669248 -4.32958 0
M  V30 3492 C 336.324 2.37485 -3.7432 0
M  V30 3493 H 333.544 0.2202 -0.63384 0
M  V30 3494 H 336.088 0.0334587 -2.04473 0
M  V30 3495 H 334.243 2.25837 -3.14764 0
M  V30 3496 H 334.657 1.21801 -5.10162 0
M  V30 3497 H 336.131 2.88223 -4.70778 0
M  V30 3498 H 336.608 3.17307 -3.03666 0
M  V30 3499 H 337.214 1.73173 -3.88447 0
M  V30 3500 N 335.529 1.53961 0.336706 0
M  V30 3501 C 336.757 1.75483 1.09605 0
M  V30 3502 C 337.172 0.4972 1.82136 0
M  V30 3503 O 336.529 -0.53149 1.74589 0
M  V30 3504 C 336.58 2.93943 2.10428 0
M  V30 3505 O 336.301 4.14842 1.40846 0
M  V30 3506 C 337.802 3.27571 2.98684 0
M  V30 3507 H 335.022 0.586166 0.326574 0
M  V30 3508 H 337.566 2.00808 0.38683 0
M  V30 3509 H 335.721 2.70929 2.76905 0
M  V30 3510 H 336.135 4.81383 2.08255 0
M  V30 3511 H 337.609 4.13791 3.6535 0
M  V30 3512 H 338.086 2.44168 3.65074 0
M  V30 3513 H 338.692 3.52615 2.37787 0
M  V30 3514 N 337.007 -0.598083 1.45811 0
M  V30 3515 C 337.917 -1.73632 1.57763 0
M  V30 3516 C 338.933 -1.67763 0.461676 0
M  V30 3517 O 340.109 -1.87949 0.723685 0
M  V30 3518 C 337.174 -3.10114 1.55018 0
M  V30 3519 C 336.235 -3.27364 2.77726 0
M  V30 3520 C 335.468 -4.57334 2.75102 0
M  V30 3521 O 335.691 -5.40258 1.8297 0
M  V30 3522 O 334.625 -4.77502 3.66437 0
M  V30 3523 H 338.451 -1.66498 2.53992 0
M  V30 3524 H 336.036 -0.763308 1.28429 0
M  V30 3525 H 337.918 -3.9141 1.56129 0
M  V30 3526 H 336.593 -3.17718 0.619431 0
M  V30 3527 H 335.5 -2.45619 2.82174 0
M  V30 3528 H 336.833 -3.24641 3.69958 0
M  V30 3529 N 338.485 -1.33259 -0.841409 0
M  V30 3530 C 339.713 -1.27605 -1.62864 0
M  V30 3531 C 340.128 0.153507 -1.88175 0
M  V30 3532 O 339.485 1.09485 -1.46011 0
M  V30 3533 C 339.536 -2.04596 -2.98031 0
M  V30 3534 O 339.257 -3.41975 -2.73834 0
M  V30 3535 C 340.758 -2.06122 -3.92465 0
M  V30 3536 H 337.978 -0.439718 -0.506842 0
M  V30 3537 H 340.522 -1.75591 -1.04824 0
M  V30 3538 H 338.677 -1.60299 -3.5268 0
M  V30 3539 H 339.091 -3.81549 -3.59889 0
M  V30 3540 H 340.565 -2.64451 -4.84531 0
M  V30 3541 H 341.042 -1.05083 -4.26444 0
M  V30 3542 H 341.648 -2.50427 -3.43753 0
M  V30 3543 N 339.963 1.05934 -1.16686 0
M  V30 3544 C 340.873 2.17014 -0.891183 0
M  V30 3545 C 341.889 1.73453 0.137907 0
M  V30 3546 O 343.065 2.01361 -0.039592 0
M  V30 3547 C 340.13 3.44384 -0.400099 0
M  V30 3548 C 339.191 4.02433 -1.49486 0
M  V30 3549 C 338.424 5.23723 -1.02711 0
M  V30 3550 O 338.647 5.7027 0.121716 0
M  V30 3551 O 337.581 5.7382 -1.81699 0
M  V30 3552 H 341.407 2.43113 -1.82015 0
M  V30 3553 H 338.992 1.15541 -0.947132 0
M  V30 3554 H 340.874 4.21189 -0.133392 0
M  V30 3555 H 339.549 3.19802 0.500817 0
M  V30 3556 H 338.456 3.27102 -1.81535 0
M  V30 3557 H 339.789 4.31317 -2.37121 0
M  V30 3558 N 341.441 0.965919 1.2453 0
M  V30 3559 C 342.666 0.643971 1.97149 0
M  V30 3560 C 343.091 -0.779487 1.71189 0
M  V30 3561 O 342.449 -1.5288 0.974553 0
M  V30 3562 C 342.497 0.922557 3.48599 0
M  V30 3563 O 341.601 0.00707672 4.12399 0
M  V30 3564 H 340.942 0.243647 0.617683 0
M  V30 3565 H 343.472 1.29558 1.58353 0
M  V30 3566 H 343.482 0.853373 3.98976 0
M  V30 3567 H 342.157 1.95996 3.66822 0
M  V30 3568 H 340.734 0.12943 3.72675 0
M  V30 3569 N 342.919 -1.39368 0.735821 0
M  V30 3570 C 343.882 -2.2896 0.104874 0
M  V30 3571 C 344.882 -1.46347 -0.666274 0
M  V30 3572 O 346.072 -1.67014 -0.49517 0
M  V30 3573 C 343.204 -3.29857 -0.860656 0
M  V30 3574 H 344.397 -2.86259 0.894205 0
M  V30 3575 H 341.95 -1.48029 0.501704 0
M  V30 3576 H 342.685 -2.77615 -1.67631 0
M  V30 3577 H 342.47 -3.9087 -0.310327 0
M  V30 3578 H 343.96 -3.96893 -1.29867 0
M  V30 3579 N 344.397 -0.483516 -1.5 0
M  V30 3580 C 345.345 0.318061 -2.30415 0
M  V30 3581 C 346.339 0.978988 -1.38247 0
M  V30 3582 O 347.545 0.908673 -1.55381 0
M  V30 3583 H 343.92 0.121419 -0.742133 0
M  V30 3584 H 345.891 -0.380403 -2.95965 0
M  V30 3585 C 344.64 1.38013 -3.19136 0
M  V30 3586 H 343.963 0.880952 -3.89973 0
M  V30 3587 H 345.403 1.91332 -3.78375 0
M  V30 3588 C 343.862 2.38884 -2.37563 0
M  V30 3589 O 344.392 3.44412 -2.06744 0
M  V30 3590 N 342.598 2.10912 -1.99911 0
M  V30 3591 H 342.145 1.25118 -2.25174 0
M  V30 3592 H 342.103 2.78635 -1.45636 0
M  V30 3593 N 345.875 1.56104 -0.216619 0
M  V30 3594 C 347.105 2.02269 0.420802 0
M  V30 3595 C 347.513 1.09575 1.5424 0
M  V30 3596 O 346.856 0.0967308 1.83445 0
M  V30 3597 C 346.918 3.44784 1.01806 0
M  V30 3598 C 346.582 4.56988 0.0325154 0
M  V30 3599 C 347.579 5.14225 -0.766055 0
M  V30 3600 C 345.264 5.02228 -0.0848092 0
M  V30 3601 C 347.258 6.15169 -1.6687 0
M  V30 3602 C 344.945 6.03011 -0.990994 0
M  V30 3603 C 345.943 6.59357 -1.78149 0
M  V30 3604 O 345.631 7.58179 -2.67245 0
M  V30 3605 H 345.363 0.667353 0.107776 0
M  V30 3606 H 347.917 2.02747 -0.329034 0
M  V30 3607 H 346.147 3.41359 1.81689 0
M  V30 3608 H 347.836 3.74626 1.56237 0
M  V30 3609 H 348.602 4.80126 -0.685836 0
M  V30 3610 H 344.481 4.58054 0.520349 0
M  V30 3611 H 348.025 6.59076 -2.28615 0
M  V30 3612 H 343.922 6.36532 -1.07225 0
M  V30 3613 H 344.69 7.75682 -2.61265 0
M  V30 3614 N 347.353 -0.0568162 1.57498 0
M  V30 3615 C 348.601 -0.751617 1.87604 0
M  V30 3616 C 348.922 -1.77351 0.81066 0
M  V30 3617 O 348.192 -1.95254 -0.159018 0
M  V30 3618 H 346.772 -0.280583 0.692302 0
M  V30 3619 H 349.434 -0.0293483 1.94878 0
M  V30 3620 H 348.53 -1.25852 2.856 0
M  V30 3621 N 348.832 -1.54138 -0.328536 0
M  V30 3622 C 350.062 -1.75807 -1.08516 0
M  V30 3623 C 350.47 -0.50428 -1.82356 0
M  V30 3624 O 349.813 0.534451 -1.75754 0
M  V30 3625 C 349.875 -2.89423 -2.13248 0
M  V30 3626 C 349.539 -4.28504 -1.5885 0
M  V30 3627 C 350.536 -5.09536 -1.03289 0
M  V30 3628 C 348.221 -4.75034 -1.63243 0
M  V30 3629 C 350.215 -6.35206 -0.52845 0
M  V30 3630 C 347.902 -6.00672 -1.12411 0
M  V30 3631 C 348.9 -6.80592 -0.573062 0
M  V30 3632 O 348.588 -8.03867 -0.0723692 0
M  V30 3633 H 348.32 -0.590633 -0.328829 0
M  V30 3634 H 350.874 -2.01819 -0.381868 0
M  V30 3635 H 349.104 -2.5897 -2.87178 0
M  V30 3636 H 350.793 -2.98921 -2.74592 0
M  V30 3637 H 351.559 -4.74745 -0.99206 0
M  V30 3638 H 347.438 -4.12875 -2.05074 0
M  V30 3639 H 350.982 -6.97532 -0.0976774 0
M  V30 3640 H 346.879 -6.34955 -1.162 0
M  V30 3641 H 347.647 -8.18283 -0.188258 0
M  V30 3642 N 350.31 0.590341 -1.46126 0
M  V30 3643 C 351.257 1.69994 -1.56111 0
M  V30 3644 C 352.227 1.61065 -0.405867 0
M  V30 3645 O 353.412 1.8039 -0.621613 0
M  V30 3646 C 350.552 3.08326 -1.55013 0
M  V30 3647 C 349.665 3.27936 -2.81215 0
M  V30 3648 C 348.8 4.56473 -2.71673 0
M  V30 3649 C 347.839 4.694 -3.92849 0
M  V30 3650 N 346.976 5.89254 -3.81738 0
M  V30 3651 H 351.816 1.60797 -2.50895 0
M  V30 3652 H 349.353 0.783799 -1.24479 0
M  V30 3653 H 351.311 3.88383 -1.52362 0
M  V30 3654 H 349.941 3.16439 -0.637667 0
M  V30 3655 H 348.993 2.41536 -2.93879 0
M  V30 3656 H 350.305 3.33357 -3.71045 0
M  V30 3657 H 349.459 5.44748 -2.67085 0
M  V30 3658 H 348.198 4.53477 -1.7947 0
M  V30 3659 H 347.203 3.79544 -3.97777 0
M  V30 3660 H 348.428 4.7418 -4.86138 0
M  V30 3661 H 346.374 5.87271 -2.92317 0
M  V30 3662 H 346.291 5.95911 -4.65217 0
M  V30 3663 H 347.559 6.79981 -3.81112 0
M  V30 3664 N 351.788 1.33704 0.83433 0
M  V30 3665 C 353.035 1.25417 1.58987 0
M  V30 3666 C 353.363 -0.178869 1.93676 0
M  V30 3667 O 352.618 -1.13723 1.59265 0
M  V30 3668 C 352.917 2.07926 2.90692 0
M  V30 3669 C 352.583 3.57066 2.75345 0
M  V30 3670 C 351.245 3.97724 2.70867 0
M  V30 3671 C 353.597 4.51817 2.59828 0
M  V30 3672 C 350.925 5.31344 2.48778 0
M  V30 3673 C 353.277 5.85604 2.39272 0
M  V30 3674 C 351.941 6.25439 2.33199 0
M  V30 3675 H 351.211 0.458934 0.581774 0
M  V30 3676 H 353.858 1.65335 0.966261 0
M  V30 3677 H 352.163 1.608 3.57282 0
M  V30 3678 H 353.86 1.98868 3.48213 0
M  V30 3679 H 350.45 3.24785 2.79665 0
M  V30 3680 H 354.634 4.21311 2.62319 0
M  V30 3681 H 349.89 5.61241 2.42526 0
M  V30 3682 H 354.064 6.58623 2.2625 0
M  V30 3683 H 351.691 7.28914 2.15843 0
M  V30 3684 N 353.266 -1.05314 1.17247 0
M  V30 3685 C 354.514 -1.77941 0.958194 0
M  V30 3686 C 354.835 -1.88089 -0.514556 0
M  V30 3687 O 354.105 -1.39676 -1.37359 0
M  V30 3688 H 352.685 -0.659116 0.351533 0
M  V30 3689 H 355.347 -1.27166 1.47699 0
M  V30 3690 H 354.443 -2.79663 1.38546 0
M  V30 3691 N 354.744 -0.972509 -1.24016 0
M  V30 3692 C 355.676 -0.464375 -2.24446 0
M  V30 3693 C 356.689 0.4295 -1.57032 0
M  V30 3694 O 357.878 0.234902 -1.76948 0
M  V30 3695 C 354.978 0.348385 -3.37105 0
M  V30 3696 C 354.151 -0.53673 -4.34094 0
M  V30 3697 C 353.21 0.220838 -5.25736 0
M  V30 3698 O 352.236 -0.386867 -5.67884 0
M  V30 3699 N 353.438 1.50907 -5.60542 0
M  V30 3700 H 356.203 -1.32788 -2.68677 0
M  V30 3701 H 353.764 -0.844877 -1.38107 0
M  V30 3702 H 355.756 0.863341 -3.95384 0
M  V30 3703 H 354.326 1.11285 -2.92121 0
M  V30 3704 H 353.546 -1.23261 -3.74433 0
M  V30 3705 H 354.834 -1.14022 -4.95859 0
M  V30 3706 H 354.232 2.02444 -5.28236 0
M  V30 3707 H 352.789 1.96962 -6.21329 0
M  V30 3708 N 356.222 1.38976 -0.743202 0
M  V30 3709 C 357.132 2.3434 -0.110399 0
M  V30 3710 C 358.148 1.58741 0.712559 0
M  V30 3711 O 359.324 1.9099 0.639125 0
M  V30 3712 C 356.389 3.37812 0.780012 0
M  V30 3713 C 355.45 4.29263 -0.0561319 0
M  V30 3714 C 354.683 5.27793 0.791875 0
M  V30 3715 O 354.906 5.33043 2.03031 0
M  V30 3716 O 353.84 6.01512 0.216183 0
M  V30 3717 H 357.666 2.90129 -0.897714 0
M  V30 3718 H 355.251 1.40643 -0.503966 0
M  V30 3719 H 357.133 4.01194 1.28923 0
M  V30 3720 H 355.808 2.84395 1.546 0
M  V30 3721 H 354.715 3.69076 -0.611056 0
M  V30 3722 H 356.048 4.85907 -0.784531 0
M  V30 3723 N 357.7 0.491464 1.49741 0
M  V30 3724 C 358.61 -0.296835 2.32715 0
M  V30 3725 C 359.626 -0.976536 1.44013 0
M  V30 3726 O 360.802 -0.960023 1.77047 0
M  V30 3727 C 357.867 -1.35288 3.19215 0
M  V30 3728 C 356.928 -0.687632 4.23757 0
M  V30 3729 C 356.161 -1.69336 5.06123 0
M  V30 3730 O 356.384 -2.92219 4.89861 0
M  V30 3731 O 355.318 -1.25394 5.88693 0
M  V30 3732 H 359.144 0.382048 3.01287 0
M  V30 3733 H 356.729 0.252953 1.47243 0
M  V30 3734 H 358.611 -1.96411 3.72828 0
M  V30 3735 H 357.286 -2.01487 2.53347 0
M  V30 3736 H 356.193 -0.0369159 3.74082 0
M  V30 3737 H 357.526 -0.0682566 4.92153 0
M  V30 3738 N 359.178 -1.55987 0.224894 0
M  V30 3739 C 360.088 -2.24066 -0.69511 0
M  V30 3740 C 361.104 -1.24939 -1.21104 0
M  V30 3741 O 362.28 -1.5776 -1.25195 0
M  V30 3742 C 359.345 -2.90983 -1.88493 0
M  V30 3743 C 358.406 -4.05462 -1.41064 0
M  V30 3744 C 357.639 -4.69179 -2.54375 0
M  V30 3745 O 357.862 -4.31895 -3.72589 0
M  V30 3746 O 356.796 -5.58108 -2.25386 0
M  V30 3747 H 360.622 -3.03353 -0.145149 0
M  V30 3748 H 358.207 -1.49399 -0.00569476 0
M  V30 3749 H 360.089 -3.33209 -2.57972 0
M  V30 3750 H 358.764 -2.14653 -2.42293 0
M  V30 3751 H 357.671 -3.67798 -0.683774 0
M  V30 3752 H 359.004 -4.83545 -0.918985 0
M  V30 3753 N 360.656 0.0484629 -1.57525 0
M  V30 3754 C 361.884 0.755421 -1.92616 0
M  V30 3755 C 362.299 1.69919 -0.822984 0
M  V30 3756 O 361.656 1.81378 0.202085 0
M  V30 3757 C 361.707 1.52915 -3.27566 0
M  V30 3758 O 361.428 0.62329 -4.33644 0
M  V30 3759 C 362.929 2.33502 -3.76818 0
M  V30 3760 H 360.149 0.213465 -0.63614 0
M  V30 3761 H 362.693 0.0117698 -2.04497 0
M  V30 3762 H 360.848 2.22486 -3.17142 0
M  V30 3763 H 361.262 1.16383 -5.11425 0
M  V30 3764 H 362.736 2.83214 -4.73808 0
M  V30 3765 H 363.213 3.14068 -3.07014 0
M  V30 3766 H 363.819 1.69043 -3.90262 0
M  V30 3767 N 362.134 1.5431 0.320358 0
M  V30 3768 C 363.364 1.7638 1.07582 0
M  V30 3769 C 363.772 0.513944 1.82086 0
M  V30 3770 O 363.115 -0.525123 1.76035 0
M  V30 3771 C 363.177 2.9055 2.1171 0
M  V30 3772 C 362.841 4.2934 1.56575 0
M  V30 3773 C 363.838 5.10077 1.00586 0
M  V30 3774 C 361.523 4.75893 1.60722 0
M  V30 3775 C 363.517 6.35477 0.494756 0
M  V30 3776 C 361.204 6.0126 1.09224 0
M  V30 3777 C 362.202 6.80886 0.53696 0
M  V30 3778 O 361.89 8.03894 0.0297371 0
M  V30 3779 H 361.622 0.592369 0.325692 0
M  V30 3780 H 364.176 2.02019 0.37116 0
M  V30 3781 H 362.406 2.60489 2.85801 0
M  V30 3782 H 364.095 3.00373 2.73003 0
M  V30 3783 H 364.861 4.75265 0.966869 0
M  V30 3784 H 360.74 4.13957 2.02882 0
M  V30 3785 H 364.284 6.97574 0.0606842 0
M  V30 3786 H 360.181 6.35562 1.12831 0
M  V30 3787 H 360.949 8.18372 0.14486 0
M  V30 3788 N 363.613 -0.582584 1.46437 0
M  V30 3789 C 364.561 -1.71272 1.5738 0
M  V30 3790 C 365.555 -1.63524 0.44229 0
M  V30 3791 O 366.761 -1.69016 0.619166 0
M  V30 3792 H 363.136 -0.566273 0.494813 0
M  V30 3793 H 365.107 -1.59174 2.52401 0
M  V30 3794 C 363.856 -3.09658 1.58136 0
M  V30 3795 H 363.179 -3.16291 2.44541 0
M  V30 3796 H 364.619 -3.88494 1.69847 0
M  V30 3797 C 363.078 -3.3547 0.310026 0
M  V30 3798 O 363.608 -3.97199 -0.599683 0
M  V30 3799 N 361.814 -2.89925 0.197901 0
M  V30 3800 H 361.361 -2.39873 0.93909 0
M  V30 3801 H 361.319 -3.07568 -0.65185 0
M  V30 3802 N 365.091 -1.34144 -0.827227 0
M  V30 3803 C 366.34 -1.25602 -1.5782 0
M  V30 3804 C 366.653 0.173445 -1.94829 0
M  V30 3805 O 367.859 0.380984 -2.68814 0
M  V30 3806 C 366.315 -2.20151 -2.84713 0
M  V30 3807 C 365.923 -3.68331 -2.55021 0
M  V30 3808 C 367.667 -2.20508 -3.62735 0
M  V30 3809 C 365.574 -4.54762 -3.78082 0
M  V30 3810 H 364.504 -0.466573 -0.592306 0
M  V30 3811 H 367.155 -1.59283 -0.911116 0
M  V30 3812 H 365.537 -1.79417 -3.53023 0
M  V30 3813 H 366.711 -4.17577 -1.94849 0
M  V30 3814 H 365.026 -3.7038 -1.90283 0
M  V30 3815 H 367.623 -2.82306 -4.54101 0
M  V30 3816 H 367.966 -1.20322 -3.98533 0
M  V30 3817 H 368.499 -2.59664 -3.01362 0
M  V30 3818 H 365.238 -5.55867 -3.47407 0
M  V30 3819 H 364.758 -4.10254 -4.37552 0
M  V30 3820 H 366.437 -4.69153 -4.45538 0
M  V30 3821 N 366.569 1.04691 -1.17803 0
M  V30 3822 C 367.815 1.78045 -0.970969 0
M  V30 3823 C 368.148 1.87686 0.498751 0
M  V30 3824 O 367.423 1.38035 1.37027 0
M  V30 3825 C 367.706 3.2166 -1.61884 0
M  V30 3826 C 367.559 3.20001 -3.161 0
M  V30 3827 C 368.878 4.1962 -1.3269 0
M  V30 3828 H 365.997 0.64633 -0.354155 0
M  V30 3829 H 368.639 1.22333 -1.45378 0
M  V30 3830 H 366.789 3.69232 -1.20831 0
M  V30 3831 H 368.461 2.80467 -3.66246 0
M  V30 3832 H 366.704 2.58203 -3.48588 0
M  V30 3833 H 367.375 4.21386 -3.56564 0
M  V30 3834 H 369.851 3.80567 -1.68249 0
M  V30 3835 H 368.727 5.18339 -1.80599 0
M  V30 3836 H 368.988 4.414 -0.248622 0
M  V30 3837 N 368.047 0.979072 1.23499 0
M  V30 3838 C 369.01 0.523244 2.23147 0
M  V30 3839 C 370.01 -0.386406 1.56088 0
M  V30 3840 O 371.2 -0.180283 1.73265 0
M  V30 3841 C 368.332 -0.240739 3.40049 0
M  V30 3842 H 369.525 1.40432 2.64989 0
M  V30 3843 H 367.078 0.764824 1.36309 0
M  V30 3844 H 367.813 -1.13841 3.03662 0
M  V30 3845 H 367.598 0.412207 3.89927 0
M  V30 3846 H 369.088 -0.548297 4.13985 0
M  V30 3847 N 369.525 -1.3858 0.750561 0
M  V30 3848 C 370.488 -2.28836 0.129152 0
M  V30 3849 C 371.488 -1.47045 -0.650714 0
M  V30 3850 O 372.678 -1.6753 -0.477428 0
M  V30 3851 C 369.81 -3.30751 -0.825622 0
M  V30 3852 H 371.003 -2.85294 0.924516 0
M  V30 3853 H 368.556 -1.47489 0.517376 0
M  V30 3854 H 369.291 -2.79378 -1.64677 0
M  V30 3855 H 369.076 -3.91177 -0.268852 0
M  V30 3856 H 370.566 -3.98249 -1.2565 0
M  V30 3857 N 371.003 -0.499398 -1.49478 0
M  V30 3858 C 371.953 0.299103 -2.2603 0
M  V30 3859 C 372.937 0.936934 -1.30807 0
M  V30 3860 O 374.129 0.844798 -1.55538 0
M  V30 3861 C 371.258 1.36391 -3.15044 0
M  V30 3862 C 370.344 0.732398 -4.17728 0
M  V30 3863 N 370.735 -0.164028 -5.05534 0
M  V30 3864 C 369.033 0.993162 -4.34801 0
M  V30 3865 C 369.734 -0.525345 -5.79323 0
M  V30 3866 N 368.71 0.106348 -5.43496 0
M  V30 3867 H 372.512 -0.391003 -2.91287 0
M  V30 3868 H 370.026 -0.31537 -1.59308 0
M  V30 3869 H 372.023 1.94939 -3.68516 0
M  V30 3870 H 370.683 2.05571 -2.51338 0
M  V30 3871 H 371.694 -0.534736 -5.15132 0
M  V30 3872 H 368.371 1.67783 -3.82302 0
M  V30 3873 H 369.761 -1.25862 -6.60006 0
M  V30 3874 N 372.481 1.55866 -0.233164 0
M  V30 3875 C 373.729 1.9821 0.394593 0
M  V30 3876 C 374.05 1.12234 1.59463 0
M  V30 3877 O 373.32 0.201981 1.94856 0
M  V30 3878 H 371.9 0.732034 0.148778 0
M  V30 3879 H 374.562 1.92107 -0.32876 0
M  V30 3880 H 373.658 3.03845 0.713063 0
M  V30 3881 N 373.959 -0.0401083 1.57549 0
M  V30 3882 C 375.189 -0.744115 1.92734 0
M  V30 3883 C 375.597 -1.70005 0.830348 0
M  V30 3884 O 374.94 -1.82576 -0.20286 0
M  V30 3885 C 375.002 -1.56516 3.2364 0
M  V30 3886 C 374.666 -0.7752 4.50377 0
M  V30 3887 C 375.663 -0.0803326 5.19838 0
M  V30 3888 C 373.348 -0.733002 4.96923 0
M  V30 3889 C 375.342 0.646154 6.34116 0
M  V30 3890 C 373.029 -0.00276321 6.111 0
M  V30 3891 C 374.027 0.685585 6.7955 0
M  V30 3892 O 373.715 1.40399 7.91545 0
M  V30 3893 H 373.447 -0.214861 0.640945 0
M  V30 3894 H 376.001 -0.00503675 2.05399 0
M  V30 3895 H 374.231 -2.3478 3.07271 0
M  V30 3896 H 375.92 -2.15076 3.44234 0
M  V30 3897 H 376.686 -0.104035 4.84888 0
M  V30 3898 H 372.565 -1.25827 4.43496 0
M  V30 3899 H 376.109 1.18398 6.87479 0
M  V30 3900 H 372.006 0.0229012 6.45496 0
M  V30 3901 H 372.774 1.31653 8.07843 0
M  V30 3902 N 375.437 -1.54477 -0.31217 0
M  V30 3903 C 376.684 -1.73227 -1.04875 0
M  V30 3904 C 377.012 -0.512042 -1.87639 0
M  V30 3905 O 376.267 0.506131 -1.89042 0
M  V30 3906 C 376.566 -2.967 -1.99258 0
M  V30 3907 C 376.232 -4.30974 -1.32559 0
M  V30 3908 C 374.894 -4.67477 -1.141 0
M  V30 3909 C 377.246 -5.14258 -0.847835 0
M  V30 3910 C 374.574 -5.84852 -0.465326 0
M  V30 3911 C 376.926 -6.32327 -0.185931 0
M  V30 3912 C 375.59 -6.67499 0.0107077 0
M  V30 3913 H 374.86 -0.633881 -0.383765 0
M  V30 3914 H 377.507 -1.88727 -0.324731 0
M  V30 3915 H 375.812 -2.75935 -2.7815 0
M  V30 3916 H 377.509 -3.08401 -2.563 0
M  V30 3917 H 374.099 -4.02262 -1.4793 0
M  V30 3918 H 378.283 -4.86565 -0.978192 0
M  V30 3919 H 373.539 -6.10654 -0.301883 0
M  V30 3920 H 377.713 -6.96135 0.192211 0
M  V30 3921 H 375.34 -7.58306 0.536287 0
M  V30 3922 N 376.915 0.57481 -1.46744 0
M  V30 3923 C 378.163 1.33009 -1.52161 0
M  V30 3924 C 378.484 1.94185 -0.178092 0
M  V30 3925 O 377.754 1.7899 0.796196 0
M  V30 3926 H 376.334 0.493873 -0.560445 0
M  V30 3927 H 378.996 0.672589 -1.82927 0
M  V30 3928 H 378.092 2.13273 -2.27862 0
M  V30 3929 N 378.394 1.34581 0.820102 0
M  V30 3930 C 379.81 1.14325 1.11364 0
M  V30 3931 C 380.01 -0.0533648 2.01429 0
M  V30 3932 O 379.066 -0.728044 2.41776 0
M  V30 3933 C 380.379 2.43983 1.75764 0
M  V30 3934 C 381.927 2.50065 1.88246 0
M  V30 3935 C 382.402 3.79732 2.56061 0
M  V30 3936 N 383.893 3.80908 2.63558 0
M  V30 3937 C 384.628 4.77961 3.16766 0
M  V30 3938 N 384.124 5.85397 3.70517 0
M  V30 3939 N 385.917 4.65413 3.15194 0
M  V30 3940 H 378.068 2.11246 0.221096 0
M  V30 3941 H 380.331 0.934289 0.160649 0
M  V30 3942 H 380.037 3.31651 1.1705 0
M  V30 3943 H 379.911 2.57531 2.75604 0
M  V30 3944 H 382.298 1.62834 2.46108 0
M  V30 3945 H 382.379 2.40442 0.873006 0
M  V30 3946 H 382.023 4.67354 1.98853 0
M  V30 3947 H 381.953 3.86639 3.57516 0
M  V30 3948 H 384.444 3.03274 2.25463 0
M  V30 3949 H 384.757 6.55463 4.09376 0
M  V30 3950 H 383.102 5.89107 3.68752 0
M  V30 3951 H 386.293 3.80627 2.72471 0
M  V30 3952 H 386.466 5.41216 3.56356 0
M  V30 3953 N 379.872 -1.04064 1.18357 0
M  V30 3954 C 380.802 -2.14001 0.934113 0
M  V30 3955 C 381.783 -1.69616 -0.128186 0
M  V30 3956 O 382.968 -1.94185 0.0244093 0
M  V30 3957 C 380.098 -3.44253 0.459066 0
M  V30 3958 C 379.052 -4.02261 1.46185 0
M  V30 3959 C 378.378 -5.27992 0.844322 0
M  V30 3960 C 379.678 -4.38432 2.83856 0
M  V30 3961 H 381.372 -2.35127 1.85352 0
M  V30 3962 H 378.918 -1.12998 0.892604 0
M  V30 3963 H 380.871 -4.20522 0.271907 0
M  V30 3964 H 379.595 -3.22813 -0.495912 0
M  V30 3965 H 378.254 -3.28074 1.63595 0
M  V30 3966 H 377.902 -5.02862 -0.117845 0
M  V30 3967 H 377.602 -5.67765 1.51384 0
M  V30 3968 H 379.126 -6.06938 0.667693 0
M  V30 3969 H 380.54 -5.05688 2.70098 0
M  V30 3970 H 378.937 -4.89254 3.47491 0
M  V30 3971 H 380.007 -3.4826 3.37406 0
M  V30 3972 N 381.35 -0.985608 -1.22978 0
M  V30 3973 C 382.599 -0.652881 -1.90841 0
M  V30 3974 C 382.912 0.817842 -1.77681 0
M  V30 3975 O 384.118 1.26185 -2.40395 0
M  V30 3976 C 382.574 -1.11717 -3.42122 0
M  V30 3977 C 382.182 -2.6126 -3.63933 0
M  V30 3978 C 383.926 -0.85843 -4.1573 0
M  V30 3979 C 381.833 -3.0133 -5.08876 0
M  V30 3980 H 380.763 -0.240491 -0.714619 0
M  V30 3981 H 383.414 -1.1942 -1.39324 0
M  V30 3982 H 381.796 -0.504027 -3.92779 0
M  V30 3983 H 382.97 -3.27858 -3.23799 0
M  V30 3984 H 381.285 -2.84937 -3.03644 0
M  V30 3985 H 383.882 -1.13359 -5.22546 0
M  V30 3986 H 384.225 0.205461 -4.15793 0
M  V30 3987 H 384.758 -1.43341 -3.71077 0
M  V30 3988 H 381.497 -4.06864 -5.13947 0
M  V30 3989 H 381.017 -2.3943 -5.49939 0
M  V30 3990 H 382.696 -2.92224 -5.77247 0
M  V30 3991 N 382.828 1.3818 -0.7579 0
M  V30 3992 C 384.075 2.00019 -0.315985 0
M  V30 3993 C 384.403 1.60163 1.10355 0
M  V30 3994 O 383.658 0.83264 1.77103 0
M  V30 3995 C 383.957 3.55252 -0.391218 0
M  V30 3996 C 383.623 4.14834 -1.76702 0
M  V30 3997 C 382.285 4.30821 -2.14353 0
M  V30 3998 C 384.637 4.47658 -2.66931 0
M  V30 3999 C 381.965 4.76928 -3.41696 0
M  V30 4000 C 384.317 4.95184 -3.93669 0
M  V30 4001 C 382.981 5.09377 -4.31383 0
M  V30 4002 H 382.251 0.731923 -0.115627 0
M  V30 4003 H 384.898 1.65161 -0.969223 0
M  V30 4004 H 383.203 3.90273 0.34558 0
M  V30 4005 H 384.9 4.00988 -0.030805 0
M  V30 4006 H 381.49 4.02808 -1.46435 0
M  V30 4007 H 385.674 4.34904 -2.39106 0
M  V30 4008 H 380.93 4.86103 -3.70829 0
M  V30 4009 H 385.104 5.19551 -4.63724 0
M  V30 4010 H 382.731 5.44865 -5.30119 0
M  V30 4011 N 384.306 0.507319 1.49211 0
M  V30 4012 C 385.238 -0.304532 2.27168 0
M  V30 4013 C 386.251 -0.924956 1.33972 0
M  V30 4014 O 387.44 -0.807227 1.59205 0
M  V30 4015 C 384.54 -1.44431 3.06583 0
M  V30 4016 C 383.713 -0.930026 4.27398 0
M  V30 4017 C 382.772 -1.94817 4.88807 0
M  V30 4018 O 381.798 -1.51418 5.4869 0
M  V30 4019 N 383 -3.279 4.79022 0
M  V30 4020 H 385.765 0.36395 2.97482 0
M  V30 4021 H 383.326 0.340249 1.58284 0
M  V30 4022 H 385.318 -2.12311 3.44537 0
M  V30 4023 H 383.888 -2.01684 2.38835 0
M  V30 4024 H 383.108 -0.0759244 3.94127 0
M  V30 4025 H 384.396 -0.564932 5.05654 0
M  V30 4026 H 383.794 -3.65843 4.3148 0
M  V30 4027 H 382.351 -3.91476 5.21142 0
M  V30 4028 N 385.784 -1.5574 0.241426 0
M  V30 4029 C 387.014 -2.02913 -0.38857 0
M  V30 4030 C 387.422 -1.12014 -1.52478 0
M  V30 4031 O 386.765 -0.125903 -1.83268 0
M  V30 4032 C 386.827 -3.4636 -0.963075 0
M  V30 4033 C 386.491 -4.56982 0.0401916 0
M  V30 4034 C 387.488 -5.12941 0.847766 0
M  V30 4035 C 385.173 -5.0203 0.164699 0
M  V30 4036 C 387.167 -6.12437 1.76636 0
M  V30 4037 C 384.854 -6.01358 1.0868 0
M  V30 4038 C 385.852 -6.5644 1.88616 0
M  V30 4039 O 385.54 -7.53831 2.79273 0
M  V30 4040 H 385.272 -0.668983 -0.0971452 0
M  V30 4041 H 387.826 -2.02198 0.361248 0
M  V30 4042 H 386.056 -3.44206 -1.76235 0
M  V30 4043 H 387.745 -3.77065 -1.50257 0
M  V30 4044 H 388.511 -4.78974 0.762133 0
M  V30 4045 H 384.39 -4.58824 -0.447411 0
M  V30 4046 H 387.934 -6.55355 2.39071 0
M  V30 4047 H 383.831 -6.34746 1.17338 0
M  V30 4048 H 384.599 -7.71428 2.73572 0
M  V30 4049 N 387.262 0.0317525 -1.57568 0
M  V30 4050 C 388.225 1.01783 -2.0536 0
M  V30 4051 C 389.225 1.29203 -0.957253 0
M  V30 4052 O 390.415 1.24251 -1.22095 0
M  V30 4053 C 387.547 2.35137 -2.46827 0
M  V30 4054 H 388.74 0.605062 -2.93733 0
M  V30 4055 H 386.293 0.278514 -1.53799 0
M  V30 4056 H 387.028 2.81168 -1.61602 0
M  V30 4057 H 386.813 2.16566 -3.26866 0
M  V30 4058 H 388.303 3.05938 -2.84239 0
M  V30 4059 N 388.74 1.54641 0.303973 0
M  V30 4060 C 389.965 1.78092 1.06292 0
M  V30 4061 C 390.39 0.537342 1.80262 0
M  V30 4062 O 389.748 -0.511993 1.7392 0
M  V30 4063 C 389.796 2.98612 2.02147 0
M  V30 4064 O 388.9 2.71528 3.10397 0
M  V30 4065 H 388.241 0.589548 0.305497 0
M  V30 4066 H 390.771 2.01716 0.3423 0
M  V30 4067 H 390.781 3.265 2.44667 0
M  V30 4068 H 389.456 3.88785 1.47714 0
M  V30 4069 H 388.033 2.54648 2.72413 0
M  V30 4070 N 390.218 -0.567019 1.47046 0
M  V30 4071 C 391.465 -1.32462 1.53167 0
M  V30 4072 C 391.793 -1.93571 0.189841 0
M  V30 4073 O 391.048 -1.77865 -0.816243 0
M  V30 4074 C 391.347 -2.4623 2.59047 0
M  V30 4075 C 391.013 -2.03014 4.02612 0
M  V30 4076 C 389.675 -1.90944 4.41694 0
M  V30 4077 C 392.027 -1.69895 4.92732 0
M  V30 4078 C 389.355 -1.44035 5.68745 0
M  V30 4079 C 391.707 -1.2446 6.20236 0
M  V30 4080 C 390.371 -1.10979 6.5821 0
M  V30 4081 H 389.641 -0.484713 0.560477 0
M  V30 4082 H 392.288 -0.636888 1.80599 0
M  V30 4083 H 390.593 -3.20517 2.25335 0
M  V30 4084 H 392.29 -3.04427 2.61008 0
M  V30 4085 H 388.88 -2.13348 3.71726 0
M  V30 4086 H 393.064 -1.78098 4.63244 0
M  V30 4087 H 388.32 -1.32254 5.96925 0
M  V30 4088 H 392.494 -0.978924 6.89485 0
M  V30 4089 H 390.121 -0.744078 7.5655 0
M  V30 4090 N 391.696 -1.35014 -0.812953 0
M  V30 4091 C 392.644 -1.27435 -1.94585 0
M  V30 4092 C 393.638 -0.170494 -1.6854 0
M  V30 4093 O 394.844 -0.336085 -1.76835 0
M  V30 4094 H 391.219 -0.396144 -0.639198 0
M  V30 4095 H 393.19 -2.23158 -1.98098 0
M  V30 4096 C 391.939 -1.05677 -3.31252 0
M  V30 4097 H 391.262 -1.89853 -3.51846 0
M  V30 4098 H 392.702 -1.04413 -4.10943 0
M  V30 4099 C 391.161 0.239615 -3.36047 0
M  V30 4100 O 391.691 1.23759 -3.8216 0
M  V30 4101 N 389.897 0.276186 -2.89285 0
M  V30 4102 H 389.444 -0.53653 -2.51951 0
M  V30 4103 H 389.402 1.14332 -2.92875 0
M  V30 4104 N 393.175 1.03435 -1.18907 0
M  V30 4105 C 394.123 2.13703 -0.918353 0
M  V30 4106 C 395.117 1.68947 0.123767 0
M  V30 4107 O 396.323 1.79983 -0.0249701 0
M  V30 4108 H 392.698 0.698112 -0.279542 0
M  V30 4109 H 394.669 2.33731 -1.85506 0
M  V30 4110 C 393.418 3.44542 -0.467532 0
M  V30 4111 H 392.741 3.79394 -1.26095 0
M  V30 4112 H 394.181 4.22812 -0.317164 0
M  V30 4113 C 392.64 3.26829 0.817588 0
M  V30 4114 O 393.17 3.54975 1.88031 0
M  V30 4115 N 391.376 2.80139 0.772677 0
M  V30 4116 H 390.923 2.57434 -0.0923883 0
M  V30 4117 H 390.881 2.68668 1.63294 0
M  V30 4118 N 394.653 0.992116 1.22453 0
M  V30 4119 C 395.878 0.685644 1.95739 0
M  V30 4120 C 396.303 -0.743 1.72804 0
M  V30 4121 O 395.661 -1.50778 1.00676 0
M  V30 4122 C 395.709 0.996293 3.46564 0
M  V30 4123 O 394.813 0.0945512 4.12292 0
M  V30 4124 H 394.154 0.256694 0.612376 0
M  V30 4125 H 396.684 1.32888 1.5557 0
M  V30 4126 H 396.694 0.93781 3.97076 0
M  V30 4127 H 395.369 2.03733 3.62582 0
M  V30 4128 H 393.946 0.208451 3.72317 0
M  V30 4129 N 396.131 -1.37776 0.765217 0
M  V30 4130 C 397.547 -1.53297 0.444108 0
M  V30 4131 C 397.747 -1.72515 -1.04119 0
M  V30 4132 O 396.803 -1.74278 -1.82711 0
M  V30 4133 C 398.116 -2.73328 1.25349 0
M  V30 4134 C 399.664 -2.87185 1.24473 0
M  V30 4135 C 400.139 -4.10191 2.03733 0
M  V30 4136 N 401.63 -4.17291 2.01053 0
M  V30 4137 C 402.365 -5.11488 2.59166 0
M  V30 4138 N 401.861 -6.11285 3.26041 0
M  V30 4139 N 403.654 -5.03924 2.49032 0
M  V30 4140 H 395.805 -1.23552 1.72768 0
M  V30 4141 H 398.068 -0.601103 0.733062 0
M  V30 4142 H 397.774 -2.6557 2.30577 0
M  V30 4143 H 397.648 -3.66834 0.87823 0
M  V30 4144 H 400.035 -2.94418 0.20047 0
M  V30 4145 H 400.116 -1.94657 1.65959 0
M  V30 4146 H 399.76 -4.0372 3.08176 0
M  V30 4147 H 399.69 -5.01821 1.59633 0
M  V30 4148 H 402.181 -3.45825 1.5236 0
M  V30 4149 H 402.494 -6.79678 3.67774 0
M  V30 4150 H 400.839 -6.11583 3.30138 0
M  V30 4151 H 404.03 -4.24902 1.96407 0
M  V30 4152 H 404.203 -5.77152 2.94617 0
M  V30 4153 N 397.609 -0.515225 -1.4894 0
M  V30 4154 C 398.834 0.022727 -2.07388 0
M  V30 4155 C 399.259 1.2876 -1.37122 0
M  V30 4156 O 398.617 1.76067 -0.432431 0
M  V30 4157 C 398.665 0.244869 -3.59768 0
M  V30 4158 O 397.769 1.31667 -3.90817 0
M  V30 4159 H 397.11 -0.0325506 -0.663202 0
M  V30 4160 H 399.64 -0.718918 -1.91553 0
M  V30 4161 H 399.65 0.47205 -4.0526 0
M  V30 4162 H 398.325 -0.679194 -4.10317 0
M  V30 4163 H 396.902 1.07331 -3.5712 0
M  V30 4164 N 399.087 1.5561 -0.249682 0
M  V30 4165 C 400.017 2.24477 0.642826 0
M  V30 4166 C 400.998 1.22601 1.17911 0
M  V30 4167 O 402.183 1.5126 1.21795 0
M  V30 4168 C 399.313 2.94638 1.83863 0
M  V30 4169 C 398.267 4.03227 1.435 0
M  V30 4170 C 397.593 4.60828 2.71186 0
M  V30 4171 C 398.893 5.18796 0.604002 0
M  V30 4172 H 400.587 2.99321 0.0685625 0
M  V30 4173 H 398.133 1.43965 0.0315363 0
M  V30 4174 H 400.086 3.41517 2.46868 0
M  V30 4175 H 398.81 2.17287 2.43832 0
M  V30 4176 H 397.469 3.57121 0.828275 0
M  V30 4177 H 397.117 3.80174 3.29358 0
M  V30 4178 H 396.817 5.34132 2.44901 0
M  V30 4179 H 398.341 5.10442 3.35084 0
M  V30 4180 H 399.755 5.61883 1.13842 0
M  V30 4181 H 398.152 5.98506 0.437097 0
M  V30 4182 H 399.222 4.83384 -0.383147 0
M  V30 4183 N 400.565 -0.0233959 1.57583 0
M  V30 4184 C 401.515 -1.03023 2.03397 0
M  V30 4185 C 402.499 -1.31701 0.924315 0
M  V30 4186 O 403.691 -1.31191 1.18819 0
M  V30 4187 C 400.82 -2.32961 2.52159 0
M  V30 4188 C 399.906 -2.07349 3.69956 0
M  V30 4189 N 400.297 -1.51814 4.82479 0
M  V30 4190 C 398.595 -2.37606 3.77438 0
M  V30 4191 C 399.296 -1.42136 5.64068 0
M  V30 4192 N 398.272 -1.89891 5.09355 0
M  V30 4193 H 402.074 -0.594962 2.87815 0
M  V30 4194 H 399.588 -0.229586 1.60769 0
M  V30 4195 H 401.585 -3.05906 2.83244 0
M  V30 4196 H 400.245 -2.77162 1.69149 0
M  V30 4197 H 401.256 -1.20008 5.03804 0
M  V30 4198 H 397.933 -2.84842 3.05239 0
M  V30 4199 H 399.323 -0.996405 6.64471 0
M  V30 4200 N 402.043 -1.548 -0.295768 0
M  V30 4201 C 403.29 -1.74329 -1.03032 0
M  V30 4202 C 403.618 -0.531915 -1.87085 0
M  V30 4203 O 402.873 0.486052 -1.89568 0
M  V30 4204 C 403.172 -2.98797 -1.961 0
M  V30 4205 C 402.838 -4.32356 -1.2798 0
M  V30 4206 C 401.5 -4.68661 -1.09135 0
M  V30 4207 C 403.852 -5.15128 -0.793243 0
M  V30 4208 C 401.18 -5.85312 -0.403269 0
M  V30 4209 C 403.532 -6.32488 -0.118854 0
M  V30 4210 C 402.196 -6.6745 0.0815043 0
M  V30 4211 H 401.466 -0.637916 -0.37702 0
M  V30 4212 H 404.113 -1.8906 -0.304696 0
M  V30 4213 H 402.418 -2.78869 -2.75207 0
M  V30 4214 H 404.115 -3.11102 -2.53015 0
M  V30 4215 H 400.705 -4.03808 -1.43655 0
M  V30 4216 H 404.889 -4.87575 -0.92653 0
M  V30 4217 H 400.145 -6.1094 -0.237098 0
M  V30 4218 H 404.319 -6.95892 0.266035 0
M  V30 4219 H 401.946 -7.57695 0.616685 0
M  V30 4220 N 403.521 0.559213 -1.47345 0
M  V30 4221 C 404.768 1.31648 -1.53867 0
M  V30 4222 C 405.096 1.93468 -0.200104 0
M  V30 4223 O 404.351 1.78295 0.806799 0
M  V30 4224 C 404.65 2.44853 -2.6035 0
M  V30 4225 C 404.316 2.00876 -4.03683 0
M  V30 4226 C 402.978 1.88599 -4.42701 0
M  V30 4227 C 405.33 1.67279 -4.93626 0
M  V30 4228 C 402.658 1.41017 -5.69501 0
M  V30 4229 C 405.01 1.21169 -6.20887 0
M  V30 4230 C 403.674 1.07487 -6.58789 0
M  V30 4231 H 402.944 0.481734 -0.56304 0
M  V30 4232 H 405.591 0.627301 -1.80934 0
M  V30 4233 H 403.896 3.19318 -2.27032 0
M  V30 4234 H 405.593 3.03039 -2.62619 0
M  V30 4235 H 402.183 2.11374 -3.72853 0
M  V30 4236 H 406.367 1.75638 -4.64182 0
M  V30 4237 H 401.623 1.29086 -5.97618 0
M  V30 4238 H 405.797 0.942345 -6.89995 0
M  V30 4239 H 403.424 0.703946 -7.56934 0
M  V30 4240 N 404.999 1.35443 0.805782 0
M  V30 4241 C 405.929 1.31095 1.93226 0
M  V30 4242 C 406.91 0.185244 1.69088 0
M  V30 4243 O 408.095 0.380332 1.90439 0
M  V30 4244 C 405.225 1.08299 3.29983 0
M  V30 4245 C 404.179 2.17519 3.68605 0
M  V30 4246 C 403.505 1.79887 5.03532 0
M  V30 4247 C 404.805 3.5949 3.78898 0
M  V30 4248 H 406.499 2.25352 1.97122 0
M  V30 4249 H 404.045 1.0848 0.946996 0
M  V30 4250 H 405.998 1.03897 4.08391 0
M  V30 4251 H 404.722 0.104885 3.26432 0
M  V30 4252 H 403.381 2.2102 2.92482 0
M  V30 4253 H 403.029 0.80693 4.96485 0
M  V30 4254 H 402.729 2.53001 5.30344 0
M  V30 4255 H 404.253 1.77011 5.84379 0
M  V30 4256 H 405.667 3.58307 4.47536 0
M  V30 4257 H 404.064 4.31371 4.1718 0
M  V30 4258 H 405.134 3.95584 2.80431 0
M  V30 4259 N 406.477 -1.02803 1.19454 0
M  V30 4260 C 407.44 -2.09264 0.934955 0
M  V30 4261 C 408.44 -1.60576 -0.0849015 0
M  V30 4262 O 409.63 -1.73554 0.149933 0
M  V30 4263 C 406.762 -3.38482 0.40531 0
M  V30 4264 H 407.955 -2.33726 1.87916 0
M  V30 4265 H 405.508 -1.19426 1.00832 0
M  V30 4266 H 406.243 -3.19689 -0.544899 0
M  V30 4267 H 406.028 -3.75142 1.14065 0
M  V30 4268 H 407.518 -4.16894 0.242806 0
M  V30 4269 N 407.956 -0.998596 -1.21925 0
M  V30 4270 C 408.919 -0.558679 -2.22287 0
M  V30 4271 C 409.919 0.361525 -1.56683 0
M  V30 4272 O 411.109 0.152695 -1.73529 0
M  V30 4273 C 408.241 0.18661 -3.40389 0
M  V30 4274 H 409.434 -1.4463 -2.62721 0
M  V30 4275 H 406.987 -0.786413 -1.35075 0
M  V30 4276 H 407.722 1.08996 -3.05435 0
M  V30 4277 H 407.507 -0.474188 -3.89222 0
M  V30 4278 H 408.997 0.482367 -4.14805 0
M  V30 4279 N 409.434 1.37368 -0.772513 0
M  V30 4280 C 410.68 2.00423 -0.3467 0
M  V30 4281 C 411.035 1.60224 1.06518 0
M  V30 4282 O 410.328 0.838712 1.72268 0
M  V30 4283 C 410.522 3.54817 -0.428876 0
M  V30 4284 C 410.351 4.10011 -1.84719 0
M  V30 4285 C 409.121 4.40927 -2.46803 0
M  V30 4286 C 411.319 4.30955 -2.80681 0
M  V30 4287 N 409.301 4.8184 -3.80399 0
M  V30 4288 C 410.672 4.74486 -3.99078 0
M  V30 4289 C 412.727 4.1309 -2.77958 0
M  V30 4290 C 411.43 5.02023 -5.15136 0
M  V30 4291 C 413.456 4.41764 -3.9319 0
M  V30 4292 C 412.818 4.85535 -5.10328 0
M  V30 4293 H 408.917 0.762413 -0.173927 0
M  V30 4294 H 411.501 1.66666 -1.00651 0
M  V30 4295 H 409.672 3.87881 0.200757 0
M  V30 4296 H 411.404 4.04696 0.0190668 0
M  V30 4297 H 408.159 4.30033 -1.98415 0
M  V30 4298 H 408.583 5.06604 -4.49089 0
M  V30 4299 H 413.225 3.7842 -1.88568 0
M  V30 4300 H 410.943 5.35582 -6.05126 0
M  V30 4301 H 414.529 4.29528 -3.92425 0
M  V30 4302 H 413.409 5.07296 -5.98013 0
M  V30 4303 N 410.912 0.523116 1.48665 0
M  V30 4304 C 412.323 0.0808997 1.86525 0
M  V30 4305 C 412.674 -1.33975 1.43336 0
M  V30 4306 O 411.799 -2.00221 0.821009 0
M  V30 4307 C 412.394 0.140037 3.3851 0
M  V30 4308 C 410.953 -0.246948 3.75589 0
M  V30 4309 C 410.1 0.502845 2.72703 0
M  V30 4310 H 413.051 0.734736 1.40667 0
M  V30 4311 H 413.072 -0.649945 3.74908 0
M  V30 4312 H 412.584 1.17412 3.69914 0
M  V30 4313 H 410.685 -1.28343 3.49798 0
M  V30 4314 H 410.798 0.0878859 4.79019 0
M  V30 4315 H 409.162 -0.0500581 2.54651 0
M  V30 4316 H 409.945 1.53743 3.0695 0
M  V30 4317 N 412.39 -1.55475 0.257931 0
M  V30 4318 C 413.636 -1.99502 -0.364266 0
M  V30 4319 C 413.969 -1.146 -1.56782 0
M  V30 4320 O 413.244 -0.211968 -1.93342 0
M  V30 4321 C 413.527 -3.51917 -0.763333 0
M  V30 4322 C 413.38 -4.4758 0.446371 0
M  V30 4323 C 414.699 -4.09742 -1.60623 0
M  V30 4324 H 411.818 -0.725277 -0.130929 0
M  V30 4325 H 414.46 -1.8653 0.361446 0
M  V30 4326 H 412.61 -3.63101 -1.38166 0
M  V30 4327 H 414.282 -4.48362 1.08487 0
M  V30 4328 H 412.525 -4.19947 1.08753 0
M  V30 4329 H 413.196 -5.51862 0.123645 0
M  V30 4330 H 415.672 -4.01727 -1.08418 0
M  V30 4331 H 414.548 -5.16631 -1.85429 0
M  V30 4332 H 414.809 -3.58889 -2.58169 0
M  V30 4333 N 413.868 0.0150385 -1.57593 0
M  V30 4334 C 415.114 0.704043 -1.90187 0
M  V30 4335 C 415.447 1.74249 -0.857366 0
M  V30 4336 O 414.722 1.94092 0.125843 0
M  V30 4337 C 415.005 1.36087 -3.33395 0
M  V30 4338 C 414.858 0.334981 -4.48551 0
M  V30 4339 C 416.177 2.29112 -3.7576 0
M  V30 4340 H 413.296 0.254475 -0.691673 0
M  V30 4341 H 415.938 -0.0331678 -1.89971 0
M  V30 4342 H 414.088 1.98922 -3.3371 0
M  V30 4343 H 415.76 -0.292534 -4.60372 0
M  V30 4344 H 414.003 -0.344325 -4.32431 0
M  V30 4345 H 414.674 0.833316 -5.45674 0
M  V30 4346 H 417.15 1.76308 -3.76902 0
M  V30 4347 H 416.026 2.72043 -4.76743 0
M  V30 4348 H 416.287 3.16385 -3.08793 0
M  V30 4349 N 415.346 1.54954 0.287554 0
M  V30 4350 C 416.594 1.74528 1.01904 0
M  V30 4351 C 416.915 0.541349 1.87335 0
M  V30 4352 O 416.185 -0.444108 1.908 0
M  V30 4353 H 414.765 0.643576 0.379235 0
M  V30 4354 H 417.427 1.92333 0.315294 0
M  V30 4355 H 416.523 2.64015 1.6644 0
M  V30 4356 N 416.824 -0.551391 1.4764 0
M  V30 4357 C 418.07 -1.31024 1.54792 0
M  V30 4358 C 418.403 -1.9304 0.211967 0
M  V30 4359 O 417.678 -1.78175 -0.77999 0
M  V30 4360 C 417.961 -2.41593 2.67029 0
M  V30 4361 C 417.814 -1.84408 4.10261 0
M  V30 4362 C 419.133 -3.43488 2.75143 0
M  V30 4363 H 416.252 -0.475031 0.563485 0
M  V30 4364 H 418.894 -0.616454 1.79722 0
M  V30 4365 H 417.044 -3.00772 2.45904 0
M  V30 4366 H 418.716 -1.29445 4.42766 0
M  V30 4367 H 416.959 -1.15051 4.18265 0
M  V30 4368 H 417.63 -2.64367 4.84576 0
M  V30 4369 H 420.106 -2.94236 2.94218 0
M  V30 4370 H 418.982 -4.18274 3.55441 0
M  V30 4371 H 419.243 -4.02703 1.82435 0
M  V30 4372 N 418.302 -1.35869 -0.798587 0
M  V30 4373 C 419.548 -1.30788 -1.55775 0
M  V30 4374 C 419.903 0.114558 -1.92059 0
M  V30 4375 O 419.196 1.06691 -1.59147 0
M  V30 4376 C 419.39 -2.1556 -2.85077 0
M  V30 4377 C 419.219 -3.65904 -2.61428 0
M  V30 4378 C 417.989 -4.35112 -2.56915 0
M  V30 4379 C 420.187 -4.59375 -2.31255 0
M  V30 4380 N 418.169 -5.71155 -2.25068 0
M  V30 4381 C 419.54 -5.83598 -2.09316 0
M  V30 4382 C 421.595 -4.48035 -2.17185 0
M  V30 4383 C 420.298 -6.97755 -1.74731 0
M  V30 4384 C 422.324 -5.62049 -1.83998 0
M  V30 4385 C 421.686 -6.85305 -1.629 0
M  V30 4386 H 417.785 -0.533855 -0.571422 0
M  V30 4387 H 420.369 -1.7083 -0.934079 0
M  V30 4388 H 418.54 -1.77776 -3.45326 0
M  V30 4389 H 420.272 -2.01938 -3.50718 0
M  V30 4390 H 417.027 -3.87812 -2.71843 0
M  V30 4391 H 417.451 -6.42978 -2.11916 0
M  V30 4392 H 422.093 -3.53338 -2.3219 0
M  V30 4393 H 419.811 -7.92411 -1.58464 0
M  V30 4394 H 423.397 -5.55232 -1.73808 0
M  V30 4395 H 422.277 -7.72034 -1.37596 0
M  V30 4396 N 419.78 1.02168 -1.19998 0
M  V30 4397 C 421.027 1.75685 -1.00702 0
M  V30 4398 C 421.355 1.88947 0.461426 0
M  V30 4399 O 420.61 1.40832 1.35885 0
M  V30 4400 C 420.909 3.18081 -1.62969 0
M  V30 4401 C 420.575 3.24809 -3.12746 0
M  V30 4402 C 419.237 3.26352 -3.53621 0
M  V30 4403 C 421.589 3.23379 -4.08749 0
M  V30 4404 C 418.917 3.2413 -4.89036 0
M  V30 4405 C 421.269 3.22698 -5.44104 0
M  V30 4406 C 419.933 3.22542 -5.84399 0
M  V30 4407 H 419.203 0.642877 -0.368496 0
M  V30 4408 H 421.85 1.19865 -1.49348 0
M  V30 4409 H 420.155 3.77027 -1.06573 0
M  V30 4410 H 421.852 3.73648 -1.45561 0
M  V30 4411 H 418.442 3.2434 -2.80181 0
M  V30 4412 H 422.626 3.21361 -3.78207 0
M  V30 4413 H 417.882 3.22338 -5.19527 0
M  V30 4414 H 422.056 3.20543 -6.18244 0
M  V30 4415 H 419.683 3.20575 -6.89301 0
M  V30 4416 N 421.258 1.00505 1.21394 0
M  V30 4417 C 422.486 0.706609 1.9446 0
M  V30 4418 C 422.901 -0.73081 1.74082 0
M  V30 4419 O 422.258 -1.49446 1.04747 0
M  V30 4420 C 422.309 1.01824 3.46863 0
M  V30 4421 O 422.03 2.39919 3.66566 0
M  V30 4422 C 423.531 0.739216 4.37093 0
M  V30 4423 H 420.751 0.260394 0.618414 0
M  V30 4424 H 423.295 1.34311 1.54211 0
M  V30 4425 H 421.45 0.427343 3.85036 0
M  V30 4426 H 421.864 2.50784 4.6066 0
M  V30 4427 H 423.338 1.00744 5.42729 0
M  V30 4428 H 423.815 -0.326746 4.37983 0
M  V30 4429 H 424.421 1.31173 4.04566 0
M  V30 4430 N 422.737 -1.36956 0.779787 0
M  V30 4431 C 423.7 -2.2851 0.177662 0
M  V30 4432 C 424.7 -1.48393 -0.619377 0
M  V30 4433 O 425.89 -1.68505 -0.441785 0
M  V30 4434 C 423.022 -3.32428 -0.755279 0
M  V30 4435 H 424.215 -2.83269 0.984823 0
M  V30 4436 H 421.768 -1.46358 0.548544 0
M  V30 4437 H 422.503 -2.82808 -1.58714 0
M  V30 4438 H 422.288 -3.91659 -0.185817 0
M  V30 4439 H 423.778 -4.00824 -1.17174 0
M  V30 4440 N 424.215 -0.530993 -1.48385 0
M  V30 4441 C 425.145 0.219985 -2.32461 0
M  V30 4442 C 426.126 0.934111 -1.42156 0
M  V30 4443 O 427.311 0.919694 -1.71042 0
M  V30 4444 C 424.441 1.26674 -3.23375 0
M  V30 4445 C 423.395 0.67069 -4.22712 0
M  V30 4446 C 422.721 1.82017 -5.02766 0
M  V30 4447 C 424.021 -0.358268 -5.2107 0
M  V30 4448 H 425.715 -0.48187 -2.95497 0
M  V30 4449 H 423.261 -0.233182 -1.42099 0
M  V30 4450 H 425.214 1.80006 -3.81019 0
M  V30 4451 H 423.938 1.99818 -2.58341 0
M  V30 4452 H 422.597 0.158878 -3.66256 0
M  V30 4453 H 422.245 2.54002 -4.34157 0
M  V30 4454 H 421.945 1.42727 -5.70003 0
M  V30 4455 H 423.469 2.35725 -5.63264 0
M  V30 4456 H 424.883 0.0880081 -5.73232 0
M  V30 4457 H 423.28 -0.66861 -5.96364 0
M  V30 4458 H 424.35 -1.26367 -4.68145 0
M  V30 4459 N 425.693 1.55336 -0.266172 0
M  V30 4460 C 426.941 1.99003 0.35246 0
M  V30 4461 C 427.262 1.15591 1.57047 0
M  V30 4462 O 426.532 0.243268 1.94384 0
M  V30 4463 H 425.112 0.735025 0.133217 0
M  V30 4464 H 427.774 1.91367 -0.369434 0
M  V30 4465 H 426.87 3.05289 0.648453 0
M  V30 4466 N 427.171 -0.0066808 1.57599 0
M  V30 4467 C 428.42 -0.692078 1.89455 0
M  V30 4468 C 428.733 -1.75306 0.867586 0
M  V30 4469 O 429.939 -2.49262 1.07614 0
M  V30 4470 C 428.395 -1.2821 3.36289 0
M  V30 4471 C 428.003 -0.256291 4.47266 0
M  V30 4472 C 429.747 -1.94608 3.77264 0
M  V30 4473 C 427.654 -0.855927 5.85173 0
M  V30 4474 H 426.584 -0.262252 0.706923 0
M  V30 4475 H 429.235 0.052769 1.83424 0
M  V30 4476 H 427.617 -2.0774 3.37135 0
M  V30 4477 H 428.791 0.513923 4.57925 0
M  V30 4478 H 427.106 0.306862 4.15268 0
M  V30 4479 H 429.703 -2.40364 4.77629 0
M  V30 4480 H 430.046 -2.77382 3.10427 0
M  V30 4481 H 430.579 -1.21822 3.78688 0
M  V30 4482 H 427.318 -0.0671161 6.55466 0
M  V30 4483 H 426.838 -1.59546 5.78191 0
M  V30 4484 H 428.517 -1.35658 6.32618 0
M  V30 4485 N 428.649 -1.55105 -0.279332 0
M  V30 4486 C 429.874 -1.7976 -1.03446 0
M  V30 4487 C 430.299 -0.565952 -1.79384 0
M  V30 4488 O 429.657 0.484259 -1.74713 0
M  V30 4489 C 429.705 -3.0179 -1.97371 0
M  V30 4490 O 428.809 -2.76432 -3.06038 0
M  V30 4491 H 428.15 -0.594334 -0.29608 0
M  V30 4492 H 430.68 -2.02235 -0.310165 0
M  V30 4493 H 430.69 -3.30351 -2.39441 0
M  V30 4494 H 429.365 -3.91085 -1.4151 0
M  V30 4495 H 427.942 -2.58949 -2.68328 0
M  V30 4496 N 430.127 0.543554 -1.4793 0
M  V30 4497 C 431.355 1.32516 -1.58894 0
M  V30 4498 C 431.77 1.87215 -0.244131 0
M  V30 4499 O 431.127 1.65709 0.764652 0
M  V30 4500 C 431.178 2.48554 -2.62494 0
M  V30 4501 O 430.899 1.96112 -3.91755 0
M  V30 4502 C 432.4 3.40572 -2.8377 0
M  V30 4503 H 429.62 0.403472 -0.536145 0
M  V30 4504 H 432.164 0.657106 -1.93655 0
M  V30 4505 H 430.319 3.1127 -2.30629 0
M  V30 4506 H 430.733 2.71967 -4.4848 0
M  V30 4507 H 432.207 4.18375 -3.60093 0
M  V30 4508 H 432.684 3.94965 -1.92092 0
M  V30 4509 H 433.29 2.8366 -3.16887 0
M  V30 4510 N 431.605 1.3629 0.791371 0
M  V30 4511 C 432.538 1.24816 1.9104 0
M  V30 4512 C 433.516 0.132739 1.62057 0
M  V30 4513 O 434.7 0.303527 1.8604 0
M  V30 4514 C 431.827 0.925355 3.25814 0
M  V30 4515 C 430.873 2.05495 3.7373 0
M  V30 4516 S 431.706 3.67255 3.89723 0
M  V30 4517 C 432.862 3.37084 5.27376 0
M  V30 4518 H 433.095 2.19533 2.00481 0
M  V30 4519 H 430.628 1.21684 0.950393 0
M  V30 4520 H 432.586 0.745924 4.03666 0
M  V30 4521 H 431.247 -0.00400098 3.141 0
M  V30 4522 H 430.44 1.7836 4.71385 0
M  V30 4523 H 430.042 2.1935 3.02922 0
M  V30 4524 H 432.334 2.90856 6.1189 0
M  V30 4525 H 433.277 4.33995 5.59512 0
M  V30 4526 H 433.685 2.7248 4.94383 0
M  V30 4527 N 433.083 -1.0153 1.20538 0
M  V30 4528 C 434.046 -2.0826 0.957098 0
M  V30 4529 C 435.046 -1.60657 -0.0678655 0
M  V30 4530 O 436.236 -1.73385 0.168332 0
M  V30 4531 C 433.368 -3.38033 0.441188 0
M  V30 4532 H 434.561 -2.31719 1.90384 0
M  V30 4533 H 432.114 -1.1835 1.02093 0
M  V30 4534 H 432.849 -3.20249 -0.510961 0
M  V30 4535 H 432.634 -3.73911 1.18038 0
M  V30 4536 H 434.124 -4.16613 0.287009 0
M  V30 4537 N 434.561 -1.01147 -1.20859 0
M  V30 4538 C 435.808 -0.697865 -1.90095 0
M  V30 4539 C 436.136 0.772014 -1.78522 0
M  V30 4540 O 435.391 1.57595 -1.16027 0
M  V30 4541 C 435.69 -1.0727 -3.40922 0
M  V30 4542 C 435.356 -2.53792 -3.72693 0
M  V30 4543 C 434.018 -2.93829 -3.81075 0
M  V30 4544 C 436.37 -3.48674 -3.87397 0
M  V30 4545 C 433.698 -4.27696 -4.01613 0
M  V30 4546 C 436.05 -4.82223 -4.09444 0
M  V30 4547 C 434.714 -5.21973 -4.16054 0
M  V30 4548 H 433.984 -0.255367 -0.695607 0
M  V30 4549 H 436.631 -1.27111 -1.43231 0
M  V30 4550 H 434.936 -0.417799 -3.89566 0
M  V30 4551 H 436.633 -0.807818 -3.92779 0
M  V30 4552 H 433.223 -2.21768 -3.66765 0
M  V30 4553 H 437.407 -3.18904 -3.80281 0
M  V30 4554 H 432.663 -4.58055 -4.04964 0
M  V30 4555 H 436.837 -5.55672 -4.19763 0
M  V30 4556 H 434.464 -6.25717 -4.31721 0
M  V30 4557 N 436.039 1.36541 -0.78704 0
M  V30 4558 C 436.987 2.31965 -0.171724 0
M  V30 4559 C 437.981 1.55689 0.667631 0
M  V30 4560 O 439.187 1.70969 0.562981 0
M  V30 4561 H 435.562 0.751101 -0.0367545 0
M  V30 4562 H 437.533 2.81428 -0.992017 0
M  V30 4563 C 436.282 3.40968 0.680904 0
M  V30 4564 H 435.605 3.99775 0.0443961 0
M  V30 4565 H 437.045 4.10063 1.07815 0
M  V30 4566 C 435.504 2.82338 1.83813 0
M  V30 4567 O 436.034 2.74311 2.93456 0
M  V30 4568 N 434.24 2.39661 1.6435 0
M  V30 4569 H 433.787 2.46389 0.751668 0
M  V30 4570 H 433.745 2.00779 2.4194 0
M  V30 4571 N 437.518 0.538854 1.48102 0
M  V30 4572 C 438.448 -0.207654 2.32575 0
M  V30 4573 C 439.429 -0.926559 1.4265 0
M  V30 4574 O 440.614 -0.91061 1.71527 0
M  V30 4575 C 437.744 -1.24957 3.24042 0
M  V30 4576 C 436.698 -0.648263 4.23062 0
M  V30 4577 C 436.024 -1.79348 5.03725 0
M  V30 4578 C 437.324 0.385897 5.20872 0
M  V30 4579 H 439.018 0.497534 2.95237 0
M  V30 4580 H 436.564 0.240715 1.41974 0
M  V30 4581 H 438.517 -1.77983 3.81969 0
M  V30 4582 H 437.241 -1.98446 2.59397 0
M  V30 4583 H 435.9 -0.139452 3.66335 0
M  V30 4584 H 435.548 -2.51696 4.35498 0
M  V30 4585 H 435.248 -1.39702 5.70751 0
M  V30 4586 H 436.772 -2.32735 5.64506 0
M  V30 4587 H 438.186 -0.057607 5.73271 0
M  V30 4588 H 436.583 0.700227 5.96001 0
M  V30 4589 H 437.653 1.28848 4.67468 0
M  V30 4590 N 438.996 -1.55193 0.274407 0
M  V30 4591 C 439.944 -2.23924 -0.629362 0
M  V30 4592 C 440.938 -1.23602 -1.1584 0
M  V30 4593 O 442.144 -1.41535 -1.11211 0
M  V30 4594 H 438.519 -0.718637 -0.221507 0
M  V30 4595 H 440.49 -2.98388 -0.0268322 0
M  V30 4596 C 439.239 -2.97329 -1.80252 0
M  V30 4597 H 438.562 -3.74313 -1.40462 0
M  V30 4598 H 440.002 -3.48743 -2.41152 0
M  V30 4599 C 438.461 -2.0276 -2.69054 0
M  V30 4600 O 438.991 -1.57836 -3.69392 0
M  V30 4601 N 437.197 -1.69275 -2.36208 0
M  V30 4602 H 436.744 -2.06004 -1.54661 0
M  V30 4603 H 436.702 -1.06271 -2.95895 0
M  V30 4604 N 440.474 -0.00167713 -1.576 0
M  V30 4605 C 441.722 0.681471 -1.90264 0
M  V30 4606 C 442.043 1.7422 -0.875924 0
M  V30 4607 O 441.313 1.95709 0.0864412 0
M  V30 4608 H 439.893 0.254696 -0.702239 0
M  V30 4609 H 442.555 -0.0429996 -1.94853 0
M  V30 4610 H 441.651 1.15166 -2.90075 0
M  V30 4611 N 441.952 1.55251 0.271103 0
M  V30 4612 C 443.199 1.75946 1.00245 0
M  V30 4613 C 443.527 0.561611 1.86215 0
M  V30 4614 O 442.782 -0.455832 1.90317 0
M  V30 4615 C 443.081 3.01879 1.91321 0
M  V30 4616 C 442.747 4.34337 1.21086 0
M  V30 4617 C 441.409 4.70338 1.01666 0
M  V30 4618 C 443.761 5.16325 0.71119 0
M  V30 4619 C 441.089 5.8588 0.310099 0
M  V30 4620 C 443.441 6.32597 0.0182157 0
M  V30 4621 C 442.105 6.67236 -0.18768 0
M  V30 4622 H 441.375 0.643833 0.366824 0
M  V30 4623 H 444.022 1.89521 0.27458 0
M  V30 4624 H 442.327 2.83212 2.70736 0
M  V30 4625 H 444.024 3.15088 2.48033 0
M  V30 4626 H 440.614 4.06043 1.37213 0
M  V30 4627 H 444.798 4.88987 0.848844 0
M  V30 4628 H 440.054 6.1124 0.139873 0
M  V30 4629 H 444.228 6.9538 -0.376711 0
M  V30 4630 H 441.855 7.56618 -0.73715 0
M  V30 4631 N 443.43 -0.535701 1.48216 0
M  V30 4632 C 444.378 -1.66179 1.62749 0
M  V30 4633 C 445.372 -1.62034 0.49409 0
M  V30 4634 O 446.578 -1.6696 0.672624 0
M  V30 4635 H 442.953 -0.550244 0.512578 0
M  V30 4636 H 444.924 -1.51063 2.57337 0
M  V30 4637 C 443.673 -3.04471 1.67907 0
M  V30 4638 H 442.996 -3.08351 2.54479 0
M  V30 4639 H 444.436 -3.82894 1.82121 0
M  V30 4640 C 442.895 -3.34314 0.416596 0
M  V30 4641 O 443.425 -3.98905 -0.473014 0
M  V30 4642 N 441.631 -2.89149 0.290038 0
M  V30 4643 H 441.178 -2.36764 1.01493 0
M  V30 4644 H 441.136 -3.09486 -0.55367 0
M  V30 4645 N 444.908 -1.36708 -0.784132 0
M  V30 4646 C 446.155 -1.31231 -1.54222 0
M  V30 4647 C 446.483 0.106864 -1.94206 0
M  V30 4648 O 445.738 1.07734 -1.63376 0
M  V30 4649 C 446.037 -2.18571 -2.82774 0
M  V30 4650 C 445.703 -3.67039 -2.61903 0
M  V30 4651 C 444.365 -4.07503 -2.55919 0
M  V30 4652 C 446.717 -4.61149 -2.4288 0
M  V30 4653 C 444.045 -5.40211 -2.28886 0
M  V30 4654 C 446.397 -5.94081 -2.17373 0
M  V30 4655 C 445.061 -6.33664 -2.09825 0
M  V30 4656 H 444.331 -0.48021 -0.56434 0
M  V30 4657 H 446.978 -1.68807 -0.904233 0
M  V30 4658 H 445.283 -1.73949 -3.51068 0
M  V30 4659 H 446.98 -2.11655 -3.40592 0
M  V30 4660 H 443.57 -3.34941 -2.67418 0
M  V30 4661 H 447.754 -4.30756 -2.46501 0
M  V30 4662 H 443.01 -5.69855 -2.21529 0
M  V30 4663 H 447.184 -6.66566 -2.01649 0
M  V30 4664 H 444.811 -7.36423 -1.88641 0
M  V30 4665 N 446.386 1.0089 -1.21074 0
M  V30 4666 C 447.334 2.11707 -0.963476 0
M  V30 4667 C 448.328 1.69172 0.0879032 0
M  V30 4668 O 449.534 1.79889 -0.0631415 0
M  V30 4669 H 445.909 0.692026 -0.294287 0
M  V30 4670 H 447.88 2.29743 -1.90422 0
M  V30 4671 C 446.629 3.43473 -0.540509 0
M  V30 4672 H 445.952 3.76634 -1.34114 0
M  V30 4673 H 447.392 4.22044 -0.406777 0
M  V30 4674 C 445.851 3.2849 0.748079 0
M  V30 4675 O 446.381 3.58883 1.8046 0
M  V30 4676 N 444.587 2.81715 0.713081 0
M  V30 4677 H 444.134 2.5718 -0.146973 0
M  V30 4678 H 444.092 2.72071 1.57558 0
M  V30 4679 N 447.864 1.01787 1.20321 0
M  V30 4680 C 448.814 0.559976 2.21016 0
M  V30 4681 C 449.798 -0.385366 1.56217 0
M  V30 4682 O 450.99 -0.208126 1.75772 0
M  V30 4683 C 448.119 -0.0990553 3.43157 0
M  V30 4684 C 447.205 0.86807 4.15121 0
M  V30 4685 N 447.596 2.0261 4.63447 0
M  V30 4686 C 445.894 0.689162 4.40643 0
M  V30 4687 C 446.595 2.63518 5.18588 0
M  V30 4688 N 445.571 1.91569 5.08726 0
M  V30 4689 H 449.373 1.44281 2.56048 0
M  V30 4690 H 446.887 0.883381 1.36272 0
M  V30 4691 H 448.884 -0.444643 4.14522 0
M  V30 4692 H 447.544 -0.977709 3.0963 0
M  V30 4693 H 448.555 2.40598 4.58621 0
M  V30 4694 H 445.232 -0.14133 4.17261 0
M  V30 4695 H 446.622 3.61527 5.66346 0
M  V30 4696 N 449.342 -1.36122 0.79427 0
M  V30 4697 C 450.567 -2.03891 0.379871 0
M  V30 4698 C 450.992 -1.59488 -0.997251 0
M  V30 4699 O 450.35 -0.765652 -1.64339 0
M  V30 4700 C 450.398 -3.57687 0.457442 0
M  V30 4701 O 449.502 -4.08931 -0.5338 0
M  V30 4702 H 448.843 -0.6443 0.160541 0
M  V30 4703 H 451.373 -1.73976 1.07673 0
M  V30 4704 H 451.383 -4.06721 0.322792 0
M  V30 4705 H 450.058 -3.89357 1.46199 0
M  V30 4706 H 448.635 -3.71154 -0.360409 0
M  V30 4707 N 450.82 -0.546701 -1.47814 0
M  V30 4708 C 452.066 -0.0187684 -2.02791 0
M  V30 4709 C 452.399 1.32338 -1.42128 0
M  V30 4710 O 451.674 1.85867 -0.573023 0
M  V30 4711 C 451.957 0.0854985 -3.59998 0
M  V30 4712 C 451.81 -1.283 -4.31114 0
M  V30 4713 C 453.129 0.80412 -4.32691 0
M  V30 4714 H 450.248 -0.0082946 -0.736953 0
M  V30 4715 H 452.89 -0.706962 -1.76358 0
M  V30 4716 H 451.04 0.671609 -3.82651 0
M  V30 4717 H 452.712 -1.91151 -4.19832 0
M  V30 4718 H 450.955 -1.86049 -3.91878 0
M  V30 4719 H 451.626 -1.16287 -5.39612 0
M  V30 4720 H 454.102 0.306576 -4.14969 0
M  V30 4721 H 452.978 0.846011 -5.42341 0
M  V30 4722 H 453.239 1.85802 -4.01161 0
M  V30 4723 N 452.299 1.55045 -0.282633 0
M  V30 4724 C 453.548 1.98938 0.332667 0
M  V30 4725 C 453.861 1.17455 1.56409 0
M  V30 4726 O 455.067 1.51527 2.25282 0
M  V30 4727 C 453.523 3.54105 0.643226 0
M  V30 4728 C 453.131 4.44374 -0.568814 0
M  V30 4729 C 454.875 4.06569 1.22074 0
M  V30 4730 C 452.782 5.90943 -0.232426 0
M  V30 4731 H 451.712 0.743043 0.128075 0
M  V30 4732 H 454.363 1.79341 -0.388464 0
M  V30 4733 H 452.745 3.69532 1.42346 0
M  V30 4734 H 453.919 4.40718 -1.34551 0
M  V30 4735 H 452.234 4.02585 -1.06369 0
M  V30 4736 H 454.831 5.13626 1.48635 0
M  V30 4737 H 455.174 3.56057 2.15707 0
M  V30 4738 H 455.707 3.94612 0.502621 0
M  V30 4739 H 452.446 6.45567 -1.13683 0
M  V30 4740 H 451.966 5.9765 0.507357 0
M  V30 4741 H 453.645 6.4677 0.172657 0
M  V30 4742 N 453.777 0.010035 1.57597 0
M  V30 4743 C 455.054 -0.710296 1.82248 0
M  V30 4744 C 455.434 -1.91426 0.889911 0
M  V30 4745 O 454.782 -2.28424 -0.0590292 0
M  V30 4746 C 454.992 -1.10655 3.30993 0
M  V30 4747 C 456.34 -1.50621 3.96987 0
M  V30 4748 O 457.364 -1.20007 3.35375 0
M  V30 4749 O 456.223 -2.07587 5.05539 0
M  V30 4750 H 453.317 -0.34673 0.750804 0
M  V30 4751 H 455.863 0.0362578 1.69661 0
M  V30 4752 H 454.635 -0.248826 3.90508 0
M  V30 4753 H 454.258 -1.91189 3.48615 0
M  V30 4754 N 455.255 -1.55392 -0.262866 0
M  V30 4755 C 456.218 -1.88181 -1.30846 0
M  V30 4756 C 457.218 -0.757079 -1.41862 0
M  V30 4757 O 458.408 -1.02519 -1.40838 0
M  V30 4758 C 455.54 -2.09609 -2.68844 0
M  V30 4759 H 456.733 -2.81659 -1.02997 0
M  V30 4760 H 454.286 -1.48039 -0.501414 0
M  V30 4761 H 455.021 -1.18547 -3.01856 0
M  V30 4762 H 454.806 -2.91508 -2.62231 0
M  V30 4763 H 456.296 -2.36215 -3.44372 0
M  V30 4764 N 456.733 0.527833 -1.48498 0
M  V30 4765 C 457.68 1.6322 -1.6318 0
M  V30 4766 C 458.65 1.59199 -0.473815 0
M  V30 4767 O 459.835 1.77591 -0.697563 0
M  V30 4768 C 456.975 3.01474 -1.67951 0
M  V30 4769 C 456.088 3.15713 -2.94871 0
M  V30 4770 C 455.223 4.44539 -2.90789 0
M  V30 4771 C 454.262 4.52315 -4.12404 0
M  V30 4772 N 453.399 5.72533 -4.06387 0
M  V30 4773 H 458.239 1.50011 -2.57489 0
M  V30 4774 H 455.776 0.730298 -1.27691 0
M  V30 4775 H 457.734 3.81572 -1.68698 0
M  V30 4776 H 456.364 3.1345 -0.771306 0
M  V30 4777 H 455.416 2.28854 -3.03859 0
M  V30 4778 H 456.728 3.1732 -3.8485 0
M  V30 4779 H 455.882 5.3293 -2.89949 0
M  V30 4780 H 454.621 4.45457 -1.98542 0
M  V30 4781 H 453.626 3.62331 -4.13517 0
M  V30 4782 H 454.851 4.53134 -5.05812 0
M  V30 4783 H 452.797 5.74344 -3.16962 0
M  V30 4784 H 452.714 5.75643 -4.90073 0
M  V30 4785 H 453.982 6.63204 -4.0961 0
M  V30 4786 N 458.211 1.37122 0.776871 0
M  V30 4787 C 459.459 1.31787 1.53221 0
M  V30 4788 C 459.78 -0.0987589 1.9475 0
M  V30 4789 O 459.05 -1.0417 1.65908 0
M  V30 4790 H 457.63 0.484839 0.568278 0
M  V30 4791 H 460.292 1.71556 0.924917 0
M  V30 4792 H 459.388 1.95355 2.43398 0
M  V30 4793 N 459.689 -1.00246 1.21608 0
M  V30 4794 C 460.637 -2.11193 0.97469 0
M  V30 4795 C 461.631 -1.69216 -0.0789303 0
M  V30 4796 O 462.837 -1.79853 0.0726806 0
M  V30 4797 H 459.212 -0.690455 0.297953 0
M  V30 4798 H 461.183 -2.2873 1.91638 0
M  V30 4799 C 459.932 -3.43182 0.558717 0
M  V30 4800 H 459.255 -3.75918 1.3611 0
M  V30 4801 H 460.695 -4.21823 0.429154 0
M  V30 4802 C 459.154 -3.28882 -0.730648 0
M  V30 4803 O 459.684 -3.59835 -1.78554 0
M  V30 4804 N 457.89 -2.8209 -0.698131 0
M  V30 4805 H 457.437 -2.57099 0.16061 0
M  V30 4806 H 457.395 -2.72903 -1.56113 0
M  V30 4807 N 461.167 -1.02423 -1.1978 0
M  V30 4808 C 462.413 -0.719051 -1.89625 0
M  V30 4809 C 462.746 0.750083 -1.7913 0
M  V30 4810 O 462.021 1.54574 -1.18056 0
M  V30 4811 C 462.304 -1.16499 -3.40735 0
M  V30 4812 C 462.157 -2.695 -3.60125 0
M  V30 4813 C 463.476 -0.742166 -4.33797 0
M  V30 4814 H 460.595 -0.26269 -0.688595 0
M  V30 4815 H 463.237 -1.27333 -1.41018 0
M  V30 4816 H 461.387 -0.69341 -3.82262 0
M  V30 4817 H 463.059 -3.24569 -3.278 0
M  V30 4818 H 461.302 -3.10113 -3.03336 0
M  V30 4819 H 461.973 -2.95757 -4.66081 0
M  V30 4820 H 464.449 -1.1477 -3.99959 0
M  V30 4821 H 463.325 -1.08213 -5.38127 0
M  V30 4822 H 463.586 0.355747 -4.40666 0
M  V30 4823 N 462.645 1.35699 -0.801477 0
M  V30 4824 C 463.894 1.98165 -0.375979 0
M  V30 4825 C 464.207 1.64306 1.06127 0
M  V30 4826 O 465.413 2.20097 1.58964 0
M  V30 4827 C 463.869 3.54497 -0.621305 0
M  V30 4828 C 463.477 3.9727 -2.07076 0
M  V30 4829 C 465.221 4.23697 -0.26091 0
M  V30 4830 C 463.128 5.46427 -2.26211 0
M  V30 4831 H 462.058 0.741478 -0.136844 0
M  V30 4832 H 464.709 1.54834 -0.984814 0
M  V30 4833 H 463.091 3.95958 0.0574112 0
M  V30 4834 H 464.265 3.66974 -2.78687 0
M  V30 4835 H 462.58 3.40943 -2.39054 0
M  V30 4836 H 465.177 5.33334 -0.381994 0
M  V30 4837 H 465.52 4.0869 0.792344 0
M  V30 4838 H 466.053 3.87639 -0.893339 0
M  V30 4839 H 462.792 5.66396 -3.29963 0
M  V30 4840 H 462.312 5.78309 -1.59119 0
M  V30 4841 H 463.991 6.12819 -2.07513 0
M  V30 4842 N 464.123 0.554532 1.47522 0
M  V30 4843 C 465.071 -0.207765 2.3167 0
M  V30 4844 C 466.065 -0.911914 1.4276 0
M  V30 4845 O 467.271 -0.833504 1.59539 0
M  V30 4846 H 463.646 -0.0858726 0.747081 0
M  V30 4847 H 465.617 0.521178 2.93813 0
M  V30 4848 C 464.366 -1.2263 3.25357 0
M  V30 4849 H 463.689 -0.693887 3.93732 0
M  V30 4850 H 465.129 -1.73062 3.87073 0
M  V30 4851 C 463.588 -2.27278 2.4869 0
M  V30 4852 O 464.118 -3.34156 2.22941 0
M  V30 4853 N 462.324 -2.01134 2.09746 0
M  V30 4854 H 461.871 -1.14232 2.30887 0
M  V30 4855 H 461.829 -2.71369 1.58765 0
M  V30 4856 N 465.601 -1.54893 0.290851 0
M  V30 4857 C 466.829 -2.04343 -0.324288 0
M  V30 4858 C 467.244 -1.16859 -1.48289 0
M  V30 4859 O 466.601 -0.192018 -1.81487 0
M  V30 4860 C 466.652 -3.52756 -0.79026 0
M  V30 4861 O 466.373 -4.36913 0.322213 0
M  V30 4862 C 467.874 -4.18161 -1.4716 0
M  V30 4863 H 465.094 -0.667135 -0.0719173 0
M  V30 4864 H 467.638 -1.99981 0.427529 0
M  V30 4865 H 465.793 -3.57511 -1.49213 0
M  V30 4866 H 466.207 -5.24486 -0.0387372 0
M  V30 4867 H 467.681 -5.23562 -1.7489 0
M  V30 4868 H 468.158 -3.67282 -2.40834 0
M  V30 4869 H 468.764 -4.17454 -0.813178 0
M  V30 4870 N 467.08 -0.0183926 -1.57589 0
M  V30 4871 C 468.326 0.657813 -1.92469 0
M  V30 4872 C 468.681 1.70349 -0.894375 0
M  V30 4873 O 467.974 1.91384 0.0910389 0
M  V30 4874 C 468.168 1.32676 -3.31861 0
M  V30 4875 C 467.997 0.347403 -4.48356 0
M  V30 4876 C 466.767 -0.0488653 -5.05276 0
M  V30 4877 C 468.965 -0.393931 -5.12789 0
M  V30 4878 N 466.947 -1.02451 -6.05291 0
M  V30 4879 C 468.318 -1.22367 -6.07804 0
M  V30 4880 C 470.373 -0.455789 -4.95809 0
M  V30 4881 C 469.076 -2.10966 -6.87667 0
M  V30 4882 C 471.102 -1.32908 -5.76272 0
M  V30 4883 C 470.464 -2.14662 -6.70894 0
M  V30 4884 H 466.563 0.21335 -0.752334 0
M  V30 4885 H 469.147 -0.0830547 -1.94523 0
M  V30 4886 H 467.318 2.03782 -3.30647 0
M  V30 4887 H 469.05 1.95913 -3.54119 0
M  V30 4888 H 465.805 0.323356 -4.72495 0
M  V30 4889 H 466.229 -1.50826 -6.59985 0
M  V30 4890 H 470.871 0.162017 -4.22489 0
M  V30 4891 H 468.589 -2.73807 -7.603 0
M  V30 4892 H 472.175 -1.38109 -5.6517 0
M  V30 4893 H 471.055 -2.81143 -7.32071 0
M  V30 4894 N 468.558 1.5553 0.254621 0
M  V30 4895 C 469.521 1.88872 1.29846 0
M  V30 4896 C 470.521 0.764591 1.41459 0
M  V30 4897 O 471.711 1.03265 1.40293 0
M  V30 4898 C 468.843 2.11032 2.67728 0
M  V30 4899 H 470.036 2.82201 1.01502 0
M  V30 4900 H 467.589 1.48303 0.493556 0
M  V30 4901 H 468.324 1.20146 3.01223 0
M  V30 4902 H 468.109 2.92895 2.60682 0
M  V30 4903 H 469.599 2.38038 3.43115 0
M  V30 4904 N 470.036 -0.519951 1.48776 0
M  V30 4905 C 471.313 -1.28123 1.47797 0
M  V30 4906 C 471.693 -2.10196 0.195157 0
M  V30 4907 O 471.041 -2.13167 -0.822925 0
M  V30 4908 C 471.251 -2.15413 2.74587 0
M  V30 4909 C 472.599 -2.75225 3.23321 0
M  V30 4910 O 473.623 -2.25694 2.75574 0
M  V30 4911 O 472.482 -3.65346 4.06429 0
M  V30 4912 H 469.576 -0.578793 0.590701 0
M  V30 4913 H 472.122 -0.535779 1.6102 0
M  V30 4914 H 470.894 -1.54617 3.59457 0
M  V30 4915 H 470.517 -2.97186 2.64132 0
M  V30 4916 N 471.514 -1.37532 -0.769588 0
M  V30 4917 C 472.763 -1.32183 -1.5235 0
M  V30 4918 C 473.076 0.0906555 -1.9539 0
M  V30 4919 O 474.282 0.266628 -2.70188 0
M  V30 4920 C 472.738 -2.32029 -2.75119 0
M  V30 4921 C 472.346 -3.78816 -2.3917 0
M  V30 4922 C 474.09 -2.35694 -3.53056 0
M  V30 4923 C 471.997 -4.70388 -3.58453 0
M  V30 4924 H 470.927 -0.491275 -0.571984 0
M  V30 4925 H 473.578 -1.63004 -0.842739 0
M  V30 4926 H 471.96 -1.94229 -3.45096 0
M  V30 4927 H 473.134 -4.25466 -1.76962 0
M  V30 4928 H 471.449 -3.78117 -1.74402 0
M  V30 4929 H 474.046 -3.01312 -4.41718 0
M  V30 4930 H 474.389 -1.37117 -3.93071 0
M  V30 4931 H 474.922 -2.72212 -2.90078 0
M  V30 4932 H 471.661 -5.70102 -3.23518 0
M  V30 4933 H 471.181 -4.28442 -4.19758 0
M  V30 4934 H 472.86 -4.87628 -4.25239 0
M  V30 4935 N 472.992 0.995999 -1.22138 0
M  V30 4936 C 474.241 1.72928 -1.03821 0
M  V30 4937 C 474.554 1.90872 0.427444 0
M  V30 4938 O 475.76 2.61496 0.730212 0
M  V30 4939 C 474.216 3.11124 -1.80913 0
M  V30 4940 C 473.824 3.01122 -3.31707 0
M  V30 4941 C 475.568 3.8852 -1.71035 0
M  V30 4942 C 473.475 4.34453 -4.01253 0
M  V30 4943 H 472.405 0.648376 -0.384869 0
M  V30 4944 H 475.056 1.11213 -1.45959 0
M  V30 4945 H 473.438 3.73503 -1.31573 0
M  V30 4946 H 474.612 2.47926 -3.88419 0
M  V30 4947 H 472.927 2.3721 -3.42228 0
M  V30 4948 H 475.524 4.872 -2.20318 0
M  V30 4949 H 475.867 4.1087 -0.670196 0
M  V30 4950 H 476.4 3.32812 -2.17902 0
M  V30 4951 H 473.139 4.17303 -5.05508 0
M  V30 4952 H 472.659 4.87574 -3.49331 0
M  V30 4953 H 474.338 5.03215 -4.06674 0
M  V30 4954 N 474.47 1.03057 1.19235 0
M  V30 4955 C 475.418 0.606391 2.24557 0
M  V30 4956 C 476.412 -0.361826 1.65491 0
M  V30 4957 O 477.618 -0.23022 1.78522 0
M  V30 4958 H 473.993 0.177838 0.730669 0
M  V30 4959 H 475.964 1.50529 2.5765 0
M  V30 4960 C 474.713 -0.0252127 3.47691 0
M  V30 4961 H 474.036 0.710838 3.9343 0
M  V30 4962 H 475.476 -0.284931 4.23042 0
M  V30 4963 C 473.935 -1.27229 3.11953 0
M  V30 4964 O 474.465 -2.36416 3.24762 0
M  V30 4965 N 472.671 -1.16169 2.6637 0
M  V30 4966 H 472.218 -0.273189 2.56147 0
M  V30 4967 H 472.176 -1.99703 2.42829 0
M  V30 4968 N 475.948 -1.35272 0.808662 0
M  V30 4969 C 477.364 -1.51806 0.492653 0
M  V30 4970 C 477.564 -1.7574 -0.985778 0
M  V30 4971 O 476.62 -1.80003 -1.77074 0
M  V30 4972 C 477.933 -2.69202 1.33981 0
M  V30 4973 C 479.481 -2.8308 1.33547 0
M  V30 4974 C 479.956 -4.03502 2.16679 0
M  V30 4975 N 481.447 -4.10684 2.14227 0
M  V30 4976 C 482.182 -5.02984 2.75308 0
M  V30 4977 N 481.678 -6.00603 3.45323 0
M  V30 4978 N 483.471 -4.95746 2.64938 0
M  V30 4979 H 475.622 -1.17993 1.76611 0
M  V30 4980 H 477.885 -0.577476 0.751814 0
M  V30 4981 H 477.591 -2.581 2.38909 0
M  V30 4982 H 477.465 -3.63854 0.994491 0
M  V30 4983 H 479.852 -2.93631 0.294036 0
M  V30 4984 H 479.933 -1.89278 1.72068 0
M  V30 4985 H 479.577 -3.93711 3.20864 0
M  V30 4986 H 479.507 -4.96489 1.75517 0
M  V30 4987 H 481.998 -3.40802 1.63285 0
M  V30 4988 H 482.311 -6.67633 3.89212 0
M  V30 4989 H 480.656 -6.0077 3.49428 0
M  V30 4990 H 483.847 -4.18439 2.09825 0
M  V30 4991 H 484.02 -5.67487 3.12829 0
M  V30 4992 N 477.426 -0.562348 -1.47226 0
M  V30 4993 C 478.389 0.172056 -2.28553 0
M  V30 4994 C 479.389 0.837928 -1.37242 0
M  V30 4995 O 480.579 0.693001 -1.59822 0
M  V30 4996 C 477.711 1.25223 -3.17068 0
M  V30 4997 H 478.904 -0.542401 -2.94954 0
M  V30 4998 H 476.457 -0.319493 -1.53 0
M  V30 4999 H 477.192 1.99892 -2.55369 0
M  V30 5000 H 476.977 0.779515 -3.84273 0
M  V30 5001 H 478.467 1.76791 -3.78332 0
M  V30 5002 N 478.904 1.54736 -0.299062 0
M  V30 5003 C 479.852 2.24897 0.593658 0
M  V30 5004 C 480.846 1.25429 1.13859 0
M  V30 5005 O 482.052 1.43286 1.08945 0
M  V30 5006 H 478.427 0.72207 0.210046 0
M  V30 5007 H 480.398 2.98393 -0.0206421 0
M  V30 5008 C 479.147 3.00159 1.75499 0
M  V30 5009 H 478.47 3.76501 1.34489 0
M  V30 5010 H 479.91 3.52535 2.35574 0
M  V30 5011 C 478.369 2.07015 2.65794 0
M  V30 5012 O 478.899 1.63692 3.66835 0
M  V30 5013 N 477.105 1.73012 2.33485 0
M  V30 5014 H 476.652 2.08439 1.51364 0
M  V30 5015 H 476.61 1.10965 2.94167 0
M  V30 5016 N 480.382 0.0267497 1.57577 0
M  V30 5017 C 481.312 -0.954308 2.13108 0
M  V30 5018 C 482.293 -1.34088 1.04663 0
M  V30 5019 O 483.478 -1.41992 1.32484 0
M  V30 5020 C 480.608 -2.23744 2.65624 0
M  V30 5021 C 479.562 -1.99168 3.78835 0
M  V30 5022 C 478.888 -3.33726 4.17769 0
M  V30 5023 C 480.188 -1.33277 5.0501 0
M  V30 5024 H 481.882 -0.491848 2.95332 0
M  V30 5025 H 479.428 -0.23514 1.42067 0
M  V30 5026 H 481.381 -2.92754 3.03106 0
M  V30 5027 H 480.105 -2.72151 1.80558 0
M  V30 5028 H 478.764 -1.32577 3.41788 0
M  V30 5029 H 478.412 -3.79888 3.29688 0
M  V30 5030 H 478.112 -3.18089 4.94058 0
M  V30 5031 H 479.636 -4.04008 4.57832 0
M  V30 5032 H 481.05 -1.92283 5.40093 0
M  V30 5033 H 479.447 -1.28045 5.8628 0
M  V30 5034 H 480.517 -0.305411 4.83937 0
M  V30 5035 N 481.861 -1.55662 -0.24637 0
M  V30 5036 C 483.109 -1.77168 -0.972411 0
M  V30 5037 C 483.43 -0.590827 -1.85834 0
M  V30 5038 O 482.7 0.393365 -1.9191 0
M  V30 5039 H 481.28 -0.653405 -0.362038 0
M  V30 5040 H 483.942 -1.93101 -0.264189 0
M  V30 5041 H 483.038 -2.68335 -1.59382 0
M  V30 5042 N 483.339 0.512053 -1.4905 0
M  V30 5043 C 484.272 1.63209 -1.59493 0
M  V30 5044 C 485.25 1.56407 -0.444481 0
M  V30 5045 O 486.434 1.76623 -0.658535 0
M  V30 5046 C 483.561 3.01685 -1.53961 0
M  V30 5047 C 482.607 3.26786 -2.74068 0
M  V30 5048 S 483.44 3.11107 -4.35859 0
M  V30 5049 C 484.596 4.51997 -4.32954 0
M  V30 5050 H 484.829 1.54104 -2.54243 0
M  V30 5051 H 482.362 0.696382 -1.37804 0
M  V30 5052 H 484.32 3.81538 -1.51455 0
M  V30 5053 H 482.981 3.08215 -0.605178 0
M  V30 5054 H 482.174 4.27849 -2.66386 0
M  V30 5055 H 481.776 2.54635 -2.73928 0
M  V30 5056 H 484.068 5.43871 -4.03993 0
M  V30 5057 H 485.011 4.64731 -5.34257 0
M  V30 5058 H 485.419 4.32159 -3.63178 0
M  V30 5059 N 484.817 1.37938 0.762283 0
M  V30 5060 C 485.727 1.36681 1.90671 0
M  V30 5061 C 486.743 0.265078 1.71969 0
M  V30 5062 O 487.919 0.502055 1.95042 0
M  V30 5063 C 484.984 1.18211 3.25925 0
M  V30 5064 C 484.045 2.3811 3.57214 0
M  V30 5065 C 483.278 2.20512 4.86014 0
M  V30 5066 O 483.501 1.19429 5.57757 0
M  V30 5067 O 482.435 3.08911 5.16583 0
M  V30 5068 H 486.261 2.33091 1.94685 0
M  V30 5069 H 483.846 1.18767 0.906356 0
M  V30 5070 H 485.728 1.09937 4.06807 0
M  V30 5071 H 484.403 0.248807 3.22742 0
M  V30 5072 H 483.31 2.51958 2.76529 0
M  V30 5073 H 484.643 3.30041 3.65149 0
M  V30 5074 N 486.295 -0.989507 1.22664 0
M  V30 5075 C 487.541 -1.7321 1.05481 0
M  V30 5076 C 487.874 -1.89852 -0.408635 0
M  V30 5077 O 487.149 -1.44416 -1.30285 0
M  V30 5078 C 487.432 -3.1357 1.77047 0
M  V30 5079 C 487.285 -3.04555 3.31008 0
M  V30 5080 C 488.604 -4.12812 1.5256 0
M  V30 5081 H 485.723 -0.628697 0.384589 0
M  V30 5082 H 488.365 -1.15258 1.51049 0
M  V30 5083 H 486.515 -3.63046 1.3831 0
M  V30 5084 H 488.187 -2.62674 3.7921 0
M  V30 5085 H 486.43 -2.41278 3.6051 0
M  V30 5086 H 487.101 -4.03894 3.76263 0
M  V30 5087 H 489.577 -3.72106 1.86215 0
M  V30 5088 H 488.453 -5.09132 2.05124 0
M  V30 5089 H 488.714 -4.39711 0.458936 0
M  V30 5090 N 487.773 -1.03688 -1.18687 0
M  V30 5091 C 488.706 -0.569112 -2.2099 0
M  V30 5092 C 489.684 0.394315 -1.57746 0
M  V30 5093 O 490.868 0.309519 -1.85941 0
M  V30 5094 C 487.995 0.169104 -3.38278 0
M  V30 5095 C 487.041 -0.746989 -4.19908 0
M  V30 5096 S 487.874 -2.22773 -4.86963 0
M  V30 5097 C 489.03 -1.50025 -6.07654 0
M  V30 5098 H 489.263 -1.43589 -2.60326 0
M  V30 5099 H 486.796 -0.847507 -1.29061 0
M  V30 5100 H 488.754 0.588868 -4.06254 0
M  V30 5101 H 487.415 1.01172 -2.9736 0
M  V30 5102 H 486.608 -0.176626 -5.0369 0
M  V30 5103 H 486.21 -1.10543 -3.5729 0
M  V30 5104 H 488.502 -0.791217 -6.72864 0
M  V30 5105 H 489.445 -2.31498 -6.69189 0
M  V30 5106 H 489.853 -0.994245 -5.55675 0
M  V30 5107 N 489.251 1.34841 -0.815825 0
M  V30 5108 C 490.201 2.27075 -0.205169 0
M  V30 5109 C 491.185 1.48205 0.626414 0
M  V30 5110 O 492.377 1.70306 0.482157 0
M  V30 5111 C 489.506 3.37322 0.637871 0
M  V30 5112 C 488.592 4.23609 -0.203948 0
M  V30 5113 N 488.983 4.89558 -1.27149 0
M  V30 5114 C 487.281 4.45998 0.0128971 0
M  V30 5115 C 487.982 5.53597 -1.7862 0
M  V30 5116 N 486.958 5.32535 -1.0912 0
M  V30 5117 H 490.76 2.75563 -1.02187 0
M  V30 5118 H 488.274 1.48477 -0.657912 0
M  V30 5119 H 490.271 4.02359 1.09146 0
M  V30 5120 H 488.931 2.90385 1.45281 0
M  V30 5121 H 489.942 4.9077 -1.65423 0
M  V30 5122 H 486.619 4.09837 0.79624 0
M  V30 5123 H 488.009 6.16184 -2.67892 0
M  V30 5124 N 490.729 0.570148 1.46925 0
M  V30 5125 C 491.639 -0.173061 2.33961 0
M  V30 5126 C 492.655 -0.898825 1.48987 0
M  V30 5127 O 493.831 -0.864825 1.81887 0
M  V30 5128 C 490.896 -1.18177 3.25937 0
M  V30 5129 C 489.957 -0.462041 4.26806 0
M  V30 5130 C 489.19 -1.4227 5.14388 0
M  V30 5131 O 489.413 -2.65842 5.04662 0
M  V30 5132 O 488.347 -0.940127 5.94513 0
M  V30 5133 H 492.173 0.541216 2.98839 0
M  V30 5134 H 489.758 0.330647 1.45695 0
M  V30 5135 H 491.64 -1.76372 3.82715 0
M  V30 5136 H 490.315 -1.87774 2.63671 0
M  V30 5137 H 489.222 0.161429 3.73752 0
M  V30 5138 H 490.555 0.192719 4.91823 0
M  V30 5139 N 492.207 -1.54576 0.307264 0
M  V30 5140 C 493.623 -1.59534 -0.0459251 0
M  V30 5141 C 493.823 -1.32414 -1.51884 0
M  V30 5142 O 492.879 -1.1006 -2.27251 0
M  V30 5143 C 494.192 -2.98566 0.357649 0
M  V30 5144 C 495.74 -3.11491 0.306937 0
M  V30 5145 C 496.215 -4.52842 0.685427 0
M  V30 5146 N 497.706 -4.58782 0.638203 0
M  V30 5147 C 498.441 -5.66238 0.903458 0
M  V30 5148 N 497.937 -6.81703 1.23501 0
M  V30 5149 N 499.73 -5.55937 0.830102 0
M  V30 5150 H 491.881 -1.70464 1.26712 0
M  V30 5151 H 494.144 -0.79647 0.514139 0
M  V30 5152 H 493.85 -3.23356 1.38325 0
M  V30 5153 H 493.724 -3.76117 -0.285565 0
M  V30 5154 H 496.111 -2.86446 -0.709424 0
M  V30 5155 H 496.192 -2.36081 0.984861 0
M  V30 5156 H 495.836 -4.78618 1.69963 0
M  V30 5157 H 495.766 -5.26598 -0.0146346 0
M  V30 5158 H 498.257 -3.75849 0.393138 0
M  V30 5159 H 498.57 -7.59582 1.42322 0
M  V30 5160 H 496.915 -6.8324 1.27311 0
M  V30 5161 H 500.106 -4.64608 0.570693 0
M  V30 5162 H 500.279 -6.39597 1.04019 0
M  V30 5163 N 493.685 -0.035106 -1.57561 0
M  V30 5164 C 494.633 0.962707 -2.11742 0
M  V30 5165 C 495.627 1.33296 -1.0454 0
M  V30 5166 O 496.833 1.31449 -1.22968 0
M  V30 5167 H 493.208 0.32826 -0.676572 0
M  V30 5168 H 495.179 0.48048 -2.94506 0
M  V30 5169 C 493.928 2.23388 -2.66445 0
M  V30 5170 H 493.251 1.95774 -3.48587 0
M  V30 5171 H 494.691 2.91402 -3.07995 0
M  V30 5172 C 493.15 2.96769 -1.59467 0
M  V30 5173 O 493.68 3.89105 -0.998 0
M  V30 5174 N 491.886 2.59212 -1.31369 0
M  V30 5175 H 491.433 1.84202 -1.80076 0
M  V30 5176 H 491.391 3.08618 -0.600173 0
M  V30 5177 N 495.163 1.55791 0.238111 0
M  V30 5178 C 496.126 1.90239 1.27835 0
M  V30 5179 C 497.126 0.779552 1.4064 0
M  V30 5180 O 498.316 1.04747 1.3919 0
M  V30 5181 C 495.448 2.13859 2.65475 0
M  V30 5182 H 496.641 2.83262 0.985034 0
M  V30 5183 H 494.194 1.48818 0.477799 0
M  V30 5184 H 494.929 1.23334 2.99932 0
M  V30 5185 H 494.714 2.95643 2.57561 0
M  V30 5186 H 496.204 2.41664 3.40571 0
M  V30 5187 N 496.642 -0.504142 1.49319 0
M  V30 5188 C 497.592 -1.60284 1.62151 0
M  V30 5189 C 498.576 -1.53657 0.477315 0
M  V30 5190 O 499.768 -1.6124 0.730108 0
M  V30 5191 C 496.897 -2.98909 1.68844 0
M  V30 5192 C 495.983 -3.10544 2.8883 0
M  V30 5193 N 496.374 -2.92078 4.12946 0
M  V30 5194 C 494.672 -3.4164 2.86702 0
M  V30 5195 C 495.373 -3.07812 4.93585 0
M  V30 5196 N 494.349 -3.36549 4.26891 0
M  V30 5197 H 498.151 -1.44656 2.55835 0
M  V30 5198 H 495.665 -0.710198 1.46048 0
M  V30 5199 H 497.662 -3.77865 1.76134 0
M  V30 5200 H 496.322 -3.15609 0.762943 0
M  V30 5201 H 497.333 -2.68316 4.42975 0
M  V30 5202 H 494.01 -3.64537 2.03517 0
M  V30 5203 H 495.4 -2.98054 6.02174 0
M  V30 5204 N 498.12 -1.38341 -0.754957 0
M  V30 5205 C 499.068 -1.35573 -1.89005 0
M  V30 5206 C 500.062 -0.241824 -1.67665 0
M  V30 5207 O 501.268 -0.410785 -1.7525 0
M  V30 5208 H 497.643 -0.422898 -0.621821 0
M  V30 5209 H 499.614 -2.31359 -1.88455 0
M  V30 5210 C 498.363 -1.19631 -3.26471 0
M  V30 5211 H 497.686 -2.04605 -3.43477 0
M  V30 5212 H 499.126 -1.21748 -4.06144 0
M  V30 5213 C 497.585 0.0968705 -3.36761 0
M  V30 5214 O 498.115 1.07439 -3.87066 0
M  V30 5215 N 496.321 0.153242 -2.90196 0
M  V30 5216 H 495.868 -0.642908 -2.49448 0
M  V30 5217 H 495.826 1.01807 -2.9746 0
M  V30 5218 N 499.598 0.982988 -1.23187 0
M  V30 5219 C 500.845 1.72392 -1.06241 0
M  V30 5220 C 501.173 1.9032 0.40108 0
M  V30 5221 O 500.428 1.45084 1.31336 0
M  V30 5222 C 500.727 3.12736 -1.73006 0
M  V30 5223 C 500.393 3.14695 -3.22921 0
M  V30 5224 C 499.055 3.14937 -3.63824 0
M  V30 5225 C 501.407 3.10211 -4.1883 0
M  V30 5226 C 498.735 3.08408 -4.99101 0
M  V30 5227 C 501.087 3.05224 -5.54095 0
M  V30 5228 C 499.751 3.03787 -5.94365 0
M  V30 5229 H 499.021 0.630829 -0.388762 0
M  V30 5230 H 501.668 1.15053 -1.53085 0
M  V30 5231 H 499.973 3.73446 -1.18514 0
M  V30 5232 H 501.67 3.68828 -1.57374 0
M  V30 5233 H 498.26 3.15262 -2.90358 0
M  V30 5234 H 502.444 3.09166 -3.8824 0
M  V30 5235 H 497.7 3.05646 -5.29519 0
M  V30 5236 H 501.874 3.00712 -6.28128 0
M  V30 5237 H 499.501 2.98483 -6.99151 0
M  V30 5238 N 501.076 1.04316 1.18135 0
M  V30 5239 C 502.487 0.775505 1.69832 0
M  V30 5240 C 502.838 -0.703348 1.8316 0
M  V30 5241 O 501.963 -1.54729 1.51287 0
M  V30 5242 C 502.558 1.40112 3.0847 0
M  V30 5243 C 501.117 1.18172 3.57368 0
M  V30 5244 C 500.264 1.49022 2.33854 0
M  V30 5245 H 503.215 1.20925 1.02775 0
M  V30 5246 H 503.236 0.805672 3.71873 0
M  V30 5247 H 502.748 2.47744 2.98738 0
M  V30 5248 H 500.849 0.124258 3.72393 0
M  V30 5249 H 500.962 1.8805 4.40652 0
M  V30 5250 H 499.326 0.909995 2.37889 0
M  V30 5251 H 500.109 2.57768 2.26738 0
M  V30 5252 N 502.554 -1.34406 0.822964 0
M  V30 5253 C 503.484 -2.32052 0.259608 0
M  V30 5254 C 504.465 -1.58243 -0.623961 0
M  V30 5255 O 505.65 -1.86224 -0.55083 0
M  V30 5256 C 502.78 -3.42434 -0.579314 0
M  V30 5257 C 501.734 -4.27499 0.20712 0
M  V30 5258 C 501.06 -5.29349 -0.754547 0
M  V30 5259 C 502.36 -5.02758 1.41533 0
M  V30 5260 H 504.054 -2.79418 1.07545 0
M  V30 5261 H 501.6 -1.34338 0.518593 0
M  V30 5262 H 503.553 -4.0976 -0.983612 0
M  V30 5263 H 502.277 -2.93717 -1.4282 0
M  V30 5264 H 500.936 -3.61776 0.592787 0
M  V30 5265 H 500.584 -4.76895 -1.59939 0
M  V30 5266 H 500.284 -5.8714 -0.232561 0
M  V30 5267 H 501.808 -5.99544 -1.1567 0
M  V30 5268 H 503.222 -5.62938 1.08504 0
M  V30 5269 H 501.619 -5.70123 1.87296 0
M  V30 5270 H 502.689 -4.32451 2.1935 0
M  V30 5271 N 504.032 -0.577932 -1.46621 0
M  V30 5272 C 505.309 0.00495287 -1.95599 0
M  V30 5273 C 505.689 1.46428 -1.5206 0
M  V30 5274 O 505.037 2.1517 -0.769046 0
M  V30 5275 C 505.247 -0.162114 -3.48623 0
M  V30 5276 C 506.595 -0.0274623 -4.24591 0
M  V30 5277 O 507.619 -0.0907067 -3.56084 0
M  V30 5278 O 506.478 0.1122 -5.46385 0
M  V30 5279 H 503.572 0.0525057 -0.825332 0
M  V30 5280 H 506.118 -0.645914 -1.56927 0
M  V30 5281 H 504.89 -1.17679 -3.73185 0
M  V30 5282 H 504.513 0.525407 -3.94113 0
M  V30 5283 N 505.51 1.54411 -0.315457 0
M  V30 5284 C 506.44 2.27002 0.547039 0
M  V30 5285 C 507.421 1.27492 1.12605 0
M  V30 5286 O 508.606 1.5629 1.15269 0
M  V30 5287 C 505.736 3.02171 1.71201 0
M  V30 5288 C 504.69 4.0895 1.26268 0
M  V30 5289 C 504.016 4.71915 2.51396 0
M  V30 5290 C 505.316 5.20891 0.383419 0
M  V30 5291 H 507.01 2.99343 -0.0584517 0
M  V30 5292 H 504.556 1.4397 -0.0295527 0
M  V30 5293 H 506.509 3.51681 2.32161 0
M  V30 5294 H 505.233 2.27433 2.34397 0
M  V30 5295 H 503.892 3.60312 0.676062 0
M  V30 5296 H 503.54 3.93801 3.12937 0
M  V30 5297 H 503.24 5.44039 2.22026 0
M  V30 5298 H 504.764 5.24195 3.13133 0
M  V30 5299 H 506.178 5.66206 0.899082 0
M  V30 5300 H 504.575 5.99821 0.182857 0
M  V30 5301 H 505.645 4.81324 -0.587821 0
M  V30 5302 N 506.988 0.0434614 1.5754 0
M  V30 5303 C 507.951 -0.918696 2.09982 0
M  V30 5304 C 508.951 -1.24488 1.01781 0
M  V30 5305 O 510.141 -1.18284 1.27885 0
M  V30 5306 C 507.273 -2.23093 2.57764 0
M  V30 5307 H 508.466 -0.464229 2.96285 0
M  V30 5308 H 506.019 -0.204818 1.54952 0
M  V30 5309 H 506.754 -2.73137 1.74832 0
M  V30 5310 H 506.539 -2.00724 3.36827 0
M  V30 5311 H 508.029 -2.92028 2.98512 0
M  V30 5312 N 508.466 -1.55915 -0.229846 0
M  V30 5313 C 509.691 -1.8296 -0.976743 0
M  V30 5314 C 510.116 -0.622735 -1.77493 0
M  V30 5315 O 509.474 0.428431 -1.76165 0
M  V30 5316 C 509.522 -3.07916 -1.8767 0
M  V30 5317 O 508.626 -2.86028 -2.97088 0
M  V30 5318 H 507.967 -0.603453 -0.277021 0
M  V30 5319 H 510.497 -2.0312 -0.245669 0
M  V30 5320 H 510.507 -3.37802 -2.2881 0
M  V30 5321 H 509.182 -3.95389 -1.28996 0
M  V30 5322 H 507.759 -2.67355 -2.59954 0
M  V30 5323 N 509.944 0.496216 -1.49584 0
M  V30 5324 C 510.907 1.57952 -1.66084 0
M  V30 5325 C 511.907 1.51729 -0.53244 0
M  V30 5326 O 513.097 1.54796 -0.79899 0
M  V30 5327 C 510.229 2.97604 -1.66268 0
M  V30 5328 H 511.422 1.44649 -2.6271 0
M  V30 5329 H 508.975 0.7208 -1.38687 0
M  V30 5330 H 509.71 3.16378 -0.712432 0
M  V30 5331 H 509.495 3.03528 -2.4822 0
M  V30 5332 H 510.985 3.76301 -1.81073 0
M  V30 5333 N 511.423 1.38739 0.74761 0
M  V30 5334 C 512.333 1.38696 1.89211 0
M  V30 5335 C 513.349 0.283303 1.71678 0
M  V30 5336 O 514.525 0.522713 1.94498 0
M  V30 5337 C 511.59 1.21662 3.24653 0
M  V30 5338 C 510.651 2.41886 3.54669 0
M  V30 5339 C 509.884 2.25655 4.83648 0
M  V30 5340 O 510.107 1.25339 5.56459 0
M  V30 5341 O 509.041 3.14372 5.13277 0
M  V30 5342 H 512.867 2.35143 1.92202 0
M  V30 5343 H 510.452 1.19721 0.893708 0
M  V30 5344 H 512.334 1.14246 4.05618 0
M  V30 5345 H 511.009 0.283024 3.2246 0
M  V30 5346 H 509.916 2.54877 2.73841 0
M  V30 5347 H 511.249 3.33895 3.61628 0
M  V30 5348 N 512.901 -0.976442 1.23707 0
M  V30 5349 C 514.126 -1.75875 1.09922 0
M  V30 5350 C 514.551 -1.84911 -0.34489 0
M  V30 5351 O 513.909 -1.31363 -1.24954 0
M  V30 5352 C 513.957 -3.16179 1.73388 0
M  V30 5353 O 513.061 -4.00124 0.99871 0
M  V30 5354 H 512.402 -0.540954 0.385052 0
M  V30 5355 H 514.932 -1.22546 1.6384 0
M  V30 5356 H 514.942 -3.66741 1.78788 0
M  V30 5357 H 513.617 -3.08917 2.78466 0
M  V30 5358 H 512.194 -3.58624 1.02193 0
M  V30 5359 N 514.379 -1.04941 -1.1758 0
M  V30 5360 C 515.342 -0.652456 -2.19717 0
M  V30 5361 C 516.342 0.294745 -1.58076 0
M  V30 5362 O 517.532 0.0789579 -1.74021 0
M  V30 5363 C 514.664 0.0420712 -3.40874 0
M  V30 5364 H 515.857 -1.55642 -2.5635 0
M  V30 5365 H 513.41 -0.842995 -1.31618 0
M  V30 5366 H 514.145 0.95943 -3.09783 0
M  V30 5367 H 513.93 -0.638844 -3.86861 0
M  V30 5368 H 515.42 0.306 -4.16477 0
M  V30 5369 N 515.857 1.33968 -0.830081 0
M  V30 5370 C 517.268 1.80439 -0.479455 0
M  V30 5371 C 517.619 1.68756 1.00079 0
M  V30 5372 O 516.744 1.23171 1.77927 0
M  V30 5373 C 517.339 3.27611 -0.863505 0
M  V30 5374 C 515.898 3.72133 -0.565145 0
M  V30 5375 C 515.045 2.55549 -1.07657 0
M  V30 5376 H 517.996 1.21614 -1.0196 0
M  V30 5377 H 518.017 3.8012 -0.170083 0
M  V30 5378 H 517.529 3.36082 -1.94089 0
M  V30 5379 H 515.63 3.69196 0.502536 0
M  V30 5380 H 515.743 4.65963 -1.11422 0
M  V30 5381 H 514.107 2.49788 -0.497807 0
M  V30 5382 H 514.89 2.66786 -2.16055 0
M  V30 5383 N 517.335 0.585699 1.46312 0
M  V30 5384 C 518.581 0.0725284 2.0267 0
M  V30 5385 C 518.914 -1.28523 1.45586 0
M  V30 5386 O 518.189 -1.84283 0.622101 0
M  V30 5387 C 518.472 0.0099788 3.60099 0
M  V30 5388 C 518.325 1.39685 4.27561 0
M  V30 5389 C 519.644 -0.689117 4.34671 0
M  V30 5390 H 516.763 0.0278307 0.736474 0
M  V30 5391 H 519.405 0.753472 1.74421 0
M  V30 5392 H 517.555 -0.56992 3.84297 0
M  V30 5393 H 519.227 2.02215 4.14617 0
M  V30 5394 H 517.47 1.96374 3.86807 0
M  V30 5395 H 518.141 1.30553 5.36339 0
M  V30 5396 H 520.617 -0.196446 4.15636 0
M  V30 5397 H 519.493 -0.701921 5.44393 0
M  V30 5398 H 519.754 -1.75101 4.05946 0
M  V30 5399 N 518.813 -1.54241 0.323641 0
M  V30 5400 C 519.776 -2.22997 -0.529602 0
M  V30 5401 C 520.776 -1.22345 -1.04347 0
M  V30 5402 O 521.966 -1.46924 -0.935889 0
M  V30 5403 C 519.098 -2.93409 -1.73562 0
M  V30 5404 H 520.291 -2.99815 0.0714518 0
M  V30 5405 H 517.844 -1.56121 0.0747258 0
M  V30 5406 H 518.579 -2.20729 -2.37591 0
M  V30 5407 H 518.364 -3.67217 -1.37456 0
M  V30 5408 H 519.854 -3.45794 -2.34128 0
M  V30 5409 N 520.291 -0.0518155 -1.57515 0
M  V30 5410 C 521.224 0.957758 -2.07129 0
M  V30 5411 C 522.202 1.30355 -0.971927 0
M  V30 5412 O 523.386 1.41631 -1.2439 0
M  V30 5413 C 520.513 2.27157 -2.51232 0
M  V30 5414 C 519.559 2.07879 -3.72409 0
M  V30 5415 S 520.392 1.35656 -5.18033 0
M  V30 5416 C 521.548 2.68359 -5.65451 0
M  V30 5417 H 521.781 0.53552 -2.92437 0
M  V30 5418 H 519.314 0.160465 -1.53564 0
M  V30 5419 H 521.272 3.02676 -2.77304 0
M  V30 5420 H 519.933 2.66509 -1.66228 0
M  V30 5421 H 519.126 3.05061 -4.01191 0
M  V30 5422 H 518.728 1.40499 -3.46606 0
M  V30 5423 H 521.02 3.64526 -5.71076 0
M  V30 5424 H 521.963 2.44213 -6.64654 0
M  V30 5425 H 522.371 2.74647 -4.93183 0
M  V30 5426 N 521.769 1.56035 0.221574 0
M  V30 5427 C 523.018 1.78245 0.944016 0
M  V30 5428 C 523.331 0.620371 1.85501 0
M  V30 5429 O 524.537 0.726103 2.6161 0
M  V30 5430 C 522.993 3.15659 1.7288 0
M  V30 5431 C 522.601 4.39591 0.863942 0
M  V30 5432 C 524.345 3.47195 2.44246 0
M  V30 5433 C 522.252 5.6803 1.64607 0
M  V30 5434 H 521.182 0.664547 0.356222 0
M  V30 5435 H 523.833 1.8243 0.197904 0
M  V30 5436 H 522.215 3.0565 2.51781 0
M  V30 5437 H 523.389 4.60655 0.115464 0
M  V30 5438 H 521.704 4.15572 0.262407 0
M  V30 5439 H 524.301 4.40381 3.03263 0
M  V30 5440 H 524.644 2.69693 3.1713 0
M  V30 5441 H 525.177 3.58533 1.72334 0
M  V30 5442 H 521.916 6.48425 0.960507 0
M  V30 5443 H 521.436 5.51027 2.36917 0
M  V30 5444 H 523.115 6.08203 2.20675 0
M  V30 5445 N 523.247 -0.488276 1.49845 0
M  V30 5446 C 524.21 -1.57069 1.66919 0
M  V30 5447 C 525.21 -1.51445 0.540479 0
M  V30 5448 O 526.4 -1.5437 0.807188 0
M  V30 5449 C 523.532 -2.96718 1.67844 0
M  V30 5450 H 524.725 -1.43254 2.63474 0
M  V30 5451 H 522.278 -0.713435 1.39068 0
M  V30 5452 H 523.013 -3.15996 0.7292 0
M  V30 5453 H 522.798 -3.02208 2.49826 0
M  V30 5454 H 524.288 -3.75335 1.83066 0
M  V30 5455 N 524.725 -1.39134 -0.740242 0
M  V30 5456 C 526.136 -1.32208 -1.31825 0
M  V30 5457 C 526.487 0.0159919 -1.96193 0
M  V30 5458 O 525.612 0.918111 -1.95958 0
M  V30 5459 C 526.207 -2.39436 -2.39699 0
M  V30 5460 C 524.766 -2.36048 -2.93187 0
M  V30 5461 C 523.913 -2.21599 -1.66701 0
M  V30 5462 H 526.864 -1.49298 -0.538133 0
M  V30 5463 H 526.885 -2.05922 -3.19963 0
M  V30 5464 H 526.397 -3.36811 -1.92821 0
M  V30 5465 H 524.498 -1.42295 -3.44359 0
M  V30 5466 H 524.611 -3.30704 -3.46658 0
M  V30 5467 H 522.975 -1.68681 -1.90837 0
M  V30 5468 H 523.758 -3.20936 -1.21882 0
M  V30 5469 N 526.204 0.969867 -1.24223 0
M  V30 5470 C 527.429 1.75289 -1.10853 0
M  V30 5471 C 527.854 1.85091 0.335079 0
M  V30 5472 O 527.212 1.32024 1.24255 0
M  V30 5473 C 527.26 3.15255 -1.75062 0
M  V30 5474 O 526.364 3.99589 -1.01992 0
M  V30 5475 H 525.705 0.538904 -0.387915 0
M  V30 5476 H 528.235 1.21675 -1.64488 0
M  V30 5477 H 528.245 3.65787 -1.80731 0
M  V30 5478 H 526.92 3.07436 -2.801 0
M  V30 5479 H 525.497 3.58077 -1.04094 0
M  V30 5480 N 527.682 1.05563 1.17022 0
M  V30 5481 C 528.931 0.763036 1.8671 0
M  V30 5482 C 529.244 -0.712857 1.82147 0
M  V30 5483 O 530.45 -1.11955 2.47343 0
M  V30 5484 C 528.906 1.31474 3.35026 0
M  V30 5485 C 528.514 2.82034 3.48081 0
M  V30 5486 C 530.258 1.09935 4.10018 0
M  V30 5487 C 528.165 3.30486 4.90442 0
M  V30 5488 H 527.095 0.281747 0.699382 0
M  V30 5489 H 529.746 1.2734 1.32124 0
M  V30 5490 H 528.128 0.732171 3.89173 0
M  V30 5491 H 529.302 3.46178 3.04133 0
M  V30 5492 H 527.617 3.02156 2.86515 0
M  V30 5493 H 530.214 1.43632 5.15048 0
M  V30 5494 H 530.557 0.0373072 4.16283 0
M  V30 5495 H 531.09 1.64732 3.62089 0
M  V30 5496 H 527.829 4.36137 4.89352 0
M  V30 5497 H 527.349 2.71086 5.35044 0
M  V30 5498 H 529.028 3.25382 5.59227 0
M  V30 5499 N 529.16 -1.33526 0.837174 0
M  V30 5500 C 530.108 -2.31168 0.257698 0
M  V30 5501 C 531.102 -1.5806 -0.609388 0
M  V30 5502 O 532.308 -1.72941 -0.499139 0
M  V30 5503 H 528.683 -0.74922 0.0646058 0
M  V30 5504 H 530.654 -2.77552 1.09578 0
M  V30 5505 C 529.403 -3.4326 -0.553887 0
M  V30 5506 H 528.726 -3.99665 0.104008 0
M  V30 5507 H 530.166 -4.13782 -0.925219 0
M  V30 5508 C 528.625 -2.88965 -1.73207 0
M  V30 5509 O 529.155 -2.85013 -2.83073 0
M  V30 5510 N 527.361 -2.45596 -1.55342 0
M  V30 5511 H 526.908 -2.49009 -0.659705 0
M  V30 5512 H 526.866 -2.0962 -2.34322 0
M  V30 5513 N 530.638 -0.59345 -1.46 0
M  V30 5514 C 531.886 -0.082988 -2.0193 0
M  V30 5515 C 532.207 1.28569 -1.46612 0
M  V30 5516 O 531.477 1.84629 -0.654909 0
M  V30 5517 H 530.057 -0.0276882 -0.746487 0
M  V30 5518 H 532.719 -0.771657 -1.78973 0
M  V30 5519 H 531.815 -0.022079 -3.12092 0
M  V30 5520 O 532.155 1.54388 -0.473979 0
M  V30 5521 H 532.846 1.93634 0.0506067 0
M  V30 END ATOM
M  V30 BEGIN BOND
M  V30 END BOND
M  V30 END CTAB
M  END
$$$$
