drugbank_target|P0A6A8 Acyl carrier protein (DB04450; DB08404; DB08405)
 OpenBabel12092120473D

  0  0  0     0  0            999 V3000
M  V30 BEGIN CTAB
M  V30 COUNTS 1188 1192 0 0 0
M  V30 BEGIN ATOM
M  V30 1 H -0.908 1.98254 -0.117106 0
M  V30 2 N 0 1.576 0 0
M  V30 3 C 0.933 2.03868 1.02534 0
M  V30 4 C 1.911 0.928543 1.3348 0
M  V30 5 O 3.095 1.19667 1.45644 0
M  V30 6 C 0.222 2.43627 2.35294 0
M  V30 7 C -0.732 3.65373 2.2001 0
M  V30 8 S 0.101 5.13292 1.52614 0
M  V30 9 C 1.257 5.56322 2.86805 0
M  V30 10 H 1.49 2.90518 0.631377 0
M  V30 11 H -0.977 1.52953 0.210867 0
M  V30 12 H 0.981 2.67203 3.11629 0
M  V30 13 H -0.358 1.57376 2.7183 0
M  V30 14 H -1.165 3.90944 3.18086 0
M  V30 15 H -1.563 3.418 1.51819 0
M  V30 16 H 0.729 5.58782 3.83104 0
M  V30 17 H 1.672 6.56266 2.65933 0
M  V30 18 H 2.08 4.83886 2.90714 0
M  V30 19 N 1.4781 -0.272755 1.55222 0
M  V30 20 C 2.7031 -1.02683 1.80197 0
M  V30 21 C 3.1281 -1.79142 0.573551 0
M  V30 22 O 2.4861 -1.74917 -0.476849 0
M  V30 23 C 2.5341 -1.9609 3.02624 0
M  V30 24 O 1.6381 -3.04863 2.77727 0
M  V30 25 H 0.9791 -0.293557 0.595584 0
M  V30 26 H 3.5091 -0.30159 2.02365 0
M  V30 27 H 3.5191 -2.38039 3.31363 0
M  V30 28 H 2.1941 -1.39851 3.91682 0
M  V30 29 H 0.7711 -2.67228 2.60084 0
M  V30 30 N 2.9562 -1.48159 -0.537278 0
M  V30 31 C 4.1842 -1.59454 -1.31841 0
M  V30 32 C 4.5992 -0.252065 -1.8711 0
M  V30 33 O 3.9562 0.757621 -1.66031 0
M  V30 34 C 4.0072 -2.63546 -2.47439 0
M  V30 35 O 3.7282 -3.92583 -1.94449 0
M  V30 36 C 5.2292 -2.85212 -3.39366 0
M  V30 37 H 2.4492 -0.53785 -0.401196 0
M  V30 38 H 4.9932 -1.93932 -0.648891 0
M  V30 39 H 3.1482 -2.31946 -3.1029 0
M  V30 40 H 3.5622 -4.49629 -2.70063 0
M  V30 41 H 5.0362 -3.61863 -4.16844 0
M  V30 42 H 5.5132 -1.93765 -3.94147 0
M  V30 43 H 6.1192 -3.18086 -2.82314 0
M  V30 44 N 4.4343 0.785586 -1.36625 0
M  V30 45 C 5.6833 1.53883 -1.30396 0
M  V30 46 C 5.9963 1.95271 0.113452 0
M  V30 47 O 7.2023 2.69858 0.298142 0
M  V30 48 C 5.6583 2.77808 -2.28802 0
M  V30 49 C 5.2663 2.43574 -3.75999 0
M  V30 50 C 7.0103 3.55783 -2.31558 0
M  V30 51 C 4.9173 3.63919 -4.66173 0
M  V30 52 H 3.8473 0.577678 -0.484566 0
M  V30 53 H 6.4983 0.861705 -1.62009 0
M  V30 54 H 4.8803 3.47339 -1.90188 0
M  V30 55 H 6.0543 1.81916 -4.23371 0
M  V30 56 H 4.3693 1.78803 -3.76056 0
M  V30 57 H 6.9663 4.45205 -2.96137 0
M  V30 58 H 7.3093 3.94644 -1.3252 0
M  V30 59 H 7.8423 2.93235 -2.68809 0
M  V30 60 H 4.5813 3.3015 -5.66287 0
M  V30 61 H 4.1013 4.2473 -4.23515 0
M  V30 62 H 5.7803 4.30901 -4.82632 0
M  V30 63 N 5.9124 1.20967 1.01018 0
M  V30 64 C 6.8224 0.980157 2.13143 0
M  V30 65 C 7.8384 -0.0660665 1.73875 0
M  V30 66 O 9.0144 0.122821 2.01025 0
M  V30 67 C 6.0794 0.54216 3.42435 0
M  V30 68 C 5.1404 1.65999 3.95908 0
M  V30 69 C 4.3734 1.2428 5.19028 0
M  V30 70 O 4.5964 0.114196 5.70286 0
M  V30 71 O 3.5304 2.05271 5.65816 0
M  V30 72 H 7.3564 1.91913 2.35379 0
M  V30 73 H 4.9414 0.994099 1.11526 0
M  V30 74 H 6.8234 0.30744 4.20277 0
M  V30 75 H 5.4984 -0.36815 3.216 0
M  V30 76 H 4.4054 1.94906 3.19316 0
M  V30 77 H 5.7384 2.54753 4.21143 0
M  V30 78 N 7.3905 -1.2043 1.01659 0
M  V30 79 C 8.3005 -2.2689 0.596484 0
M  V30 80 C 9.3165 -1.70107 -0.36599 0
M  V30 81 O 10.4925 -2.00117 -0.226942 0
M  V30 82 C 7.5575 -3.4665 -0.0586659 0
M  V30 83 C 6.6185 -4.18662 0.949751 0
M  V30 84 C 5.8515 -5.32705 0.32577 0
M  V30 85 O 6.0745 -5.63656 -0.874509 0
M  V30 86 O 5.0085 -5.92803 1.04249 0
M  V30 87 H 8.8345 -2.65041 1.4828 0
M  V30 88 H 6.4195 -1.27048 0.786082 0
M  V30 89 H 8.3015 -4.19256 -0.424564 0
M  V30 90 H 6.9765 -3.10375 -0.91918 0
M  V30 91 H 5.8835 -3.48229 1.36702 0
M  V30 92 H 7.2165 -4.58878 1.78023 0
M  V30 93 N 8.8686 -0.792821 -1.36206 0
M  V30 94 C 10.2846 -0.474903 -1.52371 0
M  V30 95 C 10.4846 1.00622 -1.74578 0
M  V30 96 O 9.5406 1.79162 -1.77924 0
M  V30 97 C 10.8536 -1.3083 -2.70747 0
M  V30 98 C 12.4016 -1.30234 -2.84619 0
M  V30 99 C 12.8766 -2.11956 -4.06004 0
M  V30 100 N 14.3676 -2.09419 -4.13156 0
M  V30 101 C 15.1026 -2.69419 -5.06163 0
M  V30 102 N 14.5986 -3.3829 -6.04592 0
M  V30 103 N 16.3916 -2.59134 -4.98804 0
M  V30 104 H 8.5426 -1.75222 -1.20046 0
M  V30 105 H 10.8056 -0.745024 -0.586211 0
M  V30 106 H 10.5116 -2.35881 -2.6087 0
M  V30 107 H 10.3856 -0.95196 -3.6499 0
M  V30 108 H 12.7726 -0.259748 -2.93955 0
M  V30 109 H 12.8536 -1.69847 -1.91274 0
M  V30 110 H 12.4976 -3.16248 -3.97429 0
M  V30 111 H 12.4276 -1.69711 -4.98503 0
M  V30 112 H 14.9186 -1.59297 -3.42685 0
M  V30 113 H 15.2316 -3.81394 -6.7213 0
M  V30 114 H 13.5766 -3.42393 -6.04807 0
M  V30 115 H 16.7676 -2.04927 -4.20859 0
M  V30 116 H 16.9406 -3.06185 -5.711 0
M  V30 117 N 10.3467 1.47872 -0.545128 0
M  V30 118 C 11.5927 2.02793 -0.0166104 0
M  V30 119 C 11.9257 1.41987 1.32489 0
M  V30 120 O 11.2007 0.571045 1.85928 0
M  V30 121 C 11.4837 3.59989 0.0893294 0
M  V30 122 C 11.3367 4.3125 -1.27841 0
M  V30 123 C 12.6557 4.32606 0.808724 0
M  V30 124 H 9.7747 0.736962 -0.00751035 0
M  V30 125 H 12.4167 1.76433 -0.705085 0
M  V30 126 H 10.5667 3.82579 0.675681 0
M  V30 127 H 12.2387 4.20035 -1.90704 0
M  V30 128 H 10.4817 3.92076 -1.85632 0
M  V30 129 H 11.1527 5.39736 -1.15713 0
M  V30 130 H 13.6287 4.14936 0.310992 0
M  V30 131 H 12.5047 5.42251 0.851782 0
M  V30 132 H 12.7657 4.00963 1.86229 0
M  V30 133 N 11.8248 0.280983 1.55075 0
M  V30 134 C 12.7718 -0.603937 2.22758 0
M  V30 135 C 13.7418 -1.1452 1.20309 0
M  V30 136 O 14.9268 -1.19343 1.48869 0
M  V30 137 C 12.0668 -1.77947 2.95684 0
M  V30 138 C 11.1798 -1.2715 4.12864 0
M  V30 139 C 10.3148 -2.4093 4.7342 0
M  V30 140 C 9.3538 -1.87165 5.82783 0
M  V30 141 N 8.4908 -2.94441 6.37377 0
M  V30 142 H 13.3308 -0.020124 2.97993 0
M  V30 143 H 10.8678 0.00183425 1.471 0
M  V30 144 H 12.8258 -2.47055 3.36184 0
M  V30 145 H 11.4558 -2.33522 2.22861 0
M  V30 146 H 10.5078 -0.473331 3.77444 0
M  V30 147 H 11.8198 -0.837751 4.91715 0
M  V30 148 H 10.9738 -3.18021 5.1667 0
M  V30 149 H 9.7128 -2.87623 3.93859 0
M  V30 150 H 8.7178 -1.08556 5.38976 0
M  V30 151 H 9.9428 -1.41401 6.64216 0
M  V30 152 H 7.8888 -3.40505 5.60707 0
M  V30 153 H 7.8058 -2.55501 7.11516 0
M  V30 154 H 9.0738 -3.71489 6.85285 0
M  V30 155 N 13.3029 -1.57598 0.00835791 0
M  V30 156 C 14.2499 -2.08945 -0.980346 0
M  V30 157 C 15.2199 -0.986738 -1.33614 0
M  V30 158 O 16.4049 -1.25968 -1.43306 0
M  V30 159 C 13.5449 -2.60425 -2.26435 0
M  V30 160 C 12.6579 -3.84628 -1.96685 0
M  V30 161 C 11.7929 -4.24579 -3.19228 0
M  V30 162 C 10.8319 -5.41596 -2.85202 0
M  V30 163 N 9.9689 -5.768 -4.00307 0
M  V30 164 H 14.8089 -2.93148 -0.535551 0
M  V30 165 H 12.3459 -1.44912 -0.252776 0
M  V30 166 H 14.3039 -2.88354 -3.01509 0
M  V30 167 H 12.9339 -1.79083 -2.68568 0
M  V30 168 H 11.9859 -3.63556 -1.11942 0
M  V30 169 H 13.2979 -4.69796 -1.67611 0
M  V30 170 H 12.4519 -4.53834 -4.02641 0
M  V30 171 H 11.1909 -3.38137 -3.51447 0
M  V30 172 H 10.1959 -5.12056 -2.00198 0
M  V30 173 H 11.4209 -6.29721 -2.54222 0
M  V30 174 H 9.3669 -4.93316 -4.32407 0
M  V30 175 H 9.2839 -6.5656 -3.74786 0
M  V30 176 H 10.5519 -6.10652 -4.84484 0
M  V30 177 N 14.781 0.264519 -1.55364 0
M  V30 178 C 16.03 0.992812 -1.75574 0
M  V30 179 C 16.343 1.87142 -0.568979 0
M  V30 180 O 17.549 2.63513 -0.653682 0
M  V30 181 C 16.005 1.81519 -3.10771 0
M  V30 182 C 15.613 0.984839 -4.37041 0
M  V30 183 C 17.357 2.53727 -3.40327 0
M  V30 184 C 15.264 1.80209 -5.63275 0
M  V30 185 H 14.194 0.374412 -0.65447 0
M  V30 186 H 16.845 0.248138 -1.81815 0
M  V30 187 H 15.227 2.60115 -2.98591 0
M  V30 188 H 16.401 0.242455 -4.60162 0
M  V30 189 H 14.716 0.37691 -4.14691 0
M  V30 190 H 17.313 3.15292 -4.3185 0
M  V30 191 H 17.656 3.24447 -2.60845 0
M  V30 192 H 18.189 1.82156 -3.53644 0
M  V30 193 H 14.928 1.13896 -6.45529 0
M  V30 194 H 14.448 2.52022 -5.44284 0
M  V30 195 H 16.127 2.37364 -6.01887 0
M  V30 196 N 16.2591 1.48442 0.529413 0
M  V30 197 C 17.5081 1.55742 1.28169 0
M  V30 198 C 17.8211 0.236511 1.94165 0
M  V30 199 O 19.0271 0.187761 2.7085 0
M  V30 200 C 17.4831 2.74667 2.32564 0
M  V30 201 C 17.0911 4.13402 1.72636 0
M  V30 202 C 18.8351 2.9128 3.08798 0
M  V30 203 C 16.7421 5.23587 2.74975 0
M  V30 204 H 15.6721 0.579796 0.48203 0
M  V30 205 H 18.3231 1.74776 0.559056 0
M  V30 206 H 16.7051 2.49067 3.07866 0
M  V30 207 H 17.8791 4.49022 1.03519 0
M  V30 208 H 16.1941 4.0191 1.08892 0
M  V30 209 H 18.7911 3.70767 3.85274 0
M  V30 210 H 19.1341 2.00757 3.64695 0
M  V30 211 H 19.6671 3.16782 2.40611 0
M  V30 212 H 16.4061 6.16076 2.23897 0
M  V30 213 H 15.9261 4.92454 3.42417 0
M  V30 214 H 17.6051 5.51724 3.37949 0
M  V30 215 N 17.7372 -0.778329 1.37039 0
M  V30 216 C 18.9852 -1.53361 1.31623 0
M  V30 217 C 19.3062 -1.94739 -0.100831 0
M  V30 218 O 18.5762 -1.65797 -1.04347 0
M  V30 219 H 17.1562 -0.568794 0.484234 0
M  V30 220 H 19.8182 -0.926742 1.71457 0
M  V30 221 H 18.9142 -2.43606 1.95096 0
M  V30 222 N 19.2153 -1.21501 -1.00376 0
M  V30 223 C 20.1253 -0.991447 -2.12621 0
M  V30 224 C 21.1413 0.0568446 -1.73907 0
M  V30 225 O 22.3173 -0.13348 -2.00957 0
M  V30 226 C 19.3823 -0.560312 -3.42142 0
M  V30 227 C 18.4433 -1.68096 -3.95022 0
M  V30 228 C 17.6763 -1.2703 -5.18362 0
M  V30 229 O 17.8993 -0.144438 -5.70217 0
M  V30 230 O 16.8333 -2.08269 -5.64719 0
M  V30 231 H 20.6593 -1.93158 -2.34358 0
M  V30 232 H 18.2443 -0.999999 -1.10997 0
M  V30 233 H 20.1263 -0.329724 -4.20108 0
M  V30 234 H 18.8013 0.351089 -3.2179 0
M  V30 235 H 17.7083 -1.96597 -3.18278 0
M  V30 236 H 19.0413 -2.56983 -4.19786 0
M  V30 237 N 20.6934 1.19889 -1.02296 0
M  V30 238 C 21.6254 2.22334 -0.556787 0
M  V30 239 C 22.6384 1.58674 0.364199 0
M  V30 240 O 23.8274 1.77768 0.161533 0
M  V30 241 C 20.9274 3.38257 0.208694 0
M  V30 242 C 20.1004 4.31504 -0.71577 0
M  V30 243 C 19.1594 5.262 0.00325597 0
M  V30 244 O 18.1854 5.65798 -0.621357 0
M  V30 245 N 19.3874 5.66303 1.27599 0
M  V30 246 H 22.1524 2.62957 -1.43784 0
M  V30 247 H 19.7134 1.34495 -0.901261 0
M  V30 248 H 21.7054 3.98616 0.699111 0
M  V30 249 H 20.2754 2.96472 0.991102 0
M  V30 250 H 19.4954 3.69016 -1.38638 0
M  V30 251 H 20.7834 4.9072 -1.34428 0
M  V30 252 H 20.1814 5.36155 1.80429 0
M  V30 253 H 18.7384 6.28942 1.71102 0
M  V30 254 N 22.1715 0.800033 1.35784 0
M  V30 255 C 23.1015 0.220184 2.3246 0
M  V30 256 C 24.0825 -0.65073 1.57161 0
M  V30 257 O 25.2675 -0.582359 1.85263 0
M  V30 258 C 22.3975 -0.637353 3.41402 0
M  V30 259 C 21.3515 0.134531 4.27789 0
M  V30 260 C 20.6775 -0.844285 5.27992 0
M  V30 261 C 21.9775 1.32979 5.05088 0
M  V30 262 H 23.6715 1.02787 2.81203 0
M  V30 263 H 21.2175 0.495717 1.35199 0
M  V30 264 H 23.1705 -1.05302 4.08031 0
M  V30 265 H 21.8945 -1.47785 2.91251 0
M  V30 266 H 20.5535 0.531296 3.6273 0
M  V30 267 H 20.2015 -1.68011 4.74111 0
M  V30 268 H 19.9015 -0.332184 5.8666 0
M  V30 269 H 21.4255 -1.2583 5.97494 0
M  V30 270 H 22.8395 0.98934 5.64699 0
M  V30 271 H 21.2365 1.77593 5.7322 0
M  V30 272 H 22.3065 2.11978 4.36111 0
M  V30 273 N 23.6496 -1.47581 0.552962 0
M  V30 274 C 24.8976 -2.02082 0.0272703 0
M  V30 275 C 25.2186 -1.4301 -1.32563 0
M  V30 276 O 24.4886 -0.603745 -1.86365 0
M  V30 277 H 23.0686 -0.746966 0.00709182 0
M  V30 278 H 25.7306 -1.81033 0.722008 0
M  V30 279 H 24.8266 -3.12034 -0.0639951 0
M  V30 280 N 25.1277 -0.289203 -1.54924 0
M  V30 281 C 26.3737 0.323998 -2.00195 0
M  V30 282 C 26.7067 1.54441 -1.17735 0
M  V30 283 O 25.9817 1.92875 -0.250878 0
M  V30 284 C 26.2647 0.692276 -3.53383 0
M  V30 285 C 26.1177 -0.536457 -4.46589 0
M  V30 286 C 27.4367 1.52335 -4.12895 0
M  V30 287 H 24.5557 0.116289 -0.727768 0
M  V30 288 H 27.1977 -0.398954 -1.85764 0
M  V30 289 H 25.3477 1.30822 -3.65811 0
M  V30 290 H 27.0197 -1.17499 -4.46085 0
M  V30 291 H 25.2627 -1.17192 -4.1767 0
M  V30 292 H 25.9337 -0.234806 -5.515 0
M  V30 293 H 28.4097 1.00302 -4.0383 0
M  V30 294 H 27.2857 1.74982 -5.20262 0
M  V30 295 H 27.5467 2.50886 -3.64018 0
M  V30 296 N 26.6058 1.57591 -0.0167156 0
M  V30 297 C 27.5528 2.09462 0.969251 0
M  V30 298 C 28.5228 0.99381 1.33089 0
M  V30 299 O 29.7078 1.26726 1.42636 0
M  V30 300 C 26.8478 2.61622 2.25051 0
M  V30 301 C 25.9608 3.85666 1.94642 0
M  V30 302 C 25.0958 4.26266 3.16972 0
M  V30 303 C 24.1348 5.43101 2.82326 0
M  V30 304 N 23.2718 5.78915 3.97243 0
M  V30 305 H 28.1118 2.93428 0.519997 0
M  V30 306 H 25.6488 1.45044 0.245087 0
M  V30 307 H 27.6068 2.89949 2.99976 0
M  V30 308 H 26.2368 1.80505 2.67615 0
M  V30 309 H 25.2888 3.64145 1.10013 0
M  V30 310 H 26.6008 4.70678 1.65117 0
M  V30 311 H 25.7548 4.55963 4.00228 0
M  V30 312 H 24.4938 3.39996 3.49648 0
M  V30 313 H 23.4988 5.1311 1.97479 0
M  V30 314 H 24.7238 6.3106 2.50879 0
M  V30 315 H 22.6698 4.95602 4.29785 0
M  V30 316 H 22.5868 6.58539 3.71299 0
M  V30 317 H 23.8548 6.13212 4.81239 0
M  V30 318 N 28.0839 -0.256276 1.55502 0
M  V30 319 C 29.0159 -1.33981 1.85962 0
M  V30 320 C 30.0289 -1.44743 0.745212 0
M  V30 321 O 31.2179 -1.4626 1.02324 0
M  V30 322 C 28.3179 -2.7194 2.02242 0
M  V30 323 C 27.4909 -2.83562 3.33033 0
M  V30 324 C 26.5499 -4.02304 3.39172 0
M  V30 325 O 25.5759 -3.92273 4.12444 0
M  V30 326 N 26.7779 -5.15045 2.67784 0
M  V30 327 H 29.5429 -1.08191 2.7949 0
M  V30 328 H 27.1039 -0.446388 1.55624 0
M  V30 329 H 29.0959 -3.49697 2.03701 0
M  V30 330 H 27.6659 -2.90479 1.15502 0
M  V30 331 H 26.8859 -1.92555 3.43971 0
M  V30 332 H 28.1739 -2.88271 4.19258 0
M  V30 333 H 27.5719 -5.26085 2.07968 0
M  V30 334 H 26.1289 -5.90972 2.74947 0
M  V30 335 N 29.562 -1.4872 -0.521534 0
M  V30 336 C 30.472 -1.66569 -1.65203 0
M  V30 337 C 31.488 -0.548197 -1.65139 0
M  V30 338 O 32.664 -0.820339 -1.83936 0
M  V30 339 C 29.729 -1.70917 -3.01642 0
M  V30 340 C 28.79 -2.94356 -3.12495 0
M  V30 341 C 28.023 -2.98487 -4.42426 0
M  V30 342 O 28.246 -2.10786 -5.30024 0
M  V30 343 O 27.18 -3.90746 -4.57822 0
M  V30 344 H 31.006 -2.62298 -1.5308 0
M  V30 345 H 28.591 -1.3222 -0.695565 0
M  V30 346 H 30.473 -1.7625 -3.82771 0
M  V30 347 H 29.148 -0.783633 -3.14071 0
M  V30 348 H 28.055 -2.94552 -2.3063 0
M  V30 349 H 29.388 -3.86322 -3.04986 0
M  V30 350 N 31.0401 0.771051 -1.3745 0
M  V30 351 C 31.9501 1.91538 -1.35464 0
M  V30 352 C 32.9661 1.72134 -0.254123 0
M  V30 353 O 34.1421 1.95358 -0.489626 0
M  V30 354 C 31.2071 3.26671 -1.16134 0
M  V30 355 C 30.2681 3.58723 -2.35831 0
M  V30 356 C 29.5011 4.87409 -2.17413 0
M  V30 357 O 29.7241 5.58506 -1.15876 0
M  V30 358 O 28.6581 5.18539 -3.05615 0
M  V30 359 H 32.4841 1.96165 -2.31847 0
M  V30 360 H 30.0691 0.9139 -1.18187 0
M  V30 361 H 31.9511 4.07499 -1.07345 0
M  V30 362 H 30.6261 3.22894 -0.228251 0
M  V30 363 H 29.5331 2.78127 -2.50192 0
M  V30 364 H 30.8661 3.67243 -3.27709 0
M  V30 365 N 32.5182 1.22032 0.997298 0
M  V30 366 C 33.7642 1.04376 1.73878 0
M  V30 367 C 34.0972 -0.420716 1.89588 0
M  V30 368 O 33.3722 -1.31202 1.43583 0
M  V30 369 C 33.6552 1.75047 3.14691 0
M  V30 370 C 33.5082 3.29062 3.06656 0
M  V30 371 C 34.8272 1.49928 4.13775 0
M  V30 372 H 31.9462 0.380578 0.631133 0
M  V30 373 H 34.5882 1.50312 1.16217 0
M  V30 374 H 32.7382 1.35996 3.63919 0
M  V30 375 H 34.4102 3.7753 2.65083 0
M  V30 376 H 32.6532 3.58967 2.43568 0
M  V30 377 H 33.3242 3.73683 4.06282 0
M  V30 378 H 35.8002 1.83842 3.73285 0
M  V30 379 H 34.6762 2.01878 5.10428 0
M  V30 380 H 34.9372 0.430929 4.39995 0
M  V30 381 N 33.9963 -1.19345 1.0293 0
M  V30 382 C 35.2243 -1.92997 0.745644 0
M  V30 383 C 35.6393 -1.75519 -0.695589 0
M  V30 384 O 34.9963 -1.07737 -1.47306 0
M  V30 385 C 35.0473 -3.44741 1.08792 0
M  V30 386 O 34.7683 -3.61658 2.47256 0
M  V30 387 C 36.2693 -4.35515 0.827129 0
M  V30 388 H 33.4893 -0.613042 0.272801 0
M  V30 389 H 36.0333 -1.51473 1.3739 0
M  V30 390 H 34.1883 -3.84097 0.504832 0
M  V30 391 H 34.6023 -4.55514 2.60015 0
M  V30 392 H 36.0763 -5.40589 1.11658 0
M  V30 393 H 36.5533 -4.38552 -0.238436 0
M  V30 394 H 37.1593 -4.01841 1.39297 0
M  V30 395 N 35.4744 -0.807222 -1.35358 0
M  V30 396 C 36.4224 -0.20614 -2.31685 0
M  V30 397 C 37.4164 0.644445 -1.56663 0
M  V30 398 O 38.6224 0.537538 -1.71786 0
M  V30 399 H 34.9974 -0.0479006 -0.750473 0
M  V30 400 H 36.9684 -1.03369 -2.79924 0
M  V30 401 C 35.7174 0.630212 -3.41941 0
M  V30 402 H 35.0404 -0.0149558 -3.99797 0
M  V30 403 H 36.4804 1.01716 -4.11619 0
M  V30 404 C 34.9394 1.79601 -2.85035 0
M  V30 405 O 35.4694 2.89351 -2.78637 0
M  V30 406 N 33.6754 1.60774 -2.42074 0
M  V30 407 H 33.2224 0.715009 -2.47478 0
M  V30 408 H 33.1804 2.38933 -2.04349 0
M  V30 409 N 36.9525 1.47285 -0.560781 0
M  V30 410 C 37.9005 2.31756 0.197942 0
M  V30 411 C 38.8945 1.43146 0.905854 0
M  V30 412 O 40.1005 1.59891 0.826733 0
M  V30 413 H 36.4755 0.747438 0.0827049 0
M  V30 414 H 38.4465 2.9359 -0.533629 0
M  V30 415 C 37.1955 3.25874 1.21249 0
M  V30 416 H 36.5185 3.94023 0.67719 0
M  V30 417 H 37.9585 3.87803 1.71419 0
M  V30 418 C 36.4175 2.49651 2.26221 0
M  V30 419 O 36.9475 2.24355 3.33208 0
M  V30 420 N 35.1535 2.10597 2.00243 0
M  V30 421 H 34.7005 2.31369 1.13252 0
M  V30 422 H 34.6585 1.59913 2.70694 0
M  V30 423 N 38.4306 0.297415 1.54768 0
M  V30 424 C 39.3936 -0.567375 2.22066 0
M  V30 425 C 40.3936 -1.06409 1.20556 0
M  V30 426 O 41.5836 -0.960691 1.45315 0
M  V30 427 C 38.7156 -1.78517 2.90421 0
M  V30 428 H 39.9086 0.0205534 2.99893 0
M  V30 429 H 37.4616 0.0482163 1.56226 0
M  V30 430 H 38.1966 -2.41303 2.16664 0
M  V30 431 H 37.9816 -1.43669 3.64831 0
M  V30 432 H 39.4716 -2.39964 3.41771 0
M  V30 433 N 39.9087 -1.5758 0.0250728 0
M  V30 434 C 41.1337 -1.96337 -0.668317 0
M  V30 435 C 41.5587 -0.901314 -1.651 0
M  V30 436 O 40.9167 0.138187 -1.80773 0
M  V30 437 C 40.9647 -3.34191 -1.35457 0
M  V30 438 O 40.0687 -3.30269 -2.46974 0
M  V30 439 H 39.4097 -0.640281 -0.175887 0
M  V30 440 H 41.9397 -2.0442 0.0857224 0
M  V30 441 H 41.9497 -3.70331 -1.71228 0
M  V30 442 H 40.6247 -4.11036 -0.634218 0
M  V30 443 H 39.2017 -3.05841 -2.13344 0
M  V30 444 N 41.3868 0.248026 -1.55636 0
M  V30 445 C 42.6338 0.976224 -1.77415 0
M  V30 446 C 42.9618 1.85361 -0.589193 0
M  V30 447 O 42.2168 1.90973 0.427529 0
M  V30 448 C 42.5158 1.86819 -3.04686 0
M  V30 449 C 42.1818 1.14625 -4.36087 0
M  V30 450 C 40.8438 0.946723 -4.71795 0
M  V30 451 C 43.1958 0.634463 -5.17324 0
M  V30 452 C 40.5238 0.223091 -5.86276 0
M  V30 453 C 42.8758 -0.0756959 -6.32555 0
M  V30 454 C 41.5398 -0.286711 -6.66884 0
M  V30 455 H 40.8098 0.357226 -0.649208 0
M  V30 456 H 43.4568 0.246415 -1.89908 0
M  V30 457 H 41.7618 2.66502 -2.872 0
M  V30 458 H 43.4588 2.43329 -3.18735 0
M  V30 459 H 40.0488 1.3117 -4.08035 0
M  V30 460 H 44.2328 0.77616 -4.90193 0
M  V30 461 H 39.4888 0.0491185 -6.1138 0
M  V30 462 H 43.6628 -0.479899 -6.94745 0
M  V30 463 H 41.2898 -0.849389 -7.5544 0
M  V30 464 N 42.8649 1.48995 0.513639 0
M  V30 465 C 44.1109 1.58076 1.27042 0
M  V30 466 C 44.4439 0.261026 1.92438 0
M  V30 467 O 43.7189 -0.734393 1.80103 0
M  V30 468 C 44.0019 2.73091 2.34719 0
M  V30 469 C 43.8549 4.14821 1.73907 0
M  V30 470 C 45.1739 2.83796 3.36375 0
M  V30 471 H 42.2929 0.575391 0.460536 0
M  V30 472 H 44.9349 1.81232 0.570516 0
M  V30 473 H 43.0849 2.53479 2.94416 0
M  V30 474 H 44.7569 4.45917 1.18135 0
M  V30 475 H 42.9999 4.21058 1.0437 0
M  V30 476 H 43.6709 4.91147 2.51949 0
M  V30 477 H 46.1469 3.01611 2.86653 0
M  V30 478 H 45.0229 3.65971 4.09093 0
M  V30 479 H 45.2839 1.92624 3.9793 0
M  V30 480 N 44.343 -0.763751 1.37857 0
M  V30 481 C 45.253 -1.90817 1.36478 0
M  V30 482 C 46.269 -1.71997 0.263248 0
M  V30 483 O 47.445 -1.95095 0.499979 0
M  V30 484 C 44.51 -3.2605 1.17864 0
M  V30 485 C 43.571 -3.57467 2.3773 0
M  V30 486 C 42.804 -4.86249 2.19995 0
M  V30 487 O 43.027 -5.57884 1.18836 0
M  V30 488 O 41.961 -5.16911 3.08361 0
M  V30 489 H 45.787 -1.94933 2.32884 0
M  V30 490 H 43.372 -0.907619 1.1867 0
M  V30 491 H 45.254 -4.06924 1.09504 0
M  V30 492 H 43.929 -3.22769 0.245372 0
M  V30 493 H 42.836 -2.76796 2.51664 0
M  V30 494 H 44.169 -3.655 3.29652 0
M  V30 495 N 45.8211 -1.22559 -0.990812 0
M  V30 496 C 47.0981 -0.959875 -1.70428 0
M  V30 497 C 47.4781 0.524455 -2.04481 0
M  V30 498 O 46.8261 1.49302 -1.72977 0
M  V30 499 C 47.0361 -1.85955 -2.95333 0
M  V30 500 C 48.3841 -2.11687 -3.68068 0
M  V30 501 O 49.4081 -1.8342 -3.05345 0
M  V30 502 O 48.2671 -2.59572 -4.80921 0
M  V30 503 H 45.3611 -0.361154 -0.743974 0
M  V30 504 H 47.9071 -1.33554 -1.04697 0
M  V30 505 H 46.6791 -2.86346 -2.66687 0
M  V30 506 H 46.3021 -1.4856 -3.68803 0
M  V30 507 N 47.2992 1.18797 -1.03562 0
M  V30 508 C 48.2292 2.24472 -0.643019 0
M  V30 509 C 49.2102 1.66433 0.351283 0
M  V30 510 O 50.3952 1.92803 0.232505 0
M  V30 511 C 47.5252 3.473 4.24935e-05 0
M  V30 512 C 46.4792 4.18055 -0.917257 0
M  V30 513 C 45.8052 5.34519 -0.138941 0
M  V30 514 C 47.1052 4.72109 -2.23407 0
M  V30 515 H 48.7992 2.57566 -1.52643 0
M  V30 516 H 46.3452 1.23806 -0.735394 0
M  V30 517 H 48.2982 4.20426 0.286383 0
M  V30 518 H 47.0222 3.13424 0.918299 0
M  V30 519 H 45.6812 3.46821 -1.1879 0
M  V30 520 H 45.3292 4.96891 0.781562 0
M  V30 521 H 45.0292 5.82794 -0.750005 0
M  V30 522 H 46.5532 6.10438 0.1405 0
M  V30 523 H 47.9672 5.36955 -2.00879 0
M  V30 524 H 46.3642 5.30897 -2.79765 0
M  V30 525 H 47.4342 3.89807 -2.88407 0
M  V30 526 N 48.7773 0.814389 1.34928 0
M  V30 527 C 50.0253 0.397636 1.9815 0
M  V30 528 C 50.3463 -1.04069 1.64908 0
M  V30 529 O 49.6163 -1.72121 0.93548 0
M  V30 530 H 48.1963 0.144043 0.732981 0
M  V30 531 H 50.8583 1.04195 1.6471 0
M  V30 532 H 49.9543 0.509688 3.0791 0
M  V30 533 N 50.2554 -1.46986 0.568584 0
M  V30 534 C 51.2184 -2.28624 -0.162366 0
M  V30 535 C 52.2184 -1.37596 -0.832103 0
M  V30 536 O 53.4084 -1.60115 -0.68622 0
M  V30 537 C 50.5404 -3.17596 -1.23878 0
M  V30 538 H 51.7334 -2.94722 0.554899 0
M  V30 539 H 49.2864 -1.52863 0.325976 0
M  V30 540 H 50.0214 -2.56214 -1.98808 0
M  V30 541 H 49.8064 -3.846 -0.763219 0
M  V30 542 H 51.2964 -3.79078 -1.75185 0
M  V30 543 N 51.7335 -0.305618 -1.54608 0
M  V30 544 C 53.0105 0.355652 -1.92339 0
M  V30 545 C 53.3905 1.71324 -1.23335 0
M  V30 546 O 52.7385 2.25473 -0.370702 0
M  V30 547 C 52.9485 0.46572 -3.45879 0
M  V30 548 C 54.2965 0.734426 -4.182 0
M  V30 549 O 55.3205 0.54935 -3.51938 0
M  V30 550 O 54.1795 1.09024 -5.35515 0
M  V30 551 H 51.2735 0.199666 -0.802535 0
M  V30 552 H 53.8195 -0.354017 -1.65966 0
M  V30 553 H 52.5915 -0.488461 -3.88239 0
M  V30 554 H 52.2145 1.22367 -3.78301 0
M  V30 555 N 53.2116 1.57565 -0.0334293 0
M  V30 556 C 54.4366 1.96689 0.657895 0
M  V30 557 C 54.8616 0.910057 1.64619 0
M  V30 558 O 54.2196 -0.128598 1.80843 0
M  V30 559 C 54.2676 3.34905 1.33683 0
M  V30 560 O 53.3716 3.31574 2.45219 0
M  V30 561 H 52.7126 0.641205 0.172489 0
M  V30 562 H 55.2426 2.04372 -0.0965621 0
M  V30 563 H 55.2526 3.71234 1.69262 0
M  V30 564 H 53.9276 4.11366 0.612411 0
M  V30 565 H 52.5046 3.06968 2.11719 0
M  V30 566 N 54.6897 -0.239769 1.55765 0
M  V30 567 C 55.6197 -1.30052 1.9393 0
M  V30 568 C 56.6007 -1.49839 0.805132 0
M  V30 569 O 57.7857 -1.62328 1.06599 0
M  V30 570 C 54.9157 -2.65391 2.2402 0
M  V30 571 C 53.8697 -2.60289 3.39755 0
M  V30 572 C 53.1957 -3.99489 3.55405 0
M  V30 573 C 54.4957 -2.16654 4.75246 0
M  V30 574 H 56.1897 -0.983573 2.82783 0
M  V30 575 H 53.7357 -0.471701 1.36055 0
M  V30 576 H 55.6887 -3.3974 2.49308 0
M  V30 577 H 54.4127 -2.98736 1.32 0
M  V30 578 H 53.0717 -1.88398 3.14487 0
M  V30 579 H 52.7197 -4.30112 2.60793 0
M  V30 580 H 52.4197 -3.96962 4.33238 0
M  V30 581 H 53.9437 -4.75528 3.83022 0
M  V30 582 H 55.3577 -2.80737 4.99859 0
M  V30 583 H 53.7547 -2.25223 5.56232 0
M  V30 584 H 54.8247 -1.11835 4.71827 0
M  V30 585 N 56.1678 -1.49265 -0.50573 0
M  V30 586 C 57.4448 -1.49012 -1.26707 0
M  V30 587 C 57.8248 -0.215205 -2.1 0
M  V30 588 O 57.1728 0.802547 -2.13943 0
M  V30 589 C 57.3828 -2.7663 -2.12783 0
M  V30 590 C 58.7308 -3.25932 -2.72127 0
M  V30 591 O 59.7548 -2.77715 -2.23054 0
M  V30 592 O 58.6138 -4.09897 -3.61451 0
M  V30 593 H 55.7078 -0.596197 -0.57313 0
M  V30 594 H 58.2538 -1.61524 -0.52039 0
M  V30 595 H 57.0258 -3.60916 -1.5118 0
M  V30 596 H 56.6488 -2.66956 -2.94653 0
M  V30 597 N 57.6459 0.756429 -1.3826 0
M  V30 598 C 58.8739 1.54565 -1.3754 0
M  V30 599 C 59.2889 1.88767 0.0355331 0
M  V30 600 O 58.6459 1.52572 1.0014 0
M  V30 601 C 58.6969 2.84654 -2.22833 0
M  V30 602 O 58.4179 2.51912 -3.5843 0
M  V30 603 C 59.9189 3.78807 -2.30261 0
M  V30 604 H 57.1389 0.478353 -0.470553 0
M  V30 605 H 59.6829 0.936381 -1.81803 0
M  V30 606 H 57.8379 3.41965 -1.8204 0
M  V30 607 H 58.2519 3.35325 -4.03308 0
M  V30 608 H 59.7259 4.67045 -2.94233 0
M  V30 609 H 60.2029 4.19038 -1.31545 0
M  V30 610 H 60.8089 3.2742 -2.71433 0
M  V30 611 N 59.124 1.23083 0.984299 0
M  V30 612 C 60.37 1.06214 1.72761 0
M  V30 613 C 60.703 -0.400584 1.90024 0
M  V30 614 O 59.978 -1.29672 1.44967 0
M  V30 615 C 60.261 1.78375 3.12817 0
M  V30 616 C 60.114 3.32296 3.03149 0
M  V30 617 C 61.433 1.54309 4.12161 0
M  V30 618 H 58.552 0.387251 0.627061 0
M  V30 619 H 61.194 1.51536 1.14616 0
M  V30 620 H 59.344 1.39848 3.62457 0
M  V30 621 H 61.016 3.8032 2.61064 0
M  V30 622 H 59.259 3.6153 2.39747 0
M  V30 623 H 59.93 3.77972 4.02295 0
M  V30 624 H 62.406 1.87791 3.71314 0
M  V30 625 H 61.282 2.07281 5.08258 0
M  V30 626 H 61.543 0.477572 4.39513 0
M  V30 627 N 60.6021 -1.18246 1.0419 0
M  V30 628 C 61.5121 -2.25574 0.644476 0
M  V30 629 C 62.5281 -1.70845 -0.329826 0
M  V30 630 O 63.7041 -2.00554 -0.184443 0
M  V30 631 C 60.7691 -3.46697 0.014877 0
M  V30 632 C 59.8301 -4.16554 1.03834 0
M  V30 633 C 59.0631 -5.31894 0.438692 0
M  V30 634 O 59.2861 -5.65385 -0.754752 0
M  V30 635 O 58.2201 -5.90459 1.168 0
M  V30 636 H 62.0461 -2.61836 1.53869 0
M  V30 637 H 59.6311 -1.25352 0.812854 0
M  V30 638 H 61.5131 -4.20062 -0.335538 0
M  V30 639 H 60.1881 -3.12255 -0.853138 0
M  V30 640 H 59.0951 -3.45251 1.44057 0
M  V30 641 H 60.4281 -4.54998 1.87716 0
M  V30 642 N 62.0802 -0.821533 -1.34494 0
M  V30 643 C 63.0102 -0.257138 -2.3208 0
M  V30 644 C 63.9912 0.625645 -1.58176 0
M  V30 645 O 65.1762 0.552811 -1.86166 0
M  V30 646 C 62.3062 0.582958 -3.42372 0
M  V30 647 C 61.2602 -0.202571 -4.2752 0
M  V30 648 C 60.5862 0.760179 -5.29269 0
M  V30 649 C 61.8862 -1.40998 -5.02908 0
M  V30 650 H 63.5802 -1.07247 -2.79532 0
M  V30 651 H 61.1262 -0.517163 -1.34393 0
M  V30 652 H 63.0792 0.987972 -4.09655 0
M  V30 653 H 61.8032 1.43133 -2.93565 0
M  V30 654 H 60.4622 -0.588936 -3.61838 0
M  V30 655 H 60.1102 1.60447 -4.76724 0
M  V30 656 H 59.8102 0.238809 -5.87115 0
M  V30 657 H 61.3342 1.16308 -5.9942 0
M  V30 658 H 62.7482 -1.07905 -5.63054 0
M  V30 659 H 61.1452 -1.86689 -5.70322 0
M  V30 660 H 62.2152 -2.1889 -4.32684 0
M  V30 661 N 63.5583 1.46682 -0.576371 0
M  V30 662 C 64.8043 2.02712 -0.0596221 0
M  V30 663 C 65.1373 1.44765 1.29448 0
M  V30 664 O 64.4123 0.610355 1.84675 0
M  V30 665 C 64.6953 3.60098 0.0129503 0
M  V30 666 C 64.5483 4.28441 -1.3696 0
M  V30 667 C 65.8673 4.34224 0.71678 0
M  V30 668 H 62.9863 0.736637 -0.0231407 0
M  V30 669 H 65.6283 1.74898 -0.742351 0
M  V30 670 H 63.7783 3.83926 0.594378 0
M  V30 671 H 65.4503 4.15896 -1.9957 0
M  V30 672 H 63.6933 3.8805 -1.93907 0
M  V30 673 H 64.3643 5.3716 -1.27135 0
M  V30 674 H 66.8403 4.15503 0.222908 0
M  V30 675 H 65.7163 5.43936 0.73657 0
M  V30 676 H 65.9773 4.04823 1.77682 0
M  V30 677 N 65.0364 0.313813 1.54444 0
M  V30 678 C 65.9694 -0.598866 2.20202 0
M  V30 679 C 66.9474 -1.12318 1.17573 0
M  V30 680 O 68.1314 -1.18899 1.46271 0
M  V30 681 C 65.2584 -1.82071 2.85601 0
M  V30 682 C 64.3044 -1.42851 4.01865 0
M  V30 683 S 65.1374 -0.473512 5.33402 0
M  V30 684 C 66.2934 -1.70286 6.0229 0
M  V30 685 H 66.5264 -0.0402532 2.97273 0
M  V30 686 H 64.0594 0.0979165 1.54089 0
M  V30 687 H 66.0174 -2.52184 3.23904 0
M  V30 688 H 64.6784 -2.3505 2.08351 0
M  V30 689 H 63.8714 -2.33871 4.46453 0
M  V30 690 H 63.4734 -0.807198 3.65185 0
M  V30 691 H 65.7654 -2.64168 6.23876 0
M  V30 692 H 66.7084 -1.29932 6.96077 0
M  V30 693 H 67.1164 -1.88541 5.32083 0
M  V30 694 N 66.5145 -1.57545 0.0417849 0
M  V30 695 C 67.4775 -2.09885 -0.92093 0
M  V30 696 C 68.4775 -1.01648 -1.24596 0
M  V30 697 O 69.6675 -1.27759 -1.1842 0
M  V30 698 C 66.7995 -2.57527 -2.23367 0
M  V30 699 H 67.9925 -2.96236 -0.467382 0
M  V30 700 H 65.5455 -1.5493 -0.206467 0
M  V30 701 H 66.2805 -1.74542 -2.73323 0
M  V30 702 H 66.0655 -3.36613 -2.01083 0
M  V30 703 H 67.5555 -2.98201 -2.92346 0
M  V30 704 N 67.9926 0.231505 -1.5589 0
M  V30 705 C 68.9226 1.29022 -1.94617 0
M  V30 706 C 69.9036 1.4941 -0.813067 0
M  V30 707 O 71.0886 1.6176 -1.07459 0
M  V30 708 C 68.2186 2.64199 -2.25424 0
M  V30 709 C 67.1726 2.58484 -3.41131 0
M  V30 710 C 66.4986 3.97599 -3.57518 0
M  V30 711 C 67.7986 2.1413 -4.76388 0
M  V30 712 H 69.4926 0.968563 -2.83301 0
M  V30 713 H 67.0386 0.464479 -1.36303 0
M  V30 714 H 68.9916 3.38413 -2.51107 0
M  V30 715 H 67.7156 2.98032 -1.33583 0
M  V30 716 H 66.3746 1.86727 -3.15481 0
M  V30 717 H 66.0226 4.28723 -2.6307 0
M  V30 718 H 65.7226 3.94659 -4.35337 0
M  V30 719 H 67.2466 4.7349 -3.85538 0
M  V30 720 H 68.6606 2.78083 -5.01341 0
M  V30 721 H 67.0576 2.2227 -5.57419 0
M  V30 722 H 68.1276 1.09331 -4.72414 0
M  V30 723 N 69.4707 1.49531 0.497807 0
M  V30 724 C 70.3807 1.69176 1.62532 0
M  V30 725 C 71.3967 0.5744 1.64246 0
M  V30 726 O 72.5727 0.849497 1.82608 0
M  V30 727 C 69.6377 1.75695 2.98885 0
M  V30 728 C 68.6987 2.9929 3.07773 0
M  V30 729 C 67.9317 3.05488 4.37622 0
M  V30 730 O 68.1547 2.19192 5.26603 0
M  V30 731 O 67.0887 3.9798 4.51548 0
M  V30 732 H 70.9147 2.647 1.48887 0
M  V30 733 H 68.4997 1.3331 0.674441 0
M  V30 734 H 70.3817 1.82317 3.79919 0
M  V30 735 H 69.0567 0.8335 3.12785 0
M  V30 736 H 67.9637 2.98183 2.25915 0
M  V30 737 H 69.2967 3.91125 2.98801 0
M  V30 738 N 70.9488 -0.749086 1.3866 0
M  V30 739 C 71.8588 -1.89358 1.38494 0
M  V30 740 C 72.8748 -1.71708 0.281476 0
M  V30 741 O 74.0508 -1.94554 0.520643 0
M  V30 742 C 71.1158 -3.24782 1.21316 0
M  V30 743 C 70.1768 -3.54926 2.41508 0
M  V30 744 C 69.4098 -4.83888 2.2514 0
M  V30 745 O 69.6328 -5.56592 1.24746 0
M  V30 746 O 68.5668 -5.13612 3.13826 0
M  V30 747 H 72.3928 -1.92452 2.34938 0
M  V30 748 H 69.9778 -0.894981 1.19626 0
M  V30 749 H 71.8598 -4.05739 1.13814 0
M  V30 750 H 70.5348 -3.2249 0.279592 0
M  V30 751 H 69.4418 -2.74112 2.54585 0
M  V30 752 H 70.7748 -3.61983 3.3351 0
M  V30 753 N 72.4269 -1.23603 -0.977757 0
M  V30 754 C 73.3369 -1.03632 -2.1047 0
M  V30 755 C 74.3529 0.0199435 -1.73989 0
M  V30 756 O 75.5289 -0.176076 -2.00629 0
M  V30 757 C 72.5939 -0.63276 -3.40877 0
M  V30 758 C 71.6549 -1.76437 -3.91367 0
M  V30 759 C 70.8879 -1.37997 -5.15551 0
M  V30 760 O 71.1109 -0.265357 -5.69782 0
M  V30 761 O 70.0449 -2.20201 -5.60174 0
M  V30 762 H 73.8709 -1.98086 -2.30208 0
M  V30 763 H 71.4559 -1.02332 -1.08851 0
M  V30 764 H 73.3379 -0.418761 -4.19314 0
M  V30 765 H 72.0129 0.282754 -3.22463 0
M  V30 766 H 70.9199 -2.03304 -3.14036 0
M  V30 767 H 72.2529 -2.6583 -4.14241 0
M  V30 768 N 73.905 1.17692 -1.04816 0
M  V30 769 C 75.152 1.87859 -0.75599 0
M  V30 770 C 75.48 1.80812 0.716752 0
M  V30 771 O 74.735 1.20819 1.53952 0
M  V30 772 C 75.034 3.37462 -1.17703 0
M  V30 773 C 74.7 3.64713 -2.65133 0
M  V30 774 C 73.362 3.71859 -3.05408 0
M  V30 775 C 75.714 3.76492 -3.60421 0
M  V30 776 C 73.042 3.88271 -4.39843 0
M  V30 777 C 75.394 3.94421 -4.94585 0
M  V30 778 C 74.058 3.99806 -5.3452 0
M  V30 779 H 73.328 0.687425 -0.276636 0
M  V30 780 H 75.975 1.39255 -1.31455 0
M  V30 781 H 74.28 3.88097 -0.537395 0
M  V30 782 H 75.977 3.90109 -0.928218 0
M  V30 783 H 72.567 3.59772 -2.32942 0
M  V30 784 H 76.751 3.70295 -3.30447 0
M  V30 785 H 72.007 3.90687 -4.70291 0
M  V30 786 H 76.181 4.02477 -5.68318 0
M  V30 787 H 73.808 4.12276 -6.38696 0
M  V30 788 N 75.3831 0.828654 1.34056 0
M  V30 789 C 76.6601 0.341809 1.9259 0
M  V30 790 C 77.0401 -1.17158 1.75605 0
M  V30 791 O 76.3881 -1.98132 1.13824 0
M  V30 792 C 76.5981 0.777453 3.4023 0
M  V30 793 C 77.9461 0.779579 4.17382 0
M  V30 794 O 78.9701 0.7204 3.48839 0
M  V30 795 O 77.8291 0.857996 5.39723 0
M  V30 796 H 74.9231 0.0946085 0.821571 0
M  V30 797 H 77.4691 0.913827 1.42994 0
M  V30 798 H 76.2411 1.8196 3.46419 0
M  V30 799 H 75.8641 0.181444 3.97186 0
M  V30 800 N 76.8612 -1.46375 0.584142 0
M  V30 801 C 78.0892 -2.06761 0.0759296 0
M  V30 802 C 78.5042 -1.43266 -1.22965 0
M  V30 803 O 77.8612 -0.538458 -1.74376 0
M  V30 804 C 77.9122 -3.61375 -0.0950384 0
M  V30 805 O 77.6332 -4.22495 1.15887 0
M  V30 806 C 79.1342 -4.38693 -0.637434 0
M  V30 807 H 76.3542 -0.668479 0.0581075 0
M  V30 808 H 78.8982 -1.8798 0.805218 0
M  V30 809 H 77.0532 -3.79578 -0.774554 0
M  V30 810 H 77.4672 -5.15385 0.973598 0
M  V30 811 H 78.9412 -5.47464 -0.706237 0
M  V30 812 H 79.4182 -4.06836 -1.65472 0
M  V30 813 H 80.0242 -4.25299 0.00725967 0
M  V30 814 N 78.3393 -0.321999 -1.54275 0
M  V30 815 C 79.2493 0.553631 -2.27974 0
M  V30 816 C 80.2653 1.13054 -1.32268 0
M  V30 817 O 81.4413 1.15084 -1.6528 0
M  V30 818 C 78.5063 1.69927 -3.02201 0
M  V30 819 C 77.5673 1.15433 -4.1349 0
M  V30 820 C 76.8003 2.24537 -4.84168 0
M  V30 821 O 77.0233 3.44852 -4.5435 0
M  V30 822 O 75.9573 1.90044 -5.7111 0
M  V30 823 H 79.7833 -0.0448345 -3.03667 0
M  V30 824 H 77.3683 -0.0877418 -1.49142 0
M  V30 825 H 79.2503 2.3663 -3.48689 0
M  V30 826 H 77.9253 2.28395 -2.29385 0
M  V30 827 H 76.8323 0.452436 -3.71354 0
M  V30 828 H 78.1653 0.614805 -4.88345 0
M  V30 829 N 79.8174 1.5752 -0.0501392 0
M  V30 830 C 81.0664 1.91827 0.623328 0
M  V30 831 C 81.3794 0.930222 1.72065 0
M  V30 832 O 82.5854 1.1653 2.4522 0
M  V30 833 C 81.0414 3.40692 1.16003 0
M  V30 834 C 80.6494 4.479 0.0948811 0
M  V30 835 C 82.3934 3.84034 1.80881 0
M  V30 836 C 80.3004 5.87879 0.644411 0
M  V30 837 H 79.2304 0.715918 0.236596 0
M  V30 838 H 81.8814 1.83115 -0.118861 0
M  V30 839 H 80.2634 3.44405 1.9545 0
M  V30 840 H 81.4374 4.55775 -0.678675 0
M  V30 841 H 79.7524 4.13892 -0.45637 0
M  V30 842 H 82.3494 4.85984 2.22988 0
M  V30 843 H 82.6924 3.20225 2.6601 0
M  V30 844 H 83.2254 3.82833 1.0809 0
M  V30 845 H 79.9644 6.55282 -0.169229 0
M  V30 846 H 79.4844 5.83567 1.38598 0
M  V30 847 H 81.1634 6.37098 1.12763 0
M  V30 848 N 81.2955 -0.223234 1.56011 0
M  V30 849 C 82.7065 -0.790368 1.69145 0
M  V30 850 C 83.0575 -1.85055 0.651845 0
M  V30 851 O 82.1825 -2.15498 -0.197359 0
M  V30 852 C 82.7775 -1.4404 3.06656 0
M  V30 853 C 81.3365 -1.95494 3.2165 0
M  V30 854 C 80.4835 -0.814506 2.65068 0
M  V30 855 H 83.4345 0.00139011 1.587 0
M  V30 856 H 83.4555 -2.30916 3.0242 0
M  V30 857 H 82.9675 -0.668543 3.82298 0
M  V30 858 H 81.0685 -2.75487 2.50874 0
M  V30 859 H 81.1815 -2.13607 4.28846 0
M  V30 860 H 79.5455 -1.22137 2.23505 0
M  V30 861 H 80.3285 -0.0553515 3.43255 0
M  V30 862 N 82.7736 -1.49793 -0.48987 0
M  V30 863 C 84.0506 -1.50348 -1.25119 0
M  V30 864 C 84.4306 -0.237466 -2.0976 0
M  V30 865 O 83.7786 0.77981 -2.14782 0
M  V30 866 C 83.9886 -2.78872 -2.09837 0
M  V30 867 C 85.3366 -3.288 -2.68655 0
M  V30 868 O 86.3606 -2.80065 -2.20096 0
M  V30 869 O 85.2196 -4.13707 -3.57083 0
M  V30 870 H 82.3136 -0.602242 -0.566775 0
M  V30 871 H 84.8596 -1.62067 -0.503229 0
M  V30 872 H 83.6316 -3.62499 -1.47343 0
M  V30 873 H 83.2546 -2.70066 -2.91805 0
M  V30 874 N 84.2517 0.741722 -1.39055 0
M  V30 875 C 85.1617 1.88621 -1.39496 0
M  V30 876 C 86.1777 1.71557 -0.290578 0
M  V30 877 O 87.3537 1.94275 -0.530954 0
M  V30 878 C 84.4187 3.24134 -1.23037 0
M  V30 879 C 83.4797 3.5364 -2.43387 0
M  V30 880 C 82.7127 4.82687 -2.27703 0
M  V30 881 O 82.9357 5.55922 -1.27696 0
M  V30 882 O 81.8697 5.1194 -3.16545 0
M  V30 883 H 85.6957 1.91203 -2.35956 0
M  V30 884 H 83.2807 0.888625 -1.20099 0
M  V30 885 H 85.1627 4.0513 -1.15964 0
M  V30 886 H 83.8377 3.22337 -0.296691 0
M  V30 887 H 82.7447 2.72758 -2.56035 0
M  V30 888 H 84.0777 3.60209 -3.35425 0
M  V30 889 N 85.7298 1.2412 0.971189 0
M  V30 890 C 86.6398 1.04747 2.09917 0
M  V30 891 C 87.6558 -0.0107162 1.73997 0
M  V30 892 O 88.8318 0.186714 2.00533 0
M  V30 893 C 85.8968 0.650828 3.40537 0
M  V30 894 C 84.9578 1.7851 3.90426 0
M  V30 895 C 84.1908 1.40729 5.14812 0
M  V30 896 O 84.4138 0.29557 5.69634 0
M  V30 897 O 83.3478 2.23168 5.58999 0
M  V30 898 H 87.1738 1.99304 2.29154 0
M  V30 899 H 84.7588 1.02908 1.08307 0
M  V30 900 H 86.6408 0.440992 4.19086 0
M  V30 901 H 85.3158 -0.265649 3.22608 0
M  V30 902 H 84.2228 2.04966 3.12953 0
M  V30 903 H 85.5558 2.68023 4.12825 0
M  V30 904 N 87.2079 -1.17134 1.05439 0
M  V30 905 C 88.1709 -2.19439 0.661764 0
M  V30 906 C 89.1709 -1.58199 -0.288042 0
M  V30 907 O 90.3609 -1.74053 -0.0715803 0
M  V30 908 C 87.4929 -3.40889 -0.0276209 0
M  V30 909 H 88.6859 -2.55688 1.56728 0
M  V30 910 H 86.2389 -1.31259 0.848567 0
M  V30 911 H 86.9739 -3.10187 -0.94629 0
M  V30 912 H 86.7589 -3.86586 0.655238 0
M  V30 913 H 88.2489 -4.16603 -0.288342 0
M  V30 914 N 88.686 -0.835752 -1.33615 0
M  V30 915 C 89.596 -0.269088 -2.33052 0
M  V30 916 C 90.612 0.603251 -1.63208 0
M  V30 917 O 91.788 0.508112 -1.94885 0
M  V30 918 C 88.853 0.549091 -3.42324 0
M  V30 919 C 87.914 -0.347156 -4.27894 0
M  V30 920 C 87.147 0.43207 -5.31948 0
M  V30 921 O 87.37 1.66409 -5.45586 0
M  V30 922 O 86.304 -0.192298 -6.01593 0
M  V30 923 H 90.13 -1.09243 -2.83372 0
M  V30 924 H 87.715 -0.598198 -1.36901 0
M  V30 925 H 89.597 1.01414 -4.09015 0
M  V30 926 H 88.272 1.34955 -2.94226 0
M  V30 927 H 87.179 -0.859979 -3.64081 0
M  V30 928 H 88.512 -1.1123 -4.79467 0
M  V30 929 N 90.1641 1.46063 -0.591896 0
M  V30 930 C 91.1111 2.30399 0.136069 0
M  V30 931 C 92.0811 1.41169 0.875238 0
M  V30 932 O 93.2661 1.70112 0.86409 0
M  V30 933 C 90.4061 3.25804 1.13781 0
M  V30 934 C 89.5191 4.30134 0.401137 0
M  V30 935 C 88.6541 5.12659 1.39121 0
M  V30 936 C 87.6931 6.0873 0.641462 0
M  V30 937 N 86.8301 6.8409 1.58004 0
M  V30 938 H 91.6701 2.92118 -0.589144 0
M  V30 939 H 89.2071 1.43959 -0.302342 0
M  V30 940 H 91.1651 3.79569 1.73156 0
M  V30 941 H 89.7951 2.65872 1.83062 0
M  V30 942 H 88.8471 3.79152 -0.307826 0
M  V30 943 H 90.1591 4.98458 -0.184565 0
M  V30 944 H 89.3131 5.70747 2.05749 0
M  V30 945 H 88.0521 4.44316 2.01084 0
M  V30 946 H 87.0571 5.49786 -0.0385419 0
M  V30 947 H 88.2821 6.79095 0.0270945 0
M  V30 948 H 86.2281 6.18449 2.18761 0
M  V30 949 H 86.1451 7.48709 1.04738 0
M  V30 950 H 87.4131 7.4673 2.23639 0
M  V30 951 N 91.6422 0.330177 1.54103 0
M  V30 952 C 92.8912 -0.271336 1.99867 0
M  V30 953 C 93.2042 -1.52723 1.22209 0
M  V30 954 O 94.4102 -2.20515 1.58383 0
M  V30 955 C 92.8662 -0.534032 3.55916 0
M  V30 956 C 92.4742 0.705193 4.42415 0
M  V30 957 C 94.2182 -1.09514 4.1013 0
M  V30 958 C 92.1252 0.414035 5.89949 0
M  V30 959 H 91.0552 -0.105166 0.74663 0
M  V30 960 H 93.7062 0.443429 1.78062 0
M  V30 961 H 92.0882 -1.30915 3.73734 0
M  V30 962 H 93.2622 1.4804 4.36372 0
M  V30 963 H 91.5772 1.18698 3.99124 0
M  V30 964 H 94.1742 -1.3277 5.17954 0
M  V30 965 H 94.5172 -2.04656 3.62521 0
M  V30 966 H 95.0502 -0.381038 3.95971 0
M  V30 967 H 91.7892 1.33481 6.41766 0
M  V30 968 H 91.3092 -0.323336 5.98928 0
M  V30 969 H 92.9882 0.0263105 6.46995 0
M  V30 970 N 93.1203 -1.57491 0.0584922 0
M  V30 971 C 94.3483 -1.97296 -0.623037 0
M  V30 972 C 94.7633 -0.936338 -1.63946 0
M  V30 973 O 94.1203 0.0785981 -1.82331 0
M  V30 974 C 94.1713 -3.37183 -1.30345 0
M  V30 975 O 93.8923 -4.36872 -0.32773 0
M  V30 976 C 95.3933 -3.91788 -2.07406 0
M  V30 977 H 92.6133 -0.649153 -0.169826 0
M  V30 978 H 95.1573 -2.04106 0.12696 0
M  V30 979 H 93.3123 -3.31502 -2.00463 0
M  V30 980 H 93.7263 -5.18141 -0.814269 0
M  V30 981 H 95.2003 -4.91926 -2.50425 0
M  V30 982 H 95.6773 -3.27609 -2.92521 0
M  V30 983 H 96.2833 -4.00829 -1.42184 0
M  V30 984 N 94.5984 0.214957 -1.56127 0
M  V30 985 C 95.8264 0.955092 -1.83536 0
M  V30 986 C 96.2414 1.77677 -0.638472 0
M  V30 987 O 95.5984 1.78219 0.392968 0
M  V30 988 C 95.6494 1.86734 -3.09536 0
M  V30 989 O 95.3704 1.07887 -4.24608 0
M  V30 990 C 96.8714 2.72082 -3.4998 0
M  V30 991 H 94.0914 0.279611 -0.609966 0
M  V30 992 H 96.6354 0.228197 -2.03223 0
M  V30 993 H 94.7904 2.5481 -2.91806 0
M  V30 994 H 95.2044 1.69872 -4.9623 0
M  V30 995 H 96.6784 3.31782 -4.41163 0
M  V30 996 H 97.1554 3.44806 -2.7204 0
M  V30 997 H 97.7614 2.09409 -3.70173 0
M  V30 998 N 96.0765 1.50051 0.48192 0
M  V30 999 C 97.3225 1.60736 1.2366 0
M  V30 1000 C 97.6555 0.301786 1.91841 0
M  V30 1001 O 96.9305 -0.696025 1.8162 0
M  V30 1002 C 97.2135 2.78009 2.28874 0
M  V30 1003 C 97.0665 4.18416 1.65069 0
M  V30 1004 C 98.3855 2.90867 3.30279 0
M  V30 1005 H 95.5045 0.585031 0.448228 0
M  V30 1006 H 98.1465 1.82402 0.531946 0
M  V30 1007 H 96.2965 2.59667 2.88973 0
M  V30 1008 H 97.9685 4.48322 1.0865 0
M  V30 1009 H 96.2115 4.23177 0.954148 0
M  V30 1010 H 96.8825 4.96381 2.41474 0
M  V30 1011 H 99.3585 3.07623 2.80191 0
M  V30 1012 H 98.2345 3.74566 4.01238 0
M  V30 1013 H 98.4955 2.01021 3.93755 0
M  V30 1014 N 97.5546 -0.734337 1.39446 0
M  V30 1015 C 98.4866 -1.85861 1.34121 0
M  V30 1016 C 99.4996 -1.60871 0.249864 0
M  V30 1017 O 100.689 -1.71093 0.508865 0
M  V30 1018 C 97.7886 -3.21899 1.05991 0
M  V30 1019 C 96.9616 -3.74239 2.26415 0
M  V30 1020 C 96.0206 -4.88841 1.94733 0
M  V30 1021 O 95.0466 -5.02468 2.67422 0
M  V30 1022 N 96.2486 -5.73261 0.913884 0
M  V30 1023 H 99.0136 -1.90934 2.31007 0
M  V30 1024 H 96.5746 -0.915102 1.33557 0
M  V30 1025 H 98.5666 -3.96136 0.828147 0
M  V30 1026 H 97.1366 -3.12091 0.178361 0
M  V30 1027 H 96.3566 -2.91347 2.65539 0
M  V30 1028 H 97.6446 -4.05942 3.06738 0
M  V30 1029 H 97.0426 -5.64842 0.311476 0
M  V30 1030 H 95.5996 -6.47563 0.742015 0
M  V30 1031 N 99.0327 -1.24633 -0.964593 0
M  V30 1032 C 99.9957 -1.0424 -2.04124 0
M  V30 1033 C 100.996 0.00137563 -1.608 0
M  V30 1034 O 102.186 -0.239883 -1.7254 0
M  V30 1035 C 99.3177 -0.580588 -3.3592 0
M  V30 1036 H 100.511 -1.99803 -2.23649 0
M  V30 1037 H 98.0637 -1.06899 -1.14027 0
M  V30 1038 H 98.7987 0.3781 -3.22088 0
M  V30 1039 H 98.5837 -1.33398 -3.6871 0
M  V30 1040 H 100.074 -0.459034 -4.15069 0
M  V30 1041 N 100.511 1.16574 -1.06058 0
M  V30 1042 C 101.474 2.19085 -0.673392 0
M  V30 1043 C 102.474 1.5835 0.279648 0
M  V30 1044 O 103.664 1.74088 0.0623488 0
M  V30 1045 C 100.796 3.40899 0.00954234 0
M  V30 1046 H 101.989 2.54853 -1.58081 0
M  V30 1047 H 99.5418 1.30808 -0.855516 0
M  V30 1048 H 100.277 3.10684 0.929826 0
M  V30 1049 H 100.062 3.86233 -0.67573 0
M  V30 1050 H 101.552 4.1675 0.266245 0
M  V30 1051 N 101.989 0.842826 1.3317 0
M  V30 1052 C 103.238 0.436738 1.96915 0
M  V30 1053 C 103.551 -1.01025 1.67491 0
M  V30 1054 O 104.757 -1.5212 2.24881 0
M  V30 1055 C 103.213 0.730021 3.52418 0
M  V30 1056 C 102.821 2.19195 3.90714 0
M  V30 1057 C 104.565 0.391076 4.22695 0
M  V30 1058 C 102.472 2.42907 5.39212 0
M  V30 1059 H 101.402 0.15958 0.736919 0
M  V30 1060 H 104.053 1.03196 1.51733 0
M  V30 1061 H 102.435 0.0643755 3.95948 0
M  V30 1062 H 103.609 2.8984 3.58231 0
M  V30 1063 H 101.924 2.49425 3.33431 0
M  V30 1064 H 104.521 0.545817 5.31907 0
M  V30 1065 H 104.864 -0.666294 4.10933 0
M  V30 1066 H 105.397 1.01212 3.84709 0
M  V30 1067 H 102.136 3.47224 5.55982 0
M  V30 1068 H 101.656 1.76827 5.73142 0
M  V30 1069 H 103.335 2.2626 6.06148 0
M  V30 1070 N 103.467 -1.45747 0.599634 0
M  V30 1071 C 104.744 -1.95585 0.0240846 0
M  V30 1072 C 105.124 -1.54217 -1.44154 0
M  V30 1073 O 104.472 -0.800903 -2.14004 0
M  V30 1074 C 104.682 -3.48344 0.21385 0
M  V30 1075 C 106.03 -4.24504 0.0904902 0
M  V30 1076 O 107.054 -3.55911 0.143558 0
M  V30 1077 O 105.913 -5.46491 -0.0310766 0
M  V30 1078 H 103.007 -0.82602 -0.0402478 0
M  V30 1079 H 105.553 -1.55951 0.669139 0
M  V30 1080 H 104.325 -3.71397 1.23206 0
M  V30 1081 H 103.948 -3.9485 -0.466842 0
M  V30 1082 N 104.945 -0.338344 -1.53925 0
M  V30 1083 C 106.175 0.260919 -2.04946 0
M  V30 1084 C 106.583 1.45174 -1.2133 0
M  V30 1085 O 105.926 1.82122 -0.240262 0
M  V30 1086 C 105.988 0.744596 -3.51704 0
M  V30 1087 C 105.652 -0.325883 -4.55837 0
M  V30 1088 C 106.649 -1.16687 -5.06636 0
M  V30 1089 C 104.334 -0.478317 -5.00017 0
M  V30 1090 C 106.328 -2.14588 -6.00192 0
M  V30 1091 C 104.015 -1.46073 -5.93385 0
M  V30 1092 C 105.013 -2.29297 -6.4336 0
M  V30 1093 O 104.701 -3.25867 -7.34892 0
M  V30 1094 H 104.433 0.0551207 -0.673749 0
M  V30 1095 H 106.987 -0.486984 -1.99544 0
M  V30 1096 H 105.217 1.54366 -3.54553 0
M  V30 1097 H 106.906 1.26383 -3.85723 0
M  V30 1098 H 107.672 -1.06016 -4.73271 0
M  V30 1099 H 103.551 0.159613 -4.60724 0
M  V30 1100 H 107.095 -2.79585 -6.39123 0
M  V30 1101 H 102.992 -1.56802 -6.26166 0
M  V30 1102 H 103.76 -3.21278 -7.5281 0
M  V30 1103 N 106.423 1.57458 -0.0668435 0
M  V30 1104 C 107.672 1.92477 0.602947 0
M  V30 1105 C 107.985 0.948419 1.71068 0
M  V30 1106 O 109.191 1.19124 2.43971 0
M  V30 1107 C 107.647 3.41903 1.12383 0
M  V30 1108 C 107.255 4.47975 0.04737 0
M  V30 1109 C 108.999 3.85931 1.76797 0
M  V30 1110 C 106.906 5.88529 0.582022 0
M  V30 1111 H 105.836 0.718387 0.22899 0
M  V30 1112 H 108.487 1.82978 -0.138276 0
M  V30 1113 H 106.869 3.46459 1.91787 0
M  V30 1114 H 108.043 4.55029 -0.726978 0
M  V30 1115 H 106.358 4.13384 -0.500243 0
M  V30 1116 H 108.955 4.88322 2.17821 0
M  V30 1117 H 109.298 3.23029 2.62599 0
M  V30 1118 H 109.831 3.83958 1.04024 0
M  V30 1119 H 106.57 6.55065 -0.238721 0
M  V30 1120 H 106.09 5.85004 1.324 0
M  V30 1121 H 107.769 6.38258 1.05999 0
M  V30 1122 N 107.901 -0.206675 1.56239 0
M  V30 1123 C 108.849 -1.27571 1.94495 0
M  V30 1124 C 109.843 -1.47737 0.828862 0
M  V30 1125 O 111.049 -1.48735 1.0138 0
M  V30 1126 H 107.424 -0.428029 0.6183 0
M  V30 1127 H 109.395 -0.925961 2.8367 0
M  V30 1128 C 108.144 -2.61568 2.29079 0
M  V30 1129 H 107.467 -2.46863 3.14482 0
M  V30 1130 H 108.907 -3.35144 2.5972 0
M  V30 1131 C 107.366 -3.17695 1.12123 0
M  V30 1132 O 107.896 -3.99801 0.390153 0
M  V30 1133 N 106.102 -2.76276 0.901097 0
M  V30 1134 H 105.649 -2.09613 1.49733 0
M  V30 1135 H 105.607 -3.1417 0.120319 0
M  V30 1136 N 109.379 -1.50304 -0.473955 0
M  V30 1137 C 110.627 -1.60832 -1.22382 0
M  V30 1138 C 110.948 -0.30939 -1.9253 0
M  V30 1139 O 110.218 0.67296 -1.83978 0
M  V30 1140 H 108.798 -0.592652 -0.454723 0
M  V30 1141 H 111.46 -1.87068 -0.546968 0
M  V30 1142 H 110.556 -2.41803 -1.97327 0
M  V30 1143 N 110.857 0.726932 -1.39834 0
M  V30 1144 C 111.807 1.83232 -1.35683 0
M  V30 1145 C 112.791 1.59155 -0.236295 0
M  V30 1146 O 113.983 1.70522 -0.474488 0
M  V30 1147 C 111.112 3.21246 -1.21062 0
M  V30 1148 C 110.198 3.51125 -2.37849 0
M  V30 1149 N 110.589 3.51889 -3.63329 0
M  V30 1150 C 108.887 3.81527 -2.30982 0
M  V30 1151 C 109.588 3.79791 -4.40606 0
M  V30 1152 N 108.564 3.97971 -3.70297 0
M  V30 1153 H 112.366 1.8214 -2.30656 0
M  V30 1154 H 109.88 0.925545 -1.33444 0
M  V30 1155 H 111.877 4.00387 -1.16171 0
M  V30 1156 H 110.537 3.23572 -0.270458 0
M  V30 1157 H 111.548 3.33008 -3.96643 0
M  V30 1158 H 108.225 3.91411 -1.45272 0
M  V30 1159 H 109.615 3.86783 -5.49408 0
M  V30 1160 N 112.336 1.25143 0.95797 0
M  V30 1161 C 113.268 1.01023 2.05735 0
M  V30 1162 C 114.281 -0.0236902 1.62783 0
M  V30 1163 O 115.47 0.21448 1.77207 0
M  V30 1164 C 112.57 0.504595 3.35122 0
M  V30 1165 C 111.743 1.6039 4.06932 0
M  V30 1166 C 110.802 1.09922 5.14591 0
M  V30 1167 O 109.828 1.79293 5.40225 0
M  V30 1168 N 111.03 -0.0612545 5.80468 0
M  V30 1169 H 113.795 1.95683 2.26998 0
M  V30 1170 H 111.356 1.16303 1.12629 0
M  V30 1171 H 113.348 0.151516 4.04416 0
M  V30 1172 H 111.918 -0.347989 3.10657 0
M  V30 1173 H 111.138 2.12872 3.31782 0
M  V30 1174 H 112.426 2.34252 4.51667 0
M  V30 1175 H 111.824 -0.640985 5.62057 0
M  V30 1176 H 110.381 -0.355395 6.5083 0
M  V30 1177 N 113.814 -1.1601 1.06675 0
M  V30 1178 C 114.777 -2.18724 0.685001 0
M  V30 1179 C 115.777 -1.58496 -0.271246 0
M  V30 1180 O 116.967 -1.74119 -0.0531156 0
M  V30 1181 C 114.099 -3.40899 0.00853648 0
M  V30 1182 H 115.292 -2.54011 1.59431 0
M  V30 1183 H 112.845 -1.30352 0.862441 0
M  V30 1184 H 113.58 -3.11173 -0.913337 0
M  V30 1185 H 113.365 -3.8587 0.696204 0
M  V30 1186 H 114.855 -4.16886 -0.24414 0
M  V30 1187 O 115.331 -0.984177 -1.28048 0
M  V30 1188 H 116.022 -0.630054 -1.83167 0
M  V30 END ATOM
M  V30 BEGIN BOND
M  V30 END BOND
M  V30 END CTAB
M  END
$$$$
