drugbank_target|P0A6C8 Acetylglutamate kinase (DB04075; DB04395; DB04444)
 OpenBabel12092119563D

  0  0  0     0  0            999 V3000
M  V30 BEGIN CTAB
M  V30 COUNTS 3886 3909 0 0 0
M  V30 BEGIN ATOM
M  V30 1 H -0.908 1.98254 -0.117106 0
M  V30 2 N 0 1.576 0 0
M  V30 3 C 0.933 2.03868 1.02534 0
M  V30 4 C 1.911 0.928543 1.3348 0
M  V30 5 O 3.095 1.19667 1.45644 0
M  V30 6 C 0.222 2.43627 2.35294 0
M  V30 7 C -0.732 3.65373 2.2001 0
M  V30 8 S 0.101 5.13292 1.52614 0
M  V30 9 C 1.257 5.56322 2.86805 0
M  V30 10 H 1.49 2.90518 0.631377 0
M  V30 11 H -0.977 1.52953 0.210867 0
M  V30 12 H 0.981 2.67203 3.11629 0
M  V30 13 H -0.358 1.57376 2.7183 0
M  V30 14 H -1.165 3.90944 3.18086 0
M  V30 15 H -1.563 3.418 1.51819 0
M  V30 16 H 0.729 5.58782 3.83104 0
M  V30 17 H 1.672 6.56266 2.65933 0
M  V30 18 H 2.08 4.83886 2.90714 0
M  V30 19 N 1.4781 -0.272755 1.55222 0
M  V30 20 C 2.4111 -1.3627 1.83046 0
M  V30 21 C 3.3891 -1.47536 0.683521 0
M  V30 22 O 4.5731 -1.64157 0.926545 0
M  V30 23 C 1.7001 -2.73908 1.99229 0
M  V30 24 C 0.7461 -2.79925 3.21783 0
M  V30 25 S 1.5791 -2.39146 4.79134 0
M  V30 26 C 2.7351 -3.78758 4.9829 0
M  V30 27 H 2.9681 -1.12464 2.75207 0
M  V30 28 H 0.5011 -0.472398 1.46996 0
M  V30 29 H 2.4591 -3.53171 2.09238 0
M  V30 30 H 1.1201 -2.94965 1.07956 0
M  V30 31 H 0.3131 -3.80946 3.29994 0
M  V30 32 H -0.0849 -2.08683 3.10367 0
M  V30 33 H 2.2071 -4.7403 4.84047 0
M  V30 34 H 3.1501 -3.75499 6.00338 0
M  V30 35 H 3.5581 -3.70072 4.26271 0
M  V30 36 N 2.9562 -1.48159 -0.537278 0
M  V30 37 C 3.9042 -1.62573 -1.66352 0
M  V30 38 C 4.8982 -0.492366 -1.62087 0
M  V30 39 O 6.1042 -0.670847 -1.67032 0
M  V30 40 H 2.4792 -0.511992 -0.550789 0
M  V30 41 H 4.4502 -2.57176 -1.51337 0
M  V30 42 C 3.1992 -1.67583 -3.04649 0
M  V30 43 H 2.5222 -2.54151 -3.08622 0
M  V30 44 H 3.9622 -1.81713 -3.83088 0
M  V30 45 C 2.4212 -0.413039 -3.34358 0
M  V30 46 O 2.9512 0.477259 -3.98855 0
M  V30 47 N 1.1572 -0.286961 -2.8918 0
M  V30 48 H 0.7042 -1.01241 -2.36871 0
M  V30 49 H 0.6622 0.556963 -3.09427 0
M  V30 50 N 4.4343 0.785586 -1.36625 0
M  V30 51 C 5.8453 1.36101 -1.27803 0
M  V30 52 C 6.1963 1.96035 0.0804875 0
M  V30 53 O 5.3213 1.92834 0.982042 0
M  V30 54 C 5.9163 2.47442 -2.31426 0
M  V30 55 C 4.4753 3.00789 -2.26281 0
M  V30 56 C 3.6223 1.73896 -2.15999 0
M  V30 57 H 6.5733 0.586928 -1.47448 0
M  V30 58 H 6.5943 3.2656 -1.95291 0
M  V30 59 H 6.1063 2.03791 -3.30289 0
M  V30 60 H 4.2073 3.48851 -1.30896 0
M  V30 61 H 4.3203 3.57343 -3.19128 0
M  V30 62 H 2.6843 1.9628 -1.62316 0
M  V30 63 H 3.4673 1.32368 -3.16755 0
M  V30 64 N 5.9124 1.20967 1.01018 0
M  V30 65 C 6.8424 0.988272 2.11555 0
M  V30 66 C 7.8234 -0.0849778 1.69888 0
M  V30 67 O 9.0084 0.0738202 1.9406 0
M  V30 68 C 6.1384 0.546528 3.42973 0
M  V30 69 C 5.0924 1.56375 3.9841 0
M  V30 70 C 4.4184 0.97842 5.25672 0
M  V30 71 C 5.7184 2.94922 4.31066 0
M  V30 72 H 7.4124 1.91276 2.30334 0
M  V30 73 H 4.9584 0.921073 1.1069 0
M  V30 74 H 6.9114 0.378839 4.19694 0
M  V30 75 H 5.6354 -0.413598 3.23971 0
M  V30 76 H 4.2944 1.71891 3.23804 0
M  V30 77 H 3.9424 0.0101688 5.02999 0
M  V30 78 H 3.6424 1.65784 5.63728 0
M  V30 79 H 5.1664 0.821939 6.05043 0
M  V30 80 H 6.5804 2.8288 4.9865 0
M  V30 81 H 4.9774 3.5983 4.80253 0
M  V30 82 H 6.0474 3.4616 3.39561 0
M  V30 83 N 7.3905 -1.2043 1.01659 0
M  V30 84 C 8.6395 -1.89118 0.701237 0
M  V30 85 C 8.9525 -1.79705 -0.772358 0
M  V30 86 O 10.1585 -2.43528 -1.20026 0
M  V30 87 C 8.6145 -3.39168 1.20388 0
M  V30 88 C 8.2225 -3.57166 2.70438 0
M  V30 89 C 9.9665 -4.1341 0.963953 0
M  V30 90 C 7.8735 -5.01042 3.14183 0
M  V30 91 H 6.8035 -0.708267 0.2586 0
M  V30 92 H 9.4545 -1.36239 1.22927 0
M  V30 93 H 7.8365 -3.91369 0.603824 0
M  V30 94 H 9.0105 -3.15351 3.35992 0
M  V30 95 H 7.3255 -2.96294 2.92572 0
M  V30 96 H 9.9225 -5.19491 1.26621 0
M  V30 97 H 10.2655 -4.16181 -0.099578 0
M  V30 98 H 10.7985 -3.67309 1.52738 0
M  V30 99 H 7.5375 -5.03426 4.19812 0
M  V30 100 H 7.0575 -5.43668 2.53348 0
M  V30 101 H 8.7365 -5.69623 3.0682 0
M  V30 102 N 8.8686 -0.792821 -1.36206 0
M  V30 103 C 10.1176 -0.363353 -1.984 0
M  V30 104 C 10.4306 1.07172 -1.63626 0
M  V30 105 O 11.6366 1.60362 -2.19081 0
M  V30 106 C 10.0926 -0.59872 -3.54885 0
M  V30 107 C 9.7006 -2.04543 -3.9858 0
M  V30 108 C 11.4446 -0.233926 -4.23855 0
M  V30 109 C 9.3516 -2.22727 -5.47856 0
M  V30 110 H 8.2816 -0.13212 -0.742334 0
M  V30 111 H 10.9326 -0.974935 -1.55458 0
M  V30 112 H 9.3146 0.0826222 -3.95914 0
M  V30 113 H 10.4886 -2.76345 -3.68741 0
M  V30 114 H 8.8036 -2.36879 -3.42458 0
M  V30 115 H 11.4006 -0.348027 -5.33566 0
M  V30 116 H 11.7436 0.818351 -4.08177 0
M  V30 117 H 12.2766 -0.868639 -3.882 0
M  V30 118 H 9.0156 -3.2635 -5.68486 0
M  V30 119 H 8.5356 -1.55434 -5.7931 0
M  V30 120 H 10.2146 -2.03607 -6.14128 0
M  V30 121 N 10.3467 1.47872 -0.545128 0
M  V30 122 C 11.2937 2.29849 0.2093 0
M  V30 123 C 12.2637 1.38313 0.919707 0
M  V30 124 O 13.4487 1.67277 0.917772 0
M  V30 125 C 10.5887 3.22019 1.24088 0
M  V30 126 C 9.7017 4.2864 0.537778 0
M  V30 127 C 8.8367 5.07973 1.5536 0
M  V30 128 C 7.8757 6.06381 0.8348 0
M  V30 129 N 7.0127 6.78717 1.79688 0
M  V30 130 H 11.8527 2.93845 -0.49591 0
M  V30 131 H 9.3897 1.44848 -0.256389 0
M  V30 132 H 11.3477 3.73868 1.85144 0
M  V30 133 H 9.9777 2.59914 1.91428 0
M  V30 134 H 9.0297 3.7994 -0.187046 0
M  V30 135 H 10.3417 4.98793 -0.0258907 0
M  V30 136 H 9.4957 5.63912 2.23803 0
M  V30 137 H 8.2347 4.37693 2.15118 0
M  V30 138 H 7.2397 5.49631 0.136388 0
M  V30 139 H 8.4647 6.78665 0.24313 0
M  V30 140 H 6.4107 6.11177 2.38326 0
M  V30 141 H 6.3277 7.44998 1.28505 0
M  V30 142 H 7.5957 7.39237 2.47282 0
M  V30 143 N 11.8248 0.280983 1.55075 0
M  V30 144 C 12.7548 -0.597469 2.25727 0
M  V30 145 C 13.7358 -1.15417 1.24952 0
M  V30 146 O 14.9208 -1.18722 1.53684 0
M  V30 147 C 12.0508 -1.7789 2.98283 0
M  V30 148 C 11.0048 -1.35347 4.06036 0
M  V30 149 C 10.3308 -2.61846 4.66198 0
M  V30 150 C 11.6308 -0.499354 5.19907 0
M  V30 151 H 13.3248 -0.00824265 2.99399 0
M  V30 152 H 10.8708 -0.0025244 1.44 0
M  V30 153 H 12.8238 -2.39937 3.46422 0
M  V30 154 H 11.5478 -2.39405 2.22155 0
M  V30 155 H 10.2068 -0.756156 3.58717 0
M  V30 156 H 9.8548 -3.21632 3.86732 0
M  V30 157 H 9.5548 -2.3409 5.38958 0
M  V30 158 H 11.0788 -3.24732 5.1709 0
M  V30 159 H 12.4928 -1.02498 5.64063 0
M  V30 160 H 10.8898 -0.316424 5.99265 0
M  V30 161 H 11.9598 0.480459 4.82514 0
M  V30 162 N 13.3029 -1.57598 0.00835791 0
M  V30 163 C 14.5509 -1.90551 -0.6734 0
M  V30 164 C 14.8719 -0.883301 -1.73847 0
M  V30 165 O 14.1419 0.0781442 -1.95744 0
M  V30 166 H 12.7219 -0.703312 -0.251717 0
M  V30 167 H 15.3839 -1.94833 0.0512592 0
M  V30 168 H 14.4799 -2.9056 -1.13935 0
M  V30 169 N 14.781 0.264519 -1.55364 0
M  V30 170 C 16.029 0.993021 -1.76021 0
M  V30 171 C 16.35 1.86511 -0.569099 0
M  V30 172 O 15.62 1.91438 0.415735 0
M  V30 173 H 14.2 0.369639 -0.649135 0
M  V30 174 H 16.862 0.286707 -1.9278 0
M  V30 175 H 15.958 1.62502 -2.66457 0
M  V30 176 N 16.2591 1.48442 0.529413 0
M  V30 177 C 17.5051 1.5672 1.28711 0
M  V30 178 C 17.8381 0.2406 1.92704 0
M  V30 179 O 17.1131 -0.753454 1.79313 0
M  V30 180 C 17.3961 2.70587 2.37603 0
M  V30 181 C 17.2491 4.12953 1.78297 0
M  V30 182 C 18.5681 2.80212 3.39366 0
M  V30 183 H 15.6871 0.570474 0.466613 0
M  V30 184 H 18.3291 1.80617 0.589706 0
M  V30 185 H 16.4791 2.50342 2.97088 0
M  V30 186 H 18.1511 4.44639 1.22858 0
M  V30 187 H 16.3941 4.19927 1.0883 0
M  V30 188 H 17.0651 4.88448 2.57144 0
M  V30 189 H 19.5411 2.98553 2.89836 0
M  V30 190 H 18.4171 3.61611 4.12951 0
M  V30 191 H 18.6781 1.88393 3.99951 0
M  V30 192 N 17.7372 -0.778329 1.37039 0
M  V30 193 C 18.6672 -1.90546 1.34962 0
M  V30 194 C 19.6482 -1.68681 0.219274 0
M  V30 195 O 20.8332 -1.89634 0.418624 0
M  V30 196 C 17.9632 -3.27734 1.14925 0
M  V30 197 C 16.9172 -3.64147 2.24902 0
M  V30 198 C 16.2432 -4.99806 1.89996 0
M  V30 199 C 17.5432 -3.71579 3.67051 0
M  V30 200 H 19.2372 -1.92541 2.29277 0
M  V30 201 H 16.7832 -0.924948 1.10366 0
M  V30 202 H 18.7362 -4.06215 1.12104 0
M  V30 203 H 17.4602 -3.26154 0.170631 0
M  V30 204 H 16.1192 -2.8797 2.26868 0
M  V30 205 H 15.7672 -4.94759 0.906796 0
M  V30 206 H 15.4672 -5.25139 2.63634 0
M  V30 207 H 16.9912 -5.80694 1.88749 0
M  V30 208 H 18.4052 -4.40227 3.67251 0
M  V30 209 H 16.8022 -4.08405 4.39688 0
M  V30 210 H 17.8722 -2.72404 4.01154 0
M  V30 211 N 19.2153 -1.21501 -1.00376 0
M  V30 212 C 20.1453 -0.999478 -2.11028 0
M  V30 213 C 21.1263 0.0759671 -1.6993 0
M  V30 214 O 22.3113 -0.0841106 -1.94018 0
M  V30 215 C 19.4413 -0.564709 -3.42678 0
M  V30 216 C 18.3953 -1.58486 -3.97576 0
M  V30 217 C 17.7213 -1.00628 -5.25146 0
M  V30 218 C 19.0213 -2.97204 -4.29496 0
M  V30 219 H 20.7153 -1.92495 -2.29317 0
M  V30 220 H 18.2613 -0.92693 -1.102 0
M  V30 221 H 20.2143 -0.401091 -4.19487 0
M  V30 222 H 18.9383 0.396411 -3.24185 0
M  V30 223 H 17.5973 -1.73606 -3.22888 0
M  V30 224 H 17.2453 -0.0368439 -5.02987 0
M  V30 225 H 16.9453 -1.68771 -5.62841 0
M  V30 226 H 18.4693 -0.854015 -6.04598 0
M  V30 227 H 19.8833 -2.8552 -4.97143 0
M  V30 228 H 18.2803 -3.62372 -4.78338 0
M  V30 229 H 19.3503 -3.47956 -3.3772 0
M  V30 230 N 20.6934 1.19889 -1.02296 0
M  V30 231 C 21.9704 1.85148 -0.630832 0
M  V30 232 C 22.3504 1.91385 0.890782 0
M  V30 233 O 21.6984 1.42642 1.78509 0
M  V30 234 C 21.9084 3.24442 -1.28602 0
M  V30 235 C 23.2564 4.00663 -1.4055 0
M  V30 236 O 24.2804 3.33818 -1.24273 0
M  V30 237 O 23.1394 5.20387 -1.66913 0
M  V30 238 H 20.2334 0.797613 -0.218499 0
M  V30 239 H 22.7794 1.27427 -1.12074 0
M  V30 240 H 21.5514 3.14704 -2.32545 0
M  V30 241 H 21.1744 3.89802 -0.7836 0
M  V30 242 N 22.1715 0.800033 1.35784 0
M  V30 243 C 23.3965 0.388511 2.03729 0
M  V30 244 C 23.8215 -0.990481 1.5991 0
M  V30 245 O 23.1795 -1.64013 0.772612 0
M  V30 246 C 23.2275 0.4726 3.5749 0
M  V30 247 O 22.3315 -0.51646 4.09153 0
M  V30 248 H 21.6725 0.163271 0.643614 0
M  V30 249 H 24.2025 1.0841 1.73518 0
M  V30 250 H 24.2125 0.34003 4.06581 0
M  V30 251 H 22.8875 1.47848 3.88734 0
M  V30 252 H 21.4645 -0.344673 3.71304 0
M  V30 253 N 23.6496 -1.47581 0.552962 0
M  V30 254 C 24.5596 -2.33743 -0.200353 0
M  V30 255 C 25.5756 -1.47928 -0.916151 0
M  V30 256 O 26.7516 -1.80865 -0.885993 0
M  V30 257 C 23.8166 -3.24536 -1.21973 0
M  V30 258 C 22.8776 -4.26238 -0.511819 0
M  V30 259 C 22.1106 -5.12693 -1.48263 0
M  V30 260 O 22.3336 -5.01525 -2.71714 0
M  V30 261 O 21.2676 -5.93375 -1.00945 0
M  V30 262 H 25.0936 -2.9945 0.506304 0
M  V30 263 H 22.6786 -1.46071 0.313622 0
M  V30 264 H 24.5606 -3.80631 -1.80827 0
M  V30 265 H 23.2356 -2.61462 -1.90839 0
M  V30 266 H 22.1426 -3.73914 0.117799 0
M  V30 267 H 23.4756 -4.92014 0.135308 0
M  V30 268 N 25.1277 -0.289203 -1.54924 0
M  V30 269 C 26.0377 0.601863 -2.26748 0
M  V30 270 C 27.0537 1.15834 -1.2984 0
M  V30 271 O 28.2297 1.18564 -1.62802 0
M  V30 272 C 25.2947 1.76299 -2.98529 0
M  V30 273 C 24.3557 1.24178 -4.10948 0
M  V30 274 C 23.5887 2.34757 -4.79296 0
M  V30 275 O 23.8117 3.54411 -4.46933 0
M  V30 276 O 22.7457 2.02115 -5.66951 0
M  V30 277 H 26.5717 0.0195879 -3.03694 0
M  V30 278 H 24.1567 -0.0560868 -1.49295 0
M  V30 279 H 26.0387 2.43973 -3.43592 0
M  V30 280 H 24.7137 2.33209 -2.24488 0
M  V30 281 H 23.6207 0.531104 -3.70311 0
M  V30 282 H 24.9537 0.718252 -4.86931 0
M  V30 283 N 26.6058 1.57591 -0.0167156 0
M  V30 284 C 27.5688 2.08393 0.954204 0
M  V30 285 C 28.5688 0.996531 1.26198 0
M  V30 286 O 29.7588 1.25858 1.20438 0
M  V30 287 C 26.8908 2.5394 2.27436 0
M  V30 288 H 28.0838 2.95455 0.514451 0
M  V30 289 H 25.6368 1.54582 0.231089 0
M  V30 290 H 26.3718 1.70171 2.76066 0
M  V30 291 H 26.1568 3.33371 2.06412 0
M  V30 292 H 27.6468 2.93512 2.97053 0
M  V30 293 N 28.0839 -0.256276 1.55502 0
M  V30 294 C 29.0139 -1.32102 1.92539 0
M  V30 295 C 29.9949 -1.50684 0.789194 0
M  V30 296 O 31.1799 -1.63449 1.04872 0
M  V30 297 C 28.3099 -2.67752 2.21192 0
M  V30 298 C 27.2639 -2.63878 3.36975 0
M  V30 299 C 26.5899 -4.03236 3.51147 0
M  V30 300 C 27.8899 -2.21682 4.72921 0
M  V30 301 H 29.5839 -1.01351 2.81724 0
M  V30 302 H 27.1299 -0.486105 1.35547 0
M  V30 303 H 29.0829 -3.42365 2.45691 0
M  V30 304 H 27.8069 -3.0012 1.28824 0
M  V30 305 H 26.4659 -1.91722 3.12471 0
M  V30 306 H 26.1139 -4.32854 2.56216 0
M  V30 307 H 25.8139 -4.01535 4.29003 0
M  V30 308 H 27.3379 -4.79563 3.77957 0
M  V30 309 H 28.7519 -2.86023 4.96854 0
M  V30 310 H 27.1489 -2.3111 5.53812 0
M  V30 311 H 28.2189 -1.16833 4.70615 0
M  V30 312 N 29.562 -1.4872 -0.521534 0
M  V30 313 C 30.472 -1.66569 -1.65203 0
M  V30 314 C 31.488 -0.548197 -1.65139 0
M  V30 315 O 32.664 -0.820339 -1.83936 0
M  V30 316 C 29.729 -1.70917 -3.01642 0
M  V30 317 C 28.79 -2.94356 -3.12495 0
M  V30 318 C 28.023 -2.98487 -4.42426 0
M  V30 319 O 28.246 -2.10786 -5.30024 0
M  V30 320 O 27.18 -3.90746 -4.57822 0
M  V30 321 H 31.006 -2.62298 -1.5308 0
M  V30 322 H 28.591 -1.3222 -0.695565 0
M  V30 323 H 30.473 -1.7625 -3.82771 0
M  V30 324 H 29.148 -0.783633 -3.14071 0
M  V30 325 H 28.055 -2.94552 -2.3063 0
M  V30 326 H 29.388 -3.86322 -3.04986 0
M  V30 327 N 31.0401 0.771051 -1.3745 0
M  V30 328 C 32.4561 1.07171 -1.18265 0
M  V30 329 C 32.6561 2.01491 -0.019287 0
M  V30 330 O 31.7121 2.44244 0.640408 0
M  V30 331 C 33.0251 1.66854 -2.50161 0
M  V30 332 C 34.5731 1.79109 -2.56689 0
M  V30 333 C 35.0481 2.42205 -3.88717 0
M  V30 334 N 36.5391 2.49655 -3.90162 0
M  V30 335 C 37.2741 2.9933 -4.8907 0
M  V30 336 N 36.7701 3.49172 -5.98374 0
M  V30 337 N 38.5631 2.9821 -4.76474 0
M  V30 338 H 30.7141 0.144796 -2.11906 0
M  V30 339 H 32.9771 0.126863 -0.939473 0
M  V30 340 H 32.6831 1.05017 -3.35655 0
M  V30 341 H 32.5571 2.6614 -2.673 0
M  V30 342 H 34.9441 2.40077 -1.71601 0
M  V30 343 H 35.0251 0.785757 -2.43433 0
M  V30 344 H 34.6691 1.81875 -4.74219 0
M  V30 345 H 34.5991 3.43345 -3.99276 0
M  V30 346 H 37.0901 2.14383 -3.11205 0
M  V30 347 H 37.4031 3.8548 -6.69795 0
M  V30 348 H 35.7481 3.47275 -6.02018 0
M  V30 349 H 38.9391 2.58572 -3.90203 0
M  V30 350 H 39.1121 3.36613 -5.53711 0
M  V30 351 N 32.5182 1.22032 0.997298 0
M  V30 352 C 33.4482 1.01065 2.10495 0
M  V30 353 C 34.4292 -0.0669542 1.69968 0
M  V30 354 O 35.6142 0.0943987 1.9397 0
M  V30 355 C 32.7442 0.582874 3.42374 0
M  V30 356 C 31.6982 1.60592 3.96729 0
M  V30 357 C 31.0242 1.03412 5.24605 0
M  V30 358 C 32.3242 2.99478 4.27914 0
M  V30 359 H 34.0182 1.93708 2.28292 0
M  V30 360 H 31.5642 0.932761 1.09707 0
M  V30 361 H 33.5172 0.423332 4.19268 0
M  V30 362 H 32.2412 -0.379213 3.24391 0
M  V30 363 H 30.9002 1.75316 3.21963 0
M  V30 364 H 30.5482 0.063518 5.0296 0
M  V30 365 H 30.2482 1.71754 5.61938 0
M  V30 366 H 31.7722 0.886066 6.04137 0
M  V30 367 H 33.1862 2.88153 4.95622 0
M  V30 368 H 31.5832 3.64903 4.76409 0
M  V30 369 H 32.6532 3.49742 3.3587 0
M  V30 370 N 33.9963 -1.19345 1.0293 0
M  V30 371 C 35.2433 -1.89038 0.726008 0
M  V30 372 C 35.5713 -1.79649 -0.745427 0
M  V30 373 O 34.8263 -1.18354 -1.55855 0
M  V30 374 C 35.1253 -3.39292 1.12319 0
M  V30 375 C 34.7913 -3.68885 2.59297 0
M  V30 376 C 33.4533 -3.76671 2.99453 0
M  V30 377 C 35.8053 -3.82178 3.54386 0
M  V30 378 C 33.1333 -3.9522 4.33611 0
M  V30 379 C 35.4853 -4.0224 4.88248 0
M  V30 380 C 34.1493 -4.08259 5.28092 0
M  V30 381 H 33.4193 -0.691739 0.265665 0
M  V30 382 H 36.0663 -1.41328 1.29223 0
M  V30 383 H 34.3713 -3.88903 0.475584 0
M  V30 384 H 36.0683 -3.91536 0.866037 0
M  V30 385 H 32.6583 -3.63433 2.27189 0
M  V30 386 H 36.8423 -3.75505 3.24514 0
M  V30 387 H 32.0983 -3.98119 4.64016 0
M  V30 388 H 36.2723 -4.11468 5.61843 0
M  V30 389 H 33.8993 -4.22384 6.32057 0
M  V30 390 N 35.4744 -0.807222 -1.35358 0
M  V30 391 C 36.6994 -0.399309 -2.0352 0
M  V30 392 C 37.1244 0.981986 -1.60433 0
M  V30 393 O 36.4824 1.63601 -0.781299 0
M  V30 394 C 36.5304 -0.491552 -3.57234 0
M  V30 395 O 35.6344 0.494754 -4.09421 0
M  V30 396 H 34.9754 -0.166682 -0.642739 0
M  V30 397 H 37.5054 -1.09328 -1.72941 0
M  V30 398 H 37.5154 -0.361588 -4.06395 0
M  V30 399 H 36.1904 -1.49907 -3.87944 0
M  V30 400 H 34.7674 0.324977 -3.71481 0
M  V30 401 N 36.9525 1.47285 -0.560781 0
M  V30 402 C 37.9155 2.28535 0.174488 0
M  V30 403 C 38.9155 1.37153 0.839388 0
M  V30 404 O 40.1055 1.59748 0.694702 0
M  V30 405 C 37.2375 3.16934 1.25561 0
M  V30 406 H 38.4305 2.95012 -0.539262 0
M  V30 407 H 35.9835 1.53034 -0.317865 0
M  V30 408 H 36.7185 2.55157 2.00164 0
M  V30 409 H 36.5035 3.8419 0.783604 0
M  V30 410 H 37.9935 3.78143 1.77193 0
M  V30 411 N 38.4306 0.297415 1.54768 0
M  V30 412 C 39.3606 -0.573494 2.26348 0
M  V30 413 C 40.3416 -1.14085 1.26169 0
M  V30 414 O 41.5266 -1.17086 1.54934 0
M  V30 415 C 38.6566 -1.74716 3.00153 0
M  V30 416 C 37.6106 -1.31032 4.07449 0
M  V30 417 C 36.9366 -2.56887 4.68949 0
M  V30 418 C 38.2366 -0.444183 5.20408 0
M  V30 419 H 39.9306 0.0235131 2.99391 0
M  V30 420 H 37.4766 0.0127488 1.43994 0
M  V30 421 H 39.4296 -2.3625 3.48947 0
M  V30 422 H 38.1536 -2.37035 2.24682 0
M  V30 423 H 36.8126 -0.718066 3.59499 0
M  V30 424 H 36.4606 -3.17512 3.90122 0
M  V30 425 H 36.1606 -2.2836 5.41411 0
M  V30 426 H 37.6846 -3.19229 5.20505 0
M  V30 427 H 39.0986 -0.9651 5.65118 0
M  V30 428 H 37.4956 -0.252846 5.99567 0
M  V30 429 H 38.5656 0.531609 4.81977 0
M  V30 430 N 39.9087 -1.5758 0.0250728 0
M  V30 431 C 41.1547 -1.91917 -0.655413 0
M  V30 432 C 41.4877 -0.901433 -1.72011 0
M  V30 433 O 40.7627 0.0764069 -1.9435 0
M  V30 434 C 41.0457 -3.36751 -1.27558 0
M  V30 435 C 40.8987 -4.49258 -0.220719 0
M  V30 436 C 42.2177 -3.81469 -2.19475 0
M  V30 437 H 39.3367 -0.697925 -0.23679 0
M  V30 438 H 41.9787 -1.89825 0.0815036 0
M  V30 439 H 40.1287 -3.38664 -1.90365 0
M  V30 440 H 41.8007 -4.59478 0.409601 0
M  V30 441 H 40.0437 -4.31415 0.454264 0
M  V30 442 H 40.7147 -5.47618 -0.694175 0
M  V30 443 H 43.1907 -3.81266 -1.66659 0
M  V30 444 H 42.0667 -4.83512 -2.59822 0
M  V30 445 H 42.3277 -3.16744 -3.08424 0
M  V30 446 N 41.3868 0.248026 -1.55636 0
M  V30 447 C 42.3348 1.32683 -1.91045 0
M  V30 448 C 43.3288 1.49883 -0.789401 0
M  V30 449 O 44.5348 1.51371 -0.974007 0
M  V30 450 H 40.9098 0.444272 -0.606734 0
M  V30 451 H 42.8808 1.00085 -2.81115 0
M  V30 452 C 41.6298 2.6755 -2.22064 0
M  V30 453 H 40.9528 2.55114 -3.07826 0
M  V30 454 H 42.3928 3.41912 -2.50743 0
M  V30 455 C 40.8518 3.20556 -1.0366 0
M  V30 456 O 41.3818 4.00695 -0.284016 0
M  V30 457 N 39.5878 2.78568 -0.82753 0
M  V30 458 H 39.1348 2.1351 -1.44123 0
M  V30 459 H 39.0928 3.14378 -0.0369803 0
M  V30 460 N 42.8649 1.48995 0.513639 0
M  V30 461 C 44.0949 1.61297 1.291 0
M  V30 462 C 44.5029 0.278656 1.87137 0
M  V30 463 O 43.8459 -0.744325 1.67945 0
M  V30 464 C 43.9079 2.61326 2.46879 0
M  V30 465 C 43.5719 4.05993 2.09807 0
M  V30 466 C 44.5689 4.93183 1.64519 0
M  V30 467 C 42.2539 4.51642 2.19829 0
M  V30 468 C 44.2479 6.24056 1.2974 0
M  V30 469 C 41.9349 5.82532 1.84662 0
M  V30 470 C 42.9329 6.68562 1.3969 0
M  V30 471 O 42.6209 7.97014 1.04992 0
M  V30 472 H 42.3529 0.546236 0.39825 0
M  V30 473 H 44.9069 1.95673 0.62459 0
M  V30 474 H 43.1369 2.22104 3.16554 0
M  V30 475 H 44.8259 2.6329 3.08923 0
M  V30 476 H 45.5919 4.59147 1.56233 0
M  V30 477 H 41.4709 3.84855 2.53786 0
M  V30 478 H 45.0149 6.91161 0.945659 0
M  V30 479 H 40.9119 6.16099 1.92594 0
M  V30 480 H 41.6799 8.09913 1.18249 0
M  V30 481 N 44.343 -0.763751 1.37857 0
M  V30 482 C 45.759 -1.06542 1.18832 0
M  V30 483 C 45.959 -2.01478 0.0299722 0
M  V30 484 O 45.015 -2.4458 -0.627447 0
M  V30 485 C 46.328 -1.65525 2.51042 0
M  V30 486 C 47.876 -1.77745 2.57635 0
M  V30 487 C 48.351 -2.4014 3.89996 0
M  V30 488 N 49.842 -2.47582 3.91481 0
M  V30 489 C 50.577 -2.96732 4.9065 0
M  V30 490 N 50.073 -3.45993 6.00217 0
M  V30 491 N 51.866 -2.95679 4.78048 0
M  V30 492 H 44.017 -0.133556 2.1198 0
M  V30 493 H 46.28 -0.121879 0.940133 0
M  V30 494 H 45.986 -1.03236 3.36207 0
M  V30 495 H 45.86 -2.64719 2.68707 0
M  V30 496 H 48.247 -2.39164 1.72872 0
M  V30 497 H 48.328 -0.772836 2.43846 0
M  V30 498 H 47.972 -1.79358 4.75177 0
M  V30 499 H 47.902 -3.41223 4.01092 0
M  V30 500 H 50.393 -2.1273 3.12337 0
M  V30 501 H 50.706 -3.81922 6.7183 0
M  V30 502 H 49.051 -3.44077 6.03851 0
M  V30 503 H 52.242 -2.56499 3.91568 0
M  V30 504 H 52.415 -3.33672 5.55488 0
M  V30 505 N 45.8211 -1.22559 -0.990812 0
M  V30 506 C 46.7311 -1.01394 -2.11557 0
M  V30 507 C 47.7471 0.0383962 -1.73958 0
M  V30 508 O 48.9231 -0.154787 -2.00804 0
M  V30 509 C 45.9881 -0.596569 -3.41529 0
M  V30 510 C 45.0491 -1.72276 -3.93217 0
M  V30 511 C 44.2821 -1.32521 -5.16985 0
M  V30 512 O 44.5051 -0.204909 -5.70032 0
M  V30 513 O 43.4391 -2.14247 -5.62478 0
M  V30 514 H 47.2651 -1.95633 -2.32296 0
M  V30 515 H 44.8501 -1.01172 -1.0993 0
M  V30 516 H 46.7321 -0.374263 -4.19735 0
M  V30 517 H 45.4071 0.316939 -3.22145 0
M  V30 518 H 44.3141 -1.99961 -3.16174 0
M  V30 519 H 45.6471 -2.61421 -4.17037 0
M  V30 520 N 47.2992 1.18797 -1.03562 0
M  V30 521 C 48.5242 1.9314 -0.755764 0
M  V30 522 C 48.9492 1.7537 0.68022 0
M  V30 523 O 48.3072 1.06046 1.47051 0
M  V30 524 C 48.3552 3.42747 -1.12058 0
M  V30 525 O 47.4592 4.11683 -0.243124 0
M  V30 526 H 46.8002 0.602724 -0.278604 0
M  V30 527 H 49.3302 1.50678 -1.3841 0
M  V30 528 H 49.3402 3.93437 -1.08035 0
M  V30 529 H 48.0152 3.55002 -2.16672 0
M  V30 530 H 46.5922 3.71323 -0.342539 0
M  V30 531 N 48.7773 0.814389 1.34928 0
M  V30 532 C 49.7273 0.202752 2.27097 0
M  V30 533 C 50.7113 -0.62799 1.48139 0
M  V30 534 O 51.9033 -0.483969 1.70255 0
M  V30 535 C 49.0323 -0.64146 3.37254 0
M  V30 536 C 48.1183 0.19944 4.23631 0
M  V30 537 N 48.5093 1.26628 4.89693 0
M  V30 538 C 46.8073 -0.0176433 4.45997 0
M  V30 539 C 47.5083 1.78031 5.53787 0
M  V30 540 N 46.4843 1.08553 5.32651 0
M  V30 541 H 50.2863 1.01893 2.75672 0
M  V30 542 H 47.8003 0.656332 1.48546 0
M  V30 543 H 49.7973 -1.09575 4.02243 0
M  V30 544 H 48.4573 -1.4559 2.9023 0
M  V30 545 H 49.4683 1.64901 4.90946 0
M  V30 546 H 46.1453 -0.800601 4.09752 0
M  V30 547 H 47.5353 2.67236 6.16469 0
M  V30 548 N 50.2554 -1.46986 0.568584 0
M  V30 549 C 51.1874 -2.28233 -0.210337 0
M  V30 550 C 52.2004 -1.37682 -0.868767 0
M  V30 551 O 53.3894 -1.62406 -0.740705 0
M  V30 552 C 50.4894 -3.12293 -1.3163 0
M  V30 553 C 49.6624 -4.30878 -0.7525 0
M  V30 554 C 48.7214 -4.96445 -1.74439 0
M  V30 555 O 47.7474 -5.54482 -1.286 0
M  V30 556 N 48.9494 -4.92171 -3.07812 0
M  V30 557 H 51.7144 -2.95723 0.486648 0
M  V30 558 H 49.2754 -1.56742 0.405409 0
M  V30 559 H 51.2674 -3.53022 -1.97883 0
M  V30 560 H 49.8374 -2.46971 -1.91636 0
M  V30 561 H 49.0574 -3.94104 0.0871128 0
M  V30 562 H 50.3454 -5.07558 -0.35536 0
M  V30 563 H 49.7434 -4.46239 -3.47688 0
M  V30 564 H 48.3004 -5.36884 -3.69592 0
M  V30 565 N 51.7335 -0.305618 -1.54608 0
M  V30 566 C 53.1495 0.0476228 -1.59529 0
M  V30 567 C 53.3495 1.52025 -1.32252 0
M  V30 568 O 52.4055 2.27368 -1.09818 0
M  V30 569 C 53.7185 -0.354471 -2.98603 0
M  V30 570 C 55.2665 -0.303622 -3.11524 0
M  V30 571 C 55.7415 -0.680608 -4.52915 0
M  V30 572 N 57.2325 -0.63332 -4.5885 0
M  V30 573 C 57.9675 -0.897432 -5.66334 0
M  V30 574 N 57.4635 -1.22775 -6.81834 0
M  V30 575 N 59.2565 -0.824186 -5.56025 0
M  V30 576 H 51.4075 -1.2653 -1.70599 0
M  V30 577 H 53.6705 -0.513291 -0.797017 0
M  V30 578 H 53.3765 -1.3798 -3.23503 0
M  V30 579 H 53.2505 0.289568 -3.76087 0
M  V30 580 H 55.6375 0.712472 -2.8637 0
M  V30 581 H 55.7185 -0.982348 -2.36185 0
M  V30 582 H 55.3625 -1.69453 -4.78799 0
M  V30 583 H 55.2925 0.0202385 -5.26596 0
M  V30 584 H 57.7835 -0.389138 -3.75891 0
M  V30 585 H 58.0965 -1.41513 -7.59733 0
M  V30 586 H 56.4415 -1.26583 -6.83375 0
M  V30 587 H 59.6325 -0.565748 -4.64669 0
M  V30 588 H 59.8055 -1.03338 -6.39707 0
M  V30 589 N 53.2116 1.57565 -0.0334293 0
M  V30 590 C 54.6226 1.79746 0.504798 0
M  V30 591 C 54.9736 0.944091 1.71992 0
M  V30 592 O 54.0986 0.155694 2.15839 0
M  V30 593 C 54.6936 3.25997 0.922567 0
M  V30 594 C 53.2526 3.49159 1.40588 0
M  V30 595 C 52.3996 2.74785 0.372633 0
M  V30 596 H 55.3506 1.56565 -0.259436 0
M  V30 597 H 55.3716 3.35945 1.78666 0
M  V30 598 H 54.8836 3.88081 0.0379825 0
M  V30 599 H 52.9846 2.92332 2.31025 0
M  V30 600 H 53.0976 4.57873 1.41028 0
M  V30 601 H 51.4616 2.40391 0.841672 0
M  V30 602 H 52.2446 3.39587 -0.503559 0
M  V30 603 N 54.6897 -0.239769 1.55765 0
M  V30 604 C 55.6197 -1.30052 1.9393 0
M  V30 605 C 56.6007 -1.49839 0.805132 0
M  V30 606 O 57.7857 -1.62328 1.06599 0
M  V30 607 C 54.9157 -2.65391 2.2402 0
M  V30 608 C 53.8697 -2.60289 3.39755 0
M  V30 609 C 53.1957 -3.99489 3.55405 0
M  V30 610 C 54.4957 -2.16654 4.75246 0
M  V30 611 H 56.1897 -0.983573 2.82783 0
M  V30 612 H 53.7357 -0.471701 1.36055 0
M  V30 613 H 55.6887 -3.3974 2.49308 0
M  V30 614 H 54.4127 -2.98736 1.32 0
M  V30 615 H 53.0717 -1.88398 3.14487 0
M  V30 616 H 52.7197 -4.30112 2.60793 0
M  V30 617 H 52.4197 -3.96962 4.33238 0
M  V30 618 H 53.9437 -4.75528 3.83022 0
M  V30 619 H 55.3577 -2.80737 4.99859 0
M  V30 620 H 53.7547 -2.25223 5.56232 0
M  V30 621 H 54.8247 -1.11835 4.71827 0
M  V30 622 N 56.1678 -1.49265 -0.50573 0
M  V30 623 C 57.4138 -1.58748 -1.26202 0
M  V30 624 C 57.7468 -0.271227 -1.92297 0
M  V30 625 O 57.0218 0.724831 -1.80489 0
M  V30 626 C 57.3048 -2.74332 -2.33268 0
M  V30 627 C 57.1578 -4.15737 -1.71705 0
M  V30 628 C 58.4768 -2.85576 -3.34865 0
M  V30 629 H 55.5958 -0.577826 -0.457478 0
M  V30 630 H 58.2378 -1.81532 -0.560897 0
M  V30 631 H 56.3878 -2.55036 -2.93068 0
M  V30 632 H 58.0598 -4.46537 -1.15769 0
M  V30 633 H 56.3028 -4.21605 -1.02135 0
M  V30 634 H 56.9738 -4.92477 -2.49341 0
M  V30 635 H 59.4498 -3.03127 -2.8505 0
M  V30 636 H 58.3258 -3.68135 -4.07146 0
M  V30 637 H 58.5868 -1.94732 -3.96903 0
M  V30 638 N 57.6459 0.756429 -1.3826 0
M  V30 639 C 58.8949 1.51082 -1.3363 0
M  V30 640 C 59.2079 1.95467 0.0720068 0
M  V30 641 O 60.4139 2.7043 0.240834 0
M  V30 642 C 58.8699 2.72893 -2.34644 0
M  V30 643 C 58.4779 2.35544 -3.81081 0
M  V30 644 C 60.2219 3.50791 -2.39052 0
M  V30 645 C 58.1289 3.53948 -4.73787 0
M  V30 646 H 57.0589 0.56727 -0.49671 0
M  V30 647 H 59.7099 0.827147 -1.638 0
M  V30 648 H 58.0919 3.43227 -1.97513 0
M  V30 649 H 59.2659 1.72894 -4.27135 0
M  V30 650 H 57.5809 1.70786 -3.79764 0
M  V30 651 H 60.1779 4.38823 -3.05513 0
M  V30 652 H 60.5209 3.91745 -1.40861 0
M  V30 653 H 61.0539 2.87467 -2.74968 0
M  V30 654 H 57.7929 3.18064 -5.73163 0
M  V30 655 H 57.3129 4.15651 -4.32428 0
M  V30 656 H 58.9919 4.20566 -4.91663 0
M  V30 657 N 59.124 1.23083 0.984299 0
M  V30 658 C 60.37 1.06214 1.72761 0
M  V30 659 C 60.703 -0.400584 1.90024 0
M  V30 660 O 59.978 -1.29672 1.44967 0
M  V30 661 C 60.261 1.78375 3.12817 0
M  V30 662 C 60.114 3.32296 3.03149 0
M  V30 663 C 61.433 1.54309 4.12161 0
M  V30 664 H 58.552 0.387251 0.627061 0
M  V30 665 H 61.194 1.51536 1.14616 0
M  V30 666 H 59.344 1.39848 3.62457 0
M  V30 667 H 61.016 3.8032 2.61064 0
M  V30 668 H 59.259 3.6153 2.39747 0
M  V30 669 H 59.93 3.77972 4.02295 0
M  V30 670 H 62.406 1.87791 3.71314 0
M  V30 671 H 61.282 2.07281 5.08258 0
M  V30 672 H 61.543 0.477572 4.39513 0
M  V30 673 N 60.6021 -1.18246 1.0419 0
M  V30 674 C 61.5521 -2.19843 0.604392 0
M  V30 675 C 62.5361 -1.56962 -0.353814 0
M  V30 676 O 63.7281 -1.76156 -0.17267 0
M  V30 677 C 60.8571 -3.43287 -0.0298975 0
M  V30 678 C 59.9431 -4.13288 0.951531 0
M  V30 679 N 60.3341 -4.59271 2.11906 0
M  V30 680 C 58.6321 -4.39165 0.7778 0
M  V30 681 C 59.3331 -5.13173 2.73912 0
M  V30 682 N 58.3091 -5.04763 2.01779 0
M  V30 683 H 62.1111 -2.53089 1.4941 0
M  V30 684 H 59.6251 -1.34465 0.910658 0
M  V30 685 H 61.6221 -4.15334 -0.361037 0
M  V30 686 H 60.2821 -3.11537 -0.915127 0
M  V30 687 H 61.2931 -4.5368 2.49789 0
M  V30 688 H 57.9701 -4.17461 -0.0572331 0
M  V30 689 H 59.3601 -5.58947 3.72864 0
M  V30 690 N 62.0802 -0.821533 -1.34494 0
M  V30 691 C 63.3282 -0.408139 -1.97936 0
M  V30 692 C 63.6492 1.03193 -1.65457 0
M  V30 693 O 62.9192 1.71622 -0.944595 0
M  V30 694 H 61.4992 -0.147928 -0.732206 0
M  V30 695 H 64.1612 -1.05067 -1.64155 0
M  V30 696 H 63.2572 -0.52601 -3.07635 0
M  V30 697 N 63.5583 1.46682 -0.576371 0
M  V30 698 C 64.8063 2.02013 -0.0594163 0
M  V30 699 C 65.1273 1.45101 1.30271 0
M  V30 700 O 64.3973 0.633317 1.8538 0
M  V30 701 H 62.9773 0.746759 -0.0189745 0
M  V30 702 H 65.6393 1.79862 -0.750717 0
M  V30 703 H 64.7353 3.12097 0.014345 0
M  V30 704 N 65.0364 0.313813 1.54444 0
M  V30 705 C 66.2844 -0.291099 1.99993 0
M  V30 706 C 66.6054 -1.53418 1.20366 0
M  V30 707 O 65.8754 -1.93544 0.302927 0
M  V30 708 H 64.4554 -0.110552 0.738774 0
M  V30 709 H 67.1174 0.428106 1.9014 0
M  V30 710 H 66.2134 -0.554268 3.07139 0
M  V30 711 N 66.5145 -1.57545 0.0417849 0
M  V30 712 C 67.7545 -1.94185 -0.63809 0
M  V30 713 C 68.1185 -0.919339 -1.68559 0
M  V30 714 O 69.3195 -1.17236 -2.41886 0
M  V30 715 C 67.5905 -3.35672 -1.22714 0
M  V30 716 S 69.1495 -3.94256 -1.92633 0
M  V30 717 H 65.9675 -0.679353 -0.209764 0
M  V30 718 H 68.5695 -1.95199 0.108479 0
M  V30 719 H 67.2735 -4.07898 -0.452503 0
M  V30 720 H 66.8045 -3.38132 -2.01073 0
M  V30 721 H 68.8195 -3.7872 -3.20602 0
M  V30 722 N 67.9926 0.231505 -1.5589 0
M  V30 723 C 69.2386 0.95877 -1.78705 0
M  V30 724 C 69.5716 1.8438 -0.609725 0
M  V30 725 O 68.8466 1.90521 0.391426 0
M  V30 726 C 69.1296 1.8062 -3.11526 0
M  V30 727 C 68.9826 0.948328 -4.39689 0
M  V30 728 C 70.3016 2.78585 -3.40703 0
M  V30 729 H 67.4206 0.347129 -0.650131 0
M  V30 730 H 70.0626 0.228259 -1.88624 0
M  V30 731 H 68.2126 2.42902 -3.03201 0
M  V30 732 H 69.8846 0.343016 -4.60023 0
M  V30 733 H 68.1276 0.253314 -4.3306 0
M  V30 734 H 68.7986 1.57543 -5.29041 0
M  V30 735 H 71.2746 2.26439 -3.49091 0
M  V30 736 H 70.1506 3.34988 -4.34826 0
M  V30 737 H 70.4116 3.55825 -2.62375 0
M  V30 738 N 69.4707 1.49531 0.497807 0
M  V30 739 C 70.7167 1.59415 1.25358 0
M  V30 740 C 71.0497 0.281422 1.9215 0
M  V30 741 O 70.3247 -0.715249 1.80871 0
M  V30 742 C 70.6077 2.75566 2.3181 0
M  V30 743 C 70.4607 4.16642 1.69498 0
M  V30 744 C 71.7797 2.87347 3.33346 0
M  V30 745 H 68.8987 0.580244 0.454408 0
M  V30 746 H 71.5407 1.81827 0.551262 0
M  V30 747 H 69.6907 2.56587 2.91711 0
M  V30 748 H 71.3627 4.47145 1.13399 0
M  V30 749 H 69.6057 4.22141 0.998978 0
M  V30 750 H 70.2767 4.93792 2.46725 0
M  V30 751 H 72.7527 3.04634 2.83438 0
M  V30 752 H 71.6287 3.70289 4.05188 0
M  V30 753 H 71.8897 1.96834 3.95865 0
M  V30 754 N 70.9488 -0.749086 1.3866 0
M  V30 755 C 72.2258 -1.4992 1.25632 0
M  V30 756 C 72.6058 -2.10633 -0.140317 0
M  V30 757 O 71.9538 -1.97437 -1.15025 0
M  V30 758 C 72.1638 -2.56195 2.36992 0
M  V30 759 C 73.5118 -3.22972 2.75634 0
M  V30 760 O 74.5358 -2.66502 2.36337 0
M  V30 761 O 73.3948 -4.25122 3.43415 0
M  V30 762 H 70.4888 -0.665067 0.491544 0
M  V30 763 H 73.0348 -0.784113 1.50498 0
M  V30 764 H 71.8068 -2.09612 3.30422 0
M  V30 765 H 71.4298 -3.35279 2.13714 0
M  V30 766 N 72.4269 -1.23603 -0.977757 0
M  V30 767 C 73.3369 -1.03632 -2.1047 0
M  V30 768 C 74.3529 0.0199435 -1.73989 0
M  V30 769 O 75.5289 -0.176076 -2.00629 0
M  V30 770 C 72.5939 -0.63276 -3.40877 0
M  V30 771 C 71.6549 -1.76437 -3.91367 0
M  V30 772 C 70.8879 -1.37997 -5.15551 0
M  V30 773 O 71.1109 -0.265357 -5.69782 0
M  V30 774 O 70.0449 -2.20201 -5.60174 0
M  V30 775 H 73.8709 -1.98086 -2.30208 0
M  V30 776 H 71.4559 -1.02332 -1.08851 0
M  V30 777 H 73.3379 -0.418761 -4.19314 0
M  V30 778 H 72.0129 0.282754 -3.22463 0
M  V30 779 H 70.9199 -2.03304 -3.14036 0
M  V30 780 H 72.2529 -2.6583 -4.14241 0
M  V30 781 N 73.905 1.17692 -1.04816 0
M  V30 782 C 74.835 2.23777 -0.666791 0
M  V30 783 C 75.816 1.66796 0.33361 0
M  V30 784 O 77.001 1.93039 0.212042 0
M  V30 785 C 74.131 3.47281 -0.0367933 0
M  V30 786 C 73.085 4.17059 -0.961546 0
M  V30 787 C 72.411 5.34342 -0.195626 0
M  V30 788 C 73.711 4.69713 -2.28402 0
M  V30 789 H 75.405 2.55933 -1.55367 0
M  V30 790 H 72.951 1.23019 -0.748484 0
M  V30 791 H 74.904 4.20706 0.241775 0
M  V30 792 H 73.628 3.14381 0.885004 0
M  V30 793 H 72.287 3.45541 -1.22462 0
M  V30 794 H 71.935 4.97692 0.728816 0
M  V30 795 H 71.635 5.81966 -0.811775 0
M  V30 796 H 73.159 6.10553 0.0757473 0
M  V30 797 H 74.573 5.34794 -2.06563 0
M  V30 798 H 72.97 5.279 -2.8538 0
M  V30 799 H 74.04 3.86726 -2.92525 0
M  V30 800 N 75.3831 0.828654 1.34056 0
M  V30 801 C 76.3161 0.199763 2.27324 0
M  V30 802 C 77.2941 -0.647168 1.49166 0
M  V30 803 O 78.4781 -0.609661 1.78369 0
M  V30 804 C 75.6051 -0.720455 3.30949 0
M  V30 805 C 74.6511 0.0496888 4.26471 0
M  V30 806 S 75.4841 1.40072 5.16856 0
M  V30 807 C 76.6401 0.485527 6.24014 0
M  V30 808 H 76.8731 0.990478 2.80316 0
M  V30 809 H 74.4061 0.624857 1.41191 0
M  V30 810 H 76.3641 -1.24581 3.91139 0
M  V30 811 H 75.0251 -1.48474 2.76793 0
M  V30 812 H 74.2181 -0.650104 4.9979 0
M  V30 813 H 73.8201 0.505779 3.70564 0
M  V30 814 H 76.1121 -0.320672 6.76741 0
M  V30 815 H 77.0551 1.18856 6.98054 0
M  V30 816 H 77.4631 0.0714109 5.64455 0
M  V30 817 N 76.8612 -1.46375 0.584142 0
M  V30 818 C 77.8082 -2.30323 -0.148286 0
M  V30 819 C 78.7782 -1.40703 -0.882713 0
M  V30 820 O 79.9632 -1.69651 -0.873099 0
M  V30 821 C 77.1032 -3.25196 -1.15507 0
M  V30 822 C 76.2162 -4.29915 -0.423943 0
M  V30 823 C 75.3512 -5.11914 -1.41838 0
M  V30 824 C 74.3902 -6.08381 -0.673736 0
M  V30 825 N 73.5272 -6.83242 -1.6163 0
M  V30 826 H 78.3672 -2.92427 0.573644 0
M  V30 827 H 75.9042 -1.44118 0.294703 0
M  V30 828 H 77.8622 -3.78646 -1.75166 0
M  V30 829 H 76.4922 -2.64898 -1.8447 0
M  V30 830 H 75.5442 -3.7931 0.287714 0
M  V30 831 H 76.8562 -4.98549 0.158128 0
M  V30 832 H 76.0102 -5.69648 -2.08773 0
M  V30 833 H 74.7492 -4.43243 -2.03438 0
M  V30 834 H 73.7542 -5.49799 0.00938483 0
M  V30 835 H 74.9792 -6.79071 -0.0631082 0
M  V30 836 H 72.9252 -6.1728 -2.22038 0
M  V30 837 H 72.8422 -7.48144 -1.08707 0
M  V30 838 H 74.1102 -7.45534 -2.27596 0
M  V30 839 N 78.3393 -0.321999 -1.54275 0
M  V30 840 C 79.5873 0.280489 -2.00144 0
M  V30 841 C 79.9083 1.52777 -1.21178 0
M  V30 842 O 79.1783 1.9338 -0.313187 0
M  V30 843 H 77.7583 0.106632 -0.73935 0
M  V30 844 H 80.4203 -0.438184 -1.8991 0
M  V30 845 H 79.5163 0.537972 -3.07428 0
M  V30 846 N 79.8174 1.5752 -0.0501392 0
M  V30 847 C 80.7474 2.14502 0.922566 0
M  V30 848 C 81.7284 1.06642 1.3252 0
M  V30 849 O 82.9134 1.34577 1.4001 0
M  V30 850 C 80.0434 2.68916 2.19776 0
M  V30 851 C 78.9974 3.8175 1.93523 0
M  V30 852 C 78.3234 4.22677 3.27487 0
M  V30 853 C 79.6234 5.06932 1.25765 0
M  V30 854 H 81.3174 2.9603 0.447952 0
M  V30 855 H 78.8634 1.42401 0.214024 0
M  V30 856 H 80.8164 3.07419 2.88222 0
M  V30 857 H 79.5404 1.84578 2.69441 0
M  V30 858 H 78.1994 3.43718 1.27489 0
M  V30 859 H 77.8474 3.35291 3.74952 0
M  V30 860 H 77.5474 4.98725 3.1072 0
M  V30 861 H 79.0714 4.63779 3.97166 0
M  V30 862 H 80.4854 5.42888 1.84244 0
M  V30 863 H 78.8824 5.88116 1.19328 0
M  V30 864 H 79.9524 4.84337 0.233536 0
M  V30 865 N 81.2955 -0.223234 1.56011 0
M  V30 866 C 82.2435 -1.29627 1.93131 0
M  V30 867 C 83.2375 -1.48608 0.813146 0
M  V30 868 O 84.4435 -1.49802 0.997966 0
M  V30 869 H 80.8185 -0.434563 0.613726 0
M  V30 870 H 82.7895 -0.955995 2.82672 0
M  V30 871 C 81.5385 -2.63983 2.26292 0
M  V30 872 H 80.8615 -2.50185 3.11846 0
M  V30 873 H 82.3015 -3.3788 2.56151 0
M  V30 874 C 80.7605 -3.18866 1.08747 0
M  V30 875 O 81.2905 -4.00192 0.347727 0
M  V30 876 N 79.4965 -2.77217 0.871743 0
M  V30 877 H 79.0435 -2.1119 1.47501 0
M  V30 878 H 79.0015 -3.1428 0.0869905 0
M  V30 879 N 82.7736 -1.49793 -0.48987 0
M  V30 880 C 83.7036 -1.70201 -1.59856 0
M  V30 881 C 84.6846 -0.55076 -1.60937 0
M  V30 882 O 85.8696 -0.787841 -1.77501 0
M  V30 883 C 82.9996 -1.77882 -2.98287 0
M  V30 884 C 81.9536 -2.92907 -3.12073 0
M  V30 885 C 81.2796 -2.85712 -4.51965 0
M  V30 886 C 82.5796 -4.3369 -2.91051 0
M  V30 887 H 84.2736 -2.63025 -1.43032 0
M  V30 888 H 81.8196 -1.26574 -0.686664 0
M  V30 889 H 83.7726 -1.90744 -3.75759 0
M  V30 890 H 82.4966 -0.816653 -3.16225 0
M  V30 891 H 81.1556 -2.79665 -2.37029 0
M  V30 892 H 80.8036 -1.8738 -4.66795 0
M  V30 893 H 80.5036 -3.62921 -4.62128 0
M  V30 894 H 82.0276 -3.00598 -5.31482 0
M  V30 895 H 83.4416 -4.47555 -3.58284 0
M  V30 896 H 81.8386 -5.12205 -3.12675 0
M  V30 897 H 82.9086 -4.47362 -1.87071 0
M  V30 898 N 84.2517 0.741722 -1.39055 0
M  V30 899 C 85.6627 1.31966 -1.32068 0
M  V30 900 C 86.0137 1.96192 0.0180797 0
M  V30 901 O 85.1387 1.95861 0.920196 0
M  V30 902 C 85.7337 2.39954 -2.39181 0
M  V30 903 C 84.2927 2.93438 -2.35735 0
M  V30 904 C 83.4397 1.66936 -2.21422 0
M  V30 905 H 86.3907 0.539721 -1.4924 0
M  V30 906 H 86.4117 3.20182 -2.05581 0
M  V30 907 H 85.9237 1.9318 -3.36605 0
M  V30 908 H 84.0247 3.4451 -1.41929 0
M  V30 909 H 84.1377 3.4701 -3.30335 0
M  V30 910 H 82.5017 1.91016 -1.68478 0
M  V30 911 H 83.2847 1.22224 -3.20806 0
M  V30 912 N 85.7298 1.2412 0.971189 0
M  V30 913 C 86.9758 1.08041 1.71625 0
M  V30 914 C 87.3088 -0.380407 1.90438 0
M  V30 915 O 86.5838 -1.28127 1.46334 0
M  V30 916 C 86.8668 1.81682 3.10908 0
M  V30 917 C 86.7198 3.35493 2.99608 0
M  V30 918 C 88.0388 1.58671 4.10501 0
M  V30 919 H 85.1578 0.39388 0.622919 0
M  V30 920 H 87.7998 1.52743 1.13003 0
M  V30 921 H 85.9498 1.43684 3.60953 0
M  V30 922 H 87.6218 3.83068 2.57015 0
M  V30 923 H 85.8648 3.64052 2.35899 0
M  V30 924 H 86.5358 3.82217 3.98264 0
M  V30 925 H 89.0118 1.91719 3.69301 0
M  V30 926 H 87.8878 2.1266 5.06031 0
M  V30 927 H 88.1488 0.524161 4.38982 0
M  V30 928 N 87.2079 -1.17134 1.05439 0
M  V30 929 C 88.1549 -2.21235 0.657539 0
M  V30 930 C 89.1249 -1.62551 -0.341543 0
M  V30 931 O 90.3099 -1.89379 -0.232393 0
M  V30 932 C 87.4499 -3.45076 0.0410575 0
M  V30 933 C 86.5629 -4.18042 1.08927 0
M  V30 934 C 85.6979 -5.29376 0.439848 0
M  V30 935 C 84.7369 -5.94132 1.4722 0
M  V30 936 N 83.8739 -6.96975 0.846756 0
M  V30 937 H 88.7139 -2.54534 1.54972 0
M  V30 938 H 86.2509 -1.25028 0.775006 0
M  V30 939 H 88.2089 -4.15862 -0.33383 0
M  V30 940 H 86.8389 -3.12353 -0.814568 0
M  V30 941 H 85.8909 -3.45945 1.58196 0
M  V30 942 H 87.2029 -4.62306 1.87282 0
M  V30 943 H 86.3569 -6.06699 0.0115125 0
M  V30 944 H 85.0959 -4.86251 -0.375656 0
M  V30 945 H 84.1009 -5.15538 1.91052 0
M  V30 946 H 85.3259 -6.39337 2.28965 0
M  V30 947 H 83.2719 -6.5598 0.0518075 0
M  V30 948 H 83.1889 -7.39565 1.5678 0
M  V30 949 H 84.4569 -7.78239 0.443277 0
M  V30 950 N 88.686 -0.835752 -1.33615 0
M  V30 951 C 89.633 -0.26473 -2.29277 0
M  V30 952 C 90.603 0.617712 -1.54187 0
M  V30 953 O 91.788 0.556641 -1.825 0
M  V30 954 C 88.928 0.556777 -3.40579 0
M  V30 955 C 88.041 -0.349339 -4.30585 0
M  V30 956 C 87.176 0.482969 -5.29 0
M  V30 957 C 86.215 -0.421732 -6.10645 0
M  V30 958 N 85.352 0.372262 -7.01112 0
M  V30 959 H 90.192 -1.08582 -2.77514 0
M  V30 960 H 87.729 -0.546927 -1.36554 0
M  V30 961 H 89.687 1.04852 -4.03809 0
M  V30 962 H 88.317 1.34286 -2.93542 0
M  V30 963 H 87.369 -0.959372 -3.68104 0
M  V30 964 H 88.681 -1.04445 -4.87742 0
M  V30 965 H 87.835 1.03866 -5.97743 0
M  V30 966 H 86.574 1.21153 -4.72412 0
M  V30 967 H 85.579 -0.989464 -5.40823 0
M  V30 968 H 86.804 -1.14861 -6.69316 0
M  V30 969 H 84.75 1.08426 -6.46977 0
M  V30 970 H 84.667 -0.264198 -7.55538 0
M  V30 971 H 85.935 0.910293 -7.74167 0
M  V30 972 N 90.1641 1.46063 -0.591896 0
M  V30 973 C 91.1111 2.30399 0.136069 0
M  V30 974 C 92.0811 1.41169 0.875238 0
M  V30 975 O 93.2661 1.70112 0.86409 0
M  V30 976 C 90.4061 3.25804 1.13781 0
M  V30 977 C 89.5191 4.30134 0.401137 0
M  V30 978 C 88.6541 5.12659 1.39121 0
M  V30 979 C 87.6931 6.0873 0.641462 0
M  V30 980 N 86.8301 6.8409 1.58004 0
M  V30 981 H 91.6701 2.92118 -0.589144 0
M  V30 982 H 89.2071 1.43959 -0.302342 0
M  V30 983 H 91.1651 3.79569 1.73156 0
M  V30 984 H 89.7951 2.65872 1.83062 0
M  V30 985 H 88.8471 3.79152 -0.307826 0
M  V30 986 H 90.1591 4.98458 -0.184565 0
M  V30 987 H 89.3131 5.70747 2.05749 0
M  V30 988 H 88.0521 4.44316 2.01084 0
M  V30 989 H 87.0571 5.49786 -0.0385419 0
M  V30 990 H 88.2821 6.79095 0.0270945 0
M  V30 991 H 86.2281 6.18449 2.18761 0
M  V30 992 H 86.1451 7.48709 1.04738 0
M  V30 993 H 87.4131 7.4673 2.23639 0
M  V30 994 N 91.6422 0.330177 1.54103 0
M  V30 995 C 92.5902 -0.548226 2.26047 0
M  V30 996 C 93.5842 -1.11309 1.27698 0
M  V30 997 O 94.7902 -1.06036 1.45452 0
M  V30 998 H 91.1652 -0.195456 0.726155 0
M  V30 999 H 93.1362 0.0807567 2.98291 0
M  V30 1000 C 91.8852 -1.69415 3.03634 0
M  V30 1001 H 91.2082 -1.26876 3.79134 0
M  V30 1002 H 92.6482 -2.28423 3.5721 0
M  V30 1003 C 91.1072 -2.61569 2.12328 0
M  V30 1004 O 91.6372 -3.63462 1.7105 0
M  V30 1005 N 89.8432 -2.29952 1.77681 0
M  V30 1006 H 89.3902 -1.47134 2.11446 0
M  V30 1007 H 89.3482 -2.91871 1.16869 0
M  V30 1008 N 93.1203 -1.57491 0.0584922 0
M  V30 1009 C 94.3683 -1.92597 -0.612436 0
M  V30 1010 C 94.6893 -0.938162 -1.70949 0
M  V30 1011 O 93.9593 0.0158301 -1.95894 0
M  V30 1012 H 92.5393 -0.710964 -0.229214 0
M  V30 1013 H 95.2013 -1.94571 0.113218 0
M  V30 1014 H 94.2973 -2.94038 -1.04633 0
M  V30 1015 N 94.5984 0.214957 -1.56127 0
M  V30 1016 C 95.5284 1.2695 -1.95974 0
M  V30 1017 C 96.5094 1.48539 -0.828868 0
M  V30 1018 O 97.6944 1.60611 -1.09168 0
M  V30 1019 C 94.8244 2.61794 -2.28214 0
M  V30 1020 C 93.7784 2.54851 -3.43853 0
M  V30 1021 C 93.1044 3.93785 -3.61715 0
M  V30 1022 C 94.4044 2.09065 -4.78632 0
M  V30 1023 H 96.0984 0.93846 -2.84312 0
M  V30 1024 H 93.6444 0.449996 -1.36788 0
M  V30 1025 H 95.5974 3.35731 -2.54682 0
M  V30 1026 H 94.3214 2.96599 -1.36736 0
M  V30 1027 H 92.9804 1.8337 -3.17444 0
M  V30 1028 H 92.6284 4.25908 -2.67602 0
M  V30 1029 H 92.3284 3.90019 -4.39498 0
M  V30 1030 H 93.8524 4.69374 -3.90539 0
M  V30 1031 H 95.2664 2.7275 -5.04262 0
M  V30 1032 H 93.6634 2.16346 -5.59745 0
M  V30 1033 H 94.7334 1.04315 -4.73547 0
M  V30 1034 N 96.0765 1.50051 0.48192 0
M  V30 1035 C 97.4925 1.37237 0.814756 0
M  V30 1036 C 97.6925 0.420109 1.97072 0
M  V30 1037 O 96.7485 -0.141246 2.52105 0
M  V30 1038 C 98.0615 2.78375 1.13701 0
M  V30 1039 C 99.6095 2.87213 1.2441 0
M  V30 1040 C 100.084 4.29161 1.59954 0
M  V30 1041 N 101.575 4.32061 1.66967 0
M  V30 1042 C 102.31 5.38879 1.95952 0
M  V30 1043 N 101.806 6.55918 2.23031 0
M  V30 1044 N 103.599 5.26312 1.97363 0
M  V30 1045 H 95.7505 2.10546 -0.28005 0
M  V30 1046 H 98.0135 0.945921 -0.0627454 0
M  V30 1047 H 97.7195 3.49845 0.360787 0
M  V30 1048 H 97.5935 3.14941 2.07586 0
M  V30 1049 H 99.9805 2.15969 2.01101 0
M  V30 1050 H 100.061 2.54204 0.285299 0
M  V30 1051 H 99.7055 5.00938 0.838067 0
M  V30 1052 H 99.6355 4.59648 2.56966 0
M  V30 1053 H 102.126 3.47661 1.48123 0
M  V30 1054 H 102.439 7.33139 2.44391 0
M  V30 1055 H 100.784 6.59112 2.20447 0
M  V30 1056 H 103.975 4.33876 1.75697 0
M  V30 1057 H 104.148 6.09649 2.19618 0
M  V30 1058 N 97.5546 -0.734337 1.39446 0
M  V30 1059 C 98.8006 -1.49613 1.36908 0
M  V30 1060 C 99.1336 -1.94169 -0.0347829 0
M  V30 1061 O 98.4086 -1.66833 -0.999847 0
M  V30 1062 C 98.6916 -2.73534 2.34203 0
M  V30 1063 C 98.5446 -2.34993 3.83534 0
M  V30 1064 C 99.8636 -3.75635 2.29317 0
M  V30 1065 H 96.9826 -0.542714 0.498629 0
M  V30 1066 H 99.6246 -0.839597 1.70443 0
M  V30 1067 H 97.7746 -3.29553 2.05736 0
M  V30 1068 H 99.4466 -1.84601 4.22753 0
M  V30 1069 H 97.6896 -1.67213 4.00278 0
M  V30 1070 H 98.3606 -3.23738 4.47099 0
M  V30 1071 H 100.837 -3.29203 2.54489 0
M  V30 1072 H 99.7126 -4.60008 2.99472 0
M  V30 1073 H 99.9736 -4.22603 1.29842 0
M  V30 1074 N 99.0327 -1.24633 -0.964593 0
M  V30 1075 C 100.261 -1.11501 -1.74285 0
M  V30 1076 C 100.676 0.332165 -1.85855 0
M  V30 1077 O 100.033 1.22903 -1.34911 0
M  V30 1078 C 100.084 -1.75258 -3.16175 0
M  V30 1079 O 99.8047 -3.14318 -3.05182 0
M  V30 1080 C 101.306 -1.67776 -4.10324 0
M  V30 1081 H 98.5257 -0.389407 -0.546446 0
M  V30 1082 H 101.07 -1.64801 -1.21083 0
M  V30 1083 H 99.2247 -1.25954 -3.66353 0
M  V30 1084 H 99.6387 -3.4551 -3.94618 0
M  V30 1085 H 101.113 -2.17064 -5.0753 0
M  V30 1086 H 101.59 -0.639584 -4.34518 0
M  V30 1087 H 102.196 -2.16522 -3.66058 0
M  V30 1088 N 100.511 1.16574 -1.06058 0
M  V30 1089 C 101.922 1.68662 -0.800632 0
M  V30 1090 C 102.273 1.84184 0.67608 0
M  V30 1091 O 101.398 1.53568 1.52466 0
M  V30 1092 C 101.993 3.06356 -1.44676 0
M  V30 1093 C 100.552 3.55575 -1.23465 0
M  V30 1094 C 99.6988 2.31616 -1.52477 0
M  V30 1095 H 102.65 1.00969 -1.22438 0
M  V30 1096 H 102.671 3.70636 -0.860788 0
M  V30 1097 H 102.183 2.95027 -2.52152 0
M  V30 1098 H 100.284 3.72167 -0.179527 0
M  V30 1099 H 100.397 4.37812 -1.94571 0
M  V30 1100 H 98.7608 2.36512 -0.945209 0
M  V30 1101 H 99.5438 2.22887 -2.61106 0
M  V30 1102 N 101.989 0.842826 1.3317 0
M  V30 1103 C 102.952 0.284065 2.27433 0
M  V30 1104 C 103.952 -0.54948 1.5112 0
M  V30 1105 O 105.142 -0.362699 1.70382 0
M  V30 1106 C 102.274 -0.599384 3.35589 0
M  V30 1107 H 103.467 1.11589 2.78366 0
M  V30 1108 H 101.02 0.616221 1.4364 0
M  V30 1109 H 101.755 -1.45349 2.89904 0
M  V30 1110 H 101.54 -0.00291266 3.921 0
M  V30 1111 H 103.03 -0.983488 4.05854 0
M  V30 1112 N 103.467 -1.45747 0.599634 0
M  V30 1113 C 104.744 -1.95585 0.0240846 0
M  V30 1114 C 105.124 -1.54217 -1.44154 0
M  V30 1115 O 104.472 -0.800903 -2.14004 0
M  V30 1116 C 104.682 -3.48344 0.21385 0
M  V30 1117 C 106.03 -4.24504 0.0904902 0
M  V30 1118 O 107.054 -3.55911 0.143558 0
M  V30 1119 O 105.913 -5.46491 -0.0310766 0
M  V30 1120 H 103.007 -0.82602 -0.0402478 0
M  V30 1121 H 105.553 -1.55951 0.669139 0
M  V30 1122 H 104.325 -3.71397 1.23206 0
M  V30 1123 H 103.948 -3.9485 -0.466842 0
M  V30 1124 N 104.945 -0.338344 -1.53925 0
M  V30 1125 C 105.877 0.555117 -2.22376 0
M  V30 1126 C 106.89 1.06812 -1.22862 0
M  V30 1127 O 108.079 0.979163 -1.49247 0
M  V30 1128 C 105.179 1.77609 -2.88631 0
M  V30 1129 C 104.352 1.39927 -4.14414 0
M  V30 1130 C 103.411 2.47936 -4.64127 0
M  V30 1131 O 102.437 2.11461 -5.28463 0
M  V30 1132 N 103.639 3.79107 -4.39612 0
M  V30 1133 H 106.404 -0.0310778 -2.99684 0
M  V30 1134 H 103.965 -0.162226 -1.61085 0
M  V30 1135 H 105.957 2.49287 -3.18807 0
M  V30 1136 H 104.527 2.26978 -2.14941 0
M  V30 1137 H 103.747 0.513481 -3.90841 0
M  V30 1138 H 105.035 1.12341 -4.96243 0
M  V30 1139 H 104.433 4.11531 -3.88148 0
M  V30 1140 H 102.99 4.4697 -4.74406 0
M  V30 1141 N 106.423 1.57458 -0.0668435 0
M  V30 1142 C 107.672 1.92477 0.602947 0
M  V30 1143 C 107.985 0.948419 1.71068 0
M  V30 1144 O 109.191 1.19124 2.43971 0
M  V30 1145 C 107.647 3.41903 1.12383 0
M  V30 1146 C 107.255 4.47975 0.04737 0
M  V30 1147 C 108.999 3.85931 1.76797 0
M  V30 1148 C 106.906 5.88529 0.582022 0
M  V30 1149 H 105.836 0.718387 0.22899 0
M  V30 1150 H 108.487 1.82978 -0.138276 0
M  V30 1151 H 106.869 3.46459 1.91787 0
M  V30 1152 H 108.043 4.55029 -0.726978 0
M  V30 1153 H 106.358 4.13384 -0.500243 0
M  V30 1154 H 108.955 4.88322 2.17821 0
M  V30 1155 H 109.298 3.23029 2.62599 0
M  V30 1156 H 109.831 3.83958 1.04024 0
M  V30 1157 H 106.57 6.55065 -0.238721 0
M  V30 1158 H 106.09 5.85004 1.324 0
M  V30 1159 H 107.769 6.38258 1.05999 0
M  V30 1160 N 107.901 -0.206675 1.56239 0
M  V30 1161 C 109.178 -0.954051 1.70755 0
M  V30 1162 C 109.558 -2.01841 0.618353 0
M  V30 1163 O 108.906 -2.25444 -0.372434 0
M  V30 1164 C 109.116 -1.551 3.12642 0
M  V30 1165 C 110.464 -2.03757 3.72516 0
M  V30 1166 O 111.488 -1.64965 3.15698 0
M  V30 1167 O 110.347 -2.75103 4.72208 0
M  V30 1168 H 107.441 -0.446636 0.696021 0
M  V30 1169 H 109.987 -0.197283 1.68549 0
M  V30 1170 H 108.759 -0.783212 3.83382 0
M  V30 1171 H 108.382 -2.37291 3.19028 0
M  V30 1172 N 109.379 -1.50304 -0.473955 0
M  V30 1173 C 110.628 -1.60392 -1.22301 0
M  V30 1174 C 110.941 -0.308411 -1.93153 0
M  V30 1175 O 112.147 -0.288156 -2.69966 0
M  V30 1176 C 110.603 -2.83109 -2.2221 0
M  V30 1177 C 110.211 -4.19524 -1.57173 0
M  V30 1178 C 111.955 -3.0254 -2.97775 0
M  V30 1179 C 109.862 -5.33431 -2.55353 0
M  V30 1180 H 108.792 -0.597286 -0.460179 0
M  V30 1181 H 111.443 -1.76731 -0.493803 0
M  V30 1182 H 109.825 -2.60322 -2.9841 0
M  V30 1183 H 110.999 -4.52554 -0.867824 0
M  V30 1184 H 109.314 -4.05674 -0.939002 0
M  V30 1185 H 111.911 -3.84811 -3.71248 0
M  V30 1186 H 112.254 -2.14154 -3.56992 0
M  V30 1187 H 112.787 -3.25494 -2.28688 0
M  V30 1188 H 109.526 -6.23962 -2.00878 0
M  V30 1189 H 109.046 -5.04823 -3.23904 0
M  V30 1190 H 110.725 -5.63887 -3.17239 0
M  V30 1191 N 110.857 0.726932 -1.39834 0
M  V30 1192 C 112.106 1.48214 -1.36805 0
M  V30 1193 C 112.419 1.95576 0.0305291 0
M  V30 1194 O 113.625 2.7088 0.183417 0
M  V30 1195 C 112.081 2.67854 -2.40379 0
M  V30 1196 C 111.689 2.27408 -3.85992 0
M  V30 1197 C 113.433 3.45641 -2.46439 0
M  V30 1198 C 111.34 3.43819 -4.81189 0
M  V30 1199 H 110.27 0.556606 -0.508631 0
M  V30 1200 H 112.921 0.792216 -1.65518 0
M  V30 1201 H 111.303 3.3896 -2.04749 0
M  V30 1202 H 112.477 1.63795 -4.30706 0
M  V30 1203 H 110.792 1.62692 -3.83302 0
M  V30 1204 H 113.389 4.32244 -3.14753 0
M  V30 1205 H 113.732 3.88669 -1.49139 0
M  V30 1206 H 114.265 2.8157 -2.81004 0
M  V30 1207 H 111.004 3.05834 -5.79781 0
M  V30 1208 H 110.524 4.06385 -4.41148 0
M  V30 1209 H 112.203 4.10043 -5.00474 0
M  V30 1210 N 112.336 1.25143 0.95797 0
M  V30 1211 C 113.564 1.12424 1.73691 0
M  V30 1212 C 113.979 -0.322304 1.86029 0
M  V30 1213 O 113.336 -1.22186 1.35561 0
M  V30 1214 C 113.387 1.76933 3.15241 0
M  V30 1215 O 113.108 3.15932 3.03511 0
M  V30 1216 C 114.609 1.6995 4.09429 0
M  V30 1217 H 111.829 0.3923 0.544373 0
M  V30 1218 H 114.373 1.6544 1.20207 0
M  V30 1219 H 112.528 1.27895 3.6568 0
M  V30 1220 H 112.942 3.47598 3.9278 0
M  V30 1221 H 114.416 2.19753 5.06372 0
M  V30 1222 H 114.893 0.662619 4.34173 0
M  V30 1223 H 115.499 2.18461 3.64904 0
M  V30 1224 N 113.814 -1.1601 1.06675 0
M  V30 1225 C 115.062 -1.86264 0.784229 0
M  V30 1226 C 115.383 -1.82328 -0.691488 0
M  V30 1227 O 114.653 -1.25947 -1.50047 0
M  V30 1228 H 113.233 -0.689621 0.28711 0
M  V30 1229 H 115.895 -1.40664 1.34906 0
M  V30 1230 H 114.991 -2.91595 1.11259 0
M  V30 1231 N 115.292 -0.849877 -1.32721 0
M  V30 1232 C 116.255 -0.296122 -2.27279 0
M  V30 1233 C 117.255 0.541458 -1.5141 0
M  V30 1234 O 118.445 0.353658 -1.70572 0
M  V30 1235 C 115.577 0.581579 -3.35902 0
M  V30 1236 H 116.77 -1.13064 -2.77771 0
M  V30 1237 H 114.323 -0.62383 -1.43311 0
M  V30 1238 H 115.058 1.43809 -2.9067 0
M  V30 1239 H 114.843 -0.0178814 -3.92096 0
M  V30 1240 H 116.333 0.961951 -4.0637 0
M  V30 1241 N 116.77 1.45427 -0.607355 0
M  V30 1242 C 117.7 2.3329 0.0989352 0
M  V30 1243 C 118.681 1.46816 0.859007 0
M  V30 1244 O 119.866 1.75588 0.829604 0
M  V30 1245 C 116.996 3.29518 1.09705 0
M  V30 1246 C 115.95 4.25626 0.450206 0
M  V30 1247 C 115.276 5.11542 1.55655 0
M  V30 1248 C 116.576 5.18505 -0.628455 0
M  V30 1249 H 118.27 2.92595 -0.634716 0
M  V30 1250 H 115.816 1.40696 -0.306681 0
M  V30 1251 H 117.769 3.89855 1.59971 0
M  V30 1252 H 116.493 2.68372 1.86129 0
M  V30 1253 H 115.152 3.66586 -0.0315886 0
M  V30 1254 H 114.8 4.46765 2.31107 0
M  V30 1255 H 114.5 5.76647 1.12925 0
M  V30 1256 H 116.024 5.74748 2.06148 0
M  V30 1257 H 117.438 5.72916 -0.209877 0
M  V30 1258 H 115.835 5.92085 -0.977489 0
M  V30 1259 H 116.905 4.60948 -1.50514 0
M  V30 1260 N 118.248 0.346503 1.53744 0
M  V30 1261 C 119.211 -0.496439 2.23759 0
M  V30 1262 C 120.211 -1.0252 1.2388 0
M  V30 1263 O 121.401 -0.913974 1.48297 0
M  V30 1264 C 118.533 -1.69187 2.95954 0
M  V30 1265 H 119.726 0.115952 2.99676 0
M  V30 1266 H 117.279 0.0978939 1.55993 0
M  V30 1267 H 118.014 -2.34288 2.24231 0
M  V30 1268 H 117.799 -1.31989 3.69217 0
M  V30 1269 H 119.289 -2.28969 3.49232 0
M  V30 1270 N 119.726 -1.57421 0.075193 0
M  V30 1271 C 120.974 -1.93236 -0.591974 0
M  V30 1272 C 121.295 -0.956241 -1.69944 0
M  V30 1273 O 120.565 -0.00494792 -1.95899 0
M  V30 1274 H 119.145 -0.713355 -0.22166 0
M  V30 1275 H 121.807 -1.9444 0.133848 0
M  V30 1276 H 120.903 -2.95131 -1.01509 0
M  V30 1277 N 121.204 0.198386 -1.56346 0
M  V30 1278 C 122.432 0.935572 -1.84539 0
M  V30 1279 C 122.847 1.76989 -0.657281 0
M  V30 1280 O 122.204 1.78626 0.374043 0
M  V30 1281 C 122.255 1.8344 -3.11499 0
M  V30 1282 O 121.976 1.03377 -4.25728 0
M  V30 1283 C 123.477 2.68355 -3.52846 0
M  V30 1284 H 120.697 0.273126 -0.612897 0
M  V30 1285 H 123.241 0.20663 -2.03453 0
M  V30 1286 H 121.396 2.51701 -2.94492 0
M  V30 1287 H 121.81 1.64599 -4.98003 0
M  V30 1288 H 123.284 3.27085 -4.44657 0
M  V30 1289 H 123.761 3.41901 -2.75681 0
M  V30 1290 H 124.367 2.05471 -3.72373 0
M  V30 1291 N 122.682 1.50554 0.465978 0
M  V30 1292 C 123.645 1.69233 1.54574 0
M  V30 1293 C 124.645 0.562901 1.50626 0
M  V30 1294 O 125.835 0.830016 1.53155 0
M  V30 1295 C 122.967 1.7223 2.94193 0
M  V30 1296 H 124.16 2.65571 1.39327 0
M  V30 1297 H 121.713 1.40111 0.692711 0
M  V30 1298 H 122.448 0.77603 3.14878 0
M  V30 1299 H 122.233 2.54285 2.98466 0
M  V30 1300 H 123.723 1.88618 3.72576 0
M  V30 1301 N 124.16 -0.719506 1.40217 0
M  V30 1302 C 125.108 -1.85493 1.40339 0
M  V30 1303 C 126.102 -1.66995 0.284415 0
M  V30 1304 O 127.308 -1.74148 0.455252 0
M  V30 1305 H 123.683 -0.610857 0.438586 0
M  V30 1306 H 125.654 -1.82506 2.36081 0
M  V30 1307 C 124.403 -3.23321 1.27901 0
M  V30 1308 H 123.726 -3.38159 2.1328 0
M  V30 1309 H 125.166 -4.02914 1.32045 0
M  V30 1310 C 123.625 -3.36898 -0.0111355 0
M  V30 1311 O 124.155 -3.89674 -0.975538 0
M  V30 1312 N 122.361 -2.90492 -0.0793393 0
M  V30 1313 H 121.908 -2.47731 0.706183 0
M  V30 1314 H 121.866 -2.99955 -0.942038 0
M  V30 1315 N 125.638 -1.25649 -0.95132 0
M  V30 1316 C 126.585 -1.06323 -2.04851 0
M  V30 1317 C 127.555 0.0286491 -1.66075 0
M  V30 1318 O 128.74 -0.12917 -1.90362 0
M  V30 1319 C 125.88 -0.691529 -3.381 0
M  V30 1320 C 124.993 -1.85861 -3.89974 0
M  V30 1321 C 124.128 -1.43096 -5.11563 0
M  V30 1322 C 123.167 -2.56696 -5.55674 0
M  V30 1323 N 122.304 -2.14684 -6.68472 0
M  V30 1324 H 127.144 -2.00222 -2.20715 0
M  V30 1325 H 124.681 -0.997027 -1.08156 0
M  V30 1326 H 126.639 -0.456963 -4.1469 0
M  V30 1327 H 125.269 0.210474 -3.22113 0
M  V30 1328 H 124.321 -2.20639 -3.09875 0
M  V30 1329 H 125.633 -2.71161 -4.18657 0
M  V30 1330 H 124.787 -1.15624 -5.9558 0
M  V30 1331 H 123.526 -0.548722 -4.84603 0
M  V30 1332 H 122.531 -2.84909 -4.7022 0
M  V30 1333 H 123.756 -3.45503 -5.8464 0
M  V30 1334 H 121.702 -1.28881 -6.43215 0
M  V30 1335 H 121.619 -2.9353 -6.96689 0
M  V30 1336 H 122.887 -1.90397 -7.5589 0
M  V30 1337 N 127.117 1.15442 -1.07289 0
M  V30 1338 C 128.345 1.90096 -0.81676 0
M  V30 1339 C 128.76 1.7798 0.629966 0
M  V30 1340 O 128.117 1.1313 1.43206 0
M  V30 1341 C 128.168 3.40466 -1.21512 0
M  V30 1342 O 127.889 3.52232 -2.60508 0
M  V30 1343 C 129.39 4.32145 -0.988198 0
M  V30 1344 H 126.61 0.602495 -0.295366 0
M  V30 1345 H 129.154 1.4627 -1.42918 0
M  V30 1346 H 127.309 3.81958 -0.647039 0
M  V30 1347 H 127.723 4.45549 -2.76742 0
M  V30 1348 H 129.197 5.36072 -1.31645 0
M  V30 1349 H 129.674 4.39135 0.0755063 0
M  V30 1350 H 130.28 3.96395 -1.54115 0
M  V30 1351 N 128.595 0.856903 1.32268 0
M  V30 1352 C 129.525 0.31858 2.31316 0
M  V30 1353 C 130.506 -0.583487 1.59779 0
M  V30 1354 O 131.691 -0.503259 1.87566 0
M  V30 1355 C 128.821 -0.491979 3.43798 0
M  V30 1356 C 127.775 0.315849 4.26833 0
M  V30 1357 C 127.101 -0.619586 5.31098 0
M  V30 1358 C 128.401 1.54282 4.98993 0
M  V30 1359 H 130.095 1.14621 2.76591 0
M  V30 1360 H 127.641 0.552613 1.32974 0
M  V30 1361 H 129.594 -0.879012 4.1213 0
M  V30 1362 H 128.318 -1.35299 2.97257 0
M  V30 1363 H 126.977 0.684664 3.6015 0
M  V30 1364 H 126.625 -1.47751 4.8081 0
M  V30 1365 H 126.325 -0.0830621 5.87541 0
M  V30 1366 H 127.849 -1.00375 6.02293 0
M  V30 1367 H 129.263 1.22796 5.59995 0
M  V30 1368 H 127.66 2.01745 5.65172 0
M  V30 1369 H 128.73 2.30285 4.26728 0
M  V30 1370 N 130.073 -1.45103 0.615059 0
M  V30 1371 C 131.003 -2.33339 -0.0865619 0
M  V30 1372 C 131.984 -1.4727 -0.851209 0
M  V30 1373 O 133.169 -1.76026 -0.820281 0
M  V30 1374 C 130.299 -3.30095 -1.07956 0
M  V30 1375 C 129.253 -4.25858 -0.427628 0
M  V30 1376 C 128.579 -5.12361 -1.5294 0
M  V30 1377 C 129.879 -5.18165 0.655944 0
M  V30 1378 H 131.573 -2.92254 0.650224 0
M  V30 1379 H 129.119 -1.40532 0.314138 0
M  V30 1380 H 131.072 -3.90698 -1.57901 0
M  V30 1381 H 129.796 -2.69355 -1.84703 0
M  V30 1382 H 128.455 -3.66564 0.0510292 0
M  V30 1383 H 128.103 -4.47984 -2.28734 0
M  V30 1384 H 127.803 -5.77238 -1.09865 0
M  V30 1385 H 129.327 -5.75833 -2.03098 0
M  V30 1386 H 130.741 -5.72796 0.240257 0
M  V30 1387 H 129.138 -5.91559 1.00888 0
M  V30 1388 H 130.208 -4.60144 1.52957 0
M  V30 1389 N 131.551 -0.354651 -1.53558 0
M  V30 1390 C 132.514 0.484566 -2.24019 0
M  V30 1391 C 133.514 1.01861 -1.24422 0
M  V30 1392 O 134.704 0.906097 -1.4878 0
M  V30 1393 C 131.836 1.67615 -2.96847 0
M  V30 1394 H 133.029 -0.131843 -2.9961 0
M  V30 1395 H 130.582 -0.106165 -1.55939 0
M  V30 1396 H 131.317 2.33095 -2.25471 0
M  V30 1397 H 131.102 1.30029 -3.69912 0
M  V30 1398 H 132.592 2.27114 -3.50441 0
M  V30 1399 N 133.029 1.57378 -0.0835403 0
M  V30 1400 C 134.275 1.95025 0.577664 0
M  V30 1401 C 134.63 0.964049 1.66505 0
M  V30 1402 O 133.923 -0.0118235 1.91596 0
M  V30 1403 C 134.117 3.37063 1.1884 0
M  V30 1404 C 133.946 4.49409 0.16171 0
M  V30 1405 C 132.716 5.04642 -0.257756 0
M  V30 1406 C 134.914 5.10722 -0.605634 0
M  V30 1407 N 132.896 6.00537 -1.27393 0
M  V30 1408 C 134.267 6.02225 -1.47395 0
M  V30 1409 C 136.322 4.93501 -0.660418 0
M  V30 1410 C 135.025 6.78355 -2.39221 0
M  V30 1411 C 137.051 5.70283 -1.56623 0
M  V30 1412 C 136.413 6.61444 -2.4222 0
M  V30 1413 H 132.512 0.760512 0.182058 0
M  V30 1414 H 135.096 1.94013 -0.163419 0
M  V30 1415 H 133.267 3.3879 1.89936 0
M  V30 1416 H 134.999 3.61917 1.81103 0
M  V30 1417 H 131.754 4.73428 0.127702 0
M  V30 1418 H 132.178 6.53184 -1.77987 0
M  V30 1419 H 136.82 4.22798 -0.0128221 0
M  V30 1420 H 134.538 7.48327 -3.05011 0
M  V30 1421 H 138.124 5.58976 -1.61361 0
M  V30 1422 H 137.004 7.1982 -3.11174 0
M  V30 1423 N 134.507 -0.190092 1.56449 0
M  V30 1424 C 135.47 -1.21925 1.9408 0
M  V30 1425 C 136.47 -1.38176 0.822431 0
M  V30 1426 O 137.66 -1.35903 1.08977 0
M  V30 1427 C 134.792 -2.58773 2.21922 0
M  V30 1428 H 135.985 -0.897464 2.86157 0
M  V30 1429 H 133.538 -0.43181 1.50217 0
M  V30 1430 H 134.273 -2.95998 1.32499 0
M  V30 1431 H 134.058 -2.48348 3.03424 0
M  V30 1432 H 135.548 -3.32978 2.52022 0
M  V30 1433 N 135.985 -1.50799 -0.457987 0
M  V30 1434 C 136.932 -1.70617 -1.5543 0
M  V30 1435 C 137.902 -0.547562 -1.56815 0
M  V30 1436 O 139.087 -0.779647 -1.74144 0
M  V30 1437 C 136.227 -1.81831 -2.93311 0
M  V30 1438 C 135.34 -3.09278 -3.01615 0
M  V30 1439 C 134.475 -3.11209 -4.30491 0
M  V30 1440 C 133.514 -4.33055 -4.32585 0
M  V30 1441 N 132.651 -4.32652 -5.52952 0
M  V30 1442 H 137.491 -2.64207 -1.37836 0
M  V30 1443 H 135.028 -1.30959 -0.669937 0
M  V30 1444 H 136.986 -1.86314 -3.73287 0
M  V30 1445 H 135.616 -0.916685 -3.0951 0
M  V30 1446 H 134.668 -3.14203 -2.1443 0
M  V30 1447 H 135.98 -3.99233 -2.99022 0
M  V30 1448 H 135.134 -3.14494 -5.18824 0
M  V30 1449 H 133.873 -2.19106 -4.35711 0
M  V30 1450 H 132.878 -4.29969 -3.42647 0
M  V30 1451 H 134.103 -5.264 -4.29046 0
M  V30 1452 H 132.049 -3.43409 -5.58933 0
M  V30 1453 H 131.966 -5.16392 -5.52155 0
M  V30 1454 H 133.234 -4.40101 -6.43375 0
M  V30 1455 N 137.463 0.71206 -1.40597 0
M  V30 1456 C 138.41 1.82613 -1.41142 0
M  V30 1457 C 139.38 1.63925 -0.267903 0
M  V30 1458 O 140.565 1.85009 -0.466495 0
M  V30 1459 C 137.705 3.20354 -1.28324 0
M  V30 1460 C 136.818 3.50589 -2.52411 0
M  V30 1461 C 135.953 4.77855 -2.32009 0
M  V30 1462 C 134.992 5.01005 -3.51654 0
M  V30 1463 N 134.129 6.19487 -3.30425 0
M  V30 1464 H 138.969 1.81482 -2.36365 0
M  V30 1465 H 136.506 0.886475 -1.17388 0
M  V30 1466 H 138.464 3.99899 -1.18899 0
M  V30 1467 H 137.094 3.20705 -0.367189 0
M  V30 1468 H 136.146 2.65573 -2.72351 0
M  V30 1469 H 137.458 3.63604 -3.41458 0
M  V30 1470 H 136.612 5.65424 -2.19956 0
M  V30 1471 H 135.351 4.67056 -1.40392 0
M  V30 1472 H 134.356 4.1189 -3.64179 0
M  V30 1473 H 135.581 5.13674 -4.44202 0
M  V30 1474 H 133.527 6.09932 -2.41494 0
M  V30 1475 H 133.444 6.33194 -4.13039 0
M  V30 1476 H 134.712 7.09834 -3.22113 0
M  V30 1477 N 138.941 1.26152 0.944643 0
M  V30 1478 C 139.891 1.04081 2.02857 0
M  V30 1479 C 140.875 -0.0256555 1.6088 0
M  V30 1480 O 142.067 0.190884 1.75968 0
M  V30 1481 C 139.196 0.672118 3.36656 0
M  V30 1482 C 138.282 1.77586 3.85128 0
M  V30 1483 N 138.673 3.01272 4.06287 0
M  V30 1484 C 136.971 1.65867 4.1401 0
M  V30 1485 C 137.672 3.72983 4.46384 0
M  V30 1486 N 136.648 3.00653 4.52889 0
M  V30 1487 H 140.45 1.97968 2.17223 0
M  V30 1488 H 137.964 1.16618 1.13022 0
M  V30 1489 H 139.961 0.495166 4.13949 0
M  V30 1490 H 138.621 -0.259307 3.23663 0
M  V30 1491 H 139.632 3.37213 3.93075 0
M  V30 1492 H 136.309 0.796907 4.09824 0
M  V30 1493 H 137.699 4.792 4.70975 0
M  V30 1494 N 140.419 -1.14872 1.07899 0
M  V30 1495 C 141.351 -2.19425 0.662231 0
M  V30 1496 C 142.364 -1.60231 -0.288079 0
M  V30 1497 O 143.553 -1.78336 -0.076534 0
M  V30 1498 C 140.653 -3.38867 -0.0470695 0
M  V30 1499 C 139.826 -4.27597 0.920831 0
M  V30 1500 C 138.885 -5.25616 0.247805 0
M  V30 1501 O 137.911 -5.62189 0.890599 0
M  V30 1502 N 139.113 -5.71746 -1.00435 0
M  V30 1503 H 141.878 -2.55797 1.56166 0
M  V30 1504 H 139.439 -1.30042 0.964404 0
M  V30 1505 H 141.431 -4.01497 -0.50813 0
M  V30 1506 H 140.001 -3.00864 -0.848523 0
M  V30 1507 H 139.221 -3.61982 1.56087 0
M  V30 1508 H 140.509 -4.83748 1.57688 0
M  V30 1509 H 139.907 -5.44153 -1.54642 0
M  V30 1510 H 138.464 -6.36389 -1.40899 0
M  V30 1511 N 141.898 -0.863906 -1.31812 0
M  V30 1512 C 143.147 -0.46801 -1.96195 0
M  V30 1513 C 143.46 0.983474 -1.69077 0
M  V30 1514 O 144.666 1.48523 -2.27273 0
M  V30 1515 C 143.122 -0.785995 -3.51212 0
M  V30 1516 C 142.73 -2.25383 -3.87178 0
M  V30 1517 C 144.474 -0.458274 -4.22019 0
M  V30 1518 C 142.381 -2.51455 -5.3528 0
M  V30 1519 H 141.311 -0.171283 -0.734287 0
M  V30 1520 H 143.962 -1.05597 -1.50072 0
M  V30 1521 H 142.344 -0.127359 -3.95795 0
M  V30 1522 H 143.518 -2.95502 -3.53575 0
M  V30 1523 H 141.833 -2.54698 -3.2942 0
M  V30 1524 H 144.43 -0.630369 -5.30971 0
M  V30 1525 H 144.773 0.600834 -4.11941 0
M  V30 1526 H 145.306 -1.07319 -3.8305 0
M  V30 1527 H 142.045 -3.56025 -5.50387 0
M  V30 1528 H 141.565 -1.85923 -5.70257 0
M  V30 1529 H 143.244 -2.35874 -6.02472 0
M  V30 1530 N 143.376 1.44774 -0.622745 0
M  V30 1531 C 144.339 2.29069 0.0774015 0
M  V30 1532 C 145.339 1.4059 0.780461 0
M  V30 1533 O 146.529 1.62551 0.626322 0
M  V30 1534 C 143.661 3.21974 1.12006 0
M  V30 1535 H 144.854 2.92459 -0.663901 0
M  V30 1536 H 142.407 1.51548 -0.382486 0
M  V30 1537 H 143.142 2.63417 1.89162 0
M  V30 1538 H 142.927 3.87168 0.619951 0
M  V30 1539 H 144.417 3.85318 1.60995 0
M  V30 1540 N 144.854 0.36279 1.53368 0
M  V30 1541 C 145.817 -0.472679 2.24273 0
M  V30 1542 C 146.817 -1.012 1.24961 0
M  V30 1543 O 148.007 -0.898194 1.49259 0
M  V30 1544 C 145.139 -1.66039 2.97731 0
M  V30 1545 H 146.332 0.14773 2.99536 0
M  V30 1546 H 143.885 0.114434 1.55881 0
M  V30 1547 H 144.62 -2.31896 2.26704 0
M  V30 1548 H 144.405 -1.28066 3.70596 0
M  V30 1549 H 145.895 -2.25252 3.51641 0
M  V30 1550 N 146.332 -1.57332 0.0918853 0
M  V30 1551 C 147.578 -1.94524 -0.573425 0
M  V30 1552 C 147.911 -0.973578 -1.68033 0
M  V30 1553 O 147.186 -0.00609226 -1.94499 0
M  V30 1554 C 147.469 -3.41858 -1.13161 0
M  V30 1555 C 147.322 -4.4979 -0.0299747 0
M  V30 1556 C 148.641 -3.90435 -2.03098 0
M  V30 1557 H 145.76 -0.70734 -0.206975 0
M  V30 1558 H 148.402 -1.89309 0.161942 0
M  V30 1559 H 146.552 -3.46433 -1.7583 0
M  V30 1560 H 148.224 -4.57327 0.604112 0
M  V30 1561 H 146.467 -4.291 0.636833 0
M  V30 1562 H 147.138 -5.50069 -0.461287 0
M  V30 1563 H 149.614 -3.87992 -1.50338 0
M  V30 1564 H 148.49 -4.94097 -2.39081 0
M  V30 1565 H 148.751 -3.29541 -2.94712 0
M  V30 1566 N 147.81 0.181792 -1.56548 0
M  V30 1567 C 149.058 0.89832 -1.81038 0
M  V30 1568 C 149.379 1.83232 -0.667164 0
M  V30 1569 O 148.649 1.93372 0.313673 0
M  V30 1570 H 147.229 0.33471 -0.667816 0
M  V30 1571 H 149.891 0.184116 -1.94028 0
M  V30 1572 H 148.987 1.4815 -2.74696 0
M  V30 1573 N 149.288 1.51039 0.449983 0
M  V30 1574 C 150.218 1.74379 1.55288 0
M  V30 1575 C 151.199 0.593236 1.5942 0
M  V30 1576 O 152.384 0.834625 1.7535 0
M  V30 1577 C 149.514 1.85728 2.93466 0
M  V30 1578 C 148.468 3.01078 3.04197 0
M  V30 1579 C 147.794 2.97595 4.44231 0
M  V30 1580 C 149.094 4.41254 2.7945 0
M  V30 1581 H 150.788 2.66725 1.36008 0
M  V30 1582 H 148.334 1.2835 0.652864 0
M  V30 1583 H 150.287 2.0064 3.70569 0
M  V30 1584 H 149.011 0.900207 3.13949 0
M  V30 1585 H 147.67 2.85851 2.29531 0
M  V30 1586 H 147.318 1.99691 4.61663 0
M  V30 1587 H 147.018 3.75046 4.52343 0
M  V30 1588 H 148.542 3.14583 5.23326 0
M  V30 1589 H 149.956 4.56897 3.46292 0
M  V30 1590 H 148.353 5.20315 2.98985 0
M  V30 1591 H 149.423 4.52164 1.75144 0
M  V30 1592 N 150.766 -0.704594 1.40972 0
M  V30 1593 C 152.013 -1.46458 1.39844 0
M  V30 1594 C 152.341 -1.94499 0.00447594 0
M  V30 1595 O 151.596 -1.69275 -0.982057 0
M  V30 1596 C 151.895 -2.698 2.34399 0
M  V30 1597 C 151.561 -2.40464 3.81429 0
M  V30 1598 C 150.223 -2.32174 4.21484 0
M  V30 1599 C 152.575 -2.16086 4.74296 0
M  V30 1600 C 149.903 -1.97589 5.52427 0
M  V30 1601 C 152.255 -1.83011 6.05549 0
M  V30 1602 C 150.919 -1.7321 6.44635 0
M  V30 1603 H 150.189 -0.535927 0.511725 0
M  V30 1604 H 152.836 -0.806124 1.73706 0
M  V30 1605 H 151.141 -3.40536 1.93759 0
M  V30 1606 H 152.838 -3.27919 2.30804 0
M  V30 1607 H 149.428 -2.47808 3.49699 0
M  V30 1608 H 153.612 -2.2144 4.4416 0
M  V30 1609 H 148.868 -1.88547 5.81601 0
M  V30 1610 H 153.042 -1.63164 6.77016 0
M  V30 1611 H 150.669 -1.46179 7.46013 0
M  V30 1612 N 152.244 -1.26651 -0.937939 0
M  V30 1613 C 153.174 -1.10993 -2.05433 0
M  V30 1614 C 154.155 -0.0142161 -1.70094 0
M  V30 1615 O 155.34 -0.186837 -1.93299 0
M  V30 1616 C 152.47 -0.745561 -3.39203 0
M  V30 1617 C 151.424 -1.79337 -3.88616 0
M  V30 1618 C 150.75 -1.28324 -5.19073 0
M  V30 1619 C 152.05 -3.19553 -4.13138 0
M  V30 1620 H 153.744 -2.0438 -2.1879 0
M  V30 1621 H 151.29 -0.984041 -1.05131 0
M  V30 1622 H 153.243 -0.622888 -4.16771 0
M  V30 1623 H 151.967 0.22401 -3.25831 0
M  V30 1624 H 150.626 -1.90477 -3.13231 0
M  V30 1625 H 150.274 -0.303414 -5.02084 0
M  V30 1626 H 149.974 -1.98369 -5.53103 0
M  V30 1627 H 151.498 -1.1733 -5.99221 0
M  V30 1628 H 152.912 -3.11471 -4.81309 0
M  V30 1629 H 151.309 -3.87218 -4.58457 0
M  V30 1630 H 152.379 -3.65368 -3.18801 0
M  V30 1631 N 153.722 1.14298 -1.08507 0
M  V30 1632 C 154.97 1.84993 -0.813763 0
M  V30 1633 C 155.291 1.83405 0.662393 0
M  V30 1634 O 154.561 1.28319 1.48024 0
M  V30 1635 H 153.141 0.684966 -0.298045 0
M  V30 1636 H 155.803 1.385 -1.37126 0
M  V30 1637 H 154.899 2.89788 -1.15884 0
M  V30 1638 N 155.201 0.870884 1.31352 0
M  V30 1639 C 156.478 0.402907 1.91405 0
M  V30 1640 C 156.858 -1.11512 1.79244 0
M  V30 1641 O 156.206 -1.94411 1.2007 0
M  V30 1642 C 156.416 0.885301 3.37585 0
M  V30 1643 C 157.764 0.911971 4.14691 0
M  V30 1644 O 158.788 0.831016 3.46371 0
M  V30 1645 O 157.647 1.02927 5.3672 0
M  V30 1646 H 154.741 0.120698 0.818145 0
M  V30 1647 H 157.287 0.958857 1.40014 0
M  V30 1648 H 156.059 1.92889 3.40455 0
M  V30 1649 H 155.682 0.307714 3.96407 0
M  V30 1650 N 156.679 -1.44442 0.630414 0
M  V30 1651 C 157.927 -2.01653 0.134351 0
M  V30 1652 C 158.248 -1.49836 -1.24796 0
M  V30 1653 O 157.518 -0.701684 -1.82902 0
M  V30 1654 H 156.098 -0.74554 0.0466769 0
M  V30 1655 H 158.76 -1.76952 0.816955 0
M  V30 1656 H 157.856 -3.11935 0.101498 0
M  V30 1657 N 158.157 -0.370918 -1.53173 0
M  V30 1658 C 159.434 0.273754 -1.93675 0
M  V30 1659 C 159.814 1.65938 -1.3049 0
M  V30 1660 O 159.162 2.23698 -0.465999 0
M  V30 1661 C 159.372 0.318602 -3.47543 0
M  V30 1662 C 160.72 0.556392 -4.20939 0
M  V30 1663 O 161.744 0.399587 -3.53952 0
M  V30 1664 O 160.603 0.862133 -5.39657 0
M  V30 1665 H 157.697 0.165448 -0.810281 0
M  V30 1666 H 160.243 -0.42409 -1.64315 0
M  V30 1667 H 159.015 -0.652687 -3.85818 0
M  V30 1668 H 158.638 1.06212 -3.83151 0
M  V30 1669 N 159.635 1.57281 -0.100228 0
M  V30 1670 C 160.86 1.99302 0.573881 0
M  V30 1671 C 161.285 0.979059 1.60611 0
M  V30 1672 O 160.643 -0.0517803 1.81226 0
M  V30 1673 C 160.691 3.40274 1.19358 0
M  V30 1674 O 159.795 3.41676 2.30935 0
M  V30 1675 H 159.136 0.647944 0.145138 0
M  V30 1676 H 161.666 2.03779 -0.183156 0
M  V30 1677 H 161.676 3.78078 1.53365 0
M  V30 1678 H 160.351 4.13594 0.437385 0
M  V30 1679 H 158.928 3.15672 1.98509 0
M  V30 1680 N 161.113 -0.173488 1.56642 0
M  V30 1681 C 162.359 -0.891784 1.8214 0
M  V30 1682 C 162.692 -1.8199 0.677736 0
M  V30 1683 O 161.967 -1.91842 -0.320446 0
M  V30 1684 C 162.25 -1.68933 3.18015 0
M  V30 1685 C 162.103 -0.784487 4.42906 0
M  V30 1686 C 163.422 -2.65748 3.50808 0
M  V30 1687 H 160.541 -0.322761 0.662567 0
M  V30 1688 H 163.183 -0.158095 1.89341 0
M  V30 1689 H 161.333 -2.31482 3.12007 0
M  V30 1690 H 163.005 -0.172046 4.60979 0
M  V30 1691 H 161.248 -0.0924117 4.33702 0
M  V30 1692 H 161.919 -1.37799 5.34524 0
M  V30 1693 H 164.395 -2.13327 3.57255 0
M  V30 1694 H 163.271 -3.18619 4.4696 0
M  V30 1695 H 163.532 -3.45842 2.75401 0
M  V30 1696 N 162.591 -1.51276 -0.441967 0
M  V30 1697 C 163.538 -1.72256 -1.53612 0
M  V30 1698 C 164.508 -0.564164 -1.56225 0
M  V30 1699 O 165.693 -0.798074 -1.73307 0
M  V30 1700 C 162.833 -1.84932 -2.91366 0
M  V30 1701 C 161.946 -3.12459 -2.98317 0
M  V30 1702 C 161.081 -3.15758 -4.27166 0
M  V30 1703 C 160.12 -4.37619 -4.27967 0
M  V30 1704 N 159.257 -4.38493 -5.48333 0
M  V30 1705 H 164.097 -2.65654 -1.35026 0
M  V30 1706 H 161.634 -1.31662 -0.656009 0
M  V30 1707 H 163.592 -1.90263 -3.7129 0
M  V30 1708 H 162.222 -0.949461 -3.08521 0
M  V30 1709 H 161.274 -3.1646 -2.11086 0
M  V30 1710 H 162.586 -4.02382 -2.94771 0
M  V30 1711 H 161.74 -3.19979 -5.15459 0
M  V30 1712 H 160.479 -2.23715 -4.33362 0
M  V30 1713 H 159.484 -4.33579 -3.38067 0
M  V30 1714 H 160.709 -5.30921 -4.23438 0
M  V30 1715 H 158.655 -3.49318 -5.55259 0
M  V30 1716 H 158.572 -5.22219 -5.46647 0
M  V30 1717 H 159.84 -4.469 -6.38671 0
M  V30 1718 N 164.069 0.697108 -1.41344 0
M  V30 1719 C 165.315 1.4593 -1.40827 0
M  V30 1720 C 165.648 1.94193 -0.0167098 0
M  V30 1721 O 164.923 1.69425 0.955263 0
M  V30 1722 C 165.206 2.67229 -2.41373 0
M  V30 1723 C 165.059 2.24741 -3.8963 0
M  V30 1724 C 166.378 3.69423 -2.39196 0
M  V30 1725 H 163.497 0.529303 -0.512842 0
M  V30 1726 H 166.139 0.794112 -1.72609 0
M  V30 1727 H 164.289 3.23982 -2.14401 0
M  V30 1728 H 165.961 1.73327 -4.27499 0
M  V30 1729 H 164.204 1.56542 -4.0457 0
M  V30 1730 H 164.875 3.1177 -4.55525 0
M  V30 1731 H 167.351 3.2234 -2.63128 0
M  V30 1732 H 166.227 4.51907 -3.11563 0
M  V30 1733 H 166.488 4.19012 -1.41001 0
M  V30 1734 N 165.547 1.27147 0.931209 0
M  V30 1735 C 166.775 1.16082 1.71267 0
M  V30 1736 C 167.19 -0.282772 1.8667 0
M  V30 1737 O 166.547 -1.19283 1.38122 0
M  V30 1738 C 166.598 1.8358 3.11417 0
M  V30 1739 O 166.319 3.22299 2.96741 0
M  V30 1740 C 167.82 1.78597 4.05732 0
M  V30 1741 H 165.04 0.403758 0.535929 0
M  V30 1742 H 167.584 1.67953 1.16671 0
M  V30 1743 H 165.739 1.35623 3.62885 0
M  V30 1744 H 166.153 3.55851 3.85319 0
M  V30 1745 H 167.627 2.30444 5.01597 0
M  V30 1746 H 168.104 0.754564 4.3267 0
M  V30 1747 H 168.71 2.26152 3.60188 0
M  V30 1748 N 167.025 -1.13721 1.09112 0
M  V30 1749 C 167.957 -2.1871 0.685467 0
M  V30 1750 C 168.97 -1.60527 -0.271068 0
M  V30 1751 O 170.159 -1.78407 -0.0576148 0
M  V30 1752 C 167.259 -3.38898 -0.0111255 0
M  V30 1753 C 166.432 -4.26597 0.966131 0
M  V30 1754 C 165.491 -5.25324 0.303539 0
M  V30 1755 O 164.517 -5.61213 0.950177 0
M  V30 1756 N 165.719 -5.72779 -0.943651 0
M  V30 1757 H 168.484 -2.54126 1.58871 0
M  V30 1758 H 166.045 -1.29012 0.978143 0
M  V30 1759 H 168.037 -4.02014 -0.465517 0
M  V30 1760 H 166.607 -3.01747 -0.816565 0
M  V30 1761 H 165.827 -3.60306 1.59917 0
M  V30 1762 H 167.115 -4.82048 1.6281 0
M  V30 1763 H 166.513 -5.45762 -1.48862 0
M  V30 1764 H 165.07 -6.37847 -1.34142 0
M  V30 1765 N 168.503 -0.877838 -1.30888 0
M  V30 1766 C 169.433 -0.35534 -2.3078 0
M  V30 1767 C 170.414 0.557994 -1.60687 0
M  V30 1768 O 171.599 0.473355 -1.88343 0
M  V30 1769 C 168.729 0.437221 -3.44537 0
M  V30 1770 C 167.683 -0.383715 -4.26276 0
M  V30 1771 C 167.009 0.535014 -5.32017 0
M  V30 1772 C 168.309 -1.62201 -4.96476 0
M  V30 1773 H 170.003 -1.19007 -2.74732 0
M  V30 1774 H 167.549 -0.573698 -1.32078 0
M  V30 1775 H 169.502 0.813334 -4.13477 0
M  V30 1776 H 168.226 1.30553 -2.99372 0
M  V30 1777 H 166.885 -0.741874 -3.59015 0
M  V30 1778 H 166.533 1.40083 -4.831 0
M  V30 1779 H 166.233 -0.0104211 -5.87599 0
M  V30 1780 H 167.757 0.907799 -6.03814 0
M  V30 1781 H 169.171 -1.31689 -5.5797 0
M  V30 1782 H 167.568 -2.10711 -5.61891 0
M  V30 1783 H 168.638 -2.37044 -4.23011 0
M  V30 1784 N 169.982 1.44106 -0.638065 0
M  V30 1785 C 171.259 1.95453 -0.0759321 0
M  V30 1786 C 171.639 1.57984 1.40015 0
M  V30 1787 O 170.987 0.857361 2.11806 0
M  V30 1788 C 171.197 3.47655 -0.306132 0
M  V30 1789 C 172.545 4.24114 -0.203008 0
M  V30 1790 O 173.569 3.55405 -0.237871 0
M  V30 1791 O 172.428 5.46381 -0.113827 0
M  V30 1792 H 169.522 0.826797 0.0183332 0
M  V30 1793 H 172.068 1.54122 -0.710251 0
M  V30 1794 H 170.84 3.68 -1.3301 0
M  V30 1795 H 170.463 3.95949 0.361991 0
M  V30 1796 N 171.46 0.379036 1.52974 0
M  V30 1797 C 172.37 -0.468639 2.29872 0
M  V30 1798 C 173.386 -1.08067 1.36373 0
M  V30 1799 O 174.562 -1.08871 1.69438 0
M  V30 1800 C 171.627 -1.58594 3.083 0
M  V30 1801 C 170.688 -1.00007 4.17489 0
M  V30 1802 C 169.921 -2.06413 4.92168 0
M  V30 1803 O 170.144 -3.27751 4.66835 0
M  V30 1804 O 169.078 -1.68717 5.7777 0
M  V30 1805 H 172.904 0.157508 3.03291 0
M  V30 1806 H 170.489 0.143035 1.48714 0
M  V30 1807 H 172.371 -2.23525 3.57232 0
M  V30 1808 H 171.046 -2.19724 2.37703 0
M  V30 1809 H 169.953 -0.314299 3.72777 0
M  V30 1810 H 171.286 -0.433135 4.90291 0
M  V30 1811 N 172.938 -1.57226 0.108567 0
M  V30 1812 C 173.848 -2.18292 -0.859401 0
M  V30 1813 C 174.864 -1.15612 -1.30038 0
M  V30 1814 O 176.04 -1.48039 -1.36552 0
M  V30 1815 C 173.105 -2.762 -2.09558 0
M  V30 1816 C 172.166 -3.93881 -1.70752 0
M  V30 1817 C 171.399 -4.49018 -2.88477 0
M  V30 1818 O 171.622 -4.03068 -4.036 0
M  V30 1819 O 170.556 -5.39852 -2.66164 0
M  V30 1820 H 174.382 -3.01441 -0.369769 0
M  V30 1821 H 171.967 -1.48945 -0.1165 0
M  V30 1822 H 173.849 -3.13156 -2.81978 0
M  V30 1823 H 172.524 -1.96089 -2.57548 0
M  V30 1824 H 171.431 -3.61713 -0.954714 0
M  V30 1825 H 172.764 -4.75396 -1.27513 0
M  V30 1826 N 174.416 0.165178 -1.56732 0
M  V30 1827 C 175.346 1.20651 -1.99914 0
M  V30 1828 C 176.327 1.45827 -0.875705 0
M  V30 1829 O 177.512 1.57057 -1.14223 0
M  V30 1830 C 174.642 2.54401 -2.36427 0
M  V30 1831 C 173.596 2.43782 -3.51787 0
M  V30 1832 C 172.922 3.82078 -3.7406 0
M  V30 1833 C 174.222 1.93732 -4.85041 0
M  V30 1834 H 175.916 0.847534 -2.87154 0
M  V30 1835 H 173.462 0.40625 -1.38151 0
M  V30 1836 H 175.415 3.27458 -2.65234 0
M  V30 1837 H 174.139 2.92098 -1.46103 0
M  V30 1838 H 172.798 1.73178 -3.23117 0
M  V30 1839 H 172.446 4.17179 -2.81017 0
M  V30 1840 H 172.146 3.7584 -4.51684 0
M  V30 1841 H 173.67 4.56712 -4.05274 0
M  V30 1842 H 175.084 2.56569 -5.12684 0
M  V30 1843 H 173.481 1.98428 -5.66345 0
M  V30 1844 H 174.551 0.891962 -4.76626 0
M  V30 1845 N 175.894 1.51508 0.433938 0
M  V30 1846 C 177.142 1.6402 1.18075 0
M  V30 1847 C 177.463 0.360328 1.91642 0
M  V30 1848 O 176.733 -0.623945 1.85698 0
M  V30 1849 H 175.313 0.6045 0.43885 0
M  V30 1850 H 177.975 1.88452 0.497178 0
M  V30 1851 H 177.071 2.46949 1.90847 0
M  V30 1852 N 177.372 -0.689602 1.41712 0
M  V30 1853 C 178.322 -1.79571 1.40493 0
M  V30 1854 C 179.306 -1.58473 0.278409 0
M  V30 1855 O 180.498 -1.69204 0.519532 0
M  V30 1856 C 177.627 -3.17923 1.29536 0
M  V30 1857 C 176.713 -3.44695 2.47075 0
M  V30 1858 N 177.104 -3.42132 3.72531 0
M  V30 1859 C 175.402 -3.75269 2.41017 0
M  V30 1860 C 176.103 -3.67976 4.50521 0
M  V30 1861 N 175.079 -3.88014 3.80718 0
M  V30 1862 H 178.881 -1.75961 2.35404 0
M  V30 1863 H 176.395 -0.889839 1.35851 0
M  V30 1864 H 178.392 -3.97167 1.26745 0
M  V30 1865 H 177.052 -3.22741 0.356153 0
M  V30 1866 H 178.063 -3.22375 4.05333 0
M  V30 1867 H 174.74 -3.87421 1.55599 0
M  V30 1868 H 176.13 -3.7208 5.59469 0
M  V30 1869 N 178.85 -1.27639 -0.924453 0
M  V30 1870 C 180.096 -1.14336 -1.67497 0
M  V30 1871 C 180.429 0.309465 -1.91718 0
M  V30 1872 O 179.704 1.22608 -1.50989 0
M  V30 1873 C 179.987 -1.93096 -3.0395 0
M  V30 1874 C 179.84 -3.46381 -2.8695 0
M  V30 1875 C 181.159 -1.73798 -4.0433 0
M  V30 1876 H 178.278 -0.416728 -0.607871 0
M  V30 1877 H 180.92 -1.56832 -1.07256 0
M  V30 1878 H 179.07 -1.56982 -3.55372 0
M  V30 1879 H 180.742 -3.92343 -2.42621 0
M  V30 1880 H 178.985 -3.72557 -2.22225 0
M  V30 1881 H 179.656 -3.96735 -3.83804 0
M  V30 1882 H 182.132 -2.05293 -3.61931 0
M  V30 1883 H 181.008 -2.31294 -4.97789 0
M  V30 1884 H 181.269 -0.686725 -4.36734 0
M  V30 1885 N 180.328 1.1314 -1.09713 0
M  V30 1886 C 181.576 1.84119 -0.833338 0
M  V30 1887 C 181.897 1.84097 0.642904 0
M  V30 1888 O 181.167 1.29881 1.46655 0
M  V30 1889 H 179.747 0.681766 -0.305293 0
M  V30 1890 H 182.409 1.37038 -1.38588 0
M  V30 1891 H 181.505 2.88543 -1.18951 0
M  V30 1892 N 181.806 0.884767 1.30421 0
M  V30 1893 C 182.736 0.367574 2.30589 0
M  V30 1894 C 183.717 -0.549464 1.60981 0
M  V30 1895 O 184.902 -0.46336 1.88591 0
M  V30 1896 C 182.032 -0.418944 3.44764 0
M  V30 1897 C 180.986 0.406316 4.26067 0
M  V30 1898 C 180.312 -0.506793 5.32293 0
M  V30 1899 C 181.612 1.64832 4.95608 0
M  V30 1900 H 183.306 1.20462 2.74097 0
M  V30 1901 H 180.852 0.580695 1.31772 0
M  V30 1902 H 182.805 -0.791395 4.13902 0
M  V30 1903 H 181.529 -1.28964 3.0006 0
M  V30 1904 H 180.188 0.760903 3.58617 0
M  V30 1905 H 179.836 -1.37519 4.83836 0
M  V30 1906 H 179.536 0.0415828 5.87585 0
M  V30 1907 H 181.06 -0.875764 6.04287 0
M  V30 1908 H 182.474 1.34646 5.57264 0
M  V30 1909 H 180.871 2.13688 5.60765 0
M  V30 1910 H 181.941 2.39284 4.21748 0
M  V30 1911 N 183.284 -1.43765 0.645699 0
M  V30 1912 C 184.247 -2.29163 -0.0409488 0
M  V30 1913 C 185.247 -1.41813 -0.757996 0
M  V30 1914 O 186.437 -1.63527 -0.600382 0
M  V30 1915 C 183.569 -3.23716 -1.06869 0
M  V30 1916 H 184.762 -2.91366 0.710345 0
M  V30 1917 H 182.315 -1.5092 0.406547 0
M  V30 1918 H 183.05 -2.66393 -1.84947 0
M  V30 1919 H 182.835 -3.88105 -0.558277 0
M  V30 1920 H 184.325 -3.87831 -1.54845 0
M  V30 1921 N 184.763 -0.387143 -1.52771 0
M  V30 1922 C 185.695 0.484089 -2.2403 0
M  V30 1923 C 186.708 1.02849 -1.26198 0
M  V30 1924 O 187.897 0.931186 -1.52286 0
M  V30 1925 C 184.997 1.68337 -2.94136 0
M  V30 1926 C 184.17 1.26672 -4.18656 0
M  V30 1927 C 183.229 2.33045 -4.7178 0
M  V30 1928 O 182.255 1.94541 -5.34923 0
M  V30 1929 N 183.457 3.64929 -4.5145 0
M  V30 1930 H 186.222 -0.126404 -2.99433 0
M  V30 1931 H 183.783 -0.213392 -1.60488 0
M  V30 1932 H 185.775 2.39019 -3.26577 0
M  V30 1933 H 184.345 2.20025 -2.22053 0
M  V30 1934 H 183.565 0.388878 -3.92277 0
M  V30 1935 H 184.853 0.964964 -4.99566 0
M  V30 1936 H 184.251 3.98974 -4.01044 0
M  V30 1937 H 182.808 4.31651 -4.88386 0
M  V30 1938 N 186.241 1.57166 -0.116904 0
M  V30 1939 C 187.652 1.82169 0.408809 0
M  V30 1940 C 188.003 1.03393 1.66746 0
M  V30 1941 O 187.128 0.269886 2.1471 0
M  V30 1942 C 187.723 3.30429 0.748466 0
M  V30 1943 C 186.282 3.5612 1.21882 0
M  V30 1944 C 185.429 2.76374 0.226452 0
M  V30 1945 H 188.38 1.5497 -0.342063 0
M  V30 1946 H 188.401 3.44943 1.60607 0
M  V30 1947 H 187.913 3.87737 -0.167784 0
M  V30 1948 H 186.014 3.04168 2.15204 0
M  V30 1949 H 186.127 4.64705 1.16559 0
M  V30 1950 H 184.491 2.44515 0.713063 0
M  V30 1951 H 185.274 3.3644 -0.682859 0
M  V30 1952 N 187.719 -0.156864 1.56817 0
M  V30 1953 C 188.967 -0.869404 1.82444 0
M  V30 1954 C 189.288 -1.82147 0.69623 0
M  V30 1955 O 188.558 -1.93847 -0.28287 0
M  V30 1956 H 187.138 -0.324043 0.673056 0
M  V30 1957 H 189.8 -0.153224 1.94297 0
M  V30 1958 H 188.896 -1.43761 2.77019 0
M  V30 1959 N 189.197 -1.51736 -0.425897 0
M  V30 1960 C 190.422 -1.69082 -1.20108 0
M  V30 1961 C 190.847 -0.392398 -1.83962 0
M  V30 1962 O 190.205 0.64858 -1.69302 0
M  V30 1963 C 190.253 -2.81604 -2.25237 0
M  V30 1964 O 189.357 -2.46004 -3.30992 0
M  V30 1965 H 188.698 -0.563408 -0.35138 0
M  V30 1966 H 191.228 -1.98358 -0.501512 0
M  V30 1967 H 191.238 -3.06025 -2.69838 0
M  V30 1968 H 189.913 -3.75817 -1.78142 0
M  V30 1969 H 188.49 -2.32195 -2.91787 0
M  V30 1970 N 190.675 0.682077 -1.42076 0
M  V30 1971 C 192.086 1.26246 -1.37546 0
M  V30 1972 C 192.437 1.96092 -0.0651481 0
M  V30 1973 O 191.562 1.99587 0.836297 0
M  V30 1974 C 192.157 2.29594 -2.49143 0
M  V30 1975 C 190.716 2.83175 -2.47969 0
M  V30 1976 C 189.863 1.57395 -2.28303 0
M  V30 1977 H 192.814 0.475937 -1.51395 0
M  V30 1978 H 192.835 3.11175 -2.18976 0
M  V30 1979 H 192.347 1.78729 -3.44496 0
M  V30 1980 H 190.448 3.3818 -1.56413 0
M  V30 1981 H 190.561 3.32687 -3.44755 0
M  V30 1982 H 188.925 1.83699 -1.76428 0
M  V30 1983 H 189.708 1.08507 -3.25701 0
M  V30 1984 N 192.153 1.28127 0.917671 0
M  V30 1985 C 193.1 1.11717 2.0196 0
M  V30 1986 C 194.07 0.0153929 1.66093 0
M  V30 1987 O 195.255 0.179596 1.89953 0
M  V30 1988 C 192.395 0.780927 3.36148 0
M  V30 1989 C 191.508 1.96135 3.84909 0
M  V30 1990 C 190.643 1.56609 5.0759 0
M  V30 1991 C 189.682 2.71339 5.48673 0
M  V30 1992 N 188.819 2.32332 6.62545 0
M  V30 1993 H 193.659 2.06003 2.15329 0
M  V30 1994 H 191.196 1.02535 1.05475 0
M  V30 1995 H 193.154 0.56675 4.13333 0
M  V30 1996 H 191.784 -0.124998 3.22558 0
M  V30 1997 H 190.836 2.28777 3.03916 0
M  V30 1998 H 192.148 2.82165 4.1132 0
M  V30 1999 H 191.302 1.31374 5.92305 0
M  V30 2000 H 190.041 0.677014 4.82978 0
M  V30 2001 H 189.046 2.97276 4.62501 0
M  V30 2002 H 190.271 3.60882 5.75274 0
M  V30 2003 H 188.217 1.45889 6.39572 0
M  V30 2004 H 188.134 3.11899 6.88662 0
M  V30 2005 H 189.402 2.10371 7.50576 0
M  V30 2006 N 193.631 -1.12557 1.10312 0
M  V30 2007 C 194.561 -2.20341 0.772798 0
M  V30 2008 C 195.542 -1.68198 -0.25365 0
M  V30 2009 O 196.727 -1.93831 -0.119699 0
M  V30 2010 C 193.857 -3.46709 0.202443 0
M  V30 2011 C 192.811 -4.11996 1.15943 0
M  V30 2012 C 192.137 -5.328 0.450345 0
M  V30 2013 C 193.437 -4.5828 2.50552 0
M  V30 2014 H 195.131 -2.48229 1.674 0
M  V30 2015 H 192.677 -1.19308 0.806326 0
M  V30 2016 H 194.63 -4.2138 -0.0407752 0
M  V30 2017 H 193.354 -3.18245 -0.734001 0
M  V30 2018 H 192.013 -3.39305 1.38808 0
M  V30 2019 H 191.661 -5.00602 -0.490531 0
M  V30 2020 H 191.361 -5.7743 1.08851 0
M  V30 2021 H 192.885 -6.10219 0.215642 0
M  V30 2022 H 194.299 -5.2433 2.31843 0
M  V30 2023 H 192.696 -5.13683 3.10242 0
M  V30 2024 H 193.766 -3.72329 3.10643 0
M  V30 2025 N 195.109 -0.891671 -1.2995 0
M  V30 2026 C 196.358 -0.509521 -1.95158 0
M  V30 2027 C 196.671 0.947388 -1.71125 0
M  V30 2028 O 197.877 1.43669 -2.30372 0
M  V30 2029 C 196.333 -0.860315 -3.49466 0
M  V30 2030 C 195.941 -2.33545 -3.8231 0
M  V30 2031 C 197.685 -0.547687 -4.20952 0
M  V30 2032 C 195.592 -2.62752 -5.29826 0
M  V30 2033 H 194.522 -0.18682 -0.730489 0
M  V30 2034 H 197.173 -1.08756 -1.47798 0
M  V30 2035 H 195.555 -0.211285 -3.95436 0
M  V30 2036 H 196.729 -3.02936 -3.47227 0
M  V30 2037 H 195.044 -2.61629 -3.23944 0
M  V30 2038 H 197.641 -0.742854 -5.29515 0
M  V30 2039 H 197.984 0.51332 -4.13123 0
M  V30 2040 H 198.517 -1.1542 -3.80688 0
M  V30 2041 H 195.256 -3.6762 -5.42712 0
M  V30 2042 H 194.776 -1.97977 -5.66185 0
M  V30 2043 H 196.455 -2.48601 -5.97333 0
M  V30 2044 N 196.587 1.43421 -0.653314 0
M  V30 2045 C 197.535 2.32546 0.0501531 0
M  V30 2046 C 198.529 1.48617 0.812985 0
M  V30 2047 O 199.735 1.64825 0.723375 0
M  V30 2048 H 196.11 0.751185 0.0350032 0
M  V30 2049 H 198.081 2.89602 -0.719261 0
M  V30 2050 C 196.83 3.32925 1.00279 0
M  V30 2051 H 196.153 3.97532 0.425236 0
M  V30 2052 H 197.593 3.9792 1.46409 0
M  V30 2053 C 196.052 2.63532 2.09886 0
M  V30 2054 O 196.582 2.45092 3.18265 0
M  V30 2055 N 194.788 2.22905 1.86445 0
M  V30 2056 H 194.335 2.38103 0.98309 0
M  V30 2057 H 194.293 1.76805 2.59976 0
M  V30 2058 N 198.065 0.39524 1.52563 0
M  V30 2059 C 199.29 -0.187456 2.06551 0
M  V30 2060 C 199.715 -1.39249 1.26457 0
M  V30 2061 O 199.073 -1.78947 0.291151 0
M  V30 2062 C 199.121 -0.529985 3.56684 0
M  V30 2063 O 198.225 -1.62307 3.79118 0
M  V30 2064 H 197.566 -0.0202537 0.663691 0
M  V30 2065 H 200.096 0.564426 1.96661 0
M  V30 2066 H 200.106 -0.792598 4.00227 0
M  V30 2067 H 198.781 0.350987 4.14416 0
M  V30 2068 H 197.358 -1.3537 3.47461 0
M  V30 2069 N 199.544 -1.57102 0.125237 0
M  V30 2070 C 200.474 -2.18659 -0.819174 0
M  V30 2071 C 201.455 -1.12843 -1.27281 0
M  V30 2072 O 202.64 -1.41104 -1.33429 0
M  V30 2073 C 199.77 -2.79096 -2.06695 0
M  V30 2074 C 198.724 -3.90548 -1.75088 0
M  V30 2075 C 198.05 -4.37821 -3.06948 0
M  V30 2076 C 199.35 -5.12356 -1.01435 0
M  V30 2077 H 201.044 -2.9783 -0.306202 0
M  V30 2078 H 198.59 -1.4326 -0.145839 0
M  V30 2079 H 200.543 -3.2082 -2.73226 0
M  V30 2080 H 199.267 -1.97223 -2.60328 0
M  V30 2081 H 197.926 -3.49409 -1.10944 0
M  V30 2082 H 197.574 -3.52799 -3.58527 0
M  V30 2083 H 197.274 -5.12982 -2.86571 0
M  V30 2084 H 198.798 -4.822 -3.74587 0
M  V30 2085 H 200.212 -5.5106 -1.58132 0
M  V30 2086 H 198.609 -5.9314 -0.911319 0
M  V30 2087 H 199.679 -4.849 -0.00218681 0
M  V30 2088 N 201.022 0.148545 -1.56898 0
M  V30 2089 C 201.952 1.18524 -2.01182 0
M  V30 2090 C 202.933 1.4489 -0.891123 0
M  V30 2091 O 204.118 1.55836 -1.15882 0
M  V30 2092 C 201.248 2.51879 -2.39112 0
M  V30 2093 C 200.202 2.40038 -3.54353 0
M  V30 2094 C 199.528 3.78089 -3.78091 0
M  V30 2095 C 200.828 1.88577 -4.87069 0
M  V30 2096 H 202.522 0.817029 -2.88036 0
M  V30 2097 H 200.068 0.391575 -1.38574 0
M  V30 2098 H 202.021 3.24627 -2.68692 0
M  V30 2099 H 200.745 2.90532 -1.49193 0
M  V30 2100 H 199.404 1.69742 -3.24936 0
M  V30 2101 H 199.052 4.14175 -2.85426 0
M  V30 2102 H 198.752 3.71028 -4.55645 0
M  V30 2103 H 200.276 4.52387 -4.10095 0
M  V30 2104 H 201.69 2.51117 -5.15377 0
M  V30 2105 H 200.087 1.9241 -5.68417 0
M  V30 2106 H 201.157 0.84136 -4.77545 0
M  V30 2107 N 202.5 1.5196 0.417844 0
M  V30 2108 C 203.41 1.77554 1.53336 0
M  V30 2109 C 204.426 0.660655 1.6097 0
M  V30 2110 O 205.602 0.945099 1.77848 0
M  V30 2111 C 202.667 1.91291 2.89152 0
M  V30 2112 C 201.728 3.15183 2.91475 0
M  V30 2113 C 200.961 3.28256 4.20813 0
M  V30 2114 O 201.184 2.46798 5.14244 0
M  V30 2115 O 200.118 4.21356 4.29817 0
M  V30 2116 H 203.944 2.7222 1.34647 0
M  V30 2117 H 201.529 1.36698 0.602828 0
M  V30 2118 H 203.411 2.02199 3.69721 0
M  V30 2119 H 202.086 0.998129 3.07927 0
M  V30 2120 H 200.993 3.09739 2.09791 0
M  V30 2121 H 202.326 4.06414 2.77648 0
M  V30 2122 N 203.978 -0.674533 1.42435 0
M  V30 2123 C 204.926 -1.80934 1.46169 0
M  V30 2124 C 205.92 -1.66006 0.3374 0
M  V30 2125 O 207.126 -1.72611 0.510425 0
M  V30 2126 H 203.501 -0.596594 0.457798 0
M  V30 2127 H 205.472 -1.74903 2.41767 0
M  V30 2128 C 204.221 -3.19088 1.38123 0
M  V30 2129 H 203.544 -3.31203 2.23931 0
M  V30 2130 H 204.984 -3.9851 1.44797 0
M  V30 2131 C 203.443 -3.36763 0.0960517 0
M  V30 2132 O 203.973 -3.92581 -0.851073 0
M  V30 2133 N 202.179 -2.90597 0.0131186 0
M  V30 2134 H 201.726 -2.45359 0.784639 0
M  V30 2135 H 201.684 -3.028 -0.846133 0
M  V30 2136 N 205.456 -1.28612 -0.910864 0
M  V30 2137 C 206.704 -1.15705 -1.65701 0
M  V30 2138 C 207.025 0.29416 -1.92769 0
M  V30 2139 O 206.295 1.20331 -1.54588 0
M  V30 2140 H 204.875 -0.425216 -0.614167 0
M  V30 2141 H 207.537 -1.61381 -1.0928 0
M  V30 2142 H 206.633 -1.6988 -2.61815 0
M  V30 2143 N 206.934 1.1197 -1.10907 0
M  V30 2144 C 208.164 1.8713 -0.875553 0
M  V30 2145 C 208.572 1.8016 0.577843 0
M  V30 2146 O 207.915 1.17699 1.41042 0
M  V30 2147 C 207.977 3.37005 -1.2517 0
M  V30 2148 C 207.641 3.67748 -2.71313 0
M  V30 2149 C 208.638 3.65698 -3.69542 0
M  V30 2150 C 206.323 3.96928 -3.07821 0
M  V30 2151 C 208.317 3.92395 -5.023 0
M  V30 2152 C 206.004 4.23284 -4.40765 0
M  V30 2153 C 207.002 4.21005 -5.37814 0
M  V30 2154 O 206.69 4.46704 -6.68364 0
M  V30 2155 H 206.422 0.598786 -0.313737 0
M  V30 2156 H 208.976 1.42568 -1.47863 0
M  V30 2157 H 207.206 3.82146 -0.591741 0
M  V30 2158 H 208.895 3.93519 -0.994877 0
M  V30 2159 H 209.661 3.43211 -3.42682 0
M  V30 2160 H 205.54 3.97841 -2.32902 0
M  V30 2161 H 209.084 3.90531 -5.78041 0
M  V30 2162 H 204.981 4.45246 -4.67361 0
M  V30 2163 H 205.749 4.64299 -6.74069 0
M  V30 2164 N 208.412 0.89855 1.29475 0
M  V30 2165 C 209.342 0.39201 2.30186 0
M  V30 2166 C 210.323 -0.532359 1.61555 0
M  V30 2167 O 211.508 -0.443331 1.89072 0
M  V30 2168 C 208.638 -0.382353 3.45189 0
M  V30 2169 C 207.592 0.451483 4.25612 0
M  V30 2170 C 206.918 -0.450307 5.328 0
M  V30 2171 C 208.218 1.70079 4.93832 0
M  V30 2172 H 209.912 1.23362 2.72804 0
M  V30 2173 H 207.458 0.594638 1.31149 0
M  V30 2174 H 209.411 -0.747451 4.14718 0
M  V30 2175 H 208.135 -1.25774 3.01411 0
M  V30 2176 H 206.794 0.798897 3.57789 0
M  V30 2177 H 206.442 -1.32379 4.85268 0
M  V30 2178 H 206.142 0.103902 5.87508 0
M  V30 2179 H 207.666 -0.811623 6.05182 0
M  V30 2180 H 209.08 1.40549 5.55805 0
M  V30 2181 H 207.477 2.19623 5.58467 0
M  V30 2182 H 208.547 2.43744 4.19186 0
M  V30 2183 N 209.89 -1.43072 0.660911 0
M  V30 2184 C 211.301 -1.84932 0.256348 0
M  V30 2185 C 211.652 -1.55325 -1.19868 0
M  V30 2186 O 210.777 -1.00607 -1.91591 0
M  V30 2187 C 211.372 -3.35684 0.458475 0
M  V30 2188 C 209.931 -3.76245 0.108161 0
M  V30 2189 C 209.078 -2.66749 0.757641 0
M  V30 2190 H 212.029 -1.33116 0.864051 0
M  V30 2191 H 212.05 -3.79365 -0.293683 0
M  V30 2192 H 211.562 -3.572 1.51755 0
M  V30 2193 H 209.663 -3.60338 -0.948014 0
M  V30 2194 H 209.776 -4.76058 0.538992 0
M  V30 2195 H 208.14 -2.53989 0.190185 0
M  V30 2196 H 208.923 -2.91092 1.81989 0
M  V30 2197 N 211.368 -0.403325 -1.52352 0
M  V30 2198 C 212.614 0.174605 -2.02047 0
M  V30 2199 C 212.947 1.45282 -1.28867 0
M  V30 2200 O 212.222 1.90483 -0.393257 0
M  V30 2201 C 212.505 0.428238 -3.57545 0
M  V30 2202 C 212.358 -0.866248 -4.4138 0
M  V30 2203 C 213.677 1.21287 -4.23057 0
M  V30 2204 H 210.796 0.0619851 -0.734389 0
M  V30 2205 H 213.438 -0.53565 -1.82293 0
M  V30 2206 H 211.588 1.03327 -3.74507 0
M  V30 2207 H 213.26 -1.50265 -4.3614 0
M  V30 2208 H 211.503 -1.47851 -4.07827 0
M  V30 2209 H 212.174 -0.643249 -5.48239 0
M  V30 2210 H 214.65 0.700703 -4.10158 0
M  V30 2211 H 213.526 1.35909 -5.31808 0
M  V30 2212 H 213.787 2.23193 -3.81625 0
M  V30 2213 N 212.846 1.57033 -0.133567 0
M  V30 2214 C 214.092 1.95976 0.521649 0
M  V30 2215 C 214.425 1.01779 1.65393 0
M  V30 2216 O 213.7 0.0576581 1.94415 0
M  V30 2217 C 213.983 3.44738 1.04057 0
M  V30 2218 C 213.836 4.49711 -0.0892897 0
M  V30 2219 C 215.155 3.95682 1.92675 0
M  V30 2220 H 212.274 0.712579 0.188149 0
M  V30 2221 H 214.916 1.88813 -0.212076 0
M  V30 2222 H 213.066 3.50973 1.66583 0
M  V30 2223 H 214.738 4.55565 -0.725152 0
M  V30 2224 H 212.981 4.27261 -0.750378 0
M  V30 2225 H 213.652 5.51099 0.315284 0
M  V30 2226 H 216.128 3.91841 1.39998 0
M  V30 2227 H 215.004 5.00262 2.25897 0
M  V30 2228 H 215.265 3.37239 2.85872 0
M  V30 2229 N 214.325 -0.140222 1.56975 0
M  V30 2230 C 215.55 -0.870414 1.88251 0
M  V30 2231 C 215.975 -1.73637 0.723312 0
M  V30 2232 O 215.333 -1.78329 -0.32689 0
M  V30 2233 C 215.381 -1.69737 3.18154 0
M  V30 2234 O 214.485 -2.80229 3.02565 0
M  V30 2235 H 213.826 -0.242025 0.61832 0
M  V30 2236 H 216.356 -0.128999 2.04193 0
M  V30 2237 H 216.366 -2.09099 3.50345 0
M  V30 2238 H 215.041 -1.06152 4.02125 0
M  V30 2239 H 213.618 -2.44224 2.81796 0
M  V30 2240 N 215.803 -1.52179 -0.40978 0
M  V30 2241 C 217.028 -1.70347 -1.18308 0
M  V30 2242 C 217.453 -0.411887 -1.83535 0
M  V30 2243 O 216.811 0.630587 -1.6998 0
M  V30 2244 C 216.859 -2.83977 -2.22238 0
M  V30 2245 O 215.963 -2.495 -3.28365 0
M  V30 2246 H 215.304 -0.567103 -0.345384 0
M  V30 2247 H 217.834 -1.98879 -0.480445 0
M  V30 2248 H 217.844 -3.0887 -2.66577 0
M  V30 2249 H 216.519 -3.77685 -1.74146 0
M  V30 2250 H 215.096 -2.35277 -2.89308 0
M  V30 2251 N 217.281 0.66697 -1.42791 0
M  V30 2252 C 218.53 1.42278 -1.42968 0
M  V30 2253 C 218.843 1.9553 -0.0524489 0
M  V30 2254 O 220.049 2.71414 0.068363 0
M  V30 2255 C 218.505 2.57418 -2.51524 0
M  V30 2256 C 218.113 2.10832 -3.9529 0
M  V30 2257 C 219.857 3.34878 -2.60877 0
M  V30 2258 C 217.764 3.23101 -4.95338 0
M  V30 2259 H 216.694 0.534533 -0.531781 0
M  V30 2260 H 219.345 0.721302 -1.68729 0
M  V30 2261 H 217.727 3.29971 -2.18941 0
M  V30 2262 H 218.901 1.4538 -4.37266 0
M  V30 2263 H 217.216 1.46289 -3.89857 0
M  V30 2264 H 219.813 4.18505 -3.32802 0
M  V30 2265 H 220.156 3.81993 -1.6549 0
M  V30 2266 H 220.689 2.69398 -2.92693 0
M  V30 2267 H 217.428 2.80969 -5.9223 0
M  V30 2268 H 216.948 3.87309 -4.57987 0
M  V30 2269 H 218.627 3.88447 -5.17415 0
M  V30 2270 N 218.759 1.29093 0.90403 0
M  V30 2271 C 220.007 1.16583 1.65085 0
M  V30 2272 C 220.328 -0.283933 1.92922 0
M  V30 2273 O 219.598 -1.19509 1.55224 0
M  V30 2274 H 218.178 0.428467 0.611903 0
M  V30 2275 H 220.84 1.61959 1.08422 0
M  V30 2276 H 219.936 1.71266 2.6091 0
M  V30 2277 N 220.237 -1.11381 1.11499 0
M  V30 2278 C 221.483 -1.83403 0.865512 0
M  V30 2279 C 221.816 -1.84459 -0.607329 0
M  V30 2280 O 221.091 -1.29811 -1.44842 0
M  V30 2281 C 221.374 -3.30552 1.42855 0
M  V30 2282 C 221.227 -3.37886 2.96906 0
M  V30 2283 C 222.546 -4.26643 1.08 0
M  V30 2284 H 219.665 -0.665879 0.31587 0
M  V30 2285 H 222.307 -1.30601 1.37998 0
M  V30 2286 H 220.457 -3.75648 0.990985 0
M  V30 2287 H 222.129 -3.01343 3.49271 0
M  V30 2288 H 220.372 -2.78088 3.32941 0
M  V30 2289 H 221.043 -4.41458 3.31389 0
M  V30 2290 H 223.519 -3.89729 1.45775 0
M  V30 2291 H 222.395 -5.27986 1.50072 0
M  V30 2292 H 222.656 -4.42099 -0.00915037 0
M  V30 2293 N 221.715 -0.905404 -1.28997 0
M  V30 2294 C 222.943 -0.549846 -1.9946 0
M  V30 2295 C 223.358 0.866834 -1.67724 0
M  V30 2296 O 222.715 1.57298 -0.925404 0
M  V30 2297 C 222.766 -0.739387 -3.53858 0
M  V30 2298 O 222.487 -2.10031 -3.84472 0
M  V30 2299 C 223.988 -0.389541 -4.41585 0
M  V30 2300 H 221.208 -0.210429 -0.637151 0
M  V30 2301 H 223.752 -1.21632 -1.64396 0
M  V30 2302 H 221.907 -0.120023 -3.87214 0
M  V30 2303 H 222.321 -2.13385 -4.79132 0
M  V30 2304 H 223.795 -0.572972 -5.49018 0
M  V30 2305 H 224.272 0.673756 -4.34001 0
M  V30 2306 H 224.878 -0.986089 -4.1371 0
M  V30 2307 N 223.193 1.4272 -0.668489 0
M  V30 2308 C 224.47 1.95248 -0.117373 0
M  V30 2309 C 224.85 1.60919 1.36632 0
M  V30 2310 O 224.198 0.902095 2.09939 0
M  V30 2311 C 224.408 3.46927 -0.379806 0
M  V30 2312 C 225.756 4.23588 -0.292923 0
M  V30 2313 O 226.78 3.5482 -0.313204 0
M  V30 2314 O 225.639 5.46017 -0.229697 0
M  V30 2315 H 222.733 0.827 0.00079152 0
M  V30 2316 H 225.279 1.52581 -0.742783 0
M  V30 2317 H 224.051 3.65096 -1.40786 0
M  V30 2318 H 223.674 3.96627 0.277923 0
M  V30 2319 N 224.671 0.411399 1.52136 0
M  V30 2320 C 225.581 -0.419774 2.30814 0
M  V30 2321 C 226.597 -1.0515 1.38634 0
M  V30 2322 O 227.773 -1.05252 1.71709 0
M  V30 2323 C 224.838 -1.52019 3.11594 0
M  V30 2324 C 223.899 -0.91129 4.19516 0
M  V30 2325 C 223.132 -1.95927 4.96436 0
M  V30 2326 O 223.355 -3.17775 4.73683 0
M  V30 2327 O 222.289 -1.56423 5.81219 0
M  V30 2328 H 226.115 0.221805 3.02889 0
M  V30 2329 H 223.7 0.174547 1.48377 0
M  V30 2330 H 225.582 -2.15898 3.61892 0
M  V30 2331 H 224.257 -2.14633 2.42311 0
M  V30 2332 H 223.164 -0.235157 3.7336 0
M  V30 2333 H 224.497 -0.32904 4.91099 0
M  V30 2334 N 226.149 -1.5696 0.141893 0
M  V30 2335 C 227.397 -1.95573 -0.509484 0
M  V30 2336 C 227.718 -1.02746 -1.65736 0
M  V30 2337 O 226.988 -0.0880311 -1.95702 0
M  V30 2338 H 225.568 -0.722115 -0.191205 0
M  V30 2339 H 228.23 -1.93697 0.216196 0
M  V30 2340 H 227.326 -2.99171 -0.889 0
M  V30 2341 N 227.627 0.131896 -1.57047 0
M  V30 2342 C 228.559 1.1878 -1.9602 0
M  V30 2343 C 229.572 1.38363 -0.857875 0
M  V30 2344 O 230.761 1.37666 -1.13623 0
M  V30 2345 C 227.861 2.55008 -2.23213 0
M  V30 2346 C 227.034 2.56201 -3.54513 0
M  V30 2347 C 226.093 3.7408 -3.70069 0
M  V30 2348 O 225.119 3.58258 -4.42312 0
M  V30 2349 N 226.321 4.92137 -3.07866 0
M  V30 2350 H 229.086 0.85639 -2.87204 0
M  V30 2351 H 226.647 0.321309 -1.5868 0
M  V30 2352 H 228.639 3.32404 -2.30846 0
M  V30 2353 H 227.209 2.80382 -1.3822 0
M  V30 2354 H 226.429 1.64613 -3.58185 0
M  V30 2355 H 227.717 2.54043 -4.4084 0
M  V30 2356 H 227.115 5.07895 -2.49116 0
M  V30 2357 H 225.672 5.67254 -3.21039 0
M  V30 2358 N 229.106 1.52395 0.401703 0
M  V30 2359 C 230.036 1.79231 1.49661 0
M  V30 2360 C 231.017 0.643654 1.57452 0
M  V30 2361 O 232.202 0.889989 1.72606 0
M  V30 2362 C 229.332 1.94971 2.87409 0
M  V30 2363 C 228.286 3.10604 2.94465 0
M  V30 2364 C 227.612 3.11577 4.34538 0
M  V30 2365 C 228.912 4.49921 2.6527 0
M  V30 2366 H 230.606 2.70917 1.27454 0
M  V30 2367 H 228.152 1.30362 0.6117 0
M  V30 2368 H 230.105 2.12328 3.63999 0
M  V30 2369 H 228.829 0.999632 3.10926 0
M  V30 2370 H 227.488 2.93009 2.20321 0
M  V30 2371 H 227.136 2.14277 4.55076 0
M  V30 2372 H 226.836 3.89247 4.40183 0
M  V30 2373 H 228.36 3.31073 5.13053 0
M  V30 2374 H 229.774 4.67683 3.31581 0
M  V30 2375 H 228.171 5.29564 2.82281 0
M  V30 2376 H 229.241 4.57507 1.60671 0
M  V30 2377 N 230.584 -0.659388 1.43143 0
M  V30 2378 C 231.517 -1.78425 1.42267 0
M  V30 2379 C 232.495 -1.60085 0.284894 0
M  V30 2380 O 233.679 -1.82351 0.477527 0
M  V30 2381 C 230.806 -3.15642 1.22833 0
M  V30 2382 C 229.852 -3.52698 2.39806 0
M  V30 2383 S 230.685 -3.53372 4.02353 0
M  V30 2384 C 231.841 -4.93256 3.85291 0
M  V30 2385 H 232.074 -1.78897 2.37452 0
M  V30 2386 H 229.607 -0.831469 1.301 0
M  V30 2387 H 231.565 -3.94838 1.12308 0
M  V30 2388 H 230.226 -3.12739 0.29207 0
M  V30 2389 H 229.419 -4.52475 2.21996 0
M  V30 2390 H 229.021 -2.80899 2.46925 0
M  V30 2391 H 231.313 -5.81751 3.47235 0
M  V30 2392 H 232.256 -5.16115 4.84799 0
M  V30 2393 H 232.664 -4.665 3.17865 0
M  V30 2394 N 232.062 -1.29571 -0.897171 0
M  V30 2395 C 233.01 -1.14802 -2.02295 0
M  V30 2396 C 234.004 -0.0629637 -1.69283 0
M  V30 2397 O 235.21 -0.222945 -1.78614 0
M  V30 2398 H 231.585 -0.354692 -0.663097 0
M  V30 2399 H 233.556 -2.10108 -2.11889 0
M  V30 2400 C 232.305 -0.843966 -3.37302 0
M  V30 2401 H 231.628 -1.67093 -3.63208 0
M  V30 2402 H 233.068 -0.780672 -4.16751 0
M  V30 2403 C 231.527 0.452843 -3.33843 0
M  V30 2404 O 232.057 1.47813 -3.73516 0
M  V30 2405 N 230.263 0.459601 -2.86943 0
M  V30 2406 H 229.81 -0.375213 -2.54853 0
M  V30 2407 H 229.768 1.32726 -2.85011 0
M  V30 2408 N 233.54 1.10788 -1.12088 0
M  V30 2409 C 234.786 1.82942 -0.875226 0
M  V30 2410 C 235.119 1.84779 0.597538 0
M  V30 2411 O 234.394 1.30578 1.44152 0
M  V30 2412 C 234.677 3.29789 -1.44606 0
M  V30 2413 C 234.53 3.36307 -2.98693 0
M  V30 2414 C 235.849 4.26064 -1.10261 0
M  V30 2415 H 232.968 0.664195 -0.319397 0
M  V30 2416 H 235.61 1.29867 -1.38689 0
M  V30 2417 H 233.76 3.75118 -1.01089 0
M  V30 2418 H 235.432 2.99487 -3.50864 0
M  V30 2419 H 233.675 2.76318 -3.34411 0
M  V30 2420 H 234.346 4.39694 -3.33726 0
M  V30 2421 H 236.822 3.88951 -1.4784 0
M  V30 2422 H 235.698 5.27183 -1.52869 0
M  V30 2423 H 235.959 4.42098 -0.0142953 0
M  V30 2424 N 235.018 0.912232 1.28515 0
M  V30 2425 C 235.966 0.389597 2.29314 0
M  V30 2426 C 236.96 -0.517915 1.61289 0
M  V30 2427 O 238.166 -0.399328 1.75515 0
M  V30 2428 H 234.541 0.107386 0.744293 0
M  V30 2429 H 236.512 1.25286 2.70825 0
M  V30 2430 C 235.261 -0.356496 3.45868 0
M  V30 2431 H 234.584 0.332608 3.98414 0
M  V30 2432 H 236.024 -0.686851 4.184 0
M  V30 2433 C 234.483 -1.56383 2.98406 0
M  V30 2434 O 235.013 -2.66294 3.00749 0
M  V30 2435 N 233.219 -1.41029 2.54085 0
M  V30 2436 H 232.766 -0.516089 2.52377 0
M  V30 2437 H 232.724 -2.21939 2.22689 0
M  V30 2438 N 236.496 -1.42363 0.676048 0
M  V30 2439 C 237.459 -2.29199 0.00766941 0
M  V30 2440 C 238.459 -1.43389 -0.727745 0
M  V30 2441 O 239.649 -1.64764 -0.56556 0
M  V30 2442 C 236.781 -3.2591 -0.999785 0
M  V30 2443 H 237.974 -2.89794 0.771988 0
M  V30 2444 H 235.527 -1.50024 0.438468 0
M  V30 2445 H 236.262 -2.70256 -1.79255 0
M  V30 2446 H 236.047 -3.89202 -0.475829 0
M  V30 2447 H 237.537 -3.91028 -1.46583 0
M  V30 2448 N 237.974 -0.419461 -1.51915 0
M  V30 2449 C 239.251 0.211999 -1.94448 0
M  V30 2450 C 239.631 1.61703 -1.35703 0
M  V30 2451 O 238.979 2.22102 -0.536931 0
M  V30 2452 C 239.189 0.207872 -3.4838 0
M  V30 2453 C 240.537 0.422192 -4.22496 0
M  V30 2454 O 241.561 0.286778 -3.55044 0
M  V30 2455 O 240.42 0.690009 -5.42126 0
M  V30 2456 H 237.514 0.139586 -0.815135 0
M  V30 2457 H 240.06 -0.476151 -1.62883 0
M  V30 2458 H 238.832 -0.775102 -3.83546 0
M  V30 2459 H 238.455 0.939688 -3.86336 0
M  V30 2460 N 239.452 1.56882 -0.150215 0
M  V30 2461 C 240.384 2.14057 0.819286 0
M  V30 2462 C 241.397 1.09082 1.20851 0
M  V30 2463 O 242.586 1.36347 1.15203 0
M  V30 2464 C 239.686 2.65102 2.11127 0
M  V30 2465 C 238.859 3.94511 1.88891 0
M  V30 2466 C 237.918 4.30834 3.02107 0
M  V30 2467 O 236.944 4.99099 2.73659 0
M  V30 2468 N 238.146 3.90676 4.29363 0
M  V30 2469 H 240.911 2.97871 0.330618 0
M  V30 2470 H 238.472 1.61866 0.0332538 0
M  V30 2471 H 240.464 2.86411 2.85921 0
M  V30 2472 H 239.034 1.85994 2.51247 0
M  V30 2473 H 238.254 3.81795 0.981152 0
M  V30 2474 H 239.542 4.7907 1.71376 0
M  V30 2475 H 238.94 3.35677 4.55343 0
M  V30 2476 H 237.497 4.1703 5.00928 0
M  V30 2477 N 240.93 -0.123565 1.57115 0
M  V30 2478 C 241.893 -1.13583 1.99076 0
M  V30 2479 C 242.893 -1.34564 0.880296 0
M  V30 2480 O 244.083 -1.31158 1.14644 0
M  V30 2481 C 241.215 -2.49128 2.32698 0
M  V30 2482 H 242.408 -0.775287 2.89706 0
M  V30 2483 H 239.961 -0.36771 1.51913 0
M  V30 2484 H 240.696 -2.90111 1.44934 0
M  V30 2485 H 240.481 -2.35255 3.13684 0
M  V30 2486 H 241.971 -3.2199 2.65918 0
M  V30 2487 N 242.408 -1.52605 -0.393616 0
M  V30 2488 C 243.371 -1.76415 -1.46323 0
M  V30 2489 C 244.371 -0.634126 -1.47768 0
M  V30 2490 O 245.561 -0.902142 -1.4902 0
M  V30 2491 C 242.693 -1.8607 -2.85641 0
M  V30 2492 H 243.886 -2.71916 -1.26498 0
M  V30 2493 H 241.439 -1.43257 -0.625073 0
M  V30 2494 H 242.174 -0.925378 -3.10817 0
M  V30 2495 H 241.959 -2.68235 -2.85993 0
M  V30 2496 H 243.449 -2.06179 -3.63153 0
M  V30 2497 N 243.887 0.651787 -1.4349 0
M  V30 2498 C 245.115 1.43937 -1.48626 0
M  V30 2499 C 245.53 1.8851 -0.104587 0
M  V30 2500 O 244.887 1.5958 0.885464 0
M  V30 2501 C 244.938 2.6734 -2.43334 0
M  V30 2502 O 244.659 2.24631 -3.76128 0
M  V30 2503 C 246.16 3.60683 -2.57726 0
M  V30 2504 H 243.38 0.44213 -0.504739 0
M  V30 2505 H 245.924 0.798944 -1.88248 0
M  V30 2506 H 244.079 3.2752 -2.06904 0
M  V30 2507 H 244.493 3.04485 -4.2707 0
M  V30 2508 H 245.967 4.43933 -3.28067 0
M  V30 2509 H 246.444 4.08126 -1.62265 0
M  V30 2510 H 247.05 3.06384 -2.94973 0
M  V30 2511 N 245.365 1.30045 0.890287 0
M  V30 2512 C 246.328 1.15963 1.977 0
M  V30 2513 C 247.328 0.0923777 1.60534 0
M  V30 2514 O 248.518 0.340071 1.70848 0
M  V30 2515 C 245.65 0.775451 3.31963 0
M  V30 2516 H 246.843 2.12502 2.11619 0
M  V30 2517 H 244.396 1.13366 1.07601 0
M  V30 2518 H 245.131 -0.189671 3.23745 0
M  V30 2519 H 244.916 1.54668 3.60306 0
M  V30 2520 H 246.406 0.700251 4.11687 0
M  V30 2521 N 246.843 -1.10192 1.12674 0
M  V30 2522 C 247.773 -2.18652 0.819362 0
M  V30 2523 C 248.754 -1.68698 -0.217915 0
M  V30 2524 O 249.939 -1.94041 -0.0785581 0
M  V30 2525 C 247.069 -3.46202 0.27594 0
M  V30 2526 C 246.023 -4.09444 1.24656 0
M  V30 2527 C 245.349 -5.31725 0.563258 0
M  V30 2528 C 246.649 -4.52863 2.60217 0
M  V30 2529 H 248.343 -2.44622 1.72628 0
M  V30 2530 H 245.889 -1.17571 0.831451 0
M  V30 2531 H 247.842 -4.21372 0.0486149 0
M  V30 2532 H 246.566 -3.1973 -0.666331 0
M  V30 2533 H 245.225 -3.36284 1.45974 0
M  V30 2534 H 244.873 -5.0153 -0.384235 0
M  V30 2535 H 244.573 -5.74991 1.21075 0
M  V30 2536 H 246.097 -6.09624 0.34503 0
M  V30 2537 H 247.511 -5.19294 2.42913 0
M  V30 2538 H 245.908 -5.06986 3.21068 0
M  V30 2539 H 246.978 -3.65656 3.18471 0
M  V30 2540 N 248.321 -0.919034 -1.28029 0
M  V30 2541 C 249.284 -0.416182 -2.2539 0
M  V30 2542 C 250.284 0.460438 -1.54067 0
M  V30 2543 O 251.474 0.262744 -1.72207 0
M  V30 2544 C 248.606 0.402707 -3.38513 0
M  V30 2545 H 249.799 -1.27629 -2.71387 0
M  V30 2546 H 247.352 -0.698919 -1.39803 0
M  V30 2547 H 248.087 1.282 -2.97885 0
M  V30 2548 H 247.872 -0.225698 -3.9145 0
M  V30 2549 H 249.362 0.745191 -4.10897 0
M  V30 2550 N 249.799 1.42003 -0.683588 0
M  V30 2551 C 250.762 2.29191 -0.0198243 0
M  V30 2552 C 251.762 1.43773 0.72013 0
M  V30 2553 O 252.952 1.65061 0.556815 0
M  V30 2554 C 250.084 3.26435 0.982487 0
M  V30 2555 H 251.277 2.8938 -0.787345 0
M  V30 2556 H 248.83 1.49789 -0.446418 0
M  V30 2557 H 249.565 2.71203 1.77819 0
M  V30 2558 H 249.35 3.89449 0.455182 0
M  V30 2559 H 250.84 3.918 1.44508 0
M  V30 2560 N 251.277 0.427512 1.51691 0
M  V30 2561 C 252.505 -0.141191 2.06418 0
M  V30 2562 C 252.92 -1.37303 1.29589 0
M  V30 2563 O 252.277 -1.79059 0.352732 0
M  V30 2564 C 252.328 -0.473266 3.58389 0
M  V30 2565 O 252.049 0.709673 4.32314 0
M  V30 2566 C 253.55 -1.09371 4.29596 0
M  V30 2567 H 250.77 -0.0122747 0.670888 0
M  V30 2568 H 253.314 0.603764 1.95384 0
M  V30 2569 H 251.469 -1.16812 3.69369 0
M  V30 2570 H 251.883 0.42807 5.2275 0
M  V30 2571 H 253.357 -1.27613 5.37046 0
M  V30 2572 H 253.834 -2.072 3.87253 0
M  V30 2573 H 254.44 -0.43853 4.23033 0
M  V30 2574 N 252.755 -1.56801 0.158532 0
M  V30 2575 C 253.685 -2.20347 -0.772609 0
M  V30 2576 C 254.666 -1.15518 -1.24859 0
M  V30 2577 O 255.851 -1.43902 -1.30406 0
M  V30 2578 C 252.981 -2.83417 -2.00729 0
M  V30 2579 C 251.935 -3.94174 -1.66765 0
M  V30 2580 C 251.261 -4.44233 -2.97592 0
M  V30 2581 C 252.561 -5.14392 -0.905447 0
M  V30 2582 H 254.255 -2.98413 -0.242959 0
M  V30 2583 H 251.801 -1.43537 -0.115419 0
M  V30 2584 H 253.754 -3.26543 -2.6636 0
M  V30 2585 H 252.478 -2.02701 -2.56086 0
M  V30 2586 H 251.137 -3.51684 -1.03508 0
M  V30 2587 H 250.785 -3.60325 -3.50963 0
M  V30 2588 H 250.485 -5.18945 -2.75626 0
M  V30 2589 H 252.009 -4.90037 -3.64274 0
M  V30 2590 H 253.423 -5.5429 -1.46408 0
M  V30 2591 H 251.82 -5.9494 -0.7853 0
M  V30 2592 H 252.89 -4.84795 0.100668 0
M  V30 2593 N 254.233 0.115231 -1.57178 0
M  V30 2594 C 255.481 0.820727 -1.84685 0
M  V30 2595 C 255.802 1.80237 -0.744279 0
M  V30 2596 O 255.072 1.94529 0.231375 0
M  V30 2597 H 253.652 0.306084 -0.681411 0
M  V30 2598 H 256.314 0.101656 -1.94635 0
M  V30 2599 H 255.41 1.36366 -2.80733 0
M  V30 2600 N 255.711 1.52812 0.385517 0
M  V30 2601 C 256.674 1.77188 1.45386 0
M  V30 2602 C 257.674 0.641953 1.4743 0
M  V30 2603 O 258.864 0.910033 1.4854 0
M  V30 2604 C 255.996 1.87582 2.8465 0
M  V30 2605 H 257.189 2.72583 1.25054 0
M  V30 2606 H 254.742 1.43586 0.617467 0
M  V30 2607 H 255.477 0.941849 3.10322 0
M  V30 2608 H 255.262 2.69748 2.84567 0
M  V30 2609 H 256.752 2.08102 3.62054 0
M  V30 2610 N 257.189 -0.644168 1.43834 0
M  V30 2611 C 258.466 -1.40188 1.36406 0
M  V30 2612 C 258.846 -2.11094 0.0163124 0
M  V30 2613 O 258.194 -2.05426 -1.00062 0
M  V30 2614 C 258.404 -2.3791 2.55343 0
M  V30 2615 C 259.752 -3.01637 2.98832 0
M  V30 2616 O 260.776 -2.48237 2.55455 0
M  V30 2617 O 259.635 -3.98477 3.74003 0
M  V30 2618 H 256.729 -0.626773 0.539523 0
M  V30 2619 H 259.275 -0.670317 1.559 0
M  V30 2620 H 258.047 -1.84525 3.4506 0
M  V30 2621 H 257.67 -3.18503 2.37995 0
M  V30 2622 N 258.668 -1.30515 -0.883378 0
M  V30 2623 C 259.598 -1.19607 -2.00541 0
M  V30 2624 C 260.579 -0.086346 -1.69881 0
M  V30 2625 O 261.764 -0.268654 -1.92333 0
M  V30 2626 C 258.894 -0.888758 -3.35736 0
M  V30 2627 C 257.848 -1.95659 -3.8066 0
M  V30 2628 C 257.174 -1.50224 -5.13164 0
M  V30 2629 C 258.474 -3.36788 -3.99213 0
M  V30 2630 H 260.168 -2.13476 -2.09925 0
M  V30 2631 H 257.714 -1.02775 -1.00863 0
M  V30 2632 H 259.667 -0.799094 -4.13754 0
M  V30 2633 H 258.391 0.0856125 -3.26488 0
M  V30 2634 H 257.05 -2.03591 -3.04871 0
M  V30 2635 H 256.698 -0.516092 -5.00345 0
M  V30 2636 H 256.398 -2.2165 -5.44192 0
M  V30 2637 H 257.922 -1.42639 -5.93706 0
M  V30 2638 H 259.336 -3.31605 -4.67665 0
M  V30 2639 H 257.733 -4.06314 -4.41621 0
M  V30 2640 H 258.803 -3.78561 -3.03017 0
M  V30 2641 N 260.146 1.09593 -1.13257 0
M  V30 2642 C 261.395 1.81105 -0.887917 0
M  V30 2643 C 261.708 1.86563 0.587672 0
M  V30 2644 O 262.914 2.54367 0.949204 0
M  V30 2645 C 261.37 3.25338 -1.53895 0
M  V30 2646 C 260.978 3.28151 -3.04994 0
M  V30 2647 C 262.722 4.01617 -1.37492 0
M  V30 2648 C 260.629 4.66897 -3.6299 0
M  V30 2649 H 259.559 0.678661 -0.328534 0
M  V30 2650 H 262.21 1.23183 -1.36008 0
M  V30 2651 H 260.592 3.8331 -0.994446 0
M  V30 2652 H 261.766 2.79953 -3.66009 0
M  V30 2653 H 260.081 2.65361 -3.20893 0
M  V30 2654 H 262.678 5.04119 -1.78235 0
M  V30 2655 H 263.021 4.15072 -0.31957 0
M  V30 2656 H 263.554 3.50082 -1.88912 0
M  V30 2657 H 260.293 4.58643 -4.68323 0
M  V30 2658 H 259.813 5.15426 -3.06752 0
M  V30 2659 H 261.492 5.3587 -3.62563 0
M  V30 2660 N 261.624 0.925811 1.2754 0
M  V30 2661 C 262.554 0.440748 2.29303 0
M  V30 2662 C 263.535 -0.497971 1.62648 0
M  V30 2663 O 264.72 -0.403126 1.8997 0
M  V30 2664 C 261.85 -0.309048 3.45922 0
M  V30 2665 C 260.804 0.54166 4.24559 0
M  V30 2666 C 260.13 -0.337191 5.33636 0
M  V30 2667 C 261.43 1.80516 4.90114 0
M  V30 2668 H 263.124 1.29121 2.70126 0
M  V30 2669 H 260.67 0.622323 1.29858 0
M  V30 2670 H 262.623 -0.659315 4.1621 0
M  V30 2671 H 261.347 -1.19352 3.04011 0
M  V30 2672 H 260.006 0.874609 3.56014 0
M  V30 2673 H 259.654 -1.22056 4.87966 0
M  V30 2674 H 259.354 0.228497 5.87156 0
M  V30 2675 H 260.878 -0.683072 6.06767 0
M  V30 2676 H 262.292 1.52307 5.52698 0
M  V30 2677 H 260.689 2.3142 5.53683 0
M  V30 2678 H 261.759 2.52581 4.13921 0
M  V30 2679 N 263.102 -1.41638 0.69111 0
M  V30 2680 C 264.032 -2.3347 0.037248 0
M  V30 2681 C 265.013 -1.51575 -0.771947 0
M  V30 2682 O 266.198 -1.80126 -0.72582 0
M  V30 2683 C 263.328 -3.35354 -0.903064 0
M  V30 2684 C 262.282 -4.27526 -0.201288 0
M  V30 2685 C 261.608 -5.19747 -1.25565 0
M  V30 2686 C 262.908 -5.13959 0.929689 0
M  V30 2687 H 264.602 -2.88397 0.804227 0
M  V30 2688 H 262.148 -1.38669 0.388189 0
M  V30 2689 H 264.101 -3.98519 -1.36969 0
M  V30 2690 H 262.825 -2.78767 -1.70166 0
M  V30 2691 H 261.484 -3.65779 0.245265 0
M  V30 2692 H 261.132 -4.59479 -2.04666 0
M  V30 2693 H 260.832 -5.8225 -0.791128 0
M  V30 2694 H 262.356 -5.85789 -1.72288 0
M  V30 2695 H 263.77 -5.70718 0.543546 0
M  V30 2696 H 262.167 -5.85379 1.32103 0
M  V30 2697 H 263.237 -4.51389 1.77133 0
M  V30 2698 N 264.58 -0.43555 -1.51462 0
M  V30 2699 C 265.805 0.132627 -2.06976 0
M  V30 2700 C 266.23 1.35848 -1.30104 0
M  V30 2701 O 265.588 1.78112 -0.338493 0
M  V30 2702 C 265.636 0.43523 -3.57964 0
M  V30 2703 O 264.74 1.52198 -3.83288 0
M  V30 2704 H 264.081 0.00265 -0.663995 0
M  V30 2705 H 266.611 -0.616369 -1.95095 0
M  V30 2706 H 266.621 0.686206 -4.02188 0
M  V30 2707 H 265.296 -0.460739 -4.1334 0
M  V30 2708 H 263.873 1.2611 -3.50928 0
M  V30 2709 N 266.058 1.56714 -0.166846 0
M  V30 2710 C 267.335 1.88412 0.525373 0
M  V30 2711 C 267.715 1.07602 1.81618 0
M  V30 2712 O 267.063 0.168621 2.27877 0
M  V30 2713 C 267.273 3.40363 0.771613 0
M  V30 2714 C 268.621 4.10007 1.1036 0
M  V30 2715 O 269.645 3.45655 0.860304 0
M  V30 2716 O 268.504 5.2369 1.56239 0
M  V30 2717 H 265.598 0.781587 0.270278 0
M  V30 2718 H 268.144 1.68458 -0.204946 0
M  V30 2719 H 266.916 3.91046 -0.141093 0
M  V30 2720 H 266.539 3.65914 1.55541 0
M  V30 2721 N 267.536 -0.106894 1.57237 0
M  V30 2722 C 268.782 -0.81373 1.85759 0
M  V30 2723 C 269.115 -1.78952 0.754315 0
M  V30 2724 O 268.39 -1.93029 -0.23879 0
M  V30 2725 C 268.673 -1.55293 3.24894 0
M  V30 2726 C 268.526 -0.595929 4.45835 0
M  V30 2727 C 269.845 -2.5063 3.61763 0
M  V30 2728 H 266.964 -0.294369 0.67566 0
M  V30 2729 H 269.606 -0.0776472 1.89841 0
M  V30 2730 H 267.756 -2.1804 3.21544 0
M  V30 2731 H 269.428 0.0236262 4.61294 0
M  V30 2732 H 267.671 0.0916191 4.33703 0
M  V30 2733 H 268.342 -1.15004 5.39887 0
M  V30 2734 H 270.818 -1.97982 3.65981 0
M  V30 2735 H 269.694 -2.99376 4.60071 0
M  V30 2736 H 269.955 -3.3385 2.89821 0
M  V30 2737 N 269.014 -1.53014 -0.377408 0
M  V30 2738 C 270.239 -1.72818 -1.14668 0
M  V30 2739 C 270.664 -0.450725 -1.8262 0
M  V30 2740 O 270.022 0.59439 -1.7128 0
M  V30 2741 C 270.07 -2.88627 -2.16164 0
M  V30 2742 O 269.174 -2.56409 -3.22998 0
M  V30 2743 H 268.515 -0.574301 -0.333278 0
M  V30 2744 H 271.045 -1.99853 -0.438152 0
M  V30 2745 H 271.055 -3.14455 -2.59966 0
M  V30 2746 H 269.73 -3.81294 -1.66095 0
M  V30 2747 H 268.307 -2.4136 -2.84253 0
M  V30 2748 N 270.492 0.636531 -1.44174 0
M  V30 2749 C 271.74 1.39343 -1.46383 0
M  V30 2750 C 272.061 1.94766 -0.0955715 0
M  V30 2751 O 271.331 1.75452 0.871395 0
M  V30 2752 H 269.911 0.517199 -0.538994 0
M  V30 2753 H 272.573 0.74957 -1.7991 0
M  V30 2754 H 271.669 2.22746 -2.18611 0
M  V30 2755 N 271.97 1.30982 0.876444 0
M  V30 2756 C 273.219 1.19658 1.62373 0
M  V30 2757 C 273.532 -0.245636 1.94052 0
M  V30 2758 O 274.738 -0.48049 2.67214 0
M  V30 2759 C 273.194 2.09433 2.92687 0
M  V30 2760 C 272.802 3.58613 2.68516 0
M  V30 2761 C 274.546 2.06893 3.70669 0
M  V30 2762 C 272.453 4.40416 3.94699 0
M  V30 2763 H 271.383 0.444268 0.609214 0
M  V30 2764 H 274.034 1.55791 0.969605 0
M  V30 2765 H 272.416 1.66191 3.59439 0
M  V30 2766 H 273.59 4.10058 2.10212 0
M  V30 2767 H 271.905 3.63063 2.03898 0
M  V30 2768 H 274.502 2.65258 4.64265 0
M  V30 2769 H 274.845 1.05448 4.02724 0
M  V30 2770 H 275.378 2.48301 3.10792 0
M  V30 2771 H 272.117 5.42591 3.67798 0
M  V30 2772 H 271.637 3.93731 4.52477 0
M  V30 2773 H 273.316 4.52294 4.62644 0
M  V30 2774 N 273.449 -1.08991 1.13837 0
M  V30 2775 C 274.379 -2.17771 0.842507 0
M  V30 2776 C 275.36 -1.6892 -0.20001 0
M  V30 2777 O 276.545 -1.94113 -0.0579731 0
M  V30 2778 C 273.675 -3.4589 0.312644 0
M  V30 2779 C 272.629 -4.08099 1.28992 0
M  V30 2780 C 271.955 -5.31098 0.619623 0
M  V30 2781 C 273.255 -4.50077 2.65005 0
M  V30 2782 H 274.949 -2.42777 1.75213 0
M  V30 2783 H 272.495 -1.16682 0.843875 0
M  V30 2784 H 274.448 -4.21297 0.0933043 0
M  V30 2785 H 273.172 -3.20419 -0.632382 0
M  V30 2786 H 271.831 -3.34717 1.49533 0
M  V30 2787 H 271.479 -5.0191 -0.33102 0
M  V30 2788 H 271.179 -5.73674 1.27167 0
M  V30 2789 H 272.703 -6.09224 0.409669 0
M  V30 2790 H 274.117 -5.16688 2.48407 0
M  V30 2791 H 272.514 -5.03553 3.26427 0
M  V30 2792 H 273.584 -3.62257 3.22332 0
M  V30 2793 N 274.927 -0.932562 -1.27047 0
M  V30 2794 C 276.204 -0.49377 -1.89265 0
M  V30 2795 C 276.584 1.02833 -1.8436 0
M  V30 2796 O 275.932 1.88461 -1.29209 0
M  V30 2797 C 276.142 -1.04536 -3.32976 0
M  V30 2798 C 277.49 -1.10879 -4.09867 0
M  V30 2799 O 278.514 -0.995327 -3.42011 0
M  V30 2800 O 277.373 -1.28417 -5.31198 0
M  V30 2801 H 274.467 -0.159596 -0.811454 0
M  V30 2802 H 277.013 -1.02457 -1.3528 0
M  V30 2803 H 275.785 -2.08913 -3.30864 0
M  V30 2804 H 275.408 -0.496494 -3.94488 0
M  V30 2805 N 276.405 1.4127 -0.698611 0
M  V30 2806 C 277.653 2.00782 -0.230409 0
M  V30 2807 C 277.974 1.5562 1.17505 0
M  V30 2808 O 277.244 0.78815 1.79346 0
M  V30 2809 H 275.824 0.742464 -0.0821944 0
M  V30 2810 H 278.486 1.72852 -0.90045 0
M  V30 2811 H 277.582 3.11095 -0.25021 0
M  V30 2812 N 277.883 0.443576 1.51229 0
M  V30 2813 C 278.83 -0.364716 2.279 0
M  V30 2814 C 279.8 -1.0114 1.31757 0
M  V30 2815 O 280.985 -1.02912 1.60667 0
M  V30 2816 C 278.125 -1.45644 3.12861 0
M  V30 2817 C 277.238 -0.827269 4.24005 0
M  V30 2818 C 276.373 -1.89456 4.96266 0
M  V30 2819 C 275.412 -1.24416 5.99322 0
M  V30 2820 N 274.549 -2.25309 6.64966 0
M  V30 2821 H 279.389 0.295464 2.96532 0
M  V30 2822 H 276.926 0.157554 1.46254 0
M  V30 2823 H 278.884 -2.10076 3.6045 0
M  V30 2824 H 277.514 -2.08616 2.46331 0
M  V30 2825 H 276.566 -0.0710839 3.80334 0
M  V30 2826 H 277.878 -0.312481 4.9782 0
M  V30 2827 H 277.032 -2.61535 5.47434 0
M  V30 2828 H 275.771 -2.4431 4.22095 0
M  V30 2829 H 274.776 -0.508868 5.4744 0
M  V30 2830 H 276.001 -0.702882 6.75453 0
M  V30 2831 H 273.947 -2.79231 5.93604 0
M  V30 2832 H 273.864 -1.78739 7.34567 0
M  V30 2833 H 275.132 -2.96853 7.20763 0
M  V30 2834 N 279.361 -1.56624 0.175154 0
M  V30 2835 C 280.609 -1.96609 -0.467885 0
M  V30 2836 C 280.93 -1.06238 -1.63519 0
M  V30 2837 O 280.2 -0.129523 -1.95471 0
M  V30 2838 H 278.78 -0.726008 -0.175845 0
M  V30 2839 H 281.442 -1.93195 0.257234 0
M  V30 2840 H 280.538 -3.00989 -0.825342 0
M  V30 2841 N 280.839 0.0985539 -1.57292 0
M  V30 2842 C 281.771 1.14595 -1.98496 0
M  V30 2843 C 282.784 1.36512 -0.887031 0
M  V30 2844 O 283.973 1.35225 -1.16518 0
M  V30 2845 C 281.073 2.50216 -2.28572 0
M  V30 2846 C 280.246 2.48624 -3.59868 0
M  V30 2847 C 279.305 3.66146 -3.7792 0
M  V30 2848 O 278.331 3.48795 -4.49812 0
M  V30 2849 N 279.533 4.85496 -3.18235 0
M  V30 2850 H 282.298 0.795277 -2.88956 0
M  V30 2851 H 279.859 0.287579 -1.59325 0
M  V30 2852 H 281.851 3.27432 -2.37845 0
M  V30 2853 H 280.421 2.77387 -1.44136 0
M  V30 2854 H 279.641 1.56978 -3.61596 0
M  V30 2855 H 280.929 2.44635 -4.46129 0
M  V30 2856 H 280.327 5.02497 -2.59833 0
M  V30 2857 H 278.884 5.60317 -3.32999 0
M  V30 2858 N 282.317 1.53212 0.369288 0
M  V30 2859 C 283.733 1.42902 0.710712 0
M  V30 2860 C 283.933 0.565135 1.93413 0
M  V30 2861 O 282.989 0.0461484 2.52458 0
M  V30 2862 C 284.302 2.86042 0.927382 0
M  V30 2863 C 285.85 2.9565 1.02762 0
M  V30 2864 C 286.325 4.39843 1.27679 0
M  V30 2865 N 287.816 4.43256 1.34457 0
M  V30 2866 C 288.551 5.51929 1.55439 0
M  V30 2867 N 288.047 6.70655 1.73762 0
M  V30 2868 N 289.84 5.39502 1.57779 0
M  V30 2869 H 281.991 2.07888 -0.435457 0
M  V30 2870 H 284.254 0.938661 -0.132739 0
M  V30 2871 H 283.96 3.51557 0.100287 0
M  V30 2872 H 283.834 3.29472 1.83653 0
M  V30 2873 H 286.221 2.30291 1.84527 0
M  V30 2874 H 286.302 2.5562 0.0959504 0
M  V30 2875 H 285.946 5.05774 0.464175 0
M  V30 2876 H 285.876 4.77443 2.22162 0
M  V30 2877 H 288.367 3.5769 1.21926 0
M  V30 2878 H 288.68 7.49248 1.89335 0
M  V30 2879 H 287.025 6.73648 1.70948 0
M  V30 2880 H 290.216 4.45713 1.43029 0
M  V30 2881 H 290.389 6.2426 1.7379 0
M  V30 2882 N 283.795 -0.628877 1.44509 0
M  V30 2883 C 285.044 -1.38437 1.4669 0
M  V30 2884 C 285.357 -1.95322 0.104272 0
M  V30 2885 O 286.563 -2.715 0.00362163 0
M  V30 2886 C 285.019 -2.50659 2.5826 0
M  V30 2887 C 284.627 -2.00277 4.0074 0
M  V30 2888 C 286.371 -3.27844 2.69664 0
M  V30 2889 C 284.278 -3.09854 5.0373 0
M  V30 2890 H 283.208 -0.520245 0.545766 0
M  V30 2891 H 285.859 -0.676313 1.70582 0
M  V30 2892 H 284.241 -3.2405 2.27612 0
M  V30 2893 H 285.415 -1.33736 4.40966 0
M  V30 2894 H 283.73 -1.35901 3.93599 0
M  V30 2895 H 286.327 -4.09534 3.43781 0
M  V30 2896 H 286.67 -3.77471 1.75559 0
M  V30 2897 H 287.203 -2.61543 2.99733 0
M  V30 2898 H 283.942 -2.65168 5.99472 0
M  V30 2899 H 283.462 -3.7503 4.68095 0
M  V30 2900 H 285.141 -3.74592 5.27532 0
M  V30 2901 N 285.273 -1.31445 -0.869486 0
M  V30 2902 C 286.236 -1.19094 -1.9583 0
M  V30 2903 C 287.236 -0.117906 -1.60367 0
M  V30 2904 O 288.426 -0.367208 -1.70286 0
M  V30 2905 C 285.558 -0.828165 -3.30688 0
M  V30 2906 H 286.751 -2.15842 -2.08212 0
M  V30 2907 H 284.304 -1.15063 -1.05784 0
M  V30 2908 H 285.039 0.138142 -3.24006 0
M  V30 2909 H 284.824 -1.6038 -3.578 0
M  V30 2910 H 286.314 -0.765658 -4.10521 0
M  V30 2911 N 286.751 1.08385 -1.14413 0
M  V30 2912 C 287.661 2.18856 -0.844951 0
M  V30 2913 C 288.677 1.73121 0.174668 0
M  V30 2914 O 289.853 2.014 0.00312857 0
M  V30 2915 C 286.918 3.45155 -0.32696 0
M  V30 2916 C 285.979 4.05513 -1.40916 0
M  V30 2917 C 285.212 5.25784 -0.915793 0
M  V30 2918 O 285.435 5.69884 0.242651 0
M  V30 2919 O 284.369 5.77545 -1.69487 0
M  V30 2920 H 288.195 2.46919 -1.76818 0
M  V30 2921 H 285.78 1.17524 -0.922411 0
M  V30 2922 H 287.662 4.21377 -0.0440211 0
M  V30 2923 H 286.337 3.18668 0.568539 0
M  V30 2924 H 285.244 3.30879 -1.74556 0
M  V30 2925 H 286.577 4.3625 -2.27919 0
M  V30 2926 N 288.23 0.939286 1.26551 0
M  V30 2927 C 289.163 0.391702 2.24813 0
M  V30 2928 C 290.141 -0.518421 1.54114 0
M  V30 2929 O 291.325 -0.456299 1.82894 0
M  V30 2930 C 288.452 -0.437382 3.35864 0
M  V30 2931 C 287.498 0.410946 4.24516 0
M  V30 2932 S 288.331 1.83372 5.03125 0
M  V30 2933 C 289.487 1.01264 6.17654 0
M  V30 2934 H 289.72 1.22448 2.70913 0
M  V30 2935 H 287.253 0.742269 1.35387 0
M  V30 2936 H 289.211 -0.909837 4.0029 0
M  V30 2937 H 287.872 -1.24482 2.8838 0
M  V30 2938 H 287.065 -0.224191 5.03501 0
M  V30 2939 H 286.667 0.818014 3.64945 0
M  V30 2940 H 288.959 0.254023 6.77024 0
M  V30 2941 H 289.902 1.77589 6.85469 0
M  V30 2942 H 290.31 0.549532 5.61819 0
M  V30 2943 N 289.708 -1.40897 0.706093 0
M  V30 2944 C 290.936 -2.05373 0.250887 0
M  V30 2945 C 291.351 -1.53172 -1.10381 0
M  V30 2946 O 290.708 -0.684305 -1.69185 0
M  V30 2947 C 290.759 -3.6088 0.211571 0
M  V30 2948 O 290.48 -4.11153 1.51276 0
M  V30 2949 C 291.981 -4.42517 -0.263346 0
M  V30 2950 H 289.201 -0.66115 0.114552 0
M  V30 2951 H 291.745 -1.80479 0.961635 0
M  V30 2952 H 289.9 -3.84777 -0.450073 0
M  V30 2953 H 290.314 -5.05279 1.40689 0
M  V30 2954 H 291.788 -5.51479 -0.239718 0
M  V30 2955 H 292.265 -4.19396 -1.30397 0
M  V30 2956 H 292.871 -4.23708 0.367677 0
M  V30 2957 N 291.186 -0.45159 -1.50991 0
M  V30 2958 C 292.149 0.341117 -2.26647 0
M  V30 2959 C 293.149 0.937422 -1.30649 0
M  V30 2960 O 294.339 0.809644 -1.54241 0
M  V30 2961 C 291.471 1.48398 -3.06905 0
M  V30 2962 H 292.664 -0.322117 -2.98165 0
M  V30 2963 H 290.217 -0.205122 -1.54948 0
M  V30 2964 H 290.952 2.18284 -2.39838 0
M  V30 2965 H 290.737 1.06241 -3.77432 0
M  V30 2966 H 292.227 2.04367 -3.64176 0
M  V30 2967 N 292.664 1.56529 -0.183458 0
M  V30 2968 C 293.627 2.17324 0.728223 0
M  V30 2969 C 294.627 1.12453 1.14939 0
M  V30 2970 O 295.817 1.37902 1.06437 0
M  V30 2971 C 292.949 2.76591 1.99274 0
M  V30 2972 H 294.142 2.99241 0.198772 0
M  V30 2973 H 291.695 1.5616 0.0661391 0
M  V30 2974 H 292.43 1.98441 2.56499 0
M  V30 2975 H 292.215 3.5335 1.69959 0
M  V30 2976 H 293.705 3.23311 2.6431 0
M  V30 2977 N 294.142 -0.090211 1.57342 0
M  V30 2978 C 295.089 -1.10909 2.02405 0
M  V30 2979 C 296.059 -1.39523 0.901252 0
M  V30 2980 O 297.244 -1.50903 1.1676 0
M  V30 2981 C 294.384 -2.42277 2.45755 0
M  V30 2982 C 293.497 -2.20352 3.71576 0
M  V30 2983 C 292.632 -3.45154 4.03785 0
M  V30 2984 C 291.671 -3.18512 5.22701 0
M  V30 2985 N 290.808 -4.35593 5.50639 0
M  V30 2986 H 295.648 -0.71782 2.89225 0
M  V30 2987 H 293.185 -0.342901 1.43048 0
M  V30 2988 H 295.143 -3.18951 2.68935 0
M  V30 2989 H 293.773 -2.79242 1.61938 0
M  V30 2990 H 292.825 -1.34458 3.55844 0
M  V30 2991 H 294.137 -1.96661 4.58395 0
M  V30 2992 H 293.291 -4.30233 4.27767 0
M  V30 2993 H 292.03 -3.71904 3.15498 0
M  V30 2994 H 291.035 -2.31827 4.98534 0
M  V30 2995 H 292.26 -2.93103 6.12591 0
M  V30 2996 H 290.206 -4.6241 4.6531 0
M  V30 2997 H 290.123 -4.1511 6.31838 0
M  V30 2998 H 291.391 -5.21723 5.7916 0
M  V30 2999 N 295.62 -1.53406 -0.361157 0
M  V30 3000 C 296.583 -1.79479 -1.42548 0
M  V30 3001 C 297.583 -0.665327 -1.4639 0
M  V30 3002 O 298.773 -0.933549 -1.47073 0
M  V30 3003 C 295.905 -1.92087 -2.8163 0
M  V30 3004 H 297.098 -2.74538 -1.20701 0
M  V30 3005 H 294.651 -1.4455 -0.594546 0
M  V30 3006 H 295.386 -0.991099 -3.08784 0
M  V30 3007 H 295.171 -2.74241 -2.80239 0
M  V30 3008 H 296.661 -2.13836 -3.58697 0
M  V30 3009 N 297.098 0.621204 -1.44841 0
M  V30 3010 C 298.008 1.7612 -1.5498 0
M  V30 3011 C 299.024 1.68477 -0.434927 0
M  V30 3012 O 300.2 1.89076 -0.693693 0
M  V30 3013 C 297.265 3.1254 -1.50065 0
M  V30 3014 C 296.326 3.31741 -2.72482 0
M  V30 3015 C 295.559 4.61653 -2.67792 0
M  V30 3016 O 295.782 5.431 -1.74352 0
M  V30 3017 O 294.716 4.83271 -3.58794 0
M  V30 3018 H 298.542 1.70518 -2.51311 0
M  V30 3019 H 296.127 0.783643 -1.27198 0
M  V30 3020 H 298.009 3.93844 -1.49882 0
M  V30 3021 H 296.684 3.18663 -0.568806 0
M  V30 3022 H 295.591 2.50077 -2.7823 0
M  V30 3023 H 296.924 3.30486 -3.64746 0
M  V30 3024 N 298.576 1.31904 0.862503 0
M  V30 3025 C 299.508 1.16005 1.97675 0
M  V30 3026 C 300.521 0.0971234 1.6251 0
M  V30 3027 O 301.71 0.345337 1.75128 0
M  V30 3028 C 298.81 0.751791 3.30456 0
M  V30 3029 C 297.983 1.90133 3.93914 0
M  V30 3030 C 297.042 1.4779 5.05019 0
M  V30 3031 O 296.068 2.18872 5.25437 0
M  V30 3032 N 297.27 0.369491 5.79323 0
M  V30 3033 H 300.035 2.11982 2.11857 0
M  V30 3034 H 297.596 1.24337 1.03691 0
M  V30 3035 H 299.588 0.451084 4.02178 0
M  V30 3036 H 298.158 -0.116593 3.12382 0
M  V30 3037 H 297.378 2.36896 3.15078 0
M  V30 3038 H 298.666 2.67111 4.33047 0
M  V30 3039 H 298.064 -0.222299 5.65263 0
M  V30 3040 H 296.621 0.128354 6.51674 0
M  V30 3041 N 300.054 -1.07777 1.14986 0
M  V30 3042 C 300.984 -2.16865 0.865557 0
M  V30 3043 C 301.965 -1.69123 -0.182083 0
M  V30 3044 O 303.15 -1.94164 -0.0373815 0
M  V30 3045 C 300.28 -3.45539 0.349313 0
M  V30 3046 C 299.234 -4.06708 1.33313 0
M  V30 3047 C 298.56 -5.30411 0.675918 0
M  V30 3048 C 299.86 -4.47241 2.69764 0
M  V30 3049 H 301.554 -2.40905 1.77778 0
M  V30 3050 H 299.1 -1.15781 0.856203 0
M  V30 3051 H 301.053 -4.21174 0.137983 0
M  V30 3052 H 299.777 -3.21072 -0.598362 0
M  V30 3053 H 298.436 -3.33112 1.53075 0
M  V30 3054 H 298.084 -5.02232 -0.277767 0
M  V30 3055 H 297.784 -5.72293 1.33244 0
M  V30 3056 H 299.308 -6.08755 0.474262 0
M  V30 3057 H 300.722 -5.14025 2.53873 0
M  V30 3058 H 299.119 -5.00062 3.3175 0
M  V30 3059 H 300.189 -3.58818 3.26156 0
M  V30 3060 N 301.532 -0.945985 -1.26051 0
M  V30 3061 C 302.781 -0.591836 -1.92822 0
M  V30 3062 C 303.094 0.873956 -1.7499 0
M  V30 3063 O 304.3 1.33769 -2.36259 0
M  V30 3064 C 302.756 -1.00776 -3.45503 0
M  V30 3065 C 302.364 -2.4955 -3.7206 0
M  V30 3066 C 304.108 -0.725735 -4.1825 0
M  V30 3067 C 302.015 -2.84988 -5.18205 0
M  V30 3068 H 300.945 -0.217635 -0.721908 0
M  V30 3069 H 303.596 -1.14927 -1.43052 0
M  V30 3070 H 301.978 -0.378812 -3.94184 0
M  V30 3071 H 303.152 -3.1739 -3.34066 0
M  V30 3072 H 301.467 -2.75133 -3.12555 0
M  V30 3073 H 304.064 -0.966771 -5.25887 0
M  V30 3074 H 304.407 0.337639 -4.14929 0
M  V30 3075 H 304.94 -1.31463 -3.7545 0
M  V30 3076 H 301.679 -3.90307 -5.26631 0
M  V30 3077 H 301.199 -2.21813 -5.57278 0
M  V30 3078 H 302.878 -2.73712 -5.86252 0
M  V30 3079 N 303.011 1.40521 -0.713556 0
M  V30 3080 C 303.921 2.34522 -0.0606667 0
M  V30 3081 C 304.937 1.57193 0.74607 0
M  V30 3082 O 306.113 1.89591 0.679493 0
M  V30 3083 C 303.178 3.36081 0.851491 0
M  V30 3084 C 302.239 4.29286 0.0349339 0
M  V30 3085 C 301.472 5.25994 0.903649 0
M  V30 3086 O 301.695 5.28616 2.14292 0
M  V30 3087 O 300.629 6.00918 0.343723 0
M  V30 3088 H 304.455 2.91968 -0.835972 0
M  V30 3089 H 302.04 1.41681 -0.47402 0
M  V30 3090 H 303.922 3.98369 1.37404 0
M  V30 3091 H 302.597 2.81052 1.60598 0
M  V30 3092 H 301.504 3.70289 -0.532633 0
M  V30 3093 H 302.837 4.87462 -0.681287 0
M  V30 3094 N 304.489 0.459591 1.5075 0
M  V30 3095 C 305.421 -0.37665 2.26084 0
M  V30 3096 C 306.434 -0.967109 1.30961 0
M  V30 3097 O 307.623 -0.857468 1.56556 0
M  V30 3098 C 304.723 -1.54112 3.01832 0
M  V30 3099 C 303.896 -1.06553 4.24223 0
M  V30 3100 C 302.955 -2.1027 4.82362 0
M  V30 3101 O 301.981 -1.68798 5.43595 0
M  V30 3102 N 303.183 -3.42974 4.68347 0
M  V30 3103 H 305.948 0.269124 2.98489 0
M  V30 3104 H 303.509 0.28972 1.59287 0
M  V30 3105 H 305.501 -2.23165 3.37608 0
M  V30 3106 H 304.071 -2.0918 2.32298 0
M  V30 3107 H 303.291 -0.201274 3.93686 0
M  V30 3108 H 304.579 -0.725516 5.03601 0
M  V30 3109 H 303.977 -3.79385 4.19623 0
M  V30 3110 H 302.534 -4.07858 5.08424 0
M  V30 3111 N 305.967 -1.56429 0.191757 0
M  V30 3112 C 307.215 -1.97095 -0.447006 0
M  V30 3113 C 307.536 -1.07967 -1.62383 0
M  V30 3114 O 306.806 -0.150248 -1.95323 0
M  V30 3115 H 305.386 -0.727832 -0.168135 0
M  V30 3116 H 308.048 -1.92911 0.27771 0
M  V30 3117 H 307.144 -3.01848 -0.793371 0
M  V30 3118 N 307.445 0.0818655 -1.57387 0
M  V30 3119 C 308.694 0.781681 -1.85937 0
M  V30 3120 C 309.007 1.79246 -0.782957 0
M  V30 3121 O 310.213 2.54112 -0.955987 0
M  V30 3122 C 308.669 1.44109 -3.29789 0
M  V30 3123 C 308.277 0.469396 -4.45534 0
M  V30 3124 C 310.021 2.12386 -3.67549 0
M  V30 3125 C 307.928 1.13415 -5.80423 0
M  V30 3126 H 306.858 0.295682 -0.693605 0
M  V30 3127 H 309.509 0.0348051 -1.83467 0
M  V30 3128 H 307.891 2.23588 -3.2684 0
M  V30 3129 H 309.065 -0.294856 -4.59856 0
M  V30 3130 H 307.38 -0.108383 -4.16259 0
M  V30 3131 H 309.977 2.62878 -4.65617 0
M  V30 3132 H 310.32 2.91877 -2.96839 0
M  V30 3133 H 310.853 1.39751 -3.72444 0
M  V30 3134 H 307.592 0.379771 -6.54399 0
M  V30 3135 H 307.112 1.8695 -5.69921 0
M  V30 3136 H 308.791 1.65686 -6.25426 0
M  V30 3137 N 308.923 1.53595 0.353017 0
M  V30 3138 C 310.172 1.69603 1.09168 0
M  V30 3139 C 310.485 0.460925 1.90092 0
M  V30 3140 O 311.691 0.501774 2.66823 0
M  V30 3141 C 310.147 2.99872 1.9901 0
M  V30 3142 C 309.755 4.30687 1.23339 0
M  V30 3143 C 311.499 3.25246 2.72792 0
M  V30 3144 C 309.406 5.52036 2.12156 0
M  V30 3145 H 308.336 0.631966 0.411261 0
M  V30 3146 H 310.987 1.80096 0.351802 0
M  V30 3147 H 309.369 2.83212 2.7678 0
M  V30 3148 H 310.543 4.58019 0.505456 0
M  V30 3149 H 308.858 4.11853 0.613663 0
M  V30 3150 H 311.455 4.13095 3.39495 0
M  V30 3151 H 311.798 2.41846 3.38846 0
M  V30 3152 H 312.331 3.42638 2.021 0
M  V30 3153 H 309.07 6.37951 1.50659 0
M  V30 3154 H 308.59 5.28966 2.82764 0
M  V30 3155 H 310.269 5.87313 2.71427 0
M  V30 3156 N 310.401 -0.613514 1.45168 0
M  V30 3157 C 311.629 -1.39946 1.5239 0
M  V30 3158 C 312.044 -1.88167 0.154531 0
M  V30 3159 O 311.401 -1.61872 -0.842843 0
M  V30 3160 C 311.452 -2.60795 2.50337 0
M  V30 3161 O 311.173 -2.1458 3.81952 0
M  V30 3162 C 312.674 -3.53723 2.67198 0
M  V30 3163 H 309.894 -0.428593 0.516284 0
M  V30 3164 H 312.438 -0.748753 1.903 0
M  V30 3165 H 310.593 -3.21919 2.15515 0
M  V30 3166 H 311.007 -2.93055 4.34993 0
M  V30 3167 H 312.481 -4.35079 3.39721 0
M  V30 3168 H 312.958 -4.0368 1.73029 0
M  V30 3169 H 313.564 -2.98456 3.02992 0
M  V30 3170 N 311.879 -1.3236 -0.855495 0
M  V30 3171 C 313.156 -1.13491 -1.59309 0
M  V30 3172 C 313.536 0.30503 -2.08885 0
M  V30 3173 O 312.884 1.30151 -1.87811 0
M  V30 3174 C 313.094 -2.16176 -2.73987 0
M  V30 3175 C 314.442 -2.49463 -3.43589 0
M  V30 3176 O 315.466 -2.14715 -2.84211 0
M  V30 3177 O 314.325 -3.09027 -4.50738 0
M  V30 3178 H 311.419 -0.437887 -0.701559 0
M  V30 3179 H 313.965 -1.43887 -0.899696 0
M  V30 3180 H 312.737 -3.1297 -2.34873 0
M  V30 3181 H 312.36 -1.86769 -3.51003 0
M  V30 3182 N 313.357 1.07166 -1.15556 0
M  V30 3183 C 314.605 1.79443 -0.929764 0
M  V30 3184 C 314.926 1.87246 0.544414 0
M  V30 3185 O 314.196 1.37473 1.39564 0
M  V30 3186 H 312.776 0.664625 -0.341003 0
M  V30 3187 H 315.438 1.29499 -1.45657 0
M  V30 3188 H 314.534 2.81832 -1.34079 0
M  V30 3189 N 314.835 0.952656 1.25548 0
M  V30 3190 C 315.768 0.415525 2.24385 0
M  V30 3191 C 316.746 -0.502046 1.54655 0
M  V30 3192 O 317.93 -0.436875 1.83368 0
M  V30 3193 C 315.057 -0.401734 3.36309 0
M  V30 3194 C 314.103 0.455949 4.24056 0
M  V30 3195 S 314.936 1.88698 5.01152 0
M  V30 3196 C 316.092 1.07809 6.16545 0
M  V30 3197 H 316.325 1.25315 2.69599 0
M  V30 3198 H 313.858 0.756587 1.34592 0
M  V30 3199 H 315.816 -0.867329 4.01233 0
M  V30 3200 H 314.477 -1.21416 2.89684 0
M  V30 3201 H 313.67 -0.170776 5.03711 0
M  V30 3202 H 313.272 0.856675 3.64056 0
M  V30 3203 H 315.564 0.325816 6.76716 0
M  V30 3204 H 316.507 1.84849 6.83547 0
M  V30 3205 H 316.915 0.60909 5.61204 0
M  V30 3206 N 316.313 -1.40141 0.720998 0
M  V30 3207 C 317.562 -2.0002 0.259804 0
M  V30 3208 C 317.875 -1.57839 -1.15526 0
M  V30 3209 O 319.081 -2.10455 -1.71525 0
M  V30 3210 C 317.537 -3.57516 0.413566 0
M  V30 3211 C 317.145 -4.08667 1.83562 0
M  V30 3212 C 318.889 -4.24498 0.0134387 0
M  V30 3213 C 316.796 -5.58686 1.93968 0
M  V30 3214 H 315.726 -0.748195 0.0933806 0
M  V30 3215 H 318.377 -1.60313 0.892866 0
M  V30 3216 H 316.759 -3.9495 -0.288169 0
M  V30 3217 H 317.933 -3.82598 2.56817 0
M  V30 3218 H 316.248 -3.543 2.1877 0
M  V30 3219 H 318.845 -5.34654 0.0703954 0
M  V30 3220 H 319.188 -4.03375 -1.02927 0
M  V30 3221 H 319.721 -3.92188 0.665815 0
M  V30 3222 H 316.46 -5.8467 2.96379 0
M  V30 3223 H 315.98 -5.86602 1.25131 0
M  V30 3224 H 317.659 -6.23875 1.71431 0
M  V30 3225 N 317.792 -0.46758 -1.50504 0
M  V30 3226 C 319.038 0.0887532 -2.02606 0
M  V30 3227 C 319.371 1.39686 -1.34913 0
M  V30 3228 O 318.646 1.88644 -0.473694 0
M  V30 3229 C 318.929 0.276206 -3.59039 0
M  V30 3230 C 318.782 -1.05267 -4.37309 0
M  V30 3231 C 320.101 1.03235 -4.27821 0
M  V30 3232 H 317.22 0.0307814 -0.736357 0
M  V30 3233 H 319.862 -0.612485 -1.79857 0
M  V30 3234 H 318.012 0.8735 -3.78553 0
M  V30 3235 H 319.684 -1.68628 -4.29374 0
M  V30 3236 H 317.927 -1.65015 -4.01189 0
M  V30 3237 H 318.598 -0.875197 -5.45018 0
M  V30 3238 H 321.074 0.526111 -4.12761 0
M  V30 3239 H 319.95 1.1323 -5.37094 0
M  V30 3240 H 320.211 2.06806 -3.90748 0
M  V30 3241 N 319.27 1.56325 -0.20005 0
M  V30 3242 C 320.217 2.1932 0.718833 0
M  V30 3243 C 321.187 1.14198 1.20615 0
M  V30 3244 O 322.372 1.42469 1.26914 0
M  V30 3245 C 319.512 2.86041 1.93066 0
M  V30 3246 C 318.625 4.05702 1.48425 0
M  V30 3247 C 317.76 4.60266 2.65196 0
M  V30 3248 C 316.799 5.72273 2.17185 0
M  V30 3249 N 315.936 6.21221 3.27152 0
M  V30 3250 H 320.776 2.97486 0.17489 0
M  V30 3251 H 318.313 1.46911 0.0745794 0
M  V30 3252 H 320.271 3.22897 2.64184 0
M  V30 3253 H 318.901 2.1043 2.44783 0
M  V30 3254 H 317.953 3.74475 0.668755 0
M  V30 3255 H 319.265 4.86699 1.09204 0
M  V30 3256 H 318.419 4.99453 3.4443 0
M  V30 3257 H 317.158 3.78386 3.07693 0
M  V30 3258 H 316.163 5.3261 1.36407 0
M  V30 3259 H 317.388 6.55974 1.75713 0
M  V30 3260 H 315.334 5.42263 3.69171 0
M  V30 3261 H 315.251 6.97284 2.92116 0
M  V30 3262 H 316.519 6.65063 4.06585 0
M  V30 3263 N 320.748 -0.0735177 1.57428 0
M  V30 3264 C 321.994 -0.774145 1.87443 0
M  V30 3265 C 322.327 -1.77311 0.792103 0
M  V30 3266 O 321.602 -1.93492 -0.197793 0
M  V30 3267 C 321.885 -1.48367 3.28115 0
M  V30 3268 C 321.738 -0.501227 4.46999 0
M  V30 3269 C 323.057 -2.429 3.66998 0
M  V30 3270 H 320.176 -0.279971 0.681752 0
M  V30 3271 H 322.818 -0.0373616 1.89963 0
M  V30 3272 H 320.968 -2.11171 3.26097 0
M  V30 3273 H 322.64 0.121468 4.6114 0
M  V30 3274 H 320.883 0.183593 4.33411 0
M  V30 3275 H 321.554 -1.03526 5.42205 0
M  V30 3276 H 324.03 -1.90175 3.70098 0
M  V30 3277 H 322.906 -2.89549 4.66318 0
M  V30 3278 H 323.167 -3.27628 2.96837 0
M  V30 3279 N 322.226 -1.5378 -0.344866 0
M  V30 3280 C 323.174 -1.82373 -1.4437 0
M  V30 3281 C 324.168 -0.694128 -1.54526 0
M  V30 3282 O 325.374 -0.877442 -1.57165 0
M  V30 3283 H 321.749 -0.577765 -0.481344 0
M  V30 3284 H 323.72 -2.74306 -1.17468 0
M  V30 3285 C 322.469 -2.04898 -2.80913 0
M  V30 3286 H 321.792 -2.9127 -2.73865 0
M  V30 3287 H 323.232 -2.28871 -3.56923 0
M  V30 3288 C 321.691 -0.834116 -3.26411 0
M  V30 3289 O 322.221 -0.0328885 -4.01687 0
M  V30 3290 N 320.427 -0.65171 -2.83198 0
M  V30 3291 H 319.974 -1.30489 -2.22104 0
M  V30 3292 H 319.932 0.159686 -3.13994 0
M  V30 3293 N 323.704 0.605807 -1.45491 0
M  V30 3294 C 324.667 1.69836 -1.5391 0
M  V30 3295 C 325.667 1.55261 -0.418424 0
M  V30 3296 O 326.857 1.60296 -0.681965 0
M  V30 3297 C 323.989 3.09117 -1.43734 0
M  V30 3298 H 325.182 1.63738 -2.51257 0
M  V30 3299 H 322.735 0.821689 -1.32959 0
M  V30 3300 H 323.47 3.20791 -0.475788 0
M  V30 3301 H 323.255 3.21104 -2.25021 0
M  V30 3302 H 324.745 3.88696 -1.52661 0
M  V30 3303 N 325.182 1.32811 0.848464 0
M  V30 3304 C 326.145 1.22194 1.9391 0
M  V30 3305 C 327.145 0.143404 1.60159 0
M  V30 3306 O 328.335 0.394253 1.6968 0
M  V30 3307 C 325.467 0.88067 3.29328 0
M  V30 3308 H 326.66 2.19127 2.04752 0
M  V30 3309 H 324.213 1.16731 1.0394 0
M  V30 3310 H 324.948 -0.0865776 3.24184 0
M  V30 3311 H 324.733 1.66052 3.55203 0
M  V30 3312 H 326.223 0.830871 4.09251 0
M  V30 3313 N 326.66 -1.06551 1.16123 0
M  V30 3314 C 327.59 -2.15935 0.88851 0
M  V30 3315 C 328.571 -1.69306 -0.164135 0
M  V30 3316 O 329.756 -1.94193 -0.0167857 0
M  V30 3317 C 326.886 -3.45149 0.385942 0
M  V30 3318 C 325.84 -4.05271 1.3762 0
M  V30 3319 C 325.166 -5.29664 0.732137 0
M  V30 3320 C 326.466 -4.44355 2.74493 0
M  V30 3321 H 328.16 -2.39006 1.80323 0
M  V30 3322 H 325.706 -1.14866 0.868435 0
M  V30 3323 H 327.659 -4.21004 0.182647 0
M  V30 3324 H 326.383 -3.21689 -0.564274 0
M  V30 3325 H 325.042 -3.3147 1.56599 0
M  V30 3326 H 324.69 -5.02499 -0.224483 0
M  V30 3327 H 324.39 -5.70848 1.39307 0
M  V30 3328 H 325.914 -6.08218 0.538802 0
M  V30 3329 H 327.328 -5.11303 2.59311 0
M  V30 3330 H 325.725 -4.96515 3.37035 0
M  V30 3331 H 326.795 -3.55339 3.29943 0
M  V30 3332 N 328.138 -0.959301 -1.25041 0
M  V30 3333 C 329.415 -0.533805 -1.88175 0
M  V30 3334 C 329.795 0.988994 -1.865 0
M  V30 3335 O 329.143 1.85677 -1.33177 0
M  V30 3336 C 329.353 -1.11575 -3.30684 0
M  V30 3337 C 330.701 -1.19548 -4.07423 0
M  V30 3338 O 331.725 -1.06765 -3.39823 0
M  V30 3339 O 330.584 -1.39656 -5.28354 0
M  V30 3340 H 327.678 -0.176772 -0.807887 0
M  V30 3341 H 330.224 -1.05303 -1.33076 0
M  V30 3342 H 328.996 -2.15884 -3.26358 0
M  V30 3343 H 328.619 -0.580059 -3.93346 0
M  V30 3344 N 329.616 1.39756 -0.72842 0
M  V30 3345 C 330.579 2.29012 -0.0927297 0
M  V30 3346 C 331.579 1.45992 0.674025 0
M  V30 3347 O 332.769 1.66749 0.50402 0
M  V30 3348 C 329.901 3.29396 0.878137 0
M  V30 3349 H 331.094 2.86729 -0.879011 0
M  V30 3350 H 328.647 1.48293 -0.493847 0
M  V30 3351 H 329.382 2.76722 1.69101 0
M  V30 3352 H 329.167 3.907 0.331051 0
M  V30 3353 H 330.657 3.96199 1.3197 0
M  V30 3354 N 331.094 0.475555 1.50254 0
M  V30 3355 C 332.057 -0.305016 2.27161 0
M  V30 3356 C 333.057 -0.916519 1.32123 0
M  V30 3357 O 334.247 -0.785003 1.5551 0
M  V30 3358 C 331.379 -1.43496 3.09227 0
M  V30 3359 H 332.572 0.369511 2.97615 0
M  V30 3360 H 330.125 0.229747 1.54602 0
M  V30 3361 H 330.86 -2.14441 2.43281 0
M  V30 3362 H 330.645 -1.00223 3.79075 0
M  V30 3363 H 332.135 -1.98548 3.67381 0
M  V30 3364 N 332.573 -1.56217 0.208337 0
M  V30 3365 C 333.989 -1.58919 -0.14729 0
M  V30 3366 C 334.189 -1.22486 -1.59998 0
M  V30 3367 O 333.245 -0.953849 -2.3379 0
M  V30 3368 C 334.558 -3.00236 0.167048 0
M  V30 3369 C 336.106 -3.12813 0.108219 0
M  V30 3370 C 336.581 -4.56284 0.396049 0
M  V30 3371 N 338.072 -4.61912 0.345142 0
M  V30 3372 C 338.807 -5.70837 0.541523 0
M  V30 3373 N 338.303 -6.88178 0.798968 0
M  V30 3374 N 340.096 -5.60091 0.474867 0
M  V30 3375 H 332.247 -1.78177 1.15614 0
M  V30 3376 H 334.51 -0.827555 0.462446 0
M  V30 3377 H 334.216 -3.31499 1.1748 0
M  V30 3378 H 334.09 -3.7354 -0.524184 0
M  V30 3379 H 336.477 -2.81354 -0.890157 0
M  V30 3380 H 336.558 -2.41866 0.832729 0
M  V30 3381 H 336.202 -4.88458 1.3918 0
M  V30 3382 H 336.132 -5.25439 -0.349502 0
M  V30 3383 H 338.623 -3.77589 0.153316 0
M  V30 3384 H 338.936 -7.67095 0.93727 0
M  V30 3385 H 337.281 -6.89953 0.836013 0
M  V30 3386 H 340.472 -4.67297 0.274064 0
M  V30 3387 H 340.645 -6.44917 0.631326 0
M  V30 3388 N 334.051 0.0651679 -1.57465 0
M  V30 3389 C 335.279 0.775808 -1.91804 0
M  V30 3390 C 335.694 1.70782 -0.804916 0
M  V30 3391 O 335.051 1.81153 0.221311 0
M  V30 3392 C 335.102 1.56381 -3.25925 0
M  V30 3393 O 334.823 0.669248 -4.32958 0
M  V30 3394 C 336.324 2.37485 -3.7432 0
M  V30 3395 H 333.544 0.2202 -0.63384 0
M  V30 3396 H 336.088 0.0334587 -2.04473 0
M  V30 3397 H 334.243 2.25837 -3.14764 0
M  V30 3398 H 334.657 1.21801 -5.10162 0
M  V30 3399 H 336.131 2.88223 -4.70778 0
M  V30 3400 H 336.608 3.17307 -3.03666 0
M  V30 3401 H 337.214 1.73173 -3.88447 0
M  V30 3402 N 335.529 1.53961 0.336706 0
M  V30 3403 C 336.459 1.85417 1.41925 0
M  V30 3404 C 337.44 0.709856 1.5458 0
M  V30 3405 O 338.625 0.962396 1.68676 0
M  V30 3406 C 335.755 2.06985 2.78881 0
M  V30 3407 C 334.709 3.22813 2.81026 0
M  V30 3408 C 334.035 3.29727 4.20932 0
M  V30 3409 C 335.335 4.60767 2.45949 0
M  V30 3410 H 337.029 2.76079 1.15848 0
M  V30 3411 H 334.575 1.32839 0.555859 0
M  V30 3412 H 336.528 2.27575 3.54665 0
M  V30 3413 H 335.252 1.13061 3.06406 0
M  V30 3414 H 333.911 3.0209 2.07695 0
M  V30 3415 H 333.559 2.33385 4.45579 0
M  V30 3416 H 333.259 4.07566 4.23277 0
M  V30 3417 H 334.783 3.52536 4.98549 0
M  V30 3418 H 336.197 4.81325 3.11446 0
M  V30 3419 H 334.594 5.4106 2.59566 0
M  V30 3420 H 335.664 4.6391 1.41122 0
M  V30 3421 N 337.007 -0.598083 1.45811 0
M  V30 3422 C 338.255 -1.35413 1.50026 0
M  V30 3423 C 338.576 -1.94444 0.147177 0
M  V30 3424 O 337.846 -1.77701 -0.824571 0
M  V30 3425 H 336.426 -0.502727 0.552517 0
M  V30 3426 H 339.088 -0.701606 1.81834 0
M  V30 3427 H 338.184 -2.16871 2.2444 0
M  V30 3428 N 338.485 -1.33259 -0.841409 0
M  V30 3429 C 339.901 -1.12538 -1.13169 0
M  V30 3430 C 340.101 0.0854037 -2.01319 0
M  V30 3431 O 339.157 0.766417 -2.40587 0
M  V30 3432 C 340.47 -2.41156 -1.79623 0
M  V30 3433 C 342.018 -2.47038 -1.922 0
M  V30 3434 C 342.493 -3.7561 -2.6207 0
M  V30 3435 N 343.984 -3.76667 -2.69585 0
M  V30 3436 C 344.719 -4.72861 -3.2433 0
M  V30 3437 N 344.215 -5.79428 -3.79783 0
M  V30 3438 N 346.008 -4.6034 -3.22558 0
M  V30 3439 H 338.159 -2.10868 -0.254676 0
M  V30 3440 H 340.422 -0.931615 -0.175493 0
M  V30 3441 H 340.128 -3.29747 -1.22311 0
M  V30 3442 H 340.002 -2.53114 -2.79666 0
M  V30 3443 H 342.389 -1.58898 -2.48667 0
M  V30 3444 H 342.47 -2.39022 -0.911148 0
M  V30 3445 H 342.114 -4.64131 -2.06263 0
M  V30 3446 H 342.044 -3.80902 -3.63622 0
M  V30 3447 H 344.535 -2.99648 -2.30259 0
M  V30 3448 H 344.848 -6.48867 -4.19752 0
M  V30 3449 H 343.193 -5.83166 -3.78078 0
M  V30 3450 H 346.384 -3.76244 -2.78492 0
M  V30 3451 H 346.557 -5.35478 -3.64921 0
M  V30 3452 N 339.963 1.05934 -1.16686 0
M  V30 3453 C 341.374 1.60263 -0.957745 0
M  V30 3454 C 341.725 1.89789 0.49745 0
M  V30 3455 O 340.85 1.67401 1.37135 0
M  V30 3456 C 341.445 2.91172 -1.73218 0
M  V30 3457 C 340.004 3.42188 -1.56794 0
M  V30 3458 C 339.151 2.16028 -1.73859 0
M  V30 3459 H 342.102 0.888392 -1.31504 0
M  V30 3460 H 342.123 3.60744 -1.21014 0
M  V30 3461 H 341.635 2.6965 -2.79124 0
M  V30 3462 H 339.736 3.68762 -0.533437 0
M  V30 3463 H 339.849 4.17273 -2.35414 0
M  V30 3464 H 338.213 2.26426 -1.16633 0
M  V30 3465 H 338.996 1.96985 -2.81161 0
M  V30 3466 N 341.441 0.965919 1.2453 0
M  V30 3467 C 342.687 0.62776 1.92839 0
M  V30 3468 C 343.02 -0.834694 1.75347 0
M  V30 3469 O 342.295 -1.60031 1.10546 0
M  V30 3470 C 342.578 1.00109 3.45905 0
M  V30 3471 C 342.431 2.52011 3.72573 0
M  V30 3472 C 343.75 0.53435 4.36844 0
M  V30 3473 H 340.869 0.229537 0.700344 0
M  V30 3474 H 343.511 1.2046 1.46933 0
M  V30 3475 H 341.661 0.510238 3.85135 0
M  V30 3476 H 343.333 3.08559 3.42912 0
M  V30 3477 H 341.576 2.95287 3.17786 0
M  V30 3478 H 342.247 2.73183 4.79661 0
M  V30 3479 H 344.723 0.955565 4.04979 0
M  V30 3480 H 343.599 0.824152 5.42678 0
M  V30 3481 H 343.86 -0.565589 4.38467 0
M  V30 3482 N 342.919 -1.39368 0.735821 0
M  V30 3483 C 344.196 -1.94465 0.210395 0
M  V30 3484 C 344.576 -1.67254 -1.28799 0
M  V30 3485 O 343.924 -1.00123 -2.05396 0
M  V30 3486 C 344.134 -3.4472 0.544897 0
M  V30 3487 C 345.482 -4.21708 0.494689 0
M  V30 3488 O 346.506 -3.52922 0.482136 0
M  V30 3489 O 345.365 -5.44299 0.489947 0
M  V30 3490 H 342.459 -0.826096 0.0386666 0
M  V30 3491 H 345.005 -1.48863 0.814735 0
M  V30 3492 H 343.777 -3.57963 1.58045 0
M  V30 3493 H 343.4 -3.97502 -0.08837 0
M  V30 3494 N 344.397 -0.483516 -1.5 0
M  V30 3495 C 345.646 0.0689102 -2.01582 0
M  V30 3496 C 345.959 1.39655 -1.36952 0
M  V30 3497 O 347.165 2.03465 -1.79762 0
M  V30 3498 C 345.621 0.173302 -3.59483 0
M  V30 3499 C 345.229 -1.14665 -4.33077 0
M  V30 3500 C 346.973 0.677024 -4.19066 0
M  V30 3501 C 344.88 -1.00537 -5.82792 0
M  V30 3502 H 343.81 0.0295277 -0.753422 0
M  V30 3503 H 346.461 -0.620295 -1.72698 0
M  V30 3504 H 344.843 0.926569 -3.85007 0
M  V30 3505 H 346.017 -1.91184 -4.19268 0
M  V30 3506 H 344.332 -1.58244 -3.85159 0
M  V30 3507 H 346.929 0.799952 -5.28682 0
M  V30 3508 H 347.272 1.67151 -3.81269 0
M  V30 3509 H 347.805 -0.0192083 -3.97795 0
M  V30 3510 H 344.544 -1.9736 -6.25083 0
M  V30 3511 H 344.064 -0.280776 -5.99142 0
M  V30 3512 H 345.743 -0.677 -6.43448 0
M  V30 3513 N 345.875 1.56104 -0.216619 0
M  V30 3514 C 346.838 2.18819 0.681962 0
M  V30 3515 C 347.838 1.14866 1.12528 0
M  V30 3516 O 349.028 1.40128 1.03488 0
M  V30 3517 C 346.16 2.80756 1.93362 0
M  V30 3518 H 347.353 2.99595 0.135254 0
M  V30 3519 H 344.906 1.56265 0.0330003 0
M  V30 3520 H 345.641 2.03837 2.52232 0
M  V30 3521 H 345.426 3.56876 1.62426 0
M  V30 3522 H 346.916 3.28844 2.57393 0
M  V30 3523 N 347.353 -0.0568162 1.57498 0
M  V30 3524 C 348.578 -0.769402 1.92601 0
M  V30 3525 C 349.003 -1.69559 0.814336 0
M  V30 3526 O 348.361 -1.79811 -0.231903 0
M  V30 3527 C 348.409 -1.52634 3.26704 0
M  V30 3528 O 347.513 -2.63797 3.16994 0
M  V30 3529 H 346.854 -0.208909 0.63028 0
M  V30 3530 H 349.384 -0.0205798 2.0459 0
M  V30 3531 H 349.394 -1.90234 3.60936 0
M  V30 3532 H 348.069 -0.846875 4.07186 0
M  V30 3533 H 346.646 -2.28943 2.94346 0
M  V30 3534 N 348.832 -1.54138 -0.328536 0
M  V30 3535 C 350.078 -1.73297 -1.06488 0
M  V30 3536 C 350.433 -0.497958 -1.85844 0
M  V30 3537 O 349.726 0.509591 -1.84699 0
M  V30 3538 C 349.92 -2.9457 -2.02393 0
M  V30 3539 C 349.749 -4.29747 -1.32467 0
M  V30 3540 C 348.519 -4.93987 -1.06324 0
M  V30 3541 C 350.717 -5.08903 -0.743137 0
M  V30 3542 N 348.699 -6.13005 -0.331359 0
M  V30 3543 C 350.07 -6.19836 -0.142602 0
M  V30 3544 C 352.125 -4.93699 -0.64546 0
M  V30 3545 C 350.828 -7.17224 0.546125 0
M  V30 3546 C 352.854 -5.91393 0.0295558 0
M  V30 3547 C 352.216 -7.01674 0.619056 0
M  V30 3548 H 348.315 -0.687017 -0.373539 0
M  V30 3549 H 350.899 -1.91589 -0.346659 0
M  V30 3550 H 349.07 -2.77752 -2.71493 0
M  V30 3551 H 350.802 -3.0238 -2.68977 0
M  V30 3552 H 347.557 -4.53824 -1.35428 0
M  V30 3553 H 347.981 -6.76997 0.0202939 0
M  V30 3554 H 352.623 -4.08589 -1.08695 0
M  V30 3555 H 350.341 -8.01896 0.999459 0
M  V30 3556 H 353.927 -5.81706 0.104705 0
M  V30 3557 H 352.807 -7.75971 1.13309 0
M  V30 3558 N 350.31 0.590341 -1.46126 0
M  V30 3559 C 351.726 0.912917 -1.30912 0
M  V30 3560 C 351.926 1.99616 -0.274893 0
M  V30 3561 O 350.982 2.50397 0.325197 0
M  V30 3562 C 352.295 1.3375 -2.69317 0
M  V30 3563 C 353.843 1.45077 -2.77348 0
M  V30 3564 C 354.318 1.90904 -4.16317 0
M  V30 3565 N 355.809 1.9811 -4.18696 0
M  V30 3566 C 356.544 2.34828 -5.23109 0
M  V30 3567 N 356.04 2.70393 -6.37856 0
M  V30 3568 N 357.833 2.35317 -5.10473 0
M  V30 3569 H 349.984 -0.125358 -2.1203 0
M  V30 3570 H 352.247 0.00658481 -0.947977 0
M  V30 3571 H 351.953 0.615614 -3.4627 0
M  V30 3572 H 351.827 2.30058 -2.9892 0
M  V30 3573 H 354.214 2.16353 -2.00687 0
M  V30 3574 H 354.295 0.4704 -2.51438 0
M  V30 3575 H 353.939 1.20209 -4.9347 0
M  V30 3576 H 353.869 2.89886 -4.39629 0
M  V30 3577 H 356.36 1.73146 -3.359 0
M  V30 3578 H 356.673 2.97341 -7.13308 0
M  V30 3579 H 355.018 2.68048 -6.41229 0
M  V30 3580 H 358.209 2.0695 -4.19868 0
M  V30 3581 H 358.382 2.63605 -5.9196 0
M  V30 3582 N 351.788 1.33704 0.83433 0
M  V30 3583 C 352.738 1.20899 1.93306 0
M  V30 3584 C 353.722 0.110783 1.60518 0
M  V30 3585 O 354.914 0.339331 1.73717 0
M  V30 3586 C 352.043 0.955018 3.29749 0
M  V30 3587 C 351.129 2.09587 3.68692 0
M  V30 3588 N 351.52 3.34621 3.79292 0
M  V30 3589 C 349.818 2.00358 3.98463 0
M  V30 3590 C 350.519 4.09472 4.13167 0
M  V30 3591 N 349.495 3.37954 4.25779 0
M  V30 3592 H 353.297 2.15665 1.99664 0
M  V30 3593 H 350.811 1.25777 1.02732 0
M  V30 3594 H 352.808 0.844208 4.08263 0
M  V30 3595 H 351.468 0.0159317 3.24696 0
M  V30 3596 H 352.479 3.69313 3.63082 0
M  V30 3597 H 349.156 1.14137 4.01596 0
M  V30 3598 H 350.546 5.17391 4.28668 0
M  V30 3599 N 353.266 -1.05314 1.17247 0
M  V30 3600 C 354.229 -2.112 0.890357 0
M  V30 3601 C 355.229 -1.60359 -0.118943 0
M  V30 3602 O 356.419 -1.73833 0.113086 0
M  V30 3603 C 353.551 -3.39266 0.333422 0
M  V30 3604 H 354.744 -2.37659 1.82916 0
M  V30 3605 H 352.297 -1.21538 0.982758 0
M  V30 3606 H 353.032 -3.18462 -0.612587 0
M  V30 3607 H 352.817 -3.77477 1.06082 0
M  V30 3608 H 354.307 -4.17315 0.154322 0
M  V30 3609 N 354.744 -0.972509 -1.24016 0
M  V30 3610 C 355.654 -0.5143 -2.28893 0
M  V30 3611 C 356.67 0.427078 -1.68677 0
M  V30 3612 O 357.846 0.298939 -1.99169 0
M  V30 3613 C 354.911 0.183598 -3.46214 0
M  V30 3614 C 353.972 -0.798202 -4.21814 0
M  V30 3615 C 353.205 -0.133514 -5.33533 0
M  V30 3616 O 353.428 1.07714 -5.60137 0
M  V30 3617 O 352.362 -0.828103 -5.96176 0
M  V30 3618 H 356.188 -1.38629 -2.70214 0
M  V30 3619 H 353.773 -0.739769 -1.29799 0
M  V30 3620 H 355.655 0.575433 -4.17453 0
M  V30 3621 H 354.33 1.03048 -3.0686 0
M  V30 3622 H 353.237 -1.24059 -3.52931 0
M  V30 3623 H 354.57 -1.61364 -4.64997 0
M  V30 3624 N 356.222 1.38976 -0.743202 0
M  V30 3625 C 357.154 2.29096 -0.0689228 0
M  V30 3626 C 358.167 1.47229 0.694791 0
M  V30 3627 O 359.356 1.70212 0.537597 0
M  V30 3628 C 356.456 3.25988 0.926548 0
M  V30 3629 C 355.629 4.36833 0.222647 0
M  V30 3630 C 354.688 5.13981 1.12739 0
M  V30 3631 O 353.714 5.6601 0.601795 0
M  V30 3632 N 354.916 5.25966 2.45641 0
M  V30 3633 H 357.681 2.87604 -0.842846 0
M  V30 3634 H 355.242 1.50645 -0.593109 0
M  V30 3635 H 357.234 3.74476 1.5346 0
M  V30 3636 H 355.804 2.68453 1.60162 0
M  V30 3637 H 355.024 3.90116 -0.565983 0
M  V30 3638 H 356.312 5.0811 -0.264841 0
M  V30 3639 H 355.71 4.85228 2.9081 0
M  V30 3640 H 354.267 5.77865 3.01522 0
M  V30 3641 N 357.7 0.491464 1.49741 0
M  V30 3642 C 358.63 -0.28154 2.31796 0
M  V30 3643 C 359.611 -0.971473 1.3963 0
M  V30 3644 O 360.796 -0.964719 1.68543 0
M  V30 3645 C 357.926 -1.35203 3.19902 0
M  V30 3646 C 356.88 -0.782529 4.20786 0
M  V30 3647 C 356.206 -1.95283 4.97764 0
M  V30 3648 C 357.506 0.21999 5.21837 0
M  V30 3649 H 359.2 0.403355 2.96671 0
M  V30 3650 H 356.746 0.195425 1.42668 0
M  V30 3651 H 358.699 -1.90045 3.76113 0
M  V30 3652 H 357.423 -2.06598 2.52953 0
M  V30 3653 H 356.082 -0.255928 3.65706 0
M  V30 3654 H 355.73 -2.65423 4.2727 0
M  V30 3655 H 355.43 -1.57789 5.66018 0
M  V30 3656 H 356.954 -2.50577 5.56816 0
M  V30 3657 H 358.368 -0.23996 5.72798 0
M  V30 3658 H 356.765 0.51026 5.97927 0
M  V30 3659 H 357.835 1.13911 4.7133 0
M  V30 3660 N 359.178 -1.55987 0.224894 0
M  V30 3661 C 360.589 -1.84553 -0.282345 0
M  V30 3662 C 360.94 -1.14634 -1.59227 0
M  V30 3663 O 360.065 -0.417155 -2.12341 0
M  V30 3664 C 360.66 -3.348 -0.519062 0
M  V30 3665 C 359.219 -3.63671 -0.970604 0
M  V30 3666 C 358.366 -2.77277 -0.0355261 0
M  V30 3667 H 361.317 -1.52245 0.448006 0
M  V30 3668 H 361.338 -3.55187 -1.36463 0
M  V30 3669 H 360.85 -3.8566 0.43449 0
M  V30 3670 H 358.951 -3.1827 -1.9374 0
M  V30 3671 H 359.064 -4.71631 -0.842698 0
M  V30 3672 H 357.428 -2.48846 -0.542927 0
M  V30 3673 H 358.211 -3.30937 0.913003 0
M  V30 3674 N 360.656 0.0484629 -1.57525 0
M  V30 3675 C 361.619 1.03956 -2.04269 0
M  V30 3676 C 362.619 1.30211 -0.943496 0
M  V30 3677 O 363.809 1.25539 -1.20771 0
M  V30 3678 C 360.941 2.37742 -2.44319 0
M  V30 3679 H 362.134 0.636182 -2.93075 0
M  V30 3680 H 359.687 0.294811 -1.53494 0
M  V30 3681 H 360.422 2.82866 -1.5861 0
M  V30 3682 H 360.207 2.20021 -3.24551 0
M  V30 3683 H 361.697 3.08936 -2.80978 0
M  V30 3684 N 362.134 1.5431 0.320358 0
M  V30 3685 C 363.064 1.86912 1.3995 0
M  V30 3686 C 364.045 0.726211 1.53819 0
M  V30 3687 O 365.23 0.980233 1.67646 0
M  V30 3688 C 362.36 2.09932 2.7667 0
M  V30 3689 C 361.314 3.25776 2.77586 0
M  V30 3690 C 360.64 3.34173 4.17412 0
M  V30 3691 C 361.94 4.6335 2.41048 0
M  V30 3692 H 363.634 2.77292 1.12914 0
M  V30 3693 H 361.18 1.33421 0.541738 0
M  V30 3694 H 363.133 2.31324 3.52232 0
M  V30 3695 H 361.857 1.16304 3.0519 0
M  V30 3696 H 360.516 3.04276 2.04479 0
M  V30 3697 H 360.164 2.38098 4.43078 0
M  V30 3698 H 359.864 4.12033 4.18931 0
M  V30 3699 H 361.388 3.57803 4.94782 0
M  V30 3700 H 362.802 4.84602 3.06324 0
M  V30 3701 H 361.199 5.43782 2.53813 0
M  V30 3702 H 362.269 4.65381 1.36193 0
M  V30 3703 N 363.613 -0.582584 1.46437 0
M  V30 3704 C 364.86 -1.34079 1.51753 0
M  V30 3705 C 365.188 -1.93762 0.169299 0
M  V30 3706 O 364.443 -1.76989 -0.835062 0
M  V30 3707 C 364.742 -2.48964 2.56421 0
M  V30 3708 C 364.408 -2.07273 4.00436 0
M  V30 3709 C 363.07 -1.95618 4.39644 0
M  V30 3710 C 365.422 -1.75111 4.90903 0
M  V30 3711 C 362.75 -1.5006 5.67185 0
M  V30 3712 C 365.102 -1.31032 6.18881 0
M  V30 3713 C 363.766 -1.17954 6.56996 0
M  V30 3714 H 363.036 -0.49063 0.555304 0
M  V30 3715 H 365.683 -0.656007 1.79913 0
M  V30 3716 H 363.988 -3.22889 2.21923 0
M  V30 3717 H 365.685 -3.07178 2.57765 0
M  V30 3718 H 362.275 -2.17279 3.69443 0
M  V30 3719 H 366.459 -1.83001 4.61329 0
M  V30 3720 H 361.715 -1.38577 5.95488 0
M  V30 3721 H 365.889 -1.052 6.88408 0
M  V30 3722 H 363.516 -0.824279 7.55718 0
M  V30 3723 N 365.091 -1.34144 -0.827227 0
M  V30 3724 C 366.039 -1.25364 -1.95925 0
M  V30 3725 C 367.033 -0.152608 -1.68711 0
M  V30 3726 O 368.239 -0.317311 -1.77181 0
M  V30 3727 H 364.614 -0.389342 -0.643364 0
M  V30 3728 H 366.585 -2.21045 -2.00454 0
M  V30 3729 C 365.334 -1.02158 -3.32354 0
M  V30 3730 H 364.657 -1.86111 -3.5384 0
M  V30 3731 H 366.097 -1.00048 -4.12027 0
M  V30 3732 C 364.556 0.275244 -3.35774 0
M  V30 3733 O 365.086 1.27806 -3.80826 0
M  V30 3734 N 363.292 0.306853 -2.88975 0
M  V30 3735 H 362.839 -0.509777 -2.52506 0
M  V30 3736 H 362.797 1.17432 -2.91646 0
M  V30 3737 N 366.569 1.04691 -1.17803 0
M  V30 3738 C 367.817 1.7743 -0.967617 0
M  V30 3739 C 368.138 1.88359 0.504574 0
M  V30 3740 O 367.408 1.40402 1.36617 0
M  V30 3741 H 365.988 0.657242 -0.355024 0
M  V30 3742 H 368.65 1.2638 -1.48371 0
M  V30 3743 H 367.746 2.78924 -1.40027 0
M  V30 3744 N 368.047 0.979072 1.23499 0
M  V30 3745 C 368.98 0.463027 2.23453 0
M  V30 3746 C 369.958 -0.469128 1.55685 0
M  V30 3747 O 371.142 -0.397882 1.84253 0
M  V30 3748 C 368.269 -0.330308 3.37086 0
M  V30 3749 C 367.315 0.545795 4.22993 0
M  V30 3750 S 368.148 1.99285 4.97037 0
M  V30 3751 C 369.304 1.20862 6.1412 0
M  V30 3752 H 369.537 1.31005 2.6688 0
M  V30 3753 H 367.07 0.784965 1.32957 0
M  V30 3754 H 369.028 -0.782027 4.02982 0
M  V30 3755 H 367.689 -1.15244 2.92194 0
M  V30 3756 H 366.882 -0.0638928 5.03959 0
M  V30 3757 H 366.484 0.933705 3.62157 0
M  V30 3758 H 368.776 0.469284 6.75873 0
M  V30 3759 H 369.719 1.99307 6.79472 0
M  V30 3760 H 370.127 0.727992 5.59786 0
M  V30 3761 N 369.525 -1.3858 0.750561 0
M  V30 3762 C 370.936 -1.82927 0.373438 0
M  V30 3763 C 371.287 -1.62634 -1.09748 0
M  V30 3764 O 370.412 -1.12588 -1.84805 0
M  V30 3765 C 371.007 -3.32088 0.671029 0
M  V30 3766 C 369.566 -3.74795 0.34722 0
M  V30 3767 C 368.713 -2.61391 0.92575 0
M  V30 3768 H 371.664 -1.27351 0.946958 0
M  V30 3769 H 371.685 -3.80465 -0.0518269 0
M  V30 3770 H 371.197 -3.46826 1.74164 0
M  V30 3771 H 369.298 -3.65638 -0.716933 0
M  V30 3772 H 369.411 -4.71667 0.840656 0
M  V30 3773 H 367.775 -2.52265 0.351327 0
M  V30 3774 H 368.558 -2.78929 2.00133 0
M  V30 3775 N 371.003 -0.499398 -1.49478 0
M  V30 3776 C 371.936 0.326491 -2.25852 0
M  V30 3777 C 372.914 0.971776 -1.30366 0
M  V30 3778 O 374.098 1.00219 -1.59651 0
M  V30 3779 C 371.225 1.45969 -3.05632 0
M  V30 3780 C 370.271 0.928938 -4.16261 0
M  V30 3781 S 371.104 -0.179012 -5.35201 0
M  V30 3782 C 372.26 0.957389 -6.18534 0
M  V30 3783 H 372.493 -0.321746 -2.95554 0
M  V30 3784 H 370.026 -0.284674 -1.51753 0
M  V30 3785 H 371.984 2.109 -3.52181 0
M  V30 3786 H 370.645 2.07953 -2.35402 0
M  V30 3787 H 369.838 1.77813 -4.71592 0
M  V30 3788 H 369.44 0.356869 -3.72293 0
M  V30 3789 H 371.732 1.86296 -6.51383 0
M  V30 3790 H 372.675 0.442733 -7.06715 0
M  V30 3791 H 373.083 1.224 -5.5107 0
M  V30 3792 N 372.481 1.55866 -0.233164 0
M  V30 3793 C 373.729 1.9821 0.394593 0
M  V30 3794 C 374.05 1.12234 1.59463 0
M  V30 3795 O 373.32 0.201981 1.94856 0
M  V30 3796 H 371.9 0.732034 0.148778 0
M  V30 3797 H 374.562 1.92107 -0.32876 0
M  V30 3798 H 373.658 3.03845 0.713063 0
M  V30 3799 N 373.959 -0.0401083 1.57549 0
M  V30 3800 C 375.187 -0.745196 1.93014 0
M  V30 3801 C 375.602 -1.6948 0.831984 0
M  V30 3802 O 374.959 -1.81482 -0.192463 0
M  V30 3803 C 375.01 -1.51176 3.28372 0
M  V30 3804 O 374.731 -0.600284 4.33968 0
M  V30 3805 C 376.232 -2.315 3.78051 0
M  V30 3806 H 373.452 -0.210088 0.637263 0
M  V30 3807 H 375.996 -0.000924689 2.045 0
M  V30 3808 H 374.151 -2.20801 3.18317 0
M  V30 3809 H 374.565 -1.13669 5.12035 0
M  V30 3810 H 376.039 -2.80697 4.75303 0
M  V30 3811 H 376.516 -3.12436 3.08675 0
M  V30 3812 H 377.122 -1.66971 3.91153 0
M  V30 3813 N 375.437 -1.54477 -0.31217 0
M  V30 3814 C 376.853 -1.45442 -0.657185 0
M  V30 3815 C 377.053 -0.63653 -1.91182 0
M  V30 3816 O 376.109 -0.139815 -2.52113 0
M  V30 3817 C 377.422 -2.89287 -0.82058 0
M  V30 3818 C 378.97 -2.9926 -0.917188 0
M  V30 3819 C 379.445 -4.44279 -1.11267 0
M  V30 3820 N 380.936 -4.4794 -1.17914 0
M  V30 3821 C 381.671 -5.57318 -1.34848 0
M  V30 3822 N 381.167 -6.76642 -1.48752 0
M  V30 3823 N 382.96 -5.44986 -1.37647 0
M  V30 3824 H 375.111 -2.06129 0.512313 0
M  V30 3825 H 377.374 -0.933088 0.167485 0
M  V30 3826 H 377.08 -3.51687 0.0302604 0
M  V30 3827 H 376.954 -3.36061 -1.71298 0
M  V30 3828 H 379.341 -2.36981 -1.75852 0
M  V30 3829 H 379.422 -2.558 -0.00101257 0
M  V30 3830 H 379.066 -5.07149 -0.27614 0
M  V30 3831 H 378.996 -4.85359 -2.04289 0
M  V30 3832 H 381.487 -3.61969 -1.08567 0
M  V30 3833 H 381.8 -7.55758 -1.61397 0
M  V30 3834 H 380.145 -6.79529 -1.45828 0
M  V30 3835 H 383.336 -4.50715 -1.26388 0
M  V30 3836 H 383.509 -6.3028 -1.50501 0
M  V30 3837 N 376.915 0.57481 -1.46744 0
M  V30 3838 C 378.164 1.32898 -1.51727 0
M  V30 3839 C 378.477 1.948 -0.176692 0
M  V30 3840 O 379.683 2.71299 -0.104385 0
M  V30 3841 C 378.139 2.40901 -2.67385 0
M  V30 3842 C 377.747 1.85266 -4.07898 0
M  V30 3843 C 379.491 3.17609 -2.81646 0
M  V30 3844 C 377.398 2.90945 -5.14883 0
M  V30 3845 H 376.328 0.499631 -0.564699 0
M  V30 3846 H 378.979 0.612536 -1.72975 0
M  V30 3847 H 377.361 3.15379 -2.39483 0
M  V30 3848 H 378.535 1.17278 -4.45626 0
M  V30 3849 H 376.85 1.21199 -3.98371 0
M  V30 3850 H 379.447 3.96493 -3.58744 0
M  V30 3851 H 379.79 3.70696 -1.89448 0
M  V30 3852 H 380.323 2.50239 -3.09233 0
M  V30 3853 H 377.062 2.42736 -6.089 0
M  V30 3854 H 376.582 3.57398 -4.81691 0
M  V30 3855 H 378.261 3.54755 -5.41071 0
M  V30 3856 N 378.394 1.34581 0.820102 0
M  V30 3857 C 379.324 1.29038 1.94606 0
M  V30 3858 C 380.305 0.1673 1.69275 0
M  V30 3859 O 381.49 0.360112 1.90832 0
M  V30 3860 C 378.62 1.04793 3.31113 0
M  V30 3861 C 377.574 2.13597 3.70891 0
M  V30 3862 C 376.9 1.74537 5.05412 0
M  V30 3863 C 378.2 3.55451 3.8269 0
M  V30 3864 H 379.894 2.23248 1.99501 0
M  V30 3865 H 377.44 1.0747 0.958449 0
M  V30 3866 H 379.393 0.995592 4.0947 0
M  V30 3867 H 378.117 0.0702565 3.26524 0
M  V30 3868 H 376.776 2.17905 2.9481 0
M  V30 3869 H 376.424 0.754226 4.97313 0
M  V30 3870 H 376.124 2.47361 5.32997 0
M  V30 3871 H 377.648 1.70803 5.86224 0
M  V30 3872 H 379.062 3.5354 4.51312 0
M  V30 3873 H 377.459 4.26922 4.21732 0
M  V30 3874 H 378.529 3.92587 2.84611 0
M  V30 3875 N 379.872 -1.04064 1.18357 0
M  V30 3876 C 380.835 -2.10243 0.912707 0
M  V30 3877 C 381.835 -1.60477 -0.101928 0
M  V30 3878 O 383.025 -1.73703 0.131517 0
M  V30 3879 C 380.157 -3.38893 0.369387 0
M  V30 3880 H 381.35 -2.35706 1.85426 0
M  V30 3881 H 378.903 -1.20489 0.995594 0
M  V30 3882 H 379.638 -3.19094 -0.578776 0
M  V30 3883 H 379.423 -3.76331 1.1008 0
M  V30 3884 H 380.913 -4.17128 0.198575 0
M  V30 3885 O 381.389 -1.11421 -1.16909 0
M  V30 3886 H 382.08 -0.820425 -1.75467 0
M  V30 END ATOM
M  V30 BEGIN BOND
M  V30 END BOND
M  V30 END CTAB
M  END
$$$$
