drugbank_target|P0A6V8 Glucokinase (DB02379)
 OpenBabel12092120243D

  0  0  0     0  0            999 V3000
M  V30 BEGIN CTAB
M  V30 COUNTS 4905 4958 0 0 0
M  V30 BEGIN ATOM
M  V30 1 H -0.908 1.98254 -0.117106 0
M  V30 2 N 0 1.576 0 0
M  V30 3 C 0.933 2.03868 1.02534 0
M  V30 4 C 1.911 0.928543 1.3348 0
M  V30 5 O 3.095 1.19667 1.45644 0
M  V30 6 C 0.222 2.43627 2.35294 0
M  V30 7 C -0.732 3.65373 2.2001 0
M  V30 8 S 0.101 5.13292 1.52614 0
M  V30 9 C 1.257 5.56322 2.86805 0
M  V30 10 H 1.49 2.90518 0.631377 0
M  V30 11 H -0.977 1.52953 0.210867 0
M  V30 12 H 0.981 2.67203 3.11629 0
M  V30 13 H -0.358 1.57376 2.7183 0
M  V30 14 H -1.165 3.90944 3.18086 0
M  V30 15 H -1.563 3.418 1.51819 0
M  V30 16 H 0.729 5.58782 3.83104 0
M  V30 17 H 1.672 6.56266 2.65933 0
M  V30 18 H 2.08 4.83886 2.90714 0
M  V30 19 N 1.4781 -0.272755 1.55222 0
M  V30 20 C 2.7061 -1.02255 1.79865 0
M  V30 21 C 3.1211 -1.79924 0.572088 0
M  V30 22 O 2.4781 -1.76638 -0.458842 0
M  V30 23 C 2.5291 -1.98094 3.02392 0
M  V30 24 O 2.2501 -1.23572 4.20311 0
M  V30 25 C 3.7511 -2.84884 3.39641 0
M  V30 26 H 0.9711 -0.302057 0.599168 0
M  V30 27 H 3.5151 -0.303465 2.02236 0
M  V30 28 H 1.6701 -2.65465 2.82147 0
M  V30 29 H 2.0841 -1.88172 4.89583 0
M  V30 30 H 3.5581 -3.47927 4.28545 0
M  V30 31 H 4.0351 -3.54665 2.59055 0
M  V30 32 H 4.6411 -2.23003 3.62146 0
M  V30 33 N 2.9562 -1.48159 -0.537278 0
M  V30 34 C 3.9032 -1.62138 -1.64256 0
M  V30 35 C 4.8732 -0.463668 -1.59497 0
M  V30 36 O 6.0582 -0.686241 -1.78032 0
M  V30 37 C 3.1982 -1.66028 -3.02537 0
M  V30 38 C 2.3112 -2.92855 -3.17585 0
M  V30 39 C 1.4462 -2.87952 -4.46382 0
M  V30 40 C 0.4852 -4.09516 -4.54932 0
M  V30 41 N -0.3778 -4.02733 -5.75109 0
M  V30 42 H 4.4622 -2.56529 -1.51647 0
M  V30 43 H 1.9992 -1.27224 -0.738414 0
M  V30 44 H 3.9572 -1.66265 -3.82638 0
M  V30 45 H 2.5872 -0.751331 -3.13934 0
M  V30 46 H 1.6392 -3.02395 -2.30784 0
M  V30 47 H 2.9512 -3.82822 -3.19764 0
M  V30 48 H 2.1052 -2.8655 -5.34765 0
M  V30 49 H 0.8442 -1.95702 -4.46712 0
M  V30 50 H -0.1508 -4.11201 -3.64957 0
M  V30 51 H 1.0742 -5.02917 -4.56346 0
M  V30 52 H -0.9798 -3.13299 -5.76351 0
M  V30 53 H -1.0628 -4.86397 -5.78752 0
M  V30 54 H 0.2052 -4.05379 -6.65799 0
M  V30 55 N 4.4343 0.785586 -1.36625 0
M  V30 56 C 5.6643 1.5722 -1.34036 0
M  V30 57 C 6.0723 1.89033 0.0795062 0
M  V30 58 O 5.4153 1.50881 1.04789 0
M  V30 59 C 5.4773 2.91759 -2.10041 0
M  V30 60 C 5.1413 2.82654 -3.59104 0
M  V30 61 C 6.1383 2.54634 -4.53274 0
M  V30 62 C 3.8233 3.01111 -4.02042 0
M  V30 63 C 5.8173 2.45177 -5.88359 0
M  V30 64 C 3.5043 2.91276 -5.37216 0
M  V30 65 C 4.5023 2.63348 -6.30188 0
M  V30 66 O 4.1903 2.53514 -7.6288 0
M  V30 67 H 3.9223 0.494177 -0.461265 0
M  V30 68 H 6.4763 0.982632 -1.8037 0
M  V30 69 H 4.7063 3.52781 -1.58375 0
M  V30 70 H 6.3953 3.53059 -2.00261 0
M  V30 71 H 7.1613 2.40073 -4.21414 0
M  V30 72 H 3.0403 3.21854 -3.30047 0
M  V30 73 H 6.5843 2.23299 -6.60896 0
M  V30 74 H 2.4813 3.054 -5.68684 0
M  V30 75 H 3.2493 2.68967 -7.73045 0
M  V30 76 N 5.9124 1.20967 1.01018 0
M  V30 77 C 6.8754 0.965918 2.07853 0
M  V30 78 C 7.8754 -0.0610545 1.60684 0
M  V30 79 O 9.0654 0.175681 1.73312 0
M  V30 80 C 6.1974 0.455513 3.37843 0
M  V30 81 H 7.3904 1.91365 2.3091 0
M  V30 82 H 4.9434 1.02594 1.17916 0
M  V30 83 H 5.6784 -0.497381 3.20463 0
M  V30 84 H 5.4634 1.19622 3.73407 0
M  V30 85 H 6.9534 0.304667 4.16487 0
M  V30 86 N 7.3905 -1.2043 1.01659 0
M  V30 87 C 8.3205 -2.25466 0.607226 0
M  V30 88 C 9.3015 -1.65853 -0.377716 0
M  V30 89 O 10.4865 -1.92409 -0.263149 0
M  V30 90 C 7.6165 -3.47256 -0.0552949 0
M  V30 91 C 6.5705 -4.19462 0.850632 0
M  V30 92 C 5.8965 -5.34673 0.0538859 0
M  V30 93 C 7.1965 -4.75603 2.15868 0
M  V30 94 H 8.8905 -2.59962 1.48526 0
M  V30 95 H 6.4365 -1.2496 0.715605 0
M  V30 96 H 8.3895 -4.19917 -0.353233 0
M  V30 97 H 7.1135 -3.11924 -0.968045 0
M  V30 98 H 5.7725 -3.48667 1.13257 0
M  V30 99 H 5.4205 -4.95585 -0.860514 0
M  V30 100 H 5.1205 -5.83913 0.657192 0
M  V30 101 H 6.6445 -6.10138 -0.237598 0
M  V30 102 H 8.0585 -5.40083 1.92311 0
M  V30 103 H 6.4555 -5.3528 2.71284 0
M  V30 104 H 7.5255 -3.94346 2.82169 0
M  V30 105 N 8.8686 -0.792821 -1.36206 0
M  V30 106 C 10.1146 -0.36733 -1.99446 0
M  V30 107 C 10.4476 1.05917 -1.62774 0
M  V30 108 O 9.7226 1.7324 -0.88421 0
M  V30 109 C 10.0056 -0.535044 -3.56103 0
M  V30 110 C 9.8586 -2.00548 -4.02617 0
M  V30 111 C 11.1776 0.0478191 -4.40074 0
M  V30 112 H 8.2966 -0.134941 -0.724541 0
M  V30 113 H 10.9386 -0.999794 -1.61568 0
M  V30 114 H 9.0886 0.00336329 -3.885 0
M  V30 115 H 10.7606 -2.60521 -3.80692 0
M  V30 116 H 9.0036 -2.50686 -3.54032 0
M  V30 117 H 9.6746 -2.07377 -5.11565 0
M  V30 118 H 12.1506 -0.411822 -4.14057 0
M  V30 119 H 11.0266 -0.0995336 -5.4881 0
M  V30 120 H 11.2876 1.14025 -4.27142 0
M  V30 121 N 10.3467 1.47872 -0.545128 0
M  V30 122 C 11.5947 2.02093 -0.016553 0
M  V30 123 C 11.9157 1.42305 1.3332 0
M  V30 124 O 11.1857 0.593853 1.86682 0
M  V30 125 H 9.7657 0.746993 -0.00313038 0
M  V30 126 H 12.4277 1.81414 -0.712397 0
M  V30 127 H 11.5237 3.11996 0.0805422 0
M  V30 128 N 11.8248 0.280983 1.55075 0
M  V30 129 C 13.1018 -0.386207 1.91749 0
M  V30 130 C 13.4818 -1.73264 1.20594 0
M  V30 131 O 12.8298 -2.26034 0.334784 0
M  V30 132 C 13.0398 -0.520687 3.45094 0
M  V30 133 C 14.3878 -0.800865 4.16979 0
M  V30 134 O 15.4118 -0.605271 3.5102 0
M  V30 135 O 14.2708 -1.1753 5.33712 0
M  V30 136 H 11.3648 -0.212408 0.799257 0
M  V30 137 H 13.9108 0.327568 1.66509 0
M  V30 138 H 12.6828 0.426633 3.88967 0
M  V30 139 H 12.3058 -1.2837 3.76307 0
M  V30 140 N 13.3029 -1.57598 0.00835791 0
M  V30 141 C 14.5489 -1.91211 -0.675732 0
M  V30 142 C 14.8819 -0.883139 -1.72958 0
M  V30 143 O 14.1569 0.097016 -1.94258 0
M  V30 144 C 14.4399 -3.35379 -1.31123 0
M  V30 145 C 14.2929 -4.48999 -0.268356 0
M  V30 146 C 15.6119 -3.7912 -2.23508 0
M  V30 147 H 12.7309 -0.695374 -0.244179 0
M  V30 148 H 15.3729 -1.89901 0.0613655 0
M  V30 149 H 13.5229 -3.36626 -1.93946 0
M  V30 150 H 15.1949 -4.59887 0.360844 0
M  V30 151 H 13.4379 -4.31873 0.408482 0
M  V30 152 H 14.1089 -5.46851 -0.752218 0
M  V30 153 H 16.5849 -3.79477 -1.70693 0
M  V30 154 H 15.4609 -4.80729 -2.64936 0
M  V30 155 H 15.7219 -3.13455 -3.11766 0
M  V30 156 N 14.781 0.264519 -1.55364 0
M  V30 157 C 16.029 0.993021 -1.76021 0
M  V30 158 C 16.35 1.86511 -0.569099 0
M  V30 159 O 15.62 1.91438 0.415735 0
M  V30 160 H 14.2 0.369639 -0.649135 0
M  V30 161 H 16.862 0.286707 -1.9278 0
M  V30 162 H 15.958 1.62502 -2.66457 0
M  V30 163 N 16.2591 1.48442 0.529413 0
M  V30 164 C 17.5071 1.56179 1.28267 0
M  V30 165 C 17.8281 0.237721 1.93546 0
M  V30 166 O 17.0981 -0.740779 1.81354 0
M  V30 167 H 15.6781 0.575367 0.476405 0
M  V30 168 H 18.3401 1.84909 0.61602 0
M  V30 169 H 17.4361 2.34312 2.06165 0
M  V30 170 N 17.7372 -0.778329 1.37039 0
M  V30 171 C 18.9652 -1.56734 1.35063 0
M  V30 172 C 19.3802 -1.88686 -0.0655597 0
M  V30 173 O 18.7372 -1.5096 -1.02554 0
M  V30 174 C 18.7882 -2.88163 2.18276 0
M  V30 175 O 18.5092 -2.57583 3.54376 0
M  V30 176 C 20.0102 -3.82422 2.24206 0
M  V30 177 H 17.2302 -0.485778 0.462883 0
M  V30 178 H 19.7742 -0.965185 1.8029 0
M  V30 179 H 17.9292 -3.44818 1.76576 0
M  V30 180 H 18.3432 -3.41699 3.97922 0
M  V30 181 H 19.8172 -4.71667 2.86765 0
M  V30 182 H 20.2942 -4.21078 1.24861 0
M  V30 183 H 20.9002 -3.31697 2.6619 0
M  V30 184 N 19.2153 -1.21501 -1.00376 0
M  V30 185 C 20.1633 -0.972442 -2.11297 0
M  V30 186 C 21.1573 0.080731 -1.69208 0
M  V30 187 O 22.3633 -0.0707666 -1.79861 0
M  V30 188 H 18.7383 -0.297218 -0.690772 0
M  V30 189 H 20.7093 -1.91394 -2.28934 0
M  V30 190 C 19.4583 -0.555065 -3.43241 0
M  V30 191 H 18.7813 -1.35709 -3.76062 0
M  V30 192 H 20.2213 -0.424664 -4.21868 0
M  V30 193 C 18.6803 0.734147 -3.28804 0
M  V30 194 O 19.2103 1.78937 -3.59645 0
M  V30 195 N 17.4163 0.701133 -2.82015 0
M  V30 196 H 16.9633 -0.157874 -2.57116 0
M  V30 197 H 16.9213 1.56403 -2.72737 0
M  V30 198 N 20.6934 1.19889 -1.02296 0
M  V30 199 C 21.6564 2.21116 -0.603351 0
M  V30 200 C 22.6564 1.5738 0.329884 0
M  V30 201 O 23.8464 1.73802 0.117702 0
M  V30 202 C 20.9784 3.40696 0.117992 0
M  V30 203 H 22.1714 2.59754 -1.49893 0
M  V30 204 H 19.7244 1.33463 -0.813468 0
M  V30 205 H 20.4594 3.07569 1.0282 0
M  V30 206 H 20.2444 3.88188 -0.552511 0
M  V30 207 H 21.7344 4.15692 0.398696 0
M  V30 208 N 22.1715 0.800033 1.35784 0
M  V30 209 C 23.5875 0.482977 1.52117 0
M  V30 210 C 23.7875 -0.996948 1.75109 0
M  V30 211 O 22.8435 -1.78216 1.78872 0
M  V30 212 C 24.1565 1.32264 2.70049 0
M  V30 213 C 25.7045 1.31742 2.83924 0
M  V30 214 C 26.1795 2.14106 4.04874 0
M  V30 215 N 27.6705 2.11607 4.12039 0
M  V30 216 C 28.4055 2.72099 5.04727 0
M  V30 217 N 27.9015 3.41492 6.02789 0
M  V30 218 N 29.6945 2.61776 4.97423 0
M  V30 219 H 21.8455 1.75856 1.19115 0
M  V30 220 H 24.1085 0.748122 0.582252 0
M  V30 221 H 23.8145 2.37261 2.59616 0
M  V30 222 H 23.6885 0.971303 3.6448 0
M  V30 223 H 26.0755 0.275333 2.93813 0
M  V30 224 H 26.1565 1.70859 1.9037 0
M  V30 225 H 25.8005 3.18351 3.95746 0
M  V30 226 H 25.7305 1.72353 4.97596 0
M  V30 227 H 28.2215 1.61112 3.41835 0
M  V30 228 H 28.5345 3.84953 6.70098 0
M  V30 229 H 26.8795 3.45596 6.02983 0
M  V30 230 H 30.0705 2.07157 4.19766 0
M  V30 231 H 30.2435 3.0921 5.69468 0
M  V30 232 N 23.6496 -1.47581 0.552962 0
M  V30 233 C 24.5796 -2.32762 -0.185451 0
M  V30 234 C 25.5606 -1.43527 -0.912905 0
M  V30 235 O 26.7456 -1.72388 -0.894201 0
M  V30 236 C 23.8756 -3.25219 -1.21859 0
M  V30 237 C 22.8296 -4.23661 -0.607864 0
M  V30 238 C 22.1556 -5.05413 -1.74533 0
M  V30 239 C 23.4556 -5.20481 0.435582 0
M  V30 240 H 25.1496 -2.94749 0.525684 0
M  V30 241 H 22.6956 -1.41738 0.254251 0
M  V30 242 H 24.6486 -3.8365 -1.7433 0
M  V30 243 H 23.3726 -2.61279 -1.95961 0
M  V30 244 H 22.0316 -3.66451 -0.104489 0
M  V30 245 H 21.6796 -4.3788 -2.47529 0
M  V30 246 H 21.3796 -5.72059 -1.34249 0
M  V30 247 H 22.9036 -5.66701 -2.27338 0
M  V30 248 H 24.3176 -5.733 -0.00290157 0
M  V30 249 H 22.7146 -5.95305 0.757067 0
M  V30 250 H 23.7846 -4.66217 1.33303 0
M  V30 251 N 25.1277 -0.289203 -1.54924 0
M  V30 252 C 26.0907 0.579144 -2.21762 0
M  V30 253 C 27.0907 1.07047 -1.1999 0
M  V30 254 O 28.2807 0.968384 -1.44803 0
M  V30 255 C 25.4127 1.80055 -2.8947 0
M  V30 256 H 26.6057 -0.00464908 -2.999 0
M  V30 257 H 24.1587 -0.0399306 -1.56249 0
M  V30 258 H 24.8937 2.42449 -2.15381 0
M  V30 259 H 24.6787 1.45602 -3.64064 0
M  V30 260 H 26.1687 2.41773 -3.40493 0
M  V30 261 N 26.6058 1.57591 -0.0167156 0
M  V30 262 C 27.5358 2.12496 0.967858 0
M  V30 263 C 28.5168 1.03807 1.34752 0
M  V30 264 O 29.7018 1.31577 1.42833 0
M  V30 265 C 26.8318 2.64194 2.25431 0
M  V30 266 C 25.7858 3.77559 2.01576 0
M  V30 267 C 25.1118 4.15636 3.36379 0
M  V30 268 C 26.4118 5.04151 1.36489 0
M  V30 269 H 28.1058 2.95013 0.510643 0
M  V30 270 H 25.6518 1.41915 0.244181 0
M  V30 271 H 27.6048 3.01236 2.94678 0
M  V30 272 H 26.3288 1.78821 2.73296 0
M  V30 273 H 24.9878 3.40937 1.34751 0
M  V30 274 H 24.6358 3.27263 3.81979 0
M  V30 275 H 24.3358 4.92022 3.21229 0
M  V30 276 H 25.8598 4.5525 4.06915 0
M  V30 277 H 27.2738 5.38857 1.95718 0
M  V30 278 H 25.6708 5.85453 1.31776 0
M  V30 279 H 26.7408 4.83733 0.336219 0
M  V30 280 N 28.0839 -0.256276 1.55502 0
M  V30 281 C 29.3239 -0.993081 1.78654 0
M  V30 282 C 29.6879 -1.8288 0.584724 0
M  V30 283 O 30.8889 -2.59665 0.694822 0
M  V30 284 C 29.1599 -1.83856 3.06483 0
M  V30 285 S 30.7189 -2.63573 3.5082 0
M  V30 286 H 27.5369 -0.334199 0.62756 0
M  V30 287 H 30.1389 -0.26184 1.93739 0
M  V30 288 H 28.8429 -1.21414 3.92029 0
M  V30 289 H 28.3739 -2.61271 2.94111 0
M  V30 290 H 30.3889 -3.86312 3.11412 0
M  V30 291 N 29.562 -1.4872 -0.521534 0
M  V30 292 C 30.839 -1.4766 -1.2828 0
M  V30 293 C 31.219 -0.19292 -2.10217 0
M  V30 294 O 30.567 0.825193 -2.13079 0
M  V30 295 C 30.777 -2.74358 -2.15705 0
M  V30 296 C 32.125 -3.23028 -2.75569 0
M  V30 297 O 33.149 -2.75333 -2.25987 0
M  V30 298 O 32.008 -4.0604 -3.65778 0
M  V30 299 H 29.102 -0.590085 -0.579421 0
M  V30 300 H 31.648 -1.60963 -0.537492 0
M  V30 301 H 30.42 -3.59292 -1.54999 0
M  V30 302 H 30.043 -2.63816 -2.97467 0
M  V30 303 N 31.0401 0.771051 -1.3745 0
M  V30 304 C 32.2891 1.52491 -1.3202 0
M  V30 305 C 32.6021 1.9538 0.0927347 0
M  V30 306 O 33.8081 2.70159 0.269503 0
M  V30 307 C 32.2641 2.75366 -2.31736 0
M  V30 308 C 31.8721 2.39573 -3.78562 0
M  V30 309 C 33.6161 3.53307 -2.35318 0
M  V30 310 C 31.5231 3.58954 -4.70007 0
M  V30 311 H 30.4531 0.572506 -0.490666 0
M  V30 312 H 33.1041 0.844474 -1.62914 0
M  V30 313 H 31.4861 3.45303 -1.93861 0
M  V30 314 H 32.6601 1.77415 -4.25277 0
M  V30 315 H 30.9751 1.74805 -3.77932 0
M  V30 316 H 33.5721 4.42039 -3.00842 0
M  V30 317 H 33.9151 3.93217 -1.36698 0
M  V30 318 H 34.4481 2.90367 -2.71904 0
M  V30 319 H 31.1871 3.24125 -5.69757 0
M  V30 320 H 30.7071 4.20214 -4.27996 0
M  V30 321 H 32.3861 4.25758 -4.87175 0
M  V30 322 N 32.5182 1.22032 0.997298 0
M  V30 323 C 33.4812 0.987909 2.06816 0
M  V30 324 C 34.4812 -0.0440084 1.6074 0
M  V30 325 O 35.6712 0.194053 1.73116 0
M  V30 326 C 32.8032 0.49132 3.37341 0
M  V30 327 H 33.9962 1.93803 2.28868 0
M  V30 328 H 31.5492 1.03838 1.16822 0
M  V30 329 H 32.2842 -0.463364 3.20973 0
M  V30 330 H 32.0692 1.23575 3.72118 0
M  V30 331 H 33.5592 0.348824 4.16141 0
M  V30 332 N 33.9963 -1.19345 1.0293 0
M  V30 333 C 35.2213 -1.93538 0.745511 0
M  V30 334 C 35.6463 -1.75007 -0.689511 0
M  V30 335 O 35.0043 -1.05265 -1.47611 0
M  V30 336 C 35.0523 -3.43336 1.10239 0
M  V30 337 O 34.1563 -4.11806 0.221289 0
M  V30 338 H 33.4973 -0.604193 0.275404 0
M  V30 339 H 36.0273 -1.5141 1.37609 0
M  V30 340 H 36.0373 -3.94004 1.05947 0
M  V30 341 H 34.7123 -3.56146 2.14786 0
M  V30 342 H 33.2893 -3.715 0.322842 0
M  V30 343 N 35.4744 -0.807222 -1.35358 0
M  V30 344 C 36.7224 -0.387122 -1.98358 0
M  V30 345 C 37.0434 1.04942 -1.64354 0
M  V30 346 O 36.3134 1.72615 -0.926339 0
M  V30 347 H 34.8934 -0.140154 -0.733734 0
M  V30 348 H 37.5554 -1.0332 -1.6526 0
M  V30 349 H 36.6514 -0.493352 -3.08176 0
M  V30 350 N 36.9525 1.47285 -0.560781 0
M  V30 351 C 37.8625 2.33846 0.187954 0
M  V30 352 C 38.8785 1.48412 0.908293 0
M  V30 353 O 40.0545 1.81332 0.876388 0
M  V30 354 C 37.1195 3.25178 1.2025 0
M  V30 355 C 36.1805 4.26504 0.489208 0
M  V30 356 C 35.4135 5.13472 1.45542 0
M  V30 357 O 35.6365 5.02959 2.6905 0
M  V30 358 O 34.5705 5.93902 0.977963 0
M  V30 359 H 38.3965 2.99177 -0.522177 0
M  V30 360 H 35.9815 1.45903 -0.321364 0
M  V30 361 H 37.8635 3.81584 1.78805 0
M  V30 362 H 36.5385 2.6247 1.89449 0
M  V30 363 H 35.4455 3.73847 -0.137627 0
M  V30 364 H 36.7785 4.91935 -0.161399 0
M  V30 365 N 38.4306 0.297415 1.54768 0
M  V30 366 C 39.6796 -0.313669 1.99246 0
M  V30 367 C 39.9926 -1.55281 1.18942 0
M  V30 368 O 41.1986 -2.23825 1.5367 0
M  V30 369 C 39.6546 -0.609407 3.54703 0
M  V30 370 C 39.2626 0.611192 4.43811 0
M  V30 371 C 41.0066 -1.18188 4.07715 0
M  V30 372 C 38.9136 0.288805 5.90694 0
M  V30 373 H 37.8436 -0.120979 0.744231 0
M  V30 374 H 40.4946 0.40556 1.78962 0
M  V30 375 H 38.8766 -1.38813 3.70873 0
M  V30 376 H 40.0506 1.3875 4.39414 0
M  V30 377 H 38.3656 1.10205 4.01552 0
M  V30 378 H 40.9626 -1.43727 5.15021 0
M  V30 379 H 41.3056 -2.12299 3.58099 0
M  V30 380 H 41.8386 -0.464944 3.95074 0
M  V30 381 H 38.5776 1.19838 6.44453 0
M  V30 382 H 38.0976 -0.450305 5.98107 0
M  V30 383 H 39.7766 -0.110933 6.46905 0
M  V30 384 N 39.9087 -1.5758 0.0250728 0
M  V30 385 C 41.1337 -1.96337 -0.668317 0
M  V30 386 C 41.5587 -0.901314 -1.651 0
M  V30 387 O 40.9167 0.138187 -1.80773 0
M  V30 388 C 40.9647 -3.34191 -1.35457 0
M  V30 389 O 40.0687 -3.30269 -2.46974 0
M  V30 390 H 39.4097 -0.640281 -0.175887 0
M  V30 391 H 41.9397 -2.0442 0.0857224 0
M  V30 392 H 41.9497 -3.70331 -1.71228 0
M  V30 393 H 40.6247 -4.11036 -0.634218 0
M  V30 394 H 39.2017 -3.05841 -2.13344 0
M  V30 395 N 41.3868 0.248026 -1.55636 0
M  V30 396 C 42.3188 1.32993 -1.8667 0
M  V30 397 C 43.3318 1.44345 -0.752877 0
M  V30 398 O 44.5208 1.45715 -1.03098 0
M  V30 399 C 41.6208 2.70863 -2.03682 0
M  V30 400 C 40.7938 2.81792 -3.34532 0
M  V30 401 C 39.8528 4.005 -3.41301 0
M  V30 402 O 38.8788 3.9008 -4.14519 0
M  V30 403 N 40.0808 5.13618 -2.70512 0
M  V30 404 H 42.8458 1.06707 -2.8006 0
M  V30 405 H 40.4068 0.438129 -1.55859 0
M  V30 406 H 42.3988 3.48612 -2.05553 0
M  V30 407 H 40.9688 2.89862 -1.17041 0
M  V30 408 H 40.1888 1.90729 -3.44987 0
M  V30 409 H 41.4768 2.86043 -4.20781 0
M  V30 410 H 40.8748 5.24975 -2.10755 0
M  V30 411 H 39.4318 5.89505 -2.78077 0
M  V30 412 N 42.8649 1.48995 0.513639 0
M  V30 413 C 43.8279 1.64229 1.59879 0
M  V30 414 C 44.8279 0.514696 1.5234 0
M  V30 415 O 46.0179 0.78087 1.55718 0
M  V30 416 C 43.1499 1.62783 2.99524 0
M  V30 417 H 44.3429 2.61004 1.47705 0
M  V30 418 H 41.8959 1.37837 0.736936 0
M  V30 419 H 42.6309 0.675461 3.17188 0
M  V30 420 H 42.4159 2.4466 3.06404 0
M  V30 421 H 43.9059 1.76669 3.78388 0
M  V30 422 N 44.343 -0.763751 1.37857 0
M  V30 423 C 45.29 -1.87726 1.34267 0
M  V30 424 C 46.26 -1.64807 0.206879 0
M  V30 425 O 47.445 -1.86613 0.397508 0
M  V30 426 C 44.585 -3.24896 1.16346 0
M  V30 427 C 43.698 -3.59716 2.39225 0
M  V30 428 C 42.833 -4.86137 2.14114 0
M  V30 429 C 41.872 -5.13711 3.32817 0
M  V30 430 N 41.009 -6.31323 3.07206 0
M  V30 431 H 45.849 -1.90129 2.29466 0
M  V30 432 H 43.386 -0.929433 1.14017 0
M  V30 433 H 45.344 -4.04036 1.03975 0
M  V30 434 H 43.974 -3.21847 0.247909 0
M  V30 435 H 43.026 -2.75498 2.62307 0
M  V30 436 H 44.338 -3.76027 3.27728 0
M  V30 437 H 43.492 -5.73198 1.9882 0
M  V30 438 H 42.231 -4.71945 1.22961 0
M  V30 439 H 41.236 -4.25123 3.48641 0
M  V30 440 H 42.461 -5.29807 4.24832 0
M  V30 441 H 40.407 -6.18474 2.1869 0
M  V30 442 H 40.324 -6.48087 3.89254 0
M  V30 443 H 41.592 -7.213 2.95546 0
M  V30 444 N 45.8211 -1.22559 -0.990812 0
M  V30 445 C 47.0491 -1.07779 -1.76611 0
M  V30 446 C 47.4641 0.371513 -1.85109 0
M  V30 447 O 46.8211 1.25737 -1.32274 0
M  V30 448 C 46.8721 -1.68512 -3.19822 0
M  V30 449 O 46.5931 -3.07774 -3.1178 0
M  V30 450 C 48.0941 -1.59035 -4.13791 0
M  V30 451 H 45.3141 -0.377729 -0.554583 0
M  V30 452 H 47.8581 -1.62195 -1.24551 0
M  V30 453 H 46.0131 -1.18154 -3.68942 0
M  V30 454 H 46.4271 -3.37062 -4.01858 0
M  V30 455 H 47.9011 -2.0625 -5.1202 0
M  V30 456 H 48.3781 -0.547273 -4.35777 0
M  V30 457 H 48.9841 -2.08709 -3.70568 0
M  V30 458 N 47.2992 1.18797 -1.03562 0
M  V30 459 C 48.5292 1.92319 -0.754773 0
M  V30 460 C 48.9372 1.7612 0.691248 0
M  V30 461 O 48.2802 1.08491 1.48241 0
M  V30 462 C 48.3422 3.44284 -1.03484 0
M  V30 463 C 48.0062 3.84258 -2.47376 0
M  V30 464 C 49.0032 3.88459 -3.45537 0
M  V30 465 C 46.6882 4.15701 -2.81954 0
M  V30 466 C 48.6822 4.23545 -4.76328 0
M  V30 467 C 46.3692 4.50458 -4.12954 0
M  V30 468 C 47.3672 4.54356 -5.09951 0
M  V30 469 O 47.0552 4.88305 -6.38603 0
M  V30 470 H 46.7872 0.617527 -0.275021 0
M  V30 471 H 49.3412 1.51683 -1.38497 0
M  V30 472 H 47.5712 3.85135 -0.347513 0
M  V30 473 H 49.2602 3.99049 -0.7426 0
M  V30 474 H 50.0262 3.6431 -3.20162 0
M  V30 475 H 45.9052 4.11847 -2.0713 0
M  V30 476 H 49.4492 4.26502 -5.52035 0
M  V30 477 H 45.3462 4.74067 -4.38099 0
M  V30 478 H 46.1142 5.06227 -6.43177 0
M  V30 479 N 48.7773 0.814389 1.34928 0
M  V30 480 C 50.0023 0.410097 2.03305 0
M  V30 481 C 50.4273 -0.973464 1.60951 0
M  V30 482 O 49.7853 -1.63185 0.789964 0
M  V30 483 C 49.8333 0.51049 3.56968 0
M  V30 484 O 48.9373 -0.473035 4.09678 0
M  V30 485 H 48.2783 0.170088 0.641846 0
M  V30 486 H 50.8083 1.10244 1.72358 0
M  V30 487 H 50.8183 0.383135 4.06197 0
M  V30 488 H 49.4933 1.51963 3.87144 0
M  V30 489 H 48.0703 -0.305272 3.71648 0
M  V30 490 N 50.2554 -1.46986 0.568584 0
M  V30 491 C 51.5034 -2.02041 0.0487022 0
M  V30 492 C 51.8244 -1.44408 -1.31039 0
M  V30 493 O 51.0944 -0.623477 -1.85714 0
M  V30 494 H 49.6744 -0.746849 0.015014 0
M  V30 495 H 52.3364 -1.80257 0.741168 0
M  V30 496 H 51.4324 -3.12085 -0.0308961 0
M  V30 497 N 51.7335 -0.305618 -1.54608 0
M  V30 498 C 52.6635 0.561482 -2.26649 0
M  V30 499 C 53.6445 1.13415 -1.26772 0
M  V30 500 O 54.8295 1.16262 -1.55553 0
M  V30 501 C 51.9595 1.73122 -3.01075 0
M  V30 502 C 50.9135 1.2887 -4.08138 0
M  V30 503 C 50.2395 2.54396 -4.70305 0
M  V30 504 C 51.5395 0.416578 -5.20636 0
M  V30 505 H 53.2335 -0.0393902 -2.99374 0
M  V30 506 H 50.7795 -0.020385 -1.43986 0
M  V30 507 H 52.7325 2.34396 -3.50195 0
M  V30 508 H 51.4565 2.3584 -2.25936 0
M  V30 509 H 50.1155 0.698991 -3.59875 0
M  V30 510 H 49.7635 3.15439 -3.918 0
M  V30 511 H 49.4635 2.25486 -5.42614 0
M  V30 512 H 50.9875 3.16464 -5.2219 0
M  V30 513 H 52.4015 0.935116 -5.65622 0
M  V30 514 H 50.7985 0.221046 -5.99693 0
M  V30 515 H 51.8685 -0.557162 -4.81688 0
M  V30 516 N 53.2116 1.57565 -0.0334293 0
M  V30 517 C 54.4886 1.83282 0.683163 0
M  V30 518 C 54.8686 0.91823 1.90084 0
M  V30 519 O 54.2166 -0.025113 2.28486 0
M  V30 520 C 54.4266 3.32599 1.0573 0
M  V30 521 C 55.7746 3.99179 1.44711 0
M  V30 522 O 56.7986 3.3712 1.15015 0
M  V30 523 O 55.6576 5.08565 2.0006 0
M  V30 524 H 52.7516 0.755869 0.335546 0
M  V30 525 H 55.2976 1.69589 -0.0614402 0
M  V30 526 H 54.0696 3.90834 0.190828 0
M  V30 527 H 53.6926 3.51415 1.85993 0
M  V30 528 N 54.6897 -0.239769 1.55765 0
M  V30 529 C 55.9197 -0.982743 1.8173 0
M  V30 530 C 56.3277 -1.7917 0.607835 0
M  V30 531 O 55.6707 -1.78525 -0.432973 0
M  V30 532 C 55.7327 -1.96332 3.01155 0
M  V30 533 C 55.3967 -1.34062 4.36894 0
M  V30 534 C 56.3937 -0.739539 5.14613 0
M  V30 535 C 54.0787 -1.35784 4.83599 0
M  V30 536 C 56.0727 -0.163989 6.37189 0
M  V30 537 C 53.7597 -0.778441 6.06122 0
M  V30 538 C 54.7577 -0.182548 6.82756 0
M  V30 539 O 54.4457 0.387887 8.02964 0
M  V30 540 H 54.1777 -0.294481 0.608487 0
M  V30 541 H 56.7317 -0.26572 2.03674 0
M  V30 542 H 54.9617 -2.71884 2.74984 0
M  V30 543 H 56.6507 -2.57032 3.14149 0
M  V30 544 H 57.4167 -0.718687 4.79646 0
M  V30 545 H 53.2957 -1.81105 4.23936 0
M  V30 546 H 56.8397 0.301753 6.96947 0
M  V30 547 H 52.7367 -0.796645 6.40565 0
M  V30 548 H 53.5047 0.28044 8.18019 0
M  V30 549 N 56.1678 -1.49265 -0.50573 0
M  V30 550 C 57.5788 -1.51769 -1.08734 0
M  V30 551 C 57.9298 -0.301192 -1.93874 0
M  V30 552 O 57.0548 0.589456 -2.08217 0
M  V30 553 C 57.6498 -2.75017 -1.97867 0
M  V30 554 C 56.2088 -2.80314 -2.51199 0
M  V30 555 C 55.3558 -2.4562 -1.28709 0
M  V30 556 H 58.3068 -1.56031 -0.289855 0
M  V30 557 H 58.3278 -2.5491 -2.82491 0
M  V30 558 H 57.8398 -3.63539 -1.35873 0
M  V30 559 H 55.9408 -1.96061 -3.16845 0
M  V30 560 H 56.0538 -3.82366 -2.88675 0
M  V30 561 H 54.4178 -1.97297 -1.61078 0
M  V30 562 H 55.2008 -3.36411 -0.6843 0
M  V30 563 N 57.6459 0.756429 -1.3826 0
M  V30 564 C 58.8709 1.55077 -1.37717 0
M  V30 565 C 59.2959 1.88073 0.03164 0
M  V30 566 O 58.6539 1.50364 1.01293 0
M  V30 567 C 58.7019 2.8283 -2.23695 0
M  V30 568 O 57.8059 3.77862 -1.6521 0
M  V30 569 H 57.1469 0.469152 -0.469885 0
M  V30 570 H 59.6769 0.935019 -1.81985 0
M  V30 571 H 59.6869 3.31783 -2.37453 0
M  V30 572 H 58.3619 2.58144 -3.2609 0
M  V30 573 H 56.9389 3.36555 -1.60578 0
M  V30 574 N 59.124 1.23083 0.984299 0
M  V30 575 C 60.054 1.03292 2.09411 0
M  V30 576 C 61.035 -0.048923 1.7003 0
M  V30 577 O 62.22 0.114967 1.93859 0
M  V30 578 C 59.35 0.619155 3.41736 0
M  V30 579 C 58.304 1.64791 3.95004 0
M  V30 580 C 57.63 1.0897 5.23478 0
M  V30 581 C 58.93 3.03999 4.24714 0
M  V30 582 H 60.624 1.96119 2.26225 0
M  V30 583 H 58.17 0.944344 1.08711 0
M  V30 584 H 60.123 0.467777 4.18796 0
M  V30 585 H 58.847 -0.344786 3.24775 0
M  V30 586 H 57.506 1.78721 3.20085 0
M  V30 587 H 57.154 0.11686 5.02864 0
M  V30 588 H 56.854 1.77704 5.60085 0
M  V30 589 H 58.378 0.950093 6.03163 0
M  V30 590 H 59.792 2.93393 4.92538 0
M  V30 591 H 58.189 3.69936 4.72512 0
M  V30 592 H 59.259 3.53285 3.32142 0
M  V30 593 N 60.6021 -1.18246 1.0419 0
M  V30 594 C 61.5121 -2.25574 0.644476 0
M  V30 595 C 62.5281 -1.70845 -0.329826 0
M  V30 596 O 63.7041 -2.00554 -0.184443 0
M  V30 597 C 60.7691 -3.46697 0.014877 0
M  V30 598 C 59.8301 -4.16554 1.03834 0
M  V30 599 C 59.0631 -5.31894 0.438692 0
M  V30 600 O 59.2861 -5.65385 -0.754752 0
M  V30 601 O 58.2201 -5.90459 1.168 0
M  V30 602 H 62.0461 -2.61836 1.53869 0
M  V30 603 H 59.6311 -1.25352 0.812854 0
M  V30 604 H 61.5131 -4.20062 -0.335538 0
M  V30 605 H 60.1881 -3.12255 -0.853138 0
M  V30 606 H 59.0951 -3.45251 1.44057 0
M  V30 607 H 60.4281 -4.54998 1.87716 0
M  V30 608 N 62.0802 -0.821533 -1.34494 0
M  V30 609 C 63.0432 -0.247847 -2.27856 0
M  V30 610 C 64.0432 0.573453 -1.50227 0
M  V30 611 O 65.2332 0.389759 -1.69784 0
M  V30 612 C 62.3652 0.652698 -3.34593 0
M  V30 613 H 63.5582 -1.07146 -2.80107 0
M  V30 614 H 61.1112 -0.593291 -1.44602 0
M  V30 615 H 61.8462 1.49943 -2.87555 0
M  V30 616 H 61.6312 0.065292 -3.92046 0
M  V30 617 H 63.1212 1.04793 -4.04238 0
M  V30 618 N 63.5583 1.46682 -0.576371 0
M  V30 619 C 64.8043 2.02712 -0.0596221 0
M  V30 620 C 65.1373 1.44765 1.29448 0
M  V30 621 O 64.4123 0.610355 1.84675 0
M  V30 622 C 64.6953 3.60098 0.0129503 0
M  V30 623 C 64.5483 4.28441 -1.3696 0
M  V30 624 C 65.8673 4.34224 0.71678 0
M  V30 625 H 62.9863 0.736637 -0.0231407 0
M  V30 626 H 65.6283 1.74898 -0.742351 0
M  V30 627 H 63.7783 3.83926 0.594378 0
M  V30 628 H 65.4503 4.15896 -1.9957 0
M  V30 629 H 63.6933 3.8805 -1.93907 0
M  V30 630 H 64.3643 5.3716 -1.27135 0
M  V30 631 H 66.8403 4.15503 0.222908 0
M  V30 632 H 65.7163 5.43936 0.73657 0
M  V30 633 H 65.9773 4.04823 1.77682 0
M  V30 634 N 65.0364 0.313813 1.54444 0
M  V30 635 C 66.2854 -0.292519 1.99568 0
M  V30 636 C 66.5984 -1.54011 1.20582 0
M  V30 637 O 67.8044 -2.22183 1.56035 0
M  V30 638 C 66.2604 -0.571752 3.55329 0
M  V30 639 C 65.8684 0.658229 4.43138 0
M  V30 640 C 67.6124 -1.13857 4.08946 0
M  V30 641 C 65.5194 0.351439 5.90355 0
M  V30 642 H 64.4494 -0.113079 0.745472 0
M  V30 643 H 67.1004 0.424518 1.78522 0
M  V30 644 H 65.4824 -1.34872 3.72325 0
M  V30 645 H 66.6564 1.43403 4.37918 0
M  V30 646 H 64.9714 1.14458 4.0036 0
M  V30 647 H 67.5684 -1.38257 5.16516 0
M  V30 648 H 67.9114 -2.08489 3.6033 0
M  V30 649 H 68.4444 -0.423015 3.95544 0
M  V30 650 H 65.1834 1.26667 6.43145 0
M  V30 651 H 64.7034 -0.386842 5.98551 0
M  V30 652 H 66.3824 -0.0423134 6.46986 0
M  V30 653 N 66.5145 -1.57545 0.0417849 0
M  V30 654 C 67.9305 -1.56467 -0.314704 0
M  V30 655 C 68.1305 -1.04859 -1.72066 0
M  V30 656 O 67.1865 -0.700983 -2.42575 0
M  V30 657 C 68.4995 -3.00317 -0.15174 0
M  V30 658 C 70.0475 -3.12201 -0.223553 0
M  V30 659 C 70.5225 -4.57913 -0.0892295 0
M  V30 660 N 72.0135 -4.6297 -0.145808 0
M  V30 661 C 72.7485 -5.73362 -0.0658459 0
M  V30 662 N 72.2445 -6.92769 0.0659282 0
M  V30 663 N 74.0375 -5.6197 -0.12075 0
M  V30 664 H 66.1885 -1.89416 0.961014 0
M  V30 665 H 68.4515 -0.871862 0.372237 0
M  V30 666 H 68.1575 -3.42073 0.817254 0
M  V30 667 H 68.0315 -3.65892 -0.916692 0
M  V30 668 H 70.4185 -2.70349 -1.18301 0
M  V30 669 H 70.4995 -2.49323 0.571994 0
M  V30 670 H 70.1435 -5.00448 0.866867 0
M  V30 671 H 70.0735 -5.18786 -0.903802 0
M  V30 672 H 72.5645 -3.7709 -0.247286 0
M  V30 673 H 72.8775 -7.72707 0.119905 0
M  V30 674 H 71.2225 -6.94927 0.100885 0
M  V30 675 H 74.4135 -4.67572 -0.222187 0
M  V30 676 H 74.5865 -6.47977 -0.0549735 0
M  V30 677 N 67.9926 0.231505 -1.5589 0
M  V30 678 C 69.2386 0.95877 -1.78705 0
M  V30 679 C 69.5716 1.8438 -0.609725 0
M  V30 680 O 68.8466 1.90521 0.391426 0
M  V30 681 C 69.1296 1.8062 -3.11526 0
M  V30 682 C 68.9826 0.948328 -4.39689 0
M  V30 683 C 70.3016 2.78585 -3.40703 0
M  V30 684 H 67.4206 0.347129 -0.650131 0
M  V30 685 H 70.0626 0.228259 -1.88624 0
M  V30 686 H 68.2126 2.42902 -3.03201 0
M  V30 687 H 69.8846 0.343016 -4.60023 0
M  V30 688 H 68.1276 0.253314 -4.3306 0
M  V30 689 H 68.7986 1.57543 -5.29041 0
M  V30 690 H 71.2746 2.26439 -3.49091 0
M  V30 691 H 70.1506 3.34988 -4.34826 0
M  V30 692 H 70.4116 3.55825 -2.62375 0
M  V30 693 N 69.4707 1.49531 0.497807 0
M  V30 694 C 70.7007 1.62657 1.27382 0
M  V30 695 C 71.1087 0.298488 1.86831 0
M  V30 696 O 70.4517 -0.72647 1.68725 0
M  V30 697 C 70.5137 2.6393 2.44093 0
M  V30 698 C 70.1777 4.08195 2.05489 0
M  V30 699 C 71.1747 4.949 1.59279 0
M  V30 700 C 68.8597 4.53948 2.15026 0
M  V30 701 C 70.8537 6.25397 1.23113 0
M  V30 702 C 68.5407 5.84458 1.78473 0
M  V30 703 C 69.5387 6.70006 1.32591 0
M  V30 704 O 69.2267 7.98083 0.965327 0
M  V30 705 H 68.9587 0.550429 0.392434 0
M  V30 706 H 71.5127 1.96325 0.603801 0
M  V30 707 H 69.7427 2.25449 3.14181 0
M  V30 708 H 71.4317 2.66552 3.06113 0
M  V30 709 H 72.1977 4.60779 1.51354 0
M  V30 710 H 68.0767 3.87525 2.4969 0
M  V30 711 H 71.6207 6.92125 0.872299 0
M  V30 712 H 67.5177 6.18107 1.86048 0
M  V30 713 H 68.2857 8.11122 1.09652 0
M  V30 714 N 70.9488 -0.749086 1.3866 0
M  V30 715 C 71.8788 -1.8764 1.38973 0
M  V30 716 C 72.8598 -1.68178 0.255004 0
M  V30 717 O 74.0448 -1.88704 0.458754 0
M  V30 718 C 71.1748 -3.25222 1.21851 0
M  V30 719 C 70.1288 -3.59295 2.32575 0
M  V30 720 C 69.4548 -4.95663 2.00555 0
M  V30 721 C 70.7548 -3.63709 3.7485 0
M  V30 722 H 72.4488 -1.87635 2.3331 0
M  V30 723 H 69.9948 -0.901329 1.12303 0
M  V30 724 H 71.9478 -4.03746 1.20695 0
M  V30 725 H 70.6718 -3.25719 0.239775 0
M  V30 726 H 69.3308 -2.83093 2.32925 0
M  V30 727 H 68.9788 -4.92724 1.01154 0
M  V30 728 H 68.6788 -5.19429 2.74714 0
M  V30 729 H 70.2028 -5.7656 2.01024 0
M  V30 730 H 71.6168 -4.32338 3.76506 0
M  V30 731 H 70.0138 -3.98986 4.48252 0
M  V30 732 H 71.0838 -2.63834 4.06841 0
M  V30 733 N 72.4269 -1.23603 -0.977757 0
M  V30 734 C 73.3369 -1.03632 -2.1047 0
M  V30 735 C 74.3529 0.0199435 -1.73989 0
M  V30 736 O 75.5289 -0.176076 -2.00629 0
M  V30 737 C 72.5939 -0.63276 -3.40877 0
M  V30 738 C 71.6549 -1.76437 -3.91367 0
M  V30 739 C 70.8879 -1.37997 -5.15551 0
M  V30 740 O 71.1109 -0.265357 -5.69782 0
M  V30 741 O 70.0449 -2.20201 -5.60174 0
M  V30 742 H 73.8709 -1.98086 -2.30208 0
M  V30 743 H 71.4559 -1.02332 -1.08851 0
M  V30 744 H 73.3379 -0.418761 -4.19314 0
M  V30 745 H 72.0129 0.282754 -3.22463 0
M  V30 746 H 70.9199 -2.03304 -3.14036 0
M  V30 747 H 72.2529 -2.6583 -4.14241 0
M  V30 748 N 73.905 1.17692 -1.04816 0
M  V30 749 C 74.815 2.25229 -0.65643 0
M  V30 750 C 75.831 1.71018 0.320761 0
M  V30 751 O 77.007 2.00649 0.173805 0
M  V30 752 C 74.072 3.46684 -0.0332629 0
M  V30 753 C 73.133 4.15997 -1.06042 0
M  V30 754 C 72.366 5.31654 -0.466893 0
M  V30 755 O 72.589 5.65777 0.724758 0
M  V30 756 O 71.523 5.89831 -1.1993 0
M  V30 757 H 75.349 2.61016 -1.55255 0
M  V30 758 H 72.934 1.24919 -0.81949 0
M  V30 759 H 74.816 4.20234 0.313256 0
M  V30 760 H 73.491 3.12703 0.836566 0
M  V30 761 H 72.398 3.44482 -1.45886 0
M  V30 762 H 73.731 4.53996 -1.90127 0
M  V30 763 N 75.3831 0.828654 1.34056 0
M  V30 764 C 76.3331 0.226828 2.26869 0
M  V30 765 C 77.3171 -0.612243 1.48796 0
M  V30 766 O 78.5091 -0.465884 1.70759 0
M  V30 767 C 75.6381 -0.605654 3.37915 0
M  V30 768 C 74.7241 0.244361 4.23395 0
M  V30 769 N 75.1151 1.31815 4.88322 0
M  V30 770 C 73.4131 0.0296616 4.4599 0
M  V30 771 C 74.1141 1.83895 5.51867 0
M  V30 772 N 73.0901 1.14196 5.3147 0
M  V30 773 H 76.8921 1.04811 2.74576 0
M  V30 774 H 74.4061 0.67205 1.47842 0
M  V30 775 H 76.4031 -1.05302 4.03382 0
M  V30 776 H 75.0631 -1.42504 2.91758 0
M  V30 777 H 76.0741 1.70099 4.8917 0
M  V30 778 H 72.7511 -0.757097 4.10578 0
M  V30 779 H 74.1411 2.7376 6.136 0
M  V30 780 N 76.8612 -1.46375 0.584142 0
M  V30 781 C 77.8082 -2.30323 -0.148286 0
M  V30 782 C 78.7782 -1.40703 -0.882713 0
M  V30 783 O 79.9632 -1.69651 -0.873099 0
M  V30 784 C 77.1032 -3.25196 -1.15507 0
M  V30 785 C 76.2162 -4.29915 -0.423943 0
M  V30 786 C 75.3512 -5.11914 -1.41838 0
M  V30 787 C 74.3902 -6.08381 -0.673736 0
M  V30 788 N 73.5272 -6.83242 -1.6163 0
M  V30 789 H 78.3672 -2.92427 0.573644 0
M  V30 790 H 75.9042 -1.44118 0.294703 0
M  V30 791 H 77.8622 -3.78646 -1.75166 0
M  V30 792 H 76.4922 -2.64898 -1.8447 0
M  V30 793 H 75.5442 -3.7931 0.287714 0
M  V30 794 H 76.8562 -4.98549 0.158128 0
M  V30 795 H 76.0102 -5.69648 -2.08773 0
M  V30 796 H 74.7492 -4.43243 -2.03438 0
M  V30 797 H 73.7542 -5.49799 0.00938483 0
M  V30 798 H 74.9792 -6.79071 -0.0631082 0
M  V30 799 H 72.9252 -6.1728 -2.22038 0
M  V30 800 H 72.8422 -7.48144 -1.08707 0
M  V30 801 H 74.1102 -7.45534 -2.27596 0
M  V30 802 N 78.3393 -0.321999 -1.54275 0
M  V30 803 C 79.5853 0.281461 -2.00837 0
M  V30 804 C 79.9183 1.51909 -1.20985 0
M  V30 805 O 79.1933 1.923 -0.291733 0
M  V30 806 C 79.4763 0.617162 -3.54772 0
M  V30 807 C 79.3293 -0.631064 -4.45351 0
M  V30 808 C 80.6483 1.43542 -4.16033 0
M  V30 809 H 77.7673 0.100826 -0.730071 0
M  V30 810 H 80.4093 -0.438268 -1.84876 0
M  V30 811 H 78.5593 1.23034 -3.68504 0
M  V30 812 H 80.2313 -1.26934 -4.43492 0
M  V30 813 H 78.4743 -1.26025 -4.15091 0
M  V30 814 H 79.1453 -0.351735 -5.50878 0
M  V30 815 H 81.6213 0.917134 -4.05867 0
M  V30 816 H 80.4973 1.63907 -5.23856 0
M  V30 817 H 80.7583 2.43108 -3.69257 0
M  V30 818 N 79.8174 1.5752 -0.0501392 0
M  V30 819 C 80.7274 2.14952 0.939827 0
M  V30 820 C 81.7434 1.10706 1.34239 0
M  V30 821 O 82.9194 1.42869 1.41952 0
M  V30 822 C 79.9844 2.68232 2.19665 0
M  V30 823 C 79.0454 3.87272 1.85253 0
M  V30 824 C 78.2784 4.38002 3.04943 0
M  V30 825 O 78.5014 3.87811 4.18281 0
M  V30 826 O 77.4354 5.29602 2.86017 0
M  V30 827 H 81.2614 2.9986 0.481392 0
M  V30 828 H 78.8464 1.4841 0.171699 0
M  V30 829 H 80.7284 3.02475 2.93406 0
M  V30 830 H 79.4034 1.86395 2.64648 0
M  V30 831 H 78.3104 3.5792 1.0883 0
M  V30 832 H 79.6434 4.70336 1.4507 0
M  V30 833 N 81.2955 -0.223234 1.56011 0
M  V30 834 C 82.5415 -0.949279 1.79211 0
M  V30 835 C 82.8745 -1.84054 0.619494 0
M  V30 836 O 82.1495 -1.90726 -0.381317 0
M  V30 837 C 82.4325 -1.78965 3.12479 0
M  V30 838 C 82.2855 -0.924997 4.40186 0
M  V30 839 C 83.6045 -2.76774 3.42175 0
M  V30 840 H 80.7235 -0.343676 0.651963 0
M  V30 841 H 83.3655 -0.218253 1.88742 0
M  V30 842 H 81.5155 -2.41291 3.04485 0
M  V30 843 H 83.1875 -0.318615 4.60198 0
M  V30 844 H 81.4305 -0.230344 4.33188 0
M  V30 845 H 82.1015 -1.54735 5.29869 0
M  V30 846 H 84.5775 -2.24584 3.50287 0
M  V30 847 H 83.4535 -3.32678 4.36597 0
M  V30 848 H 83.7145 -3.54429 2.64258 0
M  V30 849 N 82.7736 -1.49793 -0.48987 0
M  V30 850 C 83.7206 -1.67281 -1.59014 0
M  V30 851 C 84.6906 -0.514177 -1.57941 0
M  V30 852 O 85.8756 -0.742533 -1.75759 0
M  V30 853 C 83.0156 -1.75569 -2.97102 0
M  V30 854 C 82.1286 -3.0281 -3.08107 0
M  V30 855 C 81.2636 -3.02008 -4.36995 0
M  V30 856 C 80.3026 -4.23782 -4.41673 0
M  V30 857 N 79.4396 -4.20826 -5.62005 0
M  V30 858 H 84.2796 -2.61224 -1.43409 0
M  V30 859 H 81.8166 -1.29508 -0.697565 0
M  V30 860 H 83.7746 -1.78354 -3.77155 0
M  V30 861 H 82.4046 -0.850827 -3.11385 0
M  V30 862 H 81.4566 -3.09584 -2.21047 0
M  V30 863 H 82.7686 -3.92801 -3.07423 0
M  V30 864 H 81.9226 -3.03418 -5.25378 0
M  V30 865 H 80.6616 -2.09815 -4.4026 0
M  V30 866 H 79.6666 -4.22604 -3.5169 0
M  V30 867 H 80.8916 -5.17181 -4.40115 0
M  V30 868 H 78.8376 -3.31476 -5.66091 0
M  V30 869 H 78.7546 -5.04564 -5.62984 0
M  V30 870 H 80.0226 -4.26355 -6.52565 0
M  V30 871 N 84.2517 0.741722 -1.39055 0
M  V30 872 C 85.5287 1.49252 -1.26425 0
M  V30 873 C 85.9087 2.10705 0.129144 0
M  V30 874 O 85.2567 1.98045 1.13976 0
M  V30 875 C 85.4667 2.54934 -2.38347 0
M  V30 876 C 86.8147 3.21506 -2.77343 0
M  V30 877 O 87.8387 2.65245 -2.37747 0
M  V30 878 O 86.6977 4.23294 -3.45665 0
M  V30 879 H 83.7917 0.662451 -0.495064 0
M  V30 880 H 86.3377 0.776121 -1.50912 0
M  V30 881 H 85.1097 2.07857 -3.31529 0
M  V30 882 H 84.7327 3.34141 -2.15489 0
M  V30 883 N 85.7298 1.2412 0.971189 0
M  V30 884 C 86.9778 1.07668 1.71032 0
M  V30 885 C 87.2988 -0.385797 1.91146 0
M  V30 886 O 86.5688 -1.27569 1.4867 0
M  V30 887 H 85.1488 0.395429 0.633755 0
M  V30 888 H 87.8108 1.55984 1.16855 0
M  V30 889 H 86.9068 1.57195 2.69622 0
M  V30 890 N 87.2079 -1.17134 1.05439 0
M  V30 891 C 88.4479 -1.89137 0.77502 0
M  V30 892 C 88.8119 -1.79345 -0.685526 0
M  V30 893 O 90.0129 -2.46188 -1.0791 0
M  V30 894 C 88.2839 -3.35003 1.2453 0
M  V30 895 S 89.8429 -4.24952 1.09367 0
M  V30 896 H 86.6609 -0.652949 0.281387 0
M  V30 897 H 89.2629 -1.4145 1.34953 0
M  V30 898 H 87.9669 -3.39666 2.30338 0
M  V30 899 H 87.4979 -3.87736 0.665166 0
M  V30 900 H 89.5129 -4.96196 0.0193397 0
M  V30 901 N 88.686 -0.835752 -1.33615 0
M  V30 902 C 89.935 -0.426289 -1.97144 0
M  V30 903 C 90.248 1.01912 -1.66953 0
M  V30 904 O 91.454 1.53311 -2.24072 0
M  V30 905 C 89.91 -0.711321 -3.52801 0
M  V30 906 C 89.518 -2.1712 -3.91871 0
M  V30 907 C 91.262 -0.368654 -4.22896 0
M  V30 908 C 89.169 -2.40044 -5.40493 0
M  V30 909 H 88.099 -0.15567 -0.737755 0
M  V30 910 H 90.75 -1.0239 -1.52278 0
M  V30 911 H 89.132 -0.0433766 -3.95976 0
M  V30 912 H 90.306 -2.87936 -3.59763 0
M  V30 913 H 88.621 -2.47654 -3.34749 0
M  V30 914 H 91.218 -0.517601 -5.32189 0
M  V30 915 H 91.561 0.688078 -4.10574 0
M  V30 916 H 92.094 -0.991702 -3.8524 0
M  V30 917 H 88.833 -3.44271 -5.57815 0
M  V30 918 H 88.353 -1.73785 -5.74072 0
M  V30 919 H 90.032 -2.23042 -6.0734 0
M  V30 920 N 90.1641 1.46063 -0.591896 0
M  V30 921 C 91.1271 2.28854 0.125973 0
M  V30 922 C 92.1271 1.38903 0.810107 0
M  V30 923 O 93.3171 1.61186 0.66066 0
M  V30 924 C 90.4491 3.19526 1.1881 0
M  V30 925 H 91.6421 2.93802 -0.601717 0
M  V30 926 H 89.1951 1.52325 -0.350254 0
M  V30 927 H 89.9301 2.59345 1.94707 0
M  V30 928 H 89.7151 3.85766 0.701936 0
M  V30 929 H 91.2051 3.81817 1.69132 0
M  V30 930 N 91.6422 0.330177 1.54103 0
M  V30 931 C 92.8912 -0.271336 1.99867 0
M  V30 932 C 93.2042 -1.52723 1.22209 0
M  V30 933 O 94.4102 -2.20515 1.58383 0
M  V30 934 C 92.8662 -0.534032 3.55916 0
M  V30 935 C 92.4742 0.705193 4.42415 0
M  V30 936 C 94.2182 -1.09514 4.1013 0
M  V30 937 C 92.1252 0.414035 5.89949 0
M  V30 938 H 91.0552 -0.105166 0.74663 0
M  V30 939 H 93.7062 0.443429 1.78062 0
M  V30 940 H 92.0882 -1.30915 3.73734 0
M  V30 941 H 93.2622 1.4804 4.36372 0
M  V30 942 H 91.5772 1.18698 3.99124 0
M  V30 943 H 94.1742 -1.3277 5.17954 0
M  V30 944 H 94.5172 -2.04656 3.62521 0
M  V30 945 H 95.0502 -0.381038 3.95971 0
M  V30 946 H 91.7892 1.33481 6.41766 0
M  V30 947 H 91.3092 -0.323336 5.98928 0
M  V30 948 H 92.9882 0.0263105 6.46995 0
M  V30 949 N 93.1203 -1.57491 0.0584922 0
M  V30 950 C 94.0833 -2.1085 -0.898617 0
M  V30 951 C 95.0833 -1.02964 -1.23511 0
M  V30 952 O 96.2733 -1.29007 -1.17059 0
M  V30 953 C 93.4053 -2.59881 -2.20623 0
M  V30 954 H 94.5983 -2.96715 -0.435936 0
M  V30 955 H 92.1513 -1.55141 -0.190023 0
M  V30 956 H 92.8863 -1.77431 -2.71457 0
M  V30 957 H 92.6713 -3.38727 -1.97501 0
M  V30 958 H 94.1613 -3.01285 -2.89166 0
M  V30 959 N 94.5984 0.214957 -1.56127 0
M  V30 960 C 95.8384 0.945364 -1.81224 0
M  V30 961 C 96.2024 1.81265 -0.633005 0
M  V30 962 O 97.4034 2.57731 -0.763423 0
M  V30 963 C 95.6744 1.75665 -3.1125 0
M  V30 964 S 97.2334 2.54179 -3.57685 0
M  V30 965 H 94.0514 0.317443 -0.6362 0
M  V30 966 H 96.6534 0.210381 -1.94365 0
M  V30 967 H 95.3574 1.10977 -3.9511 0
M  V30 968 H 94.8884 2.53381 -3.00934 0
M  V30 969 H 96.9034 3.7792 -3.21545 0
M  V30 970 N 96.0765 1.50051 0.48192 0
M  V30 971 C 97.4875 1.5348 1.06305 0
M  V30 972 C 97.8385 0.331997 1.93371 0
M  V30 973 O 96.9635 -0.556256 2.09129 0
M  V30 974 C 97.5585 2.7813 1.93466 0
M  V30 975 C 96.1175 2.84275 2.46707 0
M  V30 976 C 95.2645 2.47637 1.24785 0
M  V30 977 H 98.2155 1.56472 0.264995 0
M  V30 978 H 98.2365 2.59372 2.78399 0
M  V30 979 H 97.7485 3.65654 1.30072 0
M  V30 980 H 95.8495 2.01077 3.13686 0
M  V30 981 H 95.9625 3.8691 2.82555 0
M  V30 982 H 94.3265 1.99835 1.57918 0
M  V30 983 H 95.1095 3.37457 0.630694 0
M  V30 984 N 97.5546 -0.734337 1.39446 0
M  V30 985 C 98.8036 -1.48937 1.36017 0
M  V30 986 C 99.1166 -1.95557 -0.0409005 0
M  V30 987 O 100.323 -2.70779 -0.19778 0
M  V30 988 C 98.7786 -2.69125 2.38955 0
M  V30 989 C 98.3866 -2.29452 3.8478 0
M  V30 990 C 100.131 -3.46944 2.44603 0
M  V30 991 C 98.0376 -3.46366 4.79358 0
M  V30 992 H 96.9676 -0.559296 0.505672 0
M  V30 993 H 99.6186 -0.800983 1.65095 0
M  V30 994 H 98.0006 -3.40041 2.02948 0
M  V30 995 H 99.1746 -1.66077 4.29831 0
M  V30 996 H 97.4896 -1.64723 3.82433 0
M  V30 997 H 100.087 -4.33907 3.12456 0
M  V30 998 H 100.43 -3.89454 1.47076 0
M  V30 999 H 100.963 -2.83056 2.79507 0
M  V30 1000 H 97.7016 -3.08905 5.78151 0
M  V30 1001 H 97.2216 -4.08719 4.38986 0
M  V30 1002 H 98.9006 -4.12691 4.98292 0
M  V30 1003 N 99.0327 -1.24633 -0.964593 0
M  V30 1004 C 100.261 -1.11501 -1.74285 0
M  V30 1005 C 100.676 0.332165 -1.85855 0
M  V30 1006 O 100.033 1.22903 -1.34911 0
M  V30 1007 C 100.084 -1.75258 -3.16175 0
M  V30 1008 O 99.8047 -3.14318 -3.05182 0
M  V30 1009 C 101.306 -1.67776 -4.10324 0
M  V30 1010 H 98.5257 -0.389407 -0.546446 0
M  V30 1011 H 101.07 -1.64801 -1.21083 0
M  V30 1012 H 99.2247 -1.25954 -3.66353 0
M  V30 1013 H 99.6387 -3.4551 -3.94618 0
M  V30 1014 H 101.113 -2.17064 -5.0753 0
M  V30 1015 H 101.59 -0.639584 -4.34518 0
M  V30 1016 H 102.196 -2.16522 -3.66058 0
M  V30 1017 N 100.511 1.16574 -1.06058 0
M  V30 1018 C 101.759 1.86677 -0.77434 0
M  V30 1019 C 102.08 1.81959 0.701147 0
M  V30 1020 O 101.35 1.2515 1.50713 0
M  V30 1021 H 99.9298 0.691134 -0.283449 0
M  V30 1022 H 102.592 1.41378 -1.34158 0
M  V30 1023 H 101.688 2.92181 -1.09711 0
M  V30 1024 N 101.989 0.842826 1.3317 0
M  V30 1025 C 103.266 0.362216 1.92217 0
M  V30 1026 C 103.646 -1.15289 1.76838 0
M  V30 1027 O 102.994 -1.96914 1.15919 0
M  V30 1028 C 103.204 0.813495 3.39387 0
M  V30 1029 C 104.552 0.823804 4.16532 0
M  V30 1030 O 105.576 0.757358 3.48055 0
M  V30 1031 O 104.435 0.915193 5.38782 0
M  V30 1032 H 101.529 0.103317 0.820521 0
M  V30 1033 H 104.075 0.928942 1.42017 0
M  V30 1034 H 102.847 1.85624 3.4447 0
M  V30 1035 H 102.47 0.223561 3.96971 0
M  V30 1036 N 103.467 -1.45747 0.599634 0
M  V30 1037 C 104.713 -2.03153 0.100263 0
M  V30 1038 C 105.068 -1.46073 -1.25221 0
M  V30 1039 O 104.361 -0.622878 -1.81193 0
M  V30 1040 C 104.555 -3.57399 -0.00602758 0
M  V30 1041 C 104.384 -4.2944 1.3346 0
M  V30 1042 C 103.154 -4.6768 1.91321 0
M  V30 1043 C 105.352 -4.61905 2.2616 0
M  V30 1044 N 103.334 -5.24544 3.18946 0
M  V30 1045 C 104.705 -5.19518 3.3838 0
M  V30 1046 C 106.76 -4.43841 2.25631 0
M  V30 1047 C 105.463 -5.60972 4.50226 0
M  V30 1048 C 107.489 -4.86322 3.36518 0
M  V30 1049 C 106.851 -5.44021 4.4746 0
M  V30 1050 H 102.95 -0.777911 0.0798696 0
M  V30 1051 H 105.534 -1.77674 0.796244 0
M  V30 1052 H 103.705 -3.82556 -0.671212 0
M  V30 1053 H 105.437 -4.01457 -0.51133 0
M  V30 1054 H 102.192 -4.5098 1.44617 0
M  V30 1055 H 102.616 -5.57483 3.84112 0
M  V30 1056 H 107.258 -3.98552 1.41123 0
M  V30 1057 H 104.976 -6.0523 5.35464 0
M  V30 1058 H 108.562 -4.74084 3.37247 0
M  V30 1059 H 107.442 -5.76289 5.31846 0
M  V30 1060 N 104.945 -0.338344 -1.53925 0
M  V30 1061 C 106.191 0.260143 -2.01125 0
M  V30 1062 C 106.524 1.50617 -1.22589 0
M  V30 1063 O 105.799 1.91979 -0.312113 0
M  V30 1064 C 106.082 0.579499 -3.55407 0
M  V30 1065 C 105.935 -0.678264 -4.44657 0
M  V30 1066 C 107.254 1.39122 -4.17532 0
M  V30 1067 H 104.373 0.0930772 -0.731099 0
M  V30 1068 H 107.015 -0.457852 -1.84401 0
M  V30 1069 H 105.165 1.19118 -3.69788 0
M  V30 1070 H 106.837 -1.31631 -4.42121 0
M  V30 1071 H 105.08 -1.3042 -4.13731 0
M  V30 1072 H 105.751 -0.410143 -5.50474 0
M  V30 1073 H 108.227 0.874035 -4.06817 0
M  V30 1074 H 107.103 1.58342 -5.25565 0
M  V30 1075 H 107.364 2.39178 -3.71815 0
M  V30 1076 N 106.423 1.57458 -0.0668435 0
M  V30 1077 C 107.386 2.11323 0.887422 0
M  V30 1078 C 108.386 1.03618 1.22964 0
M  V30 1079 O 109.576 1.29626 1.16373 0
M  V30 1080 C 106.708 2.61048 2.19242 0
M  V30 1081 H 107.901 2.96942 0.420194 0
M  V30 1082 H 105.454 1.55239 0.181793 0
M  V30 1083 H 106.189 1.78868 2.70512 0
M  V30 1084 H 105.974 3.39769 1.95702 0
M  V30 1085 H 107.464 3.02814 2.87565 0
M  V30 1086 N 107.901 -0.206675 1.56239 0
M  V30 1087 C 108.834 -1.28383 1.88661 0
M  V30 1088 C 109.812 -1.44504 0.745481 0
M  V30 1089 O 110.996 -1.60079 0.995336 0
M  V30 1090 C 108.123 -2.65211 2.10667 0
M  V30 1091 C 107.169 -2.66025 3.33366 0
M  V30 1092 S 108.002 -2.18609 4.88846 0
M  V30 1093 C 109.158 -3.57283 5.13906 0
M  V30 1094 H 109.391 -1.00691 2.7973 0
M  V30 1095 H 106.924 -0.409627 1.48867 0
M  V30 1096 H 108.882 -3.43979 2.24029 0
M  V30 1097 H 107.543 -2.90121 1.20369 0
M  V30 1098 H 106.736 -3.66607 3.45855 0
M  V30 1099 H 106.338 -1.95331 3.18938 0
M  V30 1100 H 108.63 -4.53074 5.03717 0
M  V30 1101 H 109.573 -3.49699 6.15724 0
M  V30 1102 H 109.981 -3.51659 4.41583 0
M  V30 1103 N 109.379 -1.50304 -0.473955 0
M  V30 1104 C 110.607 -1.64902 -1.24959 0
M  V30 1105 C 111.022 -0.331198 -1.85872 0
M  V30 1106 O 110.379 0.68652 -1.69095 0
M  V30 1107 C 110.43 -2.73803 -2.36038 0
M  V30 1108 O 110.151 -4.00477 -1.77624 0
M  V30 1109 C 111.652 -2.99349 -3.26964 0
M  V30 1110 H 108.872 -0.554383 -0.378022 0
M  V30 1111 H 111.416 -1.9651 -0.566054 0
M  V30 1112 H 109.571 -2.44898 -3.00173 0
M  V30 1113 H 109.985 -4.60678 -2.5075 0
M  V30 1114 H 111.459 -3.79217 -4.01121 0
M  V30 1115 H 111.936 -2.10307 -3.85574 0
M  V30 1116 H 112.542 -3.29774 -2.68569 0
M  V30 1117 N 110.857 0.726932 -1.39834 0
M  V30 1118 C 111.805 1.86235 -1.39353 0
M  V30 1119 C 112.799 1.67144 -0.275555 0
M  V30 1120 O 114.005 1.74387 -0.44601 0
M  V30 1121 H 110.38 0.613174 -0.43534 0
M  V30 1122 H 112.351 1.83756 -2.35109 0
M  V30 1123 C 111.1 3.23995 -1.26185 0
M  V30 1124 H 110.423 3.39285 -2.11484 0
M  V30 1125 H 111.863 4.03609 -1.29907 0
M  V30 1126 C 110.322 3.36888 0.0290018 0
M  V30 1127 O 110.852 3.89152 0.99619 0
M  V30 1128 N 109.058 2.90446 0.0947437 0
M  V30 1129 H 108.605 2.48102 -0.693035 0
M  V30 1130 H 108.563 2.99451 0.957932 0
M  V30 1131 N 112.336 1.25143 0.95797 0
M  V30 1132 C 113.286 1.01924 2.0395 0
M  V30 1133 C 114.27 -0.0427175 1.60843 0
M  V30 1134 O 115.462 0.17221 1.7616 0
M  V30 1135 C 112.591 0.636373 3.3735 0
M  V30 1136 C 111.677 1.73492 3.8699 0
M  V30 1137 N 112.068 2.96945 4.0946 0
M  V30 1138 C 110.366 1.61467 4.15746 0
M  V30 1139 C 111.067 3.68228 4.50315 0
M  V30 1140 N 110.043 2.95833 4.56053 0
M  V30 1141 H 113.845 1.95653 2.19311 0
M  V30 1142 H 111.359 1.15413 1.14253 0
M  V30 1143 H 113.356 0.451233 4.14451 0
M  V30 1144 H 112.016 -0.293621 3.2337 0
M  V30 1145 H 113.027 3.33025 3.96629 0
M  V30 1146 H 109.704 0.753394 4.10646 0
M  V30 1147 H 111.094 4.74178 4.76031 0
M  V30 1148 N 113.814 -1.1601 1.06675 0
M  V30 1149 C 115.042 -1.90527 0.806667 0
M  V30 1150 C 115.457 -1.77643 -0.639396 0
M  V30 1151 O 114.814 -1.12369 -1.43803 0
M  V30 1152 C 114.865 -3.41106 1.19705 0
M  V30 1153 O 114.586 -3.53608 2.58636 0
M  V30 1154 C 116.087 -4.32663 0.965266 0
M  V30 1155 H 113.307 -0.604053 0.292166 0
M  V30 1156 H 115.851 -1.47026 1.4214 0
M  V30 1157 H 114.006 -3.82296 0.626774 0
M  V30 1158 H 114.42 -4.47011 2.74375 0
M  V30 1159 H 115.894 -5.36763 1.288 0
M  V30 1160 H 116.371 -4.39089 -0.0987936 0
M  V30 1161 H 116.977 -3.97206 1.52011 0
M  V30 1162 N 115.292 -0.849877 -1.32721 0
M  V30 1163 C 116.538 -0.460855 -1.9811 0
M  V30 1164 C 116.893 0.971716 -1.66059 0
M  V30 1165 O 116.186 1.67184 -0.935944 0
M  V30 1166 C 116.38 -0.631272 -3.51781 0
M  V30 1167 C 116.209 -2.07886 -3.98765 0
M  V30 1168 C 114.979 -2.71637 -4.26077 0
M  V30 1169 C 117.177 -3.04889 -4.14182 0
M  V30 1170 N 115.159 -4.07356 -4.59276 0
M  V30 1171 C 116.53 -4.25583 -4.50865 0
M  V30 1172 C 118.585 -3.01148 -3.96503 0
M  V30 1173 C 117.288 -5.43027 -4.71714 0
M  V30 1174 C 119.314 -4.17832 -4.18533 0
M  V30 1175 C 118.676 -5.37284 -4.55528 0
M  V30 1176 H 114.775 -0.217283 -0.751207 0
M  V30 1177 H 117.359 -1.10026 -1.60631 0
M  V30 1178 H 115.53 -0.0215966 -3.88394 0
M  V30 1179 H 117.262 -0.212614 -4.04141 0
M  V30 1180 H 114.017 -2.22705 -4.17971 0
M  V30 1181 H 114.441 -4.77351 -4.80068 0
M  V30 1182 H 119.083 -2.0992 -3.67006 0
M  V30 1183 H 116.801 -6.34791 -5.00066 0
M  V30 1184 H 120.387 -4.16368 -4.06361 0
M  V30 1185 H 119.267 -6.26071 -4.72234 0
M  V30 1186 N 116.77 1.45427 -0.607355 0
M  V30 1187 C 117.733 2.28974 0.101693 0
M  V30 1188 C 118.733 1.39754 0.795329 0
M  V30 1189 O 119.923 1.61878 0.643527 0
M  V30 1190 C 117.055 3.20768 1.15414 0
M  V30 1191 H 118.248 2.93147 -0.632844 0
M  V30 1192 H 115.801 1.51945 -0.366391 0
M  V30 1193 H 116.536 2.61395 1.91945 0
M  V30 1194 H 116.321 3.86489 0.66098 0
M  V30 1195 H 117.811 3.83589 1.65073 0
M  V30 1196 N 118.248 0.346503 1.53744 0
M  V30 1197 C 119.495 -0.249104 2.00962 0
M  V30 1198 C 119.823 -1.5032 1.23426 0
M  V30 1199 O 119.078 -1.93217 0.310761 0
M  V30 1200 C 119.377 -0.605809 3.52228 0
M  V30 1201 C 119.043 0.551747 4.47512 0
M  V30 1202 C 117.705 0.86941 4.73281 0
M  V30 1203 C 120.057 1.32818 5.03993 0
M  V30 1204 C 117.385 1.96582 5.52786 0
M  V30 1205 C 119.737 2.41486 5.84694 0
M  V30 1206 C 118.401 2.73808 6.08757 0
M  V30 1207 H 117.671 -0.0911538 0.735372 0
M  V30 1208 H 120.318 0.475027 1.85515 0
M  V30 1209 H 118.623 -1.4107 3.65522 0
M  V30 1210 H 120.32 -1.07858 3.86222 0
M  V30 1211 H 116.91 0.294102 4.2759 0
M  V30 1212 H 121.094 1.09602 4.84047 0
M  V30 1213 H 116.35 2.22045 5.69654 0
M  V30 1214 H 120.524 3.02078 6.27473 0
M  V30 1215 H 118.151 3.58892 6.7015 0
M  V30 1216 N 119.726 -1.57421 0.075193 0
M  V30 1217 C 120.951 -1.98364 -0.605515 0
M  V30 1218 C 121.376 -0.953383 -1.62149 0
M  V30 1219 O 120.734 0.0806053 -1.81121 0
M  V30 1220 C 120.782 -3.38332 -1.24756 0
M  V30 1221 O 119.886 -3.37959 -2.36342 0
M  V30 1222 H 119.227 -0.645553 -0.155428 0
M  V30 1223 H 121.757 -2.04044 0.150714 0
M  V30 1224 H 121.767 -3.75591 -1.5936 0
M  V30 1225 H 120.442 -4.12846 -0.503129 0
M  V30 1226 H 119.019 -3.12474 -2.03506 0
M  V30 1227 N 121.204 0.198386 -1.56346 0
M  V30 1228 C 122.453 0.917451 -1.79627 0
M  V30 1229 C 122.766 1.8456 -0.64784 0
M  V30 1230 O 123.972 2.60504 -0.764859 0
M  V30 1231 C 122.428 1.68175 -3.18191 0
M  V30 1232 C 122.036 0.798589 -4.40825 0
M  V30 1233 C 123.78 2.39065 -3.50782 0
M  V30 1234 C 121.687 1.56157 -5.70411 0
M  V30 1235 H 120.617 0.346317 -0.669762 0
M  V30 1236 H 123.268 0.170801 -1.82703 0
M  V30 1237 H 121.65 2.47216 -3.09354 0
M  V30 1238 H 122.824 0.0470665 -4.60776 0
M  V30 1239 H 121.139 0.200686 -4.15916 0
M  V30 1240 H 123.736 2.96692 -4.44835 0
M  V30 1241 H 124.079 3.13091 -2.74371 0
M  V30 1242 H 124.612 1.66993 -3.61052 0
M  V30 1243 H 121.351 0.864142 -6.49779 0
M  V30 1244 H 120.871 2.2871 -5.54483 0
M  V30 1245 H 122.55 2.11622 -6.11412 0
M  V30 1246 N 122.682 1.50554 0.465978 0
M  V30 1247 C 123.645 1.69233 1.54574 0
M  V30 1248 C 124.645 0.562901 1.50626 0
M  V30 1249 O 125.835 0.830016 1.53155 0
M  V30 1250 C 122.967 1.7223 2.94193 0
M  V30 1251 H 124.16 2.65571 1.39327 0
M  V30 1252 H 121.713 1.40111 0.692711 0
M  V30 1253 H 122.448 0.77603 3.14878 0
M  V30 1254 H 122.233 2.54285 2.98466 0
M  V30 1255 H 123.723 1.88618 3.72576 0
M  V30 1256 N 124.16 -0.719506 1.40217 0
M  V30 1257 C 125.07 -1.86378 1.42479 0
M  V30 1258 C 126.086 -1.71073 0.317834 0
M  V30 1259 O 127.262 -1.93406 0.561794 0
M  V30 1260 C 124.327 -3.22136 1.28178 0
M  V30 1261 C 123.388 -3.49723 2.48982 0
M  V30 1262 C 122.621 -4.79004 2.35353 0
M  V30 1263 O 122.844 -5.53821 1.36524 0
M  V30 1264 O 121.778 -5.06839 3.2465 0
M  V30 1265 H 125.604 -1.87425 2.38968 0
M  V30 1266 H 123.189 -0.869405 1.21498 0
M  V30 1267 H 125.071 -4.03234 1.22395 0
M  V30 1268 H 123.746 -3.21825 0.347934 0
M  V30 1269 H 122.653 -2.6865 2.60342 0
M  V30 1270 H 123.986 -3.54828 3.41113 0
M  V30 1271 N 125.638 -1.25649 -0.95132 0
M  V30 1272 C 126.571 -1.00644 -2.04807 0
M  V30 1273 C 127.549 0.0654271 -1.62468 0
M  V30 1274 O 128.733 -0.074911 -1.88351 0
M  V30 1275 C 125.86 -0.522052 -3.34653 0
M  V30 1276 C 124.906 -1.58495 -3.95957 0
M  V30 1277 S 125.739 -3.17108 -4.31512 0
M  V30 1278 C 126.895 -2.70412 -5.64471 0
M  V30 1279 H 127.128 -1.93508 -2.25703 0
M  V30 1280 H 124.661 -1.09216 -1.09139 0
M  V30 1281 H 126.619 -0.24923 -4.09743 0
M  V30 1282 H 125.28 0.386146 -3.11717 0
M  V30 1283 H 124.473 -1.1968 -4.89584 0
M  V30 1284 H 124.075 -1.80862 -3.2736 0
M  V30 1285 H 126.367 -2.14245 -6.42733 0
M  V30 1286 H 127.31 -3.62693 -6.08161 0
M  V30 1287 H 127.718 -2.10302 -5.23864 0
M  V30 1288 N 127.117 1.15442 -1.07289 0
M  V30 1289 C 128.064 2.20161 -0.692653 0
M  V30 1290 C 129.034 1.63073 0.31564 0
M  V30 1291 O 130.219 1.89725 0.202235 0
M  V30 1292 C 127.359 3.44967 -0.0959509 0
M  V30 1293 C 126.472 4.16256 -1.15564 0
M  V30 1294 C 125.607 5.28609 -0.524011 0
M  V30 1295 C 124.646 5.91715 -1.56653 0
M  V30 1296 N 123.783 6.9554 -0.957531 0
M  V30 1297 H 128.623 2.52037 -1.59002 0
M  V30 1298 H 126.16 1.2378 -0.794798 0
M  V30 1299 H 128.118 4.16341 0.267628 0
M  V30 1300 H 126.748 3.1361 0.764772 0
M  V30 1301 H 125.8 3.43385 -1.6368 0
M  V30 1302 H 127.112 4.59268 -1.94613 0
M  V30 1303 H 126.266 6.06604 -0.108032 0
M  V30 1304 H 125.005 4.86787 0.29825 0
M  V30 1305 H 124.01 5.12433 -1.9923 0
M  V30 1306 H 125.235 6.35614 -2.39107 0
M  V30 1307 H 123.181 6.55814 -0.156162 0
M  V30 1308 H 123.098 7.36977 -1.68526 0
M  V30 1309 H 124.366 7.77435 -0.567032 0
M  V30 1310 N 128.595 0.856903 1.32268 0
M  V30 1311 C 129.542 0.301172 2.28827 0
M  V30 1312 C 130.512 -0.593104 1.5515 0
M  V30 1313 O 131.697 -0.527537 1.83362 0
M  V30 1314 C 128.837 -0.502523 3.41422 0
M  V30 1315 C 127.95 0.417797 4.29975 0
M  V30 1316 C 127.085 -0.398749 5.29701 0
M  V30 1317 C 126.124 0.518827 6.09897 0
M  V30 1318 N 125.261 -0.260674 7.01616 0
M  V30 1319 H 130.101 1.12983 2.75751 0
M  V30 1320 H 127.638 0.568582 1.35667 0
M  V30 1321 H 129.596 -0.984141 4.05426 0
M  V30 1322 H 128.226 -1.29599 2.95642 0
M  V30 1323 H 127.278 1.01781 3.66531 0
M  V30 1324 H 128.59 1.12191 4.86019 0
M  V30 1325 H 127.744 -0.943435 5.9932 0
M  V30 1326 H 126.483 -1.13622 4.7428 0
M  V30 1327 H 125.488 1.07538 5.39181 0
M  V30 1328 H 126.713 1.25495 6.67404 0
M  V30 1329 H 124.659 -0.981198 6.4862 0
M  V30 1330 H 124.576 0.384364 7.55022 0
M  V30 1331 H 125.844 -0.787014 7.75517 0
M  V30 1332 N 130.073 -1.45103 0.615059 0
M  V30 1333 C 131.021 -2.32331 -0.111791 0
M  V30 1334 C 132.015 -1.46409 -0.852102 0
M  V30 1335 O 133.221 -1.62849 -0.766821 0
M  V30 1336 H 129.596 -0.749993 -0.0549072 0
M  V30 1337 H 131.567 -2.91407 0.642225 0
M  V30 1338 C 130.316 -3.3015 -1.09071 0
M  V30 1339 H 129.639 -3.96265 -0.530485 0
M  V30 1340 H 131.079 -3.93898 -1.56908 0
M  V30 1341 C 129.538 -2.57875 -2.168 0
M  V30 1342 O 130.068 -2.36567 -3.24652 0
M  V30 1343 N 128.274 -2.17884 -1.92289 0
M  V30 1344 H 127.821 -2.35413 -1.04587 0
M  V30 1345 H 127.779 -1.6985 -2.64572 0
M  V30 1346 N 131.551 -0.354651 -1.53558 0
M  V30 1347 C 132.481 0.489091 -2.2832 0
M  V30 1348 C 133.462 1.09324 -1.30316 0
M  V30 1349 O 134.647 1.11255 -1.59173 0
M  V30 1350 C 131.777 1.63456 -3.0643 0
M  V30 1351 C 130.731 1.1582 -4.12031 0
M  V30 1352 C 130.057 2.39305 -4.7816 0
M  V30 1353 C 131.357 0.250731 -5.21698 0
M  V30 1354 H 133.051 -0.134614 -2.99097 0
M  V30 1355 H 130.597 -0.0661826 -1.43848 0
M  V30 1356 H 132.55 2.23136 -3.57475 0
M  V30 1357 H 131.274 2.28533 -2.33325 0
M  V30 1358 H 129.933 0.584146 -3.61916 0
M  V30 1359 H 129.581 3.02814 -4.01637 0
M  V30 1360 H 129.281 2.08109 -5.49513 0
M  V30 1361 H 130.805 2.99691 -5.31994 0
M  V30 1362 H 132.219 0.754695 -5.68311 0
M  V30 1363 H 130.616 0.0301468 -6.00092 0
M  V30 1364 H 131.686 -0.710125 -4.79672 0
M  V30 1365 N 133.029 1.57378 -0.0835403 0
M  V30 1366 C 134.277 1.93547 0.581718 0
M  V30 1367 C 134.598 0.96524 1.69435 0
M  V30 1368 O 133.868 0.0153369 1.95894 0
M  V30 1369 H 132.448 0.714521 0.217874 0
M  V30 1370 H 135.11 1.94366 -0.144158 0
M  V30 1371 H 134.206 2.95665 0.999423 0
M  V30 1372 N 134.507 -0.190092 1.56449 0
M  V30 1373 C 135.754 -0.909705 1.80916 0
M  V30 1374 C 136.082 -1.83047 0.657583 0
M  V30 1375 O 135.337 -1.92428 -0.356356 0
M  V30 1376 C 135.636 -1.75382 3.1141 0
M  V30 1377 C 135.302 -0.983606 4.40041 0
M  V30 1378 C 133.964 -0.770967 4.74984 0
M  V30 1379 C 136.316 -0.442024 5.19322 0
M  V30 1380 C 133.644 -0.0053448 5.867 0
M  V30 1381 C 135.996 0.310412 6.31838 0
M  V30 1382 C 134.66 0.534023 6.6536 0
M  V30 1383 H 133.93 -0.332885 0.662019 0
M  V30 1384 H 136.577 -0.175762 1.90692 0
M  V30 1385 H 134.882 -2.55659 2.96893 0
M  V30 1386 H 136.579 -2.31331 3.27547 0
M  V30 1387 H 133.169 -1.15936 4.12622 0
M  V30 1388 H 137.353 -0.593693 4.92736 0
M  V30 1389 H 132.609 0.177825 6.11141 0
M  V30 1390 H 136.783 0.737419 6.92485 0
M  V30 1391 H 134.41 1.12918 7.51767 0
M  V30 1392 N 135.985 -1.50799 -0.457987 0
M  V30 1393 C 137.21 -1.66496 -1.23668 0
M  V30 1394 C 137.635 -0.353288 -1.84752 0
M  V30 1395 O 136.993 0.684346 -1.67888 0
M  V30 1396 C 137.041 -2.76763 -2.3116 0
M  V30 1397 O 136.145 -2.38928 -3.36136 0
M  V30 1398 H 135.486 -0.555828 -0.363252 0
M  V30 1399 H 138.016 -1.9725 -0.543474 0
M  V30 1400 H 138.026 -3.00232 -2.76269 0
M  V30 1401 H 136.701 -3.71954 -1.86073 0
M  V30 1402 H 135.278 -2.25953 -2.96647 0
M  V30 1403 N 137.463 0.71206 -1.40597 0
M  V30 1404 C 138.413 1.81783 -1.37619 0
M  V30 1405 C 139.397 1.58896 -0.253162 0
M  V30 1406 O 140.589 1.70009 -0.492547 0
M  V30 1407 C 137.718 3.19944 -1.24462 0
M  V30 1408 C 136.804 3.48582 -2.4156 0
M  V30 1409 N 137.195 3.48016 -3.67041 0
M  V30 1410 C 135.493 3.79056 -2.35016 0
M  V30 1411 C 136.194 3.75096 -4.44609 0
M  V30 1412 N 135.17 3.94022 -3.74497 0
M  V30 1413 H 138.972 1.79683 -2.32575 0
M  V30 1414 H 136.486 0.91134 -1.34419 0
M  V30 1415 H 138.483 3.99133 -1.20411 0
M  V30 1416 H 137.143 3.23267 -0.304762 0
M  V30 1417 H 138.154 3.28782 -4.00153 0
M  V30 1418 H 134.831 3.89848 -1.49415 0
M  V30 1419 H 136.221 3.80934 -5.53479 0
M  V30 1420 N 138.941 1.26152 0.944643 0
M  V30 1421 C 139.871 1.09902 2.06019 0
M  V30 1422 C 140.852 0.00519538 1.70099 0
M  V30 1423 O 142.037 0.176583 1.93396 0
M  V30 1424 C 139.167 0.727562 3.39594 0
M  V30 1425 C 138.121 1.77274 3.89561 0
M  V30 1426 C 137.447 1.25569 5.19747 0
M  V30 1427 C 138.747 3.17357 4.14827 0
M  V30 1428 H 140.441 2.03217 2.19871 0
M  V30 1429 H 137.987 0.978452 1.05652 0
M  V30 1430 H 139.94 0.600777 4.17095 0
M  V30 1431 H 138.664 -0.241287 3.25707 0
M  V30 1432 H 137.323 1.88814 3.14237 0
M  V30 1433 H 136.971 0.276783 5.02238 0
M  V30 1434 H 136.671 1.95433 5.54148 0
M  V30 1435 H 138.195 1.1415 5.99835 0
M  V30 1436 H 139.609 3.08914 4.82954 0
M  V30 1437 H 138.006 3.84781 4.60504 0
M  V30 1438 H 139.076 3.63673 3.20734 0
M  V30 1439 N 140.419 -1.14872 1.07899 0
M  V30 1440 C 141.329 -2.2341 0.715915 0
M  V30 1441 C 142.345 -1.71808 -0.275306 0
M  V30 1442 O 143.521 -2.01039 -0.120545 0
M  V30 1443 C 140.586 -3.46474 0.125168 0
M  V30 1444 C 139.647 -4.13039 1.17034 0
M  V30 1445 C 138.88 -5.30229 0.607688 0
M  V30 1446 O 139.103 -5.675 -0.574497 0
M  V30 1447 O 138.037 -5.86444 1.35526 0
M  V30 1448 H 141.863 -2.56808 1.62121 0
M  V30 1449 H 139.448 -1.22702 0.852322 0
M  V30 1450 H 141.33 -4.20917 -0.201729 0
M  V30 1451 H 140.005 -3.14811 -0.753364 0
M  V30 1452 H 138.912 -3.40493 1.54968 0
M  V30 1453 H 140.245 -4.48796 2.02097 0
M  V30 1454 N 141.898 -0.863906 -1.31812 0
M  V30 1455 C 143.147 -0.46801 -1.96195 0
M  V30 1456 C 143.46 0.983474 -1.69077 0
M  V30 1457 O 144.666 1.48523 -2.27273 0
M  V30 1458 C 143.122 -0.785995 -3.51212 0
M  V30 1459 C 142.73 -2.25383 -3.87178 0
M  V30 1460 C 144.474 -0.458274 -4.22019 0
M  V30 1461 C 142.381 -2.51455 -5.3528 0
M  V30 1462 H 141.311 -0.171283 -0.734287 0
M  V30 1463 H 143.962 -1.05597 -1.50072 0
M  V30 1464 H 142.344 -0.127359 -3.95795 0
M  V30 1465 H 143.518 -2.95502 -3.53575 0
M  V30 1466 H 141.833 -2.54698 -3.2942 0
M  V30 1467 H 144.43 -0.630369 -5.30971 0
M  V30 1468 H 144.773 0.600834 -4.11941 0
M  V30 1469 H 145.306 -1.07319 -3.8305 0
M  V30 1470 H 142.045 -3.56025 -5.50387 0
M  V30 1471 H 141.565 -1.85923 -5.70257 0
M  V30 1472 H 143.244 -2.35874 -6.02472 0
M  V30 1473 N 143.376 1.44774 -0.622745 0
M  V30 1474 C 144.625 2.01334 -0.121397 0
M  V30 1475 C 144.938 1.49505 1.26125 0
M  V30 1476 O 146.144 1.98139 1.85616 0
M  V30 1477 C 144.6 3.59516 -0.166298 0
M  V30 1478 C 144.208 4.20342 -1.54974 0
M  V30 1479 C 145.952 4.23582 0.279021 0
M  V30 1480 C 143.859 5.70721 -1.55021 0
M  V30 1481 H 142.789 0.752851 -0.0416172 0
M  V30 1482 H 145.44 1.66083 -0.780309 0
M  V30 1483 H 143.822 3.92027 0.559557 0
M  V30 1484 H 144.996 3.99381 -2.29851 0
M  V30 1485 H 143.311 3.68529 -1.93843 0
M  V30 1486 H 145.908 5.33868 0.298083 0
M  V30 1487 H 146.251 3.95327 1.30471 0
M  V30 1488 H 146.784 3.95843 -0.394063 0
M  V30 1489 H 143.523 6.03698 -2.55399 0
M  V30 1490 H 143.043 5.93829 -0.844245 0
M  V30 1491 H 144.722 6.34203 -1.28047 0
M  V30 1492 N 144.854 0.36279 1.53368 0
M  V30 1493 C 145.802 -0.500155 2.27159 0
M  V30 1494 C 146.796 -1.08575 1.3003 0
M  V30 1495 O 148.002 -1.02927 1.47668 0
M  V30 1496 H 144.377 -0.180009 0.730138 0
M  V30 1497 H 146.348 0.14401 2.98052 0
M  V30 1498 C 145.097 -1.62937 3.07159 0
M  V30 1499 H 144.42 -1.18806 3.8174 0
M  V30 1500 H 145.86 -2.20795 3.61975 0
M  V30 1501 C 144.319 -2.57007 2.17829 0
M  V30 1502 O 144.849 -3.59752 1.78721 0
M  V30 1503 N 143.055 -2.26131 1.82518 0
M  V30 1504 H 142.602 -1.42616 2.14519 0
M  V30 1505 H 142.56 -2.89327 1.23034 0
M  V30 1506 N 146.332 -1.57332 0.0918853 0
M  V30 1507 C 147.609 -1.85691 -0.614668 0
M  V30 1508 C 147.989 -0.988146 -1.86545 0
M  V30 1509 O 147.337 -0.0597055 -2.28422 0
M  V30 1510 C 147.547 -3.36294 -0.933126 0
M  V30 1511 C 148.895 -4.04275 -1.29796 0
M  V30 1512 O 149.919 -3.41157 -1.02424 0
M  V30 1513 O 148.778 -5.1564 -1.81047 0
M  V30 1514 H 145.872 -0.767802 -0.307261 0
M  V30 1515 H 148.418 -1.69244 0.12434 0
M  V30 1516 H 147.19 -3.91273 -0.0456404 0
M  V30 1517 H 146.813 -3.58076 -1.72822 0
M  V30 1518 N 147.81 0.181792 -1.56548 0
M  V30 1519 C 149.057 0.900097 -1.81396 0
M  V30 1520 C 149.385 1.82695 -0.667281 0
M  V30 1521 O 148.64 1.92614 0.346146 0
M  V30 1522 C 148.939 1.73728 -3.12335 0
M  V30 1523 C 148.605 0.960255 -4.40556 0
M  V30 1524 C 147.267 0.745766 -4.75386 0
M  V30 1525 C 149.619 0.414477 -5.19549 0
M  V30 1526 C 146.947 -0.0257694 -5.86694 0
M  V30 1527 C 149.299 -0.343916 -6.31664 0
M  V30 1528 C 147.963 -0.569301 -6.65068 0
M  V30 1529 H 147.233 0.329369 -0.663775 0
M  V30 1530 H 149.88 0.165647 -1.90782 0
M  V30 1531 H 148.185 2.54081 -2.98245 0
M  V30 1532 H 149.882 2.29591 -3.28769 0
M  V30 1533 H 146.472 1.13746 -4.13231 0
M  V30 1534 H 150.656 0.567554 -4.93044 0
M  V30 1535 H 145.912 -0.210233 -6.11038 0
M  V30 1536 H 150.086 -0.774133 -6.92084 0
M  V30 1537 H 147.713 -1.16903 -7.51158 0
M  V30 1538 N 149.288 1.51039 0.449983 0
M  V30 1539 C 150.516 1.66869 1.2232 0
M  V30 1540 C 150.931 0.360727 1.85322 0
M  V30 1541 O 150.288 -0.659531 1.70166 0
M  V30 1542 C 150.339 2.77524 2.31652 0
M  V30 1543 O 150.06 4.03252 1.7123 0
M  V30 1544 C 151.561 3.04512 3.2216 0
M  V30 1545 H 148.781 0.560326 0.369155 0
M  V30 1546 H 151.325 1.97385 0.534719 0
M  V30 1547 H 149.48 2.49642 2.96239 0
M  V30 1548 H 149.894 4.64609 2.43389 0
M  V30 1549 H 151.368 3.85551 3.95038 0
M  V30 1550 H 151.845 2.16415 3.8218 0
M  V30 1551 H 152.451 3.34005 2.63288 0
M  V30 1552 N 150.766 -0.704594 1.40972 0
M  V30 1553 C 151.729 -1.80035 1.41845 0
M  V30 1554 C 152.729 -1.57774 0.310474 0
M  V30 1555 O 153.919 -1.64613 0.56992 0
M  V30 1556 C 151.051 -3.18284 1.22098 0
M  V30 1557 H 152.244 -1.80658 2.3938 0
M  V30 1558 H 149.797 -0.911329 1.26982 0
M  V30 1559 H 150.532 -3.23306 0.253672 0
M  V30 1560 H 150.317 -3.35843 2.02366 0
M  V30 1561 H 151.807 -3.98289 1.25522 0
M  V30 1562 N 152.244 -1.26651 -0.937939 0
M  V30 1563 C 153.49 -1.12553 -1.687 0
M  V30 1564 C 153.823 0.329782 -1.91379 0
M  V30 1565 O 153.098 1.24202 -1.4968 0
M  V30 1566 C 153.381 -1.89862 -3.05981 0
M  V30 1567 C 153.234 -3.43318 -2.90607 0
M  V30 1568 C 154.553 -1.69499 -4.0615 0
M  V30 1569 H 151.672 -0.410257 -0.612257 0
M  V30 1570 H 154.314 -1.55685 -1.08913 0
M  V30 1571 H 152.464 -1.53204 -3.57017 0
M  V30 1572 H 154.136 -3.89747 -2.46769 0
M  V30 1573 H 152.379 -3.70179 -2.26164 0
M  V30 1574 H 153.05 -3.92642 -3.8799 0
M  V30 1575 H 155.526 -2.01442 -3.64088 0
M  V30 1576 H 154.402 -2.26002 -5.00214 0
M  V30 1577 H 154.663 -0.640365 -4.37438 0
M  V30 1578 N 153.722 1.14298 -1.08507 0
M  V30 1579 C 154.947 1.8976 -0.837001 0
M  V30 1580 C 155.372 1.78097 0.605228 0
M  V30 1581 O 154.73 1.12188 1.4242 0
M  V30 1582 C 154.778 3.37685 -1.26495 0
M  V30 1583 O 153.882 4.10281 -0.417514 0
M  V30 1584 H 153.223 0.590365 -0.303917 0
M  V30 1585 H 155.753 1.44672 -1.44676 0
M  V30 1586 H 155.763 3.88501 -1.24625 0
M  V30 1587 H 154.438 3.45492 -2.31534 0
M  V30 1588 H 153.015 3.69536 -0.499722 0
M  V30 1589 N 155.201 0.870884 1.31352 0
M  V30 1590 C 156.134 0.271983 2.26573 0
M  V30 1591 C 157.112 -0.599385 1.51149 0
M  V30 1592 O 158.296 -0.552605 1.80218 0
M  V30 1593 C 155.423 -0.614801 3.33073 0
M  V30 1594 C 154.469 0.185342 4.26097 0
M  V30 1595 S 155.302 1.56444 5.12138 0
M  V30 1596 C 156.458 0.683807 6.22153 0
M  V30 1597 H 156.691 1.07916 2.77023 0
M  V30 1598 H 154.224 0.669459 1.39132 0
M  V30 1599 H 156.182 -1.12074 3.94905 0
M  V30 1600 H 154.843 -1.39593 2.81376 0
M  V30 1601 H 154.036 -0.490771 5.01605 0
M  V30 1602 H 153.638 0.623415 3.68768 0
M  V30 1603 H 155.93 -0.10521 6.77418 0
M  V30 1604 H 156.873 1.41004 6.93919 0
M  V30 1605 H 157.281 0.250952 5.63942 0
M  V30 1606 N 156.679 -1.44442 0.630414 0
M  V30 1607 C 157.642 -2.29107 -0.0652523 0
M  V30 1608 C 158.642 -1.41002 -0.772995 0
M  V30 1609 O 159.832 -1.62881 -0.617692 0
M  V30 1610 C 156.964 -3.22564 -1.10296 0
M  V30 1611 H 158.157 -2.92103 0.679401 0
M  V30 1612 H 155.71 -1.51343 0.390517 0
M  V30 1613 H 156.445 -2.64416 -1.87762 0
M  V30 1614 H 156.23 -3.87491 -0.59941 0
M  V30 1615 H 157.72 -3.86167 -1.5895 0
M  V30 1616 N 158.157 -0.370918 -1.53173 0
M  V30 1617 C 159.406 0.218249 -2.00516 0
M  V30 1618 C 159.719 1.49429 -1.26215 0
M  V30 1619 O 160.925 2.16239 -1.64174 0
M  V30 1620 C 159.381 0.43948 -3.57207 0
M  V30 1621 C 158.989 -0.822244 -4.4039 0
M  V30 1622 C 160.733 0.986012 -4.1289 0
M  V30 1623 C 158.64 -0.570304 -5.88644 0
M  V30 1624 H 157.57 0.0853333 -0.749156 0
M  V30 1625 H 160.221 -0.490483 -1.76823 0
M  V30 1626 H 158.603 1.20961 -3.77074 0
M  V30 1627 H 159.777 -1.59557 -4.32294 0
M  V30 1628 H 158.092 -1.29238 -3.95836 0
M  V30 1629 H 160.689 1.18991 -5.21292 0
M  V30 1630 H 161.032 1.94972 -3.6782 0
M  V30 1631 H 161.565 0.27592 -3.96842 0
M  V30 1632 H 158.304 -1.50449 -6.38001 0
M  V30 1633 H 157.824 0.164427 -5.99575 0
M  V30 1634 H 159.503 -0.19784 -6.46697 0
M  V30 1635 N 159.635 1.57281 -0.100228 0
M  V30 1636 C 161.046 1.81725 0.428107 0
M  V30 1637 C 161.397 1.01619 1.67833 0
M  V30 1638 O 160.522 0.247098 2.14985 0
M  V30 1639 C 161.117 3.29617 0.78347 0
M  V30 1640 C 159.676 3.54808 1.25653 0
M  V30 1641 C 158.823 2.76118 0.255752 0
M  V30 1642 H 161.774 1.55324 -0.325608 0
M  V30 1643 H 161.795 3.4322 1.64256 0
M  V30 1644 H 161.307 3.87893 -0.12665 0
M  V30 1645 H 159.408 3.01868 2.18418 0
M  V30 1646 H 159.521 4.63443 1.21482 0
M  V30 1647 H 157.885 2.43745 0.738956 0
M  V30 1648 H 158.668 3.37145 -0.647136 0
M  V30 1649 N 161.113 -0.173488 1.56642 0
M  V30 1650 C 162.046 -1.24353 1.91342 0
M  V30 1651 C 163.024 -1.4289 0.775965 0
M  V30 1652 O 164.208 -1.57932 1.02907 0
M  V30 1653 C 161.335 -2.60683 2.16245 0
M  V30 1654 C 160.381 -2.58894 3.38934 0
M  V30 1655 S 161.214 -2.0819 4.93373 0
M  V30 1656 C 162.37 -3.46302 5.21369 0
M  V30 1657 H 162.603 -0.947345 2.81803 0
M  V30 1658 H 160.136 -0.377958 1.49703 0
M  V30 1659 H 162.094 -3.39149 2.31275 0
M  V30 1660 H 160.755 -2.87502 1.26496 0
M  V30 1661 H 159.948 -3.59188 3.53553 0
M  V30 1662 H 159.55 -1.88522 3.2301 0
M  V30 1663 H 161.842 -4.42287 5.13214 0
M  V30 1664 H 162.785 -3.3656 6.23003 0
M  V30 1665 H 163.193 -3.42214 4.48943 0
M  V30 1666 N 162.591 -1.51276 -0.441967 0
M  V30 1667 C 163.521 -1.752 -1.54361 0
M  V30 1668 C 164.502 -0.601682 -1.59103 0
M  V30 1669 O 165.687 -0.843913 -1.74905 0
M  V30 1670 C 162.817 -1.87282 -2.92477 0
M  V30 1671 C 161.771 -3.02687 -3.02596 0
M  V30 1672 C 161.097 -2.99947 -4.42647 0
M  V30 1673 C 162.397 -4.4273 -2.77106 0
M  V30 1674 H 164.091 -2.67442 -1.34592 0
M  V30 1675 H 161.637 -1.28694 -0.646048 0
M  V30 1676 H 163.59 -2.02602 -3.695 0
M  V30 1677 H 162.314 -0.916844 -3.13467 0
M  V30 1678 H 160.973 -2.87065 -2.28012 0
M  V30 1679 H 160.621 -2.02136 -4.60597 0
M  V30 1680 H 160.321 -3.77439 -4.50348 0
M  V30 1681 H 161.845 -3.17354 -5.2165 0
M  V30 1682 H 163.259 -4.58727 -3.43864 0
M  V30 1683 H 161.656 -5.21893 -2.96222 0
M  V30 1684 H 162.726 -4.53087 -1.72744 0
M  V30 1685 N 164.069 0.697108 -1.41344 0
M  V30 1686 C 165.016 1.81106 -1.43071 0
M  V30 1687 C 165.986 1.63632 -0.285275 0
M  V30 1688 O 167.171 1.84504 -0.486091 0
M  V30 1689 C 164.311 3.18975 -1.31715 0
M  V30 1690 C 163.424 3.47892 -2.56115 0
M  V30 1691 C 162.559 4.75367 -2.37064 0
M  V30 1692 C 161.598 4.97247 -3.56948 0
M  V30 1693 N 160.735 6.15947 -3.36977 0
M  V30 1694 H 165.575 1.78965 -2.38276 0
M  V30 1695 H 163.112 0.873975 -1.18322 0
M  V30 1696 H 165.07 3.98615 -1.23133 0
M  V30 1697 H 163.7 3.20297 -0.401183 0
M  V30 1698 H 162.752 2.62669 -2.75153 0
M  V30 1699 H 164.064 3.59962 -3.45295 0
M  V30 1700 H 163.218 5.63059 -2.25941 0
M  V30 1701 H 161.957 4.65541 -1.45338 0
M  V30 1702 H 160.962 4.08004 -3.68527 0
M  V30 1703 H 162.187 5.08934 -4.49626 0
M  V30 1704 H 160.133 6.07336 -2.47949 0
M  V30 1705 H 160.05 6.28777 -4.19732 0
M  V30 1706 H 161.318 7.06377 -3.29623 0
M  V30 1707 N 165.547 1.27147 0.931209 0
M  V30 1708 C 166.494 1.09568 2.03134 0
M  V30 1709 C 167.464 -0.00222433 1.661 0
M  V30 1710 O 168.649 0.159439 1.90133 0
M  V30 1711 C 165.789 0.745231 3.36957 0
M  V30 1712 C 164.902 1.92041 3.86968 0
M  V30 1713 C 164.037 1.51216 5.09222 0
M  V30 1714 C 163.076 2.65504 5.5152 0
M  V30 1715 N 162.213 2.25291 6.64972 0
M  V30 1716 H 167.053 2.03708 2.17502 0
M  V30 1717 H 164.59 1.01411 1.06556 0
M  V30 1718 H 166.548 0.522878 4.1391 0
M  V30 1719 H 165.178 -0.159202 3.22407 0
M  V30 1720 H 164.23 2.25541 3.06326 0
M  V30 1721 H 165.542 2.77787 4.1429 0
M  V30 1722 H 164.696 1.25084 5.93666 0
M  V30 1723 H 163.435 0.625749 4.83669 0
M  V30 1724 H 162.44 2.92354 4.65628 0
M  V30 1725 H 163.665 3.54761 5.7907 0
M  V30 1726 H 161.611 1.39098 6.41083 0
M  V30 1727 H 161.528 3.04577 6.91931 0
M  V30 1728 H 162.796 2.02398 7.52765 0
M  V30 1729 N 167.025 -1.13721 1.09112 0
M  V30 1730 C 167.935 -2.22638 0.73957 0
M  V30 1731 C 168.951 -1.72091 -0.257068 0
M  V30 1732 O 170.127 -2.01155 -0.0992154 0
M  V30 1733 C 167.192 -3.46322 0.16191 0
M  V30 1734 C 166.253 -4.11775 1.21408 0
M  V30 1735 C 165.486 -5.29555 0.663891 0
M  V30 1736 O 165.709 -5.68077 -0.514274 0
M  V30 1737 O 164.643 -5.84973 1.41738 0
M  V30 1738 H 168.469 -2.55074 1.64836 0
M  V30 1739 H 166.054 -1.21791 0.865289 0
M  V30 1740 H 167.936 -4.21107 -0.157073 0
M  V30 1741 H 166.611 -3.15593 -0.719932 0
M  V30 1742 H 165.518 -3.3883 1.58571 0
M  V30 1743 H 166.851 -4.46627 2.06845 0
M  V30 1744 N 168.503 -0.877838 -1.30888 0
M  V30 1745 C 169.453 -0.310872 -2.25871 0
M  V30 1746 C 170.437 0.556596 -1.50966 0
M  V30 1747 O 171.629 0.402187 -1.7237 0
M  V30 1748 C 168.758 0.479821 -3.3993 0
M  V30 1749 C 167.844 -0.401333 -4.22197 0
M  V30 1750 N 168.235 -1.49848 -4.83093 0
M  V30 1751 C 166.533 -0.195167 -4.45573 0
M  V30 1752 C 167.234 -2.0425 -5.44662 0
M  V30 1753 N 166.21 -1.33843 -5.26865 0
M  V30 1754 H 170.012 -1.1493 -2.70496 0
M  V30 1755 H 167.526 -0.726458 -1.45246 0
M  V30 1756 H 169.523 0.902582 -4.07012 0
M  V30 1757 H 168.183 1.31577 -2.96846 0
M  V30 1758 H 169.194 -1.88137 -4.82519 0
M  V30 1759 H 165.871 0.604192 -4.13105 0
M  V30 1760 H 167.261 -2.96345 -6.03017 0
M  V30 1761 N 169.982 1.44106 -0.638065 0
M  V30 1762 C 170.912 2.33448 0.0494287 0
M  V30 1763 C 171.893 1.48606 0.827672 0
M  V30 1764 O 173.078 1.77308 0.792173 0
M  V30 1765 C 170.208 3.31771 1.02691 0
M  V30 1766 C 169.162 4.26485 0.359823 0
M  V30 1767 C 168.488 5.14729 1.44769 0
M  V30 1768 C 169.788 5.17056 -0.738296 0
M  V30 1769 H 171.482 2.91183 -0.696636 0
M  V30 1770 H 169.028 1.40014 -0.336456 0
M  V30 1771 H 170.981 3.93161 1.51666 0
M  V30 1772 H 169.705 2.7226 1.80395 0
M  V30 1773 H 168.364 3.66437 -0.10934 0
M  V30 1774 H 168.012 4.51566 2.21578 0
M  V30 1775 H 167.712 5.78913 1.00668 0
M  V30 1776 H 169.236 5.78991 1.93911 0
M  V30 1777 H 170.65 5.72342 -0.331354 0
M  V30 1778 H 169.047 5.89879 -1.10286 0
M  V30 1779 H 170.117 4.57652 -1.60258 0
M  V30 1780 N 171.46 0.379036 1.52974 0
M  V30 1781 C 172.709 -0.207612 2.00629 0
M  V30 1782 C 173.022 -1.48758 1.27006 0
M  V30 1783 O 174.228 -2.15365 1.65318 0
M  V30 1784 C 172.684 -0.42053 3.57435 0
M  V30 1785 C 172.292 0.845587 4.39948 0
M  V30 1786 C 174.036 -0.964102 4.13407 0
M  V30 1787 C 171.943 0.601513 5.88333 0
M  V30 1788 H 170.873 -0.0813591 0.749598 0
M  V30 1789 H 173.524 0.499853 1.76561 0
M  V30 1790 H 171.906 -1.18959 3.7771 0
M  V30 1791 H 173.08 1.61848 4.31442 0
M  V30 1792 H 171.395 1.31336 3.95145 0
M  V30 1793 H 173.992 -1.16225 5.21916 0
M  V30 1794 H 174.335 -1.93019 3.68849 0
M  V30 1795 H 174.868 -0.25487 3.96983 0
M  V30 1796 H 171.607 1.53831 6.37194 0
M  V30 1797 H 171.127 -0.132628 5.99653 0
M  V30 1798 H 172.806 0.232134 6.46583 0
M  V30 1799 N 172.938 -1.57226 0.108567 0
M  V30 1800 C 173.87 -2.11809 -0.875752 0
M  V30 1801 C 174.883 -1.05839 -1.23701 0
M  V30 1802 O 176.072 -1.33245 -1.18778 0
M  V30 1803 C 173.172 -2.59411 -2.18081 0
M  V30 1804 C 172.345 -3.89364 -1.99284 0
M  V30 1805 C 171.404 -4.22672 -3.13424 0
M  V30 1806 O 170.43 -4.91668 -2.86795 0
M  V30 1807 N 171.632 -3.79154 -4.3957 0
M  V30 1808 H 174.397 -2.9689 -0.409477 0
M  V30 1809 H 171.958 -1.61721 -0.076158 0
M  V30 1810 H 173.95 -2.7873 -2.93414 0
M  V30 1811 H 172.52 -1.79268 -2.5609 0
M  V30 1812 H 171.74 -3.79059 -1.08203 0
M  V30 1813 H 173.028 -4.74358 -1.84017 0
M  V30 1814 H 172.426 -3.23486 -4.64083 0
M  V30 1815 H 170.983 -4.03602 -5.11809 0
M  V30 1816 N 174.416 0.165178 -1.56732 0
M  V30 1817 C 175.663 0.880807 -1.8234 0
M  V30 1818 C 175.991 1.81977 -0.686621 0
M  V30 1819 O 175.246 1.92971 0.325697 0
M  V30 1820 C 175.545 1.70405 -3.1416 0
M  V30 1821 C 175.211 0.913475 -4.4155 0
M  V30 1822 C 173.873 0.695303 -4.7615 0
M  V30 1823 C 176.225 0.359349 -5.1996 0
M  V30 1824 C 173.553 -0.0879947 -5.86634 0
M  V30 1825 C 175.905 -0.410893 -6.31264 0
M  V30 1826 C 174.569 -0.639808 -6.64427 0
M  V30 1827 H 173.839 0.32231 -0.667231 0
M  V30 1828 H 176.486 0.145402 -1.90947 0
M  V30 1829 H 174.791 2.50903 -3.00923 0
M  V30 1830 H 176.488 2.26091 -3.31186 0
M  V30 1831 H 173.078 1.09357 -4.14414 0
M  V30 1832 H 177.262 0.515228 -4.93618 0
M  V30 1833 H 172.518 -0.27503 -6.10781 0
M  V30 1834 H 176.692 -0.847494 -6.91224 0
M  V30 1835 H 174.319 -1.24864 -7.49875 0
M  V30 1836 N 175.894 1.51508 0.433938 0
M  V30 1837 C 177.142 1.6402 1.18075 0
M  V30 1838 C 177.463 0.360328 1.91642 0
M  V30 1839 O 176.733 -0.623945 1.85698 0
M  V30 1840 H 175.313 0.6045 0.43885 0
M  V30 1841 H 177.975 1.88452 0.497178 0
M  V30 1842 H 177.071 2.46949 1.90847 0
M  V30 1843 N 177.372 -0.689602 1.41712 0
M  V30 1844 C 178.62 -1.4468 1.4111 0
M  V30 1845 C 178.941 -1.94986 0.0232196 0
M  V30 1846 O 178.211 -1.72097 -0.935913 0
M  V30 1847 H 176.791 -0.536847 0.519427 0
M  V30 1848 H 179.453 -0.815825 1.77004 0
M  V30 1849 H 178.549 -2.30706 2.10193 0
M  V30 1850 N 178.85 -1.27639 -0.924453 0
M  V30 1851 C 179.813 -1.10681 -2.00705 0
M  V30 1852 C 180.813 -0.0497823 -1.60723 0
M  V30 1853 O 182.003 -0.294654 -1.7169 0
M  V30 1854 C 179.135 -0.687164 -3.33902 0
M  V30 1855 H 180.328 -2.06817 -2.17179 0
M  V30 1856 H 177.881 -1.10473 -1.10569 0
M  V30 1857 H 178.616 0.275439 -3.23128 0
M  V30 1858 H 178.401 -1.45061 -3.6428 0
M  V30 1859 H 179.891 -0.590853 -4.13399 0
M  V30 1860 N 180.328 1.1314 -1.09713 0
M  V30 1861 C 181.238 2.22242 -0.751367 0
M  V30 1862 C 182.254 1.72224 0.247938 0
M  V30 1863 O 183.43 2.01205 0.0885463 0
M  V30 1864 C 180.495 3.46231 -0.180274 0
M  V30 1865 C 179.556 4.11125 -1.2359 0
M  V30 1866 C 178.789 5.29195 -0.691966 0
M  V30 1867 O 179.012 5.68342 0.48414 0
M  V30 1868 O 177.946 5.84214 -1.44838 0
M  V30 1869 H 181.772 2.54197 -1.66186 0
M  V30 1870 H 179.357 1.21331 -0.871735 0
M  V30 1871 H 181.239 4.21185 0.134739 0
M  V30 1872 H 179.914 3.1597 0.703185 0
M  V30 1873 H 178.821 3.37985 -1.60366 0
M  V30 1874 H 180.154 4.45524 -2.09211 0
M  V30 1875 N 181.806 0.884767 1.30421 0
M  V30 1876 C 183.217 0.553656 1.78302 0
M  V30 1877 C 183.568 -0.930153 1.7275 0
M  V30 1878 O 182.693 -1.72681 1.30423 0
M  V30 1879 C 183.288 0.998234 3.2376 0
M  V30 1880 C 181.847 0.71854 3.69478 0
M  V30 1881 C 180.994 1.18132 2.50879 0
M  V30 1882 H 183.945 1.06901 1.17294 0
M  V30 1883 H 183.966 0.327118 3.79091 0
M  V30 1884 H 183.478 2.0782 3.27769 0
M  V30 1885 H 181.579 -0.349444 3.70958 0
M  V30 1886 H 181.692 1.30595 4.60958 0
M  V30 1887 H 180.056 0.600669 2.47516 0
M  V30 1888 H 180.839 2.26902 2.57624 0
M  V30 1889 N 183.284 -1.43765 0.645699 0
M  V30 1890 C 184.53 -2.02197 0.156271 0
M  V30 1891 C 184.863 -1.50776 -1.22393 0
M  V30 1892 O 184.138 -0.697771 -1.81553 0
M  V30 1893 C 184.421 -3.59749 0.158872 0
M  V30 1894 C 184.274 -4.21419 1.57245 0
M  V30 1895 C 185.593 -4.37149 -0.50879 0
M  V30 1896 H 182.712 -0.734694 0.0582602 0
M  V30 1897 H 185.354 -1.71157 0.824951 0
M  V30 1898 H 183.504 -3.86325 -0.410525 0
M  V30 1899 H 185.176 -4.059 2.19186 0
M  V30 1900 H 183.419 -3.78356 2.122 0
M  V30 1901 H 184.09 -5.30482 1.52619 0
M  V30 1902 H 186.566 -4.16093 -0.024412 0
M  V30 1903 H 185.442 -5.4683 -0.476213 0
M  V30 1904 H 185.703 -4.12839 -1.58165 0
M  V30 1905 N 184.763 -0.387143 -1.52771 0
M  V30 1906 C 185.673 0.456442 -2.30117 0
M  V30 1907 C 186.689 1.07342 -1.36944 0
M  V30 1908 O 187.865 1.07971 -1.70013 0
M  V30 1909 C 184.93 1.56957 -3.09136 0
M  V30 1910 C 183.991 0.977916 -4.18014 0
M  V30 1911 C 183.224 2.038 -4.93256 0
M  V30 1912 O 183.447 3.25271 -4.68567 0
M  V30 1913 O 182.381 1.6565 -5.78657 0
M  V30 1914 H 186.207 -0.17359 -3.03203 0
M  V30 1915 H 183.792 -0.150919 -1.48636 0
M  V30 1916 H 185.674 2.21628 -3.58412 0
M  V30 1917 H 184.349 2.18461 -2.38865 0
M  V30 1918 H 183.256 0.294525 -3.72939 0
M  V30 1919 H 184.589 0.407128 -4.90513 0
M  V30 1920 N 186.241 1.57166 -0.116904 0
M  V30 1921 C 187.489 1.94737 0.540533 0
M  V30 1922 C 187.81 1.00096 1.67349 0
M  V30 1923 O 187.08 0.0568854 1.95817 0
M  V30 1924 H 185.66 0.718981 0.202669 0
M  V30 1925 H 188.322 1.94017 -0.185353 0
M  V30 1926 H 187.418 2.97719 0.936483 0
M  V30 1927 N 187.719 -0.156864 1.56817 0
M  V30 1928 C 188.666 -1.19394 1.97519 0
M  V30 1929 C 189.636 -1.4322 0.841265 0
M  V30 1930 O 190.821 -1.55719 1.10255 0
M  V30 1931 C 187.961 -2.52483 2.35258 0
M  V30 1932 C 187.074 -2.35914 3.61896 0
M  V30 1933 C 186.209 -3.61969 3.88782 0
M  V30 1934 C 185.248 -3.40395 5.08722 0
M  V30 1935 N 184.385 -4.58556 5.31668 0
M  V30 1936 H 189.225 -0.839845 2.85921 0
M  V30 1937 H 186.762 -0.403264 1.41464 0
M  V30 1938 H 188.72 -3.30071 2.55165 0
M  V30 1939 H 187.35 -2.85859 1.49949 0
M  V30 1940 H 186.402 -1.49429 3.49821 0
M  V30 1941 H 187.714 -2.15926 4.49641 0
M  V30 1942 H 186.868 -4.47989 4.09135 0
M  V30 1943 H 185.607 -3.84951 2.9944 0
M  V30 1944 H 184.612 -2.52763 4.88253 0
M  V30 1945 H 185.837 -3.18822 5.99608 0
M  V30 1946 H 183.783 -4.81729 4.45279 0
M  V30 1947 H 183.7 -4.41535 6.13664 0
M  V30 1948 H 184.968 -5.45817 5.5651 0
M  V30 1949 N 189.197 -1.51736 -0.425897 0
M  V30 1950 C 190.608 -1.5732 -1.00536 0
M  V30 1951 C 190.959 -0.403537 -1.92005 0
M  V30 1952 O 190.084 0.478256 -2.11049 0
M  V30 1953 C 190.679 -2.85119 -1.8301 0
M  V30 1954 C 189.238 -2.93236 -2.35987 0
M  V30 1955 C 188.385 -2.52098 -1.15508 0
M  V30 1956 H 191.336 -1.57348 -0.206739 0
M  V30 1957 H 191.357 -2.69526 -2.68581 0
M  V30 1958 H 190.869 -3.7023 -1.16411 0
M  V30 1959 H 188.97 -2.12581 -3.06007 0
M  V30 1960 H 189.083 -3.9713 -2.68001 0
M  V30 1961 H 187.447 -2.05558 -1.50393 0
M  V30 1962 H 188.23 -3.39565 -0.505014 0
M  V30 1963 N 190.675 0.682077 -1.42076 0
M  V30 1964 C 191.924 1.43786 -1.41451 0
M  V30 1965 C 192.237 1.95574 -0.0317074 0
M  V30 1966 O 193.443 2.71326 0.0971462 0
M  V30 1967 C 191.899 2.60071 -2.48779 0
M  V30 1968 C 191.507 2.15013 -3.93031 0
M  V30 1969 C 193.251 3.37626 -2.57311 0
M  V30 1970 C 191.158 3.28336 -4.91883 0
M  V30 1971 H 190.088 0.540143 -0.526082 0
M  V30 1972 H 192.739 0.739157 -1.67955 0
M  V30 1973 H 191.121 3.32275 -2.15429 0
M  V30 1974 H 192.295 1.5001 -4.35699 0
M  V30 1975 H 190.61 1.50416 -3.88284 0
M  V30 1976 H 193.207 4.22012 -3.28345 0
M  V30 1977 H 193.55 3.83727 -1.61429 0
M  V30 1978 H 194.083 2.72488 -2.89819 0
M  V30 1979 H 190.822 2.87234 -5.89217 0
M  V30 1980 H 190.342 3.92145 -4.53853 0
M  V30 1981 H 192.021 3.93913 -5.13265 0
M  V30 1982 N 192.153 1.28127 0.917671 0
M  V30 1983 C 193.116 1.11744 2.00115 0
M  V30 1984 C 194.116 0.0583052 1.60694 0
M  V30 1985 O 195.306 0.303755 1.71531 0
M  V30 1986 C 192.438 0.704862 3.33533 0
M  V30 1987 H 193.631 2.07966 2.16079 0
M  V30 1988 H 191.184 1.11058 1.09981 0
M  V30 1989 H 191.919 -0.258299 3.2327 0
M  V30 1990 H 191.704 1.4699 3.63505 0
M  V30 1991 H 193.194 0.612768 4.1308 0
M  V30 1992 N 193.631 -1.12557 1.10312 0
M  V30 1993 C 194.877 -1.84311 0.846011 0
M  V30 1994 C 195.21 -1.83805 -0.626859 0
M  V30 1995 O 194.485 -1.28268 -1.46211 0
M  V30 1996 C 194.768 -3.32048 1.39341 0
M  V30 1997 C 194.621 -3.41016 2.93305 0
M  V30 1998 C 195.94 -4.27764 1.03468 0
M  V30 1999 H 193.059 -0.669192 0.30879 0
M  V30 2000 H 195.701 -1.32057 1.36605 0
M  V30 2001 H 193.851 -3.76678 0.951087 0
M  V30 2002 H 195.523 -3.05031 3.46055 0
M  V30 2003 H 193.766 -2.81603 3.29973 0
M  V30 2004 H 194.437 -4.44948 3.26689 0
M  V30 2005 H 196.913 -3.91253 1.41633 0
M  V30 2006 H 195.789 -5.29549 1.44463 0
M  V30 2007 H 196.05 -4.42064 -0.0560404 0
M  V30 2008 N 195.109 -0.891671 -1.2995 0
M  V30 2009 C 196.339 -0.527893 -1.99742 0
M  V30 2010 C 196.747 0.88979 -1.66971 0
M  V30 2011 O 196.09 1.59766 -0.906667 0
M  V30 2012 C 196.152 -0.630804 -3.53922 0
M  V30 2013 C 195.816 -2.01401 -4.10228 0
M  V30 2014 C 196.813 -2.98422 -4.25724 0
M  V30 2015 C 194.498 -2.32121 -4.45449 0
M  V30 2016 C 196.492 -4.24293 -4.75662 0
M  V30 2017 C 194.179 -3.58237 -4.95086 0
M  V30 2018 C 195.177 -4.54137 -5.10146 0
M  V30 2019 O 194.865 -5.78014 -5.58708 0
M  V30 2020 H 194.597 -0.201953 -0.645129 0
M  V30 2021 H 197.151 -1.20076 -1.66646 0
M  V30 2022 H 195.381 0.0990616 -3.86573 0
M  V30 2023 H 197.07 -0.277338 -4.04951 0
M  V30 2024 H 197.836 -2.76001 -3.98809 0
M  V30 2025 H 193.715 -1.5824 -4.32991 0
M  V30 2026 H 197.259 -4.99153 -4.87332 0
M  V30 2027 H 193.156 -3.80491 -5.21437 0
M  V30 2028 H 193.924 -5.8049 -5.77039 0
M  V30 2029 N 196.587 1.43421 -0.653314 0
M  V30 2030 C 197.835 2.01414 -0.166415 0
M  V30 2031 C 198.156 1.51803 1.22397 0
M  V30 2032 O 197.426 0.730693 1.81763 0
M  V30 2033 H 196.006 0.744703 -0.0585319 0
M  V30 2034 H 198.668 1.75629 -0.845003 0
M  V30 2035 H 197.764 3.11734 -0.151111 0
M  V30 2036 N 198.065 0.39524 1.52563 0
M  V30 2037 C 199.028 -0.425001 2.25225 0
M  V30 2038 C 200.028 -0.985266 1.27079 0
M  V30 2039 O 201.218 -0.866332 1.5113 0
M  V30 2040 C 198.35 -1.59686 3.01186 0
M  V30 2041 H 199.543 0.211233 2.99155 0
M  V30 2042 H 197.096 0.147472 1.55603 0
M  V30 2043 H 197.831 -2.27035 2.31572 0
M  V30 2044 H 197.616 -1.20176 3.73229 0
M  V30 2045 H 199.106 -2.17743 3.5634 0
M  V30 2046 N 199.544 -1.57102 0.125237 0
M  V30 2047 C 200.792 -1.95021 -0.530198 0
M  V30 2048 C 201.113 -1.00982 -1.66816 0
M  V30 2049 O 200.383 -0.0672693 -1.95784 0
M  V30 2050 H 198.963 -0.720046 -0.198853 0
M  V30 2051 H 201.625 -1.93916 0.19564 0
M  V30 2052 H 200.721 -2.98211 -0.920681 0
M  V30 2053 N 201.022 0.148545 -1.56898 0
M  V30 2054 C 202.25 0.876389 -1.87422 0
M  V30 2055 C 202.665 1.74809 -0.713256 0
M  V30 2056 O 202.022 1.79725 0.317025 0
M  V30 2057 C 202.073 1.73438 -3.17178 0
M  V30 2058 O 201.794 0.897809 -4.28802 0
M  V30 2059 C 203.295 2.56993 -3.61205 0
M  V30 2060 H 200.515 0.253489 -0.621277 0
M  V30 2061 H 203.059 0.141798 -2.04008 0
M  V30 2062 H 201.214 2.42205 -3.0235 0
M  V30 2063 H 201.628 1.48672 -5.02988 0
M  V30 2064 H 203.102 3.12773 -4.54838 0
M  V30 2065 H 203.579 3.32958 -2.86419 0
M  V30 2066 H 204.185 1.9352 -3.78722 0
M  V30 2067 N 202.5 1.5196 0.417844 0
M  V30 2068 C 203.748 1.65263 1.16329 0
M  V30 2069 C 204.069 0.380634 1.91249 0
M  V30 2070 O 203.339 -0.604214 1.86349 0
M  V30 2071 H 201.919 0.60912 0.432414 0
M  V30 2072 H 204.581 1.88969 0.477162 0
M  V30 2073 H 203.677 2.4896 1.88217 0
M  V30 2074 N 203.978 -0.674533 1.42435 0
M  V30 2075 C 204.908 -1.80009 1.48724 0
M  V30 2076 C 205.889 -1.6659 0.343793 0
M  V30 2077 O 207.074 -1.86007 0.558137 0
M  V30 2078 C 204.204 -3.18306 1.38919 0
M  V30 2079 C 203.158 -3.46461 2.51294 0
M  V30 2080 C 202.484 -4.84335 2.26547 0
M  V30 2081 C 203.784 -3.43328 3.93603 0
M  V30 2082 H 205.478 -1.75004 2.42928 0
M  V30 2083 H 203.024 -0.840533 1.16923 0
M  V30 2084 H 204.977 -3.9678 1.41927 0
M  V30 2085 H 203.701 -3.2399 0.412094 0
M  V30 2086 H 202.36 -2.70348 2.47604 0
M  V30 2087 H 202.008 -4.86669 1.2713 0
M  V30 2088 H 201.708 -5.04136 3.01861 0
M  V30 2089 H 203.232 -5.65094 2.31304 0
M  V30 2090 H 204.646 -4.11772 3.98894 0
M  V30 2091 H 203.043 -3.74664 4.68771 0
M  V30 2092 H 204.113 -2.41897 4.20255 0
M  V30 2093 N 205.456 -1.28612 -0.910864 0
M  V30 2094 C 206.704 -1.15705 -1.65701 0
M  V30 2095 C 207.025 0.29416 -1.92769 0
M  V30 2096 O 206.295 1.20331 -1.54588 0
M  V30 2097 H 204.875 -0.425216 -0.614167 0
M  V30 2098 H 207.537 -1.61381 -1.0928 0
M  V30 2099 H 206.633 -1.6988 -2.61815 0
M  V30 2100 N 206.934 1.1197 -1.10907 0
M  V30 2101 C 208.18 1.8386 -0.855773 0
M  V30 2102 C 208.513 1.84134 0.617103 0
M  V30 2103 O 207.788 1.29041 1.45529 0
M  V30 2104 C 208.071 3.31305 -1.411 0
M  V30 2105 C 207.924 3.39456 -2.9511 0
M  V30 2106 C 209.243 4.2721 -1.05736 0
M  V30 2107 H 206.362 0.667545 -0.312334 0
M  V30 2108 H 209.004 1.31331 -1.37303 0
M  V30 2109 H 207.154 3.76169 -0.97105 0
M  V30 2110 H 208.826 3.03191 -3.47668 0
M  V30 2111 H 207.069 2.79849 -3.31462 0
M  V30 2112 H 207.74 4.43209 -3.29044 0
M  V30 2113 H 210.216 3.90497 -1.43706 0
M  V30 2114 H 209.092 5.28775 -1.47269 0
M  V30 2115 H 209.353 4.42088 0.0325958 0
M  V30 2116 N 208.412 0.89855 1.29475 0
M  V30 2117 C 209.375 0.380272 2.26023 0
M  V30 2118 C 210.375 -0.484891 1.53315 0
M  V30 2119 O 211.565 -0.290108 1.71767 0
M  V30 2120 C 208.697 -0.45651 3.3783 0
M  V30 2121 H 209.89 1.23295 2.73383 0
M  V30 2122 H 207.443 0.676589 1.40897 0
M  V30 2123 H 208.178 -1.32922 2.95808 0
M  V30 2124 H 207.963 0.163393 3.91759 0
M  V30 2125 H 209.453 -0.810466 4.0966 0
M  V30 2126 N 209.89 -1.43072 0.660911 0
M  V30 2127 C 210.84 -2.27948 -0.04847 0
M  V30 2128 C 211.824 -1.40325 -0.787246 0
M  V30 2129 O 213.016 -1.63893 -0.668446 0
M  V30 2130 C 210.145 -3.28143 -1.00881 0
M  V30 2131 C 209.231 -4.23252 -0.268108 0
M  V30 2132 N 209.622 -5.00656 0.719528 0
M  V30 2133 C 207.92 -4.43092 -0.508493 0
M  V30 2134 C 208.621 -5.70019 1.15988 0
M  V30 2135 N 207.597 -5.41364 0.492584 0
M  V30 2136 H 211.399 -2.85213 0.709279 0
M  V30 2137 H 208.913 -1.54869 0.488822 0
M  V30 2138 H 210.91 -3.87736 -1.53188 0
M  V30 2139 H 209.57 -2.7244 -1.76654 0
M  V30 2140 H 210.581 -5.06115 1.09855 0
M  V30 2141 H 207.258 -3.98449 -1.24679 0
M  V30 2142 H 208.648 -6.4214 1.97751 0
M  V30 2143 N 211.368 -0.403325 -1.52352 0
M  V30 2144 C 212.298 0.416205 -2.29761 0
M  V30 2145 C 213.279 1.05123 -1.33728 0
M  V30 2146 O 214.464 1.06134 -1.62632 0
M  V30 2147 C 211.594 1.53624 -3.11475 0
M  V30 2148 C 210.548 1.02653 -4.15507 0
M  V30 2149 C 209.874 2.23971 -4.85532 0
M  V30 2150 C 211.174 0.08463 -5.22231 0
M  V30 2151 H 212.868 -0.229701 -2.98518 0
M  V30 2152 H 210.414 -0.111913 -1.43564 0
M  V30 2153 H 212.367 2.1165 -3.64393 0
M  V30 2154 H 211.091 2.20994 -2.40477 0
M  V30 2155 H 209.75 0.46871 -3.63591 0
M  V30 2156 H 209.398 2.89883 -4.11068 0
M  V30 2157 H 209.098 1.90521 -5.55856 0
M  V30 2158 H 210.622 2.82614 -5.41259 0
M  V30 2159 H 212.036 0.573509 -5.70424 0
M  V30 2160 H 210.433 -0.160783 -5.99885 0
M  V30 2161 H 211.503 -0.86237 -4.7717 0
M  V30 2162 N 212.846 1.57033 -0.133567 0
M  V30 2163 C 214.092 1.95976 0.521649 0
M  V30 2164 C 214.425 1.01779 1.65393 0
M  V30 2165 O 213.7 0.0576581 1.94415 0
M  V30 2166 C 213.983 3.44738 1.04057 0
M  V30 2167 C 213.836 4.49711 -0.0892897 0
M  V30 2168 C 215.155 3.95682 1.92675 0
M  V30 2169 H 212.274 0.712579 0.188149 0
M  V30 2170 H 214.916 1.88813 -0.212076 0
M  V30 2171 H 213.066 3.50973 1.66583 0
M  V30 2172 H 214.738 4.55565 -0.725152 0
M  V30 2173 H 212.981 4.27261 -0.750378 0
M  V30 2174 H 213.652 5.51099 0.315284 0
M  V30 2175 H 216.128 3.91841 1.39998 0
M  V30 2176 H 215.004 5.00262 2.25897 0
M  V30 2177 H 215.265 3.37239 2.85872 0
M  V30 2178 N 214.325 -0.140222 1.56975 0
M  V30 2179 C 215.275 -1.17827 1.95194 0
M  V30 2180 C 216.259 -1.38195 0.824075 0
M  V30 2181 O 217.451 -1.39643 1.0876 0
M  V30 2182 C 214.58 -2.51024 2.34184 0
M  V30 2183 C 213.666 -2.3422 3.53556 0
M  V30 2184 N 214.057 -1.87185 4.69889 0
M  V30 2185 C 212.355 -2.64949 3.58773 0
M  V30 2186 C 213.056 -1.83586 5.5197 0
M  V30 2187 N 212.032 -2.2715 4.93866 0
M  V30 2188 H 215.834 -0.806817 2.82609 0
M  V30 2189 H 213.348 -0.348208 1.58623 0
M  V30 2190 H 215.345 -3.26074 2.59772 0
M  V30 2191 H 214.005 -2.88945 1.48124 0
M  V30 2192 H 215.016 -1.57048 4.93514 0
M  V30 2193 H 211.693 -3.067 2.8327 0
M  V30 2194 H 213.083 -1.48655 6.55249 0
M  V30 2195 N 215.803 -1.52179 -0.40978 0
M  V30 2196 C 217.049 -1.66453 -1.15851 0
M  V30 2197 C 217.382 -0.392972 -1.90182 0
M  V30 2198 O 216.657 0.608579 -1.84734 0
M  V30 2199 C 216.94 -2.88612 -2.15349 0
M  V30 2200 C 216.793 -4.25815 -1.44918 0
M  V30 2201 C 218.112 -3.06294 -3.16026 0
M  V30 2202 H 215.231 -0.60575 -0.419805 0
M  V30 2203 H 217.873 -1.84732 -0.444314 0
M  V30 2204 H 216.023 -2.73158 -2.76255 0
M  V30 2205 H 217.695 -4.52995 -0.871365 0
M  V30 2206 H 215.938 -4.27247 -0.751159 0
M  V30 2207 H 216.609 -5.07337 -2.17516 0
M  V30 2208 H 219.085 -3.20641 -2.65195 0
M  V30 2209 H 217.961 -3.93283 -3.8291 0
M  V30 2210 H 218.222 -2.19579 -3.83715 0
M  V30 2211 N 217.281 0.66697 -1.42791 0
M  V30 2212 C 218.558 1.4234 -1.34159 0
M  V30 2213 C 218.938 2.11093 0.0172729 0
M  V30 2214 O 218.286 2.03808 1.03318 0
M  V30 2215 C 218.496 2.41942 -2.51526 0
M  V30 2216 C 219.844 3.06353 -2.93995 0
M  V30 2217 O 220.868 2.52269 -2.51473 0
M  V30 2218 O 219.727 4.04376 -3.67617 0
M  V30 2219 H 216.821 0.635277 -0.529483 0
M  V30 2220 H 219.367 0.695034 -1.54814 0
M  V30 2221 H 218.139 1.89991 -3.42081 0
M  V30 2222 H 217.762 3.22249 -2.32898 0
M  V30 2223 N 218.759 1.29093 0.90403 0
M  V30 2224 C 219.706 1.13853 2.00764 0
M  V30 2225 C 220.676 0.0330084 1.66067 0
M  V30 2226 O 221.861 0.199733 1.89752 0
M  V30 2227 C 219.001 0.816537 3.35301 0
M  V30 2228 C 218.114 2.00206 3.82807 0
M  V30 2229 C 217.249 1.61983 5.059 0
M  V30 2230 C 216.288 2.77143 5.45764 0
M  V30 2231 N 215.425 2.39346 6.60044 0
M  V30 2232 H 220.265 2.08276 2.13132 0
M  V30 2233 H 217.802 1.03648 1.04381 0
M  V30 2234 H 219.76 0.610557 4.12708 0
M  V30 2235 H 218.39 -0.090779 3.22672 0
M  V30 2236 H 217.442 2.31988 3.01473 0
M  V30 2237 H 218.754 2.86512 4.08304 0
M  V30 2238 H 217.908 1.37649 5.90879 0
M  V30 2239 H 216.647 0.728202 4.82233 0
M  V30 2240 H 215.652 3.02165 4.59322 0
M  V30 2241 H 216.877 3.66964 5.71414 0
M  V30 2242 H 214.823 1.52665 6.37989 0
M  V30 2243 H 214.74 3.19185 6.85315 0
M  V30 2244 H 216.008 2.1832 7.48303 0
M  V30 2245 N 220.237 -1.11381 1.11499 0
M  V30 2246 C 221.653 -1.35143 0.849031 0
M  V30 2247 C 221.853 -1.94515 -0.525938 0
M  V30 2248 O 220.909 -2.1785 -1.27662 0
M  V30 2249 C 222.222 -2.28249 1.95762 0
M  V30 2250 C 223.77 -2.41812 1.98736 0
M  V30 2251 C 224.245 -3.3824 3.088 0
M  V30 2252 N 225.736 -3.45803 3.08179 0
M  V30 2253 C 226.471 -4.20358 3.89982 0
M  V30 2254 N 225.967 -4.97884 4.8175 0
M  V30 2255 N 227.76 -4.15877 3.78157 0
M  V30 2256 H 219.911 -0.712062 2.00109 0
M  V30 2257 H 222.174 -0.376025 0.870235 0
M  V30 2258 H 221.88 -1.91817 2.94787 0
M  V30 2259 H 221.754 -3.28473 1.85433 0
M  V30 2260 H 224.141 -2.77518 1.00338 0
M  V30 2261 H 224.222 -1.41437 2.13141 0
M  V30 2262 H 223.866 -3.03261 4.07425 0
M  V30 2263 H 223.796 -4.38471 2.91635 0
M  V30 2264 H 226.287 -2.90506 2.41691 0
M  V30 2265 H 226.6 -5.52142 5.40702 0
M  V30 2266 H 224.945 -4.97043 4.85771 0
M  V30 2267 H 228.136 -3.544 3.05808 0
M  V30 2268 H 228.309 -4.73723 4.42143 0
M  V30 2269 N 221.715 -0.905404 -1.28997 0
M  V30 2270 C 222.961 -0.544465 -1.95977 0
M  V30 2271 C 223.316 0.90041 -1.70031 0
M  V30 2272 O 222.609 1.63064 -1.00601 0
M  V30 2273 C 222.803 -0.779906 -3.48787 0
M  V30 2274 C 222.632 -2.24612 -3.89589 0
M  V30 2275 C 221.402 -2.89464 -4.14172 0
M  V30 2276 C 223.6 -3.22182 -4.00878 0
M  V30 2277 N 221.582 -4.26469 -4.41585 0
M  V30 2278 C 222.953 -4.44323 -4.32409 0
M  V30 2279 C 225.008 -3.17694 -3.83373 0
M  V30 2280 C 223.711 -5.62546 -4.48258 0
M  V30 2281 C 225.737 -4.35208 -4.00435 0
M  V30 2282 C 225.099 -5.56121 -4.3233 0
M  V30 2283 H 221.198 -0.248948 -0.741316 0
M  V30 2284 H 223.782 -1.1674 -1.5582 0
M  V30 2285 H 221.953 -0.186308 -3.87953 0
M  V30 2286 H 223.685 -0.383833 -4.02876 0
M  V30 2287 H 220.44 -2.40232 -4.08149 0
M  V30 2288 H 220.864 -4.97283 -4.5939 0
M  V30 2289 H 225.506 -2.25297 -3.57773 0
M  V30 2290 H 223.224 -6.55429 -4.72692 0
M  V30 2291 H 226.81 -4.33228 -3.88336 0
M  V30 2292 H 225.69 -6.45537 -4.45255 0
M  V30 2293 N 223.193 1.4272 -0.668489 0
M  V30 2294 C 224.439 2.01923 -0.188419 0
M  V30 2295 C 224.772 1.52704 1.19979 0
M  V30 2296 O 224.047 0.726566 1.8042 0
M  V30 2297 C 224.33 3.59451 -0.216085 0
M  V30 2298 C 224.183 4.18864 -1.6393 0
M  V30 2299 C 225.502 4.37903 0.439179 0
M  V30 2300 H 222.621 0.733674 -0.0699412 0
M  V30 2301 H 225.263 1.69822 -0.852076 0
M  V30 2302 H 223.413 3.86929 0.349012 0
M  V30 2303 H 225.085 4.02362 -2.25616 0
M  V30 2304 H 223.328 3.74933 -2.18193 0
M  V30 2305 H 223.999 5.27987 -1.61039 0
M  V30 2306 H 226.475 4.16079 -0.0417878 0
M  V30 2307 H 225.351 5.47519 0.389157 0
M  V30 2308 H 225.612 4.15303 1.51577 0
M  V30 2309 N 224.671 0.411399 1.52136 0
M  V30 2310 C 225.896 -0.165538 2.06738 0
M  V30 2311 C 226.321 -1.379 1.27926 0
M  V30 2312 O 225.679 -1.78628 0.310114 0
M  V30 2313 C 225.727 -0.492124 3.57226 0
M  V30 2314 O 224.831 -1.58276 3.80818 0
M  V30 2315 H 224.172 -0.0132132 0.663869 0
M  V30 2316 H 226.702 0.585253 1.96051 0
M  V30 2317 H 226.712 -0.750104 4.01045 0
M  V30 2318 H 225.387 0.394922 4.14021 0
M  V30 2319 H 223.964 -1.31677 3.48877 0
M  V30 2320 N 226.149 -1.5696 0.141893 0
M  V30 2321 C 227.079 -2.19516 -0.795936 0
M  V30 2322 C 228.06 -1.14187 -1.26077 0
M  V30 2323 O 229.245 -1.42511 -1.31925 0
M  V30 2324 C 226.375 -2.81272 -2.03723 0
M  V30 2325 C 225.329 -3.92384 -1.70936 0
M  V30 2326 C 224.655 -4.41052 -3.02287 0
M  V30 2327 C 225.955 -5.13403 -0.959954 0
M  V30 2328 H 227.649 -2.98138 -0.274596 0
M  V30 2329 H 225.195 -1.43406 -0.130636 0
M  V30 2330 H 227.148 -3.237 -2.69808 0
M  V30 2331 H 225.872 -1.99973 -2.58221 0
M  V30 2332 H 224.531 -3.50566 -1.07232 0
M  V30 2333 H 224.179 -3.56582 -3.54765 0
M  V30 2334 H 223.879 -5.15993 -2.81114 0
M  V30 2335 H 225.403 -4.86146 -3.69451 0
M  V30 2336 H 226.817 -5.52706 -1.52279 0
M  V30 2337 H 225.214 -5.94073 -0.848357 0
M  V30 2338 H 226.284 -4.84875 0.0492434 0
M  V30 2339 N 227.627 0.131896 -1.57047 0
M  V30 2340 C 229.038 0.690407 -1.73465 0
M  V30 2341 C 229.389 1.8094 -0.758629 0
M  V30 2342 O 228.514 2.16282 0.0713813 0
M  V30 2343 C 229.109 1.25916 -3.14532 0
M  V30 2344 C 227.668 1.76409 -3.32501 0
M  V30 2345 C 226.815 0.658579 -2.69366 0
M  V30 2346 H 229.766 -0.0939144 -1.58422 0
M  V30 2347 H 229.787 2.12892 -3.15369 0
M  V30 2348 H 229.299 0.444515 -3.85546 0
M  V30 2349 H 227.4 2.60391 -2.66509 0
M  V30 2350 H 227.513 1.88241 -4.4057 0
M  V30 2351 H 225.877 1.08899 -2.30246 0
M  V30 2352 H 226.66 -0.14487 -3.42994 0
M  V30 2353 N 229.106 1.52395 0.401703 0
M  V30 2354 C 230.354 1.66488 1.14569 0
M  V30 2355 C 230.675 0.400897 1.90835 0
M  V30 2356 O 229.945 -0.584415 1.8698 0
M  V30 2357 H 228.525 0.613672 0.425929 0
M  V30 2358 H 231.187 1.89464 0.457093 0
M  V30 2359 H 230.283 2.50942 1.85566 0
M  V30 2360 N 230.584 -0.659388 1.43143 0
M  V30 2361 C 231.494 -1.80167 1.50256 0
M  V30 2362 C 232.51 -1.69571 0.390106 0
M  V30 2363 O 233.686 -1.90849 0.643319 0
M  V30 2364 C 230.751 -3.16409 1.41725 0
M  V30 2365 C 229.812 -3.38848 2.63591 0
M  V30 2366 C 229.045 -4.68591 2.55458 0
M  V30 2367 O 229.268 -5.47532 1.59891 0
M  V30 2368 O 228.202 -4.92614 3.45854 0
M  V30 2369 H 232.028 -1.77121 2.46702 0
M  V30 2370 H 229.613 -0.817092 1.25076 0
M  V30 2371 H 231.495 -3.9768 1.39387 0
M  V30 2372 H 230.17 -3.20059 0.484118 0
M  V30 2373 H 229.077 -2.57366 2.71502 0
M  V30 2374 H 230.41 -3.4004 3.55856 0
M  V30 2375 N 232.062 -1.29571 -0.897171 0
M  V30 2376 C 233.31 -1.17456 -1.64464 0
M  V30 2377 C 233.631 0.273698 -1.9307 0
M  V30 2378 O 232.901 1.18684 -1.55855 0
M  V30 2379 H 231.481 -0.431706 -0.609622 0
M  V30 2380 H 234.143 -1.62531 -1.07562 0
M  V30 2381 H 233.239 -1.72648 -2.59998 0
M  V30 2382 N 233.54 1.10788 -1.12088 0
M  V30 2383 C 234.788 1.8231 -0.872205 0
M  V30 2384 C 235.109 1.85419 0.603709 0
M  V30 2385 O 234.379 1.32963 1.43867 0
M  V30 2386 H 232.959 0.675137 -0.319686 0
M  V30 2387 H 235.621 1.34068 -1.41463 0
M  V30 2388 H 234.717 2.85955 -1.25045 0
M  V30 2389 N 235.018 0.912232 1.28515 0
M  V30 2390 C 235.968 0.370649 2.24967 0
M  V30 2391 C 236.952 -0.516375 1.52389 0
M  V30 2392 O 238.144 -0.356345 1.73376 0
M  V30 2393 C 235.273 -0.389526 3.41083 0
M  V30 2394 C 234.359 0.51313 4.20984 0
M  V30 2395 N 234.75 1.62604 4.78951 0
M  V30 2396 C 233.048 0.313235 4.44899 0
M  V30 2397 C 233.749 2.18619 5.39055 0
M  V30 2398 N 232.725 1.47765 5.23132 0
M  V30 2399 H 236.527 1.22061 2.67354 0
M  V30 2400 H 234.041 0.764712 1.43269 0
M  V30 2401 H 236.038 -0.794353 4.09262 0
M  V30 2402 H 234.698 -1.2366 3.0023 0
M  V30 2403 H 235.709 2.00864 4.77362 0
M  V30 2404 H 232.386 -0.494452 4.14562 0
M  V30 2405 H 233.776 3.12228 5.94948 0
M  V30 2406 N 236.496 -1.42363 0.676048 0
M  V30 2407 C 237.742 -2.0182 0.199125 0
M  V30 2408 C 238.075 -1.53339 -1.19168 0
M  V30 2409 O 237.35 -0.736124 -1.80032 0
M  V30 2410 C 237.633 -3.59331 0.235144 0
M  V30 2411 C 237.486 -4.17989 1.66149 0
M  V30 2412 C 238.805 -4.3813 -0.41595 0
M  V30 2413 H 235.924 -0.733293 0.0738311 0
M  V30 2414 H 238.566 -1.69368 0.86107 0
M  V30 2415 H 236.716 -3.87109 -0.328487 0
M  V30 2416 H 238.388 -4.0116 2.27747 0
M  V30 2417 H 236.631 -3.7377 2.20178 0
M  V30 2418 H 237.302 -5.27126 1.63837 0
M  V30 2419 H 239.778 -4.16051 0.0638529 0
M  V30 2420 H 238.654 -5.47717 -0.360115 0
M  V30 2421 H 238.915 -4.16101 -1.49373 0
M  V30 2422 N 237.974 -0.419461 -1.51915 0
M  V30 2423 C 239.251 0.211999 -1.94448 0
M  V30 2424 C 239.631 1.61703 -1.35703 0
M  V30 2425 O 238.979 2.22102 -0.536931 0
M  V30 2426 C 239.189 0.207872 -3.4838 0
M  V30 2427 C 240.537 0.422192 -4.22496 0
M  V30 2428 O 241.561 0.286778 -3.55044 0
M  V30 2429 O 240.42 0.690009 -5.42126 0
M  V30 2430 H 237.514 0.139586 -0.815135 0
M  V30 2431 H 240.06 -0.476151 -1.62883 0
M  V30 2432 H 238.832 -0.775102 -3.83546 0
M  V30 2433 H 238.455 0.939688 -3.86336 0
M  V30 2434 N 239.452 1.56882 -0.150215 0
M  V30 2435 C 240.699 1.96228 0.500093 0
M  V30 2436 C 241.027 1.03522 1.64661 0
M  V30 2437 O 240.282 0.0650683 1.95592 0
M  V30 2438 C 240.581 3.41801 1.04437 0
M  V30 2439 C 240.247 4.50897 0.0159671 0
M  V30 2440 C 238.909 4.8046 -0.266731 0
M  V30 2441 C 241.261 5.16703 -0.683192 0
M  V30 2442 C 238.589 5.73135 -1.25434 0
M  V30 2443 C 240.941 6.10441 -1.65964 0
M  V30 2444 C 239.605 6.38382 -1.95 0
M  V30 2445 H 238.875 0.718048 0.182997 0
M  V30 2446 H 241.522 1.90019 -0.237724 0
M  V30 2447 H 239.827 3.44857 1.85959 0
M  V30 2448 H 241.524 3.69573 1.55618 0
M  V30 2449 H 238.114 4.27891 0.246485 0
M  V30 2450 H 242.298 4.93993 -0.477983 0
M  V30 2451 H 237.554 5.93074 -1.48571 0
M  V30 2452 H 241.728 6.60507 -2.20689 0
M  V30 2453 H 239.355 7.09996 -2.71679 0
M  V30 2454 N 240.93 -0.123565 1.57115 0
M  V30 2455 C 241.893 -1.13583 1.99076 0
M  V30 2456 C 242.893 -1.34564 0.880296 0
M  V30 2457 O 244.083 -1.31158 1.14644 0
M  V30 2458 C 241.215 -2.49128 2.32698 0
M  V30 2459 H 242.408 -0.775287 2.89706 0
M  V30 2460 H 239.961 -0.36771 1.51913 0
M  V30 2461 H 240.696 -2.90111 1.44934 0
M  V30 2462 H 240.481 -2.35255 3.13684 0
M  V30 2463 H 241.971 -3.2199 2.65918 0
M  V30 2464 N 242.408 -1.52605 -0.393616 0
M  V30 2465 C 243.819 -1.59417 -0.971761 0
M  V30 2466 C 244.17 -0.444173 -1.91106 0
M  V30 2467 O 243.295 0.433382 -2.12016 0
M  V30 2468 C 243.89 -2.88936 -1.76921 0
M  V30 2469 C 242.449 -2.98175 -2.29714 0
M  V30 2470 C 241.596 -2.54491 -1.10135 0
M  V30 2471 H 244.547 -1.57751 -0.173317 0
M  V30 2472 H 244.568 -2.75163 -2.62804 0
M  V30 2473 H 244.08 -3.72616 -1.08532 0
M  V30 2474 H 242.181 -2.19024 -3.01429 0
M  V30 2475 H 242.294 -4.02726 -2.59517 0
M  V30 2476 H 240.658 -2.08702 -1.45999 0
M  V30 2477 H 241.441 -3.4056 -0.432874 0
M  V30 2478 N 243.887 0.651787 -1.4349 0
M  V30 2479 C 244.835 1.78586 -1.49029 0
M  V30 2480 C 245.829 1.65448 -0.363767 0
M  V30 2481 O 247.035 1.71777 -0.537821 0
M  V30 2482 H 243.41 0.589236 -0.467231 0
M  V30 2483 H 245.381 1.71035 -2.44519 0
M  V30 2484 C 244.13 3.16851 -1.43181 0
M  V30 2485 H 243.453 3.27598 -2.29171 0
M  V30 2486 H 244.893 3.96156 -1.51118 0
M  V30 2487 C 243.352 3.36568 -0.149616 0
M  V30 2488 O 243.882 3.93885 0.788509 0
M  V30 2489 N 242.088 2.90539 -0.0593484 0
M  V30 2490 H 241.635 2.4408 -0.823575 0
M  V30 2491 H 241.593 3.04108 0.797853 0
M  V30 2492 N 245.365 1.30045 0.890287 0
M  V30 2493 C 246.59 1.21598 1.68014 0
M  V30 2494 C 247.015 -0.218678 1.86825 0
M  V30 2495 O 246.373 -1.15756 1.39536 0
M  V30 2496 C 246.421 1.94434 3.03691 0
M  V30 2497 O 245.525 1.2678 3.92429 0
M  V30 2498 H 244.866 0.420856 0.513592 0
M  V30 2499 H 247.396 1.71775 1.11151 0
M  V30 2500 H 247.406 2.03251 3.5377 0
M  V30 2501 H 246.081 2.98777 2.89318 0
M  V30 2502 H 244.658 1.26282 3.50866 0
M  V30 2503 N 246.843 -1.10192 1.12674 0
M  V30 2504 C 247.753 -2.20172 0.810026 0
M  V30 2505 C 248.769 -1.72821 -0.202188 0
M  V30 2506 O 249.945 -2.01369 -0.0351691 0
M  V30 2507 C 247.01 -3.45631 0.272007 0
M  V30 2508 C 246.071 -4.07704 1.34447 0
M  V30 2509 C 245.304 -5.27175 0.832029 0
M  V30 2510 O 245.527 -5.69425 -0.333284 0
M  V30 2511 O 244.461 -5.80168 1.60277 0
M  V30 2512 H 248.287 -2.49701 1.72867 0
M  V30 2513 H 245.872 -1.18977 0.903597 0
M  V30 2514 H 247.754 -4.21394 -0.0230219 0
M  V30 2515 H 246.429 -3.17723 -0.619164 0
M  V30 2516 H 245.336 -3.33614 1.6927 0
M  V30 2517 H 246.669 -4.3982 2.2095 0
M  V30 2518 N 248.321 -0.919034 -1.28029 0
M  V30 2519 C 249.231 -0.416756 -2.30869 0
M  V30 2520 C 250.247 0.498235 -1.66714 0
M  V30 2521 O 251.423 0.383144 -1.97722 0
M  V30 2522 C 248.488 0.330274 -3.45123 0
M  V30 2523 C 247.549 -0.618578 -4.2482 0
M  V30 2524 C 246.782 0.0928959 -5.33619 0
M  V30 2525 O 247.005 1.31375 -5.55065 0
M  V30 2526 O 245.939 -0.574499 -5.99152 0
M  V30 2527 H 249.765 -1.27043 -2.75851 0
M  V30 2528 H 247.35 -0.684052 -1.3282 0
M  V30 2529 H 249.232 0.751972 -4.14636 0
M  V30 2530 H 247.907 1.1597 -3.02213 0
M  V30 2531 H 246.814 -1.08978 -3.57875 0
M  V30 2532 H 248.147 -1.41497 -4.71423 0
M  V30 2533 N 249.799 1.42003 -0.683588 0
M  V30 2534 C 250.709 2.34597 -0.0109075 0
M  V30 2535 C 251.725 1.55576 0.779245 0
M  V30 2536 O 252.901 1.88107 0.719555 0
M  V30 2537 C 249.966 3.34199 0.922588 0
M  V30 2538 C 249.027 4.29115 0.125984 0
M  V30 2539 C 248.26 5.23959 1.01502 0
M  V30 2540 O 248.483 5.23952 2.25456 0
M  V30 2541 O 247.417 6.00053 0.47111 0
M  V30 2542 H 251.243 2.93675 -0.773853 0
M  V30 2543 H 248.828 1.42654 -0.443861 0
M  V30 2544 H 250.71 3.95365 1.45823 0
M  V30 2545 H 249.385 2.77582 1.66523 0
M  V30 2546 H 248.292 3.71335 -0.453969 0
M  V30 2547 H 249.625 4.88798 -0.577736 0
M  V30 2548 N 251.277 0.427512 1.51691 0
M  V30 2549 C 252.24 -0.377132 2.26076 0
M  V30 2550 C 253.24 -0.958089 1.29141 0
M  V30 2551 O 254.43 -0.83408 1.52934 0
M  V30 2552 C 251.562 -1.53262 3.04506 0
M  V30 2553 H 252.755 0.27464 2.9864 0
M  V30 2554 H 250.308 0.180445 1.55255 0
M  V30 2555 H 251.043 -2.22072 2.36335 0
M  V30 2556 H 250.828 -1.12232 3.75694 0
M  V30 2557 H 252.318 -2.10135 3.60878 0
M  V30 2558 N 252.755 -1.56801 0.158532 0
M  V30 2559 C 254.004 -1.95665 -0.489702 0
M  V30 2560 C 254.317 -1.04654 -1.65248 0
M  V30 2561 O 255.523 -1.33146 -2.3661 0
M  V30 2562 C 253.979 -3.47874 -0.922582 0
M  V30 2563 C 253.587 -4.47489 0.213893 0
M  V30 2564 C 255.331 -3.95583 -1.53996 0
M  V30 2565 C 253.238 -5.90921 -0.237903 0
M  V30 2566 H 252.168 -0.730516 -0.186716 0
M  V30 2567 H 254.819 -1.81861 0.244722 0
M  V30 2568 H 253.201 -3.57051 -1.71261 0
M  V30 2569 H 254.375 -4.50017 0.991036 0
M  V30 2570 H 252.69 -4.09764 0.740407 0
M  V30 2571 H 255.287 -5.0019 -1.8898 0
M  V30 2572 H 255.63 -3.37789 -2.43319 0
M  V30 2573 H 256.163 -3.8937 -0.814611 0
M  V30 2574 H 252.902 -6.52559 0.620236 0
M  V30 2575 H 252.422 -5.91729 -0.980676 0
M  V30 2576 H 254.101 -6.43352 -0.686067 0
M  V30 2577 N 254.233 0.115231 -1.57178 0
M  V30 2578 C 255.482 0.820945 -1.84237 0
M  V30 2579 C 255.795 1.80866 -0.744761 0
M  V30 2580 O 257.001 2.56083 -0.901871 0
M  V30 2581 C 255.457 1.51072 -3.26658 0
M  V30 2582 C 255.065 0.563795 -4.44438 0
M  V30 2583 C 256.809 2.20134 -3.62962 0
M  V30 2584 C 254.716 1.25701 -5.77887 0
M  V30 2585 H 253.646 0.310328 -0.687177 0
M  V30 2586 H 256.297 0.0737134 -1.83352 0
M  V30 2587 H 254.679 2.30471 -3.22024 0
M  V30 2588 H 255.853 -0.197247 -4.60378 0
M  V30 2589 H 254.168 -0.0200638 -4.16395 0
M  V30 2590 H 256.765 2.72696 -4.59936 0
M  V30 2591 H 257.108 2.98107 -2.90582 0
M  V30 2592 H 257.641 1.47619 -3.69396 0
M  V30 2593 H 254.38 0.518493 -6.53446 0
M  V30 2594 H 253.9 1.98997 -5.65827 0
M  V30 2595 H 255.579 1.78915 -6.2177 0
M  V30 2596 N 255.711 1.52812 0.385517 0
M  V30 2597 C 256.641 1.80808 1.47752 0
M  V30 2598 C 257.622 0.660318 1.5676 0
M  V30 2599 O 258.807 0.908246 1.71652 0
M  V30 2600 C 255.937 1.98008 2.85324 0
M  V30 2601 C 254.891 3.13709 2.91154 0
M  V30 2602 C 254.217 3.16169 4.31209 0
M  V30 2603 C 255.517 4.52709 2.60483 0
M  V30 2604 H 257.211 2.72253 1.24573 0
M  V30 2605 H 254.757 1.31003 0.597839 0
M  V30 2606 H 256.71 2.16176 3.61726 0
M  V30 2607 H 255.434 1.03255 3.09848 0
M  V30 2608 H 254.093 2.95329 2.17201 0
M  V30 2609 H 253.741 2.19092 4.52778 0
M  V30 2610 H 253.441 3.93894 4.36029 0
M  V30 2611 H 254.965 3.36496 5.09512 0
M  V30 2612 H 256.379 4.71173 3.26602 0
M  V30 2613 H 254.776 5.32528 2.76648 0
M  V30 2614 H 255.846 4.59186 1.55809 0
M  V30 2615 N 257.189 -0.644168 1.43834 0
M  V30 2616 C 258.099 -1.78563 1.52159 0
M  V30 2617 C 259.115 -1.69147 0.408069 0
M  V30 2618 O 260.291 -1.90156 0.663524 0
M  V30 2619 C 257.356 -3.14888 1.45073 0
M  V30 2620 C 256.417 -3.36034 2.6717 0
M  V30 2621 C 255.65 -4.65855 2.60413 0
M  V30 2622 O 255.873 -5.45805 1.65689 0
M  V30 2623 O 254.807 -4.88918 3.5106 0
M  V30 2624 H 258.633 -1.74494 2.48567 0
M  V30 2625 H 256.218 -0.80378 1.25935 0
M  V30 2626 H 258.1 -3.96179 1.43597 0
M  V30 2627 H 256.775 -3.19528 0.518037 0
M  V30 2628 H 255.682 -2.54472 2.74217 0
M  V30 2629 H 257.015 -3.36247 3.59442 0
M  V30 2630 N 258.668 -1.30515 -0.883378 0
M  V30 2631 C 259.917 -1.18795 -1.63005 0
M  V30 2632 C 260.23 0.255923 -1.93919 0
M  V30 2633 O 261.436 0.494654 -2.66956 0
M  V30 2634 C 259.892 -2.07878 -2.93794 0
M  V30 2635 C 259.5 -3.57184 -2.70414 0
M  V30 2636 C 261.244 -2.04924 -3.71761 0
M  V30 2637 C 259.151 -4.38317 -3.97029 0
M  V30 2638 H 258.081 -0.441031 -0.611562 0
M  V30 2639 H 260.732 -1.55275 -0.977854 0
M  V30 2640 H 259.114 -1.64283 -3.60315 0
M  V30 2641 H 260.288 -4.08937 -2.12384 0
M  V30 2642 H 258.603 -3.61976 -2.0582 0
M  V30 2643 H 261.2 -2.62792 -4.65665 0
M  V30 2644 H 261.543 -1.0331 -4.03277 0
M  V30 2645 H 262.076 -2.46649 -3.12104 0
M  V30 2646 H 258.815 -5.40632 -3.70671 0
M  V30 2647 H 258.335 -3.91326 -4.54559 0
M  V30 2648 H 260.014 -4.49834 -4.65036 0
M  V30 2649 N 260.146 1.09593 -1.13257 0
M  V30 2650 C 261.076 2.18214 -0.830946 0
M  V30 2651 C 262.057 1.68812 0.208966 0
M  V30 2652 O 263.242 1.9408 0.0682666 0
M  V30 2653 C 260.372 3.46051 -0.294296 0
M  V30 2654 C 259.326 4.08778 -1.26826 0
M  V30 2655 C 258.652 5.31419 -0.591449 0
M  V30 2656 C 259.952 4.51476 -2.62615 0
M  V30 2657 H 261.646 2.43703 -1.73923 0
M  V30 2658 H 259.192 1.17128 -0.837675 0
M  V30 2659 H 261.145 4.2134 -0.0709606 0
M  V30 2660 H 259.869 3.20079 0.649366 0
M  V30 2661 H 258.528 3.35505 -1.47756 0
M  V30 2662 H 258.176 5.01727 0.357633 0
M  V30 2663 H 257.876 5.74341 -1.24123 0
M  V30 2664 H 259.4 6.09433 -0.377355 0
M  V30 2665 H 260.814 5.17999 -2.45663 0
M  V30 2666 H 259.211 5.05277 -3.23752 0
M  V30 2667 H 260.281 3.63962 -3.20406 0
M  V30 2668 N 261.624 0.925811 1.2754 0
M  V30 2669 C 263.04 0.625767 1.46821 0
M  V30 2670 C 263.24 -0.825506 1.83814 0
M  V30 2671 O 262.296 -1.60356 1.95044 0
M  V30 2672 C 263.609 1.57402 2.56213 0
M  V30 2673 C 265.157 1.58204 2.70075 0
M  V30 2674 C 265.632 2.51721 3.82623 0
M  V30 2675 N 267.123 2.49917 3.89994 0
M  V30 2676 C 267.858 3.18968 4.76494 0
M  V30 2677 N 267.354 3.97391 5.67496 0
M  V30 2678 N 269.147 3.07996 4.70208 0
M  V30 2679 H 261.298 1.86409 1.01811 0
M  V30 2680 H 263.561 0.800213 0.508295 0
M  V30 2681 H 263.267 2.60925 2.35819 0
M  V30 2682 H 263.141 1.31428 3.53563 0
M  V30 2683 H 265.528 0.554124 2.89851 0
M  V30 2684 H 265.609 1.88226 1.73218 0
M  V30 2685 H 265.253 3.54622 3.63601 0
M  V30 2686 H 265.183 2.18996 4.78903 0
M  V30 2687 H 267.674 1.9296 3.24923 0
M  V30 2688 H 267.987 4.4707 6.30356 0
M  V30 2689 H 266.332 4.01495 5.67298 0
M  V30 2690 H 269.523 2.46223 3.9811 0
M  V30 2691 H 269.696 3.6208 5.37403 0
M  V30 2692 N 263.102 -1.41638 0.69111 0
M  V30 2693 C 264.065 -2.29178 0.0319786 0
M  V30 2694 C 265.065 -1.44153 -0.712496 0
M  V30 2695 O 266.255 -1.65354 -0.548053 0
M  V30 2696 C 263.387 -3.26952 -0.965161 0
M  V30 2697 H 264.58 -2.88959 0.802681 0
M  V30 2698 H 262.133 -1.4955 0.454356 0
M  V30 2699 H 262.868 -2.72142 -1.76378 0
M  V30 2700 H 262.653 -3.89685 -0.434522 0
M  V30 2701 H 264.143 -3.92561 -1.42428 0
M  V30 2702 N 264.58 -0.43555 -1.51462 0
M  V30 2703 C 265.49 0.383001 -2.31453 0
M  V30 2704 C 266.506 1.02931 -1.4029 0
M  V30 2705 O 267.682 1.02507 -1.73362 0
M  V30 2706 C 264.747 1.47043 -3.13973 0
M  V30 2707 C 263.808 0.844433 -4.20913 0
M  V30 2708 C 263.041 1.88004 -4.9949 0
M  V30 2709 O 263.264 3.10199 -4.78678 0
M  V30 2710 O 262.198 1.47157 -5.83634 0
M  V30 2711 H 266.024 -0.269964 -3.02498 0
M  V30 2712 H 263.609 -0.19813 -1.4808 0
M  V30 2713 H 265.491 2.10113 -3.65281 0
M  V30 2714 H 264.166 2.10751 -2.45695 0
M  V30 2715 H 263.073 0.175729 -3.73687 0
M  V30 2716 H 264.406 0.250869 -4.9156 0
M  V30 2717 N 266.058 1.56714 -0.166846 0
M  V30 2718 C 267.307 1.95922 0.479318 0
M  V30 2719 C 267.62 1.05529 1.6469 0
M  V30 2720 O 268.826 1.34399 2.35901 0
M  V30 2721 C 267.282 3.48359 0.90412 0
M  V30 2722 C 266.89 4.47369 -0.237621 0
M  V30 2723 C 268.634 3.96394 1.51896 0
M  V30 2724 C 266.541 5.91039 0.206561 0
M  V30 2725 H 265.471 0.731495 0.18284 0
M  V30 2726 H 268.122 1.81728 -0.254363 0
M  V30 2727 H 266.504 3.57955 1.69365 0
M  V30 2728 H 267.678 4.49485 -1.01489 0
M  V30 2729 H 265.993 4.09366 -0.762128 0
M  V30 2730 H 268.59 5.01186 1.86325 0
M  V30 2731 H 268.933 3.39075 2.41524 0
M  V30 2732 H 269.466 3.89796 0.79395 0
M  V30 2733 H 266.205 6.52221 -0.654834 0
M  V30 2734 H 265.725 5.9224 0.949282 0
M  V30 2735 H 267.404 6.43707 0.651939 0
M  V30 2736 N 267.536 -0.106894 1.57237 0
M  V30 2737 C 268.784 -0.810921 1.85117 0
M  V30 2738 C 269.105 -1.7984 0.753827 0
M  V30 2739 O 268.375 -1.94649 -0.221056 0
M  V30 2740 H 266.955 -0.302466 0.683025 0
M  V30 2741 H 269.617 -0.0913324 1.94686 0
M  V30 2742 H 268.713 -1.34875 2.81452 0
M  V30 2743 N 269.014 -1.53014 -0.377408 0
M  V30 2744 C 269.964 -1.74996 -1.46152 0
M  V30 2745 C 270.948 -0.604236 -1.49123 0
M  V30 2746 O 272.14 -0.862489 -1.54564 0
M  V30 2747 C 269.269 -1.93267 -2.8373 0
M  V30 2748 C 268.355 -3.13807 -2.85283 0
M  V30 2749 N 268.746 -4.35941 -2.56493 0
M  V30 2750 C 267.044 -3.14288 -3.16448 0
M  V30 2751 C 267.745 -5.17615 -2.65424 0
M  V30 2752 N 266.721 -4.53559 -2.99641 0
M  V30 2753 H 270.523 -2.67044 -1.22738 0
M  V30 2754 H 268.037 -1.51479 -0.585479 0
M  V30 2755 H 270.034 -2.0714 -3.61799 0
M  V30 2756 H 268.694 -1.0244 -3.08117 0
M  V30 2757 H 269.705 -4.63876 -2.30302 0
M  V30 2758 H 266.382 -2.33312 -3.46225 0
M  V30 2759 H 267.772 -6.25006 -2.46612 0
M  V30 2760 N 270.492 0.636531 -1.44174 0
M  V30 2761 C 271.738 1.39826 -1.4689 0
M  V30 2762 C 272.071 1.93947 -0.0990585 0
M  V30 2763 O 271.346 1.73325 0.882544 0
M  V30 2764 C 271.629 2.56751 -2.5249 0
M  V30 2765 C 271.482 2.08014 -3.98811 0
M  V30 2766 C 272.801 3.58946 -2.54649 0
M  V30 2767 H 269.92 0.507075 -0.53483 0
M  V30 2768 H 272.562 0.720188 -1.75822 0
M  V30 2769 H 270.712 3.14597 -2.2795 0
M  V30 2770 H 272.384 1.5504 -4.34466 0
M  V30 2771 H 270.627 1.39242 -4.10846 0
M  V30 2772 H 271.298 2.92169 -4.68339 0
M  V30 2773 H 273.774 3.1089 -2.76563 0
M  V30 2774 H 272.65 4.38286 -3.3045 0
M  V30 2775 H 272.911 4.12655 -1.58646 0
M  V30 2776 N 271.97 1.30982 0.876444 0
M  V30 2777 C 273.195 1.23373 1.66715 0
M  V30 2778 C 273.62 -0.19885 1.87046 0
M  V30 2779 O 272.978 -1.1427 1.40756 0
M  V30 2780 C 273.026 1.97644 3.01611 0
M  V30 2781 O 272.13 1.30935 3.91062 0
M  V30 2782 H 271.471 0.426279 0.509099 0
M  V30 2783 H 274.001 1.72944 1.09323 0
M  V30 2784 H 274.011 2.06992 3.51594 0
M  V30 2785 H 272.686 3.01829 2.86133 0
M  V30 2786 H 271.263 1.29996 3.49507 0
M  V30 2787 N 273.449 -1.08991 1.13837 0
M  V30 2788 C 274.412 -2.13925 0.822715 0
M  V30 2789 C 275.412 -1.599 -0.1699 0
M  V30 2790 O 276.602 -1.74104 0.0577251 0
M  V30 2791 C 273.734 -3.40155 0.225318 0
M  V30 2792 H 274.927 -2.43358 1.75262 0
M  V30 2793 H 272.48 -1.24603 0.943594 0
M  V30 2794 H 273.215 -3.16352 -0.713594 0
M  V30 2795 H 273 -3.80661 0.940193 0
M  V30 2796 H 274.49 -4.17594 0.0214784 0
M  V30 2797 N 274.927 -0.932562 -1.27047 0
M  V30 2798 C 275.837 -0.441219 -2.30414 0
M  V30 2799 C 276.853 0.480525 -1.67233 0
M  V30 2800 O 278.029 0.362151 -1.98117 0
M  V30 2801 C 275.094 0.293651 -3.45454 0
M  V30 2802 C 274.155 -0.663601 -4.2414 0
M  V30 2803 C 273.388 0.0362932 -5.33688 0
M  V30 2804 O 273.611 1.2548 -5.56427 0
M  V30 2805 O 272.545 -0.638015 -5.98509 0
M  V30 2806 H 276.371 -1.29962 -2.74488 0
M  V30 2807 H 273.956 -0.6981 -1.32087 0
M  V30 2808 H 275.838 0.707951 -4.15411 0
M  V30 2809 H 274.513 1.12758 -3.03426 0
M  V30 2810 H 273.42 -1.12768 -3.56699 0
M  V30 2811 H 274.753 -1.46489 -4.69896 0
M  V30 2812 N 276.405 1.4127 -0.698611 0
M  V30 2813 C 277.821 1.55241 -0.370462 0
M  V30 2814 C 278.021 1.67351 1.12231 0
M  V30 2815 O 277.077 1.65363 1.90818 0
M  V30 2816 C 278.39 2.78997 -1.12165 0
M  V30 2817 C 279.938 2.92797 -1.1063 0
M  V30 2818 C 280.413 4.19445 -1.8393 0
M  V30 2819 N 281.904 4.26409 -1.80914 0
M  V30 2820 C 282.639 5.23271 -2.34467 0
M  V30 2821 N 282.135 6.26145 -2.96504 0
M  V30 2822 N 283.928 5.15232 -2.24706 0
M  V30 2823 H 276.079 1.31654 -1.66676 0
M  V30 2824 H 278.342 0.635393 -0.703548 0
M  V30 2825 H 278.048 2.76268 -2.17644 0
M  V30 2826 H 277.922 3.70606 -0.702209 0
M  V30 2827 H 280.309 2.95039 -0.0597713 0
M  V30 2828 H 280.39 2.02353 -1.56483 0
M  V30 2829 H 280.034 4.17964 -2.88563 0
M  V30 2830 H 279.964 5.08866 -1.35509 0
M  V30 2831 H 282.455 3.527 -1.35687 0
M  V30 2832 H 282.768 6.96451 -3.34927 0
M  V30 2833 H 281.113 6.26638 -3.00583 0
M  V30 2834 H 284.304 4.33789 -1.7591 0
M  V30 2835 H 284.477 5.90552 -2.66745 0
M  V30 2836 N 277.883 0.443576 1.51229 0
M  V30 2837 C 279.129 -0.120975 2.02439 0
M  V30 2838 C 279.462 -1.41815 1.32674 0
M  V30 2839 O 278.737 -1.89373 0.443622 0
M  V30 2840 C 279.02 -0.333291 3.58554 0
M  V30 2841 C 278.873 0.982968 4.38928 0
M  V30 2842 C 280.192 -1.10028 4.26124 0
M  V30 2843 H 277.311 -0.0424923 0.735774 0
M  V30 2844 H 279.953 0.583794 1.80809 0
M  V30 2845 H 278.103 -0.933614 3.77115 0
M  V30 2846 H 279.775 1.61775 4.32003 0
M  V30 2847 H 278.018 1.58611 4.03763 0
M  V30 2848 H 278.689 0.788379 5.46341 0
M  V30 2849 H 281.165 -0.591711 4.11871 0
M  V30 2850 H 280.041 -1.21761 5.35225 0
M  V30 2851 H 280.302 -2.12996 3.87408 0
M  V30 2852 N 279.361 -1.56624 0.175154 0
M  V30 2853 C 280.291 -2.21155 -0.749195 0
M  V30 2854 C 281.272 -1.16836 -1.23626 0
M  V30 2855 O 282.457 -1.45277 -1.28873 0
M  V30 2856 C 279.587 -2.8553 -1.97711 0
M  V30 2857 C 278.541 -3.95921 -1.62575 0
M  V30 2858 C 277.867 -4.47365 -2.92864 0
M  V30 2859 C 279.167 -5.15323 -0.850838 0
M  V30 2860 H 280.861 -2.98653 -0.211295 0
M  V30 2861 H 278.407 -1.43651 -0.100188 0
M  V30 2862 H 280.36 -3.2935 -2.62881 0
M  V30 2863 H 279.084 -2.05406 -2.53921 0
M  V30 2864 H 277.743 -3.52762 -0.997719 0
M  V30 2865 H 277.391 -3.64027 -3.47122 0
M  V30 2866 H 277.091 -5.21839 -2.70106 0
M  V30 2867 H 278.615 -4.93873 -3.59056 0
M  V30 2868 H 280.029 -5.55812 -1.40521 0
M  V30 2869 H 278.426 -5.95739 -0.722154 0
M  V30 2870 H 279.496 -4.84661 0.152082 0
M  V30 2871 N 280.839 0.0985539 -1.57292 0
M  V30 2872 C 282.064 0.820196 -1.90493 0
M  V30 2873 C 282.489 1.71658 -0.769094 0
M  V30 2874 O 281.847 1.79133 0.279495 0
M  V30 2875 C 281.895 1.61242 -3.22542 0
M  V30 2876 O 280.999 2.72108 -3.09888 0
M  V30 2877 H 280.34 0.225547 -0.62452 0
M  V30 2878 H 282.87 0.0748159 -2.04463 0
M  V30 2879 H 282.88 1.99737 -3.55766 0
M  V30 2880 H 281.555 0.954535 -4.04798 0
M  V30 2881 H 280.132 2.36667 -2.88172 0
M  V30 2882 N 282.317 1.53212 0.369288 0
M  V30 2883 C 283.565 1.68881 1.11012 0
M  V30 2884 C 283.886 0.441285 1.89941 0
M  V30 2885 O 283.156 -0.544623 1.88177 0
M  V30 2886 H 281.736 0.622569 0.412816 0
M  V30 2887 H 284.398 1.90391 0.416802 0
M  V30 2888 H 283.494 2.54822 1.80201 0
M  V30 2889 N 283.795 -0.628877 1.44509 0
M  V30 2890 C 285.206 -1.21054 1.42137 0
M  V30 2891 C 285.557 -1.95715 0.137881 0
M  V30 2892 O 284.682 -2.02554 -0.761645 0
M  V30 2893 C 285.277 -2.20189 2.57493 0
M  V30 2894 C 283.836 -2.73777 2.58308 0
M  V30 2895 C 282.983 -1.48813 2.33987 0
M  V30 2896 H 285.934 -0.41942 1.53057 0
M  V30 2897 H 285.955 -3.02833 2.30375 0
M  V30 2898 H 285.467 -1.6582 3.50892 0
M  V30 2899 H 283.568 -3.32142 1.68856 0
M  V30 2900 H 283.681 -3.19662 3.56865 0
M  V30 2901 H 282.045 -1.77024 1.83124 0
M  V30 2902 H 282.828 -0.963442 3.29504 0
M  V30 2903 N 285.273 -1.31445 -0.869486 0
M  V30 2904 C 286.521 -1.20918 -1.61936 0
M  V30 2905 C 286.842 0.232683 -1.93607 0
M  V30 2906 O 286.112 1.15352 -1.58338 0
M  V30 2907 H 284.692 -0.44454 -0.600328 0
M  V30 2908 H 287.354 -1.64776 -1.0409 0
M  V30 2909 H 286.45 -1.78124 -2.56278 0
M  V30 2910 N 286.751 1.08385 -1.14413 0
M  V30 2911 C 287.681 2.17321 -0.854044 0
M  V30 2912 C 288.662 1.69024 0.191049 0
M  V30 2913 O 289.847 1.94141 0.0476779 0
M  V30 2914 C 286.977 3.45719 -0.330983 0
M  V30 2915 C 285.931 4.07409 -1.31155 0
M  V30 2916 C 285.257 5.30762 -0.64778 0
M  V30 2917 C 286.557 4.48665 -2.67388 0
M  V30 2918 H 288.251 2.41845 -1.76498 0
M  V30 2919 H 285.797 1.16233 -0.850051 0
M  V30 2920 H 287.75 4.21241 -0.115645 0
M  V30 2921 H 286.474 3.2075 0.615381 0
M  V30 2922 H 285.133 3.33919 -1.51306 0
M  V30 2923 H 284.781 5.02078 0.304398 0
M  V30 2924 H 284.481 5.72992 -1.30207 0
M  V30 2925 H 286.005 6.08998 -0.441972 0
M  V30 2926 H 287.419 5.15364 -2.51143 0
M  V30 2927 H 285.816 5.01814 -3.29093 0
M  V30 2928 H 286.886 3.60543 -3.24248 0
M  V30 2929 N 288.23 0.939286 1.26551 0
M  V30 2930 C 289.476 0.586715 1.94128 0
M  V30 2931 C 289.809 -0.8717 1.73537 0
M  V30 2932 O 289.084 -1.62339 1.07127 0
M  V30 2933 C 289.367 0.927497 3.4795 0
M  V30 2934 C 289.22 2.44052 3.77834 0
M  V30 2935 C 290.539 0.441569 4.37879 0
M  V30 2936 H 287.658 0.21463 0.705055 0
M  V30 2937 H 290.3 1.17316 1.49455 0
M  V30 2938 H 288.45 0.428431 3.8613 0
M  V30 2939 H 290.122 3.01216 3.4938 0
M  V30 2940 H 288.365 2.8848 3.23978 0
M  V30 2941 H 289.036 2.62947 4.85348 0
M  V30 2942 H 291.512 0.869448 4.06915 0
M  V30 2943 H 290.388 0.708856 5.44304 0
M  V30 2944 H 290.649 -0.658467 4.37169 0
M  V30 2945 N 289.708 -1.40897 0.706093 0
M  V30 2946 C 290.656 -2.32572 0.0361893 0
M  V30 2947 C 291.65 -1.51532 -0.757266 0
M  V30 2948 O 292.856 -1.67396 -0.661703 0
M  V30 2949 H 289.231 -0.751966 -0.00709935 0
M  V30 2950 H 291.202 -2.86733 0.826249 0
M  V30 2951 C 289.951 -3.36418 -0.87854 0
M  V30 2952 H 289.274 -3.98836 -0.277401 0
M  V30 2953 H 290.714 -4.0308 -1.3154 0
M  V30 2954 C 289.173 -2.71141 -1.99961 0
M  V30 2955 O 289.703 -2.56735 -3.0895 0
M  V30 2956 N 287.909 -2.29671 -1.78043 0
M  V30 2957 H 287.456 -2.41588 -0.894042 0
M  V30 2958 H 287.414 -1.86332 -2.53235 0
M  V30 2959 N 291.186 -0.45159 -1.50991 0
M  V30 2960 C 292.116 0.342898 -2.30969 0
M  V30 2961 C 293.097 1.00815 -1.37005 0
M  V30 2962 O 294.282 1.00907 -1.65926 0
M  V30 2963 C 291.412 1.43637 -3.16205 0
M  V30 2964 C 290.366 0.893818 -4.18563 0
M  V30 2965 C 289.692 2.08411 -4.92411 0
M  V30 2966 C 290.992 -0.0815568 -5.22236 0
M  V30 2967 H 292.686 -0.324556 -2.97636 0
M  V30 2968 H 290.232 -0.157531 -1.43136 0
M  V30 2969 H 292.185 1.9995 -3.70942 0
M  V30 2970 H 290.909 2.13232 -2.47386 0
M  V30 2971 H 289.568 0.352798 -3.64898 0
M  V30 2972 H 289.216 2.76658 -4.20082 0
M  V30 2973 H 288.916 1.72741 -5.61636 0
M  V30 2974 H 290.44 2.65251 -5.49976 0
M  V30 2975 H 291.854 0.391742 -5.7196 0
M  V30 2976 H 290.251 -0.351551 -5.99069 0
M  V30 2977 H 291.321 -1.01374 -4.74185 0
M  V30 2978 N 292.664 1.56529 -0.183458 0
M  V30 2979 C 293.894 2.01331 0.463612 0
M  V30 2980 C 294.302 1.06278 1.5653 0
M  V30 2981 O 293.645 0.0577976 1.83609 0
M  V30 2982 C 293.707 3.42547 1.09096 0
M  V30 2983 C 293.371 4.56817 0.129442 0
M  V30 2984 C 294.368 5.15734 -0.656807 0
M  V30 2985 C 292.053 5.02295 0.02174 0
M  V30 2986 C 294.047 6.1857 -1.53784 0
M  V30 2987 C 291.734 6.04978 -0.862864 0
M  V30 2988 C 292.732 6.62988 -1.64123 0
M  V30 2989 O 292.42 7.63677 -2.51103 0
M  V30 2990 H 292.152 0.664917 0.121907 0
M  V30 2991 H 294.706 2.034 -0.285954 0
M  V30 2992 H 292.936 3.37428 1.88889 0
M  V30 2993 H 294.625 3.71228 1.64148 0
M  V30 2994 H 295.391 4.81473 -0.583839 0
M  V30 2995 H 291.27 4.56847 0.617392 0
M  V30 2996 H 294.814 6.63777 -2.14583 0
M  V30 2997 H 290.711 6.38663 -0.93699 0
M  V30 2998 H 291.479 7.81049 -2.44753 0
M  V30 2999 N 294.142 -0.090211 1.57342 0
M  V30 3000 C 295.558 -0.444547 1.53284 0
M  V30 3001 C 295.758 -1.80238 0.900914 0
M  V30 3002 O 294.814 -2.4759 0.495513 0
M  V30 3003 C 296.127 -0.402543 2.97993 0
M  V30 3004 C 297.675 -0.48405 3.09234 0
M  V30 3005 C 298.15 -0.472144 4.5556 0
M  V30 3006 N 299.641 -0.532757 4.60126 0
M  V30 3007 C 300.376 -0.545462 5.708 0
M  V30 3008 N 299.872 -0.514082 6.9089 0
M  V30 3009 N 301.665 -0.59064 5.58988 0
M  V30 3010 H 293.816 0.799121 1.96794 0
M  V30 3011 H 296.079 0.297965 0.899956 0
M  V30 3012 H 295.785 0.528106 3.47712 0
M  V30 3013 H 295.659 -1.21969 3.56936 0
M  V30 3014 H 298.046 -1.40512 2.595 0
M  V30 3015 H 298.127 0.361328 2.53235 0
M  V30 3016 H 297.771 0.445 5.05947 0
M  V30 3017 H 297.701 -1.3348 5.09402 0
M  V30 3018 H 300.192 -0.562006 3.73698 0
M  V30 3019 H 300.505 -0.527195 7.71 0
M  V30 3020 H 298.85 -0.481054 6.93333 0
M  V30 3021 H 302.041 -0.61272 4.64073 0
M  V30 3022 H 302.214 -0.597073 6.45243 0
M  V30 3023 N 295.62 -1.53406 -0.361157 0
M  V30 3024 C 296.583 -1.79479 -1.42548 0
M  V30 3025 C 297.583 -0.665327 -1.4639 0
M  V30 3026 O 298.773 -0.933549 -1.47073 0
M  V30 3027 C 295.905 -1.92087 -2.8163 0
M  V30 3028 H 297.098 -2.74538 -1.20701 0
M  V30 3029 H 294.651 -1.4455 -0.594546 0
M  V30 3030 H 295.386 -0.991099 -3.08784 0
M  V30 3031 H 295.171 -2.74241 -2.80239 0
M  V30 3032 H 296.661 -2.13836 -3.58697 0
M  V30 3033 N 297.098 0.621204 -1.44841 0
M  V30 3034 C 298.347 1.37658 -1.47422 0
M  V30 3035 C 298.66 1.95264 -0.114629 0
M  V30 3036 O 299.866 2.71494 -0.0180199 0
M  V30 3037 C 298.322 2.49285 -2.59586 0
M  V30 3038 C 297.93 1.98149 -4.01797 0
M  V30 3039 C 299.674 3.26409 -2.71399 0
M  V30 3040 C 297.581 3.07178 -5.05367 0
M  V30 3041 H 296.511 0.517344 -0.548517 0
M  V30 3042 H 299.162 0.667257 -1.70938 0
M  V30 3043 H 297.544 3.22839 -2.29328 0
M  V30 3044 H 298.718 1.31395 -4.41669 0
M  V30 3045 H 297.033 1.33812 -3.94314 0
M  V30 3046 H 299.63 4.07706 -3.45948 0
M  V30 3047 H 299.973 3.76535 -1.77559 0
M  V30 3048 H 300.506 2.5995 -3.01116 0
M  V30 3049 H 297.245 2.61985 -6.00869 0
M  V30 3050 H 296.765 3.72542 -4.70077 0
M  V30 3051 H 298.444 3.71789 -5.29511 0
M  V30 3052 N 298.576 1.31904 0.862503 0
M  V30 3053 C 299.822 1.22197 1.61851 0
M  V30 3054 C 300.155 -0.217641 1.92977 0
M  V30 3055 O 299.43 -1.15264 1.56666 0
M  V30 3056 C 299.713 2.07378 2.94391 0
M  V30 3057 C 299.566 3.59678 2.70096 0
M  V30 3058 C 300.885 1.92891 3.95577 0
M  V30 3059 H 298.004 0.445255 0.587296 0
M  V30 3060 H 300.646 1.6177 0.99651 0
M  V30 3061 H 298.796 1.73758 3.47477 0
M  V30 3062 H 300.468 4.03472 2.23625 0
M  V30 3063 H 298.711 3.82735 2.04197 0
M  V30 3064 H 299.382 4.14595 3.64438 0
M  V30 3065 H 301.858 2.22327 3.51724 0
M  V30 3066 H 300.734 2.54781 4.86187 0
M  V30 3067 H 300.995 0.894315 4.3296 0
M  V30 3068 N 300.054 -1.07777 1.14986 0
M  V30 3069 C 301.001 -2.14867 0.842672 0
M  V30 3070 C 301.971 -1.6486 -0.202552 0
M  V30 3071 O 303.156 -1.90668 -0.0710568 0
M  V30 3072 C 300.296 -3.43486 0.333363 0
M  V30 3073 C 299.409 -4.07306 1.43965 0
M  V30 3074 C 298.544 -5.23744 0.886914 0
M  V30 3075 C 297.583 -5.79517 1.97043 0
M  V30 3076 N 296.72 -6.87291 1.4344 0
M  V30 3077 H 301.56 -2.40485 1.75986 0
M  V30 3078 H 299.097 -1.1801 0.878179 0
M  V30 3079 H 301.055 -4.17195 0.0198163 0
M  V30 3080 H 299.685 -3.18133 -0.546916 0
M  V30 3081 H 298.737 -3.31293 1.86946 0
M  V30 3082 H 300.049 -4.44771 2.25788 0
M  V30 3083 H 299.203 -6.04419 0.525651 0
M  V30 3084 H 297.942 -4.87685 0.0377957 0
M  V30 3085 H 296.947 -4.97491 2.34057 0
M  V30 3086 H 298.172 -6.17632 2.82325 0
M  V30 3087 H 296.118 -6.5318 0.607567 0
M  V30 3088 H 296.035 -7.23617 2.18895 0
M  V30 3089 H 297.303 -7.71682 1.10124 0
M  V30 3090 N 301.532 -0.945985 -1.26051 0
M  V30 3091 C 302.495 -0.463897 -2.24456 0
M  V30 3092 C 303.495 0.427655 -1.55009 0
M  V30 3093 O 304.685 0.226157 -1.72726 0
M  V30 3094 C 301.817 0.330812 -3.39291 0
M  V30 3095 H 303.01 -1.33357 -2.68619 0
M  V30 3096 H 300.563 -0.728416 -1.38289 0
M  V30 3097 H 301.298 1.21852 -3.00537 0
M  V30 3098 H 301.083 -0.308679 -3.90883 0
M  V30 3099 H 302.573 0.657865 -4.12386 0
M  V30 3100 N 303.011 1.40521 -0.713556 0
M  V30 3101 C 304.288 1.94775 -0.17943 0
M  V30 3102 C 304.668 1.65184 1.31444 0
M  V30 3103 O 304.016 0.968429 2.06963 0
M  V30 3104 C 304.226 3.45543 -0.489986 0
M  V30 3105 C 305.574 4.22442 -0.427536 0
M  V30 3106 O 306.598 3.53644 -0.425929 0
M  V30 3107 O 305.457 5.4501 -0.403292 0
M  V30 3108 H 302.551 0.826606 -0.0255192 0
M  V30 3109 H 305.097 1.5014 -0.790949 0
M  V30 3110 H 303.869 3.60432 -1.5233 0
M  V30 3111 H 303.492 3.97311 0.151598 0
M  V30 3112 N 304.489 0.459591 1.5075 0
M  V30 3113 C 305.437 -0.354678 2.2988 0
M  V30 3114 C 306.431 -1.00086 1.36672 0
M  V30 3115 O 307.637 -0.933277 1.53915 0
M  V30 3116 H 304.012 -0.13321 0.740107 0
M  V30 3117 H 305.983 0.333269 2.96533 0
M  V30 3118 C 304.732 -1.43073 3.169 0
M  V30 3119 H 304.055 -0.942882 3.88523 0
M  V30 3120 H 305.495 -1.97328 3.75284 0
M  V30 3121 C 303.954 -2.42633 2.33732 0
M  V30 3122 O 304.484 -3.47658 2.01238 0
M  V30 3123 N 302.69 -2.14066 1.9653 0
M  V30 3124 H 302.237 -1.28685 2.23155 0
M  V30 3125 H 302.195 -2.80917 1.41185 0
M  V30 3126 N 305.967 -1.56429 0.191757 0
M  V30 3127 C 307.383 -1.58754 -0.164137 0
M  V30 3128 C 307.583 -1.20782 -1.61288 0
M  V30 3129 O 306.639 -0.928999 -2.34789 0
M  V30 3130 C 307.952 -3.00396 0.135195 0
M  V30 3131 C 309.5 -3.1291 0.0750351 0
M  V30 3132 C 309.975 -4.56679 0.347632 0
M  V30 3133 N 311.466 -4.62252 0.296131 0
M  V30 3134 C 312.201 -5.71379 0.480948 0
M  V30 3135 N 311.697 -6.88986 0.725933 0
M  V30 3136 N 313.49 -5.60563 0.415435 0
M  V30 3137 H 305.641 -1.79393 1.13718 0
M  V30 3138 H 307.904 -0.832414 0.453643 0
M  V30 3139 H 307.61 -3.32726 1.13958 0
M  V30 3140 H 307.484 -3.72963 -0.563773 0
M  V30 3141 H 309.871 -2.80394 -0.919948 0
M  V30 3142 H 309.952 -2.42736 0.807029 0
M  V30 3143 H 309.596 -4.89907 1.33992 0
M  V30 3144 H 309.526 -5.25039 -0.405212 0
M  V30 3145 H 312.017 -3.7773 0.113259 0
M  V30 3146 H 312.33 -7.68046 0.855857 0
M  V30 3147 H 310.675 -6.90801 0.762788 0
M  V30 3148 H 313.866 -4.67561 0.224486 0
M  V30 3149 H 314.039 -6.45551 0.562889 0
M  V30 3150 N 307.445 0.0818655 -1.57387 0
M  V30 3151 C 308.375 1.09885 -2.06028 0
M  V30 3152 C 309.356 1.4098 -0.951774 0
M  V30 3153 O 310.541 1.50781 -1.22387 0
M  V30 3154 C 307.671 2.4151 -2.4958 0
M  V30 3155 C 306.625 2.24792 -3.64215 0
M  V30 3156 C 305.951 3.61712 -3.93787 0
M  V30 3157 C 307.251 1.67749 -4.94629 0
M  V30 3158 H 308.945 0.694128 -2.91243 0
M  V30 3159 H 306.491 0.332448 -1.4011 0
M  V30 3160 H 308.444 3.12939 -2.82219 0
M  V30 3161 H 307.168 2.83943 -1.61381 0
M  V30 3162 H 305.827 1.55807 -3.31843 0
M  V30 3163 H 305.475 4.01697 -3.02735 0
M  V30 3164 H 305.175 3.51368 -4.70971 0
M  V30 3165 H 306.699 4.34587 -4.28913 0
M  V30 3166 H 308.113 2.29032 -5.25564 0
M  V30 3167 H 306.51 1.68128 -5.76067 0
M  V30 3168 H 307.58 0.638059 -4.80684 0
M  V30 3169 N 308.923 1.53595 0.353017 0
M  V30 3170 C 310.334 1.61937 0.929153 0
M  V30 3171 C 310.685 0.494686 1.89861 0
M  V30 3172 O 309.81 -0.377017 2.1309 0
M  V30 3173 C 310.405 2.93526 1.69199 0
M  V30 3174 C 308.964 3.04161 2.21727 0
M  V30 3175 C 308.111 2.57322 1.03348 0
M  V30 3176 H 311.062 1.58155 0.131431 0
M  V30 3177 H 311.083 2.82034 2.55416 0
M  V30 3178 H 310.595 3.75362 0.986144 0
M  V30 3179 H 308.696 2.26938 2.95516 0
M  V30 3180 H 308.809 4.09465 2.48748 0
M  V30 3181 H 307.173 2.12499 1.40414 0
M  V30 3182 H 307.956 3.41588 0.342428 0
M  V30 3183 N 310.401 -0.613514 1.45168 0
M  V30 3184 C 311.311 -1.75296 1.55912 0
M  V30 3185 C 312.327 -1.68244 0.443856 0
M  V30 3186 O 313.503 -1.88706 0.70371 0
M  V30 3187 C 310.568 -3.1174 1.5172 0
M  V30 3188 C 309.629 -3.30291 2.74238 0
M  V30 3189 C 308.862 -4.60226 2.70236 0
M  V30 3190 O 309.085 -5.42168 1.77229 0
M  V30 3191 O 308.019 -4.81361 3.61352 0
M  V30 3192 H 311.845 -1.69183 2.52212 0
M  V30 3193 H 309.43 -0.776886 1.27612 0
M  V30 3194 H 311.312 -3.93044 1.51968 0
M  V30 3195 H 309.987 -3.18357 0.585697 0
M  V30 3196 H 308.894 -2.48598 2.79553 0
M  V30 3197 H 310.227 -3.28547 3.66494 0
M  V30 3198 N 311.879 -1.3236 -0.855495 0
M  V30 3199 C 312.827 -1.2118 -1.9854 0
M  V30 3200 C 313.821 -0.116788 -1.68997 0
M  V30 3201 O 315.027 -0.279657 -1.77814 0
M  V30 3202 H 311.402 -0.375608 -0.651477 0
M  V30 3203 H 313.373 -2.16743 -2.05098 0
M  V30 3204 C 312.122 -0.950849 -3.34446 0
M  V30 3205 H 311.445 -1.78563 -3.57708 0
M  V30 3206 H 312.885 -0.912863 -4.14057 0
M  V30 3207 C 311.344 0.346404 -3.35114 0
M  V30 3208 O 311.874 1.35855 -3.7803 0
M  V30 3209 N 310.08 0.36808 -2.88259 0
M  V30 3210 H 309.627 -0.456102 -2.5353 0
M  V30 3211 H 309.585 1.23591 -2.89089 0
M  V30 3212 N 313.357 1.07166 -1.15556 0
M  V30 3213 C 314.287 2.16403 -0.877046 0
M  V30 3214 C 315.268 1.69217 0.173111 0
M  V30 3215 O 316.453 1.94181 0.027084 0
M  V30 3216 C 313.583 3.45349 -0.367632 0
M  V30 3217 C 312.537 4.05995 -1.35468 0
M  V30 3218 C 311.863 5.30045 -0.704038 0
M  V30 3219 C 313.163 4.45804 -2.72132 0
M  V30 3220 H 314.857 2.39959 -1.79053 0
M  V30 3221 H 312.403 1.15325 -0.862331 0
M  V30 3222 H 314.356 4.21095 -0.160317 0
M  V30 3223 H 313.08 3.21385 0.581326 0
M  V30 3224 H 311.739 3.32296 -1.54839 0
M  V30 3225 H 311.387 5.02373 0.251128 0
M  V30 3226 H 311.087 5.71579 -1.36277 0
M  V30 3227 H 312.611 6.08495 -0.50654 0
M  V30 3228 H 314.025 5.12671 -2.56595 0
M  V30 3229 H 312.422 4.98296 -3.34397 0
M  V30 3230 H 313.492 3.57083 -3.28054 0
M  V30 3231 N 314.835 0.952656 1.25548 0
M  V30 3232 C 315.782 0.47008 2.25962 0
M  V30 3233 C 316.752 -0.476384 1.59122 0
M  V30 3234 O 317.937 -0.39007 1.8677 0
M  V30 3235 C 315.077 -0.247881 3.44209 0
M  V30 3236 C 314.19 0.735591 4.25691 0
M  V30 3237 C 313.325 -0.0047306 5.312 0
M  V30 3238 C 312.364 0.969805 6.04368 0
M  V30 3239 N 311.501 0.260486 7.01617 0
M  V30 3240 H 316.341 1.33126 2.66611 0
M  V30 3241 H 313.878 0.66765 1.31076 0
M  V30 3242 H 315.836 -0.680695 4.1161 0
M  V30 3243 H 314.466 -1.07312 3.0444 0
M  V30 3244 H 313.518 1.28689 3.57971 0
M  V30 3245 H 314.83 1.47934 4.76358 0
M  V30 3246 H 313.984 -0.496275 6.04667 0
M  V30 3247 H 312.723 -0.781282 4.81401 0
M  V30 3248 H 311.728 1.47237 5.29718 0
M  V30 3249 H 312.953 1.74655 6.56256 0
M  V30 3250 H 310.899 -0.497364 6.54112 0
M  V30 3251 H 310.816 0.943362 7.50091 0
M  V30 3252 H 312.084 -0.209587 7.79218 0
M  V30 3253 N 316.313 -1.40141 0.720998 0
M  V30 3254 C 317.724 -1.83678 0.334553 0
M  V30 3255 C 318.075 -1.6027 -1.13173 0
M  V30 3256 O 317.2 -1.08643 -1.87152 0
M  V30 3257 C 317.795 -3.33437 0.600437 0
M  V30 3258 C 316.354 -3.75447 0.267642 0
M  V30 3259 C 315.501 -2.63296 0.870097 0
M  V30 3260 H 318.452 -1.29331 0.919732 0
M  V30 3261 H 318.473 -3.80269 -0.132517 0
M  V30 3262 H 317.985 -3.50442 1.66768 0
M  V30 3263 H 316.086 -3.64035 -0.794329 0
M  V30 3264 H 316.199 -4.73344 0.74042 0
M  V30 3265 H 314.563 -2.52954 0.297739 0
M  V30 3266 H 315.346 -2.83112 1.94172 0
M  V30 3267 N 317.792 -0.46758 -1.50504 0
M  V30 3268 C 318.739 0.328413 -2.28452 0
M  V30 3269 C 319.709 0.990313 -1.33349 0
M  V30 3270 O 320.894 1.00343 -1.62284 0
M  V30 3271 C 318.034 1.40648 -3.15138 0
M  V30 3272 C 317.147 0.759709 -4.25267 0
M  V30 3273 C 316.282 1.81537 -4.99217 0
M  V30 3274 C 315.321 1.14866 -6.01226 0
M  V30 3275 N 314.458 2.14702 -6.68467 0
M  V30 3276 H 319.298 -0.342603 -2.96024 0
M  V30 3277 H 316.835 -0.180801 -1.45985 0
M  V30 3278 H 318.793 2.04315 -3.63746 0
M  V30 3279 H 317.423 2.04671 -2.49619 0
M  V30 3280 H 316.475 0.0105671 -3.80399 0
M  V30 3281 H 317.787 0.233243 -4.98254 0
M  V30 3282 H 316.941 2.52793 -5.51526 0
M  V30 3283 H 315.68 2.37564 -4.25928 0
M  V30 3284 H 314.685 0.42171 -5.4818 0
M  V30 3285 H 315.91 0.595334 -6.76485 0
M  V30 3286 H 313.856 2.69752 -5.97972 0
M  V30 3287 H 313.773 1.6703 -7.37317 0
M  V30 3288 H 315.041 2.85348 -7.25394 0
M  V30 3289 N 319.27 1.56325 -0.20005 0
M  V30 3290 C 320.547 1.89484 0.48529 0
M  V30 3291 C 320.927 1.1143 1.79294 0
M  V30 3292 O 320.275 0.216919 2.27468 0
M  V30 3293 C 320.485 3.41923 0.699243 0
M  V30 3294 C 321.833 4.12256 1.01638 0
M  V30 3295 O 322.857 3.47402 0.786792 0
M  V30 3296 O 321.716 5.26887 1.45095 0
M  V30 3297 H 318.81 0.787144 0.253639 0
M  V30 3298 H 321.356 1.67985 -0.240633 0
M  V30 3299 H 320.128 3.90658 -0.224008 0
M  V30 3300 H 319.751 3.69131 1.47744 0
M  V30 3301 N 320.748 -0.0735177 1.57428 0
M  V30 3302 C 321.997 -0.771809 1.86349 0
M  V30 3303 C 322.31 -1.78828 0.792452 0
M  V30 3304 O 323.516 -2.53602 0.96945 0
M  V30 3305 C 321.972 -1.42358 3.30548 0
M  V30 3306 C 321.58 -0.445761 4.45777 0
M  V30 3307 C 323.324 -2.10434 3.6867 0
M  V30 3308 C 321.231 -1.10335 5.81016 0
M  V30 3309 H 320.161 -0.291999 0.695164 0
M  V30 3310 H 322.812 -0.0250749 1.83483 0
M  V30 3311 H 321.194 -2.21852 3.28021 0
M  V30 3312 H 322.368 0.319239 4.59693 0
M  V30 3313 H 320.683 0.130457 4.16196 0
M  V30 3314 H 323.28 -2.60405 4.67004 0
M  V30 3315 H 323.623 -2.90298 2.98383 0
M  V30 3316 H 324.156 -1.37773 3.7318 0
M  V30 3317 H 320.895 -0.345061 6.54591 0
M  V30 3318 H 320.415 -1.83925 5.70904 0
M  V30 3319 H 322.094 -1.62367 6.26295 0
M  V30 3320 N 322.226 -1.5378 -0.344866 0
M  V30 3321 C 323.454 -1.74899 -1.10534 0
M  V30 3322 C 323.869 -0.487534 -1.82397 0
M  V30 3323 O 323.226 0.540741 -1.74305 0
M  V30 3324 C 323.277 -2.92822 -2.11984 0
M  V30 3325 O 322.998 -4.14089 -1.43044 0
M  V30 3326 C 324.499 -3.25982 -3.00417 0
M  V30 3327 H 321.719 -0.584426 -0.329678 0
M  V30 3328 H 324.263 -2.006 -0.397474 0
M  V30 3329 H 322.418 -2.69457 -2.78338 0
M  V30 3330 H 322.832 -4.80272 -2.10805 0
M  V30 3331 H 324.306 -4.11848 -3.67539 0
M  V30 3332 H 324.783 -2.42228 -3.66363 0
M  V30 3333 H 325.389 -3.51349 -2.39654 0
M  V30 3334 N 323.704 0.605807 -1.45491 0
M  V30 3335 C 324.614 1.74466 -1.56839 0
M  V30 3336 C 325.63 1.68006 -0.452772 0
M  V30 3337 O 326.806 1.8833 -0.713708 0
M  V30 3338 C 323.871 3.10931 -1.53371 0
M  V30 3339 C 322.932 3.28832 -2.75986 0
M  V30 3340 C 322.165 4.58787 -2.72673 0
M  V30 3341 O 322.388 5.4122 -1.80102 0
M  V30 3342 O 321.322 4.79438 -3.63899 0
M  V30 3343 H 325.148 1.67843 -2.53106 0
M  V30 3344 H 322.733 0.770108 -1.28022 0
M  V30 3345 H 324.615 3.92233 -1.54051 0
M  V30 3346 H 323.29 3.18042 -0.602572 0
M  V30 3347 H 322.197 2.47112 -2.80867 0
M  V30 3348 H 323.53 3.26599 -3.68231 0
M  V30 3349 N 325.182 1.32811 0.848464 0
M  V30 3350 C 326.598 1.11937 1.13764 0
M  V30 3351 C 326.798 -0.0960789 2.01271 0
M  V30 3352 O 325.854 -0.779165 2.40178 0
M  V30 3353 C 327.167 2.402 1.809 0
M  V30 3354 C 328.715 2.46016 1.93508 0
M  V30 3355 C 329.19 3.74215 2.64059 0
M  V30 3356 N 330.681 3.75232 2.71579 0
M  V30 3357 C 331.416 4.71134 3.26833 0
M  V30 3358 N 330.912 5.77406 3.8285 0
M  V30 3359 N 332.705 4.58623 3.24995 0
M  V30 3360 H 324.856 2.1073 0.265855 0
M  V30 3361 H 327.119 0.930671 0.180431 0
M  V30 3362 H 326.825 3.29093 1.24058 0
M  V30 3363 H 326.699 2.51628 2.81004 0
M  V30 3364 H 329.086 1.57577 2.49506 0
M  V30 3365 H 329.167 2.38536 0.923811 0
M  V30 3366 H 328.811 4.63031 2.08722 0
M  V30 3367 H 328.741 3.78968 3.65637 0
M  V30 3368 H 331.232 2.98423 2.31845 0
M  V30 3369 H 331.545 6.46632 4.23187 0
M  V30 3370 H 329.89 5.81152 3.81165 0
M  V30 3371 H 333.081 3.74762 2.80484 0
M  V30 3372 H 333.254 5.33535 3.67756 0
M  V30 3373 N 326.66 -1.06551 1.16123 0
M  V30 3374 C 327.623 -2.12132 0.867906 0
M  V30 3375 C 328.623 -1.60224 -0.135944 0
M  V30 3376 O 329.813 -1.73943 0.0946422 0
M  V30 3377 C 326.945 -3.396 0.297419 0
M  V30 3378 H 328.138 -2.39586 1.80385 0
M  V30 3379 H 325.691 -1.22574 0.969812 0
M  V30 3380 H 326.426 -3.17794 -0.64633 0
M  V30 3381 H 326.211 -3.78581 1.02073 0
M  V30 3382 H 327.701 -4.17455 0.110052 0
M  V30 3383 N 328.138 -0.959301 -1.25041 0
M  V30 3384 C 329.068 -0.501388 -2.28053 0
M  V30 3385 C 330.049 0.454673 -1.63911 0
M  V30 3386 O 331.234 0.352618 -1.90972 0
M  V30 3387 C 328.364 0.217224 -3.4662 0
M  V30 3388 C 327.318 -0.654034 -4.22973 0
M  V30 3389 C 326.644 0.195589 -5.34342 0
M  V30 3390 C 327.944 -1.93447 -4.85155 0
M  V30 3391 H 329.638 -1.36238 -2.66608 0
M  V30 3392 H 327.184 -0.656534 -1.28163 0
M  V30 3393 H 329.137 0.548732 -4.17812 0
M  V30 3394 H 327.861 1.1125 -3.07068 0
M  V30 3395 H 326.52 -0.968693 -3.5357 0
M  V30 3396 H 326.168 1.09076 -4.91031 0
M  V30 3397 H 325.868 -0.384091 -5.86343 0
M  V30 3398 H 327.392 0.521958 -6.08365 0
M  V30 3399 H 328.806 -1.66908 -5.48466 0
M  V30 3400 H 327.203 -2.46018 -5.47353 0
M  V30 3401 H 328.273 -2.63466 -4.07079 0
M  V30 3402 N 329.616 1.39756 -0.72842 0
M  V30 3403 C 330.579 2.29012 -0.0927297 0
M  V30 3404 C 331.579 1.45992 0.674025 0
M  V30 3405 O 332.769 1.66749 0.50402 0
M  V30 3406 C 329.901 3.29396 0.878137 0
M  V30 3407 H 331.094 2.86729 -0.879011 0
M  V30 3408 H 328.647 1.48293 -0.493847 0
M  V30 3409 H 329.382 2.76722 1.69101 0
M  V30 3410 H 329.167 3.907 0.331051 0
M  V30 3411 H 330.657 3.96199 1.3197 0
M  V30 3412 N 331.094 0.475555 1.50254 0
M  V30 3413 C 332.371 -0.139685 1.95101 0
M  V30 3414 C 332.751 -1.56555 1.41611 0
M  V30 3415 O 332.099 -2.19956 0.618993 0
M  V30 3416 C 332.309 -0.0784298 3.48912 0
M  V30 3417 C 333.657 -0.265095 4.23772 0
M  V30 3418 O 334.681 -0.154808 3.55863 0
M  V30 3419 O 333.54 -0.488327 5.44314 0
M  V30 3420 H 330.634 -0.109236 0.819754 0
M  V30 3421 H 333.18 0.536276 1.61004 0
M  V30 3422 H 331.952 0.916918 3.80405 0
M  V30 3423 H 331.575 -0.795655 3.89558 0
M  V30 3424 N 332.573 -1.56217 0.208337 0
M  V30 3425 C 333.798 -2.02782 -0.435222 0
M  V30 3426 C 334.223 -1.08738 -1.53485 0
M  V30 3427 O 333.581 -0.0731855 -1.81152 0
M  V30 3428 C 333.629 -3.47687 -0.956335 0
M  V30 3429 O 332.733 -3.56773 -2.06849 0
M  V30 3430 H 332.074 -0.656403 -0.100158 0
M  V30 3431 H 334.604 -2.02033 0.3231 0
M  V30 3432 H 334.614 -3.87745 -1.26955 0
M  V30 3433 H 333.289 -4.15624 -0.15143 0
M  V30 3434 H 331.866 -3.28597 -1.76292 0
M  V30 3435 N 334.051 0.0651679 -1.57465 0
M  V30 3436 C 335.291 0.768329 -1.8941 0
M  V30 3437 C 335.655 1.74406 -0.802894 0
M  V30 3438 O 336.856 2.49281 -1.0056 0
M  V30 3439 C 335.127 1.45199 -3.26576 0
M  V30 3440 S 336.686 2.1893 -3.80283 0
M  V30 3441 H 333.504 0.255359 -0.663561 0
M  V30 3442 H 336.106 0.024167 -1.95485 0
M  V30 3443 H 334.81 0.728123 -4.03889 0
M  V30 3444 H 334.341 2.23545 -3.23715 0
M  V30 3445 H 336.356 3.45551 -3.56102 0
M  V30 3446 N 335.529 1.53961 0.336706 0
M  V30 3447 C 336.757 1.75483 1.09605 0
M  V30 3448 C 337.172 0.4972 1.82136 0
M  V30 3449 O 336.529 -0.53149 1.74589 0
M  V30 3450 C 336.58 2.93943 2.10428 0
M  V30 3451 O 336.301 4.14842 1.40846 0
M  V30 3452 C 337.802 3.27571 2.98684 0
M  V30 3453 H 335.022 0.586166 0.326574 0
M  V30 3454 H 337.566 2.00808 0.38683 0
M  V30 3455 H 335.721 2.70929 2.76905 0
M  V30 3456 H 336.135 4.81383 2.08255 0
M  V30 3457 H 337.609 4.13791 3.6535 0
M  V30 3458 H 338.086 2.44168 3.65074 0
M  V30 3459 H 338.692 3.52615 2.37787 0
M  V30 3460 N 337.007 -0.598083 1.45811 0
M  V30 3461 C 338.284 -1.35777 1.40797 0
M  V30 3462 C 338.664 -2.10935 0.083462 0
M  V30 3463 O 338.012 -2.08505 -0.934763 0
M  V30 3464 C 338.222 -2.29666 2.62783 0
M  V30 3465 C 339.57 -2.91977 3.08277 0
M  V30 3466 O 340.594 -2.39984 2.63223 0
M  V30 3467 O 339.453 -3.86376 3.86491 0
M  V30 3468 H 336.547 -0.609291 0.55919 0
M  V30 3469 H 339.093 -0.620379 1.57954 0
M  V30 3470 H 337.865 -1.73454 3.50756 0
M  V30 3471 H 337.488 -3.1077 2.48008 0
M  V30 3472 N 338.485 -1.33259 -0.841409 0
M  V30 3473 C 339.725 -1.25902 -1.61022 0
M  V30 3474 C 340.089 0.173325 -1.91216 0
M  V30 3475 O 341.29 0.370824 -2.6623 0
M  V30 3476 C 339.561 -2.10735 -2.88662 0
M  V30 3477 S 341.12 -2.20541 -3.79351 0
M  V30 3478 H 337.938 -0.447958 -0.552137 0
M  V30 3479 H 340.54 -1.68263 -0.995382 0
M  V30 3480 H 339.244 -3.1384 -2.64448 0
M  V30 3481 H 338.775 -1.69201 -3.55154 0
M  V30 3482 H 340.79 -1.36462 -4.77067 0
M  V30 3483 N 339.963 1.05934 -1.16686 0
M  V30 3484 C 341.379 1.30938 -0.912542 0
M  V30 3485 C 341.579 1.96803 0.432533 0
M  V30 3486 O 340.635 2.23693 1.17123 0
M  V30 3487 C 341.948 2.18649 -2.06429 0
M  V30 3488 C 343.496 2.32055 -2.10047 0
M  V30 3489 C 343.971 3.23122 -3.24586 0
M  V30 3490 N 345.462 3.30706 -3.24327 0
M  V30 3491 C 346.197 4.01273 -4.09594 0
M  V30 3492 N 345.693 4.74332 -5.04956 0
M  V30 3493 N 347.486 3.97361 -3.97569 0
M  V30 3494 H 339.637 0.615777 -2.03278 0
M  V30 3495 H 341.9 0.334077 -0.887185 0
M  V30 3496 H 341.606 1.77534 -3.03603 0
M  V30 3497 H 341.48 3.19252 -2.00894 0
M  V30 3498 H 343.867 2.72415 -1.13464 0
M  V30 3499 H 343.948 1.31107 -2.19647 0
M  V30 3500 H 343.592 2.83477 -4.2143 0
M  V30 3501 H 343.522 4.24057 -3.12223 0
M  V30 3502 H 346.013 2.78644 -2.55276 0
M  V30 3503 H 346.326 5.25716 -5.6643 0
M  V30 3504 H 344.671 4.733 -5.08933 0
M  V30 3505 H 347.862 3.39405 -3.22369 0
M  V30 3506 H 348.035 4.52089 -4.64241 0
M  V30 3507 N 341.441 0.965919 1.2453 0
M  V30 3508 C 342.857 0.67216 1.44756 0
M  V30 3509 C 343.057 -0.766609 1.86347 0
M  V30 3510 O 342.113 -1.5407 2.00047 0
M  V30 3511 C 343.426 1.65473 2.51076 0
M  V30 3512 C 344.974 1.66716 2.64905 0
M  V30 3513 C 345.449 2.63766 3.74421 0
M  V30 3514 N 346.94 2.62198 3.81846 0
M  V30 3515 C 347.675 3.33966 4.66106 0
M  V30 3516 N 347.171 4.15245 5.54566 0
M  V30 3517 N 348.964 3.22799 4.60171 0
M  V30 3518 H 341.115 1.89553 0.958293 0
M  V30 3519 H 343.378 0.815979 0.482579 0
M  V30 3520 H 343.084 2.68296 2.27399 0
M  V30 3521 H 342.958 1.4261 3.49202 0
M  V30 3522 H 345.345 0.646057 2.87941 0
M  V30 3523 H 345.426 1.93642 1.67142 0
M  V30 3524 H 345.07 3.6601 3.52135 0
M  V30 3525 H 345 2.34121 4.71694 0
M  V30 3526 H 347.491 2.032 3.18619 0
M  V30 3527 H 347.804 4.66898 6.15814 0
M  V30 3528 H 346.149 4.1934 5.54237 0
M  V30 3529 H 349.34 2.58764 3.90075 0
M  V30 3530 H 349.513 3.78994 5.25612 0
M  V30 3531 N 342.919 -1.39368 0.735821 0
M  V30 3532 C 343.882 -2.2896 0.104874 0
M  V30 3533 C 344.882 -1.46347 -0.666274 0
M  V30 3534 O 346.072 -1.67014 -0.49517 0
M  V30 3535 C 343.204 -3.29857 -0.860656 0
M  V30 3536 H 344.397 -2.86259 0.894205 0
M  V30 3537 H 341.95 -1.48029 0.501704 0
M  V30 3538 H 342.685 -2.77615 -1.67631 0
M  V30 3539 H 342.47 -3.9087 -0.310327 0
M  V30 3540 H 343.96 -3.96893 -1.29867 0
M  V30 3541 N 344.397 -0.483516 -1.5 0
M  V30 3542 C 345.327 0.293829 -2.31644 0
M  V30 3543 C 346.308 0.978864 -1.39112 0
M  V30 3544 O 347.493 0.973644 -1.68029 0
M  V30 3545 C 344.623 1.36897 -3.19181 0
M  V30 3546 C 343.577 0.804833 -4.20365 0
M  V30 3547 C 342.903 1.9792 -4.96721 0
M  V30 3548 C 344.203 -0.192313 -5.21946 0
M  V30 3549 H 345.897 -0.387616 -2.9688 0
M  V30 3550 H 343.443 -0.187856 -1.42769 0
M  V30 3551 H 345.396 1.92037 -3.751 0
M  V30 3552 H 344.12 2.07936 -2.51853 0
M  V30 3553 H 342.779 0.275319 -3.65565 0
M  V30 3554 H 342.427 2.67686 -4.25856 0
M  V30 3555 H 342.127 1.60789 -5.65173 0
M  V30 3556 H 343.651 2.53526 -5.55479 0
M  V30 3557 H 345.065 0.270333 -5.72662 0
M  V30 3558 H 343.462 -0.478543 -5.98189 0
M  V30 3559 H 344.532 -1.11409 -4.71928 0
M  V30 3560 N 345.875 1.56104 -0.216619 0
M  V30 3561 C 347.1 2.0301 0.424462 0
M  V30 3562 C 347.525 1.0955 1.52907 0
M  V30 3563 O 346.883 0.0827914 1.81111 0
M  V30 3564 C 346.931 3.4819 0.937883 0
M  V30 3565 O 346.035 3.57865 2.04955 0
M  V30 3566 H 345.376 0.656925 0.0966755 0
M  V30 3567 H 347.906 2.01859 -0.33381 0
M  V30 3568 H 347.916 3.88413 1.24897 0
M  V30 3569 H 346.591 4.15699 0.129387 0
M  V30 3570 H 345.168 3.29527 1.74546 0
M  V30 3571 N 347.353 -0.0568162 1.57498 0
M  V30 3572 C 348.283 -1.06593 2.0775 0
M  V30 3573 C 349.264 -1.39448 0.974082 0
M  V30 3574 O 350.449 -1.48815 1.24771 0
M  V30 3575 C 347.579 -2.37509 2.5339 0
M  V30 3576 C 346.533 -2.1897 3.67745 0
M  V30 3577 C 345.859 -3.55402 3.99492 0
M  V30 3578 C 347.159 -1.59859 4.97235 0
M  V30 3579 H 348.853 -0.647706 2.9231 0
M  V30 3580 H 346.399 -0.310116 1.40621 0
M  V30 3581 H 348.352 -3.08409 2.87162 0
M  V30 3582 H 347.076 -2.8134 1.65878 0
M  V30 3583 H 345.735 -1.50508 3.3428 0
M  V30 3584 H 345.383 -3.9683 3.09088 0
M  V30 3585 H 345.083 -3.43831 4.76502 0
M  V30 3586 H 346.607 -4.27708 4.35773 0
M  V30 3587 H 348.021 -2.20642 5.29141 0
M  V30 3588 H 346.418 -1.58942 5.78669 0
M  V30 3589 H 347.488 -0.561506 4.81638 0
M  V30 3590 N 348.832 -1.54138 -0.328536 0
M  V30 3591 C 350.079 -1.72105 -1.06706 0
M  V30 3592 C 350.407 -0.492111 -1.88171 0
M  V30 3593 O 349.662 0.526153 -1.88494 0
M  V30 3594 C 349.961 -2.9457 -2.02393 0
M  V30 3595 C 349.627 -4.29544 -1.37122 0
M  V30 3596 C 348.289 -4.6624 -1.19052 0
M  V30 3597 C 350.641 -5.1333 -0.902331 0
M  V30 3598 C 347.969 -5.84325 -0.527331 0
M  V30 3599 C 350.321 -6.32094 -0.252988 0
M  V30 3600 C 348.985 -6.67473 -0.0600901 0
M  V30 3601 H 348.255 -0.629775 -0.390466 0
M  V30 3602 H 350.902 -1.88372 -0.34473 0
M  V30 3603 H 349.207 -2.72969 -2.81061 0
M  V30 3604 H 350.904 -3.05665 -2.59557 0
M  V30 3605 H 347.494 -4.0067 -1.52188 0
M  V30 3606 H 351.678 -4.855 -1.02974 0
M  V30 3607 H 346.934 -6.103 -0.366634 0
M  V30 3608 H 351.108 -6.96299 0.118366 0
M  V30 3609 H 348.735 -7.58832 0.455828 0
M  V30 3610 N 350.31 0.590341 -1.46126 0
M  V30 3611 C 351.55 1.35995 -1.52593 0
M  V30 3612 C 351.914 1.91243 -0.170368 0
M  V30 3613 O 353.115 2.68576 -0.109775 0
M  V30 3614 C 351.386 2.46465 -2.58823 0
M  V30 3615 S 352.945 3.33953 -2.84641 0
M  V30 3616 H 349.763 0.463425 -0.53922 0
M  V30 3617 H 352.365 0.67944 -1.83314 0
M  V30 3618 H 351.069 2.04256 -3.5596 0
M  V30 3619 H 350.6 3.19297 -2.2981 0
M  V30 3620 H 352.615 4.45094 -2.19331 0
M  V30 3621 N 351.788 1.33704 0.83433 0
M  V30 3622 C 353.034 1.25603 1.59222 0
M  V30 3623 C 353.367 -0.176659 1.93395 0
M  V30 3624 O 352.642 -1.11915 1.59076 0
M  V30 3625 C 352.925 2.13576 2.89926 0
M  V30 3626 C 352.778 3.65326 2.62406 0
M  V30 3627 C 354.097 2.01238 3.91397 0
M  V30 3628 H 351.216 0.457613 0.577719 0
M  V30 3629 H 353.858 1.63848 0.961972 0
M  V30 3630 H 352.008 1.8109 3.43713 0
M  V30 3631 H 353.68 4.08124 2.15017 0
M  V30 3632 H 351.923 3.8698 1.96033 0
M  V30 3633 H 352.594 4.22232 3.55562 0
M  V30 3634 H 355.07 2.29738 3.46929 0
M  V30 3635 H 353.946 2.65036 4.80673 0
M  V30 3636 H 354.207 0.985951 4.30966 0
M  V30 3637 N 353.266 -1.05314 1.17247 0
M  V30 3638 C 354.515 -1.77685 0.954521 0
M  V30 3639 C 354.828 -1.88616 -0.518025 0
M  V30 3640 O 356.034 -2.57714 -0.854144 0
M  V30 3641 C 354.49 -3.19402 1.65863 0
M  V30 3642 C 354.098 -3.16605 3.16963 0
M  V30 3643 C 355.842 -3.96237 1.52303 0
M  V30 3644 C 353.749 -4.53103 3.80068 0
M  V30 3645 H 352.679 -0.666 0.353496 0
M  V30 3646 H 355.33 -1.1805 1.40486 0
M  V30 3647 H 353.712 -3.79355 1.13602 0
M  V30 3648 H 354.886 -2.66176 3.76148 0
M  V30 3649 H 353.201 -2.53268 3.30521 0
M  V30 3650 H 355.798 -4.97157 1.96822 0
M  V30 3651 H 356.141 -4.136 0.473401 0
M  V30 3652 H 356.674 -3.42829 2.01775 0
M  V30 3653 H 353.413 -4.40946 4.85023 0
M  V30 3654 H 352.933 -5.03686 3.2567 0
M  V30 3655 H 354.612 -5.22045 3.82202 0
M  V30 3656 N 354.744 -0.972509 -1.24016 0
M  V30 3657 C 355.677 -0.45117 -2.23696 0
M  V30 3658 C 356.655 0.477378 -1.55434 0
M  V30 3659 O 357.839 0.407647 -1.84039 0
M  V30 3660 C 354.966 0.34818 -3.36906 0
M  V30 3661 C 354.012 -0.523355 -4.23277 0
M  V30 3662 S 354.845 -1.96647 -4.98087 0
M  V30 3663 C 356.001 -1.17604 -6.14752 0
M  V30 3664 H 356.234 -1.29588 -2.67571 0
M  V30 3665 H 353.767 -0.777903 -1.33372 0
M  V30 3666 H 355.725 0.803387 -4.02562 0
M  V30 3667 H 354.386 1.16792 -2.91579 0
M  V30 3668 H 353.579 0.0906181 -5.03919 0
M  V30 3669 H 353.181 -0.914485 -3.62647 0
M  V30 3670 H 355.473 -0.433434 -6.76112 0
M  V30 3671 H 356.416 -1.95701 -6.8052 0
M  V30 3672 H 356.824 -0.698295 -5.60164 0
M  V30 3673 N 356.222 1.38976 -0.743202 0
M  V30 3674 C 357.47 1.99948 -0.29417 0
M  V30 3675 C 357.791 1.59279 1.12495 0
M  V30 3676 O 357.061 0.844808 1.76748 0
M  V30 3677 H 355.641 0.739473 -0.105774 0
M  V30 3678 H 358.303 1.699 -0.954986 0
M  V30 3679 H 357.399 3.10142 -0.349056 0
M  V30 3680 N 357.7 0.491464 1.49741 0
M  V30 3681 C 359.116 0.146835 1.58923 0
M  V30 3682 C 359.316 -1.34804 1.49767 0
M  V30 3683 O 358.372 -2.12317 1.36667 0
M  V30 3684 C 359.685 0.715157 2.92072 0
M  V30 3685 C 361.233 0.680407 3.05515 0
M  V30 3686 C 361.708 1.22663 4.41269 0
M  V30 3687 N 363.199 1.18691 4.47735 0
M  V30 3688 C 363.934 1.57984 5.51207 0
M  V30 3689 N 363.43 2.04824 6.6183 0
M  V30 3690 N 365.223 1.49459 5.41866 0
M  V30 3691 H 357.374 1.46347 1.53936 0
M  V30 3692 H 359.637 0.606453 0.728642 0
M  V30 3693 H 359.343 1.76317 3.04311 0
M  V30 3694 H 359.217 0.17018 3.76816 0
M  V30 3695 H 361.604 -0.358743 2.92911 0
M  V30 3696 H 361.685 1.26242 2.22478 0
M  V30 3697 H 361.329 2.26451 4.54623 0
M  V30 3698 H 361.259 0.620637 5.2293 0
M  V30 3699 H 363.75 0.843605 3.68364 0
M  V30 3700 H 364.063 2.32901 7.3687 0
M  V30 3701 H 362.408 2.08791 6.62896 0
M  V30 3702 H 365.599 1.12692 4.54333 0
M  V30 3703 H 365.772 1.80406 6.22381 0
M  V30 3704 N 359.178 -1.55987 0.224894 0
M  V30 3705 C 360.425 -1.9839 -0.4059 0
M  V30 3706 C 360.753 -1.11261 -1.59535 0
M  V30 3707 O 360.008 -0.158314 -1.95059 0
M  V30 3708 C 360.307 -3.46394 -0.880106 0
M  V30 3709 C 359.973 -4.5046 0.19918 0
M  V30 3710 C 358.635 -4.7864 0.495661 0
M  V30 3711 C 360.987 -5.12855 0.928939 0
M  V30 3712 C 358.315 -5.66497 1.52636 0
M  V30 3713 C 360.667 -6.01828 1.949 0
M  V30 3714 C 359.331 -6.28351 2.25236 0
M  V30 3715 H 358.601 -0.725961 -0.148529 0
M  V30 3716 H 361.248 -1.88668 0.328113 0
M  V30 3717 H 359.553 -3.53337 -1.69294 0
M  V30 3718 H 361.25 -3.76577 -1.37808 0
M  V30 3719 H 357.84 -4.28579 -0.0420526 0
M  V30 3720 H 362.024 -4.9115 0.713129 0
M  V30 3721 H 357.28 -5.8531 1.76698 0
M  V30 3722 H 361.454 -6.49225 2.51951 0
M  V30 3723 H 359.081 -6.96226 3.05244 0
M  V30 3724 N 360.656 0.0484629 -1.57525 0
M  V30 3725 C 361.904 0.741657 -1.88 0
M  V30 3726 C 362.225 1.76918 -0.820054 0
M  V30 3727 O 361.495 1.95335 0.148661 0
M  V30 3728 H 360.075 0.276908 -0.69378 0
M  V30 3729 H 362.737 0.019013 -1.94891 0
M  V30 3730 H 361.833 1.24336 -2.86264 0
M  V30 3731 N 362.134 1.5431 0.320358 0
M  V30 3732 C 363.382 1.72327 1.05583 0
M  V30 3733 C 363.703 0.50149 1.88441 0
M  V30 3734 O 362.973 -0.48448 1.89815 0
M  V30 3735 H 361.553 0.635387 0.3928 0
M  V30 3736 H 364.215 1.91621 0.356019 0
M  V30 3737 H 363.311 2.60426 1.72003 0
M  V30 3738 N 363.613 -0.582584 1.46437 0
M  V30 3739 C 364.561 -1.71272 1.5738 0
M  V30 3740 C 365.555 -1.63524 0.44229 0
M  V30 3741 O 366.761 -1.69016 0.619166 0
M  V30 3742 H 363.136 -0.566273 0.494813 0
M  V30 3743 H 365.107 -1.59174 2.52401 0
M  V30 3744 C 363.856 -3.09658 1.58136 0
M  V30 3745 H 363.179 -3.16291 2.44541 0
M  V30 3746 H 364.619 -3.88494 1.69847 0
M  V30 3747 C 363.078 -3.3547 0.310026 0
M  V30 3748 O 363.608 -3.97199 -0.599683 0
M  V30 3749 N 361.814 -2.89925 0.197901 0
M  V30 3750 H 361.361 -2.39873 0.93909 0
M  V30 3751 H 361.319 -3.07568 -0.65185 0
M  V30 3752 N 365.091 -1.34144 -0.827227 0
M  V30 3753 C 366.021 -1.28005 -1.95287 0
M  V30 3754 C 367.002 -0.158321 -1.69362 0
M  V30 3755 O 368.187 -0.349987 -1.9102 0
M  V30 3756 C 365.317 -1.03036 -3.31664 0
M  V30 3757 C 364.271 -2.11628 -3.72019 0
M  V30 3758 C 363.597 -1.71854 -5.0633 0
M  V30 3759 C 364.897 -3.53417 -3.8457 0
M  V30 3760 H 366.591 -2.22187 -2.00682 0
M  V30 3761 H 364.137 -1.0696 -0.964135 0
M  V30 3762 H 366.09 -0.973863 -4.09993 0
M  V30 3763 H 364.814 -0.0529391 -3.26557 0
M  V30 3764 H 363.473 -2.16339 -2.95961 0
M  V30 3765 H 363.121 -0.727841 -4.97706 0
M  V30 3766 H 362.821 -2.44531 -5.34302 0
M  V30 3767 H 364.345 -1.67692 -5.87122 0
M  V30 3768 H 365.759 -3.51142 -4.5318 0
M  V30 3769 H 364.156 -4.24679 -4.2399 0
M  V30 3770 H 365.226 -3.91072 -2.86689 0
M  V30 3771 N 366.569 1.04691 -1.17803 0
M  V30 3772 C 367.532 2.10724 -0.901545 0
M  V30 3773 C 368.532 1.6042 0.110437 0
M  V30 3774 O 369.722 1.7377 -0.122303 0
M  V30 3775 C 366.854 3.39084 -0.351409 0
M  V30 3776 H 368.047 2.36686 -1.84174 0
M  V30 3777 H 365.6 1.21015 -0.98919 0
M  V30 3778 H 366.335 3.18782 0.59569 0
M  V30 3779 H 366.12 3.76909 -1.08083 0
M  V30 3780 H 367.61 4.17227 -0.176451 0
M  V30 3781 N 368.047 0.979072 1.23499 0
M  V30 3782 C 368.977 0.537606 2.27227 0
M  V30 3783 C 369.958 -0.428539 1.64613 0
M  V30 3784 O 371.143 -0.322191 1.91509 0
M  V30 3785 C 368.273 -0.162052 3.46922 0
M  V30 3786 C 367.227 0.721242 4.21879 0
M  V30 3787 C 366.553 -0.110555 5.34586 0
M  V30 3788 C 367.853 2.01141 4.82016 0
M  V30 3789 H 369.547 1.40462 2.64406 0
M  V30 3790 H 367.093 0.67684 1.27102 0
M  V30 3791 H 369.046 -0.482192 4.18632 0
M  V30 3792 H 367.77 -1.06351 3.08799 0
M  V30 3793 H 366.429 1.02482 3.51984 0
M  V30 3794 H 366.077 -1.0125 4.92704 0
M  V30 3795 H 365.777 0.477325 5.85658 0
M  V30 3796 H 367.301 -0.425107 6.09118 0
M  V30 3797 H 368.715 1.75612 5.45741 0
M  V30 3798 H 367.112 2.54695 5.43369 0
M  V30 3799 H 368.182 2.69909 4.02836 0
M  V30 3800 N 369.525 -1.3858 0.750561 0
M  V30 3801 C 370.473 -2.32339 0.110162 0
M  V30 3802 C 371.467 -1.53864 -0.708674 0
M  V30 3803 O 372.673 -1.69417 -0.608112 0
M  V30 3804 H 369.048 -0.751812 0.0168275 0
M  V30 3805 H 371.019 -2.83959 0.917053 0
M  V30 3806 C 369.768 -3.39043 -0.771067 0
M  V30 3807 H 369.091 -3.99517 -0.150374 0
M  V30 3808 H 370.531 -4.07061 -1.1865 0
M  V30 3809 C 368.99 -2.77365 -1.91234 0
M  V30 3810 O 369.52 -2.66434 -3.00626 0
M  V30 3811 N 367.726 -2.35219 -1.70646 0
M  V30 3812 H 367.273 -2.4431 -0.81673 0
M  V30 3813 H 367.231 -1.94294 -2.47178 0
M  V30 3814 N 371.003 -0.499398 -1.49478 0
M  V30 3815 C 371.933 0.269244 -2.31943 0
M  V30 3816 C 372.914 0.964054 -1.40143 0
M  V30 3817 O 374.099 0.955767 -1.69052 0
M  V30 3818 C 371.229 1.33504 -3.20615 0
M  V30 3819 C 370.183 0.760202 -4.21195 0
M  V30 3820 C 369.509 1.9264 -4.98792 0
M  V30 3821 C 370.809 -0.247661 -5.21712 0
M  V30 3822 H 372.503 -0.419082 -2.96452 0
M  V30 3823 H 370.049 -0.202988 -1.42562 0
M  V30 3824 H 372.002 1.88048 -3.77115 0
M  V30 3825 H 370.726 2.05253 -2.54045 0
M  V30 3826 H 369.385 0.23653 -3.65836 0
M  V30 3827 H 369.033 2.63154 -4.28671 0
M  V30 3828 H 368.733 1.54785 -5.66847 0
M  V30 3829 H 370.257 2.4762 -5.58137 0
M  V30 3830 H 371.671 0.209579 -5.72917 0
M  V30 3831 H 370.068 -0.541962 -5.97648 0
M  V30 3832 H 371.138 -1.16409 -4.7072 0
M  V30 3833 N 372.481 1.55866 -0.233164 0
M  V30 3834 C 373.729 1.9821 0.394593 0
M  V30 3835 C 374.05 1.12234 1.59463 0
M  V30 3836 O 373.32 0.201981 1.94856 0
M  V30 3837 H 371.9 0.732034 0.148778 0
M  V30 3838 H 374.562 1.92107 -0.32876 0
M  V30 3839 H 373.658 3.03845 0.713063 0
M  V30 3840 N 373.959 -0.0401083 1.57549 0
M  V30 3841 C 375.187 -0.745196 1.93014 0
M  V30 3842 C 375.602 -1.6948 0.831984 0
M  V30 3843 O 374.959 -1.81482 -0.192463 0
M  V30 3844 C 375.01 -1.51176 3.28372 0
M  V30 3845 O 374.731 -0.600284 4.33968 0
M  V30 3846 C 376.232 -2.315 3.78051 0
M  V30 3847 H 373.452 -0.210088 0.637263 0
M  V30 3848 H 375.996 -0.000924689 2.045 0
M  V30 3849 H 374.151 -2.20801 3.18317 0
M  V30 3850 H 374.565 -1.13669 5.12035 0
M  V30 3851 H 376.039 -2.80697 4.75303 0
M  V30 3852 H 376.516 -3.12436 3.08675 0
M  V30 3853 H 377.122 -1.66971 3.91153 0
M  V30 3854 N 375.437 -1.54477 -0.31217 0
M  V30 3855 C 376.684 -1.73227 -1.04875 0
M  V30 3856 C 377.012 -0.512042 -1.87639 0
M  V30 3857 O 376.267 0.506131 -1.89042 0
M  V30 3858 C 376.566 -2.967 -1.99258 0
M  V30 3859 C 376.232 -4.30974 -1.32559 0
M  V30 3860 C 374.894 -4.67477 -1.141 0
M  V30 3861 C 377.246 -5.14258 -0.847835 0
M  V30 3862 C 374.574 -5.84852 -0.465326 0
M  V30 3863 C 376.926 -6.32327 -0.185931 0
M  V30 3864 C 375.59 -6.67499 0.0107077 0
M  V30 3865 H 374.86 -0.633881 -0.383765 0
M  V30 3866 H 377.507 -1.88727 -0.324731 0
M  V30 3867 H 375.812 -2.75935 -2.7815 0
M  V30 3868 H 377.509 -3.08401 -2.563 0
M  V30 3869 H 374.099 -4.02262 -1.4793 0
M  V30 3870 H 378.283 -4.86565 -0.978192 0
M  V30 3871 H 373.539 -6.10654 -0.301883 0
M  V30 3872 H 377.713 -6.96135 0.192211 0
M  V30 3873 H 375.34 -7.58306 0.536287 0
M  V30 3874 N 376.915 0.57481 -1.46744 0
M  V30 3875 C 378.163 1.33009 -1.52161 0
M  V30 3876 C 378.484 1.94185 -0.178092 0
M  V30 3877 O 377.754 1.7899 0.796196 0
M  V30 3878 H 376.334 0.493873 -0.560445 0
M  V30 3879 H 378.996 0.672589 -1.82927 0
M  V30 3880 H 378.092 2.13273 -2.27862 0
M  V30 3881 N 378.394 1.34581 0.820102 0
M  V30 3882 C 379.642 1.26845 1.57336 0
M  V30 3883 C 379.963 -0.160667 1.94337 0
M  V30 3884 O 379.233 -1.09396 1.6251 0
M  V30 3885 H 377.813 0.466514 0.583415 0
M  V30 3886 H 380.475 1.68526 0.979027 0
M  V30 3887 H 379.571 1.87513 2.4949 0
M  V30 3888 N 379.872 -1.04064 1.18357 0
M  V30 3889 C 381.118 -1.77528 0.980397 0
M  V30 3890 C 381.451 -1.87948 -0.48879 0
M  V30 3891 O 380.726 -1.3876 -1.36293 0
M  V30 3892 C 381.009 -3.20797 1.63588 0
M  V30 3893 C 380.862 -3.1832 3.17793 0
M  V30 3894 C 382.181 -4.18911 1.34914 0
M  V30 3895 H 379.3 -0.644443 0.357578 0
M  V30 3896 H 381.942 -1.2156 1.46024 0
M  V30 3897 H 380.092 -3.68586 1.22788 0
M  V30 3898 H 381.764 -2.78521 3.67728 0
M  V30 3899 H 380.007 -2.56351 3.49952 0
M  V30 3900 H 380.678 -4.19489 3.58794 0
M  V30 3901 H 383.154 -3.7967 1.70265 0
M  V30 3902 H 382.03 -5.17374 1.83346 0
M  V30 3903 H 382.291 -4.41262 0.272027 0
M  V30 3904 N 381.35 -0.985608 -1.22978 0
M  V30 3905 C 382.597 -0.657386 -1.91532 0
M  V30 3906 C 382.925 0.809707 -1.76845 0
M  V30 3907 O 382.18 1.60021 -1.12658 0
M  V30 3908 C 382.479 -1.00014 -3.43121 0
M  V30 3909 C 382.145 -2.4583 -3.77993 0
M  V30 3910 C 380.807 -2.85679 -3.87222 0
M  V30 3911 C 383.159 -3.40378 -3.94705 0
M  V30 3912 C 380.487 -4.19081 -4.10595 0
M  V30 3913 C 382.839 -4.73429 -4.1958 0
M  V30 3914 C 381.503 -5.1303 -4.27032 0
M  V30 3915 H 380.773 -0.240555 -0.700867 0
M  V30 3916 H 383.42 -1.24044 -1.45895 0
M  V30 3917 H 381.725 -0.335072 -3.90365 0
M  V30 3918 H 383.422 -0.724322 -3.94404 0
M  V30 3919 H 380.012 -2.13939 -3.71387 0
M  V30 3920 H 384.196 -3.10766 -3.8696 0
M  V30 3921 H 379.452 -4.49362 -4.14589 0
M  V30 3922 H 383.626 -5.46644 -4.31455 0
M  V30 3923 H 381.253 -6.16418 -4.44896 0
M  V30 3924 N 382.828 1.3818 -0.7579 0
M  V30 3925 C 384.077 1.99261 -0.312744 0
M  V30 3926 C 384.39 1.60846 1.11301 0
M  V30 3927 O 385.596 2.14929 1.65885 0
M  V30 3928 C 384.052 3.56294 -0.50821 0
M  V30 3929 C 383.66 4.03657 -1.94333 0
M  V30 3930 C 385.404 4.24313 -0.125982 0
M  V30 3931 C 383.311 5.53347 -2.08712 0
M  V30 3932 H 382.241 0.745456 -0.113185 0
M  V30 3933 H 384.892 1.57889 -0.935056 0
M  V30 3934 H 383.274 3.95575 0.183353 0
M  V30 3935 H 384.448 3.75655 -2.66871 0
M  V30 3936 H 382.763 3.48376 -2.28086 0
M  V30 3937 H 385.36 5.34279 -0.212125 0
M  V30 3938 H 385.703 4.05962 0.921964 0
M  V30 3939 H 386.236 3.90285 -0.769563 0
M  V30 3940 H 382.975 5.76607 -3.11777 0
M  V30 3941 H 382.495 5.83078 -1.4064 0
M  V30 3942 H 384.174 6.19111 -1.87912 0
M  V30 3943 N 384.306 0.507319 1.49211 0
M  V30 3944 C 385.269 -0.256763 2.27757 0
M  V30 3945 C 386.269 -0.888287 1.34038 0
M  V30 3946 O 387.459 -0.751841 1.5714 0
M  V30 3947 C 384.591 -1.36905 3.12202 0
M  V30 3948 H 385.784 0.432557 2.96764 0
M  V30 3949 H 383.337 0.262488 1.5408 0
M  V30 3950 H 384.072 -2.09233 2.47775 0
M  V30 3951 H 383.857 -0.921599 3.81115 0
M  V30 3952 H 385.347 -1.9071 3.7151 0
M  V30 3953 N 385.784 -1.5574 0.241426 0
M  V30 3954 C 387.032 -1.98417 -0.384075 0
M  V30 3955 C 387.353 -1.13078 -1.58866 0
M  V30 3956 O 386.623 -0.212312 -1.94746 0
M  V30 3957 H 385.203 -0.732813 -0.144894 0
M  V30 3958 H 387.865 -1.9193 0.338943 0
M  V30 3959 H 386.961 -3.04219 -0.696939 0
M  V30 3960 N 387.262 0.0317525 -1.57568 0
M  V30 3961 C 388.51 0.721676 -1.88776 0
M  V30 3962 C 388.831 1.76039 -0.838772 0
M  V30 3963 O 388.101 1.95482 0.127935 0
M  V30 3964 H 386.681 0.269534 -0.696678 0
M  V30 3965 H 389.343 -0.00165879 -1.949 0
M  V30 3966 H 388.439 1.21293 -2.87566 0
M  V30 3967 N 388.74 1.54641 0.303973 0
M  V30 3968 C 389.989 1.7299 1.03717 0
M  V30 3969 C 390.302 0.521168 1.88529 0
M  V30 3970 O 391.508 0.586408 2.65092 0
M  V30 3971 C 389.964 3.06051 1.89369 0
M  V30 3972 C 389.572 4.34393 1.09574 0
M  V30 3973 C 391.316 3.3376 2.62306 0
M  V30 3974 C 389.223 5.58506 1.94486 0
M  V30 3975 H 388.153 0.64473 0.390947 0
M  V30 3976 H 390.804 1.81124 0.294328 0
M  V30 3977 H 389.186 2.91874 2.67629 0
M  V30 3978 H 390.36 4.59396 0.359485 0
M  V30 3979 H 388.675 4.13597 0.482324 0
M  V30 3980 H 391.272 4.23687 3.26181 0
M  V30 3981 H 391.615 2.52503 3.3098 0
M  V30 3982 H 392.148 3.48894 1.91097 0
M  V30 3983 H 388.887 6.42422 1.30287 0
M  V30 3984 H 388.407 5.37694 2.65792 0
M  V30 3985 H 390.086 5.95651 2.52605 0
M  V30 3986 N 390.218 -0.567019 1.47046 0
M  V30 3987 C 391.464 -1.32658 1.53394 0
M  V30 3988 C 391.797 -1.93254 0.19148 0
M  V30 3989 O 391.072 -1.77338 -0.798844 0
M  V30 3990 C 391.355 -2.44412 2.64452 0
M  V30 3991 C 391.208 -1.88749 4.08282 0
M  V30 3992 C 392.527 -3.46387 2.71485 0
M  V30 3993 H 389.646 -0.48098 0.558415 0
M  V30 3994 H 392.288 -0.635481 1.79058 0
M  V30 3995 H 390.438 -3.03363 2.427 0
M  V30 3996 H 392.11 -1.34134 4.41368 0
M  V30 3997 H 390.353 -1.19481 4.17021 0
M  V30 3998 H 391.024 -2.69491 4.81745 0
M  V30 3999 H 393.5 -2.9734 2.91081 0
M  V30 4000 H 392.376 -4.2202 3.50985 0
M  V30 4001 H 392.637 -4.04616 1.78153 0
M  V30 4002 N 391.696 -1.35014 -0.812953 0
M  V30 4003 C 393.107 -1.25035 -1.38648 0
M  V30 4004 C 393.458 0.119967 -1.95833 0
M  V30 4005 O 392.583 1.02069 -1.90816 0
M  V30 4006 C 393.178 -2.26394 -2.52054 0
M  V30 4007 C 391.737 -2.20175 -3.05287 0
M  V30 4008 C 390.884 -2.12451 -1.78213 0
M  V30 4009 H 393.835 -1.46235 -0.616516 0
M  V30 4010 H 393.856 -1.88672 -3.30429 0
M  V30 4011 H 393.368 -3.26116 -2.10404 0
M  V30 4012 H 391.469 -1.23841 -3.51417 0
M  V30 4013 H 391.582 -3.11863 -3.63701 0
M  V30 4014 H 389.946 -1.58328 -1.9951 0
M  V30 4015 H 390.729 -3.14024 -1.38723 0
M  V30 4016 N 393.175 1.03435 -1.18907 0
M  V30 4017 C 394.591 1.28973 -0.940111 0
M  V30 4018 C 394.791 1.97676 0.390691 0
M  V30 4019 O 393.847 2.26127 1.12352 0
M  V30 4020 C 395.16 2.14221 -2.11021 0
M  V30 4021 C 396.708 2.27547 -2.14922 0
M  V30 4022 C 397.183 3.16164 -3.31367 0
M  V30 4023 N 398.674 3.23752 -3.31269 0
M  V30 4024 C 399.409 3.92495 -4.18014 0
M  V30 4025 N 398.905 4.63515 -5.14904 0
M  V30 4026 N 400.698 3.88838 -4.05908 0
M  V30 4027 H 392.849 0.57252 -2.04538 0
M  V30 4028 H 395.112 0.315184 -0.894071 0
M  V30 4029 H 394.818 1.71054 -3.073 0
M  V30 4030 H 394.692 3.14919 -2.0762 0
M  V30 4031 H 397.079 2.69947 -1.19217 0
M  V30 4032 H 397.16 1.26418 -2.22378 0
M  V30 4033 H 396.804 2.74474 -4.27348 0
M  V30 4034 H 396.734 4.17339 -3.21148 0
M  V30 4035 H 399.225 2.73167 -2.61129 0
M  V30 4036 H 399.538 5.13583 -5.77453 0
M  V30 4037 H 397.883 4.62398 -5.18857 0
M  V30 4038 H 401.074 3.32491 -3.29495 0
M  V30 4039 H 401.247 4.4214 -4.73726 0
M  V30 4040 N 394.653 0.992116 1.22453 0
M  V30 4041 C 395.9 0.667534 1.91181 0
M  V30 4042 C 396.228 -0.800317 1.77271 0
M  V30 4043 O 395.483 -1.59421 1.13505 0
M  V30 4044 C 395.782 1.01832 3.42586 0
M  V30 4045 C 395.448 2.47831 3.76684 0
M  V30 4046 C 394.11 2.87729 3.85701 0
M  V30 4047 C 396.462 3.42466 3.92895 0
M  V30 4048 C 393.79 4.21252 4.08367 0
M  V30 4049 C 396.142 4.75648 4.17064 0
M  V30 4050 C 394.806 5.15288 4.24305 0
M  V30 4051 H 394.076 0.244268 0.699581 0
M  V30 4052 H 396.723 1.24816 1.45235 0
M  V30 4053 H 395.028 0.355769 3.90181 0
M  V30 4054 H 396.725 0.745228 3.94014 0
M  V30 4055 H 393.315 2.15905 3.70247 0
M  V30 4056 H 397.499 3.12814 3.85307 0
M  V30 4057 H 392.755 4.51554 4.122 0
M  V30 4058 H 396.929 5.48924 4.2855 0
M  V30 4059 H 394.556 6.18769 4.41621 0
M  V30 4060 N 396.131 -1.37776 0.765217 0
M  V30 4061 C 397.061 -2.32945 0.160953 0
M  V30 4062 C 398.042 -1.55454 -0.690516 0
M  V30 4063 O 399.227 -1.83721 -0.629318 0
M  V30 4064 C 396.357 -3.39669 -0.724031 0
M  V30 4065 C 395.311 -4.27992 0.0256173 0
M  V30 4066 C 394.637 -5.25673 -0.978383 0
M  V30 4067 C 395.937 -5.08309 1.20082 0
M  V30 4068 H 397.631 -2.83728 0.955969 0
M  V30 4069 H 395.177 -1.36416 0.461149 0
M  V30 4070 H 397.13 -4.05219 -1.15652 0
M  V30 4071 H 395.854 -2.87396 -1.5515 0
M  V30 4072 H 394.513 -3.63964 0.438812 0
M  V30 4073 H 394.161 -4.69682 -1.80022 0
M  V30 4074 H 393.861 -5.85625 -0.481378 0
M  V30 4075 H 395.385 -5.94098 -1.40995 0
M  V30 4076 H 396.799 -5.67034 0.845307 0
M  V30 4077 H 395.196 -5.77554 1.62947 0
M  V30 4078 H 396.266 -4.41365 2.00811 0
M  V30 4079 N 397.609 -0.515225 -1.4894 0
M  V30 4080 C 398.519 0.259774 -2.33157 0
M  V30 4081 C 399.535 0.953501 -1.45548 0
M  V30 4082 O 400.711 0.931735 -1.78552 0
M  V30 4083 C 397.776 1.30193 -3.21326 0
M  V30 4084 C 396.837 0.620129 -4.24797 0
M  V30 4085 C 396.07 1.61263 -5.08753 0
M  V30 4086 O 396.293 2.84389 -4.94448 0
M  V30 4087 O 395.227 1.16013 -5.90614 0
M  V30 4088 H 399.053 -0.429932 -3.00641 0
M  V30 4089 H 396.638 -0.276346 -1.46822 0
M  V30 4090 H 398.52 1.90455 -3.75905 0
M  V30 4091 H 397.195 1.97431 -2.56521 0
M  V30 4092 H 396.102 -0.0226019 -3.74093 0
M  V30 4093 H 397.435 -0.0100493 -4.92199 0
M  V30 4094 N 399.087 1.5561 -0.249682 0
M  V30 4095 C 400.334 1.99011 0.374287 0
M  V30 4096 C 400.662 1.13785 1.57744 0
M  V30 4097 O 399.917 0.189326 1.94782 0
M  V30 4098 C 400.216 3.4775 0.824887 0
M  V30 4099 C 399.882 4.50086 -0.270819 0
M  V30 4100 C 398.544 4.77791 -0.571746 0
M  V30 4101 C 400.896 5.11312 -1.01041 0
M  V30 4102 C 398.224 5.63997 -1.61629 0
M  V30 4103 C 400.576 5.98651 -2.0445 0
M  V30 4104 C 399.24 6.24688 -2.35204 0
M  V30 4105 H 398.51 0.728233 0.136961 0
M  V30 4106 H 401.157 1.88122 -0.358087 0
M  V30 4107 H 399.462 3.55985 1.63651 0
M  V30 4108 H 401.159 3.78721 1.31799 0
M  V30 4109 H 397.749 4.28592 -0.026136 0
M  V30 4110 H 401.933 4.89953 -0.791177 0
M  V30 4111 H 397.189 5.82425 -1.85988 0
M  V30 4112 H 401.363 6.45135 -2.62248 0
M  V30 4113 H 398.99 6.91281 -3.16282 0
M  V30 4114 N 400.565 -0.0233959 1.57583 0
M  V30 4115 C 401.812 -0.713063 1.8953 0
M  V30 4116 C 402.14 -1.75056 0.847673 0
M  V30 4117 O 401.395 -1.95119 -0.150636 0
M  V30 4118 C 401.694 -1.41428 3.28227 0
M  V30 4119 C 401.36 -0.512222 4.47981 0
M  V30 4120 C 400.022 -0.263785 4.80476 0
M  V30 4121 C 402.374 0.110248 5.21083 0
M  V30 4122 C 399.702 0.615804 5.83459 0
M  V30 4123 C 402.054 0.977573 6.25001 0
M  V30 4124 C 400.718 1.23542 6.55968 0
M  V30 4125 H 399.988 -0.260928 0.69354 0
M  V30 4126 H 402.635 0.0271047 1.91481 0
M  V30 4127 H 400.94 -2.22791 3.22291 0
M  V30 4128 H 402.637 -1.95355 3.50196 0
M  V30 4129 H 399.227 -0.716013 4.22577 0
M  V30 4130 H 403.411 -0.0687137 4.96252 0
M  V30 4131 H 398.667 0.82382 6.05824 0
M  V30 4132 H 402.841 1.46638 6.80786 0
M  V30 4133 H 400.468 1.91871 7.35588 0
M  V30 4134 N 402.043 -1.548 -0.295768 0
M  V30 4135 C 402.99 -1.86113 -1.36494 0
M  V30 4136 C 403.96 -0.7105 -1.50137 0
M  V30 4137 O 405.145 -0.959626 -1.64912 0
M  V30 4138 C 402.285 -2.11861 -2.72413 0
M  V30 4139 C 401.398 -3.39471 -2.67177 0
M  V30 4140 C 400.533 -3.55035 -3.95125 0
M  V30 4141 C 399.572 -4.76418 -3.84308 0
M  V30 4142 N 398.709 -4.8876 -5.04042 0
M  V30 4143 H 403.549 -2.77314 -1.09091 0
M  V30 4144 H 401.086 -1.37315 -0.52753 0
M  V30 4145 H 403.044 -2.24786 -3.51464 0
M  V30 4146 H 401.674 -1.2392 -2.98066 0
M  V30 4147 H 400.726 -3.35139 -1.79962 0
M  V30 4148 H 402.038 -4.28646 -2.55076 0
M  V30 4149 H 401.192 -3.67653 -4.82614 0
M  V30 4150 H 399.931 -2.64002 -4.10066 0
M  V30 4151 H 398.936 -4.63827 -2.95202 0
M  V30 4152 H 400.161 -5.68863 -3.70906 0
M  V30 4153 H 398.107 -4.00652 -5.19436 0
M  V30 4154 H 398.024 -5.71945 -4.94384 0
M  V30 4155 H 399.292 -5.0574 -5.93167 0
M  V30 4156 N 403.521 0.559213 -1.47345 0
M  V30 4157 C 404.484 1.64854 -1.59235 0
M  V30 4158 C 405.484 1.53851 -0.467607 0
M  V30 4159 O 406.674 1.58045 -0.732617 0
M  V30 4160 C 403.806 3.04388 -1.53496 0
M  V30 4161 H 404.999 1.55662 -2.56339 0
M  V30 4162 H 402.552 0.778973 -1.35505 0
M  V30 4163 H 403.287 3.19115 -0.577604 0
M  V30 4164 H 403.072 3.13783 -2.35123 0
M  V30 4165 H 404.562 3.83642 -1.6495 0
M  V30 4166 N 404.999 1.35443 0.805782 0
M  V30 4167 C 406.224 1.32037 1.59941 0
M  V30 4168 C 406.649 -0.0994215 1.87837 0
M  V30 4169 O 406.007 -1.06648 1.46615 0
M  V30 4170 C 406.055 2.13354 2.90711 0
M  V30 4171 O 405.159 1.5148 3.83572 0
M  V30 4172 H 404.5 0.452666 0.485787 0
M  V30 4173 H 407.03 1.78496 1.00002 0
M  V30 4174 H 407.04 2.25338 3.40128 0
M  V30 4175 H 405.715 3.16572 2.69732 0
M  V30 4176 H 404.292 1.4834 3.42125 0
M  V30 4177 N 406.477 -1.02803 1.19454 0
M  V30 4178 C 407.725 -1.75869 0.995722 0
M  V30 4179 C 408.046 -1.89138 -0.474543 0
M  V30 4180 O 407.316 -1.42558 -1.34366 0
M  V30 4181 H 405.896 -0.651511 0.365435 0
M  V30 4182 H 408.558 -1.24004 1.50363 0
M  V30 4183 H 407.654 -2.76661 1.44447 0
M  V30 4184 N 407.956 -0.998596 -1.21925 0
M  V30 4185 C 409.203 -0.677663 -1.90824 0
M  V30 4186 C 409.531 0.790905 -1.77693 0
M  V30 4187 O 408.786 1.58817 -1.14349 0
M  V30 4188 C 409.085 -1.03648 -3.42041 0
M  V30 4189 C 408.751 -2.49825 -3.75364 0
M  V30 4190 C 407.413 -2.8977 -3.8417 0
M  V30 4191 C 409.765 -3.44545 -3.91073 0
M  V30 4192 C 407.093 -4.23412 -4.06127 0
M  V30 4193 C 409.445 -4.77853 -4.14535 0
M  V30 4194 C 408.109 -5.17531 -4.21566 0
M  V30 4195 H 407.379 -0.247975 -0.698276 0
M  V30 4196 H 410.026 -1.25584 -1.44571 0
M  V30 4197 H 408.331 -0.376457 -3.89987 0
M  V30 4198 H 410.028 -0.766113 -3.93614 0
M  V30 4199 H 406.618 -2.17866 -3.69097 0
M  V30 4200 H 410.802 -3.14853 -3.83642 0
M  V30 4201 H 406.058 -4.53734 -4.09799 0
M  V30 4202 H 410.232 -5.51189 -4.25633 0
M  V30 4203 H 407.859 -6.21102 -4.38333 0
M  V30 4204 N 409.434 1.37368 -0.772513 0
M  V30 4205 C 410.85 1.53059 -0.452231 0
M  V30 4206 C 411.05 1.73065 1.03203 0
M  V30 4207 O 410.106 1.75245 1.81784 0
M  V30 4208 C 411.419 2.72659 -1.26797 0
M  V30 4209 C 412.967 2.86521 -1.25995 0
M  V30 4210 C 413.442 4.09105 -2.05905 0
M  V30 4211 N 414.933 4.16219 -2.03263 0
M  V30 4212 C 415.668 5.10107 -2.61875 0
M  V30 4213 N 415.164 6.09547 -3.29278 0
M  V30 4214 N 416.957 5.02596 -2.51701 0
M  V30 4215 H 409.108 1.22634 -1.7342 0
M  V30 4216 H 411.371 0.597206 -0.736239 0
M  V30 4217 H 411.077 2.64343 -2.31982 0
M  V30 4218 H 410.951 3.66363 -0.897672 0
M  V30 4219 H 413.338 2.94308 -0.216081 0
M  V30 4220 H 413.419 1.93774 -1.66989 0
M  V30 4221 H 413.063 4.0208 -3.10313 0
M  V30 4222 H 412.993 5.00968 -1.62292 0
M  V30 4223 H 415.484 3.45012 -1.54192 0
M  V30 4224 H 415.797 6.77718 -3.71374 0
M  V30 4225 H 414.142 6.09824 -3.33377 0
M  V30 4226 H 417.333 4.23855 -1.98657 0
M  V30 4227 H 417.506 5.75582 -2.97673 0
M  V30 4228 N 410.912 0.523116 1.48665 0
M  V30 4229 C 411.875 -0.232592 2.28017 0
M  V30 4230 C 412.875 -0.874021 1.34972 0
M  V30 4231 O 414.065 -0.735132 1.57929 0
M  V30 4232 C 411.197 -1.33586 3.13636 0
M  V30 4233 H 412.39 0.464008 2.96289 0
M  V30 4234 H 409.943 0.278816 1.53793 0
M  V30 4235 H 410.678 -2.06593 2.4998 0
M  V30 4236 H 410.463 -0.881125 3.82071 0
M  V30 4237 H 411.953 -1.86759 3.73511 0
M  V30 4238 N 412.39 -1.55475 0.257931 0
M  V30 4239 C 413.353 -2.20551 -0.623706 0
M  V30 4240 C 414.353 -1.17809 -1.09443 0
M  V30 4241 O 415.543 -1.42823 -0.997362 0
M  V30 4242 C 412.675 -2.85784 -1.8585 0
M  V30 4243 H 413.868 -2.99848 -0.0557743 0
M  V30 4244 H 411.421 -1.56298 0.0084422 0
M  V30 4245 H 412.156 -2.10453 -2.46739 0
M  V30 4246 H 411.941 -3.61057 -1.52907 0
M  V30 4247 H 413.431 -3.35553 -2.48584 0
M  V30 4248 N 413.868 0.0150385 -1.57593 0
M  V30 4249 C 415.115 0.703001 -1.89906 0
M  V30 4250 C 415.443 1.74604 -0.856944 0
M  V30 4251 O 414.698 1.95197 0.140287 0
M  V30 4252 C 414.997 1.39686 -3.28972 0
M  V30 4253 C 414.663 0.488457 -4.48246 0
M  V30 4254 C 413.325 0.2383 -4.8061 0
M  V30 4255 C 415.677 -0.137881 -5.21018 0
M  V30 4256 C 413.005 -0.646738 -5.83125 0
M  V30 4257 C 415.357 -1.0107 -6.24474 0
M  V30 4258 C 414.021 -1.27019 -6.55303 0
M  V30 4259 H 413.291 0.257246 -0.694914 0
M  V30 4260 H 415.938 -0.037259 -1.91464 0
M  V30 4261 H 414.243 2.21079 -3.23468 0
M  V30 4262 H 415.94 1.93495 -3.51227 0
M  V30 4263 H 412.53 0.693593 -4.22951 0
M  V30 4264 H 416.714 0.0423953 -4.96282 0
M  V30 4265 H 411.97 -0.855937 -6.05379 0
M  V30 4266 H 416.144 -1.50247 -6.79999 0
M  V30 4267 H 413.771 -1.95769 -7.3456 0
M  V30 4268 N 415.346 1.54954 0.287554 0
M  V30 4269 C 416.256 1.8991 1.37736 0
M  V30 4270 C 417.272 0.794701 1.54792 0
M  V30 4271 O 418.448 1.09243 1.69198 0
M  V30 4272 C 415.513 2.15108 2.71899 0
M  V30 4273 C 414.574 3.38752 2.63715 0
M  V30 4274 C 413.807 3.62739 3.91479 0
M  V30 4275 O 414.03 2.89492 4.91478 0
M  V30 4276 O 412.964 4.56267 3.92561 0
M  V30 4277 H 416.79 2.82652 1.11092 0
M  V30 4278 H 414.375 1.41315 0.484807 0
M  V30 4279 H 416.257 2.32806 3.51254 0
M  V30 4280 H 414.932 1.25551 2.9836 0
M  V30 4281 H 413.839 3.26405 1.82786 0
M  V30 4282 H 415.172 4.28483 2.42205 0
M  V30 4283 N 416.824 -0.551391 1.4764 0
M  V30 4284 C 418.101 -1.31229 1.45046 0
M  V30 4285 C 418.481 -2.10563 0.150527 0
M  V30 4286 O 417.829 -2.11374 -0.867956 0
M  V30 4287 C 418.039 -2.21189 2.69956 0
M  V30 4288 C 419.387 -2.82021 3.1741 0
M  V30 4289 O 420.411 -2.31488 2.70724 0
M  V30 4290 O 419.27 -3.73885 3.98588 0
M  V30 4291 H 416.364 -0.591193 0.578291 0
M  V30 4292 H 418.91 -0.569813 1.59847 0
M  V30 4293 H 417.682 -1.62207 3.56096 0
M  V30 4294 H 417.305 -3.02722 2.57769 0
M  V30 4295 N 418.302 -1.35869 -0.798587 0
M  V30 4296 C 419.249 -1.29446 -1.91082 0
M  V30 4297 C 420.219 -0.16487 -1.6528 0
M  V30 4298 O 421.404 -0.349888 -1.87564 0
M  V30 4299 C 418.544 -1.0804 -3.27752 0
M  V30 4300 C 417.657 -2.29993 -3.65687 0
M  V30 4301 C 416.792 -2.01673 -4.91428 0
M  V30 4302 C 415.831 -3.19636 -5.22015 0
M  V30 4303 N 414.968 -2.91039 -6.38937 0
M  V30 4304 H 419.808 -2.24553 -1.95907 0
M  V30 4305 H 417.345 -1.11615 -0.958148 0
M  V30 4306 H 419.303 -0.936586 -4.06551 0
M  V30 4307 H 417.933 -0.16592 -3.22373 0
M  V30 4308 H 416.985 -2.55211 -2.82085 0
M  V30 4309 H 418.297 -3.18052 -3.84245 0
M  V30 4310 H 417.451 -1.84168 -5.78072 0
M  V30 4311 H 416.19 -1.10911 -4.74921 0
M  V30 4312 H 415.195 -3.37709 -4.33858 0
M  V30 4313 H 416.42 -4.11211 -5.40447 0
M  V30 4314 H 414.366 -2.0288 -6.2384 0
M  V30 4315 H 414.283 -3.72635 -6.57784 0
M  V30 4316 H 415.551 -2.77093 -7.28587 0
M  V30 4317 N 419.78 1.02168 -1.19998 0
M  V30 4318 C 421.028 1.75338 -1.00504 0
M  V30 4319 C 421.349 1.89387 0.464506 0
M  V30 4320 O 420.619 1.43268 1.33608 0
M  V30 4321 H 419.199 0.649564 -0.368885 0
M  V30 4322 H 421.861 1.23205 -1.51018 0
M  V30 4323 H 420.957 2.75892 -1.45912 0
M  V30 4324 N 421.258 1.00505 1.21394 0
M  V30 4325 C 422.674 0.717873 1.42544 0
M  V30 4326 C 422.874 -0.706936 1.88692 0
M  V30 4327 O 421.93 -1.47627 2.04847 0
M  V30 4328 C 423.243 1.73377 2.45684 0
M  V30 4329 C 424.791 1.75059 2.59467 0
M  V30 4330 C 425.266 2.75545 3.6584 0
M  V30 4331 N 426.757 2.74213 3.73311 0
M  V30 4332 C 427.492 3.48626 4.55245 0
M  V30 4333 N 426.988 4.32678 5.41075 0
M  V30 4334 N 428.781 3.37276 4.49668 0
M  V30 4335 H 420.932 1.92506 0.897503 0
M  V30 4336 H 423.195 0.830919 0.456375 0
M  V30 4337 H 422.901 2.75395 2.18748 0
M  V30 4338 H 422.775 1.53647 3.44489 0
M  V30 4339 H 425.162 0.737337 2.8574 0
M  V30 4340 H 425.243 1.98861 1.60897 0
M  V30 4341 H 424.887 3.77028 3.40313 0
M  V30 4342 H 424.817 2.49009 4.64007 0
M  V30 4343 H 427.308 2.13234 3.11993 0
M  V30 4344 H 427.621 4.86253 6.00648 0
M  V30 4345 H 425.966 4.3676 5.40616 0
M  V30 4346 H 429.157 2.71043 3.81646 0
M  V30 4347 H 429.33 3.95524 5.13288 0
M  V30 4348 N 422.737 -1.36956 0.779787 0
M  V30 4349 C 423.984 -1.99491 0.347766 0
M  V30 4350 C 424.312 -1.61898 -1.07793 0
M  V30 4351 O 423.567 -0.86071 -1.75756 0
M  V30 4352 C 423.866 -3.54585 0.447686 0
M  V30 4353 C 423.532 -4.1197 1.83279 0
M  V30 4354 C 422.194 -4.27356 2.2118 0
M  V30 4355 C 424.546 -4.43354 2.74019 0
M  V30 4356 C 421.874 -4.71432 3.4924 0
M  V30 4357 C 424.226 -4.88858 4.01497 0
M  V30 4358 C 422.89 -5.0245 4.39432 0
M  V30 4359 H 422.16 -0.729991 0.127257 0
M  V30 4360 H 424.807 -1.63599 0.995376 0
M  V30 4361 H 423.112 -3.90773 -0.283447 0
M  V30 4362 H 424.809 -4.00888 0.0945948 0
M  V30 4363 H 421.399 -4.00428 1.52825 0
M  V30 4364 H 425.583 -4.31045 2.45995 0
M  V30 4365 H 420.839 -4.80141 3.78516 0
M  V30 4366 H 425.013 -5.12108 4.71931 0
M  V30 4367 H 422.64 -5.36362 5.38721 0
M  V30 4368 N 424.215 -0.530993 -1.48385 0
M  V30 4369 C 425.162 0.231223 -2.29639 0
M  V30 4370 C 426.132 0.932864 -1.37429 0
M  V30 4371 O 427.317 0.933692 -1.66394 0
M  V30 4372 C 424.457 1.27155 -3.2082 0
M  V30 4373 C 423.57 0.578655 -4.28107 0
M  V30 4374 C 422.705 1.602 -5.06467 0
M  V30 4375 C 421.744 0.892625 -6.05556 0
M  V30 4376 N 420.881 1.86157 -6.76971 0
M  V30 4377 H 425.721 -0.467848 -2.94305 0
M  V30 4378 H 423.258 -0.242556 -1.45086 0
M  V30 4379 H 425.216 1.88703 -3.72085 0
M  V30 4380 H 423.846 1.939 -2.58075 0
M  V30 4381 H 422.898 -0.150782 -3.80101 0
M  V30 4382 H 424.21 0.0217065 -4.98795 0
M  V30 4383 H 423.364 2.29173 -5.61751 0
M  V30 4384 H 422.103 2.19285 -4.35621 0
M  V30 4385 H 421.108 0.188829 -5.49476 0
M  V30 4386 H 422.333 0.307878 -6.78402 0
M  V30 4387 H 420.279 2.44147 -6.08875 0
M  V30 4388 H 420.196 1.35608 -7.43738 0
M  V30 4389 H 421.464 2.54325 -7.36844 0
M  V30 4390 N 425.693 1.55336 -0.266172 0
M  V30 4391 C 426.603 2.2583 0.635458 0
M  V30 4392 C 427.619 1.28106 1.17749 0
M  V30 4393 O 428.795 1.61024 1.20968 0
M  V30 4394 C 425.86 2.95879 1.80712 0
M  V30 4395 C 424.921 4.09059 1.30265 0
M  V30 4396 C 424.154 4.75759 2.41846 0
M  V30 4397 O 424.377 4.41622 3.61007 0
M  V30 4398 O 423.311 5.63888 2.1051 0
M  V30 4399 H 427.137 3.03631 0.0646693 0
M  V30 4400 H 424.722 1.49361 -0.0339177 0
M  V30 4401 H 426.604 3.39932 2.49047 0
M  V30 4402 H 425.279 2.21002 2.36516 0
M  V30 4403 H 424.186 3.69482 0.586019 0
M  V30 4404 H 425.519 4.85811 0.790458 0
M  V30 4405 N 427.171 -0.0066808 1.57599 0
M  V30 4406 C 428.401 -0.703066 1.94269 0
M  V30 4407 C 428.809 -1.68206 0.866222 0
M  V30 4408 O 428.152 -1.82966 -0.164087 0
M  V30 4409 C 428.214 -1.49616 3.26887 0
M  V30 4410 C 427.878 -0.679494 4.5192 0
M  V30 4411 C 428.875 0.0299508 5.19891 0
M  V30 4412 C 426.56 -0.627433 4.98366 0
M  V30 4413 C 428.554 0.780514 6.32603 0
M  V30 4414 C 426.241 0.126861 6.10968 0
M  V30 4415 C 427.239 0.829574 6.77943 0
M  V30 4416 O 426.927 1.57157 7.88389 0
M  V30 4417 H 426.659 -0.201217 0.645359 0
M  V30 4418 H 429.213 0.0385326 2.05364 0
M  V30 4419 H 427.443 -2.28209 3.12182 0
M  V30 4420 H 429.132 -2.07726 3.48719 0
M  V30 4421 H 429.898 -0.00115963 4.85 0
M  V30 4422 H 425.777 -1.16392 4.46065 0
M  V30 4423 H 429.321 1.32954 6.84813 0
M  V30 4424 H 425.218 0.159815 6.45302 0
M  V30 4425 H 425.986 1.48758 8.04868 0
M  V30 4426 N 428.649 -1.55105 -0.279332 0
M  V30 4427 C 429.895 -1.75672 -1.01327 0
M  V30 4428 C 430.228 -0.552739 -1.86168 0
M  V30 4429 O 429.503 0.449827 -1.89227 0
M  V30 4430 C 429.786 -3.05825 -1.90114 0
M  V30 4431 C 429.639 -4.36565 -1.08309 0
M  V30 4432 C 430.958 -3.31975 -2.8893 0
M  V30 4433 H 428.077 -0.639149 -0.366957 0
M  V30 4434 H 430.719 -1.87833 -0.286154 0
M  V30 4435 H 428.869 -2.95588 -2.52111 0
M  V30 4436 H 430.541 -4.58751 -0.484314 0
M  V30 4437 H 428.784 -4.32076 -0.386362 0
M  V30 4438 H 429.455 -5.23946 -1.73737 0
M  V30 4439 H 431.931 -3.41963 -2.37067 0
M  V30 4440 H 430.807 -4.2432 -3.48201 0
M  V30 4441 H 431.068 -2.51309 -3.63725 0
M  V30 4442 N 430.127 0.543554 -1.4793 0
M  V30 4443 C 431.077 1.64527 -1.57844 0
M  V30 4444 C 432.061 1.54869 -0.436408 0
M  V30 4445 O 433.253 1.63119 -0.687101 0
M  V30 4446 C 430.382 3.03281 -1.6086 0
M  V30 4447 C 429.468 3.18093 -2.80495 0
M  V30 4448 N 429.859 3.02923 -4.05057 0
M  V30 4449 C 428.157 3.49121 -2.77543 0
M  V30 4450 C 428.858 3.20791 -4.85251 0
M  V30 4451 N 427.834 3.47749 -4.17818 0
M  V30 4452 H 431.636 1.51388 -2.5191 0
M  V30 4453 H 429.15 0.748671 -1.44113 0
M  V30 4454 H 431.147 3.82403 -1.66054 0
M  V30 4455 H 429.807 3.17521 -0.678996 0
M  V30 4456 H 430.818 2.79966 -4.35705 0
M  V30 4457 H 427.495 3.69804 -1.93781 0
M  V30 4458 H 428.885 3.13915 -5.9406 0
M  V30 4459 N 431.605 1.3629 0.791371 0
M  V30 4460 C 432.882 1.20962 1.53712 0
M  V30 4461 C 433.262 -0.205021 2.10102 0
M  V30 4462 O 432.61 -1.21042 1.93807 0
M  V30 4463 C 432.82 2.29002 2.63361 0
M  V30 4464 C 434.168 2.65572 3.31295 0
M  V30 4465 O 435.192 2.2803 2.73643 0
M  V30 4466 O 434.051 3.3018 4.35481 0
M  V30 4467 H 431.145 0.47086 0.679867 0
M  V30 4468 H 433.691 1.48016 0.830021 0
M  V30 4469 H 432.463 3.2382 2.19674 0
M  V30 4470 H 432.086 2.03303 3.41692 0
M  V30 4471 N 433.083 -1.0153 1.20538 0
M  V30 4472 C 434.332 -1.74558 1.01057 0
M  V30 4473 C 434.645 -1.90168 -0.457756 0
M  V30 4474 O 435.851 -2.60301 -0.771722 0
M  V30 4475 C 434.307 -3.13963 1.75941 0
M  V30 4476 C 433.915 -3.06361 3.26875 0
M  V30 4477 C 435.659 -3.91191 1.64832 0
M  V30 4478 C 433.566 -4.40782 3.94291 0
M  V30 4479 H 432.496 -0.654417 0.374505 0
M  V30 4480 H 435.147 -1.13521 1.44171 0
M  V30 4481 H 433.529 -3.75549 1.25614 0
M  V30 4482 H 434.703 -2.54074 3.84425 0
M  V30 4483 H 433.018 -2.42625 3.38411 0
M  V30 4484 H 435.615 -4.90644 2.12539 0
M  V30 4485 H 435.958 -4.11884 0.604745 0
M  V30 4486 H 436.491 -3.36236 2.12579 0
M  V30 4487 H 433.23 -4.25292 4.98805 0
M  V30 4488 H 432.75 -4.9307 3.41529 0
M  V30 4489 H 434.429 -5.09621 3.98617 0
M  V30 4490 N 434.561 -1.01147 -1.20859 0
M  V30 4491 C 435.972 -0.730205 -1.71828 0
M  V30 4492 C 436.323 0.751662 -1.8123 0
M  V30 4493 O 435.448 1.58686 -1.47132 0
M  V30 4494 C 436.043 -1.31885 -3.12077 0
M  V30 4495 C 434.602 -1.08656 -3.60376 0
M  V30 4496 C 433.749 -1.42769 -2.37723 0
M  V30 4497 H 436.7 -1.18158 -1.05945 0
M  V30 4498 H 436.721 -0.706793 -3.73878 0
M  V30 4499 H 436.233 -2.39737 -3.05201 0
M  V30 4500 H 434.334 -0.0254814 -3.72591 0
M  V30 4501 H 434.447 -1.76301 -4.45483 0
M  V30 4502 H 432.811 -0.846603 -2.40218 0
M  V30 4503 H 433.594 -2.51666 -2.33493 0
M  V30 4504 N 436.039 1.36541 -0.78704 0
M  V30 4505 C 437.285 1.99599 -0.358872 0
M  V30 4506 C 437.618 1.62323 1.06606 0
M  V30 4507 O 436.893 0.876858 1.73613 0
M  V30 4508 C 437.176 3.56327 -0.519944 0
M  V30 4509 C 437.029 4.03464 -1.98839 0
M  V30 4510 C 438.348 4.4005 0.0664737 0
M  V30 4511 H 435.467 0.725107 -0.131869 0
M  V30 4512 H 438.109 1.6199 -0.992936 0
M  V30 4513 H 436.259 3.88495 0.0198321 0
M  V30 4514 H 437.931 3.81793 -2.58905 0
M  V30 4515 H 436.174 3.55092 -2.49183 0
M  V30 4516 H 436.845 5.12439 -2.05207 0
M  V30 4517 H 439.321 4.14228 -0.394267 0
M  V30 4518 H 438.197 5.48847 -0.0762682 0
M  V30 4519 H 438.458 4.26655 1.15835 0
M  V30 4520 N 437.518 0.538854 1.48102 0
M  V30 4521 C 438.748 0.0122958 2.06596 0
M  V30 4522 C 439.156 -1.27861 1.39457 0
M  V30 4523 O 438.499 -1.77348 0.478907 0
M  V30 4524 C 438.561 -0.273131 3.58461 0
M  V30 4525 C 438.225 0.92561 4.47528 0
M  V30 4526 C 439.222 1.82637 4.86765 0
M  V30 4527 C 436.907 1.13511 4.89306 0
M  V30 4528 C 438.901 2.92047 5.66558 0
M  V30 4529 C 436.588 2.23233 5.68868 0
M  V30 4530 C 437.586 3.12333 6.07402 0
M  V30 4531 O 437.274 4.20155 6.85365 0
M  V30 4532 H 437.006 0.0344283 0.675123 0
M  V30 4533 H 439.56 0.746494 1.91355 0
M  V30 4534 H 437.79 -1.06141 3.71848 0
M  V30 4535 H 439.479 -0.742842 3.99045 0
M  V30 4536 H 440.245 1.67649 4.55103 0
M  V30 4537 H 436.124 0.450835 4.5879 0
M  V30 4538 H 439.668 3.6162 5.96554 0
M  V30 4539 H 435.565 2.38201 5.99942 0
M  V30 4540 H 436.333 4.17975 7.03732 0
M  V30 4541 N 438.996 -1.55193 0.274407 0
M  V30 4542 C 439.926 -2.25471 -0.607032 0
M  V30 4543 C 440.907 -1.24461 -1.15946 0
M  V30 4544 O 442.092 -1.53179 -1.19373 0
M  V30 4545 C 439.222 -2.97526 -1.79153 0
M  V30 4546 C 438.176 -4.05459 -1.37067 0
M  V30 4547 C 437.502 -4.65084 -2.6382 0
M  V30 4548 C 438.802 -5.19691 -0.521389 0
M  V30 4549 H 440.496 -2.99393 -0.0209343 0
M  V30 4550 H 438.042 -1.43997 -0.00862866 0
M  V30 4551 H 439.995 -3.45402 -2.41404 0
M  V30 4552 H 438.719 -2.21138 -2.40344 0
M  V30 4553 H 437.378 -3.58393 -0.771355 0
M  V30 4554 H 437.026 -3.85365 -3.23268 0
M  V30 4555 H 436.726 -5.37961 -2.36372 0
M  V30 4556 H 438.25 -5.15708 -3.26921 0
M  V30 4557 H 439.664 -5.63623 -1.04889 0
M  V30 4558 H 438.061 -5.99126 -0.341825 0
M  V30 4559 H 439.131 -4.82713 0.46 0
M  V30 4560 N 440.474 -0.00167713 -1.576 0
M  V30 4561 C 441.723 0.682021 -1.89819 0
M  V30 4562 C 442.036 1.74844 -0.876871 0
M  V30 4563 O 443.242 2.48688 -1.08934 0
M  V30 4564 C 441.698 1.26425 -3.36964 0
M  V30 4565 C 441.306 0.232568 -4.47396 0
M  V30 4566 C 443.05 1.92604 -3.78291 0
M  V30 4567 C 440.957 0.824882 -5.85619 0
M  V30 4568 H 439.887 0.258499 -0.708304 0
M  V30 4569 H 442.538 -0.0624957 -1.83394 0
M  V30 4570 H 440.92 2.05949 -3.38232 0
M  V30 4571 H 442.094 -0.5382 -4.57646 0
M  V30 4572 H 440.409 -0.32888 -4.15099 0
M  V30 4573 H 443.006 2.37827 -4.78897 0
M  V30 4574 H 443.349 2.75732 -3.11894 0
M  V30 4575 H 443.882 1.19812 -3.79328 0
M  V30 4576 H 440.621 0.0323542 -6.55492 0
M  V30 4577 H 440.141 1.56477 -5.79029 0
M  V30 4578 H 441.82 1.32301 -6.33329 0
M  V30 4579 N 441.952 1.55251 0.271103 0
M  V30 4580 C 443.198 1.76207 1.00394 0
M  V30 4581 C 443.531 0.562604 1.85872 0
M  V30 4582 O 442.806 -0.439785 1.89463 0
M  V30 4583 C 443.089 3.06828 1.8849 0
M  V30 4584 C 442.942 4.37134 1.05992 0
M  V30 4585 C 444.261 3.33503 2.87165 0
M  V30 4586 H 441.38 0.641086 0.363562 0
M  V30 4587 H 444.022 1.87982 0.276189 0
M  V30 4588 H 442.172 2.96921 2.5054 0
M  V30 4589 H 443.844 4.59001 0.459978 0
M  V30 4590 H 442.087 4.32275 0.363443 0
M  V30 4591 H 442.758 5.2486 1.70955 0
M  V30 4592 H 445.234 3.43215 2.3525 0
M  V30 4593 H 444.11 4.2616 3.45946 0
M  V30 4594 H 444.371 2.53235 3.62387 0
M  V30 4595 N 443.43 -0.535701 1.48216 0
M  V30 4596 C 444.38 -1.63688 1.58714 0
M  V30 4597 C 445.364 -1.54635 0.444615 0
M  V30 4598 O 446.556 -1.62753 0.695742 0
M  V30 4599 C 443.685 -3.02423 1.62466 0
M  V30 4600 C 442.771 -3.16601 2.82178 0
M  V30 4601 N 443.162 -3.00771 4.06658 0
M  V30 4602 C 441.46 -3.47645 2.79391 0
M  V30 4603 C 442.161 -3.18213 4.86945 0
M  V30 4604 N 441.137 -3.45528 4.19656 0
M  V30 4605 H 444.939 -1.5005 2.5271 0
M  V30 4606 H 442.453 -0.741018 1.44508 0
M  V30 4607 H 444.45 -3.81517 1.6808 0
M  V30 4608 H 443.11 -3.17157 0.695826 0
M  V30 4609 H 444.121 -2.77652 4.37184 0
M  V30 4610 H 440.798 -3.68771 1.95739 0
M  V30 4611 H 442.188 -3.1076 5.95716 0
M  V30 4612 N 444.908 -1.36708 -0.784132 0
M  V30 4613 C 446.185 -1.21776 -1.53069 0
M  V30 4614 C 446.565 0.193876 -2.10208 0
M  V30 4615 O 445.913 1.20012 -1.94446 0
M  V30 4616 C 446.123 -2.30395 -2.62143 0
M  V30 4617 C 447.471 -2.67325 -3.29882 0
M  V30 4618 O 448.495 -2.29478 -2.7243 0
M  V30 4619 O 447.354 -3.32485 -4.33724 0
M  V30 4620 H 444.448 -0.474459 -0.677361 0
M  V30 4621 H 446.994 -1.48454 -0.82216 0
M  V30 4622 H 445.766 -3.2498 -2.17953 0
M  V30 4623 H 445.389 -2.05112 -3.40609 0
M  V30 4624 N 446.386 1.0089 -1.21074 0
M  V30 4625 C 447.334 2.11707 -0.963476 0
M  V30 4626 C 448.328 1.69172 0.0879032 0
M  V30 4627 O 449.534 1.79889 -0.0631415 0
M  V30 4628 H 445.909 0.692026 -0.294287 0
M  V30 4629 H 447.88 2.29743 -1.90422 0
M  V30 4630 C 446.629 3.43473 -0.540509 0
M  V30 4631 H 445.952 3.76634 -1.34114 0
M  V30 4632 H 447.392 4.22044 -0.406777 0
M  V30 4633 C 445.851 3.2849 0.748079 0
M  V30 4634 O 446.381 3.58883 1.8046 0
M  V30 4635 N 444.587 2.81715 0.713081 0
M  V30 4636 H 444.134 2.5718 -0.146973 0
M  V30 4637 H 444.092 2.72071 1.57558 0
M  V30 4638 N 447.864 1.01787 1.20321 0
M  V30 4639 C 449.275 0.739307 1.71438 0
M  V30 4640 C 449.626 -0.742041 1.81627 0
M  V30 4641 O 448.751 -1.57903 1.47971 0
M  V30 4642 C 449.346 1.33538 3.11373 0
M  V30 4643 C 447.905 1.10566 3.59795 0
M  V30 4644 C 447.052 1.44028 2.36962 0
M  V30 4645 H 450.003 1.18718 1.05317 0
M  V30 4646 H 450.024 0.726611 3.73498 0
M  V30 4647 H 449.536 2.41352 3.03926 0
M  V30 4648 H 447.637 0.0452405 3.72573 0
M  V30 4649 H 447.75 1.78661 4.44542 0
M  V30 4650 H 446.114 0.85933 2.39766 0
M  V30 4651 H 446.897 2.52901 2.32155 0
M  V30 4652 N 449.342 -1.36122 0.79427 0
M  V30 4653 C 450.59 -1.98718 0.368177 0
M  V30 4654 C 450.911 -1.63345 -1.06506 0
M  V30 4655 O 450.181 -0.909825 -1.73491 0
M  V30 4656 H 448.761 -0.735038 0.133146 0
M  V30 4657 H 451.423 -1.66239 1.01739 0
M  V30 4658 H 450.519 -3.08633 0.463923 0
M  V30 4659 N 450.82 -0.546701 -1.47814 0
M  V30 4660 C 451.75 0.195317 -2.32682 0
M  V30 4661 C 452.731 0.918981 -1.43139 0
M  V30 4662 O 453.916 0.901501 -1.72008 0
M  V30 4663 C 451.046 1.23237 -3.247 0
M  V30 4664 C 450 0.625818 -4.234 0
M  V30 4665 C 449.326 1.76674 -5.04669 0
M  V30 4666 C 450.626 -0.413515 -5.2066 0
M  V30 4667 H 452.32 -0.513184 -2.94969 0
M  V30 4668 H 449.866 -0.248241 -1.41844 0
M  V30 4669 H 451.819 1.75955 -3.82907 0
M  V30 4670 H 450.543 1.97067 -2.60446 0
M  V30 4671 H 449.202 0.120023 -3.66403 0
M  V30 4672 H 448.85 2.49383 -4.36826 0
M  V30 4673 H 448.55 1.36673 -5.71484 0
M  V30 4674 H 450.074 2.29738 -5.65732 0
M  V30 4675 H 451.488 0.0272042 -5.73294 0
M  V30 4676 H 449.885 -0.731825 -5.95621 0
M  V30 4677 H 450.955 -1.31325 -4.66778 0
M  V30 4678 N 452.299 1.55045 -0.282633 0
M  V30 4679 C 453.229 2.2579 0.595066 0
M  V30 4680 C 454.21 1.25074 1.15284 0
M  V30 4681 O 455.395 1.5381 1.18559 0
M  V30 4682 C 452.525 2.98472 1.77572 0
M  V30 4683 C 451.479 4.0618 1.34914 0
M  V30 4684 C 450.805 4.66477 2.6135 0
M  V30 4685 C 452.105 5.1996 0.493821 0
M  V30 4686 H 453.799 2.994 0.00505653 0
M  V30 4687 H 451.345 1.44 0.000992001 0
M  V30 4688 H 453.298 3.46677 2.39568 0
M  V30 4689 H 452.022 2.2241 2.39168 0
M  V30 4690 H 450.681 3.58797 0.752338 0
M  V30 4691 H 450.329 3.87074 3.2122 0
M  V30 4692 H 450.029 5.39207 2.33516 0
M  V30 4693 H 451.553 5.17435 3.24181 0
M  V30 4694 H 452.967 5.64172 1.01898 0
M  V30 4695 H 451.364 5.99299 0.310047 0
M  V30 4696 H 452.434 4.82462 -0.485593 0
M  V30 4697 N 453.777 0.010035 1.57597 0
M  V30 4698 C 455.025 -0.671371 1.90623 0
M  V30 4699 C 455.346 -1.73753 0.885151 0
M  V30 4700 O 454.616 -1.95752 -0.0760611 0
M  V30 4701 H 453.196 -0.250968 0.703579 0
M  V30 4702 H 455.858 0.0533325 1.94827 0
M  V30 4703 H 454.954 -1.13626 2.90681 0
M  V30 4704 N 455.255 -1.55392 -0.262866 0
M  V30 4705 C 456.48 -1.80847 -1.01533 0
M  V30 4706 C 456.905 -0.584946 -1.78774 0
M  V30 4707 O 456.263 0.465701 -1.75217 0
M  V30 4708 C 456.311 -3.03866 -1.94159 0
M  V30 4709 O 455.415 -2.79662 -3.03089 0
M  V30 4710 H 454.756 -0.597441 -0.289759 0
M  V30 4711 H 457.286 -2.02553 -0.288698 0
M  V30 4712 H 457.296 -3.32872 -2.35924 0
M  V30 4713 H 455.971 -3.92564 -1.37354 0
M  V30 4714 H 454.548 -2.61781 -2.65566 0
M  V30 4715 N 456.733 0.527833 -1.48498 0
M  V30 4716 C 457.981 1.28101 -1.56316 0
M  V30 4717 C 458.302 1.9352 -0.239781 0
M  V30 4718 O 457.572 1.81433 0.738849 0
M  V30 4719 H 456.152 0.475793 -0.575873 0
M  V30 4720 H 458.814 0.614052 -1.84974 0
M  V30 4721 H 457.91 2.05916 -2.34532 0
M  V30 4722 N 458.211 1.37122 0.776871 0
M  V30 4723 C 459.174 1.32301 1.8716 0
M  V30 4724 C 460.174 0.228099 1.59174 0
M  V30 4725 O 461.364 0.483642 1.67352 0
M  V30 4726 C 458.496 1.054 3.24197 0
M  V30 4727 H 459.689 2.29673 1.92848 0
M  V30 4728 H 457.242 1.22077 0.97606 0
M  V30 4729 H 457.977 0.0853872 3.24188 0
M  V30 4730 H 457.762 1.84648 3.45901 0
M  V30 4731 H 459.252 1.04664 4.04271 0
M  V30 4732 N 459.689 -1.00246 1.21608 0
M  V30 4733 C 460.639 -2.07492 0.945051 0
M  V30 4734 C 461.623 -1.60585 -0.100675 0
M  V30 4735 O 462.815 -1.76667 0.10859 0
M  V30 4736 C 459.944 -3.39425 0.514342 0
M  V30 4737 C 459.03 -3.92993 1.59428 0
M  V30 4738 N 459.421 -4.19898 2.81991 0
M  V30 4739 C 457.719 -4.21297 1.46374 0
M  V30 4740 C 458.42 -4.63297 3.51754 0
M  V30 4741 N 457.396 -4.66421 2.79199 0
M  V30 4742 H 461.198 -2.26222 1.87619 0
M  V30 4743 H 458.712 -1.18339 1.11219 0
M  V30 4744 H 460.709 -4.15808 0.301527 0
M  V30 4745 H 459.369 -3.22101 -0.410008 0
M  V30 4746 H 460.38 -4.08377 3.1851 0
M  V30 4747 H 457.057 -4.13095 0.604863 0
M  V30 4748 H 458.447 -4.92816 4.56708 0
M  V30 4749 N 461.167 -1.02423 -1.1978 0
M  V30 4750 C 462.097 -0.62157 -2.25075 0
M  V30 4751 C 463.078 0.367148 -1.6609 0
M  V30 4752 O 464.263 0.250892 -1.92573 0
M  V30 4753 C 461.393 0.0331826 -3.47284 0
M  V30 4754 C 460.347 -0.877323 -4.18912 0
M  V30 4755 C 459.673 -0.0879296 -5.34628 0
M  V30 4756 C 460.973 -2.18892 -4.74219 0
M  V30 4757 H 462.667 -1.50179 -2.59011 0
M  V30 4758 H 460.213 -0.723547 -1.24502 0
M  V30 4759 H 462.166 0.326488 -4.20133 0
M  V30 4760 H 460.89 0.948164 -3.12534 0
M  V30 4761 H 459.549 -1.15475 -3.47938 0
M  V30 4762 H 459.197 0.828941 -4.96123 0
M  V30 4763 H 458.897 -0.694359 -5.83483 0
M  V30 4764 H 460.421 0.198743 -6.10276 0
M  V30 4765 H 461.835 -1.95746 -5.38847 0
M  V30 4766 H 460.232 -2.74686 -5.33542 0
M  V30 4767 H 461.302 -2.84674 -3.92541 0
M  V30 4768 N 462.645 1.35699 -0.801477 0
M  V30 4769 C 464.061 1.52065 -0.484596 0
M  V30 4770 C 464.261 1.75215 0.995084 0
M  V30 4771 O 463.317 1.79061 1.78026 0
M  V30 4772 C 464.63 2.69908 -1.32552 0
M  V30 4773 C 466.178 2.83784 -1.32044 0
M  V30 4774 C 466.653 4.04646 -2.14536 0
M  V30 4775 N 468.144 4.11814 -2.12046 0
M  V30 4776 C 468.879 5.04437 -2.72636 0
M  V30 4777 N 468.375 6.02426 -3.42133 0
M  V30 4778 N 470.168 4.97144 -2.62305 0
M  V30 4779 H 462.319 1.18928 -1.75983 0
M  V30 4780 H 464.582 0.581455 -0.748741 0
M  V30 4781 H 464.288 2.59363 -2.37537 0
M  V30 4782 H 464.162 3.64376 -0.975181 0
M  V30 4783 H 466.549 2.93783 -0.27846 0
M  V30 4784 H 466.63 1.90188 -1.71062 0
M  V30 4785 H 466.274 3.95407 -3.18772 0
M  V30 4786 H 466.204 4.97413 -1.72882 0
M  V30 4787 H 468.695 3.41664 -1.61476 0
M  V30 4788 H 469.008 6.69688 -3.85666 0
M  V30 4789 H 467.353 6.02615 -3.46237 0
M  V30 4790 H 470.544 4.19546 -2.07603 0
M  V30 4791 H 470.717 5.69138 -3.09815 0
M  V30 4792 N 464.123 0.554532 1.47522 0
M  V30 4793 C 465.055 -0.232106 2.28022 0
M  V30 4794 C 466.068 -0.881865 1.36847 0
M  V30 4795 O 467.257 -0.756168 1.61692 0
M  V30 4796 C 464.357 -1.34604 3.11022 0
M  V30 4797 C 463.53 -0.793582 4.30141 0
M  V30 4798 C 462.589 -1.79168 4.94758 0
M  V30 4799 O 461.615 -1.33886 5.5323 0
M  V30 4800 N 462.817 -3.12495 4.89211 0
M  V30 4801 H 465.582 0.458407 2.96173 0
M  V30 4802 H 463.143 0.390433 1.57122 0
M  V30 4803 H 465.135 -2.01243 3.51118 0
M  V30 4804 H 463.705 -1.93983 2.45131 0
M  V30 4805 H 462.925 0.0495025 3.94169 0
M  V30 4806 H 464.213 -0.403776 5.07195 0
M  V30 4807 H 463.611 -3.51931 4.42901 0
M  V30 4808 H 462.168 -3.74698 5.33333 0
M  V30 4809 N 465.601 -1.54893 0.290851 0
M  V30 4810 C 466.829 -2.04343 -0.324288 0
M  V30 4811 C 467.244 -1.16859 -1.48289 0
M  V30 4812 O 466.601 -0.192018 -1.81487 0
M  V30 4813 C 466.652 -3.52756 -0.79026 0
M  V30 4814 O 466.373 -4.36913 0.322213 0
M  V30 4815 C 467.874 -4.18161 -1.4716 0
M  V30 4816 H 465.094 -0.667135 -0.0719173 0
M  V30 4817 H 467.638 -1.99981 0.427529 0
M  V30 4818 H 465.793 -3.57511 -1.49213 0
M  V30 4819 H 466.207 -5.24486 -0.0387372 0
M  V30 4820 H 467.681 -5.23562 -1.7489 0
M  V30 4821 H 468.158 -3.67282 -2.40834 0
M  V30 4822 H 468.764 -4.17454 -0.813178 0
M  V30 4823 N 467.08 -0.0183926 -1.57589 0
M  V30 4824 C 468.01 0.965596 -2.12599 0
M  V30 4825 C 468.991 1.34641 -1.0395 0
M  V30 4826 O 470.176 1.42693 -1.31729 0
M  V30 4827 C 467.306 2.25149 -2.64434 0
M  V30 4828 C 466.26 2.01175 -3.77773 0
M  V30 4829 C 465.586 3.35937 -4.15994 0
M  V30 4830 C 466.886 1.35953 -5.04296 0
M  V30 4831 H 468.58 0.507504 -2.95067 0
M  V30 4832 H 466.126 0.242671 -1.41941 0
M  V30 4833 H 468.079 2.94357 -3.01549 0
M  V30 4834 H 466.803 2.73105 -1.79112 0
M  V30 4835 H 465.462 1.34388 -3.4108 0
M  V30 4836 H 465.11 3.81631 -3.27669 0
M  V30 4837 H 464.81 3.20705 -4.92364 0
M  V30 4838 H 466.334 4.0643 -4.55683 0
M  V30 4839 H 467.748 1.95144 -5.39065 0
M  V30 4840 H 466.145 1.31152 -5.85593 0
M  V30 4841 H 467.215 0.331071 -4.83768 0
M  V30 4842 N 468.558 1.5553 0.254621 0
M  V30 4843 C 469.806 1.7665 0.981793 0
M  V30 4844 C 470.127 0.580963 1.86145 0
M  V30 4845 O 469.397 -0.403537 1.91699 0
M  V30 4846 H 467.977 0.651475 0.365498 0
M  V30 4847 H 470.639 1.92958 0.274426 0
M  V30 4848 H 469.735 2.67486 1.60802 0
M  V30 4849 N 470.036 -0.519951 1.48776 0
M  V30 4850 C 470.986 -1.61995 1.60442 0
M  V30 4851 C 471.97 -1.54155 0.460991 0
M  V30 4852 O 473.162 -1.62006 0.712965 0
M  V30 4853 C 470.291 -3.00683 1.65664 0
M  V30 4854 C 469.377 -3.1359 2.8552 0
M  V30 4855 N 469.768 -2.96441 4.09825 0
M  V30 4856 C 468.066 -3.44662 2.83062 0
M  V30 4857 C 468.767 -3.1303 4.90293 0
M  V30 4858 N 467.743 -3.41058 4.23297 0
M  V30 4859 H 471.545 -1.47362 2.54287 0
M  V30 4860 H 469.059 -0.725649 1.45286 0
M  V30 4861 H 471.056 -3.79712 1.72117 0
M  V30 4862 H 469.716 -3.16401 0.729425 0
M  V30 4863 H 470.727 -2.72999 4.40104 0
M  V30 4864 H 467.404 -3.66675 1.9964 0
M  V30 4865 H 468.794 -3.04424 5.98979 0
M  V30 4866 N 471.514 -1.37532 -0.769588 0
M  V30 4867 C 472.763 -1.32183 -1.5235 0
M  V30 4868 C 473.076 0.0906555 -1.9539 0
M  V30 4869 O 474.282 0.266628 -2.70188 0
M  V30 4870 C 472.738 -2.32029 -2.75119 0
M  V30 4871 C 472.346 -3.78816 -2.3917 0
M  V30 4872 C 474.09 -2.35694 -3.53056 0
M  V30 4873 C 471.997 -4.70388 -3.58453 0
M  V30 4874 H 470.927 -0.491275 -0.571984 0
M  V30 4875 H 473.578 -1.63004 -0.842739 0
M  V30 4876 H 471.96 -1.94229 -3.45096 0
M  V30 4877 H 473.134 -4.25466 -1.76962 0
M  V30 4878 H 471.449 -3.78117 -1.74402 0
M  V30 4879 H 474.046 -3.01312 -4.41718 0
M  V30 4880 H 474.389 -1.37117 -3.93071 0
M  V30 4881 H 474.922 -2.72212 -2.90078 0
M  V30 4882 H 471.661 -5.70102 -3.23518 0
M  V30 4883 H 471.181 -4.28442 -4.19758 0
M  V30 4884 H 472.86 -4.87628 -4.25239 0
M  V30 4885 N 472.992 0.995999 -1.22138 0
M  V30 4886 C 473.922 2.10387 -1.01289 0
M  V30 4887 C 474.903 1.69975 0.0651454 0
M  V30 4888 O 476.088 1.9396 -0.0964628 0
M  V30 4889 C 473.218 3.42312 -0.586517 0
M  V30 4890 C 472.172 3.96558 -1.61014 0
M  V30 4891 C 471.498 5.24494 -1.0397 0
M  V30 4892 C 472.798 4.27595 -2.99933 0
M  V30 4893 H 474.492 2.28086 -1.93951 0
M  V30 4894 H 472.038 1.09607 -0.933928 0
M  V30 4895 H 473.991 4.19223 -0.427793 0
M  V30 4896 H 472.715 3.24431 0.375761 0
M  V30 4897 H 471.374 3.21776 -1.75658 0
M  V30 4898 H 471.022 5.02953 -0.0688703 0
M  V30 4899 H 470.722 5.61755 -1.72352 0
M  V30 4900 H 472.246 6.04042 -0.892494 0
M  V30 4901 H 473.66 4.95315 -2.8868 0
M  V30 4902 H 472.057 4.76021 -3.6541 0
M  V30 4903 H 473.127 3.35498 -3.50099 0
M  V30 4904 O 474.509 1.15683 1.12693 0
M  V30 4905 H 475.2 0.884984 1.72301 0
M  V30 END ATOM
M  V30 BEGIN BOND
M  V30 END BOND
M  V30 END CTAB
M  END
$$$$
