drugbank_target|P0A6R0 3-oxoacyl-[acyl-carrier-protein] synthase 3 (DB01034; DB01992; DB02039; DB02316; DB03661; DB04524)
 OpenBabel12092119343D

  0  0  0     0  0            999 V3000
M  V30 BEGIN CTAB
M  V30 COUNTS 4694 4733 0 0 0
M  V30 BEGIN ATOM
M  V30 1 H -0.908 1.98254 -0.117106 0
M  V30 2 N 0 1.576 0 0
M  V30 3 C 0.933 2.03868 1.02534 0
M  V30 4 C 1.911 0.928543 1.3348 0
M  V30 5 O 3.095 1.19667 1.45644 0
M  V30 6 C 0.222 2.43627 2.35294 0
M  V30 7 C -0.732 3.65373 2.2001 0
M  V30 8 S 0.101 5.13292 1.52614 0
M  V30 9 C 1.257 5.56322 2.86805 0
M  V30 10 H 1.49 2.90518 0.631377 0
M  V30 11 H -0.977 1.52953 0.210867 0
M  V30 12 H 0.981 2.67203 3.11629 0
M  V30 13 H -0.358 1.57376 2.7183 0
M  V30 14 H -1.165 3.90944 3.18086 0
M  V30 15 H -1.563 3.418 1.51819 0
M  V30 16 H 0.729 5.58782 3.83104 0
M  V30 17 H 1.672 6.56266 2.65933 0
M  V30 18 H 2.08 4.83886 2.90714 0
M  V30 19 N 1.4781 -0.272755 1.55222 0
M  V30 20 C 2.7081 -1.02107 1.79604 0
M  V30 21 C 3.1161 -1.80419 0.569693 0
M  V30 22 O 2.4591 -1.77566 -0.470743 0
M  V30 23 C 2.5211 -2.02675 2.96922 0
M  V30 24 C 2.1851 -1.43299 4.33952 0
M  V30 25 C 3.1821 -0.84853 5.12929 0
M  V30 26 C 0.8671 -1.46012 4.8061 0
M  V30 27 C 2.8611 -0.299109 6.36698 0
M  V30 28 C 0.5481 -0.906833 6.04334 0
M  V30 29 C 1.5461 -0.32733 6.82215 0
M  V30 30 O 1.2341 0.217479 8.03606 0
M  V30 31 H 0.9661 -0.307322 0.602104 0
M  V30 32 H 3.5201 -0.308862 2.03065 0
M  V30 33 H 1.7501 -2.77656 2.69155 0
M  V30 34 H 3.4391 -2.63637 3.08626 0
M  V30 35 H 4.2051 -0.820265 4.78013 0
M  V30 36 H 0.0841 -1.90056 4.2 0
M  V30 37 H 3.6281 0.153852 6.9743 0
M  V30 38 H -0.4749 -0.932339 6.38731 0
M  V30 39 H 0.2931 0.106863 8.1843 0
M  V30 40 N 2.9562 -1.48159 -0.537278 0
M  V30 41 C 4.1842 -1.59454 -1.31841 0
M  V30 42 C 4.5992 -0.252065 -1.8711 0
M  V30 43 O 3.9562 0.757621 -1.66031 0
M  V30 44 C 4.0072 -2.63546 -2.47439 0
M  V30 45 O 3.7282 -3.92583 -1.94449 0
M  V30 46 C 5.2292 -2.85212 -3.39366 0
M  V30 47 H 2.4492 -0.53785 -0.401196 0
M  V30 48 H 4.9932 -1.93932 -0.648891 0
M  V30 49 H 3.1482 -2.31946 -3.1029 0
M  V30 50 H 3.5622 -4.49629 -2.70063 0
M  V30 51 H 5.0362 -3.61863 -4.16844 0
M  V30 52 H 5.5132 -1.93765 -3.94147 0
M  V30 53 H 6.1192 -3.18086 -2.82314 0
M  V30 54 N 4.4343 0.785586 -1.36625 0
M  V30 55 C 5.3813 1.89838 -1.31264 0
M  V30 56 C 6.3513 1.65115 -0.180633 0
M  V30 57 O 7.5363 1.87222 -0.36777 0
M  V30 58 C 4.6763 3.26706 -1.11163 0
M  V30 59 C 3.7893 3.63476 -2.33472 0
M  V30 60 C 2.9243 4.89481 -2.06353 0
M  V30 61 C 1.9633 5.18941 -3.24602 0
M  V30 62 N 1.1003 6.36131 -2.97123 0
M  V30 63 H 5.9403 1.93756 -2.26413 0
M  V30 64 H 3.4773 0.947454 -1.12524 0
M  V30 65 H 5.4353 4.05639 -0.975337 0
M  V30 66 H 4.0653 3.222 -0.196674 0
M  V30 67 H 3.1173 2.79636 -2.57891 0
M  V30 68 H 4.4293 3.81193 -3.21704 0
M  V30 69 H 3.5833 5.76288 -1.89675 0
M  V30 70 H 2.3223 4.73841 -1.15437 0
M  V30 71 H 1.3273 4.30615 -3.41834 0
M  V30 72 H 2.5523 5.36498 -4.16349 0
M  V30 73 H 0.4983 6.21875 -2.08823 0
M  V30 74 H 0.4153 6.54198 -3.78894 0
M  V30 75 H 1.6833 7.2591 -2.84033 0
M  V30 76 N 5.9124 1.20967 1.01018 0
M  V30 77 C 7.1614 1.01796 1.74128 0
M  V30 78 C 7.4744 -0.449691 1.90361 0
M  V30 79 O 8.6804 -0.76068 2.60626 0
M  V30 80 C 7.1364 1.7727 3.13215 0
M  V30 81 C 6.7444 3.28171 3.04972 0
M  V30 82 C 8.4884 1.66489 3.90489 0
M  V30 83 C 6.3954 3.96156 4.39107 0
M  V30 84 H 5.3254 0.377276 0.652824 0
M  V30 85 H 7.9764 1.44651 1.12909 0
M  V30 86 H 6.3584 1.27205 3.75013 0
M  V30 87 H 7.5324 3.85499 2.52443 0
M  V30 88 H 5.8474 3.39437 2.41188 0
M  V30 89 H 8.4444 2.14617 4.89738 0
M  V30 90 H 8.7874 0.6222 4.11624 0
M  V30 91 H 9.3204 2.14003 3.35332 0
M  V30 92 H 6.0594 5.00604 4.23174 0
M  V30 93 H 5.5794 3.43617 4.91617 0
M  V30 94 H 7.2584 4.00774 5.07926 0
M  V30 95 N 7.3905 -1.2043 1.01659 0
M  V30 96 C 8.6395 -1.89118 0.701237 0
M  V30 97 C 8.9525 -1.79705 -0.772358 0
M  V30 98 O 10.1585 -2.43528 -1.20026 0
M  V30 99 C 8.6145 -3.39168 1.20388 0
M  V30 100 C 8.2225 -3.57166 2.70438 0
M  V30 101 C 9.9665 -4.1341 0.963953 0
M  V30 102 C 7.8735 -5.01042 3.14183 0
M  V30 103 H 6.8035 -0.708267 0.2586 0
M  V30 104 H 9.4545 -1.36239 1.22927 0
M  V30 105 H 7.8365 -3.91369 0.603824 0
M  V30 106 H 9.0105 -3.15351 3.35992 0
M  V30 107 H 7.3255 -2.96294 2.92572 0
M  V30 108 H 9.9225 -5.19491 1.26621 0
M  V30 109 H 10.2655 -4.16181 -0.099578 0
M  V30 110 H 10.7985 -3.67309 1.52738 0
M  V30 111 H 7.5375 -5.03426 4.19812 0
M  V30 112 H 7.0575 -5.43668 2.53348 0
M  V30 113 H 8.7365 -5.69623 3.0682 0
M  V30 114 N 8.8686 -0.792821 -1.36206 0
M  V30 115 C 10.1166 -0.366062 -1.98757 0
M  V30 116 C 10.4376 1.0668 -1.63231 0
M  V30 117 O 9.7076 1.73587 -0.907978 0
M  V30 118 H 8.2876 -0.132364 -0.735179 0
M  V30 119 H 10.9496 -1.01562 -1.66347 0
M  V30 120 H 10.0456 -0.460638 -3.08682 0
M  V30 121 N 10.3467 1.47872 -0.545128 0
M  V30 122 C 11.5747 2.06889 -0.021084 0
M  V30 123 C 11.9897 1.39955 1.2672 0
M  V30 124 O 11.3467 0.492036 1.75742 0
M  V30 125 C 11.3977 3.60996 0.190817 0
M  V30 126 O 11.1187 4.25419 -1.04644 0
M  V30 127 C 12.6197 4.36849 0.753521 0
M  V30 128 H 9.8397 0.669785 -0.0403635 0
M  V30 129 H 12.3837 1.90049 -0.755095 0
M  V30 130 H 10.5387 3.77391 0.87492 0
M  V30 131 H 10.9527 5.17785 -0.836611 0
M  V30 132 H 12.4267 5.45399 0.851139 0
M  V30 133 H 12.9037 4.02306 1.762 0
M  V30 134 H 13.5097 4.25169 0.105503 0
M  V30 135 N 11.8248 0.280983 1.55075 0
M  V30 136 C 13.0728 -0.333455 1.9933 0
M  V30 137 C 13.3938 -1.55937 1.17085 0
M  V30 138 O 12.6638 -1.94143 0.261805 0
M  V30 139 H 11.2438 -0.126197 0.736263 0
M  V30 140 H 13.9058 0.387678 1.91005 0
M  V30 141 H 13.0018 -0.619292 3.05894 0
M  V30 142 N 13.3029 -1.57598 0.00835791 0
M  V30 143 C 14.5279 -1.95617 -0.689103 0
M  V30 144 C 14.9529 -0.883753 -1.66046 0
M  V30 145 O 14.3109 0.157352 -1.80616 0
M  V30 146 C 14.3589 -3.32736 -1.38994 0
M  V30 147 O 13.4629 -3.27631 -2.50463 0
M  V30 148 H 12.8039 -0.638379 -0.182668 0
M  V30 149 H 15.3339 -2.045 0.064036 0
M  V30 150 H 15.3439 -3.68494 -1.75147 0
M  V30 151 H 14.0189 -4.1034 -0.677778 0
M  V30 152 H 12.5959 -3.03561 -2.16576 0
M  V30 153 N 14.781 0.264519 -1.55364 0
M  V30 154 C 16.011 1.01153 -1.80143 0
M  V30 155 C 16.419 1.80115 -0.579253 0
M  V30 156 O 15.762 1.77813 0.46132 0
M  V30 157 C 15.824 2.01098 -2.97993 0
M  V30 158 C 15.488 1.40995 -4.34706 0
M  V30 159 C 16.485 0.821316 -5.13372 0
M  V30 160 C 14.17 1.43461 -4.81378 0
M  V30 161 C 16.164 0.265339 -6.36847 0
M  V30 162 C 13.851 0.874771 -6.04807 0
M  V30 163 C 14.849 0.291146 -6.82379 0
M  V30 164 O 14.537 -0.260093 -8.03479 0
M  V30 165 H 14.269 0.304125 -0.603725 0
M  V30 166 H 16.823 0.298089 -2.03225 0
M  V30 167 H 15.053 2.76224 -2.70623 0
M  V30 168 H 16.742 2.61997 -3.1002 0
M  V30 169 H 17.508 0.794903 -4.78442 0
M  V30 170 H 13.387 1.87826 -4.21002 0
M  V30 171 H 16.931 -0.190837 -6.97339 0
M  V30 172 H 12.828 0.898452 -6.39217 0
M  V30 173 H 13.596 -0.150265 -8.18362 0
M  V30 174 N 16.2591 1.48442 0.529413 0
M  V30 175 C 17.1891 1.65902 1.64313 0
M  V30 176 C 18.1701 0.507897 1.6234 0
M  V30 177 O 19.3551 0.740503 1.79528 0
M  V30 178 C 16.4851 1.69911 3.02898 0
M  V30 179 C 15.4391 2.8453 3.19729 0
M  V30 180 C 14.7651 2.73629 4.59381 0
M  V30 181 C 16.0651 4.25821 3.02447 0
M  V30 182 H 17.7591 2.5914 1.49955 0
M  V30 183 H 15.3051 1.24709 0.719982 0
M  V30 184 H 17.2581 1.80715 3.80684 0
M  V30 185 H 15.9821 0.732524 3.18279 0
M  V30 186 H 14.6411 2.73283 2.44361 0
M  V30 187 H 14.2891 1.74938 4.71599 0
M  V30 188 H 13.9891 3.50541 4.71588 0
M  V30 189 H 15.5131 2.86401 5.39265 0
M  V30 190 H 16.9271 4.37898 3.70024 0
M  V30 191 H 15.3241 5.03735 3.26146 0
M  V30 192 H 16.3941 4.42244 1.98867 0
M  V30 193 N 17.7372 -0.778329 1.37039 0
M  V30 194 C 19.1482 -1.35421 1.28523 0
M  V30 195 C 19.4992 -1.96075 -0.0700901 0
M  V30 196 O 18.6242 -1.93352 -0.971801 0
M  V30 197 C 19.2192 -2.46211 2.32735 0
M  V30 198 C 17.7782 -2.99585 2.27873 0
M  V30 199 C 16.9252 -1.72748 2.16918 0
M  V30 200 H 19.8762 -0.5791 1.47757 0
M  V30 201 H 19.8972 -3.2552 1.9702 0
M  V30 202 H 19.4092 -2.02036 3.31365 0
M  V30 203 H 17.5102 -3.48152 1.32745 0
M  V30 204 H 17.6232 -3.55646 3.21018 0
M  V30 205 H 15.9872 -1.95416 1.63354 0
M  V30 206 H 16.7702 -1.30686 3.17452 0
M  V30 207 N 19.2153 -1.21501 -1.00376 0
M  V30 208 C 20.1253 -0.991447 -2.12621 0
M  V30 209 C 21.1413 0.0568446 -1.73907 0
M  V30 210 O 22.3173 -0.13348 -2.00957 0
M  V30 211 C 19.3823 -0.560312 -3.42142 0
M  V30 212 C 18.4433 -1.68096 -3.95022 0
M  V30 213 C 17.6763 -1.2703 -5.18362 0
M  V30 214 O 17.8993 -0.144438 -5.70217 0
M  V30 215 O 16.8333 -2.08269 -5.64719 0
M  V30 216 H 20.6593 -1.93158 -2.34358 0
M  V30 217 H 18.2443 -0.999999 -1.10997 0
M  V30 218 H 20.1263 -0.329724 -4.20108 0
M  V30 219 H 18.8013 0.351089 -3.2179 0
M  V30 220 H 17.7083 -1.96597 -3.18278 0
M  V30 221 H 19.0413 -2.56983 -4.19786 0
M  V30 222 N 20.6934 1.19889 -1.02296 0
M  V30 223 C 21.6254 2.22334 -0.556787 0
M  V30 224 C 22.6384 1.58674 0.364199 0
M  V30 225 O 23.8274 1.77768 0.161533 0
M  V30 226 C 20.9274 3.38257 0.208694 0
M  V30 227 C 20.1004 4.31504 -0.71577 0
M  V30 228 C 19.1594 5.262 0.00325597 0
M  V30 229 O 18.1854 5.65798 -0.621357 0
M  V30 230 N 19.3874 5.66303 1.27599 0
M  V30 231 H 22.1524 2.62957 -1.43784 0
M  V30 232 H 19.7134 1.34495 -0.901261 0
M  V30 233 H 21.7054 3.98616 0.699111 0
M  V30 234 H 20.2754 2.96472 0.991102 0
M  V30 235 H 19.4954 3.69016 -1.38638 0
M  V30 236 H 20.7834 4.9072 -1.34428 0
M  V30 237 H 20.1814 5.36155 1.80429 0
M  V30 238 H 18.7384 6.28942 1.71102 0
M  V30 239 N 22.1715 0.800033 1.35784 0
M  V30 240 C 23.4175 0.377901 1.99248 0
M  V30 241 C 23.7505 -1.05052 1.63333 0
M  V30 242 O 23.0255 -1.72768 0.893385 0
M  V30 243 C 23.3085 0.553922 3.55814 0
M  V30 244 C 23.1615 2.0268 4.01548 0
M  V30 245 C 24.4805 -0.0244802 4.40093 0
M  V30 246 H 21.5995 0.138782 0.723815 0
M  V30 247 H 24.2415 1.00835 1.61035 0
M  V30 248 H 22.3915 0.0172398 3.88496 0
M  V30 249 H 24.0635 2.62536 3.79305 0
M  V30 250 H 22.3065 2.5256 3.52698 0
M  V30 251 H 22.9775 2.10087 5.10458 0
M  V30 252 H 25.4535 0.433775 4.13833 0
M  V30 253 H 24.3295 0.128637 5.48749 0
M  V30 254 H 24.5905 -1.11758 4.27741 0
M  V30 255 N 23.6496 -1.47581 0.552962 0
M  V30 256 C 25.0656 -1.5818 0.212424 0
M  V30 257 C 25.2656 -1.55213 -1.28496 0
M  V30 258 O 24.3216 -1.45329 -2.06484 0
M  V30 259 C 25.6346 -2.88865 0.835318 0
M  V30 260 C 27.1826 -3.0244 0.806156 0
M  V30 261 C 27.6576 -4.35819 1.40804 0
M  V30 262 N 29.1486 -4.42444 1.37103 0
M  V30 263 C 29.8836 -5.44202 1.80641 0
M  V30 264 N 29.3796 -6.52795 2.32015 0
M  V30 265 N 31.1726 -5.35222 1.71738 0
M  V30 266 H 23.3236 -1.47753 1.52587 0
M  V30 267 H 25.5866 -0.702941 0.636064 0
M  V30 268 H 25.2926 -2.9676 1.88749 0
M  V30 269 H 25.1666 -3.7579 0.325848 0
M  V30 270 H 27.5536 -2.94144 -0.237317 0
M  V30 271 H 27.6346 -2.17068 1.35334 0
M  V30 272 H 27.2786 -4.44871 2.45056 0
M  V30 273 H 27.2086 -5.19916 0.836338 0
M  V30 274 H 29.6996 -3.6456 0.995202 0
M  V30 275 H 30.0126 -7.26609 2.63171 0
M  V30 276 H 28.3576 -6.53696 2.36023 0
M  V30 277 H 31.5486 -4.49284 1.31382 0
M  V30 278 H 31.7216 -6.14389 2.05987 0
M  V30 279 N 25.1277 -0.289203 -1.54924 0
M  V30 280 C 26.3557 0.326463 -2.04308 0
M  V30 281 C 26.7707 1.48413 -1.16701 0
M  V30 282 O 26.1277 1.81507 -0.190087 0
M  V30 283 C 26.1787 0.794014 -3.52672 0
M  V30 284 O 25.8997 -0.317564 -4.36948 0
M  V30 285 C 27.4007 1.47605 -4.18004 0
M  V30 286 H 24.6207 0.0726272 -0.667058 0
M  V30 287 H 27.1647 -0.425401 -2.00026 0
M  V30 288 H 25.3197 1.49593 -3.57352 0
M  V30 289 H 25.7337 0.0443186 -5.24481 0
M  V30 290 H 27.2077 1.75447 -5.23376 0
M  V30 291 H 27.6847 2.41224 -3.67025 0
M  V30 292 H 28.2907 0.81762 -4.17367 0
M  V30 293 N 26.6058 1.57591 -0.0167156 0
M  V30 294 C 27.5538 2.10604 0.987353 0
M  V30 295 C 28.5478 1.02977 1.34507 0
M  V30 296 O 29.7538 1.21425 1.32875 0
M  V30 297 H 26.1288 0.672695 0.336134 0
M  V30 298 H 28.0998 2.93925 0.514817 0
M  V30 299 C 26.8488 2.6382 2.26483 0
M  V30 300 H 26.1718 3.46278 1.99829 0
M  V30 301 H 27.6118 3.04573 2.94977 0
M  V30 302 C 26.0708 1.55992 2.9861 0
M  V30 303 O 26.6008 0.952521 3.90243 0
M  V30 304 N 24.8068 1.28335 2.60727 0
M  V30 305 H 24.3538 1.77914 1.86291 0
M  V30 306 H 24.3118 0.564115 3.09298 0
M  V30 307 N 28.0839 -0.256276 1.55502 0
M  V30 308 C 29.0469 -1.30047 1.88734 0
M  V30 309 C 30.0469 -1.4154 0.763086 0
M  V30 310 O 31.2369 -1.40403 1.03115 0
M  V30 311 C 28.3689 -2.67953 2.10747 0
M  V30 312 H 29.5619 -1.01802 2.82093 0
M  V30 313 H 27.1149 -0.495134 1.4825 0
M  V30 314 H 27.8499 -3.01351 1.19825 0
M  V30 315 H 27.6349 -2.60993 2.92617 0
M  V30 316 H 29.1249 -3.43368 2.37673 0
M  V30 317 N 29.562 -1.4872 -0.521534 0
M  V30 318 C 30.839 -1.4766 -1.2828 0
M  V30 319 C 31.219 -0.19292 -2.10217 0
M  V30 320 O 30.567 0.825193 -2.13079 0
M  V30 321 C 30.777 -2.74358 -2.15705 0
M  V30 322 C 32.125 -3.23028 -2.75569 0
M  V30 323 O 33.149 -2.75333 -2.25987 0
M  V30 324 O 32.008 -4.0604 -3.65778 0
M  V30 325 H 29.102 -0.590085 -0.579421 0
M  V30 326 H 31.648 -1.60963 -0.537492 0
M  V30 327 H 30.42 -3.59292 -1.54999 0
M  V30 328 H 30.043 -2.63816 -2.97467 0
M  V30 329 N 31.0401 0.771051 -1.3745 0
M  V30 330 C 31.9701 1.89827 -1.3597 0
M  V30 331 C 32.9511 1.68562 -0.228216 0
M  V30 332 O 34.1361 1.8941 -0.428675 0
M  V30 333 C 31.2661 3.2712 -1.16662 0
M  V30 334 C 30.2201 3.6295 -2.2683 0
M  V30 335 C 29.5461 4.98791 -1.92644 0
M  V30 336 C 30.8461 3.69627 -3.69017 0
M  V30 337 H 32.5401 1.91323 -2.30295 0
M  V30 338 H 30.0861 0.919082 -1.10855 0
M  V30 339 H 32.0391 4.05615 -1.14256 0
M  V30 340 H 30.7631 3.26059 -0.187926 0
M  V30 341 H 29.4221 2.86763 -2.28392 0
M  V30 342 H 29.0701 4.94271 -0.933021 0
M  V30 343 H 28.7701 5.23733 -2.66416 0
M  V30 344 H 30.2941 5.79685 -1.91826 0
M  V30 345 H 31.7081 4.38273 -3.69581 0
M  V30 346 H 30.1051 4.06067 -4.41848 0
M  V30 347 H 31.1751 2.70273 -4.02592 0
M  V30 348 N 32.5182 1.22032 0.997298 0
M  V30 349 C 33.4282 1.00271 2.12092 0
M  V30 350 C 34.4442 -0.047621 1.73935 0
M  V30 351 O 35.6202 0.144136 2.00884 0
M  V30 352 C 32.6852 0.578449 3.4184 0
M  V30 353 C 31.7462 1.70189 3.94125 0
M  V30 354 C 30.9792 1.29778 5.17681 0
M  V30 355 O 31.2022 0.174676 5.70132 0
M  V30 356 O 30.1362 2.11261 5.63607 0
M  V30 357 H 33.9622 1.94398 2.3333 0
M  V30 358 H 31.5472 1.00587 1.10465 0
M  V30 359 H 33.4292 0.351998 4.19927 0
M  V30 360 H 32.1042 -0.334019 3.21972 0
M  V30 361 H 31.0112 1.98282 3.1723 0
M  V30 362 H 32.3442 2.59206 4.18417 0
M  V30 363 N 33.9963 -1.19345 1.0293 0
M  V30 364 C 34.9433 -2.2258 0.610464 0
M  V30 365 C 35.9133 -1.6179 -0.375946 0
M  V30 366 O 37.0983 -1.88844 -0.272511 0
M  V30 367 C 34.2383 -3.45085 -0.0321473 0
M  V30 368 C 33.3513 -4.20258 1.00035 0
M  V30 369 C 32.4863 -5.3019 0.32746 0
M  V30 370 C 31.5253 -5.97121 1.34584 0
M  V30 371 N 30.6623 -6.98615 0.698726 0
M  V30 372 H 35.5023 -2.57764 1.49538 0
M  V30 373 H 33.0393 -1.26644 0.748311 0
M  V30 374 H 34.9973 -4.15061 -0.421966 0
M  V30 375 H 33.6273 -3.10555 -0.88064 0
M  V30 376 H 32.6793 -3.49223 1.50823 0
M  V30 377 H 33.9913 -4.66175 1.77433 0
M  V30 378 H 33.1453 -6.06587 -0.11718 0
M  V30 379 H 31.8843 -4.85345 -0.478713 0
M  V30 380 H 30.8893 -5.19474 1.80074 0
M  V30 381 H 32.1143 -6.4405 2.15352 0
M  V30 382 H 30.0603 -6.55942 -0.0873471 0
M  V30 383 H 29.9773 -7.42724 1.41058 0
M  V30 384 H 31.2453 -7.79004 0.278102 0
M  V30 385 N 35.4744 -0.807222 -1.35358 0
M  V30 386 C 36.4074 -0.163572 -2.27613 0
M  V30 387 C 37.3854 0.670817 -1.48118 0
M  V30 388 O 38.5694 0.63796 -1.77376 0
M  V30 389 C 35.6964 0.773015 -3.29761 0
M  V30 390 C 34.7424 0.0181653 -4.26496 0
M  V30 391 S 35.5754 -1.31831 -5.19019 0
M  V30 392 C 36.7314 -0.38619 -6.24707 0
M  V30 393 H 36.9644 -0.945757 -2.81856 0
M  V30 394 H 34.4974 -0.602315 -1.42167 0
M  V30 395 H 36.4554 1.30788 -3.89108 0
M  V30 396 H 35.1164 1.52859 -2.74396 0
M  V30 397 H 34.3094 0.729534 -4.98692 0
M  V30 398 H 33.9114 -0.446761 -3.71322 0
M  V30 399 H 36.2034 0.428295 -6.76145 0
M  V30 400 H 37.1464 -1.07736 -6.99856 0
M  V30 401 H 37.5544 0.018398 -5.64497 0
M  V30 402 N 36.9525 1.47285 -0.560781 0
M  V30 403 C 38.1985 2.02764 -0.0381184 0
M  V30 404 C 38.5315 1.43384 1.30976 0
M  V30 405 O 37.8065 0.590733 1.85312 0
M  V30 406 C 38.0895 3.60064 0.0511427 0
M  V30 407 C 37.9425 4.2987 -1.32408 0
M  V30 408 C 39.2615 4.33439 0.762795 0
M  V30 409 H 36.3805 0.736841 -0.0153264 0
M  V30 410 H 39.0225 1.75675 -0.723759 0
M  V30 411 H 37.1725 3.83274 0.635065 0
M  V30 412 H 38.8445 4.17989 -1.95148 0
M  V30 413 H 37.0875 3.90085 -1.8978 0
M  V30 414 H 37.7585 5.38478 -1.21431 0
M  V30 415 H 40.2345 4.15243 0.266965 0
M  V30 416 H 39.1105 5.43124 0.794221 0
M  V30 417 H 39.3715 4.02915 1.81966 0
M  V30 418 N 38.4306 0.297415 1.54768 0
M  V30 419 C 39.7076 -0.365847 1.92148 0
M  V30 420 C 40.0876 -1.71975 1.22424 0
M  V30 421 O 39.4356 -2.25666 0.358739 0
M  V30 422 C 39.6456 -0.484056 3.45627 0
M  V30 423 C 40.9936 -0.756594 4.17805 0
M  V30 424 O 42.0176 -0.568007 3.51642 0
M  V30 425 O 40.8766 -1.11863 5.34929 0
M  V30 426 H 37.9706 -0.203919 0.801465 0
M  V30 427 H 40.5166 0.34521 1.66152 0
M  V30 428 H 39.2886 0.467865 3.88493 0
M  V30 429 H 38.9116 -1.24372 3.77647 0
M  V30 430 N 39.9087 -1.5758 0.0250728 0
M  V30 431 C 41.1367 -1.9593 -0.664747 0
M  V30 432 C 41.5517 -0.901352 -1.65895 0
M  V30 433 O 40.9087 0.117255 -1.82123 0
M  V30 434 C 40.9597 -3.34342 -1.37468 0
M  V30 435 O 40.6807 -4.36079 -0.420324 0
M  V30 436 C 42.1817 -3.873 -2.1567 0
M  V30 437 H 39.4017 -0.645405 -0.183557 0
M  V30 438 H 41.9457 -2.04329 0.0836372 0
M  V30 439 H 40.1007 -3.27175 -2.0745 0
M  V30 440 H 40.5147 -5.16297 -0.923991 0
M  V30 441 H 41.9887 -4.86504 -2.60803 0
M  V30 442 H 42.4657 -3.21331 -2.99405 0
M  V30 443 H 43.0717 -3.97723 -1.50654 0
M  V30 444 N 41.3868 0.248026 -1.55636 0
M  V30 445 C 42.6118 0.998028 -1.81808 0
M  V30 446 C 43.0368 1.78207 -0.601979 0
M  V30 447 O 42.3948 1.75653 0.448961 0
M  V30 448 C 42.4428 1.9125 -3.05705 0
M  V30 449 O 41.5468 3.00406 -2.82542 0
M  V30 450 H 40.8878 0.284045 -0.600179 0
M  V30 451 H 43.4178 0.269357 -2.02819 0
M  V30 452 H 43.4278 2.32737 -3.35108 0
M  V30 453 H 42.1028 1.33602 -3.93857 0
M  V30 454 H 40.6798 2.63056 -2.64303 0
M  V30 455 N 42.8649 1.48995 0.513639 0
M  V30 456 C 44.1419 1.48338 1.27495 0
M  V30 457 C 44.5219 0.204065 2.10111 0
M  V30 458 O 43.8699 -0.813881 2.13514 0
M  V30 459 C 44.0799 2.75498 2.14247 0
M  V30 460 C 45.4279 3.24484 2.73852 0
M  V30 461 O 46.4519 2.76528 2.24523 0
M  V30 462 O 45.3109 4.07974 3.6362 0
M  V30 463 H 42.4049 0.593149 0.576284 0
M  V30 464 H 44.9509 1.61246 0.528948 0
M  V30 465 H 43.7229 3.60109 1.53092 0
M  V30 466 H 43.3459 2.6539 2.96064 0
M  V30 467 N 44.343 -0.763751 1.37857 0
M  V30 468 C 45.253 -1.90817 1.36478 0
M  V30 469 C 46.269 -1.71997 0.263248 0
M  V30 470 O 47.445 -1.95095 0.499979 0
M  V30 471 C 44.51 -3.2605 1.17864 0
M  V30 472 C 43.571 -3.57467 2.3773 0
M  V30 473 C 42.804 -4.86249 2.19995 0
M  V30 474 O 43.027 -5.57884 1.18836 0
M  V30 475 O 41.961 -5.16911 3.08361 0
M  V30 476 H 45.787 -1.94933 2.32884 0
M  V30 477 H 43.372 -0.907619 1.1867 0
M  V30 478 H 45.254 -4.06924 1.09504 0
M  V30 479 H 43.929 -3.22769 0.245372 0
M  V30 480 H 42.836 -2.76796 2.51664 0
M  V30 481 H 44.169 -3.655 3.29652 0
M  V30 482 N 45.8211 -1.22559 -0.990812 0
M  V30 483 C 47.0671 -1.06303 -1.73411 0
M  V30 484 C 47.4221 0.397442 -1.8825 0
M  V30 485 O 46.7151 1.29062 -1.41611 0
M  V30 486 C 46.9091 -1.71011 -3.13831 0
M  V30 487 C 46.7381 -3.232 -3.12685 0
M  V30 488 C 45.5081 -3.92314 -3.18461 0
M  V30 489 C 47.7061 -4.20107 -2.96673 0
M  V30 490 N 45.6881 -5.31571 -3.07091 0
M  V30 491 C 47.0591 -5.46208 -2.93354 0
M  V30 492 C 49.1141 -4.10973 -2.8108 0
M  V30 493 C 47.8171 -6.64225 -2.76039 0
M  V30 494 C 49.8431 -5.28642 -2.65126 0
M  V30 495 C 49.2051 -6.53663 -2.62496 0
M  V30 496 H 45.3041 -0.443441 -0.644115 0
M  V30 497 H 47.8881 -1.55131 -1.17654 0
M  V30 498 H 46.0591 -1.2473 -3.67827 0
M  V30 499 H 47.7911 -1.47828 -3.76735 0
M  V30 500 H 44.5461 -3.43326 -3.26227 0
M  V30 501 H 44.9701 -6.0455 -3.0471 0
M  V30 502 H 49.6121 -3.15098 -2.8191 0
M  V30 503 H 47.3301 -7.60246 -2.73954 0
M  V30 504 H 50.9161 -5.23407 -2.54039 0
M  V30 505 H 49.7961 -7.43182 -2.50302 0
M  V30 506 N 47.2992 1.18797 -1.03562 0
M  V30 507 C 48.5482 1.87978 -0.731235 0
M  V30 508 C 48.8612 1.80911 0.743671 0
M  V30 509 O 50.0672 2.45407 1.16137 0
M  V30 510 C 48.5232 3.3721 -1.25768 0
M  V30 511 C 48.1312 3.52818 -2.76085 0
M  V30 512 C 49.8752 4.11825 -1.0296 0
M  V30 513 C 47.7822 4.9598 -3.22114 0
M  V30 514 H 46.7122 0.704063 -0.269835 0
M  V30 515 H 49.3632 1.34266 -1.25079 0
M  V30 516 H 47.7452 3.90359 -0.666011 0
M  V30 517 H 48.9192 3.09965 -3.40966 0
M  V30 518 H 47.2342 2.91602 -2.97249 0
M  V30 519 H 49.8312 5.17411 -1.34869 0
M  V30 520 H 50.1742 4.16287 0.0333546 0
M  V30 521 H 50.7072 3.64833 -1.58562 0
M  V30 522 H 47.4462 4.96684 -4.27768 0
M  V30 523 H 46.9662 5.39569 -2.61965 0
M  V30 524 H 48.6452 5.6467 -3.15844 0
M  V30 525 N 48.7773 0.814389 1.34928 0
M  V30 526 C 50.0233 0.399013 1.98836 0
M  V30 527 C 50.3563 -1.03314 1.64438 0
M  V30 528 O 49.6313 -1.71811 0.911659 0
M  V30 529 C 49.9143 0.591629 3.55207 0
M  V30 530 C 49.7673 2.06928 3.99376 0
M  V30 531 C 51.0863 0.022199 4.40094 0
M  V30 532 H 48.2053 0.146451 0.722303 0
M  V30 533 H 50.8473 1.02537 1.59957 0
M  V30 534 H 48.9973 0.0584441 3.88456 0
M  V30 535 H 50.6693 2.66544 3.76499 0
M  V30 536 H 48.9123 2.56287 3.49999 0
M  V30 537 H 49.5833 2.1549 5.08201 0
M  V30 538 H 52.0593 0.477643 4.13349 0
M  V30 539 H 50.9353 0.186832 5.48582 0
M  V30 540 H 51.1963 -1.07215 4.28902 0
M  V30 541 N 50.2554 -1.46986 0.568584 0
M  V30 542 C 51.4834 -2.0683 0.0539956 0
M  V30 543 C 51.8984 -1.41953 -1.24478 0
M  V30 544 O 51.2554 -0.519933 -1.74937 0
M  V30 545 C 51.3064 -3.61254 -0.133362 0
M  V30 546 O 51.0274 -4.237 1.11399 0
M  V30 547 C 52.5284 -4.37992 -0.683927 0
M  V30 548 H 49.7484 -0.669058 0.0510141 0
M  V30 549 H 52.2924 -1.88824 0.785234 0
M  V30 550 H 50.4474 -3.78735 -0.81477 0
M  V30 551 H 50.8614 -5.16388 0.91888 0
M  V30 552 H 52.3354 -5.46684 -0.764263 0
M  V30 553 H 52.8124 -4.05058 -1.69778 0
M  V30 554 H 53.4184 -4.25283 -0.0378494 0
M  V30 555 N 51.7335 -0.305618 -1.54608 0
M  V30 556 C 53.1495 0.0476228 -1.59529 0
M  V30 557 C 53.3495 1.52025 -1.32252 0
M  V30 558 O 52.4055 2.27368 -1.09818 0
M  V30 559 C 53.7185 -0.354471 -2.98603 0
M  V30 560 C 55.2665 -0.303622 -3.11524 0
M  V30 561 C 55.7415 -0.680608 -4.52915 0
M  V30 562 N 57.2325 -0.63332 -4.5885 0
M  V30 563 C 57.9675 -0.897432 -5.66334 0
M  V30 564 N 57.4635 -1.22775 -6.81834 0
M  V30 565 N 59.2565 -0.824186 -5.56025 0
M  V30 566 H 51.4075 -1.2653 -1.70599 0
M  V30 567 H 53.6705 -0.513291 -0.797017 0
M  V30 568 H 53.3765 -1.3798 -3.23503 0
M  V30 569 H 53.2505 0.289568 -3.76087 0
M  V30 570 H 55.6375 0.712472 -2.8637 0
M  V30 571 H 55.7185 -0.982348 -2.36185 0
M  V30 572 H 55.3625 -1.69453 -4.78799 0
M  V30 573 H 55.2925 0.0202385 -5.26596 0
M  V30 574 H 57.7835 -0.389138 -3.75891 0
M  V30 575 H 58.0965 -1.41513 -7.59733 0
M  V30 576 H 56.4415 -1.26583 -6.83375 0
M  V30 577 H 59.6325 -0.565748 -4.64669 0
M  V30 578 H 59.8055 -1.03338 -6.39707 0
M  V30 579 N 53.2116 1.57565 -0.0334293 0
M  V30 580 C 54.4396 1.9628 0.654347 0
M  V30 581 C 54.8546 0.910138 1.65414 0
M  V30 582 O 54.2116 -0.107595 1.82183 0
M  V30 583 C 54.2626 3.35067 1.35693 0
M  V30 584 O 53.9836 4.36296 0.397191 0
M  V30 585 C 55.4846 3.88439 2.13613 0
M  V30 586 H 52.7046 0.646369 0.180132 0
M  V30 587 H 55.2486 2.04282 -0.0944721 0
M  V30 588 H 53.4036 3.2827 2.05712 0
M  V30 589 H 53.8176 5.1678 0.896597 0
M  V30 590 H 55.2916 4.8788 2.58219 0
M  V30 591 H 55.7686 3.22914 2.97696 0
M  V30 592 H 56.3746 3.98516 1.48543 0
M  V30 593 N 54.6897 -0.239769 1.55765 0
M  V30 594 C 55.9377 -0.964892 1.77579 0
M  V30 595 C 56.2587 -1.85582 0.598699 0
M  V30 596 O 55.5287 -1.92075 -0.385226 0
M  V30 597 H 54.1087 -0.359265 0.654933 0
M  V30 598 H 56.7707 -0.256001 1.93211 0
M  V30 599 H 55.8667 -1.58243 2.69009 0
M  V30 600 N 56.1678 -1.49265 -0.50573 0
M  V30 601 C 57.4168 -1.57761 -1.25675 0
M  V30 602 C 57.7298 -0.267371 -1.93764 0
M  V30 603 O 58.9358 -0.230827 -2.70517 0
M  V30 604 C 57.3918 -2.78332 -2.28165 0
M  V30 605 C 56.9998 -4.16096 -1.66037 0
M  V30 606 C 58.7438 -2.96155 -3.04125 0
M  V30 607 C 56.6508 -5.27895 -2.6661 0
M  V30 608 H 55.5808 -0.587391 -0.472745 0
M  V30 609 H 58.2318 -1.75644 -0.53118 0
M  V30 610 H 56.6138 -2.53934 -3.03865 0
M  V30 611 H 57.7878 -4.50612 -0.963622 0
M  V30 612 H 56.1028 -4.03591 -1.02484 0
M  V30 613 H 58.6998 -3.76849 -3.79327 0
M  V30 614 H 59.0428 -2.06534 -3.61455 0
M  V30 615 H 59.5758 -3.2057 -2.35541 0
M  V30 616 H 56.3148 -6.1956 -2.14068 0
M  V30 617 H 55.8348 -4.97839 -3.34539 0
M  V30 618 H 57.5138 -5.57031 -3.29129 0
M  V30 619 N 57.6459 0.756429 -1.3826 0
M  V30 620 C 59.0619 1.0591 -1.19395 0
M  V30 621 C 59.2619 2.01459 -0.0406567 0
M  V30 622 O 58.3179 2.44909 0.614467 0
M  V30 623 C 59.6309 1.64191 -2.51916 0
M  V30 624 C 61.1789 1.76376 -2.58574 0
M  V30 625 C 61.6539 2.38069 -3.91264 0
M  V30 626 N 63.1449 2.45503 -3.92788 0
M  V30 627 C 63.8799 2.94126 -4.92217 0
M  V30 628 N 63.3759 3.42805 -6.02043 0
M  V30 629 N 65.1689 2.9314 -4.7961 0
M  V30 630 H 57.3199 0.122313 -2.12048 0
M  V30 631 H 59.5829 0.116892 -0.940766 0
M  V30 632 H 59.2889 1.01451 -3.3675 0
M  V30 633 H 59.1629 2.6329 -2.70108 0
M  V30 634 H 61.5499 2.38244 -1.74137 0
M  V30 635 H 61.6309 0.759894 -2.44252 0
M  V30 636 H 61.2749 1.76835 -4.76121 0
M  V30 637 H 61.2049 3.39091 -4.02895 0
M  V30 638 H 63.6959 2.1107 -3.13461 0
M  V30 639 H 64.0089 3.78354 -6.73846 0
M  V30 640 H 62.3539 3.4087 -6.05667 0
M  V30 641 H 65.5449 2.54419 -3.92923 0
M  V30 642 H 65.7179 3.30721 -5.5725 0
M  V30 643 N 59.124 1.23083 0.984299 0
M  V30 644 C 60.034 1.02515 2.11016 0
M  V30 645 C 61.05 -0.0291702 1.73976 0
M  V30 646 O 62.226 0.165434 2.00719 0
M  V30 647 C 59.291 0.614673 3.41208 0
M  V30 648 C 58.352 1.74359 3.92297 0
M  V30 649 C 57.585 1.35261 5.16275 0
M  V30 650 O 57.808 0.235136 5.69915 0
M  V30 651 O 56.742 2.17227 5.61334 0
M  V30 652 H 60.568 1.96862 2.31255 0
M  V30 653 H 58.153 1.01753 1.09392 0
M  V30 654 H 60.035 0.396518 4.1953 0
M  V30 655 H 58.71 -0.299851 3.22308 0
M  V30 656 H 57.617 2.01635 3.1511 0
M  V30 657 H 58.95 2.63629 4.15645 0
M  V30 658 N 60.6021 -1.18246 1.0419 0
M  V30 659 C 62.0181 -1.40269 0.761366 0
M  V30 660 C 62.2181 -1.90777 -0.648578 0
M  V30 661 O 61.2741 -2.0929 -1.41258 0
M  V30 662 C 62.5871 -2.40237 1.8085 0
M  V30 663 C 64.1351 -2.53961 1.82955 0
M  V30 664 C 64.6101 -3.57194 2.86664 0
M  V30 665 N 66.1011 -3.64702 2.85563 0
M  V30 666 C 66.8361 -4.44309 3.6246 0
M  V30 667 N 66.3321 -5.27514 4.49111 0
M  V30 668 N 68.1251 -4.39084 3.50944 0
M  V30 669 H 60.2761 -0.837882 1.95175 0
M  V30 670 H 62.5391 -0.430608 0.84456 0
M  V30 671 H 62.2451 -2.10176 2.81991 0
M  V30 672 H 62.1191 -3.39601 1.64168 0
M  V30 673 H 64.5061 -2.83338 0.824855 0
M  V30 674 H 64.5871 -1.54706 2.03715 0
M  V30 675 H 64.2311 -3.28558 3.87314 0
M  V30 676 H 64.1611 -4.5613 2.6316 0
M  V30 677 H 66.6521 -3.05289 2.22727 0
M  V30 678 H 66.9651 -5.85411 5.04493 0
M  V30 679 H 65.3101 -5.2693 4.53178 0
M  V30 680 H 68.5011 -3.7313 2.82651 0
M  V30 681 H 68.6741 -5.00883 4.11121 0
M  V30 682 N 62.0802 -0.821533 -1.34494 0
M  V30 683 C 63.0302 -0.214793 -2.26986 0
M  V30 684 C 64.0142 0.620125 -1.4847 0
M  V30 685 O 65.2062 0.474933 -1.70509 0
M  V30 686 C 62.3352 0.623566 -3.37589 0
M  V30 687 C 61.4212 -0.221904 -4.23519 0
M  V30 688 N 61.8122 -1.29223 -4.89014 0
M  V30 689 C 60.1102 -0.00600922 -4.46 0
M  V30 690 C 60.8112 -1.80965 -5.52835 0
M  V30 691 N 59.7872 -1.11376 -5.32068 0
M  V30 692 H 63.5892 -1.03354 -2.75128 0
M  V30 693 H 61.1032 -0.6642 -1.48196 0
M  V30 694 H 63.1002 1.0744 -4.02818 0
M  V30 695 H 61.7602 1.44049 -2.90998 0
M  V30 696 H 62.7712 -1.67502 -4.90065 0
M  V30 697 H 59.4482 0.77886 -4.10171 0
M  V30 698 H 60.8382 -2.70502 -6.15043 0
M  V30 699 N 63.5583 1.46682 -0.576371 0
M  V30 700 C 64.8073 2.01619 -0.0572825 0
M  V30 701 C 65.1203 1.45417 1.30818 0
M  V30 702 O 66.3263 1.92133 1.91825 0
M  V30 703 C 64.7823 3.59863 -0.0518371 0
M  V30 704 C 64.3903 4.25059 -1.41523 0
M  V30 705 C 66.1343 4.2248 0.413639 0
M  V30 706 C 64.0413 5.75364 -1.36785 0
M  V30 707 H 62.9713 0.753794 -0.0176448 0
M  V30 708 H 65.6223 1.68481 -0.727076 0
M  V30 709 H 64.0043 3.90048 0.683994 0
M  V30 710 H 65.1783 4.06491 -2.17029 0
M  V30 711 H 63.4933 3.7451 -1.8202 0
M  V30 712 H 66.0903 5.3265 0.467779 0
M  V30 713 H 66.4333 3.90976 1.42982 0
M  V30 714 H 66.9663 3.96897 -0.267929 0
M  V30 715 H 63.7053 6.11518 -2.36063 0
M  V30 716 H 63.2253 5.96214 -0.654895 0
M  V30 717 H 64.9043 6.37955 -1.07805 0
M  V30 718 N 65.0364 0.313813 1.54444 0
M  V30 719 C 65.9994 -0.54379 2.22656 0
M  V30 720 C 66.9994 -1.05124 1.21678 0
M  V30 721 O 68.1894 -0.945225 1.46325 0
M  V30 722 C 65.3214 -1.75427 2.92298 0
M  V30 723 H 66.5144 0.0523599 2.99854 0
M  V30 724 H 64.0674 0.0647834 1.56166 0
M  V30 725 H 64.8024 -2.38991 2.19211 0
M  V30 726 H 64.5874 -1.39791 3.66334 0
M  V30 727 H 66.0774 -2.36325 3.44297 0
M  V30 728 N 66.5145 -1.57545 0.0417849 0
M  V30 729 C 67.4775 -2.09885 -0.92093 0
M  V30 730 C 68.4775 -1.01648 -1.24596 0
M  V30 731 O 69.6675 -1.27759 -1.1842 0
M  V30 732 C 66.7995 -2.57527 -2.23367 0
M  V30 733 H 67.9925 -2.96236 -0.467382 0
M  V30 734 H 65.5455 -1.5493 -0.206467 0
M  V30 735 H 66.2805 -1.74542 -2.73323 0
M  V30 736 H 66.0655 -3.36613 -2.01083 0
M  V30 737 H 67.5555 -2.98201 -2.92346 0
M  V30 738 N 67.9926 0.231505 -1.5589 0
M  V30 739 C 69.4036 0.799327 -1.68724 0
M  V30 740 C 69.7546 1.85398 -0.642022 0
M  V30 741 O 68.8796 2.1539 0.208784 0
M  V30 742 C 69.4746 1.45664 -3.05888 0
M  V30 743 C 68.0336 1.97197 -3.20609 0
M  V30 744 C 67.1806 0.828552 -2.64632 0
M  V30 745 H 70.1316 0.00702616 -1.58698 0
M  V30 746 H 70.1526 2.32517 -3.01191 0
M  V30 747 H 69.6646 0.688808 -3.81939 0
M  V30 748 H 67.7656 2.76813 -2.4941 0
M  V30 749 H 67.8786 2.15878 -4.27707 0
M  V30 750 H 66.2426 1.23321 -2.22854 0
M  V30 751 H 67.0256 0.0735544 -3.43221 0
M  V30 752 N 69.4707 1.49531 0.497807 0
M  V30 753 C 70.4187 1.66926 1.61983 0
M  V30 754 C 71.4127 0.535167 1.60724 0
M  V30 755 O 72.6187 0.714896 1.65195 0
M  V30 756 H 68.9937 0.526415 0.537021 0
M  V30 757 H 70.9647 2.61098 1.44465 0
M  V30 758 C 69.7137 1.75602 3.00099 0
M  V30 759 H 69.0367 2.62244 3.01775 0
M  V30 760 H 70.4767 1.91807 3.78135 0
M  V30 761 C 68.9357 0.501543 3.33146 0
M  V30 762 O 69.4657 -0.371342 3.9998 0
M  V30 763 N 67.6717 0.363531 2.88317 0
M  V30 764 H 67.2187 1.07485 2.34104 0
M  V30 765 H 67.1767 -0.474728 3.10795 0
M  V30 766 N 70.9488 -0.749086 1.3866 0
M  V30 767 C 71.8588 -1.89358 1.38494 0
M  V30 768 C 72.8748 -1.71708 0.281476 0
M  V30 769 O 74.0508 -1.94554 0.520643 0
M  V30 770 C 71.1158 -3.24782 1.21316 0
M  V30 771 C 70.1768 -3.54926 2.41508 0
M  V30 772 C 69.4098 -4.83888 2.2514 0
M  V30 773 O 69.6328 -5.56592 1.24746 0
M  V30 774 O 68.5668 -5.13612 3.13826 0
M  V30 775 H 72.3928 -1.92452 2.34938 0
M  V30 776 H 69.9778 -0.894981 1.19626 0
M  V30 777 H 71.8598 -4.05739 1.13814 0
M  V30 778 H 70.5348 -3.2249 0.279592 0
M  V30 779 H 69.4418 -2.74112 2.54585 0
M  V30 780 H 70.7748 -3.61983 3.3351 0
M  V30 781 N 72.4269 -1.23603 -0.977757 0
M  V30 782 C 73.6549 -1.09646 -1.75458 0
M  V30 783 C 74.0699 0.351859 -1.85492 0
M  V30 784 O 73.4269 1.24327 -1.336 0
M  V30 785 C 73.4779 -1.71895 -3.18016 0
M  V30 786 O 73.1989 -3.11063 -3.08498 0
M  V30 787 C 74.6999 -1.63415 -4.12081 0
M  V30 788 H 71.9199 -0.38359 -0.550545 0
M  V30 789 H 74.4639 -1.63507 -1.22824 0
M  V30 790 H 72.6189 -1.22061 -3.67668 0
M  V30 791 H 73.0329 -3.41305 -3.9826 0
M  V30 792 H 74.5069 -2.11669 -5.09804 0
M  V30 793 H 74.9839 -0.593462 -4.35172 0
M  V30 794 H 75.5899 -2.12628 -3.68334 0
M  V30 795 N 73.905 1.17692 -1.04816 0
M  V30 796 C 75.151 1.88137 -0.75711 0
M  V30 797 C 75.484 1.80604 0.713841 0
M  V30 798 O 74.759 1.21146 1.52164 0
M  V30 799 C 75.042 3.38318 -1.2334 0
M  V30 800 C 74.895 3.54622 -2.76701 0
M  V30 801 C 76.214 4.32214 -0.829415 0
M  V30 802 H 73.333 0.683163 -0.27651 0
M  V30 803 H 75.975 1.38424 -1.30149 0
M  V30 804 H 74.125 3.80787 -0.770286 0
M  V30 805 H 75.797 3.21194 -3.31107 0
M  V30 806 H 74.04 2.97026 -3.16161 0
M  V30 807 H 74.711 4.60028 -3.05088 0
M  V30 808 H 77.187 3.97565 -1.22805 0
M  V30 809 H 76.063 5.35838 -1.19033 0
M  V30 810 H 76.324 4.41294 0.266891 0
M  V30 811 N 75.3831 0.828654 1.34056 0
M  V30 812 C 76.6081 0.431637 2.02859 0
M  V30 813 C 77.0331 -0.956339 1.61975 0
M  V30 814 O 76.3911 -1.62338 0.807228 0
M  V30 815 C 76.4391 0.548323 3.56407 0
M  V30 816 O 75.5431 -0.429556 4.10157 0
M  V30 817 H 74.8841 0.176886 0.640006 0
M  V30 818 H 77.4141 1.12066 1.71179 0
M  V30 819 H 77.4241 0.426196 4.05768 0
M  V30 820 H 76.0991 1.5606 3.8551 0
M  V30 821 H 74.6761 -0.265836 3.71951 0
M  V30 822 N 76.8612 -1.46375 0.584142 0
M  V30 823 C 78.0892 -2.06761 0.0759296 0
M  V30 824 C 78.5042 -1.43266 -1.22965 0
M  V30 825 O 77.8612 -0.538458 -1.74376 0
M  V30 826 C 77.9122 -3.61375 -0.0950384 0
M  V30 827 O 77.6332 -4.22495 1.15887 0
M  V30 828 C 79.1342 -4.38693 -0.637434 0
M  V30 829 H 76.3542 -0.668479 0.0581075 0
M  V30 830 H 78.8982 -1.8798 0.805218 0
M  V30 831 H 77.0532 -3.79578 -0.774554 0
M  V30 832 H 77.4672 -5.15385 0.973598 0
M  V30 833 H 78.9412 -5.47464 -0.706237 0
M  V30 834 H 79.4182 -4.06836 -1.65472 0
M  V30 835 H 80.0242 -4.25299 0.00725967 0
M  V30 836 N 78.3393 -0.321999 -1.54275 0
M  V30 837 C 79.2723 0.58718 -2.20516 0
M  V30 838 C 80.2503 1.11693 -1.18167 0
M  V30 839 O 81.4343 1.18122 -1.46899 0
M  V30 840 C 78.5613 1.80554 -2.86562 0
M  V30 841 C 77.6073 1.40718 -4.02617 0
M  V30 842 S 78.4403 0.445218 -5.33646 0
M  V30 843 C 79.5963 1.6709 -6.03185 0
M  V30 844 H 79.8293 0.0244875 -2.9729 0
M  V30 845 H 77.3623 -0.106087 -1.54035 0
M  V30 846 H 79.3203 2.50462 -3.25237 0
M  V30 847 H 77.9813 2.33942 -2.09595 0
M  V30 848 H 77.1743 2.31501 -4.47687 0
M  V30 849 H 76.7763 0.78782 -3.65608 0
M  V30 850 H 79.0683 2.60856 -6.25268 0
M  V30 851 H 80.0113 1.26239 -6.96756 0
M  V30 852 H 80.4193 1.85716 -5.33076 0
M  V30 853 N 79.8174 1.5752 -0.0501392 0
M  V30 854 C 81.0654 1.9227 0.622642 0
M  V30 855 C 81.3864 0.929083 1.71444 0
M  V30 856 O 80.6564 -0.0262186 1.95882 0
M  V30 857 H 79.2364 0.709739 0.232981 0
M  V30 858 H 81.8984 1.94628 -0.102898 0
M  V30 859 H 80.9944 2.93479 1.06191 0
M  V30 860 N 81.2955 -0.223234 1.56011 0
M  V30 861 C 82.5425 -0.947875 1.78946 0
M  V30 862 C 82.8705 -1.844 0.618608 0
M  V30 863 O 82.1255 -1.91629 -0.397093 0
M  V30 864 C 82.4245 -1.81948 3.0762 0
M  V30 865 C 82.0905 -1.07672 4.37856 0
M  V30 866 C 80.7525 -0.871544 4.73242 0
M  V30 867 C 83.1045 -0.552081 5.18268 0
M  V30 868 C 80.4325 -0.129791 5.86556 0
M  V30 869 C 82.7845 0.17632 6.32354 0
M  V30 870 C 81.4485 0.39277 6.66343 0
M  V30 871 H 80.7185 -0.346852 0.654809 0
M  V30 872 H 83.3655 -0.216171 1.90276 0
M  V30 873 H 81.6705 -2.61899 2.91404 0
M  V30 874 H 83.3675 -2.38227 3.22566 0
M  V30 875 H 79.9575 -1.24662 4.1007 0
M  V30 876 H 84.1415 -0.698076 4.91366 0
M  V30 877 H 79.3975 0.048153 6.11381 0
M  V30 878 H 83.5715 0.590367 6.93893 0
M  V30 879 H 81.1985 0.969466 7.53993 0
M  V30 880 N 82.7736 -1.49793 -0.48987 0
M  V30 881 C 83.6836 -1.70036 -1.61632 0
M  V30 882 C 84.6996 -0.583102 -1.63939 0
M  V30 883 O 85.8756 -0.859169 -1.82154 0
M  V30 884 C 82.9406 -1.77277 -2.97949 0
M  V30 885 C 82.0016 -3.00918 -3.06181 0
M  V30 886 C 81.2346 -3.07804 -4.35996 0
M  V30 887 O 81.4576 -2.21982 -5.25433 0
M  V30 888 O 80.3916 -4.00369 -4.49431 0
M  V30 889 H 84.2176 -2.65486 -1.47482 0
M  V30 890 H 81.8026 -1.33666 -0.667362 0
M  V30 891 H 83.6846 -1.84329 -3.78947 0
M  V30 892 H 82.3596 -0.850076 -3.12339 0
M  V30 893 H 81.2666 -2.99377 -2.2433 0
M  V30 894 H 82.5996 -3.92704 -2.96723 0
M  V30 895 N 84.2517 0.741722 -1.39055 0
M  V30 896 C 85.2147 1.83733 -1.37021 0
M  V30 897 C 86.2147 1.58542 -0.268534 0
M  V30 898 O 87.4047 1.66067 -0.526076 0
M  V30 899 C 84.5367 3.2141 -1.13617 0
M  V30 900 H 85.7297 1.86941 -2.34506 0
M  V30 901 H 83.2827 0.944676 -1.24521 0
M  V30 902 H 84.0177 3.23865 -0.167863 0
M  V30 903 H 83.8027 3.4109 -1.93391 0
M  V30 904 H 85.2927 4.01477 -1.14918 0
M  V30 905 N 85.7298 1.2412 0.971189 0
M  V30 906 C 86.6928 1.03156 2.04674 0
M  V30 907 C 87.6928 -0.00990322 1.60797 0
M  V30 908 O 88.8828 0.230729 1.72665 0
M  V30 909 C 86.0148 0.562765 3.36223 0
M  V30 910 H 87.2078 1.98614 2.24705 0
M  V30 911 H 84.7608 1.06293 1.14593 0
M  V30 912 H 85.4958 -0.395176 3.21883 0
M  V30 913 H 85.2808 1.31441 3.69413 0
M  V30 914 H 86.7708 0.437015 4.15307 0
M  V30 915 N 87.2079 -1.17134 1.05439 0
M  V30 916 C 88.4359 -1.91372 0.786414 0
M  V30 917 C 88.8509 -1.76955 -0.658202 0
M  V30 918 O 88.2079 -1.10838 -1.44987 0
M  V30 919 C 88.2589 -3.42356 1.1608 0
M  V30 920 O 87.9799 -3.56332 2.54871 0
M  V30 921 C 89.4809 -4.33663 0.919322 0
M  V30 922 H 86.7009 -0.607118 0.285743 0
M  V30 923 H 89.2449 -1.48525 1.40572 0
M  V30 924 H 87.3999 -3.82939 0.586191 0
M  V30 925 H 87.8139 -4.49896 2.69618 0
M  V30 926 H 89.2879 -5.38099 1.231 0
M  V30 927 H 89.7649 -4.38959 -0.145359 0
M  V30 928 H 90.3709 -3.98796 1.47789 0
M  V30 929 N 88.686 -0.835752 -1.33615 0
M  V30 930 C 90.102 -0.523139 -1.50783 0
M  V30 931 C 90.302 0.950171 -1.77691 0
M  V30 932 O 89.358 1.73411 -1.83534 0
M  V30 933 C 90.671 -1.39378 -2.66448 0
M  V30 934 C 92.219 -1.39223 -2.80332 0
M  V30 935 C 92.694 -2.24765 -3.99055 0
M  V30 936 N 94.185 -2.22458 -4.06284 0
M  V30 937 C 94.92 -2.85386 -4.97336 0
M  V30 938 N 94.416 -3.57354 -5.93523 0
M  V30 939 N 96.209 -2.74872 -4.90308 0
M  V30 940 H 88.36 -1.78952 -1.14411 0
M  V30 941 H 90.623 -0.763297 -0.562212 0
M  V30 942 H 90.329 -2.44061 -2.53234 0
M  V30 943 H 90.203 -1.0676 -3.61776 0
M  V30 944 H 92.59 -0.353136 -2.92979 0
M  V30 945 H 92.671 -1.75846 -1.85773 0
M  V30 946 H 92.315 -3.28732 -3.87167 0
M  V30 947 H 92.245 -1.85485 -4.92852 0
M  V30 948 H 94.736 -1.70119 -3.37443 0
M  V30 949 H 95.049 -4.02584 -6.59656 0
M  V30 950 H 93.394 -3.61461 -5.93608 0
M  V30 951 H 96.585 -2.18213 -4.14126 0
M  V30 952 H 96.758 -3.24199 -5.61069 0
M  V30 953 N 90.1641 1.46063 -0.591896 0
M  V30 954 C 91.1271 2.28854 0.125973 0
M  V30 955 C 92.1271 1.38903 0.810107 0
M  V30 956 O 93.3171 1.61186 0.66066 0
M  V30 957 C 90.4491 3.19526 1.1881 0
M  V30 958 H 91.6421 2.93802 -0.601717 0
M  V30 959 H 89.1951 1.52325 -0.350254 0
M  V30 960 H 89.9301 2.59345 1.94707 0
M  V30 961 H 89.7151 3.85766 0.701936 0
M  V30 962 H 91.2051 3.81817 1.69132 0
M  V30 963 N 91.6422 0.330177 1.54103 0
M  V30 964 C 92.8912 -0.271336 1.99867 0
M  V30 965 C 93.2042 -1.52723 1.22209 0
M  V30 966 O 94.4102 -2.20515 1.58383 0
M  V30 967 C 92.8662 -0.534032 3.55916 0
M  V30 968 C 92.4742 0.705193 4.42415 0
M  V30 969 C 94.2182 -1.09514 4.1013 0
M  V30 970 C 92.1252 0.414035 5.89949 0
M  V30 971 H 91.0552 -0.105166 0.74663 0
M  V30 972 H 93.7062 0.443429 1.78062 0
M  V30 973 H 92.0882 -1.30915 3.73734 0
M  V30 974 H 93.2622 1.4804 4.36372 0
M  V30 975 H 91.5772 1.18698 3.99124 0
M  V30 976 H 94.1742 -1.3277 5.17954 0
M  V30 977 H 94.5172 -2.04656 3.62521 0
M  V30 978 H 95.0502 -0.381038 3.95971 0
M  V30 979 H 91.7892 1.33481 6.41766 0
M  V30 980 H 91.3092 -0.323336 5.98928 0
M  V30 981 H 92.9882 0.0263105 6.46995 0
M  V30 982 N 93.1203 -1.57491 0.0584922 0
M  V30 983 C 94.0303 -2.15448 -0.928414 0
M  V30 984 C 95.0463 -1.11416 -1.3365 0
M  V30 985 O 96.2223 -1.4362 -1.41193 0
M  V30 986 C 93.2873 -2.69393 -2.18239 0
M  V30 987 C 92.3483 -3.88249 -1.83196 0
M  V30 988 C 91.5813 -4.39613 -3.02616 0
M  V30 989 O 91.8043 -3.90023 -4.16219 0
M  V30 990 O 90.7383 -5.31111 -2.83204 0
M  V30 991 H 94.5643 -3.00112 -0.465483 0
M  V30 992 H 92.1493 -1.48499 -0.163826 0
M  V30 993 H 94.0313 -3.04026 -2.91798 0
M  V30 994 H 92.7063 -1.87796 -2.63656 0
M  V30 995 H 91.6133 -3.58492 -1.06931 0
M  V30 996 H 92.9463 -4.71098 -1.42573 0
M  V30 997 N 94.5984 0.214957 -1.56127 0
M  V30 998 C 95.5314 1.29382 -1.87977 0
M  V30 999 C 96.5094 1.44897 -0.737807 0
M  V30 1000 O 97.6934 1.60605 -0.986833 0
M  V30 1001 C 94.8204 2.66325 -2.09258 0
M  V30 1002 C 93.8664 2.67789 -3.31951 0
M  V30 1003 S 94.6994 2.21198 -4.8768 0
M  V30 1004 C 95.8554 3.60003 -5.12004 0
M  V30 1005 H 96.0884 1.02173 -2.79192 0
M  V30 1006 H 93.6214 0.417516 -1.48648 0
M  V30 1007 H 95.5794 3.45162 -2.22201 0
M  V30 1008 H 94.2404 2.90755 -1.18829 0
M  V30 1009 H 93.4334 3.68436 -3.43906 0
M  V30 1010 H 93.0354 1.9702 -3.17898 0
M  V30 1011 H 95.3274 4.55739 -5.01307 0
M  V30 1012 H 96.2704 3.52959 -6.13861 0
M  V30 1013 H 96.6784 3.53996 -4.39712 0
M  V30 1014 N 96.0765 1.50051 0.48192 0
M  V30 1015 C 97.0395 1.67584 1.5636 0
M  V30 1016 C 98.0395 0.546894 1.51214 0
M  V30 1017 O 99.2295 0.813725 1.54026 0
M  V30 1018 C 96.3615 1.691 2.96003 0
M  V30 1019 H 97.5545 2.64078 1.42136 0
M  V30 1020 H 95.1075 1.39369 0.707533 0
M  V30 1021 H 95.8425 0.742589 3.15684 0
M  V30 1022 H 95.6275 2.51105 3.01146 0
M  V30 1023 H 97.1175 1.84656 3.74556 0
M  V30 1024 N 97.5546 -0.734337 1.39446 0
M  V30 1025 C 98.8026 -1.49096 1.36436 0
M  V30 1026 C 99.1236 -1.94961 -0.0388255 0
M  V30 1027 O 98.3936 -1.69033 -0.990191 0
M  V30 1028 H 96.9736 -0.5531 0.502085 0
M  V30 1029 H 99.6356 -0.871725 1.74319 0
M  V30 1030 H 98.7316 -2.37276 2.02747 0
M  V30 1031 N 99.0327 -1.24633 -0.964593 0
M  V30 1032 C 100.282 -1.08188 -1.7023 0
M  V30 1033 C 100.595 0.37873 -1.91898 0
M  V30 1034 O 101.801 0.663427 -2.6327 0
M  V30 1035 C 100.257 -1.88773 -3.06419 0
M  V30 1036 C 99.8647 -3.39263 -2.92582 0
M  V30 1037 C 101.609 -1.80867 -3.84041 0
M  V30 1038 C 99.5157 -4.1218 -4.24101 0
M  V30 1039 H 98.4457 -0.401245 -0.638372 0
M  V30 1040 H 101.097 -1.48742 -1.07462 0
M  V30 1041 H 99.4787 -1.41035 -3.70034 0
M  V30 1042 H 100.653 -3.94603 -2.37961 0
M  V30 1043 H 98.9677 -3.48154 -2.28424 0
M  V30 1044 H 101.565 -2.32646 -4.81435 0
M  V30 1045 H 101.908 -0.774543 -4.09031 0
M  V30 1046 H 102.441 -2.26301 -3.27159 0
M  V30 1047 H 99.1797 -5.15965 -4.04303 0
M  V30 1048 H 98.6997 -3.61626 -4.78526 0
M  V30 1049 H 100.379 -4.19349 -4.92702 0
M  V30 1050 N 100.511 1.16574 -1.06058 0
M  V30 1051 C 101.421 2.2452 -0.680282 0
M  V30 1052 C 102.437 1.71348 0.302604 0
M  V30 1053 O 103.613 2.00822 0.152513 0
M  V30 1054 C 100.678 3.46629 -0.0700315 0
M  V30 1055 C 99.7388 4.14849 -1.10448 0
M  V30 1056 C 98.9718 5.31129 -0.523256 0
M  V30 1057 O 99.1948 5.66514 0.664709 0
M  V30 1058 O 98.1288 5.88526 -1.26179 0
M  V30 1059 H 101.955 2.59355 -1.58015 0
M  V30 1060 H 99.5398 1.24043 -0.832694 0
M  V30 1061 H 101.422 4.20543 0.268667 0
M  V30 1062 H 100.097 3.13573 0.803353 0
M  V30 1063 H 99.0038 3.42916 -1.49532 0
M  V30 1064 H 100.337 4.51954 -1.94931 0
M  V30 1065 N 101.989 0.842826 1.3317 0
M  V30 1066 C 102.936 0.276885 2.29133 0
M  V30 1067 C 103.906 -0.609527 1.54512 0
M  V30 1068 O 105.091 -0.546955 1.82792 0
M  V30 1069 C 102.231 -0.538707 3.40869 0
M  V30 1070 C 101.344 0.372169 4.30394 0
M  V30 1071 C 100.479 -0.454908 5.29249 0
M  V30 1072 C 99.5179 0.45411 6.10413 0
M  V30 1073 N 98.6549 -0.335075 7.013 0
M  V30 1074 H 103.495 1.10052 2.76934 0
M  V30 1075 H 101.032 0.554161 1.36262 0
M  V30 1076 H 102.99 -1.02709 4.0436 0
M  V30 1077 H 101.62 -1.32727 2.9425 0
M  V30 1078 H 100.672 0.97888 3.6759 0
M  V30 1079 H 101.984 1.0703 4.87182 0
M  V30 1080 H 101.138 -1.00695 5.98285 0
M  V30 1081 H 99.8769 -1.18646 4.73048 0
M  V30 1082 H 98.8819 1.01813 5.40291 0
M  V30 1083 H 100.107 1.18409 6.68697 0
M  V30 1084 H 98.0529 -1.04994 6.47543 0
M  V30 1085 H 97.9699 0.304262 7.55387 0
M  V30 1086 H 99.2379 -0.869224 7.74638 0
M  V30 1087 N 103.467 -1.45747 0.599634 0
M  V30 1088 C 104.744 -1.95585 0.0240846 0
M  V30 1089 C 105.124 -1.54217 -1.44154 0
M  V30 1090 O 104.472 -0.800903 -2.14004 0
M  V30 1091 C 104.682 -3.48344 0.21385 0
M  V30 1092 C 106.03 -4.24504 0.0904902 0
M  V30 1093 O 107.054 -3.55911 0.143558 0
M  V30 1094 O 105.913 -5.46491 -0.0310766 0
M  V30 1095 H 103.007 -0.82602 -0.0402478 0
M  V30 1096 H 105.553 -1.55951 0.669139 0
M  V30 1097 H 104.325 -3.71397 1.23206 0
M  V30 1098 H 103.948 -3.9485 -0.466842 0
M  V30 1099 N 104.945 -0.338344 -1.53925 0
M  V30 1100 C 105.877 0.555117 -2.22376 0
M  V30 1101 C 106.89 1.06812 -1.22862 0
M  V30 1102 O 108.079 0.979163 -1.49247 0
M  V30 1103 C 105.179 1.77609 -2.88631 0
M  V30 1104 C 104.352 1.39927 -4.14414 0
M  V30 1105 C 103.411 2.47936 -4.64127 0
M  V30 1106 O 102.437 2.11461 -5.28463 0
M  V30 1107 N 103.639 3.79107 -4.39612 0
M  V30 1108 H 106.404 -0.0310778 -2.99684 0
M  V30 1109 H 103.965 -0.162226 -1.61085 0
M  V30 1110 H 105.957 2.49287 -3.18807 0
M  V30 1111 H 104.527 2.26978 -2.14941 0
M  V30 1112 H 103.747 0.513481 -3.90841 0
M  V30 1113 H 105.035 1.12341 -4.96243 0
M  V30 1114 H 104.433 4.11531 -3.88148 0
M  V30 1115 H 102.99 4.4697 -4.74406 0
M  V30 1116 N 106.423 1.57458 -0.0668435 0
M  V30 1117 C 107.672 1.92477 0.602947 0
M  V30 1118 C 107.985 0.948419 1.71068 0
M  V30 1119 O 109.191 1.19124 2.43971 0
M  V30 1120 C 107.647 3.41903 1.12383 0
M  V30 1121 C 107.255 4.47975 0.04737 0
M  V30 1122 C 108.999 3.85931 1.76797 0
M  V30 1123 C 106.906 5.88529 0.582022 0
M  V30 1124 H 105.836 0.718387 0.22899 0
M  V30 1125 H 108.487 1.82978 -0.138276 0
M  V30 1126 H 106.869 3.46459 1.91787 0
M  V30 1127 H 108.043 4.55029 -0.726978 0
M  V30 1128 H 106.358 4.13384 -0.500243 0
M  V30 1129 H 108.955 4.88322 2.17821 0
M  V30 1130 H 109.298 3.23029 2.62599 0
M  V30 1131 H 109.831 3.83958 1.04024 0
M  V30 1132 H 106.57 6.55065 -0.238721 0
M  V30 1133 H 106.09 5.85004 1.324 0
M  V30 1134 H 107.769 6.38258 1.05999 0
M  V30 1135 N 107.901 -0.206675 1.56239 0
M  V30 1136 C 109.149 -0.927007 1.79586 0
M  V30 1137 C 109.47 -1.8427 0.637929 0
M  V30 1138 O 108.74 -1.92849 -0.344398 0
M  V30 1139 H 107.32 -0.345292 0.662407 0
M  V30 1140 H 109.982 -0.21496 1.93711 0
M  V30 1141 H 109.078 -1.52501 2.72305 0
M  V30 1142 N 109.379 -1.50304 -0.473955 0
M  V30 1143 C 110.309 -1.71886 -1.58042 0
M  V30 1144 C 111.29 -0.567799 -1.60344 0
M  V30 1145 O 112.475 -0.806623 -1.76656 0
M  V30 1146 C 109.605 -1.81036 -2.96384 0
M  V30 1147 C 108.559 -2.962 -3.08949 0
M  V30 1148 C 107.885 -2.9049 -4.48909 0
M  V30 1149 C 109.185 -4.36752 -2.86434 0
M  V30 1150 H 110.879 -2.64527 -1.40234 0
M  V30 1151 H 108.425 -1.27295 -0.673201 0
M  V30 1152 H 110.378 -1.94719 -3.73714 0
M  V30 1153 H 109.102 -0.850147 -3.15341 0
M  V30 1154 H 107.761 -2.82164 -2.3405 0
M  V30 1155 H 107.409 -1.92321 -4.64781 0
M  V30 1156 H 107.109 -3.67802 -4.58253 0
M  V30 1157 H 108.633 -3.06218 -5.28264 0
M  V30 1158 H 110.047 -4.5133 -3.53517 0
M  V30 1159 H 108.444 -5.15493 -3.07225 0
M  V30 1160 H 109.514 -4.49321 -1.82316 0
M  V30 1161 N 110.857 0.726932 -1.39834 0
M  V30 1162 C 112.106 1.48214 -1.36805 0
M  V30 1163 C 112.419 1.95576 0.0305291 0
M  V30 1164 O 113.625 2.7088 0.183417 0
M  V30 1165 C 112.081 2.67854 -2.40379 0
M  V30 1166 C 111.689 2.27408 -3.85992 0
M  V30 1167 C 113.433 3.45641 -2.46439 0
M  V30 1168 C 111.34 3.43819 -4.81189 0
M  V30 1169 H 110.27 0.556606 -0.508631 0
M  V30 1170 H 112.921 0.792216 -1.65518 0
M  V30 1171 H 111.303 3.3896 -2.04749 0
M  V30 1172 H 112.477 1.63795 -4.30706 0
M  V30 1173 H 110.792 1.62692 -3.83302 0
M  V30 1174 H 113.389 4.32244 -3.14753 0
M  V30 1175 H 113.732 3.88669 -1.49139 0
M  V30 1176 H 114.265 2.8157 -2.81004 0
M  V30 1177 H 111.004 3.05834 -5.79781 0
M  V30 1178 H 110.524 4.06385 -4.41148 0
M  V30 1179 H 112.203 4.10043 -5.00474 0
M  V30 1180 N 112.336 1.25143 0.95797 0
M  V30 1181 C 113.582 1.09855 1.70469 0
M  V30 1182 C 113.915 -0.360187 1.90831 0
M  V30 1183 O 113.19 -1.26568 1.47685 0
M  V30 1184 C 113.473 1.8497 3.08963 0
M  V30 1185 C 113.326 3.38652 2.96032 0
M  V30 1186 C 114.645 1.63016 4.08795 0
M  V30 1187 H 111.764 0.400465 0.618706 0
M  V30 1188 H 114.406 1.53933 1.11376 0
M  V30 1189 H 112.556 1.47505 3.59409 0
M  V30 1190 H 114.228 3.85772 2.52938 0
M  V30 1191 H 112.471 3.66534 2.32025 0
M  V30 1192 H 113.142 3.8642 3.94187 0
M  V30 1193 H 115.618 1.95625 3.67247 0
M  V30 1194 H 114.494 2.18015 5.03747 0
M  V30 1195 H 114.755 0.570692 4.38401 0
M  V30 1196 N 113.814 -1.1601 1.06675 0
M  V30 1197 C 115.06 -1.86909 0.786945 0
M  V30 1198 C 115.393 -1.81717 -0.685018 0
M  V30 1199 O 114.668 -1.23551 -1.50218 0
M  V30 1200 C 114.951 -3.36313 1.28707 0
M  V30 1201 C 114.804 -3.50175 2.82308 0
M  V30 1202 C 116.123 -4.3084 0.898071 0
M  V30 1203 H 113.242 -0.678677 0.287343 0
M  V30 1204 H 115.884 -1.36336 1.32334 0
M  V30 1205 H 114.034 -3.79513 0.830768 0
M  V30 1206 H 115.706 -3.15886 3.36175 0
M  V30 1207 H 113.949 -2.91959 3.20847 0
M  V30 1208 H 114.62 -4.55116 3.12368 0
M  V30 1209 H 117.096 -3.95561 1.29114 0
M  V30 1210 H 115.972 -5.33876 1.27543 0
M  V30 1211 H 116.233 -4.41662 -0.196651 0
M  V30 1212 N 115.292 -0.849877 -1.32721 0
M  V30 1213 C 116.255 -0.296122 -2.27279 0
M  V30 1214 C 117.255 0.541458 -1.5141 0
M  V30 1215 O 118.445 0.353658 -1.70572 0
M  V30 1216 C 115.577 0.581579 -3.35902 0
M  V30 1217 H 116.77 -1.13064 -2.77771 0
M  V30 1218 H 114.323 -0.62383 -1.43311 0
M  V30 1219 H 115.058 1.43809 -2.9067 0
M  V30 1220 H 114.843 -0.0178814 -3.92096 0
M  V30 1221 H 116.333 0.961951 -4.0637 0
M  V30 1222 N 116.77 1.45427 -0.607355 0
M  V30 1223 C 117.998 2.06614 -0.108814 0
M  V30 1224 C 118.413 1.45204 1.2067 0
M  V30 1225 O 117.77 0.566132 1.73497 0
M  V30 1226 C 117.821 3.61481 0.0375347 0
M  V30 1227 O 117.542 4.20598 -1.22593 0
M  V30 1228 C 119.043 4.39652 0.567561 0
M  V30 1229 H 116.263 0.66747 -0.0687351 0
M  V30 1230 H 118.807 1.86675 -0.835022 0
M  V30 1231 H 116.962 3.80762 0.714068 0
M  V30 1232 H 117.376 5.1377 -1.05547 0
M  V30 1233 H 118.85 5.48518 0.61905 0
M  V30 1234 H 119.327 4.09417 1.58978 0
M  V30 1235 H 119.933 4.25234 -0.0749202 0
M  V30 1236 N 118.248 0.346503 1.53744 0
M  V30 1237 C 119.476 -0.25041 2.05379 0
M  V30 1238 C 119.891 -1.43979 1.22129 0
M  V30 1239 O 119.248 -1.80677 0.257321 0
M  V30 1240 C 119.299 -0.662575 3.55376 0
M  V30 1241 O 119.02 0.479515 4.35468 0
M  V30 1242 C 120.521 -1.31989 4.23195 0
M  V30 1243 H 117.741 -0.0478198 0.669294 0
M  V30 1244 H 120.285 0.499346 1.9831 0
M  V30 1245 H 118.44 -1.36227 3.62658 0
M  V30 1246 H 118.854 0.15037 5.24284 0
M  V30 1247 H 120.328 -1.55902 5.29527 0
M  V30 1248 H 120.805 -2.27436 3.75725 0
M  V30 1249 H 121.411 -0.662154 4.20114 0
M  V30 1250 N 119.726 -1.57421 0.075193 0
M  V30 1251 C 120.951 -1.98364 -0.605515 0
M  V30 1252 C 121.376 -0.953383 -1.62149 0
M  V30 1253 O 120.734 0.0806053 -1.81121 0
M  V30 1254 C 120.782 -3.38332 -1.24756 0
M  V30 1255 O 119.886 -3.37959 -2.36342 0
M  V30 1256 H 119.227 -0.645553 -0.155428 0
M  V30 1257 H 121.757 -2.04044 0.150714 0
M  V30 1258 H 121.767 -3.75591 -1.5936 0
M  V30 1259 H 120.442 -4.12846 -0.503129 0
M  V30 1260 H 119.019 -3.12474 -2.03506 0
M  V30 1261 N 121.204 0.198386 -1.56346 0
M  V30 1262 C 122.167 1.22952 -1.93431 0
M  V30 1263 C 123.167 1.38611 -0.815092 0
M  V30 1264 O 124.357 1.36479 -1.08255 0
M  V30 1265 C 121.489 2.59946 -2.20546 0
M  V30 1266 H 122.682 0.912626 -2.85677 0
M  V30 1267 H 120.235 0.43977 -1.49986 0
M  V30 1268 H 120.97 2.96696 -1.30927 0
M  V30 1269 H 120.755 2.49953 -3.02102 0
M  V30 1270 H 122.245 3.3431 -2.50253 0
M  V30 1271 N 122.682 1.50554 0.465978 0
M  V30 1272 C 123.91 1.65563 1.24083 0
M  V30 1273 C 124.325 0.341051 1.85694 0
M  V30 1274 O 123.682 -0.677543 1.69457 0
M  V30 1275 C 123.733 2.75051 2.34583 0
M  V30 1276 O 123.454 4.01413 1.75497 0
M  V30 1277 C 124.955 3.01078 3.25372 0
M  V30 1278 H 122.175 0.55638 0.375077 0
M  V30 1279 H 124.719 1.96807 0.555624 0
M  V30 1280 H 122.874 2.46486 2.9887 0
M  V30 1281 H 123.288 4.62002 2.48303 0
M  V30 1282 H 124.762 3.81339 3.99105 0
M  V30 1283 H 125.239 2.12349 3.84453 0
M  V30 1284 H 125.845 3.31194 2.66816 0
M  V30 1285 N 124.16 -0.719506 1.40217 0
M  V30 1286 C 125.11 -1.8251 1.36653 0
M  V30 1287 C 126.094 -1.59028 0.244732 0
M  V30 1288 O 127.286 -1.70268 0.483524 0
M  V30 1289 C 124.415 -3.20599 1.22763 0
M  V30 1290 C 123.501 -3.49858 2.39708 0
M  V30 1291 N 123.892 -3.49957 3.6519 0
M  V30 1292 C 122.19 -3.80297 2.33002 0
M  V30 1293 C 122.891 -3.77449 4.42614 0
M  V30 1294 N 121.867 -3.96002 3.72402 0
M  V30 1295 H 125.669 -1.80914 2.31619 0
M  V30 1296 H 123.183 -0.918455 1.33933 0
M  V30 1297 H 125.18 -3.99766 1.18292 0
M  V30 1298 H 123.84 -3.23424 0.287614 0
M  V30 1299 H 124.851 -3.309 3.98404 0
M  V30 1300 H 121.528 -3.90635 1.47346 0
M  V30 1301 H 122.918 -3.83863 5.51451 0
M  V30 1302 N 125.638 -1.25649 -0.95132 0
M  V30 1303 C 126.601 -1.06399 -2.03007 0
M  V30 1304 C 127.601 -0.0156794 -1.60792 0
M  V30 1305 O 128.791 -0.25817 -1.72276 0
M  V30 1306 C 125.923 -0.616184 -3.35285 0
M  V30 1307 H 127.116 -2.02164 -2.21517 0
M  V30 1308 H 124.669 -1.08103 -1.12887 0
M  V30 1309 H 125.404 0.343917 -3.22471 0
M  V30 1310 H 125.189 -1.37301 -3.67275 0
M  V30 1311 H 126.679 -0.503032 -4.14559 0
M  V30 1312 N 127.117 1.15442 -1.07289 0
M  V30 1313 C 128.364 1.86213 -0.795668 0
M  V30 1314 C 128.692 1.82291 0.678238 0
M  V30 1315 O 127.947 1.24057 1.51355 0
M  V30 1316 C 128.246 3.3489 -1.24834 0
M  V30 1317 C 127.912 3.59007 -2.72809 0
M  V30 1318 C 126.574 3.65298 -3.13227 0
M  V30 1319 C 128.926 3.68762 -3.68326 0
M  V30 1320 C 126.254 3.78854 -4.4798 0
M  V30 1321 C 128.606 3.83842 -5.0284 0
M  V30 1322 C 127.27 3.88378 -5.4288 0
M  V30 1323 H 126.54 0.681403 -0.291155 0
M  V30 1324 H 129.187 1.36435 -1.34379 0
M  V30 1325 H 127.492 3.8687 -0.619595 0
M  V30 1326 H 129.189 3.88052 -1.01076 0
M  V30 1327 H 125.779 3.5475 -2.40521 0
M  V30 1328 H 129.963 3.63202 -3.38227 0
M  V30 1329 H 125.219 3.80623 -4.78472 0
M  V30 1330 H 129.393 3.90332 -5.76727 0
M  V30 1331 H 127.02 3.98635 -6.47298 0
M  V30 1332 N 128.595 0.856903 1.32268 0
M  V30 1333 C 130.006 0.515711 1.79436 0
M  V30 1334 C 130.357 -0.966586 1.70738 0
M  V30 1335 O 129.482 -1.75409 1.26731 0
M  V30 1336 C 130.077 0.929335 3.25805 0
M  V30 1337 C 128.636 0.640006 3.70919 0
M  V30 1338 C 127.783 1.12784 2.53328 0
M  V30 1339 H 130.734 1.04389 1.19535 0
M  V30 1340 H 130.755 0.246633 3.797 0
M  V30 1341 H 130.267 2.00821 3.32103 0
M  V30 1342 H 128.368 -0.428051 3.70133 0
M  V30 1343 H 128.481 1.20788 4.63624 0
M  V30 1344 H 126.845 0.548033 2.48734 0
M  V30 1345 H 127.628 2.21387 2.62379 0
M  V30 1346 N 130.073 -1.45103 0.615059 0
M  V30 1347 C 131.298 -2.07064 0.117988 0
M  V30 1348 C 131.723 -1.4554 -1.19163 0
M  V30 1349 O 131.081 -0.550855 -1.72729 0
M  V30 1350 C 131.129 -3.606 -0.000288387 0
M  V30 1351 O 130.233 -3.98847 -1.04856 0
M  V30 1352 H 129.574 -0.659467 0.0774581 0
M  V30 1353 H 132.104 -1.86236 0.847186 0
M  V30 1354 H 132.114 -4.07529 -0.196091 0
M  V30 1355 H 130.789 -4.04765 0.955932 0
M  V30 1356 H 129.366 -3.63577 -0.828619 0
M  V30 1357 N 131.551 -0.354651 -1.53558 0
M  V30 1358 C 132.514 0.484566 -2.24019 0
M  V30 1359 C 133.514 1.01861 -1.24422 0
M  V30 1360 O 134.704 0.906097 -1.4878 0
M  V30 1361 C 131.836 1.67615 -2.96847 0
M  V30 1362 H 133.029 -0.131843 -2.9961 0
M  V30 1363 H 130.582 -0.106165 -1.55939 0
M  V30 1364 H 131.317 2.33095 -2.25471 0
M  V30 1365 H 131.102 1.30029 -3.69912 0
M  V30 1366 H 132.592 2.27114 -3.50441 0
M  V30 1367 N 133.029 1.57378 -0.0835403 0
M  V30 1368 C 133.992 2.12252 0.864959 0
M  V30 1369 C 134.992 1.04916 1.21858 0
M  V30 1370 O 136.182 1.30853 1.14991 0
M  V30 1371 C 133.314 2.63358 2.16461 0
M  V30 1372 H 134.507 2.97371 0.388676 0
M  V30 1373 H 132.06 1.55423 0.165317 0
M  V30 1374 H 132.795 1.81727 2.686 0
M  V30 1375 H 132.58 3.41826 1.92087 0
M  V30 1376 H 134.07 3.05847 2.84337 0
M  V30 1377 N 134.507 -0.190092 1.56449 0
M  V30 1378 C 135.747 -0.916414 1.82705 0
M  V30 1379 C 136.111 -1.80235 0.661763 0
M  V30 1380 O 137.312 -2.56484 0.80433 0
M  V30 1381 C 135.583 -1.70691 3.14005 0
M  V30 1382 S 137.142 -2.48457 3.61683 0
M  V30 1383 H 133.96 -0.307281 0.64117 0
M  V30 1384 H 136.562 -0.179433 1.94675 0
M  V30 1385 H 135.266 -1.04677 3.96826 0
M  V30 1386 H 134.797 -2.48562 3.04927 0
M  V30 1387 H 136.812 -3.72756 3.27517 0
M  V30 1388 N 135.985 -1.50799 -0.457987 0
M  V30 1389 C 136.917 -1.66786 -1.57211 0
M  V30 1390 C 137.93 -0.548962 -1.53265 0
M  V30 1391 O 139.119 -0.8226 -1.58416 0
M  V30 1392 C 136.219 -1.64834 -2.96113 0
M  V30 1393 C 135.392 -2.92971 -3.24787 0
M  V30 1394 C 134.451 -2.83485 -4.43309 0
M  V30 1395 O 133.477 -3.5744 -4.42973 0
M  V30 1396 N 134.679 -1.97929 -5.45714 0
M  V30 1397 H 137.444 -2.62889 -1.43909 0
M  V30 1398 H 135.005 -1.48427 -0.646617 0
M  V30 1399 H 136.997 -1.56084 -3.7339 0
M  V30 1400 H 135.567 -0.764118 -3.03117 0
M  V30 1401 H 134.787 -3.15749 -2.36 0
M  V30 1402 H 136.075 -3.77834 -3.40762 0
M  V30 1403 H 135.473 -1.37182 -5.48815 0
M  V30 1404 H 134.03 -1.95073 -6.21924 0
M  V30 1405 N 137.463 0.71206 -1.40597 0
M  V30 1406 C 138.712 1.46754 -1.38369 0
M  V30 1407 C 139.025 1.95598 0.0097839 0
M  V30 1408 O 140.231 2.71059 0.154677 0
M  V30 1409 C 138.687 2.65289 -2.43207 0
M  V30 1410 C 138.295 2.23301 -3.88382 0
M  V30 1411 C 140.039 3.43008 -2.50091 0
M  V30 1412 C 137.946 3.38696 -4.84808 0
M  V30 1413 H 136.876 0.55118 -0.514506 0
M  V30 1414 H 139.527 0.774616 -1.66349 0
M  V30 1415 H 137.909 3.36769 -2.08332 0
M  V30 1416 H 139.083 1.59218 -4.32419 0
M  V30 1417 H 137.398 1.58618 -3.85006 0
M  V30 1418 H 139.995 4.28881 -3.1932 0
M  V30 1419 H 140.338 3.87065 -1.53253 0
M  V30 1420 H 140.871 2.78574 -2.83974 0
M  V30 1421 H 137.61 2.99668 -5.82992 0
M  V30 1422 H 137.13 4.01683 -4.45433 0
M  V30 1423 H 138.809 4.04712 -5.04794 0
M  V30 1424 N 138.941 1.26152 0.944643 0
M  V30 1425 C 139.873 1.03199 2.04652 0
M  V30 1426 C 140.886 -0.00642356 1.62799 0
M  V30 1427 O 142.075 0.233263 1.76969 0
M  V30 1428 C 139.175 0.540111 3.34568 0
M  V30 1429 C 138.348 1.64697 4.05208 0
M  V30 1430 C 137.407 1.15374 5.13396 0
M  V30 1431 O 136.433 1.85013 5.38293 0
M  V30 1432 N 137.635 0.00031529 5.805 0
M  V30 1433 H 140.4 1.9808 2.2491 0
M  V30 1434 H 137.961 1.17491 1.11389 0
M  V30 1435 H 139.953 0.194401 4.04233 0
M  V30 1436 H 138.523 -0.315021 3.11009 0
M  V30 1437 H 137.743 2.16379 3.29506 0
M  V30 1438 H 139.031 2.3903 4.49157 0
M  V30 1439 H 138.429 -0.581336 5.62705 0
M  V30 1440 H 136.986 -0.286346 6.51171 0
M  V30 1441 N 140.419 -1.14872 1.07899 0
M  V30 1442 C 141.644 -1.90202 0.826926 0
M  V30 1443 C 142.069 -1.77774 -0.614664 0
M  V30 1444 O 141.427 -1.11431 -1.43013 0
M  V30 1445 C 141.475 -3.38352 1.24702 0
M  V30 1446 O 140.579 -4.10497 0.39575 0
M  V30 1447 H 139.92 -0.591968 0.300782 0
M  V30 1448 H 142.45 -1.45437 1.43907 0
M  V30 1449 H 142.46 -3.89156 1.22563 0
M  V30 1450 H 141.135 -3.46715 2.29698 0
M  V30 1451 H 139.712 -3.69796 0.480117 0
M  V30 1452 N 141.898 -0.863906 -1.31812 0
M  V30 1453 C 142.831 -0.259963 -2.26714 0
M  V30 1454 C 143.809 0.607392 -1.50829 0
M  V30 1455 O 144.993 0.562155 -1.79922 0
M  V30 1456 C 142.12 0.632456 -3.32743 0
M  V30 1457 C 141.166 -0.162743 -4.26189 0
M  V30 1458 S 141.999 -1.53726 -5.12961 0
M  V30 1459 C 143.155 -0.650803 -6.22507 0
M  V30 1460 H 143.388 -1.06445 -2.77591 0
M  V30 1461 H 140.921 -0.662071 -1.39485 0
M  V30 1462 H 142.879 1.14167 -3.94305 0
M  V30 1463 H 141.54 1.41083 -2.80632 0
M  V30 1464 H 140.733 0.517366 -5.01338 0
M  V30 1465 H 140.335 -0.60385 -3.69093 0
M  V30 1466 H 142.627 0.141134 -6.77353 0
M  V30 1467 H 143.57 -1.37322 -6.94657 0
M  V30 1468 H 143.978 -0.221041 -5.64067 0
M  V30 1469 N 143.376 1.44774 -0.622745 0
M  V30 1470 C 144.306 2.33382 0.0741861 0
M  V30 1471 C 145.287 1.47719 0.843387 0
M  V30 1472 O 146.472 1.76458 0.810934 0
M  V30 1473 C 143.602 3.30663 1.06204 0
M  V30 1474 C 142.556 4.26079 0.405037 0
M  V30 1475 C 141.882 5.13165 1.5022 0
M  V30 1476 C 143.182 5.1781 -0.683414 0
M  V30 1477 H 144.876 2.91905 -0.665713 0
M  V30 1478 H 142.422 1.40363 -0.321587 0
M  V30 1479 H 144.375 3.9153 1.55827 0
M  V30 1480 H 143.099 2.70331 1.83272 0
M  V30 1481 H 141.758 3.66532 -0.0704683 0
M  V30 1482 H 141.406 4.49191 2.26355 0
M  V30 1483 H 141.106 5.77812 1.06803 0
M  V30 1484 H 142.63 5.76902 2.00041 0
M  V30 1485 H 144.044 5.72661 -0.270631 0
M  V30 1486 H 142.441 5.91015 -1.04023 0
M  V30 1487 H 143.511 4.59326 -1.55395 0
M  V30 1488 N 144.854 0.36279 1.53368 0
M  V30 1489 C 146.102 -0.227326 2.00817 0
M  V30 1490 C 146.423 -1.49511 1.25186 0
M  V30 1491 O 145.693 -1.92482 0.364348 0
M  V30 1492 H 144.273 -0.0869923 0.741917 0
M  V30 1493 H 146.935 0.488381 1.88682 0
M  V30 1494 H 146.031 -0.456273 3.08747 0
M  V30 1495 N 146.332 -1.57332 0.0918853 0
M  V30 1496 C 147.581 -1.93412 -0.572249 0
M  V30 1497 C 147.894 -0.975515 -1.69538 0
M  V30 1498 O 149.1 -1.22991 -2.42045 0
M  V30 1499 C 147.556 -3.43648 -1.0693 0
M  V30 1500 C 147.164 -4.47994 0.0239049 0
M  V30 1501 C 148.908 -3.88695 -1.70635 0
M  V30 1502 C 146.815 -5.89381 -0.488319 0
M  V30 1503 H 145.745 -0.721939 -0.217532 0
M  V30 1504 H 148.396 -1.82735 0.167369 0
M  V30 1505 H 146.778 -3.49466 -1.8625 0
M  V30 1506 H 147.952 -4.53815 0.799277 0
M  V30 1507 H 146.267 -4.12536 0.565946 0
M  V30 1508 H 148.864 -4.91725 -2.10025 0
M  V30 1509 H 149.207 -3.27166 -2.57426 0
M  V30 1510 H 149.74 -3.85564 -0.979023 0
M  V30 1511 H 146.479 -6.54602 0.342906 0
M  V30 1512 H 145.999 -5.87037 -1.23077 0
M  V30 1513 H 147.678 -6.39863 -0.958317 0
M  V30 1514 N 147.81 0.181792 -1.56548 0
M  V30 1515 C 148.757 1.22521 -1.95595 0
M  V30 1516 C 149.727 1.4454 -0.818373 0
M  V30 1517 O 150.912 1.57454 -1.07763 0
M  V30 1518 C 148.052 2.56193 -2.31212 0
M  V30 1519 C 147.165 2.41641 -3.58097 0
M  V30 1520 C 146.3 3.68108 -3.82975 0
M  V30 1521 C 145.339 3.48445 -5.03242 0
M  V30 1522 N 144.476 4.66956 -5.24306 0
M  V30 1523 H 149.316 0.885226 -2.84548 0
M  V30 1524 H 146.853 0.425718 -1.40805 0
M  V30 1525 H 148.811 3.34088 -2.49882 0
M  V30 1526 H 147.441 2.88208 -1.45382 0
M  V30 1527 H 146.493 1.54976 -3.474 0
M  V30 1528 H 147.805 2.23052 -4.46149 0
M  V30 1529 H 146.959 4.54441 -4.01956 0
M  V30 1530 H 145.698 3.89666 -2.93278 0
M  V30 1531 H 144.703 2.60499 -4.8417 0
M  V30 1532 H 145.928 3.2832 -5.9446 0
M  V30 1533 H 143.874 4.88752 -4.37559 0
M  V30 1534 H 143.791 4.51242 -6.06561 0
M  V30 1535 H 145.059 5.54602 -5.47756 0
M  V30 1536 N 149.288 1.51039 0.449983 0
M  V30 1537 C 150.536 1.62759 1.19808 0
M  V30 1538 C 150.857 0.339981 1.92013 0
M  V30 1539 O 150.127 -0.643606 1.85026 0
M  V30 1540 H 148.707 0.599811 0.445237 0
M  V30 1541 H 151.369 1.87914 0.517138 0
M  V30 1542 H 150.465 2.44911 1.93455 0
M  V30 1543 N 150.766 -0.704594 1.40972 0
M  V30 1544 C 152.006 -1.47691 1.41304 0
M  V30 1545 C 152.37 -1.91992 0.0178582 0
M  V30 1546 O 153.571 -2.68599 -0.103996 0
M  V30 1547 C 151.842 -2.66254 2.38419 0
M  V30 1548 S 153.401 -3.55516 2.57204 0
M  V30 1549 H 150.219 -0.504808 0.500689 0
M  V30 1550 H 152.821 -0.822962 1.77335 0
M  V30 1551 H 151.525 -2.31897 3.38603 0
M  V30 1552 H 151.056 -3.3655 2.03711 0
M  V30 1553 H 153.071 -4.61115 1.83268 0
M  V30 1554 N 152.244 -1.26651 -0.937939 0
M  V30 1555 C 153.655 -1.1125 -1.49934 0
M  V30 1556 C 154.006 0.306077 -1.93798 0
M  V30 1557 O 153.131 1.19792 -1.80219 0
M  V30 1558 C 153.726 -2.01339 -2.72485 0
M  V30 1559 C 152.285 -1.90074 -3.24883 0
M  V30 1560 C 151.432 -1.94498 -1.97651 0
M  V30 1561 H 154.383 -1.39693 -0.753091 0
M  V30 1562 H 154.404 -1.56319 -3.46907 0
M  V30 1563 H 153.916 -3.04577 -2.40529 0
M  V30 1564 H 152.017 -0.897827 -3.61621 0
M  V30 1565 H 152.13 -2.75778 -3.9177 0
M  V30 1566 H 150.494 -1.38591 -2.13693 0
M  V30 1567 H 151.277 -2.99372 -1.68022 0
M  V30 1568 N 153.722 1.14298 -1.08507 0
M  V30 1569 C 154.685 2.17607 -0.719711 0
M  V30 1570 C 155.685 1.58907 0.245997 0
M  V30 1571 O 156.875 1.74181 0.0254081 0
M  V30 1572 C 154.007 3.40842 -0.0627695 0
M  V30 1573 H 155.2 2.51443 -1.63452 0
M  V30 1574 H 152.753 1.28963 -0.88307 0
M  V30 1575 H 153.488 3.12587 0.863716 0
M  V30 1576 H 153.273 3.84713 -0.757504 0
M  V30 1577 H 154.763 4.17221 0.177786 0
M  V30 1578 N 155.201 0.870884 1.31352 0
M  V30 1579 C 156.448 0.482273 1.96673 0
M  V30 1580 C 156.776 -0.965638 1.68836 0
M  V30 1581 O 156.031 -1.69514 0.977937 0
M  V30 1582 C 156.33 0.687157 3.50732 0
M  V30 1583 C 155.996 2.108 3.9859 0
M  V30 1584 C 154.658 2.49656 4.1137 0
M  V30 1585 C 157.01 3.03459 4.23748 0
M  V30 1586 C 154.338 3.80412 4.46659 0
M  V30 1587 C 156.69 4.3373 4.60501 0
M  V30 1588 C 155.354 4.725 4.71487 0
M  V30 1589 H 154.624 0.176476 0.719679 0
M  V30 1590 H 157.271 1.10405 1.56471 0
M  V30 1591 H 155.576 -0.0177476 3.91796 0
M  V30 1592 H 157.273 0.366284 3.99324 0
M  V30 1593 H 153.863 1.79633 3.8914 0
M  V30 1594 H 158.047 2.74665 4.13368 0
M  V30 1595 H 153.303 4.1021 4.53362 0
M  V30 1596 H 157.477 5.05578 4.78919 0
M  V30 1597 H 155.104 5.73859 4.98588 0
M  V30 1598 N 156.679 -1.44442 0.630414 0
M  V30 1599 C 157.956 -1.9549 0.0655657 0
M  V30 1600 C 158.336 -1.5724 -1.40851 0
M  V30 1601 O 157.684 -0.846116 -2.12257 0
M  V30 1602 C 157.894 -3.47812 0.287691 0
M  V30 1603 C 159.242 -4.24216 0.180513 0
M  V30 1604 O 160.266 -3.55526 0.219019 0
M  V30 1605 O 159.125 -5.46434 0.0848493 0
M  V30 1606 H 156.219 -0.826688 -0.0227177 0
M  V30 1607 H 158.765 -1.54496 0.702068 0
M  V30 1608 H 157.537 -3.687 1.31056 0
M  V30 1609 H 157.16 -3.95751 -0.382984 0
M  V30 1610 N 158.157 -0.370918 -1.53173 0
M  V30 1611 C 159.403 0.217423 -2.01631 0
M  V30 1612 C 159.736 1.47983 -1.25756 0
M  V30 1613 O 159.011 1.91274 -0.352764 0
M  V30 1614 C 159.294 0.503982 -3.56556 0
M  V30 1615 C 159.147 -0.77243 -4.43118 0
M  V30 1616 C 160.466 1.30234 -4.20389 0
M  V30 1617 H 157.585 0.0775486 -0.732909 0
M  V30 1618 H 160.227 -0.496863 -1.83388 0
M  V30 1619 H 158.377 1.11248 -3.72231 0
M  V30 1620 H 160.049 -1.4098 -4.39229 0
M  V30 1621 H 158.292 -1.39167 -4.10871 0
M  V30 1622 H 158.963 -0.526815 -5.4948 0
M  V30 1623 H 161.439 0.787546 -4.08579 0
M  V30 1624 H 160.315 1.47158 -5.28806 0
M  V30 1625 H 160.576 2.31237 -3.76805 0
M  V30 1626 N 159.635 1.57281 -0.100228 0
M  V30 1627 C 160.598 2.13158 0.842398 0
M  V30 1628 C 161.598 1.06202 1.20738 0
M  V30 1629 O 162.788 1.32066 1.13597 0
M  V30 1630 C 159.92 2.65639 2.13655 0
M  V30 1631 H 161.113 2.97766 0.357114 0
M  V30 1632 H 158.666 1.5559 0.148823 0
M  V30 1633 H 159.401 1.84566 2.66657 0
M  V30 1634 H 159.186 3.43844 1.88451 0
M  V30 1635 H 160.676 3.08846 2.81077 0
M  V30 1636 N 161.113 -0.173488 1.56642 0
M  V30 1637 C 162.076 -1.19859 1.95362 0
M  V30 1638 C 163.076 -1.37296 0.83704 0
M  V30 1639 O 164.266 -1.34739 1.10413 0
M  V30 1640 C 161.398 -2.56405 2.24654 0
M  V30 1641 H 162.591 -0.867062 2.87092 0
M  V30 1642 H 160.144 -0.415853 1.50666 0
M  V30 1643 H 160.879 -2.94576 1.35631 0
M  V30 1644 H 160.664 -2.45115 3.06041 0
M  V30 1645 H 162.154 -3.30287 2.5554 0
M  V30 1646 N 162.591 -1.51276 -0.441967 0
M  V30 1647 C 163.554 -1.7167 -1.51862 0
M  V30 1648 C 164.554 -0.586793 -1.49711 0
M  V30 1649 O 165.744 -0.854276 -1.51815 0
M  V30 1650 C 162.876 -1.76889 -2.91416 0
M  V30 1651 H 164.069 -2.67754 -1.35084 0
M  V30 1652 H 161.622 -1.41196 -0.670333 0
M  V30 1653 H 162.357 -0.826026 -3.13604 0
M  V30 1654 H 162.142 -2.59001 -2.94382 0
M  V30 1655 H 163.632 -1.94522 -3.69528 0
M  V30 1656 N 164.069 0.697108 -1.41344 0
M  V30 1657 C 165.309 1.46939 -1.42085 0
M  V30 1658 C 165.673 1.9198 -0.0280397 0
M  V30 1659 O 166.874 2.6865 0.0897504 0
M  V30 1660 C 165.145 2.64985 -2.39828 0
M  V30 1661 S 166.704 3.54147 -2.59085 0
M  V30 1662 H 163.522 0.502146 -0.503359 0
M  V30 1663 H 166.124 0.813546 -1.77769 0
M  V30 1664 H 164.828 2.30098 -3.39828 0
M  V30 1665 H 164.359 3.35464 -2.05493 0
M  V30 1666 H 166.374 4.60137 -1.85711 0
M  V30 1667 N 165.547 1.27147 0.931209 0
M  V30 1668 C 166.51 1.09615 2.01289 0
M  V30 1669 C 167.51 0.0412581 1.60747 0
M  V30 1670 O 168.7 0.285545 1.71844 0
M  V30 1671 C 165.832 0.669447 3.34262 0
M  V30 1672 H 167.025 2.05662 2.18273 0
M  V30 1673 H 164.578 1.09885 1.11153 0
M  V30 1674 H 165.313 -0.292572 3.22978 0
M  V30 1675 H 165.098 1.43127 3.65044 0
M  V30 1676 H 166.588 0.568921 4.13706 0
M  V30 1677 N 167.025 -1.13721 1.09112 0
M  V30 1678 C 168.273 -1.84559 0.823562 0
M  V30 1679 C 168.594 -1.83754 -0.652658 0
M  V30 1680 O 167.864 -1.29102 -1.47342 0
M  V30 1681 H 166.444 -0.683376 0.301673 0
M  V30 1682 H 169.106 -1.37771 1.37859 0
M  V30 1683 H 168.202 -2.8917 1.17419 0
M  V30 1684 N 168.503 -0.877838 -1.30888 0
M  V30 1685 C 169.75 -0.492696 -1.96415 0
M  V30 1686 C 170.078 0.956671 -1.69346 0
M  V30 1687 O 169.333 1.68993 -0.986913 0
M  V30 1688 C 169.632 -0.705748 -3.50363 0
M  V30 1689 C 169.298 -2.1291 -3.97467 0
M  V30 1690 C 167.96 -2.51834 -4.1004 0
M  V30 1691 C 170.312 -3.05702 -4.22132 0
M  V30 1692 C 167.64 -3.82775 -4.44635 0
M  V30 1693 C 169.992 -4.36166 -4.58194 0
M  V30 1694 C 168.656 -4.74993 -4.68975 0
M  V30 1695 H 167.926 -0.18029 -0.718733 0
M  V30 1696 H 170.573 -1.11233 -1.55883 0
M  V30 1697 H 168.878 -0.00303058 -3.918 0
M  V30 1698 H 170.575 -0.387456 -3.99124 0
M  V30 1699 H 167.165 -1.81694 -3.88182 0
M  V30 1700 H 171.349 -2.76853 -4.11906 0
M  V30 1701 H 166.605 -4.12609 -4.51181 0
M  V30 1702 H 170.779 -5.08111 -4.76231 0
M  V30 1703 H 168.406 -5.76495 -4.95537 0
M  V30 1704 N 169.982 1.44106 -0.638065 0
M  V30 1705 C 171.21 2.06336 -0.152615 0
M  V30 1706 C 171.625 1.47731 1.17563 0
M  V30 1707 O 170.982 0.602806 1.72257 0
M  V30 1708 C 171.033 3.61479 -0.0391491 0
M  V30 1709 O 170.754 4.17903 -1.31487 0
M  V30 1710 C 172.255 4.40757 0.474176 0
M  V30 1711 H 169.475 0.665862 -0.0828776 0
M  V30 1712 H 172.019 1.84862 -0.87443 0
M  V30 1713 H 170.174 3.82191 0.633142 0
M  V30 1714 H 170.588 5.11416 -1.16421 0
M  V30 1715 H 172.062 5.49707 0.502562 0
M  V30 1716 H 172.539 4.12697 1.50258 0
M  V30 1717 H 173.145 4.24979 -0.165102 0
M  V30 1718 N 171.46 0.379036 1.52974 0
M  V30 1719 C 172.69 -0.20649 2.05566 0
M  V30 1720 C 173.098 -1.41906 1.25137 0
M  V30 1721 O 172.441 -1.81421 0.288464 0
M  V30 1722 C 172.503 -0.651086 3.53555 0
M  V30 1723 C 172.167 0.446626 4.54812 0
M  V30 1724 C 173.164 1.30079 5.03364 0
M  V30 1725 C 170.849 0.610719 4.98573 0
M  V30 1726 C 172.843 2.30426 5.94292 0
M  V30 1727 C 170.53 1.61754 5.89304 0
M  V30 1728 C 171.528 2.46274 6.37054 0
M  V30 1729 O 171.216 3.45237 7.25994 0
M  V30 1730 H 170.948 -0.0372381 0.674974 0
M  V30 1731 H 173.502 0.539718 1.98182 0
M  V30 1732 H 171.732 -1.44911 3.58522 0
M  V30 1733 H 173.421 -1.16112 3.88938 0
M  V30 1734 H 174.187 1.18527 4.70294 0
M  V30 1735 H 170.066 -0.0374044 4.60985 0
M  V30 1736 H 173.61 2.96432 6.31485 0
M  V30 1737 H 169.507 1.73348 6.21788 0
M  V30 1738 H 170.275 3.41124 7.44027 0
M  V30 1739 N 172.938 -1.57226 0.108567 0
M  V30 1740 C 173.901 -2.13602 -0.831082 0
M  V30 1741 C 174.901 -1.06841 -1.20173 0
M  V30 1742 O 176.091 -1.32666 -1.12895 0
M  V30 1743 C 173.223 -2.66769 -2.12243 0
M  V30 1744 H 174.416 -2.97951 -0.341317 0
M  V30 1745 H 171.969 -1.55667 -0.14057 0
M  V30 1746 H 172.704 -1.85977 -2.65675 0
M  V30 1747 H 172.489 -3.44839 -1.86625 0
M  V30 1748 H 173.979 -3.10332 -2.79435 0
M  V30 1749 N 174.416 0.165178 -1.56732 0
M  V30 1750 C 175.346 1.20651 -1.99914 0
M  V30 1751 C 176.327 1.45827 -0.875705 0
M  V30 1752 O 177.512 1.57057 -1.14223 0
M  V30 1753 C 174.642 2.54401 -2.36427 0
M  V30 1754 C 173.596 2.43782 -3.51787 0
M  V30 1755 C 172.922 3.82078 -3.7406 0
M  V30 1756 C 174.222 1.93732 -4.85041 0
M  V30 1757 H 175.916 0.847534 -2.87154 0
M  V30 1758 H 173.462 0.40625 -1.38151 0
M  V30 1759 H 175.415 3.27458 -2.65234 0
M  V30 1760 H 174.139 2.92098 -1.46103 0
M  V30 1761 H 172.798 1.73178 -3.23117 0
M  V30 1762 H 172.446 4.17179 -2.81017 0
M  V30 1763 H 172.146 3.7584 -4.51684 0
M  V30 1764 H 173.67 4.56712 -4.05274 0
M  V30 1765 H 175.084 2.56569 -5.12684 0
M  V30 1766 H 173.481 1.98428 -5.66345 0
M  V30 1767 H 174.551 0.891962 -4.76626 0
M  V30 1768 N 175.894 1.51508 0.433938 0
M  V30 1769 C 177.119 1.68443 1.21003 0
M  V30 1770 C 177.544 0.382636 1.84167 0
M  V30 1771 O 176.902 -0.65755 1.68956 0
M  V30 1772 C 176.95 2.80405 2.26727 0
M  V30 1773 O 176.054 2.44245 3.32292 0
M  V30 1774 H 175.395 0.561536 0.354363 0
M  V30 1775 H 177.925 1.9809 0.512024 0
M  V30 1776 H 177.935 3.0459 2.71457 0
M  V30 1777 H 176.61 3.74867 1.80132 0
M  V30 1778 H 175.187 2.30644 2.93015 0
M  V30 1779 N 177.372 -0.689602 1.41712 0
M  V30 1780 C 178.618 -1.45181 1.41599 0
M  V30 1781 C 178.951 -1.94181 0.0270081 0
M  V30 1782 O 178.226 -1.6993 -0.946265 0
M  V30 1783 C 178.509 -2.65945 2.42787 0
M  V30 1784 C 178.362 -2.22672 3.90816 0
M  V30 1785 C 179.681 -3.68149 2.41151 0
M  V30 1786 H 176.8 -0.526576 0.515642 0
M  V30 1787 H 179.442 -0.784947 1.73028 0
M  V30 1788 H 177.592 -3.2284 2.16116 0
M  V30 1789 H 179.264 -1.71058 4.28412 0
M  V30 1790 H 177.507 -1.54394 4.05395 0
M  V30 1791 H 178.178 -3.0935 4.57172 0
M  V30 1792 H 180.654 -3.2094 2.64834 0
M  V30 1793 H 179.53 -4.50248 3.13955 0
M  V30 1794 H 179.791 -4.18259 1.43221 0
M  V30 1795 N 178.85 -1.27639 -0.924453 0
M  V30 1796 C 179.813 -1.10681 -2.00705 0
M  V30 1797 C 180.813 -0.0497823 -1.60723 0
M  V30 1798 O 182.003 -0.294654 -1.7169 0
M  V30 1799 C 179.135 -0.687164 -3.33902 0
M  V30 1800 H 180.328 -2.06817 -2.17179 0
M  V30 1801 H 177.881 -1.10473 -1.10569 0
M  V30 1802 H 178.616 0.275439 -3.23128 0
M  V30 1803 H 178.401 -1.45061 -3.6428 0
M  V30 1804 H 179.891 -0.590853 -4.13399 0
M  V30 1805 N 180.328 1.1314 -1.09713 0
M  V30 1806 C 181.605 1.80762 -0.747302 0
M  V30 1807 C 181.985 1.96663 0.767265 0
M  V30 1808 O 181.333 1.53706 1.69076 0
M  V30 1809 C 181.543 3.15606 -1.48975 0
M  V30 1810 C 182.891 3.90914 -1.65746 0
M  V30 1811 O 183.915 3.25239 -1.45251 0
M  V30 1812 O 182.774 5.08718 -1.9967 0
M  V30 1813 H 179.868 0.782103 -0.268782 0
M  V30 1814 H 182.414 1.20041 -1.19951 0
M  V30 1815 H 181.186 2.99278 -2.52088 0
M  V30 1816 H 180.809 3.84029 -1.02991 0
M  V30 1817 N 181.806 0.884767 1.30421 0
M  V30 1818 C 182.738 0.308655 2.27112 0
M  V30 1819 C 183.751 -0.536655 1.53701 0
M  V30 1820 O 184.94 -0.35624 1.74909 0
M  V30 1821 C 182.04 -0.579782 3.33904 0
M  V30 1822 C 181.213 0.236417 4.36761 0
M  V30 1823 C 180.272 -0.582482 5.22966 0
M  V30 1824 O 179.298 -0.00525502 5.692 0
M  V30 1825 N 180.5 -1.89163 5.48815 0
M  V30 1826 H 183.265 1.13964 2.77186 0
M  V30 1827 H 180.826 0.747731 1.43599 0
M  V30 1828 H 182.818 -1.13366 3.88497 0
M  V30 1829 H 181.388 -1.31144 2.83761 0
M  V30 1830 H 180.608 0.97174 3.82035 0
M  V30 1831 H 181.896 0.795924 5.02536 0
M  V30 1832 H 181.294 -2.38352 5.13035 0
M  V30 1833 H 179.851 -2.39296 6.06284 0
M  V30 1834 N 183.284 -1.43765 0.645699 0
M  V30 1835 C 184.514 -2.05953 0.163318 0
M  V30 1836 C 184.922 -1.48432 -1.17322 0
M  V30 1837 O 184.265 -0.607295 -1.73371 0
M  V30 1838 C 184.327 -3.59499 -0.0103065 0
M  V30 1839 C 183.991 -4.39563 1.25035 0
M  V30 1840 C 184.988 -4.72108 2.17739 0
M  V30 1841 C 182.673 -4.79697 1.48983 0
M  V30 1842 C 184.667 -5.43688 3.3269 0
M  V30 1843 C 182.354 -5.51023 2.64229 0
M  V30 1844 C 183.352 -5.8294 3.55908 0
M  V30 1845 O 183.04 -6.5281 4.69142 0
M  V30 1846 H 182.772 -0.670798 0.0836986 0
M  V30 1847 H 185.326 -1.85384 0.884407 0
M  V30 1848 H 183.556 -3.78613 -0.78669 0
M  V30 1849 H 185.245 -4.03408 -0.449087 0
M  V30 1850 H 186.011 -4.41627 2.00476 0
M  V30 1851 H 181.89 -4.54266 0.785078 0
M  V30 1852 H 185.434 -5.68517 4.04269 0
M  V30 1853 H 181.331 -5.8092 2.81429 0
M  V30 1854 H 182.099 -6.71288 4.6831 0
M  V30 1855 N 184.763 -0.387143 -1.52771 0
M  V30 1856 C 186.009 0.196025 -2.0185 0
M  V30 1857 C 186.342 1.46641 -1.27319 0
M  V30 1858 O 185.617 1.90889 -0.373032 0
M  V30 1859 C 185.9 0.466136 -3.5707 0
M  V30 1860 C 185.753 -0.819385 -4.42274 0
M  V30 1861 C 187.072 1.25768 -4.21747 0
M  V30 1862 H 184.191 0.0697708 -0.73369 0
M  V30 1863 H 186.833 -0.516286 -1.82851 0
M  V30 1864 H 184.983 1.07293 -3.7339 0
M  V30 1865 H 186.655 -1.4563 -4.37709 0
M  V30 1866 H 184.898 -1.43517 -4.09372 0
M  V30 1867 H 185.569 -0.585065 -5.48891 0
M  V30 1868 H 188.045 0.744167 -4.09391 0
M  V30 1869 H 186.921 1.41541 -5.30337 0
M  V30 1870 H 187.182 2.27228 -3.79236 0
M  V30 1871 N 186.241 1.57166 -0.116904 0
M  V30 1872 C 187.188 2.15202 0.83408 0
M  V30 1873 C 188.158 1.07644 1.26499 0
M  V30 1874 O 189.343 1.35541 1.34288 0
M  V30 1875 C 186.483 2.75405 2.07957 0
M  V30 1876 C 185.596 3.97264 1.69721 0
M  V30 1877 C 184.731 4.45561 2.89221 0
M  V30 1878 C 183.77 5.59956 2.47215 0
M  V30 1879 N 182.907 6.03006 3.59622 0
M  V30 1880 H 187.747 2.96141 0.332335 0
M  V30 1881 H 185.284 1.46309 0.152349 0
M  V30 1882 H 187.242 3.08439 2.80929 0
M  V30 1883 H 185.872 1.97159 2.55594 0
M  V30 1884 H 184.924 3.70404 0.866316 0
M  V30 1885 H 186.236 4.80226 1.34849 0
M  V30 1886 H 185.39 4.80493 3.7042 0
M  V30 1887 H 184.129 3.61544 3.27318 0
M  V30 1888 H 183.134 5.2463 1.64448 0
M  V30 1889 H 184.359 6.45738 2.10238 0
M  V30 1890 H 182.305 5.21931 3.97396 0
M  V30 1891 H 182.222 6.80819 3.28667 0
M  V30 1892 H 183.49 6.42576 4.41267 0
M  V30 1893 N 187.719 -0.156864 1.56817 0
M  V30 1894 C 188.944 -0.890331 1.87318 0
M  V30 1895 C 189.369 -1.74394 0.704855 0
M  V30 1896 O 188.727 -1.77972 -0.345786 0
M  V30 1897 C 188.775 -1.73102 3.16336 0
M  V30 1898 O 187.879 -2.83422 2.99576 0
M  V30 1899 H 187.22 -0.24857 0.615718 0
M  V30 1900 H 189.75 -0.150649 2.04045 0
M  V30 1901 H 189.76 -2.12803 3.48107 0
M  V30 1902 H 188.435 -1.10412 4.00976 0
M  V30 1903 H 187.012 -2.47199 2.7919 0
M  V30 1904 N 189.197 -1.51736 -0.425897 0
M  V30 1905 C 190.445 -1.64644 -1.17204 0
M  V30 1906 C 190.766 -0.370486 -1.91448 0
M  V30 1907 O 190.036 0.614088 -1.86026 0
M  V30 1908 H 188.616 -0.606819 -0.435638 0
M  V30 1909 H 191.278 -1.88713 -0.487177 0
M  V30 1910 H 190.374 -2.47958 -1.89534 0
M  V30 1911 N 190.675 0.682077 -1.42076 0
M  V30 1912 C 191.638 1.77756 -1.44691 0
M  V30 1913 C 192.638 1.5726 -0.335535 0
M  V30 1914 O 193.828 1.63686 -0.596037 0
M  V30 1915 C 190.96 3.16301 -1.27146 0
M  V30 1916 H 192.153 1.76826 -2.42224 0
M  V30 1917 H 189.706 0.891012 -1.28416 0
M  V30 1918 H 190.441 3.22862 -0.305075 0
M  V30 1919 H 190.226 3.32581 -2.07683 0
M  V30 1920 H 191.716 3.96241 -1.31843 0
M  V30 1921 N 192.153 1.28127 0.917671 0
M  V30 1922 C 193.399 1.15223 1.66888 0
M  V30 1923 C 193.732 -0.299293 1.9188 0
M  V30 1924 O 193.007 -1.21805 1.51637 0
M  V30 1925 C 193.29 1.94706 3.02922 0
M  V30 1926 C 193.143 3.47898 2.85109 0
M  V30 1927 C 194.462 1.75939 4.03402 0
M  V30 1928 H 191.581 0.419946 0.605652 0
M  V30 1929 H 194.223 1.57398 1.06423 0
M  V30 1930 H 192.373 1.58864 3.54534 0
M  V30 1931 H 194.045 3.93624 2.40537 0
M  V30 1932 H 192.288 3.7373 2.20246 0
M  V30 1933 H 192.959 3.98765 3.81694 0
M  V30 1934 H 195.435 2.07209 3.60837 0
M  V30 1935 H 194.311 2.33931 4.96556 0
M  V30 1936 H 194.572 0.709877 4.36364 0
M  V30 1937 N 193.631 -1.12557 1.10312 0
M  V30 1938 C 194.578 -2.18247 0.750781 0
M  V30 1939 C 195.548 -1.63853 -0.272293 0
M  V30 1940 O 196.733 -1.90195 -0.151862 0
M  V30 1941 C 193.873 -3.44591 0.187379 0
M  V30 1942 C 192.986 -4.13046 1.2656 0
M  V30 1943 C 192.121 -5.27034 0.663978 0
M  V30 1944 C 191.16 -5.87353 1.72287 0
M  V30 1945 N 190.297 -6.92757 1.1416 0
M  V30 1946 H 195.137 -2.47732 1.65628 0
M  V30 1947 H 192.674 -1.21629 0.827337 0
M  V30 1948 H 194.632 -4.16904 -0.157148 0
M  V30 1949 H 193.262 -3.15527 -0.681355 0
M  V30 1950 H 192.314 -3.38924 1.72727 0
M  V30 1951 H 193.626 -4.53947 2.06721 0
M  V30 1952 H 192.78 -6.06104 0.268824 0
M  V30 1953 H 191.519 -4.87407 -0.169082 0
M  V30 1954 H 190.524 -5.06971 2.12746 0
M  V30 1955 H 191.749 -6.29051 2.55875 0
M  V30 1956 H 189.695 -6.5517 0.329984 0
M  V30 1957 H 189.612 -7.3225 1.88007 0
M  V30 1958 H 190.88 -7.75658 0.772956 0
M  V30 1959 N 195.109 -0.891671 -1.2995 0
M  V30 1960 C 196.339 -0.527893 -1.99742 0
M  V30 1961 C 196.747 0.88979 -1.66971 0
M  V30 1962 O 196.09 1.59766 -0.906667 0
M  V30 1963 C 196.152 -0.630804 -3.53922 0
M  V30 1964 C 195.816 -2.01401 -4.10228 0
M  V30 1965 C 196.813 -2.98422 -4.25724 0
M  V30 1966 C 194.498 -2.32121 -4.45449 0
M  V30 1967 C 196.492 -4.24293 -4.75662 0
M  V30 1968 C 194.179 -3.58237 -4.95086 0
M  V30 1969 C 195.177 -4.54137 -5.10146 0
M  V30 1970 O 194.865 -5.78014 -5.58708 0
M  V30 1971 H 194.597 -0.201953 -0.645129 0
M  V30 1972 H 197.151 -1.20076 -1.66646 0
M  V30 1973 H 195.381 0.0990616 -3.86573 0
M  V30 1974 H 197.07 -0.277338 -4.04951 0
M  V30 1975 H 197.836 -2.76001 -3.98809 0
M  V30 1976 H 193.715 -1.5824 -4.32991 0
M  V30 1977 H 197.259 -4.99153 -4.87332 0
M  V30 1978 H 193.156 -3.80491 -5.21437 0
M  V30 1979 H 193.924 -5.8049 -5.77039 0
M  V30 1980 N 196.587 1.43421 -0.653314 0
M  V30 1981 C 197.55 2.29182 0.0287951 0
M  V30 1982 C 198.55 1.42213 0.750465 0
M  V30 1983 O 199.74 1.63843 0.591701 0
M  V30 1984 C 196.872 3.24278 1.05151 0
M  V30 1985 H 198.065 2.90985 -0.725786 0
M  V30 1986 H 195.618 1.50702 -0.414545 0
M  V30 1987 H 196.353 2.6737 1.83532 0
M  V30 1988 H 196.138 3.88396 0.537687 0
M  V30 1989 H 197.628 3.88647 1.52786 0
M  V30 1990 N 198.065 0.39524 1.52563 0
M  V30 1991 C 198.995 -0.428384 2.29537 0
M  V30 1992 C 199.976 -1.05831 1.33169 0
M  V30 1993 O 201.161 -1.06995 1.62067 0
M  V30 1994 C 198.291 -1.55274 3.10656 0
M  V30 1995 C 197.245 -1.04855 4.14957 0
M  V30 1996 C 196.571 -2.26543 4.84337 0
M  V30 1997 C 197.871 -0.112324 5.22179 0
M  V30 1998 H 199.565 0.213867 2.98635 0
M  V30 1999 H 197.111 0.104298 1.43622 0
M  V30 2000 H 199.064 -2.1358 3.63265 0
M  V30 2001 H 197.788 -2.22266 2.39302 0
M  V30 2002 H 196.447 -0.487985 3.63338 0
M  V30 2003 H 196.095 -2.92059 4.09525 0
M  V30 2004 H 195.795 -1.93466 5.54837 0
M  V30 2005 H 197.319 -2.85481 5.39753 0
M  V30 2006 H 198.733 -0.603752 5.70112 0
M  V30 2007 H 197.13 0.128968 5.99961 0
M  V30 2008 H 198.2 0.837052 4.77621 0
M  V30 2009 N 199.544 -1.57102 0.125237 0
M  V30 2010 C 200.79 -1.95697 -0.532035 0
M  V30 2011 C 201.123 -1.009 -1.6593 0
M  V30 2012 O 200.398 -0.047347 -1.94442 0
M  V30 2013 C 200.681 -3.44181 -1.05884 0
M  V30 2014 C 200.534 -4.49752 0.0654392 0
M  V30 2015 C 201.853 -3.94655 -1.9477 0
M  V30 2016 H 198.972 -0.711571 -0.191925 0
M  V30 2017 H 201.614 -1.88923 0.20206 0
M  V30 2018 H 199.764 -3.50085 -1.68442 0
M  V30 2019 H 201.436 -4.55943 0.700982 0
M  V30 2020 H 199.679 -4.27653 0.727709 0
M  V30 2021 H 200.35 -5.50924 -0.344505 0
M  V30 2022 H 202.826 -3.91094 -1.42074 0
M  V30 2023 H 201.702 -4.99057 -2.28546 0
M  V30 2024 H 201.963 -3.35718 -2.87656 0
M  V30 2025 N 201.022 0.148545 -1.56898 0
M  V30 2026 C 202.268 0.862694 -1.83536 0
M  V30 2027 C 202.601 1.80889 -0.706604 0
M  V30 2028 O 201.876 1.92328 0.289885 0
M  V30 2029 C 202.159 1.63853 -3.20662 0
M  V30 2030 C 202.012 0.713925 -4.44098 0
M  V30 2031 C 203.331 2.60133 -3.54991 0
M  V30 2032 H 200.45 0.312179 -0.667618 0
M  V30 2033 H 203.092 0.127953 -1.89569 0
M  V30 2034 H 201.242 2.26489 -3.1565 0
M  V30 2035 H 202.914 0.098686 -4.61194 0
M  V30 2036 H 201.157 0.0234019 -4.33794 0
M  V30 2037 H 201.828 1.29278 -5.36648 0
M  V30 2038 H 204.304 2.07616 -3.60603 0
M  V30 2039 H 203.18 3.11468 -4.51972 0
M  V30 2040 H 203.441 3.41417 -2.80868 0
M  V30 2041 N 202.5 1.5196 0.417844 0
M  V30 2042 C 203.748 1.65263 1.16329 0
M  V30 2043 C 204.069 0.380634 1.91249 0
M  V30 2044 O 203.339 -0.604214 1.86349 0
M  V30 2045 H 201.919 0.60912 0.432414 0
M  V30 2046 H 204.581 1.88969 0.477162 0
M  V30 2047 H 203.677 2.4896 1.88217 0
M  V30 2048 N 203.978 -0.674533 1.42435 0
M  V30 2049 C 205.203 -1.46784 1.46524 0
M  V30 2050 C 205.628 -1.87938 0.078066 0
M  V30 2051 O 204.986 -1.56014 -0.92354 0
M  V30 2052 C 205.034 -2.69307 2.39805 0
M  V30 2053 O 204.138 -3.67587 1.86959 0
M  V30 2054 H 203.479 -0.440959 0.496439 0
M  V30 2055 H 206.009 -0.827326 1.87127 0
M  V30 2056 H 206.019 -3.17374 2.56393 0
M  V30 2057 H 204.694 -2.38692 3.40586 0
M  V30 2058 H 203.271 -3.2662 1.79927 0
M  V30 2059 N 205.456 -1.28612 -0.910864 0
M  V30 2060 C 206.733 -1.06632 -1.63979 0
M  V30 2061 C 207.113 0.393351 -2.07403 0
M  V30 2062 O 206.461 1.37999 -1.82122 0
M  V30 2063 C 206.671 -2.0436 -2.8291 0
M  V30 2064 C 208.019 -2.34666 -3.5386 0
M  V30 2065 O 209.043 -2.02467 -2.93062 0
M  V30 2066 O 207.902 -2.89631 -4.63439 0
M  V30 2067 H 204.996 -0.407737 -0.7195 0
M  V30 2068 H 207.542 -1.39942 -0.959914 0
M  V30 2069 H 206.314 -3.02727 -2.47936 0
M  V30 2070 H 205.937 -1.71714 -3.58609 0
M  V30 2071 N 206.934 1.1197 -1.10907 0
M  V30 2072 C 208.18 1.8386 -0.855773 0
M  V30 2073 C 208.513 1.84134 0.617103 0
M  V30 2074 O 207.788 1.29041 1.45529 0
M  V30 2075 C 208.071 3.31305 -1.411 0
M  V30 2076 C 207.924 3.39456 -2.9511 0
M  V30 2077 C 209.243 4.2721 -1.05736 0
M  V30 2078 H 206.362 0.667545 -0.312334 0
M  V30 2079 H 209.004 1.31331 -1.37303 0
M  V30 2080 H 207.154 3.76169 -0.97105 0
M  V30 2081 H 208.826 3.03191 -3.47668 0
M  V30 2082 H 207.069 2.79849 -3.31462 0
M  V30 2083 H 207.74 4.43209 -3.29044 0
M  V30 2084 H 210.216 3.90497 -1.43706 0
M  V30 2085 H 209.092 5.28775 -1.47269 0
M  V30 2086 H 209.353 4.42088 0.0325958 0
M  V30 2087 N 208.412 0.89855 1.29475 0
M  V30 2088 C 209.342 0.39201 2.30186 0
M  V30 2089 C 210.323 -0.532359 1.61555 0
M  V30 2090 O 211.508 -0.443331 1.89072 0
M  V30 2091 C 208.638 -0.382353 3.45189 0
M  V30 2092 C 207.592 0.451483 4.25612 0
M  V30 2093 C 206.918 -0.450307 5.328 0
M  V30 2094 C 208.218 1.70079 4.93832 0
M  V30 2095 H 209.912 1.23362 2.72804 0
M  V30 2096 H 207.458 0.594638 1.31149 0
M  V30 2097 H 209.411 -0.747451 4.14718 0
M  V30 2098 H 208.135 -1.25774 3.01411 0
M  V30 2099 H 206.794 0.798897 3.57789 0
M  V30 2100 H 206.442 -1.32379 4.85268 0
M  V30 2101 H 206.142 0.103902 5.87508 0
M  V30 2102 H 207.666 -0.811623 6.05182 0
M  V30 2103 H 209.08 1.40549 5.55805 0
M  V30 2104 H 207.477 2.19623 5.58467 0
M  V30 2105 H 208.547 2.43744 4.19186 0
M  V30 2106 N 209.89 -1.43072 0.660911 0
M  V30 2107 C 210.853 -2.29194 -0.0166406 0
M  V30 2108 C 211.853 -1.42609 -0.742912 0
M  V30 2109 O 213.043 -1.64155 -0.583004 0
M  V30 2110 C 210.175 -3.24831 -1.0343 0
M  V30 2111 H 211.368 -2.90596 0.741208 0
M  V30 2112 H 208.921 -1.5048 0.422532 0
M  V30 2113 H 209.656 -2.68339 -1.82111 0
M  V30 2114 H 209.441 -3.88676 -0.517082 0
M  V30 2115 H 210.931 -3.89451 -1.50723 0
M  V30 2116 N 211.368 -0.403325 -1.52352 0
M  V30 2117 C 212.784 -0.0539281 -1.59509 0
M  V30 2118 C 212.984 1.43307 -1.41652 0
M  V30 2119 O 212.04 2.19924 -1.24056 0
M  V30 2120 C 213.353 -0.543654 -2.95745 0
M  V30 2121 C 214.901 -0.501125 -3.08962 0
M  V30 2122 C 215.376 -0.967267 -4.47669 0
M  V30 2123 N 216.867 -0.923849 -4.53893 0
M  V30 2124 C 217.602 -1.25578 -5.5948 0
M  V30 2125 N 217.098 -1.65889 -6.72646 0
M  V30 2126 N 218.891 -1.17613 -5.49658 0
M  V30 2127 H 211.042 -1.37123 -1.62206 0
M  V30 2128 H 213.305 -0.56294 -0.76276 0
M  V30 2129 H 213.011 -1.58275 -3.14073 0
M  V30 2130 H 212.885 0.0498042 -3.77167 0
M  V30 2131 H 215.272 0.528909 -2.90321 0
M  V30 2132 H 215.353 -1.13056 -2.2946 0
M  V30 2133 H 214.997 -1.9956 -4.67053 0
M  V30 2134 H 214.927 -0.314698 -5.25659 0
M  V30 2135 H 217.418 -0.627403 -3.72655 0
M  V30 2136 H 217.731 -1.89543 -7.49195 0
M  V30 2137 H 216.076 -1.69787 -6.73942 0
M  V30 2138 H 219.267 -0.860115 -4.6013 0
M  V30 2139 H 219.44 -1.43812 -6.3184 0
M  V30 2140 N 212.846 1.57033 -0.133567 0
M  V30 2141 C 214.074 2.00044 0.528195 0
M  V30 2142 C 214.489 1.01349 1.59291 0
M  V30 2143 O 213.846 0.00848369 1.82498 0
M  V30 2144 C 213.897 3.43018 1.1411 0
M  V30 2145 O 213.618 4.37939 0.11892 0
M  V30 2146 C 215.119 4.01237 1.88477 0
M  V30 2147 H 212.339 0.656517 0.138661 0
M  V30 2148 H 214.883 2.03267 -0.224196 0
M  V30 2149 H 213.038 3.40688 1.84418 0
M  V30 2150 H 213.452 5.21436 0.56613 0
M  V30 2151 H 214.926 5.03314 2.26669 0
M  V30 2152 H 215.403 3.41193 2.76558 0
M  V30 2153 H 216.009 4.07156 1.22898 0
M  V30 2154 N 214.325 -0.140222 1.56975 0
M  V30 2155 C 215.565 -0.857823 1.85528 0
M  V30 2156 C 215.929 -1.78039 0.718768 0
M  V30 2157 O 217.13 -2.53795 0.885521 0
M  V30 2158 C 215.401 -1.60615 3.19277 0
M  V30 2159 S 216.96 -2.36824 3.69405 0
M  V30 2160 H 213.778 -0.286727 0.650622 0
M  V30 2161 H 216.38 -0.117408 1.95147 0
M  V30 2162 H 215.084 -0.919994 3.99955 0
M  V30 2163 H 214.615 -2.38735 3.12681 0
M  V30 2164 H 216.63 -3.62148 3.3921 0
M  V30 2165 N 215.803 -1.52179 -0.40978 0
M  V30 2166 C 217.08 -1.56769 -1.16974 0
M  V30 2167 C 217.46 -0.348322 -2.08206 0
M  V30 2168 O 216.808 0.664862 -2.18613 0
M  V30 2169 C 217.018 -2.89603 -1.9476 0
M  V30 2170 C 218.366 -3.42579 -2.50849 0
M  V30 2171 O 219.39 -2.91338 -2.04941 0
M  V30 2172 O 218.249 -4.32054 -3.34652 0
M  V30 2173 H 215.343 -0.631439 -0.534054 0
M  V30 2174 H 217.889 -1.64507 -0.416613 0
M  V30 2175 H 216.661 -3.698 -1.27921 0
M  V30 2176 H 216.284 -2.85155 -2.77079 0
M  V30 2177 N 217.281 0.66697 -1.42791 0
M  V30 2178 C 218.692 1.2478 -1.38877 0
M  V30 2179 C 219.043 1.96012 -0.0859426 0
M  V30 2180 O 218.168 2.00463 0.815081 0
M  V30 2181 C 218.763 2.26938 -2.51564 0
M  V30 2182 C 217.322 2.80529 -2.50959 0
M  V30 2183 C 216.469 1.54965 -2.29959 0
M  V30 2184 H 219.42 0.459853 -1.51892 0
M  V30 2185 H 219.441 3.08834 -2.22265 0
M  V30 2186 H 218.953 1.75065 -3.46372 0
M  V30 2187 H 217.054 3.36502 -1.59991 0
M  V30 2188 H 217.167 3.29012 -3.48265 0
M  V30 2189 H 215.531 1.81817 -1.78366 0
M  V30 2190 H 216.314 1.05047 -3.26833 0
M  V30 2191 N 218.759 1.29093 0.90403 0
M  V30 2192 C 219.987 1.19689 1.68766 0
M  V30 2193 C 220.402 -0.243113 1.87228 0
M  V30 2194 O 219.759 -1.16326 1.40621 0
M  V30 2195 C 219.81 1.90144 3.07453 0
M  V30 2196 O 219.531 3.2852 2.89838 0
M  V30 2197 C 221.032 1.87162 4.01852 0
M  V30 2198 H 218.252 0.415035 0.527244 0
M  V30 2199 H 220.796 1.7039 1.13082 0
M  V30 2200 H 218.951 1.43289 3.59926 0
M  V30 2201 H 219.365 3.63944 3.77684 0
M  V30 2202 H 220.839 2.41032 4.96596 0
M  V30 2203 H 221.316 0.84617 4.30972 0
M  V30 2204 H 221.922 2.33741 3.5531 0
M  V30 2205 N 220.237 -1.11381 1.11499 0
M  V30 2206 C 221.514 -1.7955 0.775965 0
M  V30 2207 C 221.894 -1.97859 -0.73588 0
M  V30 2208 O 221.242 -1.56376 -1.66609 0
M  V30 2209 C 221.452 -3.13196 1.53977 0
M  V30 2210 C 222.8 -3.88227 1.71944 0
M  V30 2211 O 223.824 -3.22887 1.50407 0
M  V30 2212 O 222.683 -5.05477 2.07738 0
M  V30 2213 H 219.777 -0.777728 0.28119 0
M  V30 2214 H 222.323 -1.18118 1.21845 0
M  V30 2215 H 221.095 -2.95229 2.56818 0
M  V30 2216 H 220.718 -3.82342 1.09088 0
M  V30 2217 N 221.715 -0.905404 -1.28997 0
M  V30 2218 C 223.131 -0.60233 -1.47798 0
M  V30 2219 C 223.331 0.854645 -1.82478 0
M  V30 2220 O 222.387 1.63439 -1.92468 0
M  V30 2221 C 223.7 -1.53306 -2.58685 0
M  V30 2222 C 225.248 -1.53887 -2.72558 0
M  V30 2223 C 225.723 -2.45602 -3.86579 0
M  V30 2224 N 227.214 -2.43681 -3.93921 0
M  V30 2225 C 227.949 -3.11347 -4.81509 0
M  V30 2226 N 227.445 -3.88313 -5.73746 0
M  V30 2227 N 229.238 -3.00476 -4.75048 0
M  V30 2228 H 221.389 -1.84765 -1.04764 0
M  V30 2229 H 223.652 -0.792025 -0.520961 0
M  V30 2230 H 223.358 -2.57141 -2.39941 0
M  V30 2231 H 223.232 -1.25787 -3.55609 0
M  V30 2232 H 225.619 -0.507941 -2.90696 0
M  V30 2233 H 225.7 -1.85447 -1.76191 0
M  V30 2234 H 225.344 -3.48792 -3.69197 0
M  V30 2235 H 225.274 -2.11349 -4.82327 0
M  V30 2236 H 227.765 -1.87767 -3.27951 0
M  V30 2237 H 228.078 -4.36985 -6.37389 0
M  V30 2238 H 226.423 -3.92419 -5.73614 0
M  V30 2239 H 229.614 -2.39858 -4.01977 0
M  V30 2240 H 229.787 -3.53485 -5.43095 0
M  V30 2241 N 223.193 1.4272 -0.668489 0
M  V30 2242 C 224.441 2.01226 -0.187769 0
M  V30 2243 C 224.762 1.53092 1.2078 0
M  V30 2244 O 224.032 0.74993 1.80977 0
M  V30 2245 H 222.612 0.744041 -0.0664272 0
M  V30 2246 H 225.274 1.74723 -0.863583 0
M  V30 2247 H 224.37 3.11556 -0.184166 0
M  V30 2248 N 224.671 0.411399 1.52136 0
M  V30 2249 C 225.899 -0.163076 2.06256 0
M  V30 2250 C 226.314 -1.3867 1.28125 0
M  V30 2251 O 225.671 -1.79423 0.333721 0
M  V30 2252 C 225.722 -0.511252 3.57867 0
M  V30 2253 O 225.443 0.66378 4.33042 0
M  V30 2254 C 226.944 -1.13921 4.28412 0
M  V30 2255 H 224.164 -0.0193897 0.67072 0
M  V30 2256 H 226.708 0.583007 1.96013 0
M  V30 2257 H 224.863 -1.20723 3.6811 0
M  V30 2258 H 225.277 0.372601 5.23175 0
M  V30 2259 H 226.751 -1.33302 5.35663 0
M  V30 2260 H 227.228 -2.11296 3.85033 0
M  V30 2261 H 227.834 -0.483373 4.22544 0
M  V30 2262 N 226.149 -1.5696 0.141893 0
M  V30 2263 C 227.398 -1.95135 -0.510427 0
M  V30 2264 C 227.711 -1.02896 -1.66348 0
M  V30 2265 O 228.917 -1.30629 -2.38009 0
M  V30 2266 C 227.373 -3.46876 -0.959427 0
M  V30 2267 C 226.981 -4.47691 0.166419 0
M  V30 2268 C 228.725 -3.93927 -1.58183 0
M  V30 2269 C 226.632 -5.90636 -0.300565 0
M  V30 2270 H 225.562 -0.728494 -0.194454 0
M  V30 2271 H 228.213 -1.8211 0.22542 0
M  V30 2272 H 226.595 -3.55215 -1.75038 0
M  V30 2273 H 227.769 -4.51043 0.94325 0
M  V30 2274 H 226.084 -4.10527 0.696905 0
M  V30 2275 H 228.681 -4.98158 -1.94275 0
M  V30 2276 H 229.024 -3.3519 -2.46888 0
M  V30 2277 H 229.557 -3.88484 -0.855863 0
M  V30 2278 H 226.296 -6.5318 0.550989 0
M  V30 2279 H 225.816 -5.90655 -1.04338 0
M  V30 2280 H 227.495 -6.42588 -0.754265 0
M  V30 2281 N 227.627 0.131896 -1.57047 0
M  V30 2282 C 228.876 0.84044 -1.83356 0
M  V30 2283 C 229.189 1.81646 -0.725535 0
M  V30 2284 O 230.395 2.57025 -0.874659 0
M  V30 2285 C 228.851 1.54528 -3.25037 0
M  V30 2286 C 228.459 0.610902 -4.43815 0
M  V30 2287 C 230.203 2.23972 -3.60606 0
M  V30 2288 C 228.11 1.31823 -5.76521 0
M  V30 2289 H 227.04 0.317599 -0.683847 0
M  V30 2290 H 229.691 0.0931561 -1.83263 0
M  V30 2291 H 228.073 2.33873 -3.19561 0
M  V30 2292 H 229.247 -0.148407 -4.60561 0
M  V30 2293 H 227.562 0.0241016 -4.16393 0
M  V30 2294 H 230.159 2.77558 -4.57018 0
M  V30 2295 H 230.502 3.01173 -2.87403 0
M  V30 2296 H 231.035 1.51529 -3.6781 0
M  V30 2297 H 227.774 0.587771 -6.52859 0
M  V30 2298 H 227.294 2.04987 -5.63685 0
M  V30 2299 H 228.973 1.855 -6.19838 0
M  V30 2300 N 229.106 1.52395 0.401703 0
M  V30 2301 C 230.355 1.66044 1.14509 0
M  V30 2302 C 230.668 0.400216 1.91462 0
M  V30 2303 O 231.874 0.416632 2.68284 0
M  V30 2304 C 230.33 2.93388 2.0845 0
M  V30 2305 C 229.938 4.26545 1.36978 0
M  V30 2306 C 231.682 3.16402 2.83001 0
M  V30 2307 C 229.589 5.45007 2.29611 0
M  V30 2308 H 228.519 0.618562 0.431158 0
M  V30 2309 H 231.17 1.78886 0.40892 0
M  V30 2310 H 229.552 2.74263 2.8565 0
M  V30 2311 H 230.726 4.56179 0.650916 0
M  V30 2312 H 229.041 4.09692 0.74438 0
M  V30 2313 H 231.638 4.02085 3.52465 0
M  V30 2314 H 231.981 2.30943 3.46368 0
M  V30 2315 H 232.514 3.36034 2.12898 0
M  V30 2316 H 229.253 6.32835 1.70879 0
M  V30 2317 H 228.773 5.19702 2.9945 0
M  V30 2318 H 230.452 5.7838 2.89974 0
M  V30 2319 N 230.584 -0.659388 1.43143 0
M  V30 2320 C 231.831 -1.41935 1.44433 0
M  V30 2321 C 232.159 -1.94387 0.0663522 0
M  V30 2322 O 231.414 -1.72314 -0.927706 0
M  V30 2323 C 231.713 -2.62206 2.42864 0
M  V30 2324 C 231.379 -2.28208 3.88886 0
M  V30 2325 C 230.041 -2.18647 4.28657 0
M  V30 2326 C 232.393 -2.00887 4.8093 0
M  V30 2327 C 229.721 -1.79914 5.58433 0
M  V30 2328 C 232.073 -1.63653 6.11065 0
M  V30 2329 C 230.737 -1.52614 6.49819 0
M  V30 2330 H 230.007 -0.519376 0.528517 0
M  V30 2331 H 232.654 -0.750453 1.76183 0
M  V30 2332 H 230.959 -3.34199 2.04495 0
M  V30 2333 H 232.656 -3.2041 2.41119 0
M  V30 2334 H 229.246 -2.36557 3.57406 0
M  V30 2335 H 233.43 -2.07198 4.5098 0
M  V30 2336 H 228.686 -1.69948 5.87305 0
M  V30 2337 H 232.86 -1.41543 6.81864 0
M  V30 2338 H 230.487 -1.22371 7.50286 0
M  V30 2339 N 232.062 -1.29571 -0.897171 0
M  V30 2340 C 233.31 -1.17456 -1.64464 0
M  V30 2341 C 233.631 0.273698 -1.9307 0
M  V30 2342 O 232.901 1.18684 -1.55855 0
M  V30 2343 H 231.481 -0.431706 -0.609622 0
M  V30 2344 H 234.143 -1.62531 -1.07562 0
M  V30 2345 H 233.239 -1.72648 -2.59998 0
M  V30 2346 N 233.54 1.10788 -1.12088 0
M  V30 2347 C 234.817 1.79136 -0.785476 0
M  V30 2348 C 235.197 1.98246 0.725377 0
M  V30 2349 O 234.545 1.57258 1.65778 0
M  V30 2350 C 234.755 3.12375 -1.55636 0
M  V30 2351 C 236.103 3.8731 -1.74001 0
M  V30 2352 O 237.127 3.22085 -1.52117 0
M  V30 2353 O 235.986 5.04369 -2.10415 0
M  V30 2354 H 233.08 0.776226 -0.285311 0
M  V30 2355 H 235.626 1.1747 -1.2247 0
M  V30 2356 H 234.398 2.93863 -2.5838 0
M  V30 2357 H 234.021 3.81758 -1.11114 0
M  V30 2358 N 235.018 0.912232 1.28515 0
M  V30 2359 C 236.266 0.543523 1.94654 0
M  V30 2360 C 236.587 -0.9155 1.72173 0
M  V30 2361 O 235.857 -1.64708 1.06058 0
M  V30 2362 H 234.437 0.198017 0.720277 0
M  V30 2363 H 237.099 1.16126 1.56527 0
M  V30 2364 H 236.195 0.736684 3.03281 0
M  V30 2365 N 236.496 -1.42363 0.676048 0
M  V30 2366 C 237.459 -2.29199 0.00766941 0
M  V30 2367 C 238.459 -1.43389 -0.727745 0
M  V30 2368 O 239.649 -1.64764 -0.56556 0
M  V30 2369 C 236.781 -3.2591 -0.999785 0
M  V30 2370 H 237.974 -2.89794 0.771988 0
M  V30 2371 H 235.527 -1.50024 0.438468 0
M  V30 2372 H 236.262 -2.70256 -1.79255 0
M  V30 2373 H 236.047 -3.89202 -0.475829 0
M  V30 2374 H 237.537 -3.91028 -1.46583 0
M  V30 2375 N 237.974 -0.419461 -1.51915 0
M  V30 2376 C 239.222 0.152637 -2.01523 0
M  V30 2377 C 239.543 1.44762 -1.30649 0
M  V30 2378 O 238.813 1.90997 -0.435535 0
M  V30 2379 H 237.393 0.0593966 -0.744635 0
M  V30 2380 H 240.055 -0.558073 -1.86739 0
M  V30 2381 H 239.151 0.341369 -3.10227 0
M  V30 2382 N 239.452 1.56882 -0.150215 0
M  V30 2383 C 240.415 2.1573 0.774157 0
M  V30 2384 C 241.415 1.0999 1.17298 0
M  V30 2385 O 242.605 1.35613 1.09338 0
M  V30 2386 C 239.737 2.72302 2.05096 0
M  V30 2387 H 240.93 2.98752 0.262201 0
M  V30 2388 H 238.483 1.55985 0.099248 0
M  V30 2389 H 239.218 1.92956 2.6065 0
M  V30 2390 H 239.003 3.49665 1.77416 0
M  V30 2391 H 240.493 3.17632 2.71109 0
M  V30 2392 N 240.93 -0.123565 1.57115 0
M  V30 2393 C 241.893 -1.13583 1.99076 0
M  V30 2394 C 242.893 -1.34564 0.880296 0
M  V30 2395 O 244.083 -1.31158 1.14644 0
M  V30 2396 C 241.215 -2.49128 2.32698 0
M  V30 2397 H 242.408 -0.775287 2.89706 0
M  V30 2398 H 239.961 -0.36771 1.51913 0
M  V30 2399 H 240.696 -2.90111 1.44934 0
M  V30 2400 H 240.481 -2.35255 3.13684 0
M  V30 2401 H 241.971 -3.2199 2.65918 0
M  V30 2402 N 242.408 -1.52605 -0.393616 0
M  V30 2403 C 243.654 -1.67672 -1.14079 0
M  V30 2404 C 243.987 -0.413121 -1.89755 0
M  V30 2405 O 243.262 0.588952 -1.85369 0
M  V30 2406 C 243.545 -2.9088 -2.12276 0
M  V30 2407 C 243.398 -4.27329 -1.40394 0
M  V30 2408 C 244.717 -3.09628 -3.12759 0
M  V30 2409 H 241.836 -0.610168 -0.413356 0
M  V30 2410 H 244.478 -1.85193 -0.424696 0
M  V30 2411 H 242.628 -2.76073 -2.73342 0
M  V30 2412 H 244.3 -4.53894 -0.82327 0
M  V30 2413 H 242.543 -4.2802 -0.705801 0
M  V30 2414 H 243.214 -5.09615 -2.12123 0
M  V30 2415 H 245.69 -3.23436 -2.61779 0
M  V30 2416 H 244.566 -3.97322 -3.78717 0
M  V30 2417 H 244.827 -2.23637 -3.81365 0
M  V30 2418 N 243.887 0.651787 -1.4349 0
M  V30 2419 C 244.817 1.77621 -1.51569 0
M  V30 2420 C 245.798 1.66022 -0.370253 0
M  V30 2421 O 246.983 1.85095 -0.587658 0
M  V30 2422 C 244.113 3.16056 -1.43966 0
M  V30 2423 C 243.067 3.4242 -2.56774 0
M  V30 2424 C 242.393 4.8067 -2.34223 0
M  V30 2425 C 243.693 3.37023 -3.99015 0
M  V30 2426 H 245.387 1.71117 -2.45681 0
M  V30 2427 H 242.933 0.821825 -1.18246 0
M  V30 2428 H 244.886 3.94472 -1.48221 0
M  V30 2429 H 243.61 3.23293 -0.463586 0
M  V30 2430 H 242.269 2.66375 -2.51873 0
M  V30 2431 H 241.917 4.84585 -1.34856 0
M  V30 2432 H 241.617 4.9927 -3.09844 0
M  V30 2433 H 243.141 5.61342 -2.40265 0
M  V30 2434 H 244.555 4.05374 -4.05395 0
M  V30 2435 H 242.952 3.67159 -4.74673 0
M  V30 2436 H 244.022 2.3518 -4.2405 0
M  V30 2437 N 245.365 1.30045 0.890287 0
M  V30 2438 C 246.328 1.15963 1.977 0
M  V30 2439 C 247.328 0.0923777 1.60534 0
M  V30 2440 O 248.518 0.340071 1.70848 0
M  V30 2441 C 245.65 0.775451 3.31963 0
M  V30 2442 H 246.843 2.12502 2.11619 0
M  V30 2443 H 244.396 1.13366 1.07601 0
M  V30 2444 H 245.131 -0.189671 3.23745 0
M  V30 2445 H 244.916 1.54668 3.60306 0
M  V30 2446 H 246.406 0.700251 4.11687 0
M  V30 2447 N 246.843 -1.10192 1.12674 0
M  V30 2448 C 247.806 -2.14786 0.799979 0
M  V30 2449 C 248.806 -1.59711 -0.18685 0
M  V30 2450 O 249.996 -1.74156 0.0392558 0
M  V30 2451 C 247.128 -3.40374 0.189228 0
M  V30 2452 H 248.321 -2.45203 1.72671 0
M  V30 2453 H 245.874 -1.25597 0.930326 0
M  V30 2454 H 246.609 -3.15577 -0.747107 0
M  V30 2455 H 246.394 -3.81637 0.899766 0
M  V30 2456 H 247.884 -4.17594 -0.0228143 0
M  V30 2457 N 248.321 -0.919034 -1.28029 0
M  V30 2458 C 249.546 -0.570357 -1.99403 0
M  V30 2459 C 249.971 0.842486 -1.68178 0
M  V30 2460 O 249.329 1.56391 -0.917141 0
M  V30 2461 C 249.377 -0.792541 -3.51783 0
M  V30 2462 O 248.481 0.145988 -4.12142 0
M  V30 2463 H 247.822 -0.220555 -0.6263 0
M  V30 2464 H 250.352 -1.23592 -1.63053 0
M  V30 2465 H 250.362 -0.704708 -4.01868 0
M  V30 2466 H 249.037 -1.82247 -3.73844 0
M  V30 2467 H 247.614 0.00897528 -3.72899 0
M  V30 2468 N 249.799 1.42003 -0.683588 0
M  V30 2469 C 250.709 2.34597 -0.0109075 0
M  V30 2470 C 251.725 1.55576 0.779245 0
M  V30 2471 O 252.901 1.88107 0.719555 0
M  V30 2472 C 249.966 3.34199 0.922588 0
M  V30 2473 C 249.027 4.29115 0.125984 0
M  V30 2474 C 248.26 5.23959 1.01502 0
M  V30 2475 O 248.483 5.23952 2.25456 0
M  V30 2476 O 247.417 6.00053 0.47111 0
M  V30 2477 H 251.243 2.93675 -0.773853 0
M  V30 2478 H 248.828 1.42654 -0.443861 0
M  V30 2479 H 250.71 3.95365 1.45823 0
M  V30 2480 H 249.385 2.77582 1.66523 0
M  V30 2481 H 248.292 3.71335 -0.453969 0
M  V30 2482 H 249.625 4.88798 -0.577736 0
M  V30 2483 N 251.277 0.427512 1.51691 0
M  V30 2484 C 252.187 -0.39527 2.31246 0
M  V30 2485 C 253.203 -1.03674 1.39742 0
M  V30 2486 O 254.379 -1.03425 1.72816 0
M  V30 2487 C 251.444 -1.48706 3.13189 0
M  V30 2488 C 250.505 -0.866743 4.20459 0
M  V30 2489 C 249.738 -1.90651 4.98486 0
M  V30 2490 O 249.961 -3.12733 4.77026 0
M  V30 2491 O 248.895 -1.5025 5.82845 0
M  V30 2492 H 252.721 0.253918 3.02637 0
M  V30 2493 H 250.306 0.190274 1.48183 0
M  V30 2494 H 252.188 -2.12047 3.64162 0
M  V30 2495 H 250.863 -2.12051 2.44573 0
M  V30 2496 H 249.77 -0.195544 3.73589 0
M  V30 2497 H 251.103 -0.276934 4.9142 0
M  V30 2498 N 252.755 -1.56801 0.158532 0
M  V30 2499 C 254.166 -1.83189 -0.360366 0
M  V30 2500 C 254.517 -1.07778 -1.63946 0
M  V30 2501 O 253.642 -0.326718 -2.13919 0
M  V30 2502 C 254.237 -3.32297 -0.660595 0
M  V30 2503 C 252.796 -3.59227 -1.12398 0
M  V30 2504 C 251.943 -2.76877 -0.153097 0
M  V30 2505 H 254.894 -1.54008 0.383031 0
M  V30 2506 H 254.915 -3.4908 -1.51405 0
M  V30 2507 H 254.427 -3.87156 0.270527 0
M  V30 2508 H 252.528 -3.09766 -2.07064 0
M  V30 2509 H 252.641 -4.67632 -1.04197 0
M  V30 2510 H 251.005 -2.46319 -0.647983 0
M  V30 2511 H 251.788 -3.34511 0.77182 0
M  V30 2512 N 254.233 0.115231 -1.57178 0
M  V30 2513 C 255.481 0.820727 -1.84685 0
M  V30 2514 C 255.802 1.80237 -0.744279 0
M  V30 2515 O 255.072 1.94529 0.231375 0
M  V30 2516 H 253.652 0.306084 -0.681411 0
M  V30 2517 H 256.314 0.101656 -1.94635 0
M  V30 2518 H 255.41 1.36366 -2.80733 0
M  V30 2519 N 255.711 1.52812 0.385517 0
M  V30 2520 C 256.96 1.67249 1.12741 0
M  V30 2521 C 257.273 0.4205 1.91027 0
M  V30 2522 O 258.479 0.445064 2.67827 0
M  V30 2523 C 256.935 2.95583 2.05326 0
M  V30 2524 C 256.543 4.27974 1.32447 0
M  V30 2525 C 258.287 3.19386 2.7963 0
M  V30 2526 C 256.194 5.47412 2.23818 0
M  V30 2527 H 255.124 0.6231 0.424573 0
M  V30 2528 H 257.775 1.79309 0.389924 0
M  V30 2529 H 256.157 2.77277 2.82725 0
M  V30 2530 H 257.331 4.56844 0.602495 0
M  V30 2531 H 255.646 4.10459 0.700885 0
M  V30 2532 H 258.243 4.05801 3.48181 0
M  V30 2533 H 258.586 2.34604 3.43899 0
M  V30 2534 H 259.119 3.38274 2.09322 0
M  V30 2535 H 255.858 6.34612 1.64157 0
M  V30 2536 H 255.378 5.22849 2.93921 0
M  V30 2537 H 257.057 5.81423 2.83824 0
M  V30 2538 N 257.189 -0.644168 1.43834 0
M  V30 2539 C 258.438 -1.39985 1.45214 0
M  V30 2540 C 258.751 -1.95421 0.0835494 0
M  V30 2541 O 259.957 -2.71488 -0.0251748 0
M  V30 2542 C 258.413 -2.53384 2.55587 0
M  V30 2543 C 258.021 -2.04517 3.98594 0
M  V30 2544 C 259.765 -3.30685 2.66172 0
M  V30 2545 C 257.672 -3.1518 5.00416 0
M  V30 2546 H 256.602 -0.526005 0.540218 0
M  V30 2547 H 259.253 -0.694367 1.69855 0
M  V30 2548 H 257.635 -3.26446 2.24163 0
M  V30 2549 H 258.809 -1.38405 4.39523 0
M  V30 2550 H 257.124 -1.40068 3.92135 0
M  V30 2551 H 259.721 -4.13158 3.39418 0
M  V30 2552 H 260.064 -3.79312 1.71546 0
M  V30 2553 H 260.597 -2.64708 2.96942 0
M  V30 2554 H 257.336 -2.71511 5.96625 0
M  V30 2555 H 256.856 -3.79974 4.64091 0
M  V30 2556 H 258.535 -3.80166 5.23529 0
M  V30 2557 N 258.668 -1.30515 -0.883378 0
M  V30 2558 C 259.893 -1.22487 -1.67367 0
M  V30 2559 C 260.318 0.208767 -1.86938 0
M  V30 2560 O 259.676 1.15015 -1.40148 0
M  V30 2561 C 259.724 -1.96041 -3.02655 0
M  V30 2562 O 258.828 -1.28859 -3.91751 0
M  V30 2563 H 258.169 -0.423573 -0.511353 0
M  V30 2564 H 260.699 -1.72362 -1.10239 0
M  V30 2565 H 260.709 -2.05124 -3.52687 0
M  V30 2566 H 259.384 -3.00307 -2.8773 0
M  V30 2567 H 257.961 -1.28141 -3.50192 0
M  V30 2568 N 260.146 1.09593 -1.13257 0
M  V30 2569 C 261.374 1.855 -0.916378 0
M  V30 2570 C 261.789 1.81069 0.534738 0
M  V30 2571 O 261.146 1.20562 1.37007 0
M  V30 2572 C 261.197 3.33546 -1.39388 0
M  V30 2573 O 260.918 3.37927 -2.78813 0
M  V30 2574 C 262.419 4.26299 -1.21588 0
M  V30 2575 H 259.639 0.585991 -0.326887 0
M  V30 2576 H 262.183 1.38488 -1.5047 0
M  V30 2577 H 260.338 3.77992 -0.848597 0
M  V30 2578 H 260.752 4.30254 -2.9997 0
M  V30 2579 H 262.226 5.28341 -1.59876 0
M  V30 2580 H 262.703 4.38918 -0.157376 0
M  V30 2581 H 263.309 3.87668 -1.7491 0
M  V30 2582 N 261.624 0.925811 1.2754 0
M  V30 2583 C 262.574 0.394488 2.24561 0
M  V30 2584 C 263.558 -0.500183 1.52928 0
M  V30 2585 O 264.75 -0.337936 1.73744 0
M  V30 2586 C 261.879 -0.353328 3.41477 0
M  V30 2587 C 260.965 0.557752 4.20416 0
M  V30 2588 N 261.356 1.67674 4.77199 0
M  V30 2589 C 259.654 0.360404 4.44541 0
M  V30 2590 C 260.355 2.24324 5.36706 0
M  V30 2591 N 259.331 1.53305 5.21535 0
M  V30 2592 H 263.133 1.2489 2.66045 0
M  V30 2593 H 260.647 0.779864 1.4245 0
M  V30 2594 H 262.644 -0.7509 4.10082 0
M  V30 2595 H 261.304 -1.20469 3.01525 0
M  V30 2596 H 262.315 2.05915 4.75204 0
M  V30 2597 H 258.992 -0.450454 4.15063 0
M  V30 2598 H 260.382 3.18521 5.91603 0
M  V30 2599 N 263.102 -1.41638 0.69111 0
M  V30 2600 C 264.032 -2.3347 0.037248 0
M  V30 2601 C 265.013 -1.51575 -0.771947 0
M  V30 2602 O 266.198 -1.80126 -0.72582 0
M  V30 2603 C 263.328 -3.35354 -0.903064 0
M  V30 2604 C 262.282 -4.27526 -0.201288 0
M  V30 2605 C 261.608 -5.19747 -1.25565 0
M  V30 2606 C 262.908 -5.13959 0.929689 0
M  V30 2607 H 264.602 -2.88397 0.804227 0
M  V30 2608 H 262.148 -1.38669 0.388189 0
M  V30 2609 H 264.101 -3.98519 -1.36969 0
M  V30 2610 H 262.825 -2.78767 -1.70166 0
M  V30 2611 H 261.484 -3.65779 0.245265 0
M  V30 2612 H 261.132 -4.59479 -2.04666 0
M  V30 2613 H 260.832 -5.8225 -0.791128 0
M  V30 2614 H 262.356 -5.85789 -1.72288 0
M  V30 2615 H 263.77 -5.70718 0.543546 0
M  V30 2616 H 262.167 -5.85379 1.32103 0
M  V30 2617 H 263.237 -4.51389 1.77133 0
M  V30 2618 N 264.58 -0.43555 -1.51462 0
M  V30 2619 C 265.53 0.394701 -2.24558 0
M  V30 2620 C 266.514 0.99157 -1.26715 0
M  V30 2621 O 267.706 0.910007 -1.51815 0
M  V30 2622 C 264.835 1.4963 -3.08975 0
M  V30 2623 C 263.921 0.908912 -4.14246 0
M  V30 2624 N 264.312 0.0505335 -5.05775 0
M  V30 2625 C 262.61 1.17668 -4.30198 0
M  V30 2626 C 263.311 -0.279161 -5.8103 0
M  V30 2627 N 262.287 0.336767 -5.42556 0
M  V30 2628 H 266.089 -0.267106 -2.92684 0
M  V30 2629 H 263.603 -0.247518 -1.60503 0
M  V30 2630 H 265.6 2.10394 -3.59917 0
M  V30 2631 H 264.26 2.16046 -2.42393 0
M  V30 2632 H 265.271 -0.31577 -5.16936 0
M  V30 2633 H 261.948 1.83847 -3.74842 0
M  V30 2634 H 263.338 -0.977553 -6.64751 0
M  V30 2635 N 266.058 1.56714 -0.166846 0
M  V30 2636 C 267.021 2.16539 0.751232 0
M  V30 2637 C 268.021 1.11228 1.16125 0
M  V30 2638 O 269.211 1.36765 1.07894 0
M  V30 2639 C 266.343 2.74462 2.02196 0
M  V30 2640 H 267.536 2.99013 0.230499 0
M  V30 2641 H 265.089 1.56081 0.0826982 0
M  V30 2642 H 265.824 1.95709 2.58589 0
M  V30 2643 H 265.609 3.51527 1.73698 0
M  V30 2644 H 267.099 3.20489 2.67725 0
M  V30 2645 N 267.536 -0.106894 1.57237 0
M  V30 2646 C 268.813 -0.843526 1.76477 0
M  V30 2647 C 269.193 -1.97499 0.745464 0
M  V30 2648 O 268.541 -2.27357 -0.228306 0
M  V30 2649 C 268.751 -1.34903 3.21873 0
M  V30 2650 C 270.099 -1.79654 3.8472 0
M  V30 2651 O 271.123 -1.44554 3.2555 0
M  V30 2652 O 269.982 -2.44515 4.88748 0
M  V30 2653 H 267.076 -0.401468 0.723016 0
M  V30 2654 H 269.622 -0.0896927 1.69463 0
M  V30 2655 H 268.394 -0.53781 3.87586 0
M  V30 2656 H 268.017 -2.16522 3.33473 0
M  V30 2657 N 269.014 -1.53014 -0.377408 0
M  V30 2658 C 270.262 -1.6829 -1.11906 0
M  V30 2659 C 270.583 -0.431206 -1.90173 0
M  V30 2660 O 269.853 0.554595 -1.87886 0
M  V30 2661 H 268.433 -0.620371 -0.416112 0
M  V30 2662 H 271.095 -1.90167 -0.426893 0
M  V30 2663 H 270.191 -2.53862 -1.8155 0
M  V30 2664 N 270.492 0.636531 -1.44174 0
M  V30 2665 C 271.717 1.42847 -1.50364 0
M  V30 2666 C 272.142 1.87665 -0.127867 0
M  V30 2667 O 271.5 1.58408 0.88185 0
M  V30 2668 C 271.548 2.62854 -2.4686 0
M  V30 2669 O 270.652 3.62501 -1.9664 0
M  V30 2670 H 269.993 0.427642 -0.507955 0
M  V30 2671 H 272.523 0.777422 -1.89255 0
M  V30 2672 H 272.533 3.10465 -2.64718 0
M  V30 2673 H 271.208 2.29578 -3.46795 0
M  V30 2674 H 269.785 3.21735 -1.88523 0
M  V30 2675 N 271.97 1.30982 0.876444 0
M  V30 2676 C 273.2 1.23063 1.65949 0
M  V30 2677 C 273.608 -0.207537 1.88058 0
M  V30 2678 O 272.951 -1.14781 1.43426 0
M  V30 2679 C 273.013 1.89768 3.05333 0
M  V30 2680 C 272.677 3.39106 3.0636 0
M  V30 2681 C 273.674 4.3496 2.84791 0
M  V30 2682 C 271.359 3.80693 3.27686 0
M  V30 2683 C 273.353 5.70375 2.84519 0
M  V30 2684 C 271.04 5.16223 3.27043 0
M  V30 2685 C 272.038 6.10875 3.05485 0
M  V30 2686 O 271.726 7.43928 3.04674 0
M  V30 2687 H 271.458 0.426685 0.524324 0
M  V30 2688 H 274.012 1.7329 1.10271 0
M  V30 2689 H 272.242 1.34082 3.6271 0
M  V30 2690 H 273.931 1.75853 3.65829 0
M  V30 2691 H 274.697 4.0416 2.68103 0
M  V30 2692 H 270.576 3.07457 3.43499 0
M  V30 2693 H 274.12 6.44228 2.67611 0
M  V30 2694 H 270.017 5.4666 3.43269 0
M  V30 2695 H 270.785 7.53022 3.2078 0
M  V30 2696 N 273.449 -1.08991 1.13837 0
M  V30 2697 C 274.697 -1.80899 0.901098 0
M  V30 2698 C 275.018 -1.86356 -0.574134 0
M  V30 2699 O 274.288 -1.35235 -1.41733 0
M  V30 2700 H 272.868 -0.669966 0.330386 0
M  V30 2701 H 275.53 -1.318 1.43578 0
M  V30 2702 H 274.626 -2.83929 1.29578 0
M  V30 2703 N 274.927 -0.932562 -1.27047 0
M  V30 2704 C 275.837 -0.441219 -2.30414 0
M  V30 2705 C 276.853 0.480525 -1.67233 0
M  V30 2706 O 278.029 0.362151 -1.98117 0
M  V30 2707 C 275.094 0.293651 -3.45454 0
M  V30 2708 C 274.155 -0.663601 -4.2414 0
M  V30 2709 C 273.388 0.0362932 -5.33688 0
M  V30 2710 O 273.611 1.2548 -5.56427 0
M  V30 2711 O 272.545 -0.638015 -5.98509 0
M  V30 2712 H 276.371 -1.29962 -2.74488 0
M  V30 2713 H 273.956 -0.6981 -1.32087 0
M  V30 2714 H 275.838 0.707951 -4.15411 0
M  V30 2715 H 274.513 1.12758 -3.03426 0
M  V30 2716 H 273.42 -1.12768 -3.56699 0
M  V30 2717 H 274.753 -1.46489 -4.69896 0
M  V30 2718 N 276.405 1.4127 -0.698611 0
M  V30 2719 C 277.335 2.33447 -0.049629 0
M  V30 2720 C 278.316 1.51982 0.763898 0
M  V30 2721 O 279.501 1.80509 0.716257 0
M  V30 2722 C 276.631 3.35828 0.885267 0
M  V30 2723 C 275.585 4.27627 0.178613 0
M  V30 2724 C 274.911 5.20406 1.22807 0
M  V30 2725 C 276.211 5.13459 -0.956933 0
M  V30 2726 H 277.905 2.87966 -0.81951 0
M  V30 2727 H 275.451 1.38461 -0.395538 0
M  V30 2728 H 277.404 3.9924 1.34854 0
M  V30 2729 H 276.128 2.79666 1.68685 0
M  V30 2730 H 274.787 3.65643 -0.26466 0
M  V30 2731 H 274.435 4.60558 2.02226 0
M  V30 2732 H 274.135 5.82661 0.760239 0
M  V30 2733 H 275.659 5.86695 1.69179 0
M  V30 2734 H 277.073 5.70421 -0.573805 0
M  V30 2735 H 275.47 5.8467 -1.35205 0
M  V30 2736 H 276.54 4.50443 -1.79524 0
M  V30 2737 N 277.883 0.443576 1.51229 0
M  V30 2738 C 278.813 -0.355142 2.30783 0
M  V30 2739 C 279.794 -1.0154 1.36468 0
M  V30 2740 O 280.979 -1.01785 1.65389 0
M  V30 2741 C 278.109 -1.45312 3.15439 0
M  V30 2742 C 277.063 -0.916002 4.18083 0
M  V30 2743 C 276.389 -2.1102 4.91299 0
M  V30 2744 C 277.689 0.0538602 5.22272 0
M  V30 2745 H 279.383 0.308767 2.97804 0
M  V30 2746 H 276.929 0.149937 1.43217 0
M  V30 2747 H 278.882 -2.01914 3.69876 0
M  V30 2748 H 277.606 -2.14541 2.46252 0
M  V30 2749 H 276.265 -0.372145 3.64706 0
M  V30 2750 H 275.913 -2.78882 4.18609 0
M  V30 2751 H 275.613 -1.75717 5.60712 0
M  V30 2752 H 277.137 -2.68164 5.48562 0
M  V30 2753 H 278.551 -0.422069 5.71744 0
M  V30 2754 H 276.948 0.319776 5.99247 0
M  V30 2755 H 278.018 0.98858 4.74716 0
M  V30 2756 N 279.361 -1.56624 0.175154 0
M  V30 2757 C 280.589 -2.01374 -0.474971 0
M  V30 2758 C 281.004 -1.05537 -1.56548 0
M  V30 2759 O 280.361 -0.0568668 -1.82411 0
M  V30 2760 C 280.412 -3.45923 -1.04975 0
M  V30 2761 O 280.133 -4.381 -0.00276605 0
M  V30 2762 C 281.634 -4.06093 -1.77773 0
M  V30 2763 H 278.854 -0.659962 -0.121206 0
M  V30 2764 H 281.398 -2.02601 0.27801 0
M  V30 2765 H 279.553 -3.45458 -1.75321 0
M  V30 2766 H 279.967 -5.22753 -0.427681 0
M  V30 2767 H 281.441 -5.09147 -2.13245 0
M  V30 2768 H 281.918 -3.48405 -2.67414 0
M  V30 2769 H 282.524 -4.10272 -1.12059 0
M  V30 2770 N 280.839 0.0985539 -1.57292 0
M  V30 2771 C 281.769 1.12064 -2.04851 0
M  V30 2772 C 282.75 1.41981 -0.936767 0
M  V30 2773 O 283.935 1.52071 -1.20781 0
M  V30 2774 C 281.065 2.44144 -2.47004 0
M  V30 2775 C 280.019 2.28643 -3.6181 0
M  V30 2776 C 279.345 3.65869 -3.89929 0
M  V30 2777 C 280.645 1.72986 -4.92822 0
M  V30 2778 H 282.339 0.724979 -2.9049 0
M  V30 2779 H 279.885 0.34729 -1.39749 0
M  V30 2780 H 281.838 3.15914 -2.78884 0
M  V30 2781 H 280.562 2.85639 -1.5836 0
M  V30 2782 H 279.221 1.59318 -3.30172 0
M  V30 2783 H 278.869 4.04885 -2.98458 0
M  V30 2784 H 278.569 3.56344 -4.67218 0
M  V30 2785 H 280.093 4.39112 -4.2428 0
M  V30 2786 H 281.507 2.34593 -5.23105 0
M  V30 2787 H 279.904 1.74229 -5.74251 0
M  V30 2788 H 280.974 0.689007 -4.7998 0
M  V30 2789 N 282.317 1.53212 0.369288 0
M  V30 2790 C 283.728 1.60943 0.946276 0
M  V30 2791 C 284.079 0.47452 1.90375 0
M  V30 2792 O 283.204 -0.399597 2.12679 0
M  V30 2793 C 283.799 2.91715 1.72302 0
M  V30 2794 C 282.358 3.01792 2.24941 0
M  V30 2795 C 281.505 2.56211 1.06072 0
M  V30 2796 H 284.456 1.58007 0.148198 0
M  V30 2797 H 284.477 2.79309 2.58393 0
M  V30 2798 H 283.989 3.74295 1.0259 0
M  V30 2799 H 282.09 2.23791 2.97906 0
M  V30 2800 H 282.203 4.06803 2.53077 0
M  V30 2801 H 280.567 2.10998 1.4266 0
M  V30 2802 H 281.35 3.41206 0.378639 0
M  V30 2803 N 283.795 -0.628877 1.44509 0
M  V30 2804 C 284.743 -1.76193 1.51852 0
M  V30 2805 C 285.737 -1.64849 0.390042 0
M  V30 2806 O 286.943 -1.709 0.565082 0
M  V30 2807 H 283.318 -0.581728 0.476547 0
M  V30 2808 H 285.289 -1.67123 2.47209 0
M  V30 2809 C 284.038 -3.14533 1.48204 0
M  V30 2810 H 283.361 -3.23911 2.34354 0
M  V30 2811 H 284.801 -3.93701 1.57402 0
M  V30 2812 C 283.26 -3.36287 0.203142 0
M  V30 2813 O 283.79 -3.9509 -0.725745 0
M  V30 2814 N 281.996 -2.90408 0.105563 0
M  V30 2815 H 281.543 -2.42739 0.862301 0
M  V30 2816 H 281.501 -3.05339 -0.749371 0
M  V30 2817 N 285.273 -1.31445 -0.869486 0
M  V30 2818 C 286.236 -1.19094 -1.9583 0
M  V30 2819 C 287.236 -0.117906 -1.60367 0
M  V30 2820 O 288.426 -0.367208 -1.70286 0
M  V30 2821 C 285.558 -0.828165 -3.30688 0
M  V30 2822 H 286.751 -2.15842 -2.08212 0
M  V30 2823 H 284.304 -1.15063 -1.05784 0
M  V30 2824 H 285.039 0.138142 -3.24006 0
M  V30 2825 H 284.824 -1.6038 -3.578 0
M  V30 2826 H 286.314 -0.765658 -4.10521 0
M  V30 2827 N 286.751 1.08385 -1.14413 0
M  V30 2828 C 288.028 1.77429 -0.823297 0
M  V30 2829 C 288.408 1.9974 0.683163 0
M  V30 2830 O 287.756 1.60739 1.62405 0
M  V30 2831 C 287.966 3.09004 -1.62227 0
M  V30 2832 C 289.314 3.83532 -1.82177 0
M  V30 2833 O 290.338 3.18786 -1.58915 0
M  V30 2834 O 289.197 4.99792 -2.21067 0
M  V30 2835 H 286.291 0.769999 -0.301712 0
M  V30 2836 H 288.837 1.14846 -1.24934 0
M  V30 2837 H 287.609 2.88316 -2.64555 0
M  V30 2838 H 287.232 3.79316 -1.19187 0
M  V30 2839 N 288.23 0.939286 1.26551 0
M  V30 2840 C 289.646 0.641304 1.46149 0
M  V30 2841 C 289.846 -0.805964 1.84679 0
M  V30 2842 O 288.902 -1.58278 1.96734 0
M  V30 2843 C 290.215 1.6011 2.54529 0
M  V30 2844 C 291.763 1.6106 2.68382 0
M  V30 2845 C 292.238 2.55765 3.79932 0
M  V30 2846 N 293.729 2.5404 3.87322 0
M  V30 2847 C 294.464 3.24004 4.73085 0
M  V30 2848 N 293.96 4.03388 5.63249 0
M  V30 2849 N 295.753 3.12965 4.66914 0
M  V30 2850 H 287.904 1.87478 0.998285 0
M  V30 2851 H 290.167 0.805559 0.499779 0
M  V30 2852 H 289.873 2.63412 2.33039 0
M  V30 2853 H 289.747 1.35171 3.52149 0
M  V30 2854 H 292.134 0.584835 2.89247 0
M  V30 2855 H 292.215 1.90053 1.71212 0
M  V30 2856 H 291.859 3.58458 3.5982 0
M  V30 2857 H 291.789 2.24063 4.76554 0
M  V30 2858 H 294.28 1.96396 3.22858 0
M  V30 2859 H 294.593 4.5373 6.25579 0
M  V30 2860 H 292.938 4.07489 5.63008 0
M  V30 2861 H 296.129 2.50432 3.95476 0
M  V30 2862 H 296.302 3.67759 5.33533 0
M  V30 2863 N 289.708 -1.40897 0.706093 0
M  V30 2864 C 290.954 -2.01352 0.241889 0
M  V30 2865 C 291.287 -1.55832 -1.15888 0
M  V30 2866 O 290.562 -0.774145 -1.7843 0
M  V30 2867 C 290.845 -3.58752 0.311311 0
M  V30 2868 C 290.698 -4.1437 1.74978 0
M  V30 2869 C 292.017 -4.38914 -0.322922 0
M  V30 2870 H 289.136 -0.731562 0.0893687 0
M  V30 2871 H 291.778 -1.67504 0.896802 0
M  V30 2872 H 289.928 -3.87718 -0.246302 0
M  V30 2873 H 291.6 -3.96239 2.36205 0
M  V30 2874 H 289.843 -3.69016 2.28057 0
M  V30 2875 H 290.514 -5.23532 1.74981 0
M  V30 2876 H 292.99 -4.15822 0.152089 0
M  V30 2877 H 291.866 -5.48358 -0.243855 0
M  V30 2878 H 292.127 -4.19176 -1.40513 0
M  V30 2879 N 291.186 -0.45159 -1.50991 0
M  V30 2880 C 292.134 0.366864 -2.29689 0
M  V30 2881 C 293.128 1.00809 -1.36139 0
M  V30 2882 O 294.334 0.941427 -1.53418 0
M  V30 2883 H 290.709 0.137133 -0.739391 0
M  V30 2884 H 292.68 -0.317538 -2.96706 0
M  V30 2885 C 291.429 1.44751 -3.16137 0
M  V30 2886 H 290.752 0.963473 -3.88017 0
M  V30 2887 H 292.192 1.99315 -3.74232 0
M  V30 2888 C 290.651 2.43869 -2.32442 0
M  V30 2889 O 291.181 3.4872 -1.99392 0
M  V30 2890 N 289.387 2.15105 -1.95392 0
M  V30 2891 H 288.934 1.29866 -2.22469 0
M  V30 2892 H 288.892 2.81661 -1.39693 0
M  V30 2893 N 292.664 1.56529 -0.183458 0
M  V30 2894 C 294.075 1.83739 0.331177 0
M  V30 2895 C 294.426 1.10373 1.62211 0
M  V30 2896 O 293.551 0.36071 2.13373 0
M  V30 2897 C 294.146 3.33306 0.607646 0
M  V30 2898 C 292.705 3.60969 1.06668 0
M  V30 2899 C 291.852 2.77086 0.109029 0
M  V30 2900 H 294.803 1.53379 -0.407484 0
M  V30 2901 H 294.824 3.51444 1.45832 0
M  V30 2902 H 294.336 3.86677 -0.332086 0
M  V30 2903 H 292.437 3.13021 2.0211 0
M  V30 2904 H 292.55 4.69231 0.967447 0
M  V30 2905 H 290.914 2.47319 0.608714 0
M  V30 2906 H 291.697 3.33241 -0.82494 0
M  V30 2907 N 294.142 -0.090211 1.57342 0
M  V30 2908 C 295.052 -1.12735 2.05738 0
M  V30 2909 C 296.068 -1.43557 0.983231 0
M  V30 2910 O 297.244 -1.54101 1.29672 0
M  V30 2911 C 294.309 -2.42659 2.47624 0
M  V30 2912 C 293.37 -2.18975 3.69254 0
M  V30 2913 C 292.603 -3.42704 4.09133 0
M  V30 2914 O 292.826 -4.51127 3.49057 0
M  V30 2915 O 291.76 -3.32003 5.02053 0
M  V30 2916 H 295.586 -0.746279 2.94388 0
M  V30 2917 H 293.171 -0.303064 1.46294 0
M  V30 2918 H 295.053 -3.19155 2.7517 0
M  V30 2919 H 293.728 -2.80182 1.62109 0
M  V30 2920 H 292.635 -1.40244 3.46818 0
M  V30 2921 H 293.968 -1.86342 4.55563 0
M  V30 2922 N 295.62 -1.53406 -0.361157 0
M  V30 2923 C 296.568 -1.80832 -1.46296 0
M  V30 2924 C 297.562 -0.677699 -1.55253 0
M  V30 2925 O 298.768 -0.860723 -1.58087 0
M  V30 2926 H 295.143 -0.572627 -0.487445 0
M  V30 2927 H 297.114 -2.73045 -1.20371 0
M  V30 2928 C 295.863 -2.01907 -2.8307 0
M  V30 2929 H 295.186 -2.88349 -2.76938 0
M  V30 2930 H 296.626 -2.25072 -3.59331 0
M  V30 2931 C 295.085 -0.799449 -3.27277 0
M  V30 2932 O 295.615 0.00971761 -4.01699 0
M  V30 2933 N 293.821 -0.621637 -2.83873 0
M  V30 2934 H 293.368 -1.28126 -2.23476 0
M  V30 2935 H 293.326 0.19298 -3.13807 0
M  V30 2936 N 297.098 0.621204 -1.44841 0
M  V30 2937 C 298.323 1.41244 -1.51871 0
M  V30 2938 C 298.748 1.87519 -0.147764 0
M  V30 2939 O 298.106 1.59334 0.865 0
M  V30 2940 C 298.154 2.60221 -2.49634 0
M  V30 2941 O 297.258 3.60395 -2.00473 0
M  V30 2942 H 296.599 0.42223 -0.512463 0
M  V30 2943 H 299.129 0.757305 -1.90069 0
M  V30 2944 H 299.139 3.0764 -2.67996 0
M  V30 2945 H 297.814 2.25887 -3.4921 0
M  V30 2946 H 296.391 3.19717 -1.91925 0
M  V30 2947 N 298.576 1.31904 0.862503 0
M  V30 2948 C 299.825 1.21373 1.61094 0
M  V30 2949 C 300.138 -0.22504 1.94301 0
M  V30 2950 O 301.344 -0.452121 2.67709 0
M  V30 2951 C 299.8 2.12525 2.9045 0
M  V30 2952 C 299.408 3.61441 2.64697 0
M  V30 2953 C 301.152 2.10813 3.68454 0
M  V30 2954 C 299.059 4.44578 3.90006 0
M  V30 2955 H 297.989 0.450705 0.604468 0
M  V30 2956 H 300.64 1.56811 0.953027 0
M  V30 2957 H 299.022 1.69994 3.57656 0
M  V30 2958 H 300.196 4.12264 2.05851 0
M  V30 2959 H 298.511 3.65205 2.00036 0
M  V30 2960 H 301.108 2.70167 4.61426 0
M  V30 2961 H 301.451 1.09713 4.01583 0
M  V30 2962 H 301.984 2.51583 3.08141 0
M  V30 2963 H 298.723 5.46461 3.62023 0
M  V30 2964 H 298.243 3.98508 4.48276 0
M  V30 2965 H 299.922 4.57176 4.5782 0
M  V30 2966 N 300.054 -1.07777 1.14986 0
M  V30 2967 C 301.004 -2.13082 0.811181 0
M  V30 2968 C 301.988 -1.59619 -0.202597 0
M  V30 2969 O 303.18 -1.77 -0.00398275 0
M  V30 2970 C 300.309 -3.42009 0.297439 0
M  V30 2971 C 299.395 -4.02337 1.34112 0
M  V30 2972 N 299.786 -4.36982 2.54716 0
M  V30 2973 C 298.084 -4.29752 1.19285 0
M  V30 2974 C 298.785 -4.84729 3.21578 0
M  V30 2975 N 297.761 -4.83233 2.48972 0
M  V30 2976 H 301.563 -2.37696 1.72853 0
M  V30 2977 H 299.077 -1.25173 1.03468 0
M  V30 2978 H 301.074 -4.16884 0.0364777 0
M  V30 2979 H 299.734 -3.18841 -0.614022 0
M  V30 2980 H 300.745 -4.27807 2.91894 0
M  V30 2981 H 297.422 -4.16106 0.340926 0
M  V30 2982 H 298.812 -5.20863 4.24442 0
M  V30 2983 N 301.532 -0.945985 -1.26051 0
M  V30 2984 C 302.462 -0.477172 -2.28572 0
M  V30 2985 C 303.443 0.472032 -1.63419 0
M  V30 2986 O 304.628 0.372853 -1.90587 0
M  V30 2987 C 301.758 0.253975 -3.4637 0
M  V30 2988 C 300.712 -0.609135 -4.23643 0
M  V30 2989 C 300.038 0.252252 -5.34105 0
M  V30 2990 C 301.338 -1.8829 -4.8718 0
M  V30 2991 H 303.032 -1.33402 -2.68038 0
M  V30 2992 H 300.578 -0.642904 -1.28852 0
M  V30 2993 H 302.531 0.593016 -4.17207 0
M  V30 2994 H 301.255 1.145 -3.05871 0
M  V30 2995 H 299.914 -0.931138 -3.54578 0
M  V30 2996 H 299.562 1.14278 -4.89846 0
M  V30 2997 H 299.262 -0.32188 -5.86718 0
M  V30 2998 H 300.786 0.586454 -6.07777 0
M  V30 2999 H 302.2 -1.61081 -5.50205 0
M  V30 3000 H 300.597 -2.40199 -5.49931 0
M  V30 3001 H 301.667 -2.59134 -4.09851 0
M  V30 3002 N 303.011 1.40521 -0.713556 0
M  V30 3003 C 304.239 2.05237 -0.261775 0
M  V30 3004 C 304.654 1.53755 1.09567 0
M  V30 3005 O 304.011 0.693268 1.6882 0
M  V30 3006 C 304.062 3.60763 -0.230706 0
M  V30 3007 O 303.783 4.10345 -1.53455 0
M  V30 3008 C 305.284 4.42651 0.239874 0
M  V30 3009 H 302.504 0.660533 -0.118057 0
M  V30 3010 H 305.048 1.79967 -0.971192 0
M  V30 3011 H 303.203 3.8501 0.429661 0
M  V30 3012 H 303.617 5.04526 -1.43366 0
M  V30 3013 H 305.091 5.51599 0.210468 0
M  V30 3014 H 305.568 4.20082 1.28171 0
M  V30 3015 H 306.174 4.23507 -0.390142 0
M  V30 3016 N 304.489 0.459591 1.5075 0
M  V30 3017 C 305.422 -0.386257 2.24907 0
M  V30 3018 C 306.4 -1.006 1.27744 0
M  V30 3019 O 307.584 -1.04416 1.56938 0
M  V30 3020 C 304.711 -1.54021 3.01654 0
M  V30 3021 C 303.757 -1.03898 4.13651 0
M  V30 3022 S 304.59 0.0370501 5.35487 0
M  V30 3023 C 305.746 -1.12105 6.15779 0
M  V30 3024 H 305.979 0.243272 2.96303 0
M  V30 3025 H 303.512 0.244339 1.52454 0
M  V30 3026 H 305.47 -2.20163 3.46466 0
M  V30 3027 H 304.131 -2.14121 2.29806 0
M  V30 3028 H 303.324 -1.90254 4.66711 0
M  V30 3029 H 302.926 -0.45545 3.71216 0
M  V30 3030 H 305.218 -2.03501 6.46215 0
M  V30 3031 H 306.161 -0.62995 7.05292 0
M  V30 3032 H 306.569 -1.36967 5.47631 0
M  V30 3033 N 305.967 -1.56429 0.191757 0
M  V30 3034 C 306.93 -2.17707 -0.716688 0
M  V30 3035 C 307.93 -1.13061 -1.14341 0
M  V30 3036 O 309.12 -1.38464 -1.05704 0
M  V30 3037 C 306.252 -2.77644 -1.97804 0
M  V30 3038 H 307.445 -2.99342 -0.1829 0
M  V30 3039 H 304.998 -1.56193 -0.0578566 0
M  V30 3040 H 305.733 -1.99799 -2.55443 0
M  V30 3041 H 305.518 -3.54246 -1.68083 0
M  V30 3042 H 307.008 -3.24708 -2.62592 0
M  V30 3043 N 307.445 0.0818655 -1.57387 0
M  V30 3044 C 308.693 0.781368 -1.86384 0
M  V30 3045 C 309.014 1.78618 -0.782342 0
M  V30 3046 O 308.284 1.94976 0.190061 0
M  V30 3047 H 306.864 0.291562 -0.687751 0
M  V30 3048 H 309.526 0.060348 -1.94807 0
M  V30 3049 H 308.622 1.3038 -2.83562 0
M  V30 3050 N 308.923 1.53595 0.353017 0
M  V30 3051 C 309.871 1.81605 1.45335 0
M  V30 3052 C 310.865 0.685923 1.54892 0
M  V30 3053 O 312.071 0.869095 1.57628 0
M  V30 3054 H 308.446 0.575204 0.484401 0
M  V30 3055 H 310.417 2.73679 1.18921 0
M  V30 3056 C 309.166 2.03406 2.81995 0
M  V30 3057 H 308.489 2.89814 2.75405 0
M  V30 3058 H 309.929 2.26975 3.58132 0
M  V30 3059 C 308.388 0.816794 3.26849 0
M  V30 3060 O 308.918 0.0115856 4.01698 0
M  V30 3061 N 307.124 0.636682 2.8354 0
M  V30 3062 H 306.671 1.2931 2.22793 0
M  V30 3063 H 306.629 -0.176336 3.13905 0
M  V30 3064 N 310.401 -0.613514 1.45168 0
M  V30 3065 C 311.311 -1.75296 1.55912 0
M  V30 3066 C 312.327 -1.68244 0.443856 0
M  V30 3067 O 313.503 -1.88706 0.70371 0
M  V30 3068 C 310.568 -3.1174 1.5172 0
M  V30 3069 C 309.629 -3.30291 2.74238 0
M  V30 3070 C 308.862 -4.60226 2.70236 0
M  V30 3071 O 309.085 -5.42168 1.77229 0
M  V30 3072 O 308.019 -4.81361 3.61352 0
M  V30 3073 H 311.845 -1.69183 2.52212 0
M  V30 3074 H 309.43 -0.776886 1.27612 0
M  V30 3075 H 311.312 -3.93044 1.51968 0
M  V30 3076 H 309.987 -3.18357 0.585697 0
M  V30 3077 H 308.894 -2.48598 2.79553 0
M  V30 3078 H 310.227 -3.28547 3.66494 0
M  V30 3079 N 311.879 -1.3236 -0.855495 0
M  V30 3080 C 313.125 -1.23054 -1.612 0
M  V30 3081 C 313.458 0.207404 -1.93089 0
M  V30 3082 O 312.733 1.14432 -1.57275 0
M  V30 3083 C 313.016 -2.08937 -2.93287 0
M  V30 3084 C 312.869 -3.61105 -2.68185 0
M  V30 3085 C 314.188 -1.94986 -3.94549 0
M  V30 3086 H 311.307 -0.448364 -0.584926 0
M  V30 3087 H 313.949 -1.62297 -0.987917 0
M  V30 3088 H 312.099 -1.75599 -3.46551 0
M  V30 3089 H 313.771 -4.04652 -2.21483 0
M  V30 3090 H 312.014 -3.83813 -2.02164 0
M  V30 3091 H 312.685 -4.16522 -3.62234 0
M  V30 3092 H 315.161 -2.24189 -3.5054 0
M  V30 3093 H 314.037 -2.57356 -4.84829 0
M  V30 3094 H 314.298 -0.917263 -4.3248 0
M  V30 3095 N 313.357 1.07166 -1.15556 0
M  V30 3096 C 314.604 1.79798 -0.931604 0
M  V30 3097 C 314.932 1.8682 0.54115 0
M  V30 3098 O 314.187 1.34942 1.41736 0
M  V30 3099 C 314.486 3.24707 -1.49332 0
M  V30 3100 C 314.152 3.37781 -2.98688 0
M  V30 3101 C 312.814 3.41057 -3.39461 0
M  V30 3102 C 315.166 3.40424 -3.94665 0
M  V30 3103 C 312.494 3.4458 -4.74849 0
M  V30 3104 C 314.846 3.45485 -5.29927 0
M  V30 3105 C 313.51 3.47039 -5.70193 0
M  V30 3106 H 312.78 0.657928 -0.340898 0
M  V30 3107 H 315.427 1.26091 -1.44129 0
M  V30 3108 H 313.732 3.81208 -0.904859 0
M  V30 3109 H 315.429 3.79486 -1.29582 0
M  V30 3110 H 312.019 3.35932 -2.66172 0
M  V30 3111 H 316.203 3.37113 -3.64237 0
M  V30 3112 H 311.459 3.44083 -5.05388 0
M  V30 3113 H 315.633 3.46476 -6.04092 0
M  V30 3114 H 313.26 3.49522 -6.75084 0
M  V30 3115 N 314.835 0.952656 1.25548 0
M  V30 3116 C 315.782 0.47008 2.25962 0
M  V30 3117 C 316.752 -0.476384 1.59122 0
M  V30 3118 O 317.937 -0.39007 1.8677 0
M  V30 3119 C 315.077 -0.247881 3.44209 0
M  V30 3120 C 314.19 0.735591 4.25691 0
M  V30 3121 C 313.325 -0.0047306 5.312 0
M  V30 3122 C 312.364 0.969805 6.04368 0
M  V30 3123 N 311.501 0.260486 7.01617 0
M  V30 3124 H 316.341 1.33126 2.66611 0
M  V30 3125 H 313.878 0.66765 1.31076 0
M  V30 3126 H 315.836 -0.680695 4.1161 0
M  V30 3127 H 314.466 -1.07312 3.0444 0
M  V30 3128 H 313.518 1.28689 3.57971 0
M  V30 3129 H 314.83 1.47934 4.76358 0
M  V30 3130 H 313.984 -0.496275 6.04667 0
M  V30 3131 H 312.723 -0.781282 4.81401 0
M  V30 3132 H 311.728 1.47237 5.29718 0
M  V30 3133 H 312.953 1.74655 6.56256 0
M  V30 3134 H 310.899 -0.497364 6.54112 0
M  V30 3135 H 310.816 0.943362 7.50091 0
M  V30 3136 H 312.084 -0.209587 7.79218 0
M  V30 3137 N 316.313 -1.40141 0.720998 0
M  V30 3138 C 317.559 -2.01084 0.263231 0
M  V30 3139 C 317.892 -1.57052 -1.14229 0
M  V30 3140 O 317.167 -0.793027 -1.77599 0
M  V30 3141 C 317.45 -3.58401 0.349344 0
M  V30 3142 C 317.303 -4.12491 1.79363 0
M  V30 3143 C 318.622 -4.39231 -0.276351 0
M  V30 3144 H 315.741 -0.730572 0.0971228 0
M  V30 3145 H 318.383 -1.66543 0.914518 0
M  V30 3146 H 316.533 -3.87958 -0.205165 0
M  V30 3147 H 318.205 -3.93711 2.40394 0
M  V30 3148 H 316.448 -3.66576 2.31958 0
M  V30 3149 H 317.119 -5.21646 1.80524 0
M  V30 3150 H 319.595 -4.15637 0.196184 0
M  V30 3151 H 318.471 -5.48586 -0.185681 0
M  V30 3152 H 318.732 -4.20643 -1.36059 0
M  V30 3153 N 317.792 -0.46758 -1.50504 0
M  V30 3154 C 318.755 0.317059 -2.26996 0
M  V30 3155 C 319.755 0.923513 -1.31635 0
M  V30 3156 O 320.945 0.793239 -1.55091 0
M  V30 3157 C 318.077 1.45134 -3.08462 0
M  V30 3158 H 319.27 -0.353723 -2.97807 0
M  V30 3159 H 316.823 -0.221545 -1.54722 0
M  V30 3160 H 317.558 2.15728 -2.4214 0
M  V30 3161 H 317.343 1.02232 -3.78538 0
M  V30 3162 H 318.833 2.00493 -3.66323 0
M  V30 3163 N 319.27 1.56325 -0.20005 0
M  V30 3164 C 320.516 1.98012 0.438059 0
M  V30 3165 C 320.849 1.08702 1.60927 0
M  V30 3166 O 320.124 0.140064 1.93995 0
M  V30 3167 C 320.407 3.48841 0.893419 0
M  V30 3168 C 320.26 4.48928 -0.279947 0
M  V30 3169 C 321.579 4.03498 1.75719 0
M  V30 3170 H 318.698 0.719918 0.157757 0
M  V30 3171 H 321.34 1.87743 -0.291968 0
M  V30 3172 H 319.49 3.57723 1.51547 0
M  V30 3173 H 321.162 4.52079 -0.91772 0
M  V30 3174 H 319.405 4.23694 -0.930919 0
M  V30 3175 H 320.076 5.5194 0.0812601 0
M  V30 3176 H 322.552 3.97427 1.23253 0
M  V30 3177 H 321.428 5.09393 2.04476 0
M  V30 3178 H 321.689 3.4906 2.71311 0
M  V30 3179 N 320.748 -0.0735177 1.57428 0
M  V30 3180 C 321.976 -0.785969 1.9139 0
M  V30 3181 C 322.391 -1.71207 0.795847 0
M  V30 3182 O 321.748 -1.81033 -0.230915 0
M  V30 3183 C 321.799 -1.58107 3.25091 0
M  V30 3184 O 321.52 -0.6922 4.32597 0
M  V30 3185 C 323.021 -2.39467 3.73055 0
M  V30 3186 H 320.241 -0.223558 0.632663 0
M  V30 3187 H 322.785 -0.044302 2.04452 0
M  V30 3188 H 320.94 -2.27503 3.13562 0
M  V30 3189 H 321.354 -1.24504 5.09508 0
M  V30 3190 H 322.828 -2.90716 4.69242 0
M  V30 3191 H 323.305 -3.18913 3.01979 0
M  V30 3192 H 323.911 -1.7523 3.87523 0
M  V30 3193 N 322.226 -1.5378 -0.344866 0
M  V30 3194 C 323.136 -1.84667 -1.4469 0
M  V30 3195 C 324.152 -0.736704 -1.57635 0
M  V30 3196 O 325.328 -1.02888 -1.73136 0
M  V30 3197 C 322.393 -2.04869 -2.79696 0
M  V30 3198 C 321.454 -3.28731 -2.76106 0
M  V30 3199 C 320.687 -3.4796 -4.04673 0
M  V30 3200 O 320.91 -2.71052 -5.01883 0
M  V30 3201 O 319.844 -4.41383 -4.09224 0
M  V30 3202 H 323.67 -2.78334 -1.21506 0
M  V30 3203 H 321.255 -1.39418 -0.536921 0
M  V30 3204 H 323.137 -2.19609 -3.59652 0
M  V30 3205 H 321.812 -1.14391 -3.02814 0
M  V30 3206 H 320.719 -3.19396 -1.94774 0
M  V30 3207 H 322.052 -4.19198 -2.57941 0
M  V30 3208 N 323.704 0.605807 -1.45491 0
M  V30 3209 C 324.634 1.72709 -1.57143 0
M  V30 3210 C 325.615 1.6476 -0.422884 0
M  V30 3211 O 326.8 1.83132 -0.646247 0
M  V30 3212 C 323.93 3.11316 -1.53948 0
M  V30 3213 C 322.884 3.34077 -2.67537 0
M  V30 3214 C 322.21 4.72975 -2.49397 0
M  V30 3215 C 323.51 3.24158 -4.09535 0
M  V30 3216 H 325.204 1.63214 -2.51001 0
M  V30 3217 H 322.75 0.78379 -1.208 0
M  V30 3218 H 324.703 3.89557 -1.60696 0
M  V30 3219 H 323.427 3.21655 -0.566205 0
M  V30 3220 H 322.086 2.58227 -2.6022 0
M  V30 3221 H 321.734 4.8005 -1.50205 0
M  V30 3222 H 321.434 4.8916 -3.25571 0
M  V30 3223 H 322.958 5.53414 -2.58002 0
M  V30 3224 H 324.372 3.92271 -4.18086 0
M  V30 3225 H 322.769 3.51872 -4.86113 0
M  V30 3226 H 323.839 2.2157 -4.31317 0
M  V30 3227 N 325.182 1.32811 0.848464 0
M  V30 3228 C 326.145 1.22194 1.9391 0
M  V30 3229 C 327.145 0.143404 1.60159 0
M  V30 3230 O 328.335 0.394253 1.6968 0
M  V30 3231 C 325.467 0.88067 3.29328 0
M  V30 3232 H 326.66 2.19127 2.04752 0
M  V30 3233 H 324.213 1.16731 1.0394 0
M  V30 3234 H 324.948 -0.0865776 3.24184 0
M  V30 3235 H 324.733 1.66052 3.55203 0
M  V30 3236 H 326.223 0.830871 4.09251 0
M  V30 3237 N 326.66 -1.06551 1.16123 0
M  V30 3238 C 327.61 -2.12209 0.833736 0
M  V30 3239 C 328.594 -1.59825 -0.185656 0
M  V30 3240 O 329.786 -1.76994 0.0147906 0
M  V30 3241 C 326.915 -3.41674 0.333697 0
M  V30 3242 C 326.001 -4.00892 1.38372 0
M  V30 3243 N 326.392 -4.34256 2.59337 0
M  V30 3244 C 324.69 -4.28463 1.23836 0
M  V30 3245 C 325.391 -4.81291 3.26701 0
M  V30 3246 N 324.367 -4.80565 2.54083 0
M  V30 3247 H 328.169 -2.35849 1.75364 0
M  V30 3248 H 325.683 -1.24068 1.04789 0
M  V30 3249 H 327.68 -4.16822 0.0806918 0
M  V30 3250 H 326.34 -3.19475 -0.58017 0
M  V30 3251 H 327.351 -4.24687 2.96415 0
M  V30 3252 H 324.028 -4.15721 0.38504 0
M  V30 3253 H 325.418 -5.16332 4.29943 0
M  V30 3254 N 328.138 -0.959301 -1.25041 0
M  V30 3255 C 329.387 -0.612254 -1.92183 0
M  V30 3256 C 329.7 0.855347 -1.75907 0
M  V30 3257 O 330.906 1.31256 -2.37664 0
M  V30 3258 C 329.362 -1.04435 -3.44414 0
M  V30 3259 C 328.97 -2.53482 -3.69393 0
M  V30 3260 C 330.714 -0.770055 -4.17457 0
M  V30 3261 C 328.621 -2.90468 -5.15153 0
M  V30 3262 H 327.551 -0.225279 -0.719559 0
M  V30 3263 H 330.202 -1.16438 -1.41825 0
M  V30 3264 H 328.584 -0.4206 -3.9376 0
M  V30 3265 H 329.758 -3.20916 -3.30681 0
M  V30 3266 H 328.073 -2.78432 -3.0962 0
M  V30 3267 H 330.67 -1.02249 -5.24832 0
M  V30 3268 H 331.013 0.293611 -4.15263 0
M  V30 3269 H 331.546 -1.35437 -3.74034 0
M  V30 3270 H 328.285 -3.95871 -5.22462 0
M  V30 3271 H 327.805 -2.27711 -5.54894 0
M  V30 3272 H 329.484 -2.79914 -5.83315 0
M  V30 3273 N 329.616 1.39756 -0.72842 0
M  V30 3274 C 330.862 2.00942 -0.273892 0
M  V30 3275 C 331.195 1.57656 1.13394 0
M  V30 3276 O 330.47 0.802434 1.77176 0
M  V30 3277 C 330.753 3.58211 -0.368346 0
M  V30 3278 C 330.606 4.11534 -1.81548 0
M  V30 3279 C 331.925 4.39372 0.253054 0
M  V30 3280 H 329.044 0.730047 -0.100996 0
M  V30 3281 H 331.686 1.66056 -0.923337 0
M  V30 3282 H 329.836 3.88061 0.184588 0
M  V30 3283 H 331.508 3.92431 -2.42478 0
M  V30 3284 H 329.751 3.65341 -2.33898 0
M  V30 3285 H 330.422 5.20682 -1.83288 0
M  V30 3286 H 332.898 4.15527 -0.218224 0
M  V30 3287 H 331.774 5.48677 0.156585 0
M  V30 3288 H 332.035 4.21358 1.33826 0
M  V30 3289 N 331.094 0.475555 1.50254 0
M  V30 3290 C 332.371 -0.139685 1.95101 0
M  V30 3291 C 332.751 -1.56555 1.41611 0
M  V30 3292 O 332.099 -2.19956 0.618993 0
M  V30 3293 C 332.309 -0.0784298 3.48912 0
M  V30 3294 C 333.657 -0.265095 4.23772 0
M  V30 3295 O 334.681 -0.154808 3.55863 0
M  V30 3296 O 333.54 -0.488327 5.44314 0
M  V30 3297 H 330.634 -0.109236 0.819754 0
M  V30 3298 H 333.18 0.536276 1.61004 0
M  V30 3299 H 331.952 0.916918 3.80405 0
M  V30 3300 H 331.575 -0.795655 3.89558 0
M  V30 3301 N 332.573 -1.56217 0.208337 0
M  V30 3302 C 333.483 -2.23316 -0.718836 0
M  V30 3303 C 334.499 -1.23648 -1.22422 0
M  V30 3304 O 335.675 -1.56423 -1.26861 0
M  V30 3305 C 332.74 -2.88968 -1.91568 0
M  V30 3306 C 331.801 -4.03943 -1.45357 0
M  V30 3307 C 331.034 -4.66455 -2.59337 0
M  V30 3308 O 331.257 -4.27919 -3.77149 0
M  V30 3309 O 330.191 -5.55686 -2.31293 0
M  V30 3310 H 334.017 -3.03182 -0.177315 0
M  V30 3311 H 331.602 -1.49384 -0.0215402 0
M  V30 3312 H 333.484 -3.30455 -2.61491 0
M  V30 3313 H 332.159 -2.12071 -2.44556 0
M  V30 3314 H 331.066 -3.67052 -0.722746 0
M  V30 3315 H 332.399 -4.82543 -0.970219 0
M  V30 3316 N 334.051 0.0651679 -1.57465 0
M  V30 3317 C 335.279 0.775808 -1.91804 0
M  V30 3318 C 335.694 1.70782 -0.804916 0
M  V30 3319 O 335.051 1.81153 0.221311 0
M  V30 3320 C 335.102 1.56381 -3.25925 0
M  V30 3321 O 334.823 0.669248 -4.32958 0
M  V30 3322 C 336.324 2.37485 -3.7432 0
M  V30 3323 H 333.544 0.2202 -0.63384 0
M  V30 3324 H 336.088 0.0334587 -2.04473 0
M  V30 3325 H 334.243 2.25837 -3.14764 0
M  V30 3326 H 334.657 1.21801 -5.10162 0
M  V30 3327 H 336.131 2.88223 -4.70778 0
M  V30 3328 H 336.608 3.17307 -3.03666 0
M  V30 3329 H 337.214 1.73173 -3.88447 0
M  V30 3330 N 335.529 1.53961 0.336706 0
M  V30 3331 C 336.459 1.85417 1.41925 0
M  V30 3332 C 337.44 0.709856 1.5458 0
M  V30 3333 O 338.625 0.962396 1.68676 0
M  V30 3334 C 335.755 2.06985 2.78881 0
M  V30 3335 C 334.709 3.22813 2.81026 0
M  V30 3336 C 334.035 3.29727 4.20932 0
M  V30 3337 C 335.335 4.60767 2.45949 0
M  V30 3338 H 337.029 2.76079 1.15848 0
M  V30 3339 H 334.575 1.32839 0.555859 0
M  V30 3340 H 336.528 2.27575 3.54665 0
M  V30 3341 H 335.252 1.13061 3.06406 0
M  V30 3342 H 333.911 3.0209 2.07695 0
M  V30 3343 H 333.559 2.33385 4.45579 0
M  V30 3344 H 333.259 4.07566 4.23277 0
M  V30 3345 H 334.783 3.52536 4.98549 0
M  V30 3346 H 336.197 4.81325 3.11446 0
M  V30 3347 H 334.594 5.4106 2.59566 0
M  V30 3348 H 335.664 4.6391 1.41122 0
M  V30 3349 N 337.007 -0.598083 1.45811 0
M  V30 3350 C 337.97 -1.69018 1.54808 0
M  V30 3351 C 338.97 -1.55037 0.426652 0
M  V30 3352 O 340.16 -1.59932 0.690456 0
M  V30 3353 C 337.292 -3.0835 1.45371 0
M  V30 3354 H 338.485 -1.62403 2.52121 0
M  V30 3355 H 336.038 -0.814626 1.33392 0
M  V30 3356 H 336.773 -3.20534 0.492793 0
M  V30 3357 H 336.558 -3.19907 2.26721 0
M  V30 3358 H 338.048 -3.8788 1.54721 0
M  V30 3359 N 338.485 -1.33259 -0.841409 0
M  V30 3360 C 339.448 -1.23221 -1.9326 0
M  V30 3361 C 340.448 -0.151895 -1.60081 0
M  V30 3362 O 341.638 -0.403246 -1.69468 0
M  V30 3363 C 338.77 -0.898123 -3.28856 0
M  V30 3364 H 339.963 -2.2021 -2.03587 0
M  V30 3365 H 337.516 -1.17281 -1.03319 0
M  V30 3366 H 338.251 0.0693841 -3.24226 0
M  V30 3367 H 338.036 -1.67934 -3.54317 0
M  V30 3368 H 339.526 -0.852563 -4.08805 0
M  V30 3369 N 339.963 1.05934 -1.16686 0
M  V30 3370 C 340.911 2.15603 -0.872817 0
M  V30 3371 C 341.905 1.68647 0.159576 0
M  V30 3372 O 343.111 1.79995 0.0132125 0
M  V30 3373 H 339.486 0.703885 -0.264671 0
M  V30 3374 H 341.457 2.37613 -1.80507 0
M  V30 3375 C 340.206 3.45457 -0.394344 0
M  V30 3376 H 339.529 3.81984 -1.18019 0
M  V30 3377 H 340.969 4.2339 -0.227408 0
M  V30 3378 C 339.428 3.25021 0.88673 0
M  V30 3379 O 339.958 3.50906 1.95519 0
M  V30 3380 N 338.164 2.78437 0.831925 0
M  V30 3381 H 337.711 2.57572 -0.0377619 0
M  V30 3382 H 337.669 2.65144 1.68956 0
M  V30 3383 N 341.441 0.965919 1.2453 0
M  V30 3384 C 342.389 0.486506 2.27455 0
M  V30 3385 C 343.383 -0.449041 1.6334 0
M  V30 3386 O 344.589 -0.324527 1.7705 0
M  V30 3387 H 340.964 0.138857 0.739069 0
M  V30 3388 H 342.935 1.3666 2.65267 0
M  V30 3389 C 341.684 -0.209481 3.47068 0
M  V30 3390 H 341.007 0.50129 3.96645 0
M  V30 3391 H 342.447 -0.508775 4.20936 0
M  V30 3392 C 340.906 -1.43586 3.0477 0
M  V30 3393 O 341.436 -2.53299 3.11773 0
M  V30 3394 N 339.642 -1.30126 2.59838 0
M  V30 3395 H 339.189 -0.408583 2.54339 0
M  V30 3396 H 339.147 -2.12294 2.31902 0
M  V30 3397 N 342.919 -1.39368 0.735821 0
M  V30 3398 C 343.849 -2.33234 0.111506 0
M  V30 3399 C 344.83 -1.53954 -0.723334 0
M  V30 3400 O 346.015 -1.82344 -0.668147 0
M  V30 3401 C 343.145 -3.38057 -0.795917 0
M  V30 3402 C 342.099 -4.2795 -0.065172 0
M  V30 3403 C 341.425 -5.23479 -1.08967 0
M  V30 3404 C 342.725 -5.10741 1.09273 0
M  V30 3405 H 344.419 -2.85692 0.895571 0
M  V30 3406 H 341.965 -1.37364 0.432109 0
M  V30 3407 H 343.918 -4.02675 -1.24221 0
M  V30 3408 H 342.642 -2.8404 -1.61211 0
M  V30 3409 H 341.301 -3.64813 0.361511 0
M  V30 3410 H 340.949 -4.65758 -1.89944 0
M  V30 3411 H 340.649 -5.84472 -0.605489 0
M  V30 3412 H 342.173 -5.90974 -1.53565 0
M  V30 3413 H 343.587 -5.68699 0.724841 0
M  V30 3414 H 341.984 -5.8088 1.50659 0
M  V30 3415 H 343.054 -4.45525 1.91404 0
M  V30 3416 N 344.397 -0.483516 -1.5 0
M  V30 3417 C 345.674 0.129337 -1.95172 0
M  V30 3418 C 346.054 1.55802 -1.4244 0
M  V30 3419 O 345.402 2.19625 -0.630649 0
M  V30 3420 C 345.612 0.0599251 -3.48949 0
M  V30 3421 C 346.96 0.242617 -4.23906 0
M  V30 3422 O 347.984 0.135933 -3.55941 0
M  V30 3423 O 346.843 0.459454 -5.44565 0
M  V30 3424 H 343.937 0.104887 -0.820322 0
M  V30 3425 H 346.483 -0.544807 -1.60717 0
M  V30 3426 H 345.255 -0.937079 -3.79914 0
M  V30 3427 H 344.878 0.774984 -3.89974 0
M  V30 3428 N 345.875 1.56104 -0.216619 0
M  V30 3429 C 347.291 1.58995 0.13886 0
M  V30 3430 C 347.491 1.23333 1.59346 0
M  V30 3431 O 346.547 0.966234 2.33281 0
M  V30 3432 C 347.86 3.00143 -0.182968 0
M  V30 3433 C 349.408 3.12751 -0.124807 0
M  V30 3434 C 349.883 4.56068 -0.420241 0
M  V30 3435 N 351.374 4.61723 -0.369634 0
M  V30 3436 C 352.109 5.70542 -0.571789 0
M  V30 3437 N 351.605 6.87744 -0.835453 0
M  V30 3438 N 353.398 5.59831 -0.504563 0
M  V30 3439 H 345.549 1.77562 -1.16557 0
M  V30 3440 H 347.812 0.825091 -0.466828 0
M  V30 3441 H 347.518 3.30871 -1.19237 0
M  V30 3442 H 347.392 3.73813 0.504367 0
M  V30 3443 H 349.779 2.81822 0.875223 0
M  V30 3444 H 349.86 2.41421 -0.845544 0
M  V30 3445 H 349.504 4.87713 -1.41769 0
M  V30 3446 H 349.434 5.25617 0.321631 0
M  V30 3447 H 351.925 3.77502 -0.173338 0
M  V30 3448 H 352.238 7.66587 -0.977938 0
M  V30 3449 H 350.583 6.895 -0.872592 0
M  V30 3450 H 353.774 4.67145 -0.298842 0
M  V30 3451 H 353.947 6.44573 -0.665519 0
M  V30 3452 N 347.353 -0.0568162 1.57498 0
M  V30 3453 C 348.578 -0.769402 1.92601 0
M  V30 3454 C 349.003 -1.69559 0.814336 0
M  V30 3455 O 348.361 -1.79811 -0.231903 0
M  V30 3456 C 348.409 -1.52634 3.26704 0
M  V30 3457 O 347.513 -2.63797 3.16994 0
M  V30 3458 H 346.854 -0.208909 0.63028 0
M  V30 3459 H 349.384 -0.0205798 2.0459 0
M  V30 3460 H 349.394 -1.90234 3.60936 0
M  V30 3461 H 348.069 -0.846875 4.07186 0
M  V30 3462 H 346.646 -2.28943 2.94346 0
M  V30 3463 N 348.832 -1.54138 -0.328536 0
M  V30 3464 C 349.764 -1.79509 -1.4251 0
M  V30 3465 C 350.777 -0.67688 -1.48061 0
M  V30 3466 O 351.966 -0.953898 -1.50874 0
M  V30 3467 C 349.066 -1.89337 -2.81078 0
M  V30 3468 C 348.239 -3.19443 -2.98789 0
M  V30 3469 C 347.298 -3.20036 -4.17688 0
M  V30 3470 O 346.324 -3.93697 -4.11086 0
M  V30 3471 N 347.526 -2.43467 -5.26976 0
M  V30 3472 H 350.291 -2.74139 -1.21111 0
M  V30 3473 H 347.852 -1.53373 -0.518499 0
M  V30 3474 H 349.844 -1.87167 -3.58818 0
M  V30 3475 H 348.414 -1.01826 -2.95551 0
M  V30 3476 H 347.634 -3.34614 -2.08391 0
M  V30 3477 H 348.922 -4.05354 -3.07515 0
M  V30 3478 H 348.32 -1.83201 -5.35214 0
M  V30 3479 H 346.877 -2.4708 -6.03154 0
M  V30 3480 N 350.31 0.590341 -1.46126 0
M  V30 3481 C 351.24 1.71032 -1.58966 0
M  V30 3482 C 352.221 1.64302 -0.440335 0
M  V30 3483 O 353.406 1.82436 -0.665634 0
M  V30 3484 C 350.536 3.09665 -1.57241 0
M  V30 3485 C 349.49 3.31221 -2.71066 0
M  V30 3486 C 348.816 4.70303 -2.54399 0
M  V30 3487 C 350.116 3.19796 -4.1295 0
M  V30 3488 H 351.81 1.60543 -2.52718 0
M  V30 3489 H 349.356 0.770933 -1.21625 0
M  V30 3490 H 351.309 3.87831 -1.64819 0
M  V30 3491 H 350.033 3.21036 -0.600289 0
M  V30 3492 H 348.692 2.55452 -2.62944 0
M  V30 3493 H 348.34 4.78429 -1.55288 0
M  V30 3494 H 348.04 4.85679 -3.30741 0
M  V30 3495 H 349.564 5.50647 -2.63857 0
M  V30 3496 H 350.978 3.87815 -4.22223 0
M  V30 3497 H 349.375 3.46696 -4.89818 0
M  V30 3498 H 350.445 2.16983 -4.33643 0
M  V30 3499 N 351.788 1.33704 0.83433 0
M  V30 3500 C 353.065 1.16011 1.57483 0
M  V30 3501 C 353.445 -0.27176 2.09343 0
M  V30 3502 O 352.793 -1.27146 1.89858 0
M  V30 3503 C 353.003 2.20507 2.70514 0
M  V30 3504 C 354.351 2.54898 3.39577 0
M  V30 3505 O 355.375 2.19209 2.80759 0
M  V30 3506 O 354.234 3.16158 4.45765 0
M  V30 3507 H 351.328 0.448992 0.694503 0
M  V30 3508 H 353.874 1.453 0.876691 0
M  V30 3509 H 352.646 3.16667 2.29865 0
M  V30 3510 H 352.269 1.92329 3.47987 0
M  V30 3511 N 353.266 -1.05314 1.17247 0
M  V30 3512 C 354.512 -1.78699 0.971513 0
M  V30 3513 C 354.867 -1.85932 -0.494692 0
M  V30 3514 O 354.16 -1.34716 -1.36243 0
M  V30 3515 C 354.354 -3.2229 1.54479 0
M  V30 3516 C 354.183 -3.29052 3.06521 0
M  V30 3517 C 352.953 -3.3841 3.75242 0
M  V30 3518 C 355.151 -3.18095 4.04129 0
M  V30 3519 N 353.133 -3.34289 5.14902 0
M  V30 3520 C 354.504 -3.21331 5.30232 0
M  V30 3521 C 356.559 -3.02049 3.95817 0
M  V30 3522 C 355.262 -3.10169 6.4899 0
M  V30 3523 C 357.288 -2.92228 5.14156 0
M  V30 3524 C 356.65 -2.96096 6.39145 0
M  V30 3525 H 352.749 -0.66628 0.409383 0
M  V30 3526 H 355.333 -1.25553 1.4881 0
M  V30 3527 H 353.504 -3.7381 1.05455 0
M  V30 3528 H 355.236 -3.83905 1.28059 0
M  V30 3529 H 351.991 -3.43621 3.25917 0
M  V30 3530 H 352.415 -3.35702 5.87906 0
M  V30 3531 H 357.057 -2.97897 3.00029 0
M  V30 3532 H 354.775 -3.13076 7.44989 0
M  V30 3533 H 358.361 -2.80885 5.09505 0
M  V30 3534 H 357.241 -2.88568 7.29176 0
M  V30 3535 N 354.744 -0.972509 -1.24016 0
M  V30 3536 C 355.674 -0.525548 -2.27509 0
M  V30 3537 C 356.655 0.437262 -1.64384 0
M  V30 3538 O 357.84 0.332343 -1.91335 0
M  V30 3539 C 354.97 0.180448 -3.46831 0
M  V30 3540 C 353.924 -0.698859 -4.22256 0
M  V30 3541 C 353.25 0.138903 -5.3452 0
M  V30 3542 C 354.55 -1.98582 -4.83076 0
M  V30 3543 H 356.244 -1.39058 -2.65148 0
M  V30 3544 H 353.79 -0.67009 -1.27459 0
M  V30 3545 H 355.743 0.504387 -4.18371 0
M  V30 3546 H 354.467 1.07987 -3.08231 0
M  V30 3547 H 353.126 -1.00614 -3.52523 0
M  V30 3548 H 352.774 1.03862 -4.9216 0
M  V30 3549 H 352.474 -0.446259 -5.85903 0
M  V30 3550 H 353.998 0.457404 -6.08884 0
M  V30 3551 H 355.412 -1.72715 -5.46665 0
M  V30 3552 H 353.809 -2.5181 -5.44713 0
M  V30 3553 H 354.879 -2.67769 -4.04262 0
M  V30 3554 N 356.222 1.38976 -0.743202 0
M  V30 3555 C 357.468 2.0064 -0.295189 0
M  V30 3556 C 357.801 1.5885 1.11716 0
M  V30 3557 O 357.076 0.821181 1.76315 0
M  V30 3558 C 357.359 3.578 -0.406318 0
M  V30 3559 C 357.212 4.09586 -1.85903 0
M  V30 3560 C 358.531 4.39616 0.206439 0
M  V30 3561 H 355.65 0.728935 -0.108733 0
M  V30 3562 H 358.292 1.65067 -0.940897 0
M  V30 3563 H 356.442 3.88235 0.143419 0
M  V30 3564 H 358.114 3.89837 -2.46627 0
M  V30 3565 H 356.357 3.6284 -2.3776 0
M  V30 3566 H 357.028 5.18708 -1.888 0
M  V30 3567 H 359.504 4.15273 -0.262283 0
M  V30 3568 H 358.38 5.48812 0.0983819 0
M  V30 3569 H 358.641 4.22754 1.2935 0
M  V30 3570 N 357.7 0.491464 1.49741 0
M  V30 3571 C 359.111 0.0413169 1.86654 0
M  V30 3572 C 359.462 -1.36985 1.40462 0
M  V30 3573 O 358.587 -2.01917 0.778354 0
M  V30 3574 C 359.182 0.0682023 3.38731 0
M  V30 3575 C 357.741 -0.32656 3.74981 0
M  V30 3576 C 356.888 0.444888 2.73708 0
M  V30 3577 H 359.839 0.704733 1.42194 0
M  V30 3578 H 359.86 -0.729322 3.73445 0
M  V30 3579 H 359.372 1.09539 3.72321 0
M  V30 3580 H 357.473 -1.35734 3.46997 0
M  V30 3581 H 357.586 -0.013741 4.79098 0
M  V30 3582 H 355.95 -0.104062 2.54487 0
M  V30 3583 H 356.733 1.47197 3.10142 0
M  V30 3584 N 359.178 -1.55987 0.224894 0
M  V30 3585 C 360.128 -2.17076 -0.697296 0
M  V30 3586 C 361.112 -1.12006 -1.15514 0
M  V30 3587 O 362.304 -1.37985 -1.10857 0
M  V30 3588 C 359.433 -2.85679 -1.90374 0
M  V30 3589 C 358.519 -3.97977 -1.46543 0
M  V30 3590 N 358.91 -5.00359 -0.739909 0
M  V30 3591 C 357.208 -4.10128 -1.75245 0
M  V30 3592 C 357.909 -5.79407 -0.515939 0
M  V30 3593 N 356.885 -5.32892 -1.07364 0
M  V30 3594 H 360.687 -2.93592 -0.134594 0
M  V30 3595 H 358.201 -1.62379 0.0262885 0
M  V30 3596 H 360.198 -3.27857 -2.57518 0
M  V30 3597 H 358.858 -2.1066 -2.47088 0
M  V30 3598 H 359.869 -5.16412 -0.392253 0
M  V30 3599 H 356.546 -3.46263 -2.33255 0
M  V30 3600 H 357.936 -6.71872 0.0617349 0
M  V30 3601 N 360.656 0.0484629 -1.57525 0
M  V30 3602 C 361.588 1.08222 -2.02041 0
M  V30 3603 C 362.601 1.33621 -0.930012 0
M  V30 3604 O 363.79 1.3145 -1.20761 0
M  V30 3605 C 360.89 2.42818 -2.36416 0
M  V30 3606 C 360.063 2.37049 -3.67596 0
M  V30 3607 C 359.122 3.53937 -3.89378 0
M  V30 3608 O 358.148 3.34308 -4.60681 0
M  V30 3609 N 359.35 4.75126 -3.3352 0
M  V30 3610 H 362.115 0.702946 -2.9134 0
M  V30 3611 H 359.676 0.236745 -1.6016 0
M  V30 3612 H 361.668 3.197 -2.48141 0
M  V30 3613 H 360.238 2.72661 -1.52888 0
M  V30 3614 H 359.458 1.45395 -3.66407 0
M  V30 3615 H 360.746 2.30318 -4.53686 0
M  V30 3616 H 360.144 4.93976 -2.75688 0
M  V30 3617 H 358.701 5.49439 -3.50656 0
M  V30 3618 N 362.134 1.5431 0.320358 0
M  V30 3619 C 363.097 1.83195 1.3774 0
M  V30 3620 C 364.097 0.703906 1.44575 0
M  V30 3621 O 365.287 0.972214 1.44546 0
M  V30 3622 C 362.419 1.99487 2.76438 0
M  V30 3623 H 363.612 2.77642 1.1338 0
M  V30 3624 H 361.165 1.46076 0.556012 0
M  V30 3625 H 361.9 1.07262 3.06048 0
M  V30 3626 H 361.685 2.81575 2.7287 0
M  V30 3627 H 363.175 2.23271 3.52902 0
M  V30 3628 N 363.613 -0.582584 1.46437 0
M  V30 3629 C 364.561 -1.71272 1.5738 0
M  V30 3630 C 365.555 -1.63524 0.44229 0
M  V30 3631 O 366.761 -1.69016 0.619166 0
M  V30 3632 H 363.136 -0.566273 0.494813 0
M  V30 3633 H 365.107 -1.59174 2.52401 0
M  V30 3634 C 363.856 -3.09658 1.58136 0
M  V30 3635 H 363.179 -3.16291 2.44541 0
M  V30 3636 H 364.619 -3.88494 1.69847 0
M  V30 3637 C 363.078 -3.3547 0.310026 0
M  V30 3638 O 363.608 -3.97199 -0.599683 0
M  V30 3639 N 361.814 -2.89925 0.197901 0
M  V30 3640 H 361.361 -2.39873 0.93909 0
M  V30 3641 H 361.319 -3.07568 -0.65185 0
M  V30 3642 N 365.091 -1.34144 -0.827227 0
M  V30 3643 C 366.021 -1.28005 -1.95287 0
M  V30 3644 C 367.002 -0.158321 -1.69362 0
M  V30 3645 O 368.187 -0.349987 -1.9102 0
M  V30 3646 C 365.317 -1.03036 -3.31664 0
M  V30 3647 C 364.271 -2.11628 -3.72019 0
M  V30 3648 C 363.597 -1.71854 -5.0633 0
M  V30 3649 C 364.897 -3.53417 -3.8457 0
M  V30 3650 H 366.591 -2.22187 -2.00682 0
M  V30 3651 H 364.137 -1.0696 -0.964135 0
M  V30 3652 H 366.09 -0.973863 -4.09993 0
M  V30 3653 H 364.814 -0.0529391 -3.26557 0
M  V30 3654 H 363.473 -2.16339 -2.95961 0
M  V30 3655 H 363.121 -0.727841 -4.97706 0
M  V30 3656 H 362.821 -2.44531 -5.34302 0
M  V30 3657 H 364.345 -1.67692 -5.87122 0
M  V30 3658 H 365.759 -3.51142 -4.5318 0
M  V30 3659 H 364.156 -4.24679 -4.2399 0
M  V30 3660 H 365.226 -3.91072 -2.86689 0
M  V30 3661 N 366.569 1.04691 -1.17803 0
M  V30 3662 C 367.985 1.29963 -0.926379 0
M  V30 3663 C 368.185 1.97251 0.411635 0
M  V30 3664 O 367.241 2.24922 1.14744 0
M  V30 3665 C 368.554 2.16447 -2.08737 0
M  V30 3666 C 370.102 2.29814 -2.12496 0
M  V30 3667 C 370.577 3.19661 -3.27995 0
M  V30 3668 N 372.068 3.27247 -3.27816 0
M  V30 3669 C 372.803 3.96906 -4.13827 0
M  V30 3670 N 372.299 4.6895 -5.09959 0
M  V30 3671 N 374.092 3.93122 -4.01761 0
M  V30 3672 H 366.243 0.594182 -2.0392 0
M  V30 3673 H 368.506 0.324649 -0.890678 0
M  V30 3674 H 368.212 1.74304 -3.05469 0
M  V30 3675 H 368.086 3.17103 -2.04268 0
M  V30 3676 H 370.473 2.71196 -1.16347 0
M  V30 3677 H 370.554 1.2877 -2.21025 0
M  V30 3678 H 370.198 2.78991 -4.24413 0
M  V30 3679 H 370.128 4.20722 -3.16703 0
M  V30 3680 H 372.619 2.75921 -2.58217 0
M  V30 3681 H 372.932 5.19679 -5.71974 0
M  V30 3682 H 371.277 4.67875 -5.13924 0
M  V30 3683 H 374.468 3.35967 -3.2595 0
M  V30 3684 H 374.641 4.47139 -4.6901 0
M  V30 3685 N 368.047 0.979072 1.23499 0
M  V30 3686 C 369.296 0.642751 1.91185 0
M  V30 3687 C 369.609 -0.827253 1.77245 0
M  V30 3688 O 370.815 -1.27458 2.39722 0
M  V30 3689 C 369.271 1.09901 3.42709 0
M  V30 3690 C 368.879 2.59327 3.65313 0
M  V30 3691 C 370.623 0.836371 4.16179 0
M  V30 3692 C 368.53 2.98627 5.10467 0
M  V30 3693 H 367.46 0.236698 0.715884 0
M  V30 3694 H 370.111 1.1868 1.39955 0
M  V30 3695 H 368.493 0.48319 3.93041 0
M  V30 3696 H 369.667 3.26136 3.25533 0
M  V30 3697 H 367.982 2.83323 3.05151 0
M  V30 3698 H 370.579 1.10586 5.23139 0
M  V30 3699 H 370.922 -0.227509 4.15678 0
M  V30 3700 H 371.455 1.41371 3.71832 0
M  V30 3701 H 368.194 4.04133 5.16098 0
M  V30 3702 H 367.714 2.3651 5.51201 0
M  V30 3703 H 369.393 2.89159 5.78788 0
M  V30 3704 N 369.525 -1.3858 0.750561 0
M  V30 3705 C 370.774 -1.99424 0.302172 0
M  V30 3706 C 371.087 -1.60254 -1.12152 0
M  V30 3707 O 372.293 -2.14046 -1.67023 0
M  V30 3708 C 370.749 -3.56558 0.489307 0
M  V30 3709 C 370.357 -4.04682 1.92189 0
M  V30 3710 C 372.101 -4.24374 0.103478 0
M  V30 3711 C 370.008 -5.54446 2.05775 0
M  V30 3712 H 368.938 -0.746046 0.10923 0
M  V30 3713 H 371.589 -1.58383 0.92667 0
M  V30 3714 H 369.971 -3.95472 -0.204329 0
M  V30 3715 H 371.145 -3.77065 2.64875 0
M  V30 3716 H 369.46 -3.4958 2.26236 0
M  V30 3717 H 372.057 -5.34384 0.183787 0
M  V30 3718 H 372.4 -4.05468 -0.943481 0
M  V30 3719 H 372.933 -3.90688 0.748854 0
M  V30 3720 H 369.672 -5.78252 3.08714 0
M  V30 3721 H 369.192 -5.83816 1.37546 0
M  V30 3722 H 370.871 -6.20099 1.84626 0
M  V30 3723 N 371.003 -0.499398 -1.49478 0
M  V30 3724 C 372.228 0.044722 -2.07352 0
M  V30 3725 C 372.653 1.30207 -1.35749 0
M  V30 3726 O 372.011 1.76516 -0.413732 0
M  V30 3727 C 372.059 0.283013 -3.59488 0
M  V30 3728 O 371.163 1.35804 -3.89398 0
M  V30 3729 H 370.504 -0.0255147 -0.66351 0
M  V30 3730 H 373.034 -0.698561 -1.92305 0
M  V30 3731 H 373.044 0.515007 -4.04737 0
M  V30 3732 H 371.719 -0.635636 -4.11014 0
M  V30 3733 H 370.296 1.11113 -3.55961 0
M  V30 3734 N 372.481 1.55866 -0.233164 0
M  V30 3735 C 373.444 2.1953 0.658715 0
M  V30 3736 C 374.444 1.16053 1.11303 0
M  V30 3737 O 375.634 1.41218 1.01996 0
M  V30 3738 C 372.766 2.82791 1.90373 0
M  V30 3739 H 373.959 2.99721 0.10347 0
M  V30 3740 H 371.512 1.56291 0.0164245 0
M  V30 3741 H 372.247 2.06501 2.50056 0
M  V30 3742 H 372.032 3.58578 1.58632 0
M  V30 3743 H 373.522 3.31556 2.53891 0
M  V30 3744 N 373.959 -0.0401083 1.57549 0
M  V30 3745 C 375.187 -0.745196 1.93014 0
M  V30 3746 C 375.602 -1.6948 0.831984 0
M  V30 3747 O 374.959 -1.81482 -0.192463 0
M  V30 3748 C 375.01 -1.51176 3.28372 0
M  V30 3749 O 374.731 -0.600284 4.33968 0
M  V30 3750 C 376.232 -2.315 3.78051 0
M  V30 3751 H 373.452 -0.210088 0.637263 0
M  V30 3752 H 375.996 -0.000924689 2.045 0
M  V30 3753 H 374.151 -2.20801 3.18317 0
M  V30 3754 H 374.565 -1.13669 5.12035 0
M  V30 3755 H 376.039 -2.80697 4.75303 0
M  V30 3756 H 376.516 -3.12436 3.08675 0
M  V30 3757 H 377.122 -1.66971 3.91153 0
M  V30 3758 N 375.437 -1.54477 -0.31217 0
M  V30 3759 C 376.4 -1.83923 -1.36766 0
M  V30 3760 C 377.4 -0.711563 -1.44199 0
M  V30 3761 O 378.59 -0.979866 -1.44029 0
M  V30 3762 C 375.722 -2.0095 -2.75376 0
M  V30 3763 H 376.915 -2.78239 -1.11906 0
M  V30 3764 H 374.468 -1.46369 -0.548257 0
M  V30 3765 H 375.203 -1.08883 -3.05475 0
M  V30 3766 H 374.988 -2.83018 -2.71373 0
M  V30 3767 H 376.478 -2.2514 -3.51713 0
M  V30 3768 N 376.915 0.57481 -1.46744 0
M  V30 3769 C 377.862 1.68329 -1.57905 0
M  V30 3770 C 378.832 1.60625 -0.422927 0
M  V30 3771 O 380.017 1.79721 -0.640711 0
M  V30 3772 C 377.157 3.06665 -1.58274 0
M  V30 3773 C 376.27 3.24935 -2.84678 0
M  V30 3774 C 375.405 4.53566 -2.76499 0
M  V30 3775 C 374.444 4.65207 -3.97806 0
M  V30 3776 N 373.581 5.85172 -3.87967 0
M  V30 3777 H 378.421 1.58127 -2.52587 0
M  V30 3778 H 375.958 0.770552 -1.25303 0
M  V30 3779 H 377.916 3.86745 -1.56473 0
M  V30 3780 H 376.546 3.15745 -0.671194 0
M  V30 3781 H 375.598 2.38405 -2.96424 0
M  V30 3782 H 376.91 3.29403 -3.7456 0
M  V30 3783 H 376.064 5.41885 -2.72848 0
M  V30 3784 H 374.803 4.51548 -1.8427 0
M  V30 3785 H 373.808 3.75304 -4.0178 0
M  V30 3786 H 375.033 4.68997 -4.9114 0
M  V30 3787 H 372.979 5.84137 -2.98529 0
M  V30 3788 H 372.896 5.90943 -4.71511 0
M  V30 3789 H 374.164 6.759 -3.88303 0
M  V30 3790 N 378.394 1.34581 0.820102 0
M  V30 3791 C 379.341 1.2639 1.93117 0
M  V30 3792 C 380.311 0.138554 1.65521 0
M  V30 3793 O 381.496 0.320004 1.88097 0
M  V30 3794 C 378.636 1.02812 3.29429 0
M  V30 3795 C 377.749 2.24146 3.693 0
M  V30 3796 C 376.884 1.93829 4.94574 0
M  V30 3797 C 375.923 3.1129 5.27034 0
M  V30 3798 N 375.06 2.80838 6.43486 0
M  V30 3799 H 379.9 2.21408 1.99455 0
M  V30 3800 H 377.437 1.10077 0.975784 0
M  V30 3801 H 379.395 0.871788 4.0799 0
M  V30 3802 H 378.025 0.114612 3.22596 0
M  V30 3803 H 377.077 2.50691 2.86109 0
M  V30 3804 H 378.389 3.11899 3.89257 0
M  V30 3805 H 377.543 1.74948 5.80929 0
M  V30 3806 H 376.282 1.03341 4.76626 0
M  V30 3807 H 375.287 3.30764 4.39175 0
M  V30 3808 H 376.512 4.02561 5.4692 0
M  V30 3809 H 374.458 1.92929 6.26988 0
M  V30 3810 H 374.375 3.62123 6.63629 0
M  V30 3811 H 375.643 2.65467 7.32903 0
M  V30 3812 N 379.872 -1.04064 1.18357 0
M  V30 3813 C 380.802 -2.14001 0.934113 0
M  V30 3814 C 381.783 -1.69616 -0.128186 0
M  V30 3815 O 382.968 -1.94185 0.0244093 0
M  V30 3816 C 380.098 -3.44253 0.459066 0
M  V30 3817 C 379.052 -4.02261 1.46185 0
M  V30 3818 C 378.378 -5.27992 0.844322 0
M  V30 3819 C 379.678 -4.38432 2.83856 0
M  V30 3820 H 381.372 -2.35127 1.85352 0
M  V30 3821 H 378.918 -1.12998 0.892604 0
M  V30 3822 H 380.871 -4.20522 0.271907 0
M  V30 3823 H 379.595 -3.22813 -0.495912 0
M  V30 3824 H 378.254 -3.28074 1.63595 0
M  V30 3825 H 377.902 -5.02862 -0.117845 0
M  V30 3826 H 377.602 -5.67765 1.51384 0
M  V30 3827 H 379.126 -6.06938 0.667693 0
M  V30 3828 H 380.54 -5.05688 2.70098 0
M  V30 3829 H 378.937 -4.89254 3.47491 0
M  V30 3830 H 380.007 -3.4826 3.37406 0
M  V30 3831 N 381.35 -0.985608 -1.22978 0
M  V30 3832 C 382.598 -0.656087 -1.91154 0
M  V30 3833 C 382.919 0.813561 -1.77218 0
M  V30 3834 O 382.189 1.58244 -1.1548 0
M  V30 3835 H 380.769 -0.239674 -0.707506 0
M  V30 3836 H 383.431 -1.25054 -1.49491 0
M  V30 3837 H 382.527 -0.912253 -2.9847 0
M  V30 3838 N 382.828 1.3818 -0.7579 0
M  V30 3839 C 383.761 2.28055 -0.0814093 0
M  V30 3840 C 384.739 1.45603 0.723779 0
M  V30 3841 O 385.923 1.74961 0.701491 0
M  V30 3842 C 383.05 3.2676 0.891394 0
M  V30 3843 C 382.096 4.26153 0.171909 0
M  V30 3844 S 382.929 5.23434 -1.13035 0
M  V30 3845 C 384.085 6.25694 -0.160727 0
M  V30 3846 H 384.318 2.85082 -0.84353 0
M  V30 3847 H 381.851 1.44246 -0.550671 0
M  V30 3848 H 383.809 3.8414 1.44731 0
M  V30 3849 H 382.47 2.68706 1.62652 0
M  V30 3850 H 381.663 4.95738 0.908843 0
M  V30 3851 H 381.265 3.72691 -0.312606 0
M  V30 3852 H 383.557 6.74161 0.671773 0
M  V30 3853 H 384.5 7.03285 -0.824353 0
M  V30 3854 H 384.908 5.64064 0.221892 0
M  V30 3855 N 384.306 0.507319 1.49211 0
M  V30 3856 C 385.531 -0.033725 2.07373 0
M  V30 3857 C 385.956 -1.29485 1.36437 0
M  V30 3858 O 385.314 -1.76294 0.423087 0
M  V30 3859 C 385.362 -0.263945 3.59633 0
M  V30 3860 O 384.466 -1.33737 3.90113 0
M  V30 3861 H 383.807 0.0290331 0.663365 0
M  V30 3862 H 386.337 0.708749 1.91932 0
M  V30 3863 H 386.347 -0.493536 4.05004 0
M  V30 3864 H 385.022 0.657424 4.10671 0
M  V30 3865 H 383.599 -1.09224 3.56545 0
M  V30 3866 N 385.784 -1.5574 0.241426 0
M  V30 3867 C 386.717 -2.17168 -0.700935 0
M  V30 3868 C 387.695 -1.12206 -1.1768 0
M  V30 3869 O 388.879 -1.40565 -1.25593 0
M  V30 3870 C 386.006 -2.76796 -1.95196 0
M  V30 3871 C 385.052 -3.94764 -1.61442 0
M  V30 3872 S 385.885 -5.30613 -0.72182 0
M  V30 3873 C 387.041 -5.93691 -1.98197 0
M  V30 3874 H 387.274 -2.96761 -0.178882 0
M  V30 3875 H 384.807 -1.54378 0.0259299 0
M  V30 3876 H 386.765 -3.11787 -2.67019 0
M  V30 3877 H 385.426 -1.9716 -2.44514 0
M  V30 3878 H 384.619 -4.35057 -2.54443 0
M  V30 3879 H 384.221 -3.61022 -0.976672 0
M  V30 3880 H 386.513 -6.10874 -2.92983 0
M  V30 3881 H 387.456 -6.89258 -1.62262 0
M  V30 3882 H 387.864 -5.22709 -2.13156 0
M  V30 3883 N 387.262 0.0317525 -1.57568 0
M  V30 3884 C 388.539 0.758366 -1.803 0
M  V30 3885 C 388.919 1.93718 -0.838845 0
M  V30 3886 O 388.267 2.28187 0.119571 0
M  V30 3887 C 388.477 1.19392 -3.27943 0
M  V30 3888 C 389.825 1.61094 -3.92854 0
M  V30 3889 O 390.849 1.28857 -3.32076 0
M  V30 3890 O 389.708 2.20918 -4.99858 0
M  V30 3891 H 386.802 0.366514 -0.741348 0
M  V30 3892 H 389.348 0.00873765 -1.69698 0
M  V30 3893 H 388.12 0.352275 -3.89711 0
M  V30 3894 H 387.743 2.00365 -3.43424 0
M  V30 3895 N 388.74 1.54641 0.303973 0
M  V30 3896 C 389.688 1.86137 1.39484 0
M  V30 3897 C 390.682 0.734854 1.52631 0
M  V30 3898 O 391.888 0.918803 1.54784 0
M  V30 3899 H 388.263 0.590324 0.465856 0
M  V30 3900 H 390.234 2.77324 1.10154 0
M  V30 3901 C 388.983 2.12274 2.75382 0
M  V30 3902 H 388.306 2.98429 2.66046 0
M  V30 3903 H 389.746 2.38254 3.5073 0
M  V30 3904 C 388.205 0.920365 3.24085 0
M  V30 3905 O 388.735 0.139377 4.01458 0
M  V30 3906 N 386.941 0.726566 2.81371 0
M  V30 3907 H 386.488 1.36332 2.18567 0
M  V30 3908 H 386.446 -0.0763799 3.14307 0
M  V30 3909 N 390.218 -0.567019 1.47046 0
M  V30 3910 C 391.464 -1.32658 1.53394 0
M  V30 3911 C 391.797 -1.93254 0.19148 0
M  V30 3912 O 391.072 -1.77338 -0.798844 0
M  V30 3913 C 391.355 -2.44412 2.64452 0
M  V30 3914 C 391.208 -1.88749 4.08282 0
M  V30 3915 C 392.527 -3.46387 2.71485 0
M  V30 3916 H 389.646 -0.48098 0.558415 0
M  V30 3917 H 392.288 -0.635481 1.79058 0
M  V30 3918 H 390.438 -3.03363 2.427 0
M  V30 3919 H 392.11 -1.34134 4.41368 0
M  V30 3920 H 390.353 -1.19481 4.17021 0
M  V30 3921 H 391.024 -2.69491 4.81745 0
M  V30 3922 H 393.5 -2.9734 2.91081 0
M  V30 3923 H 392.376 -4.2202 3.50985 0
M  V30 3924 H 392.637 -4.04616 1.78153 0
M  V30 3925 N 391.696 -1.35014 -0.812953 0
M  V30 3926 C 392.942 -1.2812 -1.57204 0
M  V30 3927 C 393.275 0.145869 -1.93651 0
M  V30 3928 O 392.55 1.0937 -1.60836 0
M  V30 3929 C 392.833 -2.18162 -2.86492 0
M  V30 3930 C 392.686 -3.69454 -2.56561 0
M  V30 3931 C 394.005 -2.07439 -3.88145 0
M  V30 3932 H 391.124 -0.466746 -0.570366 0
M  V30 3933 H 393.766 -1.65357 -0.935783 0
M  V30 3934 H 391.916 -1.86535 -3.40789 0
M  V30 3935 H 393.588 -4.11493 -2.08497 0
M  V30 3936 H 391.831 -3.9005 -1.89851 0
M  V30 3937 H 392.502 -4.27835 -3.48799 0
M  V30 3938 H 394.978 -2.35228 -3.4323 0
M  V30 3939 H 393.854 -2.7265 -4.76396 0
M  V30 3940 H 394.115 -1.05439 -4.29343 0
M  V30 3941 N 393.175 1.03435 -1.18907 0
M  V30 3942 C 394.421 1.77005 -0.989798 0
M  V30 3943 C 394.754 1.88205 0.478816 0
M  V30 3944 O 394.029 1.39481 1.35556 0
M  V30 3945 C 394.312 3.19925 -1.65287 0
M  V30 3946 C 394.165 3.1663 -3.19477 0
M  V30 3947 C 395.484 4.18189 -1.37134 0
M  V30 3948 H 392.603 0.642538 -0.360991 0
M  V30 3949 H 395.245 1.20784 -1.46667 0
M  V30 3950 H 393.395 3.67929 -1.24741 0
M  V30 3951 H 395.067 2.76567 -3.692 0
M  V30 3952 H 393.31 2.54491 -3.51307 0
M  V30 3953 H 393.981 4.1758 -3.61013 0
M  V30 3954 H 396.457 3.78761 -1.72276 0
M  V30 3955 H 395.333 5.16394 -1.86087 0
M  V30 3956 H 395.594 4.41112 -0.295424 0
M  V30 3957 N 394.653 0.992116 1.22453 0
M  V30 3958 C 395.881 0.685944 1.95198 0
M  V30 3959 C 396.296 -0.749233 1.73297 0
M  V30 3960 O 395.653 -1.50549 1.03156 0
M  V30 3961 C 395.704 0.981395 3.47924 0
M  V30 3962 O 395.425 2.36018 3.6909 0
M  V30 3963 C 396.926 0.692815 4.37853 0
M  V30 3964 H 394.146 0.253821 0.621141 0
M  V30 3965 H 396.69 1.32668 1.55626 0
M  V30 3966 H 394.845 0.386481 3.85467 0
M  V30 3967 H 395.259 2.45884 4.63294 0
M  V30 3968 H 396.733 0.949818 5.43767 0
M  V30 3969 H 397.21 -0.373181 4.37612 0
M  V30 3970 H 397.816 1.26874 4.05935 0
M  V30 3971 N 396.131 -1.37776 0.765217 0
M  V30 3972 C 397.061 -2.32945 0.160953 0
M  V30 3973 C 398.042 -1.55454 -0.690516 0
M  V30 3974 O 399.227 -1.83721 -0.629318 0
M  V30 3975 C 396.357 -3.39669 -0.724031 0
M  V30 3976 C 395.311 -4.27992 0.0256173 0
M  V30 3977 C 394.637 -5.25673 -0.978383 0
M  V30 3978 C 395.937 -5.08309 1.20082 0
M  V30 3979 H 397.631 -2.83728 0.955969 0
M  V30 3980 H 395.177 -1.36416 0.461149 0
M  V30 3981 H 397.13 -4.05219 -1.15652 0
M  V30 3982 H 395.854 -2.87396 -1.5515 0
M  V30 3983 H 394.513 -3.63964 0.438812 0
M  V30 3984 H 394.161 -4.69682 -1.80022 0
M  V30 3985 H 393.861 -5.85625 -0.481378 0
M  V30 3986 H 395.385 -5.94098 -1.40995 0
M  V30 3987 H 396.799 -5.67034 0.845307 0
M  V30 3988 H 395.196 -5.77554 1.62947 0
M  V30 3989 H 396.266 -4.41365 2.00811 0
M  V30 3990 N 397.609 -0.515225 -1.4894 0
M  V30 3991 C 398.886 0.0879088 -1.95402 0
M  V30 3992 C 399.266 1.52745 -1.45712 0
M  V30 3993 O 398.614 2.18238 -0.677093 0
M  V30 3994 C 398.824 -0.0141055 -3.48997 0
M  V30 3995 C 400.172 0.152646 -4.24326 0
M  V30 3996 O 401.196 0.0604025 -3.56149 0
M  V30 3997 O 400.055 0.34384 -5.45417 0
M  V30 3998 H 397.149 0.0874636 -0.822362 0
M  V30 3999 H 399.695 -0.578775 -1.59525 0
M  V30 4000 H 398.467 -1.01745 -3.77841 0
M  V30 4001 H 398.09 0.692091 -3.9153 0
M  V30 4002 N 399.087 1.5561 -0.249682 0
M  V30 4003 C 400.503 1.59254 0.105103 0
M  V30 4004 C 400.703 1.26685 1.56694 0
M  V30 4005 O 399.759 1.0155 2.31179 0
M  V30 4006 C 401.072 2.99687 -0.246592 0
M  V30 4007 C 402.62 3.12416 -0.191118 0
M  V30 4008 C 403.095 4.55074 -0.516885 0
M  V30 4009 N 404.586 4.60835 -0.467489 0
M  V30 4010 C 405.321 5.69201 -0.69268 0
M  V30 4011 N 404.817 6.85817 -0.981146 0
M  V30 4012 N 406.61 5.58635 -0.623198 0
M  V30 4013 H 398.761 1.75049 -1.20298 0
M  V30 4014 H 401.024 0.815003 -0.484225 0
M  V30 4015 H 400.73 3.28267 -1.26228 0
M  V30 4016 H 400.604 3.74798 0.424962 0
M  V30 4017 H 402.991 2.83615 0.815247 0
M  V30 4018 H 403.072 2.39573 -0.896563 0
M  V30 4019 H 402.716 4.84596 -1.52082 0
M  V30 4020 H 402.646 5.26181 0.210068 0
M  V30 4021 H 405.137 3.7705 -0.253373 0
M  V30 4022 H 405.45 7.64341 -1.14032 0
M  V30 4023 H 403.795 6.87494 -1.01865 0
M  V30 4024 H 406.986 4.66406 -0.397863 0
M  V30 4025 H 407.159 6.43017 -0.802093 0
M  V30 4026 N 400.565 -0.0233959 1.57583 0
M  V30 4027 C 401.515 -1.03023 2.03397 0
M  V30 4028 C 402.499 -1.31701 0.924315 0
M  V30 4029 O 403.691 -1.31191 1.18819 0
M  V30 4030 C 400.82 -2.32961 2.52159 0
M  V30 4031 C 399.906 -2.07349 3.69956 0
M  V30 4032 N 400.297 -1.51814 4.82479 0
M  V30 4033 C 398.595 -2.37606 3.77438 0
M  V30 4034 C 399.296 -1.42136 5.64068 0
M  V30 4035 N 398.272 -1.89891 5.09355 0
M  V30 4036 H 402.074 -0.594962 2.87815 0
M  V30 4037 H 399.588 -0.229586 1.60769 0
M  V30 4038 H 401.585 -3.05906 2.83244 0
M  V30 4039 H 400.245 -2.77162 1.69149 0
M  V30 4040 H 401.256 -1.20008 5.03804 0
M  V30 4041 H 397.933 -2.84842 3.05239 0
M  V30 4042 H 399.323 -0.996405 6.64471 0
M  V30 4043 N 402.043 -1.548 -0.295768 0
M  V30 4044 C 403.291 -1.73985 -1.02828 0
M  V30 4045 C 403.612 -0.531406 -1.87619 0
M  V30 4046 O 402.882 0.454221 -1.90561 0
M  V30 4047 H 401.462 -0.641556 -0.382642 0
M  V30 4048 H 404.124 -1.92163 -0.325489 0
M  V30 4049 H 403.22 -2.63129 -1.67838 0
M  V30 4050 N 403.521 0.559213 -1.47345 0
M  V30 4051 C 404.469 1.68747 -1.60085 0
M  V30 4052 C 405.463 1.628 -0.46825 0
M  V30 4053 O 406.669 1.68009 -0.645977 0
M  V30 4054 H 403.044 0.558329 -0.503759 0
M  V30 4055 H 405.015 1.55138 -2.54902 0
M  V30 4056 C 403.764 3.07103 -1.63042 0
M  V30 4057 H 403.087 3.12361 -2.49541 0
M  V30 4058 H 404.527 3.85743 -1.76006 0
M  V30 4059 C 402.986 3.34935 -0.363357 0
M  V30 4060 O 403.516 3.98102 0.536416 0
M  V30 4061 N 401.722 2.89574 -0.244 0
M  V30 4062 H 401.269 2.38348 -0.977133 0
M  V30 4063 H 401.227 3.08566 0.602836 0
M  V30 4064 N 404.999 1.35443 0.805782 0
M  V30 4065 C 406.227 1.31878 1.59423 0
M  V30 4066 C 406.642 -0.103562 1.88516 0
M  V30 4067 O 405.999 -1.05575 1.48863 0
M  V30 4068 C 406.05 2.12426 2.92502 0
M  V30 4069 O 405.771 3.49115 2.6467 0
M  V30 4070 C 407.272 2.16455 3.86862 0
M  V30 4071 H 404.492 0.453002 0.495005 0
M  V30 4072 H 407.036 1.78309 1.00131 0
M  V30 4073 H 405.191 1.69593 3.48306 0
M  V30 4074 H 405.605 3.90957 3.49647 0
M  V30 4075 H 407.079 2.77204 4.77349 0
M  V30 4076 H 407.556 1.16352 4.23508 0
M  V30 4077 H 408.162 2.59453 3.36993 0
M  V30 4078 N 406.477 -1.02803 1.19454 0
M  V30 4079 C 407.702 -1.80378 1.02364 0
M  V30 4080 C 408.127 -1.83282 -0.423007 0
M  V30 4081 O 407.485 -1.25945 -1.30413 0
M  V30 4082 C 407.533 -3.23248 1.59821 0
M  V30 4083 O 406.637 -4.04 0.828105 0
M  V30 4084 H 405.978 -0.556799 0.361761 0
M  V30 4085 H 408.508 -1.29385 1.58495 0
M  V30 4086 H 408.518 -3.73994 1.63073 0
M  V30 4087 H 407.193 -3.2045 2.65113 0
M  V30 4088 H 405.77 -3.62635 0.86891 0
M  V30 4089 N 407.956 -0.998596 -1.21925 0
M  V30 4090 C 408.919 -0.558679 -2.22287 0
M  V30 4091 C 409.919 0.361525 -1.56683 0
M  V30 4092 O 411.109 0.152695 -1.73529 0
M  V30 4093 C 408.241 0.18661 -3.40389 0
M  V30 4094 H 409.434 -1.4463 -2.62721 0
M  V30 4095 H 406.987 -0.786413 -1.35075 0
M  V30 4096 H 407.722 1.08996 -3.05435 0
M  V30 4097 H 407.507 -0.474188 -3.89222 0
M  V30 4098 H 408.997 0.482367 -4.14805 0
M  V30 4099 N 409.434 1.37368 -0.772513 0
M  V30 4100 C 410.397 2.28601 -0.165541 0
M  V30 4101 C 411.397 1.48062 0.627238 0
M  V30 4102 O 412.587 1.68268 0.450715 0
M  V30 4103 C 409.719 3.32023 0.772897 0
M  V30 4104 H 410.912 2.83787 -0.969787 0
M  V30 4105 H 408.465 1.46647 -0.540775 0
M  V30 4106 H 409.2 2.81962 1.60212 0
M  V30 4107 H 408.985 3.91555 0.206585 0
M  V30 4108 H 410.475 4.00197 1.19298 0
M  V30 4109 N 410.912 0.523116 1.48665 0
M  V30 4110 C 412.137 -0.0117284 2.07397 0
M  V30 4111 C 412.562 -1.28031 1.37803 0
M  V30 4112 O 411.92 -1.75836 0.441762 0
M  V30 4113 C 411.968 -0.225786 3.59892 0
M  V30 4114 O 411.072 -1.29592 3.91509 0
M  V30 4115 H 410.413 0.0360673 0.66302 0
M  V30 4116 H 412.943 0.729066 1.9117 0
M  V30 4117 H 412.953 -0.450552 4.05505 0
M  V30 4118 H 411.628 0.700944 4.09951 0
M  V30 4119 H 410.205 -1.05436 3.57684 0
M  V30 4120 N 412.39 -1.55475 0.257931 0
M  V30 4121 C 413.636 -1.99502 -0.364266 0
M  V30 4122 C 413.969 -1.146 -1.56782 0
M  V30 4123 O 413.244 -0.211968 -1.93342 0
M  V30 4124 C 413.527 -3.51917 -0.763333 0
M  V30 4125 C 413.38 -4.4758 0.446371 0
M  V30 4126 C 414.699 -4.09742 -1.60623 0
M  V30 4127 H 411.818 -0.725277 -0.130929 0
M  V30 4128 H 414.46 -1.8653 0.361446 0
M  V30 4129 H 412.61 -3.63101 -1.38166 0
M  V30 4130 H 414.282 -4.48362 1.08487 0
M  V30 4131 H 412.525 -4.19947 1.08753 0
M  V30 4132 H 413.196 -5.51862 0.123645 0
M  V30 4133 H 415.672 -4.01727 -1.08418 0
M  V30 4134 H 414.548 -5.16631 -1.85429 0
M  V30 4135 H 414.809 -3.58889 -2.58169 0
M  V30 4136 N 413.868 0.0150385 -1.57593 0
M  V30 4137 C 415.279 0.559832 -1.78109 0
M  V30 4138 C 415.63 1.74814 -0.890756 0
M  V30 4139 O 414.755 2.16216 -0.0892482 0
M  V30 4140 C 415.35 1.02238 -3.23006 0
M  V30 4141 C 413.909 1.51258 -3.44671 0
M  V30 4142 C 413.056 0.456955 -2.73509 0
M  V30 4143 H 416.007 -0.211169 -1.57289 0
M  V30 4144 H 416.028 1.88912 -3.30292 0
M  V30 4145 H 415.54 0.157302 -3.87781 0
M  V30 4146 H 413.641 2.39905 -2.8509 0
M  V30 4147 H 413.754 1.55042 -4.5332 0
M  V30 4148 H 412.118 0.915196 -2.37689 0
M  V30 4149 H 412.901 -0.398896 -3.40975 0
M  V30 4150 N 415.346 1.54954 0.287554 0
M  V30 4151 C 416.586 1.76617 1.02887 0
M  V30 4152 C 416.95 0.547759 1.84021 0
M  V30 4153 O 418.151 0.642365 2.61012 0
M  V30 4154 C 416.422 3.02717 1.89993 0
M  V30 4155 S 417.981 3.45438 2.70588 0
M  V30 4156 H 414.799 0.6207 0.346775 0
M  V30 4157 H 417.401 1.93172 0.30082 0
M  V30 4158 H 416.105 3.89503 1.29287 0
M  V30 4159 H 415.636 2.88787 2.67144 0
M  V30 4160 H 417.651 3.03566 3.92508 0
M  V30 4161 N 416.824 -0.551391 1.4764 0
M  V30 4162 C 417.787 -1.64007 1.60107 0
M  V30 4163 C 418.787 -1.53601 0.47576 0
M  V30 4164 O 419.977 -1.57655 0.740988 0
M  V30 4165 C 417.109 -3.03569 1.55108 0
M  V30 4166 H 418.302 -1.543 2.57161 0
M  V30 4167 H 415.855 -0.771776 1.35917 0
M  V30 4168 H 416.59 -3.18804 0.594519 0
M  V30 4169 H 416.375 -3.12532 2.36783 0
M  V30 4170 H 417.865 -3.82762 1.66982 0
M  V30 4171 N 418.302 -1.35869 -0.798587 0
M  V30 4172 C 419.232 -1.32118 -1.92528 0
M  V30 4173 C 420.213 -0.194209 -1.68988 0
M  V30 4174 O 421.398 -0.390426 -1.90235 0
M  V30 4175 C 418.528 -1.10047 -3.29404 0
M  V30 4176 C 417.482 -2.19471 -3.67446 0
M  V30 4177 C 416.808 -1.82555 -5.02571 0
M  V30 4178 C 418.108 -3.61495 -3.76987 0
M  V30 4179 H 419.802 -2.26394 -1.95924 0
M  V30 4180 H 417.348 -1.08981 -0.94123 0
M  V30 4181 H 419.301 -1.06061 -4.07835 0
M  V30 4182 H 418.025 -0.122195 -3.26371 0
M  V30 4183 H 416.684 -2.22568 -2.91306 0
M  V30 4184 H 416.332 -0.833249 -4.9605 0
M  V30 4185 H 416.032 -2.5581 -5.28995 0
M  V30 4186 H 417.556 -1.80108 -5.83432 0
M  V30 4187 H 418.97 -3.60676 -4.4563 0
M  V30 4188 H 417.367 -4.33577 -4.14887 0
M  V30 4189 H 418.437 -3.97065 -2.78329 0
M  V30 4190 N 419.78 1.02168 -1.19998 0
M  V30 4191 C 421.057 1.72816 -0.916191 0
M  V30 4192 C 421.437 2.03081 0.576325 0
M  V30 4193 O 420.785 1.69122 1.53656 0
M  V30 4194 C 420.995 2.9997 -1.78378 0
M  V30 4195 C 422.343 3.73336 -2.02251 0
M  V30 4196 O 423.367 3.09914 -1.75589 0
M  V30 4197 O 422.226 4.87371 -2.47249 0
M  V30 4198 H 419.32 0.752924 -0.342103 0
M  V30 4199 H 421.866 1.08062 -1.30846 0
M  V30 4200 H 420.638 2.73888 -2.79466 0
M  V30 4201 H 420.261 3.72464 -1.39126 0
M  V30 4202 N 421.258 1.00505 1.21394 0
M  V30 4203 C 422.168 0.574806 2.27449 0
M  V30 4204 C 423.184 -0.382206 1.6975 0
M  V30 4205 O 424.36 -0.246027 1.99892 0
M  V30 4206 C 421.425 -0.0917414 3.46579 0
M  V30 4207 C 420.486 0.909758 4.1955 0
M  V30 4208 C 419.719 0.274924 5.32991 0
M  V30 4209 O 419.942 -0.928254 5.62796 0
M  V30 4210 O 418.876 0.985877 5.93771 0
M  V30 4211 H 422.702 1.45744 2.66444 0
M  V30 4212 H 420.287 0.773923 1.27792 0
M  V30 4213 H 422.169 -0.464551 4.18832 0
M  V30 4214 H 420.844 -0.948755 3.09484 0
M  V30 4215 H 419.751 1.33372 3.49518 0
M  V30 4216 H 421.084 1.73636 4.60555 0
M  V30 4217 N 422.737 -1.36956 0.779787 0
M  V30 4218 C 423.7 -2.2851 0.177662 0
M  V30 4219 C 424.7 -1.48393 -0.619377 0
M  V30 4220 O 425.89 -1.68505 -0.441785 0
M  V30 4221 C 423.022 -3.32428 -0.755279 0
M  V30 4222 H 424.215 -2.83269 0.984823 0
M  V30 4223 H 421.768 -1.46358 0.548544 0
M  V30 4224 H 422.503 -2.82808 -1.58714 0
M  V30 4225 H 422.288 -3.91659 -0.185817 0
M  V30 4226 H 423.778 -4.00824 -1.17174 0
M  V30 4227 N 424.215 -0.530993 -1.48385 0
M  V30 4228 C 425.461 0.00274135 -2.028 0
M  V30 4229 C 425.794 1.33838 -1.40716 0
M  V30 4230 O 425.069 1.86465 -0.553277 0
M  V30 4231 C 425.352 0.123676 -3.59888 0
M  V30 4232 C 425.205 -1.2372 -4.3245 0
M  V30 4233 C 426.524 0.849967 -4.31814 0
M  V30 4234 H 423.643 -0.000477758 -0.737 0
M  V30 4235 H 426.285 -0.688217 -1.77098 0
M  V30 4236 H 424.435 0.712157 -3.81917 0
M  V30 4237 H 426.107 -1.86687 -4.21836 0
M  V30 4238 H 424.35 -1.81882 -3.93829 0
M  V30 4239 H 425.021 -1.10557 -5.40815 0
M  V30 4240 H 427.497 0.350572 -4.14621 0
M  V30 4241 H 426.373 0.903486 -5.41413 0
M  V30 4242 H 426.634 1.90047 -3.99167 0
M  V30 4243 N 425.693 1.55336 -0.266172 0
M  V30 4244 C 427.109 1.59356 0.0882065 0
M  V30 4245 C 427.309 1.2834 1.55342 0
M  V30 4246 O 426.365 1.03996 2.30089 0
M  V30 4247 C 427.678 2.99409 -0.278364 0
M  V30 4248 C 429.226 3.12196 -0.224243 0
M  V30 4249 C 429.701 4.545 -0.565123 0
M  V30 4250 N 431.192 4.60313 -0.51634 0
M  V30 4251 C 431.927 5.68434 -0.753013 0
M  V30 4252 N 431.423 6.84738 -1.05383 0
M  V30 4253 N 433.216 5.57942 -0.682414 0
M  V30 4254 H 425.367 1.73764 -1.22147 0
M  V30 4255 H 427.63 0.809822 -0.492841 0
M  V30 4256 H 427.336 3.2691 -1.29703 0
M  V30 4257 H 427.21 3.75228 0.385186 0
M  V30 4258 H 429.597 2.84464 0.78512 0
M  V30 4259 H 429.678 2.38609 -0.921922 0
M  V30 4260 H 429.322 4.82956 -1.57213 0
M  V30 4261 H 429.252 5.26374 0.154248 0
M  V30 4262 H 431.743 3.7676 -0.29335 0
M  V30 4263 H 432.056 7.63088 -1.22133 0
M  V30 4264 H 430.401 6.86375 -1.09151 0
M  V30 4265 H 433.592 4.65958 -0.44731 0
M  V30 4266 H 433.765 6.4213 -0.870248 0
M  V30 4267 N 427.171 -0.0066808 1.57599 0
M  V30 4268 C 428.448 -0.729586 1.81484 0
M  V30 4269 C 428.828 -1.92359 0.869558 0
M  V30 4270 O 428.176 -2.28348 -0.0832533 0
M  V30 4271 C 428.386 -1.1416 3.29801 0
M  V30 4272 C 429.734 -1.54823 3.95367 0
M  V30 4273 O 430.758 -1.23558 3.34084 0
M  V30 4274 O 429.617 -2.12937 5.03309 0
M  V30 4275 H 426.711 -0.354674 0.747085 0
M  V30 4276 H 429.257 0.0182609 1.6969 0
M  V30 4277 H 428.029 -0.290231 3.90222 0
M  V30 4278 H 427.652 -1.94876 3.46568 0
M  V30 4279 N 428.649 -1.55105 -0.279332 0
M  V30 4280 C 429.897 -1.75066 -1.00977 0
M  V30 4281 C 430.218 -0.551276 -1.87045 0
M  V30 4282 O 429.488 0.433984 -1.91032 0
M  V30 4283 H 428.068 -0.645578 -0.375816 0
M  V30 4284 H 430.73 -1.92497 -0.305089 0
M  V30 4285 H 429.826 -2.64894 -1.65038 0
M  V30 4286 N 430.127 0.543554 -1.4793 0
M  V30 4287 C 431.543 0.870806 -1.3375 0
M  V30 4288 C 431.743 1.9864 -0.338261 0
M  V30 4289 O 430.799 2.51305 0.245371 0
M  V30 4290 C 432.112 1.25114 -2.73435 0
M  V30 4291 C 433.66 1.3618 -2.81823 0
M  V30 4292 C 434.135 1.77563 -4.22179 0
M  V30 4293 N 435.626 1.8469 -4.24787 0
M  V30 4294 C 436.361 2.18067 -5.30315 0
M  V30 4295 N 435.857 2.49963 -6.46135 0
M  V30 4296 N 437.65 2.18958 -5.17701 0
M  V30 4297 H 429.801 -0.19275 -2.11524 0
M  V30 4298 H 432.064 -0.0235777 -0.947707 0
M  V30 4299 H 431.77 0.50514 -3.48053 0
M  V30 4300 H 431.644 2.20431 -3.06088 0
M  V30 4301 H 434.031 2.09859 -2.07468 0
M  V30 4302 H 434.112 0.390169 -2.52807 0
M  V30 4303 H 433.756 1.04449 -4.97044 0
M  V30 4304 H 433.686 2.75753 -4.48629 0
M  V30 4305 H 436.177 1.62372 -3.41239 0
M  V30 4306 H 436.49 2.74497 -7.22406 0
M  V30 4307 H 434.835 2.47513 -6.49432 0
M  V30 4308 H 438.026 1.93488 -4.2624 0
M  V30 4309 H 438.199 2.44639 -6.00047 0
M  V30 4310 N 431.605 1.3629 0.791371 0
M  V30 4311 C 432.854 1.29742 1.54434 0
M  V30 4312 C 433.167 -0.121729 1.95221 0
M  V30 4313 O 434.373 -0.309579 2.69729 0
M  V30 4314 C 432.829 2.27623 2.78776 0
M  V30 4315 C 432.437 3.74963 2.45166 0
M  V30 4316 C 434.181 2.30047 3.56761 0
M  V30 4317 C 432.088 4.64626 3.65891 0
M  V30 4318 H 431.018 0.482113 0.579727 0
M  V30 4319 H 433.669 1.61642 0.868565 0
M  V30 4320 H 432.051 1.88714 3.48142 0
M  V30 4321 H 433.225 4.22596 1.83709 0
M  V30 4322 H 431.54 3.75295 1.80396 0
M  V30 4323 H 434.137 2.94247 4.46456 0
M  V30 4324 H 434.48 1.30846 3.95203 0
M  V30 4325 H 435.013 2.67563 2.94372 0
M  V30 4326 H 431.752 5.64883 3.32547 0
M  V30 4327 H 431.272 4.2171 4.26521 0
M  V30 4328 H 432.951 4.80801 4.32943 0
M  V30 4329 N 433.083 -1.0153 1.20538 0
M  V30 4330 C 434.03 -2.10098 0.955383 0
M  V30 4331 C 435 -1.65702 -0.114878 0
M  V30 4332 O 436.185 -1.90776 0.0301118 0
M  V30 4333 C 433.325 -3.41236 0.514969 0
M  V30 4334 C 432.438 -3.99102 1.65353 0
M  V30 4335 C 431.573 -5.18306 1.16329 0
M  V30 4336 C 430.612 -5.68258 2.27485 0
M  V30 4337 N 429.749 -6.78722 1.7967 0
M  V30 4338 H 434.589 -2.30818 1.88486 0
M  V30 4339 H 432.126 -1.13189 0.939499 0
M  V30 4340 H 434.084 -4.16504 0.240935 0
M  V30 4341 H 432.714 -3.20585 -0.377512 0
M  V30 4342 H 431.766 -3.20918 2.04245 0
M  V30 4343 H 433.078 -4.32177 2.49047 0
M  V30 4344 H 432.232 -6.00782 0.845302 0
M  V30 4345 H 430.971 -4.86799 0.296254 0
M  V30 4346 H 429.976 -4.84385 2.60099 0
M  V30 4347 H 431.201 -6.01798 3.14667 0
M  V30 4348 H 429.147 -6.49042 0.95295 0
M  V30 4349 H 429.064 -7.10996 2.56944 0
M  V30 4350 H 430.332 -7.64759 1.50875 0
M  V30 4351 N 434.561 -1.01147 -1.20859 0
M  V30 4352 C 435.972 -0.730205 -1.71828 0
M  V30 4353 C 436.323 0.751662 -1.8123 0
M  V30 4354 O 435.448 1.58686 -1.47132 0
M  V30 4355 C 436.043 -1.31885 -3.12077 0
M  V30 4356 C 434.602 -1.08656 -3.60376 0
M  V30 4357 C 433.749 -1.42769 -2.37723 0
M  V30 4358 H 436.7 -1.18158 -1.05945 0
M  V30 4359 H 436.721 -0.706793 -3.73878 0
M  V30 4360 H 436.233 -2.39737 -3.05201 0
M  V30 4361 H 434.334 -0.0254814 -3.72591 0
M  V30 4362 H 434.447 -1.76301 -4.45483 0
M  V30 4363 H 432.811 -0.846603 -2.40218 0
M  V30 4364 H 433.594 -2.51666 -2.33493 0
M  V30 4365 N 436.039 1.36541 -0.78704 0
M  V30 4366 C 437.287 1.98911 -0.357633 0
M  V30 4367 C 437.608 1.62778 1.07371 0
M  V30 4368 O 436.878 0.900612 1.73971 0
M  V30 4369 H 435.458 0.735734 -0.129246 0
M  V30 4370 H 438.12 1.66776 -1.00855 0
M  V30 4371 H 437.216 3.08874 -0.447549 0
M  V30 4372 N 437.518 0.538854 1.48102 0
M  V30 4373 C 438.45 -0.256278 2.27763 0
M  V30 4374 C 439.463 -0.89633 1.35904 0
M  V30 4375 O 440.652 -0.773275 1.60881 0
M  V30 4376 C 437.752 -1.37896 3.09577 0
M  V30 4377 C 436.925 -0.839159 4.29275 0
M  V30 4378 C 435.984 -1.84405 4.9283 0
M  V30 4379 O 435.01 -1.39746 5.51779 0
M  V30 4380 N 436.212 -3.17666 4.85869 0
M  V30 4381 H 438.977 0.426968 2.96643 0
M  V30 4382 H 436.538 0.373747 1.57527 0
M  V30 4383 H 438.53 -2.04955 3.48963 0
M  V30 4384 H 437.1 -1.96572 2.4306 0
M  V30 4385 H 436.32 0.00769287 3.94199 0
M  V30 4386 H 437.608 -0.457548 5.06739 0
M  V30 4387 H 437.006 -3.56609 4.39143 0
M  V30 4388 H 435.563 -3.80334 5.29329 0
M  V30 4389 N 438.996 -1.55193 0.274407 0
M  V30 4390 C 439.926 -2.25471 -0.607032 0
M  V30 4391 C 440.907 -1.24461 -1.15946 0
M  V30 4392 O 442.092 -1.53179 -1.19373 0
M  V30 4393 C 439.222 -2.97526 -1.79153 0
M  V30 4394 C 438.176 -4.05459 -1.37067 0
M  V30 4395 C 437.502 -4.65084 -2.6382 0
M  V30 4396 C 438.802 -5.19691 -0.521389 0
M  V30 4397 H 440.496 -2.99393 -0.0209343 0
M  V30 4398 H 438.042 -1.43997 -0.00862866 0
M  V30 4399 H 439.995 -3.45402 -2.41404 0
M  V30 4400 H 438.719 -2.21138 -2.40344 0
M  V30 4401 H 437.378 -3.58393 -0.771355 0
M  V30 4402 H 437.026 -3.85365 -3.23268 0
M  V30 4403 H 436.726 -5.37961 -2.36372 0
M  V30 4404 H 438.25 -5.15708 -3.26921 0
M  V30 4405 H 439.664 -5.63623 -1.04889 0
M  V30 4406 H 438.061 -5.99126 -0.341825 0
M  V30 4407 H 439.131 -4.82713 0.46 0
M  V30 4408 N 440.474 -0.00167713 -1.576 0
M  V30 4409 C 441.72 0.683832 -1.90923 0
M  V30 4410 C 442.053 1.7333 -0.875799 0
M  V30 4411 O 441.328 1.94215 0.10525 0
M  V30 4412 C 441.611 1.32543 -3.3482 0
M  V30 4413 C 441.464 0.287387 -4.48881 0
M  V30 4414 C 442.783 2.25114 -3.78169 0
M  V30 4415 H 439.902 0.247125 -0.694333 0
M  V30 4416 H 442.544 -0.0533149 -1.89925 0
M  V30 4417 H 440.694 1.95372 -3.35801 0
M  V30 4418 H 442.366 -0.341346 -4.60035 0
M  V30 4419 H 440.609 -0.39017 -4.32042 0
M  V30 4420 H 441.28 0.775393 -5.46527 0
M  V30 4421 H 443.756 1.723 -3.7875 0
M  V30 4422 H 442.632 2.66971 -4.79602 0
M  V30 4423 H 442.893 3.13092 -3.12131 0
M  V30 4424 N 441.952 1.55251 0.271103 0
M  V30 4425 C 442.882 1.9127 1.33933 0
M  V30 4426 C 443.863 0.77478 1.5143 0
M  V30 4427 O 445.048 1.03307 1.64442 0
M  V30 4428 C 442.178 2.18627 2.69851 0
M  V30 4429 C 441.132 3.34442 2.67081 0
M  V30 4430 C 440.458 3.47284 4.06569 0
M  V30 4431 C 441.758 4.70784 2.26185 0
M  V30 4432 H 443.452 2.80744 1.04035 0
M  V30 4433 H 440.998 1.35077 0.499017 0
M  V30 4434 H 442.951 2.42413 3.44694 0
M  V30 4435 H 441.675 1.25955 3.01335 0
M  V30 4436 H 440.334 3.10627 1.94695 0
M  V30 4437 H 439.982 2.52074 4.35279 0
M  V30 4438 H 439.682 4.25152 4.0561 0
M  V30 4439 H 441.206 3.73363 4.83148 0
M  V30 4440 H 442.62 4.94102 2.90751 0
M  V30 4441 H 441.017 5.51582 2.36384 0
M  V30 4442 H 442.087 4.69478 1.21319 0
M  V30 4443 N 443.43 -0.535701 1.48216 0
M  V30 4444 C 444.36 -1.65014 1.65204 0
M  V30 4445 C 445.341 -1.62554 0.501011 0
M  V30 4446 O 446.526 -1.7984 0.732886 0
M  V30 4447 C 443.656 -3.03616 1.68626 0
M  V30 4448 C 442.61 -3.20932 2.83172 0
M  V30 4449 C 441.936 -4.60537 2.71679 0
M  V30 4450 C 443.236 -3.04249 4.24535 0
M  V30 4451 H 444.93 -1.51053 2.58502 0
M  V30 4452 H 442.476 -0.725262 1.24402 0
M  V30 4453 H 444.429 -3.81446 1.79099 0
M  V30 4454 H 443.153 -3.18587 0.719026 0
M  V30 4455 H 441.812 -2.45517 2.72244 0
M  V30 4456 H 441.46 -4.72336 1.72937 0
M  V30 4457 H 441.16 -4.73069 3.48538 0
M  V30 4458 H 442.684 -5.40475 2.84112 0
M  V30 4459 H 444.098 -3.71877 4.36326 0
M  V30 4460 H 442.495 -3.28278 5.02348 0
M  V30 4461 H 443.565 -2.00739 4.41397 0
M  V30 4462 N 444.908 -1.36708 -0.784132 0
M  V30 4463 C 445.818 -1.3363 -1.92822 0
M  V30 4464 C 446.834 -0.237686 -1.72369 0
M  V30 4465 O 448.01 -0.470962 -1.95816 0
M  V30 4466 C 445.075 -1.13011 -3.27764 0
M  V30 4467 C 444.136 -2.32397 -3.60957 0
M  V30 4468 C 443.369 -2.12752 -4.89461 0
M  V30 4469 O 443.592 -1.10541 -5.59586 0
M  V30 4470 O 442.526 -3.00653 -5.21432 0
M  V30 4471 H 446.352 -2.29964 -1.98369 0
M  V30 4472 H 443.937 -1.1731 -0.925136 0
M  V30 4473 H 445.819 -1.03451 -4.08504 0
M  V30 4474 H 444.494 -0.19743 -3.23097 0
M  V30 4475 H 443.401 -2.47527 -2.80502 0
M  V30 4476 H 444.734 -3.2419 -3.70354 0
M  V30 4477 N 446.386 1.0089 -1.21074 0
M  V30 4478 C 447.349 2.0775 -0.968129 0
M  V30 4479 C 448.349 1.6069 0.0593445 0
M  V30 4480 O 449.539 1.73293 -0.177525 0
M  V30 4481 C 446.671 3.37794 -0.459108 0
M  V30 4482 H 447.864 2.30707 -1.9161 0
M  V30 4483 H 445.417 1.17807 -1.02719 0
M  V30 4484 H 446.152 3.20516 0.49397 0
M  V30 4485 H 445.937 3.7328 -1.20019 0
M  V30 4486 H 447.427 4.16454 -0.309099 0
M  V30 4487 N 447.864 1.01787 1.20321 0
M  V30 4488 C 449.111 0.707936 1.89722 0
M  V30 4489 C 449.439 -0.762535 1.78929 0
M  V30 4490 O 448.694 -1.56977 1.16861 0
M  V30 4491 C 448.993 1.09076 3.40349 0
M  V30 4492 C 448.659 2.55765 3.71342 0
M  V30 4493 C 447.321 2.95845 3.79511 0
M  V30 4494 C 449.673 3.50723 3.85542 0
M  V30 4495 C 447.001 4.2982 3.99339 0
M  V30 4496 C 449.353 4.84387 4.06881 0
M  V30 4497 C 448.017 5.24172 4.1328 0
M  V30 4498 H 447.287 0.259052 0.694243 0
M  V30 4499 H 449.934 1.27868 1.42555 0
M  V30 4500 H 448.239 0.438453 3.89339 0
M  V30 4501 H 449.936 0.828636 3.92345 0
M  V30 4502 H 446.526 2.2371 3.65584 0
M  V30 4503 H 450.71 3.20916 3.78585 0
M  V30 4504 H 445.966 4.60196 4.02529 0
M  V30 4505 H 450.14 5.57891 4.1681 0
M  V30 4506 H 447.767 6.27997 4.28396 0
M  V30 4507 N 449.342 -1.36122 0.79427 0
M  V30 4508 C 450.59 -1.98718 0.368177 0
M  V30 4509 C 450.911 -1.63345 -1.06506 0
M  V30 4510 O 450.181 -0.909825 -1.73491 0
M  V30 4511 H 448.761 -0.735038 0.133146 0
M  V30 4512 H 451.423 -1.66239 1.01739 0
M  V30 4513 H 450.519 -3.08633 0.463923 0
M  V30 4514 N 450.82 -0.546701 -1.47814 0
M  V30 4515 C 452.068 -0.0187037 -2.02091 0
M  V30 4516 C 452.389 1.33168 -1.42447 0
M  V30 4517 O 451.659 1.86619 -0.595839 0
M  V30 4518 H 450.239 -0.00392531 -0.74699 0
M  V30 4519 H 452.901 -0.714327 -1.81338 0
M  V30 4520 H 451.997 0.0772219 -3.12004 0
M  V30 4521 N 452.299 1.55045 -0.282633 0
M  V30 4522 C 453.547 1.99365 0.331334 0
M  V30 4523 C 453.868 1.1725 1.55812 0
M  V30 4524 O 453.138 0.263871 1.94115 0
M  V30 4525 H 451.718 0.736397 0.125414 0
M  V30 4526 H 454.38 1.90964 -0.389711 0
M  V30 4527 H 453.476 3.0596 0.616036 0
M  V30 4528 N 453.777 0.010035 1.57597 0
M  V30 4529 C 455.024 -0.6727 1.91 0
M  V30 4530 C 455.352 -1.73219 0.884614 0
M  V30 4531 O 454.607 -1.95395 -0.109215 0
M  V30 4532 C 454.906 -1.34434 3.31153 0
M  V30 4533 C 454.572 -0.417083 4.48967 0
M  V30 4534 C 453.234 -0.161809 4.80928 0
M  V30 4535 C 455.586 0.220753 5.20732 0
M  V30 4536 C 452.914 0.739426 5.82022 0
M  V30 4537 C 455.266 1.10993 6.22787 0
M  V30 4538 C 453.93 1.37428 6.532 0
M  V30 4539 H 453.2 -0.246158 0.698918 0
M  V30 4540 H 455.847 0.0677145 1.9138 0
M  V30 4541 H 454.152 -2.15905 3.26944 0
M  V30 4542 H 455.849 -1.87883 3.54261 0
M  V30 4543 H 452.439 -0.626217 4.24001 0
M  V30 4544 H 456.623 0.0365643 4.96287 0
M  V30 4545 H 451.879 0.952139 6.03941 0
M  V30 4546 H 456.053 1.61046 6.77523 0
M  V30 4547 H 453.68 2.0743 7.31353 0
M  V30 4548 N 455.255 -1.55392 -0.262866 0
M  V30 4549 C 456.483 -1.80513 -1.01108 0
M  V30 4550 C 456.898 -0.583533 -1.79556 0
M  V30 4551 O 456.255 0.447585 -1.76926 0
M  V30 4552 C 456.306 -3.03648 -1.96164 0
M  V30 4553 O 456.027 -4.2109 -1.20893 0
M  V30 4554 C 457.528 -3.41448 -2.82715 0
M  V30 4555 H 454.748 -0.601079 -0.298236 0
M  V30 4556 H 457.292 -2.02425 -0.290582 0
M  V30 4557 H 455.447 -2.83832 -2.63663 0
M  V30 4558 H 455.861 -4.90771 -1.85051 0
M  V30 4559 H 457.335 -4.30751 -3.45192 0
M  V30 4560 H 457.812 -2.61308 -3.53008 0
M  V30 4561 H 458.418 -3.63559 -2.20693 0
M  V30 4562 N 456.733 0.527833 -1.48498 0
M  V30 4563 C 457.979 1.28295 -1.57836 0
M  V30 4564 C 458.334 1.9077 -0.249943 0
M  V30 4565 O 457.627 1.76421 0.747402 0
M  V30 4566 C 457.821 2.39275 -2.65485 0
M  V30 4567 C 457.65 1.87679 -4.08664 0
M  V30 4568 C 456.42 1.70187 -4.75778 0
M  V30 4569 C 458.618 1.40409 -4.94762 0
M  V30 4570 N 456.6 1.13238 -6.03366 0
M  V30 4571 C 457.971 0.954216 -6.12613 0
M  V30 4572 C 460.026 1.28732 -4.8097 0
M  V30 4573 C 458.729 0.39915 -7.18192 0
M  V30 4574 C 460.755 0.746244 -5.86673 0
M  V30 4575 C 460.117 0.306457 -7.03733 0
M  V30 4576 H 456.216 0.460408 -0.632099 0
M  V30 4577 H 458.8 0.594913 -1.85388 0
M  V30 4578 H 456.971 3.05572 -2.3975 0
M  V30 4579 H 458.703 3.06308 -2.64495 0
M  V30 4580 H 455.458 1.93772 -4.32145 0
M  V30 4581 H 455.882 0.867687 -6.71417 0
M  V30 4582 H 460.524 1.61338 -3.90807 0
M  V30 4583 H 458.242 0.0607678 -8.08077 0
M  V30 4584 H 461.828 0.659041 -5.78055 0
M  V30 4585 H 460.708 -0.105708 -7.84129 0
M  V30 4586 N 458.211 1.37122 0.776871 0
M  V30 4587 C 459.459 1.31787 1.53221 0
M  V30 4588 C 459.78 -0.0987589 1.9475 0
M  V30 4589 O 459.05 -1.0417 1.65908 0
M  V30 4590 H 457.63 0.484839 0.568278 0
M  V30 4591 H 460.292 1.71556 0.924917 0
M  V30 4592 H 459.388 1.95355 2.43398 0
M  V30 4593 N 459.689 -1.00246 1.21608 0
M  V30 4594 C 460.914 -1.78167 1.06167 0
M  V30 4595 C 461.339 -1.84138 -0.384035 0
M  V30 4596 O 460.697 -1.28683 -1.27712 0
M  V30 4597 C 460.745 -3.19786 1.66642 0
M  V30 4598 O 459.849 -4.02153 0.913613 0
M  V30 4599 H 459.19 -0.549 0.37349 0
M  V30 4600 H 461.72 -1.25994 1.61204 0
M  V30 4601 H 461.73 -3.70451 1.70969 0
M  V30 4602 H 460.405 -3.14754 2.7185 0
M  V30 4603 H 458.982 -3.60711 0.945635 0
M  V30 4604 N 461.167 -1.02423 -1.1978 0
M  V30 4605 C 462.13 -0.605703 -2.21052 0
M  V30 4606 C 463.13 0.328209 -1.57415 0
M  V30 4607 O 464.32 0.115853 -1.73814 0
M  V30 4608 C 461.452 0.114366 -3.40708 0
M  V30 4609 H 462.645 -1.5017 -2.59594 0
M  V30 4610 H 460.198 -0.814888 -1.33376 0
M  V30 4611 H 460.933 1.02492 -3.07678 0
M  V30 4612 H 460.718 -0.556641 -3.88129 0
M  V30 4613 H 462.208 0.394272 -4.15735 0
M  V30 4614 N 462.645 1.35699 -0.801477 0
M  V30 4615 C 463.575 2.32436 -0.222658 0
M  V30 4616 C 464.556 1.5723 0.649057 0
M  V30 4617 O 465.741 1.85324 0.580387 0
M  V30 4618 C 462.871 3.41469 0.633719 0
M  V30 4619 C 461.825 4.27774 -0.139083 0
M  V30 4620 C 461.151 5.28082 0.838666 0
M  V30 4621 C 462.451 5.04946 -1.33517 0
M  V30 4622 H 464.145 2.81094 -1.03086 0
M  V30 4623 H 461.691 1.35146 -0.497155 0
M  V30 4624 H 463.644 4.08143 1.04868 0
M  V30 4625 H 462.368 2.91408 1.47475 0
M  V30 4626 H 461.027 3.62673 -0.535156 0
M  V30 4627 H 460.675 4.7429 1.67506 0
M  V30 4628 H 460.375 5.86695 0.32594 0
M  V30 4629 H 461.899 5.97628 1.25194 0
M  V30 4630 H 463.313 5.64593 -0.995349 0
M  V30 4631 H 461.71 5.7303 -1.78202 0
M  V30 4632 H 462.78 4.35886 -2.12442 0
M  V30 4633 N 464.123 0.554532 1.47522 0
M  V30 4634 C 465.369 0.0295227 2.02779 0
M  V30 4635 C 465.702 -1.31582 1.42828 0
M  V30 4636 O 464.977 -1.85561 0.582872 0
M  V30 4637 C 465.26 -0.0664057 3.60039 0
M  V30 4638 C 465.113 1.30585 4.30427 0
M  V30 4639 C 466.432 -0.781162 4.33112 0
M  V30 4640 H 463.551 0.0122027 0.736899 0
M  V30 4641 H 466.193 0.716305 1.7598 0
M  V30 4642 H 464.343 -0.651307 3.83002 0
M  V30 4643 H 466.015 1.93374 4.18813 0
M  V30 4644 H 464.258 1.88125 3.90886 0
M  V30 4645 H 464.929 1.19147 5.38988 0
M  V30 4646 H 467.405 -0.284565 4.15126 0
M  V30 4647 H 466.281 -0.817237 5.42782 0
M  V30 4648 H 466.542 -1.83672 4.0214 0
M  V30 4649 N 465.601 -1.54893 0.290851 0
M  V30 4650 C 467.017 -1.59476 -0.0628432 0
M  V30 4651 C 467.217 -1.30795 -1.5328 0
M  V30 4652 O 466.273 -1.07644 -2.28406 0
M  V30 4653 C 467.586 -2.98928 0.325962 0
M  V30 4654 C 469.134 -3.11799 0.273882 0
M  V30 4655 C 469.609 -4.53544 0.637359 0
M  V30 4656 N 471.1 -4.59433 0.589507 0
M  V30 4657 C 471.835 -5.67164 0.84335 0
M  V30 4658 N 471.331 -6.82975 1.16263 0
M  V30 4659 N 473.124 -5.56786 0.771091 0
M  V30 4660 H 465.275 -1.71798 1.24896 0
M  V30 4661 H 467.538 -0.801879 0.505663 0
M  V30 4662 H 467.244 -3.24805 1.34887 0
M  V30 4663 H 467.118 -3.75793 -0.325441 0
M  V30 4664 H 469.505 -2.85677 -0.739765 0
M  V30 4665 H 469.586 -2.37112 0.959766 0
M  V30 4666 H 469.23 -4.80394 1.64877 0
M  V30 4667 H 469.16 -5.26553 -0.0704866 0
M  V30 4668 H 471.651 -3.76245 0.353252 0
M  V30 4669 H 471.964 -7.61048 1.34257 0
M  V30 4670 H 470.309 -6.84552 1.20057 0
M  V30 4671 H 473.5 -4.65187 0.521383 0
M  V30 4672 H 473.673 -6.40664 0.972295 0
M  V30 4673 N 467.08 -0.0183926 -1.57589 0
M  V30 4674 C 468.327 0.662562 -1.91354 0
M  V30 4675 C 468.655 1.72747 -0.893788 0
M  V30 4676 O 467.91 1.9545 0.0988509 0
M  V30 4677 C 468.209 1.32676 -3.31861 0
M  V30 4678 C 467.875 0.393267 -4.49182 0
M  V30 4679 C 466.537 0.136302 -4.81007 0
M  V30 4680 C 468.889 -0.248366 -5.20608 0
M  V30 4681 C 466.217 -0.770282 -5.81621 0
M  V30 4682 C 468.569 -1.14294 -6.22189 0
M  V30 4683 C 467.233 -1.4089 -6.52462 0
M  V30 4684 H 466.503 0.242448 -0.700214 0
M  V30 4685 H 469.15 -0.0778629 -1.91342 0
M  V30 4686 H 467.455 2.14168 -3.28084 0
M  V30 4687 H 469.152 1.86001 -3.55253 0
M  V30 4688 H 465.742 0.603723 -4.24327 0
M  V30 4689 H 469.926 -0.062883 -4.9626 0
M  V30 4690 H 465.182 -0.984154 -6.03427 0
M  V30 4691 H 469.356 -1.64637 -6.76659 0
M  V30 4692 H 466.983 -2.11306 -7.30242 0
M  V30 4693 O 468.597 1.61027 0.12348 0
M  V30 4694 H 469.288 1.78369 0.755254 0
M  V30 END ATOM
M  V30 BEGIN BOND
M  V30 END BOND
M  V30 END CTAB
M  END
$$$$
