drugbank_target|P0A6H7 ATP-dependent protease ATPase subunit HslU (DB04395)
 OpenBabel12092120293D

  0  0  0     0  0            999 V3000
M  V30 BEGIN CTAB
M  V30 COUNTS 7022 7066 0 0 0
M  V30 BEGIN ATOM
M  V30 1 H -0.908 1.98254 -0.117106 0
M  V30 2 N 0 1.576 0 0
M  V30 3 C 0.933 2.03868 1.02534 0
M  V30 4 C 1.911 0.928543 1.3348 0
M  V30 5 O 3.095 1.19667 1.45644 0
M  V30 6 C 0.222 2.43627 2.35294 0
M  V30 7 C -0.732 3.65373 2.2001 0
M  V30 8 S 0.101 5.13292 1.52614 0
M  V30 9 C 1.257 5.56322 2.86805 0
M  V30 10 H 1.49 2.90518 0.631377 0
M  V30 11 H -0.977 1.52953 0.210867 0
M  V30 12 H 0.981 2.67203 3.11629 0
M  V30 13 H -0.358 1.57376 2.7183 0
M  V30 14 H -1.165 3.90944 3.18086 0
M  V30 15 H -1.563 3.418 1.51819 0
M  V30 16 H 0.729 5.58782 3.83104 0
M  V30 17 H 1.672 6.56266 2.65933 0
M  V30 18 H 2.08 4.83886 2.90714 0
M  V30 19 N 1.4781 -0.272755 1.55222 0
M  V30 20 C 2.7031 -1.02683 1.80197 0
M  V30 21 C 3.1281 -1.79142 0.573551 0
M  V30 22 O 2.4861 -1.74917 -0.476849 0
M  V30 23 C 2.5341 -1.9609 3.02624 0
M  V30 24 O 1.6381 -3.04863 2.77727 0
M  V30 25 H 0.9791 -0.293557 0.595584 0
M  V30 26 H 3.5091 -0.30159 2.02365 0
M  V30 27 H 3.5191 -2.38039 3.31363 0
M  V30 28 H 2.1941 -1.39851 3.91682 0
M  V30 29 H 0.7711 -2.67228 2.60084 0
M  V30 30 N 2.9562 -1.48159 -0.537278 0
M  V30 31 C 3.8662 -1.64807 -1.6696 0
M  V30 32 C 4.8822 -0.530651 -1.65711 0
M  V30 33 O 6.0582 -0.800784 -1.84796 0
M  V30 34 C 3.1232 -1.67708 -3.03438 0
M  V30 35 C 2.1842 -2.91025 -3.156 0
M  V30 36 C 1.4172 -2.93778 -4.45567 0
M  V30 37 O 1.6402 -2.05153 -5.3223 0
M  V30 38 O 0.5742 -3.85868 -4.61941 0
M  V30 39 H 4.4002 -2.6066 -1.55853 0
M  V30 40 H 1.9852 -1.31475 -0.709549 0
M  V30 41 H 3.8672 -1.7218 -3.84619 0
M  V30 42 H 2.5422 -0.750278 -3.14885 0
M  V30 43 H 1.4492 -2.92089 -2.33741 0
M  V30 44 H 2.7822 -3.83065 -3.09066 0
M  V30 45 N 4.4343 0.785586 -1.36625 0
M  V30 46 C 5.3673 1.90509 -1.25625 0
M  V30 47 C 6.3453 1.62 -0.139607 0
M  V30 48 O 7.5293 1.8591 -0.31141 0
M  V30 49 C 4.6563 3.25419 -0.939158 0
M  V30 50 C 3.7023 3.72856 -2.07077 0
M  V30 51 S 4.5353 3.88162 -3.68904 0
M  V30 52 C 5.6913 5.25942 -3.39317 0
M  V30 53 H 5.9243 1.99549 -2.20381 0
M  V30 54 H 3.4573 0.945226 -1.22085 0
M  V30 55 H 5.4153 4.03346 -0.763029 0
M  V30 56 H 4.0763 3.14099 -0.00931402 0
M  V30 57 H 3.2693 4.70624 -1.80357 0
M  V30 58 H 2.8713 3.01989 -2.20632 0
M  V30 59 H 5.1633 6.10651 -2.93447 0
M  V30 60 H 6.1063 5.57668 -4.36363 0
M  V30 61 H 6.5143 4.93224 -2.74573 0
M  V30 62 N 5.9124 1.20967 1.01018 0
M  V30 63 C 7.1404 1.04956 1.78303 0
M  V30 64 C 7.5554 -0.400915 1.84494 0
M  V30 65 O 6.9124 -1.27826 1.30257 0
M  V30 66 C 6.9634 1.63403 3.22462 0
M  V30 67 O 6.6844 3.02775 3.16637 0
M  V30 68 C 8.1854 1.52432 4.16268 0
M  V30 69 H 5.4054 0.368858 0.560522 0
M  V30 70 H 7.9494 1.60193 1.27116 0
M  V30 71 H 6.1044 1.1227 3.70775 0
M  V30 72 H 6.5184 3.30626 4.07169 0
M  V30 73 H 7.9924 1.98078 5.15237 0
M  V30 74 H 8.4694 0.477875 4.36592 0
M  V30 75 H 9.0754 2.02787 3.73841 0
M  V30 76 N 7.3905 -1.2043 1.01659 0
M  V30 77 C 8.8015 -1.71517 0.737482 0
M  V30 78 C 9.1525 -1.81547 -0.743973 0
M  V30 79 O 8.2775 -1.47803 -1.58061 0
M  V30 80 C 8.8725 -3.11515 1.33206 0
M  V30 81 C 7.4315 -3.59912 1.10183 0
M  V30 82 C 6.5785 -2.37116 1.43776 0
M  V30 83 H 9.5295 -1.05444 1.18606 0
M  V30 84 H 9.5505 -3.73575 0.722636 0
M  V30 85 H 9.0625 -3.04182 2.41028 0
M  V30 86 H 7.1635 -3.72577 0.0412756 0
M  V30 87 H 7.2765 -4.44731 1.78188 0
M  V30 88 H 5.6405 -2.39857 0.856778 0
M  V30 89 H 6.4235 -2.32424 2.52654 0
M  V30 90 N 8.8686 -0.792821 -1.36206 0
M  V30 91 C 10.2846 -0.474903 -1.52371 0
M  V30 92 C 10.4846 1.00622 -1.74578 0
M  V30 93 O 9.5406 1.79162 -1.77924 0
M  V30 94 C 10.8536 -1.3083 -2.70747 0
M  V30 95 C 12.4016 -1.30234 -2.84619 0
M  V30 96 C 12.8766 -2.11956 -4.06004 0
M  V30 97 N 14.3676 -2.09419 -4.13156 0
M  V30 98 C 15.1026 -2.69419 -5.06163 0
M  V30 99 N 14.5986 -3.3829 -6.04592 0
M  V30 100 N 16.3916 -2.59134 -4.98804 0
M  V30 101 H 8.5426 -1.75222 -1.20046 0
M  V30 102 H 10.8056 -0.745024 -0.586211 0
M  V30 103 H 10.5116 -2.35881 -2.6087 0
M  V30 104 H 10.3856 -0.95196 -3.6499 0
M  V30 105 H 12.7726 -0.259748 -2.93955 0
M  V30 106 H 12.8536 -1.69847 -1.91274 0
M  V30 107 H 12.4976 -3.16248 -3.97429 0
M  V30 108 H 12.4276 -1.69711 -4.98503 0
M  V30 109 H 14.9186 -1.59297 -3.42685 0
M  V30 110 H 15.2316 -3.81394 -6.7213 0
M  V30 111 H 13.5766 -3.42393 -6.04807 0
M  V30 112 H 16.7676 -2.04927 -4.20859 0
M  V30 113 H 16.9406 -3.06185 -5.711 0
M  V30 114 N 10.3467 1.47872 -0.545128 0
M  V30 115 C 11.2567 2.33633 0.212746 0
M  V30 116 C 12.2727 1.4744 0.923983 0
M  V30 117 O 13.4487 1.80393 0.895572 0
M  V30 118 C 10.5137 3.23884 1.23693 0
M  V30 119 C 9.5747 4.25961 0.534417 0
M  V30 120 C 8.8077 5.11899 1.5098 0
M  V30 121 O 9.0307 5.00077 2.7437 0
M  V30 122 O 7.9647 5.92831 1.0409 0
M  V30 123 H 11.7907 2.99714 -0.490416 0
M  V30 124 H 9.3757 1.46235 -0.305871 0
M  V30 125 H 11.2577 3.79666 1.82843 0
M  V30 126 H 9.9327 2.60446 1.92222 0
M  V30 127 H 8.8397 3.73972 -0.0979679 0
M  V30 128 H 10.1727 4.92079 -0.109213 0
M  V30 129 N 11.8248 0.280983 1.55075 0
M  V30 130 C 13.0738 -0.334784 1.98902 0
M  V30 131 C 13.3868 -1.56534 1.17288 0
M  V30 132 O 14.5928 -2.25443 1.51287 0
M  V30 133 C 13.0488 -0.646994 3.54037 0
M  V30 134 C 12.6568 0.564085 4.44435 0
M  V30 135 C 14.4008 -1.22506 4.06439 0
M  V30 136 C 12.3078 0.226137 5.90967 0
M  V30 137 H 11.2378 -0.128866 0.742906 0
M  V30 138 H 13.8888 0.386556 1.79382 0
M  V30 139 H 12.2708 -1.42739 3.6938 0
M  V30 140 H 13.4448 1.34082 4.40861 0
M  V30 141 H 11.7598 1.0594 4.02698 0
M  V30 142 H 14.3568 -1.49182 5.13468 0
M  V30 143 H 14.6998 -2.16085 3.55827 0
M  V30 144 H 15.2328 -0.50682 3.94558 0
M  V30 145 H 11.9718 1.12996 6.45687 0
M  V30 146 H 11.4918 -0.513717 5.97596 0
M  V30 147 H 13.1708 -0.179539 6.46751 0
M  V30 148 N 13.3029 -1.57598 0.00835791 0
M  V30 149 C 14.5489 -1.91211 -0.675732 0
M  V30 150 C 14.8819 -0.883139 -1.72958 0
M  V30 151 O 14.1569 0.097016 -1.94258 0
M  V30 152 C 14.4399 -3.35379 -1.31123 0
M  V30 153 C 14.2929 -4.48999 -0.268356 0
M  V30 154 C 15.6119 -3.7912 -2.23508 0
M  V30 155 H 12.7309 -0.695374 -0.244179 0
M  V30 156 H 15.3729 -1.89901 0.0613655 0
M  V30 157 H 13.5229 -3.36626 -1.93946 0
M  V30 158 H 15.1949 -4.59887 0.360844 0
M  V30 159 H 13.4379 -4.31873 0.408482 0
M  V30 160 H 14.1089 -5.46851 -0.752218 0
M  V30 161 H 16.5849 -3.79477 -1.70693 0
M  V30 162 H 15.4609 -4.80729 -2.64936 0
M  V30 163 H 15.7219 -3.13455 -3.11766 0
M  V30 164 N 14.781 0.264519 -1.55364 0
M  V30 165 C 16.006 1.01726 -1.80739 0
M  V30 166 C 16.431 1.78836 -0.583044 0
M  V30 167 O 15.789 1.75167 0.467566 0
M  V30 168 C 15.837 1.94482 -3.03659 0
M  V30 169 O 14.941 3.03386 -2.7934 0
M  V30 170 H 14.282 0.290395 -0.597132 0
M  V30 171 H 16.812 0.290854 -2.02522 0
M  V30 172 H 16.822 2.36278 -3.32621 0
M  V30 173 H 15.497 1.37772 -3.92418 0
M  V30 174 H 14.074 2.65844 -2.61498 0
M  V30 175 N 16.2591 1.48442 0.529413 0
M  V30 176 C 17.1691 1.6569 1.66084 0
M  V30 177 C 18.1851 0.539432 1.65427 0
M  V30 178 O 19.3611 0.810572 1.84368 0
M  V30 179 C 16.4261 1.69315 3.02545 0
M  V30 180 C 15.4871 2.92694 3.14052 0
M  V30 181 C 14.7201 2.96137 4.44003 0
M  V30 182 O 14.9431 2.07973 5.31134 0
M  V30 183 O 13.8771 3.88312 4.59888 0
M  V30 184 H 17.7031 2.61483 1.54469 0
M  V30 185 H 15.2881 1.3185 0.702567 0
M  V30 186 H 17.1701 1.74217 3.83701 0
M  V30 187 H 15.8451 0.766966 3.14483 0
M  V30 188 H 14.7521 2.93324 2.32189 0
M  V30 189 H 16.0851 3.84699 3.0703 0
M  V30 190 N 17.7372 -0.778329 1.37039 0
M  V30 191 C 18.6672 -1.90546 1.34962 0
M  V30 192 C 19.6482 -1.68681 0.219274 0
M  V30 193 O 20.8332 -1.89634 0.418624 0
M  V30 194 C 17.9632 -3.27734 1.14925 0
M  V30 195 C 16.9172 -3.64147 2.24902 0
M  V30 196 C 16.2432 -4.99806 1.89996 0
M  V30 197 C 17.5432 -3.71579 3.67051 0
M  V30 198 H 19.2372 -1.92541 2.29277 0
M  V30 199 H 16.7832 -0.924948 1.10366 0
M  V30 200 H 18.7362 -4.06215 1.12104 0
M  V30 201 H 17.4602 -3.26154 0.170631 0
M  V30 202 H 16.1192 -2.8797 2.26868 0
M  V30 203 H 15.7672 -4.94759 0.906796 0
M  V30 204 H 15.4672 -5.25139 2.63634 0
M  V30 205 H 16.9912 -5.80694 1.88749 0
M  V30 206 H 18.4052 -4.40227 3.67251 0
M  V30 207 H 16.8022 -4.08405 4.39688 0
M  V30 208 H 17.8722 -2.72404 4.01154 0
M  V30 209 N 19.2153 -1.21501 -1.00376 0
M  V30 210 C 20.4923 -0.941745 -1.71437 0
M  V30 211 C 20.8723 0.546114 -2.03914 0
M  V30 212 O 20.2203 1.51128 -1.71384 0
M  V30 213 C 20.4303 -1.82812 -2.97289 0
M  V30 214 C 21.7783 -2.07771 -3.70292 0
M  V30 215 O 22.8023 -1.80171 -3.07273 0
M  V30 216 O 21.6613 -2.54456 -4.83647 0
M  V30 217 H 18.7553 -0.353243 -0.747762 0
M  V30 218 H 21.3013 -1.32436 -1.06108 0
M  V30 219 H 20.0733 -2.83501 -2.69709 0
M  V30 220 H 19.6963 -1.4464 -3.70358 0
M  V30 221 N 20.6934 1.19889 -1.02296 0
M  V30 222 C 21.6404 2.22901 -0.598651 0
M  V30 223 C 22.6104 1.61588 0.384521 0
M  V30 224 O 23.7954 1.88697 0.282522 0
M  V30 225 C 20.9354 3.45063 0.0504476 0
M  V30 226 C 20.0484 4.20783 -0.978053 0
M  V30 227 C 19.1834 5.30356 -0.299338 0
M  V30 228 C 18.2224 5.97826 -1.31416 0
M  V30 229 N 17.3594 6.98975 -0.661667 0
M  V30 230 H 22.1994 2.58554 -1.48169 0
M  V30 231 H 19.7364 1.27039 -0.741584 0
M  V30 232 H 21.6944 4.14831 0.443971 0
M  V30 233 H 20.3244 3.10084 0.897097 0
M  V30 234 H 19.3764 3.50018 -1.48969 0
M  V30 235 H 20.6884 4.67109 -1.74958 0
M  V30 236 H 19.8424 6.06516 0.149347 0
M  V30 237 H 18.5814 4.85084 0.504445 0
M  V30 238 H 17.5864 5.20422 -1.77317 0
M  V30 239 H 18.8114 6.45183 -2.11933 0
M  V30 240 H 16.7574 6.55886 0.122132 0
M  V30 241 H 16.6744 7.43461 -1.37117 0
M  V30 242 H 17.9424 7.7914 -0.236785 0
M  V30 243 N 22.1715 0.800033 1.35784 0
M  V30 244 C 23.1215 0.178654 2.27299 0
M  V30 245 C 24.1055 -0.643667 1.47464 0
M  V30 246 O 25.2975 -0.502 1.69732 0
M  V30 247 C 22.4265 -0.677194 3.36555 0
M  V30 248 C 21.5125 0.154497 4.23818 0
M  V30 249 N 21.9035 1.21427 4.91008 0
M  V30 250 C 20.2015 -0.0649462 4.45953 0
M  V30 251 C 20.9025 1.72147 5.55644 0
M  V30 252 N 19.8785 1.02897 5.33773 0
M  V30 253 H 23.6805 0.989637 2.76737 0
M  V30 254 H 21.1945 0.64054 1.49234 0
M  V30 255 H 23.1915 -1.13835 4.01058 0
M  V30 256 H 21.8515 -1.4866 2.8867 0
M  V30 257 H 22.8625 1.59684 4.92668 0
M  V30 258 H 19.5395 -0.844016 4.0888 0
M  V30 259 H 20.9295 2.60683 6.19269 0
M  V30 260 N 23.6496 -1.47581 0.552962 0
M  V30 261 C 24.8986 -2.01684 0.0251995 0
M  V30 262 C 25.2116 -1.43317 -1.33115 0
M  V30 263 O 26.4176 -1.89057 -1.94858 0
M  V30 264 C 24.8736 -3.599 -0.00542052 0
M  V30 265 C 24.4816 -4.27257 1.34742 0
M  V30 266 C 26.2256 -4.21768 -0.4808 0
M  V30 267 C 24.1326 -5.77467 1.27614 0
M  V30 268 H 23.0626 -0.753979 0.00565033 0
M  V30 269 H 25.7136 -1.69616 0.70018 0
M  V30 270 H 24.0956 -3.88911 -0.745961 0
M  V30 271 H 25.2696 -4.09893 2.10534 0
M  V30 272 H 23.5846 -3.77358 1.76039 0
M  V30 273 H 26.1816 -5.31838 -0.55246 0
M  V30 274 H 26.5246 -3.88651 -1.49184 0
M  V30 275 H 27.0576 -3.97273 0.204752 0
M  V30 276 H 23.7966 -6.15196 2.26304 0
M  V30 277 H 23.3166 -5.9718 0.55996 0
M  V30 278 H 24.9956 -6.3959 0.976421 0
M  V30 279 N 25.1277 -0.289203 -1.54924 0
M  V30 280 C 26.3767 0.324231 -1.99077 0
M  V30 281 C 26.6897 1.5591 -1.18117 0
M  V30 282 O 27.8957 2.24637 -1.52481 0
M  V30 283 C 26.3517 0.628209 -3.54375 0
M  V30 284 C 25.9597 -0.587647 -4.44129 0
M  V30 285 C 27.7037 1.20349 -4.07083 0
M  V30 286 C 25.6107 -0.257475 -5.90839 0
M  V30 287 H 24.5407 0.124924 -0.743579 0
M  V30 288 H 27.1917 -0.396063 -1.79175 0
M  V30 289 H 25.5737 1.40778 -3.70132 0
M  V30 290 H 26.7477 -1.36418 -4.40144 0
M  V30 291 H 25.0627 -1.08074 -4.0213 0
M  V30 292 H 27.6597 1.46456 -5.14252 0
M  V30 293 H 28.0027 2.14195 -3.56968 0
M  V30 294 H 28.5357 0.485889 -3.94821 0
M  V30 295 H 25.2747 -1.16419 -6.45079 0
M  V30 296 H 24.7947 0.482018 -5.9786 0
M  V30 297 H 26.4737 0.145238 -6.46837 0
M  V30 298 N 26.6058 1.57591 -0.0167156 0
M  V30 299 C 27.8538 1.90906 0.663285 0
M  V30 300 C 28.1748 0.892509 1.73376 0
M  V30 301 O 27.4448 -0.0677623 1.95783 0
M  V30 302 H 26.0248 0.704637 0.247983 0
M  V30 303 H 28.6868 1.94803 -0.0615909 0
M  V30 304 H 27.7828 2.9116 1.12393 0
M  V30 305 N 28.0839 -0.256276 1.55502 0
M  V30 306 C 29.0159 -1.33981 1.85962 0
M  V30 307 C 30.0289 -1.44743 0.745212 0
M  V30 308 O 31.2179 -1.4626 1.02324 0
M  V30 309 C 28.3179 -2.7194 2.02242 0
M  V30 310 C 27.4909 -2.83562 3.33033 0
M  V30 311 C 26.5499 -4.02304 3.39172 0
M  V30 312 O 25.5759 -3.92273 4.12444 0
M  V30 313 N 26.7779 -5.15045 2.67784 0
M  V30 314 H 29.5429 -1.08191 2.7949 0
M  V30 315 H 27.1039 -0.446388 1.55624 0
M  V30 316 H 29.0959 -3.49697 2.03701 0
M  V30 317 H 27.6659 -2.90479 1.15502 0
M  V30 318 H 26.8859 -1.92555 3.43971 0
M  V30 319 H 28.1739 -2.88271 4.19258 0
M  V30 320 H 27.5719 -5.26085 2.07968 0
M  V30 321 H 26.1289 -5.90972 2.74947 0
M  V30 322 N 29.562 -1.4872 -0.521534 0
M  V30 323 C 30.839 -1.4766 -1.2828 0
M  V30 324 C 31.219 -0.19292 -2.10217 0
M  V30 325 O 30.567 0.825193 -2.13079 0
M  V30 326 C 30.777 -2.74358 -2.15705 0
M  V30 327 C 32.125 -3.23028 -2.75569 0
M  V30 328 O 33.149 -2.75333 -2.25987 0
M  V30 329 O 32.008 -4.0604 -3.65778 0
M  V30 330 H 29.102 -0.590085 -0.579421 0
M  V30 331 H 31.648 -1.60963 -0.537492 0
M  V30 332 H 30.42 -3.59292 -1.54999 0
M  V30 333 H 30.043 -2.63816 -2.97467 0
M  V30 334 N 31.0401 0.771051 -1.3745 0
M  V30 335 C 31.9881 1.90574 -1.33358 0
M  V30 336 C 32.9821 1.67936 -0.22224 0
M  V30 337 O 34.1881 1.75717 -0.390304 0
M  V30 338 H 30.5631 0.626714 -0.415612 0
M  V30 339 H 32.5341 1.91142 -2.29144 0
M  V30 340 C 31.2831 3.27845 -1.15813 0
M  V30 341 H 30.6061 3.45842 -2.00583 0
M  V30 342 H 32.0461 4.07538 -1.17 0
M  V30 343 C 30.5051 3.36625 0.136165 0
M  V30 344 O 31.0351 3.85785 1.11949 0
M  V30 345 N 29.2411 2.89997 0.187099 0
M  V30 346 H 28.7881 2.50182 -0.613753 0
M  V30 347 H 28.7461 2.96252 1.05272 0
M  V30 348 N 32.5182 1.22032 0.997298 0
M  V30 349 C 33.4812 0.987909 2.06816 0
M  V30 350 C 34.4812 -0.0440084 1.6074 0
M  V30 351 O 35.6712 0.194053 1.73116 0
M  V30 352 C 32.8032 0.49132 3.37341 0
M  V30 353 H 33.9962 1.93803 2.28868 0
M  V30 354 H 31.5492 1.03838 1.16822 0
M  V30 355 H 32.2842 -0.463364 3.20973 0
M  V30 356 H 32.0692 1.23575 3.72118 0
M  V30 357 H 33.5592 0.348824 4.16141 0
M  V30 358 N 33.9963 -1.19345 1.0293 0
M  V30 359 C 34.9433 -2.2258 0.610464 0
M  V30 360 C 35.9133 -1.6179 -0.375946 0
M  V30 361 O 37.0983 -1.88844 -0.272511 0
M  V30 362 C 34.2383 -3.45085 -0.0321473 0
M  V30 363 C 33.3513 -4.20258 1.00035 0
M  V30 364 C 32.4863 -5.3019 0.32746 0
M  V30 365 C 31.5253 -5.97121 1.34584 0
M  V30 366 N 30.6623 -6.98615 0.698726 0
M  V30 367 H 35.5023 -2.57764 1.49538 0
M  V30 368 H 33.0393 -1.26644 0.748311 0
M  V30 369 H 34.9973 -4.15061 -0.421966 0
M  V30 370 H 33.6273 -3.10555 -0.88064 0
M  V30 371 H 32.6793 -3.49223 1.50823 0
M  V30 372 H 33.9913 -4.66175 1.77433 0
M  V30 373 H 33.1453 -6.06587 -0.11718 0
M  V30 374 H 31.8843 -4.85345 -0.478713 0
M  V30 375 H 30.8893 -5.19474 1.80074 0
M  V30 376 H 32.1143 -6.4405 2.15352 0
M  V30 377 H 30.0603 -6.55942 -0.0873471 0
M  V30 378 H 29.9773 -7.42724 1.41058 0
M  V30 379 H 31.2453 -7.79004 0.278102 0
M  V30 380 N 35.4744 -0.807222 -1.35358 0
M  V30 381 C 36.8904 -0.491038 -1.51858 0
M  V30 382 C 37.0904 0.987648 -1.75635 0
M  V30 383 O 36.1464 1.77265 -1.79815 0
M  V30 384 C 37.4594 -1.33695 -2.69344 0
M  V30 385 C 39.0074 -1.33246 -2.83222 0
M  V30 386 C 39.4824 -2.1625 -4.03733 0
M  V30 387 N 40.9734 -2.1379 -4.10911 0
M  V30 388 C 41.7084 -2.74772 -5.03277 0
M  V30 389 N 41.2044 -3.44684 -6.0097 0
M  V30 390 N 42.9974 -2.6441 -4.96028 0
M  V30 391 H 35.1484 -1.76485 -1.18181 0
M  V30 392 H 37.4114 -0.751199 -0.578276 0
M  V30 393 H 37.1174 -2.38634 -2.58354 0
M  V30 394 H 36.9914 -0.990618 -3.6396 0
M  V30 395 H 39.3784 -0.290911 -2.93663 0
M  V30 396 H 39.4594 -1.71866 -1.89461 0
M  V30 397 H 39.1034 -3.20445 -3.94052 0
M  V30 398 H 39.0334 -1.74989 -4.96675 0
M  V30 399 H 41.5244 -1.62923 -3.40976 0
M  V30 400 H 41.8374 -3.88501 -6.68047 0
M  V30 401 H 40.1824 -3.48788 -6.01142 0
M  V30 402 H 43.3734 -2.0938 -4.18662 0
M  V30 403 H 43.5464 -3.12225 -5.6782 0
M  V30 404 N 36.9525 1.47285 -0.560781 0
M  V30 405 C 38.1775 2.07359 -0.0410566 0
M  V30 406 C 38.6025 1.41017 1.24483 0
M  V30 407 O 37.9605 0.486368 1.74654 0
M  V30 408 C 38.0085 3.6035 0.134123 0
M  V30 409 O 37.1125 3.94681 1.19587 0
M  V30 410 H 36.4535 0.661887 -0.0529291 0
M  V30 411 H 38.9835 1.89252 -0.777482 0
M  V30 412 H 38.9935 4.0652 0.347207 0
M  V30 413 H 37.6685 4.08034 -0.805047 0
M  V30 414 H 36.2455 3.60251 0.962987 0
M  V30 415 N 38.4306 0.297415 1.54768 0
M  V30 416 C 39.6766 -0.313376 2.00364 0
M  V30 417 C 40.0096 -1.53815 1.18553 0
M  V30 418 O 39.2846 -1.92739 0.261103 0
M  V30 419 C 39.5676 -0.673525 3.53745 0
M  V30 420 C 39.4206 0.560133 4.46299 0
M  V30 421 C 40.7396 -1.50143 4.13697 0
M  V30 422 H 37.8586 -0.112428 0.728374 0
M  V30 423 H 40.5006 0.4088 1.8555 0
M  V30 424 H 38.6506 -1.28881 3.665 0
M  V30 425 H 40.3226 1.19863 4.45455 0
M  V30 426 H 38.5656 1.19405 4.17043 0
M  V30 427 H 39.2366 0.26405 5.51368 0
M  V30 428 H 41.7126 -0.981588 4.04356 0
M  V30 429 H 40.5886 -1.72221 5.21182 0
M  V30 430 H 40.8496 -2.48952 3.65343 0
M  V30 431 N 39.9087 -1.5758 0.0250728 0
M  V30 432 C 40.8717 -2.08896 -0.943139 0
M  V30 433 C 41.8717 -1.00321 -1.25668 0
M  V30 434 O 43.0617 -1.26495 -1.19769 0
M  V30 435 C 40.1937 -2.55143 -2.26086 0
M  V30 436 H 41.3867 -2.95723 -0.498775 0
M  V30 437 H 38.9397 -1.54703 -0.222888 0
M  V30 438 H 39.6747 -1.71633 -2.75159 0
M  V30 439 H 39.4597 -3.34461 -2.04641 0
M  V30 440 H 40.9497 -2.95083 -2.95492 0
M  V30 441 N 41.3868 0.248026 -1.55636 0
M  V30 442 C 42.6358 0.974134 -1.76617 0
M  V30 443 C 42.9488 1.86528 -0.588796 0
M  V30 444 O 44.1548 2.62805 -0.681594 0
M  V30 445 C 42.6108 1.78213 -3.12679 0
M  V30 446 C 42.2188 0.93843 -4.38061 0
M  V30 447 C 43.9628 2.50104 -3.42999 0
M  V30 448 C 41.8698 1.74225 -5.65155 0
M  V30 449 H 40.7998 0.36745 -0.658405 0
M  V30 450 H 43.4508 0.22884 -1.82067 0
M  V30 451 H 41.8328 2.56933 -3.01333 0
M  V30 452 H 43.0068 0.193635 -4.60393 0
M  V30 453 H 41.3218 0.332905 -4.15067 0
M  V30 454 H 43.9188 3.10694 -4.3517 0
M  V30 455 H 44.2618 3.21662 -2.64271 0
M  V30 456 H 44.7948 1.78395 -3.55556 0
M  V30 457 H 41.5338 1.07043 -6.46701 0
M  V30 458 H 41.0538 2.46235 -5.46926 0
M  V30 459 H 42.7328 2.30967 -6.0437 0
M  V30 460 N 42.8649 1.48995 0.513639 0
M  V30 461 C 43.8279 1.64229 1.59879 0
M  V30 462 C 44.8279 0.514696 1.5234 0
M  V30 463 O 46.0179 0.78087 1.55718 0
M  V30 464 C 43.1499 1.62783 2.99524 0
M  V30 465 H 44.3429 2.61004 1.47705 0
M  V30 466 H 41.8959 1.37837 0.736936 0
M  V30 467 H 42.6309 0.675461 3.17188 0
M  V30 468 H 42.4159 2.4466 3.06404 0
M  V30 469 H 43.9059 1.76669 3.78388 0
M  V30 470 N 44.343 -0.763751 1.37857 0
M  V30 471 C 45.273 -1.89103 1.36975 0
M  V30 472 C 46.254 -1.68439 0.237152 0
M  V30 473 O 47.439 -1.8918 0.438713 0
M  V30 474 C 44.569 -3.26496 1.18395 0
M  V30 475 C 43.523 -3.61741 2.28751 0
M  V30 476 C 42.849 -4.97762 1.95286 0
M  V30 477 C 44.149 -3.67665 3.70972 0
M  V30 478 H 45.843 -1.90099 2.31307 0
M  V30 479 H 43.389 -0.91319 1.11341 0
M  V30 480 H 45.342 -4.05003 1.16406 0
M  V30 481 H 44.066 -3.25955 0.205215 0
M  V30 482 H 42.725 -2.85547 2.29909 0
M  V30 483 H 42.373 -4.93769 0.959221 0
M  V30 484 H 42.073 -5.22313 2.69189 0
M  V30 485 H 43.597 -5.7866 1.94898 0
M  V30 486 H 45.011 -4.36307 3.719 0
M  V30 487 H 43.408 -4.03718 4.43995 0
M  V30 488 H 44.478 -2.68134 4.0402 0
M  V30 489 N 45.8211 -1.22559 -0.990812 0
M  V30 490 C 47.2371 -0.985996 -1.255 0
M  V30 491 C 47.4371 0.319173 -1.98956 0
M  V30 492 O 46.4931 1.04127 -2.3003 0
M  V30 493 C 47.8061 -2.18607 -2.06474 0
M  V30 494 C 49.3541 -2.22985 -2.19651 0
M  V30 495 C 49.8291 -3.4255 -3.04012 0
M  V30 496 N 51.3201 -3.42725 -3.11599 0
M  V30 497 C 52.0551 -4.31892 -3.7717 0
M  V30 498 N 51.5511 -5.31279 -4.44651 0
M  V30 499 N 53.3441 -4.19662 -3.73952 0
M  V30 500 H 45.4951 -2.06469 -0.49841 0
M  V30 501 H 47.7581 -0.904853 -0.282747 0
M  V30 502 H 47.4641 -3.13267 -1.59865 0
M  V30 503 H 47.3381 -2.18838 -3.07229 0
M  V30 504 H 49.7251 -1.28871 -2.65474 0
M  V30 505 H 49.8061 -2.26791 -1.18319 0
M  V30 506 H 49.4501 -4.36965 -2.58889 0
M  V30 507 H 49.3801 -3.35984 -4.0549 0
M  V30 508 H 51.8711 -2.70807 -2.63575 0
M  V30 509 H 52.1841 -5.95593 -4.92431 0
M  V30 510 H 50.5291 -5.3519 -4.43392 0
M  V30 511 H 53.7201 -3.41268 -3.20396 0
M  V30 512 H 53.8931 -4.89358 -4.24774 0
M  V30 513 N 47.2992 1.18797 -1.03562 0
M  V30 514 C 48.2472 2.24297 -0.615905 0
M  V30 515 C 49.2412 1.65643 0.354808 0
M  V30 516 O 50.4472 1.78618 0.22265 0
M  V30 517 H 46.8222 0.729909 -0.180934 0
M  V30 518 H 48.7932 2.5701 -1.5162 0
M  V30 519 C 47.5422 3.47698 0.0104735 0
M  V30 520 H 46.8652 3.93125 -0.727509 0
M  V30 521 H 48.3052 4.23159 0.266995 0
M  V30 522 C 46.7642 3.12489 1.25905 0
M  V30 523 O 47.2942 3.25761 2.35038 0
M  V30 524 N 45.5002 2.6686 1.15039 0
M  V30 525 H 45.0472 2.56261 0.262328 0
M  V30 526 H 45.0052 2.43674 1.98672 0
M  V30 527 N 48.7773 0.814389 1.34928 0
M  V30 528 C 50.1933 0.499084 1.51596 0
M  V30 529 C 50.3933 -0.978319 1.76157 0
M  V30 530 O 49.4493 -1.76309 1.80752 0
M  V30 531 C 50.7623 1.35121 2.68631 0
M  V30 532 C 52.3103 1.34746 2.82511 0
M  V30 533 C 52.7853 2.18388 4.0258 0
M  V30 534 N 54.2763 2.15966 4.09772 0
M  V30 535 C 55.0113 2.77437 5.01813 0
M  V30 536 N 54.5073 3.47866 5.99134 0
M  V30 537 N 56.3003 2.67037 4.94619 0
M  V30 538 H 48.4513 1.7711 1.17243 0
M  V30 539 H 50.7143 0.754256 0.574284 0
M  V30 540 H 50.4203 2.40001 2.57085 0
M  V30 541 H 50.2943 1.00991 3.63429 0
M  V30 542 H 52.6813 0.30648 2.93504 0
M  V30 543 H 52.7623 1.72869 1.88547 0
M  V30 544 H 52.4063 3.2253 3.92347 0
M  V30 545 H 52.3363 1.77621 4.9574 0
M  V30 546 H 54.8273 1.64729 3.40107 0
M  V30 547 H 55.1403 3.92038 6.65977 0
M  V30 548 H 53.4853 3.51972 5.99284 0
M  V30 549 H 56.6763 2.11597 4.17546 0
M  V30 550 H 56.8493 3.15232 5.66156 0
M  V30 551 N 50.2554 -1.46986 0.568584 0
M  V30 552 C 51.5014 -2.0332 0.0571487 0
M  V30 553 C 51.8564 -1.43384 -1.28291 0
M  V30 554 O 51.1494 -0.584304 -1.82473 0
M  V30 555 C 51.3434 -3.57306 -0.081836 0
M  V30 556 C 51.1724 -4.32174 1.24321 0
M  V30 557 C 49.9424 -4.71633 1.81358 0
M  V30 558 C 52.1404 -4.66598 2.16312 0
M  V30 559 N 50.1224 -5.31191 3.07748 0
M  V30 560 C 51.4934 -5.26578 3.27285 0
M  V30 561 C 53.5484 -4.48527 2.16166 0
M  V30 562 C 52.2514 -5.70395 4.38226 0
M  V30 563 C 54.2774 -4.93351 3.26127 0
M  V30 564 C 53.6394 -5.5339 4.3582 0
M  V30 565 H 49.7384 -0.77943 0.063351 0
M  V30 566 H 52.3224 -1.79323 0.758378 0
M  V30 567 H 50.4934 -3.81046 -0.752207 0
M  V30 568 H 52.2254 -4.00282 -0.59637 0
M  V30 569 H 48.9804 -4.53946 1.35019 0
M  V30 570 H 49.4044 -5.65505 3.72201 0
M  V30 571 H 54.0464 -4.01456 1.32638 0
M  V30 572 H 51.7644 -6.16452 5.22506 0
M  V30 573 H 55.3504 -4.81131 3.27115 0
M  V30 574 H 54.2304 -5.87441 5.19503 0
M  V30 575 N 51.7335 -0.305618 -1.54608 0
M  V30 576 C 53.1495 0.0476228 -1.59529 0
M  V30 577 C 53.3495 1.52025 -1.32252 0
M  V30 578 O 52.4055 2.27368 -1.09818 0
M  V30 579 C 53.7185 -0.354471 -2.98603 0
M  V30 580 C 55.2665 -0.303622 -3.11524 0
M  V30 581 C 55.7415 -0.680608 -4.52915 0
M  V30 582 N 57.2325 -0.63332 -4.5885 0
M  V30 583 C 57.9675 -0.897432 -5.66334 0
M  V30 584 N 57.4635 -1.22775 -6.81834 0
M  V30 585 N 59.2565 -0.824186 -5.56025 0
M  V30 586 H 51.4075 -1.2653 -1.70599 0
M  V30 587 H 53.6705 -0.513291 -0.797017 0
M  V30 588 H 53.3765 -1.3798 -3.23503 0
M  V30 589 H 53.2505 0.289568 -3.76087 0
M  V30 590 H 55.6375 0.712472 -2.8637 0
M  V30 591 H 55.7185 -0.982348 -2.36185 0
M  V30 592 H 55.3625 -1.69453 -4.78799 0
M  V30 593 H 55.2925 0.0202385 -5.26596 0
M  V30 594 H 57.7835 -0.389138 -3.75891 0
M  V30 595 H 58.0965 -1.41513 -7.59733 0
M  V30 596 H 56.4415 -1.26583 -6.83375 0
M  V30 597 H 59.6325 -0.565748 -4.64669 0
M  V30 598 H 59.8055 -1.03338 -6.39707 0
M  V30 599 N 53.2116 1.57565 -0.0334293 0
M  V30 600 C 54.6276 1.56297 0.322997 0
M  V30 601 C 54.8276 1.03945 1.7262 0
M  V30 602 O 53.8836 0.688109 2.42943 0
M  V30 603 C 55.1966 3.00232 0.167664 0
M  V30 604 C 56.7446 3.12078 0.240107 0
M  V30 605 C 57.2196 4.57859 0.113513 0
M  V30 606 N 58.7106 4.62887 0.170359 0
M  V30 607 C 59.4456 5.73319 0.0962517 0
M  V30 608 N 58.9416 6.92794 -0.0291881 0
M  V30 609 N 60.7346 5.61898 0.150551 0
M  V30 610 H 52.8856 1.89923 -0.950956 0
M  V30 611 H 55.1486 0.873824 -0.367608 0
M  V30 612 H 54.8546 3.42501 -0.799102 0
M  V30 613 H 54.7286 3.654 0.936083 0
M  V30 614 H 57.1156 2.69718 1.19733 0
M  V30 615 H 57.1966 2.49623 -0.558763 0
M  V30 616 H 56.8406 5.009 -0.840314 0
M  V30 617 H 56.7706 5.18299 0.931302 0
M  V30 618 H 59.2616 3.76954 0.26728 0
M  V30 619 H 59.5746 7.7276 -0.0789252 0
M  V30 620 H 57.9196 6.94971 -0.0640299 0
M  V30 621 H 61.1106 4.67448 0.246981 0
M  V30 622 H 61.2836 6.47938 0.0893365 0
M  V30 623 N 54.6897 -0.239769 1.55765 0
M  V30 624 C 55.6227 -1.32356 1.85895 0
M  V30 625 C 56.6007 -1.46053 0.714662 0
M  V30 626 O 57.7847 -1.62154 0.961157 0
M  V30 627 C 54.9117 -2.6962 2.04994 0
M  V30 628 C 53.9577 -2.73036 3.27648 0
M  V30 629 S 54.7907 -2.28929 4.84099 0
M  V30 630 C 55.9467 -3.68103 5.06212 0
M  V30 631 H 56.1797 -1.06601 2.77531 0
M  V30 632 H 53.7127 -0.441112 1.47965 0
M  V30 633 H 55.6707 -3.48653 2.16682 0
M  V30 634 H 54.3317 -2.92609 1.14188 0
M  V30 635 H 53.5247 -3.7386 3.38 0
M  V30 636 H 53.1267 -2.02052 3.14723 0
M  V30 637 H 55.4187 -4.63656 4.93993 0
M  V30 638 H 56.3617 -3.6268 6.08168 0
M  V30 639 H 56.7697 -3.60947 4.34025 0
M  V30 640 N 56.1678 -1.49265 -0.50573 0
M  V30 641 C 57.0998 -1.617 -1.62437 0
M  V30 642 C 58.1128 -0.499924 -1.54934 0
M  V30 643 O 59.3018 -0.771785 -1.60953 0
M  V30 644 C 56.4018 -1.5533 -3.01207 0
M  V30 645 C 55.5748 -2.8249 -3.33943 0
M  V30 646 C 54.6338 -2.69238 -4.52103 0
M  V30 647 O 53.6598 -3.43167 -4.5412 0
M  V30 648 N 54.8618 -1.80468 -5.51735 0
M  V30 649 H 57.6268 -2.58177 -1.52199 0
M  V30 650 H 55.1878 -1.46294 -0.693511 0
M  V30 651 H 57.1798 -1.44125 -3.78167 0
M  V30 652 H 55.7498 -0.667297 -3.05395 0
M  V30 653 H 54.9698 -3.08081 -2.45926 0
M  V30 654 H 56.2578 -3.66802 -3.5261 0
M  V30 655 H 55.6558 -1.19653 -5.52901 0
M  V30 656 H 54.2128 -1.75188 -6.27816 0
M  V30 657 N 57.6459 0.756429 -1.3826 0
M  V30 658 C 58.5759 1.88374 -1.37976 0
M  V30 659 C 59.5569 1.68311 -0.246082 0
M  V30 660 O 60.7419 1.88944 -0.44874 0
M  V30 661 C 57.8719 3.25864 -1.20125 0
M  V30 662 C 56.8259 3.60523 -2.30666 0
M  V30 663 C 56.1519 4.9672 -1.97923 0
M  V30 664 C 57.4519 3.65692 -3.72916 0
M  V30 665 H 59.1459 1.88869 -2.32312 0
M  V30 666 H 56.6919 0.907272 -1.11824 0
M  V30 667 H 58.6449 4.0438 -1.18552 0
M  V30 668 H 57.3689 3.25841 -0.222498 0
M  V30 669 H 56.0279 2.84324 -2.3142 0
M  V30 670 H 55.6759 4.93253 -0.985393 0
M  V30 671 H 55.3759 5.20878 -2.71955 0
M  V30 672 H 56.8999 5.77618 -1.97964 0
M  V30 673 H 58.3139 4.34328 -3.74208 0
M  V30 674 H 56.7109 4.01358 -4.4613 0
M  V30 675 H 57.7809 2.65987 -4.05436 0
M  V30 676 N 59.124 1.23083 0.984299 0
M  V30 677 C 60.072 1.00593 2.09723 0
M  V30 678 C 61.066 -0.0538014 1.69315 0
M  V30 679 O 62.272 0.0993719 1.79725 0
M  V30 680 H 58.647 0.30817 0.685956 0
M  V30 681 H 60.618 1.95012 2.2586 0
M  V30 682 C 59.367 0.609601 3.42314 0
M  V30 683 H 58.69 1.41675 3.73856 0
M  V30 684 H 60.13 0.491726 4.21139 0
M  V30 685 C 58.589 -0.681745 3.2993 0
M  V30 686 O 59.119 -1.73192 3.62446 0
M  V30 687 N 57.325 -0.656178 2.83095 0
M  V30 688 H 56.872 0.198759 2.56832 0
M  V30 689 H 56.83 -1.52044 2.75191 0
M  V30 690 N 60.6021 -1.18246 1.0419 0
M  V30 691 C 61.5121 -2.25574 0.644476 0
M  V30 692 C 62.5281 -1.70845 -0.329826 0
M  V30 693 O 63.7041 -2.00554 -0.184443 0
M  V30 694 C 60.7691 -3.46697 0.014877 0
M  V30 695 C 59.8301 -4.16554 1.03834 0
M  V30 696 C 59.0631 -5.31894 0.438692 0
M  V30 697 O 59.2861 -5.65385 -0.754752 0
M  V30 698 O 58.2201 -5.90459 1.168 0
M  V30 699 H 62.0461 -2.61836 1.53869 0
M  V30 700 H 59.6311 -1.25352 0.812854 0
M  V30 701 H 61.5131 -4.20062 -0.335538 0
M  V30 702 H 60.1881 -3.12255 -0.853138 0
M  V30 703 H 59.0951 -3.45251 1.44057 0
M  V30 704 H 60.4281 -4.54998 1.87716 0
M  V30 705 N 62.0802 -0.821533 -1.34494 0
M  V30 706 C 62.9902 -0.244355 -2.33324 0
M  V30 707 C 64.0062 0.620527 -1.62559 0
M  V30 708 O 65.1822 0.528754 -1.94335 0
M  V30 709 C 62.2472 0.585368 -3.41723 0
M  V30 710 C 61.3082 -0.301752 -4.28238 0
M  V30 711 C 60.5412 0.488466 -5.3146 0
M  V30 712 O 60.7642 1.72186 -5.4379 0
M  V30 713 O 59.6982 -0.12848 -6.01763 0
M  V30 714 H 63.5242 -1.06231 -2.84515 0
M  V30 715 H 61.1092 -0.583645 -1.37528 0
M  V30 716 H 62.9912 1.05747 -4.07916 0
M  V30 717 H 61.6662 1.38068 -2.92778 0
M  V30 718 H 60.5732 -0.821315 -3.64973 0
M  V30 719 H 61.9062 -1.06138 -4.8062 0
M  V30 720 N 63.5583 1.46682 -0.576371 0
M  V30 721 C 64.4883 2.33028 0.148397 0
M  V30 722 C 65.4693 1.44961 0.889956 0
M  V30 723 O 66.6543 1.73789 0.866662 0
M  V30 724 C 63.7843 3.27117 1.1667 0
M  V30 725 C 62.7383 4.24575 0.540386 0
M  V30 726 C 62.0643 5.08126 1.6647 0
M  V30 727 C 63.3643 5.19722 -0.518331 0
M  V30 728 H 65.0583 2.93875 -0.572509 0
M  V30 729 H 62.6043 1.41315 -0.276768 0
M  V30 730 H 64.5573 3.86374 1.68204 0
M  V30 731 H 63.2813 2.64364 1.9178 0
M  V30 732 H 61.9403 3.66571 0.0461769 0
M  V30 733 H 61.5883 4.41762 2.40531 0
M  V30 734 H 61.2883 5.74122 1.25131 0
M  V30 735 H 62.8123 5.70246 2.18293 0
M  V30 736 H 64.2263 5.73232 -0.0883058 0
M  V30 737 H 62.6233 5.94026 -0.851679 0
M  V30 738 H 63.6933 4.64037 -1.40703 0
M  V30 739 N 65.0364 0.313813 1.54444 0
M  V30 740 C 66.4524 -0.0391619 1.59552 0
M  V30 741 C 66.6524 -1.51322 1.33056 0
M  V30 742 O 65.7084 -2.26782 1.11022 0
M  V30 743 C 67.0214 0.370302 2.98411 0
M  V30 744 C 68.5694 0.320139 3.11358 0
M  V30 745 C 69.0444 0.704617 4.52547 0
M  V30 746 N 70.5354 0.657645 4.58508 0
M  V30 747 C 71.2704 0.927453 5.6585 0
M  V30 748 N 70.7664 1.26389 6.81174 0
M  V30 749 N 72.5594 0.853662 5.5558 0
M  V30 750 H 64.7104 1.27433 1.69925 0
M  V30 751 H 66.9734 0.517511 0.794284 0
M  V30 752 H 66.6794 1.39694 3.22767 0
M  V30 753 H 66.5534 -0.269619 3.76235 0
M  V30 754 H 68.9404 -0.697275 2.86744 0
M  V30 755 H 69.0214 0.99486 2.35661 0
M  V30 756 H 68.6654 1.7199 4.77893 0
M  V30 757 H 68.5954 0.00768843 5.26599 0
M  V30 758 H 71.0864 0.409067 3.75679 0
M  V30 759 H 71.3994 1.4554 7.58972 0
M  V30 760 H 69.7444 1.30206 6.82694 0
M  V30 761 H 72.9354 0.590383 4.64362 0
M  V30 762 H 73.1084 1.0673 6.3915 0
M  V30 763 N 66.5145 -1.57545 0.0417849 0
M  V30 764 C 67.4645 -2.07483 -0.945247 0
M  V30 765 C 68.4485 -0.977983 -1.27767 0
M  V30 766 O 69.6405 -1.24142 -1.26166 0
M  V30 767 C 66.7695 -2.61576 -2.22335 0
M  V30 768 C 65.8555 -3.78213 -1.91874 0
M  V30 769 N 66.2465 -4.88344 -1.31733 0
M  V30 770 C 64.5445 -3.8694 -2.21796 0
M  V30 771 C 65.2455 -5.69462 -1.1869 0
M  V30 772 N 64.2215 -5.16771 -1.68666 0
M  V30 773 H 68.0235 -2.90029 -0.475441 0
M  V30 774 H 65.5375 -1.61581 -0.162911 0
M  V30 775 H 67.5345 -2.95651 -2.93932 0
M  V30 776 H 66.1945 -1.80465 -2.69931 0
M  V30 777 H 67.2055 -5.08335 -0.990729 0
M  V30 778 H 63.8825 -3.16757 -2.71977 0
M  V30 779 H 65.2725 -6.68023 -0.720793 0
M  V30 780 N 67.9926 0.231505 -1.5589 0
M  V30 781 C 68.9026 1.308 -1.94752 0
M  V30 782 C 69.9186 1.51826 -0.849989 0
M  V30 783 O 71.0946 1.6515 -1.15271 0
M  V30 784 C 68.1596 2.63968 -2.24771 0
M  V30 785 C 67.2206 2.51331 -3.48039 0
M  V30 786 C 66.4536 3.78148 -3.76616 0
M  V30 787 O 66.6766 4.80722 -3.07022 0
M  V30 788 O 65.6106 3.75857 -4.70123 0
M  V30 789 H 69.4366 1.0083 -2.86474 0
M  V30 790 H 67.0216 0.433547 -1.42971 0
M  V30 791 H 68.9036 3.42633 -2.45318 0
M  V30 792 H 67.5786 2.9364 -1.36225 0
M  V30 793 H 66.4856 1.709 -3.32782 0
M  V30 794 H 67.8186 2.26601 -4.36936 0
M  V30 795 N 69.4707 1.49531 0.497807 0
M  V30 796 C 70.7167 1.59415 1.25358 0
M  V30 797 C 71.0497 0.281422 1.9215 0
M  V30 798 O 70.3247 -0.715249 1.80871 0
M  V30 799 C 70.6077 2.75566 2.3181 0
M  V30 800 C 70.4607 4.16642 1.69498 0
M  V30 801 C 71.7797 2.87347 3.33346 0
M  V30 802 H 68.8987 0.580244 0.454408 0
M  V30 803 H 71.5407 1.81827 0.551262 0
M  V30 804 H 69.6907 2.56587 2.91711 0
M  V30 805 H 71.3627 4.47145 1.13399 0
M  V30 806 H 69.6057 4.22141 0.998978 0
M  V30 807 H 70.2767 4.93792 2.46725 0
M  V30 808 H 72.7527 3.04634 2.83438 0
M  V30 809 H 71.6287 3.70289 4.05188 0
M  V30 810 H 71.8897 1.96834 3.95865 0
M  V30 811 N 70.9488 -0.749086 1.3866 0
M  V30 812 C 72.1768 -1.53834 1.38358 0
M  V30 813 C 72.5918 -1.88783 -0.0255219 0
M  V30 814 O 71.9488 -1.53101 -0.993292 0
M  V30 815 C 71.9998 -2.83468 2.2434 0
M  V30 816 O 71.7208 -2.50008 3.5976 0
M  V30 817 C 73.2218 -3.7758 2.32267 0
M  V30 818 H 70.4418 -0.47585 0.473083 0
M  V30 819 H 72.9858 -0.926726 1.82297 0
M  V30 820 H 71.1408 -3.40995 1.83851 0
M  V30 821 H 71.5548 -3.33182 4.05081 0
M  V30 822 H 73.0288 -4.65478 2.96706 0
M  V30 823 H 73.5058 -4.18334 1.33765 0
M  V30 824 H 74.1118 -3.25976 2.73166 0
M  V30 825 N 72.4269 -1.23603 -0.977757 0
M  V30 826 C 73.8379 -1.06424 -1.53398 0
M  V30 827 C 74.1889 0.367578 -1.92726 0
M  V30 828 O 73.3139 1.25465 -1.76316 0
M  V30 829 C 73.9089 -1.92568 -2.78753 0
M  V30 830 C 72.4679 -1.79642 -3.30765 0
M  V30 831 C 71.6149 -1.88111 -2.03739 0
M  V30 832 H 74.5659 -1.37227 -0.797152 0
M  V30 833 H 74.5869 -1.45203 -3.51705 0
M  V30 834 H 74.0989 -2.96771 -2.50098 0
M  V30 835 H 72.1999 -0.782325 -3.64294 0
M  V30 836 H 72.3129 -2.63174 -4.00345 0
M  V30 837 H 70.6769 -1.31723 -2.17994 0
M  V30 838 H 71.4599 -2.93875 -1.77461 0
M  V30 839 N 73.905 1.17692 -1.04816 0
M  V30 840 C 74.852 2.21581 -0.645797 0
M  V30 841 C 75.822 1.62367 0.350159 0
M  V30 842 O 77.007 1.89254 0.242433 0
M  V30 843 C 74.147 3.45092 -0.0227568 0
M  V30 844 C 73.26 4.18613 -1.06709 0
M  V30 845 C 72.395 5.29602 -0.411767 0
M  V30 846 C 71.434 5.94904 -1.44067 0
M  V30 847 N 70.571 6.97414 -0.809781 0
M  V30 848 H 75.411 2.55353 -1.5362 0
M  V30 849 H 72.948 1.25438 -0.768364 0
M  V30 850 H 74.906 4.15679 0.35588 0
M  V30 851 H 73.536 3.11917 0.831122 0
M  V30 852 H 72.588 3.46779 -1.5636 0
M  V30 853 H 73.9 4.63293 -1.84827 0
M  V30 854 H 73.054 6.06696 0.0206623 0
M  V30 855 H 71.793 4.86045 0.401438 0
M  V30 856 H 70.798 5.16544 -1.88316 0
M  V30 857 H 72.023 6.40542 -2.25571 0
M  V30 858 H 69.969 6.55998 -0.0170186 0
M  V30 859 H 69.886 7.40386 -1.52856 0
M  V30 860 H 71.154 7.78463 -0.401999 0
M  V30 861 N 75.3831 0.828654 1.34056 0
M  V30 862 C 76.3311 0.242973 2.31327 0
M  V30 863 C 77.3251 -0.61944 1.57668 0
M  V30 864 O 78.5311 -0.51014 1.7262 0
M  V30 865 H 74.9061 0.059834 0.749616 0
M  V30 866 H 76.8771 1.07809 2.78244 0
M  V30 867 C 75.6261 -0.575733 3.429 0
M  V30 868 H 74.9491 0.0785582 3.99723 0
M  V30 869 H 76.3891 -0.951547 4.13185 0
M  V30 870 C 74.8481 -1.75044 2.87856 0
M  V30 871 O 75.3781 -2.84882 2.83205 0
M  V30 872 N 73.5841 -1.56903 2.44602 0
M  V30 873 H 73.1311 -0.675547 2.48584 0
M  V30 874 H 73.0891 -2.35652 2.08124 0
M  V30 875 N 76.8612 -1.46375 0.584142 0
M  V30 876 C 78.1102 -2.01585 0.0679741 0
M  V30 877 C 78.4232 -1.46109 -1.30045 0
M  V30 878 O 79.6292 -1.93148 -1.90804 0
M  V30 879 C 78.0852 -3.5983 0.0709207 0
M  V30 880 C 77.6932 -4.24303 1.43775 0
M  V30 881 C 79.4372 -4.22693 -0.391228 0
M  V30 882 C 77.3442 -5.74631 1.39834 0
M  V30 883 H 76.2742 -0.753689 0.0216421 0
M  V30 884 H 78.9252 -1.68093 0.736001 0
M  V30 885 H 77.3072 -3.90405 -0.663299 0
M  V30 886 H 78.4812 -4.05335 2.19181 0
M  V30 887 H 76.7962 -3.73539 1.84004 0
M  V30 888 H 79.3932 -5.3289 -0.439524 0
M  V30 889 H 79.7362 -3.91728 -1.40906 0
M  V30 890 H 80.2692 -3.96749 0.288974 0
M  V30 891 H 77.0082 -6.10258 2.39303 0
M  V30 892 H 76.5282 -5.95858 0.686505 0
M  V30 893 H 78.2072 -6.37375 1.11187 0
M  V30 894 N 78.3393 -0.321999 -1.54275 0
M  V30 895 C 79.2693 0.537411 -2.27231 0
M  V30 896 C 80.2503 1.12064 -1.27968 0
M  V30 897 O 81.4353 1.14606 -1.56777 0
M  V30 898 C 78.5653 1.69919 -3.02894 0
M  V30 899 C 77.5193 1.24534 -4.09482 0
M  V30 900 C 76.8453 2.49394 -4.72977 0
M  V30 901 C 78.1453 0.361335 -5.21049 0
M  V30 902 H 79.8393 -0.0711406 -2.99315 0
M  V30 903 H 77.3853 -0.0356555 -1.43956 0
M  V30 904 H 79.3383 2.30668 -3.52662 0
M  V30 905 H 78.0623 2.33431 -2.28424 0
M  V30 906 H 76.7213 0.660782 -3.60596 0
M  V30 907 H 76.3693 3.11265 -3.95124 0
M  V30 908 H 76.0693 2.19718 -5.44975 0
M  V30 909 H 77.5933 3.10908 -5.25517 0
M  V30 910 H 79.0073 0.875072 -5.66582 0
M  V30 911 H 77.4043 0.157428 -5.99893 0
M  V30 912 H 78.4743 -0.60822 -4.8107 0
M  V30 913 N 79.8174 1.5752 -0.0501392 0
M  V30 914 C 80.7504 2.07026 0.959962 0
M  V30 915 C 81.7284 0.970539 1.30458 0
M  V30 916 O 82.9124 1.2424 1.41763 0
M  V30 917 C 80.0394 2.5099 2.27424 0
M  V30 918 C 79.0854 3.72188 2.08275 0
M  V30 919 S 79.9184 5.17888 1.36207 0
M  V30 920 C 81.0744 5.65165 2.6896 0
M  V30 921 H 81.3074 2.9238 0.538631 0
M  V30 922 H 78.8404 1.53547 0.162099 0
M  V30 923 H 80.7984 2.76982 3.02971 0
M  V30 924 H 79.4594 1.65944 2.66686 0
M  V30 925 H 78.6524 4.00866 3.05487 0
M  V30 926 H 78.2544 3.46457 1.40868 0
M  V30 927 H 80.5464 5.70687 3.65133 0
M  V30 928 H 81.4894 6.64394 2.4492 0
M  V30 929 H 81.8974 4.9289 2.75172 0
M  V30 930 N 81.2955 -0.223234 1.56011 0
M  V30 931 C 82.5445 -0.945912 1.78144 0
M  V30 932 C 82.8575 -1.85567 0.618396 0
M  V30 933 O 84.0635 -2.61688 0.723318 0
M  V30 934 C 82.5195 -1.73216 3.15475 0
M  V30 935 C 82.1275 -0.868619 4.39499 0
M  V30 936 C 83.8715 -2.44615 3.46935 0
M  V30 937 C 81.7785 -1.65212 5.67855 0
M  V30 938 H 80.7085 -0.356929 0.664167 0
M  V30 939 H 83.3595 -0.199845 1.82409 0
M  V30 940 H 81.7415 -2.52107 3.05382 0
M  V30 941 H 82.9155 -0.120366 4.60643 0
M  V30 942 H 81.2305 -0.26683 4.15544 0
M  V30 943 H 83.8275 -3.03732 4.40058 0
M  V30 944 H 84.1705 -3.17417 2.69355 0
M  V30 945 H 84.7035 -1.72715 3.58349 0
M  V30 946 H 81.4425 -0.967407 6.48322 0
M  V30 947 H 80.9625 -2.37503 5.50774 0
M  V30 948 H 82.6415 -2.21322 6.07968 0
M  V30 949 N 82.7736 -1.49793 -0.48987 0
M  V30 950 C 84.0216 -1.59525 -1.24081 0
M  V30 951 C 84.3426 -0.288953 -1.92847 0
M  V30 952 O 83.6126 0.692436 -1.83254 0
M  V30 953 H 82.1926 -0.587796 -0.460983 0
M  V30 954 H 84.8546 -1.86477 -0.566778 0
M  V30 955 H 83.9506 -2.39696 -1.99881 0
M  V30 956 N 84.2517 0.741722 -1.39055 0
M  V30 957 C 85.6627 1.31966 -1.32068 0
M  V30 958 C 86.0137 1.96192 0.0180797 0
M  V30 959 O 85.1387 1.95861 0.920196 0
M  V30 960 C 85.7337 2.39954 -2.39181 0
M  V30 961 C 84.2927 2.93438 -2.35735 0
M  V30 962 C 83.4397 1.66936 -2.21422 0
M  V30 963 H 86.3907 0.539721 -1.4924 0
M  V30 964 H 86.4117 3.20182 -2.05581 0
M  V30 965 H 85.9237 1.9318 -3.36605 0
M  V30 966 H 84.0247 3.4451 -1.41929 0
M  V30 967 H 84.1377 3.4701 -3.30335 0
M  V30 968 H 82.5017 1.91016 -1.68478 0
M  V30 969 H 83.2847 1.22224 -3.20806 0
M  V30 970 N 85.7298 1.2412 0.971189 0
M  V30 971 C 86.9578 1.10575 1.74874 0
M  V30 972 C 87.3728 -0.342017 1.85676 0
M  V30 973 O 86.7298 -1.23617 1.34258 0
M  V30 974 C 86.7808 1.73579 3.171 0
M  V30 975 O 86.5018 3.12695 3.06844 0
M  V30 976 C 88.0028 1.65598 4.11208 0
M  V30 977 H 85.2228 0.386504 0.548503 0
M  V30 978 H 87.7668 1.64156 1.21955 0
M  V30 979 H 85.9218 1.24009 3.67016 0
M  V30 980 H 86.3358 3.43412 3.96445 0
M  V30 981 H 87.8098 2.1437 5.08674 0
M  V30 982 H 88.2868 0.616532 4.34851 0
M  V30 983 H 88.8928 2.14578 3.67201 0
M  V30 984 N 87.2079 -1.17134 1.05439 0
M  V30 985 C 88.4559 -1.87085 0.764429 0
M  V30 986 C 88.7769 -1.81584 -0.710787 0
M  V30 987 O 88.0469 -1.24349 -1.51374 0
M  V30 988 H 86.6269 -0.692627 0.279779 0
M  V30 989 H 89.2889 -1.42087 1.33406 0
M  V30 990 H 88.3849 -2.92759 1.0816 0
M  V30 991 N 88.686 -0.835752 -1.33615 0
M  V30 992 C 89.932 -0.430596 -1.98176 0
M  V30 993 C 90.265 1.00684 -1.66061 0
M  V30 994 O 89.54 1.70339 -0.938877 0
M  V30 995 C 89.823 -0.648065 -3.5422 0
M  V30 996 C 89.676 -2.13255 -3.96033 0
M  V30 997 C 90.995 -0.0922113 -4.40003 0
M  V30 998 H 88.114 -0.157924 -0.719881 0
M  V30 999 H 90.756 -1.05069 -1.58305 0
M  V30 1000 H 88.906 -0.120237 -3.88314 0
M  V30 1001 H 90.578 -2.725 -3.72211 0
M  V30 1002 H 88.821 -2.61823 -3.45878 0
M  V30 1003 H 89.492 -2.23547 -5.04708 0
M  V30 1004 H 91.968 -0.543343 -4.12537 0
M  V30 1005 H 90.844 -0.274083 -5.48215 0
M  V30 1006 H 91.105 1.00378 -4.30554 0
M  V30 1007 N 90.1641 1.46063 -0.591896 0
M  V30 1008 C 91.4121 2.01938 -0.0808391 0
M  V30 1009 C 91.7331 1.46475 1.28725 0
M  V30 1010 O 91.0031 0.652944 1.84698 0
M  V30 1011 H 89.5831 0.746516 -0.0268938 0
M  V30 1012 H 92.2451 1.79055 -0.769752 0
M  V30 1013 H 91.3411 3.12094 -0.0187578 0
M  V30 1014 N 91.6422 0.330177 1.54103 0
M  V30 1015 C 92.5892 -0.532762 2.24567 0
M  V30 1016 C 93.5592 -1.10635 1.23892 0
M  V30 1017 O 94.7442 -1.14546 1.5259 0
M  V30 1018 C 91.8842 -1.6845 3.01195 0
M  V30 1019 C 90.9972 -1.13951 4.167 0
M  V30 1020 C 90.1322 -2.25746 4.80845 0
M  V30 1021 C 89.1712 -1.6853 5.88442 0
M  V30 1022 N 88.3082 -2.74014 6.46421 0
M  V30 1023 H 93.1482 0.0746905 2.97906 0
M  V30 1024 H 90.6852 0.048632 1.4702 0
M  V30 1025 H 92.6432 -2.36234 3.43874 0
M  V30 1026 H 91.2732 -2.26314 2.30178 0
M  V30 1027 H 90.3252 -0.35301 3.78758 0
M  V30 1028 H 91.6372 -0.680892 4.94131 0
M  V30 1029 H 90.7912 -3.01422 5.26526 0
M  V30 1030 H 89.5302 -2.74947 4.0281 0
M  V30 1031 H 88.5352 -0.913543 5.42157 0
M  V30 1032 H 89.7602 -1.20198 6.68378 0
M  V30 1033 H 87.7062 -3.22494 5.71256 0
M  V30 1034 H 87.6232 -2.32735 7.19285 0
M  V30 1035 H 88.8912 -3.49499 6.96757 0
M  V30 1036 N 93.1203 -1.57491 0.0584922 0
M  V30 1037 C 94.3483 -1.97296 -0.623037 0
M  V30 1038 C 94.7633 -0.936338 -1.63946 0
M  V30 1039 O 94.1203 0.0785981 -1.82331 0
M  V30 1040 C 94.1713 -3.37183 -1.30345 0
M  V30 1041 O 93.8923 -4.36872 -0.32773 0
M  V30 1042 C 95.3933 -3.91788 -2.07406 0
M  V30 1043 H 92.6133 -0.649153 -0.169826 0
M  V30 1044 H 95.1573 -2.04106 0.12696 0
M  V30 1045 H 93.3123 -3.31502 -2.00463 0
M  V30 1046 H 93.7263 -5.18141 -0.814269 0
M  V30 1047 H 95.2003 -4.91926 -2.50425 0
M  V30 1048 H 95.6773 -3.27609 -2.92521 0
M  V30 1049 H 96.2833 -4.00829 -1.42184 0
M  V30 1050 N 94.5984 0.214957 -1.56127 0
M  V30 1051 C 95.5084 1.28727 -1.96129 0
M  V30 1052 C 96.5244 1.50916 -0.866044 0
M  V30 1053 O 97.7004 1.63918 -1.17016 0
M  V30 1054 C 94.7654 2.61569 -2.27558 0
M  V30 1055 C 93.8264 2.47625 -3.50685 0
M  V30 1056 C 93.0594 3.74132 -3.80606 0
M  V30 1057 O 93.2824 4.77438 -3.12104 0
M  V30 1058 O 92.2164 3.70849 -4.74083 0
M  V30 1059 H 96.0424 0.977855 -2.87527 0
M  V30 1060 H 93.6274 0.418358 -1.43423 0
M  V30 1061 H 95.5094 3.40012 -2.48938 0
M  V30 1062 H 94.1844 2.92178 -1.39332 0
M  V30 1063 H 93.0914 1.67361 -3.34576 0
M  V30 1064 H 94.4244 2.21954 -4.39315 0
M  V30 1065 N 96.0765 1.50051 0.48192 0
M  V30 1066 C 97.3255 1.59741 1.23149 0
M  V30 1067 C 97.6385 0.298163 1.93314 0
M  V30 1068 O 98.8445 0.273835 2.70116 0
M  V30 1069 C 97.3005 2.81926 2.23708 0
M  V30 1070 C 96.9085 4.18685 1.59396 0
M  V30 1071 C 98.6525 3.00956 2.99375 0
M  V30 1072 C 96.5595 5.3207 2.58178 0
M  V30 1073 H 95.4895 0.594838 0.46334 0
M  V30 1074 H 98.1405 1.76467 0.503169 0
M  V30 1075 H 96.5225 2.58736 2.99786 0
M  V30 1076 H 97.6965 4.52088 0.891811 0
M  V30 1077 H 96.0115 4.05171 0.960503 0
M  V30 1078 H 98.6085 3.82836 3.73283 0
M  V30 1079 H 98.9515 2.12258 3.58123 0
M  V30 1080 H 99.4845 3.24277 2.30411 0
M  V30 1081 H 96.2235 6.22888 2.04184 0
M  V30 1082 H 95.7435 5.03098 3.26577 0
M  V30 1083 H 97.4225 5.62196 3.20225 0
M  V30 1084 N 97.5546 -0.734337 1.39446 0
M  V30 1085 C 98.5176 -1.83004 1.37994 0
M  V30 1086 C 99.5176 -1.58397 0.276938 0
M  V30 1087 O 100.708 -1.65785 0.534875 0
M  V30 1088 C 97.8396 -3.20802 1.1532 0
M  V30 1089 H 99.0326 -1.85694 2.35494 0
M  V30 1090 H 96.5856 -0.938059 1.25021 0
M  V30 1091 H 97.3206 -3.23772 0.185036 0
M  V30 1092 H 97.1056 -3.4006 1.95197 0
M  V30 1093 H 98.5956 -4.00862 1.17046 0
M  V30 1094 N 99.0327 -1.24633 -0.964593 0
M  V30 1095 C 100.449 -1.01239 -1.2338 0
M  V30 1096 C 100.649 0.2769 -1.99588 0
M  V30 1097 O 99.7047 0.992241 -2.32187 0
M  V30 1098 C 101.018 -2.22937 -2.01791 0
M  V30 1099 C 102.566 -2.27594 -2.14872 0
M  V30 1100 C 103.041 -3.48921 -2.96678 0
M  V30 1101 N 104.532 -3.49257 -3.04259 0
M  V30 1102 C 105.267 -4.39795 -3.67924 0
M  V30 1103 N 104.763 -5.40591 -4.33281 0
M  V30 1104 N 106.556 -4.275 -3.64966 0
M  V30 1105 H 98.7067 -2.0748 -0.454502 0
M  V30 1106 H 100.97 -0.910647 -0.26349 0
M  V30 1107 H 100.676 -3.16587 -1.53184 0
M  V30 1108 H 100.55 -2.25306 -3.02518 0
M  V30 1109 H 102.937 -1.34473 -2.6268 0
M  V30 1110 H 103.018 -2.2925 -1.13482 0
M  V30 1111 H 102.662 -4.42359 -2.49562 0
M  V30 1112 H 102.592 -3.4451 -3.98272 0
M  V30 1113 H 105.083 -2.76337 -2.57771 0
M  V30 1114 H 105.396 -6.05904 -4.79687 0
M  V30 1115 H 103.741 -5.44475 -4.3194 0
M  V30 1116 H 106.932 -3.47987 -3.13086 0
M  V30 1117 H 107.105 -4.98258 -4.14298 0
M  V30 1118 N 100.511 1.16574 -1.06058 0
M  V30 1119 C 101.927 1.3904 -0.783585 0
M  V30 1120 C 102.127 1.91784 0.618145 0
M  V30 1121 O 101.183 2.11511 1.37911 0
M  V30 1122 C 102.496 2.37329 -1.84649 0
M  V30 1123 C 104.044 2.51018 -1.86973 0
M  V30 1124 C 104.519 3.52588 -2.92311 0
M  V30 1125 N 106.01 3.60113 -2.91329 0
M  V30 1126 C 106.745 4.38486 -3.69482 0
M  V30 1127 N 106.241 5.20302 -4.57447 0
M  V30 1128 N 108.034 4.33446 -3.57885 0
M  V30 1129 H 100.185 0.806725 -1.96483 0
M  V30 1130 H 102.448 0.417117 -0.851303 0
M  V30 1131 H 102.154 2.05663 -2.85299 0
M  V30 1132 H 102.028 3.36946 -1.6955 0
M  V30 1133 H 104.415 2.81989 -0.869827 0
M  V30 1134 H 104.496 1.51445 -2.0615 0
M  V30 1135 H 104.14 3.22354 -3.92492 0
M  V30 1136 H 104.07 4.51886 -2.70383 0
M  V30 1137 H 106.561 3.01707 -2.27555 0
M  V30 1138 H 106.874 5.77311 -5.13743 0
M  V30 1139 H 105.219 5.19653 -4.61503 0
M  V30 1140 H 108.41 3.68586 -2.88551 0
M  V30 1141 H 108.583 4.94279 -4.19037 0
M  V30 1142 N 101.989 0.842826 1.3317 0
M  V30 1143 C 102.919 0.294028 2.31641 0
M  V30 1144 C 103.9 -0.600401 1.59151 0
M  V30 1145 O 105.085 -0.523124 1.87022 0
M  V30 1146 C 102.215 -0.528416 3.43257 0
M  V30 1147 C 101.169 0.27056 4.27144 0
M  V30 1148 C 100.495 -0.675881 5.30411 0
M  V30 1149 C 101.795 1.48981 5.00602 0
M  V30 1150 H 103.489 1.11681 2.77791 0
M  V30 1151 H 101.035 0.538478 1.33553 0
M  V30 1152 H 102.988 -0.922674 4.11175 0
M  V30 1153 H 101.712 -1.38445 2.95805 0
M  V30 1154 H 100.371 0.646427 3.60856 0
M  V30 1155 H 100.019 -1.52842 4.79216 0
M  V30 1156 H 99.7189 -0.145374 5.8742 0
M  V30 1157 H 101.243 -1.06757 6.01195 0
M  V30 1158 H 102.657 1.16849 5.61266 0
M  V30 1159 H 101.054 1.95739 5.6728 0
M  V30 1160 H 102.124 2.25746 4.29147 0
M  V30 1161 N 103.467 -1.45747 0.599634 0
M  V30 1162 C 104.43 -2.28917 -0.113835 0
M  V30 1163 C 105.43 -1.3933 -0.802729 0
M  V30 1164 O 106.62 -1.61534 -0.652103 0
M  V30 1165 C 103.752 -3.20152 -1.17114 0
M  V30 1166 H 104.945 -2.93478 0.617289 0
M  V30 1167 H 102.498 -1.52137 0.358327 0
M  V30 1168 H 103.233 -2.60374 -1.93329 0
M  V30 1169 H 103.018 -3.86133 -0.681468 0
M  V30 1170 H 104.508 -3.82708 -1.67105 0
M  V30 1171 N 104.945 -0.338344 -1.53925 0
M  V30 1172 C 105.892 0.520845 -2.24846 0
M  V30 1173 C 106.862 1.09976 -1.24477 0
M  V30 1174 O 108.047 1.13735 -1.53196 0
M  V30 1175 C 105.187 1.6685 -3.02084 0
M  V30 1176 C 104.3 1.11739 -4.17299 0
M  V30 1177 C 103.435 2.23193 -4.82036 0
M  V30 1178 C 102.474 1.65407 -5.89328 0
M  V30 1179 N 101.611 2.70582 -6.47866 0
M  V30 1180 H 106.451 -0.0904881 -2.97863 0
M  V30 1181 H 103.988 -0.0564282 -1.46992 0
M  V30 1182 H 105.946 2.34407 -3.45122 0
M  V30 1183 H 104.576 2.2509 -2.31375 0
M  V30 1184 H 103.628 0.332919 -3.7894 0
M  V30 1185 H 104.94 0.654677 -4.94485 0
M  V30 1186 H 104.094 2.98626 -5.28117 0
M  V30 1187 H 102.833 2.72807 -4.04262 0
M  V30 1188 H 101.838 0.884779 -5.42634 0
M  V30 1189 H 103.063 1.16652 -6.69006 0
M  V30 1190 H 101.009 3.1946 -5.72959 0
M  V30 1191 H 100.926 2.28917 -7.20509 0
M  V30 1192 H 102.194 3.45799 -6.98601 0
M  V30 1193 N 106.423 1.57458 -0.0668435 0
M  V30 1194 C 107.353 2.15468 0.899764 0
M  V30 1195 C 108.334 1.08042 1.31381 0
M  V30 1196 O 109.519 1.36054 1.38574 0
M  V30 1197 C 106.649 2.71232 2.16911 0
M  V30 1198 C 105.603 3.83781 1.89463 0
M  V30 1199 C 104.929 4.26127 3.22986 0
M  V30 1200 C 106.229 5.08238 1.20381 0
M  V30 1201 H 107.923 2.96488 0.416529 0
M  V30 1202 H 105.469 1.4262 0.198908 0
M  V30 1203 H 107.422 3.10458 2.84945 0
M  V30 1204 H 106.146 1.87426 2.67468 0
M  V30 1205 H 104.805 3.45051 1.23836 0
M  V30 1206 H 104.453 3.39249 3.71374 0
M  V30 1207 H 104.153 5.01993 3.05413 0
M  V30 1208 H 105.677 4.67966 3.92225 0
M  V30 1209 H 107.091 5.44811 1.78475 0
M  V30 1210 H 105.488 5.89349 1.13083 0
M  V30 1211 H 106.558 4.84558 0.182153 0
M  V30 1212 N 107.901 -0.206675 1.56239 0
M  V30 1213 C 108.864 -1.23976 1.92776 0
M  V30 1214 C 109.864 -1.39041 0.807729 0
M  V30 1215 O 111.054 -1.37051 1.0753 0
M  V30 1216 C 108.186 -2.61112 2.19165 0
M  V30 1217 H 109.379 -0.927764 2.85189 0
M  V30 1218 H 106.932 -0.447718 1.4975 0
M  V30 1219 H 107.667 -2.97386 1.29352 0
M  V30 1220 H 107.452 -2.51552 3.00772 0
M  V30 1221 H 108.942 -3.35633 2.48476 0
M  V30 1222 N 109.379 -1.50304 -0.473955 0
M  V30 1223 C 110.327 -1.69482 -1.59307 0
M  V30 1224 C 111.321 -0.560669 -1.59853 0
M  V30 1225 O 112.527 -0.741087 -1.64036 0
M  V30 1226 H 108.902 -0.534892 -0.528578 0
M  V30 1227 H 110.873 -2.63364 -1.40293 0
M  V30 1228 C 109.622 -1.80354 -2.97267 0
M  V30 1229 H 108.945 -2.67012 -2.97564 0
M  V30 1230 H 110.385 -1.97798 -3.75036 0
M  V30 1231 C 108.844 -0.55448 -3.32306 0
M  V30 1232 O 109.374 0.307661 -4.0052 0
M  V30 1233 N 107.58 -0.409354 -2.87702 0
M  V30 1234 H 107.127 -1.11196 -2.32364 0
M  V30 1235 H 107.085 0.425223 -3.11511 0
M  V30 1236 N 110.857 0.726932 -1.39834 0
M  V30 1237 C 111.82 1.82269 -1.38962 0
M  V30 1238 C 112.82 1.58248 -0.285334 0
M  V30 1239 O 114.01 1.65499 -0.54366 0
M  V30 1240 C 111.142 3.20186 -1.17019 0
M  V30 1241 H 112.335 1.84443 -2.36476 0
M  V30 1242 H 109.888 0.931416 -1.25516 0
M  V30 1243 H 110.623 3.23669 -0.202204 0
M  V30 1244 H 110.408 3.3902 -1.96998 0
M  V30 1245 H 111.898 4.00235 -1.1917 0
M  V30 1246 N 112.336 1.25143 0.95797 0
M  V30 1247 C 113.747 1.08851 1.51685 0
M  V30 1248 C 114.098 -0.33687 1.93286 0
M  V30 1249 O 113.223 -1.22644 1.7829 0
M  V30 1250 C 113.818 1.96978 2.75654 0
M  V30 1251 C 112.377 1.84881 3.27866 0
M  V30 1252 C 111.524 1.91329 2.0072 0
M  V30 1253 H 114.475 1.38478 0.77522 0
M  V30 1254 H 114.496 1.5078 3.4935 0
M  V30 1255 H 114.008 3.00712 2.45345 0
M  V30 1256 H 112.109 0.840182 3.63004 0
M  V30 1257 H 112.222 2.6951 3.96107 0
M  V30 1258 H 110.586 1.35174 2.15871 0
M  V30 1259 H 111.369 2.96661 1.72764 0
M  V30 1260 N 113.814 -1.1601 1.06675 0
M  V30 1261 C 115.061 -1.86633 0.785781 0
M  V30 1262 C 115.389 -1.81929 -0.687896 0
M  V30 1263 O 114.644 -1.23253 -1.52011 0
M  V30 1264 C 114.943 -3.35547 1.23057 0
M  V30 1265 C 114.609 -3.60448 2.70902 0
M  V30 1266 C 113.271 -3.66954 3.11285 0
M  V30 1267 C 115.623 -3.7071 3.66365 0
M  V30 1268 C 112.951 -3.81225 4.45965 0
M  V30 1269 C 115.303 -3.86503 5.00797 0
M  V30 1270 C 113.967 -3.91252 5.40813 0
M  V30 1271 H 113.237 -0.682937 0.287538 0
M  V30 1272 H 115.884 -1.37146 1.33654 0
M  V30 1273 H 114.189 -3.87193 0.59907 0
M  V30 1274 H 115.886 -3.88583 0.990163 0
M  V30 1275 H 112.476 -3.56021 2.38636 0
M  V30 1276 H 116.66 -3.64991 3.36296 0
M  V30 1277 H 111.916 -3.83155 4.76447 0
M  V30 1278 H 116.09 -3.93385 5.74649 0
M  V30 1279 H 113.717 -4.02062 6.45174 0
M  V30 1280 N 115.292 -0.849877 -1.32721 0
M  V30 1281 C 116.541 -0.447175 -1.96681 0
M  V30 1282 C 116.854 1.00135 -1.68025 0
M  V30 1283 O 118.06 1.50926 -2.25685 0
M  V30 1284 C 116.516 -0.7487 -3.52026 0
M  V30 1285 C 116.124 -2.21264 -3.89546 0
M  V30 1286 C 117.868 -0.413487 -4.22481 0
M  V30 1287 C 115.775 -2.45763 -5.37917 0
M  V30 1288 H 114.705 -0.163486 -0.736063 0
M  V30 1289 H 117.356 -1.03999 -1.51183 0
M  V30 1290 H 115.738 -0.0853727 -3.95908 0
M  V30 1291 H 116.912 -2.91736 -3.56689 0
M  V30 1292 H 115.227 -2.5119 -3.32103 0
M  V30 1293 H 117.824 -0.574017 -5.3161 0
M  V30 1294 H 118.167 0.644492 -4.11281 0
M  V30 1295 H 118.7 -1.03251 -3.84167 0
M  V30 1296 H 115.439 -3.50168 -5.54132 0
M  V30 1297 H 114.959 -1.79864 -5.72197 0
M  V30 1298 H 116.638 -2.29471 -6.0494 0
M  V30 1299 N 116.77 1.45427 -0.607355 0
M  V30 1300 C 117.717 2.3053 0.111625 0
M  V30 1301 C 118.687 1.4209 0.860216 0
M  V30 1302 O 119.872 1.71019 0.845998 0
M  V30 1303 C 117.012 3.26992 1.10319 0
M  V30 1304 C 116.125 4.30535 0.355493 0
M  V30 1305 C 115.26 5.14105 1.33676 0
M  V30 1306 C 114.299 6.09376 0.576862 0
M  V30 1307 N 113.436 6.85727 1.5074 0
M  V30 1308 H 118.276 2.91477 -0.620093 0
M  V30 1309 H 115.813 1.43631 -0.317594 0
M  V30 1310 H 117.771 3.81385 1.6912 0
M  V30 1311 H 116.401 2.67799 1.80232 0
M  V30 1312 H 115.453 3.78805 -0.348023 0
M  V30 1313 H 116.765 4.98235 -0.237423 0
M  V30 1314 H 115.919 5.72897 1.99684 0
M  V30 1315 H 114.658 4.46423 1.9636 0
M  V30 1316 H 113.663 5.49715 -0.0968519 0
M  V30 1317 H 114.888 6.79085 -0.0449341 0
M  V30 1318 H 112.834 6.20735 2.12189 0
M  V30 1319 H 112.751 7.49778 0.967913 0
M  V30 1320 H 114.019 7.4906 2.15706 0
M  V30 1321 N 118.248 0.346503 1.53744 0
M  V30 1322 C 119.494 -0.249473 2.0126 0
M  V30 1323 C 119.827 -1.49965 1.23386 0
M  V30 1324 O 119.102 -1.91811 0.32229 0
M  V30 1325 C 119.385 -0.560643 3.55709 0
M  V30 1326 C 119.238 0.701836 4.44291 0
M  V30 1327 C 120.557 -1.36905 4.18264 0
M  V30 1328 H 117.676 -0.0891987 0.731582 0
M  V30 1329 H 120.318 0.467624 1.84156 0
M  V30 1330 H 118.468 -1.17156 3.70414 0
M  V30 1331 H 120.14 1.33974 4.41417 0
M  V30 1332 H 118.383 1.32612 4.13033 0
M  V30 1333 H 119.054 0.43933 5.50249 0
M  V30 1334 H 121.53 -0.852448 4.07275 0
M  V30 1335 H 120.406 -1.55553 5.26398 0
M  V30 1336 H 120.667 -2.37203 3.73078 0
M  V30 1337 N 119.726 -1.57421 0.075193 0
M  V30 1338 C 120.636 -2.1642 -0.905511 0
M  V30 1339 C 121.652 -1.12828 -1.32461 0
M  V30 1340 O 122.828 -1.45109 -1.39661 0
M  V30 1341 C 119.893 -2.71693 -2.15369 0
M  V30 1342 C 118.954 -3.90171 -1.79068 0
M  V30 1343 C 118.187 -4.42798 -2.97936 0
M  V30 1344 O 118.41 -3.94416 -4.12058 0
M  V30 1345 O 117.344 -5.34085 -2.77555 0
M  V30 1346 H 121.17 -3.00588 -0.433626 0
M  V30 1347 H 118.755 -1.48664 -0.148067 0
M  V30 1348 H 120.637 -3.07104 -2.88557 0
M  V30 1349 H 119.312 -1.90582 -2.61649 0
M  V30 1350 H 118.219 -3.59606 -1.03122 0
M  V30 1351 H 119.552 -4.72584 -1.37569 0
M  V30 1352 N 121.204 0.198386 -1.56346 0
M  V30 1353 C 122.167 1.22952 -1.93431 0
M  V30 1354 C 123.167 1.38611 -0.815092 0
M  V30 1355 O 124.357 1.36479 -1.08255 0
M  V30 1356 C 121.489 2.59946 -2.20546 0
M  V30 1357 H 122.682 0.912626 -2.85677 0
M  V30 1358 H 120.235 0.43977 -1.49986 0
M  V30 1359 H 120.97 2.96696 -1.30927 0
M  V30 1360 H 120.755 2.49953 -3.02102 0
M  V30 1361 H 122.245 3.3431 -2.50253 0
M  V30 1362 N 122.682 1.50554 0.465978 0
M  V30 1363 C 123.91 1.65563 1.24083 0
M  V30 1364 C 124.325 0.341051 1.85694 0
M  V30 1365 O 123.682 -0.677543 1.69457 0
M  V30 1366 C 123.733 2.75051 2.34583 0
M  V30 1367 O 123.454 4.01413 1.75497 0
M  V30 1368 C 124.955 3.01078 3.25372 0
M  V30 1369 H 122.175 0.55638 0.375077 0
M  V30 1370 H 124.719 1.96807 0.555624 0
M  V30 1371 H 122.874 2.46486 2.9887 0
M  V30 1372 H 123.288 4.62002 2.48303 0
M  V30 1373 H 124.762 3.81339 3.99105 0
M  V30 1374 H 125.239 2.12349 3.84453 0
M  V30 1375 H 125.845 3.31194 2.66816 0
M  V30 1376 N 124.16 -0.719506 1.40217 0
M  V30 1377 C 125.107 -1.83359 1.40172 0
M  V30 1378 C 126.077 -1.64065 0.259206 0
M  V30 1379 O 127.262 -1.85254 0.456677 0
M  V30 1380 C 124.402 -3.2103 1.26624 0
M  V30 1381 C 123.515 -3.51923 2.50548 0
M  V30 1382 C 122.65 -4.79079 2.29471 0
M  V30 1383 C 121.689 -5.02863 3.48992 0
M  V30 1384 N 120.826 -6.2123 3.27135 0
M  V30 1385 H 125.666 -1.82733 2.35399 0
M  V30 1386 H 123.203 -0.892688 1.16917 0
M  V30 1387 H 125.161 -4.00524 1.16776 0
M  V30 1388 H 123.791 -3.20895 0.350176 0
M  V30 1389 H 122.843 -2.67014 2.70939 0
M  V30 1390 H 124.155 -3.6541 3.39525 0
M  V30 1391 H 123.309 -5.66582 2.16955 0
M  V30 1392 H 122.048 -4.67794 1.37913 0
M  V30 1393 H 121.053 -4.13816 3.6199 0
M  V30 1394 H 122.278 -5.16023 4.41472 0
M  V30 1395 H 120.224 -6.11204 2.38256 0
M  V30 1396 H 120.141 -6.35375 4.09675 0
M  V30 1397 H 121.409 -7.11532 3.18344 0
M  V30 1398 N 125.638 -1.25649 -0.95132 0
M  V30 1399 C 126.885 -1.10594 -1.69633 0
M  V30 1400 C 127.213 0.352515 -1.91279 0
M  V30 1401 O 126.468 1.27601 -1.4838 0
M  V30 1402 C 126.767 -1.80909 -3.08231 0
M  V30 1403 C 126.433 -3.30825 -3.06375 0
M  V30 1404 C 125.095 -3.71722 -3.05576 0
M  V30 1405 C 127.447 -4.26589 -2.99452 0
M  V30 1406 C 124.775 -5.06788 -2.95606 0
M  V30 1407 C 127.127 -5.61683 -2.91024 0
M  V30 1408 C 125.791 -6.01904 -2.88562 0
M  V30 1409 H 125.061 -0.404691 -0.620731 0
M  V30 1410 H 127.708 -1.55964 -1.11119 0
M  V30 1411 H 126.013 -1.27979 -3.70309 0
M  V30 1412 H 127.71 -1.6671 -3.64704 0
M  V30 1413 H 124.3 -2.98287 -3.07771 0
M  V30 1414 H 128.484 -3.95982 -2.99185 0
M  V30 1415 H 123.74 -5.37126 -2.92071 0
M  V30 1416 H 127.914 -6.35578 -2.84629 0
M  V30 1417 H 125.541 -7.06521 -2.80593 0
M  V30 1418 N 127.117 1.15442 -1.07289 0
M  V30 1419 C 128.345 1.90096 -0.81676 0
M  V30 1420 C 128.76 1.7798 0.629966 0
M  V30 1421 O 128.117 1.1313 1.43206 0
M  V30 1422 C 128.168 3.40466 -1.21512 0
M  V30 1423 O 127.889 3.52232 -2.60508 0
M  V30 1424 C 129.39 4.32145 -0.988198 0
M  V30 1425 H 126.61 0.602495 -0.295366 0
M  V30 1426 H 129.154 1.4627 -1.42918 0
M  V30 1427 H 127.309 3.81958 -0.647039 0
M  V30 1428 H 127.723 4.45549 -2.76742 0
M  V30 1429 H 129.197 5.36072 -1.31645 0
M  V30 1430 H 129.674 4.39135 0.0755063 0
M  V30 1431 H 130.28 3.96395 -1.54115 0
M  V30 1432 N 128.595 0.856903 1.32268 0
M  V30 1433 C 129.505 0.306131 2.32594 0
M  V30 1434 C 130.521 -0.577209 1.64147 0
M  V30 1435 O 131.697 -0.477043 1.95669 0
M  V30 1436 C 128.762 -0.494561 3.43154 0
M  V30 1437 C 127.823 0.415186 4.27288 0
M  V30 1438 C 127.056 -0.347387 5.32568 0
M  V30 1439 O 127.279 -1.57708 5.48165 0
M  V30 1440 O 126.213 0.287982 6.01211 0
M  V30 1441 H 130.039 1.13737 2.81598 0
M  V30 1442 H 127.624 0.619902 1.35932 0
M  V30 1443 H 129.506 -0.948944 4.10576 0
M  V30 1444 H 128.181 -1.30257 2.96336 0
M  V30 1445 H 127.088 0.917793 3.62667 0
M  V30 1446 H 128.421 1.18844 4.77637 0
M  V30 1447 N 130.073 -1.45103 0.615059 0
M  V30 1448 C 131.319 -2.02483 0.113347 0
M  V30 1449 C 131.652 -1.48146 -1.25564 0
M  V30 1450 O 130.927 -0.659104 -1.82992 0
M  V30 1451 C 131.21 -3.60005 0.0825278 0
M  V30 1452 C 131.063 -4.2466 1.48271 0
M  V30 1453 C 132.382 -4.35972 -0.601401 0
M  V30 1454 H 129.501 -0.735764 0.0426632 0
M  V30 1455 H 132.143 -1.72868 0.788461 0
M  V30 1456 H 130.293 -3.85367 -0.492378 0
M  V30 1457 H 131.965 -4.10458 2.10527 0
M  V30 1458 H 130.208 -3.82772 2.04127 0
M  V30 1459 H 130.879 -5.336 1.41332 0
M  V30 1460 H 133.355 -4.15947 -0.112666 0
M  V30 1461 H 132.231 -5.45697 -0.592097 0
M  V30 1462 H 132.492 -4.09391 -1.66887 0
M  V30 1463 N 131.551 -0.354651 -1.53558 0
M  V30 1464 C 132.799 0.237972 -2.00694 0
M  V30 1465 C 133.12 1.50173 -1.24391 0
M  V30 1466 O 132.39 1.92673 -0.354135 0
M  V30 1467 H 130.97 0.0909256 -0.741446 0
M  V30 1468 H 133.632 -0.478368 -1.88938 0
M  V30 1469 H 132.728 0.47264 -3.085 0
M  V30 1470 N 133.029 1.57378 -0.0835403 0
M  V30 1471 C 134.259 1.97975 0.590713 0
M  V30 1472 C 134.667 0.961083 1.62972 0
M  V30 1473 O 134.01 -0.0590879 1.83605 0
M  V30 1474 C 134.072 3.34915 1.3066 0
M  V30 1475 C 133.736 4.55069 0.419698 0
M  V30 1476 C 134.733 5.18868 -0.32749 0
M  V30 1477 C 132.418 5.0114 0.341137 0
M  V30 1478 C 134.412 6.27098 -1.14134 0
M  V30 1479 C 132.099 6.0924 -0.476374 0
M  V30 1480 C 133.097 6.72083 -1.21627 0
M  V30 1481 O 132.785 7.781 -2.02028 0
M  V30 1482 H 132.517 0.655818 0.163947 0
M  V30 1483 H 135.071 2.04807 -0.156021 0
M  V30 1484 H 133.301 3.24733 2.09966 0
M  V30 1485 H 134.99 3.60037 1.87424 0
M  V30 1486 H 135.756 4.84211 -0.276459 0
M  V30 1487 H 131.635 4.51996 0.90668 0
M  V30 1488 H 135.179 6.7608 -1.71935 0
M  V30 1489 H 131.076 6.43329 -0.528927 0
M  V30 1490 H 131.844 7.95034 -1.94586 0
M  V30 1491 N 134.507 -0.190092 1.56449 0
M  V30 1492 C 135.753 -0.911052 1.81184 0
M  V30 1493 C 136.086 -1.82699 0.658396 0
M  V30 1494 O 135.361 -1.91491 -0.340775 0
M  V30 1495 C 135.644 -1.72297 3.16205 0
M  V30 1496 C 135.497 -0.831419 4.42049 0
M  V30 1497 C 136.816 -2.69454 3.47969 0
M  V30 1498 H 133.935 -0.32977 0.659106 0
M  V30 1499 H 136.577 -0.178169 1.89163 0
M  V30 1500 H 134.727 -2.34778 3.09534 0
M  V30 1501 H 136.399 -0.220929 4.60771 0
M  V30 1502 H 134.642 -0.138406 4.33579 0
M  V30 1503 H 135.313 -1.43461 5.33032 0
M  V30 1504 H 137.789 -2.17104 3.54972 0
M  V30 1505 H 136.665 -3.23342 4.43555 0
M  V30 1506 H 136.926 -3.48744 2.71717 0
M  V30 1507 N 135.985 -1.50799 -0.457987 0
M  V30 1508 C 137.233 -1.62121 -1.2067 0
M  V30 1509 C 137.554 -0.329793 -1.92191 0
M  V30 1510 O 136.824 0.653409 -1.84682 0
M  V30 1511 H 135.404 -0.597441 -0.448411 0
M  V30 1512 H 138.066 -1.87637 -0.527096 0
M  V30 1513 H 137.162 -2.43882 -1.94751 0
M  V30 1514 N 137.463 0.71206 -1.40597 0
M  V30 1515 C 138.41 1.82613 -1.41142 0
M  V30 1516 C 139.38 1.63925 -0.267903 0
M  V30 1517 O 140.565 1.85009 -0.466495 0
M  V30 1518 C 137.705 3.20354 -1.28324 0
M  V30 1519 C 136.818 3.50589 -2.52411 0
M  V30 1520 C 135.953 4.77855 -2.32009 0
M  V30 1521 C 134.992 5.01005 -3.51654 0
M  V30 1522 N 134.129 6.19487 -3.30425 0
M  V30 1523 H 138.969 1.81482 -2.36365 0
M  V30 1524 H 136.506 0.886475 -1.17388 0
M  V30 1525 H 138.464 3.99899 -1.18899 0
M  V30 1526 H 137.094 3.20705 -0.367189 0
M  V30 1527 H 136.146 2.65573 -2.72351 0
M  V30 1528 H 137.458 3.63604 -3.41458 0
M  V30 1529 H 136.612 5.65424 -2.19956 0
M  V30 1530 H 135.351 4.67056 -1.40392 0
M  V30 1531 H 134.356 4.1189 -3.64179 0
M  V30 1532 H 135.581 5.13674 -4.44202 0
M  V30 1533 H 133.527 6.09932 -2.41494 0
M  V30 1534 H 133.444 6.33194 -4.13039 0
M  V30 1535 H 134.712 7.09834 -3.22113 0
M  V30 1536 N 138.941 1.26152 0.944643 0
M  V30 1537 C 139.851 1.09176 2.07648 0
M  V30 1538 C 140.867 0.0261935 1.7398 0
M  V30 1539 O 142.043 0.229208 2.00091 0
M  V30 1540 C 139.108 0.722915 3.39079 0
M  V30 1541 C 138.169 1.86752 3.86552 0
M  V30 1542 C 137.402 1.51617 5.11711 0
M  V30 1543 O 137.625 0.416331 5.68879 0
M  V30 1544 O 136.559 2.34975 5.54139 0
M  V30 1545 H 140.385 2.0412 2.24875 0
M  V30 1546 H 137.97 1.05182 1.061 0
M  V30 1547 H 139.852 0.529787 4.18056 0
M  V30 1548 H 138.527 -0.197159 3.23099 0
M  V30 1549 H 137.434 2.11558 3.08535 0
M  V30 1550 H 138.767 2.76719 4.07047 0
M  V30 1551 N 140.419 -1.14872 1.07899 0
M  V30 1552 C 141.665 -1.86064 0.806725 0
M  V30 1553 C 141.998 -1.82434 -0.665706 0
M  V30 1554 O 141.273 -1.25138 -1.48899 0
M  V30 1555 C 141.556 -3.34929 1.32267 0
M  V30 1556 C 141.409 -3.47161 2.86006 0
M  V30 1557 C 142.728 -4.29863 0.943717 0
M  V30 1558 H 139.847 -0.675591 0.294526 0
M  V30 1559 H 142.489 -1.34925 1.33773 0
M  V30 1560 H 140.639 -3.78611 0.870974 0
M  V30 1561 H 142.311 -3.12302 3.39507 0
M  V30 1562 H 140.554 -2.88539 3.23925 0
M  V30 1563 H 141.225 -4.51777 3.17177 0
M  V30 1564 H 143.701 -3.9417 1.33302 0
M  V30 1565 H 142.577 -5.32494 1.33198 0
M  V30 1566 H 142.838 -4.41846 -0.149796 0
M  V30 1567 N 141.898 -0.863906 -1.31812 0
M  V30 1568 C 143.175 -0.39275 -1.91616 0
M  V30 1569 C 143.555 1.12461 -1.7865 0
M  V30 1570 O 142.903 1.95045 -1.19037 0
M  V30 1571 C 143.113 -0.867385 -3.38049 0
M  V30 1572 C 144.461 -0.889966 -4.15168 0
M  V30 1573 O 145.485 -0.812635 -3.46806 0
M  V30 1574 O 144.344 -1.00079 -5.37258 0
M  V30 1575 H 141.438 -0.116358 -0.818773 0
M  V30 1576 H 143.984 -0.951418 -1.40521 0
M  V30 1577 H 142.756 -1.91081 -3.41473 0
M  V30 1578 H 142.379 -0.286687 -3.96565 0
M  V30 1579 N 143.376 1.44774 -0.622745 0
M  V30 1580 C 144.601 2.06999 -0.128968 0
M  V30 1581 C 145.026 1.4617 1.1839 0
M  V30 1582 O 144.384 0.560007 1.72434 0
M  V30 1583 C 144.432 3.60595 -0.0188351 0
M  V30 1584 O 143.536 3.99398 1.02739 0
M  V30 1585 H 142.877 0.659047 -0.0809544 0
M  V30 1586 H 145.407 1.85784 -0.85705 0
M  V30 1587 H 145.417 4.07627 0.174476 0
M  V30 1588 H 144.092 4.04252 -0.977384 0
M  V30 1589 H 142.669 3.64011 0.809326 0
M  V30 1590 N 144.854 0.36279 1.53368 0
M  V30 1591 C 146.103 -0.22888 2.00397 0
M  V30 1592 C 146.416 -1.50096 1.25421 0
M  V30 1593 O 147.622 -2.17106 1.63025 0
M  V30 1594 C 146.078 -0.458417 3.56969 0
M  V30 1595 C 145.686 0.798877 4.4082 0
M  V30 1596 C 147.43 -1.00789 4.12361 0
M  V30 1597 C 145.337 0.539078 5.88938 0
M  V30 1598 H 144.267 -0.089305 0.748693 0
M  V30 1599 H 146.918 0.481099 1.77081 0
M  V30 1600 H 145.3 -1.22959 3.76427 0
M  V30 1601 H 146.474 1.57262 4.33134 0
M  V30 1602 H 144.789 1.27137 3.96516 0
M  V30 1603 H 147.386 -1.21754 5.20653 0
M  V30 1604 H 147.729 -1.9692 3.66781 0
M  V30 1605 H 148.262 -0.296961 3.9669 0
M  V30 1606 H 145.001 1.47064 6.3879 0
M  V30 1607 H 144.521 -0.196222 5.99479 0
M  V30 1608 H 146.2 0.163542 6.46793 0
M  V30 1609 N 146.332 -1.57332 0.0918853 0
M  V30 1610 C 147.581 -1.93412 -0.572249 0
M  V30 1611 C 147.894 -0.975515 -1.69538 0
M  V30 1612 O 149.1 -1.22991 -2.42045 0
M  V30 1613 C 147.556 -3.43648 -1.0693 0
M  V30 1614 C 147.164 -4.47994 0.0239049 0
M  V30 1615 C 148.908 -3.88695 -1.70635 0
M  V30 1616 C 146.815 -5.89381 -0.488319 0
M  V30 1617 H 145.745 -0.721939 -0.217532 0
M  V30 1618 H 148.396 -1.82735 0.167369 0
M  V30 1619 H 146.778 -3.49466 -1.8625 0
M  V30 1620 H 147.952 -4.53815 0.799277 0
M  V30 1621 H 146.267 -4.12536 0.565946 0
M  V30 1622 H 148.864 -4.91725 -2.10025 0
M  V30 1623 H 149.207 -3.27166 -2.57426 0
M  V30 1624 H 149.74 -3.85564 -0.979023 0
M  V30 1625 H 146.479 -6.54602 0.342906 0
M  V30 1626 H 145.999 -5.87037 -1.23077 0
M  V30 1627 H 147.678 -6.39863 -0.958317 0
M  V30 1628 N 147.81 0.181792 -1.56548 0
M  V30 1629 C 149.226 0.53316 -1.50431 0
M  V30 1630 C 149.426 1.85184 -0.794297 0
M  V30 1631 O 148.482 2.50058 -0.350318 0
M  V30 1632 C 149.795 0.575597 -2.9514 0
M  V30 1633 C 151.343 0.663519 -3.05886 0
M  V30 1634 C 151.818 0.736946 -4.52032 0
M  V30 1635 N 153.309 0.800118 -4.56237 0
M  V30 1636 C 154.044 0.877327 -5.66649 0
M  V30 1637 N 153.54 0.916016 -6.86718 0
M  V30 1638 N 155.333 0.915542 -5.54594 0
M  V30 1639 H 147.484 -0.683025 -2.01118 0
M  V30 1640 H 149.747 -0.244988 -0.915797 0
M  V30 1641 H 149.453 -0.324482 -3.502 0
M  V30 1642 H 149.327 1.42572 -3.49218 0
M  V30 1643 H 151.714 1.55403 -2.50867 0
M  V30 1644 H 151.795 -0.21307 -2.54911 0
M  V30 1645 H 151.439 -0.149262 -5.07681 0
M  V30 1646 H 151.369 1.62953 -5.00753 0
M  V30 1647 H 153.86 0.778926 -3.69785 0
M  V30 1648 H 154.173 0.975813 -7.66614 0
M  V30 1649 H 152.518 0.884469 -6.89349 0
M  V30 1650 H 155.709 0.882245 -4.59711 0
M  V30 1651 H 155.882 0.972253 -6.40665 0
M  V30 1652 N 149.288 1.51039 0.449983 0
M  V30 1653 C 150.565 1.53612 1.21089 0
M  V30 1654 C 150.945 0.292997 2.09057 0
M  V30 1655 O 150.293 -0.72259 2.16774 0
M  V30 1656 C 150.503 2.84337 2.0237 0
M  V30 1657 C 151.851 3.35807 2.59843 0
M  V30 1658 O 152.875 2.85802 2.12593 0
M  V30 1659 O 151.734 4.23029 3.45989 0
M  V30 1660 H 148.828 0.617057 0.550608 0
M  V30 1661 H 151.374 1.63344 0.460082 0
M  V30 1662 H 150.146 3.66278 1.37681 0
M  V30 1663 H 149.769 2.77708 2.84542 0
M  V30 1664 N 150.766 -0.704594 1.40972 0
M  V30 1665 C 151.696 -1.83124 1.44872 0
M  V30 1666 C 152.677 -1.67281 0.30838 0
M  V30 1667 O 153.862 -1.87149 0.518556 0
M  V30 1668 C 150.992 -3.21181 1.32136 0
M  V30 1669 C 149.946 -3.51714 2.43888 0
M  V30 1670 C 149.272 -4.89032 2.16222 0
M  V30 1671 C 150.572 -3.516 3.86232 0
M  V30 1672 H 152.266 -1.80117 2.39161 0
M  V30 1673 H 149.812 -0.865145 1.15114 0
M  V30 1674 H 151.765 -3.99702 1.33479 0
M  V30 1675 H 150.489 -3.24791 0.343279 0
M  V30 1676 H 149.148 -2.75539 2.41813 0
M  V30 1677 H 148.796 -4.89256 1.16778 0
M  V30 1678 H 148.496 -5.10426 2.911 0
M  V30 1679 H 150.02 -5.69873 2.19265 0
M  V30 1680 H 151.434 -4.2014 3.9007 0
M  V30 1681 H 149.831 -3.84523 4.60719 0
M  V30 1682 H 150.901 -2.50757 4.15029 0
M  V30 1683 N 152.244 -1.26651 -0.937939 0
M  V30 1684 C 153.472 -1.15173 -1.7188 0
M  V30 1685 C 153.887 0.292668 -1.86518 0
M  V30 1686 O 153.244 1.20014 -1.37488 0
M  V30 1687 C 153.295 -1.81925 -3.12387 0
M  V30 1688 O 153.016 -3.2072 -2.98446 0
M  V30 1689 C 154.517 -1.76442 -4.06673 0
M  V30 1690 H 151.737 -0.400911 -0.538063 0
M  V30 1691 H 154.281 -1.67332 -1.1756 0
M  V30 1692 H 152.436 -1.33696 -3.63599 0
M  V30 1693 H 152.85 -3.53802 -3.872 0
M  V30 1694 H 154.324 -2.27781 -5.02812 0
M  V30 1695 H 154.801 -0.731608 -4.33064 0
M  V30 1696 H 155.407 -2.24238 -3.61382 0
M  V30 1697 N 153.722 1.14298 -1.08507 0
M  V30 1698 C 154.999 1.81544 -0.728088 0
M  V30 1699 C 155.379 1.95838 0.78808 0
M  V30 1700 O 154.727 1.51904 1.70697 0
M  V30 1701 C 154.937 3.17169 -1.45619 0
M  V30 1702 C 156.285 3.9265 -1.61591 0
M  V30 1703 O 157.309 3.26762 -1.41793 0
M  V30 1704 O 156.168 5.10807 -1.94263 0
M  V30 1705 H 153.262 0.78491 -0.260471 0
M  V30 1706 H 155.808 1.21307 -1.18671 0
M  V30 1707 H 154.58 3.01934 -2.489 0
M  V30 1708 H 154.203 3.851 -0.989124 0
M  V30 1709 N 155.201 0.870884 1.31352 0
M  V30 1710 C 156.164 0.332243 2.26779 0
M  V30 1711 C 157.164 -0.517302 1.52252 0
M  V30 1712 O 158.354 -0.326477 1.71113 0
M  V30 1713 C 155.486 -0.528066 3.36785 0
M  V30 1714 H 156.679 1.17469 2.75937 0
M  V30 1715 H 154.232 0.64655 1.423 0
M  V30 1716 H 154.967 -1.39167 2.92922 0
M  V30 1717 H 154.752 0.0802582 3.92018 0
M  V30 1718 H 156.242 -0.897179 4.07849 0
M  V30 1719 N 156.679 -1.44442 0.630414 0
M  V30 1720 C 157.642 -2.29107 -0.0652523 0
M  V30 1721 C 158.642 -1.41002 -0.772995 0
M  V30 1722 O 159.832 -1.62881 -0.617692 0
M  V30 1723 C 156.964 -3.22564 -1.10296 0
M  V30 1724 H 158.157 -2.92103 0.679401 0
M  V30 1725 H 155.71 -1.51343 0.390517 0
M  V30 1726 H 156.445 -2.64416 -1.87762 0
M  V30 1727 H 156.23 -3.87491 -0.59941 0
M  V30 1728 H 157.72 -3.86167 -1.5895 0
M  V30 1729 N 158.157 -0.370918 -1.53173 0
M  V30 1730 C 159.403 0.217423 -2.01631 0
M  V30 1731 C 159.736 1.47983 -1.25756 0
M  V30 1732 O 159.011 1.91274 -0.352764 0
M  V30 1733 C 159.294 0.503982 -3.56556 0
M  V30 1734 C 159.147 -0.77243 -4.43118 0
M  V30 1735 C 160.466 1.30234 -4.20389 0
M  V30 1736 H 157.585 0.0775486 -0.732909 0
M  V30 1737 H 160.227 -0.496863 -1.83388 0
M  V30 1738 H 158.377 1.11248 -3.72231 0
M  V30 1739 H 160.049 -1.4098 -4.39229 0
M  V30 1740 H 158.292 -1.39167 -4.10871 0
M  V30 1741 H 158.963 -0.526815 -5.4948 0
M  V30 1742 H 161.439 0.787546 -4.08579 0
M  V30 1743 H 160.315 1.47158 -5.28806 0
M  V30 1744 H 160.576 2.31237 -3.76805 0
M  V30 1745 N 159.635 1.57281 -0.100228 0
M  V30 1746 C 160.582 2.14305 0.856858 0
M  V30 1747 C 161.552 1.06296 1.27634 0
M  V30 1748 O 162.737 1.34109 1.35718 0
M  V30 1749 C 159.877 2.73184 2.10866 0
M  V30 1750 C 158.99 3.95442 1.73925 0
M  V30 1751 C 158.125 4.42468 2.93931 0
M  V30 1752 C 157.164 5.57303 2.5314 0
M  V30 1753 N 156.301 5.99158 3.65997 0
M  V30 1754 H 161.141 2.95772 0.363726 0
M  V30 1755 H 158.678 1.46139 0.167858 0
M  V30 1756 H 160.636 3.05442 2.84185 0
M  V30 1757 H 159.266 1.94437 2.57671 0
M  V30 1758 H 158.318 3.69464 0.905554 0
M  V30 1759 H 159.63 4.78769 1.39935 0
M  V30 1760 H 158.784 4.76537 3.75496 0
M  V30 1761 H 157.523 3.58052 3.31134 0
M  V30 1762 H 156.528 5.22857 1.70003 0
M  V30 1763 H 157.753 6.43471 2.17075 0
M  V30 1764 H 155.699 5.17687 4.02909 0
M  V30 1765 H 155.616 6.77295 3.35869 0
M  V30 1766 H 156.884 6.3786 4.48057 0
M  V30 1767 N 161.113 -0.173488 1.56642 0
M  V30 1768 C 162.046 -1.24353 1.91342 0
M  V30 1769 C 163.024 -1.4289 0.775965 0
M  V30 1770 O 164.208 -1.57932 1.02907 0
M  V30 1771 C 161.335 -2.60683 2.16245 0
M  V30 1772 C 160.381 -2.58894 3.38934 0
M  V30 1773 S 161.214 -2.0819 4.93373 0
M  V30 1774 C 162.37 -3.46302 5.21369 0
M  V30 1775 H 162.603 -0.947345 2.81803 0
M  V30 1776 H 160.136 -0.377958 1.49703 0
M  V30 1777 H 162.094 -3.39149 2.31275 0
M  V30 1778 H 160.755 -2.87502 1.26496 0
M  V30 1779 H 159.948 -3.59188 3.53553 0
M  V30 1780 H 159.55 -1.88522 3.2301 0
M  V30 1781 H 161.842 -4.42287 5.13214 0
M  V30 1782 H 162.785 -3.3656 6.23003 0
M  V30 1783 H 163.193 -3.42214 4.48943 0
M  V30 1784 N 162.591 -1.51276 -0.441967 0
M  V30 1785 C 163.837 -1.63958 -1.19355 0
M  V30 1786 C 164.17 -0.352543 -1.90973 0
M  V30 1787 O 163.445 0.647627 -1.83401 0
M  V30 1788 C 163.728 -2.83979 -2.21422 0
M  V30 1789 C 163.581 -4.22646 -1.53918 0
M  V30 1790 C 164.9 -2.99521 -3.22451 0
M  V30 1791 H 162.019 -0.596709 -0.432559 0
M  V30 1792 H 164.661 -1.83748 -0.483398 0
M  V30 1793 H 162.811 -2.67237 -2.81987 0
M  V30 1794 H 164.483 -4.51045 -0.967256 0
M  V30 1795 H 162.726 -4.25558 -0.841615 0
M  V30 1796 H 163.397 -5.02609 -2.28229 0
M  V30 1797 H 165.873 -3.14944 -2.71937 0
M  V30 1798 H 164.749 -3.85072 -3.91166 0
M  V30 1799 H 165.01 -2.11391 -3.88287 0
M  V30 1800 N 164.069 0.697108 -1.41344 0
M  V30 1801 C 165.485 1.00751 -1.2378 0
M  V30 1802 C 165.685 2.01105 -0.126066 0
M  V30 1803 O 164.741 2.47295 0.51004 0
M  V30 1804 C 166.054 1.53359 -2.58653 0
M  V30 1805 C 167.602 1.6525 -2.65822 0
M  V30 1806 C 168.077 2.2126 -4.01009 0
M  V30 1807 N 169.568 2.28622 -4.02847 0
M  V30 1808 C 170.303 2.72984 -5.04249 0
M  V30 1809 N 169.799 3.16962 -6.16041 0
M  V30 1810 N 171.592 2.72534 -4.91611 0
M  V30 1811 H 163.743 0.0322662 -2.12375 0
M  V30 1812 H 166.006 0.0768853 -0.944877 0
M  V30 1813 H 165.712 0.870773 -3.4075 0
M  V30 1814 H 165.586 2.51597 -2.81032 0
M  V30 1815 H 167.973 2.30644 -1.84086 0
M  V30 1816 H 168.054 0.655614 -2.47256 0
M  V30 1817 H 167.698 1.56482 -4.83193 0
M  V30 1818 H 167.628 3.21698 -4.16915 0
M  V30 1819 H 170.119 1.97585 -3.22131 0
M  V30 1820 H 170.432 3.49434 -6.89287 0
M  V30 1821 H 168.777 3.14875 -6.1958 0
M  V30 1822 H 171.968 2.37525 -4.0336 0
M  V30 1823 H 172.141 3.06789 -5.70775 0
M  V30 1824 N 165.547 1.27147 0.931209 0
M  V30 1825 C 166.793 1.13446 1.68101 0
M  V30 1826 C 167.126 -0.319628 1.91552 0
M  V30 1827 O 166.401 -1.23407 1.50336 0
M  V30 1828 C 166.684 1.91482 3.0497 0
M  V30 1829 C 166.537 3.44855 2.88782 0
M  V30 1830 C 167.856 1.71651 4.05246 0
M  V30 1831 H 164.975 0.413498 0.610072 0
M  V30 1832 H 167.617 1.56261 1.08086 0
M  V30 1833 H 165.767 1.55095 3.56199 0
M  V30 1834 H 167.439 3.9105 2.44698 0
M  V30 1835 H 165.682 3.71373 2.24198 0
M  V30 1836 H 166.353 3.94694 3.85902 0
M  V30 1837 H 168.829 2.0337 3.63015 0
M  V30 1838 H 167.705 2.28651 4.99009 0
M  V30 1839 H 167.966 0.663555 4.37092 0
M  V30 1840 N 167.025 -1.13721 1.09112 0
M  V30 1841 C 167.957 -2.1871 0.685467 0
M  V30 1842 C 168.97 -1.60527 -0.271068 0
M  V30 1843 O 170.159 -1.78407 -0.0576148 0
M  V30 1844 C 167.259 -3.38898 -0.0111255 0
M  V30 1845 C 166.432 -4.26597 0.966131 0
M  V30 1846 C 165.491 -5.25324 0.303539 0
M  V30 1847 O 164.517 -5.61213 0.950177 0
M  V30 1848 N 165.719 -5.72779 -0.943651 0
M  V30 1849 H 168.484 -2.54126 1.58871 0
M  V30 1850 H 166.045 -1.29012 0.978143 0
M  V30 1851 H 168.037 -4.02014 -0.465517 0
M  V30 1852 H 166.607 -3.01747 -0.816565 0
M  V30 1853 H 165.827 -3.60306 1.59917 0
M  V30 1854 H 167.115 -4.82048 1.6281 0
M  V30 1855 H 166.513 -5.45762 -1.48862 0
M  V30 1856 H 165.07 -6.37847 -1.34142 0
M  V30 1857 N 168.503 -0.877838 -1.30888 0
M  V30 1858 C 169.466 -0.344265 -2.266 0
M  V30 1859 C 170.466 0.50922 -1.52524 0
M  V30 1860 O 171.656 0.317398 -1.71284 0
M  V30 1861 C 168.788 0.510198 -3.37061 0
M  V30 1862 H 169.981 -1.1893 -2.7531 0
M  V30 1863 H 167.534 -0.654088 -1.41956 0
M  V30 1864 H 168.269 1.37612 -2.93655 0
M  V30 1865 H 168.054 -0.101047 -3.9197 0
M  V30 1866 H 169.544 0.875537 -4.08319 0
M  V30 1867 N 169.982 1.44106 -0.638065 0
M  V30 1868 C 171.231 2.01194 -0.142744 0
M  V30 1869 C 171.544 1.50835 1.24532 0
M  V30 1870 O 172.75 2.00096 1.83504 0
M  V30 1871 C 171.206 3.59319 -0.20442 0
M  V30 1872 C 170.814 4.18674 -1.59423 0
M  V30 1873 C 172.558 4.23854 0.234079 0
M  V30 1874 C 170.465 5.69045 -1.61065 0
M  V30 1875 H 169.395 0.752367 -0.0495998 0
M  V30 1876 H 172.046 1.65246 -0.797881 0
M  V30 1877 H 170.428 3.92598 0.517946 0
M  V30 1878 H 171.602 3.96921 -2.34074 0
M  V30 1879 H 169.917 3.66453 -1.97741 0
M  V30 1880 H 172.514 5.34155 0.241443 0
M  V30 1881 H 172.857 3.96688 1.2627 0
M  V30 1882 H 173.39 3.95403 -0.436025 0
M  V30 1883 H 170.129 6.00956 -2.61787 0
M  V30 1884 H 169.649 5.929 -0.90718 0
M  V30 1885 H 171.328 6.32809 -1.34766 0
M  V30 1886 N 171.46 0.379036 1.52974 0
M  V30 1887 C 172.37 -0.468639 2.29872 0
M  V30 1888 C 173.386 -1.08067 1.36373 0
M  V30 1889 O 174.562 -1.08871 1.69438 0
M  V30 1890 C 171.627 -1.58594 3.083 0
M  V30 1891 C 170.688 -1.00007 4.17489 0
M  V30 1892 C 169.921 -2.06413 4.92168 0
M  V30 1893 O 170.144 -3.27751 4.66835 0
M  V30 1894 O 169.078 -1.68717 5.7777 0
M  V30 1895 H 172.904 0.157508 3.03291 0
M  V30 1896 H 170.489 0.143035 1.48714 0
M  V30 1897 H 172.371 -2.23525 3.57232 0
M  V30 1898 H 171.046 -2.19724 2.37703 0
M  V30 1899 H 169.953 -0.314299 3.72777 0
M  V30 1900 H 171.286 -0.433135 4.90291 0
M  V30 1901 N 172.938 -1.57226 0.108567 0
M  V30 1902 C 173.885 -2.14756 -0.845481 0
M  V30 1903 C 174.855 -1.06971 -1.27068 0
M  V30 1904 O 176.04 -1.34827 -1.35005 0
M  V30 1905 C 173.18 -2.74298 -2.09415 0
M  V30 1906 C 172.293 -3.96358 -1.71826 0
M  V30 1907 C 171.428 -4.44021 -2.9158 0
M  V30 1908 C 170.467 -5.58637 -2.50181 0
M  V30 1909 N 169.604 -6.01091 -3.62814 0
M  V30 1910 H 174.444 -2.95961 -0.348035 0
M  V30 1911 H 171.981 -1.46226 -0.160106 0
M  V30 1912 H 173.939 -3.06945 -2.82561 0
M  V30 1913 H 172.569 -1.95801 -2.56636 0
M  V30 1914 H 171.621 -3.69939 -0.885947 0
M  V30 1915 H 172.933 -4.79504 -1.37394 0
M  V30 1916 H 172.087 -4.78522 -3.72963 0
M  V30 1917 H 170.826 -3.59803 -3.29231 0
M  V30 1918 H 169.831 -5.23751 -1.67228 0
M  V30 1919 H 171.056 -6.44613 -2.13659 0
M  V30 1920 H 169.002 -5.19817 -4.00158 0
M  V30 1921 H 168.919 -6.79066 -3.32273 0
M  V30 1922 H 170.187 -6.40227 -4.44668 0
M  V30 1923 N 174.416 0.165178 -1.56732 0
M  V30 1924 C 175.364 1.22369 -1.97809 0
M  V30 1925 C 176.358 1.45488 -0.867741 0
M  V30 1926 O 177.564 1.45995 -1.05288 0
M  V30 1927 H 173.939 0.411486 -0.629431 0
M  V30 1928 H 175.91 0.850425 -2.86025 0
M  V30 1929 C 174.659 2.55403 -2.35934 0
M  V30 1930 H 173.982 2.38438 -3.20916 0
M  V30 1931 H 175.422 3.2814 -2.68514 0
M  V30 1932 C 173.881 3.14611 -1.20506 0
M  V30 1933 O 174.411 3.98626 -0.496016 0
M  V30 1934 N 172.617 2.7379 -0.97403 0
M  V30 1935 H 172.164 2.0557 -1.55238 0
M  V30 1936 H 172.122 3.1374 -0.203573 0
M  V30 1937 N 175.894 1.51508 0.433938 0
M  V30 1938 C 177.31 1.39759 0.770682 0
M  V30 1939 C 177.51 0.482594 1.95636 0
M  V30 1940 O 176.566 -0.0609691 2.52426 0
M  V30 1941 C 177.879 2.81851 1.04787 0
M  V30 1942 C 179.427 2.91025 1.1521 0
M  V30 1943 C 179.902 4.34032 1.46219 0
M  V30 1944 N 181.393 4.37154 1.53136 0
M  V30 1945 C 182.128 5.4484 1.78709 0
M  V30 1946 N 181.624 6.62682 2.02051 0
M  V30 1947 N 183.417 5.32324 1.80519 0
M  V30 1948 H 175.568 2.09548 -0.346892 0
M  V30 1949 H 177.831 0.943446 -0.0928074 0
M  V30 1950 H 177.537 3.50815 0.249304 0
M  V30 1951 H 177.411 3.21386 1.97461 0
M  V30 1952 H 179.798 2.22257 1.94128 0
M  V30 1953 H 179.879 2.54983 0.204281 0
M  V30 1954 H 179.523 5.03351 0.678274 0
M  V30 1955 H 179.453 4.6759 2.42212 0
M  V30 1956 H 181.944 3.52197 1.36987 0
M  V30 1957 H 182.257 7.40543 2.20943 0
M  V30 1958 H 180.602 6.65791 1.99366 0
M  V30 1959 H 183.793 4.39246 1.61805 0
M  V30 1960 H 183.966 6.16328 2.00111 0
M  V30 1961 N 177.372 -0.689602 1.41712 0
M  V30 1962 C 178.602 -1.47613 1.44548 0
M  V30 1963 C 179.01 -1.89132 0.0509034 0
M  V30 1964 O 178.353 -1.57741 -0.94146 0
M  V30 1965 C 178.415 -2.76596 2.2964 0
M  V30 1966 C 178.079 -2.57245 3.77722 0
M  V30 1967 C 179.076 -2.22804 4.69739 0
M  V30 1968 C 176.761 -2.727 4.2183 0
M  V30 1969 C 178.755 -2.04064 6.03851 0
M  V30 1970 C 176.442 -2.53576 5.56006 0
M  V30 1971 C 177.44 -2.1931 6.46832 0
M  V30 1972 O 177.128 -2.00359 7.78532 0
M  V30 1973 H 176.86 -0.461227 0.494212 0
M  V30 1974 H 179.414 -0.856045 1.86711 0
M  V30 1975 H 177.644 -3.41033 1.82301 0
M  V30 1976 H 179.333 -3.38424 2.24107 0
M  V30 1977 H 180.099 -2.10473 4.36951 0
M  V30 1978 H 175.978 -2.98353 3.51435 0
M  V30 1979 H 179.522 -1.77241 6.74708 0
M  V30 1980 H 175.419 -2.65499 5.88371 0
M  V30 1981 H 176.187 -2.15075 7.89737 0
M  V30 1982 N 178.85 -1.27639 -0.924453 0
M  V30 1983 C 180.266 -1.05113 -1.20097 0
M  V30 1984 C 180.466 0.213262 -2.00368 0
M  V30 1985 O 179.522 0.91787 -2.35226 0
M  V30 1986 C 180.835 -2.29244 -1.94596 0
M  V30 1987 C 182.383 -2.34315 -2.07522 0
M  V30 1988 C 182.858 -3.58183 -2.85427 0
M  V30 1989 N 184.349 -3.5876 -2.92994 0
M  V30 1990 C 185.084 -4.51277 -3.53746 0
M  V30 1991 N 184.58 -5.54102 -4.15863 0
M  V30 1992 N 186.373 -4.38894 -3.51181 0
M  V30 1993 H 178.524 -2.08821 -0.388264 0
M  V30 1994 H 180.787 -0.918568 -0.234385 0
M  V30 1995 H 180.493 -3.21301 -1.43034 0
M  V30 1996 H 180.367 -2.34816 -2.95197 0
M  V30 1997 H 182.754 -1.42762 -2.58269 0
M  V30 1998 H 182.835 -2.32744 -1.06131 0
M  V30 1999 H 182.479 -4.50074 -2.35363 0
M  V30 2000 H 182.409 -3.57006 -3.8711 0
M  V30 2001 H 184.9 -2.84398 -2.4885 0
M  V30 2002 H 185.213 -6.20859 -4.60168 0
M  V30 2003 H 183.558 -5.57941 -4.144 0
M  V30 2004 H 186.749 -3.57772 -3.01856 0
M  V30 2005 H 186.922 -5.11186 -3.98237 0
M  V30 2006 N 180.328 1.1314 -1.09713 0
M  V30 2007 C 181.291 2.16831 -0.742751 0
M  V30 2008 C 182.291 1.59159 0.229129 0
M  V30 2009 O 183.481 1.74199 0.00693237 0
M  V30 2010 C 180.613 3.40756 -0.0989168 0
M  V30 2011 H 181.806 2.49695 -1.66109 0
M  V30 2012 H 179.359 1.2802 -0.896699 0
M  V30 2013 H 180.094 3.13485 0.830514 0
M  V30 2014 H 179.879 3.83888 -0.798265 0
M  V30 2015 H 181.369 4.17386 0.133524 0
M  V30 2016 N 181.806 0.884767 1.30421 0
M  V30 2017 C 182.716 0.355398 2.31892 0
M  V30 2018 C 183.732 -0.542261 1.65335 0
M  V30 2019 O 184.908 -0.435432 1.96637 0
M  V30 2020 C 181.973 -0.421661 3.44126 0
M  V30 2021 C 181.034 0.505727 4.26311 0
M  V30 2022 C 180.267 -0.234343 5.33185 0
M  V30 2023 O 180.49 -1.46045 5.51386 0
M  V30 2024 O 179.424 0.415443 6.00465 0
M  V30 2025 H 183.25 1.19685 2.79122 0
M  V30 2026 H 180.835 0.648596 1.34587 0
M  V30 2027 H 182.717 -0.861641 4.12497 0
M  V30 2028 H 181.392 -1.23942 2.99032 0
M  V30 2029 H 180.299 0.994513 3.60639 0
M  V30 2030 H 181.632 1.28948 4.75009 0
M  V30 2031 N 183.284 -1.43765 0.645699 0
M  V30 2032 C 184.194 -2.34544 -0.0512957 0
M  V30 2033 C 185.21 -1.53455 -0.82022 0
M  V30 2034 O 186.386 -1.86133 -0.769176 0
M  V30 2035 C 183.451 -3.31636 -1.01087 0
M  V30 2036 C 182.512 -4.2863 -0.239712 0
M  V30 2037 C 181.745 -5.21084 -1.15358 0
M  V30 2038 O 181.968 -5.1779 -2.39269 0
M  V30 2039 O 180.902 -5.98593 -0.630038 0
M  V30 2040 H 184.728 -2.95624 0.695718 0
M  V30 2041 H 182.313 -1.43781 0.405882 0
M  V30 2042 H 184.195 -3.9136 -1.56254 0
M  V30 2043 H 182.87 -2.73069 -1.73824 0
M  V30 2044 H 181.777 -3.72408 0.355356 0
M  V30 2045 H 183.11 -4.90157 0.447936 0
M  V30 2046 N 184.763 -0.387143 -1.52771 0
M  V30 2047 C 185.693 0.440551 -2.29306 0
M  V30 2048 C 186.674 1.06535 -1.32606 0
M  V30 2049 O 187.859 1.07853 -1.61497 0
M  V30 2050 C 184.989 1.56919 -3.09829 0
M  V30 2051 C 183.943 1.07054 -4.14395 0
M  V30 2052 C 183.269 2.29109 -4.83129 0
M  V30 2053 C 184.569 0.140015 -5.22112 0
M  V30 2054 H 186.263 -0.198026 -2.98744 0
M  V30 2055 H 183.809 -0.09668 -1.43675 0
M  V30 2056 H 185.762 2.15503 -3.62128 0
M  V30 2057 H 184.486 2.23532 -2.3812 0
M  V30 2058 H 183.145 0.507247 -3.63074 0
M  V30 2059 H 182.793 2.94227 -4.0797 0
M  V30 2060 H 182.493 1.96406 -5.53804 0
M  V30 2061 H 184.017 2.88339 -5.38231 0
M  V30 2062 H 185.431 0.633978 -5.69784 0
M  V30 2063 H 183.828 -0.0971485 -6.00021 0
M  V30 2064 H 184.898 -0.811711 -4.78058 0
M  V30 2065 N 186.241 1.57166 -0.116904 0
M  V30 2066 C 187.204 2.14039 0.819742 0
M  V30 2067 C 188.204 1.07477 1.19605 0
M  V30 2068 O 189.394 1.33263 1.1219 0
M  V30 2069 C 186.526 2.67891 2.10826 0
M  V30 2070 H 187.719 2.98128 0.325511 0
M  V30 2071 H 185.272 1.55739 0.132312 0
M  V30 2072 H 186.007 1.87384 2.64685 0
M  V30 2073 H 185.792 3.45823 1.84793 0
M  V30 2074 H 187.282 3.11809 2.77785 0
M  V30 2075 N 187.719 -0.156864 1.56817 0
M  V30 2076 C 188.629 -1.2136 2.00771 0
M  V30 2077 C 189.645 -1.47598 0.921459 0
M  V30 2078 O 190.821 -1.59462 1.2302 0
M  V30 2079 C 187.886 -2.52943 2.37109 0
M  V30 2080 C 186.947 -2.34439 3.59634 0
M  V30 2081 C 186.18 -3.59748 3.94229 0
M  V30 2082 O 186.403 -4.65526 3.29609 0
M  V30 2083 O 185.337 -3.52998 4.8752 0
M  V30 2084 H 189.163 -0.870468 2.90958 0
M  V30 2085 H 186.748 -0.36484 1.44877 0
M  V30 2086 H 188.63 -3.30538 2.61386 0
M  V30 2087 H 187.305 -2.86806 1.5008 0
M  V30 2088 H 186.212 -1.54828 3.40557 0
M  V30 2089 H 187.545 -2.05496 4.4725 0
M  V30 2090 N 189.197 -1.51736 -0.425897 0
M  V30 2091 C 190.107 -1.76738 -1.54275 0
M  V30 2092 C 191.123 -0.65211 -1.61318 0
M  V30 2093 O 192.299 -0.935654 -1.78346 0
M  V30 2094 C 189.364 -1.89755 -2.90162 0
M  V30 2095 C 188.425 -3.13633 -2.93143 0
M  V30 2096 C 187.658 -3.2602 -4.22548 0
M  V30 2097 O 187.881 -2.44067 -5.15546 0
M  V30 2098 O 186.815 -4.19071 -4.32046 0
M  V30 2099 H 190.641 -2.71502 -1.36089 0
M  V30 2100 H 188.226 -1.36376 -0.610069 0
M  V30 2101 H 190.108 -2.00236 -3.70788 0
M  V30 2102 H 188.783 -0.981785 -3.08452 0
M  V30 2103 H 187.69 -3.08622 -2.11431 0
M  V30 2104 H 189.023 -4.04936 -2.798 0
M  V30 2105 N 190.675 0.682077 -1.42076 0
M  V30 2106 C 192.091 0.994324 -1.24841 0
M  V30 2107 C 192.291 2.0096 -0.147389 0
M  V30 2108 O 191.347 2.47822 0.483782 0
M  V30 2109 C 192.66 1.50607 -2.60265 0
M  V30 2110 C 194.208 1.62421 -2.6756 0
M  V30 2111 C 194.683 2.16994 -4.03333 0
M  V30 2112 N 196.174 2.24337 -4.0525 0
M  V30 2113 C 196.909 2.67621 -5.07116 0
M  V30 2114 N 196.405 3.1041 -6.19368 0
M  V30 2115 N 198.198 2.67305 -4.94474 0
M  V30 2116 H 190.349 0.00973908 -2.12398 0
M  V30 2117 H 192.612 0.0668593 -0.945639 0
M  V30 2118 H 192.318 0.834583 -3.41654 0
M  V30 2119 H 192.192 2.48602 -2.83684 0
M  V30 2120 H 194.579 2.28678 -1.86521 0
M  V30 2121 H 194.66 0.629352 -2.47937 0
M  V30 2122 H 194.304 1.51349 -4.84826 0
M  V30 2123 H 194.234 3.17258 -4.20304 0
M  V30 2124 H 196.725 1.94158 -3.24209 0
M  V30 2125 H 197.038 3.42103 -6.92954 0
M  V30 2126 H 195.383 3.08286 -6.22884 0
M  V30 2127 H 198.574 2.33233 -4.05857 0
M  V30 2128 H 198.747 3.00718 -5.73997 0
M  V30 2129 N 192.153 1.28127 0.917671 0
M  V30 2130 C 193.402 1.14432 1.66097 0
M  V30 2131 C 193.715 -0.307247 1.93172 0
M  V30 2132 O 194.921 -0.565259 2.65551 0
M  V30 2133 C 193.377 2.00015 2.99202 0
M  V30 2134 C 192.985 3.49889 2.79789 0
M  V30 2135 C 194.729 1.94996 3.77064 0
M  V30 2136 C 192.636 4.27636 4.08511 0
M  V30 2137 H 191.566 0.424662 0.62304 0
M  V30 2138 H 194.217 1.52628 1.01868 0
M  V30 2139 H 192.599 1.54672 3.64544 0
M  V30 2140 H 193.773 4.03162 2.23152 0
M  V30 2141 H 192.088 3.56392 2.15345 0
M  V30 2142 H 194.685 2.50354 4.72469 0
M  V30 2143 H 195.028 0.925819 4.05875 0
M  V30 2144 H 195.561 2.38287 3.18534 0
M  V30 2145 H 192.3 5.30615 3.84874 0
M  V30 2146 H 191.82 3.79137 4.64774 0
M  V30 2147 H 193.499 4.37346 4.76799 0
M  V30 2148 N 193.631 -1.12557 1.10312 0
M  V30 2149 C 194.561 -2.20341 0.772798 0
M  V30 2150 C 195.542 -1.68198 -0.25365 0
M  V30 2151 O 196.727 -1.93831 -0.119699 0
M  V30 2152 C 193.857 -3.46709 0.202443 0
M  V30 2153 C 192.811 -4.11996 1.15943 0
M  V30 2154 C 192.137 -5.328 0.450345 0
M  V30 2155 C 193.437 -4.5828 2.50552 0
M  V30 2156 H 195.131 -2.48229 1.674 0
M  V30 2157 H 192.677 -1.19308 0.806326 0
M  V30 2158 H 194.63 -4.2138 -0.0407752 0
M  V30 2159 H 193.354 -3.18245 -0.734001 0
M  V30 2160 H 192.013 -3.39305 1.38808 0
M  V30 2161 H 191.661 -5.00602 -0.490531 0
M  V30 2162 H 191.361 -5.7743 1.08851 0
M  V30 2163 H 192.885 -6.10219 0.215642 0
M  V30 2164 H 194.299 -5.2433 2.31843 0
M  V30 2165 H 192.696 -5.13683 3.10242 0
M  V30 2166 H 193.766 -3.72329 3.10643 0
M  V30 2167 N 195.109 -0.891671 -1.2995 0
M  V30 2168 C 196.386 -0.433307 -1.9074 0
M  V30 2169 C 196.766 1.08646 -1.80995 0
M  V30 2170 O 196.114 1.92476 -1.23147 0
M  V30 2171 C 196.324 -0.938895 -3.36134 0
M  V30 2172 C 197.672 -0.977829 -4.13187 0
M  V30 2173 O 198.696 -0.886015 -3.45005 0
M  V30 2174 O 197.555 -1.11453 -5.35015 0
M  V30 2175 H 194.649 -0.133699 -0.816121 0
M  V30 2176 H 197.195 -0.981011 -1.38471 0
M  V30 2177 H 195.967 -1.98281 -3.37343 0
M  V30 2178 H 195.59 -0.37074 -3.95868 0
M  V30 2179 N 196.587 1.43421 -0.653314 0
M  V30 2180 C 197.833 2.02111 -0.166992 0
M  V30 2181 C 198.166 1.51423 1.21592 0
M  V30 2182 O 197.441 0.707389 1.8118 0
M  V30 2183 C 197.724 3.5966 -0.177948 0
M  V30 2184 C 197.577 4.20579 -1.59478 0
M  V30 2185 C 198.896 4.37413 0.4856 0
M  V30 2186 H 196.015 0.734374 -0.0621557 0
M  V30 2187 H 198.657 1.70717 -0.834016 0
M  V30 2188 H 196.807 3.86537 0.390032 0
M  V30 2189 H 198.479 4.04732 -2.21336 0
M  V30 2190 H 196.722 3.77226 -2.14204 0
M  V30 2191 H 197.393 5.29665 -1.5543 0
M  V30 2192 H 199.869 4.161 0.00234528 0
M  V30 2193 H 198.745 5.47075 0.447207 0
M  V30 2194 H 199.006 4.13672 1.55974 0
M  V30 2195 N 198.065 0.39524 1.52563 0
M  V30 2196 C 198.995 -0.428384 2.29537 0
M  V30 2197 C 199.976 -1.05831 1.33169 0
M  V30 2198 O 201.161 -1.06995 1.62067 0
M  V30 2199 C 198.291 -1.55274 3.10656 0
M  V30 2200 C 197.245 -1.04855 4.14957 0
M  V30 2201 C 196.571 -2.26543 4.84337 0
M  V30 2202 C 197.871 -0.112324 5.22179 0
M  V30 2203 H 199.565 0.213867 2.98635 0
M  V30 2204 H 197.111 0.104298 1.43622 0
M  V30 2205 H 199.064 -2.1358 3.63265 0
M  V30 2206 H 197.788 -2.22266 2.39302 0
M  V30 2207 H 196.447 -0.487985 3.63338 0
M  V30 2208 H 196.095 -2.92059 4.09525 0
M  V30 2209 H 195.795 -1.93466 5.54837 0
M  V30 2210 H 197.319 -2.85481 5.39753 0
M  V30 2211 H 198.733 -0.603752 5.70112 0
M  V30 2212 H 197.13 0.128968 5.99961 0
M  V30 2213 H 198.2 0.837052 4.77621 0
M  V30 2214 N 199.544 -1.57102 0.125237 0
M  V30 2215 C 200.793 -1.94582 -0.531095 0
M  V30 2216 C 201.106 -1.01126 -1.6743 0
M  V30 2217 O 202.312 -1.28097 -2.39381 0
M  V30 2218 C 200.768 -3.45839 -0.996164 0
M  V30 2219 C 200.376 -4.47842 0.118926 0
M  V30 2220 C 202.12 -3.92227 -1.62352 0
M  V30 2221 C 200.027 -5.90284 -0.363192 0
M  V30 2222 H 198.957 -0.726391 -0.20217 0
M  V30 2223 H 201.608 -1.82339 0.206092 0
M  V30 2224 H 199.99 -3.53338 -1.78796 0
M  V30 2225 H 201.164 -4.52018 0.895358 0
M  V30 2226 H 199.479 -4.11243 0.653324 0
M  V30 2227 H 202.076 -4.96069 -1.99548 0
M  V30 2228 H 202.419 -3.32552 -2.50429 0
M  V30 2229 H 202.952 -3.87554 -0.897019 0
M  V30 2230 H 199.691 -6.53728 0.481679 0
M  V30 2231 H 199.211 -5.89515 -1.10597 0
M  V30 2232 H 200.89 -6.41752 -0.822377 0
M  V30 2233 N 201.022 0.148545 -1.56898 0
M  V30 2234 C 202.433 0.708766 -1.72723 0
M  V30 2235 C 202.784 1.81734 -0.739395 0
M  V30 2236 O 201.909 2.16194 0.0943169 0
M  V30 2237 C 202.504 1.29245 -3.13179 0
M  V30 2238 C 201.063 1.79925 -3.30611 0
M  V30 2239 C 200.21 0.687111 -2.68652 0
M  V30 2240 H 203.161 -0.0771063 -1.58513 0
M  V30 2241 H 203.182 2.16224 -3.13093 0
M  V30 2242 H 202.694 0.485382 -3.85053 0
M  V30 2243 H 200.795 2.63203 -2.63732 0
M  V30 2244 H 200.908 1.92903 -4.38549 0
M  V30 2245 H 199.272 1.11335 -2.29078 0
M  V30 2246 H 200.055 -0.108483 -3.43129 0
M  V30 2247 N 202.5 1.5196 0.417844 0
M  V30 2248 C 203.911 1.57851 0.997 0
M  V30 2249 C 204.262 0.413714 1.91789 0
M  V30 2250 O 203.387 -0.467057 2.113 0
M  V30 2251 C 203.982 2.86085 1.81496 0
M  V30 2252 C 202.541 2.94483 2.34428 0
M  V30 2253 C 201.688 2.52707 1.14169 0
M  V30 2254 H 204.639 1.57455 0.198392 0
M  V30 2255 H 204.66 2.70947 2.67148 0
M  V30 2256 H 204.172 3.70842 1.14446 0
M  V30 2257 H 202.273 2.142 3.04875 0
M  V30 2258 H 202.386 3.98546 2.65891 0
M  V30 2259 H 200.75 2.06353 1.49301 0
M  V30 2260 H 201.533 3.39828 0.486999 0
M  V30 2261 N 203.978 -0.674533 1.42435 0
M  V30 2262 C 204.941 -1.76986 1.45632 0
M  V30 2263 C 205.941 -1.5708 0.343871 0
M  V30 2264 O 207.131 -1.63367 0.604709 0
M  V30 2265 C 204.263 -3.15623 1.28822 0
M  V30 2266 H 205.456 -1.75539 2.43158 0
M  V30 2267 H 203.009 -0.884189 1.28887 0
M  V30 2268 H 203.744 -3.22696 0.322193 0
M  V30 2269 H 203.529 -3.31475 2.09444 0
M  V30 2270 H 205.019 -3.95537 1.33942 0
M  V30 2271 N 205.456 -1.28612 -0.910864 0
M  V30 2272 C 206.403 -1.12786 -2.01365 0
M  V30 2273 C 207.373 -0.024201 -1.66082 0
M  V30 2274 O 208.558 -0.189667 -1.89855 0
M  V30 2275 C 205.698 -0.798743 -3.35729 0
M  V30 2276 C 204.811 -1.98173 -3.83864 0
M  V30 2277 C 203.946 -1.59298 -5.06752 0
M  V30 2278 C 202.985 -2.74245 -5.47226 0
M  V30 2279 N 202.122 -2.35842 -6.61304 0
M  V30 2280 H 206.962 -2.07142 -2.14234 0
M  V30 2281 H 204.499 -1.03093 -1.0493 0
M  V30 2282 H 206.457 -0.588662 -4.13026 0
M  V30 2283 H 205.087 0.10789 -3.2262 0
M  V30 2284 H 204.139 -2.30386 -3.02699 0
M  V30 2285 H 205.451 -2.84343 -4.09818 0
M  V30 2286 H 204.605 -1.34513 -5.916 0
M  V30 2287 H 203.344 -0.702618 -4.82612 0
M  V30 2288 H 202.349 -2.99725 -4.60918 0
M  V30 2289 H 203.574 -3.63928 -5.73353 0
M  V30 2290 H 201.52 -1.49279 -6.38789 0
M  V30 2291 H 201.437 -3.15546 -6.86998 0
M  V30 2292 H 202.705 -2.14348 -7.4945 0
M  V30 2293 N 206.934 1.1197 -1.10907 0
M  V30 2294 C 207.882 2.19927 -0.757303 0
M  V30 2295 C 208.876 1.67564 0.248747 0
M  V30 2296 O 210.082 1.79672 0.108605 0
M  V30 2297 H 206.457 0.716925 -0.226987 0
M  V30 2298 H 208.428 2.46847 -1.67658 0
M  V30 2299 C 207.177 3.47061 -0.210671 0
M  V30 2300 H 206.5 3.87703 -0.976049 0
M  V30 2301 H 207.94 4.24 -0.0026584 0
M  V30 2302 C 206.399 3.19864 1.05777 0
M  V30 2303 O 206.929 3.40049 2.13845 0
M  V30 2304 N 205.135 2.73636 0.978349 0
M  V30 2305 H 204.682 2.5741 0.0988246 0
M  V30 2306 H 204.64 2.55815 1.82773 0
M  V30 2307 N 208.412 0.89855 1.29475 0
M  V30 2308 C 209.36 0.365253 2.29714 0
M  V30 2309 C 210.354 -0.534993 1.6073 0
M  V30 2310 O 211.56 -0.417921 1.75081 0
M  V30 2311 H 207.935 0.0994853 0.74539 0
M  V30 2312 H 209.906 1.22406 2.72138 0
M  V30 2313 C 208.655 -0.393159 3.4547 0
M  V30 2314 H 207.978 0.290332 3.98744 0
M  V30 2315 H 209.418 -0.731189 4.17648 0
M  V30 2316 C 207.877 -1.59539 2.9673 0
M  V30 2317 O 208.407 -2.69469 2.97908 0
M  V30 2318 N 206.613 -1.43716 2.52575 0
M  V30 2319 H 206.16 -0.542828 2.51816 0
M  V30 2320 H 206.118 -2.24288 2.20323 0
M  V30 2321 N 209.89 -1.43072 0.660911 0
M  V30 2322 C 211.136 -2.02545 0.186337 0
M  V30 2323 C 211.491 -1.51253 -1.18913 0
M  V30 2324 O 210.784 -0.699167 -1.78388 0
M  V30 2325 C 210.978 -3.57103 0.145563 0
M  V30 2326 C 210.807 -4.23393 1.51554 0
M  V30 2327 C 209.577 -4.59144 2.10984 0
M  V30 2328 C 211.775 -4.51897 2.45548 0
M  V30 2329 N 209.757 -5.10545 3.40907 0
M  V30 2330 C 211.128 -5.04698 3.6011 0
M  V30 2331 C 213.183 -4.33872 2.44253 0
M  V30 2332 C 211.886 -5.41371 4.73613 0
M  V30 2333 C 213.912 -4.71612 3.56842 0
M  V30 2334 C 213.274 -5.24553 4.70131 0
M  V30 2335 H 209.373 -0.773823 0.112792 0
M  V30 2336 H 211.957 -1.74137 0.870885 0
M  V30 2337 H 210.128 -3.85059 -0.508353 0
M  V30 2338 H 211.86 -4.03264 -0.340598 0
M  V30 2339 H 208.615 -4.4444 1.63615 0
M  V30 2340 H 209.039 -5.40689 4.07411 0
M  V30 2341 H 213.681 -3.92208 1.579 0
M  V30 2342 H 211.399 -5.81975 5.60652 0
M  V30 2343 H 214.985 -4.59354 3.57051 0
M  V30 2344 H 213.865 -5.53213 5.5581 0
M  V30 2345 N 211.368 -0.403325 -1.52352 0
M  V30 2346 C 212.616 0.174003 -2.0135 0
M  V30 2347 C 212.937 1.46139 -1.29106 0
M  V30 2348 O 212.207 1.91448 -0.415253 0
M  V30 2349 H 210.787 0.0672911 -0.743963 0
M  V30 2350 H 213.449 -0.538235 -1.87321 0
M  V30 2351 H 212.545 0.374254 -3.09848 0
M  V30 2352 N 212.846 1.57033 -0.133567 0
M  V30 2353 C 213.778 2.13176 0.841944 0
M  V30 2354 C 214.791 1.07794 1.22001 0
M  V30 2355 O 215.98 1.35117 1.16643 0
M  V30 2356 C 213.08 2.62847 2.13926 0
M  V30 2357 C 212.253 3.92486 1.93064 0
M  V30 2358 C 211.312 4.27605 3.0666 0
M  V30 2359 O 210.338 4.96168 2.78937 0
M  V30 2360 N 211.54 3.861 4.33483 0
M  V30 2361 H 214.305 2.97503 0.362192 0
M  V30 2362 H 211.866 1.61821 0.05042 0
M  V30 2363 H 213.858 2.83363 2.88942 0
M  V30 2364 H 212.428 1.83319 2.53205 0
M  V30 2365 H 211.648 3.80732 1.02159 0
M  V30 2366 H 212.936 4.77225 1.76447 0
M  V30 2367 H 212.334 3.30828 4.58878 0
M  V30 2368 H 210.891 4.11694 5.05323 0
M  V30 2369 N 214.325 -0.140222 1.56975 0
M  V30 2370 C 215.553 -0.866437 1.87884 0
M  V30 2371 C 215.968 -1.74428 0.722517 0
M  V30 2372 O 215.325 -1.79891 -0.30749 0
M  V30 2373 C 215.376 -1.71753 3.18093 0
M  V30 2374 O 215.097 -0.875056 4.29272 0
M  V30 2375 C 216.598 -2.55074 3.62563 0
M  V30 2376 H 213.818 -0.25019 0.622612 0
M  V30 2377 H 216.362 -0.130977 2.0408 0
M  V30 2378 H 214.517 -2.40598 3.03631 0
M  V30 2379 H 214.931 -1.46002 5.03769 0
M  V30 2380 H 216.405 -3.10356 4.5649 0
M  V30 2381 H 216.882 -3.31434 2.88181 0
M  V30 2382 H 217.488 -1.91509 3.79743 0
M  V30 2383 N 215.803 -1.52179 -0.40978 0
M  V30 2384 C 216.713 -1.78364 -1.52392 0
M  V30 2385 C 217.729 -0.669183 -1.60617 0
M  V30 2386 O 218.905 -0.954518 -1.77344 0
M  V30 2387 C 215.97 -1.92822 -2.88133 0
M  V30 2388 C 215.031 -3.16725 -2.898 0
M  V30 2389 C 214.264 -3.30483 -4.19067 0
M  V30 2390 O 214.487 -2.49522 -5.12928 0
M  V30 2391 O 213.421 -4.2363 -4.27576 0
M  V30 2392 H 217.247 -2.72931 -1.33201 0
M  V30 2393 H 214.832 -1.37016 -0.59557 0
M  V30 2394 H 216.714 -2.04157 -3.68643 0
M  V30 2395 H 215.389 -1.01444 -3.07393 0
M  V30 2396 H 214.296 -3.10848 -2.08146 0
M  V30 2397 H 215.629 -4.07881 -2.75489 0
M  V30 2398 N 217.281 0.66697 -1.42791 0
M  V30 2399 C 218.213 1.7925 -1.42836 0
M  V30 2400 C 219.226 1.59496 -0.326333 0
M  V30 2401 O 220.415 1.6847 -0.589916 0
M  V30 2402 C 217.515 3.16476 -1.21229 0
M  V30 2403 C 216.688 3.63011 -2.44013 0
M  V30 2404 C 215.747 4.78993 -2.17834 0
M  V30 2405 O 214.773 4.89137 -2.91091 0
M  V30 2406 N 215.975 5.68248 -1.18635 0
M  V30 2407 H 218.74 1.79695 -2.39854 0
M  V30 2408 H 216.301 0.850338 -1.37771 0
M  V30 2409 H 218.293 3.91734 -1.01621 0
M  V30 2410 H 216.863 3.10884 -0.32706 0
M  V30 2411 H 216.083 2.78346 -2.79137 0
M  V30 2412 H 217.371 3.90845 -3.25757 0
M  V30 2413 H 216.769 5.62712 -0.580615 0
M  V30 2414 H 215.326 6.43285 -1.05013 0
M  V30 2415 N 218.759 1.29093 0.90403 0
M  V30 2416 C 219.691 1.09658 2.01266 0
M  V30 2417 C 220.704 0.0453729 1.62737 0
M  V30 2418 O 221.893 0.289446 1.76138 0
M  V30 2419 C 218.993 0.646278 3.32681 0
M  V30 2420 C 218.166 1.77505 3.99763 0
M  V30 2421 C 217.225 1.31649 5.09465 0
M  V30 2422 O 216.251 2.02045 5.32134 0
M  V30 2423 N 217.453 0.184997 5.80205 0
M  V30 2424 H 220.218 2.05135 2.18494 0
M  V30 2425 H 217.779 1.20975 1.07594 0
M  V30 2426 H 219.771 0.322906 4.0341 0
M  V30 2427 H 218.341 -0.215916 3.11853 0
M  V30 2428 H 217.561 2.26752 3.22455 0
M  V30 2429 H 218.849 2.53198 4.41325 0
M  V30 2430 H 218.247 -0.402021 5.6427 0
M  V30 2431 H 216.804 -0.0790358 6.51752 0
M  V30 2432 N 220.237 -1.11381 1.11499 0
M  V30 2433 C 221.169 -2.17207 0.731704 0
M  V30 2434 C 222.182 -1.61066 -0.236957 0
M  V30 2435 O 223.371 -1.78489 -0.0197591 0
M  V30 2436 C 220.471 -3.38846 0.0607624 0
M  V30 2437 C 219.644 -4.24451 1.0564 0
M  V30 2438 C 218.703 -5.24562 0.4149 0
M  V30 2439 O 217.729 -5.59071 1.069 0
M  V30 2440 N 218.931 -5.74651 -0.821943 0
M  V30 2441 H 221.696 -2.50699 1.64225 0
M  V30 2442 H 219.257 -1.26908 1.00529 0
M  V30 2443 H 221.249 -4.02911 -0.380139 0
M  V30 2444 H 219.819 -3.03411 -0.752376 0
M  V30 2445 H 219.039 -3.56833 1.67524 0
M  V30 2446 H 220.327 -4.78486 1.72998 0
M  V30 2447 H 219.725 -5.48797 -1.37252 0
M  V30 2448 H 218.282 -6.40549 -1.20582 0
M  V30 2449 N 221.715 -0.905404 -1.28997 0
M  V30 2450 C 222.625 -0.392246 -2.31298 0
M  V30 2451 C 223.641 0.515889 -1.66176 0
M  V30 2452 O 224.817 0.404093 -1.97304 0
M  V30 2453 C 221.882 0.36686 -3.44754 0
M  V30 2454 C 220.943 -0.573485 -4.25452 0
M  V30 2455 C 220.176 0.149488 -5.33491 0
M  V30 2456 O 220.399 1.37255 -5.5364 0
M  V30 2457 O 219.333 -0.510919 -5.99728 0
M  V30 2458 H 223.159 -1.2411 -2.77183 0
M  V30 2459 H 220.744 -0.669926 -1.33538 0
M  V30 2460 H 222.626 0.795907 -4.13816 0
M  V30 2461 H 221.301 1.19169 -3.00966 0
M  V30 2462 H 220.208 -1.05176 -3.59011 0
M  V30 2463 H 221.541 -1.36489 -4.72897 0
M  V30 2464 N 223.193 1.4272 -0.668489 0
M  V30 2465 C 224.604 1.84793 -0.266151 0
M  V30 2466 C 224.955 1.55959 1.19043 0
M  V30 2467 O 224.08 1.01622 1.91055 0
M  V30 2468 C 224.675 3.35436 -0.476271 0
M  V30 2469 C 223.234 3.76182 -0.128113 0
M  V30 2470 C 222.381 2.66344 -0.771777 0
M  V30 2471 H 225.332 1.32656 -0.871098 0
M  V30 2472 H 225.353 3.79515 0.273561 0
M  V30 2473 H 224.865 3.5639 -1.53647 0
M  V30 2474 H 222.966 3.60836 0.928891 0
M  V30 2475 H 223.079 4.75766 -0.564231 0
M  V30 2476 H 221.443 2.53885 -0.203652 0
M  V30 2477 H 222.226 2.90123 -1.83531 0
M  V30 2478 N 224.671 0.411399 1.52136 0
M  V30 2479 C 225.896 -0.165538 2.06738 0
M  V30 2480 C 226.321 -1.379 1.27926 0
M  V30 2481 O 225.679 -1.78628 0.310114 0
M  V30 2482 C 225.727 -0.492124 3.57226 0
M  V30 2483 O 224.831 -1.58276 3.80818 0
M  V30 2484 H 224.172 -0.0132132 0.663869 0
M  V30 2485 H 226.702 0.585253 1.96051 0
M  V30 2486 H 226.712 -0.750104 4.01045 0
M  V30 2487 H 225.387 0.394922 4.14021 0
M  V30 2488 H 223.964 -1.31677 3.48877 0
M  V30 2489 N 226.149 -1.5696 0.141893 0
M  V30 2490 C 227.112 -2.15316 -0.785587 0
M  V30 2491 C 228.112 -1.09366 -1.1788 0
M  V30 2492 O 229.302 -1.35031 -1.10056 0
M  V30 2493 C 226.434 -2.71211 -2.06537 0
M  V30 2494 H 227.627 -2.98608 -0.278041 0
M  V30 2495 H 225.18 -1.5593 -0.107519 0
M  V30 2496 H 225.915 -1.91571 -2.6167 0
M  V30 2497 H 225.7 -3.4872 -1.79268 0
M  V30 2498 H 227.19 -3.16189 -2.72789 0
M  V30 2499 N 227.627 0.131896 -1.57047 0
M  V30 2500 C 228.59 1.14638 -1.98471 0
M  V30 2501 C 229.59 1.35029 -0.873148 0
M  V30 2502 O 230.78 1.31764 -1.13946 0
M  V30 2503 C 227.912 2.50358 -2.31373 0
M  V30 2504 H 229.105 0.79064 -2.8929 0
M  V30 2505 H 226.658 0.375761 -1.51716 0
M  V30 2506 H 227.393 2.90876 -1.43393 0
M  V30 2507 H 227.178 2.36915 -3.12432 0
M  V30 2508 H 228.668 3.23395 -2.64207 0
M  V30 2509 N 229.106 1.52395 0.401703 0
M  V30 2510 C 230.522 1.41363 0.740864 0
M  V30 2511 C 230.722 0.523982 1.94568 0
M  V30 2512 O 229.778 -0.00741204 2.52499 0
M  V30 2513 C 231.091 2.84011 0.987847 0
M  V30 2514 C 232.639 2.93404 1.09011 0
M  V30 2515 C 233.114 4.37036 1.3698 0
M  V30 2516 N 234.605 4.40304 1.43829 0
M  V30 2517 C 235.34 5.48508 1.67112 0
M  V30 2518 N 234.836 6.66819 1.87949 0
M  V30 2519 N 236.629 5.36034 1.69187 0
M  V30 2520 H 228.78 2.08765 -0.391262 0
M  V30 2521 H 231.043 0.941265 -0.112798 0
M  V30 2522 H 230.749 3.51265 0.174835 0
M  V30 2523 H 230.623 3.25502 1.906 0
M  V30 2524 H 233.01 2.26325 1.8937 0
M  V30 2525 H 233.091 2.55359 0.15015 0
M  V30 2526 H 232.735 5.04676 0.571353 0
M  V30 2527 H 232.665 4.72623 2.3224 0
M  V30 2528 H 235.156 3.55024 1.29486 0
M  V30 2529 H 235.469 7.45063 2.05185 0
M  V30 2530 H 233.814 6.6987 1.85199 0
M  V30 2531 H 237.005 4.42579 1.52451 0
M  V30 2532 H 237.178 6.20434 1.86993 0
M  V30 2533 N 230.584 -0.659388 1.43143 0
M  V30 2534 C 231.516 -1.7849 1.43784 0
M  V30 2535 C 232.529 -1.5932 0.334787 0
M  V30 2536 O 233.718 -1.68155 0.598842 0
M  V30 2537 C 230.818 -3.15828 1.22906 0
M  V30 2538 C 229.991 -3.61711 2.45934 0
M  V30 2539 C 229.05 -4.77831 2.20371 0
M  V30 2540 O 228.076 -4.87586 2.93681 0
M  V30 2541 N 229.278 -5.67611 1.21647 0
M  V30 2542 H 232.043 -1.7842 2.40803 0
M  V30 2543 H 229.604 -0.84302 1.3822 0
M  V30 2544 H 231.596 -3.91189 1.03697 0
M  V30 2545 H 230.166 -3.10707 0.343542 0
M  V30 2546 H 229.386 -2.76861 2.80609 0
M  V30 2547 H 230.674 -3.89112 3.27825 0
M  V30 2548 H 230.072 -5.62397 0.610449 0
M  V30 2549 H 228.629 -6.42719 1.08423 0
M  V30 2550 N 232.062 -1.29571 -0.897171 0
M  V30 2551 C 233.025 -1.14913 -1.98312 0
M  V30 2552 C 234.025 -0.0838629 -1.60581 0
M  V30 2553 O 235.215 -0.331006 -1.71026 0
M  V30 2554 C 232.347 -0.757835 -3.3237 0
M  V30 2555 H 233.54 -2.11377 -2.12743 0
M  V30 2556 H 231.093 -1.12793 -1.08201 0
M  V30 2557 H 231.828 0.206837 -3.2364 0
M  V30 2558 H 231.613 -1.52755 -3.61121 0
M  V30 2559 H 233.103 -0.678408 -4.12053 0
M  V30 2560 N 233.54 1.10788 -1.12088 0
M  V30 2561 C 234.787 1.82671 -0.873931 0
M  V30 2562 C 235.115 1.85004 0.600311 0
M  V30 2563 O 234.37 1.30365 1.45957 0
M  V30 2564 C 234.669 3.29294 -1.38926 0
M  V30 2565 C 234.335 3.47113 -2.87791 0
M  V30 2566 C 232.997 3.51684 -3.28439 0
M  V30 2567 C 235.349 3.52808 -3.83635 0
M  V30 2568 C 232.677 3.59513 -4.63646 0
M  V30 2569 C 235.029 3.62169 -5.18668 0
M  V30 2570 C 233.693 3.65003 -5.58864 0
M  V30 2571 H 232.963 0.668441 -0.319794 0
M  V30 2572 H 235.61 1.30613 -1.40045 0
M  V30 2573 H 233.915 3.83894 -0.783122 0
M  V30 2574 H 235.612 3.83416 -1.17443 0
M  V30 2575 H 232.202 3.4423 -2.5535 0
M  V30 2576 H 236.386 3.4853 -3.53328 0
M  V30 2577 H 231.642 3.59987 -4.94185 0
M  V30 2578 H 235.816 3.6552 -5.92763 0
M  V30 2579 H 233.443 3.70822 -6.63623 0
M  V30 2580 N 235.018 0.912232 1.28515 0
M  V30 2581 C 236.434 0.610159 1.47476 0
M  V30 2582 C 236.634 -0.844955 1.82928 0
M  V30 2583 O 235.69 -1.62416 1.93332 0
M  V30 2584 C 237.003 1.54675 2.57868 0
M  V30 2585 C 238.551 1.55331 2.71738 0
M  V30 2586 C 239.026 2.47649 3.85272 0
M  V30 2587 N 240.517 2.45767 3.92623 0
M  V30 2588 C 241.252 3.13896 4.79851 0
M  V30 2589 N 240.748 3.9135 5.71679 0
M  V30 2590 N 242.541 3.02991 4.73448 0
M  V30 2591 H 234.692 1.85318 1.03783 0
M  V30 2592 H 236.955 0.794777 0.516753 0
M  V30 2593 H 236.661 2.5841 2.38574 0
M  V30 2594 H 236.535 1.27671 3.54937 0
M  V30 2595 H 238.922 0.52335 2.90422 0
M  V30 2596 H 239.003 1.86378 1.75205 0
M  V30 2597 H 238.647 3.50745 3.67342 0
M  V30 2598 H 238.577 2.13904 4.81199 0
M  V30 2599 H 241.068 1.89503 3.26951 0
M  V30 2600 H 241.381 4.40359 6.35062 0
M  V30 2601 H 239.726 3.95455 5.71524 0
M  V30 2602 H 242.917 2.41987 4.007 0
M  V30 2603 H 243.09 3.5636 5.41213 0
M  V30 2604 N 236.496 -1.42363 0.676048 0
M  V30 2605 C 237.443 -2.308 -0.00150904 0
M  V30 2606 C 238.413 -1.46032 -0.791444 0
M  V30 2607 O 239.598 -1.74861 -0.76344 0
M  V30 2608 C 236.738 -3.31883 -0.945919 0
M  V30 2609 C 235.851 -4.31741 -0.149675 0
M  V30 2610 C 234.986 -5.19898 -1.08995 0
M  V30 2611 C 234.025 -6.11434 -0.285465 0
M  V30 2612 N 233.162 -6.92138 -1.17851 0
M  V30 2613 H 238.002 -2.88187 0.758455 0
M  V30 2614 H 235.539 -1.41952 0.38576 0
M  V30 2615 H 237.497 -3.89019 -1.50731 0
M  V30 2616 H 236.127 -2.76093 -1.6725 0
M  V30 2617 H 235.179 -3.76713 0.528359 0
M  V30 2618 H 236.491 -4.96534 0.474866 0
M  V30 2619 H 235.645 -5.81772 -1.72123 0
M  V30 2620 H 234.384 -4.55284 -1.74837 0
M  V30 2621 H 233.389 -5.48627 0.359018 0
M  V30 2622 H 234.614 -6.78097 0.368883 0
M  V30 2623 H 232.56 -6.30152 -1.82332 0
M  V30 2624 H 232.477 -7.53542 -0.609082 0
M  V30 2625 H 233.745 -7.58499 -1.79722 0
M  V30 2626 N 237.974 -0.419461 -1.51915 0
M  V30 2627 C 238.921 0.400927 -2.27291 0
M  V30 2628 C 239.891 1.03224 -1.30131 0
M  V30 2629 O 241.076 1.05455 -1.59009 0
M  V30 2630 C 238.216 1.50603 -3.10504 0
M  V30 2631 C 237.329 0.89462 -4.22635 0
M  V30 2632 C 236.464 1.97328 -4.93189 0
M  V30 2633 C 235.503 1.33935 -5.97267 0
M  V30 2634 N 234.64 2.3586 -6.61298 0
M  V30 2635 H 239.48 -0.248251 -2.96964 0
M  V30 2636 H 237.017 -0.134266 -1.46486 0
M  V30 2637 H 238.975 2.15783 -3.57062 0
M  V30 2638 H 237.605 2.12509 -2.42981 0
M  V30 2639 H 236.657 0.131583 -3.80172 0
M  V30 2640 H 237.969 0.391641 -4.9726 0
M  V30 2641 H 237.123 2.70211 -5.43204 0
M  V30 2642 H 235.862 2.50994 -4.18155 0
M  V30 2643 H 234.867 0.595896 -5.46561 0
M  V30 2644 H 236.092 0.810252 -6.74249 0
M  V30 2645 H 234.038 2.88639 -5.89087 0
M  V30 2646 H 233.955 1.90403 -7.3163 0
M  V30 2647 H 235.223 3.08282 -7.15949 0
M  V30 2648 N 239.452 1.56882 -0.150215 0
M  V30 2649 C 240.382 2.19935 0.784284 0
M  V30 2650 C 241.363 1.14854 1.25469 0
M  V30 2651 O 242.548 1.43209 1.31168 0
M  V30 2652 C 239.678 2.82349 2.02229 0
M  V30 2653 C 238.632 3.93285 1.68853 0
M  V30 2654 C 237.958 4.42649 2.99944 0
M  V30 2655 C 239.258 5.13904 0.932714 0
M  V30 2656 H 240.952 2.9828 0.258781 0
M  V30 2657 H 238.498 1.43473 0.123029 0
M  V30 2658 H 240.451 3.25126 2.68088 0
M  V30 2659 H 239.175 2.0134 2.57157 0
M  V30 2660 H 237.834 3.5113 1.05371 0
M  V30 2661 H 237.482 3.58458 3.52869 0
M  V30 2662 H 237.182 5.17476 2.78374 0
M  V30 2663 H 238.706 4.88099 3.66868 0
M  V30 2664 H 240.12 5.53506 1.49345 0
M  V30 2665 H 238.517 5.94515 0.81684 0
M  V30 2666 H 239.587 4.84842 -0.0749568 0
M  V30 2667 N 240.93 -0.123565 1.57115 0
M  V30 2668 C 242.346 -0.476961 1.52306 0
M  V30 2669 C 242.546 -1.82109 0.86248 0
M  V30 2670 O 241.602 -2.48586 0.442884 0
M  V30 2671 C 242.915 -0.465661 2.97073 0
M  V30 2672 C 244.463 -0.549534 3.08138 0
M  V30 2673 C 244.938 -0.568669 4.54456 0
M  V30 2674 N 246.429 -0.630237 4.58892 0
M  V30 2675 C 247.164 -0.666415 5.69514 0
M  V30 2676 N 246.66 -0.660514 6.89644 0
M  V30 2677 N 248.453 -0.709077 5.5761 0
M  V30 2678 H 240.604 0.757198 1.98445 0
M  V30 2679 H 242.867 0.278808 0.906074 0
M  V30 2680 H 242.573 0.454232 3.48754 0
M  V30 2681 H 242.447 -1.29513 3.54269 0
M  V30 2682 H 244.834 -1.45985 2.56461 0
M  V30 2683 H 244.915 0.307532 2.53945 0
M  V30 2684 H 244.559 0.337581 5.06777 0
M  V30 2685 H 244.489 -1.44256 5.06456 0
M  V30 2686 H 246.98 -0.641146 3.72421 0
M  V30 2687 H 247.293 -0.690616 7.69708 0
M  V30 2688 H 245.638 -0.628012 6.92157 0
M  V30 2689 H 248.829 -0.711019 4.62668 0
M  V30 2690 H 249.002 -0.733804 6.43832 0
M  V30 2691 N 242.408 -1.52605 -0.393616 0
M  V30 2692 C 243.318 -1.79971 -1.50492 0
M  V30 2693 C 244.334 -0.686181 -1.59899 0
M  V30 2694 O 245.51 -0.973274 -1.76322 0
M  V30 2695 C 242.575 -1.95867 -2.86072 0
M  V30 2696 C 241.636 -3.19781 -2.86424 0
M  V30 2697 C 240.869 -3.34909 -4.15538 0
M  V30 2698 O 241.092 -2.54948 -5.10253 0
M  V30 2699 O 240.026 -4.28141 -4.23059 0
M  V30 2700 H 243.852 -2.74328 -1.30299 0
M  V30 2701 H 241.437 -1.3764 -0.581005 0
M  V30 2702 H 243.319 -2.08056 -3.66457 0
M  V30 2703 H 241.994 -1.04699 -3.063 0
M  V30 2704 H 240.901 -3.13038 -2.04837 0
M  V30 2705 H 242.234 -4.1078 -2.71147 0
M  V30 2706 N 243.887 0.651787 -1.4349 0
M  V30 2707 C 245.135 1.40888 -1.44897 0
M  V30 2708 C 245.456 1.94856 -0.0749086 0
M  V30 2709 O 244.726 1.74518 0.889956 0
M  V30 2710 H 243.306 0.522887 -0.533478 0
M  V30 2711 H 245.968 0.768609 -1.79104 0
M  V30 2712 H 245.064 2.25052 -2.16236 0
M  V30 2713 N 245.365 1.30045 0.890287 0
M  V30 2714 C 246.297 1.11786 2.00091 0
M  V30 2715 C 247.31 0.0626307 1.62679 0
M  V30 2716 O 248.499 0.308112 1.75821 0
M  V30 2717 C 245.599 0.681527 3.31977 0
M  V30 2718 C 244.772 1.81735 3.97858 0
M  V30 2719 C 243.831 1.37045 5.08041 0
M  V30 2720 O 242.857 2.07677 5.29961 0
M  V30 2721 N 244.059 0.246525 5.79976 0
M  V30 2722 H 246.824 2.07441 2.16306 0
M  V30 2723 H 244.385 1.2211 1.06305 0
M  V30 2724 H 246.377 0.365675 4.03045 0
M  V30 2725 H 244.947 -0.182828 3.12065 0
M  V30 2726 H 244.167 2.30159 3.20032 0
M  V30 2727 H 245.455 2.57865 4.38615 0
M  V30 2728 H 244.853 -0.34215 5.64664 0
M  V30 2729 H 243.41 -0.00990438 6.51799 0
M  V30 2730 N 246.843 -1.10192 1.12674 0
M  V30 2731 C 247.773 -2.18652 0.819362 0
M  V30 2732 C 248.754 -1.68698 -0.217915 0
M  V30 2733 O 249.939 -1.94041 -0.0785581 0
M  V30 2734 C 247.069 -3.46202 0.27594 0
M  V30 2735 C 246.023 -4.09444 1.24656 0
M  V30 2736 C 245.349 -5.31725 0.563258 0
M  V30 2737 C 246.649 -4.52863 2.60217 0
M  V30 2738 H 248.343 -2.44622 1.72628 0
M  V30 2739 H 245.889 -1.17571 0.831451 0
M  V30 2740 H 247.842 -4.21372 0.0486149 0
M  V30 2741 H 246.566 -3.1973 -0.666331 0
M  V30 2742 H 245.225 -3.36284 1.45974 0
M  V30 2743 H 244.873 -5.0153 -0.384235 0
M  V30 2744 H 244.573 -5.74991 1.21075 0
M  V30 2745 H 246.097 -6.09624 0.34503 0
M  V30 2746 H 247.511 -5.19294 2.42913 0
M  V30 2747 H 245.908 -5.06986 3.21068 0
M  V30 2748 H 246.978 -3.65656 3.18471 0
M  V30 2749 N 248.321 -0.919034 -1.28029 0
M  V30 2750 C 249.598 -0.473668 -1.89778 0
M  V30 2751 C 249.978 1.04783 -1.83259 0
M  V30 2752 O 249.326 1.8982 -1.27202 0
M  V30 2753 C 249.536 -1.00998 -3.34066 0
M  V30 2754 C 250.884 -1.06525 -4.1102 0
M  V30 2755 O 251.908 -0.958996 -3.43048 0
M  V30 2756 O 250.767 -1.22776 -5.3253 0
M  V30 2757 H 247.861 -0.15098 -0.813101 0
M  V30 2758 H 250.407 -1.01016 -1.36359 0
M  V30 2759 H 249.179 -2.05392 -3.33061 0
M  V30 2760 H 248.802 -0.454626 -3.94992 0
M  V30 2761 N 249.799 1.42003 -0.683588 0
M  V30 2762 C 251.076 1.95112 -0.138075 0
M  V30 2763 C 251.456 1.62359 1.34918 0
M  V30 2764 O 250.804 0.924311 2.08971 0
M  V30 2765 C 251.014 3.46505 -0.416581 0
M  V30 2766 C 252.362 4.23254 -0.337834 0
M  V30 2767 O 253.386 3.54468 -0.35082 0
M  V30 2768 O 252.245 5.45743 -0.287596 0
M  V30 2769 H 249.339 0.826961 -0.00797996 0
M  V30 2770 H 251.885 1.51784 -0.758924 0
M  V30 2771 H 250.657 3.63582 -1.4465 0
M  V30 2772 H 250.28 3.969 0.235839 0
M  V30 2773 N 251.277 0.427512 1.51691 0
M  V30 2774 C 252.224 -0.388867 2.275 0
M  V30 2775 C 253.194 -1.02532 1.30677 0
M  V30 2776 O 254.379 -1.0461 1.59566 0
M  V30 2777 C 251.519 -1.48954 3.11298 0
M  V30 2778 C 250.632 -0.872194 4.23104 0
M  V30 2779 C 249.767 -1.94709 4.94228 0
M  V30 2780 C 248.806 -1.30766 5.97969 0
M  V30 2781 N 247.943 -2.32349 6.62539 0
M  V30 2782 H 252.783 0.263997 2.96828 0
M  V30 2783 H 250.32 0.142033 1.46413 0
M  V30 2784 H 252.278 -2.13887 3.58201 0
M  V30 2785 H 250.908 -2.11217 2.44105 0
M  V30 2786 H 249.96 -0.111419 3.80237 0
M  V30 2787 H 251.272 -0.365264 4.97461 0
M  V30 2788 H 250.426 -2.67327 5.44629 0
M  V30 2789 H 249.165 -2.48773 4.1948 0
M  V30 2790 H 248.17 -0.566902 5.4687 0
M  V30 2791 H 249.395 -0.774483 6.74669 0
M  V30 2792 H 247.341 -2.85511 5.90609 0
M  V30 2793 H 247.258 -1.8652 7.3263 0
M  V30 2794 H 248.526 -3.04481 7.17574 0
M  V30 2795 N 252.755 -1.56801 0.158532 0
M  V30 2796 C 253.665 -2.20916 -0.789518 0
M  V30 2797 C 254.681 -1.1969 -1.26294 0
M  V30 2798 O 255.857 -1.52308 -1.31773 0
M  V30 2799 C 252.922 -2.82727 -2.00665 0
M  V30 2800 C 251.983 -3.99114 -1.58134 0
M  V30 2801 C 251.216 -4.57968 -2.74045 0
M  V30 2802 O 251.439 -4.15704 -3.90572 0
M  V30 2803 O 250.373 -5.48047 -2.48855 0
M  V30 2804 H 254.199 -3.02464 -0.273681 0
M  V30 2805 H 251.784 -1.4924 -0.0690548 0
M  V30 2806 H 253.666 -3.21968 -2.71872 0
M  V30 2807 H 252.341 -2.04184 -2.51179 0
M  V30 2808 H 251.248 -3.64567 -0.839155 0
M  V30 2809 H 252.581 -4.79212 -1.12325 0
M  V30 2810 N 254.233 0.115231 -1.57178 0
M  V30 2811 C 255.482 0.820945 -1.84237 0
M  V30 2812 C 255.795 1.80866 -0.744761 0
M  V30 2813 O 257.001 2.56083 -0.901871 0
M  V30 2814 C 255.457 1.51072 -3.26658 0
M  V30 2815 C 255.065 0.563795 -4.44438 0
M  V30 2816 C 256.809 2.20134 -3.62962 0
M  V30 2817 C 254.716 1.25701 -5.77887 0
M  V30 2818 H 253.646 0.310328 -0.687177 0
M  V30 2819 H 256.297 0.0737134 -1.83352 0
M  V30 2820 H 254.679 2.30471 -3.22024 0
M  V30 2821 H 255.853 -0.197247 -4.60378 0
M  V30 2822 H 254.168 -0.0200638 -4.16395 0
M  V30 2823 H 256.765 2.72696 -4.59936 0
M  V30 2824 H 257.108 2.98107 -2.90582 0
M  V30 2825 H 257.641 1.47619 -3.69396 0
M  V30 2826 H 254.38 0.518493 -6.53446 0
M  V30 2827 H 253.9 1.98997 -5.65827 0
M  V30 2828 H 255.579 1.78915 -6.2177 0
M  V30 2829 N 255.711 1.52812 0.385517 0
M  V30 2830 C 256.621 1.80766 1.49535 0
M  V30 2831 C 257.637 0.694651 1.59532 0
M  V30 2832 O 258.813 0.982611 1.75803 0
M  V30 2833 C 255.878 1.97381 2.85029 0
M  V30 2834 C 254.939 3.21295 2.84724 0
M  V30 2835 C 254.172 3.37108 4.13756 0
M  V30 2836 O 254.395 2.5765 5.08893 0
M  V30 2837 O 253.329 4.30378 4.20783 0
M  V30 2838 H 257.155 2.75015 1.28842 0
M  V30 2839 H 254.74 1.37946 0.573697 0
M  V30 2840 H 256.622 2.09996 3.65349 0
M  V30 2841 H 255.297 1.06322 3.05741 0
M  V30 2842 H 254.204 3.1412 2.03174 0
M  V30 2843 H 255.537 4.12212 2.68965 0
M  V30 2844 N 257.189 -0.644168 1.43834 0
M  V30 2845 C 258.438 -1.39985 1.45214 0
M  V30 2846 C 258.751 -1.95421 0.0835494 0
M  V30 2847 O 259.957 -2.71488 -0.0251748 0
M  V30 2848 C 258.413 -2.53384 2.55587 0
M  V30 2849 C 258.021 -2.04517 3.98594 0
M  V30 2850 C 259.765 -3.30685 2.66172 0
M  V30 2851 C 257.672 -3.1518 5.00416 0
M  V30 2852 H 256.602 -0.526005 0.540218 0
M  V30 2853 H 259.253 -0.694367 1.69855 0
M  V30 2854 H 257.635 -3.26446 2.24163 0
M  V30 2855 H 258.809 -1.38405 4.39523 0
M  V30 2856 H 257.124 -1.40068 3.92135 0
M  V30 2857 H 259.721 -4.13158 3.39418 0
M  V30 2858 H 260.064 -3.79312 1.71546 0
M  V30 2859 H 260.597 -2.64708 2.96942 0
M  V30 2860 H 257.336 -2.71511 5.96625 0
M  V30 2861 H 256.856 -3.79974 4.64091 0
M  V30 2862 H 258.535 -3.80166 5.23529 0
M  V30 2863 N 258.668 -1.30515 -0.883378 0
M  V30 2864 C 259.945 -1.10086 -1.6168 0
M  V30 2865 C 260.325 0.349269 -2.08191 0
M  V30 2866 O 259.673 1.34105 -1.85008 0
M  V30 2867 C 259.883 -2.10315 -2.78511 0
M  V30 2868 C 261.231 -2.42119 -3.48803 0
M  V30 2869 O 262.255 -2.08638 -2.88702 0
M  V30 2870 O 261.114 -2.99396 -4.57192 0
M  V30 2871 H 258.208 -0.422907 -0.710689 0
M  V30 2872 H 260.754 -1.41947 -0.930015 0
M  V30 2873 H 259.526 -3.07917 -2.41459 0
M  V30 2874 H 259.149 -1.79282 -3.54886 0
M  V30 2875 N 260.146 1.09593 -1.13257 0
M  V30 2876 C 261.076 2.18214 -0.830946 0
M  V30 2877 C 262.057 1.68812 0.208966 0
M  V30 2878 O 263.242 1.9408 0.0682666 0
M  V30 2879 C 260.372 3.46051 -0.294296 0
M  V30 2880 C 259.326 4.08778 -1.26826 0
M  V30 2881 C 258.652 5.31419 -0.591449 0
M  V30 2882 C 259.952 4.51476 -2.62615 0
M  V30 2883 H 261.646 2.43703 -1.73923 0
M  V30 2884 H 259.192 1.17128 -0.837675 0
M  V30 2885 H 261.145 4.2134 -0.0709606 0
M  V30 2886 H 259.869 3.20079 0.649366 0
M  V30 2887 H 258.528 3.35505 -1.47756 0
M  V30 2888 H 258.176 5.01727 0.357633 0
M  V30 2889 H 257.876 5.74341 -1.24123 0
M  V30 2890 H 259.4 6.09433 -0.377355 0
M  V30 2891 H 260.814 5.17999 -2.45663 0
M  V30 2892 H 259.211 5.05277 -3.23752 0
M  V30 2893 H 260.281 3.63962 -3.20406 0
M  V30 2894 N 261.624 0.925811 1.2754 0
M  V30 2895 C 262.587 0.428129 2.25166 0
M  V30 2896 C 263.587 -0.452261 1.54309 0
M  V30 2897 O 264.777 -0.253608 1.72344 0
M  V30 2898 C 261.909 -0.384749 3.38722 0
M  V30 2899 H 263.102 1.29066 2.70706 0
M  V30 2900 H 260.655 0.706323 1.3943 0
M  V30 2901 H 261.39 -1.26618 2.98561 0
M  V30 2902 H 261.175 0.246454 3.91325 0
M  V30 2903 H 262.665 -0.723389 4.11287 0
M  V30 2904 N 263.102 -1.41638 0.69111 0
M  V30 2905 C 264.065 -2.29178 0.0319786 0
M  V30 2906 C 265.065 -1.44153 -0.712496 0
M  V30 2907 O 266.255 -1.65354 -0.548053 0
M  V30 2908 C 263.387 -3.26952 -0.965161 0
M  V30 2909 H 264.58 -2.88959 0.802681 0
M  V30 2910 H 262.133 -1.4955 0.454356 0
M  V30 2911 H 262.868 -2.72142 -1.76378 0
M  V30 2912 H 262.653 -3.89685 -0.434522 0
M  V30 2913 H 264.143 -3.92561 -1.42428 0
M  V30 2914 N 264.58 -0.43555 -1.51462 0
M  V30 2915 C 265.543 0.365137 -2.26273 0
M  V30 2916 C 266.543 0.951227 -1.29647 0
M  V30 2917 O 267.733 0.825958 -1.53374 0
M  V30 2918 C 264.865 1.51645 -3.05314 0
M  V30 2919 H 266.058 -0.290474 -2.9849 0
M  V30 2920 H 263.611 -0.188676 -1.55157 0
M  V30 2921 H 264.346 2.20816 -2.3751 0
M  V30 2922 H 264.131 1.10238 -3.76284 0
M  V30 2923 H 265.621 2.08218 -3.61987 0
M  V30 2924 N 266.058 1.56714 -0.166846 0
M  V30 2925 C 267.469 1.83378 0.350646 0
M  V30 2926 C 267.82 1.08646 1.63372 0
M  V30 2927 O 266.945 0.338058 2.13743 0
M  V30 2928 C 267.54 3.32643 0.642963 0
M  V30 2929 C 266.099 3.59818 1.10491 0
M  V30 2930 C 265.246 2.76954 0.138411 0
M  V30 2931 H 268.197 1.53803 -0.391193 0
M  V30 2932 H 268.218 3.49878 1.49551 0
M  V30 2933 H 267.73 3.87007 -0.291055 0
M  V30 2934 H 265.831 3.1086 2.05418 0
M  V30 2935 H 265.944 4.68178 1.01716 0
M  V30 2936 H 264.308 2.4666 0.634911 0
M  V30 2937 H 265.091 3.34097 -0.789549 0
M  V30 2938 N 267.536 -0.106894 1.57237 0
M  V30 2939 C 268.469 -1.16125 1.96444 0
M  V30 2940 C 269.447 -1.3947 0.835871 0
M  V30 2941 O 270.631 -1.53425 1.09513 0
M  V30 2942 C 267.758 -2.51277 2.27107 0
M  V30 2943 C 266.804 -2.44285 3.4961 0
M  V30 2944 S 267.637 -1.87077 5.01759 0
M  V30 2945 C 268.793 -3.23877 5.35588 0
M  V30 2946 H 269.026 -0.826971 2.85567 0
M  V30 2947 H 266.559 -0.314124 1.51171 0
M  V30 2948 H 268.517 -3.29035 2.45451 0
M  V30 2949 H 267.178 -2.81879 1.38576 0
M  V30 2950 H 266.371 -3.4387 3.68469 0
M  V30 2951 H 265.973 -1.74652 3.30715 0
M  V30 2952 H 268.265 -4.20122 5.31511 0
M  V30 2953 H 269.208 -3.09833 6.36717 0
M  V30 2954 H 269.616 -3.22864 4.63054 0
M  V30 2955 N 269.014 -1.53014 -0.377408 0
M  V30 2956 C 270.262 -1.6829 -1.11906 0
M  V30 2957 C 270.583 -0.431206 -1.90173 0
M  V30 2958 O 269.853 0.554595 -1.87886 0
M  V30 2959 H 268.433 -0.620371 -0.416112 0
M  V30 2960 H 271.095 -1.90167 -0.426893 0
M  V30 2961 H 270.191 -2.53862 -1.8155 0
M  V30 2962 N 270.492 0.636531 -1.44174 0
M  V30 2963 C 271.738 1.39826 -1.4689 0
M  V30 2964 C 272.071 1.93947 -0.0990585 0
M  V30 2965 O 271.346 1.73325 0.882544 0
M  V30 2966 C 271.629 2.56751 -2.5249 0
M  V30 2967 C 271.482 2.08014 -3.98811 0
M  V30 2968 C 272.801 3.58946 -2.54649 0
M  V30 2969 H 269.92 0.507075 -0.53483 0
M  V30 2970 H 272.562 0.720188 -1.75822 0
M  V30 2971 H 270.712 3.14597 -2.2795 0
M  V30 2972 H 272.384 1.5504 -4.34466 0
M  V30 2973 H 270.627 1.39242 -4.10846 0
M  V30 2974 H 271.298 2.92169 -4.68339 0
M  V30 2975 H 273.774 3.1089 -2.76563 0
M  V30 2976 H 272.65 4.38286 -3.3045 0
M  V30 2977 H 272.911 4.12655 -1.58646 0
M  V30 2978 N 271.97 1.30982 0.876444 0
M  V30 2979 C 272.88 1.2003 2.01569 0
M  V30 2980 C 273.896 0.11838 1.73597 0
M  V30 2981 O 275.072 0.33495 1.98595 0
M  V30 2982 C 272.137 0.901637 3.34771 0
M  V30 2983 C 271.198 2.06979 3.76109 0
M  V30 2984 C 270.431 1.78529 5.02954 0
M  V30 2985 O 270.654 0.717296 5.65872 0
M  V30 2986 O 269.588 2.64019 5.40905 0
M  V30 2987 H 273.414 2.15753 2.13739 0
M  V30 2988 H 270.999 1.10658 1.00375 0
M  V30 2989 H 272.881 0.750645 4.1466 0
M  V30 2990 H 271.556 -0.0256141 3.2369 0
M  V30 2991 H 270.463 2.27616 2.96887 0
M  V30 2992 H 271.796 2.97907 3.91807 0
M  V30 2993 N 273.449 -1.08991 1.13837 0
M  V30 2994 C 274.698 -1.80631 0.897509 0
M  V30 2995 C 275.011 -1.86872 -0.57777 0
M  V30 2996 O 276.217 -2.54866 -0.935701 0
M  V30 2997 C 274.673 -3.24517 1.55618 0
M  V30 2998 C 274.281 -3.26529 3.0673 0
M  V30 2999 C 276.025 -4.00882 1.3962 0
M  V30 3000 C 273.932 -4.64965 3.65461 0
M  V30 3001 H 272.862 -0.67691 0.332129 0
M  V30 3002 H 275.513 -1.2246 1.3666 0
M  V30 3003 H 273.895 -3.82778 1.01476 0
M  V30 3004 H 275.069 -2.78008 3.67489 0
M  V30 3005 H 273.384 -2.63656 3.22296 0
M  V30 3006 H 275.981 -5.03167 1.80906 0
M  V30 3007 H 276.324 -4.14896 0.341578 0
M  V30 3008 H 276.857 -3.49075 1.90766 0
M  V30 3009 H 273.596 -4.56153 4.70749 0
M  V30 3010 H 273.116 -5.13792 3.09481 0
M  V30 3011 H 274.795 -5.3394 3.654 0
M  V30 3012 N 274.927 -0.932562 -1.27047 0
M  V30 3013 C 275.86 -0.379774 -2.25018 0
M  V30 3014 C 276.838 0.526587 -1.53837 0
M  V30 3015 O 278.022 0.465992 -1.82649 0
M  V30 3016 C 275.149 0.455187 -3.35627 0
M  V30 3017 C 274.195 -0.388428 -4.24728 0
M  V30 3018 S 275.028 -1.80701 -5.04091 0
M  V30 3019 C 276.184 -0.979865 -6.18182 0
M  V30 3020 H 276.417 -1.2101 -2.71558 0
M  V30 3021 H 273.95 -0.735078 -1.35779 0
M  V30 3022 H 275.908 0.931052 -3.99802 0
M  V30 3023 H 274.569 1.26009 -2.87716 0
M  V30 3024 H 273.762 0.25089 -5.03375 0
M  V30 3025 H 273.364 -0.798649 -3.65373 0
M  V30 3026 H 275.656 -0.218115 -6.77149 0
M  V30 3027 H 276.599 -1.73951 -6.86401 0
M  V30 3028 H 277.007 -0.51973 -5.62102 0
M  V30 3029 N 276.405 1.4127 -0.698611 0
M  V30 3030 C 277.368 2.29158 -0.044132 0
M  V30 3031 C 278.368 1.44529 0.704841 0
M  V30 3032 O 279.558 1.65643 0.539276 0
M  V30 3033 C 276.69 3.27459 0.947809 0
M  V30 3034 H 277.883 2.88529 -0.817994 0
M  V30 3035 H 275.436 1.49307 -0.46228 0
M  V30 3036 H 276.171 2.73073 1.74933 0
M  V30 3037 H 275.956 3.8991 0.41385 0
M  V30 3038 H 277.446 3.93311 1.40344 0
M  V30 3039 N 277.883 0.443576 1.51229 0
M  V30 3040 C 279.294 -0.0180867 1.86691 0
M  V30 3041 C 279.645 -1.41384 1.36033 0
M  V30 3042 O 278.77 -2.04291 0.713722 0
M  V30 3043 C 279.365 -0.039597 3.38777 0
M  V30 3044 C 277.924 -0.445692 3.73752 0
M  V30 3045 C 277.071 0.357584 2.74985 0
M  V30 3046 H 280.022 0.659138 1.44364 0
M  V30 3047 H 280.043 -0.847761 3.70936 0
M  V30 3048 H 279.555 0.976382 3.75617 0
M  V30 3049 H 277.656 -1.46704 3.42503 0
M  V30 3050 H 277.769 -0.166155 4.78812 0
M  V30 3051 H 276.133 -0.184973 2.54027 0
M  V30 3052 H 276.916 1.37256 3.14668 0
M  V30 3053 N 279.361 -1.56624 0.175154 0
M  V30 3054 C 280.772 -1.83561 -0.340916 0
M  V30 3055 C 281.123 -1.09511 -1.62794 0
M  V30 3056 O 280.248 -0.349389 -2.13561 0
M  V30 3057 C 280.843 -3.32979 -0.625313 0
M  V30 3058 C 279.402 -3.60399 -1.08581 0
M  V30 3059 C 278.549 -2.77024 -0.123722 0
M  V30 3060 H 281.5 -1.53593 0.399344 0
M  V30 3061 H 281.521 -3.50666 -1.47694 0
M  V30 3062 H 281.033 -3.86847 0.311575 0
M  V30 3063 H 279.134 -3.11945 -2.03767 0
M  V30 3064 H 279.247 -4.68711 -0.992317 0
M  V30 3065 H 277.611 -2.46993 -0.621821 0
M  V30 3066 H 278.394 -3.33674 0.807256 0
M  V30 3067 N 280.839 0.0985539 -1.57292 0
M  V30 3068 C 282.087 0.801092 -1.85545 0
M  V30 3069 C 282.408 1.79438 -0.763353 0
M  V30 3070 O 281.678 1.94763 0.21073 0
M  V30 3071 H 280.258 0.29884 -0.684619 0
M  V30 3072 H 282.92 0.0810064 -1.94732 0
M  V30 3073 H 282.016 1.3338 -2.82163 0
M  V30 3074 N 282.317 1.53212 0.369288 0
M  V30 3075 C 283.25 1.74166 1.4745 0
M  V30 3076 C 284.228 0.589923 1.51521 0
M  V30 3077 O 285.412 0.822078 1.69629 0
M  V30 3078 C 282.539 1.81711 2.8583 0
M  V30 3079 C 281.585 3.03649 2.99499 0
M  V30 3080 S 282.418 4.63242 2.6864 0
M  V30 3081 C 283.574 4.7363 4.09177 0
M  V30 3082 H 283.807 2.67636 1.29454 0
M  V30 3083 H 281.34 1.43754 0.563396 0
M  V30 3084 H 283.298 1.86743 3.65564 0
M  V30 3085 H 281.959 0.89299 3.01139 0
M  V30 3086 H 281.152 3.05526 4.00836 0
M  V30 3087 H 280.754 2.9671 2.27683 0
M  V30 3088 H 283.046 4.53456 5.03372 0
M  V30 3089 H 283.989 5.75682 4.12306 0
M  V30 3090 H 284.397 4.02295 3.96004 0
M  V30 3091 N 283.795 -0.628877 1.44509 0
M  V30 3092 C 284.705 -1.7694 1.54044 0
M  V30 3093 C 285.721 -1.68705 0.425987 0
M  V30 3094 O 286.897 -1.89442 0.683656 0
M  V30 3095 C 283.962 -3.13332 1.48405 0
M  V30 3096 C 283.023 -3.33181 2.70719 0
M  V30 3097 C 282.256 -4.63067 2.6534 0
M  V30 3098 O 282.479 -5.44017 1.71469 0
M  V30 3099 O 281.413 -4.85167 3.56226 0
M  V30 3100 H 285.239 -1.71848 2.50403 0
M  V30 3101 H 282.824 -0.790378 1.26781 0
M  V30 3102 H 284.706 -3.94634 1.47791 0
M  V30 3103 H 283.381 -3.1896 0.551898 0
M  V30 3104 H 282.288 -2.51549 2.769 0
M  V30 3105 H 283.621 -3.32416 3.62988 0
M  V30 3106 N 285.273 -1.31445 -0.869486 0
M  V30 3107 C 286.183 -1.21097 -2.0093 0
M  V30 3108 C 287.199 -0.127584 -1.73532 0
M  V30 3109 O 288.375 -0.345477 -1.98415 0
M  V30 3110 C 285.44 -0.919378 -3.34288 0
M  V30 3111 C 284.501 -2.08971 -3.75006 0
M  V30 3112 C 283.734 -1.81194 -5.02001 0
M  V30 3113 O 283.957 -0.747296 -5.65484 0
M  V30 3114 O 282.891 -2.66883 -5.39497 0
M  V30 3115 H 286.717 -2.16883 -2.12592 0
M  V30 3116 H 284.302 -1.11189 -0.997868 0
M  V30 3117 H 286.184 -0.772625 -4.14257 0
M  V30 3118 H 284.859 0.00844772 -3.23699 0
M  V30 3119 H 283.766 -2.29187 -2.95676 0
M  V30 3120 H 285.099 -2.9998 -3.90221 0
M  V30 3121 N 286.751 1.08385 -1.14413 0
M  V30 3122 C 287.684 2.14642 -0.774871 0
M  V30 3123 C 288.662 1.60761 0.243876 0
M  V30 3124 O 289.846 1.88031 0.132883 0
M  V30 3125 C 286.973 3.38366 -0.150491 0
M  V30 3126 C 286.019 4.10997 -1.13945 0
M  V30 3127 S 286.852 4.63797 -2.67679 0
M  V30 3128 C 288.008 5.90808 -2.06631 0
M  V30 3129 H 288.241 2.45633 -1.67487 0
M  V30 3130 H 285.774 1.20498 -0.96538 0
M  V30 3131 H 287.732 4.09996 0.203334 0
M  V30 3132 H 286.393 3.05572 0.72694 0
M  V30 3133 H 285.586 4.99783 -0.65059 0
M  V30 3134 H 285.188 3.4528 -1.43727 0
M  V30 3135 H 287.48 6.62411 -1.4219 0
M  V30 3136 H 288.423 6.4439 -2.93542 0
M  V30 3137 H 288.831 5.4383 -1.51357 0
M  V30 3138 N 288.23 0.939286 1.26551 0
M  V30 3139 C 289.458 0.602536 1.97932 0
M  V30 3140 C 289.873 -0.82206 1.69964 0
M  V30 3141 O 289.23 -1.54789 0.966784 0
M  V30 3142 C 289.281 0.832946 3.51773 0
M  V30 3143 O 289.002 2.20151 3.78768 0
M  V30 3144 C 290.503 0.506483 4.40397 0
M  V30 3145 H 287.723 0.227248 0.631347 0
M  V30 3146 H 290.267 1.25948 1.61113 0
M  V30 3147 H 288.422 0.222644 3.8676 0
M  V30 3148 H 288.836 2.26013 4.73306 0
M  V30 3149 H 290.31 0.718333 5.47306 0
M  V30 3150 H 290.787 -0.558451 4.35635 0
M  V30 3151 H 291.393 1.09543 4.10951 0
M  V30 3152 N 289.708 -1.40897 0.706093 0
M  V30 3153 C 290.933 -2.05895 0.249435 0
M  V30 3154 C 291.358 -1.52823 -1.09666 0
M  V30 3155 O 290.716 -0.659589 -1.68876 0
M  V30 3156 C 290.764 -3.59872 0.22904 0
M  V30 3157 O 289.868 -4.04708 -0.792784 0
M  V30 3158 H 289.209 -0.653206 0.119241 0
M  V30 3159 H 291.739 -1.80471 0.96391 0
M  V30 3160 H 291.749 -4.07951 0.0634791 0
M  V30 3161 H 290.424 -3.97866 1.21141 0
M  V30 3162 H 289.001 -3.68111 -0.59572 0
M  V30 3163 N 291.186 -0.45159 -1.50991 0
M  V30 3164 C 292.118 0.388634 -2.25881 0
M  V30 3165 C 293.131 0.974041 -1.30446 0
M  V30 3166 O 294.32 0.865758 -1.56099 0
M  V30 3167 C 291.42 1.5571 -3.01011 0
M  V30 3168 C 290.593 1.08801 -4.23652 0
M  V30 3169 C 289.652 2.12825 -4.8124 0
M  V30 3170 O 288.678 1.71678 -5.42693 0
M  V30 3171 N 289.88 3.45453 -4.66522 0
M  V30 3172 H 292.645 -0.25329 -2.98628 0
M  V30 3173 H 290.206 -0.281268 -1.59438 0
M  V30 3174 H 292.198 2.24952 -3.3642 0
M  V30 3175 H 290.768 2.10409 -2.31186 0
M  V30 3176 H 289.988 0.22215 -3.93574 0
M  V30 3177 H 291.276 0.752213 -5.03209 0
M  V30 3178 H 290.674 3.81605 -4.17605 0
M  V30 3179 H 289.231 4.10549 -5.06254 0
M  V30 3180 N 292.664 1.56529 -0.183458 0
M  V30 3181 C 293.594 2.21549 0.737456 0
M  V30 3182 C 294.575 1.17489 1.23005 0
M  V30 3183 O 295.76 1.45959 1.281 0
M  V30 3184 C 292.89 2.86575 1.96194 0
M  V30 3185 C 291.844 3.96778 1.60473 0
M  V30 3186 C 291.17 4.48911 2.90487 0
M  V30 3187 C 292.47 5.15767 0.823497 0
M  V30 3188 H 294.164 2.98761 0.195453 0
M  V30 3189 H 291.71 1.43702 0.0925686 0
M  V30 3190 H 293.663 3.30739 2.61131 0
M  V30 3191 H 292.387 2.06749 2.52828 0
M  V30 3192 H 291.046 3.53286 0.978997 0
M  V30 3193 H 290.694 3.65862 3.45186 0
M  V30 3194 H 290.394 5.23265 2.67335 0
M  V30 3195 H 291.918 4.95771 3.56432 0
M  V30 3196 H 293.332 5.56549 1.37571 0
M  V30 3197 H 291.729 5.96114 0.690551 0
M  V30 3198 H 292.799 4.84574 -0.177782 0
M  V30 3199 N 294.142 -0.090211 1.57342 0
M  V30 3200 C 295.074 -1.13541 1.99101 0
M  V30 3201 C 296.087 -1.3604 0.894258 0
M  V30 3202 O 297.276 -1.34606 1.17233 0
M  V30 3203 C 294.376 -2.49001 2.29895 0
M  V30 3204 C 293.549 -2.46712 3.61182 0
M  V30 3205 C 292.608 -3.64136 3.79857 0
M  V30 3206 O 291.634 -3.46405 4.51655 0
M  V30 3207 N 292.836 -4.83802 3.20806 0
M  V30 3208 H 295.601 -0.779942 2.89373 0
M  V30 3209 H 293.162 -0.279125 1.59476 0
M  V30 3210 H 295.154 -3.26166 2.39578 0
M  V30 3211 H 293.724 -2.76619 1.45605 0
M  V30 3212 H 292.944 -1.55058 3.62423 0
M  V30 3213 H 294.232 -2.42265 4.4742 0
M  V30 3214 H 293.63 -5.01112 2.62494 0
M  V30 3215 H 292.187 -5.58543 3.35966 0
M  V30 3216 N 295.62 -1.53406 -0.361157 0
M  V30 3217 C 296.845 -1.74024 -1.12829 0
M  V30 3218 C 297.27 -0.470069 -1.82132 0
M  V30 3219 O 296.628 0.57619 -1.719 0
M  V30 3220 C 296.676 -2.90903 -2.13091 0
M  V30 3221 O 295.78 -2.59821 -3.20261 0
M  V30 3222 H 295.121 -0.577804 -0.327168 0
M  V30 3223 H 297.651 -2.00307 -0.41693 0
M  V30 3224 H 297.661 -3.17194 -2.56616 0
M  V30 3225 H 296.336 -3.83034 -1.62042 0
M  V30 3226 H 294.913 -2.44362 -2.81677 0
M  V30 3227 N 297.098 0.621204 -1.44841 0
M  V30 3228 C 298.031 1.7459 -1.46947 0
M  V30 3229 C 299.009 1.59273 -0.327238 0
M  V30 3230 O 300.193 1.81021 -0.525706 0
M  V30 3231 C 297.32 3.12274 -1.31159 0
M  V30 3232 C 296.366 3.46216 -2.49072 0
M  V30 3233 S 297.199 3.4258 -4.11581 0
M  V30 3234 C 298.355 4.82867 -3.98233 0
M  V30 3235 H 298.588 1.72538 -2.42111 0
M  V30 3236 H 296.121 0.796683 -1.32259 0
M  V30 3237 H 298.079 3.91722 -1.22737 0
M  V30 3238 H 296.74 3.11855 -0.374885 0
M  V30 3239 H 295.933 4.4643 -2.33915 0
M  V30 3240 H 295.535 2.74253 -2.54286 0
M  V30 3241 H 297.827 5.7234 -3.62537 0
M  V30 3242 H 298.77 5.0308 -4.98313 0
M  V30 3243 H 299.178 4.57908 -3.30121 0
M  V30 3244 N 298.576 1.31904 0.862503 0
M  V30 3245 C 299.823 1.22017 1.61611 0
M  V30 3246 C 300.151 -0.21991 1.93253 0
M  V30 3247 O 299.406 -1.17076 1.56817 0
M  V30 3248 C 299.705 2.01713 2.95037 0
M  V30 3249 C 299.371 3.51145 2.82857 0
M  V30 3250 C 298.033 3.91889 2.79243 0
M  V30 3251 C 300.385 4.46204 2.69353 0
M  V30 3252 C 297.713 5.25947 2.59993 0
M  V30 3253 C 300.065 5.80397 2.5164 0
M  V30 3254 C 298.729 6.20352 2.46413 0
M  V30 3255 H 297.999 0.44649 0.591378 0
M  V30 3256 H 300.646 1.63248 1.00111 0
M  V30 3257 H 298.951 1.53185 3.60613 0
M  V30 3258 H 300.648 1.91437 3.52353 0
M  V30 3259 H 297.238 3.1878 2.86491 0
M  V30 3260 H 301.422 4.15652 2.71196 0
M  V30 3261 H 296.678 5.5597 2.54376 0
M  V30 3262 H 300.852 6.53676 2.40169 0
M  V30 3263 H 298.479 7.24172 2.31256 0
M  V30 3264 N 300.054 -1.07777 1.14986 0
M  V30 3265 C 300.986 -2.14769 0.800436 0
M  V30 3266 C 301.999 -1.61739 -0.185595 0
M  V30 3267 O 303.188 -1.78462 0.0370358 0
M  V30 3268 C 300.288 -3.38481 0.168533 0
M  V30 3269 C 299.461 -4.20876 1.1909 0
M  V30 3270 C 298.52 -5.22976 0.581575 0
M  V30 3271 O 297.546 -5.55388 1.24633 0
M  V30 3272 N 298.748 -5.76976 -0.638706 0
M  V30 3273 H 301.513 -2.45348 1.72118 0
M  V30 3274 H 299.074 -1.23645 1.04515 0
M  V30 3275 H 301.066 -4.03916 -0.251764 0
M  V30 3276 H 299.636 -3.05651 -0.655467 0
M  V30 3277 H 298.856 -3.51322 1.78791 0
M  V30 3278 H 300.144 -4.7274 1.88133 0
M  V30 3279 H 299.542 -5.52886 -1.19723 0
M  V30 3280 H 298.099 -6.44061 -1.00142 0
M  V30 3281 N 301.532 -0.945985 -1.26051 0
M  V30 3282 C 302.48 -0.450259 -2.282 0
M  V30 3283 C 303.474 0.47497 -1.62605 0
M  V30 3284 O 304.68 0.352653 -1.76512 0
M  V30 3285 H 301.055 -0.127081 -0.741184 0
M  V30 3286 H 303.026 -1.32422 -2.67408 0
M  V30 3287 C 301.775 0.26467 -3.46691 0
M  V30 3288 H 301.098 -0.438123 -3.97392 0
M  V30 3289 H 302.538 0.575678 -4.20074 0
M  V30 3290 C 300.997 1.48416 -3.02447 0
M  V30 3291 O 301.527 2.58227 -3.07704 0
M  V30 3292 N 299.733 1.34243 -2.57735 0
M  V30 3293 H 299.28 0.448994 -2.53657 0
M  V30 3294 H 299.238 2.15957 -2.28495 0
M  V30 3295 N 303.011 1.40521 -0.713556 0
M  V30 3296 C 303.941 2.33381 -0.0743864 0
M  V30 3297 C 304.922 1.52784 0.747735 0
M  V30 3298 O 306.107 1.81258 0.697071 0
M  V30 3299 C 303.237 3.36748 0.849598 0
M  V30 3300 C 302.191 4.27793 0.133247 0
M  V30 3301 C 301.517 5.21679 1.17281 0
M  V30 3302 C 302.817 5.12415 -1.01134 0
M  V30 3303 H 304.511 2.87081 -0.850007 0
M  V30 3304 H 302.057 1.38034 -0.410201 0
M  V30 3305 H 304.01 4.00648 1.30612 0
M  V30 3306 H 302.734 2.81439 1.65709 0
M  V30 3307 H 301.393 3.65342 -0.303426 0
M  V30 3308 H 301.041 4.62677 1.9733 0
M  V30 3309 H 300.741 5.83435 0.698397 0
M  V30 3310 H 302.265 5.88456 1.62947 0
M  V30 3311 H 303.679 5.69781 -0.634274 0
M  V30 3312 H 302.076 5.83203 -1.41399 0
M  V30 3313 H 303.146 4.48514 -1.84292 0
M  V30 3314 N 304.489 0.459591 1.5075 0
M  V30 3315 C 305.737 -0.0991532 2.01857 0
M  V30 3316 C 306.058 -1.41247 1.34441 0
M  V30 3317 O 305.328 -1.89775 0.486022 0
M  V30 3318 H 303.908 -0.039633 0.745948 0
M  V30 3319 H 306.57 0.607387 1.85194 0
M  V30 3320 H 305.666 -0.258998 3.11023 0
M  V30 3321 N 305.967 -1.56429 0.191757 0
M  V30 3322 C 307.215 -1.97095 -0.447006 0
M  V30 3323 C 307.536 -1.07967 -1.62383 0
M  V30 3324 O 306.806 -0.150248 -1.95323 0
M  V30 3325 H 305.386 -0.727832 -0.168135 0
M  V30 3326 H 308.048 -1.92911 0.27771 0
M  V30 3327 H 307.144 -3.01848 -0.793371 0
M  V30 3328 N 307.445 0.0818655 -1.57387 0
M  V30 3329 C 308.377 1.12484 -1.997 0
M  V30 3330 C 309.39 1.35564 -0.90146 0
M  V30 3331 O 310.579 1.33982 -1.17945 0
M  V30 3332 C 307.679 2.47778 -2.31213 0
M  V30 3333 C 306.852 2.44793 -3.62485 0
M  V30 3334 C 305.911 3.62117 -3.81782 0
M  V30 3335 O 304.937 3.44005 -4.53486 0
M  V30 3336 N 306.139 4.82094 -3.23367 0
M  V30 3337 H 308.904 0.764585 -2.89783 0
M  V30 3338 H 306.465 0.270664 -1.59621 0
M  V30 3339 H 308.457 3.24891 -2.41304 0
M  V30 3340 H 307.027 2.75843 -1.4707 0
M  V30 3341 H 306.247 1.53134 -3.6324 0
M  V30 3342 H 307.535 2.39889 -4.48699 0
M  V30 3343 H 306.933 4.99713 -2.65148 0
M  V30 3344 H 305.49 5.56753 -3.38923 0
M  V30 3345 N 308.923 1.53595 0.353017 0
M  V30 3346 C 309.87 1.80919 1.43308 0
M  V30 3347 C 310.84 0.654288 1.5267 0
M  V30 3348 O 312.025 0.897759 1.6836 0
M  V30 3349 C 309.165 2.01605 2.80089 0
M  V30 3350 C 308.278 3.29321 2.79593 0
M  V30 3351 C 307.413 3.40125 4.0803 0
M  V30 3352 C 306.452 4.61826 4.01725 0
M  V30 3353 N 305.589 4.69716 5.21834 0
M  V30 3354 H 310.429 2.73074 1.19308 0
M  V30 3355 H 307.966 1.35263 0.578131 0
M  V30 3356 H 309.924 2.11586 3.59565 0
M  V30 3357 H 308.554 1.12772 3.0246 0
M  V30 3358 H 307.606 3.28229 1.92276 0
M  V30 3359 H 308.918 4.18884 2.70809 0
M  V30 3360 H 308.072 3.49488 4.95927 0
M  V30 3361 H 306.811 2.48601 4.19582 0
M  V30 3362 H 305.816 4.52552 3.12213 0
M  V30 3363 H 307.041 5.54705 3.91764 0
M  V30 3364 H 304.987 3.81097 5.33948 0
M  V30 3365 H 304.904 5.53202 5.1527 0
M  V30 3366 H 306.172 4.83376 6.11529 0
M  V30 3367 N 310.401 -0.613514 1.45168 0
M  V30 3368 C 311.333 -1.73825 1.4939 0
M  V30 3369 C 312.346 -1.58175 0.385304 0
M  V30 3370 O 313.535 -1.66165 0.652036 0
M  V30 3371 C 310.635 -3.11758 1.32891 0
M  V30 3372 C 309.808 -3.53704 2.57317 0
M  V30 3373 C 308.867 -4.70579 2.35462 0
M  V30 3374 O 307.893 -4.77996 3.09044 0
M  V30 3375 N 309.095 -5.63454 1.39644 0
M  V30 3376 H 311.86 -1.70669 2.46358 0
M  V30 3377 H 309.421 -0.79862 1.40832 0
M  V30 3378 H 311.413 -3.87692 1.1609 0
M  V30 3379 H 309.983 -3.09456 0.442218 0
M  V30 3380 H 309.203 -2.67794 2.89275 0
M  V30 3381 H 310.491 -3.78486 3.40038 0
M  V30 3382 H 309.889 -5.6017 0.789062 0
M  V30 3383 H 308.446 -6.38944 1.28816 0
M  V30 3384 N 311.879 -1.3236 -0.855495 0
M  V30 3385 C 312.826 -1.21225 -1.964 0
M  V30 3386 C 313.796 -0.0946204 -1.6583 0
M  V30 3387 O 314.981 -0.27002 -1.8888 0
M  V30 3388 C 312.121 -0.940419 -3.32039 0
M  V30 3389 C 311.234 -2.14276 -3.75113 0
M  V30 3390 C 310.369 -1.80648 -4.9954 0
M  V30 3391 C 309.408 -2.97208 -5.35102 0
M  V30 3392 N 308.545 -2.63678 -6.50706 0
M  V30 3393 H 313.385 -2.16042 -2.05255 0
M  V30 3394 H 310.922 -1.07451 -1.00463 0
M  V30 3395 H 312.88 -0.763311 -4.10158 0
M  V30 3396 H 311.51 -0.0290413 -3.22787 0
M  V30 3397 H 310.562 -2.43017 -2.92655 0
M  V30 3398 H 311.874 -3.01468 -3.97389 0
M  V30 3399 H 311.028 -1.59484 -5.85363 0
M  V30 3400 H 309.767 -0.906678 -4.79198 0
M  V30 3401 H 308.772 -3.19004 -4.47791 0
M  V30 3402 H 309.997 -3.87918 -5.57401 0
M  V30 3403 H 307.943 -1.76238 -6.31883 0
M  V30 3404 H 307.86 -3.444 -6.72997 0
M  V30 3405 H 309.128 -2.45942 -7.39684 0
M  V30 3406 N 313.357 1.07166 -1.15556 0
M  V30 3407 C 314.32 2.12589 -0.856644 0
M  V30 3408 C 315.32 1.6015 0.14444 0
M  V30 3409 O 316.51 1.7399 -0.0854163 0
M  V30 3410 C 313.642 3.39753 -0.279405 0
M  V30 3411 H 314.835 2.40539 -1.79112 0
M  V30 3412 H 312.388 1.23086 -0.963298 0
M  V30 3413 H 313.123 3.17447 0.663174 0
M  V30 3414 H 312.908 3.79117 -1.00063 0
M  V30 3415 H 314.398 4.17507 -0.0879113 0
M  V30 3416 N 314.835 0.952656 1.25548 0
M  V30 3417 C 316.251 0.656769 1.4546 0
M  V30 3418 C 316.451 -0.78633 1.85524 0
M  V30 3419 O 315.507 -1.56183 1.98402 0
M  V30 3420 C 316.82 1.62801 2.52817 0
M  V30 3421 C 318.368 1.63897 2.66659 0
M  V30 3422 C 318.843 2.5978 3.77198 0
M  V30 3423 N 320.334 2.58133 3.84606 0
M  V30 3424 C 321.069 3.29003 4.69621 0
M  V30 3425 N 320.565 4.09339 5.58939 0
M  V30 3426 N 322.358 3.179 4.63569 0
M  V30 3427 H 314.509 1.88526 0.978344 0
M  V30 3428 H 316.772 0.810815 0.491206 0
M  V30 3429 H 316.478 2.65869 2.30232 0
M  V30 3430 H 316.352 1.38898 3.50695 0
M  V30 3431 H 318.739 0.615481 2.8861 0
M  V30 3432 H 318.82 1.91858 1.69187 0
M  V30 3433 H 318.464 3.62254 3.55997 0
M  V30 3434 H 318.394 2.29105 4.7415 0
M  V30 3435 H 320.885 1.99809 3.20757 0
M  V30 3436 H 321.198 4.6034 6.20731 0
M  V30 3437 H 319.543 4.13438 5.58654 0
M  V30 3438 H 322.734 2.54612 3.92798 0
M  V30 3439 H 322.907 3.73398 5.29602 0
M  V30 3440 N 316.313 -1.40141 0.720998 0
M  V30 3441 C 317.26 -2.30688 0.071919 0
M  V30 3442 C 318.23 -1.48476 -0.744584 0
M  V30 3443 O 319.415 -1.77201 -0.707423 0
M  V30 3444 C 316.555 -3.34724 -0.839855 0
M  V30 3445 C 315.668 -4.31998 -0.0122438 0
M  V30 3446 C 314.803 -5.23102 -0.923995 0
M  V30 3447 C 313.842 -6.12033 -0.0907969 0
M  V30 3448 N 312.979 -6.95537 -0.957718 0
M  V30 3449 H 317.819 -2.85628 0.849755 0
M  V30 3450 H 315.356 -1.40653 0.430726 0
M  V30 3451 H 317.314 -3.93618 -1.38279 0
M  V30 3452 H 315.944 -2.81274 -1.58381 0
M  V30 3453 H 314.996 -3.74841 0.64794 0
M  V30 3454 H 316.308 -4.94772 0.632595 0
M  V30 3455 H 315.462 -5.86953 -1.53527 0
M  V30 3456 H 314.201 -4.60615 -1.60264 0
M  V30 3457 H 313.206 -5.47207 0.533377 0
M  V30 3458 H 314.431 -6.76581 0.584428 0
M  V30 3459 H 312.377 -6.35633 -1.62192 0
M  V30 3460 H 312.294 -7.55099 -0.36904 0
M  V30 3461 H 313.562 -7.63832 -1.555 0
M  V30 3462 N 317.792 -0.46758 -1.50504 0
M  V30 3463 C 318.722 0.318381 -2.31319 0
M  V30 3464 C 319.703 0.993564 -1.38066 0
M  V30 3465 O 320.888 0.991411 -1.66987 0
M  V30 3466 C 318.018 1.40275 -3.17711 0
M  V30 3467 C 316.972 0.849373 -4.19487 0
M  V30 3468 C 316.298 2.03177 -4.94594 0
M  V30 3469 C 317.598 -0.136942 -5.2212 0
M  V30 3470 H 319.292 -0.356106 -2.97275 0
M  V30 3471 H 316.838 -0.172703 -1.42961 0
M  V30 3472 H 318.791 1.96004 -3.73042 0
M  V30 3473 H 317.515 2.10596 -2.49634 0
M  V30 3474 H 316.174 0.314076 -3.65252 0
M  V30 3475 H 315.822 2.72187 -4.22993 0
M  V30 3476 H 315.522 1.66774 -5.63436 0
M  V30 3477 H 317.046 2.59403 -5.52759 0
M  V30 3478 H 318.46 0.331056 -5.72343 0
M  V30 3479 H 316.857 -0.41507 -5.98663 0
M  V30 3480 H 317.927 -1.06398 -4.73083 0
M  V30 3481 N 319.27 1.56325 -0.20005 0
M  V30 3482 C 320.217 2.1932 0.718833 0
M  V30 3483 C 321.187 1.14198 1.20615 0
M  V30 3484 O 322.372 1.42469 1.26914 0
M  V30 3485 C 319.512 2.86041 1.93066 0
M  V30 3486 C 318.625 4.05702 1.48425 0
M  V30 3487 C 317.76 4.60266 2.65196 0
M  V30 3488 C 316.799 5.72273 2.17185 0
M  V30 3489 N 315.936 6.21221 3.27152 0
M  V30 3490 H 320.776 2.97486 0.17489 0
M  V30 3491 H 318.313 1.46911 0.0745794 0
M  V30 3492 H 320.271 3.22897 2.64184 0
M  V30 3493 H 318.901 2.1043 2.44783 0
M  V30 3494 H 317.953 3.74475 0.668755 0
M  V30 3495 H 319.265 4.86699 1.09204 0
M  V30 3496 H 318.419 4.99453 3.4443 0
M  V30 3497 H 317.158 3.78386 3.07693 0
M  V30 3498 H 316.163 5.3261 1.36407 0
M  V30 3499 H 317.388 6.55974 1.75713 0
M  V30 3500 H 315.334 5.42263 3.69171 0
M  V30 3501 H 315.251 6.97284 2.92116 0
M  V30 3502 H 316.519 6.65063 4.06585 0
M  V30 3503 N 320.748 -0.0735177 1.57428 0
M  V30 3504 C 321.997 -0.771809 1.86349 0
M  V30 3505 C 322.31 -1.78828 0.792452 0
M  V30 3506 O 323.516 -2.53602 0.96945 0
M  V30 3507 C 321.972 -1.42358 3.30548 0
M  V30 3508 C 321.58 -0.445761 4.45777 0
M  V30 3509 C 323.324 -2.10434 3.6867 0
M  V30 3510 C 321.231 -1.10335 5.81016 0
M  V30 3511 H 320.161 -0.291999 0.695164 0
M  V30 3512 H 322.812 -0.0250749 1.83483 0
M  V30 3513 H 321.194 -2.21852 3.28021 0
M  V30 3514 H 322.368 0.319239 4.59693 0
M  V30 3515 H 320.683 0.130457 4.16196 0
M  V30 3516 H 323.28 -2.60405 4.67004 0
M  V30 3517 H 323.623 -2.90298 2.98383 0
M  V30 3518 H 324.156 -1.37773 3.7318 0
M  V30 3519 H 320.895 -0.345061 6.54591 0
M  V30 3520 H 320.415 -1.83925 5.70904 0
M  V30 3521 H 322.094 -1.62367 6.26295 0
M  V30 3522 N 322.226 -1.5378 -0.344866 0
M  V30 3523 C 323.173 -1.81676 -1.42346 0
M  V30 3524 C 324.143 -0.662376 -1.52321 0
M  V30 3525 O 325.328 -0.906675 -1.67881 0
M  V30 3526 C 322.468 -2.03087 -2.79015 0
M  V30 3527 C 321.581 -3.30799 -2.77842 0
M  V30 3528 C 320.716 -3.42285 -4.0622 0
M  V30 3529 C 319.755 -4.6395 -3.9927 0
M  V30 3530 N 318.892 -4.72477 -5.19336 0
M  V30 3531 H 323.732 -2.73703 -1.17858 0
M  V30 3532 H 321.269 -1.35568 -0.570949 0
M  V30 3533 H 323.227 -2.1349 -3.58438 0
M  V30 3534 H 321.857 -1.14375 -3.01858 0
M  V30 3535 H 320.909 -3.29244 -1.90533 0
M  V30 3536 H 322.221 -4.20314 -2.68584 0
M  V30 3537 H 321.375 -3.52113 -4.94066 0
M  V30 3538 H 320.114 -2.50823 -4.18258 0
M  V30 3539 H 319.119 -4.54201 -3.09809 0
M  V30 3540 H 320.344 -5.56775 -3.88817 0
M  V30 3541 H 318.29 -3.83924 -5.3192 0
M  V30 3542 H 318.207 -5.55927 -5.12329 0
M  V30 3543 H 319.475 -4.86613 -6.08957 0
M  V30 3544 N 323.704 0.605807 -1.45491 0
M  V30 3545 C 324.981 1.36522 -1.40075 0
M  V30 3546 C 325.361 2.10976 -0.0722744 0
M  V30 3547 O 324.709 2.08007 0.945808 0
M  V30 3548 C 324.919 2.31056 -2.61561 0
M  V30 3549 C 326.267 2.93608 -3.06724 0
M  V30 3550 O 327.291 2.41376 -2.61946 0
M  V30 3551 O 326.15 3.88421 -3.84437 0
M  V30 3552 H 323.244 0.612248 -0.555951 0
M  V30 3553 H 325.79 0.628747 -1.57623 0
M  V30 3554 H 324.562 1.75311 -3.49831 0
M  V30 3555 H 324.185 3.12081 -2.46356 0
M  V30 3556 N 325.182 1.32811 0.848464 0
M  V30 3557 C 326.145 1.22194 1.9391 0
M  V30 3558 C 327.145 0.143404 1.60159 0
M  V30 3559 O 328.335 0.394253 1.6968 0
M  V30 3560 C 325.467 0.88067 3.29328 0
M  V30 3561 H 326.66 2.19127 2.04752 0
M  V30 3562 H 324.213 1.16731 1.0394 0
M  V30 3563 H 324.948 -0.0865776 3.24184 0
M  V30 3564 H 324.733 1.66052 3.55203 0
M  V30 3565 H 326.223 0.830871 4.09251 0
M  V30 3566 N 326.66 -1.06551 1.16123 0
M  V30 3567 C 327.593 -2.13382 0.80892 0
M  V30 3568 C 328.571 -1.61128 -0.21827 0
M  V30 3569 O 329.755 -1.88219 -0.102952 0
M  V30 3570 C 326.882 -3.38083 0.204303 0
M  V30 3571 C 325.928 -4.09133 1.20469 0
M  V30 3572 S 326.761 -4.5948 2.75024 0
M  V30 3573 C 327.917 -5.87446 2.16005 0
M  V30 3574 H 328.15 -2.42937 1.71373 0
M  V30 3575 H 325.683 -1.18947 0.984428 0
M  V30 3576 H 327.641 -4.10268 -0.138081 0
M  V30 3577 H 326.302 -3.0669 -0.678234 0
M  V30 3578 H 325.495 -4.98685 0.730019 0
M  V30 3579 H 325.097 -3.4295 1.49202 0
M  V30 3580 H 327.389 -6.60065 1.5271 0
M  V30 3581 H 328.332 -6.39639 3.03756 0
M  V30 3582 H 328.74 -5.41354 1.59989 0
M  V30 3583 N 328.138 -0.959301 -1.25041 0
M  V30 3584 C 329.085 -0.482057 -2.2571 0
M  V30 3585 C 330.055 0.467939 -1.59372 0
M  V30 3586 O 331.24 0.380159 -1.86974 0
M  V30 3587 C 328.38 0.229623 -3.44335 0
M  V30 3588 C 327.493 -0.758156 -4.25295 0
M  V30 3589 C 326.628 -0.0234403 -5.31195 0
M  V30 3590 C 325.667 -1.00184 -6.03846 0
M  V30 3591 N 324.804 -0.29769 -7.01469 0
M  V30 3592 H 329.644 -1.34538 -2.65901 0
M  V30 3593 H 327.181 -0.674592 -1.3072 0
M  V30 3594 H 329.139 0.658856 -4.11965 0
M  V30 3595 H 327.769 1.05696 -3.05005 0
M  V30 3596 H 326.821 -1.30586 -3.57284 0
M  V30 3597 H 328.133 -1.50458 -4.75567 0
M  V30 3598 H 327.287 0.464201 -6.04922 0
M  V30 3599 H 326.026 0.755741 -4.81809 0
M  V30 3600 H 325.031 -1.50044 -5.2893 0
M  V30 3601 H 326.256 -1.78133 -6.55321 0
M  V30 3602 H 324.202 0.462668 -6.54366 0
M  V30 3603 H 324.119 -0.983128 -7.4958 0
M  V30 3604 H 325.387 0.16826 -7.79318 0
M  V30 3605 N 329.616 1.39756 -0.72842 0
M  V30 3606 C 330.546 2.33289 -0.0991354 0
M  V30 3607 C 331.527 1.53568 0.731489 0
M  V30 3608 O 332.712 1.81987 0.677807 0
M  V30 3609 C 329.842 3.3763 0.813834 0
M  V30 3610 C 328.796 4.2791 0.0878663 0
M  V30 3611 C 328.122 5.22894 1.11741 0
M  V30 3612 C 329.422 5.11314 -1.06563 0
M  V30 3613 H 331.116 2.86163 -0.880408 0
M  V30 3614 H 328.662 1.37591 -0.424819 0
M  V30 3615 H 330.615 4.0201 1.26355 0
M  V30 3616 H 329.339 2.83181 1.62715 0
M  V30 3617 H 327.998 3.65 -0.342159 0
M  V30 3618 H 327.646 4.64744 1.92412 0
M  V30 3619 H 327.346 5.84143 0.636477 0
M  V30 3620 H 328.87 5.90151 1.56697 0
M  V30 3621 H 330.284 5.69076 -0.694671 0
M  V30 3622 H 328.681 5.81671 -1.47577 0
M  V30 3623 H 329.751 4.46534 -1.89038 0
M  V30 3624 N 331.094 0.475555 1.50254 0
M  V30 3625 C 332.024 -0.30611 2.31485 0
M  V30 3626 C 333.005 -0.986228 1.38591 0
M  V30 3627 O 334.19 -0.982541 1.67511 0
M  V30 3628 C 331.32 -1.38588 3.1845 0
M  V30 3629 C 330.274 -0.827115 4.19932 0
M  V30 3630 C 329.6 -2.00551 4.95665 0
M  V30 3631 C 330.9 0.16463 5.2204 0
M  V30 3632 H 332.594 0.371866 2.97082 0
M  V30 3633 H 330.14 0.180282 1.42867 0
M  V30 3634 H 332.093 -1.94023 3.74076 0
M  V30 3635 H 330.817 -2.09269 2.50747 0
M  V30 3636 H 329.476 -0.294702 3.65414 0
M  V30 3637 H 329.124 -2.6994 4.2443 0
M  V30 3638 H 328.824 -1.63784 5.64313 0
M  V30 3639 H 330.348 -2.56468 5.54127 0
M  V30 3640 H 331.762 -0.300699 5.72511 0
M  V30 3641 H 330.159 0.446813 5.98434 0
M  V30 3642 H 331.229 1.08905 4.72512 0
M  V30 3643 N 332.573 -1.56217 0.208337 0
M  V30 3644 C 333.822 -1.97124 -0.427204 0
M  V30 3645 C 334.135 -1.09859 -1.61835 0
M  V30 3646 O 335.341 -1.40606 -2.32255 0
M  V30 3647 C 333.797 -3.50633 -0.811442 0
M  V30 3648 C 333.405 -4.46582 0.35615 0
M  V30 3649 C 335.149 -4.00282 -1.41332 0
M  V30 3650 C 333.056 -5.91379 -0.0497852 0
M  V30 3651 H 331.986 -0.736086 -0.163381 0
M  V30 3652 H 334.637 -1.8099 0.302456 0
M  V30 3653 H 333.019 -3.62319 -1.59815 0
M  V30 3654 H 334.193 -4.46636 1.1337 0
M  V30 3655 H 332.508 -4.07202 0.870396 0
M  V30 3656 H 335.105 -5.0595 -1.72972 0
M  V30 3657 H 335.448 -3.45359 -2.32449 0
M  V30 3658 H 335.981 -3.91764 -0.690323 0
M  V30 3659 H 332.72 -6.50255 0.827529 0
M  V30 3660 H 332.24 -5.94549 -0.791926 0
M  V30 3661 H 333.919 -6.45209 -0.481042 0
M  V30 3662 N 334.051 0.0651679 -1.57465 0
M  V30 3663 C 334.961 1.09448 -2.07505 0
M  V30 3664 C 335.977 1.41974 -1.00595 0
M  V30 3665 O 337.153 1.52018 -1.32107 0
M  V30 3666 C 334.218 2.38689 -2.51453 0
M  V30 3667 C 333.279 2.13073 -3.72691 0
M  V30 3668 C 332.512 3.36152 -4.14533 0
M  V30 3669 O 332.735 4.45517 -3.56189 0
M  V30 3670 O 331.669 3.23974 -5.07272 0
M  V30 3671 H 335.495 0.69935 -2.95538 0
M  V30 3672 H 333.08 0.279752 -1.46757 0
M  V30 3673 H 334.962 3.14736 -2.80212 0
M  V30 3674 H 333.637 2.77568 -1.66546 0
M  V30 3675 H 332.544 1.34709 -3.49005 0
M  V30 3676 H 333.877 1.79071 -4.5847 0
M  V30 3677 N 335.529 1.53961 0.336706 0
M  V30 3678 C 336.439 1.85432 1.43708 0
M  V30 3679 C 337.455 0.745053 1.57242 0
M  V30 3680 O 338.631 1.03804 1.72588 0
M  V30 3681 C 335.696 2.06349 2.78605 0
M  V30 3682 C 334.757 3.30191 2.74358 0
M  V30 3683 C 333.99 3.50101 4.02822 0
M  V30 3684 O 334.213 2.7371 5.00439 0
M  V30 3685 O 333.147 4.43547 4.06878 0
M  V30 3686 H 336.973 2.78975 1.20028 0
M  V30 3687 H 334.558 1.39701 0.52952 0
M  V30 3688 H 336.44 2.21513 3.58483 0
M  V30 3689 H 335.115 1.15995 3.02203 0
M  V30 3690 H 334.022 3.20425 1.93078 0
M  V30 3691 H 335.355 4.2056 2.55715 0
M  V30 3692 N 337.007 -0.598083 1.45811 0
M  V30 3693 C 337.917 -1.73632 1.57763 0
M  V30 3694 C 338.933 -1.67763 0.461676 0
M  V30 3695 O 340.109 -1.87949 0.723685 0
M  V30 3696 C 337.174 -3.10114 1.55018 0
M  V30 3697 C 336.235 -3.27364 2.77726 0
M  V30 3698 C 335.468 -4.57334 2.75102 0
M  V30 3699 O 335.691 -5.40258 1.8297 0
M  V30 3700 O 334.625 -4.77502 3.66437 0
M  V30 3701 H 338.451 -1.66498 2.53992 0
M  V30 3702 H 336.036 -0.763308 1.28429 0
M  V30 3703 H 337.918 -3.9141 1.56129 0
M  V30 3704 H 336.593 -3.17718 0.619431 0
M  V30 3705 H 335.5 -2.45619 2.82174 0
M  V30 3706 H 336.833 -3.24641 3.69958 0
M  V30 3707 N 338.485 -1.33259 -0.841409 0
M  V30 3708 C 339.448 -1.23221 -1.9326 0
M  V30 3709 C 340.448 -0.151895 -1.60081 0
M  V30 3710 O 341.638 -0.403246 -1.69468 0
M  V30 3711 C 338.77 -0.898123 -3.28856 0
M  V30 3712 H 339.963 -2.2021 -2.03587 0
M  V30 3713 H 337.516 -1.17281 -1.03319 0
M  V30 3714 H 338.251 0.0693841 -3.24226 0
M  V30 3715 H 338.036 -1.67934 -3.54317 0
M  V30 3716 H 339.526 -0.852563 -4.08805 0
M  V30 3717 N 339.963 1.05934 -1.16686 0
M  V30 3718 C 340.926 2.11669 -0.879144 0
M  V30 3719 C 341.926 1.60294 0.127445 0
M  V30 3720 O 343.116 1.7389 -0.103865 0
M  V30 3721 C 340.248 3.39438 -0.315425 0
M  V30 3722 H 341.441 2.38626 -1.81653 0
M  V30 3723 H 338.994 1.22058 -0.976299 0
M  V30 3724 H 339.729 3.18132 0.629468 0
M  V30 3725 H 339.514 3.78034 -1.04079 0
M  V30 3726 H 341.004 4.17391 -0.132189 0
M  V30 3727 N 341.441 0.965919 1.2453 0
M  V30 3728 C 342.388 0.49402 2.25451 0
M  V30 3729 C 343.358 -0.45948 1.59618 0
M  V30 3730 O 344.543 -0.370238 1.87173 0
M  V30 3731 C 341.683 -0.211359 3.44452 0
M  V30 3732 C 340.796 0.7807 4.24887 0
M  V30 3733 C 339.931 0.0516105 5.31175 0
M  V30 3734 C 338.97 1.03385 6.03306 0
M  V30 3735 N 338.107 0.334887 7.01301 0
M  V30 3736 H 342.947 1.35946 2.65184 0
M  V30 3737 H 340.484 0.681515 1.3036 0
M  V30 3738 H 342.442 -0.637 4.12308 0
M  V30 3739 H 341.072 -1.04077 3.05562 0
M  V30 3740 H 340.124 1.32479 3.56586 0
M  V30 3741 H 341.436 1.52978 4.74762 0
M  V30 3742 H 340.59 -0.432114 6.05159 0
M  V30 3743 H 339.329 -0.730179 4.82203 0
M  V30 3744 H 338.334 1.52847 5.28127 0
M  V30 3745 H 339.559 1.81606 6.54367 0
M  V30 3746 H 337.505 -0.427959 6.54603 0
M  V30 3747 H 337.422 1.02287 7.49048 0
M  V30 3748 H 338.69 -0.126928 7.79397 0
M  V30 3749 N 342.919 -1.39368 0.735821 0
M  V30 3750 C 343.849 -2.33234 0.111506 0
M  V30 3751 C 344.83 -1.53954 -0.723334 0
M  V30 3752 O 346.015 -1.82344 -0.668147 0
M  V30 3753 C 343.145 -3.38057 -0.795917 0
M  V30 3754 C 342.099 -4.2795 -0.065172 0
M  V30 3755 C 341.425 -5.23479 -1.08967 0
M  V30 3756 C 342.725 -5.10741 1.09273 0
M  V30 3757 H 344.419 -2.85692 0.895571 0
M  V30 3758 H 341.965 -1.37364 0.432109 0
M  V30 3759 H 343.918 -4.02675 -1.24221 0
M  V30 3760 H 342.642 -2.8404 -1.61211 0
M  V30 3761 H 341.301 -3.64813 0.361511 0
M  V30 3762 H 340.949 -4.65758 -1.89944 0
M  V30 3763 H 340.649 -5.84472 -0.605489 0
M  V30 3764 H 342.173 -5.90974 -1.53565 0
M  V30 3765 H 343.587 -5.68699 0.724841 0
M  V30 3766 H 341.984 -5.8088 1.50659 0
M  V30 3767 H 343.054 -4.45525 1.91404 0
M  V30 3768 N 344.397 -0.483516 -1.5 0
M  V30 3769 C 345.643 0.0672592 -2.02688 0
M  V30 3770 C 345.976 1.38247 -1.36387 0
M  V30 3771 O 345.251 1.88131 -0.493675 0
M  V30 3772 C 345.534 0.238109 -3.59312 0
M  V30 3773 C 345.387 -1.099 -4.36168 0
M  V30 3774 C 346.706 0.986916 -4.28892 0
M  V30 3775 H 343.825 0.0229696 -0.736642 0
M  V30 3776 H 346.467 -0.631527 -1.79197 0
M  V30 3777 H 344.617 0.8333 -3.79458 0
M  V30 3778 H 346.289 -1.73172 -4.27562 0
M  V30 3779 H 344.532 -1.69261 -3.99416 0
M  V30 3780 H 345.203 -0.932954 -5.44059 0
M  V30 3781 H 347.679 0.482302 -4.13295 0
M  V30 3782 H 346.555 1.07527 -5.38265 0
M  V30 3783 H 346.816 2.0265 -3.92919 0
M  V30 3784 N 345.875 1.56104 -0.216619 0
M  V30 3785 C 346.823 2.21434 0.712036 0
M  V30 3786 C 347.817 1.19218 1.20348 0
M  V30 3787 O 349.023 1.3731 1.16387 0
M  V30 3788 H 345.398 0.70992 0.248026 0
M  V30 3789 H 347.369 2.98083 0.137558 0
M  V30 3790 C 346.118 2.90434 1.91163 0
M  V30 3791 H 345.441 3.68842 1.54258 0
M  V30 3792 H 346.881 3.39552 2.5393 0
M  V30 3793 C 345.34 1.92635 2.76394 0
M  V30 3794 O 345.87 1.44017 3.74996 0
M  V30 3795 N 344.076 1.60392 2.42328 0
M  V30 3796 H 343.623 2.00122 1.622 0
M  V30 3797 H 343.581 0.952159 2.99635 0
M  V30 3798 N 347.353 -0.0568162 1.57498 0
M  V30 3799 C 348.764 -0.606858 1.76562 0
M  V30 3800 C 349.115 -1.77114 0.844094 0
M  V30 3801 O 348.24 -2.16376 0.0318911 0
M  V30 3802 C 348.835 -1.10766 3.20182 0
M  V30 3803 C 347.394 -1.60344 3.40539 0
M  V30 3804 C 346.541 -0.529311 2.72201 0
M  V30 3805 H 349.492 0.169393 1.57793 0
M  V30 3806 H 349.513 -1.97602 3.25167 0
M  V30 3807 H 349.025 -0.26006 3.87228 0
M  V30 3808 H 347.126 -2.47379 2.78629 0
M  V30 3809 H 347.239 -1.67006 4.4905 0
M  V30 3810 H 345.603 -0.977893 2.35179 0
M  V30 3811 H 346.386 0.308352 3.41912 0
M  V30 3812 N 348.832 -1.54138 -0.328536 0
M  V30 3813 C 349.742 -1.86192 -1.42723 0
M  V30 3814 C 350.758 -0.753382 -1.56844 0
M  V30 3815 O 351.934 -1.04718 -1.72035 0
M  V30 3816 C 348.999 -2.07824 -2.77507 0
M  V30 3817 C 348.06 -3.31641 -2.72603 0
M  V30 3818 C 347.293 -3.52232 -4.00959 0
M  V30 3819 O 347.516 -2.7636 -4.9898 0
M  V30 3820 O 346.45 -4.45699 -4.0452 0
M  V30 3821 H 350.276 -2.79608 -1.18547 0
M  V30 3822 H 347.861 -1.3998 -0.522104 0
M  V30 3823 H 349.743 -2.23411 -3.57303 0
M  V30 3824 H 348.418 -1.17596 -3.01584 0
M  V30 3825 H 347.325 -3.21444 -1.91376 0
M  V30 3826 H 348.658 -4.2191 -2.53481 0
M  V30 3827 N 350.31 0.590341 -1.46126 0
M  V30 3828 C 351.22 1.72793 -1.58681 0
M  V30 3829 C 352.236 1.67516 -0.470566 0
M  V30 3830 O 353.412 1.87562 -0.733642 0
M  V30 3831 C 350.477 3.09287 -1.5666 0
M  V30 3832 C 349.538 3.25886 -2.79458 0
M  V30 3833 C 348.771 4.55869 -2.77524 0
M  V30 3834 O 348.994 5.3928 -1.85832 0
M  V30 3835 O 347.928 4.75552 -3.68964 0
M  V30 3836 H 351.754 1.65149 -2.54872 0
M  V30 3837 H 349.339 0.756486 -1.28832 0
M  V30 3838 H 351.221 3.90577 -1.58202 0
M  V30 3839 H 349.896 3.17385 -0.636271 0
M  V30 3840 H 348.803 2.44119 -2.83472 0
M  V30 3841 H 350.136 3.22675 -3.71674 0
M  V30 3842 N 351.788 1.33704 0.83433 0
M  V30 3843 C 352.718 1.26967 1.95963 0
M  V30 3844 C 353.699 0.149337 1.69443 0
M  V30 3845 O 354.884 0.339852 1.91203 0
M  V30 3846 C 352.014 1.01275 3.32206 0
M  V30 3847 C 350.968 2.09652 3.73136 0
M  V30 3848 C 350.294 1.69166 5.07235 0
M  V30 3849 C 351.594 3.51372 3.86439 0
M  V30 3850 H 353.288 2.2112 2.01857 0
M  V30 3851 H 350.834 1.06447 0.969793 0
M  V30 3852 H 352.787 0.952106 4.10503 0
M  V30 3853 H 351.511 0.0356203 3.26581 0
M  V30 3854 H 350.17 2.14766 2.97104 0
M  V30 3855 H 349.818 0.701437 4.98085 0
M  V30 3856 H 349.518 2.41694 5.35591 0
M  V30 3857 H 351.042 1.64576 5.88003 0
M  V30 3858 H 352.456 3.48734 4.55036 0
M  V30 3859 H 350.853 4.22425 4.26236 0
M  V30 3860 H 351.923 3.89546 2.88759 0
M  V30 3861 N 353.266 -1.05314 1.17247 0
M  V30 3862 C 354.213 -2.13031 0.888058 0
M  V30 3863 C 355.183 -1.65253 -0.167537 0
M  V30 3864 O 356.368 -1.90775 -0.0305974 0
M  V30 3865 C 353.508 -3.42702 0.406147 0
M  V30 3866 C 352.621 -4.04161 1.52572 0
M  V30 3867 C 351.756 -5.21744 0.997808 0
M  V30 3868 C 350.795 -5.75207 2.09291 0
M  V30 3869 N 349.932 -6.84094 1.57986 0
M  V30 3870 H 354.772 -2.36698 1.81048 0
M  V30 3871 H 352.309 -1.16121 0.903013 0
M  V30 3872 H 354.267 -4.17059 0.108305 0
M  V30 3873 H 352.897 -3.19222 -0.479313 0
M  V30 3874 H 351.949 -3.27253 1.93931 0
M  V30 3875 H 353.261 -4.39881 2.35172 0
M  V30 3876 H 352.415 -6.03168 0.653739 0
M  V30 3877 H 351.154 -4.87495 0.141232 0
M  V30 3878 H 350.159 -4.92414 2.44557 0
M  V30 3879 H 351.384 -6.11505 2.95362 0
M  V30 3880 H 349.33 -6.51745 0.74598 0
M  V30 3881 H 349.247 -7.18811 2.34195 0
M  V30 3882 H 350.515 -7.69172 1.26468 0
M  V30 3883 N 354.744 -0.972509 -1.24016 0
M  V30 3884 C 355.676 -0.464375 -2.24446 0
M  V30 3885 C 356.689 0.4295 -1.57032 0
M  V30 3886 O 357.878 0.234902 -1.76948 0
M  V30 3887 C 354.978 0.348385 -3.37105 0
M  V30 3888 C 354.151 -0.53673 -4.34094 0
M  V30 3889 C 353.21 0.220838 -5.25736 0
M  V30 3890 O 352.236 -0.386867 -5.67884 0
M  V30 3891 N 353.438 1.50907 -5.60542 0
M  V30 3892 H 356.203 -1.32788 -2.68677 0
M  V30 3893 H 353.764 -0.844877 -1.38107 0
M  V30 3894 H 355.756 0.863341 -3.95384 0
M  V30 3895 H 354.326 1.11285 -2.92121 0
M  V30 3896 H 353.546 -1.23261 -3.74433 0
M  V30 3897 H 354.834 -1.14022 -4.95859 0
M  V30 3898 H 354.232 2.02444 -5.28236 0
M  V30 3899 H 352.789 1.96962 -6.21329 0
M  V30 3900 N 356.222 1.38976 -0.743202 0
M  V30 3901 C 357.499 1.94351 -0.220705 0
M  V30 3902 C 357.879 1.67935 1.2791 0
M  V30 3903 O 357.227 1.01211 2.04862 0
M  V30 3904 C 357.437 3.44426 -0.563171 0
M  V30 3905 C 358.785 4.2144 -0.517046 0
M  V30 3906 O 359.809 3.52661 -0.500846 0
M  V30 3907 O 358.668 5.44032 -0.518806 0
M  V30 3908 H 355.762 0.825879 -0.043047 0
M  V30 3909 H 358.308 1.48429 -0.822618 0
M  V30 3910 H 357.08 3.5712 -1.59941 0
M  V30 3911 H 356.703 3.97543 0.0672883 0
M  V30 3912 N 357.7 0.491464 1.49741 0
M  V30 3913 C 358.663 -0.280906 2.27472 0
M  V30 3914 C 359.663 -0.902454 1.33088 0
M  V30 3915 O 360.853 -0.768465 1.56334 0
M  V30 3916 C 357.985 -1.40209 3.10732 0
M  V30 3917 H 359.178 0.401056 2.97206 0
M  V30 3918 H 356.731 0.246131 1.5435 0
M  V30 3919 H 357.466 -2.11849 2.45541 0
M  V30 3920 H 357.251 -0.961969 3.80117 0
M  V30 3921 H 358.741 -1.9464 3.69466 0
M  V30 3922 N 359.178 -1.55987 0.224894 0
M  V30 3923 C 360.427 -1.97566 -0.406273 0
M  V30 3924 C 360.74 -1.11569 -1.6066 0
M  V30 3925 O 361.946 -1.43062 -2.3075 0
M  V30 3926 C 360.402 -3.51474 -0.774207 0
M  V30 3927 C 360.01 -4.46179 0.403496 0
M  V30 3928 C 361.754 -4.01758 -1.37079 0
M  V30 3929 C 359.661 -5.91399 0.0129412 0
M  V30 3930 H 358.591 -0.737777 -0.155565 0
M  V30 3931 H 361.242 -1.80659 0.321635 0
M  V30 3932 H 359.624 -3.63994 -1.55963 0
M  V30 3933 H 360.798 -4.45409 1.18101 0
M  V30 3934 H 359.113 -4.06255 0.913536 0
M  V30 3935 H 361.71 -5.07756 -1.67596 0
M  V30 3936 H 362.053 -3.47805 -2.28773 0
M  V30 3937 H 362.586 -3.92475 -0.648733 0
M  V30 3938 H 359.325 -6.49341 0.896451 0
M  V30 3939 H 358.845 -5.95356 -0.728821 0
M  V30 3940 H 360.524 -6.45683 -0.412582 0
M  V30 3941 N 360.656 0.0484629 -1.57525 0
M  V30 3942 C 361.933 0.777447 -1.79486 0
M  V30 3943 C 362.313 1.94597 -0.818251 0
M  V30 3944 O 361.661 2.28047 0.143767 0
M  V30 3945 C 361.871 1.22864 -3.26658 0
M  V30 3946 C 363.219 1.65251 -3.91123 0
M  V30 3947 O 364.243 1.32372 -3.3069 0
M  V30 3948 O 363.102 2.26207 -4.97486 0
M  V30 3949 H 360.196 0.374357 -0.737419 0
M  V30 3950 H 362.742 0.0267359 -1.69679 0
M  V30 3951 H 361.514 0.393589 -3.89316 0
M  V30 3952 H 361.137 2.03996 -3.41279 0
M  V30 3953 N 362.134 1.5431 0.320358 0
M  V30 3954 C 363.097 1.83195 1.3774 0
M  V30 3955 C 364.097 0.703906 1.44575 0
M  V30 3956 O 365.287 0.972214 1.44546 0
M  V30 3957 C 362.419 1.99487 2.76438 0
M  V30 3958 H 363.612 2.77642 1.1338 0
M  V30 3959 H 361.165 1.46076 0.556012 0
M  V30 3960 H 361.9 1.07262 3.06048 0
M  V30 3961 H 361.685 2.81575 2.7287 0
M  V30 3962 H 363.175 2.23271 3.52902 0
M  V30 3963 N 363.613 -0.582584 1.46437 0
M  V30 3964 C 364.859 -1.34278 1.51978 0
M  V30 3965 C 365.192 -1.93446 0.170973 0
M  V30 3966 O 364.467 -1.76481 -0.817608 0
M  V30 3967 C 364.75 -2.47203 2.61845 0
M  V30 3968 C 364.603 -1.93069 4.06257 0
M  V30 3969 C 365.922 -3.49247 2.67795 0
M  V30 3970 H 363.041 -0.486876 0.553282 0
M  V30 3971 H 365.683 -0.654437 1.78374 0
M  V30 3972 H 363.833 -3.0592 2.39469 0
M  V30 3973 H 365.505 -1.38808 4.3992 0
M  V30 3974 H 363.748 -1.23898 4.1573 0
M  V30 3975 H 364.419 -2.74586 4.7886 0
M  V30 3976 H 366.895 -3.00411 2.8791 0
M  V30 3977 H 365.771 -4.25719 3.46489 0
M  V30 3978 H 366.032 -4.06482 1.73852 0
M  V30 3979 N 365.091 -1.34144 -0.827227 0
M  V30 3980 C 366.001 -1.27428 -1.96975 0
M  V30 3981 C 367.017 -0.182728 -1.73038 0
M  V30 3982 O 368.193 -0.408426 -1.97215 0
M  V30 3983 C 365.258 -1.02526 -3.31194 0
M  V30 3984 C 364.319 -2.20796 -3.68168 0
M  V30 3985 C 363.552 -1.97073 -4.95982 0
M  V30 3986 O 363.775 -0.926822 -5.6282 0
M  V30 3987 O 362.709 -2.83912 -5.30733 0
M  V30 3988 H 366.535 -2.23537 -2.05584 0
M  V30 3989 H 364.12 -1.14307 -0.961989 0
M  V30 3990 H 366.002 -0.904026 -4.11589 0
M  V30 3991 H 364.677 -0.0945389 -3.23562 0
M  V30 3992 H 363.584 -2.38477 -2.88235 0
M  V30 3993 H 364.917 -3.12243 -3.8048 0
M  V30 3994 N 366.569 1.04691 -1.17803 0
M  V30 3995 C 367.501 2.12571 -0.857097 0
M  V30 3996 C 368.514 1.62174 0.142647 0
M  V30 3997 O 369.703 1.78301 -0.0843387 0
M  V30 3998 C 366.803 3.37915 -0.258216 0
M  V30 3999 C 365.976 4.1757 -1.30207 0
M  V30 4000 C 365.035 5.2125 -0.720029 0
M  V30 4001 O 364.061 5.51888 -1.39314 0
M  V30 4002 N 365.263 5.78466 0.485507 0
M  V30 4003 H 368.028 2.40698 -1.78562 0
M  V30 4004 H 365.589 1.20831 -1.07757 0
M  V30 4005 H 367.581 4.04442 0.144584 0
M  V30 4006 H 366.151 3.07281 0.574199 0
M  V30 4007 H 365.371 3.46458 -1.88043 0
M  V30 4008 H 366.659 4.67586 -2.00601 0
M  V30 4009 H 366.057 5.55866 1.05022 0
M  V30 4010 H 364.614 6.4649 0.830307 0
M  V30 4011 N 368.047 0.979072 1.23499 0
M  V30 4012 C 368.997 0.489378 2.22686 0
M  V30 4013 C 369.981 -0.434871 1.54912 0
M  V30 4014 O 371.173 -0.263941 1.75021 0
M  V30 4015 C 368.302 -0.208178 3.42668 0
M  V30 4016 C 367.388 0.735563 4.17672 0
M  V30 4017 N 367.779 1.87763 4.69658 0
M  V30 4018 C 366.077 0.548625 4.42613 0
M  V30 4019 C 366.778 2.46886 5.26709 0
M  V30 4020 N 365.754 1.75287 5.14563 0
M  V30 4021 H 369.556 1.36062 2.60508 0
M  V30 4022 H 367.07 0.83958 1.39014 0
M  V30 4023 H 369.067 -0.576295 4.12898 0
M  V30 4024 H 367.727 -1.07572 3.06363 0
M  V30 4025 H 368.738 2.25885 4.66043 0
M  V30 4026 H 365.415 -0.274006 4.166 0
M  V30 4027 H 366.805 3.43326 5.77561 0
M  V30 4028 N 369.525 -1.3858 0.750561 0
M  V30 4029 C 370.773 -1.99789 0.30477 0
M  V30 4030 C 371.094 -1.59874 -1.11649 0
M  V30 4031 O 370.364 -0.85417 -1.76297 0
M  V30 4032 H 368.944 -0.738902 0.109694 0
M  V30 4033 H 371.606 -1.69391 0.963983 0
M  V30 4034 H 370.702 -3.09952 0.365499 0
M  V30 4035 N 371.003 -0.499398 -1.49478 0
M  V30 4036 C 372.252 0.0475259 -2.01644 0
M  V30 4037 C 372.565 1.38195 -1.38425 0
M  V30 4038 O 373.771 2.01547 -1.8191 0
M  V30 4039 C 372.227 0.135164 -3.59646 0
M  V30 4040 C 371.835 -1.19252 -4.31837 0
M  V30 4041 C 373.579 0.632538 -4.19761 0
M  V30 4042 C 371.486 -1.06713 -5.81693 0
M  V30 4043 H 370.416 0.0215349 -0.753692 0
M  V30 4044 H 373.067 -0.638577 -1.7203 0
M  V30 4045 H 371.449 0.885681 -3.85969 0
M  V30 4046 H 372.623 -1.9562 -4.17216 0
M  V30 4047 H 370.938 -1.62321 -3.83459 0
M  V30 4048 H 373.535 0.743833 -5.29501 0
M  V30 4049 H 373.878 1.63098 -3.83021 0
M  V30 4050 H 374.411 -0.0613987 -3.97753 0
M  V30 4051 H 371.15 -2.03979 -6.22955 0
M  V30 4052 H 370.67 -0.344307 -5.98811 0
M  V30 4053 H 372.349 -0.745208 -6.42694 0
M  V30 4054 N 372.481 1.55866 -0.233164 0
M  V30 4055 C 373.727 1.98897 0.395959 0
M  V30 4056 C 374.06 1.12091 1.58585 0
M  V30 4057 O 373.335 0.181182 1.93654 0
M  V30 4058 C 373.618 3.50658 0.819224 0
M  V30 4059 C 373.471 4.48233 -0.375109 0
M  V30 4060 C 374.79 4.07135 1.67121 0
M  V30 4061 H 371.909 0.723102 0.142451 0
M  V30 4062 H 374.551 1.87082 -0.331725 0
M  V30 4063 H 372.701 3.60857 1.43925 0
M  V30 4064 H 374.373 4.50031 -1.01341 0
M  V30 4065 H 372.616 4.21624 -1.02058 0
M  V30 4066 H 373.287 5.51988 -0.0358328 0
M  V30 4067 H 375.763 3.99952 1.14795 0
M  V30 4068 H 374.639 5.13615 1.93625 0
M  V30 4069 H 374.9 3.54736 2.63846 0
M  V30 4070 N 373.959 -0.0401083 1.57549 0
M  V30 4071 C 375.206 -0.733125 1.88763 0
M  V30 4072 C 375.534 -1.75946 0.829058 0
M  V30 4073 O 374.789 -1.94949 -0.171323 0
M  V30 4074 C 375.088 -1.44902 3.26708 0
M  V30 4075 C 374.754 -0.559707 4.47413 0
M  V30 4076 C 373.416 -0.314731 4.8017 0
M  V30 4077 C 375.768 0.0549743 5.21171 0
M  V30 4078 C 373.096 0.553886 5.8408 0
M  V30 4079 C 375.448 0.911229 6.26003 0
M  V30 4080 C 374.112 1.16577 6.57241 0
M  V30 4081 H 373.382 -0.268269 0.690733 0
M  V30 4082 H 376.029 0.00679408 1.91499 0
M  V30 4083 H 374.334 -2.26197 3.1991 0
M  V30 4084 H 376.031 -1.99058 3.48105 0
M  V30 4085 H 372.621 -0.760793 4.21794 0
M  V30 4086 H 376.805 -0.121344 4.96152 0
M  V30 4087 H 372.061 0.759518 6.06664 0
M  V30 4088 H 376.235 1.3941 6.82303 0
M  V30 4089 H 373.862 1.84058 7.37582 0
M  V30 4090 N 375.437 -1.54477 -0.31217 0
M  V30 4091 C 376.686 -1.72438 -1.04633 0
M  V30 4092 C 376.999 -0.511163 -1.88803 0
M  V30 4093 O 378.205 -0.572341 -2.65399 0
M  V30 4094 C 376.661 -3.05043 -1.9099 0
M  V30 4095 C 376.269 -4.33806 -1.11877 0
M  V30 4096 C 378.013 -3.32364 -2.64073 0
M  V30 4097 C 375.92 -5.57467 -1.97445 0
M  V30 4098 H 374.85 -0.642647 -0.394361 0
M  V30 4099 H 377.501 -1.80966 -0.303929 0
M  V30 4100 H 375.883 -2.90451 -2.69173 0
M  V30 4101 H 377.057 -4.59199 -0.383843 0
M  V30 4102 H 375.372 -4.13336 -0.504252 0
M  V30 4103 H 377.969 -4.21951 -3.28423 0
M  V30 4104 H 378.312 -2.50745 -3.32314 0
M  V30 4105 H 378.845 -3.47875 -1.92944 0
M  V30 4106 H 375.584 -6.41722 -1.33692 0
M  V30 4107 H 375.104 -5.36277 -2.6864 0
M  V30 4108 H 376.783 -5.94303 -2.5576 0
M  V30 4109 N 376.915 0.57481 -1.46744 0
M  V30 4110 C 378.192 1.3352 -1.4294 0
M  V30 4111 C 378.572 2.10775 -0.117009 0
M  V30 4112 O 377.92 2.09966 0.901474 0
M  V30 4113 C 378.13 2.25456 -2.66403 0
M  V30 4114 C 379.478 2.87035 -3.12883 0
M  V30 4115 O 380.502 2.35766 -2.67007 0
M  V30 4116 O 379.361 3.80179 -3.92589 0
M  V30 4117 H 376.455 0.600318 -0.568812 0
M  V30 4118 H 379.001 0.595171 -1.58921 0
M  V30 4119 H 377.773 1.67851 -3.53471 0
M  V30 4120 H 377.396 3.06785 -2.52921 0
M  V30 4121 N 378.394 1.34581 0.820102 0
M  V30 4122 C 379.304 1.28471 1.96297 0
M  V30 4123 C 380.32 0.191902 1.72939 0
M  V30 4124 O 381.496 0.418879 1.96996 0
M  V30 4125 C 378.561 1.04281 3.30645 0
M  V30 4126 C 377.622 2.22745 3.66992 0
M  V30 4127 C 376.855 1.997 4.9493 0
M  V30 4128 O 377.078 0.956656 5.6232 0
M  V30 4129 O 376.012 2.86723 5.2922 0
M  V30 4130 H 379.838 2.24624 2.04396 0
M  V30 4131 H 377.423 1.14816 0.955913 0
M  V30 4132 H 379.305 0.925841 4.11104 0
M  V30 4133 H 377.98 0.111697 3.23507 0
M  V30 4134 H 376.887 2.40003 2.86966 0
M  V30 4135 H 378.22 3.14257 3.78819 0
M  V30 4136 N 379.872 -1.04064 1.18357 0
M  V30 4137 C 381.121 -1.76662 0.973313 0
M  V30 4138 C 381.434 -1.89154 -0.497991 0
M  V30 4139 O 382.64 -2.58606 -0.826762 0
M  V30 4140 C 381.096 -3.17624 1.69242 0
M  V30 4141 C 380.704 -3.13225 3.20303 0
M  V30 4142 C 382.448 -3.946 1.56497 0
M  V30 4143 C 380.355 -4.49046 3.84853 0
M  V30 4144 H 379.285 -0.662214 0.36054 0
M  V30 4145 H 381.936 -1.16553 1.41731 0
M  V30 4146 H 380.318 -3.78129 1.1762 0
M  V30 4147 H 381.492 -2.62172 3.78949 0
M  V30 4148 H 379.807 -2.49749 3.33189 0
M  V30 4149 H 382.404 -4.95042 2.02084 0
M  V30 4150 H 382.747 -4.13074 0.517243 0
M  V30 4151 H 383.28 -3.4067 2.05399 0
M  V30 4152 H 380.019 -4.35777 4.89672 0
M  V30 4153 H 379.539 -5.00203 3.30994 0
M  V30 4154 H 381.218 -5.17961 3.87718 0
M  V30 4155 N 381.35 -0.985608 -1.22978 0
M  V30 4156 C 382.627 -0.573599 -1.87001 0
M  V30 4157 C 383.007 0.949213 -1.88555 0
M  V30 4158 O 382.355 1.82811 -1.37086 0
M  V30 4159 C 382.565 -1.18564 -3.28243 0
M  V30 4160 C 383.913 -1.28163 -4.04796 0
M  V30 4161 O 384.937 -1.13949 -3.37482 0
M  V30 4162 O 383.796 -1.50832 -5.25273 0
M  V30 4163 H 380.89 -0.193868 -0.803955 0
M  V30 4164 H 383.436 -1.08102 -1.30813 0
M  V30 4165 H 382.208 -2.22758 -3.21706 0
M  V30 4166 H 381.831 -0.663363 -3.92027 0
M  V30 4167 N 382.828 1.3818 -0.7579 0
M  V30 4168 C 383.775 2.30416 -0.133057 0
M  V30 4169 C 384.745 1.50398 0.704957 0
M  V30 4170 O 385.93 1.79014 0.660192 0
M  V30 4171 C 383.07 3.36834 0.750813 0
M  V30 4172 C 382.183 4.31879 -0.102297 0
M  V30 4173 C 381.318 5.25368 0.784979 0
M  V30 4174 C 380.357 6.12058 -0.0715046 0
M  V30 4175 N 379.494 6.97832 0.772972 0
M  V30 4176 H 384.334 2.83274 -0.925186 0
M  V30 4177 H 381.871 1.39461 -0.467866 0
M  V30 4178 H 383.829 3.97145 1.27794 0
M  V30 4179 H 382.459 2.85374 1.50868 0
M  V30 4180 H 381.511 3.72991 -0.747095 0
M  V30 4181 H 382.823 4.92921 -0.763552 0
M  V30 4182 H 381.977 5.90818 1.37911 0
M  V30 4183 H 380.716 4.64703 1.47996 0
M  V30 4184 H 379.721 5.456 -0.678272 0
M  V30 4185 H 380.946 6.74793 -0.763606 0
M  V30 4186 H 378.892 6.3971 1.45282 0
M  V30 4187 H 378.809 7.55812 0.168709 0
M  V30 4188 H 380.077 7.67687 1.35194 0
M  V30 4189 N 384.306 0.507319 1.49211 0
M  V30 4190 C 385.555 -0.0368315 2.01666 0
M  V30 4191 C 385.868 -1.37459 1.39156 0
M  V30 4192 O 387.074 -2.00579 1.82976 0
M  V30 4193 C 385.53 -0.116089 3.59713 0
M  V30 4194 C 385.138 1.2154 4.31198 0
M  V30 4195 C 386.882 -0.610268 4.2009 0
M  V30 4196 C 384.789 1.09796 5.81119 0
M  V30 4197 H 383.719 -0.0175376 0.753796 0
M  V30 4198 H 386.37 0.647691 1.71689 0
M  V30 4199 H 384.752 -0.8652 3.86433 0
M  V30 4200 H 385.926 1.9783 4.16173 0
M  V30 4201 H 384.241 1.64352 3.82593 0
M  V30 4202 H 386.838 -0.715742 5.29888 0
M  V30 4203 H 387.181 -1.61064 3.8388 0
M  V30 4204 H 387.714 0.0824916 3.97714 0
M  V30 4205 H 384.453 2.0728 6.21864 0
M  V30 4206 H 383.973 0.376058 5.9862 0
M  V30 4207 H 385.652 0.779281 6.4229 0
M  V30 4208 N 385.784 -1.5574 0.241426 0
M  V30 4209 C 387.024 -2.00714 -0.38644 0
M  V30 4210 C 387.388 -1.12586 -1.55526 0
M  V30 4211 O 388.589 -1.46992 -2.25048 0
M  V30 4212 C 386.86 -3.48534 -0.791128 0
M  V30 4213 S 388.419 -4.15519 -1.41029 0
M  V30 4214 H 385.237 -0.700484 -0.121834 0
M  V30 4215 H 387.839 -1.92243 0.355377 0
M  V30 4216 H 386.543 -4.10342 0.0689225 0
M  V30 4217 H 386.074 -3.6092 -1.56526 0
M  V30 4218 H 388.089 -4.16352 -2.69936 0
M  V30 4219 N 387.262 0.0317525 -1.57568 0
M  V30 4220 C 388.209 1.0332 -2.06382 0
M  V30 4221 C 389.179 1.36082 -0.952414 0
M  V30 4222 O 390.364 1.46466 -1.2228 0
M  V30 4223 C 387.504 2.32989 -2.54578 0
M  V30 4224 C 386.617 2.0641 -3.79498 0
M  V30 4225 C 385.752 3.2993 -4.16317 0
M  V30 4226 C 384.791 2.98893 -5.34162 0
M  V30 4227 N 383.928 4.14857 -5.66426 0
M  V30 4228 H 388.768 0.609982 -2.9169 0
M  V30 4229 H 386.305 0.289573 -1.44222 0
M  V30 4230 H 388.263 3.0875 -2.80587 0
M  V30 4231 H 386.893 2.73039 -1.7219 0
M  V30 4232 H 385.945 1.21158 -3.6059 0
M  V30 4233 H 387.257 1.79513 -4.65378 0
M  V30 4234 H 386.411 4.1406 -4.4344 0
M  V30 4235 H 385.15 3.59938 -3.29083 0
M  V30 4236 H 384.155 2.13164 -5.06795 0
M  V30 4237 H 385.38 2.70165 -6.23047 0
M  V30 4238 H 383.326 4.44821 -4.82151 0
M  V30 4239 H 383.243 3.91374 -6.4681 0
M  V30 4240 H 384.511 4.99868 -5.98124 0
M  V30 4241 N 388.74 1.54641 0.303973 0
M  V30 4242 C 390.156 1.45788 0.649463 0
M  V30 4243 C 390.356 0.64666 1.90842 0
M  V30 4244 O 389.412 0.153183 2.52035 0
M  V30 4245 C 390.725 2.89718 0.805227 0
M  V30 4246 C 392.273 2.99742 0.901305 0
M  V30 4247 C 392.748 4.44863 1.08909 0
M  V30 4248 N 394.239 4.48559 1.15536 0
M  V30 4249 C 394.974 5.58026 1.3189 0
M  V30 4250 N 394.47 6.77422 1.45161 0
M  V30 4251 N 396.263 5.45708 1.34755 0
M  V30 4252 H 388.414 2.05854 -0.523237 0
M  V30 4253 H 390.677 0.932186 -0.172431 0
M  V30 4254 H 390.383 3.51666 -0.0489108 0
M  V30 4255 H 390.257 3.36964 1.69513 0
M  V30 4256 H 392.644 2.3791 1.74593 0
M  V30 4257 H 392.725 2.55797 -0.0125531 0
M  V30 4258 H 392.369 5.07288 0.249241 0
M  V30 4259 H 392.299 4.86436 2.01713 0
M  V30 4260 H 394.79 3.6254 1.06646 0
M  V30 4261 H 395.103 7.56604 1.57387 0
M  V30 4262 H 393.448 6.80292 1.42223 0
M  V30 4263 H 396.639 4.51378 1.23996 0
M  V30 4264 H 396.812 6.3107 1.47157 0
M  V30 4265 N 390.218 -0.567019 1.47046 0
M  V30 4266 C 391.466 -1.322 1.52864 0
M  V30 4267 C 391.787 -1.94088 0.188388 0
M  V30 4268 O 391.057 -1.7941 -0.786693 0
M  V30 4269 H 389.637 -0.490894 0.563056 0
M  V30 4270 H 392.299 -0.662879 1.83281 0
M  V30 4271 H 391.395 -2.12062 2.2899 0
M  V30 4272 N 391.696 -1.35014 -0.812953 0
M  V30 4273 C 392.606 -1.2951 -1.95613 0
M  V30 4274 C 393.622 -0.20107 -1.72834 0
M  V30 4275 O 394.798 -0.42932 -1.96771 0
M  V30 4276 C 391.863 -1.06033 -3.30088 0
M  V30 4277 C 390.924 -2.24688 -3.65805 0
M  V30 4278 C 390.157 -2.02322 -4.93864 0
M  V30 4279 O 390.38 -0.986464 -5.61805 0
M  V30 4280 O 389.314 -2.89525 -5.27692 0
M  V30 4281 H 393.14 -2.25705 -2.03202 0
M  V30 4282 H 390.725 -1.15321 -0.949811 0
M  V30 4283 H 392.607 -0.94763 -4.10607 0
M  V30 4284 H 391.282 -0.128852 -3.23443 0
M  V30 4285 H 390.189 -2.41521 -2.85689 0
M  V30 4286 H 391.522 -3.16261 -3.77147 0
M  V30 4287 N 393.175 1.03435 -1.18907 0
M  V30 4288 C 394.4 1.80919 -1.01406 0
M  V30 4289 C 394.825 1.83055 0.432721 0
M  V30 4290 O 394.183 1.25252 1.31079 0
M  V30 4291 C 394.231 3.24091 -1.58105 0
M  V30 4292 O 393.335 4.04434 -0.806669 0
M  V30 4293 H 392.676 0.558709 -0.358803 0
M  V30 4294 H 395.206 1.30223 -1.57807 0
M  V30 4295 H 395.216 3.74853 -1.61087 0
M  V30 4296 H 393.891 3.21851 -2.6341 0
M  V30 4297 H 392.468 3.63091 -0.849666 0
M  V30 4298 N 394.653 0.992116 1.22453 0
M  V30 4299 C 395.878 0.685644 1.95739 0
M  V30 4300 C 396.303 -0.743 1.72804 0
M  V30 4301 O 395.661 -1.50778 1.00676 0
M  V30 4302 C 395.709 0.996293 3.46564 0
M  V30 4303 O 394.813 0.0945512 4.12292 0
M  V30 4304 H 394.154 0.256694 0.612376 0
M  V30 4305 H 396.684 1.32888 1.5557 0
M  V30 4306 H 396.694 0.93781 3.97076 0
M  V30 4307 H 395.369 2.03733 3.62582 0
M  V30 4308 H 393.946 0.208451 3.72317 0
M  V30 4309 N 396.131 -1.37776 0.765217 0
M  V30 4310 C 397.379 -1.99454 0.325943 0
M  V30 4311 C 397.7 -1.61049 -1.09947 0
M  V30 4312 O 396.97 -0.872821 -1.75381 0
M  V30 4313 H 395.55 -0.737697 0.117525 0
M  V30 4314 H 398.212 -1.68359 0.981895 0
M  V30 4315 H 397.308 -3.09547 0.398353 0
M  V30 4316 N 397.609 -0.515225 -1.4894 0
M  V30 4317 C 399.02 -0.0710067 -1.86565 0
M  V30 4318 C 399.371 1.34733 -1.42623 0
M  V30 4319 O 398.496 2.00653 -0.810379 0
M  V30 4320 C 399.091 -0.122083 -3.3858 0
M  V30 4321 C 397.65 0.266863 -3.75453 0
M  V30 4322 C 396.797 -0.488376 -2.72966 0
M  V30 4323 H 399.748 -0.727266 -1.41055 0
M  V30 4324 H 399.769 0.669818 -3.74558 0
M  V30 4325 H 399.281 -1.15448 -3.70531 0
M  V30 4326 H 397.382 1.30196 -3.49113 0
M  V30 4327 H 397.495 -0.0624811 -4.79059 0
M  V30 4328 H 395.859 0.0635622 -2.54621 0
M  V30 4329 H 396.642 -1.52113 -3.07761 0
M  V30 4330 N 399.087 1.5561 -0.249682 0
M  V30 4331 C 400.364 1.90932 0.424761 0
M  V30 4332 C 400.744 1.17078 1.75658 0
M  V30 4333 O 400.092 0.289176 2.26663 0
M  V30 4334 C 400.302 3.43975 0.590109 0
M  V30 4335 C 401.65 4.15281 0.884714 0
M  V30 4336 O 402.674 3.49729 0.67587 0
M  V30 4337 O 401.533 5.31236 1.28259 0
M  V30 4338 H 398.627 0.794815 0.228468 0
M  V30 4339 H 401.173 1.67135 -0.293954 0
M  V30 4340 H 399.945 3.89748 -0.34818 0
M  V30 4341 H 399.568 3.73644 1.35926 0
M  V30 4342 N 400.565 -0.0233959 1.57583 0
M  V30 4343 C 401.811 -0.714119 1.89811 0
M  V30 4344 C 402.144 -1.74702 0.848113 0
M  V30 4345 O 401.419 -1.94023 -0.136135 0
M  V30 4346 C 401.702 -1.37853 3.32669 0
M  V30 4347 C 401.555 -0.358764 4.48367 0
M  V30 4348 C 402.874 -2.31101 3.7454 0
M  V30 4349 H 399.993 -0.25814 0.690314 0
M  V30 4350 H 402.635 0.0230927 1.89986 0
M  V30 4351 H 400.785 -2.00689 3.3265 0
M  V30 4352 H 402.457 0.268115 4.6052 0
M  V30 4353 H 400.7 0.321387 4.32608 0
M  V30 4354 H 401.371 -0.862242 5.45224 0
M  V30 4355 H 403.847 -1.78304 3.75961 0
M  V30 4356 H 402.723 -2.74567 4.75294 0
M  V30 4357 H 402.984 -3.18018 3.0711 0
M  V30 4358 N 402.043 -1.548 -0.295768 0
M  V30 4359 C 403.268 -1.78653 -1.05346 0
M  V30 4360 C 403.693 -0.546894 -1.79974 0
M  V30 4361 O 403.051 0.502763 -1.7419 0
M  V30 4362 C 403.099 -2.99679 -2.00561 0
M  V30 4363 O 402.203 -2.7317 -3.08953 0
M  V30 4364 H 401.544 -0.59116 -0.302367 0
M  V30 4365 H 404.074 -2.01895 -0.331598 0
M  V30 4366 H 404.084 -3.27793 -2.42932 0
M  V30 4367 H 402.759 -3.89562 -1.4565 0
M  V30 4368 H 401.336 -2.56089 -2.71059 0
M  V30 4369 N 403.521 0.559213 -1.47345 0
M  V30 4370 C 404.937 0.884943 -1.32819 0
M  V30 4371 C 405.137 1.98988 -0.317173 0
M  V30 4372 O 404.193 2.51031 0.272011 0
M  V30 4373 C 405.506 1.28007 -2.72093 0
M  V30 4374 C 407.054 1.39161 -2.80363 0
M  V30 4375 C 407.529 1.82031 -4.20272 0
M  V30 4376 N 409.02 1.89185 -4.22804 0
M  V30 4377 C 409.755 2.2368 -5.27973 0
M  V30 4378 N 409.251 2.56802 -6.43447 0
M  V30 4379 N 411.044 2.24436 -5.15349 0
M  V30 4380 H 403.195 -0.170304 -2.11716 0
M  V30 4381 H 405.458 -0.0135247 -0.947904 0
M  V30 4382 H 405.164 0.542027 -3.47498 0
M  V30 4383 H 405.038 2.23665 -3.03733 0
M  V30 4384 H 407.425 2.12048 -2.05231 0
M  V30 4385 H 407.506 0.41696 -2.52379 0
M  V30 4386 H 407.15 1.09715 -4.95908 0
M  V30 4387 H 407.08 2.80495 -4.45679 0
M  V30 4388 H 409.571 1.65982 -3.39497 0
M  V30 4389 H 409.884 2.82144 -7.19454 0
M  V30 4390 H 408.229 2.54387 -6.46771 0
M  V30 4391 H 411.42 1.97998 -4.24163 0
M  V30 4392 H 411.593 2.50989 -5.97418 0
M  V30 4393 N 404.999 1.35443 0.805782 0
M  V30 4394 C 405.909 1.30546 1.94923 0
M  V30 4395 C 406.925 0.210233 1.72725 0
M  V30 4396 O 408.101 0.43975 1.9654 0
M  V30 4397 C 405.166 1.07782 3.29521 0
M  V30 4398 C 404.227 2.26625 3.64609 0
M  V30 4399 C 403.46 2.04938 4.92784 0
M  V30 4400 O 403.683 1.01624 5.61274 0
M  V30 4401 O 402.617 2.9232 5.26149 0
M  V30 4402 H 406.443 2.26779 2.02002 0
M  V30 4403 H 404.028 1.15823 0.943682 0
M  V30 4404 H 405.91 0.969392 4.10098 0
M  V30 4405 H 404.585 0.146003 3.23371 0
M  V30 4406 H 403.492 2.43033 2.84404 0
M  V30 4407 H 404.825 3.18257 3.75464 0
M  V30 4408 N 406.477 -1.02803 1.19454 0
M  V30 4409 C 407.725 -1.75869 0.995722 0
M  V30 4410 C 408.046 -1.89138 -0.474543 0
M  V30 4411 O 407.316 -1.42558 -1.34366 0
M  V30 4412 H 405.896 -0.651511 0.365435 0
M  V30 4413 H 408.558 -1.24004 1.50363 0
M  V30 4414 H 407.654 -2.76661 1.44447 0
M  V30 4415 N 407.956 -0.998596 -1.21925 0
M  V30 4416 C 409.202 -0.678667 -1.91107 0
M  V30 4417 C 409.535 0.78791 -1.77498 0
M  V30 4418 O 408.81 1.57043 -1.1475 0
M  V30 4419 C 409.093 -1.09245 -3.43129 0
M  V30 4420 C 408.946 -2.61801 -3.6576 0
M  V30 4421 C 410.265 -0.649984 -4.35274 0
M  V30 4422 H 407.384 -0.248025 -0.694012 0
M  V30 4423 H 410.026 -1.24314 -1.43688 0
M  V30 4424 H 408.176 -0.612171 -3.83647 0
M  V30 4425 H 409.848 -3.17543 -3.34611 0
M  V30 4426 H 408.091 -3.03609 -3.09845 0
M  V30 4427 H 408.762 -2.85804 -4.7225 0
M  V30 4428 H 411.238 -1.0626 -4.02303 0
M  V30 4429 H 410.114 -0.967743 -5.40302 0
M  V30 4430 H 410.375 0.449139 -4.39813 0
M  V30 4431 N 409.434 1.37368 -0.772513 0
M  V30 4432 C 410.366 2.28899 -0.117502 0
M  V30 4433 C 411.379 1.4867 0.663405 0
M  V30 4434 O 412.568 1.71314 0.501372 0
M  V30 4435 C 409.668 3.2788 0.857192 0
M  V30 4436 C 408.841 4.37207 0.129938 0
M  V30 4437 C 407.9 5.16257 1.01811 0
M  V30 4438 O 406.926 5.67159 0.481601 0
M  V30 4439 N 408.128 5.31058 2.3443 0
M  V30 4440 H 410.893 2.85752 -0.903662 0
M  V30 4441 H 408.454 1.49353 -0.62493 0
M  V30 4442 H 410.446 3.77647 1.45482 0
M  V30 4443 H 409.016 2.7179 1.54432 0
M  V30 4444 H 408.236 3.88827 -0.648605 0
M  V30 4445 H 409.524 5.07434 -0.372559 0
M  V30 4446 H 408.922 4.91287 2.80452 0
M  V30 4447 H 407.479 5.84131 2.89197 0
M  V30 4448 N 410.912 0.523116 1.48665 0
M  V30 4449 C 412.328 0.180511 1.58576 0
M  V30 4450 C 412.528 -1.31597 1.52592 0
M  V30 4451 O 411.584 -2.0937 1.4114 0
M  V30 4452 C 412.897 0.776949 2.90489 0
M  V30 4453 C 414.445 0.745058 3.04003 0
M  V30 4454 C 414.92 1.31995 4.38567 0
M  V30 4455 N 416.411 1.28162 4.45117 0
M  V30 4456 C 417.146 1.6964 5.47731 0
M  V30 4457 N 416.642 2.18816 6.57337 0
M  V30 4458 N 418.435 1.6092 5.38573 0
M  V30 4459 H 410.586 1.4958 1.50797 0
M  V30 4460 H 412.849 0.621772 0.715614 0
M  V30 4461 H 412.555 1.82732 3.00503 0
M  V30 4462 H 412.429 0.25007 3.7637 0
M  V30 4463 H 414.816 -0.296532 2.93606 0
M  V30 4464 H 414.897 1.30933 2.1975 0
M  V30 4465 H 414.541 2.36043 4.49718 0
M  V30 4466 H 414.471 0.731418 5.21496 0
M  V30 4467 H 416.962 0.92155 3.66491 0
M  V30 4468 H 417.275 2.48478 7.31764 0
M  V30 4469 H 415.62 2.22805 6.58318 0
M  V30 4470 H 418.811 1.22304 4.5184 0
M  V30 4471 H 418.984 1.93567 6.18414 0
M  V30 4472 N 412.39 -1.55475 0.257931 0
M  V30 4473 C 413.667 -1.91155 -0.414629 0
M  V30 4474 C 414.047 -1.18008 -1.75035 0
M  V30 4475 O 413.395 -0.301193 -2.26506 0
M  V30 4476 C 413.605 -3.44283 -0.571859 0
M  V30 4477 C 414.953 -4.15744 -0.862678 0
M  V30 4478 O 415.977 -3.50083 -0.657314 0
M  V30 4479 O 414.836 -5.31909 -1.2544 0
M  V30 4480 H 411.93 -0.796016 -0.22425 0
M  V30 4481 H 414.476 -1.66976 0.302814 0
M  V30 4482 H 413.248 -3.89558 0.368844 0
M  V30 4483 H 412.871 -3.7436 -1.33943 0
M  V30 4484 N 413.868 0.0150385 -1.57593 0
M  V30 4485 C 414.798 1.01047 -2.10503 0
M  V30 4486 C 415.779 1.36816 -1.01071 0
M  V30 4487 O 416.964 1.45455 -1.28672 0
M  V30 4488 C 414.094 2.30708 -2.59598 0
M  V30 4489 C 413.048 2.09142 -3.73421 0
M  V30 4490 C 412.374 3.44685 -4.08774 0
M  V30 4491 C 413.674 1.46619 -5.01298 0
M  V30 4492 H 415.368 0.569978 -2.93925 0
M  V30 4493 H 412.914 0.272724 -1.41394 0
M  V30 4494 H 414.867 3.00687 -2.95238 0
M  V30 4495 H 413.591 2.76843 -1.73279 0
M  V30 4496 H 412.25 1.41592 -3.38153 0
M  V30 4497 H 411.898 3.88495 -3.195 0
M  V30 4498 H 411.598 3.31077 -4.8545 0
M  V30 4499 H 413.122 4.16004 -4.4696 0
M  V30 4500 H 414.536 2.06535 -5.34805 0
M  V30 4501 H 412.933 1.43544 -5.82679 0
M  V30 4502 H 414.003 0.433611 -4.82957 0
M  V30 4503 N 415.346 1.54954 0.287554 0
M  V30 4504 C 416.276 1.89839 1.35954 0
M  V30 4505 C 417.257 0.758675 1.52244 0
M  V30 4506 O 418.442 1.01557 1.65529 0
M  V30 4507 C 415.572 2.15753 2.72154 0
M  V30 4508 C 414.526 3.3159 2.70614 0
M  V30 4509 C 413.852 3.42952 4.10229 0
M  V30 4510 C 415.152 4.68359 2.31165 0
M  V30 4511 H 416.846 2.79625 1.07007 0
M  V30 4512 H 414.392 1.3454 0.513316 0
M  V30 4513 H 416.345 2.38743 3.47246 0
M  V30 4514 H 415.069 1.22752 3.02654 0
M  V30 4515 H 413.728 3.08545 1.97979 0
M  V30 4516 H 413.376 2.47443 4.37928 0
M  V30 4517 H 413.076 4.20826 4.10097 0
M  V30 4518 H 414.6 3.68218 4.87081 0
M  V30 4519 H 416.014 4.9099 2.95976 0
M  V30 4520 H 414.411 5.49044 2.42221 0
M  V30 4521 H 415.481 4.68165 1.26291 0
M  V30 4522 N 416.824 -0.551391 1.4764 0
M  V30 4523 C 418.235 -1.13349 1.48354 0
M  V30 4524 C 418.586 -1.94709 0.241432 0
M  V30 4525 O 417.711 -2.06306 -0.653205 0
M  V30 4526 C 418.306 -2.0623 2.68802 0
M  V30 4527 C 416.865 -2.597 2.72457 0
M  V30 4528 C 416.012 -1.36201 2.41546 0
M  V30 4529 H 418.963 -0.337698 1.55065 0
M  V30 4530 H 418.984 -2.90196 2.46103 0
M  V30 4531 H 418.496 -1.46987 3.59188 0
M  V30 4532 H 416.597 -3.22724 1.86225 0
M  V30 4533 H 416.71 -3.00296 3.73308 0
M  V30 4534 H 415.074 -1.67068 1.9225 0
M  V30 4535 H 415.857 -0.787425 3.34147 0
M  V30 4536 N 418.302 -1.35869 -0.798587 0
M  V30 4537 C 419.232 -1.32118 -1.92528 0
M  V30 4538 C 420.213 -0.194209 -1.68988 0
M  V30 4539 O 421.398 -0.390426 -1.90235 0
M  V30 4540 C 418.528 -1.10047 -3.29404 0
M  V30 4541 C 417.482 -2.19471 -3.67446 0
M  V30 4542 C 416.808 -1.82555 -5.02571 0
M  V30 4543 C 418.108 -3.61495 -3.76987 0
M  V30 4544 H 419.802 -2.26394 -1.95924 0
M  V30 4545 H 417.348 -1.08981 -0.94123 0
M  V30 4546 H 419.301 -1.06061 -4.07835 0
M  V30 4547 H 418.025 -0.122195 -3.26371 0
M  V30 4548 H 416.684 -2.22568 -2.91306 0
M  V30 4549 H 416.332 -0.833249 -4.9605 0
M  V30 4550 H 416.032 -2.5581 -5.28995 0
M  V30 4551 H 417.556 -1.80108 -5.83432 0
M  V30 4552 H 418.97 -3.60676 -4.4563 0
M  V30 4553 H 417.367 -4.33577 -4.14887 0
M  V30 4554 H 418.437 -3.97065 -2.78329 0
M  V30 4555 N 419.78 1.02168 -1.19998 0
M  V30 4556 C 421.026 1.75945 -1.00852 0
M  V30 4557 C 421.359 1.88702 0.458828 0
M  V30 4558 O 420.634 1.40911 1.34069 0
M  V30 4559 C 420.917 3.18154 -1.68671 0
M  V30 4560 C 420.77 3.13224 -3.22817 0
M  V30 4561 C 422.089 4.16711 -1.41561 0
M  V30 4562 H 419.208 0.638673 -0.367785 0
M  V30 4563 H 421.85 1.19222 -1.4794 0
M  V30 4564 H 420 3.66586 -1.28636 0
M  V30 4565 H 421.672 2.72635 -3.72112 0
M  V30 4566 H 419.915 2.50751 -3.53986 0
M  V30 4567 H 420.586 4.13728 -3.65422 0
M  V30 4568 H 423.062 3.76913 -1.76284 0
M  V30 4569 H 421.938 5.14391 -1.91553 0
M  V30 4570 H 422.199 4.40774 -0.342193 0
M  V30 4571 N 421.258 1.00505 1.21394 0
M  V30 4572 C 422.168 0.574806 2.27449 0
M  V30 4573 C 423.184 -0.382206 1.6975 0
M  V30 4574 O 424.36 -0.246027 1.99892 0
M  V30 4575 C 421.425 -0.0917414 3.46579 0
M  V30 4576 C 420.486 0.909758 4.1955 0
M  V30 4577 C 419.719 0.274924 5.32991 0
M  V30 4578 O 419.942 -0.928254 5.62796 0
M  V30 4579 O 418.876 0.985877 5.93771 0
M  V30 4580 H 422.702 1.45744 2.66444 0
M  V30 4581 H 420.287 0.773923 1.27792 0
M  V30 4582 H 422.169 -0.464551 4.18832 0
M  V30 4583 H 420.844 -0.948755 3.09484 0
M  V30 4584 H 419.751 1.33372 3.49518 0
M  V30 4585 H 421.084 1.73636 4.60555 0
M  V30 4586 N 422.737 -1.36956 0.779787 0
M  V30 4587 C 423.985 -1.99097 0.347079 0
M  V30 4588 C 424.306 -1.62206 -1.08232 0
M  V30 4589 O 423.576 -0.891373 -1.74446 0
M  V30 4590 H 422.156 -0.736409 0.125342 0
M  V30 4591 H 424.818 -1.67308 0.999696 0
M  V30 4592 H 423.914 -3.09107 0.431162 0
M  V30 4593 N 424.215 -0.530993 -1.48385 0
M  V30 4594 C 425.455 0.000718982 -2.044 0
M  V30 4595 C 425.819 1.31485 -1.39913 0
M  V30 4596 O 427.02 1.93265 -1.86821 0
M  V30 4597 C 425.291 0.119177 -3.57201 0
M  V30 4598 S 426.85 0.600806 -4.34667 0
M  V30 4599 H 423.668 -0.0125473 -0.710889 0
M  V30 4600 H 426.27 -0.711783 -1.82082 0
M  V30 4601 H 424.974 -0.842061 -4.01668 0
M  V30 4602 H 424.505 0.856026 -3.83974 0
M  V30 4603 H 426.52 1.86514 -4.59812 0
M  V30 4604 N 425.693 1.55336 -0.266172 0
M  V30 4605 C 426.921 2.03801 0.356756 0
M  V30 4606 C 427.336 1.14485 1.50129 0
M  V30 4607 O 426.693 0.163121 1.8177 0
M  V30 4608 C 426.744 3.51455 0.846281 0
M  V30 4609 O 426.465 4.37371 -0.252663 0
M  V30 4610 C 427.966 4.15767 1.53794 0
M  V30 4611 H 425.186 0.665906 0.0825218 0
M  V30 4612 H 427.73 2.00636 -0.39566 0
M  V30 4613 H 425.885 3.55092 1.54881 0
M  V30 4614 H 426.299 5.24358 0.122173 0
M  V30 4615 H 427.773 5.20714 1.83198 0
M  V30 4616 H 428.25 3.63404 2.46646 0
M  V30 4617 H 428.856 4.16107 0.879488 0
M  V30 4618 N 427.171 -0.0066808 1.57599 0
M  V30 4619 C 428.417 -0.693947 1.90558 0
M  V30 4620 C 428.75 -1.73792 0.866594 0
M  V30 4621 O 428.025 -1.94156 -0.115548 0
M  V30 4622 C 428.308 -1.34317 3.34112 0
M  V30 4623 C 428.161 -0.311189 4.48722 0
M  V30 4624 C 429.48 -2.27116 3.7697 0
M  V30 4625 H 426.599 -0.250803 0.693013 0
M  V30 4626 H 429.241 0.043242 1.89951 0
M  V30 4627 H 427.391 -1.9715 3.3476 0
M  V30 4628 H 429.063 0.316944 4.6021 0
M  V30 4629 H 427.306 0.367253 4.32243 0
M  V30 4630 H 427.977 -0.804366 5.46108 0
M  V30 4631 H 430.453 -1.74306 3.77831 0
M  V30 4632 H 429.329 -2.69511 4.78179 0
M  V30 4633 H 429.59 -3.14743 3.10466 0
M  V30 4634 N 428.649 -1.55105 -0.279332 0
M  V30 4635 C 429.874 -1.7976 -1.03446 0
M  V30 4636 C 430.299 -0.565952 -1.79384 0
M  V30 4637 O 429.657 0.484259 -1.74713 0
M  V30 4638 C 429.705 -3.0179 -1.97371 0
M  V30 4639 O 428.809 -2.76432 -3.06038 0
M  V30 4640 H 428.15 -0.594334 -0.29608 0
M  V30 4641 H 430.68 -2.02235 -0.310165 0
M  V30 4642 H 430.69 -3.30351 -2.39441 0
M  V30 4643 H 429.365 -3.91085 -1.4151 0
M  V30 4644 H 427.942 -2.58949 -2.68328 0
M  V30 4645 N 430.127 0.543554 -1.4793 0
M  V30 4646 C 431.355 1.32516 -1.58894 0
M  V30 4647 C 431.77 1.87215 -0.244131 0
M  V30 4648 O 431.127 1.65709 0.764652 0
M  V30 4649 C 431.178 2.48554 -2.62494 0
M  V30 4650 O 430.899 1.96112 -3.91755 0
M  V30 4651 C 432.4 3.40572 -2.8377 0
M  V30 4652 H 429.62 0.403472 -0.536145 0
M  V30 4653 H 432.164 0.657106 -1.93655 0
M  V30 4654 H 430.319 3.1127 -2.30629 0
M  V30 4655 H 430.733 2.71967 -4.4848 0
M  V30 4656 H 432.207 4.18375 -3.60093 0
M  V30 4657 H 432.684 3.94965 -1.92092 0
M  V30 4658 H 433.29 2.8366 -3.16887 0
M  V30 4659 N 431.605 1.3629 0.791371 0
M  V30 4660 C 432.552 1.30458 1.90393 0
M  V30 4661 C 433.522 0.173632 1.6519 0
M  V30 4662 O 434.707 0.35983 1.87376 0
M  V30 4663 C 431.847 1.09777 3.27174 0
M  V30 4664 C 430.96 2.31929 3.64462 0
M  V30 4665 C 430.095 2.04276 4.90352 0
M  V30 4666 C 429.134 3.224 5.20312 0
M  V30 4667 N 428.271 2.94424 6.37385 0
M  V30 4668 H 433.111 2.25589 1.94714 0
M  V30 4669 H 430.648 1.12122 0.952216 0
M  V30 4670 H 432.606 0.958133 4.06049 0
M  V30 4671 H 431.236 0.183014 3.22281 0
M  V30 4672 H 430.288 2.56703 2.80727 0
M  V30 4673 H 431.6 3.20085 3.82553 0
M  V30 4674 H 430.754 1.87231 5.77087 0
M  V30 4675 H 429.493 1.13428 4.74326 0
M  V30 4676 H 428.498 3.40005 4.32061 0
M  V30 4677 H 429.723 4.14071 5.38258 0
M  V30 4678 H 427.669 2.06185 6.22755 0
M  V30 4679 H 427.586 3.76118 6.55798 0
M  V30 4680 H 428.854 2.80953 7.27108 0
M  V30 4681 N 433.083 -1.0153 1.20538 0
M  V30 4682 C 434.033 -2.08482 0.922991 0
M  V30 4683 C 435.017 -1.60469 -0.117702 0
M  V30 4684 O 436.209 -1.76772 0.0898465 0
M  V30 4685 C 433.338 -3.39952 0.478312 0
M  V30 4686 C 432.424 -3.94662 1.5525 0
M  V30 4687 N 432.815 -4.22866 2.77521 0
M  V30 4688 C 431.113 -4.22825 1.41897 0
M  V30 4689 C 431.814 -4.67002 3.4682 0
M  V30 4690 N 430.79 -4.69356 2.74237 0
M  V30 4691 H 434.592 -2.28199 1.85209 0
M  V30 4692 H 432.106 -1.19512 1.09957 0
M  V30 4693 H 434.103 -4.16105 0.257408 0
M  V30 4694 H 432.763 -3.21648 -0.444148 0
M  V30 4695 H 433.774 -4.11732 3.1416 0
M  V30 4696 H 430.451 -4.13714 0.561015 0
M  V30 4697 H 431.841 -4.97632 4.51455 0
M  V30 4698 N 434.561 -1.01147 -1.20859 0
M  V30 4699 C 435.809 -0.696486 -1.89719 0
M  V30 4700 C 436.13 0.775788 -1.78904 0
M  V30 4701 O 435.4 1.55759 -1.18811 0
M  V30 4702 H 433.98 -0.254628 -0.702263 0
M  V30 4703 H 436.642 -1.28197 -1.46804 0
M  V30 4704 H 435.738 -0.975357 -2.96468 0
M  V30 4705 N 436.039 1.36541 -0.78704 0
M  V30 4706 C 436.972 2.27831 -0.129765 0
M  V30 4707 C 437.95 1.47105 0.692732 0
M  V30 4708 O 439.134 1.7641 0.664222 0
M  V30 4709 C 436.261 3.28577 0.821883 0
M  V30 4710 C 435.307 4.26422 0.0814771 0
M  V30 4711 S 436.14 5.20919 -1.24112 0
M  V30 4712 C 437.296 6.25212 -0.293409 0
M  V30 4713 H 437.529 2.83229 -0.903811 0
M  V30 4714 H 435.062 1.43046 -0.581144 0
M  V30 4715 H 437.02 3.87123 1.3655 0
M  V30 4716 H 435.681 2.72096 1.56916 0
M  V30 4717 H 434.874 4.97554 0.803485 0
M  V30 4718 H 434.476 3.71944 -0.391589 0
M  V30 4719 H 436.768 6.75435 0.528622 0
M  V30 4720 H 437.711 7.01378 -0.973344 0
M  V30 4721 H 438.119 5.64407 0.102196 0
M  V30 4722 N 437.518 0.538854 1.48102 0
M  V30 4723 C 438.764 0.00801365 2.02798 0
M  V30 4724 C 439.097 -1.3309 1.41424 0
M  V30 4725 O 438.372 -1.86169 0.563158 0
M  V30 4726 C 438.655 -0.104589 3.59948 0
M  V30 4727 C 438.508 1.26012 4.31788 0
M  V30 4728 C 439.827 -0.827055 4.32259 0
M  V30 4729 H 436.946 0.00438624 0.736987 0
M  V30 4730 H 439.588 0.6976 1.7673 0
M  V30 4731 H 437.738 -0.691893 3.82289 0
M  V30 4732 H 439.41 1.88922 4.2084 0
M  V30 4733 H 437.653 1.83968 3.92859 0
M  V30 4734 H 438.324 1.13424 5.40221 0
M  V30 4735 H 440.8 -0.328578 4.14801 0
M  V30 4736 H 439.676 -0.87476 5.41885 0
M  V30 4737 H 439.937 -1.87927 4.0017 0
M  V30 4738 N 438.996 -1.55193 0.274407 0
M  V30 4739 C 439.943 -2.225 -0.613374 0
M  V30 4740 C 440.913 -1.19823 -1.15029 0
M  V30 4741 O 442.098 -1.48362 -1.19973 0
M  V30 4742 C 439.238 -2.94927 -1.79199 0
M  V30 4743 C 438.351 -4.12322 -1.28899 0
M  V30 4744 C 437.486 -4.72394 -2.42934 0
M  V30 4745 C 436.525 -5.81984 -1.89634 0
M  V30 4746 N 435.662 -6.36123 -2.9714 0
M  V30 4747 H 440.502 -2.97982 -0.032756 0
M  V30 4748 H 438.039 -1.47099 -0.00440146 0
M  V30 4749 H 439.997 -3.35134 -2.48478 0
M  V30 4750 H 438.627 -2.2187 -2.34465 0
M  V30 4751 H 437.679 -3.7724 -0.489327 0
M  V30 4752 H 438.991 -4.91355 -0.858587 0
M  V30 4753 H 438.145 -5.15317 -3.20208 0
M  V30 4754 H 436.884 -3.92636 -2.8929 0
M  V30 4755 H 435.889 -5.38511 -1.1084 0
M  V30 4756 H 437.114 -6.6361 -1.44215 0
M  V30 4757 H 435.06 -5.59259 -3.42878 0
M  V30 4758 H 434.977 -7.10427 -2.58515 0
M  V30 4759 H 436.245 -6.83704 -3.74391 0
M  V30 4760 N 440.474 -0.00167713 -1.576 0
M  V30 4761 C 441.702 0.693759 -1.94922 0
M  V30 4762 C 442.117 1.67215 -0.876626 0
M  V30 4763 O 441.474 1.81929 0.144279 0
M  V30 4764 C 441.525 1.42416 -3.32265 0
M  V30 4765 O 441.246 0.485014 -4.35407 0
M  V30 4766 C 442.747 2.21395 -3.84056 0
M  V30 4767 H 439.967 0.193118 -0.642609 0
M  V30 4768 H 442.511 -0.0532952 -2.04431 0
M  V30 4769 H 440.666 2.12284 -3.24059 0
M  V30 4770 H 441.08 1.00053 -5.14868 0
M  V30 4771 H 442.554 2.67996 -4.82578 0
M  V30 4772 H 443.031 3.04142 -3.16851 0
M  V30 4773 H 443.637 1.56542 -3.95443 0
M  V30 4774 N 441.952 1.55251 0.271103 0
M  V30 4775 C 443.229 1.66664 1.02384 0
M  V30 4776 C 443.609 0.534363 2.04225 0
M  V30 4777 O 442.957 -0.465337 2.23712 0
M  V30 4778 C 443.167 3.05961 1.67895 0
M  V30 4779 C 444.515 3.63772 2.18986 0
M  V30 4780 O 445.539 3.08606 1.77878 0
M  V30 4781 O 444.398 4.60429 2.94393 0
M  V30 4782 H 441.492 0.676957 0.475035 0
M  V30 4783 H 444.038 1.67589 0.26681 0
M  V30 4784 H 442.81 3.79815 0.941071 0
M  V30 4785 H 442.433 3.08943 2.5028 0
M  V30 4786 N 443.43 -0.535701 1.48216 0
M  V30 4787 C 444.38 -1.63688 1.58714 0
M  V30 4788 C 445.364 -1.54635 0.444615 0
M  V30 4789 O 446.556 -1.62753 0.695742 0
M  V30 4790 C 443.685 -3.02423 1.62466 0
M  V30 4791 C 442.771 -3.16601 2.82178 0
M  V30 4792 N 443.162 -3.00771 4.06658 0
M  V30 4793 C 441.46 -3.47645 2.79391 0
M  V30 4794 C 442.161 -3.18213 4.86945 0
M  V30 4795 N 441.137 -3.45528 4.19656 0
M  V30 4796 H 444.939 -1.5005 2.5271 0
M  V30 4797 H 442.453 -0.741018 1.44508 0
M  V30 4798 H 444.45 -3.81517 1.6808 0
M  V30 4799 H 443.11 -3.17157 0.695826 0
M  V30 4800 H 444.121 -2.77652 4.37184 0
M  V30 4801 H 440.798 -3.68771 1.95739 0
M  V30 4802 H 442.188 -3.1076 5.95716 0
M  V30 4803 N 444.908 -1.36708 -0.784132 0
M  V30 4804 C 446.157 -1.30559 -1.53744 0
M  V30 4805 C 446.47 0.111374 -1.95283 0
M  V30 4806 O 447.676 0.29527 -2.6989 0
M  V30 4807 C 446.132 -2.29098 -2.77565 0
M  V30 4808 C 445.74 -3.76258 -2.43174 0
M  V30 4809 C 447.484 -2.31936 -3.55536 0
M  V30 4810 C 445.391 -4.6656 -3.63422 0
M  V30 4811 H 444.321 -0.48518 -0.577162 0
M  V30 4812 H 446.972 -1.62101 -0.859981 0
M  V30 4813 H 445.354 -1.90557 -3.47137 0
M  V30 4814 H 446.528 -4.23565 -1.81465 0
M  V30 4815 H 444.843 -3.76246 -1.78403 0
M  V30 4816 H 447.44 -2.9661 -4.44889 0
M  V30 4817 H 447.783 -1.3294 -3.94503 0
M  V30 4818 H 448.316 -2.6912 -2.92949 0
M  V30 4819 H 445.055 -5.66638 -3.29547 0
M  V30 4820 H 444.575 -4.23966 -4.24279 0
M  V30 4821 H 446.254 -4.8309 -4.30387 0
M  V30 4822 N 446.386 1.0089 -1.21074 0
M  V30 4823 C 447.316 2.1145 -0.990523 0
M  V30 4824 C 448.297 1.69897 0.0831699 0
M  V30 4825 O 449.482 1.94052 -0.0758853 0
M  V30 4826 C 446.612 3.42914 -0.550177 0
M  V30 4827 C 445.566 3.98244 -1.56799 0
M  V30 4828 C 444.892 5.25568 -0.984013 0
M  V30 4829 C 446.192 4.30752 -2.95381 0
M  V30 4830 H 447.886 2.3013 -1.91521 0
M  V30 4831 H 445.432 1.10592 -0.92225 0
M  V30 4832 H 447.385 4.19653 -0.383305 0
M  V30 4833 H 446.109 3.24014 0.41015 0
M  V30 4834 H 444.768 3.23621 -1.72236 0
M  V30 4835 H 444.416 5.02998 -0.0155216 0
M  V30 4836 H 444.116 5.63551 -1.66384 0
M  V30 4837 H 445.64 6.04955 -0.828378 0
M  V30 4838 H 447.054 4.98349 -2.8341 0
M  V30 4839 H 445.451 4.79869 -3.60341 0
M  V30 4840 H 446.521 3.39192 -3.46521 0
M  V30 4841 N 447.864 1.01787 1.20321 0
M  V30 4842 C 449.111 0.707936 1.89722 0
M  V30 4843 C 449.439 -0.762535 1.78929 0
M  V30 4844 O 448.694 -1.56977 1.16861 0
M  V30 4845 C 448.993 1.09076 3.40349 0
M  V30 4846 C 448.659 2.55765 3.71342 0
M  V30 4847 C 447.321 2.95845 3.79511 0
M  V30 4848 C 449.673 3.50723 3.85542 0
M  V30 4849 C 447.001 4.2982 3.99339 0
M  V30 4850 C 449.353 4.84387 4.06881 0
M  V30 4851 C 448.017 5.24172 4.1328 0
M  V30 4852 H 447.287 0.259052 0.694243 0
M  V30 4853 H 449.934 1.27868 1.42555 0
M  V30 4854 H 448.239 0.438453 3.89339 0
M  V30 4855 H 449.936 0.828636 3.92345 0
M  V30 4856 H 446.526 2.2371 3.65584 0
M  V30 4857 H 450.71 3.20916 3.78585 0
M  V30 4858 H 445.966 4.60196 4.02529 0
M  V30 4859 H 450.14 5.57891 4.1681 0
M  V30 4860 H 447.767 6.27997 4.28396 0
M  V30 4861 N 449.342 -1.36122 0.79427 0
M  V30 4862 C 450.591 -1.98361 0.365464 0
M  V30 4863 C 450.904 -1.6374 -1.06997 0
M  V30 4864 O 452.11 -2.19251 -1.60129 0
M  V30 4865 C 450.566 -3.54821 0.602496 0
M  V30 4866 C 450.174 -3.98362 2.04967 0
M  V30 4867 C 451.918 -4.2383 0.238437 0
M  V30 4868 C 449.825 -5.47619 2.2331 0
M  V30 4869 H 448.755 -0.742193 0.13291 0
M  V30 4870 H 451.406 -1.55354 0.976589 0
M  V30 4871 H 449.788 -3.95922 -0.078409 0
M  V30 4872 H 450.962 -3.68447 2.76737 0
M  V30 4873 H 449.277 -3.42206 2.37243 0
M  V30 4874 H 451.874 -5.33529 0.353705 0
M  V30 4875 H 452.217 -4.08264 -0.814006 0
M  V30 4876 H 452.75 -3.88108 0.872769 0
M  V30 4877 H 449.489 -5.68138 3.26955 0
M  V30 4878 H 449.009 -5.79145 1.5605 0
M  V30 4879 H 450.688 -6.13911 2.0426 0
M  V30 4880 N 450.82 -0.546701 -1.47814 0
M  V30 4881 C 451.783 0.196287 -2.28358 0
M  V30 4882 C 452.783 0.852437 -1.36346 0
M  V30 4883 O 453.973 0.709913 -1.59078 0
M  V30 4884 C 451.105 1.28579 -3.15722 0
M  V30 4885 H 452.298 -0.511086 -2.95513 0
M  V30 4886 H 449.851 -0.303248 -1.5333 0
M  V30 4887 H 450.586 2.0259 -2.53235 0
M  V30 4888 H 450.371 0.820229 -3.83425 0
M  V30 4889 H 451.861 1.80793 -3.76435 0
M  V30 4890 N 452.299 1.55045 -0.282633 0
M  V30 4891 C 453.524 2.04628 0.337977 0
M  V30 4892 C 453.949 1.15937 1.48123 0
M  V30 4893 O 453.307 0.159532 1.80597 0
M  V30 4894 C 453.355 3.51854 0.78936 0
M  V30 4895 O 452.459 3.66236 1.89592 0
M  V30 4896 H 451.8 0.660434 0.0687261 0
M  V30 4897 H 454.33 2.00261 -0.419124 0
M  V30 4898 H 454.34 3.93361 1.08311 0
M  V30 4899 H 453.015 4.15873 -0.0470419 0
M  V30 4900 H 451.592 3.36633 1.60413 0
M  V30 4901 N 453.777 0.010035 1.57597 0
M  V30 4902 C 455.025 -0.671371 1.90623 0
M  V30 4903 C 455.346 -1.73753 0.885151 0
M  V30 4904 O 454.616 -1.95752 -0.0760611 0
M  V30 4905 H 453.196 -0.250968 0.703579 0
M  V30 4906 H 455.858 0.0533325 1.94827 0
M  V30 4907 H 454.954 -1.13626 2.90681 0
M  V30 4908 N 455.255 -1.55392 -0.262866 0
M  V30 4909 C 456.218 -1.88181 -1.30846 0
M  V30 4910 C 457.218 -0.757079 -1.41862 0
M  V30 4911 O 458.408 -1.02519 -1.40838 0
M  V30 4912 C 455.54 -2.09609 -2.68844 0
M  V30 4913 H 456.733 -2.81659 -1.02997 0
M  V30 4914 H 454.286 -1.48039 -0.501414 0
M  V30 4915 H 455.021 -1.18547 -3.01856 0
M  V30 4916 H 454.806 -2.91508 -2.62231 0
M  V30 4917 H 456.296 -2.36215 -3.44372 0
M  V30 4918 N 456.733 0.527833 -1.48498 0
M  V30 4919 C 457.98 1.28354 -1.56625 0
M  V30 4920 C 458.308 1.93 -0.241096 0
M  V30 4921 O 457.563 1.79967 0.768798 0
M  V30 4922 C 457.862 2.39275 -2.65485 0
M  V30 4923 C 457.528 1.92268 -4.07853 0
M  V30 4924 C 456.19 1.79166 -4.46602 0
M  V30 4925 C 458.542 1.56771 -4.97064 0
M  V30 4926 C 455.87 1.28905 -5.72364 0
M  V30 4927 C 458.222 1.07972 -6.23318 0
M  V30 4928 C 456.886 0.934887 -6.60921 0
M  V30 4929 H 456.156 0.469682 -0.573131 0
M  V30 4930 H 458.803 0.588781 -1.82224 0
M  V30 4931 H 457.108 3.1443 -2.33754 0
M  V30 4932 H 458.805 2.974 -2.68988 0
M  V30 4933 H 455.395 2.03417 -3.77252 0
M  V30 4934 H 459.579 1.65753 -4.67803 0
M  V30 4935 H 454.835 1.16381 -6.00221 0
M  V30 4936 H 459.009 0.795775 -6.91838 0
M  V30 4937 H 456.636 0.543231 -7.58257 0
M  V30 4938 N 458.211 1.37122 0.776871 0
M  V30 4939 C 459.143 1.28342 1.89897 0
M  V30 4940 C 460.156 0.200277 1.61563 0
M  V30 4941 O 461.345 0.456012 1.72577 0
M  V30 4942 C 458.445 0.960427 3.25006 0
M  V30 4943 C 457.618 2.148 3.81025 0
M  V30 4944 C 456.677 1.79608 4.94598 0
M  V30 4945 O 455.703 2.51845 5.10454 0
M  V30 4946 N 456.905 0.737171 5.758 0
M  V30 4947 H 459.67 2.25027 1.97947 0
M  V30 4948 H 457.231 1.3068 0.955739 0
M  V30 4949 H 459.223 0.705942 3.98495 0
M  V30 4950 H 457.793 0.0823066 3.12492 0
M  V30 4951 H 457.013 2.56454 2.99374 0
M  V30 4952 H 458.301 2.9411 4.15183 0
M  V30 4953 H 457.699 0.137637 5.65533 0
M  V30 4954 H 456.256 0.542534 6.49538 0
M  V30 4955 N 459.689 -1.00246 1.21608 0
M  V30 4956 C 460.938 -1.73476 1.02902 0
M  V30 4957 C 461.251 -1.90643 -0.437561 0
M  V30 4958 O 462.457 -2.61105 -0.74407 0
M  V30 4959 C 460.913 -3.12079 1.79261 0
M  V30 4960 C 460.521 -3.02877 3.30106 0
M  V30 4961 C 462.265 -3.89421 1.68972 0
M  V30 4962 C 460.172 -4.36575 3.98944 0
M  V30 4963 H 459.102 -0.650408 0.381425 0
M  V30 4964 H 461.753 -1.11985 1.45367 0
M  V30 4965 H 460.135 -3.74196 1.2959 0
M  V30 4966 H 461.309 -2.49983 3.87098 0
M  V30 4967 H 459.624 -2.39022 3.40965 0
M  V30 4968 H 462.221 -4.88362 2.17731 0
M  V30 4969 H 462.564 -4.1122 0.648397 0
M  V30 4970 H 463.097 -3.33963 2.16133 0
M  V30 4971 H 459.836 -4.19978 5.03288 0
M  V30 4972 H 459.356 -4.8942 3.4674 0
M  V30 4973 H 461.035 -5.05364 4.04 0
M  V30 4974 N 461.167 -1.02423 -1.1978 0
M  V30 4975 C 462.13 -0.605703 -2.21052 0
M  V30 4976 C 463.13 0.328209 -1.57415 0
M  V30 4977 O 464.32 0.115853 -1.73814 0
M  V30 4978 C 461.452 0.114366 -3.40708 0
M  V30 4979 H 462.645 -1.5017 -2.59594 0
M  V30 4980 H 460.198 -0.814888 -1.33376 0
M  V30 4981 H 460.933 1.02492 -3.07678 0
M  V30 4982 H 460.718 -0.556641 -3.88129 0
M  V30 4983 H 462.208 0.394272 -4.15735 0
M  V30 4984 N 462.645 1.35699 -0.801477 0
M  V30 4985 C 463.592 2.29876 -0.206294 0
M  V30 4986 C 464.562 1.52565 0.656752 0
M  V30 4987 O 465.747 1.81024 0.602906 0
M  V30 4988 C 462.887 3.39052 0.643272 0
M  V30 4989 C 462 4.31335 -0.239644 0
M  V30 4990 C 461.135 5.27599 0.61744 0
M  V30 4991 C 460.174 6.11521 -0.26619 0
M  V30 4992 N 459.311 6.99938 0.550571 0
M  V30 4993 H 464.151 2.80187 -1.01484 0
M  V30 4994 H 461.688 1.37902 -0.511997 0
M  V30 4995 H 463.646 4.0101 1.15094 0
M  V30 4996 H 462.276 2.9003 1.41713 0
M  V30 4997 H 461.328 3.70426 -0.865381 0
M  V30 4998 H 462.64 4.90243 -0.919985 0
M  V30 4999 H 461.794 5.94906 1.19045 0
M  V30 5000 H 460.533 4.69176 1.33137 0
M  V30 5001 H 459.538 5.43166 -0.851507 0
M  V30 5002 H 460.763 6.72022 -0.9779 0
M  V30 5003 H 458.709 6.44008 1.24856 0
M  V30 5004 H 458.626 7.55966 -0.071832 0
M  V30 5005 H 459.894 7.71599 1.10702 0
M  V30 5006 N 464.123 0.554532 1.47522 0
M  V30 5007 C 465.534 0.120446 1.86311 0
M  V30 5008 C 465.885 -1.30904 1.46145 0
M  V30 5009 O 465.01 -1.98434 0.863294 0
M  V30 5010 C 465.605 0.211808 3.38137 0
M  V30 5011 C 464.164 -0.167224 3.76028 0
M  V30 5012 C 463.311 0.560576 2.71575 0
M  V30 5013 H 466.262 0.764408 1.39077 0
M  V30 5014 H 466.283 -0.570275 3.76202 0
M  V30 5015 H 465.795 1.25232 3.6734 0
M  V30 5016 H 463.896 -1.20894 3.52442 0
M  V30 5017 H 464.009 0.189473 4.78725 0
M  V30 5018 H 462.373 0.00396836 2.547 0
M  V30 5019 H 463.156 1.60219 3.0362 0
M  V30 5020 N 465.601 -1.54893 0.290851 0
M  V30 5021 C 466.826 -2.04804 -0.32712 0
M  V30 5022 C 467.251 -1.16721 -1.47506 0
M  V30 5023 O 466.609 -0.169107 -1.8051 0
M  V30 5024 C 466.657 -3.52268 -0.770689 0
M  V30 5025 O 465.761 -3.67236 -1.87647 0
M  V30 5026 H 465.102 -0.660789 -0.0652227 0
M  V30 5027 H 467.632 -2.00036 0.429739 0
M  V30 5028 H 467.642 -3.9393 -1.06223 0
M  V30 5029 H 466.317 -4.15843 0.069096 0
M  V30 5030 H 464.894 -3.37479 -1.58626 0
M  V30 5031 N 467.08 -0.0183926 -1.57589 0
M  V30 5032 C 468.357 0.700621 -1.82622 0
M  V30 5033 C 468.737 1.90951 -0.90005 0
M  V30 5034 O 468.085 2.28452 0.0469145 0
M  V30 5035 C 468.295 1.08899 -3.31575 0
M  V30 5036 C 469.643 1.48514 -3.9778 0
M  V30 5037 O 470.667 1.18227 -3.36007 0
M  V30 5038 O 469.526 2.04903 -5.06633 0
M  V30 5039 H 466.62 0.342743 -0.752633 0
M  V30 5040 H 469.166 -0.0452548 -1.6964 0
M  V30 5041 H 467.938 0.228113 -3.90635 0
M  V30 5042 H 467.561 1.89338 -3.49624 0
M  V30 5043 N 468.558 1.5553 0.254621 0
M  V30 5044 C 469.488 1.9268 1.31897 0
M  V30 5045 C 470.469 0.790797 1.506 0
M  V30 5046 O 471.654 1.05045 1.63337 0
M  V30 5047 C 468.784 2.21477 2.67517 0
M  V30 5048 C 467.738 3.37256 2.63519 0
M  V30 5049 C 467.064 3.51576 4.02862 0
M  V30 5050 C 468.364 4.73157 2.21179 0
M  V30 5051 H 470.058 2.81832 1.01051 0
M  V30 5052 H 467.604 1.35599 0.484662 0
M  V30 5053 H 469.557 2.46055 3.42104 0
M  V30 5054 H 468.281 1.29144 2.99982 0
M  V30 5055 H 466.94 3.12675 1.9139 0
M  V30 5056 H 466.588 2.56676 4.32581 0
M  V30 5057 H 466.288 4.2943 4.01078 0
M  V30 5058 H 467.812 3.78467 4.79161 0
M  V30 5059 H 469.226 4.97158 2.85494 0
M  V30 5060 H 467.623 5.54058 2.30521 0
M  V30 5061 H 468.693 4.70739 1.16332 0
M  V30 5062 N 470.036 -0.519951 1.48776 0
M  V30 5063 C 471.285 -1.27175 1.56555 0
M  V30 5064 C 471.598 -1.9401 0.248869 0
M  V30 5065 O 472.804 -2.70725 0.205004 0
M  V30 5066 C 471.26 -2.30811 2.76142 0
M  V30 5067 C 470.868 -1.7 4.14493 0
M  V30 5068 C 472.612 -3.06937 2.9324 0
M  V30 5069 C 470.519 -2.71635 5.25327 0
M  V30 5070 H 469.449 -0.478329 0.582853 0
M  V30 5071 H 472.1 -0.547916 1.75129 0
M  V30 5072 H 470.482 -3.06274 2.51023 0
M  V30 5073 H 471.656 -1.00658 4.49672 0
M  V30 5074 H 469.971 -1.06331 4.02595 0
M  V30 5075 H 472.568 -3.82905 3.73213 0
M  V30 5076 H 472.911 -3.63409 2.03075 0
M  V30 5077 H 473.444 -2.38589 3.18308 0
M  V30 5078 H 470.183 -2.1997 6.1749 0
M  V30 5079 H 469.703 -3.39275 4.94624 0
M  V30 5080 H 471.382 -3.34429 5.53865 0
M  V30 5081 N 471.514 -1.37532 -0.769588 0
M  V30 5082 C 472.925 -1.29382 -1.346 0
M  V30 5083 C 473.276 0.0576039 -1.96115 0
M  V30 5084 O 472.401 0.95947 -1.93967 0
M  V30 5085 C 472.996 -2.34298 -2.44724 0
M  V30 5086 C 471.555 -2.29776 -2.98128 0
M  V30 5087 C 470.702 -2.18013 -1.71364 0
M  V30 5088 H 473.653 -1.48123 -0.56968 0
M  V30 5089 H 473.674 -1.99089 -3.24259 0
M  V30 5090 H 473.186 -3.32645 -1.99922 0
M  V30 5091 H 471.287 -1.34959 -3.47299 0
M  V30 5092 H 471.4 -3.23276 -3.53595 0
M  V30 5093 H 469.764 -1.64595 -1.94372 0
M  V30 5094 H 470.547 -3.18278 -1.28662 0
M  V30 5095 N 472.992 0.995999 -1.22138 0
M  V30 5096 C 473.902 2.11985 -1.00496 0
M  V30 5097 C 474.918 1.7394 0.0457701 0
M  V30 5098 O 476.094 2.00868 -0.146273 0
M  V30 5099 C 473.159 3.41779 -0.582086 0
M  V30 5100 C 472.22 3.93943 -1.70608 0
M  V30 5101 C 471.453 5.17542 -1.30328 0
M  V30 5102 O 471.676 5.70114 -0.180743 0
M  V30 5103 O 470.61 5.63382 -2.11861 0
M  V30 5104 H 474.436 2.33123 -1.94647 0
M  V30 5105 H 472.021 1.10358 -1.00705 0
M  V30 5106 H 473.903 4.1989 -0.356467 0
M  V30 5107 H 472.578 3.22007 0.330592 0
M  V30 5108 H 471.485 3.17019 -1.98619 0
M  V30 5109 H 472.818 4.18141 -2.59651 0
M  V30 5110 N 474.47 1.03057 1.19235 0
M  V30 5111 C 475.4 0.633497 2.24742 0
M  V30 5112 C 476.381 -0.358335 1.66283 0
M  V30 5113 O 477.566 -0.240676 1.92703 0
M  V30 5114 C 474.696 -0.0147648 3.47297 0
M  V30 5115 C 473.65 0.899527 4.18441 0
M  V30 5116 C 472.976 0.116281 5.34574 0
M  V30 5117 C 474.276 2.21404 4.73051 0
M  V30 5118 H 475.97 1.5155 2.58211 0
M  V30 5119 H 473.516 0.73014 1.24117 0
M  V30 5120 H 475.469 -0.304202 4.20301 0
M  V30 5121 H 474.193 -0.931577 3.13032 0
M  V30 5122 H 472.852 1.17319 3.47321 0
M  V30 5123 H 472.5 -0.802619 4.96555 0
M  V30 5124 H 472.2 0.725293 5.83107 0
M  V30 5125 H 473.724 -0.166376 6.10373 0
M  V30 5126 H 475.138 1.98601 5.37802 0
M  V30 5127 H 473.535 2.77512 5.32078 0
M  V30 5128 H 474.605 2.86752 3.91026 0
M  V30 5129 N 475.948 -1.35272 0.808662 0
M  V30 5130 C 476.88 -2.28507 0.178149 0
M  V30 5131 C 477.893 -1.50377 -0.623754 0
M  V30 5132 O 479.082 -1.72583 -0.455774 0
M  V30 5133 C 476.182 -3.30038 -0.769959 0
M  V30 5134 C 475.355 -4.37398 -0.0139749 0
M  V30 5135 C 474.414 -5.18775 -0.880875 0
M  V30 5136 O 473.44 -5.68236 -0.331059 0
M  V30 5137 N 474.642 -5.37087 -2.20267 0
M  V30 5138 H 477.407 -2.83255 0.979106 0
M  V30 5139 H 474.968 -1.47643 0.664308 0
M  V30 5140 H 476.96 -3.81371 -1.35418 0
M  V30 5141 H 475.53 -2.75789 -1.47171 0
M  V30 5142 H 474.75 -3.86971 0.751468 0
M  V30 5143 H 476.038 -5.06268 0.506965 0
M  V30 5144 H 475.436 -4.9855 -2.67328 0
M  V30 5145 H 473.993 -5.91593 -2.73608 0
M  V30 5146 N 477.426 -0.562348 -1.47226 0
M  V30 5147 C 478.674 -0.0401371 -2.0206 0
M  V30 5148 C 478.995 1.3165 -1.43852 0
M  V30 5149 O 478.265 1.85976 -0.615599 0
M  V30 5150 H 476.845 -0.0118479 -0.746906 0
M  V30 5151 H 479.507 -0.73352 -1.8057 0
M  V30 5152 H 478.603 0.0441254 -3.12069 0
M  V30 5153 N 478.904 1.54736 -0.299062 0
M  V30 5154 C 480.32 1.59507 0.0543849 0
M  V30 5155 C 480.52 1.31606 1.52585 0
M  V30 5156 O 479.576 1.08853 2.27832 0
M  V30 5157 C 480.889 2.98751 -0.34181 0
M  V30 5158 C 482.437 3.1165 -0.290414 0
M  V30 5159 C 482.912 4.53199 -0.661402 0
M  V30 5160 N 484.403 4.59114 -0.613863 0
M  V30 5161 C 485.138 5.66709 -0.873417 0
M  V30 5162 N 484.634 6.82349 -1.19884 0
M  V30 5163 N 486.427 5.56369 -0.800608 0
M  V30 5164 H 478.578 1.71133 -1.25806 0
M  V30 5165 H 480.841 0.799186 -0.509908 0
M  V30 5166 H 480.547 3.24085 -1.36608 0
M  V30 5167 H 480.421 3.75961 0.305508 0
M  V30 5168 H 482.808 2.86066 0.724605 0
M  V30 5169 H 482.889 2.366 -0.972327 0
M  V30 5170 H 482.533 4.79513 -1.67422 0
M  V30 5171 H 482.463 5.26583 0.0425612 0
M  V30 5172 H 484.954 3.76053 -0.3732 0
M  V30 5173 H 485.267 7.60326 -1.38291 0
M  V30 5174 H 483.612 6.83906 -1.23685 0
M  V30 5175 H 486.803 4.64904 -0.546045 0
M  V30 5176 H 486.976 6.40139 -1.00626 0
M  V30 5177 N 480.382 0.0267497 1.57577 0
M  V30 5178 C 481.312 -0.954308 2.13108 0
M  V30 5179 C 482.293 -1.34088 1.04663 0
M  V30 5180 O 483.478 -1.41992 1.32484 0
M  V30 5181 C 480.608 -2.23744 2.65624 0
M  V30 5182 C 479.562 -1.99168 3.78835 0
M  V30 5183 C 478.888 -3.33726 4.17769 0
M  V30 5184 C 480.188 -1.33277 5.0501 0
M  V30 5185 H 481.882 -0.491848 2.95332 0
M  V30 5186 H 479.428 -0.23514 1.42067 0
M  V30 5187 H 481.381 -2.92754 3.03106 0
M  V30 5188 H 480.105 -2.72151 1.80558 0
M  V30 5189 H 478.764 -1.32577 3.41788 0
M  V30 5190 H 478.412 -3.79888 3.29688 0
M  V30 5191 H 478.112 -3.18089 4.94058 0
M  V30 5192 H 479.636 -4.04008 4.57832 0
M  V30 5193 H 481.05 -1.92283 5.40093 0
M  V30 5194 H 479.447 -1.28045 5.8628 0
M  V30 5195 H 480.517 -0.305411 4.83937 0
M  V30 5196 N 481.861 -1.55662 -0.24637 0
M  V30 5197 C 483.272 -1.67953 -0.81539 0
M  V30 5198 C 483.623 -0.624302 -1.86002 0
M  V30 5199 O 482.748 0.229328 -2.15181 0
M  V30 5200 C 483.343 -3.04484 -1.48576 0
M  V30 5201 C 481.902 -3.18713 -2.00248 0
M  V30 5202 C 481.049 -2.6383 -0.853766 0
M  V30 5203 H 484 -1.58685 -0.0221692 0
M  V30 5204 H 484.021 -2.98959 -2.3538 0
M  V30 5205 H 483.533 -3.81264 -0.725222 0
M  V30 5206 H 481.634 -2.46757 -2.79181 0
M  V30 5207 H 481.747 -4.25628 -2.1995 0
M  V30 5208 H 480.111 -2.21667 -1.25442 0
M  V30 5209 H 480.894 -3.43135 -0.106302 0
M  V30 5210 N 483.339 0.512053 -1.4905 0
M  V30 5211 C 484.588 1.26343 -1.57227 0
M  V30 5212 C 484.901 1.93876 -0.259155 0
M  V30 5213 O 486.107 2.70612 -0.219358 0
M  V30 5214 C 484.563 2.29343 -2.77362 0
M  V30 5215 C 484.171 1.67799 -4.15388 0
M  V30 5216 C 485.915 3.05378 -2.94864 0
M  V30 5217 C 483.822 2.68845 -5.2676 0
M  V30 5218 H 482.752 0.475231 -0.585382 0
M  V30 5219 H 485.403 0.53862 -1.75417 0
M  V30 5220 H 483.785 3.04938 -2.52643 0
M  V30 5221 H 484.959 0.982715 -4.50199 0
M  V30 5222 H 483.274 1.04194 -4.03153 0
M  V30 5223 H 485.871 3.80921 -3.75238 0
M  V30 5224 H 486.214 3.62327 -2.05 0
M  V30 5225 H 486.747 2.36898 -3.19569 0
M  V30 5226 H 483.486 2.16692 -6.18647 0
M  V30 5227 H 483.006 3.36647 -4.96416 0
M  V30 5228 H 484.685 3.31487 -5.5563 0
M  V30 5229 N 484.817 1.37938 0.762283 0
M  V30 5230 C 486.233 1.18945 1.06415 0
M  V30 5231 C 486.433 0.0321163 2.01474 0
M  V30 5232 O 485.489 -0.624844 2.44647 0
M  V30 5233 C 486.802 2.51218 1.65258 0
M  V30 5234 C 488.35 2.57824 1.7747 0
M  V30 5235 C 488.825 3.90251 2.39725 0
M  V30 5236 N 490.316 3.91744 2.47166 0
M  V30 5237 C 491.051 4.90966 2.96209 0
M  V30 5238 N 490.547 6.00585 3.45354 0
M  V30 5239 N 492.34 4.78363 2.9517 0
M  V30 5240 H 484.491 2.11994 0.131301 0
M  V30 5241 H 486.754 0.940262 0.120879 0
M  V30 5242 H 486.46 3.36317 1.02878 0
M  V30 5243 H 486.334 2.68989 2.64433 0
M  V30 5244 H 488.721 1.73126 2.3898 0
M  V30 5245 H 488.802 2.43928 0.770241 0
M  V30 5246 H 488.446 4.75368 1.78852 0
M  V30 5247 H 488.376 4.01454 3.40796 0
M  V30 5248 H 490.867 3.12563 2.12397 0
M  V30 5249 H 491.18 6.72236 3.81207 0
M  V30 5250 H 489.525 6.04217 3.43434 0
M  V30 5251 H 492.716 3.91841 2.56082 0
M  V30 5252 H 492.889 5.55843 3.33081 0
M  V30 5253 N 486.295 -0.989507 1.22664 0
M  V30 5254 C 487.541 -1.7321 1.05481 0
M  V30 5255 C 487.874 -1.89852 -0.408635 0
M  V30 5256 O 487.149 -1.44416 -1.30285 0
M  V30 5257 C 487.432 -3.1357 1.77047 0
M  V30 5258 C 487.285 -3.04555 3.31008 0
M  V30 5259 C 488.604 -4.12812 1.5256 0
M  V30 5260 H 485.723 -0.628697 0.384589 0
M  V30 5261 H 488.365 -1.15258 1.51049 0
M  V30 5262 H 486.515 -3.63046 1.3831 0
M  V30 5263 H 488.187 -2.62674 3.7921 0
M  V30 5264 H 486.43 -2.41278 3.6051 0
M  V30 5265 H 487.101 -4.03894 3.76263 0
M  V30 5266 H 489.577 -3.72106 1.86215 0
M  V30 5267 H 488.453 -5.09132 2.05124 0
M  V30 5268 H 488.714 -4.39711 0.458936 0
M  V30 5269 N 487.773 -1.03688 -1.18687 0
M  V30 5270 C 488.683 -0.634908 -2.25845 0
M  V30 5271 C 489.699 0.337065 -1.70704 0
M  V30 5272 O 490.875 0.192943 -2.00474 0
M  V30 5273 C 487.94 -0.000180054 -3.467 0
M  V30 5274 C 487.001 -1.02067 -4.1699 0
M  V30 5275 C 486.234 -0.41614 -5.32075 0
M  V30 5276 O 486.457 0.778712 -5.65059 0
M  V30 5277 O 485.391 -1.14296 -5.90948 0
M  V30 5278 H 489.217 -1.52757 -2.62486 0
M  V30 5279 H 486.802 -0.807533 -1.25695 0
M  V30 5280 H 488.684 0.353342 -4.19916 0
M  V30 5281 H 487.359 0.866367 -3.11891 0
M  V30 5282 H 486.266 -1.42592 -3.45859 0
M  V30 5283 H 487.599 -1.85786 -4.5579 0
M  V30 5284 N 489.251 1.34841 -0.815825 0
M  V30 5285 C 490.181 2.32187 -0.247298 0
M  V30 5286 C 491.162 1.5791 0.632344 0
M  V30 5287 O 492.347 1.8593 0.560698 0
M  V30 5288 C 489.477 3.42122 0.597466 0
M  V30 5289 C 488.431 4.27602 -0.184446 0
M  V30 5290 C 487.757 5.28942 0.782609 0
M  V30 5291 C 489.057 5.03502 -1.38865 0
M  V30 5292 H 490.751 2.79985 -1.06061 0
M  V30 5293 H 488.297 1.34611 -0.511461 0
M  V30 5294 H 490.25 4.09232 1.00533 0
M  V30 5295 H 488.974 2.92956 1.44376 0
M  V30 5296 H 487.633 3.62085 -0.573592 0
M  V30 5297 H 487.281 4.7604 1.62466 0
M  V30 5298 H 486.981 5.87008 0.263695 0
M  V30 5299 H 488.505 5.98922 1.18848 0
M  V30 5300 H 489.919 5.63506 -1.05518 0
M  V30 5301 H 488.316 5.71108 -1.8427 0
M  V30 5302 H 489.386 4.33608 -2.17054 0
M  V30 5303 N 490.729 0.570148 1.46925 0
M  V30 5304 C 491.661 -0.207909 2.28255 0
M  V30 5305 C 492.674 -0.867301 1.37774 0
M  V30 5306 O 493.863 -0.738976 1.62485 0
M  V30 5307 C 490.963 -1.31298 3.12433 0
M  V30 5308 C 490.136 -0.747915 4.30958 0
M  V30 5309 C 489.195 -1.7391 4.9663 0
M  V30 5310 O 488.221 -1.2801 5.54619 0
M  V30 5311 N 489.423 -3.07288 4.92498 0
M  V30 5312 H 492.188 0.489794 2.95671 0
M  V30 5313 H 489.749 0.407076 1.56699 0
M  V30 5314 H 491.741 -1.97507 3.53232 0
M  V30 5315 H 490.311 -1.91373 2.47175 0
M  V30 5316 H 489.531 0.0913066 3.94094 0
M  V30 5317 H 490.819 -0.349958 5.07595 0
M  V30 5318 H 490.217 -3.47213 4.46609 0
M  V30 5319 H 488.774 -3.69021 5.37277 0
M  V30 5320 N 492.207 -1.54576 0.307264 0
M  V30 5321 C 493.17 -2.22423 -0.553224 0
M  V30 5322 C 494.17 -1.21231 -1.05639 0
M  V30 5323 O 495.36 -1.45923 -0.951419 0
M  V30 5324 C 492.492 -2.91552 -1.76664 0
M  V30 5325 H 493.685 -2.99874 0.0396484 0
M  V30 5326 H 491.238 -1.56192 0.0581629 0
M  V30 5327 H 491.973 -2.18196 -2.39918 0
M  V30 5328 H 491.758 -3.65738 -1.41343 0
M  V30 5329 H 493.248 -3.43292 -2.37783 0
M  V30 5330 N 493.685 -0.035106 -1.57561 0
M  V30 5331 C 494.615 0.942993 -2.13612 0
M  V30 5332 C 495.596 1.33531 -1.05373 0
M  V30 5333 O 496.781 1.41287 -1.33235 0
M  V30 5334 C 493.911 2.22332 -2.66807 0
M  V30 5335 C 492.865 1.97156 -3.79886 0
M  V30 5336 C 492.191 3.31506 -4.19533 0
M  V30 5337 C 493.491 1.30596 -5.05709 0
M  V30 5338 H 495.185 0.476179 -2.95589 0
M  V30 5339 H 492.731 0.227602 -1.4219 0
M  V30 5340 H 494.684 2.91142 -3.04654 0
M  V30 5341 H 493.408 2.7119 -1.81999 0
M  V30 5342 H 492.067 1.30763 -3.42486 0
M  V30 5343 H 491.715 3.78134 -3.31698 0
M  V30 5344 H 491.415 3.15465 -4.95738 0
M  V30 5345 H 492.939 4.01574 -4.59968 0
M  V30 5346 H 494.353 1.89416 -5.41105 0
M  V30 5347 H 492.75 1.24934 -5.86951 0
M  V30 5348 H 493.82 0.279742 -4.84092 0
M  V30 5349 N 495.163 1.55791 0.238111 0
M  V30 5350 C 496.391 1.82098 0.982233 0
M  V30 5351 C 496.806 0.612025 1.78605 0
M  V30 5352 O 496.163 -0.419381 1.77616 0
M  V30 5353 C 496.214 3.0673 1.91309 0
M  V30 5354 O 495.935 4.2296 1.14179 0
M  V30 5355 C 497.436 3.45903 2.77248 0
M  V30 5356 H 494.656 0.605748 0.288635 0
M  V30 5357 H 497.2 2.02862 0.258341 0
M  V30 5358 H 495.355 2.87991 2.59114 0
M  V30 5359 H 495.769 4.93653 1.7722 0
M  V30 5360 H 497.243 4.36189 3.38295 0
M  V30 5361 H 497.72 2.66891 3.48806 0
M  V30 5362 H 498.326 3.67024 2.14881 0
M  V30 5363 N 496.642 -0.504142 1.49319 0
M  V30 5364 C 497.87 -1.28256 1.62351 0
M  V30 5365 C 498.285 -1.86502 0.293682 0
M  V30 5366 O 497.642 -1.67678 -0.720449 0
M  V30 5367 C 497.693 -2.41507 2.68992 0
M  V30 5368 O 497.414 -1.85656 3.96817 0
M  V30 5369 C 498.915 -3.32929 2.927 0
M  V30 5370 H 496.135 -0.389115 0.546654 0
M  V30 5371 H 498.679 -0.605531 1.95329 0
M  V30 5372 H 496.834 -3.05046 2.38801 0
M  V30 5373 H 497.248 -2.59981 4.55533 0
M  V30 5374 H 498.722 -4.0868 3.71058 0
M  V30 5375 H 499.199 -3.89733 2.02496 0
M  V30 5376 H 499.805 -2.75158 3.24296 0
M  V30 5377 N 498.12 -1.38341 -0.754957 0
M  V30 5378 C 499.345 -1.37882 -1.5493 0
M  V30 5379 C 499.77 0.0296385 -1.88077 0
M  V30 5380 O 499.128 1.01133 -1.50472 0
M  V30 5381 C 499.176 -2.23996 -2.82592 0
M  V30 5382 O 498.28 -1.65612 -3.77686 0
M  V30 5383 H 497.621 -0.470384 -0.468652 0
M  V30 5384 H 500.151 -1.82084 -0.933082 0
M  V30 5385 H 500.161 -2.37806 -3.3153 0
M  V30 5386 H 498.836 -3.26365 -2.57796 0
M  V30 5387 H 497.413 -1.60936 -3.36384 0
M  V30 5388 N 499.598 0.982988 -1.23187 0
M  V30 5389 C 500.875 1.69814 -0.970707 0
M  V30 5390 C 501.255 2.04811 0.511424 0
M  V30 5391 O 500.603 1.73924 1.48198 0
M  V30 5392 C 500.813 2.94143 -1.87831 0
M  V30 5393 C 502.161 3.66712 -2.14026 0
M  V30 5394 O 503.185 3.04171 -1.8536 0
M  V30 5395 O 502.044 4.79258 -2.62629 0
M  V30 5396 H 499.138 0.741659 -0.365884 0
M  V30 5397 H 501.684 1.03844 -1.34218 0
M  V30 5398 H 500.456 2.64858 -2.88038 0
M  V30 5399 H 500.079 3.6785 -1.50905 0
M  V30 5400 N 501.076 1.04316 1.18135 0
M  V30 5401 C 502.323 0.74802 1.88178 0
M  V30 5402 C 502.651 -0.72441 1.80506 0
M  V30 5403 O 501.906 -1.54463 1.20165 0
M  V30 5404 C 502.205 1.16271 3.37958 0
M  V30 5405 C 501.871 2.63585 3.65833 0
M  V30 5406 C 500.533 3.03829 3.73151 0
M  V30 5407 C 502.885 3.58822 3.78016 0
M  V30 5408 C 500.213 4.38194 3.90132 0
M  V30 5409 C 502.565 4.92909 3.96514 0
M  V30 5410 C 501.229 5.3282 4.02068 0
M  V30 5411 H 500.499 0.27372 0.688592 0
M  V30 5412 H 503.146 1.30863 1.39811 0
M  V30 5413 H 501.451 0.520938 3.88321 0
M  V30 5414 H 503.148 0.911672 3.90499 0
M  V30 5415 H 499.738 2.31414 3.60757 0
M  V30 5416 H 503.922 3.28875 3.71692 0
M  V30 5417 H 499.178 4.68631 3.92677 0
M  V30 5418 H 503.352 5.66606 4.04883 0
M  V30 5419 H 500.979 6.36943 4.14979 0
M  V30 5420 N 502.554 -1.34406 0.822964 0
M  V30 5421 C 503.464 -2.33298 0.246838 0
M  V30 5422 C 504.48 -1.62625 -0.618797 0
M  V30 5423 O 505.656 -1.94391 -0.526685 0
M  V30 5424 C 502.721 -3.41785 -0.581731 0
M  V30 5425 C 501.782 -4.28206 0.306309 0
M  V30 5426 C 501.015 -5.31512 -0.48281 0
M  V30 5427 O 501.238 -5.43973 -1.71607 0
M  V30 5428 O 500.172 -6.01749 0.134884 0
M  V30 5429 H 503.998 -2.84401 1.06534 0
M  V30 5430 H 501.583 -1.37466 0.585108 0
M  V30 5431 H 503.465 -4.08028 -1.05313 0
M  V30 5432 H 502.14 -2.92925 -1.37756 0
M  V30 5433 H 501.047 -3.64885 0.825199 0
M  V30 5434 H 502.38 -4.80507 1.06649 0
M  V30 5435 N 504.032 -0.577932 -1.46621 0
M  V30 5436 C 505.448 -0.239242 -1.57797 0
M  V30 5437 C 505.648 1.25843 -1.57371 0
M  V30 5438 O 504.704 2.03988 -1.48813 0
M  V30 5439 C 506.017 -0.884227 -2.87405 0
M  V30 5440 C 507.565 -0.857373 -3.01028 0
M  V30 5441 C 508.04 -1.48181 -4.33366 0
M  V30 5442 N 509.531 -1.44593 -4.40053 0
M  V30 5443 C 510.266 -1.89852 -5.41058 0
M  V30 5444 N 509.762 -2.43062 -6.48762 0
M  V30 5445 N 511.555 -1.80797 -5.3223 0
M  V30 5446 H 503.706 -1.55073 -1.45142 0
M  V30 5447 H 505.969 -0.647903 -0.692044 0
M  V30 5448 H 505.675 -1.93759 -2.93514 0
M  V30 5449 H 505.549 -0.389585 -3.75183 0
M  V30 5450 H 507.936 0.187357 -2.94505 0
M  V30 5451 H 508.017 -1.38999 -2.14739 0
M  V30 5452 H 507.661 -2.52572 -4.40647 0
M  V30 5453 H 507.591 -0.924464 -5.18422 0
M  V30 5454 H 510.082 -1.05694 -3.62819 0
M  V30 5455 H 510.395 -2.75466 -7.22038 0
M  V30 5456 H 508.74 -2.47085 -6.49595 0
M  V30 5457 H 511.931 -1.38989 -4.46989 0
M  V30 5458 H 512.104 -2.16385 -6.10804 0
M  V30 5459 N 505.51 1.54411 -0.315457 0
M  V30 5460 C 506.759 1.99599 0.290395 0
M  V30 5461 C 507.072 1.20746 1.53882 0
M  V30 5462 O 508.278 1.56272 2.22017 0
M  V30 5463 C 506.734 3.5539 0.56797 0
M  V30 5464 C 506.342 4.43068 -0.662945 0
M  V30 5465 C 508.086 4.09067 1.13422 0
M  V30 5466 C 505.993 5.90317 -0.357722 0
M  V30 5467 H 504.923 0.745592 0.112286 0
M  V30 5468 H 507.574 1.78477 -0.426418 0
M  V30 5469 H 505.956 3.72468 1.34476 0
M  V30 5470 H 507.13 4.37765 -1.43869 0
M  V30 5471 H 505.445 4.00238 -1.14884 0
M  V30 5472 H 508.042 5.16663 1.37707 0
M  V30 5473 H 508.385 3.60552 2.08106 0
M  V30 5474 H 508.918 3.95589 0.418805 0
M  V30 5475 H 505.657 6.4301 -1.27351 0
M  V30 5476 H 505.177 5.98592 0.380472 0
M  V30 5477 H 506.856 6.4699 0.0354284 0
M  V30 5478 N 506.988 0.0434614 1.5754 0
M  V30 5479 C 507.918 -0.931651 2.14109 0
M  V30 5480 C 508.899 -1.32971 1.06079 0
M  V30 5481 O 510.084 -1.40579 1.33982 0
M  V30 5482 C 507.214 -2.20914 2.67982 0
M  V30 5483 C 506.168 -1.95139 3.80926 0
M  V30 5484 C 505.494 -3.29276 4.21285 0
M  V30 5485 C 506.794 -1.27913 5.06395 0
M  V30 5486 H 508.488 -0.460497 2.95837 0
M  V30 5487 H 506.034 -0.220058 1.42309 0
M  V30 5488 H 507.987 -2.89522 3.06194 0
M  V30 5489 H 506.711 -2.70221 1.83434 0
M  V30 5490 H 505.37 -1.28945 3.43175 0
M  V30 5491 H 505.018 -3.76369 3.33699 0
M  V30 5492 H 504.718 -3.12831 4.97404 0
M  V30 5493 H 506.242 -3.99129 4.62091 0
M  V30 5494 H 507.656 -1.86544 5.42102 0
M  V30 5495 H 506.053 -1.2182 5.87605 0
M  V30 5496 H 507.123 -0.254066 4.84234 0
M  V30 5497 N 508.466 -1.55915 -0.229846 0
M  V30 5498 C 509.694 -1.82617 -0.972562 0
M  V30 5499 C 510.109 -0.621488 -1.78278 0
M  V30 5500 O 509.466 0.409956 -1.77836 0
M  V30 5501 C 509.517 -3.0774 -1.89679 0
M  V30 5502 O 509.238 -4.23559 -1.11934 0
M  V30 5503 C 510.739 -3.47368 -2.75409 0
M  V30 5504 H 507.959 -0.60727 -0.285419 0
M  V30 5505 H 510.503 -2.02996 -0.247579 0
M  V30 5506 H 508.658 -2.89361 -2.57583 0
M  V30 5507 H 509.072 -4.94586 -1.74599 0
M  V30 5508 H 510.546 -4.37977 -3.35977 0
M  V30 5509 H 511.023 -2.68737 -3.47386 0
M  V30 5510 H 511.629 -3.68158 -2.12931 0
M  V30 5511 N 509.944 0.496216 -1.49584 0
M  V30 5512 C 510.854 1.62352 -1.69349 0
M  V30 5513 C 511.87 1.64184 -0.576147 0
M  V30 5514 O 513.046 1.82517 -0.85144 0
M  V30 5515 C 510.111 2.98698 -1.76013 0
M  V30 5516 C 509.172 3.07454 -2.99617 0
M  V30 5517 C 508.405 4.37296 -3.05953 0
M  V30 5518 O 508.628 5.2637 -2.19752 0
M  V30 5519 O 507.562 4.51124 -3.9846 0
M  V30 5520 H 511.388 1.48606 -2.64859 0
M  V30 5521 H 508.973 0.673022 -1.33382 0
M  V30 5522 H 510.855 3.79725 -1.82721 0
M  V30 5523 H 509.53 3.12696 -0.836828 0
M  V30 5524 H 508.437 2.25597 -2.98424 0
M  V30 5525 H 509.77 2.98385 -3.91443 0
M  V30 5526 N 511.423 1.38739 0.74761 0
M  V30 5527 C 512.834 1.31507 1.32524 0
M  V30 5528 C 513.185 -0.0263963 1.96182 0
M  V30 5529 O 512.31 -0.92849 1.95469 0
M  V30 5530 C 512.905 2.38162 2.40966 0
M  V30 5531 C 511.464 2.34489 2.94434 0
M  V30 5532 C 510.611 2.20712 1.67873 0
M  V30 5533 H 513.562 1.4901 0.546043 0
M  V30 5534 H 513.583 2.04222 3.21051 0
M  V30 5535 H 513.095 3.35783 1.94605 0
M  V30 5536 H 511.196 1.40467 3.45108 0
M  V30 5537 H 511.309 3.28861 3.48407 0
M  V30 5538 H 509.673 1.67667 1.91729 0
M  V30 5539 H 510.456 3.20285 1.23582 0
M  V30 5540 N 512.901 -0.976442 1.23707 0
M  V30 5541 C 513.849 -2.09078 1.01927 0
M  V30 5542 C 514.843 -1.69345 -0.0430193 0
M  V30 5543 O 516.049 -1.79659 0.110814 0
M  V30 5544 H 512.424 -0.68398 0.312531 0
M  V30 5545 H 514.395 -2.24614 1.96447 0
M  V30 5546 C 513.144 -3.41919 0.631385 0
M  V30 5547 H 512.467 -3.72946 1.44053 0
M  V30 5548 H 513.907 -4.20817 0.518532 0
M  V30 5549 C 512.366 -3.30357 -0.660723 0
M  V30 5550 O 512.896 -3.63542 -1.70881 0
M  V30 5551 N 511.102 -2.83507 -0.638139 0
M  V30 5552 H 510.649 -2.567 0.215108 0
M  V30 5553 H 510.607 -2.76153 -1.50289 0
M  V30 5554 N 514.379 -1.04941 -1.1758 0
M  V30 5555 C 515.342 -0.652456 -2.19717 0
M  V30 5556 C 516.342 0.294745 -1.58076 0
M  V30 5557 O 517.532 0.0789579 -1.74021 0
M  V30 5558 C 514.664 0.0420712 -3.40874 0
M  V30 5559 H 515.857 -1.55642 -2.5635 0
M  V30 5560 H 513.41 -0.842995 -1.31618 0
M  V30 5561 H 514.145 0.95943 -3.09783 0
M  V30 5562 H 513.93 -0.638844 -3.86861 0
M  V30 5563 H 515.42 0.306 -4.16477 0
M  V30 5564 N 515.857 1.33968 -0.830081 0
M  V30 5565 C 517.082 2.02813 -0.433796 0
M  V30 5566 C 517.507 1.62076 0.954614 0
M  V30 5567 O 516.865 0.808955 1.62252 0
M  V30 5568 C 516.913 3.56348 -0.552115 0
M  V30 5569 O 516.017 4.10202 0.425191 0
M  V30 5570 H 515.358 0.639817 -0.177567 0
M  V30 5571 H 517.888 1.7106 -1.12248 0
M  V30 5572 H 517.898 4.05722 -0.430513 0
M  V30 5573 H 516.573 3.85344 -1.56471 0
M  V30 5574 H 515.15 3.71979 0.261878 0
M  V30 5575 N 517.335 0.585699 1.46312 0
M  V30 5576 C 518.584 0.0701192 2.01578 0
M  V30 5577 C 518.897 -1.29889 1.46247 0
M  V30 5578 O 520.103 -1.90598 1.93351 0
M  V30 5579 C 518.559 0.0747499 3.59822 0
M  V30 5580 C 518.167 1.44226 4.24149 0
M  V30 5581 C 519.911 -0.38673 4.22735 0
M  V30 5582 C 517.818 1.40446 5.74481 0
M  V30 5583 H 516.748 0.0224441 0.753666 0
M  V30 5584 H 519.399 0.737789 1.68015 0
M  V30 5585 H 517.781 -0.659144 3.90476 0
M  V30 5586 H 518.955 2.19612 4.05101 0
M  V30 5587 H 517.27 1.84401 3.73343 0
M  V30 5588 H 519.867 -0.433853 5.32937 0
M  V30 5589 H 520.21 -1.40489 3.91878 0
M  V30 5590 H 520.743 0.293195 3.96718 0
M  V30 5591 H 517.482 2.39952 6.10003 0
M  V30 5592 H 517.002 0.692845 5.95785 0
M  V30 5593 H 518.681 1.11865 6.37256 0
M  V30 5594 N 518.813 -1.54241 0.323641 0
M  V30 5595 C 520.041 -2.04985 -0.280871 0
M  V30 5596 C 520.456 -1.19978 -1.45777 0
M  V30 5597 O 519.813 -0.230471 -1.81039 0
M  V30 5598 C 519.864 -3.54353 -0.715258 0
M  V30 5599 O 519.585 -4.36132 0.414817 0
M  V30 5600 C 521.086 -4.21189 -1.38257 0
M  V30 5601 H 518.306 -0.66851 -0.0577502 0
M  V30 5602 H 520.85 -1.99029 0.469852 0
M  V30 5603 H 519.005 -3.60596 -1.41596 0
M  V30 5604 H 519.419 -5.2445 0.0725227 0
M  V30 5605 H 520.893 -5.27154 -1.63745 0
M  V30 5606 H 521.37 -3.72307 -2.32989 0
M  V30 5607 H 521.976 -4.19085 -0.724447 0
M  V30 5608 N 520.291 -0.0518155 -1.57515 0
M  V30 5609 C 521.537 0.622745 -1.93002 0
M  V30 5610 C 521.87 1.70456 -0.930499 0
M  V30 5611 O 521.145 1.94452 0.0434086 0
M  V30 5612 C 521.428 1.21824 -3.38867 0
M  V30 5613 C 521.281 0.144434 -4.49568 0
M  V30 5614 C 522.6 2.12968 -3.8514 0
M  V30 5615 H 519.719 0.22491 -0.701844 0
M  V30 5616 H 522.361 -0.113711 -1.89659 0
M  V30 5617 H 520.511 1.8459 -3.41846 0
M  V30 5618 H 522.183 -0.48753 -4.58717 0
M  V30 5619 H 520.426 -0.527424 -4.30582 0
M  V30 5620 H 521.097 0.601127 -5.48717 0
M  V30 5621 H 523.573 1.60163 -3.8404 0
M  V30 5622 H 522.449 2.51578 -4.87852 0
M  V30 5623 H 522.71 3.03004 -3.21934 0
M  V30 5624 N 521.769 1.56035 0.221574 0
M  V30 5625 C 522.701 1.889 1.29805 0
M  V30 5626 C 523.714 0.777269 1.43047 0
M  V30 5627 O 524.903 1.05557 1.43945 0
M  V30 5628 C 522.003 2.0825 2.67367 0
M  V30 5629 C 521.176 3.39267 2.76073 0
M  V30 5630 C 520.235 3.48049 3.94649 0
M  V30 5631 O 519.261 4.2108 3.82988 0
M  V30 5632 N 520.463 2.79191 5.08953 0
M  V30 5633 H 523.228 2.81831 1.01938 0
M  V30 5634 H 520.789 1.5658 0.411612 0
M  V30 5635 H 522.781 2.11441 3.45072 0
M  V30 5636 H 521.351 1.21944 2.87834 0
M  V30 5637 H 520.571 3.48175 1.84846 0
M  V30 5638 H 521.859 4.25575 2.7886 0
M  V30 5639 H 521.257 2.19635 5.21322 0
M  V30 5640 H 519.814 2.88043 5.84701 0
M  V30 5641 N 523.247 -0.488276 1.49845 0
M  V30 5642 C 524.477 -1.26344 1.63465 0
M  V30 5643 C 524.885 -1.86637 0.310379 0
M  V30 5644 O 524.228 -1.69184 -0.715712 0
M  V30 5645 C 524.29 -2.42407 2.65479 0
M  V30 5646 C 523.954 -2.02886 4.09495 0
M  V30 5647 C 524.951 -1.56124 4.95904 0
M  V30 5648 C 522.636 -2.12131 4.55308 0
M  V30 5649 C 524.63 -1.19129 6.26169 0
M  V30 5650 C 522.317 -1.74747 5.85582 0
M  V30 5651 C 523.315 -1.28322 6.70837 0
M  V30 5652 O 523.003 -0.914491 7.98682 0
M  V30 5653 H 522.735 -0.388921 0.552916 0
M  V30 5654 H 525.289 -0.591288 1.96705 0
M  V30 5655 H 523.519 -3.12739 2.27445 0
M  V30 5656 H 525.208 -3.04409 2.68495 0
M  V30 5657 H 525.974 -1.48417 4.61733 0
M  V30 5658 H 521.853 -2.47217 3.89107 0
M  V30 5659 H 525.397 -0.828211 6.92666 0
M  V30 5660 H 521.294 -1.82109 6.19279 0
M  V30 5661 H 522.062 -1.04485 8.11804 0
M  V30 5662 N 524.725 -1.39134 -0.740242 0
M  V30 5663 C 525.672 -1.37434 -1.8542 0
M  V30 5664 C 526.642 -0.234822 -1.64432 0
M  V30 5665 O 527.827 -0.429125 -1.85912 0
M  V30 5666 C 524.967 -1.21844 -3.22875 0
M  V30 5667 C 524.08 -2.45296 -3.55603 0
M  V30 5668 C 523.215 -2.22334 -4.82432 0
M  V30 5669 C 522.254 -3.41488 -5.07988 0
M  V30 5670 N 521.391 -3.17877 -6.26018 0
M  V30 5671 H 526.231 -2.3266 -1.86207 0
M  V30 5672 H 523.768 -1.15578 -0.909946 0
M  V30 5673 H 525.726 -1.10818 -4.02213 0
M  V30 5674 H 524.356 -0.3025 -3.21379 0
M  V30 5675 H 523.408 -2.66945 -2.71006 0
M  V30 5676 H 524.72 -3.34063 -3.7041 0
M  V30 5677 H 523.874 -2.0852 -5.69741 0
M  V30 5678 H 522.613 -1.30954 -4.6979 0
M  V30 5679 H 521.618 -3.55807 -4.19144 0
M  V30 5680 H 522.843 -4.33763 -5.22519 0
M  V30 5681 H 520.789 -2.29156 -6.14673 0
M  V30 5682 H 520.706 -4.00198 -6.41387 0
M  V30 5683 H 521.974 -3.07746 -7.16179 0
M  V30 5684 N 526.204 0.969867 -1.24223 0
M  V30 5685 C 527.167 2.04564 -1.03373 0
M  V30 5686 C 528.167 1.60798 0.00819206 0
M  V30 5687 O 529.357 1.72641 -0.232567 0
M  V30 5688 C 526.489 3.36163 -0.566343 0
M  V30 5689 H 527.682 2.24494 -1.98853 0
M  V30 5690 H 525.235 1.1448 -1.06415 0
M  V30 5691 H 525.97 3.21925 0.391751 0
M  V30 5692 H 525.755 3.69273 -1.31834 0
M  V30 5693 H 527.245 4.1526 -0.441435 0
M  V30 5694 N 527.682 1.05563 1.17022 0
M  V30 5695 C 528.612 0.681026 2.23348 0
M  V30 5696 C 529.593 -0.322983 1.67005 0
M  V30 5697 O 530.778 -0.199746 1.9317 0
M  V30 5698 C 527.908 0.0589053 3.4725 0
M  V30 5699 C 526.862 0.988082 4.16438 0
M  V30 5700 C 526.188 0.229646 5.34207 0
M  V30 5701 C 527.488 2.31388 4.68249 0
M  V30 5702 H 529.182 1.56993 2.54938 0
M  V30 5703 H 526.728 0.756302 1.2254 0
M  V30 5704 H 528.681 -0.214982 4.20851 0
M  V30 5705 H 527.405 -0.864968 3.14938 0
M  V30 5706 H 526.064 1.24659 3.44754 0
M  V30 5707 H 525.712 -0.697111 4.98146 0
M  V30 5708 H 525.412 0.848815 5.81437 0
M  V30 5709 H 526.936 -0.0368694 6.10589 0
M  V30 5710 H 528.35 2.09964 5.33468 0
M  V30 5711 H 526.747 2.88736 5.26072 0
M  V30 5712 H 527.817 2.94982 3.84855 0
M  V30 5713 N 529.16 -1.33526 0.837174 0
M  V30 5714 C 530.093 -2.27192 0.214233 0
M  V30 5715 C 531.071 -1.49575 -0.637657 0
M  V30 5716 O 532.255 -1.78753 -0.598291 0
M  V30 5717 C 529.382 -3.31401 -0.699367 0
M  V30 5718 C 528.428 -4.26431 0.0768429 0
M  V30 5719 S 529.261 -5.15954 1.4336 0
M  V30 5720 C 530.417 -6.23692 0.525251 0
M  V30 5721 H 530.65 -2.79679 1.00831 0
M  V30 5722 H 528.183 -1.4079 0.633834 0
M  V30 5723 H 530.141 -3.91924 -1.22088 0
M  V30 5724 H 528.802 -2.77732 -1.46709 0
M  V30 5725 H 527.995 -5.00193 -0.618268 0
M  V30 5726 H 527.597 -3.70235 0.529364 0
M  V30 5727 H 529.889 -6.76931 -0.277575 0
M  V30 5728 H 530.832 -6.97283 1.23299 0
M  V30 5729 H 531.24 -5.64398 0.107351 0
M  V30 5730 N 530.638 -0.59345 -1.46 0
M  V30 5731 C 531.601 0.123538 -2.28867 0
M  V30 5732 C 532.601 0.808628 -1.38989 0
M  V30 5733 O 533.791 0.658945 -1.61256 0
M  V30 5734 C 530.923 1.1847 -3.19653 0
M  V30 5735 H 532.116 -0.604843 -2.93737 0
M  V30 5736 H 529.669 -0.351875 -1.52288 0
M  V30 5737 H 530.404 1.94431 -2.59552 0
M  V30 5738 H 530.189 0.69783 -3.8584 0
M  V30 5739 H 531.679 1.68726 -3.81997 0
M  V30 5740 N 532.116 1.54067 -0.331816 0
M  V30 5741 C 533.344 2.05131 0.269996 0
M  V30 5742 C 533.759 1.20749 1.45138 0
M  V30 5743 O 533.116 0.240069 1.80914 0
M  V30 5744 C 533.167 3.54728 0.696456 0
M  V30 5745 O 532.888 4.35906 -0.43794 0
M  V30 5746 C 534.389 4.21916 1.36021 0
M  V30 5747 H 531.609 0.668807 0.0542042 0
M  V30 5748 H 534.153 1.98777 -0.4804 0
M  V30 5749 H 532.308 3.61342 1.39681 0
M  V30 5750 H 532.722 5.24404 -0.100334 0
M  V30 5751 H 534.196 5.28015 1.60947 0
M  V30 5752 H 534.673 3.73538 2.31011 0
M  V30 5753 H 535.279 4.19463 0.702212 0
M  V30 5754 N 533.594 0.0601682 1.57485 0
M  V30 5755 C 534.504 -0.926121 2.15546 0
M  V30 5756 C 535.52 -1.33532 1.11558 0
M  V30 5757 O 536.696 -1.4104 1.4377 0
M  V30 5758 C 533.761 -2.17952 2.69625 0
M  V30 5759 C 532.822 -1.82783 3.88444 0
M  V30 5760 C 532.055 -3.02148 4.39935 0
M  V30 5761 O 532.278 -4.15803 3.90466 0
M  V30 5762 O 531.212 -2.82639 5.31412 0
M  V30 5763 H 535.038 -0.462289 3.00161 0
M  V30 5764 H 532.623 -0.162246 1.48516 0
M  V30 5765 H 534.505 -2.91474 3.04337 0
M  V30 5766 H 533.18 -2.63456 1.88077 0
M  V30 5767 H 532.087 -1.06549 3.58606 0
M  V30 5768 H 533.42 -1.42072 4.7125 0
M  V30 5769 N 535.072 -1.5615 -0.213296 0
M  V30 5770 C 536.32 -1.79191 -0.934612 0
M  V30 5771 C 536.641 -0.630112 -1.84539 0
M  V30 5772 O 535.911 0.35257 -1.92701 0
M  V30 5773 H 534.491 -0.660937 -0.348097 0
M  V30 5774 H 537.153 -1.93618 -0.22317 0
M  V30 5775 H 536.249 -2.71656 -1.53654 0
M  V30 5776 N 536.55 0.480323 -1.50102 0
M  V30 5777 C 537.796 1.23489 -1.60867 0
M  V30 5778 C 538.129 1.91809 -0.303827 0
M  V30 5779 O 537.404 1.81694 0.694092 0
M  V30 5780 C 537.687 2.28578 -2.78252 0
M  V30 5781 C 537.54 1.64624 -4.18592 0
M  V30 5782 C 538.859 3.2997 -2.91218 0
M  V30 5783 H 535.978 0.447605 -0.585507 0
M  V30 5784 H 538.62 0.530005 -1.82458 0
M  V30 5785 H 536.77 2.88697 -2.59974 0
M  V30 5786 H 538.442 1.08173 -4.48438 0
M  V30 5787 H 536.685 0.949645 -4.23278 0
M  V30 5788 H 537.356 2.40946 -4.96638 0
M  V30 5789 H 539.832 2.79864 -3.07921 0
M  V30 5790 H 538.708 4.00839 -3.74993 0
M  V30 5791 H 538.969 3.93541 -2.0144 0
M  V30 5792 N 538.028 1.39524 0.732853 0
M  V30 5793 C 538.976 1.38563 1.86824 0
M  V30 5794 C 539.97 0.268467 1.67259 0
M  V30 5795 O 541.176 0.438613 1.74574 0
M  V30 5796 H 537.551 0.432737 0.615014 0
M  V30 5797 H 539.522 2.34328 1.84751 0
M  V30 5798 C 538.271 1.2481 3.24527 0
M  V30 5799 H 537.594 2.10044 3.40179 0
M  V30 5800 H 539.034 1.28194 4.04156 0
M  V30 5801 C 537.493 -0.0432825 3.36872 0
M  V30 5802 O 538.023 -1.01268 3.88726 0
M  V30 5803 N 536.229 -0.107055 2.90403 0
M  V30 5804 H 535.776 0.682512 2.48394 0
M  V30 5805 H 535.734 -0.970618 2.99042 0
M  V30 5806 N 539.506 -0.963266 1.24736 0
M  V30 5807 C 540.755 -1.70115 1.08369 0
M  V30 5808 C 541.068 -1.91939 -0.376688 0
M  V30 5809 O 542.274 -2.6334 -0.660624 0
M  V30 5810 C 540.73 -3.06218 1.89099 0
M  V30 5811 C 540.338 -2.92221 3.39574 0
M  V30 5812 C 542.082 -3.83848 1.81275 0
M  V30 5813 C 539.989 -4.23662 4.12631 0
M  V30 5814 H 538.919 -0.637944 0.401924 0
M  V30 5815 H 541.57 -1.07304 1.48856 0
M  V30 5816 H 539.952 -3.69884 1.41429 0
M  V30 5817 H 541.126 -2.37541 3.94856 0
M  V30 5818 H 539.441 -2.28054 3.48397 0
M  V30 5819 H 542.038 -4.81188 2.33158 0
M  V30 5820 H 542.381 -4.08949 0.778895 0
M  V30 5821 H 542.914 -3.26918 2.26649 0
M  V30 5822 H 539.653 -4.03753 5.16395 0
M  V30 5823 H 539.173 -4.78141 3.62135 0
M  V30 5824 H 540.852 -4.92256 4.19873 0
M  V30 5825 N 540.985 -1.06182 -1.16461 0
M  V30 5826 C 541.895 -0.682671 -2.24448 0
M  V30 5827 C 542.911 0.30078 -1.71381 0
M  V30 5828 O 544.087 0.150376 -2.00838 0
M  V30 5829 C 541.152 -0.0737202 -3.46622 0
M  V30 5830 C 540.213 -1.10889 -4.14731 0
M  V30 5831 C 539.446 -0.528908 -5.31073 0
M  V30 5832 O 539.669 0.65868 -5.66584 0
M  V30 5833 O 538.603 -1.26805 -5.88391 0
M  V30 5834 H 542.429 -1.58291 -2.59187 0
M  V30 5835 H 540.014 -0.834013 -1.23954 0
M  V30 5836 H 541.896 0.264192 -4.20571 0
M  V30 5837 H 540.571 0.800015 -3.13658 0
M  V30 5838 H 539.478 -1.49896 -3.42756 0
M  V30 5839 H 540.811 -1.95412 -4.51747 0
M  V30 5840 N 542.463 1.3308 -0.844243 0
M  V30 5841 C 543.71 1.97605 -0.44255 0
M  V30 5842 C 544.038 1.66856 0.999458 0
M  V30 5843 O 543.293 0.943586 1.7145 0
M  V30 5844 C 543.592 3.52045 -0.616354 0
M  V30 5845 C 543.258 4.02757 -2.02726 0
M  V30 5846 C 541.92 4.16316 -2.41317 0
M  V30 5847 C 544.272 4.29776 -2.9486 0
M  V30 5848 C 541.6 4.54232 -3.71335 0
M  V30 5849 C 543.952 4.69146 -4.24364 0
M  V30 5850 C 542.616 4.80911 -4.62904 0
M  V30 5851 H 541.886 0.723088 -0.161941 0
M  V30 5852 H 544.533 1.58663 -1.0723 0
M  V30 5853 H 542.838 3.91681 0.0966812 0
M  V30 5854 H 544.535 3.99981 -0.285756 0
M  V30 5855 H 541.125 3.9268 -1.71756 0
M  V30 5856 H 545.309 4.18818 -2.6628 0
M  V30 5857 H 540.565 4.61535 -4.00993 0
M  V30 5858 H 544.739 4.89008 -4.95827 0
M  V30 5859 H 542.366 5.10048 -5.63698 0
M  V30 5860 N 543.941 0.601185 1.45683 0
M  V30 5861 C 545.169 0.100054 2.06658 0
M  V30 5862 C 545.584 -1.21285 1.44691 0
M  V30 5863 O 544.941 -1.73735 0.558772 0
M  V30 5864 C 544.992 -0.0528579 3.61461 0
M  V30 5865 O 544.713 1.20809 4.21114 0
M  V30 5866 C 546.214 -0.586193 4.39407 0
M  V30 5867 H 543.434 0.065905 0.667756 0
M  V30 5868 H 545.978 0.827101 1.87028 0
M  V30 5869 H 544.133 -0.730203 3.80456 0
M  V30 5870 H 544.547 1.03368 5.14213 0
M  V30 5871 H 546.021 -0.642297 5.4825 0
M  V30 5872 H 546.498 -1.60713 4.0874 0
M  V30 5873 H 547.104 0.0568935 4.25262 0
M  V30 5874 N 545.419 -1.53889 0.339982 0
M  V30 5875 C 546.696 -1.93084 -0.312719 0
M  V30 5876 C 547.076 -1.2712 -1.68534 0
M  V30 5877 O 546.424 -0.420835 -2.24591 0
M  V30 5878 C 546.634 -3.4683 -0.388558 0
M  V30 5879 C 547.982 -4.19732 -0.641088 0
M  V30 5880 O 549.006 -3.53075 -0.470818 0
M  V30 5881 O 547.865 -5.3781 -0.970685 0
M  V30 5882 H 544.959 -0.806784 -0.18174 0
M  V30 5883 H 547.505 -1.65137 0.390898 0
M  V30 5884 H 546.277 -3.87055 0.574821 0
M  V30 5885 H 545.9 -3.80933 -1.1391 0
M  V30 5886 N 546.897 -0.0685191 -1.57451 0
M  V30 5887 C 548.122 0.613919 -1.98106 0
M  V30 5888 C 548.547 1.62551 -0.946501 0
M  V30 5889 O 547.905 1.81085 0.0882824 0
M  V30 5890 C 547.953 1.26189 -3.378 0
M  V30 5891 O 547.057 2.37773 -3.36954 0
M  V30 5892 H 546.398 0.158163 -0.644888 0
M  V30 5893 H 548.928 -0.142063 -2.04106 0
M  V30 5894 H 548.938 1.60951 -3.74912 0
M  V30 5895 H 547.613 0.520625 -4.12629 0
M  V30 5896 H 546.19 2.04829 -3.11608 0
M  V30 5897 N 548.375 1.56261 0.205012 0
M  V30 5898 C 549.623 1.79684 0.925096 0
M  V30 5899 C 549.944 0.63989 1.84202 0
M  V30 5900 O 549.214 -0.342345 1.92885 0
M  V30 5901 H 547.794 0.662774 0.344587 0
M  V30 5902 H 550.456 1.93734 0.212899 0
M  V30 5903 H 549.552 2.72467 1.52211 0
M  V30 5904 N 549.853 -0.472356 1.50355 0
M  V30 5905 C 551.102 -1.2213 1.60522 0
M  V30 5906 C 551.415 -1.9312 0.310466 0
M  V30 5907 O 552.621 -2.69936 0.291029 0
M  V30 5908 C 551.077 -2.21909 2.83345 0
M  V30 5909 C 550.685 -1.56727 4.19691 0
M  V30 5910 C 552.429 -2.97453 3.02856 0
M  V30 5911 C 550.336 -2.54785 5.33703 0
M  V30 5912 H 549.266 -0.459543 0.597776 0
M  V30 5913 H 551.917 -0.491922 1.76783 0
M  V30 5914 H 550.299 -2.98133 2.60639 0
M  V30 5915 H 551.473 -0.863007 4.52646 0
M  V30 5916 H 549.788 -0.934685 4.05774 0
M  V30 5917 H 552.385 -3.70838 3.85205 0
M  V30 5918 H 552.728 -3.56764 2.14534 0
M  V30 5919 H 553.261 -2.28342 3.25737 0
M  V30 5920 H 550 -2.00214 6.24175 0
M  V30 5921 H 549.52 -3.23367 5.05167 0
M  V30 5922 H 551.199 -3.16639 5.64224 0
M  V30 5923 N 551.331 -1.39911 -0.725443 0
M  V30 5924 C 552.278 -1.39393 -1.83952 0
M  V30 5925 C 553.248 -0.252249 -1.64173 0
M  V30 5926 O 554.433 -0.44882 -1.85446 0
M  V30 5927 C 551.573 -1.25262 -3.21564 0
M  V30 5928 C 550.686 -2.49054 -3.52982 0
M  V30 5929 C 549.821 -2.27439 -4.80047 0
M  V30 5930 C 548.86 -3.46857 -5.04338 0
M  V30 5931 N 547.997 -3.24499 -6.22611 0
M  V30 5932 H 552.837 -2.34622 -1.83729 0
M  V30 5933 H 550.374 -1.16537 -0.897636 0
M  V30 5934 H 552.332 -1.15077 -4.01015 0
M  V30 5935 H 550.962 -0.33657 -3.21041 0
M  V30 5936 H 550.014 -2.69805 -2.6816 0
M  V30 5937 H 551.326 -3.37973 -3.66846 0
M  V30 5938 H 550.48 -2.14551 -5.67497 0
M  V30 5939 H 549.219 -1.35929 -4.68374 0
M  V30 5940 H 548.224 -3.60232 -4.15346 0
M  V30 5941 H 549.449 -4.3928 -5.17889 0
M  V30 5942 H 547.395 -2.35663 -6.12208 0
M  V30 5943 H 547.312 -4.06978 -6.37106 0
M  V30 5944 H 548.58 -3.15325 -7.12875 0
M  V30 5945 N 552.809 0.956637 -1.25245 0
M  V30 5946 C 554.225 1.22733 -1.02023 0
M  V30 5947 C 554.425 1.99761 0.264186 0
M  V30 5948 O 553.481 2.32814 0.977436 0
M  V30 5949 C 554.794 2.00367 -2.24217 0
M  V30 5950 C 556.342 2.13418 -2.28958 0
M  V30 5951 C 556.817 2.9445 -3.50803 0
M  V30 5952 N 558.308 3.02029 -3.51187 0
M  V30 5953 C 559.043 3.65116 -4.42129 0
M  V30 5954 N 558.539 4.2983 -5.43339 0
M  V30 5955 N 560.332 3.62237 -4.29815 0
M  V30 5956 H 552.483 0.441282 -2.07765 0
M  V30 5957 H 554.746 0.257686 -0.912306 0
M  V30 5958 H 554.452 1.51165 -3.17556 0
M  V30 5959 H 554.326 3.01077 -2.27228 0
M  V30 5960 H 556.713 2.61819 -1.36143 0
M  V30 5961 H 556.794 1.1202 -2.29968 0
M  V30 5962 H 556.438 2.46741 -4.43939 0
M  V30 5963 H 556.368 3.9607 -3.47039 0
M  V30 5964 H 558.859 2.56007 -2.77973 0
M  V30 5965 H 559.172 4.75819 -6.08947 0
M  V30 5966 H 557.517 4.28465 -5.47214 0
M  V30 5967 H 560.708 3.10863 -3.49974 0
M  V30 5968 H 560.881 4.11117 -5.00886 0
M  V30 5969 N 554.287 1.06798 1.15896 0
M  V30 5970 C 555.536 0.782796 1.8589 0
M  V30 5971 C 555.849 -0.693498 1.82893 0
M  V30 5972 O 557.055 -1.09325 2.48516 0
M  V30 5973 C 555.511 1.3502 3.33613 0
M  V30 5974 C 555.119 2.8571 3.45071 0
M  V30 5975 C 556.863 1.14278 4.08829 0
M  V30 5976 C 554.77 3.35669 4.86909 0
M  V30 5977 H 553.7 0.289149 0.696354 0
M  V30 5978 H 556.351 1.28734 1.30766 0
M  V30 5979 H 554.733 0.773407 3.88374 0
M  V30 5980 H 555.907 3.49385 3.00445 0
M  V30 5981 H 554.222 3.05178 2.83294 0
M  V30 5982 H 556.819 1.49087 5.13495 0
M  V30 5983 H 557.162 0.0814575 4.1622 0
M  V30 5984 H 557.695 1.68563 3.60321 0
M  V30 5985 H 554.434 4.41302 4.84698 0
M  V30 5986 H 553.954 2.76745 5.32139 0
M  V30 5987 H 555.633 3.31296 5.55745 0
M  V30 5988 N 555.766 -1.3263 0.851289 0
M  V30 5989 C 556.729 -2.27247 0.298541 0
M  V30 5990 C 557.729 -1.51467 -0.539847 0
M  V30 5991 O 558.919 -1.7061 -0.351843 0
M  V30 5992 C 556.051 -3.35964 -0.578004 0
M  V30 5993 H 557.244 -2.7765 1.13359 0
M  V30 5994 H 554.797 -1.43245 0.625354 0
M  V30 5995 H 555.532 -2.90823 -1.435 0
M  V30 5996 H 555.317 -3.92094 0.0220539 0
M  V30 5997 H 556.807 -4.06472 -0.957626 0
M  V30 5998 N 557.244 -0.608902 -1.45362 0
M  V30 5999 C 558.154 0.110969 -2.34337 0
M  V30 6000 C 559.17 0.859007 -1.51318 0
M  V30 6001 O 560.346 0.816296 -1.84116 0
M  V30 6002 C 557.411 1.09494 -3.28956 0
M  V30 6003 C 556.472 0.348718 -4.27881 0
M  V30 6004 C 555.705 1.28582 -5.17979 0
M  V30 6005 O 555.928 2.52369 -5.11533 0
M  V30 6006 O 554.862 0.782172 -5.96796 0
M  V30 6007 H 558.688 -0.620258 -2.97299 0
M  V30 6008 H 556.273 -0.36916 -1.44767 0
M  V30 6009 H 558.155 1.66163 -3.87257 0
M  V30 6010 H 556.83 1.80717 -2.68557 0
M  V30 6011 H 555.737 -0.260465 -3.73192 0
M  V30 6012 H 557.07 -0.323049 -4.91139 0
M  V30 6013 N 558.722 1.53707 -0.348139 0
M  V30 6014 C 559.685 2.23812 0.494058 0
M  V30 6015 C 560.685 1.23989 1.02388 0
M  V30 6016 O 561.875 1.48395 0.912396 0
M  V30 6017 C 559.007 2.96133 1.68872 0
M  V30 6018 H 560.2 2.99663 -0.119141 0
M  V30 6019 H 557.753 1.55983 -0.0995539 0
M  V30 6020 H 558.488 2.24481 2.34049 0
M  V30 6021 H 558.273 3.69357 1.31596 0
M  V30 6022 H 559.763 3.49475 2.28597 0
M  V30 6023 N 560.2 0.0768682 1.57412 0
M  V30 6024 C 561.163 -0.873949 2.11884 0
M  V30 6025 C 562.163 -1.22301 1.04398 0
M  V30 6026 O 563.353 -1.15545 1.30365 0
M  V30 6027 C 560.485 -2.17575 2.62438 0
M  V30 6028 H 561.678 -0.401278 2.97203 0
M  V30 6029 H 559.231 -0.171904 1.55352 0
M  V30 6030 H 559.966 -2.69368 1.80587 0
M  V30 6031 H 559.751 -1.93534 3.41009 0
M  V30 6032 H 561.241 -2.85631 3.04639 0
M  V30 6033 N 561.678 -1.56367 -0.196722 0
M  V30 6034 C 562.924 -1.81698 -0.914182 0
M  V30 6035 C 563.279 -0.65367 -1.80956 0
M  V30 6036 O 562.572 0.351224 -1.88353 0
M  V30 6037 C 562.766 -3.10663 -1.767 0
M  V30 6038 C 562.595 -4.39428 -0.955689 0
M  V30 6039 C 561.365 -5.01221 -0.64076 0
M  V30 6040 C 563.563 -5.1337 -0.309165 0
M  V30 6041 N 561.545 -6.13608 0.189358 0
M  V30 6042 C 562.916 -6.18815 0.383225 0
M  V30 6043 C 564.971 -4.97393 -0.224726 0
M  V30 6044 C 563.674 -7.10015 1.15201 0
M  V30 6045 C 565.7 -5.89014 0.530658 0
M  V30 6046 C 565.062 -6.93903 1.2115 0
M  V30 6047 H 561.161 -0.716203 -0.31397 0
M  V30 6048 H 563.745 -1.93838 -0.18304 0
M  V30 6049 H 561.916 -2.99762 -2.46976 0
M  V30 6050 H 563.648 -3.24088 -2.42382 0
M  V30 6051 H 560.403 -4.63669 -0.96479 0
M  V30 6052 H 560.827 -6.74389 0.593979 0
M  V30 6053 H 565.469 -4.16331 -0.736754 0
M  V30 6054 H 563.187 -7.9054 1.67547 0
M  V30 6055 H 566.773 -5.78726 0.597326 0
M  V30 6056 H 565.653 -7.63576 1.78665 0
M  V30 6057 N 563.156 0.464375 -1.50603 0
M  V30 6058 C 564.088 1.57916 -1.66118 0
M  V30 6059 C 565.101 1.53497 -0.54246 0
M  V30 6060 O 566.29 1.58763 -0.815877 0
M  V30 6061 C 563.39 2.96809 -1.63577 0
M  V30 6062 C 562.563 3.26026 -2.91592 0
M  V30 6063 C 561.622 4.44506 -2.81604 0
M  V30 6064 O 560.648 4.44484 -3.55559 0
M  V30 6065 N 561.85 5.46549 -1.95614 0
M  V30 6066 H 564.615 1.45022 -2.62276 0
M  V30 6067 H 562.176 0.652903 -1.48151 0
M  V30 6068 H 564.168 3.74048 -1.54499 0
M  V30 6069 H 562.738 3.03438 -0.751262 0
M  V30 6070 H 561.958 2.37337 -3.14746 0
M  V30 6071 H 563.246 3.42361 -3.76386 0
M  V30 6072 H 562.644 5.49391 -1.34854 0
M  V30 6073 H 561.201 6.22746 -1.92435 0
M  V30 6074 N 564.634 1.40294 0.718013 0
M  V30 6075 C 565.88 1.38645 1.48005 0
M  V30 6076 C 566.213 -0.0121202 1.94196 0
M  V30 6077 O 565.488 -0.980309 1.67989 0
M  V30 6078 C 565.771 2.37379 2.70782 0
M  V30 6079 C 565.624 3.8625 2.30501 0
M  V30 6080 C 566.943 2.33685 3.72933 0
M  V30 6081 H 564.062 0.504928 0.536858 0
M  V30 6082 H 566.704 1.71411 0.819649 0
M  V30 6083 H 564.854 2.09568 3.27129 0
M  V30 6084 H 566.526 4.24879 1.79655 0
M  V30 6085 H 564.769 4.02202 1.6253 0
M  V30 6086 H 565.44 4.50847 3.18498 0
M  V30 6087 H 567.916 2.58314 3.2621 0
M  V30 6088 H 566.792 3.0482 4.56482 0
M  V30 6089 H 567.053 1.34765 4.21059 0
M  V30 6090 N 566.112 -0.949982 1.2575 0
M  V30 6091 C 567.06 -2.06869 1.06339 0
M  V30 6092 C 568.054 -1.69399 -0.00708901 0
M  V30 6093 O 569.26 -1.79383 0.148897 0
M  V30 6094 H 565.635 -0.677197 0.326969 0
M  V30 6095 H 567.606 -2.20396 2.01167 0
M  V30 6096 C 566.355 -3.40503 0.703769 0
M  V30 6097 H 565.678 -3.69807 1.51931 0
M  V30 6098 H 567.118 -4.19623 0.607677 0
M  V30 6099 C 565.577 -3.31685 -0.5905 0
M  V30 6100 O 566.107 -3.67085 -1.63131 0
M  V30 6101 N 564.313 -2.84797 -0.577859 0
M  V30 6102 H 563.86 -2.56186 0.26951 0
M  V30 6103 H 563.818 -2.79279 -1.44398 0
M  V30 6104 N 567.59 -1.07411 -1.15328 0
M  V30 6105 C 568.5 -0.706438 -2.23711 0
M  V30 6106 C 569.516 0.282586 -1.7169 0
M  V30 6107 O 570.692 0.129066 -2.00986 0
M  V30 6108 C 567.757 -0.11048 -3.46524 0
M  V30 6109 C 566.818 -1.15282 -4.13532 0
M  V30 6110 C 566.051 -0.585205 -5.30482 0
M  V30 6111 O 566.274 0.598549 -5.67251 0
M  V30 6112 O 565.208 -1.33039 -5.87013 0
M  V30 6113 H 569.034 -1.61031 -2.57493 0
M  V30 6114 H 566.619 -0.847113 -1.23062 0
M  V30 6115 H 568.501 0.21957 -4.20828 0
M  V30 6116 H 567.176 0.766703 -3.14489 0
M  V30 6117 H 566.083 -1.53523 -3.41147 0
M  V30 6118 H 567.416 -2.00192 -4.49649 0
M  V30 6119 N 569.068 1.32177 -0.85831 0
M  V30 6120 C 570.293 2.01847 -0.476718 0
M  V30 6121 C 570.718 1.64065 0.920021 0
M  V30 6122 O 570.076 0.843189 1.60499 0
M  V30 6123 C 570.124 3.55097 -0.627578 0
M  V30 6124 O 569.228 4.11012 0.338086 0
M  V30 6125 H 568.569 0.635907 -0.191099 0
M  V30 6126 H 571.099 1.68641 -1.15851 0
M  V30 6127 H 571.109 4.04718 -0.516476 0
M  V30 6128 H 569.784 3.81938 -1.64609 0
M  V30 6129 H 568.361 3.72451 0.182917 0
M  V30 6130 N 570.547 0.616602 1.45037 0
M  V30 6131 C 571.775 0.121968 2.0654 0
M  V30 6132 C 572.19 -1.19743 1.45969 0
M  V30 6133 O 571.547 -1.73133 0.577168 0
M  V30 6134 C 571.598 -0.0145171 3.61497 0
M  V30 6135 O 571.319 1.25269 4.19809 0
M  V30 6136 C 572.82 -0.539555 4.40004 0
M  V30 6137 H 570.04 0.0729837 0.667019 0
M  V30 6138 H 572.584 0.846891 1.8614 0
M  V30 6139 H 570.739 -0.689809 3.81209 0
M  V30 6140 H 571.153 1.08816 5.13088 0
M  V30 6141 H 572.627 -0.584112 5.48901 0
M  V30 6142 H 573.104 -1.56368 4.10421 0
M  V30 6143 H 573.71 0.101995 4.25178 0
M  V30 6144 N 572.025 -1.5352 0.356285 0
M  V30 6145 C 572.935 -2.29151 -0.502712 0
M  V30 6146 C 573.951 -1.34753 -1.1008 0
M  V30 6147 O 575.127 -1.67803 -1.11374 0
M  V30 6148 C 572.192 -3.05911 -1.63154 0
M  V30 6149 C 571.253 -4.15958 -1.06194 0
M  V30 6150 C 570.486 -4.8905 -2.13696 0
M  V30 6151 O 570.709 -4.61919 -3.34645 0
M  V30 6152 O 569.643 -5.75202 -1.77275 0
M  V30 6153 H 573.469 -3.03492 0.112466 0
M  V30 6154 H 571.054 -1.4891 0.120942 0
M  V30 6155 H 572.936 -3.53874 -2.28804 0
M  V30 6156 H 571.611 -2.34415 -2.23229 0
M  V30 6157 H 570.518 -3.7227 -0.369603 0
M  V30 6158 H 571.851 -4.89593 -0.505872 0
M  V30 6159 N 573.503 -0.0852151 -1.57369 0
M  V30 6160 C 574.451 0.894856 -2.14698 0
M  V30 6161 C 575.445 1.29903 -1.08727 0
M  V30 6162 O 576.651 1.27471 -1.27088 0
M  V30 6163 H 573.026 0.306569 -0.686673 0
M  V30 6164 H 574.997 0.386542 -2.95886 0
M  V30 6165 C 573.746 2.14798 -2.73417 0
M  V30 6166 H 573.069 1.84585 -3.54638 0
M  V30 6167 H 574.509 2.81456 -3.1711 0
M  V30 6168 C 572.968 2.91546 -1.68828 0
M  V30 6169 O 573.498 3.85733 -1.12129 0
M  V30 6170 N 571.704 2.54901 -1.39549 0
M  V30 6171 H 571.251 1.7838 -1.85845 0
M  V30 6172 H 571.209 3.06553 -0.698054 0
M  V30 6173 N 574.981 1.5647 0.188427 0
M  V30 6174 C 576.23 1.80207 0.905995 0
M  V30 6175 C 576.543 0.659579 1.84144 0
M  V30 6176 O 577.749 0.781431 2.60011 0
M  V30 6177 C 576.205 3.19255 1.66145 0
M  V30 6178 C 575.813 4.41324 0.770504 0
M  V30 6179 C 577.557 3.52298 2.36826 0
M  V30 6180 C 575.464 5.71394 1.52521 0
M  V30 6181 H 574.394 0.671953 0.342045 0
M  V30 6182 H 577.045 1.82808 0.159164 0
M  V30 6183 H 575.427 3.10922 2.45242 0
M  V30 6184 H 576.601 4.60797 0.0177261 0
M  V30 6185 H 574.916 4.16035 0.174199 0
M  V30 6186 H 577.513 4.46715 2.93854 0
M  V30 6187 H 577.856 2.76359 3.11338 0
M  V30 6188 H 578.389 3.62108 1.6469 0
M  V30 6189 H 575.128 6.50316 0.82275 0
M  V30 6190 H 574.648 5.55928 2.25175 0
M  V30 6191 H 576.327 6.12747 2.07725 0
M  V30 6192 N 576.459 -0.456382 1.50847 0
M  V30 6193 C 577.707 -1.20497 1.62249 0
M  V30 6194 C 578.028 -1.92156 0.331839 0
M  V30 6195 O 577.298 -1.84751 -0.651443 0
M  V30 6196 H 575.878 -0.447775 0.597918 0
M  V30 6197 H 578.54 -0.525099 1.87693 0
M  V30 6198 H 577.636 -1.94492 2.44089 0
M  V30 6199 N 577.937 -1.40673 -0.710563 0
M  V30 6200 C 578.9 -1.4108 -1.80635 0
M  V30 6201 C 579.9 -0.303783 -1.57904 0
M  V30 6202 O 581.09 -0.562937 -1.64853 0
M  V30 6203 C 578.222 -1.20748 -3.18799 0
M  V30 6204 H 579.415 -2.38612 -1.81671 0
M  V30 6205 H 576.968 -1.26595 -0.916704 0
M  V30 6206 H 577.703 -0.239964 -3.23411 0
M  V30 6207 H 577.488 -2.00941 -3.36698 0
M  V30 6208 H 578.978 -1.23833 -3.98817 0
M  V30 6209 N 579.415 0.9433 -1.26252 0
M  V30 6210 C 580.831 1.21644 -1.03319 0
M  V30 6211 C 581.031 2.0003 0.242983 0
M  V30 6212 O 580.087 2.33838 0.952688 0
M  V30 6213 C 581.4 1.97978 -2.2633 0
M  V30 6214 C 582.948 2.10978 -2.31209 0
M  V30 6215 C 583.423 2.90713 -3.53907 0
M  V30 6216 N 584.914 2.98287 -3.54371 0
M  V30 6217 C 585.649 3.60406 -4.45976 0
M  V30 6218 N 585.145 4.24043 -5.47868 0
M  V30 6219 N 586.938 3.57658 -4.33633 0
M  V30 6220 H 579.089 0.419221 -2.08222 0
M  V30 6221 H 581.352 0.247995 -0.914988 0
M  V30 6222 H 581.058 1.47788 -3.19142 0
M  V30 6223 H 580.932 2.9865 -2.30408 0
M  V30 6224 H 583.319 2.6036 -1.38913 0
M  V30 6225 H 583.4 1.09575 -2.31143 0
M  V30 6226 H 583.044 2.42018 -4.46531 0
M  V30 6227 H 582.974 3.92367 -3.5122 0
M  V30 6228 H 585.465 2.53044 -2.80673 0
M  V30 6229 H 585.778 4.69334 -6.13959 0
M  V30 6230 H 584.123 4.22637 -5.51728 0
M  V30 6231 H 587.314 3.07134 -3.53251 0
M  V30 6232 H 587.487 4.05782 -5.05218 0
M  V30 6233 N 580.893 1.08022 1.14757 0
M  V30 6234 C 582.309 0.807072 1.3769 0
M  V30 6235 C 582.509 -0.585504 1.92806 0
M  V30 6236 O 581.565 -1.34301 2.13821 0
M  V30 6237 C 582.878 1.88651 2.34161 0
M  V30 6238 C 584.426 1.91206 2.47809 0
M  V30 6239 C 584.901 2.98253 3.47576 0
M  V30 6240 N 586.392 2.974 3.55117 0
M  V30 6241 C 587.127 3.76872 4.32152 0
M  V30 6242 N 586.623 4.66212 5.12463 0
M  V30 6243 N 588.416 3.6519 4.27309 0
M  V30 6244 H 580.567 1.97824 0.77326 0
M  V30 6245 H 582.83 0.85826 0.402608 0
M  V30 6246 H 582.536 2.88749 2.00791 0
M  V30 6247 H 582.41 1.75244 3.3402 0
M  V30 6248 H 584.797 0.917564 2.80472 0
M  V30 6249 H 584.878 2.08691 1.47925 0
M  V30 6250 H 584.522 3.97907 3.15646 0
M  V30 6251 H 584.452 2.78014 4.47231 0
M  V30 6252 H 586.943 2.32643 2.97801 0
M  V30 6253 H 587.256 5.23468 5.68508 0
M  V30 6254 H 585.601 4.70257 5.11745 0
M  V30 6255 H 588.792 2.94765 3.63636 0
M  V30 6256 H 588.965 4.27366 4.87095 0
M  V30 6257 N 582.371 -1.3172 0.865308 0
M  V30 6258 C 583.301 -2.31109 0.333302 0
M  V30 6259 C 584.282 -1.60148 -0.573301 0
M  V30 6260 O 585.467 -1.87882 -0.491305 0
M  V30 6261 C 582.597 -3.44104 -0.470078 0
M  V30 6262 C 581.551 -4.26623 0.343021 0
M  V30 6263 C 580.877 -5.31482 -0.585756 0
M  V30 6264 C 582.177 -4.98001 1.57456 0
M  V30 6265 H 583.871 -2.75855 1.1638 0
M  V30 6266 H 581.417 -1.3262 0.561069 0
M  V30 6267 H 583.37 -4.12682 -0.852752 0
M  V30 6268 H 582.094 -2.98112 -1.33404 0
M  V30 6269 H 580.753 -3.59707 0.707583 0
M  V30 6270 H 580.401 -4.81741 -1.44686 0
M  V30 6271 H 580.101 -5.87582 -0.0456494 0
M  V30 6272 H 581.625 -6.0292 -0.965375 0
M  V30 6273 H 583.039 -5.59201 1.26359 0
M  V30 6274 H 581.436 -5.63876 2.05339 0
M  V30 6275 H 582.506 -4.25253 2.32997 0
M  V30 6276 N 583.85 -0.624285 -1.44708 0
M  V30 6277 C 584.8 0.106466 -2.27751 0
M  V30 6278 C 585.784 0.822703 -1.38277 0
M  V30 6279 O 586.976 0.709939 -1.62138 0
M  V30 6280 C 584.105 1.092 -3.25469 0
M  V30 6281 C 583.191 0.375737 -4.22432 0
M  V30 6282 N 583.582 -0.591881 -5.02325 0
M  V30 6283 C 581.88 0.621093 -4.41654 0
M  V30 6284 C 582.581 -1.01443 -5.72786 0
M  V30 6285 N 581.557 -0.354651 -5.42442 0
M  V30 6286 H 585.359 -0.636464 -2.86926 0
M  V30 6287 H 582.873 -0.44925 -1.56062 0
M  V30 6288 H 584.87 1.63006 -3.83712 0
M  V30 6289 H 583.529 1.8353 -2.67856 0
M  V30 6290 H 584.541 -0.969389 -5.08747 0
M  V30 6291 H 581.218 1.34779 -3.95147 0
M  V30 6292 H 582.608 -1.81345 -6.46965 0
M  V30 6293 N 585.328 1.53329 -0.364422 0
M  V30 6294 C 586.556 2.05657 0.226424 0
M  V30 6295 C 586.971 1.23801 1.42544 0
M  V30 6296 O 586.328 0.27839 1.80364 0
M  V30 6297 C 586.379 3.56125 0.621056 0
M  V30 6298 O 586.1 4.34879 -0.530304 0
M  V30 6299 C 587.601 4.24706 1.27041 0
M  V30 6300 H 584.821 0.669806 0.0400056 0
M  V30 6301 H 587.365 1.97714 -0.522456 0
M  V30 6302 H 585.52 3.64223 1.31985 0
M  V30 6303 H 585.934 5.24073 -0.211546 0
M  V30 6304 H 587.408 5.3131 1.49711 0
M  V30 6305 H 587.885 3.78354 2.23036 0
M  V30 6306 H 588.491 4.20858 0.613079 0
M  V30 6307 N 586.806 0.0935595 1.57322 0
M  V30 6308 C 588.052 -0.571355 1.94585 0
M  V30 6309 C 588.385 -1.67929 0.975366 0
M  V30 6310 O 587.66 -1.94498 0.00816206 0
M  V30 6311 C 587.943 -1.12797 3.41978 0
M  V30 6312 C 587.796 -0.0251881 4.49793 0
M  V30 6313 C 589.115 -2.02682 3.90651 0
M  V30 6314 H 586.234 -0.206223 0.70756 0
M  V30 6315 H 588.876 0.163956 1.89291 0
M  V30 6316 H 587.026 -1.75461 3.4662 0
M  V30 6317 H 588.698 0.608979 4.57263 0
M  V30 6318 H 586.941 0.641399 4.29032 0
M  V30 6319 H 587.612 -0.455433 5.50118 0
M  V30 6320 H 590.088 -1.49925 3.88152 0
M  V30 6321 H 588.964 -2.38555 4.94351 0
M  V30 6322 H 589.225 -2.94362 3.29854 0
M  V30 6323 N 588.284 -1.56567 -0.180126 0
M  V30 6324 C 589.214 -1.98753 -1.22553 0
M  V30 6325 C 590.195 -0.86175 -1.46656 0
M  V30 6326 O 591.38 -1.12719 -1.58139 0
M  V30 6327 C 588.51 -2.33988 -2.56645 0
M  V30 6328 C 587.464 -3.49445 -2.47128 0
M  V30 6329 C 586.79 -3.70397 -3.8563 0
M  V30 6330 C 588.09 -4.83171 -1.98352 0
M  V30 6331 H 589.784 -2.86332 -0.874896 0
M  V30 6332 H 587.33 -1.37757 -0.419414 0
M  V30 6333 H 589.283 -2.62097 -3.29974 0
M  V30 6334 H 588.007 -1.43309 -2.93479 0
M  V30 6335 H 586.666 -3.2145 -1.76254 0
M  V30 6336 H 586.314 -2.77023 -4.19842 0
M  V30 6337 H 586.014 -4.48077 -3.80132 0
M  V30 6338 H 587.538 -4.00897 -4.60558 0
M  V30 6339 H 588.952 -5.10213 -2.61449 0
M  V30 6340 H 587.349 -5.64425 -2.03823 0
M  V30 6341 H 588.419 -4.75753 -0.937402 0
M  V30 6342 N 589.762 0.448376 -1.51087 0
M  V30 6343 C 590.672 1.56882 -1.74428 0
M  V30 6344 C 591.688 1.62268 -0.62809 0
M  V30 6345 O 592.864 1.79716 -0.909075 0
M  V30 6346 C 589.929 2.92947 -1.85426 0
M  V30 6347 C 588.99 2.97766 -3.09247 0
M  V30 6348 C 588.223 4.27341 -3.19711 0
M  V30 6349 O 588.446 5.19112 -2.36387 0
M  V30 6350 O 587.38 4.38219 -4.12611 0
M  V30 6351 H 591.206 1.40104 -2.69452 0
M  V30 6352 H 588.791 0.630247 -1.35456 0
M  V30 6353 H 590.673 3.73719 -1.94709 0
M  V30 6354 H 589.348 3.09876 -0.935887 0
M  V30 6355 H 588.255 2.15989 -3.0545 0
M  V30 6356 H 589.588 2.8578 -4.00738 0
M  V30 6357 N 591.24 1.41047 0.703093 0
M  V30 6358 C 592.656 1.23351 1.01275 0
M  V30 6359 C 592.856 0.11754 2.01157 0
M  V30 6360 O 591.912 -0.520518 2.47077 0
M  V30 6361 C 593.225 2.58001 1.54454 0
M  V30 6362 C 594.773 2.65119 1.66376 0
M  V30 6363 C 595.248 4.00067 2.22958 0
M  V30 6364 N 596.739 4.01875 2.30328 0
M  V30 6365 C 597.474 5.03087 2.75119 0
M  V30 6366 N 596.97 6.14692 3.19571 0
M  V30 6367 N 598.763 4.90451 2.74616 0
M  V30 6368 H 590.914 2.1236 0.0412686 0
M  V30 6369 H 593.177 0.944543 0.08089 0
M  V30 6370 H 592.883 3.40378 0.88521 0
M  V30 6371 H 592.757 2.79962 2.52786 0
M  V30 6372 H 595.144 1.83106 2.31422 0
M  V30 6373 H 595.225 2.46975 0.666089 0
M  V30 6374 H 594.869 4.82526 1.58529 0
M  V30 6375 H 594.799 4.15547 3.23462 0
M  V30 6376 H 597.29 3.21291 1.98949 0
M  V30 6377 H 597.603 6.87799 3.52352 0
M  V30 6378 H 595.948 6.18239 3.17498 0
M  V30 6379 H 599.139 4.0235 2.39233 0
M  V30 6380 H 599.312 5.6947 3.09206 0
M  V30 6381 N 592.718 -0.936591 1.26751 0
M  V30 6382 C 593.648 -2.05315 1.11212 0
M  V30 6383 C 594.629 -1.70092 0.0160262 0
M  V30 6384 O 595.814 -1.93279 0.188894 0
M  V30 6385 C 592.944 -3.39123 0.749171 0
M  V30 6386 C 591.898 -3.88425 1.79751 0
M  V30 6387 C 591.224 -5.18936 1.28876 0
M  V30 6388 C 592.524 -4.12798 3.19992 0
M  V30 6389 H 594.218 -2.18573 2.04613 0
M  V30 6390 H 591.764 -1.05027 0.985159 0
M  V30 6391 H 593.717 -4.16704 0.627323 0
M  V30 6392 H 592.441 -3.25855 -0.220543 0
M  V30 6393 H 591.1 -3.13028 1.90811 0
M  V30 6394 H 590.748 -5.02051 0.308757 0
M  V30 6395 H 590.448 -5.52892 1.98958 0
M  V30 6396 H 591.972 -5.99096 1.17967 0
M  V30 6397 H 593.386 -4.80977 3.11983 0
M  V30 6398 H 591.783 -4.58044 3.87705 0
M  V30 6399 H 592.853 -3.18412 3.65707 0
M  V30 6400 N 594.196 -1.08629 -1.14182 0
M  V30 6401 C 595.129 -0.662329 -2.18377 0
M  V30 6402 C 596.107 0.327054 -1.59277 0
M  V30 6403 O 597.291 0.230376 -1.87087 0
M  V30 6404 C 594.418 0.0254765 -3.3869 0
M  V30 6405 C 593.464 -0.924414 -4.16361 0
M  V30 6406 S 594.297 -2.43226 -4.77076 0
M  V30 6407 C 595.453 -1.75663 -6.00744 0
M  V30 6408 H 595.686 -1.54501 -2.54001 0
M  V30 6409 H 593.219 -0.901484 -1.2535 0
M  V30 6410 H 595.177 0.416032 -4.08386 0
M  V30 6411 H 593.838 0.884689 -3.01384 0
M  V30 6412 H 593.031 -0.390099 -5.02488 0
M  V30 6413 H 592.633 -1.25598 -3.5228 0
M  V30 6414 H 594.925 -1.07589 -6.68903 0
M  V30 6415 H 595.868 -2.59673 -6.58768 0
M  V30 6416 H 596.276 -1.22903 -5.50958 0
M  V30 6417 N 595.674 1.31259 -0.872281 0
M  V30 6418 C 596.584 2.32221 -0.333255 0
M  V30 6419 C 597.6 1.6481 0.558013 0
M  V30 6420 O 598.776 1.96212 0.454175 0
M  V30 6421 C 595.841 3.43708 0.454479 0
M  V30 6422 C 594.902 4.26774 -0.465024 0
M  V30 6423 C 594.135 5.32937 0.28521 0
M  V30 6424 O 594.358 5.49968 1.513 0
M  V30 6425 O 593.292 6.00834 -0.358126 0
M  V30 6426 H 597.118 2.80252 -1.17016 0
M  V30 6427 H 594.703 1.352 -0.635724 0
M  V30 6428 H 596.585 4.11656 0.900963 0
M  V30 6429 H 595.26 2.97836 1.26789 0
M  V30 6430 H 594.167 3.61571 -0.960055 0
M  V30 6431 H 595.5 4.76217 -1.2441 0
M  V30 6432 N 597.152 0.631951 1.44375 0
M  V30 6433 C 598.062 -0.073674 2.34484 0
M  V30 6434 C 599.078 -0.834825 1.52665 0
M  V30 6435 O 600.254 -0.786902 1.85391 0
M  V30 6436 C 597.319 -1.04247 3.30656 0
M  V30 6437 C 596.38 -0.280602 4.28382 0
M  V30 6438 C 595.613 -1.20325 5.19959 0
M  V30 6439 O 595.836 -2.44199 5.15484 0
M  V30 6440 O 594.77 -0.687128 5.97965 0
M  V30 6441 H 598.596 0.667477 2.96274 0
M  V30 6442 H 596.181 0.392144 1.44162 0
M  V30 6443 H 598.063 -1.59981 3.89851 0
M  V30 6444 H 596.738 -1.76422 2.71398 0
M  V30 6445 H 595.645 0.319804 3.72731 0
M  V30 6446 H 596.978 0.401144 4.90563 0
M  V30 6447 N 598.631 -1.53133 0.372548 0
M  V30 6448 C 599.88 -2.00539 -0.216115 0
M  V30 6449 C 600.193 -1.26374 -1.49295 0
M  V30 6450 O 601.399 -1.64404 -2.16064 0
M  V30 6451 C 599.855 -3.57253 -0.435678 0
M  V30 6452 C 599.463 -4.40302 0.82693 0
M  V30 6453 C 601.207 -4.12995 -0.981618 0
M  V30 6454 C 599.114 -5.88583 0.576567 0
M  V30 6455 H 598.044 -0.749246 -0.084536 0
M  V30 6456 H 600.695 -1.76771 0.492364 0
M  V30 6457 H 599.077 -3.77202 -1.20559 0
M  V30 6458 H 600.251 -4.32124 1.60017 0
M  V30 6459 H 598.566 -3.95699 1.29659 0
M  V30 6460 H 601.163 -5.21418 -1.18436 0
M  V30 6461 H 601.506 -3.68027 -1.94581 0
M  V30 6462 H 602.039 -3.96871 -0.271696 0
M  V30 6463 H 598.778 -6.37841 1.51128 0
M  V30 6464 H 598.298 -5.99592 -0.158047 0
M  V30 6465 H 599.977 -6.46676 0.204722 0
M  V30 6466 N 600.109 -0.101901 -1.5727 0
M  V30 6467 C 601.334 0.571759 -1.99363 0
M  V30 6468 C 601.759 1.60507 -0.980768 0
M  V30 6469 O 601.117 1.81231 0.0498517 0
M  V30 6470 C 601.165 1.18996 -3.404 0
M  V30 6471 O 600.269 2.30572 -3.41922 0
M  V30 6472 H 599.61 0.144449 -0.648098 0
M  V30 6473 H 602.14 -0.185325 -2.03759 0
M  V30 6474 H 602.15 1.52962 -3.78241 0
M  V30 6475 H 600.825 0.432984 -4.1364 0
M  V30 6476 H 599.402 1.98173 -3.15883 0
M  V30 6477 N 601.587 1.56661 0.17182 0
M  V30 6478 C 602.817 1.85831 0.902804 0
M  V30 6479 C 603.225 0.685157 1.76358 0
M  V30 6480 O 602.568 -0.354947 1.80238 0
M  V30 6481 C 602.63 3.09406 1.83053 0
M  V30 6482 C 602.294 4.4231 1.1494 0
M  V30 6483 C 603.291 5.17342 0.515104 0
M  V30 6484 C 600.976 4.89045 1.14631 0
M  V30 6485 C 602.97 6.37299 -0.113194 0
M  V30 6486 C 600.657 6.08933 0.514184 0
M  V30 6487 C 601.655 6.82904 -0.114463 0
M  V30 6488 O 601.343 8.00518 -0.736622 0
M  V30 6489 H 601.075 0.620715 0.267748 0
M  V30 6490 H 603.629 2.04637 0.176918 0
M  V30 6491 H 601.859 2.86544 2.59672 0
M  V30 6492 H 603.548 3.25027 2.4313 0
M  V30 6493 H 604.314 4.82317 0.509474 0
M  V30 6494 H 600.193 4.31409 1.62502 0
M  V30 6495 H 603.737 6.94976 -0.604477 0
M  V30 6496 H 599.634 6.43423 0.517395 0
M  V30 6497 H 600.402 8.16027 -0.635822 0
M  V30 6498 N 603.065 -0.440357 1.51323 0
M  V30 6499 C 604.342 -1.20109 1.5438 0
M  V30 6500 C 604.722 -2.08866 0.306303 0
M  V30 6501 O 604.07 -2.1723 -0.708773 0
M  V30 6502 C 604.28 -2.00555 2.8562 0
M  V30 6503 C 605.628 -2.577 3.37455 0
M  V30 6504 O 606.652 -2.10769 2.8715 0
M  V30 6505 O 605.511 -3.43289 4.25224 0
M  V30 6506 H 602.605 -0.546668 0.620551 0
M  V30 6507 H 605.151 -0.449672 1.63634 0
M  V30 6508 H 603.923 -1.35346 3.67147 0
M  V30 6509 H 603.546 -2.82768 2.79514 0
M  V30 6510 N 604.543 -1.41418 -0.695603 0
M  V30 6511 C 605.506 -1.42988 -1.79129 0
M  V30 6512 C 606.506 -0.320514 -1.57573 0
M  V30 6513 O 607.696 -0.58039 -1.64247 0
M  V30 6514 C 604.828 -1.24122 -3.175 0
M  V30 6515 H 606.021 -2.40526 -1.7913 0
M  V30 6516 H 603.574 -1.2756 -0.903225 0
M  V30 6517 H 604.309 -0.274253 -3.23138 0
M  V30 6518 H 604.094 -2.045 -3.34547 0
M  V30 6519 H 605.584 -1.28056 -3.97481 0
M  V30 6520 N 606.021 0.929856 -1.27246 0
M  V30 6521 C 607.246 1.71674 -1.16374 0
M  V30 6522 C 607.671 1.86064 0.276024 0
M  V30 6523 O 607.029 1.3591 1.19992 0
M  V30 6524 C 607.077 3.09526 -1.85003 0
M  V30 6525 O 606.181 3.96142 -1.14653 0
M  V30 6526 H 605.522 0.52629 -0.404863 0
M  V30 6527 H 608.052 1.16381 -1.68276 0
M  V30 6528 H 608.062 3.59852 -1.92276 0
M  V30 6529 H 606.737 2.98369 -2.89739 0
M  V30 6530 H 605.314 3.54584 -1.15433 0
M  V30 6531 N 607.499 1.09233 1.13605 0
M  V30 6532 C 608.776 0.739633 1.81077 0
M  V30 6533 C 609.156 -0.775595 1.96336 0
M  V30 6534 O 608.504 -1.69726 1.52988 0
M  V30 6535 C 608.714 1.47636 3.16235 0
M  V30 6536 C 610.062 1.64087 3.91613 0
M  V30 6537 O 611.086 1.43871 3.25852 0
M  V30 6538 O 609.945 1.97511 5.0956 0
M  V30 6539 H 607.039 0.265464 0.783236 0
M  V30 6540 H 609.585 1.19441 1.20549 0
M  V30 6541 H 608.357 2.50818 3.00344 0
M  V30 6542 H 607.98 1.01362 3.84462 0
M  V30 6543 N 608.977 -1.30795 0.87923 0
M  V30 6544 C 609.907 -2.30742 0.357796 0
M  V30 6545 C 610.888 -1.60747 -0.556283 0
M  V30 6546 O 612.073 -1.88393 -0.47135 0
M  V30 6547 C 609.203 -3.44583 -0.433555 0
M  V30 6548 C 608.157 -4.26235 0.388251 0
M  V30 6549 C 607.483 -5.32073 -0.529352 0
M  V30 6550 C 608.783 -4.96303 1.62729 0
M  V30 6551 H 610.477 -2.74605 1.19299 0
M  V30 6552 H 608.023 -1.32017 0.575104 0
M  V30 6553 H 609.976 -4.13563 -0.808934 0
M  V30 6554 H 608.7 -2.99511 -1.30234 0
M  V30 6555 H 607.359 -3.58936 0.745695 0
M  V30 6556 H 607.007 -4.83249 -1.39569 0
M  V30 6557 H 606.707 -5.87598 0.0166741 0
M  V30 6558 H 608.231 -6.0391 -0.901373 0
M  V30 6559 H 609.645 -5.5783 1.32283 0
M  V30 6560 H 608.042 -5.61666 2.11309 0
M  V30 6561 H 609.112 -4.22758 2.37494 0
M  V30 6562 N 610.455 -0.639598 -1.44038 0
M  V30 6563 C 611.68 -0.153117 -2.06834 0
M  V30 6564 C 612.105 1.16676 -1.47541 0
M  V30 6565 O 611.463 1.71769 -0.580093 0
M  V30 6566 C 611.511 -0.0609169 -3.60549 0
M  V30 6567 O 610.615 0.98071 -4.00569 0
M  V30 6568 H 609.956 -0.0886402 -0.658057 0
M  V30 6569 H 612.486 -0.878674 -1.84771 0
M  V30 6570 H 612.496 0.126892 -4.07803 0
M  V30 6571 H 611.171 -1.0245 -4.03084 0
M  V30 6572 H 609.748 0.766789 -3.64931 0
M  V30 6573 N 611.933 1.52934 -0.380664 0
M  V30 6574 C 613.181 2.01069 0.203874 0
M  V30 6575 C 613.502 1.26922 1.4804 0
M  V30 6576 O 612.772 0.386787 1.92044 0
M  V30 6577 H 611.352 0.742882 0.0783279 0
M  V30 6578 H 614.014 1.88099 -0.510368 0
M  V30 6579 H 613.11 3.09258 0.42021 0
M  V30 6580 N 613.412 0.11024 1.57214 0
M  V30 6581 C 614.344 -0.873497 2.11902 0
M  V30 6582 C 615.357 -1.23588 1.05971 0
M  V30 6583 O 616.546 -1.18636 1.33371 0
M  V30 6584 C 613.646 -2.17805 2.59643 0
M  V30 6585 C 612.819 -1.98869 3.89576 0
M  V30 6586 C 611.878 -3.12974 4.23006 0
M  V30 6587 O 610.904 -2.86272 4.91973 0
M  V30 6588 N 612.106 -4.39167 3.79622 0
M  V30 6589 H 614.871 -0.406317 2.96933 0
M  V30 6590 H 612.432 -0.074437 1.61729 0
M  V30 6591 H 614.424 -2.93117 2.79042 0
M  V30 6592 H 612.994 -2.55899 1.7954 0
M  V30 6593 H 612.214 -1.078 3.79174 0
M  V30 6594 H 613.502 -1.83512 4.74553 0
M  V30 6595 H 612.9 -4.63739 3.2398 0
M  V30 6596 H 611.457 -5.11379 4.04147 0
M  V30 6597 N 614.89 -1.56749 -0.16351 0
M  V30 6598 C 615.838 -1.97939 -1.22159 0
M  V30 6599 C 616.832 -0.869288 -1.45395 0
M  V30 6600 O 618.038 -1.05443 -1.45883 0
M  V30 6601 H 614.413 -0.629869 -0.410815 0
M  V30 6602 H 616.384 -2.86115 -0.847381 0
M  V30 6603 C 615.133 -2.36206 -2.55151 0
M  V30 6604 H 614.456 -3.2117 -2.38097 0
M  V30 6605 H 615.896 -2.68863 -3.27854 0
M  V30 6606 C 614.355 -1.20841 -3.14482 0
M  V30 6607 O 614.885 -0.500258 -3.98573 0
M  V30 6608 N 613.091 -0.976943 -2.73686 0
M  V30 6609 H 612.638 -1.55457 -2.05404 0
M  V30 6610 H 612.596 -0.206912 -3.13718 0
M  V30 6611 N 616.368 0.432326 -1.51554 0
M  V30 6612 C 617.617 1.17831 -1.63703 0
M  V30 6613 C 617.93 1.92229 -0.36156 0
M  V30 6614 O 619.136 2.69069 -0.362495 0
M  V30 6615 C 617.592 2.14318 -2.89129 0
M  V30 6616 C 617.2 1.45544 -4.23699 0
M  V30 6617 C 618.944 2.89319 -3.10636 0
M  V30 6618 C 616.851 2.40545 -5.4027 0
M  V30 6619 H 615.781 0.443533 -0.60975 0
M  V30 6620 H 618.432 0.444878 -1.78026 0
M  V30 6621 H 616.814 2.91117 -2.68452 0
M  V30 6622 H 617.988 0.742693 -4.54775 0
M  V30 6623 H 616.303 0.826772 -4.0811 0
M  V30 6624 H 618.9 3.60495 -3.94902 0
M  V30 6625 H 619.243 3.50951 -2.23918 0
M  V30 6626 H 619.776 2.19625 -3.31677 0
M  V30 6627 H 616.515 1.83594 -6.29264 0
M  V30 6628 H 616.035 3.09859 -5.13563 0
M  V30 6629 H 617.714 3.01569 -5.72421 0
M  V30 6630 N 617.846 1.41785 0.688094 0
M  V30 6631 C 619.074 1.44915 1.47673 0
M  V30 6632 C 619.489 0.0565786 1.88715 0
M  V30 6633 O 618.846 -0.92579 1.57275 0
M  V30 6634 C 618.897 2.36452 2.73446 0
M  V30 6635 O 618.618 3.7029 2.34131 0
M  V30 6636 C 620.119 2.48463 3.67125 0
M  V30 6637 H 617.339 0.493324 0.454832 0
M  V30 6638 H 619.883 1.86153 0.846594 0
M  V30 6639 H 618.038 1.98502 3.3268 0
M  V30 6640 H 618.452 4.19183 3.15255 0
M  V30 6641 H 619.926 3.16662 4.52138 0
M  V30 6642 H 620.403 1.51826 4.12123 0
M  V30 6643 H 621.009 2.8708 3.13792 0
M  V30 6644 N 619.324 -0.923095 1.27737 0
M  V30 6645 C 620.573 -1.66581 1.13727 0
M  V30 6646 C 620.886 -1.9304 -0.315433 0
M  V30 6647 O 622.092 -2.65309 -0.57651 0
M  V30 6648 C 620.548 -3.00047 1.98745 0
M  V30 6649 C 620.156 -2.8127 3.48699 0
M  V30 6650 C 621.9 -3.77887 1.93395 0
M  V30 6651 C 619.807 -4.1032 4.25901 0
M  V30 6652 H 618.737 -0.624834 0.422017 0
M  V30 6653 H 621.388 -1.02514 1.52194 0
M  V30 6654 H 619.77 -3.65197 1.53125 0
M  V30 6655 H 620.944 -2.24859 4.02213 0
M  V30 6656 H 619.259 -2.16854 3.55476 0
M  V30 6657 H 621.856 -4.73526 2.48348 0
M  V30 6658 H 622.199 -4.06264 0.908605 0
M  V30 6659 H 622.732 -3.19541 2.36935 0
M  V30 6660 H 619.471 -3.8712 5.28978 0
M  V30 6661 H 618.991 -4.66377 3.77163 0
M  V30 6662 H 620.67 -4.78648 4.35321 0
M  V30 6663 N 620.802 -1.09834 -1.13024 0
M  V30 6664 C 622.079 -0.749225 -1.80682 0
M  V30 6665 C 622.459 0.765171 -1.96744 0
M  V30 6666 O 621.807 1.68912 -1.53886 0
M  V30 6667 C 622.017 -1.49311 -3.15448 0
M  V30 6668 C 623.365 -1.66162 -3.90737 0
M  V30 6669 O 624.389 -1.45597 -3.25085 0
M  V30 6670 O 623.248 -2.00211 -5.08505 0
M  V30 6671 H 620.342 -0.269614 -0.781817 0
M  V30 6672 H 622.888 -1.20078 -1.19914 0
M  V30 6673 H 621.66 -2.52407 -2.99009 0
M  V30 6674 H 621.283 -1.034 -3.8392 0
M  V30 6675 N 622.28 1.30327 -0.886154 0
M  V30 6676 C 623.243 2.26376 -0.358687 0
M  V30 6677 C 624.243 1.52845 0.499498 0
M  V30 6678 O 625.433 1.71483 0.306485 0
M  V30 6679 C 622.565 3.37379 0.488726 0
M  V30 6680 H 623.758 2.74547 -1.20681 0
M  V30 6681 H 621.311 1.41536 -0.663113 0
M  V30 6682 H 622.046 2.94526 1.35739 0
M  V30 6683 H 621.831 3.91897 -0.126003 0
M  V30 6684 H 623.321 4.08868 0.84952 0
M  V30 6685 N 623.758 0.647228 1.43697 0
M  V30 6686 C 625.035 0.0883758 1.954 0
M  V30 6687 C 625.415 -1.39006 1.58873 0
M  V30 6688 O 624.763 -2.11255 0.87083 0
M  V30 6689 C 624.973 0.328263 3.47453 0
M  V30 6690 C 626.321 0.230009 4.23977 0
M  V30 6691 O 627.345 0.260496 3.55246 0
M  V30 6692 O 626.204 0.148615 5.46298 0
M  V30 6693 H 623.298 -0.0130683 0.826897 0
M  V30 6694 H 625.844 0.72005 1.53666 0
M  V30 6695 H 624.616 1.3535 3.67146 0
M  V30 6696 H 624.239 -0.336772 3.96171 0
M  V30 6697 N 625.236 -1.5273 0.388769 0
M  V30 6698 C 626.466 -2.05693 -0.193397 0
M  V30 6699 C 626.874 -1.26038 -1.41107 0
M  V30 6700 O 626.217 -0.30001 -1.81234 0
M  V30 6701 C 626.279 -3.53962 -0.628561 0
M  V30 6702 C 625.943 -4.54519 0.475576 0
M  V30 6703 C 626.94 -5.02526 1.33281 0
M  V30 6704 C 624.625 -4.98174 0.642453 0
M  V30 6705 C 626.619 -5.92812 2.34205 0
M  V30 6706 C 624.306 -5.88262 1.65503 0
M  V30 6707 C 625.304 -6.35473 2.50325 0
M  V30 6708 O 624.992 -7.23781 3.49852 0
M  V30 6709 H 624.724 -0.675197 -0.0329395 0
M  V30 6710 H 627.278 -1.97835 0.552326 0
M  V30 6711 H 625.508 -3.59437 -1.42625 0
M  V30 6712 H 627.197 -3.89669 -1.13633 0
M  V30 6713 H 627.963 -4.6953 1.21519 0
M  V30 6714 H 623.842 -4.60999 -0.00805093 0
M  V30 6715 H 627.386 -6.29585 3.00447 0
M  V30 6716 H 623.283 -6.20672 1.77304 0
M  V30 6717 H 624.051 -7.4184 3.45855 0
M  V30 6718 N 626.714 -0.118576 -1.57153 0
M  V30 6719 C 627.96 0.540326 -1.95469 0
M  V30 6720 C 628.293 1.66356 -1.00196 0
M  V30 6721 O 627.568 1.94461 -0.039104 0
M  V30 6722 C 627.851 1.07342 -3.43729 0
M  V30 6723 C 627.704 -0.0463732 -4.49776 0
M  V30 6724 C 629.023 1.96442 -3.93826 0
M  V30 6725 H 626.142 0.19494 -0.710751 0
M  V30 6726 H 628.784 -0.19405 -1.89006 0
M  V30 6727 H 626.934 1.69925 -3.49368 0
M  V30 6728 H 628.606 -0.681648 -4.56236 0
M  V30 6729 H 626.849 -0.709574 -4.27957 0
M  V30 6730 H 627.52 0.367856 -5.50773 0
M  V30 6731 H 629.996 1.43731 -3.90488 0
M  V30 6732 H 628.872 2.3066 -4.98084 0
M  V30 6733 H 629.133 2.89077 -3.34495 0
M  V30 6734 N 628.193 1.56834 0.155195 0
M  V30 6735 C 629.418 1.87412 0.888337 0
M  V30 6736 C 629.843 0.70671 1.74319 0
M  V30 6737 O 629.201 -0.343892 1.78009 0
M  V30 6738 C 629.249 3.1652 1.72765 0
M  V30 6739 O 628.353 2.99877 2.83103 0
M  V30 6740 H 627.694 0.615983 0.247914 0
M  V30 6741 H 630.224 2.04061 0.148478 0
M  V30 6742 H 630.234 3.48334 2.12433 0
M  V30 6743 H 628.909 4.01094 1.09985 0
M  V30 6744 H 627.486 2.79453 2.46902 0
M  V30 6745 N 629.671 -0.424282 1.51781 0
M  V30 6746 C 630.618 -1.51591 1.74037 0
M  V30 6747 C 631.588 -1.55556 0.582358 0
M  V30 6748 O 632.773 -1.72364 0.818245 0
M  V30 6749 C 629.913 -2.89188 1.8832 0
M  V30 6750 C 629.026 -2.9465 3.1592 0
M  V30 6751 C 628.161 -4.23452 3.20721 0
M  V30 6752 C 627.2 -4.22831 4.42584 0
M  V30 6753 N 626.337 -5.43178 4.44862 0
M  V30 6754 H 631.177 -1.31917 2.67212 0
M  V30 6755 H 628.714 -0.640599 1.32419 0
M  V30 6756 H 630.672 -3.69044 1.94583 0
M  V30 6757 H 629.302 -3.07392 0.985402 0
M  V30 6758 H 628.354 -2.07378 3.18902 0
M  V30 6759 H 629.666 -2.90055 4.05795 0
M  V30 6760 H 628.82 -5.1169 3.25973 0
M  V30 6761 H 627.559 -4.30722 2.28757 0
M  V30 6762 H 626.564 -3.32984 4.37495 0
M  V30 6763 H 627.789 -4.17213 5.35826 0
M  V30 6764 H 625.735 -5.51145 3.55775 0
M  V30 6765 H 625.652 -5.40515 5.28563 0
M  V30 6766 H 626.92 -6.33412 4.54324 0
M  V30 6767 N 631.149 -1.42148 -0.680565 0
M  V30 6768 C 632.099 -1.41634 -1.78672 0
M  V30 6769 C 633.083 -0.288494 -1.58293 0
M  V30 6770 O 634.275 -0.530295 -1.68869 0
M  V30 6771 C 631.404 -1.31558 -3.17092 0
M  V30 6772 C 630.49 -2.49265 -3.43115 0
M  V30 6773 N 630.881 -3.74702 -3.39753 0
M  V30 6774 C 629.179 -2.43401 -3.73727 0
M  V30 6775 C 629.88 -4.52854 -3.651 0
M  V30 6776 N 628.856 -3.83181 -3.85582 0
M  V30 6777 H 632.658 -2.3652 -1.74458 0
M  V30 6778 H 630.172 -1.36415 -0.881171 0
M  V30 6779 H 632.169 -1.29272 -3.96351 0
M  V30 6780 H 630.829 -0.376696 -3.22508 0
M  V30 6781 H 631.84 -4.07378 -3.19787 0
M  V30 6782 H 628.517 -1.58062 -3.86423 0
M  V30 6783 H 629.907 -5.61827 -3.6851 0
M  V30 6784 N 632.627 0.916307 -1.28225 0
M  V30 6785 C 633.557 2.0352 -1.14464 0
M  V30 6786 C 634.538 1.70045 -0.0430844 0
M  V30 6787 O 635.723 1.92954 -0.219619 0
M  V30 6788 C 632.853 3.37889 -0.803027 0
M  V30 6789 C 631.807 3.85516 -1.85908 0
M  V30 6790 C 631.133 5.1682 -1.37116 0
M  V30 6791 C 632.433 4.07655 -3.26519 0
M  V30 6792 H 634.127 2.1529 -2.08064 0
M  V30 6793 H 631.673 1.03446 -1.00174 0
M  V30 6794 H 633.626 4.15654 -0.693537 0
M  V30 6795 H 632.35 3.26164 0.168674 0
M  V30 6796 H 631.009 3.09953 -1.95767 0
M  V30 6797 H 630.657 5.01497 -0.38859 0
M  V30 6798 H 630.357 5.49657 -2.07728 0
M  V30 6799 H 631.881 5.97143 -1.27484 0
M  V30 6800 H 633.295 4.75953 -3.19596 0
M  V30 6801 H 631.692 4.51818 -3.94943 0
M  V30 6802 H 632.762 3.12553 -3.70727 0
M  V30 6803 N 634.105 1.10431 1.1244 0
M  V30 6804 C 635.382 0.758797 1.80282 0
M  V30 6805 C 635.762 -0.754727 1.97147 0
M  V30 6806 O 635.11 -1.68094 1.54779 0
M  V30 6807 C 635.32 1.50982 3.14651 0
M  V30 6808 C 636.668 1.68232 3.8985 0
M  V30 6809 O 637.692 1.47319 3.24308 0
M  V30 6810 O 636.551 2.02905 5.07437 0
M  V30 6811 H 633.645 0.273756 0.780376 0
M  V30 6812 H 636.191 1.20713 1.19275 0
M  V30 6813 H 634.963 2.53989 2.97666 0
M  V30 6814 H 634.586 1.05435 3.83366 0
M  V30 6815 N 635.583 -1.29855 0.893053 0
M  V30 6816 C 636.546 -2.26183 0.370687 0
M  V30 6817 C 637.546 -1.53108 -0.491385 0
M  V30 6818 O 638.736 -1.71643 -0.297386 0
M  V30 6819 C 635.868 -3.37633 -0.470827 0
M  V30 6820 H 637.061 -2.73903 1.22135 0
M  V30 6821 H 634.614 -1.41183 0.67061 0
M  V30 6822 H 635.349 -2.95241 -1.34175 0
M  V30 6823 H 635.134 -3.91825 0.146784 0
M  V30 6824 H 636.624 -4.09313 -0.827825 0
M  V30 6825 N 637.061 -0.65484 -1.43351 0
M  V30 6826 C 637.991 0.0221809 -2.33489 0
M  V30 6827 C 638.972 0.810272 -1.49561 0
M  V30 6828 O 640.157 0.771426 -1.78221 0
M  V30 6829 C 637.287 0.988117 -3.32947 0
M  V30 6830 C 636.241 0.310026 -4.26876 0
M  V30 6831 C 635.567 1.38752 -5.16384 0
M  V30 6832 C 636.867 -0.798589 -5.16159 0
M  V30 6833 H 638.561 -0.730571 -2.9035 0
M  V30 6834 H 636.107 -0.352773 -1.39612 0
M  V30 6835 H 638.06 1.47067 -3.94904 0
M  V30 6836 H 636.784 1.77205 -2.74346 0
M  V30 6837 H 635.443 -0.152097 -3.66284 0
M  V30 6838 H 635.091 2.16293 -4.54121 0
M  V30 6839 H 634.791 0.939051 -5.80048 0
M  V30 6840 H 636.315 1.87141 -5.81215 0
M  V30 6841 H 637.729 -0.398126 -5.71916 0
M  V30 6842 H 636.126 -1.17163 -5.88552 0
M  V30 6843 H 637.196 -1.65588 -4.55751 0
M  V30 6844 N 638.539 1.52521 -0.396863 0
M  V30 6845 C 639.785 2.01971 0.183169 0
M  V30 6846 C 640.118 1.2825 1.45827 0
M  V30 6847 O 639.393 0.385179 1.90648 0
M  V30 6848 C 639.676 3.5736 0.443391 0
M  V30 6849 C 639.529 4.41743 -0.84753 0
M  V30 6850 C 640.848 4.22539 1.2308 0
M  V30 6851 H 637.967 0.734119 0.0650976 0
M  V30 6852 H 640.609 1.82519 -0.527918 0
M  V30 6853 H 638.759 3.74066 1.04914 0
M  V30 6854 H 640.431 4.36773 -1.48414 0
M  V30 6855 H 638.674 4.0845 -1.4612 0
M  V30 6856 H 639.345 5.48507 -0.620003 0
M  V30 6857 H 641.821 4.09857 0.718084 0
M  V30 6858 H 640.697 5.31227 1.38162 0
M  V30 6859 H 640.958 3.80675 2.24808 0
M  V30 6860 N 640.017 0.126909 1.57088 0
M  V30 6861 C 640.98 -0.806097 2.14557 0
M  V30 6862 C 641.98 -1.18918 1.08236 0
M  V30 6863 O 643.17 -1.11339 1.33975 0
M  V30 6864 C 640.302 -2.09116 2.69227 0
M  V30 6865 H 641.495 -0.306522 2.98329 0
M  V30 6866 H 639.048 -0.122393 1.5582 0
M  V30 6867 H 639.783 -2.63486 1.89065 0
M  V30 6868 H 639.568 -1.82588 3.46993 0
M  V30 6869 H 641.058 -2.75794 3.13572 0
M  V30 6870 N 641.495 -1.56914 -0.146875 0
M  V30 6871 C 642.772 -1.74273 -0.888165 0
M  V30 6872 C 643.152 -0.69496 -1.99333 0
M  V30 6873 O 642.5 0.286093 -2.26702 0
M  V30 6874 C 642.71 -3.18336 -1.43051 0
M  V30 6875 C 644.058 -3.80024 -1.89387 0
M  V30 6876 O 645.082 -3.21765 -1.52792 0
M  V30 6877 O 643.941 -4.82367 -2.56874 0
M  V30 6878 H 641.035 -0.712565 -0.419738 0
M  V30 6879 H 643.581 -1.6918 -0.132791 0
M  V30 6880 H 642.353 -3.86092 -0.636274 0
M  V30 6881 H 641.976 -3.27854 -2.24938 0
M  V30 6882 N 642.974 0.416227 -1.52004 0
M  V30 6883 C 643.884 1.53147 -1.77717 0
M  V30 6884 C 644.9 1.609 -0.662368 0
M  V30 6885 O 646.076 1.77747 -0.946991 0
M  V30 6886 C 643.141 2.88948 -1.91598 0
M  V30 6887 C 642.202 2.9114 -3.15493 0
M  V30 6888 C 641.435 4.20464 -3.28703 0
M  V30 6889 O 641.658 5.13981 -2.47345 0
M  V30 6890 O 640.592 4.29368 -4.21813 0
M  V30 6891 H 644.418 1.34357 -2.72363 0
M  V30 6892 H 642.003 0.601373 -1.36762 0
M  V30 6893 H 643.885 3.69505 -2.02593 0
M  V30 6894 H 642.56 3.07821 -1.00141 0
M  V30 6895 H 641.467 2.09461 -3.09962 0
M  V30 6896 H 642.8 2.77216 -4.06709 0
M  V30 6897 N 644.452 1.42507 0.673017 0
M  V30 6898 C 645.729 1.33554 1.42908 0
M  V30 6899 C 646.109 -0.0262211 2.11084 0
M  V30 6900 O 645.457 -1.04181 2.03368 0
M  V30 6901 C 645.667 2.50498 2.43006 0
M  V30 6902 C 647.015 2.92694 3.07596 0
M  V30 6903 O 648.039 2.50401 2.53333 0
M  V30 6904 O 646.898 3.65899 4.05931 0
M  V30 6905 H 643.992 0.526785 0.637516 0
M  V30 6906 H 646.538 1.54518 0.701591 0
M  V30 6907 H 645.31 3.41272 1.9144 0
M  V30 6908 H 644.933 2.3153 3.23233 0
M  V30 6909 N 645.93 -0.909495 1.28709 0
M  V30 6910 C 646.86 -2.0291 1.15542 0
M  V30 6911 C 647.841 -1.7002 0.0521017 0
M  V30 6912 O 649.026 -1.92835 0.229849 0
M  V30 6913 C 646.156 -3.37458 0.820935 0
M  V30 6914 C 645.11 -3.84524 1.87949 0
M  V30 6915 C 644.436 -5.16086 1.39854 0
M  V30 6916 C 645.736 -4.05918 3.28676 0
M  V30 6917 H 647.43 -2.14183 2.09203 0
M  V30 6918 H 644.976 -1.02913 1.00722 0
M  V30 6919 H 646.929 -4.1528 0.715571 0
M  V30 6920 H 645.653 -3.26249 -0.151374 0
M  V30 6921 H 644.312 -3.08911 1.97408 0
M  V30 6922 H 643.96 -5.01284 0.41518 0
M  V30 6923 H 643.66 -5.48547 2.1064 0
M  V30 6924 H 645.184 -5.96459 1.30649 0
M  V30 6925 H 646.598 -4.74252 3.22115 0
M  V30 6926 H 644.995 -4.49717 3.97334 0
M  V30 6927 H 646.065 -3.10583 3.72379 0
M  V30 6928 N 647.408 -1.11026 -1.11852 0
M  V30 6929 C 648.633 -0.879064 -1.87849 0
M  V30 6930 C 649.058 0.565406 -1.79401 0
M  V30 6931 O 648.416 1.39886 -1.15333 0
M  V30 6932 C 648.464 -1.33985 -3.34784 0
M  V30 6933 O 647.568 -0.508803 -4.09249 0
M  V30 6934 H 646.909 -0.316992 -0.583448 0
M  V30 6935 H 649.439 -1.47863 -1.41413 0
M  V30 6936 H 649.449 -1.33248 -3.85628 0
M  V30 6937 H 648.124 -2.39172 -3.40249 0
M  V30 6938 H 646.701 -0.581913 -3.68332 0
M  V30 6939 N 648.886 1.2938 -0.899927 0
M  V30 6940 C 650.302 1.48052 -0.596059 0
M  V30 6941 C 650.502 1.82114 0.862372 0
M  V30 6942 O 649.558 1.91774 1.64253 0
M  V30 6943 C 650.871 2.59332 -1.52208 0
M  V30 6944 C 652.419 2.73208 -1.5273 0
M  V30 6945 C 652.894 3.87617 -2.43961 0
M  V30 6946 N 654.385 3.9495 -2.42009 0
M  V30 6947 C 655.12 4.82824 -3.09303 0
M  V30 6948 N 654.616 5.75387 -3.85877 0
M  V30 6949 N 656.409 4.76317 -2.98459 0
M  V30 6950 H 648.56 1.05546 -1.8432 0
M  V30 6951 H 650.823 0.524314 -0.78981 0
M  V30 6952 H 650.529 2.41029 -2.56121 0
M  V30 6953 H 650.403 3.56139 -1.24278 0
M  V30 6954 H 652.79 2.90908 -0.495614 0
M  V30 6955 H 652.871 1.76975 -1.84698 0
M  V30 6956 H 652.515 3.70672 -3.47224 0
M  V30 6957 H 652.445 4.83218 -2.09303 0
M  V30 6958 H 654.936 3.28744 -1.86375 0
M  V30 6959 H 655.249 6.39235 -4.34279 0
M  V30 6960 H 653.594 5.75272 -3.89984 0
M  V30 6961 H 656.785 4.0299 -2.38152 0
M  V30 6962 H 656.958 5.44589 -3.51179 0
M  V30 6963 N 650.364 0.662433 1.43002 0
M  V30 6964 C 651.611 0.179591 2.01702 0
M  V30 6965 C 651.939 -1.20964 1.52309 0
M  V30 6966 O 651.194 -1.82343 0.7106 0
M  V30 6967 C 651.493 0.149363 3.57088 0
M  V30 6968 C 651.159 1.48158 4.25864 0
M  V30 6969 C 649.821 1.84638 4.44367 0
M  V30 6970 C 652.173 2.35953 4.64732 0
M  V30 6971 C 649.501 3.08561 4.99006 0
M  V30 6972 C 651.853 3.59176 5.20745 0
M  V30 6973 C 650.517 3.95841 5.37463 0
M  V30 6974 H 649.787 0.0657172 0.73808 0
M  V30 6975 H 652.434 0.854968 1.71355 0
M  V30 6976 H 650.739 -0.609491 3.8703 0
M  V30 6977 H 652.436 -0.241241 4.00274 0
M  V30 6978 H 649.026 1.18777 4.11813 0
M  V30 6979 H 653.21 2.09058 4.50121 0
M  V30 6980 H 648.466 3.37005 5.10135 0
M  V30 6981 H 652.64 4.27417 5.49807 0
M  V30 6982 H 650.267 4.91942 5.79566 0
M  V30 6983 N 651.842 -1.52309 0.404946 0
M  V30 6984 C 653.091 -2.00952 -0.173529 0
M  V30 6985 C 653.404 -1.29512 -1.46581 0
M  V30 6986 O 654.61 -1.6895 -2.12528 0
M  V30 6987 C 653.066 -3.58097 -0.359801 0
M  V30 6988 C 652.674 -4.38449 0.920138 0
M  V30 6989 C 654.418 -4.14984 -0.893794 0
M  V30 6990 C 652.325 -5.87227 0.701285 0
M  V30 6991 H 651.255 -0.750871 -0.0686244 0
M  V30 6992 H 653.906 -1.75687 0.529749 0
M  V30 6993 H 652.288 -3.79675 -1.12531 0
M  V30 6994 H 653.462 -4.28633 1.69147 0
M  V30 6995 H 651.777 -3.92859 1.38024 0
M  V30 6996 H 654.374 -5.23813 -1.0735 0
M  V30 6997 H 654.717 -3.72072 -1.8673 0
M  V30 6998 H 655.25 -3.97358 -0.187453 0
M  V30 6999 H 651.989 -6.34491 1.64624 0
M  V30 7000 H 651.509 -5.99792 -0.0308288 0
M  V30 7001 H 653.188 -6.46096 0.341846 0
M  V30 7002 N 653.32 -0.135238 -1.57019 0
M  V30 7003 C 654.25 0.805235 -2.19176 0
M  V30 7004 C 655.231 1.2656 -1.13651 0
M  V30 7005 O 656.416 1.32528 -1.4195 0
M  V30 7006 C 653.546 2.04914 -2.80406 0
M  V30 7007 C 652.5 1.72598 -3.91655 0
M  V30 7008 C 651.826 3.04154 -4.39766 0
M  V30 7009 C 653.126 0.981709 -5.12991 0
M  V30 7010 H 654.82 0.287232 -2.98019 0
M  V30 7011 H 652.366 0.136714 -1.4335 0
M  V30 7012 H 654.319 2.71178 -3.22553 0
M  V30 7013 H 653.043 2.59067 -1.98877 0
M  V30 7014 H 651.702 1.08717 -3.50109 0
M  V30 7015 H 651.35 3.56274 -3.55075 0
M  V30 7016 H 651.05 2.83299 -5.14796 0
M  V30 7017 H 652.574 3.71509 -4.84576 0
M  V30 7018 H 653.988 1.5462 -5.52056 0
M  V30 7019 H 652.385 0.873533 -5.93708 0
M  V30 7020 H 653.455 -0.0286887 -4.84892 0
M  V30 7021 O 654.837 1.615 0.00369385 0
M  V30 7022 H 655.528 1.8348 0.620863 0
M  V30 END ATOM
M  V30 BEGIN BOND
M  V30 END BOND
M  V30 END CTAB
M  END
$$$$
