drugbank_target|P0A6Q3 3-hydroxydecanoyl-[acyl-carrier-protein] dehydratase (DB03813)
 OpenBabel12092120453D

  0  0  0     0  0            999 V3000
M  V30 BEGIN CTAB
M  V30 COUNTS 2673 2702 0 0 0
M  V30 BEGIN ATOM
M  V30 1 H -0.908 1.98254 -0.117106 0
M  V30 2 N 0 1.576 0 0
M  V30 3 C 0.933 2.03868 1.02534 0
M  V30 4 C 1.911 0.928543 1.3348 0
M  V30 5 O 3.095 1.19667 1.45644 0
M  V30 6 C 0.222 2.43627 2.35294 0
M  V30 7 C -0.732 3.65373 2.2001 0
M  V30 8 S 0.101 5.13292 1.52614 0
M  V30 9 C 1.257 5.56322 2.86805 0
M  V30 10 H 1.49 2.90518 0.631377 0
M  V30 11 H -0.977 1.52953 0.210867 0
M  V30 12 H 0.981 2.67203 3.11629 0
M  V30 13 H -0.358 1.57376 2.7183 0
M  V30 14 H -1.165 3.90944 3.18086 0
M  V30 15 H -1.563 3.418 1.51819 0
M  V30 16 H 0.729 5.58782 3.83104 0
M  V30 17 H 1.672 6.56266 2.65933 0
M  V30 18 H 2.08 4.83886 2.90714 0
M  V30 19 N 1.4781 -0.272755 1.55222 0
M  V30 20 C 2.7241 -1.00581 1.761 0
M  V30 21 C 3.0571 -1.85932 0.560625 0
M  V30 22 O 2.3321 -1.89416 -0.441801 0
M  V30 23 C 2.6151 -1.88816 3.06628 0
M  V30 24 C 2.4681 -1.06457 4.37021 0
M  V30 25 C 3.7871 -2.8752 3.33197 0
M  V30 26 H 0.9061 -0.364244 0.640699 0
M  V30 27 H 3.5481 -0.278189 1.87952 0
M  V30 28 H 1.6981 -2.50856 2.96654 0
M  V30 29 H 3.3701 -0.464863 4.58952 0
M  V30 30 H 1.6131 -0.368043 4.32236 0
M  V30 31 H 2.2841 -1.71514 5.24678 0
M  V30 32 H 4.7601 -2.35615 3.42965 0
M  V30 33 H 3.6361 -3.46399 4.25792 0
M  V30 34 H 3.8971 -3.62657 2.52849 0
M  V30 35 N 2.9562 -1.48159 -0.537278 0
M  V30 36 C 4.2332 -1.46291 -1.29839 0
M  V30 37 C 4.6132 -0.170613 -2.10409 0
M  V30 38 O 3.9612 0.847746 -2.12192 0
M  V30 39 C 4.1712 -2.72055 -2.18603 0
M  V30 40 C 5.5192 -3.20087 -2.7898 0
M  V30 41 O 6.5432 -2.72921 -2.28894 0
M  V30 42 O 5.4022 -4.02138 -3.70064 0
M  V30 43 H 2.4962 -0.583906 -0.585647 0
M  V30 44 H 5.0422 -1.60384 -0.554534 0
M  V30 45 H 3.8142 -3.57628 -1.58801 0
M  V30 46 H 3.4372 -2.60646 -3.00249 0
M  V30 47 N 4.4343 0.785586 -1.36625 0
M  V30 48 C 5.3813 1.89838 -1.31264 0
M  V30 49 C 6.3513 1.65115 -0.180633 0
M  V30 50 O 7.5363 1.87222 -0.36777 0
M  V30 51 C 4.6763 3.26706 -1.11163 0
M  V30 52 C 3.7893 3.63476 -2.33472 0
M  V30 53 C 2.9243 4.89481 -2.06353 0
M  V30 54 C 1.9633 5.18941 -3.24602 0
M  V30 55 N 1.1003 6.36131 -2.97123 0
M  V30 56 H 5.9403 1.93756 -2.26413 0
M  V30 57 H 3.4773 0.947454 -1.12524 0
M  V30 58 H 5.4353 4.05639 -0.975337 0
M  V30 59 H 4.0653 3.222 -0.196674 0
M  V30 60 H 3.1173 2.79636 -2.57891 0
M  V30 61 H 4.4293 3.81193 -3.21704 0
M  V30 62 H 3.5833 5.76288 -1.89675 0
M  V30 63 H 2.3223 4.73841 -1.15437 0
M  V30 64 H 1.3273 4.30615 -3.41834 0
M  V30 65 H 2.5523 5.36498 -4.16349 0
M  V30 66 H 0.4983 6.21875 -2.08823 0
M  V30 67 H 0.4153 6.54198 -3.78894 0
M  V30 68 H 1.6833 7.2591 -2.84033 0
M  V30 69 N 5.9124 1.20967 1.01018 0
M  V30 70 C 7.3284 0.965905 1.27053 0
M  V30 71 C 7.5284 -0.350785 1.98423 0
M  V30 72 O 6.5844 -1.07773 2.28344 0
M  V30 73 C 7.8974 2.15294 2.09926 0
M  V30 74 C 9.4454 2.19463 2.23171 0
M  V30 75 C 9.9204 3.3767 3.09424 0
M  V30 76 N 11.4114 3.37724 3.17012 0
M  V30 77 C 12.1464 4.25837 3.83993 0
M  V30 78 N 11.6424 5.24138 4.53047 0
M  V30 79 N 13.4354 4.1366 3.80581 0
M  V30 80 H 5.5864 2.0565 0.531194 0
M  V30 81 H 7.8494 0.90024 0.297106 0
M  V30 82 H 7.5554 3.10684 1.64828 0
M  V30 83 H 7.4294 2.13923 3.10672 0
M  V30 84 H 9.8164 1.24632 2.6749 0
M  V30 85 H 9.8974 2.2488 1.21912 0
M  V30 86 H 9.5414 4.32791 2.65808 0
M  V30 87 H 9.4714 3.29491 4.10784 0
M  V30 88 H 11.9624 2.6658 2.6785 0
M  V30 89 H 12.2754 5.87684 5.01844 0
M  V30 90 H 10.6204 5.28068 4.5185 0
M  V30 91 H 13.8114 3.36127 3.25785 0
M  V30 92 H 13.9844 4.82538 4.32505 0
M  V30 93 N 7.3905 -1.2043 1.01659 0
M  V30 94 C 8.3005 -2.2689 0.596484 0
M  V30 95 C 9.3165 -1.70107 -0.36599 0
M  V30 96 O 10.4925 -2.00117 -0.226942 0
M  V30 97 C 7.5575 -3.4665 -0.0586659 0
M  V30 98 C 6.6185 -4.18662 0.949751 0
M  V30 99 C 5.8515 -5.32705 0.32577 0
M  V30 100 O 6.0745 -5.63656 -0.874509 0
M  V30 101 O 5.0085 -5.92803 1.04249 0
M  V30 102 H 8.8345 -2.65041 1.4828 0
M  V30 103 H 6.4195 -1.27048 0.786082 0
M  V30 104 H 8.3015 -4.19256 -0.424564 0
M  V30 105 H 6.9765 -3.10375 -0.91918 0
M  V30 106 H 5.8835 -3.48229 1.36702 0
M  V30 107 H 7.2165 -4.58878 1.78023 0
M  V30 108 N 8.8686 -0.792821 -1.36206 0
M  V30 109 C 10.0936 -0.377701 -2.03932 0
M  V30 110 C 10.5186 0.998947 -1.59382 0
M  V30 111 O 9.8766 1.64421 -0.763903 0
M  V30 112 C 9.9246 -0.453635 -3.57735 0
M  V30 113 O 9.0286 0.538151 -4.08874 0
M  V30 114 H 8.3696 -0.159855 -0.644471 0
M  V30 115 H 10.8996 -1.07488 -1.7409 0
M  V30 116 H 10.9096 -0.318464 -4.06755 0
M  V30 117 H 9.5846 -1.45784 -3.89512 0
M  V30 118 H 8.1616 0.364359 -3.71116 0
M  V30 119 N 10.3467 1.47872 -0.545128 0
M  V30 120 C 11.5767 2.06589 -0.0210534 0
M  V30 121 C 11.9847 1.39997 1.27269 0
M  V30 122 O 11.3277 0.486421 1.77143 0
M  V30 123 C 11.3897 3.58574 0.257933 0
M  V30 124 C 11.0537 4.47132 -0.944573 0
M  V30 125 C 12.0507 4.85986 -1.84699 0
M  V30 126 C 9.7357 4.88821 -1.15584 0
M  V30 127 C 11.7297 5.65314 -2.94446 0
M  V30 128 C 9.4167 5.67916 -2.25642 0
M  V30 129 C 10.4147 6.06073 -3.14905 0
M  V30 130 O 10.1027 6.83578 -4.23057 0
M  V30 131 H 9.8347 0.674971 -0.0372899 0
M  V30 132 H 12.3887 1.91037 -0.754599 0
M  V30 133 H 10.6187 3.72295 1.04564 0
M  V30 134 H 12.3077 3.99356 0.72592 0
M  V30 135 H 13.0737 4.54388 -1.69577 0
M  V30 136 H 8.9527 4.58595 -0.470279 0
M  V30 137 H 12.4967 5.95016 -3.64145 0
M  V30 138 H 8.3937 5.98927 -2.40742 0
M  V30 139 H 9.1617 7.01954 -4.20954 0
M  V30 140 N 11.8248 0.280983 1.55075 0
M  V30 141 C 13.0528 -0.337293 2.04132 0
M  V30 142 C 13.4678 -1.4903 1.15912 0
M  V30 143 O 12.8248 -1.81606 0.180459 0
M  V30 144 C 12.8758 -0.812706 3.52246 0
M  V30 145 O 12.5968 0.294387 4.3711 0
M  V30 146 C 14.0978 -1.4982 4.17216 0
M  V30 147 H 11.3178 -0.0761638 0.666663 0
M  V30 148 H 13.8618 0.414787 2.00249 0
M  V30 149 H 12.0168 -1.51486 3.56554 0
M  V30 150 H 12.4308 -0.0721325 5.2445 0
M  V30 151 H 13.9048 -1.7822 5.22438 0
M  V30 152 H 14.3818 -2.43168 3.65741 0
M  V30 153 H 14.9878 -0.839742 4.16927 0
M  V30 154 N 13.3029 -1.57598 0.00835791 0
M  V30 155 C 14.2499 -2.08945 -0.980346 0
M  V30 156 C 15.2199 -0.986738 -1.33614 0
M  V30 157 O 16.4049 -1.25968 -1.43306 0
M  V30 158 C 13.5449 -2.60425 -2.26435 0
M  V30 159 C 12.6579 -3.84628 -1.96685 0
M  V30 160 C 11.7929 -4.24579 -3.19228 0
M  V30 161 C 10.8319 -5.41596 -2.85202 0
M  V30 162 N 9.9689 -5.768 -4.00307 0
M  V30 163 H 14.8089 -2.93148 -0.535551 0
M  V30 164 H 12.3459 -1.44912 -0.252776 0
M  V30 165 H 14.3039 -2.88354 -3.01509 0
M  V30 166 H 12.9339 -1.79083 -2.68568 0
M  V30 167 H 11.9859 -3.63556 -1.11942 0
M  V30 168 H 13.2979 -4.69796 -1.67611 0
M  V30 169 H 12.4519 -4.53834 -4.02641 0
M  V30 170 H 11.1909 -3.38137 -3.51447 0
M  V30 171 H 10.1959 -5.12056 -2.00198 0
M  V30 172 H 11.4209 -6.29721 -2.54222 0
M  V30 173 H 9.3669 -4.93316 -4.32407 0
M  V30 174 H 9.2839 -6.5656 -3.74786 0
M  V30 175 H 10.5519 -6.10652 -4.84484 0
M  V30 176 N 14.781 0.264519 -1.55364 0
M  V30 177 C 15.691 1.34902 -1.91934 0
M  V30 178 C 16.707 1.53595 -0.817593 0
M  V30 179 O 17.883 1.67558 -1.11742 0
M  V30 180 C 14.948 2.68676 -2.19121 0
M  V30 181 C 14.009 2.58657 -3.4263 0
M  V30 182 C 13.242 3.86051 -3.68511 0
M  V30 183 O 13.465 4.87126 -2.96757 0
M  V30 184 O 12.399 3.85744 -4.62045 0
M  V30 185 H 16.225 1.06883 -2.8427 0
M  V30 186 H 13.81 0.463775 -1.42019 0
M  V30 187 H 15.692 3.47759 -2.37995 0
M  V30 188 H 14.367 2.96463 -1.29966 0
M  V30 189 H 13.274 1.7792 -3.29082 0
M  V30 190 H 14.607 2.35818 -4.32031 0
M  V30 191 N 16.2591 1.48442 0.529413 0
M  V30 192 C 17.5361 1.46978 1.29062 0
M  V30 193 C 17.9161 0.181769 2.10316 0
M  V30 194 O 17.2641 -0.836481 2.12639 0
M  V30 195 C 17.4741 2.7321 2.17157 0
M  V30 196 C 18.8221 3.21562 2.77278 0
M  V30 197 O 19.8461 2.74131 2.27444 0
M  V30 198 O 18.7051 4.04094 3.67927 0
M  V30 199 H 15.7991 0.587003 0.582543 0
M  V30 200 H 18.3451 1.60676 0.546021 0
M  V30 201 H 17.1171 3.58465 1.56903 0
M  V30 202 H 16.7401 2.62235 2.98862 0
M  V30 203 N 17.7372 -0.778329 1.37039 0
M  V30 204 C 18.6672 -1.90546 1.34962 0
M  V30 205 C 19.6482 -1.68681 0.219274 0
M  V30 206 O 20.8332 -1.89634 0.418624 0
M  V30 207 C 17.9632 -3.27734 1.14925 0
M  V30 208 C 16.9172 -3.64147 2.24902 0
M  V30 209 C 16.2432 -4.99806 1.89996 0
M  V30 210 C 17.5432 -3.71579 3.67051 0
M  V30 211 H 19.2372 -1.92541 2.29277 0
M  V30 212 H 16.7832 -0.924948 1.10366 0
M  V30 213 H 18.7362 -4.06215 1.12104 0
M  V30 214 H 17.4602 -3.26154 0.170631 0
M  V30 215 H 16.1192 -2.8797 2.26868 0
M  V30 216 H 15.7672 -4.94759 0.906796 0
M  V30 217 H 15.4672 -5.25139 2.63634 0
M  V30 218 H 16.9912 -5.80694 1.88749 0
M  V30 219 H 18.4052 -4.40227 3.67251 0
M  V30 220 H 16.8022 -4.08405 4.39688 0
M  V30 221 H 17.8722 -2.72404 4.01154 0
M  V30 222 N 19.2153 -1.21501 -1.00376 0
M  V30 223 C 20.1453 -0.999478 -2.11028 0
M  V30 224 C 21.1263 0.0759671 -1.6993 0
M  V30 225 O 22.3113 -0.0841106 -1.94018 0
M  V30 226 C 19.4413 -0.564709 -3.42678 0
M  V30 227 C 18.3953 -1.58486 -3.97576 0
M  V30 228 C 17.7213 -1.00628 -5.25146 0
M  V30 229 C 19.0213 -2.97204 -4.29496 0
M  V30 230 H 20.7153 -1.92495 -2.29317 0
M  V30 231 H 18.2613 -0.92693 -1.102 0
M  V30 232 H 20.2143 -0.401091 -4.19487 0
M  V30 233 H 18.9383 0.396411 -3.24185 0
M  V30 234 H 17.5973 -1.73606 -3.22888 0
M  V30 235 H 17.2453 -0.0368439 -5.02987 0
M  V30 236 H 16.9453 -1.68771 -5.62841 0
M  V30 237 H 18.4693 -0.854015 -6.04598 0
M  V30 238 H 19.8833 -2.8552 -4.97143 0
M  V30 239 H 18.2803 -3.62372 -4.78338 0
M  V30 240 H 19.3503 -3.47956 -3.3772 0
M  V30 241 N 20.6934 1.19889 -1.02296 0
M  V30 242 C 21.6564 2.21116 -0.603351 0
M  V30 243 C 22.6564 1.5738 0.329884 0
M  V30 244 O 23.8464 1.73802 0.117702 0
M  V30 245 C 20.9784 3.40696 0.117992 0
M  V30 246 H 22.1714 2.59754 -1.49893 0
M  V30 247 H 19.7244 1.33463 -0.813468 0
M  V30 248 H 20.4594 3.07569 1.0282 0
M  V30 249 H 20.2444 3.88188 -0.552511 0
M  V30 250 H 21.7344 4.15692 0.398696 0
M  V30 251 N 22.1715 0.800033 1.35784 0
M  V30 252 C 23.3965 0.388511 2.03729 0
M  V30 253 C 23.8215 -0.990481 1.5991 0
M  V30 254 O 23.1795 -1.64013 0.772612 0
M  V30 255 C 23.2275 0.4726 3.5749 0
M  V30 256 O 22.3315 -0.51646 4.09153 0
M  V30 257 H 21.6725 0.163271 0.643614 0
M  V30 258 H 24.2025 1.0841 1.73518 0
M  V30 259 H 24.2125 0.34003 4.06581 0
M  V30 260 H 22.8875 1.47848 3.88734 0
M  V30 261 H 21.4645 -0.344673 3.71304 0
M  V30 262 N 23.6496 -1.47581 0.552962 0
M  V30 263 C 24.8976 -2.02082 0.0272703 0
M  V30 264 C 25.2186 -1.4301 -1.32563 0
M  V30 265 O 24.4886 -0.603745 -1.86365 0
M  V30 266 H 23.0686 -0.746966 0.00709182 0
M  V30 267 H 25.7306 -1.81033 0.722008 0
M  V30 268 H 24.8266 -3.12034 -0.0639951 0
M  V30 269 N 25.1277 -0.289203 -1.54924 0
M  V30 270 C 26.5437 0.0645403 -1.59469 0
M  V30 271 C 26.7437 1.53419 -1.30632 0
M  V30 272 O 25.7997 2.2852 -1.074 0
M  V30 273 C 27.1127 -0.32278 -2.98963 0
M  V30 274 C 28.6607 -0.270564 -3.11828 0
M  V30 275 C 29.1357 -0.632532 -4.53611 0
M  V30 276 N 30.6267 -0.584617 -4.59496 0
M  V30 277 C 31.3617 -0.837314 -5.67254 0
M  V30 278 N 30.8577 -1.15536 -6.83098 0
M  V30 279 N 32.6507 -0.765166 -5.56868 0
M  V30 280 H 24.8017 -1.24714 -1.71931 0
M  V30 281 H 27.0647 -0.504809 -0.802416 0
M  V30 282 H 26.7707 -1.34541 -3.24948 0
M  V30 283 H 26.6447 0.32944 -3.75759 0
M  V30 284 H 29.0317 0.742805 -2.85598 0
M  V30 285 H 29.1127 -0.957242 -2.37214 0
M  V30 286 H 28.7567 -1.64365 -4.80569 0
M  V30 287 H 28.6867 0.07609 -5.26545 0
M  V30 288 H 31.1777 -0.349248 -3.76283 0
M  V30 289 H 31.4907 -1.33447 -7.61191 0
M  V30 290 H 29.8357 -1.19328 -6.84679 0
M  V30 291 H 33.0267 -0.516432 -4.65243 0
M  V30 292 H 33.1997 -0.965477 -6.40767 0
M  V30 293 N 26.6058 1.57591 -0.0167156 0
M  V30 294 C 27.8538 1.90906 0.663285 0
M  V30 295 C 28.1748 0.892509 1.73376 0
M  V30 296 O 27.4448 -0.0677623 1.95783 0
M  V30 297 H 26.0248 0.704637 0.247983 0
M  V30 298 H 28.6868 1.94803 -0.0615909 0
M  V30 299 H 27.7828 2.9116 1.12393 0
M  V30 300 N 28.0839 -0.256276 1.55502 0
M  V30 301 C 28.9939 -1.33882 1.92647 0
M  V30 302 C 30.0099 -1.53159 0.825727 0
M  V30 303 O 31.1859 -1.66963 1.12629 0
M  V30 304 C 28.2509 -2.6751 2.20543 0
M  V30 305 C 27.3119 -2.56836 3.43997 0
M  V30 306 C 26.5449 -3.84092 3.70553 0
M  V30 307 O 26.7679 -4.85545 2.99336 0
M  V30 308 O 25.7019 -3.83288 4.64084 0
M  V30 309 H 29.5279 -1.05374 2.84833 0
M  V30 310 H 27.1129 -0.456237 1.42263 0
M  V30 311 H 28.9949 -3.46492 2.39835 0
M  V30 312 H 27.6699 -2.9577 1.31536 0
M  V30 313 H 26.5769 -1.76172 3.30021 0
M  V30 314 H 27.9099 -2.33523 4.33275 0
M  V30 315 N 29.562 -1.4872 -0.521534 0
M  V30 316 C 30.492 -1.66771 -1.63431 0
M  V30 317 C 31.473 -0.516499 -1.62069 0
M  V30 318 O 32.658 -0.750013 -1.79132 0
M  V30 319 C 29.788 -1.71515 -3.01993 0
M  V30 320 C 28.742 -2.86222 -3.18216 0
M  V30 321 C 28.068 -2.76061 -4.57924 0
M  V30 322 C 29.368 -4.27419 -3.00184 0
M  V30 323 H 31.062 -2.59932 -1.48579 0
M  V30 324 H 28.608 -1.25089 -0.713358 0
M  V30 325 H 30.561 -1.82731 -3.7972 0
M  V30 326 H 29.285 -0.749393 -3.17886 0
M  V30 327 H 27.944 -2.74575 -2.42908 0
M  V30 328 H 27.592 -1.77437 -4.70665 0
M  V30 329 H 27.292 -3.53037 -4.69722 0
M  V30 330 H 28.816 -2.89256 -5.37739 0
M  V30 331 H 30.23 -4.39855 -3.67697 0
M  V30 332 H 28.627 -5.05458 -3.2347 0
M  V30 333 H 29.697 -4.43293 -1.96518 0
M  V30 334 N 31.0401 0.771051 -1.3745 0
M  V30 335 C 32.2871 1.52963 -1.32697 0
M  V30 336 C 32.6151 1.94299 0.0883274 0
M  V30 337 O 31.8701 1.64397 1.0617 0
M  V30 338 C 32.1691 2.80676 -2.2126 0
M  V30 339 C 31.8351 2.58389 -3.69521 0
M  V30 340 C 30.4971 2.52019 -4.09927 0
M  V30 341 C 32.8491 2.38469 -4.63446 0
M  V30 342 C 30.1771 2.23721 -5.42371 0
M  V30 343 C 32.5291 2.11694 -5.96128 0
M  V30 344 C 31.1931 2.03769 -6.35637 0
M  V30 345 H 30.4631 0.559732 -0.485573 0
M  V30 346 H 33.1101 0.888083 -1.69662 0
M  V30 347 H 31.4151 3.49392 -1.77291 0
M  V30 348 H 33.1121 3.38557 -2.14895 0
M  V30 349 H 29.7021 2.6421 -3.37478 0
M  V30 350 H 33.8861 2.4238 -4.33089 0
M  V30 351 H 29.1421 2.16081 -5.71943 0
M  V30 352 H 33.3161 1.9528 -6.6846 0
M  V30 353 H 30.9431 1.81606 -7.38189 0
M  V30 354 N 32.5182 1.22032 0.997298 0
M  V30 355 C 33.7662 1.04016 1.73278 0
M  V30 356 C 34.0872 -0.426255 1.90284 0
M  V30 357 O 33.3572 -1.30694 1.45931 0
M  V30 358 H 31.9372 0.381897 0.642 0
M  V30 359 H 34.5992 1.5347 1.20137 0
M  V30 360 H 33.6952 1.51441 2.72896 0
M  V30 361 N 33.9963 -1.19345 1.0293 0
M  V30 362 C 34.9593 -2.20793 0.615069 0
M  V30 363 C 35.9593 -1.57553 -0.321533 0
M  V30 364 O 37.1493 -1.73862 -0.108483 0
M  V30 365 C 34.2813 -3.40754 -0.0999222 0
M  V30 366 H 35.4743 -2.58955 1.51269 0
M  V30 367 H 33.0273 -1.3303 0.820534 0
M  V30 368 H 33.7623 -3.0811 -1.01187 0
M  V30 369 H 33.5473 -3.87889 0.57309 0
M  V30 370 H 35.0373 -4.15898 -0.376645 0
M  V30 371 N 35.4744 -0.807222 -1.35358 0
M  V30 372 C 36.4214 -0.216037 -2.29787 0
M  V30 373 C 37.3914 0.650278 -1.52842 0
M  V30 374 O 38.5764 0.595227 -1.81278 0
M  V30 375 C 35.7164 0.628893 -3.39321 0
M  V30 376 C 34.8294 -0.257927 -4.31229 0
M  V30 377 C 33.9644 0.595069 -5.27856 0
M  V30 378 C 33.0034 -0.292111 -6.11403 0
M  V30 379 N 32.1404 0.520895 -7.00165 0
M  V30 380 H 36.9804 -1.02671 -2.79755 0
M  V30 381 H 34.5174 -0.517839 -1.37684 0
M  V30 382 H 36.4754 1.13393 -4.01494 0
M  V30 383 H 35.1054 1.40482 -2.90628 0
M  V30 384 H 34.1574 -0.881076 -3.70056 0
M  V30 385 H 35.4694 -0.940759 -4.89848 0
M  V30 386 H 34.6234 1.16522 -5.95405 0
M  V30 387 H 33.3624 1.31146 -4.69736 0
M  V30 388 H 32.3674 -0.874525 -5.428 0
M  V30 389 H 33.5924 -1.00638 -6.71602 0
M  V30 390 H 31.5384 1.22125 -6.44532 0
M  V30 391 H 31.4554 -0.103877 -7.55929 0
M  V30 392 H 32.7234 1.0743 -7.72062 0
M  V30 393 N 36.9525 1.47285 -0.560781 0
M  V30 394 C 38.2005 2.02064 -0.0379868 0
M  V30 395 C 38.5215 1.43711 1.31803 0
M  V30 396 O 37.7915 0.61362 1.86042 0
M  V30 397 H 36.3715 0.746918 -0.0110531 0
M  V30 398 H 39.0335 1.80648 -0.731598 0
M  V30 399 H 38.1295 3.12064 0.0474463 0
M  V30 400 N 38.4306 0.297415 1.54768 0
M  V30 401 C 39.8416 -0.195947 1.85669 0
M  V30 402 C 40.1926 -1.53707 1.21937 0
M  V30 403 O 39.3176 -2.10164 0.515754 0
M  V30 404 C 39.9126 -0.362318 3.36857 0
M  V30 405 C 38.4716 -0.799901 3.67802 0
M  V30 406 C 37.6186 0.0938578 2.77141 0
M  V30 407 H 40.5696 0.518538 1.4999 0
M  V30 408 H 40.5906 -1.19745 3.61167 0
M  V30 409 H 40.1026 0.613921 3.83214 0
M  V30 410 H 38.2036 -1.78682 3.26961 0
M  V30 411 H 38.3166 -0.621773 4.75048 0
M  V30 412 H 36.6806 -0.426254 2.51108 0
M  V30 413 H 37.4636 1.06639 3.26318 0
M  V30 414 N 39.9087 -1.5758 0.0250728 0
M  V30 415 C 40.8407 -2.06869 -0.986796 0
M  V30 416 C 41.8537 -0.991332 -1.29137 0
M  V30 417 O 43.0427 -1.26761 -1.25674 0
M  V30 418 C 40.1427 -2.47486 -2.31525 0
M  V30 419 C 39.3157 -3.78253 -2.19643 0
M  V30 420 C 38.3747 -4.05464 -3.35388 0
M  V30 421 O 37.4007 -4.75774 -3.12454 0
M  V30 422 N 38.6027 -3.55321 -4.59051 0
M  V30 423 H 41.3677 -2.94302 -0.566276 0
M  V30 424 H 38.9287 -1.6109 -0.161776 0
M  V30 425 H 40.9207 -2.62785 -3.07776 0
M  V30 426 H 39.4907 -1.65441 -2.65232 0
M  V30 427 H 38.7107 -3.7279 -1.28144 0
M  V30 428 H 39.9987 -4.63936 -2.08903 0
M  V30 429 H 39.3967 -2.98431 -4.80578 0
M  V30 430 H 37.9537 -3.75905 -5.32483 0
M  V30 431 N 41.3868 0.248026 -1.55636 0
M  V30 432 C 42.3168 1.31079 -1.93237 0
M  V30 433 C 43.2978 1.50264 -0.797174 0
M  V30 434 O 44.4828 1.62891 -1.05737 0
M  V30 435 C 41.6128 2.66575 -2.22609 0
M  V30 436 C 40.5668 2.62087 -3.3837 0
M  V30 437 C 39.8928 4.01369 -3.53281 0
M  V30 438 C 41.1928 2.19171 -4.7409 0
M  V30 439 H 42.8868 0.998556 -2.82257 0
M  V30 440 H 40.4328 0.47891 -1.35803 0
M  V30 441 H 42.3858 3.41057 -2.47503 0
M  V30 442 H 41.1098 2.99432 -1.30414 0
M  V30 443 H 39.7688 1.90063 -3.13483 0
M  V30 444 H 39.4168 4.31489 -2.58508 0
M  V30 445 H 39.1168 3.99254 -4.31127 0
M  V30 446 H 40.6408 4.77552 -3.80495 0
M  V30 447 H 42.0548 2.83384 -4.98363 0
M  V30 448 H 40.4518 2.2817 -5.5503 0
M  V30 449 H 41.5218 1.14336 -4.71227 0
M  V30 450 N 42.8649 1.48995 0.513639 0
M  V30 451 C 44.2759 1.5119 1.09537 0
M  V30 452 C 44.6269 0.290906 1.94031 0
M  V30 453 O 43.7519 -0.60049 2.07902 0
M  V30 454 C 44.3469 2.73964 1.99322 0
M  V30 455 C 42.9059 2.78978 2.52682 0
M  V30 456 C 42.0529 2.44934 1.30009 0
M  V30 457 H 45.0039 1.55875 0.298125 0
M  V30 458 H 45.0249 2.53409 2.83838 0
M  V30 459 H 44.5369 3.62813 1.37799 0
M  V30 460 H 42.6379 1.94378 3.1788 0
M  V30 461 H 42.7509 3.8083 2.90698 0
M  V30 462 H 41.1149 1.9644 1.62122 0
M  V30 463 H 41.8979 3.36043 0.702131 0
M  V30 464 N 44.343 -0.763751 1.37857 0
M  V30 465 C 45.306 -1.85889 1.34081 0
M  V30 466 C 46.306 -1.58949 0.243277 0
M  V30 467 O 47.496 -1.66882 0.499589 0
M  V30 468 C 44.628 -3.23176 1.08489 0
M  V30 469 H 45.821 -1.90648 2.31502 0
M  V30 470 H 43.374 -0.964367 1.23003 0
M  V30 471 H 44.109 -3.24091 0.116318 0
M  V30 472 H 43.894 -3.44124 1.8794 0
M  V30 473 H 45.384 -4.03254 1.08517 0
M  V30 474 N 45.8211 -1.22559 -0.990812 0
M  V30 475 C 47.2321 -1.04791 -1.54518 0
M  V30 476 C 47.5831 0.387998 -1.92325 0
M  V30 477 O 46.7081 1.27328 -1.74976 0
M  V30 478 C 47.3031 -1.896 -2.80779 0
M  V30 479 C 45.8621 -1.76124 -3.32652 0
M  V30 480 C 45.0091 -1.8594 -2.05722 0
M  V30 481 H 47.9601 -1.36374 -0.811662 0
M  V30 482 H 47.9811 -1.41464 -3.53225 0
M  V30 483 H 47.4931 -2.94101 -2.53231 0
M  V30 484 H 45.5941 -0.743643 -3.65104 0
M  V30 485 H 45.7071 -2.58913 -4.03114 0
M  V30 486 H 44.0711 -1.29403 -2.19379 0
M  V30 487 H 44.8541 -2.91976 -1.80568 0
M  V30 488 N 47.2992 1.18797 -1.03562 0
M  V30 489 C 48.2472 2.24297 -0.615905 0
M  V30 490 C 49.2412 1.65643 0.354808 0
M  V30 491 O 50.4472 1.78618 0.22265 0
M  V30 492 H 46.8222 0.729909 -0.180934 0
M  V30 493 H 48.7932 2.5701 -1.5162 0
M  V30 494 C 47.5422 3.47698 0.0104735 0
M  V30 495 H 46.8652 3.93125 -0.727509 0
M  V30 496 H 48.3052 4.23159 0.266995 0
M  V30 497 C 46.7642 3.12489 1.25905 0
M  V30 498 O 47.2942 3.25761 2.35038 0
M  V30 499 N 45.5002 2.6686 1.15039 0
M  V30 500 H 45.0472 2.56261 0.262328 0
M  V30 501 H 45.0052 2.43674 1.98672 0
M  V30 502 N 48.7773 0.814389 1.34928 0
M  V30 503 C 49.7103 0.175641 2.27523 0
M  V30 504 C 50.6883 -0.662953 1.48471 0
M  V30 505 O 51.8723 -0.628545 1.77712 0
M  V30 506 C 48.9993 -0.755516 3.30166 0
M  V30 507 C 48.0453 0.00445305 4.265 0
M  V30 508 S 48.8783 1.34582 5.18313 0
M  V30 509 C 50.0343 0.419315 6.24494 0
M  V30 510 H 50.2673 0.960691 2.8135 0
M  V30 511 H 47.8003 0.609846 1.41846 0
M  V30 512 H 49.7583 -1.28723 3.89796 0
M  V30 513 H 48.4193 -1.51402 2.75202 0
M  V30 514 H 47.6123 -0.703077 4.99072 0
M  V30 515 H 47.2143 0.466447 3.7108 0
M  V30 516 H 49.5063 -0.392432 6.76362 0
M  V30 517 H 50.4493 1.11446 6.99275 0
M  V30 518 H 50.8573 0.0115389 5.64499 0
M  V30 519 N 50.2554 -1.46986 0.568584 0
M  V30 520 C 51.1854 -2.32946 -0.160753 0
M  V30 521 C 52.1664 -1.44487 -0.897631 0
M  V30 522 O 53.3514 -1.73327 -0.875867 0
M  V30 523 C 50.4814 -3.26494 -1.18403 0
M  V30 524 C 49.4354 -4.24282 -0.562895 0
M  V30 525 C 48.7614 -5.07236 -1.69163 0
M  V30 526 C 50.0614 -5.19989 0.490761 0
M  V30 527 H 51.7554 -2.94175 0.556916 0
M  V30 528 H 49.3014 -1.4146 0.26927 0
M  V30 529 H 51.2544 -3.85477 -1.70251 0
M  V30 530 H 49.9784 -2.63343 -1.93179 0
M  V30 531 H 48.6374 -3.66541 -0.0656164 0
M  V30 532 H 48.2854 -4.4048 -2.42871 0
M  V30 533 H 47.9854 -5.7345 -1.28174 0
M  V30 534 H 49.5094 -5.6908 -2.21314 0
M  V30 535 H 50.9234 -5.73271 0.0579047 0
M  V30 536 H 49.3204 -5.94469 0.820165 0
M  V30 537 H 50.3904 -4.64777 1.3824 0
M  V30 538 N 51.7335 -0.305618 -1.54608 0
M  V30 539 C 52.6665 0.610536 -2.19881 0
M  V30 540 C 53.6445 1.1294 -1.16976 0
M  V30 541 O 54.8285 1.19673 -1.45638 0
M  V30 542 C 51.9555 1.83583 -2.84631 0
M  V30 543 C 51.0015 1.4498 -4.01102 0
M  V30 544 S 51.8345 0.501793 -5.33144 0
M  V30 545 C 52.9905 1.73478 -6.01379 0
M  V30 546 H 53.2235 0.0560177 -2.97247 0
M  V30 547 H 50.7565 -0.0897434 -1.54139 0
M  V30 548 H 52.7145 2.53898 -3.22562 0
M  V30 549 H 51.3755 2.36152 -2.07102 0
M  V30 550 H 50.5685 2.36236 -4.45206 0
M  V30 551 H 50.1705 0.826553 -3.64752 0
M  V30 552 H 52.4625 2.67473 -6.22467 0
M  V30 553 H 53.4055 1.33622 -6.95378 0
M  V30 554 H 53.8135 1.9136 -5.31076 0
M  V30 555 N 53.2116 1.57565 -0.0334293 0
M  V30 556 C 54.1446 2.05997 0.981866 0
M  V30 557 C 55.1226 0.956647 1.3148 0
M  V30 558 O 56.3066 1.22729 1.43073 0
M  V30 559 C 53.4336 2.48564 2.30074 0
M  V30 560 C 52.4796 3.69958 2.12211 0
M  V30 561 S 53.3126 5.16414 1.41692 0
M  V30 562 C 54.4686 5.6228 2.7494 0
M  V30 563 H 54.7016 2.91792 0.569612 0
M  V30 564 H 52.2346 1.53366 0.178376 0
M  V30 565 H 54.1926 2.73753 3.05892 0
M  V30 566 H 52.8536 1.63106 2.68431 0
M  V30 567 H 52.0466 3.97603 3.09722 0
M  V30 568 H 51.6486 3.44943 1.44535 0
M  V30 569 H 53.9406 5.66783 3.71165 0
M  V30 570 H 54.8836 6.61759 2.51953 0
M  V30 571 H 55.2916 4.89944 2.80384 0
M  V30 572 N 54.6897 -0.239769 1.55765 0
M  V30 573 C 55.9667 -0.990056 1.68693 0
M  V30 574 C 56.3467 -2.03107 0.5754 0
M  V30 575 O 55.6947 -2.24604 -0.42017 0
M  V30 576 C 55.9047 -1.61696 3.09282 0
M  V30 577 C 57.2527 -2.11613 3.6811 0
M  V30 578 O 58.2767 -1.71624 3.12127 0
M  V30 579 O 57.1357 -2.85057 4.66267 0
M  V30 580 H 54.2297 -0.461299 0.686391 0
M  V30 581 H 56.7757 -0.232991 1.68093 0
M  V30 582 H 55.5477 -0.864357 3.81634 0
M  V30 583 H 55.1707 -2.44005 3.13923 0
M  V30 584 N 56.1678 -1.49265 -0.50573 0
M  V30 585 C 57.5838 -1.35923 -0.836486 0
M  V30 586 C 57.7838 -0.388704 -1.97715 0
M  V30 587 O 56.8398 0.181336 -2.51848 0
M  V30 588 C 58.1528 -2.76531 -1.18115 0
M  V30 589 C 59.7008 -2.85197 -1.28964 0
M  V30 590 C 60.1758 -4.26561 -1.66761 0
M  V30 591 N 61.6668 -4.2935 -1.73819 0
M  V30 592 C 62.4018 -5.35693 -2.045 0
M  V30 593 N 61.8978 -6.52287 -2.33438 0
M  V30 594 N 63.6908 -5.23105 -2.05711 0
M  V30 595 H 55.8418 -2.10965 0.246519 0
M  V30 596 H 58.1048 -0.9468 0.0476887 0
M  V30 597 H 57.8108 -3.49226 -0.416398 0
M  V30 598 H 57.6848 -3.11599 -2.1257 0
M  V30 599 H 60.0718 -2.12742 -2.04511 0
M  V30 600 H 60.1528 -2.53718 -0.325704 0
M  V30 601 H 59.7968 -4.99541 -0.917656 0
M  V30 602 H 59.7268 -4.55502 -2.64246 0
M  V30 603 H 62.2178 -3.4526 -1.53635 0
M  V30 604 H 62.5308 -7.29158 -2.56024 0
M  V30 605 H 60.8758 -6.55521 -2.30905 0
M  V30 606 H 64.0668 -4.31026 -1.82577 0
M  V30 607 H 64.2398 -6.06078 -2.29289 0
M  V30 608 N 57.6459 0.756429 -1.3826 0
M  V30 609 C 58.8919 1.51772 -1.34511 0
M  V30 610 C 59.2249 1.94089 0.0656691 0
M  V30 611 O 58.4999 1.65221 1.02626 0
M  V30 612 C 58.7829 2.77226 -2.29821 0
M  V30 613 C 58.6359 2.41065 -3.79747 0
M  V30 614 C 59.9549 3.79236 -2.23312 0
M  V30 615 H 57.0739 0.550578 -0.489931 0
M  V30 616 H 59.7159 0.866607 -1.69086 0
M  V30 617 H 57.8659 3.32784 -2.00467 0
M  V30 618 H 59.5379 1.91303 -4.19763 0
M  V30 619 H 57.7809 1.7356 -3.97567 0
M  V30 620 H 58.4519 3.3081 -4.41892 0
M  V30 621 H 60.9279 3.3321 -2.49219 0
M  V30 622 H 59.8039 4.64714 -2.92116 0
M  V30 623 H 60.0649 4.24615 -1.23102 0
M  V30 624 N 59.124 1.23083 0.984299 0
M  V30 625 C 60.37 1.06214 1.72761 0
M  V30 626 C 60.703 -0.400584 1.90024 0
M  V30 627 O 59.978 -1.29672 1.44967 0
M  V30 628 C 60.261 1.78375 3.12817 0
M  V30 629 C 60.114 3.32296 3.03149 0
M  V30 630 C 61.433 1.54309 4.12161 0
M  V30 631 H 58.552 0.387251 0.627061 0
M  V30 632 H 61.194 1.51536 1.14616 0
M  V30 633 H 59.344 1.39848 3.62457 0
M  V30 634 H 61.016 3.8032 2.61064 0
M  V30 635 H 59.259 3.6153 2.39747 0
M  V30 636 H 59.93 3.77972 4.02295 0
M  V30 637 H 62.406 1.87791 3.71314 0
M  V30 638 H 61.282 2.07281 5.08258 0
M  V30 639 H 61.543 0.477572 4.39513 0
M  V30 640 N 60.6021 -1.18246 1.0419 0
M  V30 641 C 61.5491 -2.2192 0.634037 0
M  V30 642 C 62.5191 -1.62179 -0.358765 0
M  V30 643 O 63.7041 -1.89122 -0.252466 0
M  V30 644 C 60.8441 -3.451 0.00445535 0
M  V30 645 C 59.9571 -4.19174 1.04487 0
M  V30 646 C 59.0921 -5.29813 0.383676 0
M  V30 647 C 58.1311 -5.9566 1.4091 0
M  V30 648 N 57.2681 -6.97834 0.772784 0
M  V30 649 H 62.1081 -2.56164 1.52263 0
M  V30 650 H 59.6451 -1.25843 0.761701 0
M  V30 651 H 61.6031 -4.15485 -0.377919 0
M  V30 652 H 60.2331 -3.11472 -0.847652 0
M  V30 653 H 59.2851 -3.47604 1.54518 0
M  V30 654 H 60.5971 -4.64267 1.82368 0
M  V30 655 H 59.7511 -6.06677 -0.0528366 0
M  V30 656 H 58.4901 -4.85825 -0.427208 0
M  V30 657 H 57.4951 -5.17535 1.85574 0
M  V30 658 H 58.7201 -6.4173 2.22171 0
M  V30 659 H 56.6661 -6.55998 -0.0177708 0
M  V30 660 H 56.5831 -7.41186 1.48928 0
M  V30 661 H 57.8511 -7.78665 0.36071 0
M  V30 662 N 62.0802 -0.821533 -1.34494 0
M  V30 663 C 63.0132 -0.187704 -2.27427 0
M  V30 664 C 63.9912 0.65507 -1.48821 0
M  V30 665 O 65.1752 0.619111 -1.78043 0
M  V30 666 C 62.3022 0.737996 -3.30562 0
M  V30 667 C 61.3482 -0.0270713 -4.26491 0
M  V30 668 S 62.1812 -1.37329 -5.17592 0
M  V30 669 C 63.3372 -0.452427 -6.24263 0
M  V30 670 H 63.5702 -0.975598 -2.80837 0
M  V30 671 H 61.1032 -0.61736 -1.4152 0
M  V30 672 H 63.0612 1.26654 -3.90473 0
M  V30 673 H 61.7222 1.4994 -2.76001 0
M  V30 674 H 60.9152 0.6766 -4.99438 0
M  V30 675 H 60.5172 -0.48612 -3.70827 0
M  V30 676 H 62.8092 0.356557 -6.76561 0
M  V30 677 H 63.7522 -1.15153 -6.98674 0
M  V30 678 H 64.1602 -0.0414755 -5.64485 0
M  V30 679 N 63.5583 1.46682 -0.576371 0
M  V30 680 C 64.7863 2.06798 -0.0649635 0
M  V30 681 C 65.2013 1.42612 1.23723 0
M  V30 682 O 64.5583 0.529203 1.74659 0
M  V30 683 C 64.6093 3.6132 0.114202 0
M  V30 684 O 64.3303 4.23104 -1.13644 0
M  V30 685 C 65.8313 4.38349 0.66069 0
M  V30 686 H 63.0513 0.668778 -0.0545616 0
M  V30 687 H 65.5953 1.88404 -0.795237 0
M  V30 688 H 63.7503 3.79162 0.794673 0
M  V30 689 H 64.1643 5.15894 -0.946253 0
M  V30 690 H 65.6383 5.47081 0.73526 0
M  V30 691 H 66.1153 4.05953 1.67627 0
M  V30 692 H 66.7213 4.25297 0.0152951 0
M  V30 693 N 65.0364 0.313813 1.54444 0
M  V30 694 C 65.9464 -0.565714 2.27677 0
M  V30 695 C 66.9624 -1.13754 1.31666 0
M  V30 696 O 68.1384 -1.15959 1.64668 0
M  V30 697 C 65.2034 -1.71528 3.01296 0
M  V30 698 C 64.2644 -1.17624 4.12872 0
M  V30 699 C 63.4974 -2.27102 4.8297 0
M  V30 700 O 63.7204 -3.47256 4.52514 0
M  V30 701 O 62.6544 -1.9307 5.70094 0
M  V30 702 H 66.4804 0.0287296 3.03686 0
M  V30 703 H 64.0654 0.0798312 1.49187 0
M  V30 704 H 65.9474 -2.38476 3.4743 0
M  V30 705 H 64.6224 -2.29608 2.2817 0
M  V30 706 H 63.5294 -0.472124 3.71109 0
M  V30 707 H 64.8624 -0.640695 4.88012 0
M  V30 708 N 66.5145 -1.57545 0.0417849 0
M  V30 709 C 67.7425 -1.96624 -0.643928 0
M  V30 710 C 68.1575 -0.918897 -1.64929 0
M  V30 711 O 67.5145 0.0979323 -1.82237 0
M  V30 712 C 67.5655 -3.35781 -1.33914 0
M  V30 713 O 67.2865 -4.365 -0.374048 0
M  V30 714 C 68.7875 -3.89566 -2.1155 0
M  V30 715 H 66.0075 -0.647316 -0.176702 0
M  V30 716 H 68.5515 -2.04229 0.105304 0
M  V30 717 H 66.7065 -3.29357 -2.03968 0
M  V30 718 H 67.1205 -5.17248 -0.869179 0
M  V30 719 H 68.5945 -4.89242 -2.55628 0
M  V30 720 H 69.0715 -3.24488 -2.9598 0
M  V30 721 H 69.6775 -3.99298 -1.46427 0
M  V30 722 N 67.9926 0.231505 -1.5589 0
M  V30 723 C 69.2406 0.955461 -1.78088 0
M  V30 724 C 69.5616 1.85262 -0.608533 0
M  V30 725 O 68.8316 1.92277 0.375035 0
M  V30 726 H 67.4116 0.355787 -0.656829 0
M  V30 727 H 70.0736 0.245751 -1.93344 0
M  V30 728 H 69.1696 1.56814 -2.69844 0
M  V30 729 N 69.4707 1.49531 0.497807 0
M  V30 730 C 70.7187 1.58865 1.24926 0
M  V30 731 C 71.0397 0.278721 1.92998 0
M  V30 732 O 70.3097 -0.702144 1.82885 0
M  V30 733 H 68.8897 0.585343 0.464094 0
M  V30 734 H 71.5517 1.86174 0.57666 0
M  V30 735 H 70.6477 2.38633 2.01149 0
M  V30 736 N 70.9488 -0.749086 1.3866 0
M  V30 737 C 71.8968 -1.88428 1.36373 0
M  V30 738 C 72.8908 -1.67561 0.248929 0
M  V30 739 O 74.0968 -1.75074 0.41821 0
M  V30 740 H 70.4718 -0.620023 0.42553 0
M  V30 741 H 72.4428 -1.87473 2.32156 0
M  V30 742 C 71.1918 -3.25961 1.21014 0
M  V30 743 H 70.5148 -3.42607 2.06059 0
M  V30 744 H 71.9548 -4.05625 1.23469 0
M  V30 745 C 70.4138 -3.36799 -0.0825941 0
M  V30 746 O 70.9438 -3.87517 -1.05797 0
M  V30 747 N 69.1498 -2.90258 -0.140939 0
M  V30 748 H 68.6968 -2.49174 0.653477 0
M  V30 749 H 68.6548 -2.97889 -1.00545 0
M  V30 750 N 72.4269 -1.23603 -0.977757 0
M  V30 751 C 73.6739 -1.06971 -1.71941 0
M  V30 752 C 74.0019 0.393009 -1.90488 0
M  V30 753 O 73.2569 1.30719 -1.4564 0
M  V30 754 C 73.5559 -1.7433 -3.11999 0
M  V30 755 C 73.2219 -3.24252 -3.13323 0
M  V30 756 C 71.8839 -3.65156 -3.13392 0
M  V30 757 C 74.2359 -4.20141 -3.08433 0
M  V30 758 C 71.5639 -5.00403 -3.0629 0
M  V30 759 C 73.9159 -5.55384 -3.02873 0
M  V30 760 C 72.5799 -5.95647 -3.01265 0
M  V30 761 H 71.8499 -0.391433 -0.629175 0
M  V30 762 H 74.4969 -1.53572 -1.14403 0
M  V30 763 H 72.8019 -1.20096 -3.7294 0
M  V30 764 H 74.4989 -1.58936 -3.68158 0
M  V30 765 H 71.0889 -2.91692 -3.14029 0
M  V30 766 H 75.2729 -3.89547 -3.07517 0
M  V30 767 H 70.5289 -5.3081 -3.03399 0
M  V30 768 H 74.7029 -6.29398 -2.98046 0
M  V30 769 H 72.3299 -7.0041 -2.95516 0
M  V30 770 N 73.905 1.17692 -1.04816 0
M  V30 771 C 75.182 1.83768 -0.669963 0
M  V30 772 C 75.562 1.93232 0.849986 0
M  V30 773 O 74.91 1.46397 1.75443 0
M  V30 774 C 75.12 3.21641 -1.35455 0
M  V30 775 C 76.468 3.97592 -1.49017 0
M  V30 776 O 77.492 3.31107 -1.31326 0
M  V30 777 O 76.351 5.16729 -1.77914 0
M  V30 778 H 73.445 0.792799 -0.235368 0
M  V30 779 H 75.991 1.25021 -1.14751 0
M  V30 780 H 74.763 3.097 -2.39168 0
M  V30 781 H 74.386 3.88052 -0.866107 0
M  V30 782 N 75.3831 0.828654 1.34056 0
M  V30 783 C 76.3301 0.252567 2.29414 0
M  V30 784 C 77.3001 -0.62588 1.53857 0
M  V30 785 O 78.4851 -0.566312 1.82202 0
M  V30 786 C 75.6251 -0.574831 3.40279 0
M  V30 787 C 74.7381 0.326499 4.30764 0
M  V30 788 C 73.8731 -0.511016 5.28736 0
M  V30 789 C 72.9121 0.389342 6.1086 0
M  V30 790 N 72.0491 -0.409439 7.00905 0
M  V30 791 H 76.8891 1.07108 2.78086 0
M  V30 792 H 74.4261 0.539677 1.36843 0
M  V30 793 H 76.3841 -1.06992 4.03248 0
M  V30 794 H 75.0141 -1.35841 2.92826 0
M  V30 795 H 74.0661 0.939837 3.68607 0
M  V30 796 H 75.3781 1.01857 4.88289 0
M  V30 797 H 74.5321 -1.07035 5.97184 0
M  V30 798 H 73.2711 -1.23657 4.71763 0
M  V30 799 H 72.2761 0.960769 5.4134 0
M  V30 800 H 73.5011 1.1131 6.69916 0
M  V30 801 H 71.4471 -1.11856 6.46393 0
M  V30 802 H 71.3641 0.224126 7.55668 0
M  V30 803 H 72.6321 -0.951336 7.73673 0
M  V30 804 N 76.8612 -1.46375 0.584142 0
M  V30 805 C 78.1092 -2.01978 0.0701287 0
M  V30 806 C 78.4302 -1.4579 -1.295 0
M  V30 807 O 77.7002 -0.64314 -1.85042 0
M  V30 808 H 76.2802 -0.746648 0.0229345 0
M  V30 809 H 78.9422 -1.79461 0.760245 0
M  V30 810 H 78.0382 -3.121 0.0022064 0
M  V30 811 N 78.3393 -0.321999 -1.54275 0
M  V30 812 C 79.5693 0.282642 -2.04658 0
M  V30 813 C 79.9773 1.46453 -1.19784 0
M  V30 814 O 79.3203 1.82367 -0.220932 0
M  V30 815 C 79.3823 0.781857 -3.50895 0
M  V30 816 C 79.0463 -0.277517 -4.56157 0
M  V30 817 C 80.0433 -1.11307 -5.07845 0
M  V30 818 C 77.7283 -0.425256 -5.00497 0
M  V30 819 C 79.7223 -2.08211 -6.02434 0
M  V30 820 C 77.4093 -1.39771 -5.94901 0
M  V30 821 C 78.4073 -2.2246 -6.45756 0
M  V30 822 O 78.0953 -3.18054 -7.38307 0
M  V30 823 H 77.8273 0.0622636 -0.673126 0
M  V30 824 H 80.3813 -0.465792 -2.00049 0
M  V30 825 H 78.6113 1.58118 -3.52896 0
M  V30 826 H 80.3003 1.30467 -3.84361 0
M  V30 827 H 81.0663 -1.00991 -4.74369 0
M  V30 828 H 76.9453 0.20847 -4.60528 0
M  V30 829 H 80.4893 -2.72791 -6.42052 0
M  V30 830 H 76.3863 -1.50152 -6.27794 0
M  V30 831 H 77.1543 -3.13275 -7.56175 0
M  V30 832 N 79.8174 1.5752 -0.0501392 0
M  V30 833 C 81.0634 1.92936 0.624798 0
M  V30 834 C 81.3964 0.928685 1.70555 0
M  V30 835 O 80.6714 -0.0454779 1.94447 0
M  V30 836 C 80.9544 3.38737 1.22185 0
M  V30 837 C 80.8074 4.49552 0.149218 0
M  V30 838 C 82.1264 3.84913 2.13378 0
M  V30 839 H 79.2454 0.701604 0.225657 0
M  V30 840 H 81.8874 1.89671 -0.111693 0
M  V30 841 H 80.0374 3.4165 1.84953 0
M  V30 842 H 81.7094 4.58768 -0.482648 0
M  V30 843 H 79.9524 4.30638 -0.522841 0
M  V30 844 H 80.6234 5.48653 0.606966 0
M  V30 845 H 83.0994 3.8387 1.60572 0
M  V30 846 H 81.9754 4.87584 2.52097 0
M  V30 847 H 82.2364 3.21611 3.03346 0
M  V30 848 N 81.2955 -0.223234 1.56011 0
M  V30 849 C 82.2055 -1.29766 1.95443 0
M  V30 850 C 83.2215 -1.51373 0.858028 0
M  V30 851 O 84.3975 -1.64536 1.16146 0
M  V30 852 C 81.4625 -2.62772 2.26167 0
M  V30 853 C 80.5235 -2.49482 3.49367 0
M  V30 854 C 79.7565 -3.76145 3.78616 0
M  V30 855 O 79.9795 -4.79087 3.09568 0
M  V30 856 O 78.9135 -3.73358 4.72109 0
M  V30 857 H 82.7395 -0.99309 2.87004 0
M  V30 858 H 80.3245 -0.425958 1.43199 0
M  V30 859 H 82.2065 -3.41327 2.47131 0
M  V30 860 H 80.8815 -2.92913 1.37781 0
M  V30 861 H 79.7885 -1.69133 3.33684 0
M  V30 862 H 81.1215 -2.2428 4.38131 0
M  V30 863 N 82.7736 -1.49793 -0.48987 0
M  V30 864 C 83.7366 -1.66752 -1.57246 0
M  V30 865 C 84.7366 -0.538867 -1.51502 0
M  V30 866 O 85.9266 -0.805545 -1.54456 0
M  V30 867 C 83.0586 -1.67528 -2.96896 0
M  V30 868 H 84.2516 -2.63321 -1.43534 0
M  V30 869 H 81.8046 -1.38992 -0.714914 0
M  V30 870 H 82.5396 -0.725837 -3.16073 0
M  V30 871 H 82.3246 -2.49504 -3.02473 0
M  V30 872 H 83.8146 -1.82667 -3.7553 0
M  V30 873 N 84.2517 0.741722 -1.39055 0
M  V30 874 C 85.1617 1.88621 -1.39496 0
M  V30 875 C 86.1777 1.71557 -0.290578 0
M  V30 876 O 87.3537 1.94275 -0.530954 0
M  V30 877 C 84.4187 3.24134 -1.23037 0
M  V30 878 C 83.4797 3.5364 -2.43387 0
M  V30 879 C 82.7127 4.82687 -2.27703 0
M  V30 880 O 82.9357 5.55922 -1.27696 0
M  V30 881 O 81.8697 5.1194 -3.16545 0
M  V30 882 H 85.6957 1.91203 -2.35956 0
M  V30 883 H 83.2807 0.888625 -1.20099 0
M  V30 884 H 85.1627 4.0513 -1.15964 0
M  V30 885 H 83.8377 3.22337 -0.296691 0
M  V30 886 H 82.7447 2.72758 -2.56035 0
M  V30 887 H 84.0777 3.60209 -3.35425 0
M  V30 888 N 85.7298 1.2412 0.971189 0
M  V30 889 C 86.6598 1.05508 2.08304 0
M  V30 890 C 87.6408 -0.0308864 1.70072 0
M  V30 891 O 88.8258 0.135521 1.93727 0
M  V30 892 C 85.9558 0.655365 3.4106 0
M  V30 893 C 84.9098 1.68971 3.93234 0
M  V30 894 C 84.2358 1.14516 5.22293 0
M  V30 895 C 85.5358 3.08487 4.21465 0
M  V30 896 H 87.2298 1.98507 2.24132 0
M  V30 897 H 84.7758 0.955821 1.07704 0
M  V30 898 H 86.7288 0.51217 4.18276 0
M  V30 899 H 85.4528 -0.31032 3.25122 0
M  V30 900 H 84.1118 1.82106 3.18171 0
M  V30 901 H 83.7598 0.170189 5.02712 0
M  V30 902 H 83.4598 1.83635 5.58168 0
M  V30 903 H 84.9838 1.01401 6.02121 0
M  V30 904 H 86.3978 2.98601 4.89398 0
M  V30 905 H 84.7948 3.74926 4.68562 0
M  V30 906 H 85.8648 3.56787 3.28376 0
M  V30 907 N 87.2079 -1.17134 1.05439 0
M  V30 908 C 88.4849 -1.83411 0.679699 0
M  V30 909 C 88.8649 -1.9368 -0.839726 0
M  V30 910 O 88.2129 -1.47325 -1.74664 0
M  V30 911 C 88.4229 -3.20918 1.37159 0
M  V30 912 C 89.7709 -3.96796 1.51123 0
M  V30 913 O 90.7949 -3.30406 1.3308 0
M  V30 914 O 89.6539 -5.15778 1.80651 0
M  V30 915 H 86.7479 -0.79154 0.239569 0
M  V30 916 H 89.2939 -1.24411 1.15413 0
M  V30 917 H 88.0659 -3.08428 2.40807 0
M  V30 918 H 87.6889 -3.87587 0.886674 0
M  V30 919 N 88.686 -0.835752 -1.33615 0
M  V30 920 C 89.935 -0.426289 -1.97144 0
M  V30 921 C 90.248 1.01912 -1.66953 0
M  V30 922 O 91.454 1.53311 -2.24072 0
M  V30 923 C 89.91 -0.711321 -3.52801 0
M  V30 924 C 89.518 -2.1712 -3.91871 0
M  V30 925 C 91.262 -0.368654 -4.22896 0
M  V30 926 C 89.169 -2.40044 -5.40493 0
M  V30 927 H 88.099 -0.15567 -0.737755 0
M  V30 928 H 90.75 -1.0239 -1.52278 0
M  V30 929 H 89.132 -0.0433766 -3.95976 0
M  V30 930 H 90.306 -2.87936 -3.59763 0
M  V30 931 H 88.621 -2.47654 -3.34749 0
M  V30 932 H 91.218 -0.517601 -5.32189 0
M  V30 933 H 91.561 0.688078 -4.10574 0
M  V30 934 H 92.094 -0.991702 -3.8524 0
M  V30 935 H 88.833 -3.44271 -5.57815 0
M  V30 936 H 88.353 -1.73785 -5.74072 0
M  V30 937 H 90.032 -2.23042 -6.0734 0
M  V30 938 N 90.1641 1.46063 -0.591896 0
M  V30 939 C 91.1121 2.32124 0.148739 0
M  V30 940 C 92.1061 1.45035 0.875286 0
M  V30 941 O 93.3121 1.61609 0.792632 0
M  V30 942 H 89.6871 0.749024 0.066832 0
M  V30 943 H 91.6581 2.92392 -0.595783 0
M  V30 944 C 90.4071 3.28373 1.1431 0
M  V30 945 H 89.7301 3.95371 0.59346 0
M  V30 946 H 91.1701 3.91352 1.63155 0
M  V30 947 C 89.6291 2.54393 2.20875 0
M  V30 948 O 90.1591 2.31373 3.28374 0
M  V30 949 N 88.3651 2.14797 1.95731 0
M  V30 950 H 87.9121 2.33719 1.08319 0
M  V30 951 H 87.8701 1.65619 2.67241 0
M  V30 952 N 91.6422 0.330177 1.54103 0
M  V30 953 C 93.0532 -0.15652 1.86043 0
M  V30 954 C 93.4042 -1.51086 1.2517 0
M  V30 955 O 92.5292 -2.09023 0.560217 0
M  V30 956 C 93.1242 -0.290784 3.3755 0
M  V30 957 C 91.6832 -0.721705 3.69416 0
M  V30 958 C 90.8302 0.152622 2.7688 0
M  V30 959 H 93.7812 0.550237 1.48856 0
M  V30 960 H 93.8022 -1.12058 3.63625 0
M  V30 961 H 93.3142 0.695068 3.81825 0
M  V30 962 H 91.4152 -1.71706 3.30678 0
M  V30 963 H 91.5282 -0.520869 4.7626 0
M  V30 964 H 89.8922 -0.372894 2.51956 0
M  V30 965 H 90.6752 1.13536 3.23982 0
M  V30 966 N 93.1203 -1.57491 0.0584922 0
M  V30 967 C 94.3973 -1.84346 -0.653918 0
M  V30 968 C 94.7773 -0.948355 -1.88599 0
M  V30 969 O 94.1253 -0.0112403 -2.28497 0
M  V30 970 C 94.3353 -3.34239 -1.00425 0
M  V30 971 C 95.6833 -4.01431 -1.38342 0
M  V30 972 O 96.7073 -3.38907 -1.09637 0
M  V30 973 O 95.5663 -5.11683 -1.91943 0
M  V30 974 H 92.6603 -0.761112 -0.323478 0
M  V30 975 H 95.2063 -1.6947 0.0884125 0
M  V30 976 H 93.9783 -3.91089 -0.128625 0
M  V30 977 H 93.6013 -3.54329 -1.80378 0
M  V30 978 N 94.5984 0.214957 -1.56127 0
M  V30 979 C 95.5284 1.2695 -1.95974 0
M  V30 980 C 96.5094 1.48539 -0.828868 0
M  V30 981 O 97.6944 1.60611 -1.09168 0
M  V30 982 C 94.8244 2.61794 -2.28214 0
M  V30 983 C 93.7784 2.54851 -3.43853 0
M  V30 984 C 93.1044 3.93785 -3.61715 0
M  V30 985 C 94.4044 2.09065 -4.78632 0
M  V30 986 H 96.0984 0.93846 -2.84312 0
M  V30 987 H 93.6444 0.449996 -1.36788 0
M  V30 988 H 95.5974 3.35731 -2.54682 0
M  V30 989 H 94.3214 2.96599 -1.36736 0
M  V30 990 H 92.9804 1.8337 -3.17444 0
M  V30 991 H 92.6284 4.25908 -2.67602 0
M  V30 992 H 92.3284 3.90019 -4.39498 0
M  V30 993 H 93.8524 4.69374 -3.90539 0
M  V30 994 H 95.2664 2.7275 -5.04262 0
M  V30 995 H 93.6634 2.16346 -5.59745 0
M  V30 996 H 94.7334 1.04315 -4.73547 0
M  V30 997 N 96.0765 1.50051 0.48192 0
M  V30 998 C 97.3225 1.61706 1.2338 0
M  V30 999 C 97.6775 0.308488 1.89911 0
M  V30 1000 O 96.9705 -0.692798 1.78636 0
M  V30 1001 C 97.1645 2.72717 2.30998 0
M  V30 1002 C 96.9935 4.14242 1.75024 0
M  V30 1003 C 95.7635 4.80786 1.55476 0
M  V30 1004 C 97.9615 4.98846 1.25128 0
M  V30 1005 N 95.9435 6.06563 0.946311 0
M  V30 1006 C 97.3145 6.15258 0.765382 0
M  V30 1007 C 99.3695 4.84702 1.13881 0
M  V30 1008 C 98.0725 7.19079 0.178113 0
M  V30 1009 C 100.098 5.8869 0.565486 0
M  V30 1010 C 99.4605 7.04343 0.0899105 0
M  V30 1011 H 95.5595 0.645958 0.440753 0
M  V30 1012 H 98.1435 1.8713 0.537624 0
M  V30 1013 H 96.3145 2.49033 2.98055 0
M  V30 1014 H 98.0465 2.73789 2.9803 0
M  V30 1015 H 94.8015 4.37899 1.80392 0
M  V30 1016 H 95.2255 6.73767 0.660812 0
M  V30 1017 H 99.8675 3.95583 1.49244 0
M  V30 1018 H 97.5855 8.07882 -0.187749 0
M  V30 1019 H 101.171 5.79808 0.480974 0
M  V30 1020 H 100.051 7.83433 -0.346782 0
M  V30 1021 N 97.5546 -0.734337 1.39446 0
M  V30 1022 C 98.8016 -1.49391 1.36706 0
M  V30 1023 C 99.1296 -1.94465 -0.0367813 0
M  V30 1024 O 98.3846 -1.67154 -1.01774 0
M  V30 1025 C 98.6836 -2.74711 2.28623 0
M  V30 1026 C 98.3496 -2.48501 3.76242 0
M  V30 1027 C 97.0116 -2.41062 4.16464 0
M  V30 1028 C 99.3636 -2.26098 4.69606 0
M  V30 1029 C 96.6916 -2.09262 5.48112 0
M  V30 1030 C 99.0436 -1.95814 6.01531 0
M  V30 1031 C 97.7076 -1.86845 6.40816 0
M  V30 1032 H 96.9776 -0.546661 0.500243 0
M  V30 1033 H 99.6246 -0.842788 1.71957 0
M  V30 1034 H 97.9296 -3.44569 1.86492 0
M  V30 1035 H 99.6266 -3.32741 2.23796 0
M  V30 1036 H 96.2166 -2.55169 3.44364 0
M  V30 1037 H 100.401 -2.30812 4.39363 0
M  V30 1038 H 95.6566 -2.00841 5.77471 0
M  V30 1039 H 99.8306 -1.77488 6.73403 0
M  V30 1040 H 97.4576 -1.6197 7.42745 0
M  V30 1041 N 99.0327 -1.24633 -0.964593 0
M  V30 1042 C 100.28 -1.08788 -1.70796 0
M  V30 1043 C 100.608 0.372783 -1.90894 0
M  V30 1044 O 99.8627 1.29167 -1.47018 0
M  V30 1045 C 100.162 -1.7763 -3.10133 0
M  V30 1046 C 99.8277 -3.27557 -3.09866 0
M  V30 1047 C 98.4897 -3.6846 -3.09501 0
M  V30 1048 C 100.842 -4.23389 -3.03959 0
M  V30 1049 C 98.1697 -5.03624 -3.00965 0
M  V30 1050 C 100.522 -5.58565 -2.96965 0
M  V30 1051 C 99.1857 -5.98809 -2.9493 0
M  V30 1052 H 98.4557 -0.398084 -0.624988 0
M  V30 1053 H 101.103 -1.54777 -1.12767 0
M  V30 1054 H 99.4077 -1.24044 -3.71645 0
M  V30 1055 H 101.105 -1.62832 -3.66451 0
M  V30 1056 H 97.6947 -2.95006 -3.10917 0
M  V30 1057 H 101.879 -3.92787 -3.03368 0
M  V30 1058 H 97.1347 -5.33998 -2.97752 0
M  V30 1059 H 101.309 -6.32523 -2.91354 0
M  V30 1060 H 98.9357 -7.03505 -2.88071 0
M  V30 1061 N 100.511 1.16574 -1.06058 0
M  V30 1062 C 101.759 1.86677 -0.77434 0
M  V30 1063 C 102.08 1.81959 0.701147 0
M  V30 1064 O 101.35 1.2515 1.50713 0
M  V30 1065 H 99.9298 0.691134 -0.283449 0
M  V30 1066 H 102.592 1.41378 -1.34158 0
M  V30 1067 H 101.688 2.92181 -1.09711 0
M  V30 1068 N 101.989 0.842826 1.3317 0
M  V30 1069 C 103.229 0.446574 1.99462 0
M  V30 1070 C 103.593 -0.976818 1.65295 0
M  V30 1071 O 104.794 -1.477 2.24584 0
M  V30 1072 C 103.065 0.665353 3.51152 0
M  V30 1073 S 104.624 0.364911 4.3728 0
M  V30 1074 H 101.442 0.167803 0.690915 0
M  V30 1075 H 104.044 1.09297 1.62094 0
M  V30 1076 H 102.748 1.7006 3.73507 0
M  V30 1077 H 102.279 0.00494568 3.934 0
M  V30 1078 H 104.294 -0.813761 4.89482 0
M  V30 1079 N 103.467 -1.45747 0.599634 0
M  V30 1080 C 104.417 -2.27538 -0.145107 0
M  V30 1081 C 105.401 -1.3686 -0.846055 0
M  V30 1082 O 106.593 -1.6091 -0.737357 0
M  V30 1083 C 103.722 -3.23569 -1.14708 0
M  V30 1084 C 102.808 -4.21734 -0.447383 0
M  V30 1085 N 103.199 -5.03257 0.506535 0
M  V30 1086 C 101.497 -4.40536 -0.695966 0
M  V30 1087 C 102.198 -5.74426 0.917068 0
M  V30 1088 N 101.174 -5.42966 0.26253 0
M  V30 1089 H 104.976 -2.87965 0.587672 0
M  V30 1090 H 102.49 -1.56803 0.422697 0
M  V30 1091 H 104.487 -3.8089 -1.69495 0
M  V30 1092 H 103.147 -2.64702 -1.8805 0
M  V30 1093 H 104.158 -5.10319 0.882899 0
M  V30 1094 H 100.835 -3.92802 -1.41467 0
M  V30 1095 H 102.225 -6.4995 1.70338 0
M  V30 1096 N 104.945 -0.338344 -1.53925 0
M  V30 1097 C 106.192 0.259758 -2.00827 0
M  V30 1098 C 106.52 1.50973 -1.22628 0
M  V30 1099 O 105.775 1.93379 -0.300509 0
M  V30 1100 C 106.074 0.62448 -3.51902 0
M  V30 1101 C 105.74 -0.528006 -4.47798 0
M  V30 1102 C 104.402 -0.844298 -4.73735 0
M  V30 1103 C 106.754 -1.30143 -5.0469 0
M  V30 1104 C 104.082 -1.93648 -5.53821 0
M  V30 1105 C 106.434 -2.38382 -5.85967 0
M  V30 1106 C 105.098 -2.70576 -6.10201 0
M  V30 1107 H 104.368 0.0950523 -0.734878 0
M  V30 1108 H 107.015 -0.465182 -1.85764 0
M  V30 1109 H 105.32 1.43006 -3.64769 0
M  V30 1110 H 107.017 1.09905 -3.85645 0
M  V30 1111 H 103.607 -0.271421 -4.2774 0
M  V30 1112 H 107.791 -1.07033 -4.84621 0
M  V30 1113 H 103.047 -2.19021 -5.70824 0
M  V30 1114 H 107.221 -2.98746 -6.29066 0
M  V30 1115 H 104.848 -3.55333 -6.72044 0
M  V30 1116 N 106.423 1.57458 -0.0668435 0
M  V30 1117 C 107.672 1.92477 0.602947 0
M  V30 1118 C 107.985 0.948419 1.71068 0
M  V30 1119 O 109.191 1.19124 2.43971 0
M  V30 1120 C 107.647 3.41903 1.12383 0
M  V30 1121 C 107.255 4.47975 0.04737 0
M  V30 1122 C 108.999 3.85931 1.76797 0
M  V30 1123 C 106.906 5.88529 0.582022 0
M  V30 1124 H 105.836 0.718387 0.22899 0
M  V30 1125 H 108.487 1.82978 -0.138276 0
M  V30 1126 H 106.869 3.46459 1.91787 0
M  V30 1127 H 108.043 4.55029 -0.726978 0
M  V30 1128 H 106.358 4.13384 -0.500243 0
M  V30 1129 H 108.955 4.88322 2.17821 0
M  V30 1130 H 109.298 3.23029 2.62599 0
M  V30 1131 H 109.831 3.83958 1.04024 0
M  V30 1132 H 106.57 6.55065 -0.238721 0
M  V30 1133 H 106.09 5.85004 1.324 0
M  V30 1134 H 107.769 6.38258 1.05999 0
M  V30 1135 N 107.901 -0.206675 1.56239 0
M  V30 1136 C 109.149 -0.927007 1.79586 0
M  V30 1137 C 109.47 -1.8427 0.637929 0
M  V30 1138 O 108.74 -1.92849 -0.344398 0
M  V30 1139 H 107.32 -0.345292 0.662407 0
M  V30 1140 H 109.982 -0.21496 1.93711 0
M  V30 1141 H 109.078 -1.52501 2.72305 0
M  V30 1142 N 109.379 -1.50304 -0.473955 0
M  V30 1143 C 110.656 -1.51667 -1.23518 0
M  V30 1144 C 111.036 -0.259701 -2.09496 0
M  V30 1145 O 110.384 0.756986 -2.15597 0
M  V30 1146 C 110.594 -2.81082 -2.06868 0
M  V30 1147 C 111.942 -3.31631 -2.65153 0
M  V30 1148 O 112.966 -2.82384 -2.17113 0
M  V30 1149 O 111.825 -4.17471 -3.52675 0
M  V30 1150 H 108.919 -0.60822 -0.560355 0
M  V30 1151 H 111.465 -1.62592 -0.486011 0
M  V30 1152 H 110.237 -3.64041 -1.4349 0
M  V30 1153 H 109.86 -2.73146 -2.88924 0
M  V30 1154 N 110.857 0.726932 -1.39834 0
M  V30 1155 C 112.268 1.30558 -1.3346 0
M  V30 1156 C 112.619 1.962 -0.00273003 0
M  V30 1157 O 111.744 1.96826 0.899371 0
M  V30 1158 C 112.339 2.37404 -2.41713 0
M  V30 1159 C 110.898 2.90921 -2.38835 0
M  V30 1160 C 110.045 1.64578 -2.2318 0
M  V30 1161 H 112.996 0.523862 -1.49804 0
M  V30 1162 H 113.017 3.17984 -2.08966 0
M  V30 1163 H 112.529 1.89599 -3.38635 0
M  V30 1164 H 110.63 3.42985 -1.45575 0
M  V30 1165 H 110.743 3.43487 -3.33997 0
M  V30 1166 H 109.107 1.89219 -1.70494 0
M  V30 1167 H 109.89 1.18814 -3.22084 0
M  V30 1168 N 112.336 1.25143 0.95797 0
M  V30 1169 C 113.582 1.09855 1.70469 0
M  V30 1170 C 113.915 -0.360187 1.90831 0
M  V30 1171 O 113.19 -1.26568 1.47685 0
M  V30 1172 C 113.473 1.8497 3.08963 0
M  V30 1173 C 113.326 3.38652 2.96032 0
M  V30 1174 C 114.645 1.63016 4.08795 0
M  V30 1175 H 111.764 0.400465 0.618706 0
M  V30 1176 H 114.406 1.53933 1.11376 0
M  V30 1177 H 112.556 1.47505 3.59409 0
M  V30 1178 H 114.228 3.85772 2.52938 0
M  V30 1179 H 112.471 3.66534 2.32025 0
M  V30 1180 H 113.142 3.8642 3.94187 0
M  V30 1181 H 115.618 1.95625 3.67247 0
M  V30 1182 H 114.494 2.18015 5.03747 0
M  V30 1183 H 114.755 0.570692 4.38401 0
M  V30 1184 N 113.814 -1.1601 1.06675 0
M  V30 1185 C 114.747 -2.1947 0.625168 0
M  V30 1186 C 115.725 -1.58699 -0.354041 0
M  V30 1187 O 116.909 -1.86669 -0.262098 0
M  V30 1188 C 114.036 -3.38598 -0.0829593 0
M  V30 1189 C 113.082 -4.1787 0.853611 0
M  V30 1190 S 113.915 -4.81135 2.35094 0
M  V30 1191 C 115.071 -6.03639 1.65441 0
M  V30 1192 H 115.304 -2.56587 1.50168 0
M  V30 1193 H 112.837 -1.26862 0.880078 0
M  V30 1194 H 114.795 -4.07621 -0.485288 0
M  V30 1195 H 113.456 -2.99839 -0.935716 0
M  V30 1196 H 112.649 -5.03078 0.304755 0
M  V30 1197 H 112.251 -3.54361 1.196 0
M  V30 1198 H 114.543 -6.70632 0.962201 0
M  V30 1199 H 115.486 -6.63081 2.48454 0
M  V30 1200 H 115.894 -5.52965 1.13534 0
M  V30 1201 N 115.292 -0.849877 -1.32721 0
M  V30 1202 C 116.703 -0.506188 -1.79707 0
M  V30 1203 C 117.054 0.975627 -1.70223 0
M  V30 1204 O 116.179 1.76078 -1.25799 0
M  V30 1205 C 116.774 -0.912044 -3.26293 0
M  V30 1206 C 115.333 -0.620326 -3.71253 0
M  V30 1207 C 114.48 -1.11439 -2.53922 0
M  V30 1208 H 117.431 -1.03754 -1.20087 0
M  V30 1209 H 117.452 -0.226493 -3.79825 0
M  V30 1210 H 116.964 -1.99057 -3.33164 0
M  V30 1211 H 115.065 0.447674 -3.69901 0
M  V30 1212 H 115.178 -1.18327 -4.64258 0
M  V30 1213 H 113.542 -0.534834 -2.49021 0
M  V30 1214 H 114.325 -2.19992 -2.6355 0
M  V30 1215 N 116.77 1.45427 -0.607355 0
M  V30 1216 C 118.018 2.01841 -0.102253 0
M  V30 1217 C 118.339 1.47832 1.27164 0
M  V30 1218 O 117.609 0.672497 1.83995 0
M  V30 1219 H 116.189 0.746188 -0.0348101 0
M  V30 1220 H 118.851 1.78229 -0.7887 0
M  V30 1221 H 117.947 3.12057 -0.0518585 0
M  V30 1222 N 118.248 0.346503 1.53744 0
M  V30 1223 C 119.488 -0.249413 2.02873 0
M  V30 1224 C 119.852 -1.47532 1.22876 0
M  V30 1225 O 121.053 -2.1456 1.61918 0
M  V30 1226 C 119.324 -0.552909 3.53097 0
M  V30 1227 S 120.883 -1.12521 4.24128 0
M  V30 1228 H 117.701 -0.074042 0.707134 0
M  V30 1229 H 120.303 0.48495 1.8939 0
M  V30 1230 H 119.007 0.347083 4.0893 0
M  V30 1231 H 118.538 -1.31686 3.70705 0
M  V30 1232 H 120.553 -2.41075 4.33702 0
M  V30 1233 N 119.726 -1.57421 0.075193 0
M  V30 1234 C 120.656 -2.15942 -0.888324 0
M  V30 1235 C 121.637 -1.08737 -1.30806 0
M  V30 1236 O 122.822 -1.36787 -1.37851 0
M  V30 1237 C 119.952 -2.72379 -2.1547 0
M  V30 1238 C 118.906 -3.8478 -1.87425 0
M  V30 1239 C 118.232 -4.27834 -3.20721 0
M  V30 1240 C 119.532 -5.08869 -1.17684 0
M  V30 1241 H 121.226 -2.96705 -0.400799 0
M  V30 1242 H 118.772 -1.42723 -0.191342 0
M  V30 1243 H 120.725 -3.11965 -2.83295 0
M  V30 1244 H 119.449 -1.88841 -2.6647 0
M  V30 1245 H 118.108 -3.45703 -1.22004 0
M  V30 1246 H 117.756 -3.41214 -3.6957 0
M  V30 1247 H 117.456 -5.03605 -3.02746 0
M  V30 1248 H 118.98 -4.70039 -3.89738 0
M  V30 1249 H 120.394 -5.4575 -1.75584 0
M  V30 1250 H 118.791 -5.8994 -1.09956 0
M  V30 1251 H 119.861 -4.84648 -0.156453 0
M  V30 1252 N 121.204 0.198386 -1.56346 0
M  V30 1253 C 122.452 0.91747 -1.80075 0
M  V30 1254 C 122.773 1.83929 -0.647692 0
M  V30 1255 O 122.043 1.93029 0.334166 0
M  V30 1256 H 120.623 0.341774 -0.664228 0
M  V30 1257 H 123.285 0.204684 -1.93822 0
M  V30 1258 H 122.381 1.51055 -2.7311 0
M  V30 1259 N 122.682 1.50554 0.465978 0
M  V30 1260 C 123.612 1.72722 1.57128 0
M  V30 1261 C 124.593 0.576294 1.6004 0
M  V30 1262 O 125.778 0.81598 1.76225 0
M  V30 1263 C 122.908 1.82605 2.95419 0
M  V30 1264 C 121.862 2.97835 3.07373 0
M  V30 1265 C 121.188 2.92867 4.47363 0
M  V30 1266 C 122.488 4.38265 2.84114 0
M  V30 1267 H 124.182 2.65267 1.38829 0
M  V30 1268 H 121.728 1.2765 0.666441 0
M  V30 1269 H 123.681 1.96698 3.72677 0
M  V30 1270 H 122.405 0.866858 3.14886 0
M  V30 1271 H 121.064 2.83401 2.3255 0
M  V30 1272 H 120.712 1.94783 4.63755 0
M  V30 1273 H 120.412 3.70227 4.56296 0
M  V30 1274 H 121.936 3.09015 5.26633 0
M  V30 1275 H 123.35 4.53198 3.51118 0
M  V30 1276 H 121.747 5.17115 3.04487 0
M  V30 1277 H 122.817 4.50281 1.7993 0
M  V30 1278 N 124.16 -0.719506 1.40217 0
M  V30 1279 C 125.437 -1.47221 1.28784 0
M  V30 1280 C 125.817 -2.10883 -0.0956067 0
M  V30 1281 O 125.165 -1.99833 -1.10811 0
M  V30 1282 C 125.375 -2.5111 2.42373 0
M  V30 1283 C 126.723 -3.17053 2.82423 0
M  V30 1284 O 127.747 -2.61429 2.41937 0
M  V30 1285 O 126.606 -4.17742 3.52355 0
M  V30 1286 H 123.7 -0.654491 0.50554 0
M  V30 1287 H 126.246 -0.752014 1.52128 0
M  V30 1288 H 125.018 -2.02556 3.34793 0
M  V30 1289 H 124.641 -3.3067 2.20778 0
M  V30 1290 N 125.638 -1.25649 -0.95132 0
M  V30 1291 C 126.601 -1.06399 -2.03007 0
M  V30 1292 C 127.601 -0.0156794 -1.60792 0
M  V30 1293 O 128.791 -0.25817 -1.72276 0
M  V30 1294 C 125.923 -0.616184 -3.35285 0
M  V30 1295 H 127.116 -2.02164 -2.21517 0
M  V30 1296 H 124.669 -1.08103 -1.12887 0
M  V30 1297 H 125.404 0.343917 -3.22471 0
M  V30 1298 H 125.189 -1.37301 -3.67275 0
M  V30 1299 H 126.679 -0.503032 -4.14559 0
M  V30 1300 N 127.117 1.15442 -1.07289 0
M  V30 1301 C 128.05 2.19135 -0.636798 0
M  V30 1302 C 129.028 1.58884 0.34562 0
M  V30 1303 O 130.212 1.86805 0.252195 0
M  V30 1304 C 127.339 3.38638 0.0650014 0
M  V30 1305 C 126.385 4.17412 -0.87576 0
M  V30 1306 S 127.218 4.79882 -2.37642 0
M  V30 1307 C 128.374 6.02753 -1.6864 0
M  V30 1308 H 128.607 2.55787 -1.51526 0
M  V30 1309 H 126.14 1.26394 -0.886793 0
M  V30 1310 H 128.098 4.07873 0.463664 0
M  V30 1311 H 126.759 3.00331 0.919801 0
M  V30 1312 H 125.952 5.02909 -0.33143 0
M  V30 1313 H 125.554 3.53722 -1.21478 0
M  V30 1314 H 127.846 6.70113 -0.997753 0
M  V30 1315 H 128.789 6.61754 -2.51967 0
M  V30 1316 H 129.197 5.52355 -1.16465 0
M  V30 1317 N 128.595 0.856903 1.32268 0
M  V30 1318 C 129.841 0.471355 1.97863 0
M  V30 1319 C 130.196 -0.962896 1.66572 0
M  V30 1320 O 129.489 -1.66686 0.944797 0
M  V30 1321 C 129.683 0.649919 3.51441 0
M  V30 1322 C 129.512 2.09997 3.97657 0
M  V30 1323 C 128.282 2.73893 4.2463 0
M  V30 1324 C 130.48 3.07081 4.1256 0
M  V30 1325 N 128.462 4.09786 4.57109 0
M  V30 1326 C 129.833 4.27968 4.48602 0
M  V30 1327 C 131.888 3.03247 3.949 0
M  V30 1328 C 130.591 5.45521 4.68827 0
M  V30 1329 C 132.617 4.20046 4.16311 0
M  V30 1330 C 131.979 5.39692 4.52672 0
M  V30 1331 H 128.078 0.221263 0.750044 0
M  V30 1332 H 130.662 1.10876 1.60045 0
M  V30 1333 H 128.833 0.0421938 3.88377 0
M  V30 1334 H 130.565 0.234044 4.04023 0
M  V30 1335 H 127.32 2.24918 4.16784 0
M  V30 1336 H 127.744 4.7989 4.7753 0
M  V30 1337 H 132.386 2.11863 3.65888 0
M  V30 1338 H 130.104 6.37434 4.96693 0
M  V30 1339 H 133.69 4.18517 4.04147 0
M  V30 1340 H 132.57 6.28566 4.68907 0
M  V30 1341 N 130.073 -1.45103 0.615059 0
M  V30 1342 C 131.005 -2.28786 -0.13762 0
M  V30 1343 C 132.018 -1.40376 -0.824525 0
M  V30 1344 O 133.207 -1.64681 -0.688662 0
M  V30 1345 C 130.307 -3.16322 -1.21628 0
M  V30 1346 C 129.48 -4.33054 -0.615039 0
M  V30 1347 C 128.539 -5.01743 -1.58556 0
M  V30 1348 O 127.565 -5.58293 -1.10895 0
M  V30 1349 N 128.767 -5.01714 -2.91998 0
M  V30 1350 H 131.532 -2.94025 0.580483 0
M  V30 1351 H 129.093 -1.55373 0.45507 0
M  V30 1352 H 131.085 -3.59139 -1.86552 0
M  V30 1353 H 129.655 -2.52943 -1.83681 0
M  V30 1354 H 128.875 -3.93627 0.21245 0
M  V30 1355 H 130.163 -5.08431 -0.193704 0
M  V30 1356 H 129.561 -4.57075 -3.33316 0
M  V30 1357 H 128.118 -5.48371 -3.52325 0
M  V30 1358 N 131.551 -0.354651 -1.53558 0
M  V30 1359 C 132.481 0.489091 -2.2832 0
M  V30 1360 C 133.462 1.09324 -1.30316 0
M  V30 1361 O 134.647 1.11255 -1.59173 0
M  V30 1362 C 131.777 1.63456 -3.0643 0
M  V30 1363 C 130.731 1.1582 -4.12031 0
M  V30 1364 C 130.057 2.39305 -4.7816 0
M  V30 1365 C 131.357 0.250731 -5.21698 0
M  V30 1366 H 133.051 -0.134614 -2.99097 0
M  V30 1367 H 130.597 -0.0661826 -1.43848 0
M  V30 1368 H 132.55 2.23136 -3.57475 0
M  V30 1369 H 131.274 2.28533 -2.33325 0
M  V30 1370 H 129.933 0.584146 -3.61916 0
M  V30 1371 H 129.581 3.02814 -4.01637 0
M  V30 1372 H 129.281 2.08109 -5.49513 0
M  V30 1373 H 130.805 2.99691 -5.31994 0
M  V30 1374 H 132.219 0.754695 -5.68311 0
M  V30 1375 H 130.616 0.0301468 -6.00092 0
M  V30 1376 H 131.686 -0.710125 -4.79672 0
M  V30 1377 N 133.029 1.57378 -0.0835403 0
M  V30 1378 C 134.275 1.94217 0.583733 0
M  V30 1379 C 134.608 0.964653 1.68547 0
M  V30 1380 O 133.883 -0.00422258 1.945 0
M  V30 1381 C 134.166 3.41253 1.14972 0
M  V30 1382 C 134.019 4.49768 0.0538277 0
M  V30 1383 C 135.338 3.89352 2.05166 0
M  V30 1384 H 132.457 0.706233 0.210724 0
M  V30 1385 H 135.099 1.89392 -0.1519 0
M  V30 1386 H 133.249 3.45496 1.77665 0
M  V30 1387 H 134.921 4.57641 -0.579851 0
M  V30 1388 H 133.164 4.29432 -0.614068 0
M  V30 1389 H 133.835 5.49817 0.490452 0
M  V30 1390 H 136.311 3.87189 1.52393 0
M  V30 1391 H 135.187 4.92822 2.41698 0
M  V30 1392 H 135.448 3.27973 2.96456 0
M  V30 1393 N 134.507 -0.190092 1.56449 0
M  V30 1394 C 135.755 -0.907908 1.80559 0
M  V30 1395 C 136.076 -1.83583 0.657438 0
M  V30 1396 O 135.346 -1.93203 -0.323924 0
M  V30 1397 H 133.926 -0.338247 0.666032 0
M  V30 1398 H 136.588 -0.194403 1.93928 0
M  V30 1399 H 135.684 -1.49604 2.73907 0
M  V30 1400 N 135.985 -1.50799 -0.457987 0
M  V30 1401 C 137.232 -1.62442 -1.20908 0
M  V30 1402 C 137.56 -0.330865 -1.91665 0
M  V30 1403 O 136.815 0.68401 -1.83357 0
M  V30 1404 C 137.114 -2.76358 -2.2663 0
M  V30 1405 C 136.78 -4.16378 -1.73033 0
M  V30 1406 C 135.442 -4.54473 -1.58138 0
M  V30 1407 C 137.794 -5.03836 -1.33413 0
M  V30 1408 C 135.122 -5.77754 -1.02065 0
M  V30 1409 C 137.474 -6.27676 -0.78778 0
M  V30 1410 C 136.138 -6.64562 -0.625561 0
M  V30 1411 H 135.408 -0.594417 -0.442435 0
M  V30 1412 H 138.055 -1.84772 -0.503136 0
M  V30 1413 H 136.36 -2.48167 -3.03184 0
M  V30 1414 H 138.057 -2.82568 -2.84528 0
M  V30 1415 H 134.647 -3.86331 -1.85598 0
M  V30 1416 H 138.831 -4.75026 -1.4375 0
M  V30 1417 H 134.087 -6.04997 -0.882547 0
M  V30 1418 H 138.261 -6.94797 -0.472177 0
M  V30 1419 H 135.888 -7.59965 -0.188926 0
M  V30 1420 N 137.463 0.71206 -1.40597 0
M  V30 1421 C 138.693 1.49894 -1.42181 0
M  V30 1422 C 139.101 1.89189 -0.0208078 0
M  V30 1423 O 138.444 1.56223 0.966436 0
M  V30 1424 C 138.506 2.80215 -2.25211 0
M  V30 1425 C 138.17 2.63221 -3.73582 0
M  V30 1426 C 139.167 2.30249 -4.66135 0
M  V30 1427 C 136.852 2.79376 -4.17438 0
M  V30 1428 C 138.846 2.13645 -6.00529 0
M  V30 1429 C 136.533 2.6239 -5.51901 0
M  V30 1430 C 137.531 2.29573 -6.43262 0
M  V30 1431 O 137.219 2.12719 -7.75246 0
M  V30 1432 H 136.951 0.469031 -0.486812 0
M  V30 1433 H 139.505 0.88564 -1.85326 0
M  V30 1434 H 137.735 3.4389 -1.76852 0
M  V30 1435 H 139.424 3.41947 -2.18694 0
M  V30 1436 H 140.19 2.17398 -4.33547 0
M  V30 1437 H 136.069 3.03906 -3.46644 0
M  V30 1438 H 139.613 1.87953 -6.71803 0
M  V30 1439 H 135.51 2.74826 -5.84073 0
M  V30 1440 H 136.278 2.27611 -7.86216 0
M  V30 1441 N 138.941 1.26152 0.944643 0
M  V30 1442 C 139.871 1.09902 2.06019 0
M  V30 1443 C 140.852 0.00519538 1.70099 0
M  V30 1444 O 142.037 0.176583 1.93396 0
M  V30 1445 C 139.167 0.727562 3.39594 0
M  V30 1446 C 138.121 1.77274 3.89561 0
M  V30 1447 C 137.447 1.25569 5.19747 0
M  V30 1448 C 138.747 3.17357 4.14827 0
M  V30 1449 H 140.441 2.03217 2.19871 0
M  V30 1450 H 137.987 0.978452 1.05652 0
M  V30 1451 H 139.94 0.600777 4.17095 0
M  V30 1452 H 138.664 -0.241287 3.25707 0
M  V30 1453 H 137.323 1.88814 3.14237 0
M  V30 1454 H 136.971 0.276783 5.02238 0
M  V30 1455 H 136.671 1.95433 5.54148 0
M  V30 1456 H 138.195 1.1415 5.99835 0
M  V30 1457 H 139.609 3.08914 4.82954 0
M  V30 1458 H 138.006 3.84781 4.60504 0
M  V30 1459 H 139.076 3.63673 3.20734 0
M  V30 1460 N 140.419 -1.14872 1.07899 0
M  V30 1461 C 141.667 -1.85422 0.803941 0
M  V30 1462 C 141.988 -1.83051 -0.67211 0
M  V30 1463 O 141.258 -1.27532 -1.48703 0
M  V30 1464 H 139.838 -0.686537 0.294408 0
M  V30 1465 H 142.5 -1.39226 1.3639 0
M  V30 1466 H 141.596 -2.90399 1.14346 0
M  V30 1467 N 141.898 -0.863906 -1.31812 0
M  V30 1468 C 143.144 -0.481841 -1.9761 0
M  V30 1469 C 143.499 0.954048 -1.6708 0
M  V30 1470 O 142.792 1.66182 -0.953624 0
M  V30 1471 C 142.986 -0.668547 -3.51091 0
M  V30 1472 C 142.815 -2.12103 -3.96538 0
M  V30 1473 C 141.585 -2.76141 -4.23171 0
M  V30 1474 C 143.783 -3.09265 -4.10925 0
M  V30 1475 N 141.765 -4.12205 -4.54929 0
M  V30 1476 C 143.136 -4.30341 -4.46326 0
M  V30 1477 C 145.191 -3.05337 -3.93286 0
M  V30 1478 C 143.894 -5.48 -4.65928 0
M  V30 1479 C 145.92 -4.22248 -4.14078 0
M  V30 1480 C 145.282 -5.42085 -4.49804 0
M  V30 1481 H 141.381 -0.225238 -0.74886 0
M  V30 1482 H 143.965 -1.11723 -1.59455 0
M  V30 1483 H 142.136 -0.0627898 -3.88349 0
M  V30 1484 H 143.868 -0.255467 -4.03893 0
M  V30 1485 H 140.623 -2.27125 -4.15585 0
M  V30 1486 H 141.047 -4.82416 -4.74978 0
M  V30 1487 H 145.689 -2.138 -3.64759 0
M  V30 1488 H 143.407 -6.40059 -4.93305 0
M  V30 1489 H 146.993 -4.20654 -4.01922 0
M  V30 1490 H 145.873 -6.31044 -4.65567 0
M  V30 1491 N 143.376 1.44774 -0.622745 0
M  V30 1492 C 144.306 2.33382 0.0741861 0
M  V30 1493 C 145.287 1.47719 0.843387 0
M  V30 1494 O 146.472 1.76458 0.810934 0
M  V30 1495 C 143.602 3.30663 1.06204 0
M  V30 1496 C 142.556 4.26079 0.405037 0
M  V30 1497 C 141.882 5.13165 1.5022 0
M  V30 1498 C 143.182 5.1781 -0.683414 0
M  V30 1499 H 144.876 2.91905 -0.665713 0
M  V30 1500 H 142.422 1.40363 -0.321587 0
M  V30 1501 H 144.375 3.9153 1.55827 0
M  V30 1502 H 143.099 2.70331 1.83272 0
M  V30 1503 H 141.758 3.66532 -0.0704683 0
M  V30 1504 H 141.406 4.49191 2.26355 0
M  V30 1505 H 141.106 5.77812 1.06803 0
M  V30 1506 H 142.63 5.76902 2.00041 0
M  V30 1507 H 144.044 5.72661 -0.270631 0
M  V30 1508 H 142.441 5.91015 -1.04023 0
M  V30 1509 H 143.511 4.59326 -1.55395 0
M  V30 1510 N 144.854 0.36279 1.53368 0
M  V30 1511 C 146.102 -0.227326 2.00817 0
M  V30 1512 C 146.423 -1.49511 1.25186 0
M  V30 1513 O 145.693 -1.92482 0.364348 0
M  V30 1514 H 144.273 -0.0869923 0.741917 0
M  V30 1515 H 146.935 0.488381 1.88682 0
M  V30 1516 H 146.031 -0.456273 3.08747 0
M  V30 1517 N 146.332 -1.57332 0.0918853 0
M  V30 1518 C 147.58 -1.93853 -0.571446 0
M  V30 1519 C 147.901 -0.974212 -1.6892 0
M  V30 1520 O 147.171 -0.0257254 -1.95883 0
M  V30 1521 H 145.751 -0.715666 -0.214082 0
M  V30 1522 H 148.413 -1.94287 0.154464 0
M  V30 1523 H 147.509 -2.96191 -0.983729 0
M  V30 1524 N 147.81 0.181792 -1.56548 0
M  V30 1525 C 148.72 1.24538 -1.98815 0
M  V30 1526 C 149.736 1.49045 -0.897861 0
M  V30 1527 O 150.912 1.61399 -1.20467 0
M  V30 1528 C 147.977 2.56683 -2.33055 0
M  V30 1529 C 147.038 2.40131 -3.55859 0
M  V30 1530 C 146.271 3.65975 -3.88456 0
M  V30 1531 O 146.494 4.70711 -3.22161 0
M  V30 1532 O 145.428 3.6071 -4.81842 0
M  V30 1533 H 149.254 0.916647 -2.89536 0
M  V30 1534 H 146.839 0.387842 -1.44278 0
M  V30 1535 H 148.721 3.34655 -2.56094 0
M  V30 1536 H 147.396 2.89157 -1.45498 0
M  V30 1537 H 146.303 1.60226 -3.38051 0
M  V30 1538 H 147.636 2.12585 -4.43924 0
M  V30 1539 N 149.288 1.51039 0.449983 0
M  V30 1540 C 150.536 1.62759 1.19808 0
M  V30 1541 C 150.857 0.339981 1.92013 0
M  V30 1542 O 150.127 -0.643606 1.85026 0
M  V30 1543 H 148.707 0.599811 0.445237 0
M  V30 1544 H 151.369 1.87914 0.517138 0
M  V30 1545 H 150.465 2.44911 1.93455 0
M  V30 1546 N 150.766 -0.704594 1.40972 0
M  V30 1547 C 151.713 -1.81862 1.42109 0
M  V30 1548 C 152.683 -1.63781 0.276593 0
M  V30 1549 O 153.868 -1.84759 0.4763 0
M  V30 1550 C 151.008 -3.19669 1.30022 0
M  V30 1551 C 150.121 -3.49246 2.54267 0
M  V30 1552 C 149.256 -4.76618 2.3454 0
M  V30 1553 C 148.295 -4.99133 3.54306 0
M  V30 1554 N 147.432 -6.17726 3.33706 0
M  V30 1555 H 152.272 -1.80226 2.37324 0
M  V30 1556 H 149.809 -0.880238 1.17857 0
M  V30 1557 H 151.767 -3.99263 1.21018 0
M  V30 1558 H 150.397 -3.20506 0.384192 0
M  V30 1559 H 149.449 -2.64125 2.73756 0
M  V30 1560 H 150.761 -3.61788 3.43381 0
M  V30 1561 H 149.915 -5.64249 2.22952 0
M  V30 1562 H 148.654 -4.66305 1.42867 0
M  V30 1563 H 147.659 -4.09953 3.66359 0
M  V30 1564 H 148.884 -5.11311 4.4692 0
M  V30 1565 H 146.83 -6.08642 2.44725 0
M  V30 1566 H 146.747 -6.30995 4.16391 0
M  V30 1567 H 148.015 -7.08115 3.25873 0
M  V30 1568 N 152.244 -1.26651 -0.937939 0
M  V30 1569 C 153.492 -1.12165 -1.68118 0
M  V30 1570 C 153.813 0.334983 -1.92101 0
M  V30 1571 O 153.083 1.23583 -1.52 0
M  V30 1572 H 151.663 -0.412093 -0.623048 0
M  V30 1573 H 154.325 -1.59027 -1.12678 0
M  V30 1574 H 153.421 -1.64289 -2.6536 0
M  V30 1575 N 153.722 1.14298 -1.08507 0
M  V30 1576 C 155.138 1.37347 -0.812901 0
M  V30 1577 C 155.338 1.93052 0.577325 0
M  V30 1578 O 154.394 2.14389 1.33393 0
M  V30 1579 C 155.707 2.33359 -1.89642 0
M  V30 1580 C 157.255 2.46996 -1.92255 0
M  V30 1581 C 157.73 3.46309 -2.99724 0
M  V30 1582 N 159.221 3.53853 -2.98902 0
M  V30 1583 C 159.956 4.3055 -3.787 0
M  V30 1584 N 159.452 5.10482 -4.6838 0
M  V30 1585 N 161.245 4.25757 -3.66998 0
M  V30 1586 H 153.396 0.764867 -1.9815 0
M  V30 1587 H 155.659 0.398966 -0.859959 0
M  V30 1588 H 155.365 1.99565 -2.89597 0
M  V30 1589 H 155.239 3.33274 -1.76659 0
M  V30 1590 H 157.626 2.80081 -0.929445 0
M  V30 1591 H 157.707 1.47039 -2.09316 0
M  V30 1592 H 157.351 3.13957 -3.99241 0
M  V30 1593 H 157.281 4.46049 -2.79907 0
M  V30 1594 H 159.772 2.96812 -2.33904 0
M  V30 1595 H 160.085 5.66284 -5.25873 0
M  V30 1596 H 158.43 5.09747 -4.72422 0
M  V30 1597 H 161.621 3.62383 -2.96304 0
M  V30 1598 H 161.794 4.85279 -4.29427 0
M  V30 1599 N 155.201 0.870884 1.31352 0
M  V30 1600 C 156.164 0.332243 2.26779 0
M  V30 1601 C 157.164 -0.517302 1.52252 0
M  V30 1602 O 158.354 -0.326477 1.71113 0
M  V30 1603 C 155.486 -0.528066 3.36785 0
M  V30 1604 H 156.679 1.17469 2.75937 0
M  V30 1605 H 154.232 0.64655 1.423 0
M  V30 1606 H 154.967 -1.39167 2.92922 0
M  V30 1607 H 154.752 0.0802582 3.92018 0
M  V30 1608 H 156.242 -0.897179 4.07849 0
M  V30 1609 N 156.679 -1.44442 0.630414 0
M  V30 1610 C 157.609 -2.33418 -0.0618083 0
M  V30 1611 C 158.59 -1.48165 -0.835541 0
M  V30 1612 O 159.775 -1.76886 -0.801564 0
M  V30 1613 C 156.905 -3.31222 -1.04449 0
M  V30 1614 C 155.859 -4.26288 -0.382436 0
M  V30 1615 C 155.185 -5.13954 -1.47497 0
M  V30 1616 C 156.485 -5.1744 0.710865 0
M  V30 1617 H 158.179 -2.91548 0.681184 0
M  V30 1618 H 155.725 -1.40191 0.329026 0
M  V30 1619 H 157.678 -3.92351 -1.53748 0
M  V30 1620 H 156.402 -2.71299 -1.81836 0
M  V30 1621 H 155.061 -3.6649 0.0899054 0
M  V30 1622 H 154.709 -4.50385 -2.2397 0
M  V30 1623 H 154.409 -5.7837 -1.03737 0
M  V30 1624 H 155.933 -5.77955 -1.96979 0
M  V30 1625 H 157.347 -5.72509 0.300996 0
M  V30 1626 H 155.744 -5.90455 1.07156 0
M  V30 1627 H 156.814 -4.58496 1.57829 0
M  V30 1628 N 158.157 -0.370918 -1.53173 0
M  V30 1629 C 159.405 0.216673 -2.00935 0
M  V30 1630 C 159.726 1.48845 -1.25977 0
M  V30 1631 O 158.996 1.92286 -0.374551 0
M  V30 1632 H 157.576 0.0830565 -0.742368 0
M  V30 1633 H 160.238 -0.49838 -1.8842 0
M  V30 1634 H 159.334 0.439893 -3.08984 0
M  V30 1635 N 159.635 1.57281 -0.100228 0
M  V30 1636 C 160.881 1.94826 0.563101 0
M  V30 1637 C 161.214 0.982475 1.67514 0
M  V30 1638 O 160.489 0.0164069 1.94493 0
M  V30 1639 C 160.772 3.42453 1.11346 0
M  V30 1640 C 160.625 4.498 0.00612081 0
M  V30 1641 C 161.944 3.91506 2.01024 0
M  V30 1642 H 159.063 0.708428 0.203221 0
M  V30 1643 H 161.705 1.8922 -0.171979 0
M  V30 1644 H 159.855 3.47361 1.7399 0
M  V30 1645 H 161.527 4.57 -0.628357 0
M  V30 1646 H 159.77 4.28756 -0.659581 0
M  V30 1647 H 160.441 5.50306 0.432109 0
M  V30 1648 H 162.917 3.88784 1.48278 0
M  V30 1649 H 161.793 4.95358 2.36457 0
M  V30 1650 H 162.054 3.31099 2.92961 0
M  V30 1651 N 161.113 -0.173488 1.56642 0
M  V30 1652 C 162.361 -0.888706 1.81512 0
M  V30 1653 C 162.682 -1.82875 0.676872 0
M  V30 1654 O 161.952 -1.93536 -0.303414 0
M  V30 1655 H 160.532 -0.331164 0.669582 0
M  V30 1656 H 163.194 -0.173823 1.94123 0
M  V30 1657 H 162.29 -1.46691 2.75478 0
M  V30 1658 N 162.591 -1.51276 -0.441967 0
M  V30 1659 C 163.501 -1.75092 -1.56141 0
M  V30 1660 C 164.517 -0.634963 -1.62001 0
M  V30 1661 O 165.693 -0.916686 -1.79329 0
M  V30 1662 C 162.758 -1.86666 -2.92158 0
M  V30 1663 C 161.819 -3.10506 -2.96453 0
M  V30 1664 C 161.052 -3.21519 -4.25982 0
M  V30 1665 O 161.275 -2.38586 -5.18105 0
M  V30 1666 O 160.209 -4.14465 -4.36466 0
M  V30 1667 H 164.035 -2.70044 -1.38961 0
M  V30 1668 H 161.62 -1.35722 -0.624499 0
M  V30 1669 H 163.502 -1.96292 -3.72891 0
M  V30 1670 H 162.177 -0.949014 -3.09476 0
M  V30 1671 H 161.084 -3.06363 -2.14692 0
M  V30 1672 H 162.417 -4.01945 -2.84079 0
M  V30 1673 N 164.069 0.697108 -1.41344 0
M  V30 1674 C 165.315 1.4593 -1.40827 0
M  V30 1675 C 165.648 1.94193 -0.0167098 0
M  V30 1676 O 164.923 1.69425 0.955263 0
M  V30 1677 C 165.206 2.67229 -2.41373 0
M  V30 1678 C 165.059 2.24741 -3.8963 0
M  V30 1679 C 166.378 3.69423 -2.39196 0
M  V30 1680 H 163.497 0.529303 -0.512842 0
M  V30 1681 H 166.139 0.794112 -1.72609 0
M  V30 1682 H 164.289 3.23982 -2.14401 0
M  V30 1683 H 165.961 1.73327 -4.27499 0
M  V30 1684 H 164.204 1.56542 -4.0457 0
M  V30 1685 H 164.875 3.1177 -4.55525 0
M  V30 1686 H 167.351 3.2234 -2.63128 0
M  V30 1687 H 166.227 4.51907 -3.11563 0
M  V30 1688 H 166.488 4.19012 -1.41001 0
M  V30 1689 N 165.547 1.27147 0.931209 0
M  V30 1690 C 166.494 1.09568 2.03134 0
M  V30 1691 C 167.464 -0.00222433 1.661 0
M  V30 1692 O 168.649 0.159439 1.90133 0
M  V30 1693 C 165.789 0.745231 3.36957 0
M  V30 1694 C 164.902 1.92041 3.86968 0
M  V30 1695 C 164.037 1.51216 5.09222 0
M  V30 1696 C 163.076 2.65504 5.5152 0
M  V30 1697 N 162.213 2.25291 6.64972 0
M  V30 1698 H 167.053 2.03708 2.17502 0
M  V30 1699 H 164.59 1.01411 1.06556 0
M  V30 1700 H 166.548 0.522878 4.1391 0
M  V30 1701 H 165.178 -0.159202 3.22407 0
M  V30 1702 H 164.23 2.25541 3.06326 0
M  V30 1703 H 165.542 2.77787 4.1429 0
M  V30 1704 H 164.696 1.25084 5.93666 0
M  V30 1705 H 163.435 0.625749 4.83669 0
M  V30 1706 H 162.44 2.92354 4.65628 0
M  V30 1707 H 163.665 3.54761 5.7907 0
M  V30 1708 H 161.611 1.39098 6.41083 0
M  V30 1709 H 161.528 3.04577 6.91931 0
M  V30 1710 H 162.796 2.02398 7.52765 0
M  V30 1711 N 167.025 -1.13721 1.09112 0
M  V30 1712 C 168.272 -1.84924 0.825192 0
M  V30 1713 C 168.6 -1.83347 -0.649151 0
M  V30 1714 O 167.855 -1.26449 -1.49362 0
M  V30 1715 C 168.154 -3.32861 1.30146 0
M  V30 1716 C 167.82 -3.54621 2.78486 0
M  V30 1717 C 166.482 -3.60268 3.18999 0
M  V30 1718 C 168.834 -3.62855 3.74146 0
M  V30 1719 C 166.162 -3.71679 4.53951 0
M  V30 1720 C 168.514 -3.75793 5.08883 0
M  V30 1721 C 167.178 -3.79692 5.4899 0
M  V30 1722 H 166.448 -0.676684 0.301959 0
M  V30 1723 H 169.095 -1.3428 1.36533 0
M  V30 1724 H 167.4 -3.85835 0.681064 0
M  V30 1725 H 169.097 -3.86395 1.07236 0
M  V30 1726 H 165.687 -3.50879 2.46134 0
M  V30 1727 H 169.871 -3.57775 3.43963 0
M  V30 1728 H 165.127 -3.72963 4.84467 0
M  V30 1729 H 169.301 -3.81107 5.82864 0
M  V30 1730 H 166.928 -3.88287 6.53558 0
M  V30 1731 N 168.503 -0.877838 -1.30888 0
M  V30 1732 C 169.731 -0.507414 -2.00581 0
M  V30 1733 C 170.146 0.902216 -1.65848 0
M  V30 1734 O 169.503 1.59225 -0.891831 0
M  V30 1735 C 169.554 -0.664162 -3.55347 0
M  V30 1736 O 169.275 -2.01829 -3.8884 0
M  V30 1737 C 170.776 -0.295787 -4.42312 0
M  V30 1738 H 167.996 -0.196866 -0.641471 0
M  V30 1739 H 170.54 -1.18117 -1.66939 0
M  V30 1740 H 168.695 -0.0378619 -3.87381 0
M  V30 1741 H 169.109 -2.03174 -4.8355 0
M  V30 1742 H 170.583 -0.456388 -5.5011 0
M  V30 1743 H 171.06 0.765663 -4.32475 0
M  V30 1744 H 171.666 -0.898113 -4.15709 0
M  V30 1745 N 169.982 1.44106 -0.638065 0
M  V30 1746 C 171.23 2.01579 -0.145043 0
M  V30 1747 C 171.551 1.50496 1.24 0
M  V30 1748 O 170.821 0.711374 1.82527 0
M  V30 1749 H 169.401 0.745282 -0.05063 0
M  V30 1750 H 172.063 1.76516 -0.826327 0
M  V30 1751 H 171.159 3.11877 -0.118039 0
M  V30 1752 N 171.46 0.379036 1.52974 0
M  V30 1753 C 172.392 -0.495963 2.2377 0
M  V30 1754 C 173.405 -1.03517 1.25651 0
M  V30 1755 O 174.594 -0.939249 1.51791 0
M  V30 1756 C 171.694 -1.69894 2.93239 0
M  V30 1757 C 170.867 -1.2889 4.17979 0
M  V30 1758 C 169.926 -2.35543 4.70538 0
M  V30 1759 O 168.952 -1.97375 5.33883 0
M  V30 1760 N 170.154 -3.67318 4.49508 0
M  V30 1761 H 172.919 0.110523 2.99496 0
M  V30 1762 H 170.48 0.204878 1.60598 0
M  V30 1763 H 172.472 -2.40747 3.25304 0
M  V30 1764 H 171.042 -2.212 2.20883 0
M  V30 1765 H 170.262 -0.409676 3.92065 0
M  V30 1766 H 171.55 -0.991443 4.99047 0
M  V30 1767 H 170.948 -4.01095 3.98923 0
M  V30 1768 H 169.505 -4.34235 4.8609 0
M  V30 1769 N 172.938 -1.57226 0.108567 0
M  V30 1770 C 174.184 -1.95121 -0.552761 0
M  V30 1771 C 174.517 -0.991345 -1.66991 0
M  V30 1772 O 173.792 -0.0267211 -1.94482 0
M  V30 1773 C 174.075 -3.43039 -1.09528 0
M  V30 1774 C 173.928 -4.49797 0.0177332 0
M  V30 1775 C 175.247 -3.92567 -1.98945 0
M  V30 1776 H 172.366 -0.709496 -0.199461 0
M  V30 1777 H 175.008 -1.89126 0.182011 0
M  V30 1778 H 173.158 -3.48279 -1.72146 0
M  V30 1779 H 174.83 -4.56661 0.652584 0
M  V30 1780 H 173.073 -4.284 0.682309 0
M  V30 1781 H 173.744 -5.50528 -0.402919 0
M  V30 1782 H 176.22 -3.89565 -1.46214 0
M  V30 1783 H 175.096 -4.96605 -2.33827 0
M  V30 1784 H 175.357 -3.32648 -2.91201 0
M  V30 1785 N 174.416 0.165178 -1.56732 0
M  V30 1786 C 175.346 1.20651 -1.99914 0
M  V30 1787 C 176.327 1.45827 -0.875705 0
M  V30 1788 O 177.512 1.57057 -1.14223 0
M  V30 1789 C 174.642 2.54401 -2.36427 0
M  V30 1790 C 173.596 2.43782 -3.51787 0
M  V30 1791 C 172.922 3.82078 -3.7406 0
M  V30 1792 C 174.222 1.93732 -4.85041 0
M  V30 1793 H 175.916 0.847534 -2.87154 0
M  V30 1794 H 173.462 0.40625 -1.38151 0
M  V30 1795 H 175.415 3.27458 -2.65234 0
M  V30 1796 H 174.139 2.92098 -1.46103 0
M  V30 1797 H 172.798 1.73178 -3.23117 0
M  V30 1798 H 172.446 4.17179 -2.81017 0
M  V30 1799 H 172.146 3.7584 -4.51684 0
M  V30 1800 H 173.67 4.56712 -4.05274 0
M  V30 1801 H 175.084 2.56569 -5.12684 0
M  V30 1802 H 173.481 1.98428 -5.66345 0
M  V30 1803 H 174.551 0.891962 -4.76626 0
M  V30 1804 N 175.894 1.51508 0.433938 0
M  V30 1805 C 177.305 1.56784 1.01369 0
M  V30 1806 C 177.656 0.393349 1.92217 0
M  V30 1807 O 176.781 -0.489441 2.10792 0
M  V30 1808 C 177.376 2.84144 1.8452 0
M  V30 1809 C 175.935 2.9198 2.37539 0
M  V30 1810 C 175.082 2.51482 1.16843 0
M  V30 1811 H 178.033 1.57236 0.215081 0
M  V30 1812 H 178.054 2.68098 2.70007 0
M  V30 1813 H 177.566 3.69607 1.18373 0
M  V30 1814 H 175.667 2.10955 3.0713 0
M  V30 1815 H 175.78 3.95704 2.70103 0
M  V30 1816 H 174.144 2.04758 1.51481 0
M  V30 1817 H 174.927 3.39293 0.523015 0
M  V30 1818 N 177.372 -0.689602 1.41712 0
M  V30 1819 C 178.6 -1.47827 1.44758 0
M  V30 1820 C 179.015 -1.88721 0.0545703 0
M  V30 1821 O 178.372 -1.57176 -0.927463 0
M  V30 1822 C 178.423 -2.73698 2.3616 0
M  V30 1823 O 178.144 -2.34524 3.7004 0
M  V30 1824 C 179.645 -3.67389 2.48072 0
M  V30 1825 H 176.865 -0.455357 0.49284 0
M  V30 1826 H 179.409 -0.848574 1.86063 0
M  V30 1827 H 177.564 -3.32891 1.98148 0
M  V30 1828 H 177.978 -3.15701 4.18847 0
M  V30 1829 H 179.452 -4.52475 3.16181 0
M  V30 1830 H 179.929 -4.12284 1.51388 0
M  V30 1831 H 180.535 -3.14097 2.86746 0
M  V30 1832 N 178.85 -1.27639 -0.924453 0
M  V30 1833 C 179.813 -1.10681 -2.00705 0
M  V30 1834 C 180.813 -0.0497823 -1.60723 0
M  V30 1835 O 182.003 -0.294654 -1.7169 0
M  V30 1836 C 179.135 -0.687164 -3.33902 0
M  V30 1837 H 180.328 -2.06817 -2.17179 0
M  V30 1838 H 177.881 -1.10473 -1.10569 0
M  V30 1839 H 178.616 0.275439 -3.23128 0
M  V30 1840 H 178.401 -1.45061 -3.6428 0
M  V30 1841 H 179.891 -0.590853 -4.13399 0
M  V30 1842 N 180.328 1.1314 -1.09713 0
M  V30 1843 C 181.275 2.18642 -0.739196 0
M  V30 1844 C 182.245 1.63706 0.280978 0
M  V30 1845 O 183.43 1.90111 0.161946 0
M  V30 1846 C 180.57 3.44685 -0.169102 0
M  V30 1847 C 179.683 4.13711 -1.24367 0
M  V30 1848 C 178.818 5.27379 -0.636019 0
M  V30 1849 C 177.857 5.88259 -1.69169 0
M  V30 1850 N 176.994 6.93352 -1.10485 0
M  V30 1851 H 181.834 2.48607 -1.64312 0
M  V30 1852 H 179.371 1.22066 -0.820875 0
M  V30 1853 H 181.329 4.16815 0.179256 0
M  V30 1854 H 179.959 3.15161 0.698079 0
M  V30 1855 H 179.011 3.39835 -1.70927 0
M  V30 1856 H 180.323 4.55037 -2.04311 0
M  V30 1857 H 179.477 6.06238 -0.236677 0
M  V30 1858 H 178.216 4.8731 0.194928 0
M  V30 1859 H 177.221 5.08092 -2.10055 0
M  V30 1860 H 178.446 6.30399 -2.52536 0
M  V30 1861 H 176.392 6.55335 -0.295234 0
M  V30 1862 H 176.309 7.33236 -1.84121 0
M  V30 1863 H 177.577 7.76057 -0.73181 0
M  V30 1864 N 181.806 0.884767 1.30421 0
M  V30 1865 C 182.753 0.349642 2.28136 0
M  V30 1866 C 183.723 -0.560061 1.56373 0
M  V30 1867 O 184.908 -0.488524 1.8444 0
M  V30 1868 C 182.048 -0.42999 3.42411 0
M  V30 1869 C 181.161 0.508907 4.28992 0
M  V30 1870 C 180.296 -0.286301 5.30428 0
M  V30 1871 C 179.335 0.648079 6.08659 0
M  V30 1872 N 178.472 -0.111792 7.02011 0
M  V30 1873 H 183.312 1.18807 2.73293 0
M  V30 1874 H 180.849 0.597231 1.3443 0
M  V30 1875 H 182.807 -0.897923 4.07423 0
M  V30 1876 H 181.437 -1.23299 2.98324 0
M  V30 1877 H 180.489 1.09533 3.64289 0
M  V30 1878 H 181.801 1.22475 4.8353 0
M  V30 1879 H 180.955 -0.816098 6.01186 0
M  V30 1880 H 179.694 -1.03536 4.76583 0
M  V30 1881 H 178.699 1.18951 5.36778 0
M  V30 1882 H 179.924 1.39623 6.64592 0
M  V30 1883 H 177.87 -0.843395 6.50556 0
M  V30 1884 H 177.787 0.544429 7.54037 0
M  V30 1885 H 179.055 -0.622339 7.77012 0
M  V30 1886 N 183.284 -1.43765 0.645699 0
M  V30 1887 C 184.53 -2.02197 0.156271 0
M  V30 1888 C 184.863 -1.50776 -1.22393 0
M  V30 1889 O 184.138 -0.697771 -1.81553 0
M  V30 1890 C 184.421 -3.59749 0.158872 0
M  V30 1891 C 184.274 -4.21419 1.57245 0
M  V30 1892 C 185.593 -4.37149 -0.50879 0
M  V30 1893 H 182.712 -0.734694 0.0582602 0
M  V30 1894 H 185.354 -1.71157 0.824951 0
M  V30 1895 H 183.504 -3.86325 -0.410525 0
M  V30 1896 H 185.176 -4.059 2.19186 0
M  V30 1897 H 183.419 -3.78356 2.122 0
M  V30 1898 H 184.09 -5.30482 1.52619 0
M  V30 1899 H 186.566 -4.16093 -0.024412 0
M  V30 1900 H 185.442 -5.4683 -0.476213 0
M  V30 1901 H 185.703 -4.12839 -1.58165 0
M  V30 1902 N 184.763 -0.387143 -1.52771 0
M  V30 1903 C 185.991 0.195869 -2.05971 0
M  V30 1904 C 186.406 1.40691 -1.25903 0
M  V30 1905 O 185.763 1.79931 -0.305134 0
M  V30 1906 C 185.814 0.56812 -3.57008 0
M  V30 1907 O 185.535 -0.594803 -4.34043 0
M  V30 1908 C 187.036 1.20723 -4.26545 0
M  V30 1909 H 184.256 0.0300578 -0.670326 0
M  V30 1910 H 186.8 -0.551749 -1.96916 0
M  V30 1911 H 184.955 1.26564 -3.66143 0
M  V30 1912 H 185.369 -0.289322 -5.23701 0
M  V30 1913 H 186.843 1.41807 -5.33474 0
M  V30 1914 H 187.32 2.17395 -3.81623 0
M  V30 1915 H 187.926 0.550535 -4.21722 0
M  V30 1916 N 186.241 1.57166 -0.116904 0
M  V30 1917 C 187.471 1.99184 0.548586 0
M  V30 1918 C 187.879 0.995436 1.60897 0
M  V30 1919 O 187.222 -0.0201293 1.83689 0
M  V30 1920 C 187.284 3.37611 1.23526 0
M  V30 1921 C 186.948 4.55857 0.323077 0
M  V30 1922 C 187.945 5.18056 -0.437476 0
M  V30 1923 C 185.63 5.01751 0.234761 0
M  V30 1924 C 187.624 6.24536 -1.2741 0
M  V30 1925 C 185.311 6.08093 -0.605496 0
M  V30 1926 C 186.309 6.69352 -1.35856 0
M  V30 1927 O 185.997 7.7364 -2.18487 0
M  V30 1928 H 185.729 0.659148 0.149999 0
M  V30 1929 H 188.283 2.0443 -0.199428 0
M  V30 1930 H 186.513 3.29113 2.0303 0
M  V30 1931 H 188.202 3.63932 1.79745 0
M  V30 1932 H 188.968 4.83516 -0.379105 0
M  V30 1933 H 184.847 4.53817 0.810601 0
M  V30 1934 H 188.391 6.72281 -1.86237 0
M  V30 1935 H 184.288 6.42063 -0.665268 0
M  V30 1936 H 185.056 7.90727 -2.11406 0
M  V30 1937 N 187.719 -0.156864 1.56817 0
M  V30 1938 C 189.135 -0.50916 1.5126 0
M  V30 1939 C 189.335 -1.83897 0.823658 0
M  V30 1940 O 188.391 -2.49469 0.390055 0
M  V30 1941 C 189.704 -0.52857 2.96018 0
M  V30 1942 C 191.252 -0.614771 3.06903 0
M  V30 1943 C 191.727 -0.664938 4.53147 0
M  V30 1944 N 193.218 -0.727433 4.57452 0
M  V30 1945 C 193.953 -0.787067 5.67973 0
M  V30 1946 N 193.449 -0.806649 6.88088 0
M  V30 1947 N 195.242 -0.827195 5.5598 0
M  V30 1948 H 187.393 0.714935 2.00006 0
M  V30 1949 H 189.656 0.259526 0.911784 0
M  V30 1950 H 189.362 0.380154 3.49639 0
M  V30 1951 H 189.236 -1.36998 3.51442 0
M  V30 1952 H 191.623 -1.51392 2.53307 0
M  V30 1953 H 191.704 0.253597 2.5454 0
M  V30 1954 H 191.348 0.230011 5.07379 0
M  V30 1955 H 191.278 -1.54966 5.03282 0
M  V30 1956 H 193.769 -0.719998 3.70978 0
M  V30 1957 H 194.082 -0.853727 7.6807 0
M  V30 1958 H 192.427 -0.774687 6.90669 0
M  V30 1959 H 195.618 -0.808998 4.61056 0
M  V30 1960 H 195.791 -0.870206 6.4213 0
M  V30 1961 N 189.197 -1.51736 -0.425897 0
M  V30 1962 C 190.446 -1.64201 -1.17136 0
M  V30 1963 C 190.759 -0.369705 -1.92074 0
M  V30 1964 O 191.965 -0.373898 -2.68913 0
M  V30 1965 C 190.421 -2.90035 -2.13091 0
M  V30 1966 C 190.029 -4.24312 -1.43747 0
M  V30 1967 C 191.773 -3.1186 -2.87999 0
M  V30 1968 C 189.68 -5.41285 -2.38253 0
M  V30 1969 H 188.61 -0.611624 -0.440944 0
M  V30 1970 H 191.261 -1.78212 -0.437328 0
M  V30 1971 H 189.643 -2.69684 -2.89977 0
M  V30 1972 H 190.817 -4.55086 -0.723408 0
M  V30 1973 H 189.132 -4.08456 -0.809465 0
M  V30 1974 H 191.729 -3.96427 -3.58817 0
M  V30 1975 H 192.072 -2.25403 -3.49999 0
M  V30 1976 H 192.605 -3.32605 -2.18217 0
M  V30 1977 H 189.344 -6.30037 -1.80925 0
M  V30 1978 H 188.864 -5.14872 -3.0768 0
M  V30 1979 H 190.543 -5.73694 -2.99139 0
M  V30 1980 N 190.675 0.682077 -1.42076 0
M  V30 1981 C 191.625 1.78823 -1.41444 0
M  V30 1982 C 192.609 1.58323 -0.28681 0
M  V30 1983 O 193.801 1.68926 -0.528498 0
M  V30 1984 C 190.93 3.17232 -1.3122 0
M  V30 1985 C 190.016 3.4338 -2.489 0
M  V30 1986 N 190.407 3.40152 -3.7434 0
M  V30 1987 C 188.705 3.73986 -2.43003 0
M  V30 1988 C 189.406 3.65581 -4.52466 0
M  V30 1989 N 188.382 3.85989 -3.8277 0
M  V30 1990 H 192.184 1.7471 -2.36334 0
M  V30 1991 H 189.698 0.882622 -1.36321 0
M  V30 1992 H 191.695 3.96489 -1.2885 0
M  V30 1993 H 190.355 3.22547 -0.373263 0
M  V30 1994 H 191.366 3.20221 -4.07037 0
M  V30 1995 H 188.043 3.86591 -1.57651 0
M  V30 1996 H 189.433 3.69108 -5.61435 0
M  V30 1997 N 192.153 1.28127 0.917671 0
M  V30 1998 C 193.4 1.15052 1.66641 0
M  V30 1999 C 193.728 -0.301677 1.92146 0
M  V30 2000 O 192.983 -1.23622 1.51711 0
M  V30 2001 C 193.282 1.89018 3.03327 0
M  V30 2002 C 192.948 3.38832 2.97496 0
M  V30 2003 C 191.61 3.79693 2.95613 0
M  V30 2004 C 193.962 4.34378 2.88036 0
M  V30 2005 C 191.29 5.14447 2.82066 0
M  V30 2006 C 193.642 5.69201 2.7603 0
M  V30 2007 C 192.306 6.09343 2.72502 0
M  V30 2008 H 191.576 0.421006 0.609783 0
M  V30 2009 H 194.223 1.58855 1.06945 0
M  V30 2010 H 192.528 1.37752 3.66785 0
M  V30 2011 H 194.225 1.76321 3.60156 0
M  V30 2012 H 190.815 3.06342 2.99754 0
M  V30 2013 H 194.999 4.03775 2.88581 0
M  V30 2014 H 190.255 5.44681 2.77728 0
M  V30 2015 H 194.429 6.42901 2.67678 0
M  V30 2016 H 192.056 7.13712 2.61762 0
M  V30 2017 N 193.631 -1.12557 1.10312 0
M  V30 2018 C 194.578 -2.18247 0.750781 0
M  V30 2019 C 195.548 -1.63853 -0.272293 0
M  V30 2020 O 196.733 -1.90195 -0.151862 0
M  V30 2021 C 193.873 -3.44591 0.187379 0
M  V30 2022 C 192.986 -4.13046 1.2656 0
M  V30 2023 C 192.121 -5.27034 0.663978 0
M  V30 2024 C 191.16 -5.87353 1.72287 0
M  V30 2025 N 190.297 -6.92757 1.1416 0
M  V30 2026 H 195.137 -2.47732 1.65628 0
M  V30 2027 H 192.674 -1.21629 0.827337 0
M  V30 2028 H 194.632 -4.16904 -0.157148 0
M  V30 2029 H 193.262 -3.15527 -0.681355 0
M  V30 2030 H 192.314 -3.38924 1.72727 0
M  V30 2031 H 193.626 -4.53947 2.06721 0
M  V30 2032 H 192.78 -6.06104 0.268824 0
M  V30 2033 H 191.519 -4.87407 -0.169082 0
M  V30 2034 H 190.524 -5.06971 2.12746 0
M  V30 2035 H 191.749 -6.29051 2.55875 0
M  V30 2036 H 189.695 -6.5517 0.329984 0
M  V30 2037 H 189.612 -7.3225 1.88007 0
M  V30 2038 H 190.88 -7.75658 0.772956 0
M  V30 2039 N 195.109 -0.891671 -1.2995 0
M  V30 2040 C 196.525 -0.58662 -1.48428 0
M  V30 2041 C 196.725 0.873951 -1.81561 0
M  V30 2042 O 195.781 1.65471 -1.90724 0
M  V30 2043 C 197.094 -1.50553 -2.60296 0
M  V30 2044 C 198.642 -1.50988 -2.74175 0
M  V30 2045 C 199.117 -2.41488 -3.89163 0
M  V30 2046 N 200.608 -2.39489 -3.96483 0
M  V30 2047 C 201.343 -3.06223 -4.84784 0
M  V30 2048 N 200.839 -3.82206 -5.77833 0
M  V30 2049 N 202.632 -2.95421 -4.78208 0
M  V30 2050 H 194.783 -1.83644 -1.06718 0
M  V30 2051 H 197.046 -0.786455 -0.529332 0
M  V30 2052 H 196.752 -2.54581 -2.42654 0
M  V30 2053 H 196.626 -1.22008 -3.56923 0
M  V30 2054 H 199.013 -0.47708 -2.91218 0
M  V30 2055 H 199.094 -1.83567 -1.78148 0
M  V30 2056 H 198.738 -3.44857 -3.72876 0
M  V30 2057 H 198.668 -2.06222 -4.84541 0
M  V30 2058 H 201.159 -1.84278 -3.29924 0
M  V30 2059 H 201.472 -4.302 -6.41988 0
M  V30 2060 H 199.817 -3.86313 -5.77743 0
M  V30 2061 H 203.008 -2.35581 -4.04499 0
M  V30 2062 H 203.181 -3.47704 -5.46814 0
M  V30 2063 N 196.587 1.43421 -0.653314 0
M  V30 2064 C 197.836 2.01032 -0.164076 0
M  V30 2065 C 198.149 1.52147 1.22926 0
M  V30 2066 O 199.355 2.02031 1.81371 0
M  V30 2067 C 197.811 3.59082 -0.24252 0
M  V30 2068 C 197.419 4.1696 -1.63855 0
M  V30 2069 C 199.163 4.24079 0.18911 0
M  V30 2070 C 197.07 5.67304 -1.67092 0
M  V30 2071 H 196 0.751798 -0.0575769 0
M  V30 2072 H 198.651 1.6439 -0.815362 0
M  V30 2073 H 197.033 3.93125 0.476276 0
M  V30 2074 H 198.207 3.94416 -2.38271 0
M  V30 2075 H 196.522 3.64335 -2.01616 0
M  V30 2076 H 199.119 5.34381 0.184775 0
M  V30 2077 H 199.462 3.98005 1.22056 0
M  V30 2078 H 199.995 3.94918 -0.477938 0
M  V30 2079 H 196.734 5.98145 -2.68146 0
M  V30 2080 H 196.254 5.91904 -0.970014 0
M  V30 2081 H 197.933 6.31344 -1.4147 0
M  V30 2082 N 198.065 0.39524 1.52563 0
M  V30 2083 C 199.311 -0.185318 2.01952 0
M  V30 2084 C 199.644 -1.45964 1.28095 0
M  V30 2085 O 198.919 -1.90689 0.38315 0
M  V30 2086 C 199.202 -0.447193 3.57312 0
M  V30 2087 C 199.055 0.842828 4.41833 0
M  V30 2088 C 200.374 -1.23529 4.22408 0
M  V30 2089 H 197.493 -0.0658788 0.73405 0
M  V30 2090 H 200.135 0.525975 1.82575 0
M  V30 2091 H 198.285 -1.05312 3.73954 0
M  V30 2092 H 199.957 1.4795 4.36931 0
M  V30 2093 H 198.2 1.45686 4.08605 0
M  V30 2094 H 198.871 0.614165 5.48573 0
M  V30 2095 H 201.347 -0.722445 4.0978 0
M  V30 2096 H 200.223 -1.38727 5.3108 0
M  V30 2097 H 200.484 -2.25213 3.80436 0
M  V30 2098 N 199.544 -1.57102 0.125237 0
M  V30 2099 C 200.492 -2.16905 -0.839927 0
M  V30 2100 C 201.486 -1.11998 -1.27094 0
M  V30 2101 O 202.692 -1.3029 -1.24195 0
M  V30 2102 H 199.067 -0.694252 -0.288995 0
M  V30 2103 H 201.038 -2.96774 -0.311115 0
M  V30 2104 C 199.787 -2.78795 -2.07771 0
M  V30 2105 H 199.11 -3.59221 -1.755 0
M  V30 2106 H 200.55 -3.2417 -2.73295 0
M  V30 2107 C 199.009 -1.76193 -2.87155 0
M  V30 2108 O 199.539 -1.21909 -3.82755 0
M  V30 2109 N 197.745 -1.45991 -2.51267 0
M  V30 2110 H 197.292 -1.90325 -1.73592 0
M  V30 2111 H 197.25 -0.775844 -3.04677 0
M  V30 2112 N 201.022 0.148545 -1.56898 0
M  V30 2113 C 202.438 0.501131 -1.51528 0
M  V30 2114 C 202.638 1.83458 -0.833399 0
M  V30 2115 O 201.694 2.49259 -0.40328 0
M  V30 2116 C 203.007 0.512864 -2.96294 0
M  V30 2117 C 204.555 0.598487 -3.07225 0
M  V30 2118 C 205.03 0.640897 -4.53494 0
M  V30 2119 N 206.521 0.703163 -4.57832 0
M  V30 2120 C 207.256 0.756935 -5.68382 0
M  V30 2121 N 206.752 0.770147 -6.88506 0
M  V30 2122 N 208.545 0.797698 -5.56411 0
M  V30 2123 H 200.696 -0.725532 -1.99624 0
M  V30 2124 H 202.959 -0.264358 -0.910395 0
M  V30 2125 H 202.665 -0.398691 -3.49433 0
M  V30 2126 H 202.539 1.35133 -3.52163 0
M  V30 2127 H 204.926 1.50046 -2.54106 0
M  V30 2128 H 205.007 -0.267093 -2.54402 0
M  V30 2129 H 204.651 -0.256915 -5.0725 0
M  V30 2130 H 204.581 1.52295 -5.04097 0
M  V30 2131 H 207.072 0.700314 -3.71354 0
M  V30 2132 H 207.385 0.812983 -7.68512 0
M  V30 2133 H 205.73 0.738049 -6.9107 0
M  V30 2134 H 208.921 0.784535 -4.61479 0
M  V30 2135 H 209.094 0.83614 -6.42583 0
M  V30 2136 N 202.5 1.5196 0.417844 0
M  V30 2137 C 203.916 1.40569 0.755816 0
M  V30 2138 C 204.116 0.503316 1.95113 0
M  V30 2139 O 203.172 -0.0341925 2.52477 0
M  V30 2140 C 204.485 2.82947 1.01791 0
M  V30 2141 C 206.033 2.92231 1.12116 0
M  V30 2142 C 206.508 4.35559 1.41608 0
M  V30 2143 N 207.999 4.38753 1.48491 0
M  V30 2144 C 208.734 5.46705 1.7292 0
M  V30 2145 N 208.23 6.64788 1.95011 0
M  V30 2146 N 210.023 5.34209 1.74863 0
M  V30 2147 H 202.174 2.09168 -0.369098 0
M  V30 2148 H 204.437 0.942409 -0.102809 0
M  V30 2149 H 204.143 3.5106 0.212081 0
M  V30 2150 H 204.017 3.23462 1.94042 0
M  V30 2151 H 206.404 2.24304 1.9176 0
M  V30 2152 H 206.485 2.55185 0.177225 0
M  V30 2153 H 206.129 5.04042 0.624848 0
M  V30 2154 H 206.059 4.70133 2.37239 0
M  V30 2155 H 208.55 3.5363 1.33244 0
M  V30 2156 H 208.863 7.42845 2.13076 0
M  V30 2157 H 207.208 6.67869 1.92293 0
M  V30 2158 H 210.399 4.40937 1.57137 0
M  V30 2159 H 210.572 6.18415 1.93563 0
M  V30 2160 N 203.978 -0.674533 1.42435 0
M  V30 2161 C 204.908 -1.80009 1.48724 0
M  V30 2162 C 205.889 -1.6659 0.343793 0
M  V30 2163 O 207.074 -1.86007 0.558137 0
M  V30 2164 C 204.204 -3.18306 1.38919 0
M  V30 2165 C 203.158 -3.46461 2.51294 0
M  V30 2166 C 202.484 -4.84335 2.26547 0
M  V30 2167 C 203.784 -3.43328 3.93603 0
M  V30 2168 H 205.478 -1.75004 2.42928 0
M  V30 2169 H 203.024 -0.840533 1.16923 0
M  V30 2170 H 204.977 -3.9678 1.41927 0
M  V30 2171 H 203.701 -3.2399 0.412094 0
M  V30 2172 H 202.36 -2.70348 2.47604 0
M  V30 2173 H 202.008 -4.86669 1.2713 0
M  V30 2174 H 201.708 -5.04136 3.01861 0
M  V30 2175 H 203.232 -5.65094 2.31304 0
M  V30 2176 H 204.646 -4.11772 3.98894 0
M  V30 2177 H 203.043 -3.74664 4.68771 0
M  V30 2178 H 204.113 -2.41897 4.20255 0
M  V30 2179 N 205.456 -1.28612 -0.910864 0
M  V30 2180 C 206.705 -1.15311 -1.65488 0
M  V30 2181 C 207.018 0.296999 -1.93332 0
M  V30 2182 O 208.224 0.551168 -2.65847 0
M  V30 2183 C 206.68 -2.01599 -2.98137 0
M  V30 2184 C 206.288 -3.51367 -2.7793 0
M  V30 2185 C 208.032 -1.96993 -3.76024 0
M  V30 2186 C 205.939 -4.29797 -4.06237 0
M  V30 2187 H 204.869 -0.42796 -0.620779 0
M  V30 2188 H 207.52 -1.53166 -1.01057 0
M  V30 2189 H 205.902 -1.56603 -3.63719 0
M  V30 2190 H 207.076 -4.0434 -2.21011 0
M  V30 2191 H 205.391 -3.57529 -2.13452 0
M  V30 2192 H 207.988 -2.52856 -4.71135 0
M  V30 2193 H 208.331 -0.94733 -4.05378 0
M  V30 2194 H 208.864 -2.39973 -3.17266 0
M  V30 2195 H 205.603 -5.32648 -3.82055 0
M  V30 2196 H 205.123 -3.81596 -4.62757 0
M  V30 2197 H 206.802 -4.39869 -4.74473 0
M  V30 2198 N 206.934 1.1197 -1.10907 0
M  V30 2199 C 207.867 2.16998 -0.706192 0
M  V30 2200 C 208.845 1.59903 0.294897 0
M  V30 2201 O 210.029 1.87513 0.192636 0
M  V30 2202 C 207.156 3.38673 -0.0427664 0
M  V30 2203 C 206.202 4.14414 -1.00811 0
M  V30 2204 S 207.035 4.72079 -2.52789 0
M  V30 2205 C 208.191 5.97083 -1.87731 0
M  V30 2206 H 208.424 2.50837 -1.59587 0
M  V30 2207 H 205.957 1.23508 -0.926555 0
M  V30 2208 H 207.915 4.09142 0.333668 0
M  V30 2209 H 206.576 3.03105 0.823788 0
M  V30 2210 H 205.769 5.016 -0.491259 0
M  V30 2211 H 205.371 3.49678 -1.3267 0
M  V30 2212 H 207.663 6.66599 -1.21044 0
M  V30 2213 H 208.606 6.53403 -2.72892 0
M  V30 2214 H 209.014 5.4837 -1.33979 0
M  V30 2215 N 208.412 0.89855 1.29475 0
M  V30 2216 C 209.66 0.522847 1.9522 0
M  V30 2217 C 209.981 -0.93371 1.71192 0
M  V30 2218 O 209.251 -1.65823 1.04305 0
M  V30 2219 H 207.831 0.190366 0.722336 0
M  V30 2220 H 210.493 1.14459 1.5775 0
M  V30 2221 H 209.589 0.704476 3.04045 0
M  V30 2222 N 209.89 -1.43072 0.660911 0
M  V30 2223 C 210.82 -2.33497 -0.0122829 0
M  V30 2224 C 211.801 -1.49903 -0.803925 0
M  V30 2225 O 212.986 -1.78546 -0.763864 0
M  V30 2226 C 210.116 -3.33363 -0.973994 0
M  V30 2227 C 209.07 -4.27003 -0.291928 0
M  V30 2228 C 208.396 -5.16967 -1.36562 0
M  V30 2229 C 209.696 -5.15816 0.820462 0
M  V30 2230 H 211.39 -2.90038 0.742873 0
M  V30 2231 H 208.936 -1.39461 0.358688 0
M  V30 2232 H 210.889 -3.95524 -1.45392 0
M  V30 2233 H 209.613 -2.75095 -1.7604 0
M  V30 2234 H 208.272 -3.66217 0.167623 0
M  V30 2235 H 207.92 -4.55034 -2.14366 0
M  V30 2236 H 207.62 -5.80441 -0.914454 0
M  V30 2237 H 209.144 -5.82003 -1.84675 0
M  V30 2238 H 210.558 -5.71742 0.422366 0
M  V30 2239 H 208.955 -5.8805 1.19656 0
M  V30 2240 H 210.025 -4.55045 1.67518 0
M  V30 2241 N 211.368 -0.403325 -1.52352 0
M  V30 2242 C 212.331 0.413051 -2.25447 0
M  V30 2243 C 213.331 0.978513 -1.276 0
M  V30 2244 O 214.521 0.858305 -1.51587 0
M  V30 2245 C 211.653 1.58087 -3.02029 0
M  V30 2246 H 212.846 -0.227094 -2.99039 0
M  V30 2247 H 210.399 -0.155722 -1.55522 0
M  V30 2248 H 211.134 2.25804 -2.32772 0
M  V30 2249 H 210.919 1.18195 -3.73861 0
M  V30 2250 H 212.409 2.1585 -3.57489 0
M  V30 2251 N 212.846 1.57033 -0.133567 0
M  V30 2252 C 214.123 1.87256 0.56522 0
M  V30 2253 C 214.503 1.03726 1.83859 0
M  V30 2254 O 213.851 0.120247 2.28183 0
M  V30 2255 C 214.061 3.3865 0.843636 0
M  V30 2256 C 215.409 4.07574 1.19032 0
M  V30 2257 O 216.433 3.43752 0.933429 0
M  V30 2258 O 215.292 5.20259 1.67312 0
M  V30 2259 H 212.386 0.775678 0.286796 0
M  V30 2260 H 214.932 1.68855 -0.169168 0
M  V30 2261 H 213.704 3.91257 -0.0581149 0
M  V30 2262 H 213.327 3.62532 1.63268 0
M  V30 2263 N 214.325 -0.140222 1.56975 0
M  V30 2264 C 215.573 -0.850005 1.83356 0
M  V30 2265 C 215.894 -1.81399 0.71551 0
M  V30 2266 O 215.164 -1.94136 -0.262294 0
M  V30 2267 H 213.744 -0.316886 0.676456 0
M  V30 2268 H 216.406 -0.132608 1.94448 0
M  V30 2269 H 215.502 -1.40814 2.78528 0
M  V30 2270 N 215.803 -1.52179 -0.40978 0
M  V30 2271 C 216.713 -1.78364 -1.52392 0
M  V30 2272 C 217.729 -0.669183 -1.60617 0
M  V30 2273 O 218.905 -0.954518 -1.77344 0
M  V30 2274 C 215.97 -1.92822 -2.88133 0
M  V30 2275 C 215.031 -3.16725 -2.898 0
M  V30 2276 C 214.264 -3.30483 -4.19067 0
M  V30 2277 O 214.487 -2.49522 -5.12928 0
M  V30 2278 O 213.421 -4.2363 -4.27576 0
M  V30 2279 H 217.247 -2.72931 -1.33201 0
M  V30 2280 H 214.832 -1.37016 -0.59557 0
M  V30 2281 H 216.714 -2.04157 -3.68643 0
M  V30 2282 H 215.389 -1.01444 -3.07393 0
M  V30 2283 H 214.296 -3.10848 -2.08146 0
M  V30 2284 H 215.629 -4.07881 -2.75489 0
M  V30 2285 N 217.281 0.66697 -1.42791 0
M  V30 2286 C 218.527 1.4291 -1.43891 0
M  V30 2287 C 218.86 1.94114 -0.0578972 0
M  V30 2288 O 218.135 1.71414 0.91911 0
M  V30 2289 C 218.418 2.62049 -2.46987 0
M  V30 2290 C 218.271 2.16426 -3.94309 0
M  V30 2291 C 219.59 3.64266 -2.46978 0
M  V30 2292 H 216.709 0.518306 -0.523954 0
M  V30 2293 H 219.351 0.757321 -1.74255 0
M  V30 2294 H 217.501 3.19361 -2.21225 0
M  V30 2295 H 219.173 1.64221 -4.31079 0
M  V30 2296 H 217.416 1.47925 -4.078 0
M  V30 2297 H 218.087 3.02038 -4.62036 0
M  V30 2298 H 220.563 3.16686 -2.69906 0
M  V30 2299 H 219.439 4.45196 -3.21079 0
M  V30 2300 H 219.7 4.15927 -1.49857 0
M  V30 2301 N 218.759 1.29093 0.90403 0
M  V30 2302 C 219.689 1.16401 2.02418 0
M  V30 2303 C 220.67 0.0593085 1.69997 0
M  V30 2304 O 221.855 0.238021 1.92736 0
M  V30 2305 C 218.985 0.835233 3.37107 0
M  V30 2306 C 217.939 1.89578 3.83724 0
M  V30 2307 C 217.265 1.42041 5.15489 0
M  V30 2308 C 218.565 3.30394 4.04521 0
M  V30 2309 H 220.259 2.10109 2.13295 0
M  V30 2310 H 217.805 1.01157 1.02486 0
M  V30 2311 H 219.758 0.733169 4.14973 0
M  V30 2312 H 218.482 -0.137543 3.2631 0
M  V30 2313 H 217.141 1.98715 3.08071 0
M  V30 2314 H 216.789 0.436426 5.01103 0
M  V30 2315 H 216.489 2.12964 5.4765 0
M  V30 2316 H 218.013 1.33176 5.959 0
M  V30 2317 H 219.427 3.24123 4.72882 0
M  V30 2318 H 217.824 3.99237 4.48029 0
M  V30 2319 H 218.894 3.73692 3.09002 0
M  V30 2320 N 220.237 -1.11381 1.11499 0
M  V30 2321 C 221.483 -1.83403 0.865512 0
M  V30 2322 C 221.816 -1.84459 -0.607329 0
M  V30 2323 O 221.091 -1.29811 -1.44842 0
M  V30 2324 C 221.374 -3.30552 1.42855 0
M  V30 2325 C 221.227 -3.37886 2.96906 0
M  V30 2326 C 222.546 -4.26643 1.08 0
M  V30 2327 H 219.665 -0.665879 0.31587 0
M  V30 2328 H 222.307 -1.30601 1.37998 0
M  V30 2329 H 220.457 -3.75648 0.990985 0
M  V30 2330 H 222.129 -3.01343 3.49271 0
M  V30 2331 H 220.372 -2.78088 3.32941 0
M  V30 2332 H 221.043 -4.41458 3.31389 0
M  V30 2333 H 223.519 -3.89729 1.45775 0
M  V30 2334 H 222.395 -5.27986 1.50072 0
M  V30 2335 H 222.656 -4.42099 -0.00915037 0
M  V30 2336 N 221.715 -0.905404 -1.28997 0
M  V30 2337 C 222.992 -0.453513 -1.9027 0
M  V30 2338 C 223.372 1.06721 -1.82137 0
M  V30 2339 O 222.72 1.91159 -1.25182 0
M  V30 2340 C 222.93 -0.974494 -3.35119 0
M  V30 2341 C 224.278 -1.0216 -4.12127 0
M  V30 2342 O 225.302 -0.922557 -3.44046 0
M  V30 2343 O 224.161 -1.17121 -5.33802 0
M  V30 2344 H 221.255 -0.142347 -0.814657 0
M  V30 2345 H 223.801 -0.995642 -1.37423 0
M  V30 2346 H 222.573 -2.01848 -3.35221 0
M  V30 2347 H 222.196 -0.412706 -3.95452 0
M  V30 2348 N 223.193 1.4272 -0.668489 0
M  V30 2349 C 224.441 2.01226 -0.187769 0
M  V30 2350 C 224.762 1.53092 1.2078 0
M  V30 2351 O 224.032 0.74993 1.80977 0
M  V30 2352 H 222.612 0.744041 -0.0664272 0
M  V30 2353 H 225.274 1.74723 -0.863583 0
M  V30 2354 H 224.37 3.11556 -0.184166 0
M  V30 2355 N 224.671 0.411399 1.52136 0
M  V30 2356 C 226.087 0.0623865 1.59478 0
M  V30 2357 C 226.287 -1.42554 1.4241 0
M  V30 2358 O 225.343 -2.19263 1.2522 0
M  V30 2359 C 226.656 0.559331 2.95452 0
M  V30 2360 C 228.204 0.517503 3.08692 0
M  V30 2361 C 228.679 0.990994 4.4715 0
M  V30 2362 N 230.17 0.947908 4.53397 0
M  V30 2363 C 230.905 1.28544 5.58806 0
M  V30 2364 N 230.401 1.69454 6.71757 0
M  V30 2365 N 232.194 1.20526 5.49026 0
M  V30 2366 H 224.345 1.37982 1.61477 0
M  V30 2367 H 226.608 0.566977 0.759764 0
M  V30 2368 H 226.314 1.59938 3.1323 0
M  V30 2369 H 226.188 -0.0298014 3.77188 0
M  V30 2370 H 228.575 -0.513505 2.90598 0
M  V30 2371 H 228.656 1.14272 2.28857 0
M  V30 2372 H 228.3 2.02034 4.65988 0
M  V30 2373 H 228.23 0.34257 5.25485 0
M  V30 2374 H 230.721 0.647157 3.72317 0
M  V30 2375 H 231.034 1.93513 7.48179 0
M  V30 2376 H 229.379 1.73359 6.73032 0
M  V30 2377 H 232.57 0.884505 4.59667 0
M  V30 2378 H 232.743 1.47161 6.31069 0
M  V30 2379 N 226.149 -1.5696 0.141893 0
M  V30 2380 C 227.079 -2.19516 -0.795936 0
M  V30 2381 C 228.06 -1.14187 -1.26077 0
M  V30 2382 O 229.245 -1.42511 -1.31925 0
M  V30 2383 C 226.375 -2.81272 -2.03723 0
M  V30 2384 C 225.329 -3.92384 -1.70936 0
M  V30 2385 C 224.655 -4.41052 -3.02287 0
M  V30 2386 C 225.955 -5.13403 -0.959954 0
M  V30 2387 H 227.649 -2.98138 -0.274596 0
M  V30 2388 H 225.195 -1.43406 -0.130636 0
M  V30 2389 H 227.148 -3.237 -2.69808 0
M  V30 2390 H 225.872 -1.99973 -2.58221 0
M  V30 2391 H 224.531 -3.50566 -1.07232 0
M  V30 2392 H 224.179 -3.56582 -3.54765 0
M  V30 2393 H 223.879 -5.15993 -2.81114 0
M  V30 2394 H 225.403 -4.86146 -3.69451 0
M  V30 2395 H 226.817 -5.52706 -1.52279 0
M  V30 2396 H 225.214 -5.94073 -0.848357 0
M  V30 2397 H 226.284 -4.84875 0.0492434 0
M  V30 2398 N 227.627 0.131896 -1.57047 0
M  V30 2399 C 228.876 0.84044 -1.83356 0
M  V30 2400 C 229.189 1.81646 -0.725535 0
M  V30 2401 O 230.395 2.57025 -0.874659 0
M  V30 2402 C 228.851 1.54528 -3.25037 0
M  V30 2403 C 228.459 0.610902 -4.43815 0
M  V30 2404 C 230.203 2.23972 -3.60606 0
M  V30 2405 C 228.11 1.31823 -5.76521 0
M  V30 2406 H 227.04 0.317599 -0.683847 0
M  V30 2407 H 229.691 0.0931561 -1.83263 0
M  V30 2408 H 228.073 2.33873 -3.19561 0
M  V30 2409 H 229.247 -0.148407 -4.60561 0
M  V30 2410 H 227.562 0.0241016 -4.16393 0
M  V30 2411 H 230.159 2.77558 -4.57018 0
M  V30 2412 H 230.502 3.01173 -2.87403 0
M  V30 2413 H 231.035 1.51529 -3.6781 0
M  V30 2414 H 227.774 0.587771 -6.52859 0
M  V30 2415 H 227.294 2.04987 -5.63685 0
M  V30 2416 H 228.973 1.855 -6.19838 0
M  V30 2417 N 229.106 1.52395 0.401703 0
M  V30 2418 C 230.336 1.70429 1.1678 0
M  V30 2419 C 230.744 0.416702 1.84554 0
M  V30 2420 O 230.087 -0.617697 1.73003 0
M  V30 2421 C 230.149 2.78919 2.26814 0
M  V30 2422 C 229.813 4.20437 1.79113 0
M  V30 2423 C 230.81 5.04028 1.27482 0
M  V30 2424 C 228.495 4.66704 1.85722 0
M  V30 2425 C 230.489 6.31961 0.830913 0
M  V30 2426 C 228.176 5.94625 1.40942 0
M  V30 2427 C 229.174 6.77082 0.897128 0
M  V30 2428 O 228.862 8.02607 0.455822 0
M  V30 2429 H 228.594 0.574272 0.356634 0
M  V30 2430 H 231.148 1.99767 0.477724 0
M  V30 2431 H 229.378 2.44973 2.99207 0
M  V30 2432 H 231.067 2.8548 2.88541 0
M  V30 2433 H 231.833 4.69471 1.21744 0
M  V30 2434 H 227.712 4.0262 2.24539 0
M  V30 2435 H 231.256 6.96271 0.430368 0
M  V30 2436 H 227.153 6.28688 1.46362 0
M  V30 2437 H 227.921 8.16453 0.578457 0
M  V30 2438 N 230.584 -0.659388 1.43143 0
M  V30 2439 C 231.812 -1.44723 1.47861 0
M  V30 2440 C 232.227 -1.88563 0.0945886 0
M  V30 2441 O 231.584 -1.59108 -0.893915 0
M  V30 2442 C 231.635 -2.68627 2.41913 0
M  V30 2443 O 231.356 -2.26623 3.74932 0
M  V30 2444 C 232.857 -3.62045 2.55809 0
M  V30 2445 H 230.077 -0.444801 0.502387 0
M  V30 2446 H 232.621 -0.808916 1.87821 0
M  V30 2447 H 230.776 -3.28613 2.05164 0
M  V30 2448 H 231.19 -3.06745 4.2545 0
M  V30 2449 H 232.664 -4.45666 3.25708 0
M  V30 2450 H 233.141 -4.08981 1.60099 0
M  V30 2451 H 233.747 -3.07944 2.93344 0
M  V30 2452 N 232.062 -1.29571 -0.897171 0
M  V30 2453 C 233.025 -1.14913 -1.98312 0
M  V30 2454 C 234.025 -0.0838629 -1.60581 0
M  V30 2455 O 235.215 -0.331006 -1.71026 0
M  V30 2456 C 232.347 -0.757835 -3.3237 0
M  V30 2457 H 233.54 -2.11377 -2.12743 0
M  V30 2458 H 231.093 -1.12793 -1.08201 0
M  V30 2459 H 231.828 0.206837 -3.2364 0
M  V30 2460 H 231.613 -1.52755 -3.61121 0
M  V30 2461 H 233.103 -0.678408 -4.12053 0
M  V30 2462 N 233.54 1.10788 -1.12088 0
M  V30 2463 C 234.765 1.87002 -0.896949 0
M  V30 2464 C 235.19 1.79933 0.548261 0
M  V30 2465 O 234.548 1.16662 1.38779 0
M  V30 2466 C 234.596 3.3349 -1.37174 0
M  V30 2467 O 233.7 4.08745 -0.547831 0
M  V30 2468 H 233.041 0.580397 -0.322545 0
M  V30 2469 H 235.571 1.39996 -1.49206 0
M  V30 2470 H 235.581 3.84339 -1.36922 0
M  V30 2471 H 234.256 3.37951 -2.42408 0
M  V30 2472 H 232.833 3.6776 -0.617034 0
M  V30 2473 N 235.018 0.912232 1.28515 0
M  V30 2474 C 236.295 0.463597 1.90027 0
M  V30 2475 C 236.675 -1.05753 1.82701 0
M  V30 2476 O 236.023 -1.90492 1.26194 0
M  V30 2477 C 236.233 0.992253 3.34597 0
M  V30 2478 C 237.581 1.04344 4.11579 0
M  V30 2479 O 238.605 0.94079 3.43551 0
M  V30 2480 O 237.464 1.1995 5.33174 0
M  V30 2481 H 234.558 0.146666 0.813891 0
M  V30 2482 H 237.104 1.00292 1.36893 0
M  V30 2483 H 235.876 2.03623 3.34146 0
M  V30 2484 H 235.499 0.433672 3.95228 0
M  V30 2485 N 236.496 -1.42363 0.676048 0
M  V30 2486 C 237.426 -2.33497 0.0124832 0
M  V30 2487 C 238.407 -1.50748 -0.787981 0
M  V30 2488 O 239.592 -1.79346 -0.744884 0
M  V30 2489 C 236.722 -3.34377 -0.938582 0
M  V30 2490 C 235.676 -4.27289 -0.246622 0
M  V30 2491 C 235.002 -5.18386 -1.31071 0
M  V30 2492 C 236.302 -5.14916 0.875125 0
M  V30 2493 H 237.996 -2.89233 0.773593 0
M  V30 2494 H 235.542 -1.39073 0.37346 0
M  V30 2495 H 237.495 -3.97044 -1.41188 0
M  V30 2496 H 236.219 -2.76947 -1.73113 0
M  V30 2497 H 234.878 -3.66018 0.206456 0
M  V30 2498 H 234.526 -4.57282 -2.09528 0
M  V30 2499 H 234.226 -5.81378 -0.852839 0
M  V30 2500 H 235.75 -5.83929 -1.78492 0
M  V30 2501 H 237.164 -5.71262 0.482983 0
M  V30 2502 H 235.561 -5.86747 1.25887 0
M  V30 2503 H 236.631 -4.53242 1.72335 0
M  V30 2504 N 237.974 -0.419461 -1.51915 0
M  V30 2505 C 238.921 0.400927 -2.27291 0
M  V30 2506 C 239.891 1.03224 -1.30131 0
M  V30 2507 O 241.076 1.05455 -1.59009 0
M  V30 2508 C 238.216 1.50603 -3.10504 0
M  V30 2509 C 237.329 0.89462 -4.22635 0
M  V30 2510 C 236.464 1.97328 -4.93189 0
M  V30 2511 C 235.503 1.33935 -5.97267 0
M  V30 2512 N 234.64 2.3586 -6.61298 0
M  V30 2513 H 239.48 -0.248251 -2.96964 0
M  V30 2514 H 237.017 -0.134266 -1.46486 0
M  V30 2515 H 238.975 2.15783 -3.57062 0
M  V30 2516 H 237.605 2.12509 -2.42981 0
M  V30 2517 H 236.657 0.131583 -3.80172 0
M  V30 2518 H 237.969 0.391641 -4.9726 0
M  V30 2519 H 237.123 2.70211 -5.43204 0
M  V30 2520 H 235.862 2.50994 -4.18155 0
M  V30 2521 H 234.867 0.595896 -5.46561 0
M  V30 2522 H 236.092 0.810252 -6.74249 0
M  V30 2523 H 234.038 2.88639 -5.89087 0
M  V30 2524 H 233.955 1.90403 -7.3163 0
M  V30 2525 H 235.223 3.08282 -7.15949 0
M  V30 2526 N 239.452 1.56882 -0.150215 0
M  V30 2527 C 240.698 1.96518 0.500834 0
M  V30 2528 C 241.031 1.03527 1.64304 0
M  V30 2529 O 240.306 0.0782751 1.94342 0
M  V30 2530 C 240.589 3.45822 1.00395 0
M  V30 2531 C 240.442 4.49591 -0.136983 0
M  V30 2532 C 241.761 3.97704 1.88467 0
M  V30 2533 H 238.88 0.714535 0.18058 0
M  V30 2534 H 241.522 1.88577 -0.232091 0
M  V30 2535 H 239.672 3.5272 1.62851 0
M  V30 2536 H 241.344 4.5477 -0.77343 0
M  V30 2537 H 239.587 4.26441 -0.795652 0
M  V30 2538 H 240.258 5.51402 0.256815 0
M  V30 2539 H 242.734 3.93304 1.35834 0
M  V30 2540 H 241.61 5.0263 2.20578 0
M  V30 2541 H 241.871 3.40252 2.82279 0
M  V30 2542 N 240.93 -0.123565 1.57115 0
M  V30 2543 C 242.178 -0.83051 1.84247 0
M  V30 2544 C 242.499 -1.80629 0.73471 0
M  V30 2545 O 241.769 -1.94403 -0.241688 0
M  V30 2546 H 240.349 -0.309694 0.679778 0
M  V30 2547 H 243.011 -0.111976 1.94578 0
M  V30 2548 H 242.107 -1.37852 2.80006 0
M  V30 2549 N 242.408 -1.52605 -0.393616 0
M  V30 2550 C 243.338 -1.80022 -1.48709 0
M  V30 2551 C 244.319 -0.651995 -1.57108 0
M  V30 2552 O 245.504 -0.89913 -1.72132 0
M  V30 2553 C 242.634 -1.96492 -2.86371 0
M  V30 2554 C 241.588 -3.12161 -2.92813 0
M  V30 2555 C 240.914 -3.13877 -4.3288 0
M  V30 2556 C 242.214 -4.51322 -2.6288 0
M  V30 2557 H 243.908 -2.71589 -1.26015 0
M  V30 2558 H 241.454 -1.30684 -0.604778 0
M  V30 2559 H 243.407 -2.14255 -3.62867 0
M  V30 2560 H 242.131 -1.01611 -3.10391 0
M  V30 2561 H 240.79 -2.94173 -2.18764 0
M  V30 2562 H 240.438 -2.16687 -4.53933 0
M  V30 2563 H 240.138 -3.91576 -4.38112 0
M  V30 2564 H 241.662 -3.33789 -5.1129 0
M  V30 2565 H 243.076 -4.69435 -3.29096 0
M  V30 2566 H 241.473 -5.31053 -2.79468 0
M  V30 2567 H 242.543 -4.58353 -1.58242 0
M  V30 2568 N 243.887 0.651787 -1.4349 0
M  V30 2569 C 245.134 1.41167 -1.45183 0
M  V30 2570 C 245.462 1.94349 -0.0766601 0
M  V30 2571 O 244.717 1.72804 0.918555 0
M  V30 2572 C 245.016 2.60914 -2.44251 0
M  V30 2573 C 244.682 2.26142 -3.9009 0
M  V30 2574 C 243.344 2.16371 -4.2981 0
M  V30 2575 C 245.696 1.98334 -4.81989 0
M  V30 2576 C 243.024 1.7695 -5.5938 0
M  V30 2577 C 245.376 1.6041 -6.11924 0
M  V30 2578 C 244.04 1.49166 -6.5062 0
M  V30 2579 H 243.31 0.516566 -0.531263 0
M  V30 2580 H 245.957 0.741099 -1.76579 0
M  V30 2581 H 244.262 3.3311 -2.06265 0
M  V30 2582 H 245.959 3.19127 -2.42815 0
M  V30 2583 H 242.549 2.34658 -3.58655 0
M  V30 2584 H 246.733 2.04803 -4.52072 0
M  V30 2585 H 241.989 1.66831 -5.88198 0
M  V30 2586 H 246.163 1.37925 -6.82605 0
M  V30 2587 H 243.79 1.1839 -7.50925 0
M  V30 2588 N 245.365 1.30045 0.890287 0
M  V30 2589 C 246.297 1.11786 2.00091 0
M  V30 2590 C 247.31 0.0626307 1.62679 0
M  V30 2591 O 248.499 0.308112 1.75821 0
M  V30 2592 C 245.599 0.681527 3.31977 0
M  V30 2593 C 244.772 1.81735 3.97858 0
M  V30 2594 C 243.831 1.37045 5.08041 0
M  V30 2595 O 242.857 2.07677 5.29961 0
M  V30 2596 N 244.059 0.246525 5.79976 0
M  V30 2597 H 246.824 2.07441 2.16306 0
M  V30 2598 H 244.385 1.2211 1.06305 0
M  V30 2599 H 246.377 0.365675 4.03045 0
M  V30 2600 H 244.947 -0.182828 3.12065 0
M  V30 2601 H 244.167 2.30159 3.20032 0
M  V30 2602 H 245.455 2.57865 4.38615 0
M  V30 2603 H 244.853 -0.34215 5.64664 0
M  V30 2604 H 243.41 -0.00990438 6.51799 0
M  V30 2605 N 246.843 -1.10192 1.12674 0
M  V30 2606 C 248.12 -1.78717 0.794965 0
M  V30 2607 C 248.5 -1.98628 -0.714853 0
M  V30 2608 O 247.848 -1.58135 -1.64941 0
M  V30 2609 C 248.058 -3.11546 1.5729 0
M  V30 2610 C 249.406 -3.86382 1.76052 0
M  V30 2611 O 250.43 -3.21274 1.53823 0
M  V30 2612 O 249.289 -5.03246 2.13087 0
M  V30 2613 H 246.383 -0.774702 0.289423 0
M  V30 2614 H 248.929 -1.16819 1.23091 0
M  V30 2615 H 247.701 -2.92489 2.59935 0
M  V30 2616 H 247.324 -3.81164 1.13137 0
M  V30 2617 N 248.321 -0.919034 -1.28029 0
M  V30 2618 C 249.549 -0.570971 -1.98866 0
M  V30 2619 C 249.964 0.848996 -1.68634 0
M  V30 2620 O 249.321 1.56307 -0.942036 0
M  V30 2621 C 249.372 -0.776876 -3.53054 0
M  V30 2622 O 249.093 -2.14097 -3.82222 0
M  V30 2623 C 250.594 -0.436356 -4.41147 0
M  V30 2624 H 247.814 -0.217175 -0.634883 0
M  V30 2625 H 250.358 -1.23368 -1.63097 0
M  V30 2626 H 248.513 -0.161085 -3.87065 0
M  V30 2627 H 248.927 -2.18455 -4.76841 0
M  V30 2628 H 250.401 -0.63117 -5.4838 0
M  V30 2629 H 250.878 0.627686 -4.34692 0
M  V30 2630 H 251.484 -1.02991 -4.12641 0
M  V30 2631 N 249.799 1.42003 -0.683588 0
M  V30 2632 C 251.024 2.06265 -0.216647 0
M  V30 2633 C 251.449 1.51059 1.12083 0
M  V30 2634 O 250.807 0.632638 1.69904 0
M  V30 2635 C 250.855 3.60191 -0.171759 0
M  V30 2636 O 249.959 4.03396 0.857069 0
M  V30 2637 H 249.3 0.65502 -0.108834 0
M  V30 2638 H 251.83 1.81982 -0.935077 0
M  V30 2639 H 251.84 4.08 0.0014303 0
M  V30 2640 H 250.515 3.99743 -1.14796 0
M  V30 2641 H 249.092 3.67117 0.654208 0
M  V30 2642 N 251.277 0.427512 1.51691 0
M  V30 2643 C 252.24 -0.377132 2.26076 0
M  V30 2644 C 253.24 -0.958089 1.29141 0
M  V30 2645 O 254.43 -0.83408 1.52934 0
M  V30 2646 C 251.562 -1.53262 3.04506 0
M  V30 2647 H 252.755 0.27464 2.9864 0
M  V30 2648 H 250.308 0.180445 1.55255 0
M  V30 2649 H 251.043 -2.22072 2.36335 0
M  V30 2650 H 250.828 -1.12232 3.75694 0
M  V30 2651 H 252.318 -2.10135 3.60878 0
M  V30 2652 N 252.755 -1.56801 0.158532 0
M  V30 2653 C 254.002 -1.9649 -0.489679 0
M  V30 2654 C 254.33 -1.04394 -1.6411 0
M  V30 2655 O 253.585 -0.0754401 -1.95555 0
M  V30 2656 C 253.884 -3.4235 -1.02623 0
M  V30 2657 C 253.55 -4.50899 0.00794526 0
M  V30 2658 C 252.212 -4.80312 0.292207 0
M  V30 2659 C 254.564 -5.16333 0.710584 0
M  V30 2660 C 251.892 -5.72461 1.28472 0
M  V30 2661 C 254.244 -6.09553 1.69199 0
M  V30 2662 C 252.908 -6.37339 1.98383 0
M  V30 2663 H 252.178 -0.719009 -0.179186 0
M  V30 2664 H 254.825 -1.8989 0.247798 0
M  V30 2665 H 253.13 -3.45838 -1.84128 0
M  V30 2666 H 254.827 -3.70393 -1.53656 0
M  V30 2667 H 251.417 -4.28015 -0.22379 0
M  V30 2668 H 255.601 -4.93732 0.504174 0
M  V30 2669 H 250.857 -5.92278 1.51714 0
M  V30 2670 H 255.031 -6.59327 2.24189 0
M  V30 2671 H 252.658 -7.08546 2.7544 0
M  V30 2672 O 254.272 -0.0202813 -1.61487 0
M  V30 2673 H 254.963 0.593557 -1.84382 0
M  V30 END ATOM
M  V30 BEGIN BOND
M  V30 END BOND
M  V30 END CTAB
M  END
$$$$
