drugbank_target|P0A6K3 Peptide deformylase (DB01942; DB02276; DB04310; DB04368; DB08523)
 OpenBabel12092119543D

  0  0  0     0  0            999 V3000
M  V30 BEGIN CTAB
M  V30 COUNTS 2757 2772 0 0 0
M  V30 BEGIN ATOM
M  V30 1 H -0.908 1.98254 -0.117106 0
M  V30 2 N 0 1.576 0 0
M  V30 3 C 0.933 2.03868 1.02534 0
M  V30 4 C 1.911 0.928543 1.3348 0
M  V30 5 O 3.095 1.19667 1.45644 0
M  V30 6 C 0.222 2.43627 2.35294 0
M  V30 7 C -0.732 3.65373 2.2001 0
M  V30 8 S 0.101 5.13292 1.52614 0
M  V30 9 C 1.257 5.56322 2.86805 0
M  V30 10 H 1.49 2.90518 0.631377 0
M  V30 11 H -0.977 1.52953 0.210867 0
M  V30 12 H 0.981 2.67203 3.11629 0
M  V30 13 H -0.358 1.57376 2.7183 0
M  V30 14 H -1.165 3.90944 3.18086 0
M  V30 15 H -1.563 3.418 1.51819 0
M  V30 16 H 0.729 5.58782 3.83104 0
M  V30 17 H 1.672 6.56266 2.65933 0
M  V30 18 H 2.08 4.83886 2.90714 0
M  V30 19 N 1.4781 -0.272755 1.55222 0
M  V30 20 C 2.7031 -1.02683 1.80197 0
M  V30 21 C 3.1281 -1.79142 0.573551 0
M  V30 22 O 2.4861 -1.74917 -0.476849 0
M  V30 23 C 2.5341 -1.9609 3.02624 0
M  V30 24 O 1.6381 -3.04863 2.77727 0
M  V30 25 H 0.9791 -0.293557 0.595584 0
M  V30 26 H 3.5091 -0.30159 2.02365 0
M  V30 27 H 3.5191 -2.38039 3.31363 0
M  V30 28 H 2.1941 -1.39851 3.91682 0
M  V30 29 H 0.7711 -2.67228 2.60084 0
M  V30 30 N 2.9562 -1.48159 -0.537278 0
M  V30 31 C 4.2022 -1.56035 -1.29541 0
M  V30 32 C 4.5352 -0.230377 -1.92829 0
M  V30 33 O 3.8102 0.762952 -1.78911 0
M  V30 34 C 4.0932 -2.69323 -2.39034 0
M  V30 35 C 3.9462 -4.12002 -1.80485 0
M  V30 36 C 5.2652 -2.78408 -3.40847 0
M  V30 37 H 2.3842 -0.567992 -0.469632 0
M  V30 38 H 5.0262 -1.80302 -0.599277 0
M  V30 39 H 3.1762 -2.48763 -2.98412 0
M  V30 40 H 4.8482 -4.43981 -1.25215 0
M  V30 41 H 3.0912 -4.19344 -1.11055 0
M  V30 42 H 3.7622 -4.87077 -2.59731 0
M  V30 43 H 6.2382 -2.97012 -2.91416 0
M  V30 44 H 5.1142 -3.59416 -4.14863 0
M  V30 45 H 5.3752 -1.86269 -4.00944 0
M  V30 46 N 4.4343 0.785586 -1.36625 0
M  V30 47 C 5.3643 1.91259 -1.33949 0
M  V30 48 C 6.3453 1.68795 -0.210325 0
M  V30 49 O 7.5303 1.89854 -0.408561 0
M  V30 50 C 4.6603 3.28339 -1.13186 0
M  V30 51 C 3.6143 3.65335 -2.22967 0
M  V30 52 C 2.9403 5.00806 -1.87342 0
M  V30 53 C 4.2403 3.7352 -3.65075 0
M  V30 54 H 5.9343 1.93755 -2.28253 0
M  V30 55 H 3.4803 0.930788 -1.09874 0
M  V30 56 H 5.4333 4.06804 -1.09948 0
M  V30 57 H 4.1573 3.2624 -0.153332 0
M  V30 58 H 2.8163 2.89169 -2.25337 0
M  V30 59 H 2.4643 4.95233 -0.880545 0
M  V30 60 H 2.1643 5.26529 -2.60846 0
M  V30 61 H 3.6883 5.81687 -1.85667 0
M  V30 62 H 5.1023 4.42168 -3.64911 0
M  V30 63 H 3.4993 4.10731 -4.37516 0
M  V30 64 H 4.5693 2.74527 -3.99703 0
M  V30 65 N 5.9124 1.20967 1.01018 0
M  V30 66 C 6.8444 0.922059 2.09835 0
M  V30 67 C 7.8574 -0.0927106 1.62536 0
M  V30 68 O 9.0464 0.139127 1.77957 0
M  V30 69 C 6.1464 0.362004 3.36961 0
M  V30 70 C 5.3194 1.42986 4.13369 0
M  V30 71 C 4.3784 0.879976 5.1879 0
M  V30 72 O 3.4044 1.56219 5.47343 0
M  V30 73 N 4.6064 -0.307396 5.79686 0
M  V30 74 H 7.3714 1.8588 2.35093 0
M  V30 75 H 4.9324 1.11422 1.1746 0
M  V30 76 H 6.9244 -0.0201474 4.04695 0
M  V30 77 H 5.4944 -0.479437 3.08902 0
M  V30 78 H 4.7144 1.98608 3.40512 0
M  V30 79 H 6.0024 2.14885 4.61196 0
M  V30 80 H 5.4004 -0.878796 5.58832 0
M  V30 81 H 3.9574 -0.631115 6.48737 0
M  V30 82 N 7.3905 -1.2043 1.01659 0
M  V30 83 C 8.6365 -1.90079 0.706963 0
M  V30 84 C 8.9695 -1.78648 -0.761474 0
M  V30 85 O 8.2445 -1.17069 -1.55323 0
M  V30 86 C 8.5275 -3.41469 1.14327 0
M  V30 87 C 8.3805 -3.61833 2.67201 0
M  V30 88 C 9.6995 -4.34261 0.714529 0
M  V30 89 H 6.8185 -0.690254 0.2583 0
M  V30 90 H 9.4605 -1.41826 1.26433 0
M  V30 91 H 7.6105 -3.82696 0.669056 0
M  V30 92 H 9.2825 -3.2986 3.22475 0
M  V30 93 H 7.5255 -3.05304 3.08175 0
M  V30 94 H 8.1965 -4.67955 2.92783 0
M  V30 95 H 10.6725 -4.00682 1.12221 0
M  V30 96 H 9.5485 -5.38806 1.04784 0
M  V30 97 H 9.8095 -4.40431 -0.383799 0
M  V30 98 N 8.8686 -0.792821 -1.36206 0
M  V30 99 C 9.7986 -0.207853 -2.32573 0
M  V30 100 C 10.7796 0.659055 -1.56813 0
M  V30 101 O 11.9646 0.592176 -1.84951 0
M  V30 102 C 9.0946 0.655449 -3.41059 0
M  V30 103 C 8.0486 -0.111842 -4.27854 0
M  V30 104 C 7.3746 0.872274 -5.27537 0
M  V30 105 C 8.6746 -1.30299 -5.05786 0
M  V30 106 H 10.3686 -1.01294 -2.81744 0
M  V30 107 H 7.9146 -0.48854 -1.3546 0
M  V30 108 H 9.8676 1.07464 -4.07467 0
M  V30 109 H 8.5916 1.49328 -2.90463 0
M  V30 110 H 7.2506 -0.512053 -3.63006 0
M  V30 111 H 6.8986 1.70523 -4.73214 0
M  V30 112 H 6.5986 0.363291 -5.86476 0
M  V30 113 H 8.1226 1.28996 -5.96818 0
M  V30 114 H 9.5366 -0.959379 -5.65216 0
M  V30 115 H 7.9336 -1.7455 -5.74154 0
M  V30 116 H 9.0036 -2.09663 -4.37229 0
M  V30 117 N 10.3467 1.47872 -0.545128 0
M  V30 118 C 11.2967 2.26842 0.229456 0
M  V30 119 C 12.2807 1.33626 0.896267 0
M  V30 120 O 13.4727 1.58063 0.79657 0
M  V30 121 C 10.6017 3.19089 1.26638 0
M  V30 122 C 9.6877 4.19783 0.603598 0
M  V30 123 N 10.0787 5.0479 -0.319405 0
M  V30 124 C 8.3767 4.3765 0.858989 0
M  V30 125 C 9.0777 5.77433 -0.703241 0
M  V30 126 N 8.0537 5.43566 -0.0608309 0
M  V30 127 H 11.8557 2.89947 -0.480391 0
M  V30 128 H 9.3697 1.58263 -0.364209 0
M  V30 129 H 11.3667 3.74337 1.83515 0
M  V30 130 H 10.0267 2.5754 1.97745 0
M  V30 131 H 11.0377 5.13244 -0.692889 0
M  V30 132 H 7.7147 3.87281 1.55948 0
M  V30 133 H 9.1047 6.55824 -1.46098 0
M  V30 134 N 11.8248 0.280983 1.55075 0
M  V30 135 C 13.0738 -0.334784 1.98902 0
M  V30 136 C 13.3868 -1.56534 1.17288 0
M  V30 137 O 14.5928 -2.25443 1.51287 0
M  V30 138 C 13.0488 -0.646994 3.54037 0
M  V30 139 C 12.6568 0.564085 4.44435 0
M  V30 140 C 14.4008 -1.22506 4.06439 0
M  V30 141 C 12.3078 0.226137 5.90967 0
M  V30 142 H 11.2378 -0.128866 0.742906 0
M  V30 143 H 13.8888 0.386556 1.79382 0
M  V30 144 H 12.2708 -1.42739 3.6938 0
M  V30 145 H 13.4448 1.34082 4.40861 0
M  V30 146 H 11.7598 1.0594 4.02698 0
M  V30 147 H 14.3568 -1.49182 5.13468 0
M  V30 148 H 14.6998 -2.16085 3.55827 0
M  V30 149 H 15.2328 -0.50682 3.94558 0
M  V30 150 H 11.9718 1.12996 6.45687 0
M  V30 151 H 11.4918 -0.513717 5.97596 0
M  V30 152 H 13.1708 -0.179539 6.46751 0
M  V30 153 N 13.3029 -1.57598 0.00835791 0
M  V30 154 C 14.7139 -1.7892 -0.53333 0
M  V30 155 C 15.0649 -0.916609 -1.73473 0
M  V30 156 O 14.1899 -0.121336 -2.1606 0
M  V30 157 C 14.7849 -3.24488 -0.974313 0
M  V30 158 C 13.3439 -3.46878 -1.46125 0
M  V30 159 C 12.4909 -2.74157 -0.416302 0
M  V30 160 H 15.4419 -1.56958 0.234495 0
M  V30 161 H 15.4629 -3.3306 -1.83988 0
M  V30 162 H 14.9749 -3.87972 -0.099718 0
M  V30 163 H 13.0759 -2.8862 -2.35646 0
M  V30 164 H 13.1889 -4.55572 -1.48295 0
M  V30 165 H 11.5529 -2.39022 -0.87981 0
M  V30 166 H 12.3359 -3.40345 0.44947 0
M  V30 167 N 14.781 0.264519 -1.55364 0
M  V30 168 C 16.058 1.01677 -1.67096 0
M  V30 169 C 16.438 2.03996 -0.543015 0
M  V30 170 O 15.786 2.23907 0.45585 0
M  V30 171 C 15.996 1.66596 -3.0667 0
M  V30 172 C 17.344 2.17442 -3.64697 0
M  V30 173 O 18.368 1.76568 -3.09358 0
M  V30 174 O 17.227 2.92439 -4.61673 0
M  V30 175 H 14.321 0.472161 -0.678965 0
M  V30 176 H 16.867 0.259703 -1.67701 0
M  V30 177 H 15.639 0.924962 -3.80211 0
M  V30 178 H 15.262 2.48968 -3.10001 0
M  V30 179 N 16.2591 1.48442 0.529413 0
M  V30 180 C 17.1691 1.6569 1.66084 0
M  V30 181 C 18.1851 0.539432 1.65427 0
M  V30 182 O 19.3611 0.810572 1.84368 0
M  V30 183 C 16.4261 1.69315 3.02545 0
M  V30 184 C 15.4871 2.92694 3.14052 0
M  V30 185 C 14.7201 2.96137 4.44003 0
M  V30 186 O 14.9431 2.07973 5.31134 0
M  V30 187 O 13.8771 3.88312 4.59888 0
M  V30 188 H 17.7031 2.61483 1.54469 0
M  V30 189 H 15.2881 1.3185 0.702567 0
M  V30 190 H 17.1701 1.74217 3.83701 0
M  V30 191 H 15.8451 0.766966 3.14483 0
M  V30 192 H 14.7521 2.93324 2.32189 0
M  V30 193 H 16.0851 3.84699 3.0703 0
M  V30 194 N 17.7372 -0.778329 1.37039 0
M  V30 195 C 19.1532 -1.07796 1.17695 0
M  V30 196 C 19.3532 -2.01498 0.00860115 0
M  V30 197 O 18.4092 -2.43901 -0.653352 0
M  V30 198 C 19.7222 -1.68178 2.49272 0
M  V30 199 C 21.2702 -1.80467 2.55735 0
M  V30 200 C 21.7452 -2.44263 3.87427 0
M  V30 201 N 23.2362 -2.51721 3.88833 0
M  V30 202 C 23.9712 -3.01919 4.87476 0
M  V30 203 N 23.4672 -3.5234 5.96513 0
M  V30 204 N 25.2602 -3.00733 4.74885 0
M  V30 205 H 17.4112 -0.156032 2.11826 0
M  V30 206 H 19.6742 -0.131844 0.938787 0
M  V30 207 H 19.3802 -1.06796 3.35093 0
M  V30 208 H 19.2542 -2.67554 2.65885 0
M  V30 209 H 21.6412 -2.40984 1.70325 0
M  V30 210 H 21.7222 -0.798656 2.43013 0
M  V30 211 H 21.3662 -1.84388 4.73248 0
M  V30 212 H 21.2962 -3.45458 3.9745 0
M  V30 213 H 23.7872 -2.1603 3.10063 0
M  V30 214 H 24.1002 -3.89027 6.67741 0
M  V30 215 H 22.4452 -3.50462 6.00168 0
M  V30 216 H 25.6362 -2.60638 3.88826 0
M  V30 217 H 25.8092 -3.39545 5.51918 0
M  V30 218 N 19.2153 -1.21501 -1.00376 0
M  V30 219 C 20.1453 -0.999478 -2.11028 0
M  V30 220 C 21.1263 0.0759671 -1.6993 0
M  V30 221 O 22.3113 -0.0841106 -1.94018 0
M  V30 222 C 19.4413 -0.564709 -3.42678 0
M  V30 223 C 18.3953 -1.58486 -3.97576 0
M  V30 224 C 17.7213 -1.00628 -5.25146 0
M  V30 225 C 19.0213 -2.97204 -4.29496 0
M  V30 226 H 20.7153 -1.92495 -2.29317 0
M  V30 227 H 18.2613 -0.92693 -1.102 0
M  V30 228 H 20.2143 -0.401091 -4.19487 0
M  V30 229 H 18.9383 0.396411 -3.24185 0
M  V30 230 H 17.5973 -1.73606 -3.22888 0
M  V30 231 H 17.2453 -0.0368439 -5.02987 0
M  V30 232 H 16.9453 -1.68771 -5.62841 0
M  V30 233 H 18.4693 -0.854015 -6.04598 0
M  V30 234 H 19.8833 -2.8552 -4.97143 0
M  V30 235 H 18.2803 -3.62372 -4.78338 0
M  V30 236 H 19.3503 -3.47956 -3.3772 0
M  V30 237 N 20.6934 1.19889 -1.02296 0
M  V30 238 C 22.1094 1.41462 -0.738954 0
M  V30 239 C 22.3094 1.89721 0.678846 0
M  V30 240 O 21.3654 2.07016 1.4457 0
M  V30 241 C 22.6784 2.43083 -1.77005 0
M  V30 242 C 24.2264 2.5684 -1.78892 0
M  V30 243 C 24.7014 3.61709 -2.80945 0
M  V30 244 N 26.1924 3.69199 -2.79725 0
M  V30 245 C 26.9274 4.50019 -3.55345 0
M  V30 246 N 26.4234 5.34592 -4.40662 0
M  V30 247 N 28.2164 4.44612 -3.43914 0
M  V30 248 H 20.3674 0.868827 -1.93817 0
M  V30 249 H 22.6304 0.44399 -0.837602 0
M  V30 250 H 22.3364 2.14636 -2.78612 0
M  V30 251 H 22.2104 3.4217 -1.58744 0
M  V30 252 H 24.5974 2.84614 -0.779674 0
M  V30 253 H 24.6784 1.57927 -2.01228 0
M  V30 254 H 24.3224 3.34678 -3.82038 0
M  V30 255 H 24.2524 4.60259 -2.5587 0
M  V30 256 H 26.7434 3.08794 -2.17842 0
M  V30 257 H 27.0564 5.93363 -4.95116 0
M  V30 258 H 25.4014 5.34073 -4.44737 0
M  V30 259 H 28.5924 3.7758 -2.76679 0
M  V30 260 H 28.7654 5.0736 -4.031 0
M  V30 261 N 22.1715 0.800033 1.35784 0
M  V30 262 C 23.1185 0.203848 2.29898 0
M  V30 263 C 24.0885 -0.658375 1.52495 0
M  V30 264 O 25.2735 -0.604832 1.8096 0
M  V30 265 C 22.4135 -0.64688 3.38983 0
M  V30 266 C 21.5265 0.235054 4.3136 0
M  V30 267 C 20.6615 -0.623054 5.27533 0
M  V30 268 C 19.7005 0.259682 6.11549 0
M  V30 269 N 18.8375 -0.558019 6.99879 0
M  V30 270 H 23.6775 1.01186 2.80295 0
M  V30 271 H 21.2145 0.51053 1.37957 0
M  V30 272 H 23.1725 -1.15521 4.00887 0
M  V30 273 H 21.8025 -1.42021 2.89879 0
M  V30 274 H 20.8545 0.861438 3.70518 0
M  V30 275 H 22.1665 0.914768 4.9034 0
M  V30 276 H 21.3205 -1.19678 5.94779 0
M  V30 277 H 20.0595 -1.33636 4.69034 0
M  V30 278 H 19.0645 0.845726 5.43256 0
M  V30 279 H 20.2895 0.970748 6.72126 0
M  V30 280 H 18.2355 -1.25542 6.43875 0
M  V30 281 H 18.1525 0.0637872 7.55973 0
M  V30 282 H 19.4205 -1.11523 7.71481 0
M  V30 283 N 23.6496 -1.47581 0.552962 0
M  V30 284 C 24.8956 -2.02782 0.0273648 0
M  V30 285 C 25.2286 -1.42687 -1.31734 0
M  V30 286 O 24.5036 -0.580897 -1.85623 0
M  V30 287 C 24.7866 -3.60031 -0.0702371 0
M  V30 288 C 24.6396 -4.30566 1.30126 0
M  V30 289 C 25.9586 -4.33028 -0.785771 0
M  V30 290 H 23.0776 -0.736912 0.0114185 0
M  V30 291 H 25.7196 -1.76056 0.714432 0
M  V30 292 H 23.8696 -3.82932 -0.655382 0
M  V30 293 H 25.5416 -4.19018 1.92929 0
M  V30 294 H 23.7846 -3.91086 1.87709 0
M  V30 295 H 24.4556 -5.39114 1.18573 0
M  V30 296 H 26.9316 -4.15095 -0.288982 0
M  V30 297 H 25.8076 -5.42695 -0.823013 0
M  V30 298 H 26.0686 -4.01945 -1.841 0
M  V30 299 N 25.1277 -0.289203 -1.54924 0
M  V30 300 C 26.0907 0.579144 -2.21762 0
M  V30 301 C 27.0907 1.07047 -1.1999 0
M  V30 302 O 28.2807 0.968384 -1.44803 0
M  V30 303 C 25.4127 1.80055 -2.8947 0
M  V30 304 H 26.6057 -0.00464908 -2.999 0
M  V30 305 H 24.1587 -0.0399306 -1.56249 0
M  V30 306 H 24.8937 2.42449 -2.15381 0
M  V30 307 H 24.6787 1.45602 -3.64064 0
M  V30 308 H 26.1687 2.41773 -3.40493 0
M  V30 309 N 26.6058 1.57591 -0.0167156 0
M  V30 310 C 27.5528 2.09462 0.969251 0
M  V30 311 C 28.5228 0.99381 1.33089 0
M  V30 312 O 29.7078 1.26726 1.42636 0
M  V30 313 C 26.8478 2.61622 2.25051 0
M  V30 314 C 25.9608 3.85666 1.94642 0
M  V30 315 C 25.0958 4.26266 3.16972 0
M  V30 316 C 24.1348 5.43101 2.82326 0
M  V30 317 N 23.2718 5.78915 3.97243 0
M  V30 318 H 28.1118 2.93428 0.519997 0
M  V30 319 H 25.6488 1.45044 0.245087 0
M  V30 320 H 27.6068 2.89949 2.99976 0
M  V30 321 H 26.2368 1.80505 2.67615 0
M  V30 322 H 25.2888 3.64145 1.10013 0
M  V30 323 H 26.6008 4.70678 1.65117 0
M  V30 324 H 25.7548 4.55963 4.00228 0
M  V30 325 H 24.4938 3.39996 3.49648 0
M  V30 326 H 23.4988 5.1311 1.97479 0
M  V30 327 H 24.7238 6.3106 2.50879 0
M  V30 328 H 22.6698 4.95602 4.29785 0
M  V30 329 H 22.5868 6.58539 3.71299 0
M  V30 330 H 23.8548 6.13212 4.81239 0
M  V30 331 N 28.0839 -0.256276 1.55502 0
M  V30 332 C 29.4949 -0.826068 1.67431 0
M  V30 333 C 29.8459 -1.86396 0.612446 0
M  V30 334 O 28.9709 -2.15031 -0.243025 0
M  V30 335 C 29.5659 -1.50512 3.03532 0
M  V30 336 C 28.1249 -2.02273 3.17431 0
M  V30 337 C 27.2719 -0.870548 2.63281 0
M  V30 338 H 30.2229 -0.0322728 1.58667 0
M  V30 339 H 30.2439 -2.37279 2.97454 0
M  V30 340 H 29.7559 -0.749484 3.80794 0
M  V30 341 H 27.8569 -2.80746 2.44974 0
M  V30 342 H 27.9699 -2.22655 4.24219 0
M  V30 343 H 26.3339 -1.26851 2.20864 0
M  V30 344 H 27.1169 -0.128149 3.43061 0
M  V30 345 N 29.562 -1.4872 -0.521534 0
M  V30 346 C 30.808 -1.574 -1.27879 0
M  V30 347 C 31.141 -0.250817 -1.92573 0
M  V30 348 O 30.416 0.743934 -1.79711 0
M  V30 349 C 30.699 -2.71843 -2.36164 0
M  V30 350 C 30.552 -4.13893 -1.76105 0
M  V30 351 C 31.871 -2.82008 -3.37875 0
M  V30 352 H 28.99 -0.572941 -0.463581 0
M  V30 353 H 31.632 -1.80927 -0.580119 0
M  V30 354 H 29.782 -2.51914 -2.95756 0
M  V30 355 H 31.454 -4.45284 -1.20499 0
M  V30 356 H 29.697 -4.20498 -1.06601 0
M  V30 357 H 30.368 -4.89804 -2.5455 0
M  V30 358 H 32.844 -3.00086 -2.88249 0
M  V30 359 H 31.72 -3.63796 -4.11028 0
M  V30 360 H 31.981 -1.90511 -3.98946 0
M  V30 361 N 31.0401 0.771051 -1.3745 0
M  V30 362 C 31.9501 1.91538 -1.35464 0
M  V30 363 C 32.9661 1.72134 -0.254123 0
M  V30 364 O 34.1421 1.95358 -0.489626 0
M  V30 365 C 31.2071 3.26671 -1.16134 0
M  V30 366 C 30.2681 3.58723 -2.35831 0
M  V30 367 C 29.5011 4.87409 -2.17413 0
M  V30 368 O 29.7241 5.58506 -1.15876 0
M  V30 369 O 28.6581 5.18539 -3.05615 0
M  V30 370 H 32.4841 1.96165 -2.31847 0
M  V30 371 H 30.0691 0.9139 -1.18187 0
M  V30 372 H 31.9511 4.07499 -1.07345 0
M  V30 373 H 30.6261 3.22894 -0.228251 0
M  V30 374 H 29.5331 2.78127 -2.50192 0
M  V30 375 H 30.8661 3.67243 -3.27709 0
M  V30 376 N 32.5182 1.22032 0.997298 0
M  V30 377 C 33.4282 1.00271 2.12092 0
M  V30 378 C 34.4442 -0.047621 1.73935 0
M  V30 379 O 35.6202 0.144136 2.00884 0
M  V30 380 C 32.6852 0.578449 3.4184 0
M  V30 381 C 31.7462 1.70189 3.94125 0
M  V30 382 C 30.9792 1.29778 5.17681 0
M  V30 383 O 31.2022 0.174676 5.70132 0
M  V30 384 O 30.1362 2.11261 5.63607 0
M  V30 385 H 33.9622 1.94398 2.3333 0
M  V30 386 H 31.5472 1.00587 1.10465 0
M  V30 387 H 33.4292 0.351998 4.19927 0
M  V30 388 H 32.1042 -0.334019 3.21972 0
M  V30 389 H 31.0112 1.98282 3.1723 0
M  V30 390 H 32.3442 2.59206 4.18417 0
M  V30 391 N 33.9963 -1.19345 1.0293 0
M  V30 392 C 35.2423 -1.89318 0.727083 0
M  V30 393 C 35.5753 -1.79446 -0.742483 0
M  V30 394 O 34.8503 -1.1871 -1.54072 0
M  V30 395 C 35.1333 -3.40238 1.17942 0
M  V30 396 C 34.9863 -3.58979 2.71024 0
M  V30 397 C 36.3053 -4.33479 0.760548 0
M  V30 398 H 33.4243 -0.687475 0.265606 0
M  V30 399 H 36.0663 -1.40477 1.2793 0
M  V30 400 H 34.2163 -3.81964 0.709608 0
M  V30 401 H 35.8883 -3.26421 3.25955 0
M  V30 402 H 34.1313 -3.02018 3.11396 0
M  V30 403 H 34.8023 -4.64823 2.9773 0
M  V30 404 H 37.2783 -3.99469 1.16464 0
M  V30 405 H 36.1543 -5.37664 1.10493 0
M  V30 406 H 36.4153 -4.40813 -0.337063 0
M  V30 407 N 35.4744 -0.807222 -1.35358 0
M  V30 408 C 36.4224 -0.20614 -2.31685 0
M  V30 409 C 37.4164 0.644445 -1.56663 0
M  V30 410 O 38.6224 0.537538 -1.71786 0
M  V30 411 H 34.9974 -0.0479006 -0.750473 0
M  V30 412 H 36.9684 -1.03369 -2.79924 0
M  V30 413 C 35.7174 0.630212 -3.41941 0
M  V30 414 H 35.0404 -0.0149558 -3.99797 0
M  V30 415 H 36.4804 1.01716 -4.11619 0
M  V30 416 C 34.9394 1.79601 -2.85035 0
M  V30 417 O 35.4694 2.89351 -2.78637 0
M  V30 418 N 33.6754 1.60774 -2.42074 0
M  V30 419 H 33.2224 0.715009 -2.47478 0
M  V30 420 H 33.1804 2.38933 -2.04349 0
M  V30 421 N 36.9525 1.47285 -0.560781 0
M  V30 422 C 37.9155 2.28535 0.174488 0
M  V30 423 C 38.9155 1.37153 0.839388 0
M  V30 424 O 40.1055 1.59748 0.694702 0
M  V30 425 C 37.2375 3.16934 1.25561 0
M  V30 426 H 38.4305 2.95012 -0.539262 0
M  V30 427 H 35.9835 1.53034 -0.317865 0
M  V30 428 H 36.7185 2.55157 2.00164 0
M  V30 429 H 36.5035 3.8419 0.783604 0
M  V30 430 H 37.9935 3.78143 1.77193 0
M  V30 431 N 38.4306 0.297415 1.54768 0
M  V30 432 C 39.3406 -0.58983 2.27064 0
M  V30 433 C 40.3566 -1.15144 1.30453 0
M  V30 434 O 41.5326 -1.17699 1.63428 0
M  V30 435 C 38.5976 -1.74714 2.9946 0
M  V30 436 C 37.6586 -1.21997 4.11601 0
M  V30 437 C 36.8916 -2.32212 4.80535 0
M  V30 438 O 37.1146 -3.52036 4.48806 0
M  V30 439 O 36.0486 -1.99106 5.68014 0
M  V30 440 H 39.8746 -0.00348199 3.037 0
M  V30 441 H 37.4596 0.0640035 1.49263 0
M  V30 442 H 39.3416 -2.42147 3.44881 0
M  V30 443 H 38.0166 -2.32016 2.25722 0
M  V30 444 H 36.9236 -0.511458 3.70587 0
M  V30 445 H 38.2566 -0.692419 4.87305 0
M  V30 446 N 39.9087 -1.5758 0.0250728 0
M  V30 447 C 41.1577 -1.90811 -0.653767 0
M  V30 448 C 41.4707 -0.90273 -1.73523 0
M  V30 449 O 42.6767 -1.12614 -2.47043 0
M  V30 450 C 41.1327 -3.38804 -1.21409 0
M  V30 451 C 40.7407 -4.47692 -0.166126 0
M  V30 452 C 42.4847 -3.81108 -1.86967 0
M  V30 453 C 40.3917 -5.86779 -0.737856 0
M  V30 454 H 39.3217 -0.712063 -0.247956 0
M  V30 455 H 41.9727 -1.83281 0.0897137 0
M  V30 456 H 40.3547 -3.41252 -2.00905 0
M  V30 457 H 41.5287 -4.56797 0.606079 0
M  V30 458 H 39.8437 -4.14565 0.390466 0
M  V30 459 H 42.4407 -4.82375 -2.30692 0
M  V30 460 H 42.7837 -3.15953 -2.71071 0
M  V30 461 H 43.3167 -3.81065 -1.14167 0
M  V30 462 H 40.0557 -6.55468 0.0649577 0
M  V30 463 H 39.5757 -5.81288 -1.47864 0
M  V30 464 H 41.2547 -6.35223 -1.22884 0
M  V30 465 N 41.3868 0.248026 -1.55636 0
M  V30 466 C 42.3188 1.32993 -1.8667 0
M  V30 467 C 43.3318 1.44345 -0.752877 0
M  V30 468 O 44.5208 1.45715 -1.03098 0
M  V30 469 C 41.6208 2.70863 -2.03682 0
M  V30 470 C 40.7938 2.81792 -3.34532 0
M  V30 471 C 39.8528 4.005 -3.41301 0
M  V30 472 O 38.8788 3.9008 -4.14519 0
M  V30 473 N 40.0808 5.13618 -2.70512 0
M  V30 474 H 42.8458 1.06707 -2.8006 0
M  V30 475 H 40.4068 0.438129 -1.55859 0
M  V30 476 H 42.3988 3.48612 -2.05553 0
M  V30 477 H 40.9688 2.89862 -1.17041 0
M  V30 478 H 40.1888 1.90729 -3.44987 0
M  V30 479 H 41.4768 2.86043 -4.20781 0
M  V30 480 H 40.8748 5.24975 -2.10755 0
M  V30 481 H 39.4318 5.89505 -2.78077 0
M  V30 482 N 42.8649 1.48995 0.513639 0
M  V30 483 C 44.2809 1.35478 0.843682 0
M  V30 484 C 44.4809 0.378213 1.97919 0
M  V30 485 O 43.5369 -0.194689 2.51748 0
M  V30 486 C 44.8499 2.75901 1.1958 0
M  V30 487 C 46.3979 2.84509 1.30474 0
M  V30 488 C 46.8729 4.25671 1.69021 0
M  V30 489 N 48.3639 4.28422 1.76094 0
M  V30 490 C 49.0989 5.34601 2.07338 0
M  V30 491 N 48.5949 6.5104 2.36894 0
M  V30 492 N 50.3879 5.22007 2.08483 0
M  V30 493 H 42.5389 2.11092 -0.235328 0
M  V30 494 H 44.8019 0.947039 -0.0426669 0
M  V30 495 H 44.5079 3.49001 0.434913 0
M  V30 496 H 44.3819 3.10467 2.1422 0
M  V30 497 H 46.7689 2.11655 2.05637 0
M  V30 498 H 46.8499 2.53542 0.339155 0
M  V30 499 H 46.4939 4.99048 0.944135 0
M  V30 500 H 46.4239 4.54094 2.66658 0
M  V30 501 H 48.9149 3.44441 1.55464 0
M  V30 502 H 49.2279 7.2779 2.59887 0
M  V30 503 H 47.5729 6.54287 2.34378 0
M  V30 504 H 50.7639 4.30051 1.84861 0
M  V30 505 H 50.9369 6.04854 2.325 0
M  V30 506 N 44.343 -0.763751 1.37857 0
M  V30 507 C 45.592 -1.51789 1.32827 0
M  V30 508 C 45.905 -1.95426 -0.0823719 0
M  V30 509 O 47.111 -2.70298 -0.255172 0
M  V30 510 C 45.567 -2.74133 2.33193 0
M  V30 511 C 45.175 -2.37562 3.79827 0
M  V30 512 C 46.919 -3.52054 2.37188 0
M  V30 513 C 44.826 -3.56456 4.71904 0
M  V30 514 H 43.756 -0.569896 0.493695 0
M  V30 515 H 46.407 -0.835822 1.63359 0
M  V30 516 H 44.789 -3.4427 1.9569 0
M  V30 517 H 45.963 -1.75157 4.26212 0
M  V30 518 H 44.278 -1.72798 3.78853 0
M  V30 519 H 46.875 -4.40437 3.03182 0
M  V30 520 H 47.218 -3.92486 1.38782 0
M  V30 521 H 47.751 -2.88921 2.7344 0
M  V30 522 H 44.49 -3.21099 5.71468 0
M  V30 523 H 44.01 -4.17938 4.30218 0
M  V30 524 H 45.689 -4.23168 4.89426 0
M  V30 525 N 45.8211 -1.22559 -0.990812 0
M  V30 526 C 47.0671 -1.05297 -1.73322 0
M  V30 527 C 47.4001 0.410655 -1.89808 0
M  V30 528 O 46.6751 1.30439 -1.44277 0
M  V30 529 C 46.9581 -1.76713 -3.13759 0
M  V30 530 C 46.8111 -3.30684 -3.04907 0
M  V30 531 C 48.1301 -1.52121 -4.12974 0
M  V30 532 H 45.2491 -0.38392 -0.629106 0
M  V30 533 H 47.8911 -1.50926 -1.15418 0
M  V30 534 H 46.0411 -1.37924 -3.63193 0
M  V30 535 H 47.7131 -3.7893 -2.63077 0
M  V30 536 H 45.9561 -3.60253 -2.41661 0
M  V30 537 H 46.6271 -3.75833 -4.04294 0
M  V30 538 H 49.1031 -1.85819 -3.72304 0
M  V30 539 H 47.9791 -2.04582 -5.0935 0
M  V30 540 H 48.2401 -0.454257 -4.3976 0
M  V30 541 N 47.2992 1.18797 -1.03562 0
M  V30 542 C 48.5762 1.84469 -0.650434 0
M  V30 543 C 48.9562 1.92319 0.870433 0
M  V30 544 O 48.3042 1.44528 1.76986 0
M  V30 545 C 48.5142 3.2306 -1.32036 0
M  V30 546 C 49.8622 3.9915 -1.44792 0
M  V30 547 O 50.8862 3.32481 -1.27806 0
M  V30 548 O 49.7452 5.18587 -1.72423 0
M  V30 549 H 46.8392 0.795251 -0.226946 0
M  V30 550 H 49.3852 1.26231 -1.13419 0
M  V30 551 H 48.1572 3.1222 -2.3587 0
M  V30 552 H 47.7802 3.88949 -0.8249 0
M  V30 553 N 48.7773 0.814389 1.34928 0
M  V30 554 C 50.0543 0.321363 1.92942 0
M  V30 555 C 50.4343 -1.19014 1.74353 0
M  V30 556 O 49.7823 -1.99328 1.11716 0
M  V30 557 C 49.9923 0.741323 3.41036 0
M  V30 558 C 51.3403 0.735266 4.18185 0
M  V30 559 O 52.3643 0.68336 3.49584 0
M  V30 560 O 51.2233 0.800703 5.40602 0
M  V30 561 H 48.3173 0.0858893 0.822528 0
M  V30 562 H 50.8633 0.898609 1.43955 0
M  V30 563 H 49.6353 1.78276 3.4833 0
M  V30 564 H 49.2583 0.139307 3.97356 0
M  V30 565 N 50.2554 -1.46986 0.568584 0
M  V30 566 C 51.1884 -2.27129 -0.220779 0
M  V30 567 C 52.1664 -1.34757 -0.909905 0
M  V30 568 O 53.3504 -1.64152 -0.926622 0
M  V30 569 C 50.4774 -3.12108 -1.31553 0
M  V30 570 C 49.5234 -4.20141 -0.733748 0
M  V30 571 S 50.3564 -5.33783 0.428479 0
M  V30 572 C 51.5124 -6.22327 -0.667811 0
M  V30 573 H 51.7454 -2.93731 0.459267 0
M  V30 574 H 49.2784 -1.5026 0.355154 0
M  V30 575 H 51.2364 -3.61636 -1.94241 0
M  V30 576 H 49.8974 -2.44847 -1.96746 0
M  V30 577 H 49.0904 -4.79373 -1.5562 0
M  V30 578 H 48.6924 -3.73553 -0.182812 0
M  V30 579 H 50.9844 -6.59364 -1.55708 0
M  V30 580 H 51.9274 -7.0801 -0.11258 0
M  V30 581 H 52.3354 -5.5618 -0.965601 0
M  V30 582 N 51.7335 -0.305618 -1.54608 0
M  V30 583 C 52.9805 0.302298 -2.00231 0
M  V30 584 C 53.3085 1.5354 -1.19398 0
M  V30 585 O 52.5635 1.93973 -0.259423 0
M  V30 586 C 52.8625 0.698983 -3.50498 0
M  V30 587 C 52.5285 -0.432903 -4.48817 0
M  V30 588 C 51.1905 -0.743622 -4.75419 0
M  V30 589 C 53.5425 -1.19409 -5.07337 0
M  V30 590 C 50.8705 -1.81857 -5.57804 0
M  V30 591 C 53.2225 -2.25899 -5.90891 0
M  V30 592 C 51.8865 -2.57572 -6.15803 0
M  V30 593 H 51.1565 0.110619 -0.732697 0
M  V30 594 H 53.8035 -0.425674 -1.86709 0
M  V30 595 H 52.1085 1.50711 -3.61654 0
M  V30 596 H 53.8055 1.1806 -3.83227 0
M  V30 597 H 50.3955 -0.18063 -4.28219 0
M  V30 598 H 54.5795 -0.967295 -4.86782 0
M  V30 599 H 49.8355 -2.06864 -5.75341 0
M  V30 600 H 54.0095 -2.85335 -6.35261 0
M  V30 601 H 51.6365 -3.40998 -6.7943 0
M  V30 602 N 53.2116 1.57565 -0.0334293 0
M  V30 603 C 54.1216 2.13943 0.962572 0
M  V30 604 C 55.1376 1.09276 1.35406 0
M  V30 605 O 56.3136 1.41355 1.4346 0
M  V30 606 C 53.3786 2.65887 2.22497 0
M  V30 607 C 52.4396 3.85286 1.8935 0
M  V30 608 C 51.6726 4.34743 3.09571 0
M  V30 609 O 51.8956 3.83352 4.22371 0
M  V30 610 O 50.8296 5.26538 2.91618 0
M  V30 611 H 54.6556 2.99333 0.513169 0
M  V30 612 H 52.2406 1.4822 0.18743 0
M  V30 613 H 54.1226 2.99346 2.96598 0
M  V30 614 H 52.7976 1.83578 2.6661 0
M  V30 615 H 51.7046 3.56746 1.1262 0
M  V30 616 H 53.0376 4.68771 1.5005 0
M  V30 617 N 54.6897 -0.239769 1.55765 0
M  V30 618 C 55.9177 -0.98417 1.81994 0
M  V30 619 C 56.3327 -1.7867 0.610124 0
M  V30 620 O 55.6897 -1.77571 -0.421271 0
M  V30 621 C 55.7407 -1.91635 3.06526 0
M  V30 622 O 55.4617 -1.14629 4.22838 0
M  V30 623 C 56.9627 -2.77616 3.45607 0
M  V30 624 H 54.1827 -0.28928 0.605441 0
M  V30 625 H 56.7267 -0.260499 2.02834 0
M  V30 626 H 54.8817 -2.5942 2.87715 0
M  V30 627 H 55.2957 -1.77745 4.93464 0
M  V30 628 H 56.7697 -3.38759 4.35828 0
M  V30 629 H 57.2467 -3.4909 2.6652 0
M  V30 630 H 57.8527 -2.15271 3.66795 0
M  V30 631 N 56.1678 -1.49265 -0.50573 0
M  V30 632 C 57.1008 -1.60183 -1.62532 0
M  V30 633 C 58.0788 -0.451107 -1.56217 0
M  V30 634 O 59.2628 -0.666016 -1.76342 0
M  V30 635 C 56.3898 -1.55238 -3.01029 0
M  V30 636 C 55.4358 -2.7545 -3.25621 0
M  V30 637 S 56.2688 -4.37174 -3.09256 0
M  V30 638 C 57.4248 -4.34866 -4.50158 0
M  V30 639 H 57.6578 -2.54894 -1.53025 0
M  V30 640 H 55.1908 -1.38098 -0.690535 0
M  V30 641 H 57.1488 -1.53071 -3.80893 0
M  V30 642 H 55.8098 -0.618238 -3.07956 0
M  V30 643 H 55.0028 -2.68197 -4.26716 0
M  V30 644 H 54.6048 -2.75005 -2.53472 0
M  V30 645 H 56.8968 -4.06295 -5.42154 0
M  V30 646 H 57.8398 -5.36223 -4.62462 0
M  V30 647 H 58.2478 -3.65007 -4.30616 0
M  V30 648 N 57.6459 0.756429 -1.3826 0
M  V30 649 C 58.8759 1.54341 -1.3734 0
M  V30 650 C 59.2839 1.89159 0.0393917 0
M  V30 651 O 58.6269 1.5307 1.01565 0
M  V30 652 C 58.6889 2.87238 -2.16182 0
M  V30 653 C 58.3529 2.74973 -3.65019 0
M  V30 654 C 59.3499 2.44962 -4.58574 0
M  V30 655 C 57.0349 2.92515 -4.08338 0
M  V30 656 C 59.0289 2.32642 -5.93428 0
M  V30 657 C 56.7159 2.79815 -5.43274 0
M  V30 658 C 57.7139 2.49921 -6.35632 0
M  V30 659 O 57.4019 2.37275 -7.68086 0
M  V30 660 H 57.1339 0.484281 -0.471643 0
M  V30 661 H 59.6879 0.944152 -1.82414 0
M  V30 662 H 57.9179 3.49342 -1.65822 0
M  V30 663 H 59.6069 3.48731 -2.07705 0
M  V30 664 H 60.3729 2.31081 -4.26412 0
M  V30 665 H 56.2519 3.14781 -3.368 0
M  V30 666 H 59.7959 2.0923 -6.65484 0
M  V30 667 H 55.6929 2.93269 -5.75034 0
M  V30 668 H 56.4609 2.52509 -7.78577 0
M  V30 669 N 59.124 1.23083 0.984299 0
M  V30 670 C 60.087 1.00979 2.05757 0
M  V30 671 C 61.087 -0.0269573 1.60777 0
M  V30 672 O 62.277 0.212403 1.729 0
M  V30 673 C 59.409 0.527072 3.36801 0
M  V30 674 H 60.602 1.9622 2.26799 0
M  V30 675 H 58.155 1.05072 1.15714 0
M  V30 676 H 58.89 -0.429294 3.21446 0
M  V30 677 H 58.675 1.27515 3.70786 0
M  V30 678 H 60.165 0.392942 4.15747 0
M  V30 679 N 60.6021 -1.18246 1.0419 0
M  V30 680 C 61.5121 -2.25574 0.644476 0
M  V30 681 C 62.5281 -1.70845 -0.329826 0
M  V30 682 O 63.7041 -2.00554 -0.184443 0
M  V30 683 C 60.7691 -3.46697 0.014877 0
M  V30 684 C 59.8301 -4.16554 1.03834 0
M  V30 685 C 59.0631 -5.31894 0.438692 0
M  V30 686 O 59.2861 -5.65385 -0.754752 0
M  V30 687 O 58.2201 -5.90459 1.168 0
M  V30 688 H 62.0461 -2.61836 1.53869 0
M  V30 689 H 59.6311 -1.25352 0.812854 0
M  V30 690 H 61.5131 -4.20062 -0.335538 0
M  V30 691 H 60.1881 -3.12255 -0.853138 0
M  V30 692 H 59.0951 -3.45251 1.44057 0
M  V30 693 H 60.4281 -4.54998 1.87716 0
M  V30 694 N 62.0802 -0.821533 -1.34494 0
M  V30 695 C 62.9902 -0.244355 -2.33324 0
M  V30 696 C 64.0062 0.620527 -1.62559 0
M  V30 697 O 65.1822 0.528754 -1.94335 0
M  V30 698 C 62.2472 0.585368 -3.41723 0
M  V30 699 C 61.3082 -0.301752 -4.28238 0
M  V30 700 C 60.5412 0.488466 -5.3146 0
M  V30 701 O 60.7642 1.72186 -5.4379 0
M  V30 702 O 59.6982 -0.12848 -6.01763 0
M  V30 703 H 63.5242 -1.06231 -2.84515 0
M  V30 704 H 61.1092 -0.583645 -1.37528 0
M  V30 705 H 62.9912 1.05747 -4.07916 0
M  V30 706 H 61.6662 1.38068 -2.92778 0
M  V30 707 H 60.5732 -0.821315 -3.64973 0
M  V30 708 H 61.9062 -1.06138 -4.8062 0
M  V30 709 N 63.5583 1.46682 -0.576371 0
M  V30 710 C 64.8063 2.02013 -0.0594163 0
M  V30 711 C 65.1273 1.45101 1.30271 0
M  V30 712 O 64.3973 0.633317 1.8538 0
M  V30 713 H 62.9773 0.746759 -0.0189745 0
M  V30 714 H 65.6393 1.79862 -0.750717 0
M  V30 715 H 64.7353 3.12097 0.014345 0
M  V30 716 N 65.0364 0.313813 1.54444 0
M  V30 717 C 66.2854 -0.292519 1.99568 0
M  V30 718 C 66.5984 -1.54011 1.20582 0
M  V30 719 O 67.8044 -2.22183 1.56035 0
M  V30 720 C 66.2604 -0.571752 3.55329 0
M  V30 721 C 65.8684 0.658229 4.43138 0
M  V30 722 C 67.6124 -1.13857 4.08946 0
M  V30 723 C 65.5194 0.351439 5.90355 0
M  V30 724 H 64.4494 -0.113079 0.745472 0
M  V30 725 H 67.1004 0.424518 1.78522 0
M  V30 726 H 65.4824 -1.34872 3.72325 0
M  V30 727 H 66.6564 1.43403 4.37918 0
M  V30 728 H 64.9714 1.14458 4.0036 0
M  V30 729 H 67.5684 -1.38257 5.16516 0
M  V30 730 H 67.9114 -2.08489 3.6033 0
M  V30 731 H 68.4444 -0.423015 3.95544 0
M  V30 732 H 65.1834 1.26667 6.43145 0
M  V30 733 H 64.7034 -0.386842 5.98551 0
M  V30 734 H 66.3824 -0.0423134 6.46986 0
M  V30 735 N 66.5145 -1.57545 0.0417849 0
M  V30 736 C 67.7625 -1.91937 -0.632829 0
M  V30 737 C 68.0835 -0.919978 -1.71934 0
M  V30 738 O 67.3535 0.0366064 -1.95866 0
M  V30 739 H 65.9335 -0.708493 -0.236742 0
M  V30 740 H 68.5955 -1.9468 0.0925745 0
M  V30 741 H 67.6915 -2.92912 -1.07746 0
M  V30 742 N 67.9926 0.231505 -1.5589 0
M  V30 743 C 68.9226 1.29022 -1.94617 0
M  V30 744 C 69.9036 1.4941 -0.813067 0
M  V30 745 O 71.0886 1.6176 -1.07459 0
M  V30 746 C 68.2186 2.64199 -2.25424 0
M  V30 747 C 67.1726 2.58484 -3.41131 0
M  V30 748 C 66.4986 3.97599 -3.57518 0
M  V30 749 C 67.7986 2.1413 -4.76388 0
M  V30 750 H 69.4926 0.968563 -2.83301 0
M  V30 751 H 67.0386 0.464479 -1.36303 0
M  V30 752 H 68.9916 3.38413 -2.51107 0
M  V30 753 H 67.7156 2.98032 -1.33583 0
M  V30 754 H 66.3746 1.86727 -3.15481 0
M  V30 755 H 66.0226 4.28723 -2.6307 0
M  V30 756 H 65.7226 3.94659 -4.35337 0
M  V30 757 H 67.2466 4.7349 -3.85538 0
M  V30 758 H 68.6606 2.78083 -5.01341 0
M  V30 759 H 67.0576 2.2227 -5.57419 0
M  V30 760 H 68.1276 1.09331 -4.72414 0
M  V30 761 N 69.4707 1.49531 0.497807 0
M  V30 762 C 70.4337 1.65916 1.58128 0
M  V30 763 C 71.4337 0.530825 1.51786 0
M  V30 764 O 72.6237 0.797342 1.54881 0
M  V30 765 C 69.7557 1.65951 2.9778 0
M  V30 766 H 70.9487 2.62556 1.44929 0
M  V30 767 H 68.5017 1.38611 0.722275 0
M  V30 768 H 69.2367 0.709065 3.16453 0
M  V30 769 H 69.0217 2.47897 3.03792 0
M  V30 770 H 70.5117 1.80673 3.76493 0
M  V30 771 N 70.9488 -0.749086 1.3866 0
M  V30 772 C 71.9118 -1.84457 1.36045 0
M  V30 773 C 72.9118 -1.58682 0.260122 0
M  V30 774 O 74.1018 -1.66343 0.517261 0
M  V30 775 C 71.2338 -3.22008 1.11911 0
M  V30 776 H 72.4268 -1.88182 2.33512 0
M  V30 777 H 69.9798 -0.951266 1.24019 0
M  V30 778 H 70.7148 -3.2395 0.150686 0
M  V30 779 H 70.4998 -3.42111 1.91579 0
M  V30 780 H 71.9898 -4.0208 1.12788 0
M  V30 781 N 72.4269 -1.23603 -0.977757 0
M  V30 782 C 73.6549 -1.09646 -1.75458 0
M  V30 783 C 74.0699 0.351859 -1.85492 0
M  V30 784 O 73.4269 1.24327 -1.336 0
M  V30 785 C 73.4779 -1.71895 -3.18016 0
M  V30 786 O 73.1989 -3.11063 -3.08498 0
M  V30 787 C 74.6999 -1.63415 -4.12081 0
M  V30 788 H 71.9199 -0.38359 -0.550545 0
M  V30 789 H 74.4639 -1.63507 -1.22824 0
M  V30 790 H 72.6189 -1.22061 -3.67668 0
M  V30 791 H 73.0329 -3.41305 -3.9826 0
M  V30 792 H 74.5069 -2.11669 -5.09804 0
M  V30 793 H 74.9839 -0.593462 -4.35172 0
M  V30 794 H 75.5899 -2.12628 -3.68334 0
M  V30 795 N 73.905 1.17692 -1.04816 0
M  V30 796 C 74.837 2.21103 -0.603822 0
M  V30 797 C 75.85 1.59411 0.33046 0
M  V30 798 O 77.039 1.7807 0.12379 0
M  V30 799 C 74.139 3.38623 0.136898 0
M  V30 800 C 73.312 4.29888 -0.807137 0
M  V30 801 C 72.371 5.26088 -0.10836 0
M  V30 802 O 71.397 5.64353 -0.741232 0
M  V30 803 N 72.599 5.68882 1.15558 0
M  V30 804 H 75.364 2.59848 -1.49329 0
M  V30 805 H 72.925 1.32553 -0.929587 0
M  V30 806 H 74.917 4.00009 0.614401 0
M  V30 807 H 73.487 2.98508 0.927993 0
M  V30 808 H 72.707 3.65993 -1.46434 0
M  V30 809 H 73.995 4.87759 -1.44807 0
M  V30 810 H 73.393 5.39861 1.69015 0
M  V30 811 H 71.95 6.32429 1.57722 0
M  V30 812 N 75.3831 0.828654 1.34056 0
M  V30 813 C 76.6291 0.42008 1.98402 0
M  V30 814 C 76.9621 -1.01564 1.65525 0
M  V30 815 O 76.2371 -1.70834 0.929831 0
M  V30 816 C 76.5201 0.62927 3.54559 0
M  V30 817 C 76.3731 2.11152 3.97159 0
M  V30 818 C 77.6921 0.0688756 4.40046 0
M  V30 819 H 74.8111 0.154104 0.720709 0
M  V30 820 H 77.4531 1.04228 1.5886 0
M  V30 821 H 75.6031 0.0996418 3.88372 0
M  V30 822 H 77.2751 2.70522 3.73651 0
M  V30 823 H 75.5181 2.59985 3.47261 0
M  V30 824 H 76.1891 2.20868 5.05887 0
M  V30 825 H 78.6651 0.521458 4.1282 0
M  V30 826 H 77.5411 0.245006 5.48353 0
M  V30 827 H 77.8021 -1.0266 4.30015 0
M  V30 828 N 76.8612 -1.46375 0.584142 0
M  V30 829 C 78.1382 -1.956 0.0033388 0
M  V30 830 C 78.5182 -1.52679 -1.45782 0
M  V30 831 O 77.8662 -0.77816 -2.14842 0
M  V30 832 C 78.0762 -3.48551 0.176891 0
M  V30 833 C 79.4242 -4.24576 0.0454609 0
M  V30 834 O 80.4482 -3.56043 0.105801 0
M  V30 835 O 79.3072 -5.46427 -0.0890376 0
M  V30 836 H 76.4012 -0.825547 -0.0490066 0
M  V30 837 H 78.9472 -1.56652 0.65256 0
M  V30 838 H 77.7192 -3.72683 1.1926 0
M  V30 839 H 77.3422 -3.94332 -0.508695 0
M  V30 840 N 78.3393 -0.321999 -1.54275 0
M  V30 841 C 79.5883 0.281931 -1.9972 0
M  V30 842 C 79.9013 1.53369 -1.21397 0
M  V30 843 O 81.1073 2.21352 -1.57211 0
M  V30 844 C 79.5633 0.5529 -3.55628 0
M  V30 845 C 79.1713 -0.681721 -4.42783 0
M  V30 846 C 80.9153 1.11687 -4.09544 0
M  V30 847 C 78.8223 -0.382742 -5.9016 0
M  V30 848 H 77.7523 0.109124 -0.746062 0
M  V30 849 H 80.4033 -0.43398 -1.78294 0
M  V30 850 H 78.7853 1.32896 -3.73035 0
M  V30 851 H 79.9593 -1.45723 -4.37151 0
M  V30 852 H 78.2743 -1.1658 -3.99748 0
M  V30 853 H 80.8713 1.35515 -5.17242 0
M  V30 854 H 81.2143 2.06575 -3.61431 0
M  V30 855 H 81.7473 0.402032 -3.95763 0
M  V30 856 H 78.4863 -1.30076 -6.42464 0
M  V30 857 H 78.0063 0.355094 -5.98748 0
M  V30 858 H 79.6853 0.00800157 -6.47 0
M  V30 859 N 79.8174 1.5752 -0.0501392 0
M  V30 860 C 80.7674 2.07981 0.934231 0
M  V30 861 C 81.7514 0.984745 1.27246 0
M  V30 862 O 82.9434 1.24809 1.25506 0
M  V30 863 C 80.0724 2.62751 2.20945 0
M  V30 864 C 79.1584 3.79225 1.89865 0
M  V30 865 N 79.5494 4.89036 1.29142 0
M  V30 866 C 77.8474 3.88111 2.19741 0
M  V30 867 C 78.5484 5.70084 1.15669 0
M  V30 868 N 77.5244 5.17659 1.65923 0
M  V30 869 H 81.3264 2.90277 0.460053 0
M  V30 870 H 78.8404 1.61665 0.15434 0
M  V30 871 H 80.8374 2.97205 2.9236 0
M  V30 872 H 79.4974 1.81894 2.6897 0
M  V30 873 H 80.5084 5.08854 0.963756 0
M  V30 874 H 77.1854 3.18194 2.70293 0
M  V30 875 H 78.5754 6.68395 0.685356 0
M  V30 876 N 81.2955 -0.223234 1.56011 0
M  V30 877 C 82.2275 -1.30006 1.88762 0
M  V30 878 C 83.2405 -1.43129 0.775746 0
M  V30 879 O 84.4295 -1.44057 1.05403 0
M  V30 880 C 81.5295 -2.67589 2.07965 0
M  V30 881 C 80.7025 -2.76434 3.38973 0
M  V30 882 C 79.7615 -3.95019 3.47629 0
M  V30 883 O 78.7875 -3.83436 4.20672 0
M  V30 884 N 79.9895 -5.09249 2.78649 0
M  V30 885 H 82.7545 -1.02238 2.81722 0
M  V30 886 H 80.3155 -0.413278 1.56536 0
M  V30 887 H 82.3075 -3.45297 2.11073 0
M  V30 888 H 80.8775 -2.87964 1.21638 0
M  V30 889 H 80.0975 -1.85216 3.47978 0
M  V30 890 H 81.3855 -2.79313 4.25278 0
M  V30 891 H 80.7835 -5.21556 2.19081 0
M  V30 892 H 79.3405 -5.85007 2.8742 0
M  V30 893 N 82.7736 -1.49793 -0.48987 0
M  V30 894 C 84.1896 -1.36803 -0.822022 0
M  V30 895 C 84.3896 -0.409652 -1.97292 0
M  V30 896 O 83.4456 0.154614 -2.52026 0
M  V30 897 C 84.7586 -2.77768 -1.15175 0
M  V30 898 C 86.3066 -2.86549 -1.25931 0
M  V30 899 C 86.7816 -4.28306 -1.62228 0
M  V30 900 N 88.2726 -4.31169 -1.69256 0
M  V30 901 C 89.0076 -5.37832 -1.98807 0
M  V30 902 N 88.5036 -6.54726 -2.26507 0
M  V30 903 N 90.2966 -5.25258 -2.00152 0
M  V30 904 H 82.4476 -2.10691 0.268881 0
M  V30 905 H 84.7106 -0.946241 0.057728 0
M  V30 906 H 84.4166 -3.49648 -0.379335 0
M  V30 907 H 84.2906 -3.13836 -2.09253 0
M  V30 908 H 86.6776 -2.14899 -2.02243 0
M  V30 909 H 86.7586 -2.54049 -0.298776 0
M  V30 910 H 86.4026 -5.00486 -0.864622 0
M  V30 911 H 86.3326 -4.58279 -2.594 0
M  V30 912 H 88.8236 -3.4687 -1.49965 0
M  V30 913 H 89.1366 -7.31833 -2.48276 0
M  V30 914 H 87.4816 -6.57933 -2.23939 0
M  V30 915 H 90.6726 -4.32938 -1.77996 0
M  V30 916 H 90.8456 -6.08476 -2.22848 0
M  V30 917 N 84.2517 0.741722 -1.39055 0
M  V30 918 C 85.5007 1.49656 -1.35225 0
M  V30 919 C 85.8137 1.95533 0.0512708 0
M  V30 920 O 87.0197 2.7067 0.212138 0
M  V30 921 C 85.4757 2.70389 -2.37525 0
M  V30 922 C 85.0837 2.31489 -3.83558 0
M  V30 923 C 86.8277 3.48236 -2.42759 0
M  V30 924 C 84.7347 3.48903 -4.77515 0
M  V30 925 H 83.6647 0.56197 -0.502699 0
M  V30 926 H 86.3157 0.809727 -1.64668 0
M  V30 927 H 84.6977 3.41113 -2.01142 0
M  V30 928 H 85.8717 1.68354 -4.28945 0
M  V30 929 H 84.1867 1.66749 -3.81554 0
M  V30 930 H 86.7837 4.35558 -3.1015 0
M  V30 931 H 87.1267 3.90229 -1.45008 0
M  V30 932 H 87.6597 2.84535 -2.78002 0
M  V30 933 H 84.3987 3.11966 -5.76504 0
M  V30 934 H 83.9187 4.11041 -4.36813 0
M  V30 935 H 85.5977 4.15328 -4.96096 0
M  V30 936 N 85.7298 1.2412 0.971189 0
M  V30 937 C 86.9788 1.07284 1.70801 0
M  V30 938 C 87.2918 -0.388902 1.91695 0
M  V30 939 O 88.4978 -0.677379 2.62914 0
M  V30 940 C 86.9538 1.87145 3.07416 0
M  V30 941 C 86.5618 3.37707 2.94377 0
M  V30 942 C 88.3058 1.78828 3.84995 0
M  V30 943 C 86.2128 4.09925 4.26281 0
M  V30 944 H 85.1428 0.397854 0.64049 0
M  V30 945 H 87.7938 1.4817 1.0825 0
M  V30 946 H 86.1758 1.39071 3.70777 0
M  V30 947 H 87.3498 3.93335 2.4005 0
M  V30 948 H 85.6648 3.46938 2.30267 0
M  V30 949 H 88.2618 2.30089 4.82662 0
M  V30 950 H 88.6048 0.75284 4.09436 0
M  V30 951 H 89.1378 2.24563 3.28354 0
M  V30 952 H 85.8768 5.13813 4.07033 0
M  V30 953 H 85.3968 3.59083 4.80437 0
M  V30 954 H 87.0758 4.1673 4.94919 0
M  V30 955 N 87.2079 -1.17134 1.05439 0
M  V30 956 C 88.4539 -1.87733 0.767077 0
M  V30 957 C 88.7869 -1.8098 -0.704253 0
M  V30 958 O 88.0619 -1.21951 -1.5152 0
M  V30 959 C 88.3449 -3.37659 1.25133 0
M  V30 960 C 88.1979 -3.53149 2.78578 0
M  V30 961 C 89.5169 -4.31768 0.852324 0
M  V30 962 H 86.6359 -0.681687 0.280129 0
M  V30 963 H 89.2779 -1.37732 1.30881 0
M  V30 964 H 87.4279 -3.80373 0.790469 0
M  V30 965 H 89.0999 -3.19434 3.32806 0
M  V30 966 H 87.3429 -2.95345 3.17732 0
M  V30 967 H 88.0139 -4.58403 3.07523 0
M  V30 968 H 90.4899 -3.96909 1.24911 0
M  V30 969 H 89.3659 -5.35199 1.21873 0
M  V30 970 H 89.6269 -4.41429 -0.243485 0
M  V30 971 N 88.686 -0.835752 -1.33615 0
M  V30 972 C 89.935 -0.426289 -1.97144 0
M  V30 973 C 90.248 1.01912 -1.66953 0
M  V30 974 O 91.454 1.53311 -2.24072 0
M  V30 975 C 89.91 -0.711321 -3.52801 0
M  V30 976 C 89.518 -2.1712 -3.91871 0
M  V30 977 C 91.262 -0.368654 -4.22896 0
M  V30 978 C 89.169 -2.40044 -5.40493 0
M  V30 979 H 88.099 -0.15567 -0.737755 0
M  V30 980 H 90.75 -1.0239 -1.52278 0
M  V30 981 H 89.132 -0.0433766 -3.95976 0
M  V30 982 H 90.306 -2.87936 -3.59763 0
M  V30 983 H 88.621 -2.47654 -3.34749 0
M  V30 984 H 91.218 -0.517601 -5.32189 0
M  V30 985 H 91.561 0.688078 -4.10574 0
M  V30 986 H 92.094 -0.991702 -3.8524 0
M  V30 987 H 88.833 -3.44271 -5.57815 0
M  V30 988 H 88.353 -1.73785 -5.74072 0
M  V30 989 H 90.032 -2.23042 -6.0734 0
M  V30 990 N 90.1641 1.46063 -0.591896 0
M  V30 991 C 91.4411 1.95595 -0.0137119 0
M  V30 992 C 91.8211 1.5345 1.4497 0
M  V30 993 O 91.1691 0.789543 2.14426 0
M  V30 994 C 91.3791 3.48453 -0.195373 0
M  V30 995 C 92.7271 4.24546 -0.0679765 0
M  V30 996 O 93.7511 3.55982 -0.124681 0
M  V30 997 O 92.6101 5.46467 0.0600579 0
M  V30 998 H 89.7041 0.825795 0.0446279 0
M  V30 999 H 92.2501 1.56303 -0.660859 0
M  V30 1000 H 91.0221 3.72045 -1.21235 0
M  V30 1001 H 90.6451 3.94597 0.487775 0
M  V30 1002 N 91.6422 0.330177 1.54103 0
M  V30 1003 C 92.8882 -0.270806 2.00984 0
M  V30 1004 C 93.2212 -1.51265 1.21789 0
M  V30 1005 O 92.4962 -1.92142 0.301927 0
M  V30 1006 C 92.7792 -0.598339 3.55094 0
M  V30 1007 C 92.6322 0.654674 4.4501 0
M  V30 1008 C 93.9512 -1.41334 4.16789 0
M  V30 1009 H 91.0702 -0.0969531 0.730595 0
M  V30 1010 H 93.7122 0.448066 1.84641 0
M  V30 1011 H 91.8622 -1.21078 3.69151 0
M  V30 1012 H 93.5342 1.29285 4.42813 0
M  V30 1013 H 91.7772 1.28224 4.14416 0
M  V30 1014 H 92.4482 0.380944 5.50684 0
M  V30 1015 H 94.9242 -0.895597 4.06347 0
M  V30 1016 H 93.8002 -1.61127 5.24718 0
M  V30 1017 H 94.0612 -2.41146 3.70541 0
M  V30 1018 N 93.1203 -1.57491 0.0584922 0
M  V30 1019 C 94.3453 -1.97711 -0.62652 0
M  V30 1020 C 94.7703 -0.936132 -1.63151 0
M  V30 1021 O 94.1283 0.099811 -1.81025 0
M  V30 1022 C 94.1763 -3.36989 -1.28338 0
M  V30 1023 O 93.2803 -3.35433 -2.39913 0
M  V30 1024 H 92.6213 -0.643868 -0.162266 0
M  V30 1025 H 95.1513 -2.04193 0.129064 0
M  V30 1026 H 95.1613 -3.73879 -1.63335 0
M  V30 1027 H 93.8363 -4.12289 -0.546889 0
M  V30 1028 H 92.4133 -3.10298 -2.06809 0
M  V30 1029 N 94.5984 0.214957 -1.56127 0
M  V30 1030 C 95.5084 1.28727 -1.96129 0
M  V30 1031 C 96.5244 1.50916 -0.866044 0
M  V30 1032 O 97.7004 1.63918 -1.17016 0
M  V30 1033 C 94.7654 2.61569 -2.27558 0
M  V30 1034 C 93.8264 2.47625 -3.50685 0
M  V30 1035 C 93.0594 3.74132 -3.80606 0
M  V30 1036 O 93.2824 4.77438 -3.12104 0
M  V30 1037 O 92.2164 3.70849 -4.74083 0
M  V30 1038 H 96.0424 0.977855 -2.87527 0
M  V30 1039 H 93.6274 0.418358 -1.43423 0
M  V30 1040 H 95.5094 3.40012 -2.48938 0
M  V30 1041 H 94.1844 2.92178 -1.39332 0
M  V30 1042 H 93.0914 1.67361 -3.34576 0
M  V30 1043 H 94.4244 2.21954 -4.39315 0
M  V30 1044 N 96.0765 1.50051 0.48192 0
M  V30 1045 C 97.0245 1.68635 1.60203 0
M  V30 1046 C 98.0185 0.552184 1.60148 0
M  V30 1047 O 99.2245 0.732377 1.64427 0
M  V30 1048 H 95.5995 0.532081 0.531407 0
M  V30 1049 H 97.5705 2.62616 1.41688 0
M  V30 1050 C 96.3195 1.78775 2.9822 0
M  V30 1051 H 95.6425 2.6543 2.98976 0
M  V30 1052 H 97.0825 1.95806 3.7608 0
M  V30 1053 C 95.5415 0.536849 3.32595 0
M  V30 1054 O 96.0715 -0.328897 4.00351 0
M  V30 1055 N 94.2775 0.394091 2.87915 0
M  V30 1056 H 93.8245 1.09962 2.32951 0
M  V30 1057 H 93.7825 -0.441737 3.11281 0
M  V30 1058 N 97.5546 -0.734337 1.39446 0
M  V30 1059 C 98.9706 -1.03997 1.21065 0
M  V30 1060 C 99.1706 -2.01369 0.0727019 0
M  V30 1061 O 98.2266 -2.45856 -0.575426 0
M  V30 1062 C 99.5396 -1.60163 2.54496 0
M  V30 1063 C 101.088 -1.7224 2.61347 0
M  V30 1064 C 101.563 -2.31814 3.95002 0
M  V30 1065 N 103.054 -2.39223 3.96644 0
M  V30 1066 C 103.789 -2.86258 4.96834 0
M  V30 1067 N 103.285 -3.33184 6.07421 0
M  V30 1068 N 105.078 -2.85473 4.84213 0
M  V30 1069 H 97.2286 -0.0885624 2.12215 0
M  V30 1070 H 99.4916 -0.10191 0.942506 0
M  V30 1071 H 99.1976 -0.960811 3.38321 0
M  V30 1072 H 99.0716 -2.5896 2.74262 0
M  V30 1073 H 101.459 -2.35443 1.77906 0
M  V30 1074 H 101.54 -0.720939 2.4543 0
M  V30 1075 H 101.184 -1.69238 4.78875 0
M  V30 1076 H 101.114 -3.32638 4.08239 0
M  V30 1077 H 103.605 -2.06057 3.16779 0
M  V30 1078 H 103.918 -3.67586 6.7978 0
M  V30 1079 H 102.263 -3.31191 6.11013 0
M  V30 1080 H 105.454 -2.48136 3.96921 0
M  V30 1081 H 105.627 -3.21814 5.62441 0
M  V30 1082 N 99.0327 -1.24633 -0.964593 0
M  V30 1083 C 100.31 -0.995809 -1.68354 0
M  V30 1084 C 100.69 0.480964 -2.05548 0
M  V30 1085 O 100.038 1.45599 -1.76105 0
M  V30 1086 C 100.248 -1.92177 -2.91323 0
M  V30 1087 C 101.596 -2.19446 -3.63495 0
M  V30 1088 O 102.62 -1.89855 -3.01386 0
M  V30 1089 O 101.479 -2.69714 -4.75307 0
M  V30 1090 H 98.5727 -0.376854 -0.736146 0
M  V30 1091 H 101.119 -1.35745 -1.0184 0
M  V30 1092 H 99.8907 -2.91938 -2.60553 0
M  V30 1093 H 99.5137 -1.56349 -3.65569 0
M  V30 1094 N 100.511 1.16574 -1.06058 0
M  V30 1095 C 101.421 2.2452 -0.680282 0
M  V30 1096 C 102.437 1.71348 0.302604 0
M  V30 1097 O 103.613 2.00822 0.152513 0
M  V30 1098 C 100.678 3.46629 -0.0700315 0
M  V30 1099 C 99.7388 4.14849 -1.10448 0
M  V30 1100 C 98.9718 5.31129 -0.523256 0
M  V30 1101 O 99.1948 5.66514 0.664709 0
M  V30 1102 O 98.1288 5.88526 -1.26179 0
M  V30 1103 H 101.955 2.59355 -1.58015 0
M  V30 1104 H 99.5398 1.24043 -0.832694 0
M  V30 1105 H 101.422 4.20543 0.268667 0
M  V30 1106 H 100.097 3.13573 0.803353 0
M  V30 1107 H 99.0038 3.42916 -1.49532 0
M  V30 1108 H 100.337 4.51954 -1.94931 0
M  V30 1109 N 101.989 0.842826 1.3317 0
M  V30 1110 C 103.405 0.531128 1.50503 0
M  V30 1111 C 103.605 -0.940734 1.78192 0
M  V30 1112 O 102.661 -1.72436 1.84451 0
M  V30 1113 C 103.974 1.40789 2.65705 0
M  V30 1114 C 105.522 1.40708 2.79589 0
M  V30 1115 C 105.997 2.26878 3.97857 0
M  V30 1116 N 107.488 2.24609 4.05099 0
M  V30 1117 C 108.223 2.88019 4.95815 0
M  V30 1118 N 107.719 3.60496 5.9162 0
M  V30 1119 N 109.512 2.77469 4.88843 0
M  V30 1120 H 101.663 1.79557 1.1346 0
M  V30 1121 H 103.926 0.766267 0.558156 0
M  V30 1122 H 103.632 2.454 2.51936 0
M  V30 1123 H 103.506 1.08677 3.61205 0
M  V30 1124 H 105.893 0.368668 2.92788 0
M  V30 1125 H 105.974 1.76829 1.84838 0
M  V30 1126 H 105.618 3.3078 3.85418 0
M  V30 1127 H 105.548 1.88096 4.91861 0
M  V30 1128 H 108.039 1.71906 3.36536 0
M  V30 1129 H 108.352 4.06076 6.57512 0
M  V30 1130 H 106.697 3.64604 5.91683 0
M  V30 1131 H 109.888 2.20406 4.12963 0
M  V30 1132 H 110.061 3.2717 5.59342 0
M  V30 1133 N 103.467 -1.45747 0.599634 0
M  V30 1134 C 104.397 -2.33235 -0.111306 0
M  V30 1135 C 105.378 -1.46359 -0.866781 0
M  V30 1136 O 106.563 -1.75146 -0.838904 0
M  V30 1137 C 103.693 -3.28932 -1.11451 0
M  V30 1138 C 102.647 -4.25381 -0.472772 0
M  V30 1139 C 101.973 -5.1071 -1.58365 0
M  V30 1140 C 103.273 -5.18831 0.600948 0
M  V30 1141 H 104.967 -2.92927 0.61919 0
M  V30 1142 H 102.513 -1.40857 0.299215 0
M  V30 1143 H 104.466 -3.89002 -1.62036 0
M  V30 1144 H 103.19 -2.67381 -1.8755 0
M  V30 1145 H 101.849 -3.66598 0.0121472 0
M  V30 1146 H 101.497 -4.45533 -2.33473 0
M  V30 1147 H 101.197 -5.7604 -1.15982 0
M  V30 1148 H 102.721 -5.73647 -2.09194 0
M  V30 1149 H 104.135 -5.73019 0.179491 0
M  V30 1150 H 102.532 -5.92595 0.946076 0
M  V30 1151 H 103.602 -4.6174 1.48068 0
M  V30 1152 N 104.945 -0.338344 -1.53925 0
M  V30 1153 C 106.191 0.260143 -2.01125 0
M  V30 1154 C 106.524 1.50617 -1.22589 0
M  V30 1155 O 105.799 1.91979 -0.312113 0
M  V30 1156 C 106.082 0.579499 -3.55407 0
M  V30 1157 C 105.935 -0.678264 -4.44657 0
M  V30 1158 C 107.254 1.39122 -4.17532 0
M  V30 1159 H 104.373 0.0930772 -0.731099 0
M  V30 1160 H 107.015 -0.457852 -1.84401 0
M  V30 1161 H 105.165 1.19118 -3.69788 0
M  V30 1162 H 106.837 -1.31631 -4.42121 0
M  V30 1163 H 105.08 -1.3042 -4.13731 0
M  V30 1164 H 105.751 -0.410143 -5.50474 0
M  V30 1165 H 108.227 0.874035 -4.06817 0
M  V30 1166 H 107.103 1.58342 -5.25565 0
M  V30 1167 H 107.364 2.39178 -3.71815 0
M  V30 1168 N 106.423 1.57458 -0.0668435 0
M  V30 1169 C 107.353 2.15468 0.899764 0
M  V30 1170 C 108.334 1.08042 1.31381 0
M  V30 1171 O 109.519 1.36054 1.38574 0
M  V30 1172 C 106.649 2.71232 2.16911 0
M  V30 1173 C 105.603 3.83781 1.89463 0
M  V30 1174 C 104.929 4.26127 3.22986 0
M  V30 1175 C 106.229 5.08238 1.20381 0
M  V30 1176 H 107.923 2.96488 0.416529 0
M  V30 1177 H 105.469 1.4262 0.198908 0
M  V30 1178 H 107.422 3.10458 2.84945 0
M  V30 1179 H 106.146 1.87426 2.67468 0
M  V30 1180 H 104.805 3.45051 1.23836 0
M  V30 1181 H 104.453 3.39249 3.71374 0
M  V30 1182 H 104.153 5.01993 3.05413 0
M  V30 1183 H 105.677 4.67966 3.92225 0
M  V30 1184 H 107.091 5.44811 1.78475 0
M  V30 1185 H 105.488 5.89349 1.13083 0
M  V30 1186 H 106.558 4.84558 0.182153 0
M  V30 1187 N 107.901 -0.206675 1.56239 0
M  V30 1188 C 109.15 -0.926964 1.79138 0
M  V30 1189 C 109.463 -1.84901 0.638043 0
M  V30 1190 O 110.669 -2.60906 0.751033 0
M  V30 1191 C 109.125 -1.6986 3.17294 0
M  V30 1192 C 108.733 -0.821956 4.40395 0
M  V30 1193 C 110.477 -2.40922 3.4951 0
M  V30 1194 C 108.384 -1.59179 5.69575 0
M  V30 1195 H 107.314 -0.349864 0.667915 0
M  V30 1196 H 109.965 -0.180487 1.8261 0
M  V30 1197 H 108.347 -2.48853 3.08039 0
M  V30 1198 H 109.521 -0.0715019 4.60745 0
M  V30 1199 H 107.836 -0.222741 4.15804 0
M  V30 1200 H 110.433 -2.99047 4.43255 0
M  V30 1201 H 110.776 -3.14542 2.72707 0
M  V30 1202 H 111.309 -1.68905 3.60161 0
M  V30 1203 H 108.048 -0.898589 6.49312 0
M  V30 1204 H 107.568 -2.31648 5.53262 0
M  V30 1205 H 109.247 -2.14862 6.10281 0
M  V30 1206 N 109.379 -1.50304 -0.473955 0
M  V30 1207 C 110.327 -1.69482 -1.59307 0
M  V30 1208 C 111.321 -0.560669 -1.59853 0
M  V30 1209 O 112.527 -0.741087 -1.64036 0
M  V30 1210 H 108.902 -0.534892 -0.528578 0
M  V30 1211 H 110.873 -2.63364 -1.40293 0
M  V30 1212 C 109.622 -1.80354 -2.97267 0
M  V30 1213 H 108.945 -2.67012 -2.97564 0
M  V30 1214 H 110.385 -1.97798 -3.75036 0
M  V30 1215 C 108.844 -0.55448 -3.32306 0
M  V30 1216 O 109.374 0.307661 -4.0052 0
M  V30 1217 N 107.58 -0.409354 -2.87702 0
M  V30 1218 H 107.127 -1.11196 -2.32364 0
M  V30 1219 H 107.085 0.425223 -3.11511 0
M  V30 1220 N 110.857 0.726932 -1.39834 0
M  V30 1221 C 112.268 1.30558 -1.3346 0
M  V30 1222 C 112.619 1.962 -0.00273003 0
M  V30 1223 O 111.744 1.96826 0.899371 0
M  V30 1224 C 112.339 2.37404 -2.41713 0
M  V30 1225 C 110.898 2.90921 -2.38835 0
M  V30 1226 C 110.045 1.64578 -2.2318 0
M  V30 1227 H 112.996 0.523862 -1.49804 0
M  V30 1228 H 113.017 3.17984 -2.08966 0
M  V30 1229 H 112.529 1.89599 -3.38635 0
M  V30 1230 H 110.63 3.42985 -1.45575 0
M  V30 1231 H 110.743 3.43487 -3.33997 0
M  V30 1232 H 109.107 1.89219 -1.70494 0
M  V30 1233 H 109.89 1.18814 -3.22084 0
M  V30 1234 N 112.336 1.25143 0.95797 0
M  V30 1235 C 113.246 1.06968 2.08794 0
M  V30 1236 C 114.262 0.00773911 1.73998 0
M  V30 1237 O 115.438 0.207972 2.00323 0
M  V30 1238 C 112.503 0.68691 3.39827 0
M  V30 1239 C 111.564 1.82641 3.88511 0
M  V30 1240 C 110.797 1.46181 5.1329 0
M  V30 1241 O 111.02 0.355971 5.69288 0
M  V30 1242 O 109.954 2.29085 5.566 0
M  V30 1243 H 113.78 2.01723 2.27027 0
M  V30 1244 H 111.365 1.04051 1.07209 0
M  V30 1245 H 113.247 0.485417 4.18595 0
M  V30 1246 H 111.922 -0.231417 3.22872 0
M  V30 1247 H 110.829 2.08274 3.10762 0
M  V30 1248 H 112.162 2.72386 4.09959 0
M  V30 1249 N 113.814 -1.1601 1.06675 0
M  V30 1250 C 114.744 -2.22688 0.702307 0
M  V30 1251 C 115.725 -1.67306 -0.307032 0
M  V30 1252 O 116.91 -1.93352 -0.181305 0
M  V30 1253 C 114.04 -3.47178 0.092038 0
M  V30 1254 C 112.994 -4.15477 1.02777 0
M  V30 1255 C 112.32 -5.33963 0.28061 0
M  V30 1256 C 113.62 -4.66019 2.35846 0
M  V30 1257 H 115.314 -2.53429 1.59419 0
M  V30 1258 H 112.86 -1.21813 0.767961 0
M  V30 1259 H 114.813 -4.21037 -0.174814 0
M  V30 1260 H 113.537 -3.15749 -0.834877 0
M  V30 1261 H 112.196 -3.43549 1.27944 0
M  V30 1262 H 111.844 -4.98788 -0.649545 0
M  V30 1263 H 111.544 -5.806 0.904258 0
M  V30 1264 H 113.068 -6.10596 0.021396 0
M  V30 1265 H 114.482 -5.3144 2.15045 0
M  V30 1266 H 112.879 -5.23293 2.93743 0
M  V30 1267 H 113.949 -3.82023 2.98641 0
M  V30 1268 N 115.292 -0.849877 -1.32721 0
M  V30 1269 C 116.222 -0.306308 -2.31482 0
M  V30 1270 C 117.203 0.591952 -1.59468 0
M  V30 1271 O 118.388 0.513199 -1.87296 0
M  V30 1272 C 115.518 0.510204 -3.43532 0
M  V30 1273 C 114.472 -0.293209 -4.26994 0
M  V30 1274 C 113.798 0.647743 -5.30762 0
M  V30 1275 C 115.098 -1.51634 -4.99804 0
M  V30 1276 H 116.792 -1.13153 -2.77195 0
M  V30 1277 H 114.338 -0.545553 -1.33266 0
M  V30 1278 H 116.291 0.900856 -4.11658 0
M  V30 1279 H 115.015 1.36874 -2.96535 0
M  V30 1280 H 113.674 -0.665555 -3.60508 0
M  V30 1281 H 113.322 1.50299 -4.8002 0
M  V30 1282 H 113.022 0.11422 -5.87489 0
M  V30 1283 H 114.546 1.03567 -6.01753 0
M  V30 1284 H 115.96 -1.19824 -5.60638 0
M  V30 1285 H 114.357 -1.98745 -5.66234 0
M  V30 1286 H 115.427 -2.28018 -4.27943 0
M  V30 1287 N 116.77 1.45427 -0.607355 0
M  V30 1288 C 117.68 2.34325 0.113463 0
M  V30 1289 C 118.696 1.51226 0.860617 0
M  V30 1290 O 119.872 1.84029 0.818255 0
M  V30 1291 C 116.937 3.28839 1.09844 0
M  V30 1292 C 115.998 4.27844 0.353271 0
M  V30 1293 C 115.231 5.17842 1.29133 0
M  V30 1294 O 115.454 5.11264 2.52913 0
M  V30 1295 O 114.388 5.96713 0.788523 0
M  V30 1296 H 118.214 2.97364 -0.617094 0
M  V30 1297 H 115.799 1.44807 -0.367619 0
M  V30 1298 H 117.681 3.8708 1.66575 0
M  V30 1299 H 116.356 2.68365 1.81003 0
M  V30 1300 H 115.263 3.7322 -0.256494 0
M  V30 1301 H 116.596 4.91173 -0.317822 0
M  V30 1302 N 118.248 0.346503 1.53744 0
M  V30 1303 C 119.195 -0.508914 2.25119 0
M  V30 1304 C 120.165 -1.09315 1.25058 0
M  V30 1305 O 121.35 -1.12921 1.53797 0
M  V30 1306 C 118.49 -1.65246 3.02965 0
M  V30 1307 C 117.603 -1.09525 4.17886 0
M  V30 1308 C 116.738 -2.20634 4.83212 0
M  V30 1309 C 115.777 -1.62279 5.90196 0
M  V30 1310 N 114.914 -2.67143 6.49291 0
M  V30 1311 H 119.754 0.106283 2.9781 0
M  V30 1312 H 117.291 0.0642227 1.4696 0
M  V30 1313 H 119.249 -2.32574 3.4636 0
M  V30 1314 H 117.879 -2.2386 2.32565 0
M  V30 1315 H 116.931 -0.312818 3.79112 0
M  V30 1316 H 118.243 -0.628444 4.94825 0
M  V30 1317 H 117.397 -2.95821 5.29693 0
M  V30 1318 H 116.136 -2.70659 4.05703 0
M  V30 1319 H 115.141 -0.855989 5.43096 0
M  V30 1320 H 116.366 -1.13102 6.69615 0
M  V30 1321 H 114.312 -3.16417 5.74645 0
M  V30 1322 H 114.229 -2.25093 7.21713 0
M  V30 1323 H 115.497 -3.4209 7.00425 0
M  V30 1324 N 119.726 -1.57421 0.075193 0
M  V30 1325 C 120.951 -1.98364 -0.605515 0
M  V30 1326 C 121.376 -0.953383 -1.62149 0
M  V30 1327 O 120.734 0.0806053 -1.81121 0
M  V30 1328 C 120.782 -3.38332 -1.24756 0
M  V30 1329 O 119.886 -3.37959 -2.36342 0
M  V30 1330 H 119.227 -0.645553 -0.155428 0
M  V30 1331 H 121.757 -2.04044 0.150714 0
M  V30 1332 H 121.767 -3.75591 -1.5936 0
M  V30 1333 H 120.442 -4.12846 -0.503129 0
M  V30 1334 H 119.019 -3.12474 -2.03506 0
M  V30 1335 N 121.204 0.198386 -1.56346 0
M  V30 1336 C 122.452 0.91747 -1.80075 0
M  V30 1337 C 122.773 1.83929 -0.647692 0
M  V30 1338 O 122.043 1.93029 0.334166 0
M  V30 1339 H 120.623 0.341774 -0.664228 0
M  V30 1340 H 123.285 0.204684 -1.93822 0
M  V30 1341 H 122.381 1.51055 -2.7311 0
M  V30 1342 N 122.682 1.50554 0.465978 0
M  V30 1343 C 123.592 1.72585 1.58907 0
M  V30 1344 C 124.608 0.60911 1.6299 0
M  V30 1345 O 125.784 0.88804 1.80765 0
M  V30 1346 C 122.849 1.81995 2.95091 0
M  V30 1347 C 121.91 3.05751 3.01355 0
M  V30 1348 C 121.143 3.14702 4.31043 0
M  V30 1349 O 121.366 2.30313 5.21835 0
M  V30 1350 O 120.3 4.07468 4.43005 0
M  V30 1351 H 124.126 2.67799 1.43239 0
M  V30 1352 H 121.711 1.34711 0.646013 0
M  V30 1353 H 123.593 1.90335 3.75966 0
M  V30 1354 H 122.268 0.899659 3.10947 0
M  V30 1355 H 121.175 3.02908 2.19539 0
M  V30 1356 H 122.508 3.97375 2.90437 0
M  V30 1357 N 124.16 -0.719506 1.40217 0
M  V30 1358 C 125.388 -1.50864 1.41589 0
M  V30 1359 C 125.803 -1.88794 0.0145275 0
M  V30 1360 O 125.16 -1.55174 -0.960594 0
M  V30 1361 C 125.211 -2.78646 2.30302 0
M  V30 1362 O 124.932 -2.42321 3.64983 0
M  V30 1363 C 126.433 -3.72569 2.40224 0
M  V30 1364 H 123.653 -0.465709 0.48307 0
M  V30 1365 H 126.197 -0.88785 1.84221 0
M  V30 1366 H 124.352 -3.37019 1.91042 0
M  V30 1367 H 124.766 -3.24514 4.12057 0
M  V30 1368 H 126.24 -4.5908 3.06512 0
M  V30 1369 H 126.717 -4.15403 1.42608 0
M  V30 1370 H 127.323 -3.20109 2.80019 0
M  V30 1371 N 125.638 -1.25649 -0.95132 0
M  V30 1372 C 126.886 -1.10375 -1.69298 0
M  V30 1373 C 127.207 0.355339 -1.91735 0
M  V30 1374 O 126.477 1.25188 -1.50681 0
M  V30 1375 H 125.057 -0.405461 -0.627384 0
M  V30 1376 H 127.719 -1.57823 -1.14358 0
M  V30 1377 H 126.815 -1.61465 -2.67087 0
M  V30 1378 N 127.117 1.15442 -1.07289 0
M  V30 1379 C 128.366 1.85557 -0.790669 0
M  V30 1380 C 128.679 1.83186 0.685739 0
M  V30 1381 O 129.885 2.48977 1.0827 0
M  V30 1382 C 128.341 3.33038 -1.36433 0
M  V30 1383 C 127.949 3.43856 -2.8717 0
M  V30 1384 C 129.693 4.0834 -1.1601 0
M  V30 1385 C 127.6 4.85482 -3.3773 0
M  V30 1386 H 126.53 0.695122 -0.292098 0
M  V30 1387 H 129.181 1.30219 -1.29287 0
M  V30 1388 H 127.563 3.88043 -0.789864 0
M  V30 1389 H 128.737 2.98961 -3.50655 0
M  V30 1390 H 127.052 2.81998 -3.06376 0
M  V30 1391 H 129.649 5.12859 -1.51262 0
M  V30 1392 H 129.992 4.16182 -0.0991007 0
M  V30 1393 H 130.525 3.59603 -1.70089 0
M  V30 1394 H 127.264 4.82823 -4.43353 0
M  V30 1395 H 126.784 5.30961 -2.78999 0
M  V30 1396 H 128.463 5.54335 -3.33648 0
M  V30 1397 N 128.595 0.856903 1.32268 0
M  V30 1398 C 129.505 0.306131 2.32594 0
M  V30 1399 C 130.521 -0.577209 1.64147 0
M  V30 1400 O 131.697 -0.477043 1.95669 0
M  V30 1401 C 128.762 -0.494561 3.43154 0
M  V30 1402 C 127.823 0.415186 4.27288 0
M  V30 1403 C 127.056 -0.347387 5.32568 0
M  V30 1404 O 127.279 -1.57708 5.48165 0
M  V30 1405 O 126.213 0.287982 6.01211 0
M  V30 1406 H 130.039 1.13737 2.81598 0
M  V30 1407 H 127.624 0.619902 1.35932 0
M  V30 1408 H 129.506 -0.948944 4.10576 0
M  V30 1409 H 128.181 -1.30257 2.96336 0
M  V30 1410 H 127.088 0.917793 3.62667 0
M  V30 1411 H 128.421 1.18844 4.77637 0
M  V30 1412 N 130.073 -1.45103 0.615059 0
M  V30 1413 C 130.983 -2.34382 -0.101034 0
M  V30 1414 C 131.999 -1.51681 -0.852585 0
M  V30 1415 O 133.175 -1.8446 -0.808484 0
M  V30 1416 C 130.24 -3.29417 -1.08099 0
M  V30 1417 C 129.301 -4.28025 -0.330577 0
M  V30 1418 C 128.534 -5.1852 -1.26385 0
M  V30 1419 O 128.757 -5.12598 -2.50198 0
M  V30 1420 O 127.691 -5.97122 -0.756866 0
M  V30 1421 H 131.517 -2.97033 0.632855 0
M  V30 1422 H 129.102 -1.4461 0.375293 0
M  V30 1423 H 130.984 -3.87958 -1.6452 0
M  V30 1424 H 129.659 -2.69321 -1.79577 0
M  V30 1425 H 128.566 -3.73078 0.276283 0
M  V30 1426 H 129.899 -4.90997 0.343866 0
M  V30 1427 N 131.551 -0.354651 -1.53558 0
M  V30 1428 C 132.799 0.237972 -2.00694 0
M  V30 1429 C 133.12 1.50173 -1.24391 0
M  V30 1430 O 132.39 1.92673 -0.354135 0
M  V30 1431 H 130.97 0.0909256 -0.741446 0
M  V30 1432 H 133.632 -0.478368 -1.88938 0
M  V30 1433 H 132.728 0.47264 -3.085 0
M  V30 1434 N 133.029 1.57378 -0.0835403 0
M  V30 1435 C 134.269 1.95808 0.586381 0
M  V30 1436 C 134.633 0.963706 1.66062 0
M  V30 1437 O 135.834 1.23608 2.38693 0
M  V30 1438 C 134.105 3.38808 1.13771 0
M  V30 1439 S 135.664 3.99225 1.82112 0
M  V30 1440 H 132.482 0.684675 0.191679 0
M  V30 1441 H 135.084 1.94843 -0.160194 0
M  V30 1442 H 133.788 4.08954 0.344197 0
M  V30 1443 H 133.319 3.43344 1.92038 0
M  V30 1444 H 135.334 3.87087 3.10449 0
M  V30 1445 N 134.507 -0.190092 1.56449 0
M  V30 1446 C 135.437 -1.23816 1.97969 0
M  V30 1447 C 136.418 -1.47201 0.852395 0
M  V30 1448 O 137.603 -1.58854 1.1171 0
M  V30 1449 C 134.733 -2.5813 2.3235 0
M  V30 1450 C 133.687 -2.49348 3.47864 0
M  V30 1451 C 133.013 -3.8798 3.67934 0
M  V30 1452 C 134.313 -2.01424 4.81898 0
M  V30 1453 H 136.007 -0.89311 2.85769 0
M  V30 1454 H 133.553 -0.428177 1.37487 0
M  V30 1455 H 135.506 -3.31637 2.59991 0
M  V30 1456 H 134.23 -2.94386 1.41438 0
M  V30 1457 H 132.889 -1.78297 3.20321 0
M  V30 1458 H 132.537 -4.21597 2.74344 0
M  V30 1459 H 132.237 -3.82978 4.45648 0
M  V30 1460 H 133.761 -4.63101 3.97957 0
M  V30 1461 H 135.175 -2.64693 5.08538 0
M  V30 1462 H 133.572 -2.07413 5.63116 0
M  V30 1463 H 134.642 -0.967677 4.75146 0
M  V30 1464 N 135.985 -1.50799 -0.457987 0
M  V30 1465 C 137.21 -1.66496 -1.23668 0
M  V30 1466 C 137.635 -0.353288 -1.84752 0
M  V30 1467 O 136.993 0.684346 -1.67888 0
M  V30 1468 C 137.041 -2.76763 -2.3116 0
M  V30 1469 O 136.145 -2.38928 -3.36136 0
M  V30 1470 H 135.486 -0.555828 -0.363252 0
M  V30 1471 H 138.016 -1.9725 -0.543474 0
M  V30 1472 H 138.026 -3.00232 -2.76269 0
M  V30 1473 H 136.701 -3.71954 -1.86073 0
M  V30 1474 H 135.278 -2.25953 -2.96647 0
M  V30 1475 N 137.463 0.71206 -1.40597 0
M  V30 1476 C 138.712 1.46754 -1.38369 0
M  V30 1477 C 139.025 1.95598 0.0097839 0
M  V30 1478 O 140.231 2.71059 0.154677 0
M  V30 1479 C 138.687 2.65289 -2.43207 0
M  V30 1480 C 138.295 2.23301 -3.88382 0
M  V30 1481 C 140.039 3.43008 -2.50091 0
M  V30 1482 C 137.946 3.38696 -4.84808 0
M  V30 1483 H 136.876 0.55118 -0.514506 0
M  V30 1484 H 139.527 0.774616 -1.66349 0
M  V30 1485 H 137.909 3.36769 -2.08332 0
M  V30 1486 H 139.083 1.59218 -4.32419 0
M  V30 1487 H 137.398 1.58618 -3.85006 0
M  V30 1488 H 139.995 4.28881 -3.1932 0
M  V30 1489 H 140.338 3.87065 -1.53253 0
M  V30 1490 H 140.871 2.78574 -2.83974 0
M  V30 1491 H 137.61 2.99668 -5.82992 0
M  V30 1492 H 137.13 4.01683 -4.45433 0
M  V30 1493 H 138.809 4.04712 -5.04794 0
M  V30 1494 N 138.941 1.26152 0.944643 0
M  V30 1495 C 140.352 1.10454 1.50522 0
M  V30 1496 C 140.703 -0.31635 1.93633 0
M  V30 1497 O 139.828 -1.20746 1.79581 0
M  V30 1498 C 140.423 1.99891 2.73549 0
M  V30 1499 C 138.982 1.88348 3.25886 0
M  V30 1500 C 138.129 1.93447 1.9868 0
M  V30 1501 H 141.08 1.39292 0.760489 0
M  V30 1502 H 141.101 1.54477 3.47732 0
M  V30 1503 H 140.613 3.03297 2.42141 0
M  V30 1504 H 138.714 0.878636 3.62092 0
M  V30 1505 H 138.827 2.73696 3.93227 0
M  V30 1506 H 137.191 1.37456 2.14425 0
M  V30 1507 H 137.974 2.98476 1.69607 0
M  V30 1508 N 140.419 -1.14872 1.07899 0
M  V30 1509 C 141.329 -2.2341 0.715915 0
M  V30 1510 C 142.345 -1.71808 -0.275306 0
M  V30 1511 O 143.521 -2.01039 -0.120545 0
M  V30 1512 C 140.586 -3.46474 0.125168 0
M  V30 1513 C 139.647 -4.13039 1.17034 0
M  V30 1514 C 138.88 -5.30229 0.607688 0
M  V30 1515 O 139.103 -5.675 -0.574497 0
M  V30 1516 O 138.037 -5.86444 1.35526 0
M  V30 1517 H 141.863 -2.56808 1.62121 0
M  V30 1518 H 139.448 -1.22702 0.852322 0
M  V30 1519 H 141.33 -4.20917 -0.201729 0
M  V30 1520 H 140.005 -3.14811 -0.753364 0
M  V30 1521 H 138.912 -3.40493 1.54968 0
M  V30 1522 H 140.245 -4.48796 2.02097 0
M  V30 1523 N 141.898 -0.863906 -1.31812 0
M  V30 1524 C 142.83 -0.272485 -2.27575 0
M  V30 1525 C 143.843 0.56104 -1.52827 0
M  V30 1526 O 145.032 0.384021 -1.7432 0
M  V30 1527 C 142.132 0.63283 -3.32939 0
M  V30 1528 C 141.305 -0.166902 -4.37081 0
M  V30 1529 C 140.364 0.665608 -5.21973 0
M  V30 1530 O 139.39 0.0958091 -5.69119 0
M  V30 1531 N 140.592 1.9787 -5.45736 0
M  V30 1532 H 143.357 -1.0954 -2.78964 0
M  V30 1533 H 140.918 -0.724791 -1.4477 0
M  V30 1534 H 142.91 1.19532 -3.86645 0
M  V30 1535 H 141.48 1.35642 -2.81638 0
M  V30 1536 H 140.7 -0.910838 -3.83533 0
M  V30 1537 H 141.988 -0.715874 -5.03739 0
M  V30 1538 H 141.386 2.46484 -5.09178 0
M  V30 1539 H 139.943 2.48911 -6.024 0
M  V30 1540 N 143.376 1.44774 -0.622745 0
M  V30 1541 C 144.792 1.56986 -0.287652 0
M  V30 1542 C 144.992 1.61167 1.20944 0
M  V30 1543 O 144.048 1.55015 1.99315 0
M  V30 1544 C 145.361 2.84551 -0.972188 0
M  V30 1545 C 146.909 2.9825 -0.949536 0
M  V30 1546 C 147.384 4.28605 -1.61437 0
M  V30 1547 N 148.875 4.35399 -1.58057 0
M  V30 1548 C 149.61 5.34964 -2.064 0
M  V30 1549 N 149.106 6.40981 -2.62897 0
M  V30 1550 N 150.899 5.26419 -1.97078 0
M  V30 1551 H 143.05 1.40304 -1.59463 0
M  V30 1552 H 145.313 0.671794 -0.668878 0
M  V30 1553 H 145.019 2.87417 -2.02693 0
M  V30 1554 H 144.893 3.73807 -0.504771 0
M  V30 1555 H 147.28 2.94941 0.0967067 0
M  V30 1556 H 147.361 2.10364 -1.45536 0
M  V30 1557 H 147.005 4.32672 -2.66002 0
M  V30 1558 H 146.935 5.15334 -1.08344 0
M  V30 1559 H 149.426 3.59397 -1.16801 0
M  V30 1560 H 149.739 7.13225 -2.97539 0
M  V30 1561 H 148.084 6.4169 -2.66943 0
M  V30 1562 H 151.275 4.42504 -1.52669 0
M  V30 1563 H 151.448 6.03861 -2.35066 0
M  V30 1564 N 144.854 0.36279 1.53368 0
M  V30 1565 C 145.817 -0.472679 2.24273 0
M  V30 1566 C 146.817 -1.012 1.24961 0
M  V30 1567 O 148.007 -0.898194 1.49259 0
M  V30 1568 C 145.139 -1.66039 2.97731 0
M  V30 1569 H 146.332 0.14773 2.99536 0
M  V30 1570 H 143.885 0.114434 1.55881 0
M  V30 1571 H 144.62 -2.31896 2.26704 0
M  V30 1572 H 144.405 -1.28066 3.70596 0
M  V30 1573 H 145.895 -2.25252 3.51641 0
M  V30 1574 N 146.332 -1.57332 0.0918853 0
M  V30 1575 C 147.262 -2.16872 -0.865371 0
M  V30 1576 C 148.243 -1.10118 -1.29646 0
M  V30 1577 O 149.428 -1.38242 -1.36392 0
M  V30 1578 C 146.558 -2.74649 -2.12569 0
M  V30 1579 C 145.512 -3.86747 -1.83333 0
M  V30 1580 C 144.838 -4.31212 -3.16166 0
M  V30 1581 C 146.138 -5.10089 -1.1228 0
M  V30 1582 H 147.832 -2.97114 -0.369307 0
M  V30 1583 H 145.378 -1.42918 -0.176194 0
M  V30 1584 H 147.331 -3.14952 -2.7997 0
M  V30 1585 H 146.055 -1.91657 -2.64452 0
M  V30 1586 H 144.714 -3.46978 -1.18331 0
M  V30 1587 H 144.362 -3.45115 -3.6593 0
M  V30 1588 H 144.062 -5.06788 -2.97388 0
M  V30 1589 H 145.586 -4.74146 -3.84731 0
M  V30 1590 H 147 -5.47582 -1.69785 0
M  V30 1591 H 145.397 -5.91073 -1.03693 0
M  V30 1592 H 146.467 -4.84786 -0.105041 0
M  V30 1593 N 147.81 0.181792 -1.56548 0
M  V30 1594 C 149.056 0.901431 -1.81665 0
M  V30 1595 C 149.389 1.82347 -0.668075 0
M  V30 1596 O 148.664 1.91669 0.330615 0
M  V30 1597 C 148.947 1.70618 -3.17115 0
M  V30 1598 C 148.8 0.807964 -4.42484 0
M  V30 1599 C 150.119 2.67605 -3.49393 0
M  V30 1600 H 147.238 0.32627 -0.660846 0
M  V30 1601 H 149.88 0.168134 -1.89255 0
M  V30 1602 H 148.03 2.33133 -3.10775 0
M  V30 1603 H 149.702 0.19649 -4.60881 0
M  V30 1604 H 147.945 0.115411 -4.33646 0
M  V30 1605 H 148.616 1.40632 -5.33785 0
M  V30 1606 H 151.092 2.15218 -3.56118 0
M  V30 1607 H 149.968 3.20985 -4.45264 0
M  V30 1608 H 150.229 3.47298 -2.73563 0
M  V30 1609 N 149.288 1.51039 0.449983 0
M  V30 1610 C 150.699 1.557 1.03026 0
M  V30 1611 C 151.05 0.372939 1.92623 0
M  V30 1612 O 150.175 -0.511771 2.10261 0
M  V30 1613 C 150.77 2.82171 1.87523 0
M  V30 1614 C 149.329 2.89444 2.40622 0
M  V30 1615 C 148.476 2.50228 1.19504 0
M  V30 1616 H 151.427 1.56999 0.231745 0
M  V30 1617 H 151.448 2.65219 2.72835 0
M  V30 1618 H 150.96 3.68331 1.22286 0
M  V30 1619 H 149.061 2.07685 3.0935 0
M  V30 1620 H 149.174 3.92816 2.74285 0
M  V30 1621 H 147.538 2.03139 1.53644 0
M  V30 1622 H 148.321 3.38719 0.558972 0
M  V30 1623 N 150.766 -0.704594 1.40972 0
M  V30 1624 C 152.182 -1.01406 1.23244 0
M  V30 1625 C 152.382 -2.01169 0.115399 0
M  V30 1626 O 151.438 -2.47021 -0.523147 0
M  V30 1627 C 152.751 -1.54728 2.57836 0
M  V30 1628 C 154.299 -1.66658 2.64942 0
M  V30 1629 C 154.774 -2.23383 3.9983 0
M  V30 1630 N 156.265 -2.30756 4.01629 0
M  V30 1631 C 157 -2.75655 5.02794 0
M  V30 1632 N 156.496 -3.20225 6.14352 0
M  V30 1633 N 158.289 -2.75138 4.90159 0
M  V30 1634 H 150.44 -0.0435285 2.12355 0
M  V30 1635 H 152.703 -0.0818951 0.944456 0
M  V30 1636 H 152.409 -0.888832 3.40283 0
M  V30 1637 H 152.283 -2.53084 2.79693 0
M  V30 1638 H 154.67 -2.31617 1.8286 0
M  V30 1639 H 154.751 -0.668717 2.46904 0
M  V30 1640 H 154.395 -1.59043 4.82357 0
M  V30 1641 H 154.325 -3.23904 4.15203 0
M  V30 1642 H 156.816 -1.99291 3.21079 0
M  V30 1643 H 157.129 -3.53084 6.87424 0
M  V30 1644 H 155.474 -3.18156 6.17901 0
M  V30 1645 H 158.665 -2.39661 4.02095 0
M  V30 1646 H 158.838 -3.09812 5.6914 0
M  V30 1647 N 152.244 -1.26651 -0.937939 0
M  V30 1648 C 153.207 -1.08546 -2.01867 0
M  V30 1649 C 154.207 -0.0327327 -1.60767 0
M  V30 1650 O 155.397 -0.276427 -1.71993 0
M  V30 1651 C 152.529 -0.651711 -3.34613 0
M  V30 1652 H 153.722 -2.04502 -2.1936 0
M  V30 1653 H 151.275 -1.09294 -1.11734 0
M  V30 1654 H 152.01 0.309696 -3.22818 0
M  V30 1655 H 151.795 -1.41189 -3.65798 0
M  V30 1656 H 153.285 -0.546973 -4.14002 0
M  V30 1657 N 153.722 1.14298 -1.08507 0
M  V30 1658 C 154.632 2.23027 -0.727753 0
M  V30 1659 C 155.648 1.71952 0.26619 0
M  V30 1660 O 156.824 2.011 0.109882 0
M  V30 1661 C 153.889 3.46403 -0.143541 0
M  V30 1662 C 152.95 4.12413 -1.19223 0
M  V30 1663 C 152.183 5.29899 -0.635798 0
M  V30 1664 O 152.406 5.67796 0.544393 0
M  V30 1665 O 151.34 5.85717 -1.38634 0
M  V30 1666 H 155.166 2.55945 -1.63481 0
M  V30 1667 H 152.751 1.22248 -0.858817 0
M  V30 1668 H 154.633 4.21018 0.179404 0
M  V30 1669 H 153.308 3.15206 0.736659 0
M  V30 1670 H 152.215 3.39667 -1.56772 0
M  V30 1671 H 153.548 4.47718 -2.04474 0
M  V30 1672 N 155.201 0.870884 1.31352 0
M  V30 1673 C 156.148 0.325425 2.28494 0
M  V30 1674 C 157.118 -0.576615 1.5577 0
M  V30 1675 O 158.303 -0.508059 1.83911 0
M  V30 1676 C 155.443 -0.466283 3.41935 0
M  V30 1677 C 154.556 0.463378 4.29508 0
M  V30 1678 C 153.691 -0.342544 5.30094 0
M  V30 1679 C 152.73 0.583486 6.09313 0
M  V30 1680 N 151.867 -0.186244 7.01853 0
M  V30 1681 H 156.707 1.15901 2.74538 0
M  V30 1682 H 154.244 0.58294 1.35056 0
M  V30 1683 H 156.202 -0.941085 4.06447 0
M  V30 1684 H 154.832 -1.26456 2.97 0
M  V30 1685 H 153.884 1.05663 3.65431 0
M  V30 1686 H 155.196 1.1734 4.84802 0
M  V30 1687 H 154.35 -0.879816 6.00287 0
M  V30 1688 H 153.089 -1.08585 4.75458 0
M  V30 1689 H 152.094 1.13251 5.3801 0
M  V30 1690 H 153.319 1.32566 6.66035 0
M  V30 1691 H 151.265 -0.912348 6.49625 0
M  V30 1692 H 151.182 0.464422 7.54572 0
M  V30 1693 H 152.45 -0.704716 7.76308 0
M  V30 1694 N 156.679 -1.44442 0.630414 0
M  V30 1695 C 157.925 -2.02351 0.134816 0
M  V30 1696 C 158.258 -1.4947 -1.23986 0
M  V30 1697 O 157.533 -0.678475 -1.82283 0
M  V30 1698 C 157.816 -3.59898 0.120707 0
M  V30 1699 C 157.669 -4.23063 1.52767 0
M  V30 1700 C 158.988 -4.36585 -0.555127 0
M  V30 1701 H 156.107 -0.73527 0.0504646 0
M  V30 1702 H 158.749 -1.72022 0.806751 0
M  V30 1703 H 156.899 -3.85868 -0.451477 0
M  V30 1704 H 158.571 -4.08202 2.14869 0
M  V30 1705 H 156.814 -3.80586 2.08175 0
M  V30 1706 H 157.485 -5.32071 1.46984 0
M  V30 1707 H 159.961 -4.16044 -0.0685429 0
M  V30 1708 H 158.837 -5.46294 -0.534185 0
M  V30 1709 H 159.098 -4.11138 -1.62535 0
M  V30 1710 N 158.157 -0.370918 -1.53173 0
M  V30 1711 C 159.104 0.473035 -2.259 0
M  V30 1712 C 160.074 1.07311 -1.26781 0
M  V30 1713 O 161.259 1.1046 -1.55574 0
M  V30 1714 C 158.399 1.60405 -3.05556 0
M  V30 1715 C 157.512 1.02863 -4.19575 0
M  V30 1716 C 156.647 2.12918 -4.86661 0
M  V30 1717 C 155.686 1.52869 -5.92704 0
M  V30 1718 N 154.823 2.56779 -6.53459 0
M  V30 1719 H 159.663 -0.153649 -2.97604 0
M  V30 1720 H 157.2 -0.0875946 -1.46839 0
M  V30 1721 H 159.158 2.27034 -3.50016 0
M  V30 1722 H 157.788 2.20131 -2.36097 0
M  V30 1723 H 156.84 0.252465 -3.79561 0
M  V30 1724 H 158.152 0.549642 -4.95762 0
M  V30 1725 H 157.306 2.87356 -5.34333 0
M  V30 1726 H 156.045 2.6417 -4.09958 0
M  V30 1727 H 155.05 0.769479 -5.44389 0
M  V30 1728 H 156.275 1.02435 -6.7133 0
M  V30 1729 H 154.221 3.07235 -5.79606 0
M  V30 1730 H 154.138 2.13583 -7.25202 0
M  V30 1731 H 155.406 3.30903 -7.05779 0
M  V30 1732 N 159.635 1.57281 -0.100228 0
M  V30 1733 C 160.884 1.93713 0.561984 0
M  V30 1734 C 161.197 0.984492 1.69018 0
M  V30 1735 O 162.403 1.24273 2.41389 0
M  V30 1736 C 160.859 3.4421 1.05106 0
M  V30 1737 C 160.467 4.47975 -0.0476628 0
M  V30 1738 C 162.211 3.89595 1.68571 0
M  V30 1739 C 160.118 5.89631 0.457055 0
M  V30 1740 H 159.048 0.723082 0.2137 0
M  V30 1741 H 161.699 1.82644 -0.177057 0
M  V30 1742 H 160.081 3.50449 1.84395 0
M  V30 1743 H 161.255 4.53385 -0.823333 0
M  V30 1744 H 159.57 4.1223 -0.587816 0
M  V30 1745 H 162.167 4.92832 2.07414 0
M  V30 1746 H 162.51 3.28526 2.55688 0
M  V30 1747 H 163.043 3.86078 0.958562 0
M  V30 1748 H 159.782 6.54411 -0.377616 0
M  V30 1749 H 159.302 5.87681 1.19962 0
M  V30 1750 H 160.981 6.40363 0.92437 0
M  V30 1751 N 161.113 -0.173488 1.56642 0
M  V30 1752 C 162.529 -0.525174 1.50712 0
M  V30 1753 C 162.729 -1.8476 0.804107 0
M  V30 1754 O 161.785 -2.49869 0.363574 0
M  V30 1755 C 163.098 -0.559937 2.95441 0
M  V30 1756 C 164.646 -0.647288 3.06234 0
M  V30 1757 C 165.121 -0.712963 4.52417 0
M  V30 1758 N 166.612 -0.775911 4.56655 0
M  V30 1759 C 167.347 -0.847264 5.67106 0
M  V30 1760 N 166.843 -0.879585 6.87194 0
M  V30 1761 N 168.636 -0.886117 5.55071 0
M  V30 1762 H 160.787 0.693681 2.00753 0
M  V30 1763 H 163.05 0.249841 0.914485 0
M  V30 1764 H 162.756 0.343049 3.50023 0
M  V30 1765 H 162.63 -1.40718 3.49969 0
M  V30 1766 H 165.017 -1.5407 2.51687 0
M  V30 1767 H 165.098 0.226586 2.54794 0
M  V30 1768 H 164.742 0.176183 5.07594 0
M  V30 1769 H 164.672 -1.60295 5.0161 0
M  V30 1770 H 167.163 -0.759304 3.70193 0
M  V30 1771 H 167.476 -0.935144 7.67121 0
M  V30 1772 H 165.821 -0.847898 6.89808 0
M  V30 1773 H 169.012 -0.857853 4.60172 0
M  V30 1774 H 169.185 -0.938263 6.41171 0
M  V30 1775 N 162.591 -1.51276 -0.441967 0
M  V30 1776 C 163.554 -1.7167 -1.51862 0
M  V30 1777 C 164.554 -0.586793 -1.49711 0
M  V30 1778 O 165.744 -0.854276 -1.51815 0
M  V30 1779 C 162.876 -1.76889 -2.91416 0
M  V30 1780 H 164.069 -2.67754 -1.35084 0
M  V30 1781 H 161.622 -1.41196 -0.670333 0
M  V30 1782 H 162.357 -0.826026 -3.13604 0
M  V30 1783 H 162.142 -2.59001 -2.94382 0
M  V30 1784 H 163.632 -1.94522 -3.69528 0
M  V30 1785 N 164.069 0.697108 -1.41344 0
M  V30 1786 C 164.999 1.82353 -1.45841 0
M  V30 1787 C 165.98 1.67115 -0.317247 0
M  V30 1788 O 167.165 1.86871 -0.528474 0
M  V30 1789 C 164.295 3.20476 -1.33838 0
M  V30 1790 C 163.249 3.50415 -2.4575 0
M  V30 1791 C 162.575 4.87878 -2.18813 0
M  V30 1792 C 163.875 3.49546 -3.88091 0
M  V30 1793 H 165.569 1.78846 -2.40113 0
M  V30 1794 H 163.115 0.859028 -1.15571 0
M  V30 1795 H 165.068 3.98988 -1.35596 0
M  V30 1796 H 163.792 3.24604 -0.360498 0
M  V30 1797 H 162.451 2.74253 -2.43271 0
M  V30 1798 H 162.099 4.8863 -1.19371 0
M  V30 1799 H 161.799 5.08875 -2.93803 0
M  V30 1800 H 163.323 5.68702 -2.22284 0
M  V30 1801 H 164.737 4.18066 -3.92293 0
M  V30 1802 H 163.134 3.82075 -4.62751 0
M  V30 1803 H 164.204 2.48552 -4.16353 0
M  V30 1804 N 165.547 1.27147 0.931209 0
M  V30 1805 C 166.824 1.0401 1.65654 0
M  V30 1806 C 167.204 -0.426297 2.06751 0
M  V30 1807 O 166.552 -1.40879 1.79904 0
M  V30 1808 C 166.762 1.99834 2.86125 0
M  V30 1809 C 168.11 2.29007 3.57549 0
M  V30 1810 O 169.134 1.97779 2.96246 0
M  V30 1811 O 167.993 2.82222 4.67989 0
M  V30 1812 H 165.087 0.396239 0.725895 0
M  V30 1813 H 167.633 1.38397 0.982056 0
M  V30 1814 H 166.405 2.98744 2.52721 0
M  V30 1815 H 166.028 1.65987 3.61295 0
M  V30 1816 N 167.025 -1.13721 1.09112 0
M  V30 1817 C 168.441 -1.36914 0.820174 0
M  V30 1818 C 168.641 -1.93356 -0.567079 0
M  V30 1819 O 167.697 -2.15093 -1.32255 0
M  V30 1820 C 169.01 -2.3235 1.90877 0
M  V30 1821 C 170.558 -2.45973 1.93562 0
M  V30 1822 C 171.033 -3.44714 3.01556 0
M  V30 1823 N 172.524 -3.52263 3.00775 0
M  V30 1824 C 173.259 -4.28536 3.80978 0
M  V30 1825 N 172.755 -5.07991 4.71081 0
M  V30 1826 N 174.548 -4.23804 3.69251 0
M  V30 1827 H 166.699 -0.754348 1.98553 0
M  V30 1828 H 168.962 -0.3944 0.862063 0
M  V30 1829 H 168.668 -1.98027 2.90651 0
M  V30 1830 H 168.542 -3.32332 1.78424 0
M  V30 1831 H 170.929 -2.79584 0.944286 0
M  V30 1832 H 171.01 -1.45926 2.10093 0
M  V30 1833 H 170.654 -3.11835 4.00901 0
M  V30 1834 H 170.584 -4.44558 2.82269 0
M  V30 1835 H 173.075 -2.95567 2.35475 0
M  V30 1836 H 173.388 -5.63487 5.28869 0
M  V30 1837 H 171.733 -5.07235 4.75119 0
M  V30 1838 H 174.924 -3.60806 2.98222 0
M  V30 1839 H 175.097 -4.82995 4.31995 0
M  V30 1840 N 168.503 -0.877838 -1.30888 0
M  V30 1841 C 169.78 -0.413052 -1.91189 0
M  V30 1842 C 170.16 1.1056 -1.79832 0
M  V30 1843 O 169.508 1.93771 -1.21099 0
M  V30 1844 C 169.718 -0.903191 -3.3711 0
M  V30 1845 C 171.066 -0.93395 -4.14201 0
M  V30 1846 O 172.09 -0.849373 -3.45925 0
M  V30 1847 O 170.949 -1.05772 -5.36167 0
M  V30 1848 H 168.043 -0.125035 -0.817493 0
M  V30 1849 H 170.589 -0.966269 -1.39504 0
M  V30 1850 H 169.361 -1.94692 -3.39427 0
M  V30 1851 H 168.984 -0.328732 -3.96239 0
M  V30 1852 N 169.982 1.44106 -0.638065 0
M  V30 1853 C 171.23 2.01579 -0.145043 0
M  V30 1854 C 171.551 1.50496 1.24 0
M  V30 1855 O 170.821 0.711374 1.82527 0
M  V30 1856 H 169.401 0.745282 -0.05063 0
M  V30 1857 H 172.063 1.76516 -0.826327 0
M  V30 1858 H 171.159 3.11877 -0.118039 0
M  V30 1859 N 171.46 0.379036 1.52974 0
M  V30 1860 C 172.407 -0.461048 2.26148 0
M  V30 1861 C 173.377 -1.06637 1.27349 0
M  V30 1862 O 174.562 -1.09633 1.56157 0
M  V30 1863 C 171.702 -1.58782 3.06402 0
M  V30 1864 C 170.815 -1.00636 4.20115 0
M  V30 1865 C 169.95 -2.10334 4.87784 0
M  V30 1866 C 168.989 -1.49724 5.93506 0
M  V30 1867 N 168.126 -2.5331 6.54812 0
M  V30 1868 H 172.966 0.169429 2.97518 0
M  V30 1869 H 170.503 0.0953806 1.4679 0
M  V30 1870 H 172.461 -2.25174 3.51215 0
M  V30 1871 H 171.091 -2.18876 2.37261 0
M  V30 1872 H 170.143 -0.232332 3.7969 0
M  V30 1873 H 171.455 -0.523343 4.96047 0
M  V30 1874 H 170.609 -2.84519 5.35849 0
M  V30 1875 H 169.348 -2.61992 4.11353 0
M  V30 1876 H 168.353 -0.740598 5.44789 0
M  V30 1877 H 169.578 -0.988732 6.71864 0
M  V30 1878 H 167.524 -3.04156 5.81227 0
M  V30 1879 H 167.441 -2.09734 7.26325 0
M  V30 1880 H 168.709 -3.27155 7.07524 0
M  V30 1881 N 172.938 -1.57226 0.108567 0
M  V30 1882 C 174.349 -1.8195 -0.418464 0
M  V30 1883 C 174.7 -1.02508 -1.67292 0
M  V30 1884 O 173.825 -0.258496 -2.14851 0
M  V30 1885 C 174.42 -3.30028 -0.765979 0
M  V30 1886 C 172.979 -3.55469 -1.23769 0
M  V30 1887 C 172.126 -2.7625 -0.241106 0
M  V30 1888 H 175.077 -1.55149 0.33384 0
M  V30 1889 H 175.098 -3.44086 -1.62434 0
M  V30 1890 H 174.61 -3.87821 0.147219 0
M  V30 1891 H 172.711 -3.03022 -2.16814 0
M  V30 1892 H 172.824 -4.6408 -1.19022 0
M  V30 1893 H 171.188 -2.44133 -0.72602 0
M  V30 1894 H 171.971 -3.36797 0.665007 0
M  V30 1895 N 174.416 0.165178 -1.56732 0
M  V30 1896 C 175.663 0.880807 -1.8234 0
M  V30 1897 C 175.991 1.81977 -0.686621 0
M  V30 1898 O 175.246 1.92971 0.325697 0
M  V30 1899 C 175.545 1.70405 -3.1416 0
M  V30 1900 C 175.211 0.913475 -4.4155 0
M  V30 1901 C 173.873 0.695303 -4.7615 0
M  V30 1902 C 176.225 0.359349 -5.1996 0
M  V30 1903 C 173.553 -0.0879947 -5.86634 0
M  V30 1904 C 175.905 -0.410893 -6.31264 0
M  V30 1905 C 174.569 -0.639808 -6.64427 0
M  V30 1906 H 173.839 0.32231 -0.667231 0
M  V30 1907 H 176.486 0.145402 -1.90947 0
M  V30 1908 H 174.791 2.50903 -3.00923 0
M  V30 1909 H 176.488 2.26091 -3.31186 0
M  V30 1910 H 173.078 1.09357 -4.14414 0
M  V30 1911 H 177.262 0.515228 -4.93618 0
M  V30 1912 H 172.518 -0.27503 -6.10781 0
M  V30 1913 H 176.692 -0.847494 -6.91224 0
M  V30 1914 H 174.319 -1.24864 -7.49875 0
M  V30 1915 N 175.894 1.51508 0.433938 0
M  V30 1916 C 176.804 1.75917 1.5521 0
M  V30 1917 C 177.82 0.643545 1.61662 0
M  V30 1918 O 178.996 0.926183 1.7884 0
M  V30 1919 C 176.061 1.88213 2.91164 0
M  V30 1920 C 175.122 3.12074 2.94802 0
M  V30 1921 C 174.355 3.23774 4.24271 0
M  V30 1922 O 174.578 2.4133 5.16833 0
M  V30 1923 O 173.512 4.16774 4.34262 0
M  V30 1924 H 177.338 2.70777 1.37527 0
M  V30 1925 H 174.923 1.36051 0.617293 0
M  V30 1926 H 176.805 1.98267 3.71845 0
M  V30 1927 H 175.48 0.965413 3.08968 0
M  V30 1928 H 174.387 3.07497 2.13065 0
M  V30 1929 H 175.72 4.03446 2.81943 0
M  V30 1930 N 177.372 -0.689602 1.41712 0
M  V30 1931 C 178.302 -1.81577 1.46806 0
M  V30 1932 C 179.283 -1.66945 0.326105 0
M  V30 1933 O 180.468 -1.86588 0.538377 0
M  V30 1934 C 177.598 -3.19762 1.35535 0
M  V30 1935 C 176.552 -3.49107 2.47605 0
M  V30 1936 C 175.878 -4.86711 2.21397 0
M  V30 1937 C 177.178 -3.47483 3.89939 0
M  V30 1938 H 178.872 -1.7757 2.41058 0
M  V30 1939 H 176.418 -0.852887 1.16025 0
M  V30 1940 H 178.371 -3.98263 1.3771 0
M  V30 1941 H 177.095 -3.24409 0.377708 0
M  V30 1942 H 175.754 -2.72959 2.44722 0
M  V30 1943 H 175.402 -4.8799 1.21961 0
M  V30 1944 H 175.102 -5.0731 2.96497 0
M  V30 1945 H 176.626 -5.67515 2.25297 0
M  V30 1946 H 178.04 -4.1598 3.94505 0
M  V30 1947 H 176.437 -3.79615 4.64771 0
M  V30 1948 H 177.507 -2.46341 4.17665 0
M  V30 1949 N 178.85 -1.27639 -0.924453 0
M  V30 1950 C 179.76 -1.12466 -2.05885 0
M  V30 1951 C 180.776 -0.053869 -1.73917 0
M  V30 1952 O 181.952 -0.261012 -1.99702 0
M  V30 1953 C 179.017 -0.776768 -3.37886 0
M  V30 1954 C 178.078 -1.92878 -3.83532 0
M  V30 1955 C 177.311 -1.59739 -5.09234 0
M  V30 1956 O 177.534 -0.506782 -5.68144 0
M  V30 1957 O 176.468 -2.43761 -5.50331 0
M  V30 1958 H 180.294 -2.07671 -2.21599 0
M  V30 1959 H 177.879 -1.06857 -1.04413 0
M  V30 1960 H 179.761 -0.596229 -4.17161 0
M  V30 1961 H 178.436 0.145732 -3.23372 0
M  V30 1962 H 177.343 -2.1644 -3.0513 0
M  V30 1963 H 178.676 -2.8316 -4.02593 0
M  V30 1964 N 180.328 1.1314 -1.09713 0
M  V30 1965 C 181.291 2.16831 -0.742751 0
M  V30 1966 C 182.291 1.59159 0.229129 0
M  V30 1967 O 183.481 1.74199 0.00693237 0
M  V30 1968 C 180.613 3.40756 -0.0989168 0
M  V30 1969 H 181.806 2.49695 -1.66109 0
M  V30 1970 H 179.359 1.2802 -0.896699 0
M  V30 1971 H 180.094 3.13485 0.830514 0
M  V30 1972 H 179.879 3.83888 -0.798265 0
M  V30 1973 H 181.369 4.17386 0.133524 0
M  V30 1974 N 181.806 0.884767 1.30421 0
M  V30 1975 C 183.083 0.423185 1.90967 0
M  V30 1976 C 183.463 -1.09605 1.80416 0
M  V30 1977 O 182.811 -1.93126 1.22125 0
M  V30 1978 C 183.021 0.921056 3.36627 0
M  V30 1979 C 184.369 0.955903 4.137 0
M  V30 1980 O 185.393 0.867706 3.4547 0
M  V30 1981 O 184.252 1.08614 5.35598 0
M  V30 1982 H 181.346 0.129369 0.816819 0
M  V30 1983 H 183.892 0.973653 1.3899 0
M  V30 1984 H 182.664 1.96489 3.3839 0
M  V30 1985 H 182.287 0.349741 3.96059 0
M  V30 1986 N 183.284 -1.43765 0.645699 0
M  V30 1987 C 184.532 -2.01499 0.155731 0
M  V30 1988 C 184.853 -1.51151 -1.232 0
M  V30 1989 O 184.123 -0.721044 -1.82148 0
M  V30 1990 H 182.703 -0.745003 0.0545817 0
M  V30 1991 H 185.365 -1.76075 0.835677 0
M  V30 1992 H 184.461 -3.1181 0.134577 0
M  V30 1993 N 184.763 -0.387143 -1.52771 0
M  V30 1994 C 185.693 0.440551 -2.29306 0
M  V30 1995 C 186.674 1.06535 -1.32606 0
M  V30 1996 O 187.859 1.07853 -1.61497 0
M  V30 1997 C 184.989 1.56919 -3.09829 0
M  V30 1998 C 183.943 1.07054 -4.14395 0
M  V30 1999 C 183.269 2.29109 -4.83129 0
M  V30 2000 C 184.569 0.140015 -5.22112 0
M  V30 2001 H 186.263 -0.198026 -2.98744 0
M  V30 2002 H 183.809 -0.09668 -1.43675 0
M  V30 2003 H 185.762 2.15503 -3.62128 0
M  V30 2004 H 184.486 2.23532 -2.3812 0
M  V30 2005 H 183.145 0.507247 -3.63074 0
M  V30 2006 H 182.793 2.94227 -4.0797 0
M  V30 2007 H 182.493 1.96406 -5.53804 0
M  V30 2008 H 184.017 2.88339 -5.38231 0
M  V30 2009 H 185.431 0.633978 -5.69784 0
M  V30 2010 H 183.828 -0.0971485 -6.00021 0
M  V30 2011 H 184.898 -0.811711 -4.78058 0
M  V30 2012 N 186.241 1.57166 -0.116904 0
M  V30 2013 C 187.171 2.18222 0.830759 0
M  V30 2014 C 188.152 1.12167 1.27877 0
M  V30 2015 O 189.337 1.40394 1.34176 0
M  V30 2016 C 186.467 2.77996 2.08172 0
M  V30 2017 C 185.421 3.89614 1.77157 0
M  V30 2018 C 184.747 4.36187 3.09265 0
M  V30 2019 C 186.047 5.1181 1.04151 0
M  V30 2020 H 187.741 2.97664 0.321992 0
M  V30 2021 H 185.287 1.4318 0.153434 0
M  V30 2022 H 187.24 3.19366 2.74924 0
M  V30 2023 H 185.964 1.9584 2.6137 0
M  V30 2024 H 184.623 3.48816 1.12796 0
M  V30 2025 H 184.271 3.50893 3.60393 0
M  V30 2026 H 183.971 5.11455 2.89288 0
M  V30 2027 H 185.495 4.80207 3.77139 0
M  V30 2028 H 186.909 5.50214 1.61052 0
M  V30 2029 H 185.306 5.92648 0.942762 0
M  V30 2030 H 186.376 4.84892 0.0279022 0
M  V30 2031 N 187.719 -0.156864 1.56817 0
M  V30 2032 C 188.682 -1.17781 1.96622 0
M  V30 2033 C 189.682 -1.36401 0.851555 0
M  V30 2034 O 190.872 -1.33561 1.11836 0
M  V30 2035 C 188.004 -2.54008 2.27361 0
M  V30 2036 H 189.197 -0.836564 2.87996 0
M  V30 2037 H 186.75 -0.39985 1.51099 0
M  V30 2038 H 187.485 -2.9312 1.38748 0
M  V30 2039 H 187.27 -2.41856 3.08623 0
M  V30 2040 H 188.76 -3.27558 2.59029 0
M  V30 2041 N 189.197 -1.51736 -0.425897 0
M  V30 2042 C 190.446 -1.64201 -1.17136 0
M  V30 2043 C 190.759 -0.369705 -1.92074 0
M  V30 2044 O 191.965 -0.373898 -2.68913 0
M  V30 2045 C 190.421 -2.90035 -2.13091 0
M  V30 2046 C 190.029 -4.24312 -1.43747 0
M  V30 2047 C 191.773 -3.1186 -2.87999 0
M  V30 2048 C 189.68 -5.41285 -2.38253 0
M  V30 2049 H 188.61 -0.611624 -0.440944 0
M  V30 2050 H 191.261 -1.78212 -0.437328 0
M  V30 2051 H 189.643 -2.69684 -2.89977 0
M  V30 2052 H 190.817 -4.55086 -0.723408 0
M  V30 2053 H 189.132 -4.08456 -0.809465 0
M  V30 2054 H 191.729 -3.96427 -3.58817 0
M  V30 2055 H 192.072 -2.25403 -3.49999 0
M  V30 2056 H 192.605 -3.32605 -2.18217 0
M  V30 2057 H 189.344 -6.30037 -1.80925 0
M  V30 2058 H 188.864 -5.14872 -3.0768 0
M  V30 2059 H 190.543 -5.73694 -2.99139 0
M  V30 2060 N 190.675 0.682077 -1.42076 0
M  V30 2061 C 191.915 1.45424 -1.43636 0
M  V30 2062 C 192.279 1.91939 -0.0484001 0
M  V30 2063 O 193.48 2.6873 0.0612514 0
M  V30 2064 C 191.751 2.62427 -2.42625 0
M  V30 2065 S 193.31 3.51379 -2.62827 0
M  V30 2066 H 190.128 0.496779 -0.508657 0
M  V30 2067 H 192.73 0.794645 -1.78621 0
M  V30 2068 H 191.434 2.26481 -3.42249 0
M  V30 2069 H 190.965 3.33266 -2.09039 0
M  V30 2070 H 192.98 4.58141 -1.9058 0
M  V30 2071 N 192.153 1.28127 0.917671 0
M  V30 2072 C 193.402 1.14432 1.66097 0
M  V30 2073 C 193.715 -0.307247 1.93172 0
M  V30 2074 O 194.921 -0.565259 2.65551 0
M  V30 2075 C 193.377 2.00015 2.99202 0
M  V30 2076 C 192.985 3.49889 2.79789 0
M  V30 2077 C 194.729 1.94996 3.77064 0
M  V30 2078 C 192.636 4.27636 4.08511 0
M  V30 2079 H 191.566 0.424662 0.62304 0
M  V30 2080 H 194.217 1.52628 1.01868 0
M  V30 2081 H 192.599 1.54672 3.64544 0
M  V30 2082 H 193.773 4.03162 2.23152 0
M  V30 2083 H 192.088 3.56392 2.15345 0
M  V30 2084 H 194.685 2.50354 4.72469 0
M  V30 2085 H 195.028 0.925819 4.05875 0
M  V30 2086 H 195.561 2.38287 3.18534 0
M  V30 2087 H 192.3 5.30615 3.84874 0
M  V30 2088 H 191.82 3.79137 4.64774 0
M  V30 2089 H 193.499 4.37346 4.76799 0
M  V30 2090 N 193.631 -1.12557 1.10312 0
M  V30 2091 C 194.563 -2.17971 0.708625 0
M  V30 2092 C 195.576 -1.60806 -0.254027 0
M  V30 2093 O 196.765 -1.78458 -0.0386891 0
M  V30 2094 C 193.865 -3.38891 0.0248198 0
M  V30 2095 C 193.038 -4.25548 1.01132 0
M  V30 2096 C 192.097 -5.24972 0.35924 0
M  V30 2097 O 191.123 -5.60174 1.00965 0
M  V30 2098 N 192.325 -5.73747 -0.882847 0
M  V30 2099 H 195.09 -2.52427 1.61557 0
M  V30 2100 H 192.651 -1.27967 0.991771 0
M  V30 2101 H 194.643 -4.02485 -0.422852 0
M  V30 2102 H 193.213 -3.02596 -0.784514 0
M  V30 2103 H 192.433 -3.58589 1.6373 0
M  V30 2104 H 193.721 -4.80294 1.67914 0
M  V30 2105 H 193.119 -5.4731 -1.43065 0
M  V30 2106 H 191.676 -6.39234 -1.27369 0
M  V30 2107 N 195.109 -0.891671 -1.2995 0
M  V30 2108 C 196.059 -0.334811 -2.25528 0
M  V30 2109 C 197.043 0.540553 -1.51548 0
M  V30 2110 O 198.235 0.383882 -1.72787 0
M  V30 2111 C 195.364 0.44374 -3.4042 0
M  V30 2112 C 194.45 -0.44609 -4.21747 0
M  V30 2113 N 194.841 -1.54963 -4.81477 0
M  V30 2114 C 193.139 -0.242415 -4.45341 0
M  V30 2115 C 193.84 -2.10015 -5.42465 0
M  V30 2116 N 192.816 -1.39423 -5.25416 0
M  V30 2117 H 196.618 -1.17792 -2.69262 0
M  V30 2118 H 194.132 -0.741822 -1.44467 0
M  V30 2119 H 196.129 0.859362 -4.07947 0
M  V30 2120 H 194.789 1.28421 -2.98225 0
M  V30 2121 H 195.8 -1.93244 -4.80497 0
M  V30 2122 H 192.477 0.560342 -4.13723 0
M  V30 2123 H 193.867 -3.02724 -5.9984 0
M  V30 2124 N 196.587 1.43421 -0.653314 0
M  V30 2125 C 197.497 2.34568 0.0388565 0
M  V30 2126 C 198.513 1.53888 0.81207 0
M  V30 2127 O 199.689 1.86539 0.759294 0
M  V30 2128 C 196.754 3.32167 0.993269 0
M  V30 2129 C 195.815 4.28751 0.216977 0
M  V30 2130 C 195.048 5.21688 1.12593 0
M  V30 2131 O 195.271 5.19052 2.36519 0
M  V30 2132 O 194.205 5.98919 0.598284 0
M  V30 2133 H 198.031 2.95251 -0.711386 0
M  V30 2134 H 195.616 1.43564 -0.413502 0
M  V30 2135 H 197.498 3.92183 1.54176 0
M  V30 2136 H 196.173 2.73987 1.72374 0
M  V30 2137 H 195.08 3.72215 -0.375101 0
M  V30 2138 H 196.413 4.89913 -0.473924 0
M  V30 2139 N 198.065 0.39524 1.52563 0
M  V30 2140 C 198.998 -0.4813 2.23067 0
M  V30 2141 C 199.976 -1.05927 1.23362 0
M  V30 2142 O 201.16 -1.10979 1.52368 0
M  V30 2143 C 198.287 -1.66676 2.9485 0
M  V30 2144 C 197.333 -1.21348 4.08873 0
M  V30 2145 S 198.166 -0.190102 5.35162 0
M  V30 2146 C 199.322 -1.38121 6.1047 0
M  V30 2147 H 199.555 0.117381 2.97068 0
M  V30 2148 H 197.088 0.179458 1.53354 0
M  V30 2149 H 199.046 -2.3466 3.36816 0
M  V30 2150 H 197.707 -2.23676 2.20518 0
M  V30 2151 H 196.9 -2.09877 4.58222 0
M  V30 2152 H 196.502 -0.612486 3.68951 0
M  V30 2153 H 198.794 -2.30726 6.37002 0
M  V30 2154 H 199.737 -0.928521 7.01986 0
M  V30 2155 H 200.145 -1.60071 5.41329 0
M  V30 2156 N 199.544 -1.57102 0.125237 0
M  V30 2157 C 200.821 -1.86953 -0.575142 0
M  V30 2158 C 201.201 -1.02749 -1.84407 0
M  V30 2159 O 200.549 -0.108144 -2.28244 0
M  V30 2160 C 200.759 -3.38198 -0.861583 0
M  V30 2161 C 202.107 -4.06937 -1.21192 0
M  V30 2162 O 203.131 -3.43252 -0.951645 0
M  V30 2163 O 201.99 -5.19364 -1.70068 0
M  V30 2164 H 199.084 -0.774147 -0.290906 0
M  V30 2165 H 201.63 -1.68942 0.160211 0
M  V30 2166 H 200.402 -3.91282 0.0373647 0
M  V30 2167 H 200.025 -3.61661 -1.65188 0
M  V30 2168 N 201.022 0.148545 -1.56898 0
M  V30 2169 C 201.972 1.1886 -1.94567 0
M  V30 2170 C 202.956 1.3863 -0.816735 0
M  V30 2171 O 204.148 1.40218 -1.08018 0
M  V30 2172 C 201.277 2.52262 -2.32849 0
M  V30 2173 C 200.363 2.36092 -3.52309 0
M  V30 2174 N 200.754 1.89674 -4.6889 0
M  V30 2175 C 199.052 2.66848 -3.57363 0
M  V30 2176 C 199.753 1.86511 -5.50989 0
M  V30 2177 N 198.729 2.29766 -4.92655 0
M  V30 2178 H 202.531 0.821793 -2.82177 0
M  V30 2179 H 200.045 0.356615 -1.58436 0
M  V30 2180 H 202.042 3.27447 -2.58039 0
M  V30 2181 H 200.702 2.89727 -1.46589 0
M  V30 2182 H 201.713 1.59663 -4.92674 0
M  V30 2183 H 198.39 3.08198 -2.81639 0
M  V30 2184 H 199.78 1.52128 -6.54452 0
M  V30 2185 N 202.5 1.5196 0.417844 0
M  V30 2186 C 203.43 1.77634 1.51554 0
M  V30 2187 C 204.411 0.626918 1.58126 0
M  V30 2188 O 205.596 0.871632 1.7354 0
M  V30 2189 C 202.726 1.91911 2.8946 0
M  V30 2190 C 201.68 3.07463 2.97743 0
M  V30 2191 C 201.006 3.06951 4.37819 0
M  V30 2192 C 202.306 4.47082 2.70027 0
M  V30 2193 H 204 2.6955 1.3032 0
M  V30 2194 H 201.546 1.29706 0.625492 0
M  V30 2195 H 203.499 2.08455 3.6623 0
M  V30 2196 H 202.223 0.966598 3.11969 0
M  V30 2197 H 200.882 2.90656 2.23416 0
M  V30 2198 H 200.53 2.09438 4.57323 0
M  V30 2199 H 200.23 3.84556 4.44286 0
M  V30 2200 H 201.754 3.25613 5.16535 0
M  V30 2201 H 203.168 4.6414 3.36522 0
M  V30 2202 H 201.565 5.2654 2.87881 0
M  V30 2203 H 202.635 4.55777 1.65514 0
M  V30 2204 N 203.978 -0.674533 1.42435 0
M  V30 2205 C 205.224 -1.43671 1.43131 0
M  V30 2206 C 205.557 -1.94142 0.0476021 0
M  V30 2207 O 204.832 -1.70924 -0.928188 0
M  V30 2208 C 205.115 -2.63355 2.45594 0
M  V30 2209 C 204.968 -2.18514 3.93156 0
M  V30 2210 C 206.287 -3.65571 2.45043 0
M  V30 2211 H 203.406 -0.521077 0.521198 0
M  V30 2212 H 206.048 -0.766551 1.7385 0
M  V30 2213 H 204.198 -3.2053 2.19528 0
M  V30 2214 H 205.87 -1.66504 4.30202 0
M  V30 2215 H 204.113 -1.50086 4.07009 0
M  V30 2216 H 204.784 -3.04484 4.60428 0
M  V30 2217 H 207.26 -3.18113 2.68223 0
M  V30 2218 H 206.136 -4.46893 3.18713 0
M  V30 2219 H 206.397 -4.16716 1.47649 0
M  V30 2220 N 205.456 -1.28612 -0.910864 0
M  V30 2221 C 206.704 -1.15705 -1.65701 0
M  V30 2222 C 207.025 0.29416 -1.92769 0
M  V30 2223 O 206.295 1.20331 -1.54588 0
M  V30 2224 H 204.875 -0.425216 -0.614167 0
M  V30 2225 H 207.537 -1.61381 -1.0928 0
M  V30 2226 H 206.633 -1.6988 -2.61815 0
M  V30 2227 N 206.934 1.1197 -1.10907 0
M  V30 2228 C 207.881 2.17846 -0.762345 0
M  V30 2229 C 208.851 1.63995 0.263599 0
M  V30 2230 O 210.036 1.90273 0.141773 0
M  V30 2231 C 207.176 3.44487 -0.205651 0
M  V30 2232 C 206.289 4.12369 -1.28748 0
M  V30 2233 C 205.424 5.26674 -0.691919 0
M  V30 2234 C 204.463 5.86431 -1.75399 0
M  V30 2235 N 203.6 6.92142 -1.17833 0
M  V30 2236 H 208.44 2.46851 -1.6694 0
M  V30 2237 H 205.977 1.21188 -0.833776 0
M  V30 2238 H 207.935 4.16981 0.135037 0
M  V30 2239 H 206.565 3.15884 0.664613 0
M  V30 2240 H 205.617 3.38003 -1.74522 0
M  V30 2241 H 206.929 4.52844 -2.09125 0
M  V30 2242 H 206.083 6.05953 -0.300963 0
M  V30 2243 H 204.822 4.8749 0.143232 0
M  V30 2244 H 203.827 5.05835 -2.15432 0
M  V30 2245 H 205.052 6.27685 -2.59208 0
M  V30 2246 H 202.998 6.54985 -0.364725 0
M  V30 2247 H 202.915 7.31242 -1.91887 0
M  V30 2248 H 204.183 7.75237 -0.81408 0
M  V30 2249 N 208.412 0.89855 1.29475 0
M  V30 2250 C 209.342 0.39201 2.30186 0
M  V30 2251 C 210.323 -0.532359 1.61555 0
M  V30 2252 O 211.508 -0.443331 1.89072 0
M  V30 2253 C 208.638 -0.382353 3.45189 0
M  V30 2254 C 207.592 0.451483 4.25612 0
M  V30 2255 C 206.918 -0.450307 5.328 0
M  V30 2256 C 208.218 1.70079 4.93832 0
M  V30 2257 H 209.912 1.23362 2.72804 0
M  V30 2258 H 207.458 0.594638 1.31149 0
M  V30 2259 H 209.411 -0.747451 4.14718 0
M  V30 2260 H 208.135 -1.25774 3.01411 0
M  V30 2261 H 206.794 0.798897 3.57789 0
M  V30 2262 H 206.442 -1.32379 4.85268 0
M  V30 2263 H 206.142 0.103902 5.87508 0
M  V30 2264 H 207.666 -0.811623 6.05182 0
M  V30 2265 H 209.08 1.40549 5.55805 0
M  V30 2266 H 207.477 2.19623 5.58467 0
M  V30 2267 H 208.547 2.43744 4.19186 0
M  V30 2268 N 209.89 -1.43072 0.660911 0
M  V30 2269 C 211.137 -2.01721 0.177445 0
M  V30 2270 C 211.465 -1.5218 -1.21126 0
M  V30 2271 O 210.72 -0.708659 -1.82419 0
M  V30 2272 C 211.019 -3.57103 0.145563 0
M  V30 2273 C 210.685 -4.26021 1.47705 0
M  V30 2274 C 209.347 -4.44563 1.84165 0
M  V30 2275 C 211.699 -4.64983 2.35458 0
M  V30 2276 C 209.027 -4.99334 3.0803 0
M  V30 2277 C 211.379 -5.21127 3.58622 0
M  V30 2278 C 210.043 -5.37884 3.95268 0
M  V30 2279 H 209.313 -0.73815 0.0649317 0
M  V30 2280 H 211.96 -1.71446 0.853144 0
M  V30 2281 H 210.265 -3.86965 -0.61361 0
M  V30 2282 H 211.962 -4.00248 -0.2455 0
M  V30 2283 H 208.552 -4.11939 1.18339 0
M  V30 2284 H 212.736 -4.50343 2.08579 0
M  V30 2285 H 207.992 -5.10493 3.36462 0
M  V30 2286 H 212.166 -5.50262 4.26831 0
M  V30 2287 H 209.793 -5.80089 4.91325 0
M  V30 2288 N 211.368 -0.403325 -1.52352 0
M  V30 2289 C 212.301 0.469463 -2.23319 0
M  V30 2290 C 213.279 1.05272 -1.23922 0
M  V30 2291 O 214.463 1.10169 -1.52954 0
M  V30 2292 C 211.59 1.6511 -2.9573 0
M  V30 2293 C 210.636 1.19178 -4.0951 0
M  V30 2294 S 211.469 0.161718 -5.35256 0
M  V30 2295 C 212.625 1.34882 -6.11194 0
M  V30 2296 H 212.858 -0.133134 -2.97002 0
M  V30 2297 H 210.391 -0.187588 -1.53256 0
M  V30 2298 H 212.349 2.3287 -3.38056 0
M  V30 2299 H 211.01 2.22503 -2.21701 0
M  V30 2300 H 210.203 2.07444 -4.59329 0
M  V30 2301 H 209.805 0.592911 -3.6927 0
M  V30 2302 H 212.097 2.27345 -6.38217 0
M  V30 2303 H 213.04 0.89128 -7.02468 0
M  V30 2304 H 213.448 1.57198 -5.42171 0
M  V30 2305 N 212.846 1.57033 -0.133567 0
M  V30 2306 C 214.123 1.87256 0.56522 0
M  V30 2307 C 214.503 1.03726 1.83859 0
M  V30 2308 O 213.851 0.120247 2.28183 0
M  V30 2309 C 214.061 3.3865 0.843636 0
M  V30 2310 C 215.409 4.07574 1.19032 0
M  V30 2311 O 216.433 3.43752 0.933429 0
M  V30 2312 O 215.292 5.20259 1.67312 0
M  V30 2313 H 212.386 0.775678 0.286796 0
M  V30 2314 H 214.932 1.68855 -0.169168 0
M  V30 2315 H 213.704 3.91257 -0.0581149 0
M  V30 2316 H 213.327 3.62532 1.63268 0
M  V30 2317 N 214.325 -0.140222 1.56975 0
M  V30 2318 C 215.555 -0.865181 1.87612 0
M  V30 2319 C 215.963 -1.74942 0.72055 0
M  V30 2320 O 215.306 -1.80917 -0.318561 0
M  V30 2321 C 215.368 -1.76782 3.13031 0
M  V30 2322 C 215.032 -1.06005 4.44536 0
M  V30 2323 C 216.029 -0.410768 5.18275 0
M  V30 2324 C 213.714 -1.04754 4.91255 0
M  V30 2325 C 215.708 0.241572 6.36942 0
M  V30 2326 C 213.395 -0.391394 6.09845 0
M  V30 2327 C 214.393 0.252029 6.82535 0
M  V30 2328 O 214.081 0.897757 7.98871 0
M  V30 2329 H 213.813 -0.255188 0.625983 0
M  V30 2330 H 216.367 -0.135653 2.04952 0
M  V30 2331 H 214.597 -2.53846 2.91718 0
M  V30 2332 H 216.286 -2.36533 3.29859 0
M  V30 2333 H 217.052 -0.412195 4.83245 0
M  V30 2334 H 212.931 -1.53777 4.34596 0
M  V30 2335 H 216.475 0.744375 6.93617 0
M  V30 2336 H 212.372 -0.387656 6.44335 0
M  V30 2337 H 213.14 0.800102 8.1458 0
M  V30 2338 N 215.803 -1.52179 -0.40978 0
M  V30 2339 C 216.733 -1.78435 -1.5061 0
M  V30 2340 C 217.714 -0.635295 -1.57791 0
M  V30 2341 O 218.899 -0.880823 -1.73076 0
M  V30 2342 C 216.029 -1.93444 -2.88439 0
M  V30 2343 C 214.983 -3.09038 -2.96108 0
M  V30 2344 C 214.309 -3.09268 -4.36185 0
M  V30 2345 C 215.609 -4.48508 -2.67652 0
M  V30 2346 H 217.303 -2.70237 -1.28889 0
M  V30 2347 H 214.849 -1.30036 -0.618605 0
M  V30 2348 H 216.802 -2.10394 -3.65119 0
M  V30 2349 H 215.526 -0.983129 -3.11452 0
M  V30 2350 H 214.185 -2.91837 -2.21872 0
M  V30 2351 H 213.833 -2.11861 -4.56206 0
M  V30 2352 H 213.533 -3.86907 -4.42241 0
M  V30 2353 H 215.057 -3.28348 -5.14801 0
M  V30 2354 H 216.471 -4.65918 -3.34056 0
M  V30 2355 H 214.868 -5.28059 -2.85085 0
M  V30 2356 H 215.938 -4.56649 -1.63095 0
M  V30 2357 N 217.281 0.66697 -1.42791 0
M  V30 2358 C 218.506 1.46004 -1.47301 0
M  V30 2359 C 218.931 1.87894 -0.0880317 0
M  V30 2360 O 218.289 1.56502 0.915253 0
M  V30 2361 C 218.337 2.68031 -2.41229 0
M  V30 2362 O 217.441 3.6659 -1.88906 0
M  V30 2363 H 216.782 0.43832 -0.49877 0
M  V30 2364 H 219.312 0.817391 -1.87563 0
M  V30 2365 H 219.322 3.1601 -2.58073 0
M  V30 2366 H 217.997 2.36883 -3.41847 0
M  V30 2367 H 216.574 3.25661 -1.81656 0
M  V30 2368 N 218.759 1.29093 0.90403 0
M  V30 2369 C 220.17 1.15186 1.46932 0
M  V30 2370 C 220.521 -0.254587 1.94541 0
M  V30 2371 O 219.646 -1.14972 1.83332 0
M  V30 2372 C 220.241 2.08492 2.67051 0
M  V30 2373 C 218.8 1.98621 3.19729 0
M  V30 2374 C 217.947 1.9967 1.92425 0
M  V30 2375 H 220.898 1.41641 0.715789 0
M  V30 2376 H 220.919 1.65461 3.42641 0
M  V30 2377 H 220.431 3.10847 2.3237 0
M  V30 2378 H 218.532 0.993389 3.59114 0
M  V30 2379 H 218.645 2.86068 3.8432 0
M  V30 2380 H 217.009 1.44208 2.09943 0
M  V30 2381 H 217.792 3.03721 1.60026 0
M  V30 2382 N 220.237 -1.11381 1.11499 0
M  V30 2383 C 221.167 -2.19509 0.796125 0
M  V30 2384 C 222.148 -1.68458 -0.235796 0
M  V30 2385 O 223.333 -1.93947 -0.0991344 0
M  V30 2386 C 220.463 -3.46475 0.239205 0
M  V30 2387 C 219.417 -4.10744 1.20307 0
M  V30 2388 C 218.743 -5.32293 0.50683 0
M  V30 2389 C 220.043 -4.55597 2.55399 0
M  V30 2390 H 221.737 -2.46439 1.70024 0
M  V30 2391 H 219.283 -1.18446 0.818935 0
M  V30 2392 H 221.236 -4.214 0.00392006 0
M  V30 2393 H 219.96 -3.19006 -0.700206 0
M  V30 2394 H 218.619 -3.37813 1.42399 0
M  V30 2395 H 218.267 -5.01095 -0.437408 0
M  V30 2396 H 217.967 -5.76243 1.1497 0
M  V30 2397 H 219.491 -6.09956 0.280351 0
M  V30 2398 H 220.905 -5.21841 2.37391 0
M  V30 2399 H 219.302 -5.10363 3.15673 0
M  V30 2400 H 220.372 -3.69013 3.14575 0
M  V30 2401 N 221.715 -0.905404 -1.28997 0
M  V30 2402 C 222.662 -0.385892 -2.27551 0
M  V30 2403 C 223.632 0.535113 -1.57244 0
M  V30 2404 O 224.817 0.459119 -1.85194 0
M  V30 2405 C 221.957 0.375461 -3.43051 0
M  V30 2406 C 221.07 -0.577092 -4.28128 0
M  V30 2407 C 220.205 0.201879 -5.30816 0
M  V30 2408 C 219.244 -0.744829 -6.07551 0
M  V30 2409 N 218.381 9.42587e-05 -7.021 0
M  V30 2410 H 223.221 -1.23139 -2.71368 0
M  V30 2411 H 220.758 -0.618542 -1.33463 0
M  V30 2412 H 222.716 0.832992 -4.088 0
M  V30 2413 H 221.346 1.18537 -3.00248 0
M  V30 2414 H 220.398 -1.15315 -3.62501 0
M  V30 2415 H 221.71 -1.30152 -4.8152 0
M  V30 2416 H 220.864 0.720351 -6.02408 0
M  V30 2417 H 219.603 0.959413 -4.7817 0
M  V30 2418 H 218.608 -1.27475 -5.34818 0
M  V30 2419 H 219.833 -1.50178 -6.62286 0
M  V30 2420 H 217.779 0.739791 -6.51815 0
M  V30 2421 H 217.696 -0.664321 -7.53076 0
M  V30 2422 H 218.964 0.498644 -7.77903 0
M  V30 2423 N 223.193 1.4272 -0.668489 0
M  V30 2424 C 224.125 2.2914 0.052613 0
M  V30 2425 C 225.138 1.43339 0.771857 0
M  V30 2426 O 226.327 1.67123 0.627067 0
M  V30 2427 C 223.427 3.20618 1.09804 0
M  V30 2428 C 222.6 4.35039 0.45389 0
M  V30 2429 C 221.659 5.07282 1.39825 0
M  V30 2430 O 220.685 5.62024 0.900978 0
M  V30 2431 N 221.887 5.12206 2.73176 0
M  V30 2432 H 224.652 2.91668 -0.689209 0
M  V30 2433 H 222.213 1.53577 -0.512422 0
M  V30 2434 H 224.205 3.65815 1.73094 0
M  V30 2435 H 222.775 2.59585 1.74167 0
M  V30 2436 H 221.995 3.92567 -0.358396 0
M  V30 2437 H 223.283 5.088 0.00486972 0
M  V30 2438 H 222.681 4.6913 3.16122 0
M  V30 2439 H 221.238 5.61069 3.31729 0
M  V30 2440 N 224.671 0.411399 1.52136 0
M  V30 2441 C 225.603 -0.448386 2.24771 0
M  V30 2442 C 226.616 -1.00828 1.27818 0
M  V30 2443 O 227.805 -0.906841 1.53749 0
M  V30 2444 C 224.905 -1.63636 2.96777 0
M  V30 2445 C 224.078 -1.19995 4.20618 0
M  V30 2446 C 223.137 -2.25509 4.75428 0
M  V30 2447 O 222.163 -1.86007 5.3795 0
M  V30 2448 N 223.365 -3.577 4.57199 0
M  V30 2449 H 226.13 0.174025 2.99194 0
M  V30 2450 H 223.691 0.238897 1.60128 0
M  V30 2451 H 225.683 -2.33793 3.30338 0
M  V30 2452 H 224.253 -2.16465 2.25526 0
M  V30 2453 H 223.473 -0.326421 3.92846 0
M  V30 2454 H 224.761 -0.885365 5.01038 0
M  V30 2455 H 224.159 -3.92543 4.07341 0
M  V30 2456 H 222.716 -4.23827 4.95191 0
M  V30 2457 N 226.149 -1.5696 0.141893 0
M  V30 2458 C 227.565 -1.58151 -0.21456 0
M  V30 2459 C 227.765 -1.1559 -1.65049 0
M  V30 2460 O 226.821 -0.853832 -2.37626 0
M  V30 2461 C 228.134 -3.00674 0.0395576 0
M  V30 2462 C 229.682 -3.1299 -0.0245529 0
M  V30 2463 C 230.157 -4.57554 0.202167 0
M  V30 2464 N 231.648 -4.62961 0.148919 0
M  V30 2465 C 232.383 -5.7262 0.298924 0
M  V30 2466 N 231.879 -6.90947 0.50637 0
M  V30 2467 N 233.672 -5.61601 0.236886 0
M  V30 2468 H 225.823 -1.8292 1.07953 0
M  V30 2469 H 228.086 -0.846425 0.42693 0
M  V30 2470 H 227.792 -3.36183 1.03315 0
M  V30 2471 H 227.666 -3.70981 -0.682143 0
M  V30 2472 H 230.053 -2.77326 -1.00869 0
M  V30 2473 H 230.134 -2.4518 0.729396 0
M  V30 2474 H 229.778 -4.93922 1.18338 0
M  V30 2475 H 229.708 -5.23484 -0.572044 0
M  V30 2476 H 232.199 -3.77899 -0.00697015 0
M  V30 2477 H 232.512 -7.7038 0.611076 0
M  V30 2478 H 230.857 -6.92878 0.542628 0
M  V30 2479 H 234.048 -4.68039 0.0756209 0
M  V30 2480 H 234.221 -6.47015 0.357227 0
M  V30 2481 N 227.627 0.131896 -1.57047 0
M  V30 2482 C 228.876 0.84044 -1.83356 0
M  V30 2483 C 229.189 1.81646 -0.725535 0
M  V30 2484 O 230.395 2.57025 -0.874659 0
M  V30 2485 C 228.851 1.54528 -3.25037 0
M  V30 2486 C 228.459 0.610902 -4.43815 0
M  V30 2487 C 230.203 2.23972 -3.60606 0
M  V30 2488 C 228.11 1.31823 -5.76521 0
M  V30 2489 H 227.04 0.317599 -0.683847 0
M  V30 2490 H 229.691 0.0931561 -1.83263 0
M  V30 2491 H 228.073 2.33873 -3.19561 0
M  V30 2492 H 229.247 -0.148407 -4.60561 0
M  V30 2493 H 227.562 0.0241016 -4.16393 0
M  V30 2494 H 230.159 2.77558 -4.57018 0
M  V30 2495 H 230.502 3.01173 -2.87403 0
M  V30 2496 H 231.035 1.51529 -3.6781 0
M  V30 2497 H 227.774 0.587771 -6.52859 0
M  V30 2498 H 227.294 2.04987 -5.63685 0
M  V30 2499 H 228.973 1.855 -6.19838 0
M  V30 2500 N 229.106 1.52395 0.401703 0
M  V30 2501 C 230.522 1.41363 0.740864 0
M  V30 2502 C 230.722 0.523982 1.94568 0
M  V30 2503 O 229.778 -0.00741204 2.52499 0
M  V30 2504 C 231.091 2.84011 0.987847 0
M  V30 2505 C 232.639 2.93404 1.09011 0
M  V30 2506 C 233.114 4.37036 1.3698 0
M  V30 2507 N 234.605 4.40304 1.43829 0
M  V30 2508 C 235.34 5.48508 1.67112 0
M  V30 2509 N 234.836 6.66819 1.87949 0
M  V30 2510 N 236.629 5.36034 1.69187 0
M  V30 2511 H 228.78 2.08765 -0.391262 0
M  V30 2512 H 231.043 0.941265 -0.112798 0
M  V30 2513 H 230.749 3.51265 0.174835 0
M  V30 2514 H 230.623 3.25502 1.906 0
M  V30 2515 H 233.01 2.26325 1.8937 0
M  V30 2516 H 233.091 2.55359 0.15015 0
M  V30 2517 H 232.735 5.04676 0.571353 0
M  V30 2518 H 232.665 4.72623 2.3224 0
M  V30 2519 H 235.156 3.55024 1.29486 0
M  V30 2520 H 235.469 7.45063 2.05185 0
M  V30 2521 H 233.814 6.6987 1.85199 0
M  V30 2522 H 237.005 4.42579 1.52451 0
M  V30 2523 H 237.178 6.20434 1.86993 0
M  V30 2524 N 230.584 -0.659388 1.43143 0
M  V30 2525 C 231.516 -1.7849 1.43784 0
M  V30 2526 C 232.529 -1.5932 0.334787 0
M  V30 2527 O 233.718 -1.68155 0.598842 0
M  V30 2528 C 230.818 -3.15828 1.22906 0
M  V30 2529 C 229.991 -3.61711 2.45934 0
M  V30 2530 C 229.05 -4.77831 2.20371 0
M  V30 2531 O 228.076 -4.87586 2.93681 0
M  V30 2532 N 229.278 -5.67611 1.21647 0
M  V30 2533 H 232.043 -1.7842 2.40803 0
M  V30 2534 H 229.604 -0.84302 1.3822 0
M  V30 2535 H 231.596 -3.91189 1.03697 0
M  V30 2536 H 230.166 -3.10707 0.343542 0
M  V30 2537 H 229.386 -2.76861 2.80609 0
M  V30 2538 H 230.674 -3.89112 3.27825 0
M  V30 2539 H 230.072 -5.62397 0.610449 0
M  V30 2540 H 228.629 -6.42719 1.08423 0
M  V30 2541 N 232.062 -1.29571 -0.897171 0
M  V30 2542 C 233.009 -1.14916 -2.00158 0
M  V30 2543 C 233.979 -0.0418149 -1.66047 0
M  V30 2544 O 235.164 -0.209793 -1.89643 0
M  V30 2545 C 232.304 -0.834307 -3.34863 0
M  V30 2546 C 231.417 -2.02234 -3.8174 0
M  V30 2547 C 230.552 -1.64664 -5.05034 0
M  V30 2548 C 229.591 -2.80033 -5.44286 0
M  V30 2549 N 228.728 -2.42843 -6.58765 0
M  V30 2550 H 233.568 -2.09403 -2.12025 0
M  V30 2551 H 231.105 -1.042 -1.0383 0
M  V30 2552 H 233.063 -0.632436 -4.12379 0
M  V30 2553 H 231.693 0.0736656 -3.22716 0
M  V30 2554 H 230.745 -2.33583 -3.00238 0
M  V30 2555 H 232.057 -2.88673 -4.06779 0
M  V30 2556 H 231.211 -1.4078 -5.9014 0
M  V30 2557 H 229.95 -0.753766 -4.8184 0
M  V30 2558 H 228.955 -3.04596 -4.57713 0
M  V30 2559 H 230.18 -3.69989 -5.6946 0
M  V30 2560 H 228.126 -1.56046 -6.3717 0
M  V30 2561 H 228.043 -3.22815 -6.83613 0
M  V30 2562 H 229.311 -2.22285 -7.47134 0
M  V30 2563 N 233.54 1.10788 -1.12088 0
M  V30 2564 C 234.786 1.82942 -0.875226 0
M  V30 2565 C 235.119 1.84779 0.597538 0
M  V30 2566 O 234.394 1.30578 1.44152 0
M  V30 2567 C 234.677 3.29789 -1.44606 0
M  V30 2568 C 234.53 3.36307 -2.98693 0
M  V30 2569 C 235.849 4.26064 -1.10261 0
M  V30 2570 H 232.968 0.664195 -0.319397 0
M  V30 2571 H 235.61 1.29867 -1.38689 0
M  V30 2572 H 233.76 3.75118 -1.01089 0
M  V30 2573 H 235.432 2.99487 -3.50864 0
M  V30 2574 H 233.675 2.76318 -3.34411 0
M  V30 2575 H 234.346 4.39694 -3.33726 0
M  V30 2576 H 236.822 3.88951 -1.4784 0
M  V30 2577 H 235.698 5.27183 -1.52869 0
M  V30 2578 H 235.959 4.42098 -0.0142953 0
M  V30 2579 N 235.018 0.912232 1.28515 0
M  V30 2580 C 235.928 0.404506 2.31086 0
M  V30 2581 C 236.944 -0.50707 1.66448 0
M  V30 2582 O 238.12 -0.393624 1.97516 0
M  V30 2583 C 235.185 -0.348572 3.44943 0
M  V30 2584 C 234.246 0.59604 4.25142 0
M  V30 2585 C 233.479 -0.121194 5.33562 0
M  V30 2586 O 233.702 -1.34317 5.5436 0
M  V30 2587 O 232.636 0.542716 5.99448 0
M  V30 2588 H 236.462 1.25579 2.76521 0
M  V30 2589 H 234.047 0.676998 1.33181 0
M  V30 2590 H 235.929 -0.77395 4.14232 0
M  V30 2591 H 234.604 -1.17571 3.01594 0
M  V30 2592 H 233.511 1.07079 3.58448 0
M  V30 2593 H 234.844 1.38995 4.72167 0
M  V30 2594 N 236.496 -1.42363 0.676048 0
M  V30 2595 C 237.443 -2.308 -0.00150904 0
M  V30 2596 C 238.413 -1.46032 -0.791444 0
M  V30 2597 O 239.598 -1.74861 -0.76344 0
M  V30 2598 C 236.738 -3.31883 -0.945919 0
M  V30 2599 C 235.851 -4.31741 -0.149675 0
M  V30 2600 C 234.986 -5.19898 -1.08995 0
M  V30 2601 C 234.025 -6.11434 -0.285465 0
M  V30 2602 N 233.162 -6.92138 -1.17851 0
M  V30 2603 H 238.002 -2.88187 0.758455 0
M  V30 2604 H 235.539 -1.41952 0.38576 0
M  V30 2605 H 237.497 -3.89019 -1.50731 0
M  V30 2606 H 236.127 -2.76093 -1.6725 0
M  V30 2607 H 235.179 -3.76713 0.528359 0
M  V30 2608 H 236.491 -4.96534 0.474866 0
M  V30 2609 H 235.645 -5.81772 -1.72123 0
M  V30 2610 H 234.384 -4.55284 -1.74837 0
M  V30 2611 H 233.389 -5.48627 0.359018 0
M  V30 2612 H 234.614 -6.78097 0.368883 0
M  V30 2613 H 232.56 -6.30152 -1.82332 0
M  V30 2614 H 232.477 -7.53542 -0.609082 0
M  V30 2615 H 233.745 -7.58499 -1.79722 0
M  V30 2616 N 237.974 -0.419461 -1.51915 0
M  V30 2617 C 238.904 0.391813 -2.30189 0
M  V30 2618 C 239.885 1.03699 -1.34836 0
M  V30 2619 O 241.07 1.04403 -1.63748 0
M  V30 2620 C 238.2 1.50312 -3.13087 0
M  V30 2621 C 237.154 0.9824 -4.16573 0
M  V30 2622 C 236.48 2.18809 -4.8788 0
M  V30 2623 C 237.78 0.0292356 -5.22292 0
M  V30 2624 H 239.474 -0.26135 -2.98257 0
M  V30 2625 H 237.02 -0.127134 -1.43438 0
M  V30 2626 H 238.973 2.07773 -3.66617 0
M  V30 2627 H 237.697 2.18431 -2.42807 0
M  V30 2628 H 236.356 0.430119 -3.64068 0
M  V30 2629 H 236.004 2.85507 -4.14119 0
M  V30 2630 H 235.704 1.84615 -5.57845 0
M  V30 2631 H 237.228 2.76858 -5.44226 0
M  V30 2632 H 238.642 0.512976 -5.71 0
M  V30 2633 H 237.039 -0.2244 -5.9968 0
M  V30 2634 H 238.109 -0.912931 -4.76228 0
M  V30 2635 N 239.452 1.56882 -0.150215 0
M  V30 2636 C 240.729 1.87844 0.545327 0
M  V30 2637 C 241.109 1.0567 1.82749 0
M  V30 2638 O 240.457 0.144442 2.28043 0
M  V30 2639 C 240.667 3.39526 0.80767 0
M  V30 2640 C 242.015 4.08814 1.14703 0
M  V30 2641 O 243.039 3.44723 0.896917 0
M  V30 2642 O 241.898 5.22004 1.61784 0
M  V30 2643 H 238.992 0.778677 0.278553 0
M  V30 2644 H 241.538 1.68666 -0.187068 0
M  V30 2645 H 240.31 3.91173 -0.0996096 0
M  V30 2646 H 239.933 3.64243 1.59413 0
M  V30 2647 N 240.93 -0.123565 1.57115 0
M  V30 2648 C 242.346 -0.476961 1.52306 0
M  V30 2649 C 242.546 -1.82109 0.86248 0
M  V30 2650 O 241.602 -2.48586 0.442884 0
M  V30 2651 C 242.915 -0.465661 2.97073 0
M  V30 2652 C 244.463 -0.549534 3.08138 0
M  V30 2653 C 244.938 -0.568669 4.54456 0
M  V30 2654 N 246.429 -0.630237 4.58892 0
M  V30 2655 C 247.164 -0.666415 5.69514 0
M  V30 2656 N 246.66 -0.660514 6.89644 0
M  V30 2657 N 248.453 -0.709077 5.5761 0
M  V30 2658 H 240.604 0.757198 1.98445 0
M  V30 2659 H 242.867 0.278808 0.906074 0
M  V30 2660 H 242.573 0.454232 3.48754 0
M  V30 2661 H 242.447 -1.29513 3.54269 0
M  V30 2662 H 244.834 -1.45985 2.56461 0
M  V30 2663 H 244.915 0.307532 2.53945 0
M  V30 2664 H 244.559 0.337581 5.06777 0
M  V30 2665 H 244.489 -1.44256 5.06456 0
M  V30 2666 H 246.98 -0.641146 3.72421 0
M  V30 2667 H 247.293 -0.690616 7.69708 0
M  V30 2668 H 245.638 -0.628012 6.92157 0
M  V30 2669 H 248.829 -0.711019 4.62668 0
M  V30 2670 H 249.002 -0.733804 6.43832 0
M  V30 2671 N 242.408 -1.52605 -0.393616 0
M  V30 2672 C 243.338 -1.80022 -1.48709 0
M  V30 2673 C 244.319 -0.651995 -1.57108 0
M  V30 2674 O 245.504 -0.89913 -1.72132 0
M  V30 2675 C 242.634 -1.96492 -2.86371 0
M  V30 2676 C 241.588 -3.12161 -2.92813 0
M  V30 2677 C 240.914 -3.13877 -4.3288 0
M  V30 2678 C 242.214 -4.51322 -2.6288 0
M  V30 2679 H 243.908 -2.71589 -1.26015 0
M  V30 2680 H 241.454 -1.30684 -0.604778 0
M  V30 2681 H 243.407 -2.14255 -3.62867 0
M  V30 2682 H 242.131 -1.01611 -3.10391 0
M  V30 2683 H 240.79 -2.94173 -2.18764 0
M  V30 2684 H 240.438 -2.16687 -4.53933 0
M  V30 2685 H 240.138 -3.91576 -4.38112 0
M  V30 2686 H 241.662 -3.33789 -5.1129 0
M  V30 2687 H 243.076 -4.69435 -3.29096 0
M  V30 2688 H 241.473 -5.31053 -2.79468 0
M  V30 2689 H 242.543 -4.58353 -1.58242 0
M  V30 2690 N 243.887 0.651787 -1.4349 0
M  V30 2691 C 244.834 1.76462 -1.4876 0
M  V30 2692 C 245.804 1.62641 -0.337189 0
M  V30 2693 O 246.989 1.82864 -0.544544 0
M  V30 2694 C 244.129 3.14623 -1.41796 0
M  V30 2695 C 243.242 3.39568 -2.67053 0
M  V30 2696 C 242.377 4.67585 -2.52068 0
M  V30 2697 C 241.416 4.85639 -3.72587 0
M  V30 2698 N 240.553 6.04915 -3.56402 0
M  V30 2699 H 245.393 1.71293 -2.43849 0
M  V30 2700 H 242.93 0.835889 -1.21043 0
M  V30 2701 H 244.888 3.94496 -1.35753 0
M  V30 2702 H 243.518 3.18859 -0.50288 0
M  V30 2703 H 242.57 2.53783 -2.8337 0
M  V30 2704 H 243.882 3.48795 -3.56572 0
M  V30 2705 H 243.036 5.55586 -2.4374 0
M  V30 2706 H 241.775 4.60681 -1.60075 0
M  V30 2707 H 240.78 3.96073 -3.81321 0
M  V30 2708 H 242.005 4.94372 -4.65589 0
M  V30 2709 H 239.951 5.9914 -2.67146 0
M  V30 2710 H 239.868 6.15106 -4.39524 0
M  V30 2711 H 241.136 6.95533 -3.51929 0
M  V30 2712 N 245.365 1.30045 0.890287 0
M  V30 2713 C 246.328 1.15963 1.977 0
M  V30 2714 C 247.328 0.0923777 1.60534 0
M  V30 2715 O 248.518 0.340071 1.70848 0
M  V30 2716 C 245.65 0.775451 3.31963 0
M  V30 2717 H 246.843 2.12502 2.11619 0
M  V30 2718 H 244.396 1.13366 1.07601 0
M  V30 2719 H 245.131 -0.189671 3.23745 0
M  V30 2720 H 244.916 1.54668 3.60306 0
M  V30 2721 H 246.406 0.700251 4.11687 0
M  V30 2722 N 246.843 -1.10192 1.12674 0
M  V30 2723 C 248.259 -1.34235 0.863317 0
M  V30 2724 C 248.459 -1.95062 -0.505277 0
M  V30 2725 O 247.515 -2.19192 -1.25345 0
M  V30 2726 C 248.828 -2.2616 1.98172 0
M  V30 2727 C 250.376 -2.3969 2.0129 0
M  V30 2728 C 250.851 -3.34946 3.1237 0
M  V30 2729 N 252.342 -3.42515 3.11829 0
M  V30 2730 C 253.077 -4.16199 3.94419 0
M  V30 2731 N 252.573 -4.92747 4.87004 0
M  V30 2732 N 254.366 -4.11843 3.82547 0
M  V30 2733 H 246.517 -0.690798 2.00853 0
M  V30 2734 H 248.78 -0.366774 0.874174 0
M  V30 2735 H 248.486 -1.8868 2.96804 0
M  V30 2736 H 248.36 -3.26488 1.88906 0
M  V30 2737 H 250.747 -2.76438 1.03276 0
M  V30 2738 H 250.828 -1.39169 2.14629 0
M  V30 2739 H 250.472 -2.98923 4.10619 0
M  V30 2740 H 250.402 -4.35353 2.96269 0
M  V30 2741 H 252.893 -2.87926 2.44759 0
M  V30 2742 H 253.206 -5.46376 5.46528 0
M  V30 2743 H 251.551 -4.91862 4.91016 0
M  V30 2744 H 254.742 -3.51136 3.0955 0
M  V30 2745 H 254.915 -4.69007 4.47142 0
M  V30 2746 N 248.321 -0.919034 -1.28029 0
M  V30 2747 C 249.284 -0.416182 -2.2539 0
M  V30 2748 C 250.284 0.460438 -1.54067 0
M  V30 2749 O 251.474 0.262744 -1.72207 0
M  V30 2750 C 248.606 0.402707 -3.38513 0
M  V30 2751 H 249.799 -1.27629 -2.71387 0
M  V30 2752 H 247.352 -0.698919 -1.39803 0
M  V30 2753 H 248.087 1.282 -2.97885 0
M  V30 2754 H 247.872 -0.225698 -3.9145 0
M  V30 2755 H 249.362 0.745191 -4.10897 0
M  V30 2756 O 249.838 1.38984 -0.822545 0
M  V30 2757 H 250.529 1.89429 -0.404525 0
M  V30 END ATOM
M  V30 BEGIN BOND
M  V30 END BOND
M  V30 END CTAB
M  END
$$$$
