drugbank_target|P0A6L6 N-acetylneuraminate lyase (DB02951)
 OpenBabel12092119573D

  0  0  0     0  0            999 V3000
M  V30 BEGIN CTAB
M  V30 COUNTS 4607 4647 0 0 0
M  V30 BEGIN ATOM
M  V30 1 H -0.908 1.98254 -0.117106 0
M  V30 2 N 0 1.576 0 0
M  V30 3 C 0.933 2.03868 1.02534 0
M  V30 4 C 1.911 0.928543 1.3348 0
M  V30 5 O 3.095 1.19667 1.45644 0
M  V30 6 C 0.222 2.43627 2.35294 0
M  V30 7 C -0.732 3.65373 2.2001 0
M  V30 8 S 0.101 5.13292 1.52614 0
M  V30 9 C 1.257 5.56322 2.86805 0
M  V30 10 H 1.49 2.90518 0.631377 0
M  V30 11 H -0.977 1.52953 0.210867 0
M  V30 12 H 0.981 2.67203 3.11629 0
M  V30 13 H -0.358 1.57376 2.7183 0
M  V30 14 H -1.165 3.90944 3.18086 0
M  V30 15 H -1.563 3.418 1.51819 0
M  V30 16 H 0.729 5.58782 3.83104 0
M  V30 17 H 1.672 6.56266 2.65933 0
M  V30 18 H 2.08 4.83886 2.90714 0
M  V30 19 N 1.4781 -0.272755 1.55222 0
M  V30 20 C 2.4411 -1.32041 1.87344 0
M  V30 21 C 3.4411 -1.42342 0.74803 0
M  V30 22 O 4.6311 -1.41488 1.0162 0
M  V30 23 C 1.7631 -2.70173 2.07893 0
M  V30 24 H 2.9561 -1.04789 2.80997 0
M  V30 25 H 0.5091 -0.51083 1.47717 0
M  V30 26 H 1.2441 -3.02605 1.16622 0
M  V30 27 H 1.0291 -2.64082 2.89833 0
M  V30 28 H 2.5191 -3.45869 2.34017 0
M  V30 29 N 2.9562 -1.48159 -0.537278 0
M  V30 30 C 4.1842 -1.59454 -1.31841 0
M  V30 31 C 4.5992 -0.252065 -1.8711 0
M  V30 32 O 3.9562 0.757621 -1.66031 0
M  V30 33 C 4.0072 -2.63546 -2.47439 0
M  V30 34 O 3.7282 -3.92583 -1.94449 0
M  V30 35 C 5.2292 -2.85212 -3.39366 0
M  V30 36 H 2.4492 -0.53785 -0.401196 0
M  V30 37 H 4.9932 -1.93932 -0.648891 0
M  V30 38 H 3.1482 -2.31946 -3.1029 0
M  V30 39 H 3.5622 -4.49629 -2.70063 0
M  V30 40 H 5.0362 -3.61863 -4.16844 0
M  V30 41 H 5.5132 -1.93765 -3.94147 0
M  V30 42 H 6.1192 -3.18086 -2.82314 0
M  V30 43 N 4.4343 0.785586 -1.36625 0
M  V30 44 C 5.3823 1.91978 -1.31329 0
M  V30 45 C 6.3763 1.68162 -0.204416 0
M  V30 46 O 7.5823 1.76122 -0.371645 0
M  V30 47 H 3.9573 0.631087 -0.408942 0
M  V30 48 H 5.9283 1.93562 -2.27104 0
M  V30 49 C 4.6773 3.29055 -1.12329 0
M  V30 50 H 4.0003 3.4795 -1.96903 0
M  V30 51 H 5.4403 4.08756 -1.12671 0
M  V30 52 C 3.8993 3.36461 0.171861 0
M  V30 53 O 4.4293 3.84576 1.16035 0
M  V30 54 N 2.6353 2.89782 0.217846 0
M  V30 55 H 2.1823 2.50819 -0.587183 0
M  V30 56 H 2.1403 2.95119 1.08408 0
M  V30 57 N 5.9124 1.20967 1.01018 0
M  V30 58 C 6.8424 0.988272 2.11555 0
M  V30 59 C 7.8234 -0.0849778 1.69888 0
M  V30 60 O 9.0084 0.0738202 1.9406 0
M  V30 61 C 6.1384 0.546528 3.42973 0
M  V30 62 C 5.0924 1.56375 3.9841 0
M  V30 63 C 4.4184 0.97842 5.25672 0
M  V30 64 C 5.7184 2.94922 4.31066 0
M  V30 65 H 7.4124 1.91276 2.30334 0
M  V30 66 H 4.9584 0.921073 1.1069 0
M  V30 67 H 6.9114 0.378839 4.19694 0
M  V30 68 H 5.6354 -0.413598 3.23971 0
M  V30 69 H 4.2944 1.71891 3.23804 0
M  V30 70 H 3.9424 0.0101688 5.02999 0
M  V30 71 H 3.6424 1.65784 5.63728 0
M  V30 72 H 5.1664 0.821939 6.05043 0
M  V30 73 H 6.5804 2.8288 4.9865 0
M  V30 74 H 4.9774 3.5983 4.80253 0
M  V30 75 H 6.0474 3.4616 3.39561 0
M  V30 76 N 7.3905 -1.2043 1.01659 0
M  V30 77 C 8.8065 -1.41852 0.731442 0
M  V30 78 C 9.0065 -1.89358 -0.688898 0
M  V30 79 O 8.0625 -2.06247 -1.45666 0
M  V30 80 C 9.3755 -2.44019 1.75714 0
M  V30 81 C 10.9235 -2.57785 1.77527 0
M  V30 82 C 11.3985 -3.63194 2.79023 0
M  V30 83 N 12.8895 -3.70678 2.77763 0
M  V30 84 C 13.6245 -4.51897 3.52954 0
M  V30 85 N 13.1205 -5.36921 4.37821 0
M  V30 86 N 14.9135 -4.4643 3.41551 0
M  V30 87 H 7.0645 -0.879093 1.93354 0
M  V30 88 H 9.3275 -0.448425 0.835236 0
M  V30 89 H 9.0335 -2.1611 2.77469 0
M  V30 90 H 8.9075 -3.43007 1.56927 0
M  V30 91 H 11.2945 -2.85023 0.764569 0
M  V30 92 H 11.3755 -1.58992 2.00387 0
M  V30 93 H 11.0195 -3.36699 3.80258 0
M  V30 94 H 10.9495 -4.61609 2.53425 0
M  V30 95 H 13.4405 -3.09944 2.16201 0
M  V30 96 H 13.7535 -5.95981 4.91962 0
M  V30 97 H 12.0985 -5.36424 4.41899 0
M  V30 98 H 15.2895 -3.79042 2.74672 0
M  V30 99 H 15.4625 -5.09491 4.00404 0
M  V30 100 N 8.8686 -0.792821 -1.36206 0
M  V30 101 C 10.1166 -0.366062 -1.98757 0
M  V30 102 C 10.4376 1.0668 -1.63231 0
M  V30 103 O 9.7076 1.73587 -0.907978 0
M  V30 104 H 8.2876 -0.132364 -0.735179 0
M  V30 105 H 10.9496 -1.01562 -1.66347 0
M  V30 106 H 10.0456 -0.460638 -3.08682 0
M  V30 107 N 10.3467 1.47872 -0.545128 0
M  V30 108 C 11.5927 2.02793 -0.0166104 0
M  V30 109 C 11.9257 1.41987 1.32489 0
M  V30 110 O 11.2007 0.571045 1.85928 0
M  V30 111 C 11.4837 3.59989 0.0893294 0
M  V30 112 C 11.3367 4.3125 -1.27841 0
M  V30 113 C 12.6557 4.32606 0.808724 0
M  V30 114 H 9.7747 0.736962 -0.00751035 0
M  V30 115 H 12.4167 1.76433 -0.705085 0
M  V30 116 H 10.5667 3.82579 0.675681 0
M  V30 117 H 12.2387 4.20035 -1.90704 0
M  V30 118 H 10.4817 3.92076 -1.85632 0
M  V30 119 H 11.1527 5.39736 -1.15713 0
M  V30 120 H 13.6287 4.14936 0.310992 0
M  V30 121 H 12.5047 5.42251 0.851782 0
M  V30 122 H 12.7657 4.00963 1.86229 0
M  V30 123 N 11.8248 0.280983 1.55075 0
M  V30 124 C 12.7578 -0.645439 2.18882 0
M  V30 125 C 13.7358 -1.14786 1.15165 0
M  V30 126 O 14.9198 -1.21975 1.43716 0
M  V30 127 C 12.0468 -1.88088 2.81674 0
M  V30 128 C 11.0928 -1.51343 3.98745 0
M  V30 129 S 11.9258 -0.586548 5.32278 0
M  V30 130 C 13.0818 -1.83024 5.98543 0
M  V30 131 H 13.3148 -0.1033 2.9712 0
M  V30 132 H 10.8478 0.0652099 1.54262 0
M  V30 133 H 12.8058 -2.58997 3.18482 0
M  V30 134 H 11.4668 -2.39417 2.03318 0
M  V30 135 H 10.6598 -2.43289 4.41392 0
M  V30 136 H 10.2618 -0.884477 3.63391 0
M  V30 137 H 12.5538 -2.77342 6.18133 0
M  V30 138 H 13.4968 -1.44668 6.93164 0
M  V30 139 H 13.9048 -1.99785 5.27964 0
M  V30 140 N 13.3029 -1.57598 0.00835791 0
M  V30 141 C 14.2659 -2.07884 -0.965242 0
M  V30 142 C 15.2659 -0.989825 -1.26725 0
M  V30 143 O 16.4559 -1.25218 -1.21104 0
M  V30 144 C 13.5879 -2.52731 -2.28779 0
M  V30 145 H 14.7809 -2.95178 -0.530112 0
M  V30 146 H 12.3339 -1.54458 -0.239283 0
M  V30 147 H 13.0689 -1.68705 -2.76964 0
M  V30 148 H 12.8539 -3.32272 -2.08177 0
M  V30 149 H 14.3439 -2.91933 -2.98605 0
M  V30 150 N 14.781 0.264519 -1.55364 0
M  V30 151 C 15.744 1.31046 -1.88042 0
M  V30 152 C 16.744 1.41943 -0.755569 0
M  V30 153 O 17.934 1.40947 -1.02369 0
M  V30 154 C 15.066 2.69067 -2.09323 0
M  V30 155 H 16.259 1.03297 -2.81549 0
M  V30 156 H 13.812 0.502989 -1.47986 0
M  V30 157 H 14.547 3.01982 -1.18226 0
M  V30 158 H 14.332 2.62542 -2.91229 0
M  V30 159 H 15.822 3.44623 -2.35848 0
M  V30 160 N 16.2591 1.48442 0.529413 0
M  V30 161 C 17.1891 1.65902 1.64313 0
M  V30 162 C 18.1701 0.507897 1.6234 0
M  V30 163 O 19.3551 0.740503 1.79528 0
M  V30 164 C 16.4851 1.69911 3.02898 0
M  V30 165 C 15.4391 2.8453 3.19729 0
M  V30 166 C 14.7651 2.73629 4.59381 0
M  V30 167 C 16.0651 4.25821 3.02447 0
M  V30 168 H 17.7591 2.5914 1.49955 0
M  V30 169 H 15.3051 1.24709 0.719982 0
M  V30 170 H 17.2581 1.80715 3.80684 0
M  V30 171 H 15.9821 0.732524 3.18279 0
M  V30 172 H 14.6411 2.73283 2.44361 0
M  V30 173 H 14.2891 1.74938 4.71599 0
M  V30 174 H 13.9891 3.50541 4.71588 0
M  V30 175 H 15.5131 2.86401 5.39265 0
M  V30 176 H 16.9271 4.37898 3.70024 0
M  V30 177 H 15.3241 5.03735 3.26146 0
M  V30 178 H 16.3941 4.42244 1.98867 0
M  V30 179 N 17.7372 -0.778329 1.37039 0
M  V30 180 C 18.6672 -1.90546 1.34962 0
M  V30 181 C 19.6482 -1.68681 0.219274 0
M  V30 182 O 20.8332 -1.89634 0.418624 0
M  V30 183 C 17.9632 -3.27734 1.14925 0
M  V30 184 C 16.9172 -3.64147 2.24902 0
M  V30 185 C 16.2432 -4.99806 1.89996 0
M  V30 186 C 17.5432 -3.71579 3.67051 0
M  V30 187 H 19.2372 -1.92541 2.29277 0
M  V30 188 H 16.7832 -0.924948 1.10366 0
M  V30 189 H 18.7362 -4.06215 1.12104 0
M  V30 190 H 17.4602 -3.26154 0.170631 0
M  V30 191 H 16.1192 -2.8797 2.26868 0
M  V30 192 H 15.7672 -4.94759 0.906796 0
M  V30 193 H 15.4672 -5.25139 2.63634 0
M  V30 194 H 16.9912 -5.80694 1.88749 0
M  V30 195 H 18.4052 -4.40227 3.67251 0
M  V30 196 H 16.8022 -4.08405 4.39688 0
M  V30 197 H 17.8722 -2.72404 4.01154 0
M  V30 198 N 19.2153 -1.21501 -1.00376 0
M  V30 199 C 20.4433 -1.059 -1.77744 0
M  V30 200 C 20.8583 0.391125 -1.84704 0
M  V30 201 O 20.2153 1.27133 -1.30933 0
M  V30 202 C 20.2663 -1.65111 -3.21591 0
M  V30 203 O 19.9873 -3.0445 -3.15027 0
M  V30 204 C 21.4883 -1.54637 -4.15454 0
M  V30 205 H 18.7083 -0.371825 -0.558558 0
M  V30 206 H 21.2523 -1.60865 -1.26264 0
M  V30 207 H 19.4073 -1.14235 -3.70175 0
M  V30 208 H 19.8213 -3.3278 -4.0541 0
M  V30 209 H 21.2953 -2.00808 -5.14179 0
M  V30 210 H 21.7723 -0.501022 -4.36333 0
M  V30 211 H 22.3783 -2.04767 -3.72761 0
M  V30 212 N 20.6934 1.19889 -1.02296 0
M  V30 213 C 22.1044 1.71124 -0.746568 0
M  V30 214 C 22.4554 1.81939 0.734335 0
M  V30 215 O 21.5804 1.48639 1.57275 0
M  V30 216 C 22.1754 3.10804 -1.34857 0
M  V30 217 C 20.7344 3.59323 -1.1209 0
M  V30 218 C 19.8814 2.3635 -1.45031 0
M  V30 219 H 22.8324 1.04813 -1.19163 0
M  V30 220 H 22.8534 3.73186 -0.742437 0
M  V30 221 H 22.3654 3.029 -2.42638 0
M  V30 222 H 20.4664 3.7255 -0.0610337 0
M  V30 223 H 20.5794 4.4378 -1.80544 0
M  V30 224 H 18.9434 2.39399 -0.869487 0
M  V30 225 H 19.7264 2.31081 -2.53883 0
M  V30 226 N 22.1715 0.800033 1.35784 0
M  V30 227 C 23.4185 0.377342 1.98953 0
M  V30 228 C 23.7465 -1.05378 1.6348 0
M  V30 229 O 23.0015 -1.74459 0.886707 0
M  V30 230 C 23.3005 0.500276 3.53881 0
M  V30 231 C 22.9665 1.89375 4.09204 0
M  V30 232 C 21.6285 2.27499 4.24025 0
M  V30 233 C 23.9805 2.8057 4.39238 0
M  V30 234 C 21.3085 3.562 4.66195 0
M  V30 235 C 23.6605 4.0871 4.82844 0
M  V30 236 C 22.3245 4.46843 4.95871 0
M  V30 237 H 21.5945 0.138079 0.728021 0
M  V30 238 H 24.2415 1.01955 1.62103 0
M  V30 239 H 22.5465 -0.225405 3.91151 0
M  V30 240 H 24.2435 0.154097 4.00704 0
M  V30 241 H 20.8335 1.58753 3.98115 0
M  V30 242 H 25.0175 2.52367 4.27346 0
M  V30 243 H 20.2735 3.85602 4.74469 0
M  V30 244 H 24.4475 4.79481 5.05046 0
M  V30 245 H 22.0745 5.46623 5.28306 0
M  V30 246 N 23.6496 -1.47581 0.552962 0
M  V30 247 C 24.9266 -1.95563 -0.0381515 0
M  V30 248 C 25.3066 -1.49552 -1.48988 0
M  V30 249 O 24.6546 -0.732414 -2.16444 0
M  V30 250 C 24.8646 -3.48848 0.102919 0
M  V30 251 C 26.2126 -4.24577 -0.0446082 0
M  V30 252 O 27.2366 -3.56187 0.0302548 0
M  V30 253 O 26.0956 -5.46116 -0.204923 0
M  V30 254 H 23.1896 -0.824321 -0.0665067 0
M  V30 255 H 25.7356 -1.58001 0.619186 0
M  V30 256 H 24.5076 -3.75129 1.11328 0
M  V30 257 H 24.1306 -3.93165 -0.592224 0
M  V30 258 N 25.1277 -0.289203 -1.54924 0
M  V30 259 C 26.0597 0.625583 -2.20497 0
M  V30 260 C 27.0727 1.10667 -1.19402 0
M  V30 261 O 28.2617 1.02615 -1.46056 0
M  V30 262 C 25.3617 1.86702 -2.82835 0
M  V30 263 C 24.5347 1.5304 -4.09753 0
M  V30 264 C 23.5937 2.62576 -4.56005 0
M  V30 265 O 22.6197 2.28167 -5.21468 0
M  V30 266 N 23.8217 3.92901 -4.27328 0
M  V30 267 H 26.5867 0.0642801 -2.99631 0
M  V30 268 H 24.1477 -0.110896 -1.6152 0
M  V30 269 H 26.1397 2.59304 -3.10715 0
M  V30 270 H 24.7097 2.33702 -2.07611 0
M  V30 271 H 23.9297 0.637564 -3.8901 0
M  V30 272 H 25.2177 1.28072 -4.92418 0
M  V30 273 H 24.6157 4.23671 -3.74859 0
M  V30 274 H 23.1727 4.61837 -4.59946 0
M  V30 275 N 26.6058 1.57591 -0.0167156 0
M  V30 276 C 27.5378 2.06343 0.997753 0
M  V30 277 C 28.5508 0.984469 1.29661 0
M  V30 278 O 29.7398 1.26093 1.26344 0
M  V30 279 C 26.8398 2.46255 2.32834 0
M  V30 280 C 26.0128 3.77083 2.21646 0
M  V30 281 C 25.0718 4.0368 3.37534 0
M  V30 282 O 24.0978 4.7411 3.14973 0
M  V30 283 N 25.2998 3.52881 4.60929 0
M  V30 284 H 28.0648 2.93997 0.581875 0
M  V30 285 H 25.6258 1.61002 0.170316 0
M  V30 286 H 27.6178 2.61149 3.09166 0
M  V30 287 H 26.1878 1.64032 2.66106 0
M  V30 288 H 25.4078 3.72106 1.30119 0
M  V30 289 H 26.6958 4.62822 2.11361 0
M  V30 290 H 26.0938 2.95878 4.82154 0
M  V30 291 H 24.6508 3.73076 5.34469 0
M  V30 292 N 28.0839 -0.256276 1.55502 0
M  V30 293 C 29.0159 -1.33981 1.85962 0
M  V30 294 C 30.0289 -1.44743 0.745212 0
M  V30 295 O 31.2179 -1.4626 1.02324 0
M  V30 296 C 28.3179 -2.7194 2.02242 0
M  V30 297 C 27.4909 -2.83562 3.33033 0
M  V30 298 C 26.5499 -4.02304 3.39172 0
M  V30 299 O 25.5759 -3.92273 4.12444 0
M  V30 300 N 26.7779 -5.15045 2.67784 0
M  V30 301 H 29.5429 -1.08191 2.7949 0
M  V30 302 H 27.1039 -0.446388 1.55624 0
M  V30 303 H 29.0959 -3.49697 2.03701 0
M  V30 304 H 27.6659 -2.90479 1.15502 0
M  V30 305 H 26.8859 -1.92555 3.43971 0
M  V30 306 H 28.1739 -2.88271 4.19258 0
M  V30 307 H 27.5719 -5.26085 2.07968 0
M  V30 308 H 26.1289 -5.90972 2.74947 0
M  V30 309 N 29.562 -1.4872 -0.521534 0
M  V30 310 C 30.525 -1.63379 -1.60748 0
M  V30 311 C 31.525 -0.50661 -1.52611 0
M  V30 312 O 32.715 -0.772601 -1.5613 0
M  V30 313 C 29.847 -1.61192 -3.00383 0
M  V30 314 H 31.04 -2.60217 -1.49087 0
M  V30 315 H 28.593 -1.37444 -0.744235 0
M  V30 316 H 29.328 -0.65863 -3.17541 0
M  V30 317 H 29.113 -2.43032 -3.07698 0
M  V30 318 H 30.603 -1.7466 -3.7932 0
M  V30 319 N 31.0401 0.771051 -1.3745 0
M  V30 320 C 31.9701 1.89827 -1.3597 0
M  V30 321 C 32.9511 1.68562 -0.228216 0
M  V30 322 O 34.1361 1.8941 -0.428675 0
M  V30 323 C 31.2661 3.2712 -1.16662 0
M  V30 324 C 30.2201 3.6295 -2.2683 0
M  V30 325 C 29.5461 4.98791 -1.92644 0
M  V30 326 C 30.8461 3.69627 -3.69017 0
M  V30 327 H 32.5401 1.91323 -2.30295 0
M  V30 328 H 30.0861 0.919082 -1.10855 0
M  V30 329 H 32.0391 4.05615 -1.14256 0
M  V30 330 H 30.7631 3.26059 -0.187926 0
M  V30 331 H 29.4221 2.86763 -2.28392 0
M  V30 332 H 29.0701 4.94271 -0.933021 0
M  V30 333 H 28.7701 5.23733 -2.66416 0
M  V30 334 H 30.2941 5.79685 -1.91826 0
M  V30 335 H 31.7081 4.38273 -3.69581 0
M  V30 336 H 30.1051 4.06067 -4.41848 0
M  V30 337 H 31.1751 2.70273 -4.02592 0
M  V30 338 N 32.5182 1.22032 0.997298 0
M  V30 339 C 33.7952 0.950823 1.70935 0
M  V30 340 C 34.1752 -0.535292 2.042 0
M  V30 341 O 33.5232 -1.50217 1.72183 0
M  V30 342 C 33.7332 1.84386 2.96315 0
M  V30 343 C 35.0812 2.09732 3.69185 0
M  V30 344 O 36.1052 1.81798 3.06314 0
M  V30 345 O 34.9642 2.57018 4.82291 0
M  V30 346 H 32.0582 0.357204 0.745878 0
M  V30 347 H 34.6042 1.32997 1.05404 0
M  V30 348 H 33.3762 2.84928 2.68201 0
M  V30 349 H 32.9992 1.46602 3.69586 0
M  V30 350 N 33.9963 -1.19345 1.0293 0
M  V30 351 C 34.9433 -2.2258 0.610464 0
M  V30 352 C 35.9133 -1.6179 -0.375946 0
M  V30 353 O 37.0983 -1.88844 -0.272511 0
M  V30 354 C 34.2383 -3.45085 -0.0321473 0
M  V30 355 C 33.3513 -4.20258 1.00035 0
M  V30 356 C 32.4863 -5.3019 0.32746 0
M  V30 357 C 31.5253 -5.97121 1.34584 0
M  V30 358 N 30.6623 -6.98615 0.698726 0
M  V30 359 H 35.5023 -2.57764 1.49538 0
M  V30 360 H 33.0393 -1.26644 0.748311 0
M  V30 361 H 34.9973 -4.15061 -0.421966 0
M  V30 362 H 33.6273 -3.10555 -0.88064 0
M  V30 363 H 32.6793 -3.49223 1.50823 0
M  V30 364 H 33.9913 -4.66175 1.77433 0
M  V30 365 H 33.1453 -6.06587 -0.11718 0
M  V30 366 H 31.8843 -4.85345 -0.478713 0
M  V30 367 H 30.8893 -5.19474 1.80074 0
M  V30 368 H 32.1143 -6.4405 2.15352 0
M  V30 369 H 30.0603 -6.55942 -0.0873471 0
M  V30 370 H 29.9773 -7.42724 1.41058 0
M  V30 371 H 31.2453 -7.79004 0.278102 0
M  V30 372 N 35.4744 -0.807222 -1.35358 0
M  V30 373 C 36.4374 -0.223665 -2.28106 0
M  V30 374 C 37.4374 0.589354 -1.4961 0
M  V30 375 O 38.6274 0.407745 -1.69361 0
M  V30 376 C 35.7594 0.688149 -3.33882 0
M  V30 377 H 36.9524 -1.04169 -2.81227 0
M  V30 378 H 34.5054 -0.577921 -1.45223 0
M  V30 379 H 35.2404 1.52984 -2.85948 0
M  V30 380 H 35.0254 0.10687 -3.91954 0
M  V30 381 H 36.5154 1.09075 -4.03104 0
M  V30 382 N 36.9525 1.47285 -0.560781 0
M  V30 383 C 38.1775 2.07359 -0.0410566 0
M  V30 384 C 38.6025 1.41017 1.24483 0
M  V30 385 O 37.9605 0.486368 1.74654 0
M  V30 386 C 38.0085 3.6035 0.134123 0
M  V30 387 O 37.1125 3.94681 1.19587 0
M  V30 388 H 36.4535 0.661887 -0.0529291 0
M  V30 389 H 38.9835 1.89252 -0.777482 0
M  V30 390 H 38.9935 4.0652 0.347207 0
M  V30 391 H 37.6685 4.08034 -0.805047 0
M  V30 392 H 36.2455 3.60251 0.962987 0
M  V30 393 N 38.4306 0.297415 1.54768 0
M  V30 394 C 39.3606 -0.573494 2.26348 0
M  V30 395 C 40.3416 -1.14085 1.26169 0
M  V30 396 O 41.5266 -1.17086 1.54934 0
M  V30 397 C 38.6566 -1.74716 3.00153 0
M  V30 398 C 37.6106 -1.31032 4.07449 0
M  V30 399 C 36.9366 -2.56887 4.68949 0
M  V30 400 C 38.2366 -0.444183 5.20408 0
M  V30 401 H 39.9306 0.0235131 2.99391 0
M  V30 402 H 37.4766 0.0127488 1.43994 0
M  V30 403 H 39.4296 -2.3625 3.48947 0
M  V30 404 H 38.1536 -2.37035 2.24682 0
M  V30 405 H 36.8126 -0.718066 3.59499 0
M  V30 406 H 36.4606 -3.17512 3.90122 0
M  V30 407 H 36.1606 -2.2836 5.41411 0
M  V30 408 H 37.6846 -3.19229 5.20505 0
M  V30 409 H 39.0986 -0.9651 5.65118 0
M  V30 410 H 37.4956 -0.252846 5.99567 0
M  V30 411 H 38.5656 0.531609 4.81977 0
M  V30 412 N 39.9087 -1.5758 0.0250728 0
M  V30 413 C 41.3247 -1.56124 -0.331282 0
M  V30 414 C 41.5247 -1.03029 -1.73169 0
M  V30 415 O 40.5807 -0.675215 -2.43305 0
M  V30 416 C 41.8937 -3.00139 -0.183584 0
M  V30 417 C 43.4417 -3.11946 -0.256654 0
M  V30 418 C 43.9167 -4.57793 -0.137792 0
M  V30 419 N 45.4077 -4.6279 -0.194904 0
M  V30 420 C 46.1427 -5.7326 -0.126655 0
M  V30 421 N 45.6387 -6.928 -0.00755288 0
M  V30 422 N 47.4317 -5.61811 -0.180348 0
M  V30 423 H 39.5827 -1.90424 0.94087 0
M  V30 424 H 41.8457 -0.875761 0.362968 0
M  V30 425 H 41.5517 -3.4292 0.780927 0
M  V30 426 H 41.4257 -3.64899 -0.955448 0
M  V30 427 H 43.8127 -2.69079 -1.21162 0
M  V30 428 H 43.8937 -2.49915 0.545517 0
M  V30 429 H 43.5377 -5.01339 0.813739 0
M  V30 430 H 43.4677 -5.17798 -0.958775 0
M  V30 431 H 45.9587 -3.76807 -0.287267 0
M  V30 432 H 46.2717 -7.72791 0.0379428 0
M  V30 433 H 44.6167 -6.94995 0.0271731 0
M  V30 434 H 47.8077 -4.6731 -0.271767 0
M  V30 435 H 47.9807 -6.47882 -0.123697 0
M  V30 436 N 41.3868 0.248026 -1.55636 0
M  V30 437 C 42.8028 0.596483 -1.48035 0
M  V30 438 C 43.0028 1.88386 -0.715039 0
M  V30 439 O 42.0588 2.51319 -0.243944 0
M  V30 440 C 43.3718 0.700258 -2.92433 0
M  V30 441 C 44.9198 0.792659 -3.02797 0
M  V30 442 C 45.3948 0.928005 -4.485 0
M  V30 443 N 46.8858 0.992903 -4.52433 0
M  V30 444 C 47.6208 1.11687 -5.62418 0
M  V30 445 N 47.1168 1.20645 -6.82214 0
M  V30 446 N 48.9098 1.14994 -5.50212 0
M  V30 447 H 41.0608 -0.597109 -2.03834 0
M  V30 448 H 43.3238 -0.205925 -0.925364 0
M  V30 449 H 43.0298 -0.175658 -3.51261 0
M  V30 450 H 42.9038 1.57255 -3.42857 0
M  V30 451 H 45.2908 1.65903 -2.4405 0
M  V30 452 H 45.3718 -0.104762 -2.55585 0
M  V30 453 H 45.0158 0.0661971 -5.07857 0
M  V30 454 H 44.9458 1.84045 -4.93391 0
M  V30 455 H 47.4368 0.935064 -3.66149 0
M  V30 456 H 47.7498 1.30008 -7.61786 0
M  V30 457 H 46.0948 1.17605 -6.84977 0
M  V30 458 H 49.2858 1.07643 -4.55555 0
M  V30 459 H 49.4588 1.24311 -6.35965 0
M  V30 460 N 42.8649 1.48995 0.513639 0
M  V30 461 C 43.7949 1.67636 1.62544 0
M  V30 462 C 44.7759 0.525087 1.61793 0
M  V30 463 O 45.9609 0.759502 1.78732 0
M  V30 464 C 43.0909 1.73114 3.01079 0
M  V30 465 C 42.0449 2.87905 3.16693 0
M  V30 466 C 41.3709 2.78486 4.56453 0
M  V30 467 C 42.6709 4.29005 2.97913 0
M  V30 468 H 44.3649 2.60716 1.47198 0
M  V30 469 H 41.9109 1.25465 0.706714 0
M  V30 470 H 43.8639 1.84742 3.78746 0
M  V30 471 H 42.5879 0.766241 3.17484 0
M  V30 472 H 41.2469 2.75859 2.41448 0
M  V30 473 H 40.8949 1.7993 4.69717 0
M  V30 474 H 40.5949 3.55523 4.67843 0
M  V30 475 H 42.1189 2.92104 5.36197 0
M  V30 476 H 43.5329 4.41798 3.65359 0
M  V30 477 H 41.9299 5.07166 3.20785 0
M  V30 478 H 42.9999 4.44329 1.94165 0
M  V30 479 N 44.343 -0.763751 1.37857 0
M  V30 480 C 45.589 -1.52483 1.33704 0
M  V30 481 C 45.922 -1.94051 -0.0759612 0
M  V30 482 O 45.197 -1.64675 -1.03501 0
M  V30 483 C 45.48 -2.78441 2.28348 0
M  V30 484 C 45.333 -2.43075 3.78463 0
M  V30 485 C 46.652 -3.80415 2.21298 0
M  V30 486 H 43.771 -0.553169 0.487005 0
M  V30 487 H 46.413 -0.875562 1.68624 0
M  V30 488 H 44.563 -3.33842 1.987 0
M  V30 489 H 46.235 -1.93527 4.18742 0
M  V30 490 H 44.478 -1.75666 3.96641 0
M  V30 491 H 45.149 -3.33149 4.40132 0
M  V30 492 H 47.625 -3.34527 2.47449 0
M  V30 493 H 46.501 -4.66257 2.89647 0
M  V30 494 H 46.762 -4.25262 1.20849 0
M  V30 495 N 45.8211 -1.22559 -0.990812 0
M  V30 496 C 46.7531 -0.955325 -2.08342 0
M  V30 497 C 47.7661 0.0668408 -1.62663 0
M  V30 498 O 48.9551 -0.167421 -1.77713 0
M  V30 499 C 46.0551 -0.415566 -3.36342 0
M  V30 500 C 45.2281 -1.49544 -4.11042 0
M  V30 501 C 44.2871 -0.962399 -5.17324 0
M  V30 502 O 43.3131 -1.64907 -5.44788 0
M  V30 503 N 44.5151 0.215134 -5.80101 0
M  V30 504 H 47.2801 -1.89596 -2.32106 0
M  V30 505 H 44.8411 -1.13276 -1.15673 0
M  V30 506 H 46.8331 -0.0442386 -4.04676 0
M  V30 507 H 45.4031 0.430232 -3.09625 0
M  V30 508 H 44.6231 -2.04 -3.37309 0
M  V30 509 H 45.9111 -2.22195 -4.57719 0
M  V30 510 H 45.3091 0.789779 -5.6016 0
M  V30 511 H 43.8661 0.527826 -6.49659 0
M  V30 512 N 47.2992 1.18797 -1.03562 0
M  V30 513 C 48.5462 1.8865 -0.736023 0
M  V30 514 C 48.8742 1.80041 0.735889 0
M  V30 515 O 48.1292 1.19179 1.55225 0
M  V30 516 C 48.4282 3.38692 -1.14117 0
M  V30 517 C 48.0942 3.67504 -2.6125 0
M  V30 518 C 46.7562 3.75078 -3.01447 0
M  V30 519 C 49.1082 3.80293 -3.56408 0
M  V30 520 C 46.4362 3.92915 -4.35701 0
M  V30 521 C 48.7882 3.99645 -4.90374 0
M  V30 522 C 47.4522 4.05453 -5.30249 0
M  V30 523 H 46.7222 0.690321 -0.26933 0
M  V30 524 H 49.3692 1.40641 -1.29971 0
M  V30 525 H 47.6742 3.88645 -0.496202 0
M  V30 526 H 49.3712 3.91072 -0.886789 0
M  V30 527 H 45.9612 3.62223 -2.29113 0
M  V30 528 H 50.1452 3.73779 -3.26501 0
M  V30 529 H 45.4012 3.95653 -4.66121 0
M  V30 530 H 49.5752 4.08482 -5.64017 0
M  V30 531 H 47.2022 4.19027 -6.34288 0
M  V30 532 N 48.7773 0.814389 1.34928 0
M  V30 533 C 49.7253 0.218424 2.31572 0
M  V30 534 C 50.7193 -0.636128 1.57002 0
M  V30 535 O 51.9253 -0.52842 1.72069 0
M  V30 536 H 48.3003 0.0518799 0.750208 0
M  V30 537 H 50.2713 1.04852 2.79372 0
M  V30 538 C 49.0203 -0.61207 3.4227 0
M  V30 539 H 48.3433 0.0361578 3.99784 0
M  V30 540 H 49.7833 -0.995317 4.12152 0
M  V30 541 C 48.2423 -1.78087 2.85984 0
M  V30 542 O 48.7723 -2.8787 2.80168 0
M  V30 543 N 46.9783 -1.59488 2.42924 0
M  V30 544 H 46.5253 -0.701874 2.47854 0
M  V30 545 H 46.4833 -2.37846 2.05613 0
M  V30 546 N 50.2554 -1.46986 0.568584 0
M  V30 547 C 51.5044 -2.01646 0.0465894 0
M  V30 548 C 51.8174 -1.44721 -1.31587 0
M  V30 549 O 53.0234 -1.91113 -1.92842 0
M  V30 550 C 51.4794 -3.59885 0.032752 0
M  V30 551 C 51.0874 -4.25804 1.39266 0
M  V30 552 C 52.8314 -4.22255 -0.436038 0
M  V30 553 C 50.7384 -5.76081 1.33732 0
M  V30 554 H 49.6684 -0.753876 0.013647 0
M  V30 555 H 52.3194 -1.68864 0.718131 0
M  V30 556 H 50.7014 -3.8968 -0.704669 0
M  V30 557 H 51.8754 -4.07637 2.1487 0
M  V30 558 H 50.1904 -3.7547 1.80032 0
M  V30 559 H 52.7874 -5.32394 -0.49602 0
M  V30 560 H 53.1304 -3.90212 -1.45053 0
M  V30 561 H 53.6634 -3.97033 0.246877 0
M  V30 562 H 50.4024 -6.12761 2.32817 0
M  V30 563 H 49.9224 -5.96553 0.623267 0
M  V30 564 H 51.6014 -6.38518 1.0442 0
M  V30 565 N 51.7335 -0.305618 -1.54608 0
M  V30 566 C 52.6655 0.602161 -2.21149 0
M  V30 567 C 53.6785 1.09394 -1.20569 0
M  V30 568 O 54.8675 1.0106 -1.47136 0
M  V30 569 C 51.9675 1.83692 -2.84799 0
M  V30 570 C 51.1405 1.48686 -4.11353 0
M  V30 571 C 50.1995 2.57725 -4.58764 0
M  V30 572 O 49.2255 2.22623 -5.23858 0
M  V30 573 N 50.4275 3.88346 -4.31471 0
M  V30 574 H 53.1925 0.0324966 -2.99682 0
M  V30 575 H 50.7535 -0.128021 -1.61393 0
M  V30 576 H 52.7455 2.55994 -3.13448 0
M  V30 577 H 51.3155 2.31486 -2.10078 0
M  V30 578 H 50.5355 0.596269 -3.89664 0
M  V30 579 H 51.8235 1.22842 -4.93748 0
M  V30 580 H 51.2215 4.19671 -3.79331 0
M  V30 581 H 49.7785 4.56932 -4.64818 0
M  V30 582 N 53.2116 1.57565 -0.0334293 0
M  V30 583 C 54.1436 2.0739 0.975811 0
M  V30 584 C 55.1566 0.998166 1.2861 0
M  V30 585 O 56.3456 1.27426 1.25 0
M  V30 586 C 53.4456 2.4871 2.30209 0
M  V30 587 C 52.6186 3.79413 2.17634 0
M  V30 588 C 51.6776 4.07237 3.33233 0
M  V30 589 O 50.7036 4.77425 3.09927 0
M  V30 590 N 51.9056 3.5775 4.5716 0
M  V30 591 H 54.6706 2.94598 0.55066 0
M  V30 592 H 52.2316 1.61173 0.15323 0
M  V30 593 H 54.2236 2.64413 3.06378 0
M  V30 594 H 52.7936 1.66845 2.64351 0
M  V30 595 H 52.0136 3.73465 1.26165 0
M  V30 596 H 53.3016 4.65038 2.0644 0
M  V30 597 H 52.6996 3.00976 4.78989 0
M  V30 598 H 51.2566 3.78724 5.30482 0
M  V30 599 N 54.6897 -0.239769 1.55765 0
M  V30 600 C 55.9377 -0.964892 1.77579 0
M  V30 601 C 56.2587 -1.85582 0.598699 0
M  V30 602 O 55.5287 -1.92075 -0.385226 0
M  V30 603 H 54.1087 -0.359265 0.654933 0
M  V30 604 H 56.7707 -0.256001 1.93211 0
M  V30 605 H 55.8667 -1.58243 2.69009 0
M  V30 606 N 56.1678 -1.49265 -0.50573 0
M  V30 607 C 57.4168 -1.57761 -1.25675 0
M  V30 608 C 57.7298 -0.267371 -1.93764 0
M  V30 609 O 58.9358 -0.230827 -2.70517 0
M  V30 610 C 57.3918 -2.78332 -2.28165 0
M  V30 611 C 56.9998 -4.16096 -1.66037 0
M  V30 612 C 58.7438 -2.96155 -3.04125 0
M  V30 613 C 56.6508 -5.27895 -2.6661 0
M  V30 614 H 55.5808 -0.587391 -0.472745 0
M  V30 615 H 58.2318 -1.75644 -0.53118 0
M  V30 616 H 56.6138 -2.53934 -3.03865 0
M  V30 617 H 57.7878 -4.50612 -0.963622 0
M  V30 618 H 56.1028 -4.03591 -1.02484 0
M  V30 619 H 58.6998 -3.76849 -3.79327 0
M  V30 620 H 59.0428 -2.06534 -3.61455 0
M  V30 621 H 59.5758 -3.2057 -2.35541 0
M  V30 622 H 56.3148 -6.1956 -2.14068 0
M  V30 623 H 55.8348 -4.97839 -3.34539 0
M  V30 624 H 57.5138 -5.57031 -3.29129 0
M  V30 625 N 57.6459 0.756429 -1.3826 0
M  V30 626 C 58.9229 1.50584 -1.24835 0
M  V30 627 C 59.3029 2.10556 0.151485 0
M  V30 628 O 58.6509 1.96825 1.1607 0
M  V30 629 C 58.8609 2.57448 -2.3563 0
M  V30 630 C 60.2089 3.24429 -2.73917 0
M  V30 631 O 61.2329 2.67751 -2.34921 0
M  V30 632 O 60.0919 4.26937 -3.41156 0
M  V30 633 H 57.1859 0.667664 -0.48801 0
M  V30 634 H 59.7319 0.792083 -1.5008 0
M  V30 635 H 58.5039 2.11362 -3.29305 0
M  V30 636 H 58.1269 3.36408 -2.11933 0
M  V30 637 N 59.124 1.23083 0.984299 0
M  V30 638 C 60.372 1.05848 1.72165 0
M  V30 639 C 60.693 -0.406049 1.90726 0
M  V30 640 O 59.963 -1.29139 1.47309 0
M  V30 641 H 58.543 0.388685 0.637913 0
M  V30 642 H 61.205 1.54736 1.18503 0
M  V30 643 H 60.301 1.54327 2.71274 0
M  V30 644 N 60.6021 -1.18246 1.0419 0
M  V30 645 C 61.5321 -2.24127 0.654914 0
M  V30 646 C 62.5131 -1.66617 -0.342451 0
M  V30 647 O 63.6981 -1.92924 -0.222277 0
M  V30 648 C 60.8281 -3.47295 0.0183757 0
M  V30 649 C 59.7821 -4.17563 0.939414 0
M  V30 650 C 59.1081 -5.34438 0.167286 0
M  V30 651 C 60.4081 -4.70917 2.25908 0
M  V30 652 H 62.1021 -2.56753 1.54007 0
M  V30 653 H 59.6481 -1.23414 0.74195 0
M  V30 654 H 61.6011 -4.20572 -0.264082 0
M  V30 655 H 60.3251 -3.13907 -0.901664 0
M  V30 656 H 58.9841 -3.46186 1.20628 0
M  V30 657 H 58.6321 -4.97298 -0.7552 0
M  V30 658 H 58.3321 -5.82388 0.780901 0
M  V30 659 H 59.8561 -6.10504 -0.108125 0
M  V30 660 H 61.2701 -5.35882 2.03724 0
M  V30 661 H 59.6671 -5.29406 2.82577 0
M  V30 662 H 60.7371 -3.88272 2.9047 0
M  V30 663 N 62.0802 -0.821533 -1.34494 0
M  V30 664 C 63.3102 -0.421272 -2.02259 0
M  V30 665 C 63.7182 0.977047 -1.6202 0
M  V30 666 O 63.0612 1.64348 -0.820703 0
M  V30 667 C 63.1232 -0.44231 -3.56769 0
M  V30 668 C 62.7872 -1.79372 -4.20327 0
M  V30 669 C 63.7842 -2.75435 -4.40944 0
M  V30 670 C 61.4692 -2.08182 -4.57127 0
M  V30 671 C 63.4632 -3.98482 -4.97484 0
M  V30 672 C 61.1502 -3.31489 -5.13379 0
M  V30 673 C 62.1482 -4.26457 -5.33501 0
M  V30 674 O 61.8362 -5.47585 -5.88562 0
M  V30 675 H 61.5682 -0.167473 -0.654927 0
M  V30 676 H 64.1222 -1.11073 -1.72777 0
M  V30 677 H 62.3522 0.303836 -3.85505 0
M  V30 678 H 64.0412 -0.0622925 -4.05852 0
M  V30 679 H 64.8072 -2.54473 -4.12878 0
M  V30 680 H 60.6862 -1.35066 -4.4077 0
M  V30 681 H 64.2302 -4.72618 -5.13106 0
M  V30 682 H 60.1272 -3.52316 -5.40873 0
M  V30 683 H 60.8952 -5.49086 -6.06998 0
M  V30 684 N 63.5583 1.46682 -0.576371 0
M  V30 685 C 64.8043 2.02712 -0.0596221 0
M  V30 686 C 65.1373 1.44765 1.29448 0
M  V30 687 O 64.4123 0.610355 1.84675 0
M  V30 688 C 64.6953 3.60098 0.0129503 0
M  V30 689 C 64.5483 4.28441 -1.3696 0
M  V30 690 C 65.8673 4.34224 0.71678 0
M  V30 691 H 62.9863 0.736637 -0.0231407 0
M  V30 692 H 65.6283 1.74898 -0.742351 0
M  V30 693 H 63.7783 3.83926 0.594378 0
M  V30 694 H 65.4503 4.15896 -1.9957 0
M  V30 695 H 63.6933 3.8805 -1.93907 0
M  V30 696 H 64.3643 5.3716 -1.27135 0
M  V30 697 H 66.8403 4.15503 0.222908 0
M  V30 698 H 65.7163 5.43936 0.73657 0
M  V30 699 H 65.9773 4.04823 1.77682 0
M  V30 700 N 65.0364 0.313813 1.54444 0
M  V30 701 C 66.2844 -0.291099 1.99993 0
M  V30 702 C 66.6054 -1.53418 1.20366 0
M  V30 703 O 65.8754 -1.93544 0.302927 0
M  V30 704 H 64.4554 -0.110552 0.738774 0
M  V30 705 H 67.1174 0.428106 1.9014 0
M  V30 706 H 66.2134 -0.554268 3.07139 0
M  V30 707 N 66.5145 -1.57545 0.0417849 0
M  V30 708 C 67.7625 -1.91937 -0.632829 0
M  V30 709 C 68.0835 -0.919978 -1.71934 0
M  V30 710 O 67.3535 0.0366064 -1.95866 0
M  V30 711 H 65.9335 -0.708493 -0.236742 0
M  V30 712 H 68.5955 -1.9468 0.0925745 0
M  V30 713 H 67.6915 -2.92912 -1.07746 0
M  V30 714 N 67.9926 0.231505 -1.5589 0
M  V30 715 C 69.2176 0.978689 -1.82856 0
M  V30 716 C 69.6426 1.77559 -0.620846 0
M  V30 717 O 69.0006 1.76119 0.430305 0
M  V30 718 C 69.0486 1.87997 -3.07716 0
M  V30 719 O 68.1526 2.97393 -2.85712 0
M  V30 720 H 67.4936 0.277663 -0.603158 0
M  V30 721 H 70.0236 0.24783 -2.03093 0
M  V30 722 H 70.0336 2.2917 -3.37558 0
M  V30 723 H 68.7086 1.29417 -3.95252 0
M  V30 724 H 67.2856 2.60238 -2.67078 0
M  V30 725 N 69.4707 1.49531 0.497807 0
M  V30 726 C 70.6987 1.62893 1.27567 0
M  V30 727 C 71.1137 0.301585 1.86376 0
M  V30 728 O 70.4707 -0.713335 1.67982 0
M  V30 729 C 70.5217 2.70013 2.40364 0
M  V30 730 O 70.2427 3.976 1.83972 0
M  V30 731 C 71.7437 2.94109 3.31685 0
M  V30 732 H 68.9637 0.548298 0.386794 0
M  V30 733 H 71.5077 1.95584 0.597245 0
M  V30 734 H 69.6627 2.40092 3.04031 0
M  V30 735 H 70.0767 4.56631 2.58047 0
M  V30 736 H 71.5507 3.72788 4.07104 0
M  V30 737 H 72.0277 2.04147 3.88871 0
M  V30 738 H 72.6337 3.2546 2.73781 0
M  V30 739 N 70.9488 -0.749086 1.3866 0
M  V30 740 C 72.1968 -1.50535 1.34847 0
M  V30 741 C 72.5178 -1.94909 -0.0595016 0
M  V30 742 O 71.7878 -1.67973 -1.00806 0
M  V30 743 H 70.3678 -0.558395 0.49619 0
M  V30 744 H 73.0298 -0.890165 1.73384 0
M  V30 745 H 72.1258 -2.39413 2.00219 0
M  V30 746 N 72.4269 -1.23603 -0.977757 0
M  V30 747 C 73.3369 -1.03632 -2.1047 0
M  V30 748 C 74.3529 0.0199435 -1.73989 0
M  V30 749 O 75.5289 -0.176076 -2.00629 0
M  V30 750 C 72.5939 -0.63276 -3.40877 0
M  V30 751 C 71.6549 -1.76437 -3.91367 0
M  V30 752 C 70.8879 -1.37997 -5.15551 0
M  V30 753 O 71.1109 -0.265357 -5.69782 0
M  V30 754 O 70.0449 -2.20201 -5.60174 0
M  V30 755 H 73.8709 -1.98086 -2.30208 0
M  V30 756 H 71.4559 -1.02332 -1.08851 0
M  V30 757 H 73.3379 -0.418761 -4.19314 0
M  V30 758 H 72.0129 0.282754 -3.22463 0
M  V30 759 H 70.9199 -2.03304 -3.14036 0
M  V30 760 H 72.2529 -2.6583 -4.14241 0
M  V30 761 N 73.905 1.17692 -1.04816 0
M  V30 762 C 74.868 2.19787 -0.650117 0
M  V30 763 C 75.868 1.58044 0.296427 0
M  V30 764 O 77.058 1.74012 0.0808097 0
M  V30 765 C 74.19 3.40869 0.0456987 0
M  V30 766 H 75.383 2.56516 -1.5537 0
M  V30 767 H 72.936 1.31708 -0.841594 0
M  V30 768 H 73.671 3.09681 0.962726 0
M  V30 769 H 73.456 3.86928 -0.634727 0
M  V30 770 H 74.946 4.16445 0.310432 0
M  V30 771 N 75.3831 0.828654 1.34056 0
M  V30 772 C 76.6301 0.419458 1.98108 0
M  V30 773 C 76.9581 -1.01886 1.65679 0
M  V30 774 O 76.2131 -1.72539 0.923512 0
M  V30 775 C 76.5121 0.575226 3.52741 0
M  V30 776 C 76.1781 1.98012 4.05095 0
M  V30 777 C 74.8401 2.36442 4.19104 0
M  V30 778 C 77.1921 2.89824 4.33188 0
M  V30 779 C 74.5201 3.66009 4.58535 0
M  V30 780 C 76.8721 4.1886 4.74066 0
M  V30 781 C 75.5361 4.5726 4.86281 0
M  V30 782 H 74.8061 0.153491 0.724929 0
M  V30 783 H 77.4531 1.05371 1.59904 0
M  V30 784 H 75.7581 -0.142385 3.91541 0
M  V30 785 H 77.4551 0.239057 4.00287 0
M  V30 786 H 74.0451 1.67162 3.94658 0
M  V30 787 H 78.2291 2.61375 4.21897 0
M  V30 788 H 73.4851 3.95579 4.66184 0
M  V30 789 H 77.6591 4.90086 4.94761 0
M  V30 790 H 75.2861 5.57707 5.16592 0
M  V30 791 N 76.8612 -1.46375 0.584142 0
M  V30 792 C 78.1072 -2.02678 0.0703716 0
M  V30 793 C 78.4402 -1.4545 -1.28678 0
M  V30 794 O 77.7152 -0.62014 -1.84349 0
M  V30 795 C 77.9982 -3.60099 0.00614674 0
M  V30 796 C 77.8512 -4.27709 1.3923 0
M  V30 797 C 79.1702 -4.34598 -0.693742 0
M  V30 798 H 76.2892 -0.736504 0.027047 0
M  V30 799 H 78.9312 -1.74501 0.751615 0
M  V30 800 H 77.0812 -3.84236 -0.574009 0
M  V30 801 H 78.7532 -4.14832 2.01773 0
M  V30 802 H 76.9962 -3.87016 1.95962 0
M  V30 803 H 77.6672 -5.36478 1.29982 0
M  V30 804 H 80.1432 -4.15615 -0.200869 0
M  V30 805 H 79.0192 -5.44318 -0.707714 0
M  V30 806 H 79.2802 -4.05759 -1.75533 0
M  V30 807 N 78.3393 -0.321999 -1.54275 0
M  V30 808 C 79.2713 0.578671 -2.21775 0
M  V30 809 C 80.2843 1.08109 -1.21722 0
M  V30 810 O 81.4733 0.994938 -1.482 0
M  V30 811 C 78.5733 1.80661 -2.86731 0
M  V30 812 C 77.7463 1.44314 -4.12907 0
M  V30 813 C 76.8053 2.52845 -4.61472 0
M  V30 814 O 75.8313 2.17054 -5.2619 0
M  V30 815 N 77.0333 3.83748 -4.35566 0
M  V30 816 H 79.7983 0.000709447 -2.997 0
M  V30 817 H 77.3593 -0.145132 -1.61248 0
M  V30 818 H 79.3513 2.52655 -3.16145 0
M  V30 819 H 77.9213 2.29245 -2.12521 0
M  V30 820 H 77.1413 0.554906 -3.90275 0
M  V30 821 H 78.4293 1.17598 -4.95023 0
M  V30 822 H 77.8273 4.15625 -3.83761 0
M  V30 823 H 76.3843 4.51977 -4.69638 0
M  V30 824 N 79.8174 1.5752 -0.0501392 0
M  V30 825 C 81.0424 1.97376 0.636997 0
M  V30 826 C 81.4674 0.927466 1.63645 0
M  V30 827 O 80.8254 -0.10941 1.8097 0
M  V30 828 C 80.8734 3.36304 1.30123 0
M  V30 829 O 79.9774 3.34156 2.41689 0
M  V30 830 H 79.3184 0.642998 0.165679 0
M  V30 831 H 81.8484 2.04258 -0.118233 0
M  V30 832 H 81.8584 3.73008 1.65315 0
M  V30 833 H 80.5334 4.11993 0.568746 0
M  V30 834 H 79.1104 3.09196 2.08451 0
M  V30 835 N 81.2955 -0.223234 1.56011 0
M  V30 836 C 82.2255 -1.27988 1.95298 0
M  V30 837 C 83.2065 -1.48976 0.820979 0
M  V30 838 O 84.3915 -1.61188 1.08315 0
M  V30 839 C 81.5215 -2.63 2.26822 0
M  V30 840 C 80.4755 -2.56671 3.42497 0
M  V30 841 C 79.8015 -3.95697 3.59622 0
M  V30 842 C 81.1015 -2.11601 4.77517 0
M  V30 843 H 82.7955 -0.953525 2.8381 0
M  V30 844 H 80.3415 -0.457244 1.36548 0
M  V30 845 H 82.2945 -3.37077 2.52898 0
M  V30 846 H 81.0185 -2.9732 1.35161 0
M  V30 847 H 79.6775 -1.85051 3.16467 0
M  V30 848 H 79.3255 -4.27322 2.6534 0
M  V30 849 H 79.0255 -3.92345 4.37424 0
M  V30 850 H 80.5495 -4.71438 3.88044 0
M  V30 851 H 81.9635 -2.7542 5.02809 0
M  V30 852 H 80.3605 -2.19311 5.5859 0
M  V30 853 H 81.4305 -1.06824 4.72987 0
M  V30 854 N 82.7736 -1.49793 -0.48987 0
M  V30 855 C 83.9986 -1.63836 -1.27172 0
M  V30 856 C 84.4236 -0.31402 -1.8546 0
M  V30 857 O 83.7816 0.719803 -1.66399 0
M  V30 858 C 83.8296 -2.71797 -2.36978 0
M  V30 859 O 82.9336 -2.31744 -3.41128 0
M  V30 860 H 82.2746 -0.547997 -0.37496 0
M  V30 861 H 84.8046 -1.96053 -0.585191 0
M  V30 862 H 84.8146 -2.94305 -2.82575 0
M  V30 863 H 83.4896 -3.67923 -1.93921 0
M  V30 864 H 82.0666 -2.1961 -3.01373 0
M  V30 865 N 84.2517 0.741722 -1.39055 0
M  V30 866 C 85.1617 1.88621 -1.39496 0
M  V30 867 C 86.1777 1.71557 -0.290578 0
M  V30 868 O 87.3537 1.94275 -0.530954 0
M  V30 869 C 84.4187 3.24134 -1.23037 0
M  V30 870 C 83.4797 3.5364 -2.43387 0
M  V30 871 C 82.7127 4.82687 -2.27703 0
M  V30 872 O 82.9357 5.55922 -1.27696 0
M  V30 873 O 81.8697 5.1194 -3.16545 0
M  V30 874 H 85.6957 1.91203 -2.35956 0
M  V30 875 H 83.2807 0.888625 -1.20099 0
M  V30 876 H 85.1627 4.0513 -1.15964 0
M  V30 877 H 83.8377 3.22337 -0.296691 0
M  V30 878 H 82.7447 2.72758 -2.56035 0
M  V30 879 H 84.0777 3.60209 -3.35425 0
M  V30 880 N 85.7298 1.2412 0.971189 0
M  V30 881 C 87.1458 1.00584 1.23916 0
M  V30 882 C 87.3458 -0.287481 1.99439 0
M  V30 883 O 86.4018 -1.00454 2.31658 0
M  V30 884 C 87.7148 2.21864 2.0297 0
M  V30 885 C 89.2628 2.26452 2.16076 0
M  V30 886 C 89.7378 3.47343 2.98524 0
M  V30 887 N 91.2288 3.47639 3.06107 0
M  V30 888 C 91.9638 4.37837 3.70251 0
M  V30 889 N 91.4598 5.38286 4.36142 0
M  V30 890 N 93.2528 4.25558 3.67228 0
M  V30 891 H 85.4038 2.07236 0.465499 0
M  V30 892 H 87.6668 0.909236 0.268315 0
M  V30 893 H 87.3728 3.15771 1.54861 0
M  V30 894 H 87.2468 2.23698 3.03709 0
M  V30 895 H 89.6338 1.33078 2.6339 0
M  V30 896 H 89.7148 2.28645 1.14696 0
M  V30 897 H 89.3588 4.41029 2.51905 0
M  V30 898 H 89.2888 3.42393 4.00093 0
M  V30 899 H 91.7798 2.74966 2.59233 0
M  V30 900 H 92.0928 6.03352 4.82894 0
M  V30 901 H 90.4378 5.42176 4.34822 0
M  V30 902 H 93.6288 3.46322 3.14927 0
M  V30 903 H 93.8018 4.96054 4.16935 0
M  V30 904 N 87.2079 -1.17134 1.05439 0
M  V30 905 C 88.1179 -2.24878 0.668365 0
M  V30 906 C 89.1339 -1.71186 -0.311687 0
M  V30 907 O 90.3099 -2.00738 -0.163161 0
M  V30 908 C 87.3749 -3.46662 0.051648 0
M  V30 909 C 86.4359 -4.15429 1.08246 0
M  V30 910 C 85.6689 -5.31399 0.495082 0
M  V30 911 O 85.8919 -5.66153 -0.694743 0
M  V30 912 O 84.8259 -5.89187 1.23056 0
M  V30 913 H 88.6519 -2.60189 1.56637 0
M  V30 914 H 86.2369 -1.24482 0.826104 0
M  V30 915 H 88.1189 -4.20394 -0.290966 0
M  V30 916 H 86.7939 -3.13142 -0.819971 0
M  V30 917 H 85.7009 -3.43704 1.47711 0
M  V30 918 H 87.0339 -4.52982 1.92532 0
M  V30 919 N 88.686 -0.835752 -1.33615 0
M  V30 920 C 89.618 -0.224151 -2.28101 0
M  V30 921 C 90.631 0.593331 -1.51603 0
M  V30 922 O 91.82 0.420911 -1.73466 0
M  V30 923 C 88.92 0.703309 -3.31522 0
M  V30 924 C 88.093 -0.0741528 -4.37337 0
M  V30 925 C 87.152 0.776176 -5.20444 0
M  V30 926 O 86.178 0.216506 -5.68788 0
M  V30 927 N 87.38 2.09401 -5.41416 0
M  V30 928 H 90.145 -1.03598 -2.81225 0
M  V30 929 H 87.706 -0.69392 -1.46275 0
M  V30 930 H 89.698 1.27707 -3.84022 0
M  V30 931 H 88.268 1.41585 -2.78698 0
M  V30 932 H 87.488 -0.82928 -3.85378 0
M  V30 933 H 88.776 -0.608863 -5.05144 0
M  V30 934 H 88.174 2.57229 -5.03835 0
M  V30 935 H 86.731 2.61633 -5.96985 0
M  V30 936 N 90.1641 1.46063 -0.591896 0
M  V30 937 C 91.4101 2.02638 -0.0811191 0
M  V30 938 C 91.7431 1.4613 1.27905 0
M  V30 939 O 91.0181 0.629908 1.84017 0
M  V30 940 C 91.3011 3.60091 -0.0252436 0
M  V30 941 C 91.1541 4.26965 -1.41496 0
M  V30 942 C 92.4731 4.3496 0.670685 0
M  V30 943 H 89.5921 0.73635 -0.0309524 0
M  V30 944 H 92.2341 1.741 -0.760859 0
M  V30 945 H 90.3841 3.84535 0.553624 0
M  V30 946 H 92.0561 4.13756 -2.0397 0
M  V30 947 H 90.2991 3.85971 -1.98011 0
M  V30 948 H 90.9701 5.35781 -1.32825 0
M  V30 949 H 93.4461 4.15716 0.178825 0
M  V30 950 H 92.3221 5.44686 0.678837 0
M  V30 951 H 92.5831 4.06685 1.73379 0
M  V30 952 N 91.6422 0.330177 1.54103 0
M  V30 953 C 92.5722 -0.525353 2.27513 0
M  V30 954 C 93.5532 -1.11383 1.2856 0
M  V30 955 O 94.7382 -1.13773 1.57383 0
M  V30 956 C 91.8682 -1.6831 3.03791 0
M  V30 957 C 90.8222 -1.2236 4.10137 0
M  V30 958 C 90.1482 -2.46882 4.74293 0
M  V30 959 C 91.4482 -0.333697 5.21233 0
M  V30 960 H 93.1422 0.087013 2.99274 0
M  V30 961 H 90.6882 0.0432893 1.43935 0
M  V30 962 H 92.6412 -2.28795 3.5388 0
M  V30 963 H 91.3652 -2.32216 2.29659 0
M  V30 964 H 90.0242 -0.64165 3.60941 0
M  V30 965 H 89.6722 -3.09165 3.96769 0
M  V30 966 H 89.3722 -2.16825 5.46133 0
M  V30 967 H 90.8962 -3.08117 5.27159 0
M  V30 968 H 92.3102 -0.845013 5.67038 0
M  V30 969 H 90.7072 -0.125612 5.99969 0
M  V30 970 H 91.7772 0.633724 4.80741 0
M  V30 971 N 93.1203 -1.57491 0.0584922 0
M  V30 972 C 94.0303 -2.15448 -0.928414 0
M  V30 973 C 95.0463 -1.11416 -1.3365 0
M  V30 974 O 96.2223 -1.4362 -1.41193 0
M  V30 975 C 93.2873 -2.69393 -2.18239 0
M  V30 976 C 92.3483 -3.88249 -1.83196 0
M  V30 977 C 91.5813 -4.39613 -3.02616 0
M  V30 978 O 91.8043 -3.90023 -4.16219 0
M  V30 979 O 90.7383 -5.31111 -2.83204 0
M  V30 980 H 94.5643 -3.00112 -0.465483 0
M  V30 981 H 92.1493 -1.48499 -0.163826 0
M  V30 982 H 94.0313 -3.04026 -2.91798 0
M  V30 983 H 92.7063 -1.87796 -2.63656 0
M  V30 984 H 91.6133 -3.58492 -1.06931 0
M  V30 985 H 92.9463 -4.71098 -1.42573 0
M  V30 986 N 94.5984 0.214957 -1.56127 0
M  V30 987 C 95.8474 0.936451 -1.78643 0
M  V30 988 C 96.1604 1.85237 -0.628229 0
M  V30 989 O 97.3664 2.613 -0.737186 0
M  V30 990 C 95.8224 1.7154 -3.16389 0
M  V30 991 C 95.4304 0.845299 -4.39953 0
M  V30 992 C 97.1744 2.42772 -3.48227 0
M  V30 993 C 95.0814 1.62198 -5.68723 0
M  V30 994 H 94.0114 0.353401 -0.666051 0
M  V30 995 H 96.6624 0.190169 -1.82512 0
M  V30 996 H 95.0444 2.50484 -3.06715 0
M  V30 997 H 96.2184 0.0959353 -4.607 0
M  V30 998 H 94.5334 0.244789 -4.1568 0
M  V30 999 H 97.1304 3.01394 -4.41663 0
M  V30 1000 H 97.4734 3.15984 -2.71035 0
M  V30 1001 H 98.0064 1.70813 -3.5926 0
M  V30 1002 H 94.7454 0.933011 -6.48826 0
M  V30 1003 H 94.2654 2.34579 -5.52026 0
M  V30 1004 H 95.9444 2.18095 -6.09133 0
M  V30 1005 N 96.0765 1.50051 0.48192 0
M  V30 1006 C 97.3225 1.60736 1.2366 0
M  V30 1007 C 97.6555 0.301786 1.91841 0
M  V30 1008 O 96.9305 -0.696025 1.8162 0
M  V30 1009 C 97.2135 2.78009 2.28874 0
M  V30 1010 C 97.0665 4.18416 1.65069 0
M  V30 1011 C 98.3855 2.90867 3.30279 0
M  V30 1012 H 95.5045 0.585031 0.448228 0
M  V30 1013 H 98.1465 1.82402 0.531946 0
M  V30 1014 H 96.2965 2.59667 2.88973 0
M  V30 1015 H 97.9685 4.48322 1.0865 0
M  V30 1016 H 96.2115 4.23177 0.954148 0
M  V30 1017 H 96.8825 4.96381 2.41474 0
M  V30 1018 H 99.3585 3.07623 2.80191 0
M  V30 1019 H 98.2345 3.74566 4.01238 0
M  V30 1020 H 98.4955 2.01021 3.93755 0
M  V30 1021 N 97.5546 -0.734337 1.39446 0
M  V30 1022 C 98.5176 -1.83004 1.37994 0
M  V30 1023 C 99.5176 -1.58397 0.276938 0
M  V30 1024 O 100.708 -1.65785 0.534875 0
M  V30 1025 C 97.8396 -3.20802 1.1532 0
M  V30 1026 H 99.0326 -1.85694 2.35494 0
M  V30 1027 H 96.5856 -0.938059 1.25021 0
M  V30 1028 H 97.3206 -3.23772 0.185036 0
M  V30 1029 H 97.1056 -3.4006 1.95197 0
M  V30 1030 H 98.5956 -4.00862 1.17046 0
M  V30 1031 N 99.0327 -1.24633 -0.964593 0
M  V30 1032 C 99.9427 -1.05859 -2.09359 0
M  V30 1033 C 100.959 0.00148855 -1.74 0
M  V30 1034 O 102.135 -0.197346 -2.00431 0
M  V30 1035 C 99.1997 -0.668879 -3.40187 0
M  V30 1036 C 98.2607 -1.80578 -3.89474 0
M  V30 1037 C 97.4937 -1.43457 -5.14058 0
M  V30 1038 O 97.7167 -0.325775 -5.69469 0
M  V30 1039 O 96.6507 -2.2613 -5.57807 0
M  V30 1040 H 100.477 -2.00516 -2.28094 0
M  V30 1041 H 98.0617 -1.03481 -1.0776 0
M  V30 1042 H 99.9437 -0.463211 -4.18846 0
M  V30 1043 H 98.6187 0.248536 -3.22744 0
M  V30 1044 H 97.5257 -2.06623 -3.11862 0
M  V30 1045 H 98.8587 -2.70208 -4.11398 0
M  V30 1046 N 100.511 1.16574 -1.06058 0
M  V30 1047 C 101.421 2.2452 -0.680282 0
M  V30 1048 C 102.437 1.71348 0.302604 0
M  V30 1049 O 103.613 2.00822 0.152513 0
M  V30 1050 C 100.678 3.46629 -0.0700315 0
M  V30 1051 C 99.7388 4.14849 -1.10448 0
M  V30 1052 C 98.9718 5.31129 -0.523256 0
M  V30 1053 O 99.1948 5.66514 0.664709 0
M  V30 1054 O 98.1288 5.88526 -1.26179 0
M  V30 1055 H 101.955 2.59355 -1.58015 0
M  V30 1056 H 99.5398 1.24043 -0.832694 0
M  V30 1057 H 101.422 4.20543 0.268667 0
M  V30 1058 H 100.097 3.13573 0.803353 0
M  V30 1059 H 99.0038 3.42916 -1.49532 0
M  V30 1060 H 100.337 4.51954 -1.94931 0
M  V30 1061 N 101.989 0.842826 1.3317 0
M  V30 1062 C 102.952 0.284065 2.27433 0
M  V30 1063 C 103.952 -0.54948 1.5112 0
M  V30 1064 O 105.142 -0.362699 1.70382 0
M  V30 1065 C 102.274 -0.599384 3.35589 0
M  V30 1066 H 103.467 1.11589 2.78366 0
M  V30 1067 H 101.02 0.616221 1.4364 0
M  V30 1068 H 101.755 -1.45349 2.89904 0
M  V30 1069 H 101.54 -0.00291266 3.921 0
M  V30 1070 H 103.03 -0.983488 4.05854 0
M  V30 1071 N 103.467 -1.45747 0.599634 0
M  V30 1072 C 104.414 -2.30467 -0.123849 0
M  V30 1073 C 105.384 -1.41632 -0.86774 0
M  V30 1074 O 106.569 -1.70568 -0.855056 0
M  V30 1075 C 103.709 -3.26402 -1.12051 0
M  V30 1076 C 102.822 -4.3034 -0.37832 0
M  V30 1077 C 101.957 -5.13389 -1.364 0
M  V30 1078 C 100.996 -6.09061 -0.609171 0
M  V30 1079 N 100.133 -6.84918 -1.54374 0
M  V30 1080 H 104.973 -2.91802 0.604627 0
M  V30 1081 H 102.51 -1.43797 0.309972 0
M  V30 1082 H 104.468 -3.80482 -1.7114 0
M  V30 1083 H 103.098 -2.66839 -1.8165 0
M  V30 1084 H 102.15 -3.78984 0.327929 0
M  V30 1085 H 103.462 -4.98354 0.210997 0
M  V30 1086 H 102.616 -5.7183 -2.02719 0
M  V30 1087 H 101.355 -4.45376 -1.98725 0
M  V30 1088 H 100.36 -5.49758 0.0676979 0
M  V30 1089 H 101.585 -6.79099 0.00891991 0
M  V30 1090 H 99.531 -6.19601 -2.15478 0
M  V30 1091 H 99.448 -7.49254 -1.00766 0
M  V30 1092 H 100.716 -7.47906 -2.19676 0
M  V30 1093 N 104.945 -0.338344 -1.53925 0
M  V30 1094 C 106.193 0.259245 -2.0043 0
M  V30 1095 C 106.514 1.51484 -1.22791 0
M  V30 1096 O 105.784 1.93037 -0.33368 0
M  V30 1097 H 104.364 0.0987845 -0.740439 0
M  V30 1098 H 107.026 -0.458302 -1.89435 0
M  V30 1099 H 106.122 0.505334 -3.07982 0
M  V30 1100 N 106.423 1.57458 -0.0668435 0
M  V30 1101 C 107.37 2.12439 0.902122 0
M  V30 1102 C 108.34 1.03565 1.2986 0
M  V30 1103 O 109.525 1.312 1.38532 0
M  V30 1104 C 106.665 2.6865 2.16614 0
M  V30 1105 C 105.778 3.91663 1.82274 0
M  V30 1106 C 104.913 4.36134 3.0325 0
M  V30 1107 C 103.952 5.51808 2.64904 0
M  V30 1108 N 103.089 5.9126 3.78624 0
M  V30 1109 H 107.929 2.94934 0.426382 0
M  V30 1110 H 105.466 1.4575 0.198819 0
M  V30 1111 H 107.424 2.99346 2.90599 0
M  V30 1112 H 106.054 1.88928 2.61737 0
M  V30 1113 H 105.106 3.6746 0.983719 0
M  V30 1114 H 106.418 4.75693 1.50059 0
M  V30 1115 H 105.572 4.68465 3.85519 0
M  V30 1116 H 104.311 3.50948 3.38655 0
M  V30 1117 H 103.316 5.19133 1.81055 0
M  V30 1118 H 104.541 6.38722 2.30675 0
M  V30 1119 H 102.487 5.09024 4.138 0
M  V30 1120 H 102.404 6.70018 3.5016 0
M  V30 1121 H 103.672 6.28212 4.61486 0
M  V30 1122 N 107.901 -0.206675 1.56239 0
M  V30 1123 C 109.15 -0.926964 1.79138 0
M  V30 1124 C 109.463 -1.84901 0.638043 0
M  V30 1125 O 110.669 -2.60906 0.751033 0
M  V30 1126 C 109.125 -1.6986 3.17294 0
M  V30 1127 C 108.733 -0.821956 4.40395 0
M  V30 1128 C 110.477 -2.40922 3.4951 0
M  V30 1129 C 108.384 -1.59179 5.69575 0
M  V30 1130 H 107.314 -0.349864 0.667915 0
M  V30 1131 H 109.965 -0.180487 1.8261 0
M  V30 1132 H 108.347 -2.48853 3.08039 0
M  V30 1133 H 109.521 -0.0715019 4.60745 0
M  V30 1134 H 107.836 -0.222741 4.15804 0
M  V30 1135 H 110.433 -2.99047 4.43255 0
M  V30 1136 H 110.776 -3.14542 2.72707 0
M  V30 1137 H 111.309 -1.68905 3.60161 0
M  V30 1138 H 108.048 -0.898589 6.49312 0
M  V30 1139 H 107.568 -2.31648 5.53262 0
M  V30 1140 H 109.247 -2.14862 6.10281 0
M  V30 1141 N 109.379 -1.50304 -0.473955 0
M  V30 1142 C 110.326 -1.68959 -1.57231 0
M  V30 1143 C 111.296 -0.530899 -1.57387 0
M  V30 1144 O 112.481 -0.761133 -1.74961 0
M  V30 1145 C 109.621 -1.7871 -2.95223 0
M  V30 1146 C 108.734 -3.06061 -3.04878 0
M  V30 1147 C 107.869 -3.06626 -4.33767 0
M  V30 1148 C 106.908 -4.28443 -4.37154 0
M  V30 1149 N 106.045 -4.26763 -5.5751 0
M  V30 1150 H 110.885 -2.6273 -1.40631 0
M  V30 1151 H 108.422 -1.30241 -0.683789 0
M  V30 1152 H 110.38 -1.82344 -3.75242 0
M  V30 1153 H 109.01 -0.883806 -3.10465 0
M  V30 1154 H 108.062 -3.11911 -2.17751 0
M  V30 1155 H 109.374 -3.96039 -3.0324 0
M  V30 1156 H 108.528 -3.08973 -5.22131 0
M  V30 1157 H 107.267 -2.14473 -4.3801 0
M  V30 1158 H 106.272 -4.2631 -3.47188 0
M  V30 1159 H 107.497 -5.2182 -4.34605 0
M  V30 1160 H 105.443 -3.37462 -5.62544 0
M  V30 1161 H 105.36 -5.10507 -5.57601 0
M  V30 1162 H 106.628 -4.33253 -6.48006 0
M  V30 1163 N 110.857 0.726932 -1.39834 0
M  V30 1164 C 111.787 1.85405 -1.41941 0
M  V30 1165 C 112.768 1.67751 -0.281728 0
M  V30 1166 O 113.953 1.8795 -0.488717 0
M  V30 1167 C 111.083 3.23243 -1.2701 0
M  V30 1168 C 110.037 3.55549 -2.38262 0
M  V30 1169 C 109.363 4.9241 -2.08415 0
M  V30 1170 C 110.663 3.577 -3.80589 0
M  V30 1171 H 112.357 1.83899 -2.36266 0
M  V30 1172 H 109.903 0.883349 -1.13723 0
M  V30 1173 H 111.856 4.01775 -1.27103 0
M  V30 1174 H 110.58 3.25296 -0.291564 0
M  V30 1175 H 109.239 2.79351 -2.37399 0
M  V30 1176 H 108.887 4.91052 -1.0898 0
M  V30 1177 H 108.587 5.14992 -2.82943 0
M  V30 1178 H 110.111 5.73289 -2.10171 0
M  V30 1179 H 111.525 4.26293 -3.83337 0
M  V30 1180 H 109.922 3.91804 -4.54543 0
M  V30 1181 H 110.992 2.57328 -4.10987 0
M  V30 1182 N 112.336 1.25143 0.95797 0
M  V30 1183 C 113.585 1.0909 1.69654 0
M  V30 1184 C 113.898 -0.368548 1.92097 0
M  V30 1185 O 115.104 -0.649455 2.63618 0
M  V30 1186 C 113.56 1.90395 3.05414 0
M  V30 1187 C 113.168 3.4081 2.90779 0
M  V30 1188 C 114.912 1.82901 3.83076 0
M  V30 1189 C 112.819 4.14423 4.21909 0
M  V30 1190 H 111.749 0.404625 0.636235 0
M  V30 1191 H 114.4 1.4931 1.06672 0
M  V30 1192 H 112.782 1.42996 3.69281 0
M  V30 1193 H 113.956 3.95859 2.35865 0
M  V30 1194 H 112.271 3.49361 2.26575 0
M  V30 1195 H 114.868 2.35196 4.80195 0
M  V30 1196 H 115.211 0.796224 4.08615 0
M  V30 1197 H 115.744 2.28033 3.25954 0
M  V30 1198 H 112.483 5.18102 4.01561 0
M  V30 1199 H 112.003 3.64159 4.76601 0
M  V30 1200 H 113.682 4.21956 4.90471 0
M  V30 1201 N 113.814 -1.1601 1.06675 0
M  V30 1202 C 114.777 -2.18724 0.685001 0
M  V30 1203 C 115.777 -1.58496 -0.271246 0
M  V30 1204 O 116.967 -1.74119 -0.0531156 0
M  V30 1205 C 114.099 -3.40899 0.00853648 0
M  V30 1206 H 115.292 -2.54011 1.59431 0
M  V30 1207 H 112.845 -1.30352 0.862441 0
M  V30 1208 H 113.58 -3.11173 -0.913337 0
M  V30 1209 H 113.365 -3.8587 0.696204 0
M  V30 1210 H 114.855 -4.16886 -0.24414 0
M  V30 1211 N 115.292 -0.849877 -1.32721 0
M  V30 1212 C 116.242 -0.262892 -2.26479 0
M  V30 1213 C 117.226 0.588493 -1.49752 0
M  V30 1214 O 118.418 0.438659 -1.71478 0
M  V30 1215 C 115.547 0.551818 -3.38836 0
M  V30 1216 C 114.633 -0.311689 -4.22953 0
M  V30 1217 N 115.024 -1.39567 -4.86163 0
M  V30 1218 C 113.322 -0.100611 -4.45887 0
M  V30 1219 C 114.023 -1.92651 -5.48872 0
M  V30 1220 N 112.999 -1.22637 -5.29586 0
M  V30 1221 H 116.801 -1.09166 -2.72873 0
M  V30 1222 H 114.315 -0.695486 -1.46754 0
M  V30 1223 H 116.312 0.988713 -4.05006 0
M  V30 1224 H 114.972 1.37844 -2.93988 0
M  V30 1225 H 115.983 -1.77859 -4.86402 0
M  V30 1226 H 112.66 0.691681 -4.11731 0
M  V30 1227 H 114.05 -2.83487 -6.09167 0
M  V30 1228 N 116.77 1.45427 -0.607355 0
M  V30 1229 C 118.016 2.0254 -0.102607 0
M  V30 1230 C 118.349 1.47478 1.26348 0
M  V30 1231 O 117.624 0.64939 1.83339 0
M  V30 1232 C 117.907 3.60044 -0.0634347 0
M  V30 1233 C 117.76 4.2544 -1.46017 0
M  V30 1234 C 119.079 4.35646 0.624514 0
M  V30 1235 H 116.198 0.73598 -0.0387607 0
M  V30 1236 H 118.84 1.73284 -0.779282 0
M  V30 1237 H 116.99 3.85101 0.512808 0
M  V30 1238 H 118.662 4.11569 -2.08347 0
M  V30 1239 H 116.905 3.83849 -2.02094 0
M  V30 1240 H 117.576 5.34342 -1.385 0
M  V30 1241 H 120.052 4.15882 0.134723 0
M  V30 1242 H 118.928 5.45376 0.621028 0
M  V30 1243 H 119.189 4.08501 1.69055 0
M  V30 1244 N 118.248 0.346503 1.53744 0
M  V30 1245 C 119.496 -0.248612 2.00565 0
M  V30 1246 C 119.817 -1.5083 1.23593 0
M  V30 1247 O 119.087 -1.92858 0.343912 0
M  V30 1248 H 117.667 -0.0948564 0.740953 0
M  V30 1249 H 120.329 0.468341 1.89189 0
M  V30 1250 H 119.425 -0.488994 3.08245 0
M  V30 1251 N 119.726 -1.57421 0.075193 0
M  V30 1252 C 120.966 -1.95495 -0.596757 0
M  V30 1253 C 121.33 -0.954886 -1.66571 0
M  V30 1254 O 122.531 -1.22341 -2.39345 0
M  V30 1255 C 120.802 -3.382 -1.15566 0
M  V30 1256 S 122.361 -3.98254 -1.84226 0
M  V30 1257 H 119.179 -0.683649 -0.195307 0
M  V30 1258 H 121.781 -1.94925 0.149859 0
M  V30 1259 H 120.485 -4.08766 -0.36588 0
M  V30 1260 H 120.016 -3.42321 -1.93856 0
M  V30 1261 H 122.031 -3.85435 -3.12497 0
M  V30 1262 N 121.204 0.198386 -1.56346 0
M  V30 1263 C 122.45 0.920648 -1.80698 0
M  V30 1264 C 122.783 1.83045 -0.648697 0
M  V30 1265 O 122.058 1.91308 0.350925 0
M  V30 1266 C 122.341 1.73971 -3.15287 0
M  V30 1267 C 122.194 0.85485 -4.41602 0
M  V30 1268 C 123.513 2.71296 -3.46535 0
M  V30 1269 H 120.632 0.333261 -0.657348 0
M  V30 1270 H 123.274 0.188198 -1.89066 0
M  V30 1271 H 121.424 2.36416 -3.08285 0
M  V30 1272 H 123.096 0.245362 -4.60647 0
M  V30 1273 H 121.339 0.161398 -4.335 0
M  V30 1274 H 122.01 1.46286 -5.32264 0
M  V30 1275 H 124.486 2.18983 -3.53816 0
M  V30 1276 H 123.362 3.2569 -4.41834 0
M  V30 1277 H 123.623 3.5018 -2.69864 0
M  V30 1278 N 122.682 1.50554 0.465978 0
M  V30 1279 C 123.907 1.65838 1.24549 0
M  V30 1280 C 124.332 0.343486 1.84937 0
M  V30 1281 O 123.69 -0.69324 1.67523 0
M  V30 1282 C 123.738 2.75533 2.32624 0
M  V30 1283 O 122.842 2.37142 3.37398 0
M  V30 1284 H 122.183 0.553893 0.366194 0
M  V30 1285 H 124.713 1.96959 0.553927 0
M  V30 1286 H 124.723 2.98763 2.77857 0
M  V30 1287 H 123.398 3.70962 1.88043 0
M  V30 1288 H 121.975 2.24377 2.97841 0
M  V30 1289 N 124.16 -0.719506 1.40217 0
M  V30 1290 C 125.388 -1.50864 1.41589 0
M  V30 1291 C 125.803 -1.88794 0.0145275 0
M  V30 1292 O 125.16 -1.55174 -0.960594 0
M  V30 1293 C 125.211 -2.78646 2.30302 0
M  V30 1294 O 124.932 -2.42321 3.64983 0
M  V30 1295 C 126.433 -3.72569 2.40224 0
M  V30 1296 H 123.653 -0.465709 0.48307 0
M  V30 1297 H 126.197 -0.88785 1.84221 0
M  V30 1298 H 124.352 -3.37019 1.91042 0
M  V30 1299 H 124.766 -3.24514 4.12057 0
M  V30 1300 H 126.24 -4.5908 3.06512 0
M  V30 1301 H 126.717 -4.15403 1.42608 0
M  V30 1302 H 127.323 -3.20109 2.80019 0
M  V30 1303 N 125.638 -1.25649 -0.95132 0
M  V30 1304 C 126.601 -1.06399 -2.03007 0
M  V30 1305 C 127.601 -0.0156794 -1.60792 0
M  V30 1306 O 128.791 -0.25817 -1.72276 0
M  V30 1307 C 125.923 -0.616184 -3.35285 0
M  V30 1308 H 127.116 -2.02164 -2.21517 0
M  V30 1309 H 124.669 -1.08103 -1.12887 0
M  V30 1310 H 125.404 0.343917 -3.22471 0
M  V30 1311 H 125.189 -1.37301 -3.67275 0
M  V30 1312 H 126.679 -0.503032 -4.14559 0
M  V30 1313 N 127.117 1.15442 -1.07289 0
M  V30 1314 C 128.027 2.23786 -0.704057 0
M  V30 1315 C 129.043 1.7166 0.284413 0
M  V30 1316 O 130.219 2.00972 0.131205 0
M  V30 1317 C 127.284 3.46535 -0.106792 0
M  V30 1318 C 126.345 4.13654 -1.14842 0
M  V30 1319 C 125.578 5.30544 -0.57956 0
M  V30 1320 O 125.801 5.67187 0.604585 0
M  V30 1321 O 124.735 5.87154 -1.32414 0
M  V30 1322 H 128.561 2.57664 -1.60757 0
M  V30 1323 H 126.146 1.23152 -0.845803 0
M  V30 1324 H 128.028 4.20804 0.224048 0
M  V30 1325 H 126.703 3.14407 0.770049 0
M  V30 1326 H 125.61 3.4131 -1.5316 0
M  V30 1327 H 126.943 4.49861 -1.99714 0
M  V30 1328 N 128.595 0.856903 1.32268 0
M  V30 1329 C 129.82 0.474569 2.01897 0
M  V30 1330 C 130.245 -0.921766 1.63967 0
M  V30 1331 O 129.603 -1.60589 0.84148 0
M  V30 1332 C 129.651 0.623799 3.55164 0
M  V30 1333 O 128.755 -0.342459 4.10976 0
M  V30 1334 H 128.096 0.190422 0.63611 0
M  V30 1335 H 130.626 1.15672 1.68764 0
M  V30 1336 H 130.636 0.512169 4.04773 0
M  V30 1337 H 129.311 1.64202 3.82113 0
M  V30 1338 H 127.888 -0.18688 3.72431 0
M  V30 1339 N 130.073 -1.45103 0.615059 0
M  V30 1340 C 131.005 -2.28786 -0.13762 0
M  V30 1341 C 132.018 -1.40376 -0.824525 0
M  V30 1342 O 133.207 -1.64681 -0.688662 0
M  V30 1343 C 130.307 -3.16322 -1.21628 0
M  V30 1344 C 129.48 -4.33054 -0.615039 0
M  V30 1345 C 128.539 -5.01743 -1.58556 0
M  V30 1346 O 127.565 -5.58293 -1.10895 0
M  V30 1347 N 128.767 -5.01714 -2.91998 0
M  V30 1348 H 131.532 -2.94025 0.580483 0
M  V30 1349 H 129.093 -1.55373 0.45507 0
M  V30 1350 H 131.085 -3.59139 -1.86552 0
M  V30 1351 H 129.655 -2.52943 -1.83681 0
M  V30 1352 H 128.875 -3.93627 0.21245 0
M  V30 1353 H 130.163 -5.08431 -0.193704 0
M  V30 1354 H 129.561 -4.57075 -3.33316 0
M  V30 1355 H 128.118 -5.48371 -3.52325 0
M  V30 1356 N 131.551 -0.354651 -1.53558 0
M  V30 1357 C 132.483 0.5315 -2.22952 0
M  V30 1358 C 133.496 1.05503 -1.23988 0
M  V30 1359 O 134.685 0.963279 -1.50277 0
M  V30 1360 C 131.785 1.74538 -2.90499 0
M  V30 1361 C 130.958 1.35524 -4.15875 0
M  V30 1362 C 130.017 2.42999 -4.66731 0
M  V30 1363 O 129.043 2.05844 -5.30676 0
M  V30 1364 N 130.245 3.74423 -4.43608 0
M  V30 1365 H 133.01 -0.0628615 -2.99634 0
M  V30 1366 H 130.571 -0.179302 -1.60904 0
M  V30 1367 H 132.563 2.45892 -3.21433 0
M  V30 1368 H 131.133 2.24686 -2.17336 0
M  V30 1369 H 130.353 0.471998 -3.91364 0
M  V30 1370 H 131.641 1.07071 -4.97406 0
M  V30 1371 H 131.039 4.07391 -3.92491 0
M  V30 1372 H 129.596 4.41913 -4.7912 0
M  V30 1373 N 133.029 1.57378 -0.0835403 0
M  V30 1374 C 133.959 2.1641 0.87686 0
M  V30 1375 C 134.94 1.09429 1.30228 0
M  V30 1376 O 136.125 1.37516 1.37124 0
M  V30 1377 C 133.255 2.73517 2.14022 0
M  V30 1378 C 132.209 3.85769 1.85381 0
M  V30 1379 C 131.535 4.29529 3.18448 0
M  V30 1380 C 132.835 5.09486 1.14984 0
M  V30 1381 H 134.529 2.96914 0.385059 0
M  V30 1382 H 132.075 1.42823 0.18377 0
M  V30 1383 H 134.028 3.13463 2.81636 0
M  V30 1384 H 132.752 1.90252 2.65465 0
M  V30 1385 H 131.411 3.46345 1.20169 0
M  V30 1386 H 131.059 3.43169 3.67755 0
M  V30 1387 H 130.759 5.05204 3.00071 0
M  V30 1388 H 132.283 4.72099 3.8724 0
M  V30 1389 H 133.697 5.46674 1.72687 0
M  V30 1390 H 132.094 5.90515 1.06826 0
M  V30 1391 H 133.164 4.84724 0.130749 0
M  V30 1392 N 134.507 -0.190092 1.56449 0
M  V30 1393 C 135.47 -1.21925 1.9408 0
M  V30 1394 C 136.47 -1.38176 0.822431 0
M  V30 1395 O 137.66 -1.35903 1.08977 0
M  V30 1396 C 134.792 -2.58773 2.21922 0
M  V30 1397 H 135.985 -0.897464 2.86157 0
M  V30 1398 H 133.538 -0.43181 1.50217 0
M  V30 1399 H 134.273 -2.95998 1.32499 0
M  V30 1400 H 134.058 -2.48348 3.03424 0
M  V30 1401 H 135.548 -3.32978 2.52022 0
M  V30 1402 N 135.985 -1.50799 -0.457987 0
M  V30 1403 C 136.948 -1.7005 -1.53674 0
M  V30 1404 C 137.948 -0.570881 -1.50325 0
M  V30 1405 O 139.138 -0.838126 -1.52712 0
M  V30 1406 C 136.27 -1.73788 -2.93276 0
M  V30 1407 H 137.463 -2.66306 -1.37917 0
M  V30 1408 H 135.016 -1.40477 -0.685271 0
M  V30 1409 H 135.751 -0.792717 -3.14462 0
M  V30 1410 H 135.536 -2.55864 -2.97113 0
M  V30 1411 H 137.026 -1.90591 -3.71571 0
M  V30 1412 N 137.463 0.71206 -1.40597 0
M  V30 1413 C 138.688 1.50617 -1.42581 0
M  V30 1414 C 139.113 1.88079 -0.0282102 0
M  V30 1415 O 138.471 1.53511 0.964579 0
M  V30 1416 C 138.519 2.7557 -2.3258 0
M  V30 1417 O 137.623 3.72414 -1.77148 0
M  V30 1418 H 136.964 0.453966 -0.484573 0
M  V30 1419 H 139.494 0.876649 -1.84868 0
M  V30 1420 H 139.504 3.2406 -2.47889 0
M  V30 1421 H 138.179 2.47639 -3.34138 0
M  V30 1422 H 136.756 3.31276 -1.71204 0
M  V30 1423 N 138.941 1.26152 0.944643 0
M  V30 1424 C 139.904 1.07474 2.0244 0
M  V30 1425 C 140.904 0.0242064 1.60782 0
M  V30 1426 O 142.094 0.267302 1.72137 0
M  V30 1427 C 139.226 0.633956 3.34953 0
M  V30 1428 H 140.419 2.03336 2.20442 0
M  V30 1429 H 137.972 1.087 1.12312 0
M  V30 1430 H 138.707 -0.326811 3.22649 0
M  V30 1431 H 138.492 1.39247 3.66542 0
M  V30 1432 H 139.982 0.52501 4.14287 0
M  V30 1433 N 140.419 -1.14872 1.07899 0
M  V30 1434 C 141.366 -2.19791 0.704319 0
M  V30 1435 C 142.336 -1.63238 -0.306987 0
M  V30 1436 O 143.521 -1.8983 -0.192171 0
M  V30 1437 C 140.661 -3.44911 0.114244 0
M  V30 1438 C 139.774 -4.15637 1.1777 0
M  V30 1439 C 138.909 -5.28324 0.552037 0
M  V30 1440 C 137.948 -5.90875 1.59789 0
M  V30 1441 N 137.085 -6.95022 0.994404 0
M  V30 1442 H 141.925 -2.5119 1.60336 0
M  V30 1443 H 139.462 -1.23356 0.801352 0
M  V30 1444 H 141.42 -4.16477 -0.245544 0
M  V30 1445 H 140.05 -3.14011 -0.74813 0
M  V30 1446 H 139.102 -3.42512 1.65499 0
M  V30 1447 H 140.414 -4.5823 1.97046 0
M  V30 1448 H 139.568 -6.06538 0.1402 0
M  V30 1449 H 138.307 -4.86939 -0.272431 0
M  V30 1450 H 137.312 -5.11369 2.01945 0
M  V30 1451 H 138.537 -6.34337 2.42474 0
M  V30 1452 H 136.483 -6.55722 0.190939 0
M  V30 1453 H 136.4 -7.36073 1.72432 0
M  V30 1454 H 137.668 -7.77123 0.608253 0
M  V30 1455 N 141.898 -0.863906 -1.31812 0
M  V30 1456 C 143.314 -0.555004 -1.49639 0
M  V30 1457 C 143.514 0.912266 -1.79666 0
M  V30 1458 O 142.57 1.69479 -1.87171 0
M  V30 1459 C 143.883 -1.44998 -2.63431 0
M  V30 1460 C 145.431 -1.45138 -2.77316 0
M  V30 1461 C 145.906 -2.33179 -3.94197 0
M  V30 1462 N 147.397 -2.31025 -4.01474 0
M  V30 1463 C 148.132 -2.95871 -4.9117 0
M  V30 1464 N 147.628 -3.69863 -5.8581 0
M  V30 1465 N 149.421 -2.85211 -4.84367 0
M  V30 1466 H 141.572 -1.81339 -1.10589 0
M  V30 1467 H 143.835 -0.77505 -0.545895 0
M  V30 1468 H 143.541 -2.49377 -2.48 0
M  V30 1469 H 143.415 -1.14409 -3.59431 0
M  V30 1470 H 145.802 -0.415201 -2.92164 0
M  V30 1471 H 145.883 -1.79747 -1.82001 0
M  V30 1472 H 145.527 -3.3687 -3.80107 0
M  V30 1473 H 145.457 -1.95897 -4.88807 0
M  V30 1474 H 147.948 -1.77238 -3.33759 0
M  V30 1475 H 148.261 -4.16486 -6.50968 0
M  V30 1476 H 146.606 -3.73971 -5.85808 0
M  V30 1477 H 149.797 -2.26948 -4.09405 0
M  V30 1478 H 149.97 -3.36027 -5.54066 0
M  V30 1479 N 143.376 1.44774 -0.622745 0
M  V30 1480 C 144.606 2.06187 -0.130532 0
M  V30 1481 C 145.014 1.46547 1.19669 0
M  V30 1482 O 144.357 0.579636 1.74316 0
M  V30 1483 C 144.419 3.59437 0.0674983 0
M  V30 1484 C 144.083 4.41496 -1.18026 0
M  V30 1485 C 145.08 4.75512 -2.102 0
M  V30 1486 C 142.765 4.82007 -1.41333 0
M  V30 1487 C 144.759 5.48912 -3.23998 0
M  V30 1488 C 142.446 5.55157 -2.55429 0
M  V30 1489 C 143.444 5.88528 -3.46589 0
M  V30 1490 O 143.132 6.60191 -4.58697 0
M  V30 1491 H 142.864 0.672045 -0.0730162 0
M  V30 1492 H 145.418 1.86768 -0.854802 0
M  V30 1493 H 143.648 3.77314 0.846825 0
M  V30 1494 H 145.337 4.02642 0.513209 0
M  V30 1495 H 146.103 4.4476 -1.93425 0
M  V30 1496 H 141.982 4.55457 -0.712709 0
M  V30 1497 H 145.526 5.74877 -3.95174 0
M  V30 1498 H 141.423 5.85324 -2.72151 0
M  V30 1499 H 142.191 6.78654 -4.57571 0
M  V30 1500 N 144.854 0.36279 1.53368 0
M  V30 1501 C 146.102 -0.227326 2.00817 0
M  V30 1502 C 146.423 -1.49511 1.25186 0
M  V30 1503 O 145.693 -1.92482 0.364348 0
M  V30 1504 H 144.273 -0.0869923 0.741917 0
M  V30 1505 H 146.935 0.488381 1.88682 0
M  V30 1506 H 146.031 -0.456273 3.08747 0
M  V30 1507 N 146.332 -1.57332 0.0918853 0
M  V30 1508 C 147.579 -1.94236 -0.572577 0
M  V30 1509 C 147.907 -0.973398 -1.6839 0
M  V30 1510 O 147.162 0.00756912 -1.95699 0
M  V30 1511 C 147.461 -3.37689 -1.17051 0
M  V30 1512 C 147.127 -4.50527 -0.183304 0
M  V30 1513 C 145.789 -4.81119 0.0882276 0
M  V30 1514 C 148.141 -5.18883 0.49095 0
M  V30 1515 C 145.469 -5.77395 1.04076 0
M  V30 1516 C 147.821 -6.1618 1.43193 0
M  V30 1517 C 146.485 -6.45179 1.71173 0
M  V30 1518 H 145.755 -0.710762 -0.209521 0
M  V30 1519 H 148.402 -1.9077 0.167036 0
M  V30 1520 H 146.707 -3.37718 -1.9863 0
M  V30 1521 H 148.404 -3.63543 -1.69227 0
M  V30 1522 H 144.994 -4.26681 -0.405124 0
M  V30 1523 H 149.178 -4.95427 0.294312 0
M  V30 1524 H 144.434 -5.98179 1.26457 0
M  V30 1525 H 148.608 -6.68243 1.96023 0
M  V30 1526 H 146.235 -7.1959 2.4514 0
M  V30 1527 N 147.81 0.181792 -1.56548 0
M  V30 1528 C 149.087 0.926765 -1.72251 0
M  V30 1529 C 149.467 2.00831 -0.650386 0
M  V30 1530 O 148.815 2.26008 0.336521 0
M  V30 1531 C 149.025 1.50106 -3.1507 0
M  V30 1532 C 150.373 1.97805 -3.75711 0
M  V30 1533 O 151.397 1.59922 -3.18282 0
M  V30 1534 O 150.256 2.67555 -4.76525 0
M  V30 1535 H 147.35 0.435506 -0.703039 0
M  V30 1536 H 149.896 0.170443 -1.68842 0
M  V30 1537 H 148.668 0.72212 -3.84579 0
M  V30 1538 H 148.291 2.32186 -3.22763 0
M  V30 1539 N 149.288 1.51039 0.449983 0
M  V30 1540 C 150.251 1.70863 1.5277 0
M  V30 1541 C 151.251 0.578846 1.5002 0
M  V30 1542 O 152.441 0.846213 1.52266 0
M  V30 1543 C 149.573 1.75341 2.9235 0
M  V30 1544 H 150.766 2.67034 1.36502 0
M  V30 1545 H 148.319 1.40838 0.677812 0
M  V30 1546 H 149.054 0.809383 3.14037 0
M  V30 1547 H 148.839 2.57436 2.95752 0
M  V30 1548 H 150.329 1.92559 3.70555 0
M  V30 1549 N 150.766 -0.704594 1.40972 0
M  V30 1550 C 152.012 -1.46675 1.40051 0
M  V30 1551 C 152.345 -1.94199 0.00641102 0
M  V30 1552 O 151.62 -1.68916 -0.964235 0
M  V30 1553 C 151.903 -2.68505 2.39952 0
M  V30 1554 C 151.756 -2.26805 3.88432 0
M  V30 1555 C 153.075 -3.70686 2.37233 0
M  V30 1556 H 150.194 -0.532015 0.510028 0
M  V30 1557 H 152.836 -0.803255 1.72185 0
M  V30 1558 H 150.986 -3.25114 2.1268 0
M  V30 1559 H 152.658 -1.75592 4.26574 0
M  V30 1560 H 150.901 -1.58685 4.03734 0
M  V30 1561 H 151.572 -3.14181 4.53866 0
M  V30 1562 H 154.048 -3.23731 2.61415 0
M  V30 1563 H 152.924 -4.53553 3.09162 0
M  V30 1564 H 153.185 -4.19754 1.38777 0
M  V30 1565 N 152.244 -1.26651 -0.937939 0
M  V30 1566 C 153.469 -1.15279 -1.72411 0
M  V30 1567 C 153.894 0.287866 -1.85884 0
M  V30 1568 O 153.252 1.20855 -1.35143 0
M  V30 1569 C 153.3 -1.83028 -3.10698 0
M  V30 1570 O 152.404 -1.12128 -3.96864 0
M  V30 1571 H 151.745 -0.401504 -0.528858 0
M  V30 1572 H 154.275 -1.67531 -1.1745 0
M  V30 1573 H 154.285 -1.89981 -3.6107 0
M  V30 1574 H 152.96 -2.87833 -3.00208 0
M  V30 1575 H 151.537 -1.13173 -3.55312 0
M  V30 1576 N 153.722 1.14298 -1.08507 0
M  V30 1577 C 154.685 2.17607 -0.719711 0
M  V30 1578 C 155.685 1.58907 0.245997 0
M  V30 1579 O 156.875 1.74181 0.0254081 0
M  V30 1580 C 154.007 3.40842 -0.0627695 0
M  V30 1581 H 155.2 2.51443 -1.63452 0
M  V30 1582 H 152.753 1.28963 -0.88307 0
M  V30 1583 H 153.488 3.12587 0.863716 0
M  V30 1584 H 153.273 3.84713 -0.757504 0
M  V30 1585 H 154.763 4.17221 0.177786 0
M  V30 1586 N 155.201 0.870884 1.31352 0
M  V30 1587 C 156.447 0.482987 1.96965 0
M  V30 1588 C 156.78 -0.962462 1.68672 0
M  V30 1589 O 156.055 -1.6779 0.98371 0
M  V30 1590 C 156.338 0.741752 3.52378 0
M  V30 1591 C 156.191 2.2368 3.9024 0
M  V30 1592 C 157.51 0.208838 4.39604 0
M  V30 1593 H 154.629 0.176955 0.715441 0
M  V30 1594 H 157.271 1.09229 1.55464 0
M  V30 1595 H 155.421 0.223149 3.87859 0
M  V30 1596 H 157.093 2.82273 3.64856 0
M  V30 1597 H 155.336 2.70901 3.38814 0
M  V30 1598 H 156.007 2.3685 4.98604 0
M  V30 1599 H 158.483 0.652529 4.10952 0
M  V30 1600 H 157.359 0.419336 5.47296 0
M  V30 1601 H 157.62 -0.889275 4.33064 0
M  V30 1602 N 156.679 -1.44442 0.630414 0
M  V30 1603 C 157.907 -2.06414 0.141671 0
M  V30 1604 C 158.322 -1.47105 -1.18345 0
M  V30 1605 O 157.679 -0.593662 -1.72574 0
M  V30 1606 C 157.73 -3.61494 0.0199784 0
M  V30 1607 O 157.451 -4.18594 1.29269 0
M  V30 1608 C 158.952 -4.40499 -0.497544 0
M  V30 1609 H 156.172 -0.666292 0.0793452 0
M  V30 1610 H 158.716 -1.85323 0.864614 0
M  V30 1611 H 156.871 -3.8185 -0.653402 0
M  V30 1612 H 157.285 -5.12026 1.13707 0
M  V30 1613 H 158.759 -5.49433 -0.531708 0
M  V30 1614 H 159.236 -4.11895 -1.52445 0
M  V30 1615 H 159.842 -4.25061 0.142562 0
M  V30 1616 N 158.157 -0.370918 -1.53173 0
M  V30 1617 C 159.568 0.107139 -1.86392 0
M  V30 1618 C 159.919 1.47714 -1.29132 0
M  V30 1619 O 159.044 2.07464 -0.615439 0
M  V30 1620 C 159.639 0.201187 -3.38202 0
M  V30 1621 C 158.198 0.623507 -3.712 0
M  V30 1622 C 157.345 -0.225978 -2.76378 0
M  V30 1623 H 160.296 -0.58951 -1.47345 0
M  V30 1624 H 160.317 1.02377 -3.66468 0
M  V30 1625 H 159.829 -0.796058 -3.79848 0
M  V30 1626 H 157.93 1.62879 -3.35114 0
M  V30 1627 H 158.043 0.394414 -4.77474 0
M  V30 1628 H 156.407 0.305962 -2.52856 0
M  V30 1629 H 157.19 -1.22086 -3.20858 0
M  V30 1630 N 159.635 1.57281 -0.100228 0
M  V30 1631 C 160.882 1.94537 0.562268 0
M  V30 1632 C 161.21 0.982315 1.67871 0
M  V30 1633 O 160.465 0.00280936 1.957 0
M  V30 1634 C 160.764 3.38305 1.15259 0
M  V30 1635 C 160.43 4.50618 0.159409 0
M  V30 1636 C 159.092 4.81066 -0.113741 0
M  V30 1637 C 161.444 5.18615 -0.518461 0
M  V30 1638 C 158.772 5.76835 -1.07137 0
M  V30 1639 C 161.124 6.15412 -1.46459 0
M  V30 1640 C 159.788 6.44262 -1.74592 0
M  V30 1641 H 159.058 0.711863 0.205748 0
M  V30 1642 H 161.705 1.90679 -0.17715 0
M  V30 1643 H 160.01 3.38766 1.96836 0
M  V30 1644 H 161.707 3.64435 1.67297 0
M  V30 1645 H 158.297 4.2689 0.382491 0
M  V30 1646 H 162.481 4.95264 -0.320581 0
M  V30 1647 H 157.737 5.975 -1.29628 0
M  V30 1648 H 161.911 6.67194 -1.99564 0
M  V30 1649 H 159.538 7.1828 -2.48953 0
M  V30 1650 N 161.113 -0.173488 1.56642 0
M  V30 1651 C 162.343 -0.904781 1.85734 0
M  V30 1652 C 162.751 -1.76431 0.68328 0
M  V30 1653 O 162.094 -1.802 -0.356865 0
M  V30 1654 C 162.156 -1.83382 3.09211 0
M  V30 1655 C 161.82 -1.15411 4.42187 0
M  V30 1656 C 162.817 -0.520609 5.17287 0
M  V30 1657 C 160.502 -1.15151 4.88923 0
M  V30 1658 C 162.496 0.106412 6.37311 0
M  V30 1659 C 160.183 -0.520664 6.08878 0
M  V30 1660 C 161.181 0.107196 6.82916 0
M  V30 1661 O 160.869 0.728102 8.00596 0
M  V30 1662 H 160.601 -0.268408 0.62043 0
M  V30 1663 H 163.155 -0.179096 2.04618 0
M  V30 1664 H 161.385 -2.59976 2.86268 0
M  V30 1665 H 163.074 -2.43476 3.24768 0
M  V30 1666 H 163.84 -0.514606 4.82262 0
M  V30 1667 H 159.719 -1.62961 4.31236 0
M  V30 1668 H 163.263 0.597081 6.9504 0
M  V30 1669 H 159.16 -0.524242 6.43368 0
M  V30 1670 H 159.928 0.627138 8.16094 0
M  V30 1671 N 162.591 -1.51276 -0.441967 0
M  V30 1672 C 163.821 -1.67273 -1.21257 0
M  V30 1673 C 164.229 -0.367624 -1.85594 0
M  V30 1674 O 163.572 0.663349 -1.71305 0
M  V30 1675 C 163.634 -2.72807 -2.34129 0
M  V30 1676 C 163.298 -4.1554 -1.90198 0
M  V30 1677 C 164.295 -5.00471 -1.40801 0
M  V30 1678 C 161.98 -4.61616 -1.9803 0
M  V30 1679 C 163.974 -6.29536 -0.998174 0
M  V30 1680 C 161.661 -5.90679 -1.56658 0
M  V30 1681 C 162.659 -6.74466 -1.07633 0
M  V30 1682 O 162.347 -8.01116 -0.668459 0
M  V30 1683 H 162.079 -0.564614 -0.371734 0
M  V30 1684 H 164.633 -1.9843 -0.530521 0
M  V30 1685 H 162.863 -2.36954 -3.05597 0
M  V30 1686 H 164.552 -2.77729 -2.96009 0
M  V30 1687 H 165.318 -4.66079 -1.34148 0
M  V30 1688 H 161.197 -3.96526 -2.35135 0
M  V30 1689 H 164.741 -6.94885 -0.61482 0
M  V30 1690 H 160.638 -6.24586 -1.62979 0
M  V30 1691 H 161.406 -8.14633 -0.794722 0
M  V30 1692 N 164.069 0.697108 -1.41344 0
M  V30 1693 C 165.48 1.27697 -1.36199 0
M  V30 1694 C 165.831 1.9615 -0.0443463 0
M  V30 1695 O 164.956 1.98689 0.857419 0
M  V30 1696 C 165.551 2.32223 -2.46694 0
M  V30 1697 C 164.11 2.8579 -2.44952 0
M  V30 1698 C 163.257 1.59807 -2.26621 0
M  V30 1699 H 166.208 0.491968 -1.50882 0
M  V30 1700 H 166.229 3.1348 -2.15664 0
M  V30 1701 H 165.741 1.82373 -3.42581 0
M  V30 1702 H 163.842 3.3982 -1.52817 0
M  V30 1703 H 163.955 3.36325 -3.41207 0
M  V30 1704 H 162.319 1.8556 -1.7447 0
M  V30 1705 H 163.102 1.11956 -3.24532 0
M  V30 1706 N 165.547 1.27147 0.931209 0
M  V30 1707 C 166.794 1.13278 1.67852 0
M  V30 1708 C 167.122 -0.32204 1.91815 0
M  V30 1709 O 166.377 -1.25224 1.50391 0
M  V30 1710 C 166.676 1.8579 3.05314 0
M  V30 1711 C 166.342 3.35657 3.01073 0
M  V30 1712 C 165.004 3.76536 2.99623 0
M  V30 1713 C 167.356 4.31299 2.92627 0
M  V30 1714 C 164.684 5.11426 2.87506 0
M  V30 1715 C 167.036 5.66242 2.82051 0
M  V30 1716 C 165.7 6.06418 2.7895 0
M  V30 1717 H 164.97 0.414515 0.614214 0
M  V30 1718 H 167.617 1.57712 1.08624 0
M  V30 1719 H 165.922 1.33854 3.68226 0
M  V30 1720 H 167.619 1.72491 3.62005 0
M  V30 1721 H 164.209 3.03146 3.02986 0
M  V30 1722 H 168.393 4.00692 2.92848 0
M  V30 1723 H 163.649 5.41705 2.83489 0
M  V30 1724 H 167.823 6.40026 2.74481 0
M  V30 1725 H 165.45 7.10895 2.69318 0
M  V30 1726 N 167.025 -1.13721 1.09112 0
M  V30 1727 C 168.25 -1.89314 0.847053 0
M  V30 1728 C 168.675 -1.78416 -0.595774 0
M  V30 1729 O 168.033 -1.12942 -1.41823 0
M  V30 1730 C 168.081 -3.3701 1.28284 0
M  V30 1731 O 167.185 -4.10054 0.439267 0
M  V30 1732 H 166.526 -0.588745 0.307044 0
M  V30 1733 H 169.056 -1.43902 1.45442 0
M  V30 1734 H 169.066 -3.87834 1.26683 0
M  V30 1735 H 167.741 -3.4426 2.33363 0
M  V30 1736 H 166.318 -3.69266 0.519312 0
M  V30 1737 N 168.503 -0.877838 -1.30888 0
M  V30 1738 C 169.75 -0.492696 -1.96415 0
M  V30 1739 C 170.078 0.956671 -1.69346 0
M  V30 1740 O 169.333 1.68993 -0.986913 0
M  V30 1741 C 169.632 -0.705748 -3.50363 0
M  V30 1742 C 169.298 -2.1291 -3.97467 0
M  V30 1743 C 167.96 -2.51834 -4.1004 0
M  V30 1744 C 170.312 -3.05702 -4.22132 0
M  V30 1745 C 167.64 -3.82775 -4.44635 0
M  V30 1746 C 169.992 -4.36166 -4.58194 0
M  V30 1747 C 168.656 -4.74993 -4.68975 0
M  V30 1748 H 167.926 -0.18029 -0.718733 0
M  V30 1749 H 170.573 -1.11233 -1.55883 0
M  V30 1750 H 168.878 -0.00303058 -3.918 0
M  V30 1751 H 170.575 -0.387456 -3.99124 0
M  V30 1752 H 167.165 -1.81694 -3.88182 0
M  V30 1753 H 171.349 -2.76853 -4.11906 0
M  V30 1754 H 166.605 -4.12609 -4.51181 0
M  V30 1755 H 170.779 -5.08111 -4.76231 0
M  V30 1756 H 168.406 -5.76495 -4.95537 0
M  V30 1757 N 169.982 1.44106 -0.638065 0
M  V30 1758 C 170.892 2.34513 0.0637334 0
M  V30 1759 C 171.908 1.53018 0.828346 0
M  V30 1760 O 173.084 1.85723 0.779036 0
M  V30 1761 C 170.149 3.31095 1.02844 0
M  V30 1762 C 169.21 4.28497 0.26244 0
M  V30 1763 C 168.443 5.20465 1.1812 0
M  V30 1764 O 168.666 5.16514 2.42011 0
M  V30 1765 O 167.6 5.98251 0.661774 0
M  V30 1766 H 171.426 2.95989 -0.68003 0
M  V30 1767 H 169.011 1.43994 -0.398252 0
M  V30 1768 H 170.893 3.90526 1.58327 0
M  V30 1769 H 169.568 2.72144 1.7527 0
M  V30 1770 H 168.475 3.72592 -0.335602 0
M  V30 1771 H 169.808 4.90388 -0.421936 0
M  V30 1772 N 171.46 0.379036 1.52974 0
M  V30 1773 C 172.37 -0.468639 2.29872 0
M  V30 1774 C 173.386 -1.08067 1.36373 0
M  V30 1775 O 174.562 -1.08871 1.69438 0
M  V30 1776 C 171.627 -1.58594 3.083 0
M  V30 1777 C 170.688 -1.00007 4.17489 0
M  V30 1778 C 169.921 -2.06413 4.92168 0
M  V30 1779 O 170.144 -3.27751 4.66835 0
M  V30 1780 O 169.078 -1.68717 5.7777 0
M  V30 1781 H 172.904 0.157508 3.03291 0
M  V30 1782 H 170.489 0.143035 1.48714 0
M  V30 1783 H 172.371 -2.23525 3.57232 0
M  V30 1784 H 171.046 -2.19724 2.37703 0
M  V30 1785 H 169.953 -0.314299 3.72777 0
M  V30 1786 H 171.286 -0.433135 4.90291 0
M  V30 1787 N 172.938 -1.57226 0.108567 0
M  V30 1788 C 173.888 -2.11305 -0.856396 0
M  V30 1789 C 174.872 -1.03129 -1.23504 0
M  V30 1790 O 176.064 -1.29381 -1.20787 0
M  V30 1791 C 173.193 -2.70771 -2.11041 0
M  V30 1792 C 172.279 -3.86011 -1.7566 0
M  V30 1793 N 172.67 -4.93492 -1.10902 0
M  V30 1794 C 170.968 -3.95999 -2.05185 0
M  V30 1795 C 171.669 -5.73984 -0.944308 0
M  V30 1796 N 170.645 -5.2346 -1.46596 0
M  V30 1797 H 174.447 -2.91784 -0.352002 0
M  V30 1798 H 171.961 -1.62126 -0.0942324 0
M  V30 1799 H 173.958 -3.07851 -2.81128 0
M  V30 1800 H 172.618 -1.91751 -2.62034 0
M  V30 1801 H 173.629 -5.1208 -0.774235 0
M  V30 1802 H 170.306 -3.28007 -2.58298 0
M  V30 1803 H 171.696 -6.70479 -0.436813 0
M  V30 1804 N 174.416 0.165178 -1.56732 0
M  V30 1805 C 175.656 0.887231 -1.8414 0
M  V30 1806 C 176.02 1.79159 -0.690353 0
M  V30 1807 O 177.221 2.55172 -0.845032 0
M  V30 1808 C 175.492 1.65674 -3.16681 0
M  V30 1809 S 177.051 2.42671 -3.6559 0
M  V30 1810 H 173.869 0.297042 -0.645978 0
M  V30 1811 H 176.471 0.148439 -1.94936 0
M  V30 1812 H 175.175 0.983507 -3.98441 0
M  V30 1813 H 174.706 2.43679 -3.08843 0
M  V30 1814 H 176.721 3.67499 -3.33406 0
M  V30 1815 N 175.894 1.51508 0.433938 0
M  V30 1816 C 177.171 1.54888 1.19453 0
M  V30 1817 C 177.551 0.315154 2.08734 0
M  V30 1818 O 176.899 -0.699558 2.17528 0
M  V30 1819 C 177.109 2.86467 1.99342 0
M  V30 1820 C 178.457 3.38545 2.56267 0
M  V30 1821 O 179.481 2.88041 2.0955 0
M  V30 1822 O 178.34 4.26675 3.41483 0
M  V30 1823 H 175.434 0.622863 0.544032 0
M  V30 1824 H 177.98 1.63823 0.442732 0
M  V30 1825 H 176.752 3.67718 1.33788 0
M  V30 1826 H 176.375 2.8071 2.8158 0
M  V30 1827 N 177.372 -0.689602 1.41712 0
M  V30 1828 C 178.322 -1.79571 1.40493 0
M  V30 1829 C 179.306 -1.58473 0.278409 0
M  V30 1830 O 180.498 -1.69204 0.519532 0
M  V30 1831 C 177.627 -3.17923 1.29536 0
M  V30 1832 C 176.713 -3.44695 2.47075 0
M  V30 1833 N 177.104 -3.42132 3.72531 0
M  V30 1834 C 175.402 -3.75269 2.41017 0
M  V30 1835 C 176.103 -3.67976 4.50521 0
M  V30 1836 N 175.079 -3.88014 3.80718 0
M  V30 1837 H 178.881 -1.75961 2.35404 0
M  V30 1838 H 176.395 -0.889839 1.35851 0
M  V30 1839 H 178.392 -3.97167 1.26745 0
M  V30 1840 H 177.052 -3.22741 0.356153 0
M  V30 1841 H 178.063 -3.22375 4.05333 0
M  V30 1842 H 174.74 -3.87421 1.55599 0
M  V30 1843 H 176.13 -3.7208 5.59469 0
M  V30 1844 N 178.85 -1.27639 -0.924453 0
M  V30 1845 C 180.08 -1.16819 -1.70402 0
M  V30 1846 C 180.488 0.277191 -1.87158 0
M  V30 1847 O 179.831 1.20025 -1.39067 0
M  V30 1848 C 179.893 -1.78305 -3.12166 0
M  V30 1849 C 179.557 -3.27502 -3.18734 0
M  V30 1850 C 180.554 -4.2409 -3.00738 0
M  V30 1851 C 178.239 -3.68269 -3.4159 0
M  V30 1852 C 180.233 -5.59422 -3.05492 0
M  V30 1853 C 177.92 -5.0373 -3.45977 0
M  V30 1854 C 178.918 -5.99116 -3.27946 0
M  V30 1855 O 178.606 -7.32108 -3.32074 0
M  V30 1856 H 178.338 -0.406931 -0.539799 0
M  V30 1857 H 180.892 -1.69078 -1.16626 0
M  V30 1858 H 179.122 -1.20528 -3.67437 0
M  V30 1859 H 180.811 -1.62154 -3.72103 0
M  V30 1860 H 181.577 -3.93931 -2.82919 0
M  V30 1861 H 177.456 -2.94496 -3.54673 0
M  V30 1862 H 181 -6.33852 -2.91337 0
M  V30 1863 H 176.897 -5.33543 -3.63321 0
M  V30 1864 H 177.665 -7.40598 -3.48507 0
M  V30 1865 N 180.328 1.1314 -1.09713 0
M  V30 1866 C 181.744 1.36477 -0.827423 0
M  V30 1867 C 181.944 1.93654 0.556817 0
M  V30 1868 O 181 2.15791 1.31112 0
M  V30 1869 C 182.313 2.31334 -1.92106 0
M  V30 1870 C 183.861 2.44943 -1.94864 0
M  V30 1871 C 184.336 3.4311 -3.0338 0
M  V30 1872 N 185.827 3.50662 -3.02639 0
M  V30 1873 C 186.562 4.2651 -3.83246 0
M  V30 1874 N 186.058 5.05485 -4.73768 0
M  V30 1875 N 187.851 4.2184 -3.71493 0
M  V30 1876 H 180.002 0.743807 -1.9895 0
M  V30 1877 H 182.265 0.389823 -0.864143 0
M  V30 1878 H 181.971 1.96483 -2.91698 0
M  V30 1879 H 181.845 3.31381 -1.80184 0
M  V30 1880 H 184.232 2.79079 -0.959099 0
M  V30 1881 H 184.313 1.4481 -2.10864 0
M  V30 1882 H 183.957 3.09704 -4.02549 0
M  V30 1883 H 183.887 4.43055 -2.84622 0
M  V30 1884 H 186.378 2.94315 -2.37039 0
M  V30 1885 H 186.691 5.60675 -5.3185 0
M  V30 1886 H 185.036 5.04708 -4.77802 0
M  V30 1887 H 188.227 3.5922 -3.00131 0
M  V30 1888 H 188.4 4.80697 -4.3455 0
M  V30 1889 N 181.806 0.884767 1.30421 0
M  V30 1890 C 182.769 0.356277 2.26414 0
M  V30 1891 C 183.769 -0.501124 1.52792 0
M  V30 1892 O 184.959 -0.30831 1.7145 0
M  V30 1893 C 182.091 -0.492316 3.37326 0
M  V30 1894 H 183.284 1.20389 2.74675 0
M  V30 1895 H 180.837 0.661607 1.41607 0
M  V30 1896 H 181.572 -1.36052 2.94381 0
M  V30 1897 H 181.357 0.121832 3.91911 0
M  V30 1898 H 182.847 -0.853871 4.08777 0
M  V30 1899 N 183.284 -1.43765 0.645699 0
M  V30 1900 C 184.533 -2.01116 0.153412 0
M  V30 1901 C 184.846 -1.51493 -1.23731 0
M  V30 1902 O 186.052 -2.01067 -1.8244 0
M  V30 1903 C 184.508 -3.59206 0.223473 0
M  V30 1904 C 184.116 -4.17823 1.61642 0
M  V30 1905 C 185.86 -4.23972 -0.211597 0
M  V30 1906 C 183.767 -5.68183 1.64081 0
M  V30 1907 H 182.697 -0.752093 0.0535891 0
M  V30 1908 H 185.348 -1.6482 0.806633 0
M  V30 1909 H 183.73 -3.92867 -0.497118 0
M  V30 1910 H 184.904 -3.95674 2.36176 0
M  V30 1911 H 183.219 -3.65399 1.99681 0
M  V30 1912 H 185.816 -5.34275 -0.213112 0
M  V30 1913 H 186.159 -3.97352 -1.24165 0
M  V30 1914 H 186.692 -3.95166 0.456988 0
M  V30 1915 H 183.431 -5.99559 2.64971 0
M  V30 1916 H 182.951 -5.9241 0.938611 0
M  V30 1917 H 184.63 -6.32085 1.3812 0
M  V30 1918 N 184.763 -0.387143 -1.52771 0
M  V30 1919 C 186.012 0.19697 -2.00736 0
M  V30 1920 C 186.325 1.48082 -1.27793 0
M  V30 1921 O 187.531 2.14485 -1.66458 0
M  V30 1922 C 185.987 0.401568 -3.57653 0
M  V30 1923 C 185.595 -0.868907 -4.39493 0
M  V30 1924 C 187.339 0.942164 -4.13912 0
M  V30 1925 C 185.246 -0.632705 -5.88006 0
M  V30 1926 H 184.176 0.0773827 -0.750019 0
M  V30 1927 H 186.827 -0.50921 -1.76293 0
M  V30 1928 H 185.209 1.16954 -3.78335 0
M  V30 1929 H 186.383 -1.64133 -4.30577 0
M  V30 1930 H 184.698 -1.33429 -3.94443 0
M  V30 1931 H 187.295 1.13455 -5.22525 0
M  V30 1932 H 187.638 1.9106 -3.69867 0
M  V30 1933 H 188.171 0.233814 -3.97112 0
M  V30 1934 H 184.91 -1.57208 -6.36369 0
M  V30 1935 H 184.43 0.100825 -5.99715 0
M  V30 1936 H 186.109 -0.26642 -6.46451 0
M  V30 1937 N 186.241 1.57166 -0.116904 0
M  V30 1938 C 187.518 1.86645 0.585049 0
M  V30 1939 C 187.898 1.0177 1.84949 0
M  V30 1940 O 187.246 0.0960379 2.28298 0
M  V30 1941 C 187.456 3.37736 0.879507 0
M  V30 1942 C 188.804 4.06289 1.23348 0
M  V30 1943 O 189.828 3.42743 0.969836 0
M  V30 1944 O 188.687 5.18455 1.7282 0
M  V30 1945 H 185.781 0.772593 0.295007 0
M  V30 1946 H 188.327 1.69025 -0.151249 0
M  V30 1947 H 187.099 3.91296 -0.0166136 0
M  V30 1948 H 186.722 3.6078 1.67103 0
M  V30 1949 N 187.719 -0.156864 1.56817 0
M  V30 1950 C 188.944 -0.890331 1.87318 0
M  V30 1951 C 189.369 -1.74394 0.704855 0
M  V30 1952 O 188.727 -1.77972 -0.345786 0
M  V30 1953 C 188.775 -1.73102 3.16336 0
M  V30 1954 O 187.879 -2.83422 2.99576 0
M  V30 1955 H 187.22 -0.24857 0.615718 0
M  V30 1956 H 189.75 -0.150649 2.04045 0
M  V30 1957 H 189.76 -2.12803 3.48107 0
M  V30 1958 H 188.435 -1.10412 4.00976 0
M  V30 1959 H 187.012 -2.47199 2.7919 0
M  V30 1960 N 189.197 -1.51736 -0.425897 0
M  V30 1961 C 190.16 -1.73271 -1.50032 0
M  V30 1962 C 191.16 -0.602639 -1.4908 0
M  V30 1963 O 192.35 -0.87033 -1.509 0
M  V30 1964 C 189.482 -1.79969 -2.89523 0
M  V30 1965 H 190.675 -2.69172 -1.32237 0
M  V30 1966 H 188.228 -1.41899 -0.65532 0
M  V30 1967 H 188.963 -0.859241 -3.1271 0
M  V30 1968 H 188.748 -2.62109 -2.91619 0
M  V30 1969 H 190.238 -1.9843 -3.67444 0
M  V30 1970 N 190.675 0.682077 -1.42076 0
M  V30 1971 C 191.952 1.43755 -1.32642 0
M  V30 1972 C 192.332 2.11063 0.0396611 0
M  V30 1973 O 191.68 2.02701 1.05474 0
M  V30 1974 C 191.89 2.44596 -2.48946 0
M  V30 1975 C 193.238 3.09454 -2.9073 0
M  V30 1976 O 194.262 2.54922 -2.48783 0
M  V30 1977 O 193.121 4.08253 -3.63307 0
M  V30 1978 H 190.215 0.640857 -0.522715 0
M  V30 1979 H 192.761 0.711415 -1.54068 0
M  V30 1980 H 191.533 1.93609 -3.40046 0
M  V30 1981 H 191.156 3.24701 -2.29467 0
M  V30 1982 N 192.153 1.28127 0.917671 0
M  V30 1983 C 193.401 1.14825 1.66312 0
M  V30 1984 C 193.722 -0.304379 1.9261 0
M  V30 1985 O 192.992 -1.21149 1.53947 0
M  V30 1986 H 191.572 0.421953 0.616413 0
M  V30 1987 H 194.234 1.608 1.10134 0
M  V30 1988 H 193.33 1.68489 2.62712 0
M  V30 1989 N 193.631 -1.12557 1.10312 0
M  V30 1990 C 194.561 -2.20341 0.772798 0
M  V30 1991 C 195.542 -1.68198 -0.25365 0
M  V30 1992 O 196.727 -1.93831 -0.119699 0
M  V30 1993 C 193.857 -3.46709 0.202443 0
M  V30 1994 C 192.811 -4.11996 1.15943 0
M  V30 1995 C 192.137 -5.328 0.450345 0
M  V30 1996 C 193.437 -4.5828 2.50552 0
M  V30 1997 H 195.131 -2.48229 1.674 0
M  V30 1998 H 192.677 -1.19308 0.806326 0
M  V30 1999 H 194.63 -4.2138 -0.0407752 0
M  V30 2000 H 193.354 -3.18245 -0.734001 0
M  V30 2001 H 192.013 -3.39305 1.38808 0
M  V30 2002 H 191.661 -5.00602 -0.490531 0
M  V30 2003 H 191.361 -5.7743 1.08851 0
M  V30 2004 H 192.885 -6.10219 0.215642 0
M  V30 2005 H 194.299 -5.2433 2.31843 0
M  V30 2006 H 192.696 -5.13683 3.10242 0
M  V30 2007 H 193.766 -3.72329 3.10643 0
M  V30 2008 N 195.109 -0.891671 -1.2995 0
M  V30 2009 C 196.52 -0.563104 -1.78006 0
M  V30 2010 C 196.871 0.920978 -1.73241 0
M  V30 2011 O 195.996 1.71987 -1.31337 0
M  V30 2012 C 196.591 -1.01539 -3.23226 0
M  V30 2013 C 195.15 -0.738124 -3.69092 0
M  V30 2014 C 194.297 -1.19461 -2.50249 0
M  V30 2015 H 197.248 -1.07522 -1.16725 0
M  V30 2016 H 197.269 -0.347217 -3.78912 0
M  V30 2017 H 196.781 -2.09555 -3.26662 0
M  V30 2018 H 194.882 0.329766 -3.71138 0
M  V30 2019 H 194.995 -1.33037 -4.60259 0
M  V30 2020 H 193.359 -0.613787 -2.47194 0
M  V30 2021 H 194.142 -2.28265 -2.56417 0
M  V30 2022 N 196.587 1.43421 -0.653314 0
M  V30 2023 C 197.52 2.2803 0.0879804 0
M  V30 2024 C 198.498 1.39833 0.82979 0
M  V30 2025 O 199.682 1.69275 0.829341 0
M  V30 2026 C 196.809 3.19247 1.13132 0
M  V30 2027 C 195.855 4.23704 0.487546 0
M  V30 2028 S 196.688 5.30377 -0.738961 0
M  V30 2029 C 197.844 6.25162 0.30384 0
M  V30 2030 H 198.077 2.90554 -0.629739 0
M  V30 2031 H 195.61 1.47934 -0.442156 0
M  V30 2032 H 197.568 3.72346 1.72827 0
M  V30 2033 H 196.229 2.55901 1.82136 0
M  V30 2034 H 195.422 4.87631 1.27407 0
M  V30 2035 H 195.024 3.73983 -0.0352915 0
M  V30 2036 H 197.316 6.67321 1.17 0
M  V30 2037 H 198.259 7.07463 -0.300402 0
M  V30 2038 H 198.667 5.60864 0.63969 0
M  V30 2039 N 198.065 0.39524 1.52563 0
M  V30 2040 C 199.311 -0.185318 2.01952 0
M  V30 2041 C 199.644 -1.45964 1.28095 0
M  V30 2042 O 198.919 -1.90689 0.38315 0
M  V30 2043 C 199.202 -0.447193 3.57312 0
M  V30 2044 C 199.055 0.842828 4.41833 0
M  V30 2045 C 200.374 -1.23529 4.22408 0
M  V30 2046 H 197.493 -0.0658788 0.73405 0
M  V30 2047 H 200.135 0.525975 1.82575 0
M  V30 2048 H 198.285 -1.05312 3.73954 0
M  V30 2049 H 199.957 1.4795 4.36931 0
M  V30 2050 H 198.2 1.45686 4.08605 0
M  V30 2051 H 198.871 0.614165 5.48573 0
M  V30 2052 H 201.347 -0.722445 4.0978 0
M  V30 2053 H 200.223 -1.38727 5.3108 0
M  V30 2054 H 200.484 -2.25213 3.80436 0
M  V30 2055 N 199.544 -1.57102 0.125237 0
M  V30 2056 C 200.79 -1.95697 -0.532035 0
M  V30 2057 C 201.123 -1.009 -1.6593 0
M  V30 2058 O 200.398 -0.047347 -1.94442 0
M  V30 2059 C 200.681 -3.44181 -1.05884 0
M  V30 2060 C 200.534 -4.49752 0.0654392 0
M  V30 2061 C 201.853 -3.94655 -1.9477 0
M  V30 2062 H 198.972 -0.711571 -0.191925 0
M  V30 2063 H 201.614 -1.88923 0.20206 0
M  V30 2064 H 199.764 -3.50085 -1.68442 0
M  V30 2065 H 201.436 -4.55943 0.700982 0
M  V30 2066 H 199.679 -4.27653 0.727709 0
M  V30 2067 H 200.35 -5.50924 -0.344505 0
M  V30 2068 H 202.826 -3.91094 -1.42074 0
M  V30 2069 H 201.702 -4.99057 -2.28546 0
M  V30 2070 H 201.963 -3.35718 -2.87656 0
M  V30 2071 N 201.022 0.148545 -1.56898 0
M  V30 2072 C 202.252 0.875118 -1.8715 0
M  V30 2073 C 202.66 1.75322 -0.711262 0
M  V30 2074 O 202.003 1.80745 0.328151 0
M  V30 2075 C 202.065 1.7844 -3.12089 0
M  V30 2076 C 201.729 1.08361 -4.43967 0
M  V30 2077 C 202.726 0.438247 -5.1805 0
M  V30 2078 C 200.411 1.07358 -4.90693 0
M  V30 2079 C 202.405 -0.20779 -6.37061 0
M  V30 2080 C 200.092 0.42373 -6.09629 0
M  V30 2081 C 201.09 -0.215829 -6.82659 0
M  V30 2082 O 200.778 -0.855378 -7.99336 0
M  V30 2083 H 200.51 0.258504 -0.624621 0
M  V30 2084 H 203.064 0.14652 -2.04877 0
M  V30 2085 H 201.294 2.55389 -2.90367 0
M  V30 2086 H 202.983 2.38279 -3.286 0
M  V30 2087 H 203.749 0.437817 -4.8302 0
M  V30 2088 H 199.628 1.5608 -4.33774 0
M  V30 2089 H 203.172 -0.70758 -6.94002 0
M  V30 2090 H 199.069 0.421822 -6.4412 0
M  V30 2091 H 199.837 -0.756892 -8.14993 0
M  V30 2092 N 202.5 1.5196 0.417844 0
M  V30 2093 C 203.448 1.75278 1.52907 0
M  V30 2094 C 204.442 0.619611 1.57662 0
M  V30 2095 O 205.648 0.801457 1.61173 0
M  V30 2096 H 202.023 0.554141 0.508362 0
M  V30 2097 H 203.994 2.68389 1.30422 0
M  V30 2098 C 202.743 1.91262 2.90369 0
M  V30 2099 H 202.066 2.77872 2.8745 0
M  V30 2100 H 203.506 2.11581 3.67436 0
M  V30 2101 C 201.965 0.677431 3.30019 0
M  V30 2102 O 202.495 -0.158799 4.01386 0
M  V30 2103 N 200.701 0.515851 2.85985 0
M  V30 2104 H 200.248 1.19744 2.28077 0
M  V30 2105 H 200.206 -0.309315 3.12875 0
M  V30 2106 N 203.978 -0.674533 1.42435 0
M  V30 2107 C 205.227 -1.43034 1.42212 0
M  V30 2108 C 205.54 -1.95555 0.0420788 0
M  V30 2109 O 206.746 -2.71374 -0.0827558 0
M  V30 2110 C 205.202 -2.58748 2.50155 0
M  V30 2111 C 204.81 -2.12925 3.94166 0
M  V30 2112 C 206.554 -3.36257 2.59098 0
M  V30 2113 C 204.461 -3.25723 4.93618 0
M  V30 2114 H 203.391 -0.537345 0.528939 0
M  V30 2115 H 206.042 -0.73024 1.68344 0
M  V30 2116 H 204.424 -3.31128 2.17188 0
M  V30 2117 H 205.598 -1.47697 4.36488 0
M  V30 2118 H 203.913 -1.48354 3.89076 0
M  V30 2119 H 206.51 -4.20264 3.30578 0
M  V30 2120 H 206.853 -3.82866 1.63461 0
M  V30 2121 H 207.386 -2.70947 2.9126 0
M  V30 2122 H 204.125 -2.84105 5.90732 0
M  V30 2123 H 203.645 -3.89732 4.55926 0
M  V30 2124 H 205.324 -3.91186 5.15347 0
M  V30 2125 N 205.456 -1.28612 -0.910864 0
M  V30 2126 C 206.867 -1.14406 -1.47541 0
M  V30 2127 C 207.218 0.264901 -1.94403 0
M  V30 2128 O 206.343 1.15942 -1.82719 0
M  V30 2129 C 206.938 -2.07073 -2.68153 0
M  V30 2130 C 205.497 -1.96923 -3.20778 0
M  V30 2131 C 204.644 -1.98646 -1.93481 0
M  V30 2132 H 207.595 -1.41259 -0.723291 0
M  V30 2133 H 207.616 -1.63642 -3.43514 0
M  V30 2134 H 207.128 -3.09611 -2.34015 0
M  V30 2135 H 205.229 -0.97433 -3.59635 0
M  V30 2136 H 205.342 -2.84026 -3.85832 0
M  V30 2137 H 203.706 -1.43093 -2.10705 0
M  V30 2138 H 204.489 -3.02868 -1.61634 0
M  V30 2139 N 206.934 1.1197 -1.10907 0
M  V30 2140 C 207.897 2.16031 -0.765707 0
M  V30 2141 C 208.897 1.59393 0.212235 0
M  V30 2142 O 210.087 1.74196 -0.0115441 0
M  V30 2143 C 207.219 3.40632 -0.135053 0
M  V30 2144 H 208.412 2.47919 -1.68748 0
M  V30 2145 H 205.965 1.27061 -0.910226 0
M  V30 2146 H 206.7 3.14348 0.797218 0
M  V30 2147 H 206.485 3.8302 -0.838937 0
M  V30 2148 H 207.975 4.17505 0.0892469 0
M  V30 2149 N 208.412 0.89855 1.29475 0
M  V30 2150 C 209.342 0.39201 2.30186 0
M  V30 2151 C 210.323 -0.532359 1.61555 0
M  V30 2152 O 211.508 -0.443331 1.89072 0
M  V30 2153 C 208.638 -0.382353 3.45189 0
M  V30 2154 C 207.592 0.451483 4.25612 0
M  V30 2155 C 206.918 -0.450307 5.328 0
M  V30 2156 C 208.218 1.70079 4.93832 0
M  V30 2157 H 209.912 1.23362 2.72804 0
M  V30 2158 H 207.458 0.594638 1.31149 0
M  V30 2159 H 209.411 -0.747451 4.14718 0
M  V30 2160 H 208.135 -1.25774 3.01411 0
M  V30 2161 H 206.794 0.798897 3.57789 0
M  V30 2162 H 206.442 -1.32379 4.85268 0
M  V30 2163 H 206.142 0.103902 5.87508 0
M  V30 2164 H 207.666 -0.811623 6.05182 0
M  V30 2165 H 209.08 1.40549 5.55805 0
M  V30 2166 H 207.477 2.19623 5.58467 0
M  V30 2167 H 208.547 2.43744 4.19186 0
M  V30 2168 N 209.89 -1.43072 0.660911 0
M  V30 2169 C 211.115 -2.06584 0.183805 0
M  V30 2170 C 211.54 -1.49257 -1.14472 0
M  V30 2171 O 210.898 -0.605528 -1.70889 0
M  V30 2172 C 210.946 -3.60418 0.114434 0
M  V30 2173 O 210.05 -4.01981 -0.921137 0
M  V30 2174 H 209.391 -0.656669 0.0983994 0
M  V30 2175 H 211.921 -1.83447 0.906006 0
M  V30 2176 H 211.931 -4.07946 -0.0663394 0
M  V30 2177 H 210.606 -4.01519 1.08422 0
M  V30 2178 H 209.183 -3.66029 -0.71253 0
M  V30 2179 N 211.368 -0.403325 -1.52352 0
M  V30 2180 C 212.616 0.174003 -2.0135 0
M  V30 2181 C 212.937 1.46139 -1.29106 0
M  V30 2182 O 212.207 1.91448 -0.415253 0
M  V30 2183 H 210.787 0.0672911 -0.743963 0
M  V30 2184 H 213.449 -0.538235 -1.87321 0
M  V30 2185 H 212.545 0.374254 -3.09848 0
M  V30 2186 N 212.846 1.57033 -0.133567 0
M  V30 2187 C 214.092 1.95976 0.521649 0
M  V30 2188 C 214.425 1.01779 1.65393 0
M  V30 2189 O 213.7 0.0576581 1.94415 0
M  V30 2190 C 213.983 3.44738 1.04057 0
M  V30 2191 C 213.836 4.49711 -0.0892897 0
M  V30 2192 C 215.155 3.95682 1.92675 0
M  V30 2193 H 212.274 0.712579 0.188149 0
M  V30 2194 H 214.916 1.88813 -0.212076 0
M  V30 2195 H 213.066 3.50973 1.66583 0
M  V30 2196 H 214.738 4.55565 -0.725152 0
M  V30 2197 H 212.981 4.27261 -0.750378 0
M  V30 2198 H 213.652 5.51099 0.315284 0
M  V30 2199 H 216.128 3.91841 1.39998 0
M  V30 2200 H 215.004 5.00262 2.25897 0
M  V30 2201 H 215.265 3.37239 2.85872 0
M  V30 2202 N 214.325 -0.140222 1.56975 0
M  V30 2203 C 215.272 -1.17292 1.98774 0
M  V30 2204 C 216.242 -1.4232 0.856408 0
M  V30 2205 O 217.427 -1.54541 1.119 0
M  V30 2206 C 214.567 -2.49973 2.37923 0
M  V30 2207 C 213.68 -2.32062 3.64378 0
M  V30 2208 C 212.815 -3.57825 3.926 0
M  V30 2209 C 211.854 -3.3498 5.12303 0
M  V30 2210 N 210.991 -4.52891 5.36502 0
M  V30 2211 H 215.831 -0.809472 2.86795 0
M  V30 2212 H 213.368 -0.388237 1.41884 0
M  V30 2213 H 215.326 -3.27346 2.58652 0
M  V30 2214 H 213.956 -2.84252 1.52972 0
M  V30 2215 H 213.008 -1.45711 3.51387 0
M  V30 2216 H 214.32 -2.11145 4.51906 0
M  V30 2217 H 213.474 -4.43624 4.13863 0
M  V30 2218 H 212.213 -3.81753 3.03506 0
M  V30 2219 H 211.218 -2.4757 4.90906 0
M  V30 2220 H 212.443 -3.12444 6.02956 0
M  V30 2221 H 210.389 -4.76979 4.50363 0
M  V30 2222 H 210.306 -4.35001 6.18312 0
M  V30 2223 H 211.574 -5.39884 5.62268 0
M  V30 2224 N 215.803 -1.52179 -0.40978 0
M  V30 2225 C 216.733 -1.78435 -1.5061 0
M  V30 2226 C 217.714 -0.635295 -1.57791 0
M  V30 2227 O 218.899 -0.880823 -1.73076 0
M  V30 2228 C 216.029 -1.93444 -2.88439 0
M  V30 2229 C 214.983 -3.09038 -2.96108 0
M  V30 2230 C 214.309 -3.09268 -4.36185 0
M  V30 2231 C 215.609 -4.48508 -2.67652 0
M  V30 2232 H 217.303 -2.70237 -1.28889 0
M  V30 2233 H 214.849 -1.30036 -0.618605 0
M  V30 2234 H 216.802 -2.10394 -3.65119 0
M  V30 2235 H 215.526 -0.983129 -3.11452 0
M  V30 2236 H 214.185 -2.91837 -2.21872 0
M  V30 2237 H 213.833 -2.11861 -4.56206 0
M  V30 2238 H 213.533 -3.86907 -4.42241 0
M  V30 2239 H 215.057 -3.28348 -5.14801 0
M  V30 2240 H 216.471 -4.65918 -3.34056 0
M  V30 2241 H 214.868 -5.28059 -2.85085 0
M  V30 2242 H 215.938 -4.56649 -1.63095 0
M  V30 2243 N 217.281 0.66697 -1.42791 0
M  V30 2244 C 218.509 1.45505 -1.47091 0
M  V30 2245 C 218.924 1.8861 -0.0845873 0
M  V30 2246 O 218.281 1.58632 0.90234 0
M  V30 2247 C 218.332 2.69906 -2.40485 0
M  V30 2248 O 218.053 2.28608 -3.73725 0
M  V30 2249 C 219.554 3.63396 -2.53886 0
M  V30 2250 H 216.774 0.447459 -0.500022 0
M  V30 2251 H 219.318 0.818866 -1.8739 0
M  V30 2252 H 217.473 3.29696 -2.03419 0
M  V30 2253 H 217.887 3.08997 -4.23817 0
M  V30 2254 H 219.361 4.47387 -3.2334 0
M  V30 2255 H 219.838 4.09824 -1.57927 0
M  V30 2256 H 220.444 3.09495 -2.91706 0
M  V30 2257 N 218.759 1.29093 0.90403 0
M  V30 2258 C 219.689 1.16401 2.02418 0
M  V30 2259 C 220.67 0.0593085 1.69997 0
M  V30 2260 O 221.855 0.238021 1.92736 0
M  V30 2261 C 218.985 0.835233 3.37107 0
M  V30 2262 C 217.939 1.89578 3.83724 0
M  V30 2263 C 217.265 1.42041 5.15489 0
M  V30 2264 C 218.565 3.30394 4.04521 0
M  V30 2265 H 220.259 2.10109 2.13295 0
M  V30 2266 H 217.805 1.01157 1.02486 0
M  V30 2267 H 219.758 0.733169 4.14973 0
M  V30 2268 H 218.482 -0.137543 3.2631 0
M  V30 2269 H 217.141 1.98715 3.08071 0
M  V30 2270 H 216.789 0.436426 5.01103 0
M  V30 2271 H 216.489 2.12964 5.4765 0
M  V30 2272 H 218.013 1.33176 5.959 0
M  V30 2273 H 219.427 3.24123 4.72882 0
M  V30 2274 H 217.824 3.99237 4.48029 0
M  V30 2275 H 218.894 3.73692 3.09002 0
M  V30 2276 N 220.237 -1.11381 1.11499 0
M  V30 2277 C 221.514 -1.7955 0.775965 0
M  V30 2278 C 221.894 -1.97859 -0.73588 0
M  V30 2279 O 221.242 -1.56376 -1.66609 0
M  V30 2280 C 221.452 -3.13196 1.53977 0
M  V30 2281 C 222.8 -3.88227 1.71944 0
M  V30 2282 O 223.824 -3.22887 1.50407 0
M  V30 2283 O 222.683 -5.05477 2.07738 0
M  V30 2284 H 219.777 -0.777728 0.28119 0
M  V30 2285 H 222.323 -1.18118 1.21845 0
M  V30 2286 H 221.095 -2.95229 2.56818 0
M  V30 2287 H 220.718 -3.82342 1.09088 0
M  V30 2288 N 221.715 -0.905404 -1.28997 0
M  V30 2289 C 222.647 -0.344748 -2.26592 0
M  V30 2290 C 223.66 0.512135 -1.54535 0
M  V30 2291 O 224.849 0.328368 -1.75454 0
M  V30 2292 C 221.949 0.526587 -3.34784 0
M  V30 2293 C 221.122 -0.305871 -4.36329 0
M  V30 2294 C 220.181 0.499209 -5.23827 0
M  V30 2295 O 219.207 -0.0853004 -5.69136 0
M  V30 2296 N 220.409 1.80408 -5.51755 0
M  V30 2297 H 223.174 -1.18359 -2.75338 0
M  V30 2298 H 220.735 -0.770481 -1.42391 0
M  V30 2299 H 222.727 1.07171 -3.90252 0
M  V30 2300 H 221.297 1.26613 -2.85811 0
M  V30 2301 H 220.517 -1.0324 -3.80441 0
M  V30 2302 H 221.805 -0.875773 -5.01206 0
M  V30 2303 H 221.203 2.3016 -5.16762 0
M  V30 2304 H 219.76 2.29621 -6.10014 0
M  V30 2305 N 223.193 1.4272 -0.668489 0
M  V30 2306 C 224.442 2.00846 -0.185389 0
M  V30 2307 C 224.755 1.53442 1.21305 0
M  V30 2308 O 225.961 2.03944 1.79218 0
M  V30 2309 C 224.417 3.58805 -0.280591 0
M  V30 2310 C 224.025 4.15198 -1.68268 0
M  V30 2311 C 225.769 4.24255 0.14412 0
M  V30 2312 C 223.676 5.655 -1.73099 0
M  V30 2313 H 222.606 0.751145 -0.0655475 0
M  V30 2314 H 225.257 1.63516 -0.832752 0
M  V30 2315 H 223.639 3.93608 0.434553 0
M  V30 2316 H 224.813 3.91866 -2.42441 0
M  V30 2317 H 223.128 3.62176 -2.05469 0
M  V30 2318 H 225.725 5.34547 0.128086 0
M  V30 2319 H 226.068 3.99277 1.17827 0
M  V30 2320 H 226.601 3.94389 -0.519798 0
M  V30 2321 H 223.34 5.95268 -2.74475 0
M  V30 2322 H 222.86 5.90842 -1.03274 0
M  V30 2323 H 224.539 6.29808 -1.48158 0
M  V30 2324 N 224.671 0.411399 1.52136 0
M  V30 2325 C 225.619 -0.427633 2.28635 0
M  V30 2326 C 226.613 -1.04383 1.33419 0
M  V30 2327 O 227.819 -0.981772 1.50868 0
M  V30 2328 H 224.194 -0.156689 0.735495 0
M  V30 2329 H 226.165 0.238761 2.97443 0
M  V30 2330 C 224.914 -1.53082 3.12188 0
M  V30 2331 H 224.237 -1.06601 3.85326 0
M  V30 2332 H 225.677 -2.09167 3.68816 0
M  V30 2333 C 224.136 -2.49946 2.25895 0
M  V30 2334 O 224.666 -3.53884 1.90076 0
M  V30 2335 N 222.872 -2.2021 1.8962 0
M  V30 2336 H 222.419 -1.35719 2.18948 0
M  V30 2337 H 222.377 -2.85266 1.32176 0
M  V30 2338 N 226.149 -1.5696 0.141893 0
M  V30 2339 C 227.377 -2.00322 -0.517579 0
M  V30 2340 C 227.792 -1.02193 -1.58752 0
M  V30 2341 O 227.149 -0.0181619 -1.82491 0
M  V30 2342 C 227.2 -3.43618 -1.12289 0
M  V30 2343 O 226.921 -4.37995 -0.0956929 0
M  V30 2344 C 228.422 -4.02231 -1.86347 0
M  V30 2345 H 225.642 -0.657243 -0.135177 0
M  V30 2346 H 228.186 -2.03146 0.234973 0
M  V30 2347 H 226.341 -3.41662 -1.82609 0
M  V30 2348 H 226.755 -5.21729 -0.538469 0
M  V30 2349 H 228.229 -5.04509 -2.23997 0
M  V30 2350 H 228.706 -3.42655 -2.74744 0
M  V30 2351 H 229.312 -4.07802 -1.20737 0
M  V30 2352 N 227.627 0.131896 -1.57047 0
M  V30 2353 C 228.557 1.16384 -2.02428 0
M  V30 2354 C 229.538 1.43936 -0.90644 0
M  V30 2355 O 230.723 1.54599 -1.17528 0
M  V30 2356 C 227.853 2.49328 -2.4177 0
M  V30 2357 C 226.807 2.36266 -3.56879 0
M  V30 2358 C 226.133 3.74057 -3.8208 0
M  V30 2359 C 227.433 1.834 -4.89042 0
M  V30 2360 H 229.127 0.786433 -2.88887 0
M  V30 2361 H 226.673 0.376855 -1.38981 0
M  V30 2362 H 228.626 3.21759 -2.7212 0
M  V30 2363 H 227.35 2.88934 -1.52266 0
M  V30 2364 H 226.009 1.66286 -3.26718 0
M  V30 2365 H 225.657 4.11125 -2.89803 0
M  V30 2366 H 225.357 3.66174 -4.59554 0
M  V30 2367 H 226.881 4.48012 -4.1487 0
M  V30 2368 H 228.295 2.45636 -5.18011 0
M  V30 2369 H 226.692 1.8637 -5.70426 0
M  V30 2370 H 227.762 0.790662 -4.7841 0
M  V30 2371 N 229.106 1.52395 0.401703 0
M  V30 2372 C 230.352 1.67065 1.14966 0
M  V30 2373 C 230.685 0.403052 1.89971 0
M  V30 2374 O 229.96 -0.598774 1.85054 0
M  V30 2375 C 230.243 2.8975 2.13815 0
M  V30 2376 C 230.096 4.26578 1.42658 0
M  V30 2377 C 231.415 3.07965 3.14397 0
M  V30 2378 H 228.534 0.607968 0.416587 0
M  V30 2379 H 231.176 1.84965 0.434511 0
M  V30 2380 H 229.326 2.74619 2.74803 0
M  V30 2381 H 230.998 4.53451 0.847329 0
M  V30 2382 H 229.241 4.27639 0.72849 0
M  V30 2383 H 229.912 5.08483 2.14823 0
M  V30 2384 H 232.388 3.22043 2.63491 0
M  V30 2385 H 231.264 3.95308 3.80819 0
M  V30 2386 H 231.525 2.21611 3.82545 0
M  V30 2387 N 230.584 -0.659388 1.43143 0
M  V30 2388 C 231.812 -1.44723 1.47861 0
M  V30 2389 C 232.227 -1.88563 0.0945886 0
M  V30 2390 O 231.584 -1.59108 -0.893915 0
M  V30 2391 C 231.635 -2.68627 2.41913 0
M  V30 2392 O 231.356 -2.26623 3.74932 0
M  V30 2393 C 232.857 -3.62045 2.55809 0
M  V30 2394 H 230.077 -0.444801 0.502387 0
M  V30 2395 H 232.621 -0.808916 1.87821 0
M  V30 2396 H 230.776 -3.28613 2.05164 0
M  V30 2397 H 231.19 -3.06745 4.2545 0
M  V30 2398 H 232.664 -4.45666 3.25708 0
M  V30 2399 H 233.141 -4.08981 1.60099 0
M  V30 2400 H 233.747 -3.07944 2.93344 0
M  V30 2401 N 232.062 -1.29571 -0.897171 0
M  V30 2402 C 232.992 -1.17473 -2.01798 0
M  V30 2403 C 233.973 -0.068323 -1.69963 0
M  V30 2404 O 235.158 -0.248239 -1.92607 0
M  V30 2405 C 232.288 -0.853099 -3.36659 0
M  V30 2406 C 231.242 -1.9161 -3.82713 0
M  V30 2407 C 230.568 -1.44773 -5.14728 0
M  V30 2408 C 231.868 -3.32535 -4.02763 0
M  V30 2409 H 233.562 -2.11237 -2.12177 0
M  V30 2410 H 231.108 -1.01699 -1.01948 0
M  V30 2411 H 233.061 -0.755165 -4.14578 0
M  V30 2412 H 231.785 0.120236 -3.26379 0
M  V30 2413 H 230.444 -2.00346 -3.07013 0
M  V30 2414 H 230.092 -0.462995 -5.00865 0
M  V30 2415 H 229.792 -2.15865 -5.46513 0
M  V30 2416 H 231.316 -1.36334 -5.95185 0
M  V30 2417 H 232.73 -3.26626 -4.71156 0
M  V30 2418 H 231.127 -4.01607 -4.45905 0
M  V30 2419 H 232.197 -3.75326 -3.07016 0
M  V30 2420 N 233.54 1.10788 -1.12088 0
M  V30 2421 C 234.951 1.64181 -0.88891 0
M  V30 2422 C 235.302 1.87508 0.577498 0
M  V30 2423 O 234.427 1.61434 1.44112 0
M  V30 2424 C 235.022 2.98257 -1.60712 0
M  V30 2425 C 233.581 3.4853 -1.42139 0
M  V30 2426 C 232.728 2.23208 -1.6454 0
M  V30 2427 H 235.679 0.943368 -1.27618 0
M  V30 2428 H 235.7 3.65552 -1.05604 0
M  V30 2429 H 235.212 2.81246 -2.67436 0
M  V30 2430 H 233.313 3.70692 -0.376552 0
M  V30 2431 H 233.426 4.26882 -2.17505 0
M  V30 2432 H 231.79 2.31169 -1.06925 0
M  V30 2433 H 232.573 2.08733 -2.72554 0
M  V30 2434 N 235.018 0.912232 1.28515 0
M  V30 2435 C 236.266 0.543523 1.94654 0
M  V30 2436 C 236.587 -0.9155 1.72173 0
M  V30 2437 O 235.857 -1.64708 1.06058 0
M  V30 2438 H 234.437 0.198017 0.720277 0
M  V30 2439 H 237.099 1.16126 1.56527 0
M  V30 2440 H 236.195 0.736684 3.03281 0
M  V30 2441 N 236.496 -1.42363 0.676048 0
M  V30 2442 C 237.742 -2.0182 0.199125 0
M  V30 2443 C 238.075 -1.53339 -1.19168 0
M  V30 2444 O 237.35 -0.736124 -1.80032 0
M  V30 2445 C 237.633 -3.59331 0.235144 0
M  V30 2446 C 237.486 -4.17989 1.66149 0
M  V30 2447 C 238.805 -4.3813 -0.41595 0
M  V30 2448 H 235.924 -0.733293 0.0738311 0
M  V30 2449 H 238.566 -1.69368 0.86107 0
M  V30 2450 H 236.716 -3.87109 -0.328487 0
M  V30 2451 H 238.388 -4.0116 2.27747 0
M  V30 2452 H 236.631 -3.7377 2.20178 0
M  V30 2453 H 237.302 -5.27126 1.63837 0
M  V30 2454 H 239.778 -4.16051 0.0638529 0
M  V30 2455 H 238.654 -5.47717 -0.360115 0
M  V30 2456 H 238.915 -4.16101 -1.49373 0
M  V30 2457 N 237.974 -0.419461 -1.51915 0
M  V30 2458 C 239.222 0.152637 -2.01523 0
M  V30 2459 C 239.543 1.44762 -1.30649 0
M  V30 2460 O 238.813 1.90997 -0.435535 0
M  V30 2461 H 237.393 0.0593966 -0.744635 0
M  V30 2462 H 240.055 -0.558073 -1.86739 0
M  V30 2463 H 239.151 0.341369 -3.10227 0
M  V30 2464 N 239.452 1.56882 -0.150215 0
M  V30 2465 C 240.415 2.1573 0.774157 0
M  V30 2466 C 241.415 1.0999 1.17298 0
M  V30 2467 O 242.605 1.35613 1.09338 0
M  V30 2468 C 239.737 2.72302 2.05096 0
M  V30 2469 H 240.93 2.98752 0.262201 0
M  V30 2470 H 238.483 1.55985 0.099248 0
M  V30 2471 H 239.218 1.92956 2.6065 0
M  V30 2472 H 239.003 3.49665 1.77416 0
M  V30 2473 H 240.493 3.17632 2.71109 0
M  V30 2474 N 240.93 -0.123565 1.57115 0
M  V30 2475 C 241.86 -1.15309 2.03042 0
M  V30 2476 C 242.841 -1.43454 0.914061 0
M  V30 2477 O 244.026 -1.53973 1.18347 0
M  V30 2478 C 241.156 -2.48043 2.43089 0
M  V30 2479 C 240.11 -2.3437 3.58127 0
M  V30 2480 C 239.436 -3.72026 3.84059 0
M  V30 2481 C 240.736 -1.80804 4.90007 0
M  V30 2482 H 242.43 -0.771102 2.893 0
M  V30 2483 H 239.976 -0.369479 1.39179 0
M  V30 2484 H 241.929 -3.20311 2.73823 0
M  V30 2485 H 240.653 -2.88122 1.53796 0
M  V30 2486 H 239.312 -1.64551 3.27595 0
M  V30 2487 H 238.96 -4.09582 2.91979 0
M  V30 2488 H 238.66 -3.63732 4.6149 0
M  V30 2489 H 240.184 -4.45806 4.1724 0
M  V30 2490 H 241.598 -2.42886 5.19307 0
M  V30 2491 H 239.995 -1.83343 5.71407 0
M  V30 2492 H 241.065 -0.76528 4.78823 0
M  V30 2493 N 242.408 -1.52605 -0.393616 0
M  V30 2494 C 243.355 -1.77055 -1.48054 0
M  V30 2495 C 244.325 -0.61358 -1.54352 0
M  V30 2496 O 245.51 -0.852806 -1.70681 0
M  V30 2497 C 242.65 -1.94108 -2.85335 0
M  V30 2498 C 241.763 -3.21792 -2.88226 0
M  V30 2499 C 240.898 -3.29188 -4.16904 0
M  V30 2500 C 239.937 -4.51013 -4.13828 0
M  V30 2501 N 239.074 -4.55716 -5.34105 0
M  V30 2502 H 243.914 -2.69815 -1.26506 0
M  V30 2503 H 241.451 -1.33683 -0.61379 0
M  V30 2504 H 243.409 -2.01979 -3.65049 0
M  V30 2505 H 242.039 -1.04713 -3.05344 0
M  V30 2506 H 241.091 -3.23015 -2.00911 0
M  V30 2507 H 242.403 -4.11557 -2.8182 0
M  V30 2508 H 241.557 -3.36216 -5.05018 0
M  V30 2509 H 240.296 -2.37389 -4.26026 0
M  V30 2510 H 239.301 -4.44115 -3.24102 0
M  V30 2511 H 240.526 -5.44123 -4.06333 0
M  V30 2512 H 238.472 -3.66807 -5.43865 0
M  V30 2513 H 238.389 -5.39346 -5.29756 0
M  V30 2514 H 239.657 -4.66993 -6.2413 0
M  V30 2515 N 243.887 0.651787 -1.4349 0
M  V30 2516 C 244.819 1.77725 -1.44729 0
M  V30 2517 C 245.832 1.59141 -0.343231 0
M  V30 2518 O 247.021 1.67835 -0.607751 0
M  V30 2519 C 244.121 3.15172 -1.24579 0
M  V30 2520 C 243.294 3.60402 -2.47849 0
M  V30 2521 C 242.353 4.76656 -2.22902 0
M  V30 2522 O 241.379 4.86022 -2.96263 0
M  V30 2523 N 242.581 5.66958 -1.24656 0
M  V30 2524 H 245.346 1.77141 -2.41746 0
M  V30 2525 H 242.907 0.835678 -1.38665 0
M  V30 2526 H 244.899 3.90634 -1.0577 0
M  V30 2527 H 243.469 3.1052 -0.360015 0
M  V30 2528 H 242.689 2.75369 -2.82073 0
M  V30 2529 H 243.977 3.87368 -3.29884 0
M  V30 2530 H 243.375 5.62065 -0.640265 0
M  V30 2531 H 241.932 6.42135 -1.1183 0
M  V30 2532 N 245.365 1.30045 0.890287 0
M  V30 2533 C 246.593 1.21472 1.67487 0
M  V30 2534 C 247.008 -0.223241 1.87476 0
M  V30 2535 O 246.365 -1.14828 1.41847 0
M  V30 2536 C 246.416 1.93394 3.05419 0
M  V30 2537 O 246.137 3.31576 2.86337 0
M  V30 2538 C 247.638 1.91414 3.99844 0
M  V30 2539 H 244.858 0.420604 0.522813 0
M  V30 2540 H 247.402 1.7158 1.11268 0
M  V30 2541 H 245.557 1.47099 3.58386 0
M  V30 2542 H 245.971 3.67929 3.73802 0
M  V30 2543 H 247.445 2.46285 4.94012 0
M  V30 2544 H 247.922 0.891833 4.3005 0
M  V30 2545 H 248.528 2.37496 3.52811 0
M  V30 2546 N 246.843 -1.10192 1.12674 0
M  V30 2547 C 248.068 -1.86523 0.906853 0
M  V30 2548 C 248.493 -1.80221 -0.538711 0
M  V30 2549 O 247.851 -1.17396 -1.38158 0
M  V30 2550 C 247.899 -3.32758 1.3894 0
M  V30 2551 O 247.003 -4.08449 0.5695 0
M  V30 2552 H 246.344 -0.578678 0.325619 0
M  V30 2553 H 248.874 -1.39203 1.49946 0
M  V30 2554 H 248.884 -3.83608 1.38958 0
M  V30 2555 H 247.559 -3.36661 2.44197 0
M  V30 2556 H 246.136 -3.67427 0.636528 0
M  V30 2557 N 248.321 -0.919034 -1.28029 0
M  V30 2558 C 249.569 -0.553838 -1.94363 0
M  V30 2559 C 249.89 0.906357 -1.72656 0
M  V30 2560 O 249.16 1.64143 -1.0693 0
M  V30 2561 H 247.74 -0.201834 -0.719216 0
M  V30 2562 H 250.402 -1.16954 -1.55909 0
M  V30 2563 H 249.498 -0.752758 -3.02886 0
M  V30 2564 N 249.799 1.42003 -0.683588 0
M  V30 2565 C 251.076 1.95112 -0.138075 0
M  V30 2566 C 251.456 1.62359 1.34918 0
M  V30 2567 O 250.804 0.924311 2.08971 0
M  V30 2568 C 251.014 3.46505 -0.416581 0
M  V30 2569 C 252.362 4.23254 -0.337834 0
M  V30 2570 O 253.386 3.54468 -0.35082 0
M  V30 2571 O 252.245 5.45743 -0.287596 0
M  V30 2572 H 249.339 0.826961 -0.00797996 0
M  V30 2573 H 251.885 1.51784 -0.758924 0
M  V30 2574 H 250.657 3.63582 -1.4465 0
M  V30 2575 H 250.28 3.969 0.235839 0
M  V30 2576 N 251.277 0.427512 1.51691 0
M  V30 2577 C 252.207 -0.3796 2.30394 0
M  V30 2578 C 253.188 -1.02982 1.35384 0
M  V30 2579 O 254.373 -1.03534 1.643 0
M  V30 2580 C 251.503 -1.48649 3.1388 0
M  V30 2581 C 250.457 -0.960294 4.17088 0
M  V30 2582 C 249.783 -2.16219 4.89033 0
M  V30 2583 C 251.083 -0.00153679 5.223 0
M  V30 2584 H 252.777 0.277164 2.98114 0
M  V30 2585 H 250.323 0.134739 1.43368 0
M  V30 2586 H 252.276 -2.05826 3.67714 0
M  V30 2587 H 251 -2.1714 2.43962 0
M  V30 2588 H 249.659 -0.410806 3.64291 0
M  V30 2589 H 249.307 -2.83307 4.15628 0
M  V30 2590 H 249.007 -1.81654 5.58816 0
M  V30 2591 H 250.531 -2.73968 5.45687 0
M  V30 2592 H 251.945 -0.482687 5.71264 0
M  V30 2593 H 250.342 0.256199 5.99553 0
M  V30 2594 H 251.412 0.938174 4.75738 0
M  V30 2595 N 252.755 -1.56801 0.158532 0
M  V30 2596 C 253.985 -2.00568 -0.495583 0
M  V30 2597 C 254.393 -1.03774 -1.58201 0
M  V30 2598 O 253.736 -0.0285797 -1.83678 0
M  V30 2599 C 253.798 -3.40768 -1.14532 0
M  V30 2600 C 253.462 -4.56553 -0.202101 0
M  V30 2601 C 254.459 -5.16714 0.574675 0
M  V30 2602 C 252.144 -5.02197 -0.101648 0
M  V30 2603 C 254.138 -6.20939 1.43924 0
M  V30 2604 C 251.825 -6.06274 0.766508 0
M  V30 2605 C 252.823 -6.65515 1.53555 0
M  V30 2606 O 252.511 -7.67575 2.38922 0
M  V30 2607 H 252.243 -0.662893 -0.13247 0
M  V30 2608 H 254.797 -2.03829 0.253559 0
M  V30 2609 H 253.027 -3.34381 -1.94233 0
M  V30 2610 H 254.716 -3.6857 -1.70033 0
M  V30 2611 H 255.482 -4.82341 0.507167 0
M  V30 2612 H 251.361 -4.55807 -0.689994 0
M  V30 2613 H 254.905 -6.67107 2.03996 0
M  V30 2614 H 250.802 -6.40073 0.835266 0
M  V30 2615 H 251.57 -7.84844 2.32296 0
M  V30 2616 N 254.233 0.115231 -1.57178 0
M  V30 2617 C 255.165 1.16694 -1.97269 0
M  V30 2618 C 256.178 1.37445 -0.872502 0
M  V30 2619 O 257.367 1.36454 -1.15077 0
M  V30 2620 C 254.467 2.52627 -2.25905 0
M  V30 2621 C 253.64 2.52427 -3.57211 0
M  V30 2622 C 252.699 3.70134 -3.74016 0
M  V30 2623 O 251.725 3.53546 -4.46087 0
M  V30 2624 N 252.927 4.88844 -3.13068 0
M  V30 2625 H 255.692 0.82588 -2.88096 0
M  V30 2626 H 253.253 0.304461 -1.59011 0
M  V30 2627 H 255.245 3.29937 -2.34359 0
M  V30 2628 H 253.815 2.789 -1.41186 0
M  V30 2629 H 253.035 1.60805 -3.5991 0
M  V30 2630 H 254.323 2.49353 -4.43509 0
M  V30 2631 H 253.721 5.05225 -2.54489 0
M  V30 2632 H 252.278 5.63817 -3.27037 0
M  V30 2633 N 255.711 1.52812 0.385517 0
M  V30 2634 C 256.644 1.72592 1.49289 0
M  V30 2635 C 257.622 0.573819 1.52138 0
M  V30 2636 O 258.806 0.80404 1.70492 0
M  V30 2637 C 255.933 1.78669 2.87741 0
M  V30 2638 C 254.979 3.00455 3.02703 0
M  V30 2639 S 255.812 4.60366 2.73538 0
M  V30 2640 C 256.968 4.69263 4.14177 0
M  V30 2641 H 257.201 2.66248 1.32285 0
M  V30 2642 H 254.734 1.43148 0.578611 0
M  V30 2643 H 256.692 1.82855 3.67524 0
M  V30 2644 H 255.353 0.861 3.02069 0
M  V30 2645 H 254.546 3.01258 4.04054 0
M  V30 2646 H 254.148 2.94278 2.30817 0
M  V30 2647 H 256.44 4.48092 5.08153 0
M  V30 2648 H 257.383 5.71276 4.18388 0
M  V30 2649 H 257.791 3.98072 4.00249 0
M  V30 2650 N 257.189 -0.644168 1.43834 0
M  V30 2651 C 258.099 -1.78563 1.52159 0
M  V30 2652 C 259.115 -1.69147 0.408069 0
M  V30 2653 O 260.291 -1.90156 0.663524 0
M  V30 2654 C 257.356 -3.14888 1.45073 0
M  V30 2655 C 256.417 -3.36034 2.6717 0
M  V30 2656 C 255.65 -4.65855 2.60413 0
M  V30 2657 O 255.873 -5.45805 1.65689 0
M  V30 2658 O 254.807 -4.88918 3.5106 0
M  V30 2659 H 258.633 -1.74494 2.48567 0
M  V30 2660 H 256.218 -0.80378 1.25935 0
M  V30 2661 H 258.1 -3.96179 1.43597 0
M  V30 2662 H 256.775 -3.19528 0.518037 0
M  V30 2663 H 255.682 -2.54472 2.74217 0
M  V30 2664 H 257.015 -3.36247 3.59442 0
M  V30 2665 N 258.668 -1.30515 -0.883378 0
M  V30 2666 C 259.6 -1.12846 -1.99496 0
M  V30 2667 C 260.613 -0.0712571 -1.62644 0
M  V30 2668 O 261.802 -0.317432 -1.75655 0
M  V30 2669 C 258.902 -0.699123 -3.3161 0
M  V30 2670 C 258.075 -1.83842 -3.96889 0
M  V30 2671 C 257.134 -1.39737 -5.07307 0
M  V30 2672 O 256.16 -2.10485 -5.28852 0
M  V30 2673 N 257.362 -0.277279 -5.79837 0
M  V30 2674 H 260.127 -2.08585 -2.15203 0
M  V30 2675 H 257.688 -1.22672 -1.05656 0
M  V30 2676 H 259.68 -0.387044 -4.02845 0
M  V30 2677 H 258.25 0.166276 -3.12157 0
M  V30 2678 H 257.47 -2.31853 -3.18807 0
M  V30 2679 H 258.758 -2.60187 -4.37241 0
M  V30 2680 H 258.156 0.3122 -5.64838 0
M  V30 2681 H 256.713 -0.0246623 -6.51795 0
M  V30 2682 N 260.146 1.09593 -1.13257 0
M  V30 2683 C 261.395 1.81105 -0.887917 0
M  V30 2684 C 261.708 1.86563 0.587672 0
M  V30 2685 O 262.914 2.54367 0.949204 0
M  V30 2686 C 261.37 3.25338 -1.53895 0
M  V30 2687 C 260.978 3.28151 -3.04994 0
M  V30 2688 C 262.722 4.01617 -1.37492 0
M  V30 2689 C 260.629 4.66897 -3.6299 0
M  V30 2690 H 259.559 0.678661 -0.328534 0
M  V30 2691 H 262.21 1.23183 -1.36008 0
M  V30 2692 H 260.592 3.8331 -0.994446 0
M  V30 2693 H 261.766 2.79953 -3.66009 0
M  V30 2694 H 260.081 2.65361 -3.20893 0
M  V30 2695 H 262.678 5.04119 -1.78235 0
M  V30 2696 H 263.021 4.15072 -0.31957 0
M  V30 2697 H 263.554 3.50082 -1.88912 0
M  V30 2698 H 260.293 4.58643 -4.68323 0
M  V30 2699 H 259.813 5.15426 -3.06752 0
M  V30 2700 H 261.492 5.3587 -3.62563 0
M  V30 2701 N 261.624 0.925811 1.2754 0
M  V30 2702 C 263.04 0.625767 1.46821 0
M  V30 2703 C 263.24 -0.825506 1.83814 0
M  V30 2704 O 262.296 -1.60356 1.95044 0
M  V30 2705 C 263.609 1.57402 2.56213 0
M  V30 2706 C 265.157 1.58204 2.70075 0
M  V30 2707 C 265.632 2.51721 3.82623 0
M  V30 2708 N 267.123 2.49917 3.89994 0
M  V30 2709 C 267.858 3.18968 4.76494 0
M  V30 2710 N 267.354 3.97391 5.67496 0
M  V30 2711 N 269.147 3.07996 4.70208 0
M  V30 2712 H 261.298 1.86409 1.01811 0
M  V30 2713 H 263.561 0.800213 0.508295 0
M  V30 2714 H 263.267 2.60925 2.35819 0
M  V30 2715 H 263.141 1.31428 3.53563 0
M  V30 2716 H 265.528 0.554124 2.89851 0
M  V30 2717 H 265.609 1.88226 1.73218 0
M  V30 2718 H 265.253 3.54622 3.63601 0
M  V30 2719 H 265.183 2.18996 4.78903 0
M  V30 2720 H 267.674 1.9296 3.24923 0
M  V30 2721 H 267.987 4.4707 6.30356 0
M  V30 2722 H 266.332 4.01495 5.67298 0
M  V30 2723 H 269.523 2.46223 3.9811 0
M  V30 2724 H 269.696 3.6208 5.37403 0
M  V30 2725 N 263.102 -1.41638 0.69111 0
M  V30 2726 C 264.518 -1.55435 0.362224 0
M  V30 2727 C 264.718 -1.66754 -1.13117 0
M  V30 2728 O 263.774 -1.64348 -1.91692 0
M  V30 2729 C 265.087 -2.79588 1.10684 0
M  V30 2730 C 266.635 -2.9338 1.09075 0
M  V30 2731 C 267.11 -4.20414 1.81703 0
M  V30 2732 N 268.601 -4.27362 1.7865 0
M  V30 2733 C 269.336 -5.24507 2.31689 0
M  V30 2734 N 268.832 -6.27708 2.93179 0
M  V30 2735 N 270.625 -5.16416 2.2197 0
M  V30 2736 H 262.776 -1.32536 1.65976 0
M  V30 2737 H 265.039 -0.639115 0.700168 0
M  V30 2738 H 264.745 -2.77419 2.16175 0
M  V30 2739 H 264.619 -3.70973 0.682545 0
M  V30 2740 H 267.006 -2.95067 0.0441238 0
M  V30 2741 H 267.087 -2.0318 1.55407 0
M  V30 2742 H 266.731 -4.19488 2.86343 0
M  V30 2743 H 266.661 -5.09578 1.32808 0
M  V30 2744 H 269.152 -3.53415 1.33815 0
M  V30 2745 H 269.465 -6.98217 3.31229 0
M  V30 2746 H 267.81 -6.28223 2.97255 0
M  V30 2747 H 271.001 -4.34716 1.73607 0
M  V30 2748 H 271.174 -5.91958 2.63609 0
M  V30 2749 N 264.58 -0.43555 -1.51462 0
M  V30 2750 C 265.49 0.383001 -2.31453 0
M  V30 2751 C 266.506 1.02931 -1.4029 0
M  V30 2752 O 267.682 1.02507 -1.73362 0
M  V30 2753 C 264.747 1.47043 -3.13973 0
M  V30 2754 C 263.808 0.844433 -4.20913 0
M  V30 2755 C 263.041 1.88004 -4.9949 0
M  V30 2756 O 263.264 3.10199 -4.78678 0
M  V30 2757 O 262.198 1.47157 -5.83634 0
M  V30 2758 H 266.024 -0.269964 -3.02498 0
M  V30 2759 H 263.609 -0.19813 -1.4808 0
M  V30 2760 H 265.491 2.10113 -3.65281 0
M  V30 2761 H 264.166 2.10751 -2.45695 0
M  V30 2762 H 263.073 0.175729 -3.73687 0
M  V30 2763 H 264.406 0.250869 -4.9156 0
M  V30 2764 N 266.058 1.56714 -0.166846 0
M  V30 2765 C 267.008 2.14338 0.777382 0
M  V30 2766 C 267.992 1.07642 1.19591 0
M  V30 2767 O 269.184 1.33775 1.15902 0
M  V30 2768 C 266.313 2.78417 2.00846 0
M  V30 2769 C 265.399 3.92264 1.61212 0
M  V30 2770 N 265.79 4.97268 0.925104 0
M  V30 2771 C 264.088 4.03342 1.90346 0
M  V30 2772 C 264.789 5.77093 0.730627 0
M  V30 2773 N 263.765 5.2854 1.27067 0
M  V30 2774 H 267.567 2.9289 0.243466 0
M  V30 2775 H 265.081 1.62364 0.0339954 0
M  V30 2776 H 267.078 3.18073 2.69509 0
M  V30 2777 H 265.738 2.01344 2.54736 0
M  V30 2778 H 266.749 5.14601 0.583646 0
M  V30 2779 H 263.426 3.37368 2.45946 0
M  V30 2780 H 264.816 6.71638 0.187668 0
M  V30 2781 N 267.536 -0.106894 1.57237 0
M  V30 2782 C 268.947 -0.662723 1.74542 0
M  V30 2783 C 269.298 -1.7971 0.787319 0
M  V30 2784 O 268.423 -2.16368 -0.0369636 0
M  V30 2785 C 269.018 -1.20896 3.16496 0
M  V30 2786 C 267.577 -1.71096 3.35266 0
M  V30 2787 C 266.724 -0.615642 2.7038 0
M  V30 2788 H 269.675 0.119106 1.58252 0
M  V30 2789 H 269.696 -2.07847 3.18716 0
M  V30 2790 H 269.208 -0.383122 3.86204 0
M  V30 2791 H 267.309 -2.56119 2.70618 0
M  V30 2792 H 267.422 -1.81208 4.43509 0
M  V30 2793 H 265.786 -1.05222 2.31949 0
M  V30 2794 H 266.569 0.199419 3.4272 0
M  V30 2795 N 269.014 -1.53014 -0.377408 0
M  V30 2796 C 270.291 -1.59215 -1.13622 0
M  V30 2797 C 270.671 -0.392407 -2.07421 0
M  V30 2798 O 270.019 0.618342 -2.19975 0
M  V30 2799 C 270.229 -2.93669 -1.88573 0
M  V30 2800 C 271.577 -3.47822 -2.43526 0
M  V30 2801 O 272.601 -2.9562 -1.98715 0
M  V30 2802 O 271.46 -4.39055 -3.25412 0
M  V30 2803 H 268.554 -0.642625 -0.52054 0
M  V30 2804 H 271.1 -1.65353 -0.381625 0
M  V30 2805 H 269.872 -3.7243 -1.20048 0
M  V30 2806 H 269.495 -2.90968 -2.70968 0
M  V30 2807 N 270.492 0.636531 -1.44174 0
M  V30 2808 C 271.422 1.76003 -1.53444 0
M  V30 2809 C 272.403 1.65619 -0.387841 0
M  V30 2810 O 273.588 1.84461 -0.607257 0
M  V30 2811 C 270.718 3.14511 -1.4731 0
M  V30 2812 C 269.672 3.39677 -2.60391 0
M  V30 2813 C 268.998 4.78159 -2.39308 0
M  V30 2814 C 270.298 3.32772 -4.02567 0
M  V30 2815 H 271.992 1.68501 -2.47483 0
M  V30 2816 H 269.538 0.809237 -1.19111 0
M  V30 2817 H 271.491 3.92878 -1.52397 0
M  V30 2818 H 270.215 3.22783 -0.49785 0
M  V30 2819 H 268.874 2.63688 -2.54684 0
M  V30 2820 H 268.522 4.83128 -1.39988 0
M  V30 2821 H 268.222 4.95956 -3.15122 0
M  V30 2822 H 269.746 5.58762 -2.46205 0
M  V30 2823 H 271.16 4.01051 -4.09672 0
M  V30 2824 H 269.557 3.62104 -4.7854 0
M  V30 2825 H 270.627 2.30669 -4.2652 0
M  V30 2826 N 271.97 1.30982 0.876444 0
M  V30 2827 C 273.216 1.20474 1.63138 0
M  V30 2828 C 273.549 -0.238096 1.92735 0
M  V30 2829 O 272.824 -1.1692 1.55435 0
M  V30 2830 C 273.107 2.04244 2.96574 0
M  V30 2831 C 272.96 3.56793 2.73896 0
M  V30 2832 C 274.279 1.88684 3.97601 0
M  V30 2833 H 271.398 0.439001 0.591985 0
M  V30 2834 H 274.04 1.60704 1.01361 0
M  V30 2835 H 272.19 1.70063 3.493 0
M  V30 2836 H 273.862 4.01077 2.27892 0
M  V30 2837 H 272.105 3.80548 2.08245 0
M  V30 2838 H 272.776 4.10706 3.68815 0
M  V30 2839 H 275.252 2.18584 3.54062 0
M  V30 2840 H 274.128 2.4961 4.88862 0
M  V30 2841 H 274.389 0.848343 4.33884 0
M  V30 2842 N 273.449 -1.08991 1.13837 0
M  V30 2843 C 274.379 -2.17771 0.842507 0
M  V30 2844 C 275.36 -1.6892 -0.20001 0
M  V30 2845 O 276.545 -1.94113 -0.0579731 0
M  V30 2846 C 273.675 -3.4589 0.312644 0
M  V30 2847 C 272.629 -4.08099 1.28992 0
M  V30 2848 C 271.955 -5.31098 0.619623 0
M  V30 2849 C 273.255 -4.50077 2.65005 0
M  V30 2850 H 274.949 -2.42777 1.75213 0
M  V30 2851 H 272.495 -1.16682 0.843875 0
M  V30 2852 H 274.448 -4.21297 0.0933043 0
M  V30 2853 H 273.172 -3.20419 -0.632382 0
M  V30 2854 H 271.831 -3.34717 1.49533 0
M  V30 2855 H 271.479 -5.0191 -0.33102 0
M  V30 2856 H 271.179 -5.73674 1.27167 0
M  V30 2857 H 272.703 -6.09224 0.409669 0
M  V30 2858 H 274.117 -5.16688 2.48407 0
M  V30 2859 H 272.514 -5.03553 3.26427 0
M  V30 2860 H 273.584 -3.62257 3.22332 0
M  V30 2861 N 274.927 -0.932562 -1.27047 0
M  V30 2862 C 276.157 -0.591173 -1.97961 0
M  V30 2863 C 276.565 0.836219 -1.69717 0
M  V30 2864 O 275.908 1.56801 -0.957036 0
M  V30 2865 C 275.97 -0.743082 -3.51736 0
M  V30 2866 C 275.634 -2.1435 -4.03613 0
M  V30 2867 C 276.631 -3.11815 -4.16014 0
M  V30 2868 C 274.316 -2.46175 -4.37839 0
M  V30 2869 C 276.31 -4.39211 -4.61923 0
M  V30 2870 C 273.997 -3.73806 -4.83438 0
M  V30 2871 C 274.995 -4.70137 -4.95439 0
M  V30 2872 O 274.683 -5.95496 -5.40037 0
M  V30 2873 H 274.415 -0.222375 -0.638377 0
M  V30 2874 H 276.969 -1.25317 -1.62742 0
M  V30 2875 H 275.199 -0.0239739 -3.86693 0
M  V30 2876 H 276.888 -0.40603 -4.03864 0
M  V30 2877 H 277.654 -2.88549 -3.89826 0
M  V30 2878 H 273.533 -1.71936 -4.27737 0
M  V30 2879 H 277.077 -5.14404 -4.71205 0
M  V30 2880 H 272.974 -3.96888 -5.09068 0
M  V30 2881 H 273.742 -5.98554 -5.58279 0
M  V30 2882 N 276.405 1.4127 -0.698611 0
M  V30 2883 C 277.353 2.32588 -0.023855 0
M  V30 2884 C 278.347 1.51128 0.765292 0
M  V30 2885 O 279.553 1.67043 0.670571 0
M  V30 2886 H 275.928 0.751918 0.0110871 0
M  V30 2887 H 277.899 2.87167 -0.811031 0
M  V30 2888 C 276.648 3.35947 0.896369 0
M  V30 2889 H 275.971 3.98684 0.298548 0
M  V30 2890 H 277.411 4.02376 1.33676 0
M  V30 2891 C 275.87 2.70076 2.01396 0
M  V30 2892 O 276.4 2.55093 3.10307 0
M  V30 2893 N 274.606 2.28724 1.79259 0
M  V30 2894 H 274.153 2.4111 0.906841 0
M  V30 2895 H 274.111 1.84986 2.54219 0
M  V30 2896 N 277.883 0.443576 1.51229 0
M  V30 2897 C 279.131 -0.120557 2.0174 0
M  V30 2898 C 279.452 -1.42665 1.32935 0
M  V30 2899 O 278.722 -1.9028 0.465866 0
M  V30 2900 H 277.302 -0.0475426 0.745486 0
M  V30 2901 H 279.964 0.587711 1.85828 0
M  V30 2902 H 279.06 -0.291972 3.10731 0
M  V30 2903 N 279.361 -1.56624 0.175154 0
M  V30 2904 C 280.591 -2.01082 -0.474283 0
M  V30 2905 C 280.999 -1.05447 -1.57091 0
M  V30 2906 O 280.342 -0.0480595 -1.83637 0
M  V30 2907 C 280.404 -3.41963 -1.10911 0
M  V30 2908 C 280.068 -4.56742 -0.153666 0
M  V30 2909 C 281.065 -5.16076 0.629448 0
M  V30 2910 C 278.75 -5.02277 -0.0483776 0
M  V30 2911 C 280.744 -6.19377 1.50501 0
M  V30 2912 C 278.431 -6.05427 0.830768 0
M  V30 2913 C 279.429 -6.63849 1.60605 0
M  V30 2914 O 279.117 -7.64998 2.47049 0
M  V30 2915 H 278.849 -0.664261 -0.125432 0
M  V30 2916 H 281.403 -2.03549 0.275163 0
M  V30 2917 H 279.633 -3.36422 -1.90676 0
M  V30 2918 H 281.322 -3.70352 -1.66114 0
M  V30 2919 H 282.088 -4.81776 0.558297 0
M  V30 2920 H 277.967 -4.56513 -0.641611 0
M  V30 2921 H 281.511 -6.64906 2.1106 0
M  V30 2922 H 277.408 -6.39151 0.903107 0
M  V30 2923 H 278.176 -7.82336 2.40607 0
M  V30 2924 N 280.839 0.0985539 -1.57292 0
M  V30 2925 C 282.116 0.834155 -1.76921 0
M  V30 2926 C 282.496 1.97101 -0.755928 0
M  V30 2927 O 281.844 2.27474 0.216245 0
M  V30 2928 C 282.054 1.33194 -3.22584 0
M  V30 2929 C 283.402 1.77611 -3.85668 0
M  V30 2930 O 284.426 1.42825 -3.26312 0
M  V30 2931 O 283.285 2.4192 -4.90038 0
M  V30 2932 H 280.379 0.397628 -0.725135 0
M  V30 2933 H 282.925 0.0807044 -1.69508 0
M  V30 2934 H 281.697 0.517248 -3.87866 0
M  V30 2935 H 281.32 2.1475 -3.34616 0
M  V30 2936 N 282.317 1.53212 0.369288 0
M  V30 2937 C 283.227 1.82342 1.47609 0
M  V30 2938 C 284.243 0.711532 1.58787 0
M  V30 2939 O 285.419 1.0012 1.74751 0
M  V30 2940 C 282.484 2.00393 2.8292 0
M  V30 2941 C 281.545 3.24297 2.81301 0
M  V30 2942 C 280.778 3.41478 4.10157 0
M  V30 2943 O 281.001 2.63033 5.06132 0
M  V30 2944 O 279.935 4.34817 4.16194 0
M  V30 2945 H 283.761 2.76366 1.25918 0
M  V30 2946 H 281.346 1.38547 0.559034 0
M  V30 2947 H 283.228 2.13859 3.63101 0
M  V30 2948 H 281.903 1.09559 3.04596 0
M  V30 2949 H 280.81 3.16257 1.99831 0
M  V30 2950 H 282.143 4.15041 2.64578 0
M  V30 2951 N 283.795 -0.628877 1.44509 0
M  V30 2952 C 285.044 -1.38437 1.4669 0
M  V30 2953 C 285.357 -1.95322 0.104272 0
M  V30 2954 O 286.563 -2.715 0.00362163 0
M  V30 2955 C 285.019 -2.50659 2.5826 0
M  V30 2956 C 284.627 -2.00277 4.0074 0
M  V30 2957 C 286.371 -3.27844 2.69664 0
M  V30 2958 C 284.278 -3.09854 5.0373 0
M  V30 2959 H 283.208 -0.520245 0.545766 0
M  V30 2960 H 285.859 -0.676313 1.70582 0
M  V30 2961 H 284.241 -3.2405 2.27612 0
M  V30 2962 H 285.415 -1.33736 4.40966 0
M  V30 2963 H 283.73 -1.35901 3.93599 0
M  V30 2964 H 286.327 -4.09534 3.43781 0
M  V30 2965 H 286.67 -3.77471 1.75559 0
M  V30 2966 H 287.203 -2.61543 2.99733 0
M  V30 2967 H 283.942 -2.65168 5.99472 0
M  V30 2968 H 283.462 -3.7503 4.68095 0
M  V30 2969 H 285.141 -3.74592 5.27532 0
M  V30 2970 N 285.273 -1.31445 -0.869486 0
M  V30 2971 C 286.52 -1.21158 -1.62256 0
M  V30 2972 C 286.848 0.230155 -1.93133 0
M  V30 2973 O 286.103 1.17906 -1.56194 0
M  V30 2974 C 286.402 -2.00145 -2.96102 0
M  V30 2975 C 286.068 -3.4964 -2.84715 0
M  V30 2976 C 284.73 -3.90403 -2.81317 0
M  V30 2977 C 287.082 -4.44769 -2.71716 0
M  V30 2978 C 284.41 -5.24561 -2.62778 0
M  V30 2979 C 286.762 -5.79054 -2.54714 0
M  V30 2980 C 285.426 -6.19037 -2.49699 0
M  V30 2981 H 284.696 -0.443348 -0.593737 0
M  V30 2982 H 287.343 -1.62715 -1.00976 0
M  V30 2983 H 285.648 -1.5127 -3.6142 0
M  V30 2984 H 287.345 -1.89566 -3.53363 0
M  V30 2985 H 283.935 -3.17256 -2.88178 0
M  V30 2986 H 288.119 -4.14208 -2.73397 0
M  V30 2987 H 283.375 -5.54613 -2.57321 0
M  V30 2988 H 287.549 -6.52393 -2.43632 0
M  V30 2989 H 285.176 -7.22935 -2.35093 0
M  V30 2990 N 286.751 1.08385 -1.14413 0
M  V30 2991 C 287.714 2.13486 -0.834048 0
M  V30 2992 C 288.714 1.59988 0.161418 0
M  V30 2993 O 289.904 1.74071 -0.0669575 0
M  V30 2994 C 287.036 3.4003 -0.243354 0
M  V30 2995 H 288.229 2.42425 -1.7655 0
M  V30 2996 H 285.782 1.24101 -0.950189 0
M  V30 2997 H 286.517 3.16726 0.696807 0
M  V30 2998 H 286.302 3.80157 -0.960367 0
M  V30 2999 H 287.792 4.17577 -0.0436242 0
M  V30 3000 N 288.23 0.939286 1.26551 0
M  V30 3001 C 289.455 0.602008 1.98471 0
M  V30 3002 C 289.88 -0.815624 1.69497 0
M  V30 3003 O 289.238 -1.54912 0.941905 0
M  V30 3004 C 289.286 0.848407 3.50477 0
M  V30 3005 O 288.39 -0.0804009 4.12322 0
M  V30 3006 H 287.731 0.23049 0.622712 0
M  V30 3007 H 290.261 1.2617 1.61066 0
M  V30 3008 H 290.271 0.768553 4.00696 0
M  V30 3009 H 288.946 1.88171 3.70897 0
M  V30 3010 H 287.523 0.0503508 3.72866 0
M  V30 3011 N 289.708 -1.40897 0.706093 0
M  V30 3012 C 290.956 -2.00657 0.241054 0
M  V30 3013 C 291.277 -1.56241 -1.16678 0
M  V30 3014 O 290.547 -0.79765 -1.78926 0
M  V30 3015 H 289.127 -0.742018 0.0861308 0
M  V30 3016 H 291.789 -1.72372 0.909604 0
M  V30 3017 H 290.885 -3.10958 0.266705 0
M  V30 3018 N 291.186 -0.45159 -1.50991 0
M  V30 3019 C 292.116 0.342898 -2.30969 0
M  V30 3020 C 293.097 1.00815 -1.37005 0
M  V30 3021 O 294.282 1.00907 -1.65926 0
M  V30 3022 C 291.412 1.43637 -3.16205 0
M  V30 3023 C 290.366 0.893818 -4.18563 0
M  V30 3024 C 289.692 2.08411 -4.92411 0
M  V30 3025 C 290.992 -0.0815568 -5.22236 0
M  V30 3026 H 292.686 -0.324556 -2.97636 0
M  V30 3027 H 290.232 -0.157531 -1.43136 0
M  V30 3028 H 292.185 1.9995 -3.70942 0
M  V30 3029 H 290.909 2.13232 -2.47386 0
M  V30 3030 H 289.568 0.352798 -3.64898 0
M  V30 3031 H 289.216 2.76658 -4.20082 0
M  V30 3032 H 288.916 1.72741 -5.61636 0
M  V30 3033 H 290.44 2.65251 -5.49976 0
M  V30 3034 H 291.854 0.391742 -5.7196 0
M  V30 3035 H 290.251 -0.351551 -5.99069 0
M  V30 3036 H 291.321 -1.01374 -4.74185 0
M  V30 3037 N 292.664 1.56529 -0.183458 0
M  V30 3038 C 293.594 2.21549 0.737456 0
M  V30 3039 C 294.575 1.17489 1.23005 0
M  V30 3040 O 295.76 1.45959 1.281 0
M  V30 3041 C 292.89 2.86575 1.96194 0
M  V30 3042 C 291.844 3.96778 1.60473 0
M  V30 3043 C 291.17 4.48911 2.90487 0
M  V30 3044 C 292.47 5.15767 0.823497 0
M  V30 3045 H 294.164 2.98761 0.195453 0
M  V30 3046 H 291.71 1.43702 0.0925686 0
M  V30 3047 H 293.663 3.30739 2.61131 0
M  V30 3048 H 292.387 2.06749 2.52828 0
M  V30 3049 H 291.046 3.53286 0.978997 0
M  V30 3050 H 290.694 3.65862 3.45186 0
M  V30 3051 H 290.394 5.23265 2.67335 0
M  V30 3052 H 291.918 4.95771 3.56432 0
M  V30 3053 H 293.332 5.56549 1.37571 0
M  V30 3054 H 291.729 5.96114 0.690551 0
M  V30 3055 H 292.799 4.84574 -0.177782 0
M  V30 3056 N 294.142 -0.090211 1.57342 0
M  V30 3057 C 295.105 -1.09335 2.01441 0
M  V30 3058 C 296.105 -1.32666 0.908641 0
M  V30 3059 O 297.295 -1.28697 1.174 0
M  V30 3060 C 294.427 -2.44136 2.3793 0
M  V30 3061 H 295.62 -0.713662 2.91285 0
M  V30 3062 H 293.173 -0.335404 1.52659 0
M  V30 3063 H 293.908 -2.86972 1.51055 0
M  V30 3064 H 293.693 -2.28548 3.18603 0
M  V30 3065 H 295.183 -3.16277 2.72688 0
M  V30 3066 N 295.62 -1.53406 -0.361157 0
M  V30 3067 C 296.868 -1.69467 -1.10115 0
M  V30 3068 C 297.189 -0.451352 -1.89705 0
M  V30 3069 O 296.459 0.534636 -1.88463 0
M  V30 3070 H 295.039 -0.624749 -0.409508 0
M  V30 3071 H 297.701 -1.90609 -0.406699 0
M  V30 3072 H 296.797 -2.55774 -1.78847 0
M  V30 3073 N 297.098 0.621204 -1.44841 0
M  V30 3074 C 298.061 1.71459 -1.521 0
M  V30 3075 C 299.061 1.55696 -0.401933 0
M  V30 3076 O 300.251 1.61011 -0.664925 0
M  V30 3077 C 297.383 3.10624 -1.40447 0
M  V30 3078 H 298.576 1.66394 -2.49506 0
M  V30 3079 H 296.129 0.835745 -1.3208 0
M  V30 3080 H 296.864 3.21277 -0.441737 0
M  V30 3081 H 296.649 3.23473 -2.21602 0
M  V30 3082 H 298.139 3.90293 -1.4853 0
M  V30 3083 N 298.576 1.31904 0.862503 0
M  V30 3084 C 299.853 1.12644 1.59908 0
M  V30 3085 C 300.233 -0.316104 2.0872 0
M  V30 3086 O 299.581 -1.31145 1.87118 0
M  V30 3087 C 299.791 2.1472 2.7513 0
M  V30 3088 C 301.139 2.47637 3.44907 0
M  V30 3089 O 302.163 2.13205 2.85346 0
M  V30 3090 O 301.022 3.06632 4.52371 0
M  V30 3091 H 298.116 0.43416 0.703871 0
M  V30 3092 H 300.662 1.43408 0.907314 0
M  V30 3093 H 299.434 3.1172 2.3653 0
M  V30 3094 H 299.057 1.84905 3.51989 0
M  V30 3095 N 300.054 -1.07777 1.14986 0
M  V30 3096 C 301.302 -1.79934 0.920235 0
M  V30 3097 C 301.623 -1.86955 -0.554336 0
M  V30 3098 O 300.893 -1.36731 -1.40291 0
M  V30 3099 H 299.473 -0.666424 0.337473 0
M  V30 3100 H 302.135 -1.3027 1.44968 0
M  V30 3101 H 301.231 -2.82539 1.32583 0
M  V30 3102 N 301.532 -0.945985 -1.26051 0
M  V30 3103 C 302.78 -0.594941 -1.93145 0
M  V30 3104 C 303.101 0.86953 -1.7454 0
M  V30 3105 O 302.371 1.61838 -1.10387 0
M  V30 3106 H 300.951 -0.217044 -0.714773 0
M  V30 3107 H 303.613 -1.20235 -1.53393 0
M  V30 3108 H 302.709 -0.816835 -3.01221 0
M  V30 3109 N 303.011 1.40521 -0.713556 0
M  V30 3110 C 304.26 2.00155 -0.249192 0
M  V30 3111 C 304.573 1.57224 1.16362 0
M  V30 3112 O 305.779 2.09542 1.72639 0
M  V30 3113 C 304.235 3.5773 -0.3946 0
M  V30 3114 C 303.843 4.09635 -1.81392 0
M  V30 3115 C 305.587 4.24499 0.00907364 0
M  V30 3116 C 303.494 5.59707 -1.91003 0
M  V30 3117 H 302.424 0.74868 -0.0894114 0
M  V30 3118 H 305.075 1.60784 -0.884352 0
M  V30 3119 H 303.457 3.94792 0.30911 0
M  V30 3120 H 304.631 3.83955 -2.54785 0
M  V30 3121 H 302.946 3.55456 -2.16888 0
M  V30 3122 H 305.543 5.34683 -0.0420404 0
M  V30 3123 H 305.886 4.02824 1.05065 0
M  V30 3124 H 306.419 3.92536 -0.645007 0
M  V30 3125 H 303.158 5.86234 -2.93275 0
M  V30 3126 H 302.678 5.87258 -1.22019 0
M  V30 3127 H 304.357 6.24776 -1.6812 0
M  V30 3128 N 304.489 0.459591 1.5075 0
M  V30 3129 C 305.737 -0.0991532 2.01857 0
M  V30 3130 C 306.058 -1.41247 1.34441 0
M  V30 3131 O 305.328 -1.89775 0.486022 0
M  V30 3132 H 303.908 -0.039633 0.745948 0
M  V30 3133 H 306.57 0.607387 1.85194 0
M  V30 3134 H 305.666 -0.258998 3.11023 0
M  V30 3135 N 305.967 -1.56429 0.191757 0
M  V30 3136 C 307.192 -2.02309 -0.456706 0
M  V30 3137 C 307.617 -1.07103 -1.5463 0
M  V30 3138 O 306.975 -0.0539677 -1.8122 0
M  V30 3139 C 307.023 -3.46654 -0.993159 0
M  V30 3140 O 306.127 -3.54559 -2.10622 0
M  V30 3141 H 305.468 -0.655303 -0.107114 0
M  V30 3142 H 307.998 -2.02364 0.301653 0
M  V30 3143 H 308.008 -3.86377 -1.31061 0
M  V30 3144 H 306.683 -4.1544 -0.195504 0
M  V30 3145 H 305.26 -3.26708 -1.79767 0
M  V30 3146 N 307.445 0.0818655 -1.57387 0
M  V30 3147 C 308.673 0.796108 -1.9097 0
M  V30 3148 C 309.088 1.71626 -0.786757 0
M  V30 3149 O 308.445 1.80908 0.240513 0
M  V30 3150 C 308.496 1.59829 -3.24248 0
M  V30 3151 O 308.217 0.715131 -4.32224 0
M  V30 3152 C 309.718 2.41442 -3.7178 0
M  V30 3153 H 306.938 0.22691 -0.631469 0
M  V30 3154 H 309.482 0.0551439 -2.04426 0
M  V30 3155 H 307.637 2.29163 -3.12351 0
M  V30 3156 H 308.051 1.27205 -5.08841 0
M  V30 3157 H 309.525 2.932 -4.67694 0
M  V30 3158 H 310.002 3.2051 -3.00283 0
M  V30 3159 H 310.608 1.77283 -3.86589 0
M  V30 3160 N 308.923 1.53595 0.353017 0
M  V30 3161 C 310.153 1.74058 1.11299 0
M  V30 3162 C 310.561 0.475205 1.83135 0
M  V30 3163 O 309.904 -0.562344 1.74881 0
M  V30 3164 C 309.966 2.85994 2.17825 0
M  V30 3165 C 309.63 4.25923 1.65647 0
M  V30 3166 C 310.627 5.07829 1.11383 0
M  V30 3167 C 308.312 4.72377 1.7078 0
M  V30 3168 C 310.306 6.34285 0.629439 0
M  V30 3169 C 307.993 5.98808 1.21953 0
M  V30 3170 C 308.991 6.79594 0.681265 0
M  V30 3171 O 308.679 8.03651 0.200248 0
M  V30 3172 H 308.411 0.585327 0.338183 0
M  V30 3173 H 310.965 2.01186 0.413927 0
M  V30 3174 H 309.195 2.54368 2.91262 0
M  V30 3175 H 310.884 2.94515 2.79313 0
M  V30 3176 H 311.65 4.73107 1.06746 0
M  V30 3177 H 307.529 4.0956 2.11617 0
M  V30 3178 H 311.073 6.97288 0.208636 0
M  V30 3179 H 306.97 6.33026 1.26287 0
M  V30 3180 H 307.738 8.1788 0.318416 0
M  V30 3181 N 310.401 -0.613514 1.45168 0
M  V30 3182 C 311.349 -1.74572 1.53712 0
M  V30 3183 C 312.343 -1.64426 0.407505 0
M  V30 3184 O 313.549 -1.70291 0.583176 0
M  V30 3185 H 309.924 -0.576641 0.48269 0
M  V30 3186 H 311.895 -1.64492 2.48968 0
M  V30 3187 C 310.644 -3.12943 1.51532 0
M  V30 3188 H 309.967 -3.21407 2.37776 0
M  V30 3189 H 311.407 -3.9201 1.61569 0
M  V30 3190 C 309.866 -3.36053 0.238798 0
M  V30 3191 O 310.396 -3.95837 -0.6838 0
M  V30 3192 N 308.602 -2.9028 0.136359 0
M  V30 3193 H 308.149 -2.41811 0.887999 0
M  V30 3194 H 308.107 -3.06116 -0.716944 0
M  V30 3195 N 311.879 -1.3236 -0.855495 0
M  V30 3196 C 313.128 -1.22226 -1.60448 0
M  V30 3197 C 313.441 0.214733 -1.94418 0
M  V30 3198 O 314.647 0.437917 -2.67945 0
M  V30 3199 C 313.103 -2.14063 -2.89318 0
M  V30 3200 C 312.711 -3.62839 -2.62777 0
M  V30 3201 C 314.455 -2.12764 -3.67331 0
M  V30 3202 C 312.362 -4.4664 -3.87643 0
M  V30 3203 H 311.292 -0.453904 -0.602069 0
M  V30 3204 H 313.943 -1.57314 -0.944698 0
M  V30 3205 H 312.325 -1.71889 -3.5675 0
M  V30 3206 H 313.499 -4.1335 -2.03662 0
M  V30 3207 H 311.814 -3.66261 -1.98096 0
M  V30 3208 H 314.411 -2.72611 -4.59987 0
M  V30 3209 H 314.754 -1.11841 -4.00995 0
M  V30 3210 H 315.287 -2.53214 -3.06802 0
M  V30 3211 H 312.026 -5.48373 -3.5912 0
M  V30 3212 H 311.546 -4.0088 -4.46156 0
M  V30 3213 H 313.225 -4.59597 -4.55389 0
M  V30 3214 N 313.357 1.07166 -1.15556 0
M  V30 3215 C 314.29 2.13808 -0.797593 0
M  V30 3216 C 315.268 1.6101 0.226812 0
M  V30 3217 O 316.452 1.88161 0.112932 0
M  V30 3218 C 313.579 3.38187 -0.186371 0
M  V30 3219 C 312.625 4.09766 -1.18297 0
M  V30 3220 S 313.458 4.60932 -2.72584 0
M  V30 3221 C 314.614 5.88583 -2.12886 0
M  V30 3222 H 314.847 2.43843 -1.70083 0
M  V30 3223 H 312.38 1.19467 -0.978106 0
M  V30 3224 H 314.338 4.10189 0.159837 0
M  V30 3225 H 312.999 3.06326 0.694489 0
M  V30 3226 H 312.192 4.99065 -0.703562 0
M  V30 3227 H 311.794 3.43736 -1.47381 0
M  V30 3228 H 314.086 6.60866 -1.49208 0
M  V30 3229 H 315.029 6.41241 -3.0036 0
M  V30 3230 H 315.437 5.42194 -1.57116 0
M  V30 3231 N 314.835 0.952656 1.25548 0
M  V30 3232 C 316.083 0.605176 1.92826 0
M  V30 3233 C 316.404 -0.860261 1.74999 0
M  V30 3234 O 315.674 -1.6125 1.11244 0
M  V30 3235 H 314.254 0.220832 0.713612 0
M  V30 3236 H 316.916 1.21047 1.52754 0
M  V30 3237 H 316.012 0.832798 3.00784 0
M  V30 3238 N 316.313 -1.40141 0.720998 0
M  V30 3239 C 317.559 -2.01572 0.272075 0
M  V30 3240 C 317.914 -1.5616 -1.12391 0
M  V30 3241 O 317.207 -0.774198 -1.75262 0
M  V30 3242 C 317.401 -3.56165 0.296892 0
M  V30 3243 C 317.23 -4.16584 1.69375 0
M  V30 3244 C 316 -4.49783 2.30269 0
M  V30 3245 C 318.198 -4.41076 2.64493 0
M  V30 3246 N 316.18 -4.95626 3.62254 0
M  V30 3247 C 317.551 -4.88971 3.81192 0
M  V30 3248 C 319.606 -4.23122 2.62435 0
M  V30 3249 C 318.309 -5.20796 4.96149 0
M  V30 3250 C 320.335 -4.56052 3.76524 0
M  V30 3251 C 319.697 -5.04141 4.91956 0
M  V30 3252 H 315.796 -0.768343 0.145511 0
M  V30 3253 H 318.38 -1.70287 0.943959 0
M  V30 3254 H 316.551 -3.86868 -0.344578 0
M  V30 3255 H 318.283 -4.04346 -0.169254 0
M  V30 3256 H 315.038 -4.37101 1.82318 0
M  V30 3257 H 315.462 -5.22923 4.29977 0
M  V30 3258 H 320.104 -3.85158 1.74393 0
M  V30 3259 H 317.822 -5.57672 5.84831 0
M  V30 3260 H 321.408 -4.43796 3.76213 0
M  V30 3261 H 320.288 -5.29142 5.78774 0
M  V30 3262 N 317.792 -0.46758 -1.50504 0
M  V30 3263 C 319.208 -0.121533 -1.59137 0
M  V30 3264 C 319.408 1.3717 -1.47603 0
M  V30 3265 O 318.464 2.14464 -1.33272 0
M  V30 3266 C 319.777 -0.6686 -2.93173 0
M  V30 3267 C 321.325 -0.631716 -3.06559 0
M  V30 3268 C 321.8 -1.15627 -4.43164 0
M  V30 3269 N 323.291 -1.11553 -4.49567 0
M  V30 3270 C 324.026 -1.49195 -5.5365 0
M  V30 3271 N 323.522 -1.94269 -6.65005 0
M  V30 3272 N 325.315 -1.4082 -5.44175 0
M  V30 3273 H 317.466 -1.4388 -1.56245 0
M  V30 3274 H 319.729 -0.594784 -0.738198 0
M  V30 3275 H 319.435 -1.71453 -3.07078 0
M  V30 3276 H 319.309 -0.11021 -3.77039 0
M  V30 3277 H 321.696 0.405297 -2.92304 0
M  V30 3278 H 321.777 -1.22687 -2.24458 0
M  V30 3279 H 321.421 -2.1919 -4.58168 0
M  V30 3280 H 321.351 -0.537365 -5.23851 0
M  V30 3281 H 323.842 -0.784895 -3.69659 0
M  V30 3282 H 324.155 -2.21148 -7.40482 0
M  V30 3283 H 322.5 -1.98219 -6.66134 0
M  V30 3284 H 325.691 -1.0545 -4.56068 0
M  V30 3285 H 325.864 -1.70481 -6.25172 0
M  V30 3286 N 319.27 1.56325 -0.20005 0
M  V30 3287 C 320.5 2.01811 0.442232 0
M  V30 3288 C 320.908 1.07932 1.55394 0
M  V30 3289 O 320.251 0.0772685 1.83537 0
M  V30 3290 C 320.313 3.43685 1.05457 0
M  V30 3291 C 319.977 4.56928 0.0809833 0
M  V30 3292 C 320.974 5.15009 -0.711471 0
M  V30 3293 C 318.659 5.0229 -0.0315364 0
M  V30 3294 C 320.653 6.16904 -1.60336 0
M  V30 3295 C 318.34 6.04028 -0.926981 0
M  V30 3296 C 319.338 6.6121 -1.71146 0
M  V30 3297 O 319.026 7.60971 -2.59189 0
M  V30 3298 H 318.758 0.666173 0.114848 0
M  V30 3299 H 321.312 2.03085 -0.307511 0
M  V30 3300 H 319.542 3.39413 1.85299 0
M  V30 3301 H 321.231 3.72948 1.60201 0
M  V30 3302 H 321.997 4.80827 -0.634873 0
M  V30 3303 H 317.876 4.57476 0.568902 0
M  V30 3304 H 321.42 6.61464 -2.21611 0
M  V30 3305 H 317.317 6.37634 -1.00468 0
M  V30 3306 H 318.085 7.7841 -2.53023 0
M  V30 3307 N 320.748 -0.0735177 1.57428 0
M  V30 3308 C 321.68 -1.11423 2.00294 0
M  V30 3309 C 322.693 -1.35084 0.908637 0
M  V30 3310 O 323.882 -1.33355 1.18654 0
M  V30 3311 C 320.982 -2.46548 2.32523 0
M  V30 3312 C 320.155 -2.42867 3.63778 0
M  V30 3313 C 319.214 -3.60087 3.83697 0
M  V30 3314 O 318.24 -3.41595 4.55304 0
M  V30 3315 N 319.442 -4.80372 3.25919 0
M  V30 3316 H 322.207 -0.749206 2.90184 0
M  V30 3317 H 319.768 -0.262195 1.59763 0
M  V30 3318 H 321.76 -3.23607 2.43024 0
M  V30 3319 H 320.33 -2.75059 1.48531 0
M  V30 3320 H 319.55 -1.51206 3.64047 0
M  V30 3321 H 320.838 -2.37506 4.49965 0
M  V30 3322 H 320.236 -4.983 2.67795 0
M  V30 3323 H 318.793 -5.54948 3.41871 0
M  V30 3324 N 322.226 -1.5378 -0.344866 0
M  V30 3325 C 323.474 -1.70625 -1.08311 0
M  V30 3326 C 323.795 -0.471447 -1.89215 0
M  V30 3327 O 323.065 0.514616 -1.8902 0
M  V30 3328 H 321.645 -0.629058 -0.402859 0
M  V30 3329 H 324.307 -1.9103 -0.386459 0
M  V30 3330 H 323.403 -2.57656 -1.76124 0
M  V30 3331 N 323.704 0.605807 -1.45491 0
M  V30 3332 C 324.953 1.36086 -1.48874 0
M  V30 3333 C 325.266 1.95131 -0.135333 0
M  V30 3334 O 326.472 2.7146 -0.0468144 0
M  V30 3335 C 324.928 2.46518 -2.62215 0
M  V30 3336 C 324.536 1.93877 -4.03876 0
M  V30 3337 C 326.28 3.23512 -2.74846 0
M  V30 3338 C 324.187 3.01801 -5.08596 0
M  V30 3339 H 323.117 0.511497 -0.553974 0
M  V30 3340 H 325.768 0.649089 -1.71636 0
M  V30 3341 H 324.15 3.20388 -2.32739 0
M  V30 3342 H 325.324 1.26704 -4.43038 0
M  V30 3343 H 323.639 1.29622 -3.95711 0
M  V30 3344 H 326.236 4.04013 -3.50253 0
M  V30 3345 H 326.579 3.74631 -1.81542 0
M  V30 3346 H 327.112 2.56742 -3.03856 0
M  V30 3347 H 323.851 2.55597 -6.03614 0
M  V30 3348 H 323.371 3.67535 -4.74002 0
M  V30 3349 H 325.05 3.66152 -5.33424 0
M  V30 3350 N 325.182 1.32811 0.848464 0
M  V30 3351 C 326.428 1.23907 1.60546 0
M  V30 3352 C 326.761 -0.197161 1.93197 0
M  V30 3353 O 326.036 -1.13596 1.5788 0
M  V30 3354 C 326.319 2.10489 2.92175 0
M  V30 3355 C 326.172 3.62522 2.66266 0
M  V30 3356 C 327.491 1.97075 3.93509 0
M  V30 3357 H 324.61 0.451459 0.58254 0
M  V30 3358 H 327.252 1.62818 0.979296 0
M  V30 3359 H 325.402 1.77434 3.45614 0
M  V30 3360 H 327.074 4.05821 2.19334 0
M  V30 3361 H 325.317 3.84879 2.00126 0
M  V30 3362 H 325.988 4.18437 3.6002 0
M  V30 3363 H 328.464 2.26045 3.49346 0
M  V30 3364 H 327.34 2.59923 4.83457 0
M  V30 3365 H 327.601 0.940186 4.31987 0
M  V30 3366 N 326.66 -1.06551 1.16123 0
M  V30 3367 C 327.607 -2.13961 0.865414 0
M  V30 3368 C 328.577 -1.65066 -0.185055 0
M  V30 3369 O 329.762 -1.90732 -0.05083 0
M  V30 3370 C 326.902 -3.43113 0.369776 0
M  V30 3371 C 326.015 -4.05756 1.48276 0
M  V30 3372 C 325.15 -5.22773 0.942414 0
M  V30 3373 C 324.189 -5.77395 2.03179 0
M  V30 3374 N 323.326 -6.85731 1.50721 0
M  V30 3375 H 328.166 -2.38605 1.78527 0
M  V30 3376 H 325.703 -1.17072 0.890646 0
M  V30 3377 H 327.661 -4.17151 0.0640643 0
M  V30 3378 H 326.291 -3.18695 -0.513143 0
M  V30 3379 H 325.343 -3.29292 1.9045 0
M  V30 3380 H 326.655 -4.42351 2.30493 0
M  V30 3381 H 325.809 -6.03827 0.589729 0
M  V30 3382 H 324.548 -4.87618 0.0895191 0
M  V30 3383 H 323.553 -4.94981 2.3932 0
M  V30 3384 H 324.778 -6.14603 2.8886 0
M  V30 3385 H 322.724 -6.52499 0.676811 0
M  V30 3386 H 322.641 -7.21254 2.26557 0
M  V30 3387 H 323.909 -7.7047 1.18303 0
M  V30 3388 N 328.138 -0.959301 -1.25041 0
M  V30 3389 C 329.101 -0.487677 -2.23952 0
M  V30 3390 C 330.101 0.41119 -1.55454 0
M  V30 3391 O 331.291 0.207825 -1.72956 0
M  V30 3392 C 328.423 0.294807 -3.39623 0
M  V30 3393 H 329.616 -1.36198 -2.67189 0
M  V30 3394 H 327.169 -0.743042 -1.37508 0
M  V30 3395 H 327.904 1.18658 -3.01813 0
M  V30 3396 H 327.689 -0.35012 -3.90534 0
M  V30 3397 H 329.179 0.614089 -4.1306 0
M  V30 3398 N 329.616 1.39756 -0.72842 0
M  V30 3399 C 330.546 2.33289 -0.0991354 0
M  V30 3400 C 331.527 1.53568 0.731489 0
M  V30 3401 O 332.712 1.81987 0.677807 0
M  V30 3402 C 329.842 3.3763 0.813834 0
M  V30 3403 C 328.796 4.2791 0.0878663 0
M  V30 3404 C 328.122 5.22894 1.11741 0
M  V30 3405 C 329.422 5.11314 -1.06563 0
M  V30 3406 H 331.116 2.86163 -0.880408 0
M  V30 3407 H 328.662 1.37591 -0.424819 0
M  V30 3408 H 330.615 4.0201 1.26355 0
M  V30 3409 H 329.339 2.83181 1.62715 0
M  V30 3410 H 327.998 3.65 -0.342159 0
M  V30 3411 H 327.646 4.64744 1.92412 0
M  V30 3412 H 327.346 5.84143 0.636477 0
M  V30 3413 H 328.87 5.90151 1.56697 0
M  V30 3414 H 330.284 5.69076 -0.694671 0
M  V30 3415 H 328.681 5.81671 -1.47577 0
M  V30 3416 H 329.751 4.46534 -1.89038 0
M  V30 3417 N 331.094 0.475555 1.50254 0
M  V30 3418 C 332.041 -0.316293 2.28622 0
M  V30 3419 C 333.011 -0.983227 1.33873 0
M  V30 3420 O 334.196 -0.994805 1.62814 0
M  V30 3421 C 331.336 -1.38975 3.1588 0
M  V30 3422 C 330.449 -0.737146 4.25664 0
M  V30 3423 C 329.584 -1.78887 5.00173 0
M  V30 3424 C 328.623 -1.11676 6.01826 0
M  V30 3425 N 327.76 -2.11154 6.69596 0
M  V30 3426 H 332.6 0.358297 2.95838 0
M  V30 3427 H 330.137 0.188541 1.45887 0
M  V30 3428 H 332.095 -2.02383 3.64825 0
M  V30 3429 H 330.725 -2.03344 2.50701 0
M  V30 3430 H 329.777 0.0096065 3.80399 0
M  V30 3431 H 331.089 -0.206816 4.98371 0
M  V30 3432 H 330.243 -2.49865 5.52859 0
M  V30 3433 H 328.982 -2.35302 4.27182 0
M  V30 3434 H 327.987 -0.392633 5.48396 0
M  V30 3435 H 329.212 -0.55945 6.76792 0
M  V30 3436 H 327.158 -2.66577 5.99394 0
M  V30 3437 H 327.075 -1.63118 7.38193 0
M  V30 3438 H 328.343 -2.81497 7.26897 0
M  V30 3439 N 332.573 -1.56217 0.208337 0
M  V30 3440 C 333.483 -2.23316 -0.718836 0
M  V30 3441 C 334.499 -1.23648 -1.22422 0
M  V30 3442 O 335.675 -1.56423 -1.26861 0
M  V30 3443 C 332.74 -2.88968 -1.91568 0
M  V30 3444 C 331.801 -4.03943 -1.45357 0
M  V30 3445 C 331.034 -4.66455 -2.59337 0
M  V30 3446 O 331.257 -4.27919 -3.77149 0
M  V30 3447 O 330.191 -5.55686 -2.31293 0
M  V30 3448 H 334.017 -3.03182 -0.177315 0
M  V30 3449 H 331.602 -1.49384 -0.0215402 0
M  V30 3450 H 333.484 -3.30455 -2.61491 0
M  V30 3451 H 332.159 -2.12071 -2.44556 0
M  V30 3452 H 331.066 -3.67052 -0.722746 0
M  V30 3453 H 332.399 -4.82543 -0.970219 0
M  V30 3454 N 334.051 0.0651679 -1.57465 0
M  V30 3455 C 335.299 0.761555 -1.87202 0
M  V30 3456 C 335.62 1.77778 -0.801243 0
M  V30 3457 O 334.89 1.95166 0.16937 0
M  V30 3458 H 333.47 0.284251 -0.690804 0
M  V30 3459 H 336.132 0.0396827 -1.9486 0
M  V30 3460 H 335.228 1.27365 -2.84929 0
M  V30 3461 N 335.529 1.53961 0.336706 0
M  V30 3462 C 336.806 1.62171 1.09361 0
M  V30 3463 C 337.186 0.447263 2.06307 0
M  V30 3464 O 336.534 -0.559802 2.21537 0
M  V30 3465 C 336.744 2.98565 1.80721 0
M  V30 3466 C 338.092 3.54157 2.34218 0
M  V30 3467 O 339.116 3.00784 1.90807 0
M  V30 3468 O 337.975 4.47528 3.13657 0
M  V30 3469 H 335.069 0.6562 0.503319 0
M  V30 3470 H 337.615 1.66307 0.33765 0
M  V30 3471 H 336.387 3.75482 1.10132 0
M  V30 3472 H 336.01 2.9805 2.63158 0
M  V30 3473 N 337.007 -0.598083 1.45811 0
M  V30 3474 C 338.256 -1.35295 1.49594 0
M  V30 3475 C 338.569 -1.95057 0.145679 0
M  V30 3476 O 339.775 -2.71431 0.0612099 0
M  V30 3477 C 338.231 -2.45124 2.63519 0
M  V30 3478 C 337.839 -1.91732 4.04899 0
M  V30 3479 C 339.583 -3.2205 2.76558 0
M  V30 3480 C 337.49 -2.991 5.1019 0
M  V30 3481 H 336.42 -0.508552 0.556679 0
M  V30 3482 H 339.071 -0.639977 1.71978 0
M  V30 3483 H 337.453 -3.19149 2.34435 0
M  V30 3484 H 338.627 -1.24352 4.43704 0
M  V30 3485 H 336.942 -1.27522 3.96393 0
M  V30 3486 H 339.539 -4.0215 3.52391 0
M  V30 3487 H 339.882 -3.73663 1.83526 0
M  V30 3488 H 340.415 -2.55127 3.05213 0
M  V30 3489 H 337.154 -2.52393 6.04961 0
M  V30 3490 H 336.674 -3.65017 4.75944 0
M  V30 3491 H 338.353 -3.63318 5.35359 0
M  V30 3492 N 338.485 -1.33259 -0.841409 0
M  V30 3493 C 339.417 -1.19136 -1.95804 0
M  V30 3494 C 340.43 -0.122965 -1.62335 0
M  V30 3495 O 341.619 -0.373154 -1.74556 0
M  V30 3496 C 338.719 -0.804268 -3.29218 0
M  V30 3497 C 337.892 -1.96376 -3.90839 0
M  V30 3498 C 336.951 -1.55806 -5.02604 0
M  V30 3499 O 335.977 -2.27203 -5.21888 0
M  V30 3500 N 337.179 -0.461609 -5.78662 0
M  V30 3501 H 339.944 -2.15326 -2.08458 0
M  V30 3502 H 337.505 -1.25971 -1.017 0
M  V30 3503 H 339.497 -0.51501 -4.0141 0
M  V30 3504 H 338.067 0.0668809 -3.12528 0
M  V30 3505 H 337.287 -2.41879 -3.11269 0
M  V30 3506 H 338.575 -2.73966 -4.28742 0
M  V30 3507 H 337.973 0.132343 -5.65545 0
M  V30 3508 H 336.53 -0.232013 -6.51387 0
M  V30 3509 N 339.963 1.05934 -1.16686 0
M  V30 3510 C 341.191 1.8249 -0.974929 0
M  V30 3511 C 341.606 1.82679 0.476861 0
M  V30 3512 O 340.963 1.2486 1.33103 0
M  V30 3513 C 341.014 3.28943 -1.49929 0
M  V30 3514 O 340.735 3.28886 -2.89423 0
M  V30 3515 C 342.236 4.22215 -1.35089 0
M  V30 3516 H 339.456 0.575295 -0.345365 0
M  V30 3517 H 342 1.33631 -1.548 0
M  V30 3518 H 340.155 3.751 -0.968423 0
M  V30 3519 H 340.569 4.20493 -3.13506 0
M  V30 3520 H 342.043 5.22987 -1.76603 0
M  V30 3521 H 342.52 4.38195 -0.296935 0
M  V30 3522 H 343.126 3.81907 -1.87155 0
M  V30 3523 N 341.441 0.965919 1.2453 0
M  V30 3524 C 342.404 0.499547 2.2369 0
M  V30 3525 C 343.404 -0.40294 1.5567 0
M  V30 3526 O 344.594 -0.19865 1.73064 0
M  V30 3527 C 341.726 -0.276792 3.39774 0
M  V30 3528 H 342.919 1.37613 2.66463 0
M  V30 3529 H 340.472 0.750324 1.37112 0
M  V30 3530 H 341.207 -1.17055 3.02438 0
M  V30 3531 H 340.992 0.370826 3.90343 0
M  V30 3532 H 342.482 -0.592175 4.1338 0
M  V30 3533 N 342.919 -1.39368 0.735821 0
M  V30 3534 C 343.851 -2.2913 0.0567723 0
M  V30 3535 C 344.864 -1.46859 -0.702589 0
M  V30 3536 O 346.053 -1.69925 -0.546616 0
M  V30 3537 C 343.153 -3.25492 -0.943823 0
M  V30 3538 C 342.326 -4.36709 -0.24581 0
M  V30 3539 C 341.385 -5.13376 -1.15463 0
M  V30 3540 O 340.411 -5.65683 -0.631803 0
M  V30 3541 N 341.613 -5.24656 -2.48427 0
M  V30 3542 H 344.378 -2.88047 0.827582 0
M  V30 3543 H 341.939 -1.50957 0.585112 0
M  V30 3544 H 343.931 -3.73657 -1.55443 0
M  V30 3545 H 342.501 -2.676 -1.61583 0
M  V30 3546 H 341.721 -3.9041 0.545286 0
M  V30 3547 H 343.009 -5.08244 0.237891 0
M  V30 3548 H 342.407 -4.83679 -2.93379 0
M  V30 3549 H 340.964 -5.76258 -3.04582 0
M  V30 3550 N 344.397 -0.483516 -1.5 0
M  V30 3551 C 345.344 0.304164 -2.28787 0
M  V30 3552 C 346.314 0.976114 -1.34392 0
M  V30 3553 O 347.499 0.986156 -1.63339 0
M  V30 3554 C 344.639 1.37298 -3.16612 0
M  V30 3555 C 343.752 0.714561 -4.26049 0
M  V30 3556 C 342.887 1.76232 -5.01114 0
M  V30 3557 C 341.926 1.08483 -6.0241 0
M  V30 3558 N 341.063 2.076 -6.70706 0
M  V30 3559 H 345.903 -0.373981 -2.95644 0
M  V30 3560 H 343.44 -0.196275 -1.45785 0
M  V30 3561 H 345.398 2.00445 -3.65893 0
M  V30 3562 H 344.028 2.02012 -2.51776 0
M  V30 3563 H 343.08 -0.0297798 -3.80388 0
M  V30 3564 H 344.392 0.180383 -4.98474 0
M  V30 3565 H 343.546 2.46929 -5.54176 0
M  V30 3566 H 342.285 2.33033 -4.28424 0
M  V30 3567 H 341.29 0.363545 -5.48597 0
M  V30 3568 H 342.515 0.523551 -6.77079 0
M  V30 3569 H 340.461 2.63394 -6.00799 0
M  V30 3570 H 340.378 1.59201 -7.39047 0
M  V30 3571 H 341.646 2.77639 -7.2838 0
M  V30 3572 N 345.875 1.56104 -0.216619 0
M  V30 3573 C 346.805 2.23063 0.690296 0
M  V30 3574 C 347.786 1.20072 1.20485 0
M  V30 3575 O 348.971 1.48643 1.24976 0
M  V30 3576 C 346.101 2.90672 1.90072 0
M  V30 3577 C 345.055 4.00092 1.5202 0
M  V30 3578 C 344.381 4.54972 2.80899 0
M  V30 3579 C 345.681 5.17398 0.71391 0
M  V30 3580 H 347.375 2.99109 0.132038 0
M  V30 3581 H 344.921 1.43866 0.0620664 0
M  V30 3582 H 346.874 3.36204 2.54057 0
M  V30 3583 H 345.598 2.12066 2.48386 0
M  V30 3584 H 344.257 3.55283 0.903839 0
M  V30 3585 H 343.905 3.73102 3.37348 0
M  V30 3586 H 343.605 5.28817 2.56176 0
M  V30 3587 H 345.129 5.0322 3.45836 0
M  V30 3588 H 346.543 5.59342 1.25735 0
M  V30 3589 H 344.94 5.97444 0.563951 0
M  V30 3590 H 346.01 4.84088 -0.280527 0
M  V30 3591 N 347.353 -0.0568162 1.57498 0
M  V30 3592 C 348.285 -1.09292 2.01464 0
M  V30 3593 C 349.298 -1.34112 0.922913 0
M  V30 3594 O 350.487 -1.32089 1.20062 0
M  V30 3595 C 347.587 -2.44068 2.35125 0
M  V30 3596 C 346.76 -2.38995 3.66333 0
M  V30 3597 C 345.819 -3.55997 3.87495 0
M  V30 3598 O 344.845 -3.36746 4.58901 0
M  V30 3599 N 346.047 -4.76888 3.30996 0
M  V30 3600 H 348.812 -0.718386 2.90963 0
M  V30 3601 H 346.373 -0.245235 1.60032 0
M  V30 3602 H 348.365 -3.21011 2.46443 0
M  V30 3603 H 346.935 -2.73468 1.5144 0
M  V30 3604 H 346.155 -1.47336 3.65631 0
M  V30 3605 H 347.443 -2.3272 4.52458 0
M  V30 3606 H 346.841 -4.95431 2.73065 0
M  V30 3607 H 345.398 -5.51291 3.47738 0
M  V30 3608 N 348.832 -1.54138 -0.328536 0
M  V30 3609 C 350.06 -1.76062 -1.08673 0
M  V30 3610 C 350.475 -0.506852 -1.81869 0
M  V30 3611 O 349.832 0.522223 -1.74869 0
M  V30 3612 C 349.883 -2.95054 -2.08866 0
M  V30 3613 O 349.604 -4.15583 -1.38644 0
M  V30 3614 C 351.105 -3.2915 -2.96943 0
M  V30 3615 H 348.325 -0.587889 -0.323461 0
M  V30 3616 H 350.869 -2.0101 -0.376175 0
M  V30 3617 H 349.024 -2.72394 -2.75464 0
M  V30 3618 H 349.438 -4.82481 -2.05699 0
M  V30 3619 H 350.912 -4.15723 -3.63151 0
M  V30 3620 H 351.389 -2.461 -3.63774 0
M  V30 3621 H 351.995 -3.53871 -2.35914 0
M  V30 3622 N 350.31 0.590341 -1.46126 0
M  V30 3623 C 351.22 1.72793 -1.58681 0
M  V30 3624 C 352.236 1.67516 -0.470566 0
M  V30 3625 O 353.412 1.87562 -0.733642 0
M  V30 3626 C 350.477 3.09287 -1.5666 0
M  V30 3627 C 349.538 3.25886 -2.79458 0
M  V30 3628 C 348.771 4.55869 -2.77524 0
M  V30 3629 O 348.994 5.3928 -1.85832 0
M  V30 3630 O 347.928 4.75552 -3.68964 0
M  V30 3631 H 351.754 1.65149 -2.54872 0
M  V30 3632 H 349.339 0.756486 -1.28832 0
M  V30 3633 H 351.221 3.90577 -1.58202 0
M  V30 3634 H 349.896 3.17385 -0.636271 0
M  V30 3635 H 348.803 2.44119 -2.83472 0
M  V30 3636 H 350.136 3.22675 -3.71674 0
M  V30 3637 N 351.788 1.33704 0.83433 0
M  V30 3638 C 353.028 1.26754 1.60352 0
M  V30 3639 C 353.392 -0.163182 1.91305 0
M  V30 3640 O 354.593 -0.3567 2.66423 0
M  V30 3641 C 352.864 2.12262 2.8754 0
M  V30 3642 S 354.423 2.22549 3.78176 0
M  V30 3643 H 351.241 0.450879 0.549753 0
M  V30 3644 H 353.843 1.68788 0.986444 0
M  V30 3645 H 352.547 3.15238 2.62779 0
M  V30 3646 H 352.078 1.71082 3.54252 0
M  V30 3647 H 354.093 1.3899 4.76336 0
M  V30 3648 N 353.266 -1.05314 1.17247 0
M  V30 3649 C 354.214 -2.15137 0.884238 0
M  V30 3650 C 355.208 -1.68729 -0.15063 0
M  V30 3651 O 356.414 -1.8 -0.00366673 0
M  V30 3652 H 352.789 -0.702471 0.2684 0
M  V30 3653 H 354.76 -2.36652 1.81764 0
M  V30 3654 C 353.509 -3.45243 0.412659 0
M  V30 3655 H 352.832 -3.81352 1.20043 0
M  V30 3656 H 354.272 -4.23263 0.249858 0
M  V30 3657 C 352.731 -3.25487 -0.86948 0
M  V30 3658 O 353.261 -3.51938 -1.93655 0
M  V30 3659 N 351.467 -2.78875 -0.817147 0
M  V30 3660 H 351.014 -2.57549 0.0514211 0
M  V30 3661 H 350.972 -2.66036 -1.67547 0
M  V30 3662 N 354.744 -0.972509 -1.24016 0
M  V30 3663 C 355.691 -0.505969 -2.25186 0
M  V30 3664 C 356.661 0.451009 -1.5986 0
M  V30 3665 O 357.846 0.360307 -1.87367 0
M  V30 3666 C 354.986 0.193089 -3.44559 0
M  V30 3667 C 354.099 -0.803222 -4.24467 0
M  V30 3668 C 353.234 -0.0797793 -5.3114 0
M  V30 3669 C 352.273 -1.06583 -6.02749 0
M  V30 3670 N 351.41 -0.372074 -7.01113 0
M  V30 3671 H 356.25 -1.37351 -2.64459 0
M  V30 3672 H 353.787 -0.688419 -1.29997 0
M  V30 3673 H 355.745 0.615125 -4.1264 0
M  V30 3674 H 354.375 1.02455 -3.06109 0
M  V30 3675 H 353.427 -1.34368 -3.55878 0
M  V30 3676 H 354.739 -1.55494 -4.73944 0
M  V30 3677 H 353.893 0.400015 -6.0538 0
M  V30 3678 H 352.632 0.704597 -4.82583 0
M  V30 3679 H 351.637 -1.55645 -5.27309 0
M  V30 3680 H 352.862 -1.85074 -6.53395 0
M  V30 3681 H 350.808 0.393238 -6.5482 0
M  V30 3682 H 350.725 -1.06258 -7.48495 0
M  V30 3683 H 351.993 0.0855932 -7.79453 0
M  V30 3684 N 356.222 1.38976 -0.743202 0
M  V30 3685 C 357.468 2.0064 -0.295189 0
M  V30 3686 C 357.801 1.5885 1.11716 0
M  V30 3687 O 357.076 0.821181 1.76315 0
M  V30 3688 C 357.359 3.578 -0.406318 0
M  V30 3689 C 357.212 4.09586 -1.85903 0
M  V30 3690 C 358.531 4.39616 0.206439 0
M  V30 3691 H 355.65 0.728935 -0.108733 0
M  V30 3692 H 358.292 1.65067 -0.940897 0
M  V30 3693 H 356.442 3.88235 0.143419 0
M  V30 3694 H 358.114 3.89837 -2.46627 0
M  V30 3695 H 356.357 3.6284 -2.3776 0
M  V30 3696 H 357.028 5.18708 -1.888 0
M  V30 3697 H 359.504 4.15273 -0.262283 0
M  V30 3698 H 358.38 5.48812 0.0983819 0
M  V30 3699 H 358.641 4.22754 1.2935 0
M  V30 3700 N 357.7 0.491464 1.49741 0
M  V30 3701 C 358.949 -0.0582189 2.01616 0
M  V30 3702 C 359.262 -1.38927 1.3769 0
M  V30 3703 O 360.468 -2.02509 1.80838 0
M  V30 3704 C 358.924 -0.154235 3.59569 0
M  V30 3705 C 358.532 1.1696 4.32463 0
M  V30 3706 C 360.276 -0.65479 4.1942 0
M  V30 3707 C 358.183 1.03627 5.8225 0
M  V30 3708 H 357.113 -0.0255317 0.753568 0
M  V30 3709 H 359.764 0.629445 1.72367 0
M  V30 3710 H 358.146 -0.906138 3.85493 0
M  V30 3711 H 359.32 1.93405 4.18248 0
M  V30 3712 H 357.635 1.60285 3.84315 0
M  V30 3713 H 360.232 -0.771903 5.29099 0
M  V30 3714 H 360.575 -1.65127 3.8215 0
M  V30 3715 H 361.108 0.040304 3.9778 0
M  V30 3716 H 357.847 2.00672 6.24028 0
M  V30 3717 H 357.367 0.312546 5.98985 0
M  V30 3718 H 359.046 0.711114 6.4308 0
M  V30 3719 N 359.178 -1.55987 0.224894 0
M  V30 3720 C 360.455 -1.90232 -0.455083 0
M  V30 3721 C 360.835 -1.14269 -1.77499 0
M  V30 3722 O 360.183 -0.253079 -2.27094 0
M  V30 3723 C 360.393 -3.42993 -0.644758 0
M  V30 3724 C 361.741 -4.13821 -0.950669 0
M  V30 3725 O 362.765 -3.4861 -0.731423 0
M  V30 3726 O 361.624 -5.29128 -1.36695 0
M  V30 3727 H 358.718 -0.79108 -0.241084 0
M  V30 3728 H 361.264 -1.67581 0.267327 0
M  V30 3729 H 360.036 -3.90252 0.28613 0
M  V30 3730 H 359.659 -3.71434 -1.41853 0
M  V30 3731 N 360.656 0.0484629 -1.57525 0
M  V30 3732 C 361.586 1.0549 -2.08313 0
M  V30 3733 C 362.567 1.38929 -0.981463 0
M  V30 3734 O 363.752 1.48151 -1.25558 0
M  V30 3735 C 360.882 2.36162 -2.54646 0
M  V30 3736 C 359.836 2.17016 -3.68901 0
M  V30 3737 C 359.162 3.53278 -4.01371 0
M  V30 3738 C 360.462 1.57219 -4.98076 0
M  V30 3739 H 362.156 0.632195 -2.92649 0
M  V30 3740 H 359.702 0.302654 -1.40784 0
M  V30 3741 H 361.655 3.06882 -2.88793 0
M  V30 3742 H 360.379 2.80456 -1.67368 0
M  V30 3743 H 359.038 1.48733 -3.35073 0
M  V30 3744 H 358.686 3.95185 -3.11188 0
M  V30 3745 H 358.386 3.41299 -4.78318 0
M  V30 3746 H 359.91 4.25391 -4.38035 0
M  V30 3747 H 361.324 2.17832 -5.30304 0
M  V30 3748 H 359.721 1.55871 -5.79503 0
M  V30 3749 H 360.791 0.535956 -4.81929 0
M  V30 3750 N 362.134 1.5431 0.320358 0
M  V30 3751 C 363.064 1.86912 1.3995 0
M  V30 3752 C 364.045 0.726211 1.53819 0
M  V30 3753 O 365.23 0.980233 1.67646 0
M  V30 3754 C 362.36 2.09932 2.7667 0
M  V30 3755 C 361.314 3.25776 2.77586 0
M  V30 3756 C 360.64 3.34173 4.17412 0
M  V30 3757 C 361.94 4.6335 2.41048 0
M  V30 3758 H 363.634 2.77292 1.12914 0
M  V30 3759 H 361.18 1.33421 0.541738 0
M  V30 3760 H 363.133 2.31324 3.52232 0
M  V30 3761 H 361.857 1.16304 3.0519 0
M  V30 3762 H 360.516 3.04276 2.04479 0
M  V30 3763 H 360.164 2.38098 4.43078 0
M  V30 3764 H 359.864 4.12033 4.18931 0
M  V30 3765 H 361.388 3.57803 4.94782 0
M  V30 3766 H 362.802 4.84602 3.06324 0
M  V30 3767 H 361.199 5.43782 2.53813 0
M  V30 3768 H 362.269 4.65381 1.36193 0
M  V30 3769 N 363.613 -0.582584 1.46437 0
M  V30 3770 C 364.862 -1.337 1.5102 0
M  V30 3771 C 365.175 -1.94891 0.166359 0
M  V30 3772 O 366.381 -2.71351 0.0899954 0
M  V30 3773 C 364.837 -2.42315 2.66104 0
M  V30 3774 C 364.445 -1.87427 4.06909 0
M  V30 3775 C 366.189 -3.19099 2.79958 0
M  V30 3776 C 364.096 -2.93672 5.13333 0
M  V30 3777 H 363.026 -0.502619 0.562041 0
M  V30 3778 H 365.677 -0.621701 1.72647 0
M  V30 3779 H 364.059 -3.16645 2.37807 0
M  V30 3780 H 365.233 -1.19639 4.44998 0
M  V30 3781 H 363.548 -1.2331 3.97723 0
M  V30 3782 H 366.145 -3.9839 3.56636 0
M  V30 3783 H 366.488 -3.71695 1.87479 0
M  V30 3784 H 367.021 -2.51875 3.07902 0
M  V30 3785 H 363.76 -2.45962 6.07604 0
M  V30 3786 H 363.28 -3.59948 4.79789 0
M  V30 3787 H 364.959 -3.5762 5.39182 0
M  V30 3788 N 365.091 -1.34144 -0.827227 0
M  V30 3789 C 366.038 -1.25364 -1.93785 0
M  V30 3790 C 367.008 -0.129774 -1.65592 0
M  V30 3791 O 368.193 -0.310024 -1.88264 0
M  V30 3792 C 365.333 -1.01064 -3.2997 0
M  V30 3793 C 364.446 -2.22185 -3.70484 0
M  V30 3794 C 363.581 -1.91203 -4.95595 0
M  V30 3795 C 362.62 -3.08491 -5.28677 0
M  V30 3796 N 361.757 -2.77421 -6.44967 0
M  V30 3797 H 366.597 -2.20347 -2.00627 0
M  V30 3798 H 364.134 -1.09558 -0.981608 0
M  V30 3799 H 366.092 -0.850139 -4.08446 0
M  V30 3800 H 364.722 -0.0975026 -3.22653 0
M  V30 3801 H 363.774 -2.4917 -2.87434 0
M  V30 3802 H 365.086 -3.0983 -3.90905 0
M  V30 3803 H 364.24 -1.71864 -5.81848 0
M  V30 3804 H 362.979 -1.00812 -4.77167 0
M  V30 3805 H 361.984 -3.28431 -4.40923 0
M  V30 3806 H 363.209 -3.99655 -5.49047 0
M  V30 3807 H 361.155 -1.89601 -6.28003 0
M  V30 3808 H 361.072 -3.58598 -6.6554 0
M  V30 3809 H 362.34 -2.61577 -7.34301 0
M  V30 3810 N 366.569 1.04691 -1.17803 0
M  V30 3811 C 367.797 1.81446 -0.99423 0
M  V30 3812 C 368.212 1.83174 0.457459 0
M  V30 3813 O 367.569 1.26265 1.31771 0
M  V30 3814 C 367.62 3.27334 -1.5341 0
M  V30 3815 O 367.341 3.25798 -2.92895 0
M  V30 3816 C 368.842 4.20759 -1.39559 0
M  V30 3817 H 366.062 0.571599 -0.351447 0
M  V30 3818 H 368.606 1.31982 -1.56208 0
M  V30 3819 H 366.761 3.74052 -1.00815 0
M  V30 3820 H 367.175 4.17144 -3.17949 0
M  V30 3821 H 368.649 5.21084 -1.82141 0
M  V30 3822 H 369.126 4.37856 -0.343394 0
M  V30 3823 H 369.732 3.79901 -1.91195 0
M  V30 3824 N 368.047 0.979072 1.23499 0
M  V30 3825 C 369.295 0.645941 1.91499 0
M  V30 3826 C 369.616 -0.822948 1.76784 0
M  V30 3827 O 368.886 -1.58854 1.14639 0
M  V30 3828 H 367.466 0.235919 0.708767 0
M  V30 3829 H 370.128 1.2426 1.50152 0
M  V30 3830 H 369.224 0.896411 2.9895 0
M  V30 3831 N 369.525 -1.3858 0.750561 0
M  V30 3832 C 370.771 -2.00481 0.305825 0
M  V30 3833 C 371.104 -1.5944 -1.10872 0
M  V30 3834 O 370.379 -0.83052 -1.75877 0
M  V30 3835 C 370.662 -3.5758 0.425287 0
M  V30 3836 C 370.515 -4.08594 1.88072 0
M  V30 3837 C 371.834 -4.39719 -0.183122 0
M  V30 3838 H 368.953 -0.728348 0.112598 0
M  V30 3839 H 371.595 -1.64566 0.949638 0
M  V30 3840 H 369.745 -3.88306 -0.122828 0
M  V30 3841 H 371.417 -3.88523 2.48691 0
M  V30 3842 H 369.66 -3.61574 2.39681 0
M  V30 3843 H 370.331 -5.177 1.91548 0
M  V30 3844 H 372.807 -4.15128 0.284303 0
M  V30 3845 H 371.683 -5.48856 -0.0692757 0
M  V30 3846 H 371.944 -4.23434 -1.27106 0
M  V30 3847 N 371.003 -0.499398 -1.49478 0
M  V30 3848 C 372.25 0.0456899 -2.02448 0
M  V30 3849 C 372.578 1.37142 -1.37921 0
M  V30 3850 O 371.833 1.89111 -0.503544 0
M  V30 3851 C 372.132 0.248424 -3.56536 0
M  V30 3852 C 371.798 -0.999107 -4.39692 0
M  V30 3853 C 370.46 -1.34108 -4.62135 0
M  V30 3854 C 372.812 -1.82842 -4.88076 0
M  V30 3855 C 370.14 -2.51191 -5.30208 0
M  V30 3856 C 372.492 -2.99076 -5.57437 0
M  V30 3857 C 371.156 -3.33655 -5.78127 0
M  V30 3858 H 370.426 0.0167191 -0.740811 0
M  V30 3859 H 373.073 -0.65923 -1.79795 0
M  V30 3860 H 371.378 1.03586 -3.77859 0
M  V30 3861 H 373.075 0.684605 -3.95113 0
M  V30 3862 H 369.665 -0.722729 -4.22463 0
M  V30 3863 H 373.849 -1.57737 -4.70566 0
M  V30 3864 H 369.105 -2.78221 -5.44429 0
M  V30 3865 H 373.279 -3.63664 -5.93904 0
M  V30 3866 H 370.906 -4.24483 -6.30649 0
M  V30 3867 N 372.481 1.55866 -0.233164 0
M  V30 3868 C 373.897 1.59133 0.121988 0
M  V30 3869 C 374.097 1.25016 1.58029 0
M  V30 3870 O 373.153 0.990922 2.32243 0
M  V30 3871 C 374.466 2.99932 -0.214792 0
M  V30 3872 C 376.014 3.12601 -0.157971 0
M  V30 3873 C 376.489 4.55597 -0.46859 0
M  V30 3874 N 377.98 4.61305 -0.418585 0
M  V30 3875 C 378.715 5.69903 -0.63227 0
M  V30 3876 N 378.211 6.86819 -0.90835 0
M  V30 3877 N 380.004 5.59264 -0.563913 0
M  V30 3878 H 372.155 1.76315 -1.18434 0
M  V30 3879 H 374.418 0.820093 -0.475553 0
M  V30 3880 H 374.124 3.29588 -1.22739 0
M  V30 3881 H 373.998 3.74327 0.464691 0
M  V30 3882 H 376.385 2.82735 0.845283 0
M  V30 3883 H 376.466 2.40511 -0.871102 0
M  V30 3884 H 376.11 4.86182 -1.46934 0
M  V30 3885 H 376.04 5.25928 0.265865 0
M  V30 3886 H 378.531 3.77297 -0.213368 0
M  V30 3887 H 378.844 7.65507 -1.05919 0
M  V30 3888 H 377.189 6.88536 -0.945673 0
M  V30 3889 H 380.38 4.66802 -0.348372 0
M  V30 3890 H 380.553 6.43831 -0.733847 0
M  V30 3891 N 373.959 -0.0401083 1.57549 0
M  V30 3892 C 375.207 -0.731677 1.8839 0
M  V30 3893 C 375.528 -1.76481 0.829425 0
M  V30 3894 O 374.798 -1.95411 -0.1383 0
M  V30 3895 H 373.378 -0.273225 0.695239 0
M  V30 3896 H 376.04 -0.00867725 1.94898 0
M  V30 3897 H 375.136 -1.22816 2.86919 0
M  V30 3898 N 375.437 -1.54477 -0.31217 0
M  V30 3899 C 376.367 -1.87652 -1.38957 0
M  V30 3900 C 377.348 -0.734358 -1.53431 0
M  V30 3901 O 378.533 -0.98911 -1.67123 0
M  V30 3902 C 375.663 -2.11396 -2.75552 0
M  V30 3903 C 374.617 -3.27243 -2.75855 0
M  V30 3904 C 373.943 -3.36382 -4.15633 0
M  V30 3905 C 375.243 -4.64622 -2.38587 0
M  V30 3906 H 376.937 -2.77887 -1.11442 0
M  V30 3907 H 374.483 -1.33707 -0.534655 0
M  V30 3908 H 376.436 -2.33189 -3.51 0
M  V30 3909 H 375.16 -1.17921 -3.04569 0
M  V30 3910 H 373.819 -3.05356 -2.02863 0
M  V30 3911 H 373.467 -2.40445 -4.41809 0
M  V30 3912 H 373.167 -4.14249 -4.1674 0
M  V30 3913 H 374.691 -3.60422 -4.92877 0
M  V30 3914 H 376.105 -4.86219 -3.03749 0
M  V30 3915 H 374.502 -5.45121 -2.50925 0
M  V30 3916 H 375.572 -4.66097 -1.33723 0
M  V30 3917 N 376.915 0.57481 -1.46744 0
M  V30 3918 C 377.862 1.68329 -1.57905 0
M  V30 3919 C 378.832 1.60625 -0.422927 0
M  V30 3920 O 380.017 1.79721 -0.640711 0
M  V30 3921 C 377.157 3.06665 -1.58274 0
M  V30 3922 C 376.27 3.24935 -2.84678 0
M  V30 3923 C 375.405 4.53566 -2.76499 0
M  V30 3924 C 374.444 4.65207 -3.97806 0
M  V30 3925 N 373.581 5.85172 -3.87967 0
M  V30 3926 H 378.421 1.58127 -2.52587 0
M  V30 3927 H 375.958 0.770552 -1.25303 0
M  V30 3928 H 377.916 3.86745 -1.56473 0
M  V30 3929 H 376.546 3.15745 -0.671194 0
M  V30 3930 H 375.598 2.38405 -2.96424 0
M  V30 3931 H 376.91 3.29403 -3.7456 0
M  V30 3932 H 376.064 5.41885 -2.72848 0
M  V30 3933 H 374.803 4.51548 -1.8427 0
M  V30 3934 H 373.808 3.75304 -4.0178 0
M  V30 3935 H 375.033 4.68997 -4.9114 0
M  V30 3936 H 372.979 5.84137 -2.98529 0
M  V30 3937 H 372.896 5.90943 -4.71511 0
M  V30 3938 H 374.164 6.759 -3.88303 0
M  V30 3939 N 378.394 1.34581 0.820102 0
M  V30 3940 C 379.622 1.3018 1.60813 0
M  V30 3941 C 380.037 -0.123551 1.88395 0
M  V30 3942 O 379.394 -1.07148 1.47735 0
M  V30 3943 C 379.445 2.09312 2.94739 0
M  V30 3944 O 379.166 3.46288 2.68358 0
M  V30 3945 C 380.667 2.1234 3.89136 0
M  V30 3946 H 377.887 0.447726 0.499782 0
M  V30 3947 H 380.431 1.77237 1.02017 0
M  V30 3948 H 378.586 1.65889 3.50085 0
M  V30 3949 H 379 3.87227 3.53774 0
M  V30 3950 H 380.474 2.72126 4.80262 0
M  V30 3951 H 380.951 1.11854 4.24718 0
M  V30 3952 H 381.557 2.55864 3.39726 0
M  V30 3953 N 379.872 -1.04064 1.18357 0
M  V30 3954 C 381.118 -1.77528 0.980397 0
M  V30 3955 C 381.451 -1.87948 -0.48879 0
M  V30 3956 O 380.726 -1.3876 -1.36293 0
M  V30 3957 C 381.009 -3.20797 1.63588 0
M  V30 3958 C 380.862 -3.1832 3.17793 0
M  V30 3959 C 382.181 -4.18911 1.34914 0
M  V30 3960 H 379.3 -0.644443 0.357578 0
M  V30 3961 H 381.942 -1.2156 1.46024 0
M  V30 3962 H 380.092 -3.68586 1.22788 0
M  V30 3963 H 381.764 -2.78521 3.67728 0
M  V30 3964 H 380.007 -2.56351 3.49952 0
M  V30 3965 H 380.678 -4.19489 3.58794 0
M  V30 3966 H 383.154 -3.7967 1.70265 0
M  V30 3967 H 382.03 -5.17374 1.83346 0
M  V30 3968 H 382.291 -4.41262 0.272027 0
M  V30 3969 N 381.35 -0.985608 -1.22978 0
M  V30 3970 C 382.28 -0.549649 -2.26939 0
M  V30 3971 C 383.261 0.419803 -1.64838 0
M  V30 3972 O 384.446 0.31203 -1.91677 0
M  V30 3973 C 381.576 0.143652 -3.47003 0
M  V30 3974 C 380.53 -0.743606 -4.21491 0
M  V30 3975 C 379.856 0.0822027 -5.34637 0
M  V30 3976 C 381.156 -2.03694 -4.80943 0
M  V30 3977 H 382.85 -1.41862 -2.63658 0
M  V30 3978 H 380.396 -0.683571 -1.26741 0
M  V30 3979 H 382.349 0.459985 -4.18882 0
M  V30 3980 H 381.073 1.04711 -3.09359 0
M  V30 3981 H 379.732 -1.04347 -3.51436 0
M  V30 3982 H 379.38 0.986359 -4.93234 0
M  V30 3983 H 379.08 -0.508377 -5.85397 0
M  V30 3984 H 380.604 0.392797 -6.09335 0
M  V30 3985 H 382.018 -1.78504 -5.44802 0
M  V30 3986 H 380.415 -2.57573 -5.42011 0
M  V30 3987 H 381.485 -2.72042 -4.01399 0
M  V30 3988 N 382.828 1.3818 -0.7579 0
M  V30 3989 C 383.778 2.27741 -0.108674 0
M  V30 3990 C 384.762 1.45415 0.688709 0
M  V30 3991 O 385.954 1.68108 0.553956 0
M  V30 3992 C 383.083 3.34313 0.780367 0
M  V30 3993 C 382.169 4.24093 -0.0240977 0
M  V30 3994 N 382.56 4.9451 -1.06271 0
M  V30 3995 C 380.858 4.45542 0.202049 0
M  V30 3996 C 381.559 5.60675 -1.54979 0
M  V30 3997 N 380.535 5.36684 -0.864348 0
M  V30 3998 H 384.337 2.79649 -0.904071 0
M  V30 3999 H 381.851 1.51133 -0.594346 0
M  V30 4000 H 383.848 3.97368 1.26114 0
M  V30 4001 H 382.508 2.83962 1.57467 0
M  V30 4002 H 383.519 4.97345 -1.44459 0
M  V30 4003 H 380.196 4.06091 0.96935 0
M  V30 4004 H 381.586 6.26992 -2.41517 0
M  V30 4005 N 384.306 0.507319 1.49211 0
M  V30 4006 C 385.536 -0.0315292 2.06576 0
M  V30 4007 C 385.944 -1.30791 1.36713 0
M  V30 4008 O 385.287 -1.78324 0.441181 0
M  V30 4009 C 385.349 -0.349104 3.57801 0
M  V30 4010 C 385.013 0.830475 4.49391 0
M  V30 4011 C 386.01 1.72271 4.90529 0
M  V30 4012 C 383.695 1.03107 4.91604 0
M  V30 4013 C 385.689 2.79964 5.72625 0
M  V30 4014 C 383.376 2.11116 5.73475 0
M  V30 4015 C 384.374 2.99379 6.1389 0
M  V30 4016 O 384.062 4.05523 6.94123 0
M  V30 4017 H 383.794 0.0201002 0.675701 0
M  V30 4018 H 386.348 0.705737 1.92895 0
M  V30 4019 H 384.578 -1.14005 3.69513 0
M  V30 4020 H 386.267 -0.827319 3.97379 0
M  V30 4021 H 387.033 1.57958 4.58557 0
M  V30 4022 H 382.912 0.353417 4.59643 0
M  V30 4023 H 386.456 3.48884 6.04091 0
M  V30 4024 H 382.353 2.25421 6.0486 0
M  V30 4025 H 383.121 4.02953 7.1244 0
M  V30 4026 N 385.784 -1.5574 0.241426 0
M  V30 4027 C 386.717 -2.17168 -0.700935 0
M  V30 4028 C 387.695 -1.12206 -1.1768 0
M  V30 4029 O 388.879 -1.40565 -1.25593 0
M  V30 4030 C 386.006 -2.76796 -1.95196 0
M  V30 4031 C 385.052 -3.94764 -1.61442 0
M  V30 4032 S 385.885 -5.30613 -0.72182 0
M  V30 4033 C 387.041 -5.93691 -1.98197 0
M  V30 4034 H 387.274 -2.96761 -0.178882 0
M  V30 4035 H 384.807 -1.54378 0.0259299 0
M  V30 4036 H 386.765 -3.11787 -2.67019 0
M  V30 4037 H 385.426 -1.9716 -2.44514 0
M  V30 4038 H 384.619 -4.35057 -2.54443 0
M  V30 4039 H 384.221 -3.61022 -0.976672 0
M  V30 4040 H 386.513 -6.10874 -2.92983 0
M  V30 4041 H 387.456 -6.89258 -1.62262 0
M  V30 4042 H 387.864 -5.22709 -2.13156 0
M  V30 4043 N 387.262 0.0317525 -1.57568 0
M  V30 4044 C 388.539 0.758366 -1.803 0
M  V30 4045 C 388.919 1.93718 -0.838845 0
M  V30 4046 O 388.267 2.28187 0.119571 0
M  V30 4047 C 388.477 1.19392 -3.27943 0
M  V30 4048 C 389.825 1.61094 -3.92854 0
M  V30 4049 O 390.849 1.28857 -3.32076 0
M  V30 4050 O 389.708 2.20918 -4.99858 0
M  V30 4051 H 386.802 0.366514 -0.741348 0
M  V30 4052 H 389.348 0.00873765 -1.69698 0
M  V30 4053 H 388.12 0.352275 -3.89711 0
M  V30 4054 H 387.743 2.00365 -3.43424 0
M  V30 4055 N 388.74 1.54641 0.303973 0
M  V30 4056 C 389.986 1.74038 1.04109 0
M  V30 4057 C 390.319 0.523051 1.87024 0
M  V30 4058 O 389.594 -0.479874 1.88487 0
M  V30 4059 C 389.877 3.02761 1.94955 0
M  V30 4060 C 389.73 4.34787 1.1524 0
M  V30 4061 C 391.049 3.27336 2.94175 0
M  V30 4062 H 388.168 0.63323 0.377079 0
M  V30 4063 H 390.81 1.87354 0.316001 0
M  V30 4064 H 388.96 2.9154 2.56782 0
M  V30 4065 H 390.632 4.57922 0.557236 0
M  V30 4066 H 388.875 4.31407 0.455053 0
M  V30 4067 H 389.546 5.21116 1.8205 0
M  V30 4068 H 392.022 3.38148 2.42477 0
M  V30 4069 H 390.898 4.18726 3.54908 0
M  V30 4070 H 391.159 2.45491 3.67677 0
M  V30 4071 N 390.218 -0.567019 1.47046 0
M  V30 4072 C 391.464 -1.32658 1.53394 0
M  V30 4073 C 391.797 -1.93254 0.19148 0
M  V30 4074 O 391.072 -1.77338 -0.798844 0
M  V30 4075 C 391.355 -2.44412 2.64452 0
M  V30 4076 C 391.208 -1.88749 4.08282 0
M  V30 4077 C 392.527 -3.46387 2.71485 0
M  V30 4078 H 389.646 -0.48098 0.558415 0
M  V30 4079 H 392.288 -0.635481 1.79058 0
M  V30 4080 H 390.438 -3.03363 2.427 0
M  V30 4081 H 392.11 -1.34134 4.41368 0
M  V30 4082 H 390.353 -1.19481 4.17021 0
M  V30 4083 H 391.024 -2.69491 4.81745 0
M  V30 4084 H 393.5 -2.9734 2.91081 0
M  V30 4085 H 392.376 -4.2202 3.50985 0
M  V30 4086 H 392.637 -4.04616 1.78153 0
M  V30 4087 N 391.696 -1.35014 -0.812953 0
M  V30 4088 C 392.921 -1.31187 -1.60639 0
M  V30 4089 C 393.346 0.109382 -1.87782 0
M  V30 4090 O 392.704 1.07424 -1.46047 0
M  V30 4091 C 392.752 -2.11809 -2.91838 0
M  V30 4092 O 391.856 -1.49444 -3.8437 0
M  V30 4093 H 391.197 -0.450084 -0.488181 0
M  V30 4094 H 393.727 -1.77963 -1.00947 0
M  V30 4095 H 393.737 -2.23531 -3.41318 0
M  V30 4096 H 392.412 -3.15137 -2.71407 0
M  V30 4097 H 390.989 -1.46524 -3.42907 0
M  V30 4098 N 393.175 1.03435 -1.18907 0
M  V30 4099 C 394.421 1.77005 -0.989798 0
M  V30 4100 C 394.754 1.88205 0.478816 0
M  V30 4101 O 394.029 1.39481 1.35556 0
M  V30 4102 C 394.312 3.19925 -1.65287 0
M  V30 4103 C 394.165 3.1663 -3.19477 0
M  V30 4104 C 395.484 4.18189 -1.37134 0
M  V30 4105 H 392.603 0.642538 -0.360991 0
M  V30 4106 H 395.245 1.20784 -1.46667 0
M  V30 4107 H 393.395 3.67929 -1.24741 0
M  V30 4108 H 395.067 2.76567 -3.692 0
M  V30 4109 H 393.31 2.54491 -3.51307 0
M  V30 4110 H 393.981 4.1758 -3.61013 0
M  V30 4111 H 396.457 3.78761 -1.72276 0
M  V30 4112 H 395.333 5.16394 -1.86087 0
M  V30 4113 H 395.594 4.41112 -0.295424 0
M  V30 4114 N 394.653 0.992116 1.22453 0
M  V30 4115 C 396.064 0.702776 1.72968 0
M  V30 4116 C 396.415 -0.780399 1.80012 0
M  V30 4117 O 395.54 -1.61007 1.44589 0
M  V30 4118 C 396.135 1.26903 3.14135 0
M  V30 4119 C 394.694 1.02909 3.62059 0
M  V30 4120 C 393.841 1.38969 2.39964 0
M  V30 4121 H 396.792 1.16457 1.07812 0
M  V30 4122 H 396.813 0.647223 3.74955 0
M  V30 4123 H 396.325 2.34851 3.08977 0
M  V30 4124 H 394.426 -0.0337979 3.72585 0
M  V30 4125 H 394.539 1.69191 4.48231 0
M  V30 4126 H 392.903 0.808279 2.41535 0
M  V30 4127 H 393.686 2.4792 2.37467 0
M  V30 4128 N 396.131 -1.37776 0.765217 0
M  V30 4129 C 397.061 -2.32945 0.160953 0
M  V30 4130 C 398.042 -1.55454 -0.690516 0
M  V30 4131 O 399.227 -1.83721 -0.629318 0
M  V30 4132 C 396.357 -3.39669 -0.724031 0
M  V30 4133 C 395.311 -4.27992 0.0256173 0
M  V30 4134 C 394.637 -5.25673 -0.978383 0
M  V30 4135 C 395.937 -5.08309 1.20082 0
M  V30 4136 H 397.631 -2.83728 0.955969 0
M  V30 4137 H 395.177 -1.36416 0.461149 0
M  V30 4138 H 397.13 -4.05219 -1.15652 0
M  V30 4139 H 395.854 -2.87396 -1.5515 0
M  V30 4140 H 394.513 -3.63964 0.438812 0
M  V30 4141 H 394.161 -4.69682 -1.80022 0
M  V30 4142 H 393.861 -5.85625 -0.481378 0
M  V30 4143 H 395.385 -5.94098 -1.40995 0
M  V30 4144 H 396.799 -5.67034 0.845307 0
M  V30 4145 H 395.196 -5.77554 1.62947 0
M  V30 4146 H 396.266 -4.41365 2.00811 0
M  V30 4147 N 397.609 -0.515225 -1.4894 0
M  V30 4148 C 398.849 0.0223983 -2.04388 0
M  V30 4149 C 399.213 1.32961 -1.38511 0
M  V30 4150 O 400.414 1.95236 -1.8476 0
M  V30 4151 C 398.685 0.157056 -3.57055 0
M  V30 4152 S 400.244 0.646875 -4.34006 0
M  V30 4153 H 397.062 -0.00500662 -0.710982 0
M  V30 4154 H 399.664 -0.69243 -1.82827 0
M  V30 4155 H 398.368 -0.799412 -4.02539 0
M  V30 4156 H 397.899 0.896704 -3.83044 0
M  V30 4157 H 399.914 1.91381 -4.57808 0
M  V30 4158 N 399.087 1.5561 -0.249682 0
M  V30 4159 C 400.503 1.59254 0.105103 0
M  V30 4160 C 400.703 1.26685 1.56694 0
M  V30 4161 O 399.759 1.0155 2.31179 0
M  V30 4162 C 401.072 2.99687 -0.246592 0
M  V30 4163 C 402.62 3.12416 -0.191118 0
M  V30 4164 C 403.095 4.55074 -0.516885 0
M  V30 4165 N 404.586 4.60835 -0.467489 0
M  V30 4166 C 405.321 5.69201 -0.69268 0
M  V30 4167 N 404.817 6.85817 -0.981146 0
M  V30 4168 N 406.61 5.58635 -0.623198 0
M  V30 4169 H 398.761 1.75049 -1.20298 0
M  V30 4170 H 401.024 0.815003 -0.484225 0
M  V30 4171 H 400.73 3.28267 -1.26228 0
M  V30 4172 H 400.604 3.74798 0.424962 0
M  V30 4173 H 402.991 2.83615 0.815247 0
M  V30 4174 H 403.072 2.39573 -0.896563 0
M  V30 4175 H 402.716 4.84596 -1.52082 0
M  V30 4176 H 402.646 5.26181 0.210068 0
M  V30 4177 H 405.137 3.7705 -0.253373 0
M  V30 4178 H 405.45 7.64341 -1.14032 0
M  V30 4179 H 403.795 6.87494 -1.01865 0
M  V30 4180 H 406.986 4.66406 -0.397863 0
M  V30 4181 H 407.159 6.43017 -0.802093 0
M  V30 4182 N 400.565 -0.0233959 1.57583 0
M  V30 4183 C 401.512 -1.02224 2.06927 0
M  V30 4184 C 402.482 -1.35575 0.959617 0
M  V30 4185 O 403.667 -1.45815 1.23055 0
M  V30 4186 C 400.807 -2.31636 2.5581 0
M  V30 4187 C 399.92 -2.04394 3.80588 0
M  V30 4188 C 399.055 -3.27717 4.18061 0
M  V30 4189 C 398.094 -2.96056 5.3574 0
M  V30 4190 N 397.231 -4.11847 5.68618 0
M  V30 4191 H 402.071 -0.594504 2.9201 0
M  V30 4192 H 399.608 -0.281921 1.44373 0
M  V30 4193 H 401.566 -3.07258 2.82221 0
M  V30 4194 H 400.196 -2.72122 1.73636 0
M  V30 4195 H 399.248 -1.19244 3.61227 0
M  V30 4196 H 400.56 -1.77042 4.66323 0
M  V30 4197 H 399.714 -4.11702 4.4563 0
M  V30 4198 H 398.453 -3.58188 3.30988 0
M  V30 4199 H 397.458 -2.10474 5.07918 0
M  V30 4200 H 398.683 -2.66857 6.24471 0
M  V30 4201 H 396.629 -4.42258 4.84504 0
M  V30 4202 H 396.546 -3.87938 6.48876 0
M  V30 4203 H 397.814 -4.96689 6.00766 0
M  V30 4204 N 402.043 -1.548 -0.295768 0
M  V30 4205 C 403.454 -1.65274 -0.868411 0
M  V30 4206 C 403.805 -0.56481 -1.87894 0
M  V30 4207 O 402.93 0.29767 -2.14343 0
M  V30 4208 C 403.525 -2.99603 -1.58188 0
M  V30 4209 C 402.084 -3.12181 -2.10286 0
M  V30 4210 C 401.231 -2.6098 -0.93727 0
M  V30 4211 H 404.182 -1.58534 -0.0726422 0
M  V30 4212 H 404.203 -2.91319 -2.44772 0
M  V30 4213 H 403.715 -3.78764 -0.846151 0
M  V30 4214 H 401.816 -2.3775 -2.8689 0
M  V30 4215 H 401.929 -4.18415 -2.33379 0
M  V30 4216 H 400.293 -2.17564 -1.32431 0
M  V30 4217 H 401.076 -3.42623 -0.215414 0
M  V30 4218 N 403.521 0.559213 -1.47345 0
M  V30 4219 C 404.768 1.31648 -1.53867 0
M  V30 4220 C 405.096 1.93468 -0.200104 0
M  V30 4221 O 404.351 1.78295 0.806799 0
M  V30 4222 C 404.65 2.44853 -2.6035 0
M  V30 4223 C 404.316 2.00876 -4.03683 0
M  V30 4224 C 402.978 1.88599 -4.42701 0
M  V30 4225 C 405.33 1.67279 -4.93626 0
M  V30 4226 C 402.658 1.41017 -5.69501 0
M  V30 4227 C 405.01 1.21169 -6.20887 0
M  V30 4228 C 403.674 1.07487 -6.58789 0
M  V30 4229 H 402.944 0.481734 -0.56304 0
M  V30 4230 H 405.591 0.627301 -1.80934 0
M  V30 4231 H 403.896 3.19318 -2.27032 0
M  V30 4232 H 405.593 3.03039 -2.62619 0
M  V30 4233 H 402.183 2.11374 -3.72853 0
M  V30 4234 H 406.367 1.75638 -4.64182 0
M  V30 4235 H 401.623 1.29086 -5.97618 0
M  V30 4236 H 405.797 0.942345 -6.89995 0
M  V30 4237 H 403.424 0.703946 -7.56934 0
M  V30 4238 N 404.999 1.35443 0.805782 0
M  V30 4239 C 406.247 1.28507 1.55982 0
M  V30 4240 C 406.568 -0.140046 1.94496 0
M  V30 4241 O 405.838 -1.07666 1.63661 0
M  V30 4242 H 404.418 0.472676 0.578434 0
M  V30 4243 H 407.08 1.69555 0.961098 0
M  V30 4244 H 406.176 1.90148 2.47488 0
M  V30 4245 N 406.477 -1.02803 1.19454 0
M  V30 4246 C 407.888 -1.57667 0.999899 0
M  V30 4247 C 408.239 -1.91041 -0.446956 0
M  V30 4248 O 407.364 -1.70978 -1.32648 0
M  V30 4249 C 407.959 -2.86477 1.80877 0
M  V30 4250 C 406.518 -3.37911 1.65811 0
M  V30 4251 C 405.665 -2.11343 1.79526 0
M  V30 4252 H 408.616 -0.853214 1.33813 0
M  V30 4253 H 408.637 -3.57408 1.30536 0
M  V30 4254 H 408.149 -2.62155 2.86175 0
M  V30 4255 H 406.25 -3.67218 0.63102 0
M  V30 4256 H 406.363 -4.10885 2.46395 0
M  V30 4257 H 404.727 -2.23254 1.22596 0
M  V30 4258 H 405.51 -1.89461 2.86285 0
M  V30 4259 N 407.956 -0.998596 -1.21925 0
M  V30 4260 C 409.202 -0.678667 -1.91107 0
M  V30 4261 C 409.535 0.78791 -1.77498 0
M  V30 4262 O 408.81 1.57043 -1.1475 0
M  V30 4263 C 409.093 -1.09245 -3.43129 0
M  V30 4264 C 408.946 -2.61801 -3.6576 0
M  V30 4265 C 410.265 -0.649984 -4.35274 0
M  V30 4266 H 407.384 -0.248025 -0.694012 0
M  V30 4267 H 410.026 -1.24314 -1.43688 0
M  V30 4268 H 408.176 -0.612171 -3.83647 0
M  V30 4269 H 409.848 -3.17543 -3.34611 0
M  V30 4270 H 408.091 -3.03609 -3.09845 0
M  V30 4271 H 408.762 -2.85804 -4.7225 0
M  V30 4272 H 411.238 -1.0626 -4.02303 0
M  V30 4273 H 410.114 -0.967743 -5.40302 0
M  V30 4274 H 410.375 0.449139 -4.39813 0
M  V30 4275 N 409.434 1.37368 -0.772513 0
M  V30 4276 C 410.711 1.93839 -0.26188 0
M  V30 4277 C 411.091 1.7061 1.24319 0
M  V30 4278 O 410.439 1.05534 2.02669 0
M  V30 4279 C 410.649 3.43154 -0.636102 0
M  V30 4280 C 411.997 4.20249 -0.606324 0
M  V30 4281 O 413.021 3.5152 -0.575538 0
M  V30 4282 O 411.88 5.42809 -0.634086 0
M  V30 4283 H 408.974 0.82478 -0.0605555 0
M  V30 4284 H 411.52 1.4665 -0.853917 0
M  V30 4285 H 410.292 3.53647 -1.6748 0
M  V30 4286 H 409.915 3.97596 -0.0170516 0
M  V30 4287 N 410.912 0.523116 1.48665 0
M  V30 4288 C 411.822 -0.247406 2.33292 0
M  V30 4289 C 412.838 -0.945769 1.46052 0
M  V30 4290 O 414.014 -0.922253 1.79043 0
M  V30 4291 C 411.079 -1.28487 3.22012 0
M  V30 4292 C 410.14 -0.597592 4.2512 0
M  V30 4293 C 409.373 -1.58563 5.09601 0
M  V30 4294 O 409.596 -2.81763 4.95949 0
M  V30 4295 O 408.53 -1.12879 5.91221 0
M  V30 4296 H 412.356 0.445869 3.00409 0
M  V30 4297 H 409.941 0.284128 1.46673 0
M  V30 4298 H 411.823 -1.88459 3.7691 0
M  V30 4299 H 410.498 -1.96068 2.57564 0
M  V30 4300 H 409.405 0.0424407 3.74076 0
M  V30 4301 H 410.738 0.0361517 4.92187 0
M  V30 4302 N 412.39 -1.55475 0.257931 0
M  V30 4303 C 413.337 -2.21837 -0.636939 0
M  V30 4304 C 414.307 -1.18596 -1.16294 0
M  V30 4305 O 415.492 -1.47081 -1.21539 0
M  V30 4306 C 412.632 -2.9301 -1.82317 0
M  V30 4307 C 411.745 -4.10931 -1.33265 0
M  V30 4308 C 410.88 -4.69791 -2.47931 0
M  V30 4309 C 409.919 -5.7994 -1.95796 0
M  V30 4310 N 409.056 -6.32935 -3.0387 0
M  V30 4311 H 413.896 -2.9793 -0.0643591 0
M  V30 4312 H 411.433 -1.47086 -0.0200031 0
M  V30 4313 H 413.391 -3.3248 -2.52018 0
M  V30 4314 H 412.021 -2.1937 -2.36805 0
M  V30 4315 H 411.073 -3.76699 -0.52931 0
M  V30 4316 H 412.385 -4.90417 -0.910654 0
M  V30 4317 H 411.539 -5.11892 -3.25656 0
M  V30 4318 H 410.278 -3.89545 -2.93438 0
M  V30 4319 H 409.283 -5.37305 -1.16546 0
M  V30 4320 H 410.508 -6.62043 -1.51246 0
M  V30 4321 H 408.454 -5.55591 -3.48791 0
M  V30 4322 H 408.371 -7.07645 -2.66035 0
M  V30 4323 H 409.639 -6.79695 -3.81621 0
M  V30 4324 N 413.868 0.0150385 -1.57593 0
M  V30 4325 C 415.098 0.713359 -1.93894 0
M  V30 4326 C 415.506 1.68663 -0.857289 0
M  V30 4327 O 414.849 1.82876 0.173788 0
M  V30 4328 C 414.911 1.51348 -3.26089 0
M  V30 4329 C 414.575 0.703451 -4.51554 0
M  V30 4330 C 415.572 -0.00237924 -5.199 0
M  V30 4331 C 413.257 0.653854 -4.98026 0
M  V30 4332 C 415.251 -0.746955 -6.33008 0
M  V30 4333 C 412.938 -0.0944578 -6.11027 0
M  V30 4334 C 413.936 -0.793609 -6.78374 0
M  V30 4335 O 413.624 -1.52974 -7.89211 0
M  V30 4336 H 413.356 0.204637 -0.644282 0
M  V30 4337 H 415.91 -0.0276411 -2.05381 0
M  V30 4338 H 414.14 2.29862 -3.10967 0
M  V30 4339 H 415.829 2.09572 -3.47612 0
M  V30 4340 H 416.595 0.0268803 -4.84993 0
M  V30 4341 H 412.474 1.18756 -4.45441 0
M  V30 4342 H 416.018 -1.2932 -6.85509 0
M  V30 4343 H 411.915 -0.125591 -6.45378 0
M  V30 4344 H 412.683 -1.44488 -8.05646 0
M  V30 4345 N 415.346 1.54954 0.287554 0
M  V30 4346 C 416.276 1.89839 1.35954 0
M  V30 4347 C 417.257 0.758675 1.52244 0
M  V30 4348 O 418.442 1.01557 1.65529 0
M  V30 4349 C 415.572 2.15753 2.72154 0
M  V30 4350 C 414.526 3.3159 2.70614 0
M  V30 4351 C 413.852 3.42952 4.10229 0
M  V30 4352 C 415.152 4.68359 2.31165 0
M  V30 4353 H 416.846 2.79625 1.07007 0
M  V30 4354 H 414.392 1.3454 0.513316 0
M  V30 4355 H 416.345 2.38743 3.47246 0
M  V30 4356 H 415.069 1.22752 3.02654 0
M  V30 4357 H 413.728 3.08545 1.97979 0
M  V30 4358 H 413.376 2.47443 4.37928 0
M  V30 4359 H 413.076 4.20826 4.10097 0
M  V30 4360 H 414.6 3.68218 4.87081 0
M  V30 4361 H 416.014 4.9099 2.95976 0
M  V30 4362 H 414.411 5.49044 2.42221 0
M  V30 4363 H 415.481 4.68165 1.26291 0
M  V30 4364 N 416.824 -0.551391 1.4764 0
M  V30 4365 C 418.235 -1.13349 1.48354 0
M  V30 4366 C 418.586 -1.94709 0.241432 0
M  V30 4367 O 417.711 -2.06306 -0.653205 0
M  V30 4368 C 418.306 -2.0623 2.68802 0
M  V30 4369 C 416.865 -2.597 2.72457 0
M  V30 4370 C 416.012 -1.36201 2.41546 0
M  V30 4371 H 418.963 -0.337698 1.55065 0
M  V30 4372 H 418.984 -2.90196 2.46103 0
M  V30 4373 H 418.496 -1.46987 3.59188 0
M  V30 4374 H 416.597 -3.22724 1.86225 0
M  V30 4375 H 416.71 -3.00296 3.73308 0
M  V30 4376 H 415.074 -1.67068 1.9225 0
M  V30 4377 H 415.857 -0.787425 3.34147 0
M  V30 4378 N 418.302 -1.35869 -0.798587 0
M  V30 4379 C 419.212 -1.31578 -1.94228 0
M  V30 4380 C 420.228 -0.21939 -1.72611 0
M  V30 4381 O 421.404 -0.450167 -1.96305 0
M  V30 4382 C 418.469 -1.09528 -3.28944 0
M  V30 4383 C 417.53 -2.28556 -3.63402 0
M  V30 4384 C 416.763 -2.07549 -4.9169 0
M  V30 4385 O 416.986 -1.046 -5.60727 0
M  V30 4386 O 415.92 -2.95106 -5.24591 0
M  V30 4387 H 419.746 -2.27847 -2.00796 0
M  V30 4388 H 417.331 -1.16322 -0.937526 0
M  V30 4389 H 419.213 -0.991127 -4.09579 0
M  V30 4390 H 417.888 -0.16315 -3.23289 0
M  V30 4391 H 416.795 -2.44538 -2.83112 0
M  V30 4392 H 418.128 -3.20244 -3.73771 0
M  V30 4393 N 419.78 1.02168 -1.19998 0
M  V30 4394 C 420.71 2.12488 -0.96804 0
M  V30 4395 C 421.691 1.69799 0.101185 0
M  V30 4396 O 422.876 1.94121 -0.0552993 0
M  V30 4397 C 420.006 3.43479 -0.513776 0
M  V30 4398 C 418.96 3.99884 -1.52566 0
M  V30 4399 C 418.286 5.26582 -0.928214 0
M  V30 4400 C 419.586 4.33861 -2.90795 0
M  V30 4401 H 421.28 2.32149 -1.89069 0
M  V30 4402 H 418.826 1.11564 -0.910468 0
M  V30 4403 H 420.779 4.20036 -0.338774 0
M  V30 4404 H 419.503 3.23561 0.444493 0
M  V30 4405 H 418.162 3.25429 -1.68794 0
M  V30 4406 H 417.81 5.02986 0.0378289 0
M  V30 4407 H 417.51 5.65284 -1.60397 0
M  V30 4408 H 419.034 6.05799 -0.764167 0
M  V30 4409 H 420.448 5.01327 -2.78109 0
M  V30 4410 H 418.845 4.83664 -3.55231 0
M  V30 4411 H 419.915 3.42848 -3.42904 0
M  V30 4412 N 421.258 1.00505 1.21394 0
M  V30 4413 C 422.205 0.565496 2.23765 0
M  V30 4414 C 423.175 -0.408466 1.60999 0
M  V30 4415 O 424.36 -0.310503 1.88257 0
M  V30 4416 C 421.5 -0.101667 3.4495 0
M  V30 4417 C 420.613 0.915479 4.22188 0
M  V30 4418 C 419.748 0.220574 5.30742 0
M  V30 4419 C 418.787 1.22527 5.99711 0
M  V30 4420 N 417.924 0.557831 6.9988 0
M  V30 4421 H 422.764 1.44314 2.60725 0
M  V30 4422 H 420.301 0.722643 1.28126 0
M  V30 4423 H 422.259 -0.505504 4.14126 0
M  V30 4424 H 420.889 -0.94303 3.08718 0
M  V30 4425 H 419.941 1.43756 3.52191 0
M  V30 4426 H 421.253 1.68005 4.69655 0
M  V30 4427 H 420.407 -0.239368 6.06228 0
M  V30 4428 H 419.146 -0.576401 4.84282 0
M  V30 4429 H 418.151 1.69571 5.22997 0
M  V30 4430 H 419.376 2.02332 6.48258 0
M  V30 4431 H 417.322 -0.219486 6.55633 0
M  V30 4432 H 417.239 1.26065 7.45415 0
M  V30 4433 H 418.507 0.121095 7.79406 0
M  V30 4434 N 422.737 -1.36956 0.779787 0
M  V30 4435 C 423.7 -2.2851 0.177662 0
M  V30 4436 C 424.7 -1.48393 -0.619377 0
M  V30 4437 O 425.89 -1.68505 -0.441785 0
M  V30 4438 C 423.022 -3.32428 -0.755279 0
M  V30 4439 H 424.215 -2.83269 0.984823 0
M  V30 4440 H 421.768 -1.46358 0.548544 0
M  V30 4441 H 422.503 -2.82808 -1.58714 0
M  V30 4442 H 422.288 -3.91659 -0.185817 0
M  V30 4443 H 423.778 -4.00824 -1.17174 0
M  V30 4444 N 424.215 -0.530993 -1.48385 0
M  V30 4445 C 425.145 0.219985 -2.32461 0
M  V30 4446 C 426.126 0.934111 -1.42156 0
M  V30 4447 O 427.311 0.919694 -1.71042 0
M  V30 4448 C 424.441 1.26674 -3.23375 0
M  V30 4449 C 423.395 0.67069 -4.22712 0
M  V30 4450 C 422.721 1.82017 -5.02766 0
M  V30 4451 C 424.021 -0.358268 -5.2107 0
M  V30 4452 H 425.715 -0.48187 -2.95497 0
M  V30 4453 H 423.261 -0.233182 -1.42099 0
M  V30 4454 H 425.214 1.80006 -3.81019 0
M  V30 4455 H 423.938 1.99818 -2.58341 0
M  V30 4456 H 422.597 0.158878 -3.66256 0
M  V30 4457 H 422.245 2.54002 -4.34157 0
M  V30 4458 H 421.945 1.42727 -5.70003 0
M  V30 4459 H 423.469 2.35725 -5.63264 0
M  V30 4460 H 424.883 0.0880081 -5.73232 0
M  V30 4461 H 423.28 -0.66861 -5.96364 0
M  V30 4462 H 424.35 -1.26367 -4.68145 0
M  V30 4463 N 425.693 1.55336 -0.266172 0
M  V30 4464 C 426.656 2.20878 0.612001 0
M  V30 4465 C 427.656 1.18388 1.08816 0
M  V30 4466 O 428.846 1.4335 0.989774 0
M  V30 4467 C 425.978 2.86765 1.84332 0
M  V30 4468 H 427.171 2.99873 0.0398718 0
M  V30 4469 H 424.724 1.56291 -0.0167309 0
M  V30 4470 H 425.459 2.11759 2.45619 0
M  V30 4471 H 425.244 3.61862 1.5099 0
M  V30 4472 H 426.734 3.36867 2.46801 0
M  V30 4473 N 427.171 -0.0066808 1.57599 0
M  V30 4474 C 428.103 -1.02827 2.04839 0
M  V30 4475 C 429.116 -1.31108 0.965113 0
M  V30 4476 O 430.305 -1.28202 1.24203 0
M  V30 4477 C 427.405 -2.36464 2.42771 0
M  V30 4478 C 426.578 -2.27219 3.73751 0
M  V30 4479 C 425.637 -3.43489 3.98625 0
M  V30 4480 O 424.663 -3.21976 4.69382 0
M  V30 4481 N 425.865 -4.66116 3.46 0
M  V30 4482 H 428.63 -0.625455 2.93101 0
M  V30 4483 H 426.191 -0.194198 1.60731 0
M  V30 4484 H 428.183 -3.13008 2.56531 0
M  V30 4485 H 426.753 -2.68512 1.60063 0
M  V30 4486 H 425.973 -1.35629 3.70133 0
M  V30 4487 H 427.261 -2.18208 4.59633 0
M  V30 4488 H 426.659 -4.86493 2.88688 0
M  V30 4489 H 425.216 -5.39949 3.65101 0
M  V30 4490 N 428.649 -1.55105 -0.279332 0
M  V30 4491 C 429.581 -1.83952 -1.36727 0
M  V30 4492 C 430.594 -0.723642 -1.45833 0
M  V30 4493 O 431.783 -1.00141 -1.47763 0
M  V30 4494 C 428.883 -1.98183 -2.74912 0
M  V30 4495 C 428.056 -3.28787 -2.88475 0
M  V30 4496 C 427.115 -3.33162 -4.07295 0
M  V30 4497 O 426.141 -4.06576 -3.98353 0
M  V30 4498 N 427.343 -2.60109 -5.18964 0
M  V30 4499 H 430.108 -2.77853 -1.12328 0
M  V30 4500 H 427.669 -1.54945 -0.469442 0
M  V30 4501 H 429.661 -1.98488 -3.52682 0
M  V30 4502 H 428.231 -1.11177 -2.92162 0
M  V30 4503 H 427.451 -3.41075 -1.97641 0
M  V30 4504 H 428.739 -4.14933 -2.94463 0
M  V30 4505 H 428.137 -2.00136 -5.29115 0
M  V30 4506 H 426.694 -2.66143 -5.94988 0
M  V30 4507 N 430.127 0.543554 -1.4793 0
M  V30 4508 C 431.057 1.65888 -1.64327 0
M  V30 4509 C 432.038 1.62818 -0.492383 0
M  V30 4510 O 433.223 1.80226 -0.723338 0
M  V30 4511 C 430.353 3.04506 -1.67013 0
M  V30 4512 C 429.307 3.2243 -2.81466 0
M  V30 4513 C 428.633 4.61972 -2.69233 0
M  V30 4514 C 429.933 3.06496 -4.22915 0
M  V30 4515 H 431.627 1.52421 -2.57698 0
M  V30 4516 H 429.173 0.731849 -1.24016 0
M  V30 4517 H 431.126 3.82391 -1.77074 0
M  V30 4518 H 429.85 3.18964 -0.70212 0
M  V30 4519 H 428.509 2.46957 -2.70938 0
M  V30 4520 H 428.157 4.73247 -1.7043 0
M  V30 4521 H 427.857 4.74911 -3.46025 0
M  V30 4522 H 429.381 5.41974 -2.81242 0
M  V30 4523 H 430.795 3.74186 -4.34348 0
M  V30 4524 H 429.192 3.30938 -5.006 0
M  V30 4525 H 430.262 2.03077 -4.40327 0
M  V30 4526 N 431.605 1.3629 0.791371 0
M  V30 4527 C 432.538 1.24816 1.9104 0
M  V30 4528 C 433.516 0.132739 1.62057 0
M  V30 4529 O 434.7 0.303527 1.8604 0
M  V30 4530 C 431.827 0.925355 3.25814 0
M  V30 4531 C 430.873 2.05495 3.7373 0
M  V30 4532 S 431.706 3.67255 3.89723 0
M  V30 4533 C 432.862 3.37084 5.27376 0
M  V30 4534 H 433.095 2.19533 2.00481 0
M  V30 4535 H 430.628 1.21684 0.950393 0
M  V30 4536 H 432.586 0.745924 4.03666 0
M  V30 4537 H 431.247 -0.00400098 3.141 0
M  V30 4538 H 430.44 1.7836 4.71385 0
M  V30 4539 H 430.042 2.1935 3.02922 0
M  V30 4540 H 432.334 2.90856 6.1189 0
M  V30 4541 H 433.277 4.33995 5.59512 0
M  V30 4542 H 433.685 2.7248 4.94383 0
M  V30 4543 N 433.083 -1.0153 1.20538 0
M  V30 4544 C 434.015 -2.10224 0.913155 0
M  V30 4545 C 435.028 -1.62495 -0.0995998 0
M  V30 4546 O 436.217 -1.78014 0.131582 0
M  V30 4547 C 433.317 -3.37111 0.347717 0
M  V30 4548 C 432.49 -4.13971 1.41233 0
M  V30 4549 C 431.549 -5.19158 0.857976 0
M  V30 4550 O 430.575 -5.48 1.53897 0
M  V30 4551 N 431.777 -5.7955 -0.331966 0
M  V30 4552 H 434.542 -2.35879 1.84881 0
M  V30 4553 H 432.103 -1.17931 1.10923 0
M  V30 4554 H 434.095 -4.04683 -0.0373026 0
M  V30 4555 H 432.665 -3.08696 -0.492527 0
M  V30 4556 H 431.885 -3.41351 1.97163 0
M  V30 4557 H 433.173 -4.62103 2.12928 0
M  V30 4558 H 432.571 -5.58455 -0.902478 0
M  V30 4559 H 431.128 -6.48464 -0.65861 0
M  V30 4560 N 434.561 -1.01147 -1.20859 0
M  V30 4561 C 435.471 -0.58686 -2.27141 0
M  V30 4562 C 436.487 0.373198 -1.69951 0
M  V30 4563 O 437.663 0.235423 -2.00019 0
M  V30 4564 C 434.728 0.0733602 -3.46622 0
M  V30 4565 C 433.789 -0.931995 -4.19061 0
M  V30 4566 C 433.022 -0.303186 -5.32838 0
M  V30 4567 O 433.245 0.898395 -5.63281 0
M  V30 4568 O 432.179 -1.01735 -5.9324 0
M  V30 4569 H 436.005 -1.47155 -2.65667 0
M  V30 4570 H 433.59 -0.780689 -1.2738 0
M  V30 4571 H 435.472 0.442333 -4.19072 0
M  V30 4572 H 434.147 0.932329 -3.09983 0
M  V30 4573 H 433.054 -1.35224 -3.48805 0
M  V30 4574 H 434.387 -1.76076 -4.59628 0
M  V30 4575 N 436.039 1.36541 -0.78704 0
M  V30 4576 C 437.455 1.52571 -0.46844 0
M  V30 4577 C 437.655 1.7415 1.01361 0
M  V30 4578 O 436.711 1.77163 1.79915 0
M  V30 4579 C 438.024 2.71299 -1.29682 0
M  V30 4580 C 439.572 2.85169 -1.29027 0
M  V30 4581 C 440.047 4.06898 -2.10233 0
M  V30 4582 N 441.538 4.1404 -2.07666 0
M  V30 4583 C 442.273 5.07301 -2.67271 0
M  V30 4584 N 441.769 6.06021 -3.35724 0
M  V30 4585 N 443.562 4.99898 -2.57018 0
M  V30 4586 H 435.713 1.20788 -1.74711 0
M  V30 4587 H 437.976 0.589364 -0.742532 0
M  V30 4588 H 437.682 2.61868 -2.34773 0
M  V30 4589 H 437.556 3.6539 -0.936479 0
M  V30 4590 H 439.943 2.94062 -0.247284 0
M  V30 4591 H 440.024 1.91992 -1.69035 0
M  V30 4592 H 439.668 3.98766 -3.1456 0
M  V30 4593 H 439.598 4.99218 -1.67597 0
M  V30 4594 H 442.089 3.43357 -1.57843 0
M  V30 4595 H 442.402 6.73741 -3.78541 0
M  V30 4596 H 440.747 6.06253 -3.39826 0
M  V30 4597 H 443.938 4.21724 -2.03142 0
M  V30 4598 H 444.111 5.72392 -3.03761 0
M  V30 4599 N 437.518 0.538854 1.48102 0
M  V30 4600 C 438.766 0.00798599 2.02098 0
M  V30 4601 C 439.087 -1.33922 1.41739 0
M  V30 4602 O 438.357 -1.86932 0.585934 0
M  V30 4603 H 436.937 -3.62179e-05 0.747 0
M  V30 4604 H 439.599 0.7047 1.81714 0
M  V30 4605 H 438.695 -0.0937672 3.11959 0
M  V30 4606 O 439.035 -1.56041 0.416352 0
M  V30 4607 H 439.726 -1.93313 -0.122438 0
M  V30 END ATOM
M  V30 BEGIN BOND
M  V30 END BOND
M  V30 END CTAB
M  END
$$$$
