drugbank_target|P0A7V3 30S ribosomal protein S3 (DB00759; DB09093; DB12455)
 OpenBabel12092120573D

  0  0  0     0  0            999 V3000
M  V30 BEGIN CTAB
M  V30 COUNTS 3752 3782 0 0 0
M  V30 BEGIN ATOM
M  V30 1 H -0.908 1.98254 -0.117106 0
M  V30 2 N 0 1.576 0 0
M  V30 3 C 0.933 2.03868 1.02534 0
M  V30 4 C 1.911 0.928543 1.3348 0
M  V30 5 O 3.095 1.19667 1.45644 0
M  V30 6 C 0.222 2.43627 2.35294 0
M  V30 7 C -0.732 3.65373 2.2001 0
M  V30 8 S 0.101 5.13292 1.52614 0
M  V30 9 C 1.257 5.56322 2.86805 0
M  V30 10 H 1.49 2.90518 0.631377 0
M  V30 11 H -0.977 1.52953 0.210867 0
M  V30 12 H 0.981 2.67203 3.11629 0
M  V30 13 H -0.358 1.57376 2.7183 0
M  V30 14 H -1.165 3.90944 3.18086 0
M  V30 15 H -1.563 3.418 1.51819 0
M  V30 16 H 0.729 5.58782 3.83104 0
M  V30 17 H 1.672 6.56266 2.65933 0
M  V30 18 H 2.08 4.83886 2.90714 0
M  V30 19 N 1.4781 -0.272755 1.55222 0
M  V30 20 C 2.7261 -1.00234 1.75492 0
M  V30 21 C 3.0471 -1.8681 0.5592 0
M  V30 22 O 2.3171 -1.91215 -0.425882 0
M  V30 23 H 0.8971 -0.373076 0.647166 0
M  V30 24 H 3.5591 -0.296926 1.92625 0
M  V30 25 H 2.6551 -1.63913 2.65592 0
M  V30 26 N 2.9562 -1.48159 -0.537278 0
M  V30 27 C 3.8882 -1.58218 -1.65831 0
M  V30 28 C 4.9012 -0.466948 -1.5596 0
M  V30 29 O 6.0902 -0.73747 -1.62553 0
M  V30 30 C 3.1902 -1.48906 -3.04434 0
M  V30 31 C 2.3632 -2.75343 -3.3986 0
M  V30 32 C 1.4222 -2.59588 -4.57712 0
M  V30 33 O 0.4482 -3.33457 -4.61297 0
M  V30 34 N 1.6502 -1.68724 -5.55439 0
M  V30 35 H 4.4152 -2.54891 -1.57641 0
M  V30 36 H 1.9762 -1.4479 -0.724386 0
M  V30 37 H 3.9682 -1.36072 -3.81139 0
M  V30 38 H 2.5382 -0.602368 -3.06741 0
M  V30 39 H 1.7582 -3.02795 -2.52406 0
M  V30 40 H 3.0462 -3.5924 -3.60311 0
M  V30 41 H 2.4442 -1.07898 -5.55315 0
M  V30 42 H 1.0012 -1.61832 -6.3139 0
M  V30 43 N 4.4343 0.785586 -1.36625 0
M  V30 44 C 5.3813 1.89838 -1.31264 0
M  V30 45 C 6.3513 1.65115 -0.180633 0
M  V30 46 O 7.5363 1.87222 -0.36777 0
M  V30 47 C 4.6763 3.26706 -1.11163 0
M  V30 48 C 3.7893 3.63476 -2.33472 0
M  V30 49 C 2.9243 4.89481 -2.06353 0
M  V30 50 C 1.9633 5.18941 -3.24602 0
M  V30 51 N 1.1003 6.36131 -2.97123 0
M  V30 52 H 5.9403 1.93756 -2.26413 0
M  V30 53 H 3.4773 0.947454 -1.12524 0
M  V30 54 H 5.4353 4.05639 -0.975337 0
M  V30 55 H 4.0653 3.222 -0.196674 0
M  V30 56 H 3.1173 2.79636 -2.57891 0
M  V30 57 H 4.4293 3.81193 -3.21704 0
M  V30 58 H 3.5833 5.76288 -1.89675 0
M  V30 59 H 2.3223 4.73841 -1.15437 0
M  V30 60 H 1.3273 4.30615 -3.41834 0
M  V30 61 H 2.5523 5.36498 -4.16349 0
M  V30 62 H 0.4983 6.21875 -2.08823 0
M  V30 63 H 0.4153 6.54198 -3.78894 0
M  V30 64 H 1.6833 7.2591 -2.84033 0
M  V30 65 N 5.9124 1.20967 1.01018 0
M  V30 66 C 7.1584 1.02526 1.74975 0
M  V30 67 C 7.4914 -0.4408 1.89131 0
M  V30 68 O 6.7664 -1.32718 1.42184 0
M  V30 69 C 7.0494 1.71699 3.1653 0
M  V30 70 C 6.9024 3.25791 3.10129 0
M  V30 71 C 8.2214 1.45531 4.15342 0
M  V30 72 H 5.3404 0.373863 0.635134 0
M  V30 73 H 7.9824 1.49071 1.17805 0
M  V30 74 H 6.1324 1.32128 3.65341 0
M  V30 75 H 7.8044 3.74697 2.69072 0
M  V30 76 H 6.0474 3.56363 2.47362 0
M  V30 77 H 6.7184 3.69353 4.10222 0
M  V30 78 H 9.1944 1.79872 3.75213 0
M  V30 79 H 8.0704 1.96453 5.1254 0
M  V30 80 H 8.3314 0.384237 4.40427 0
M  V30 81 N 7.3905 -1.2043 1.01659 0
M  V30 82 C 8.3405 -2.21076 0.557623 0
M  V30 83 C 9.3245 -1.56176 -0.387029 0
M  V30 84 O 10.5165 -1.7575 -0.209996 0
M  V30 85 C 7.6455 -3.43146 -0.102707 0
M  V30 86 C 6.7315 -4.15213 0.863652 0
M  V30 87 N 7.1225 -4.63662 2.02117 0
M  V30 88 C 5.4205 -4.40716 0.684472 0
M  V30 89 C 6.1215 -5.18868 2.62966 0
M  V30 90 N 5.0975 -5.0893 1.91027 0
M  V30 91 H 8.8995 -2.56201 1.44008 0
M  V30 92 H 6.4135 -1.36366 0.881931 0
M  V30 93 H 8.4105 -4.14475 -0.449054 0
M  V30 94 H 7.0705 -3.09526 -0.981003 0
M  V30 95 H 8.0815 -4.58877 2.40109 0
M  V30 96 H 4.7585 -4.17245 -0.14577 0
M  V30 97 H 6.1485 -5.6673 3.60924 0
M  V30 98 N 8.8686 -0.792821 -1.36206 0
M  V30 99 C 10.2796 -0.429513 -1.81692 0
M  V30 100 C 10.6306 1.04695 -1.65932 0
M  V30 101 O 9.7556 1.81256 -1.18218 0
M  V30 102 C 10.3506 -0.772831 -3.29868 0
M  V30 103 C 8.9096 -0.462307 -3.7355 0
M  V30 104 C 8.0566 -1.00569 -2.5842 0
M  V30 105 H 11.0076 -0.985672 -1.24379 0
M  V30 106 H 11.0286 -0.0651928 -3.80444 0
M  V30 107 H 10.5406 -1.84747 -3.41307 0
M  V30 108 H 8.6416 0.604158 -3.67669 0
M  V30 109 H 8.7546 -0.985299 -4.68859 0
M  V30 110 H 7.1186 -0.428734 -2.51066 0
M  V30 111 H 7.9016 -2.08616 -2.72643 0
M  V30 112 N 10.3467 1.47872 -0.545128 0
M  V30 113 C 11.2947 2.31533 0.222512 0
M  V30 114 C 12.2887 1.42177 0.920985 0
M  V30 115 O 13.4947 1.59005 0.843645 0
M  V30 116 H 9.8697 0.746519 0.0906278 0
M  V30 117 H 11.8407 2.94139 -0.50246 0
M  V30 118 C 10.5897 3.2457 1.24699 0
M  V30 119 H 9.9127 3.93283 0.718944 0
M  V30 120 H 11.3527 3.85963 1.75523 0
M  V30 121 C 9.8117 2.47237 2.28856 0
M  V30 122 O 10.3417 2.20808 3.35569 0
M  V30 123 N 8.5477 2.08461 2.02466 0
M  V30 124 H 8.0947 2.30155 1.157 0
M  V30 125 H 8.0527 1.57033 2.72375 0
M  V30 126 N 11.8248 0.280983 1.55075 0
M  V30 127 C 13.0728 -0.333455 1.9933 0
M  V30 128 C 13.3938 -1.55937 1.17085 0
M  V30 129 O 12.6638 -1.94143 0.261805 0
M  V30 130 H 11.2438 -0.126197 0.736263 0
M  V30 131 H 13.9058 0.387678 1.91005 0
M  V30 132 H 13.0018 -0.619292 3.05894 0
M  V30 133 N 13.3029 -1.57598 0.00835791 0
M  V30 134 C 14.5519 -1.90107 -0.673968 0
M  V30 135 C 14.8649 -0.884275 -1.7447 0
M  V30 136 O 16.0709 -1.09987 -2.48224 0
M  V30 137 C 14.5269 -3.37497 -1.24995 0
M  V30 138 C 14.1349 -4.47491 -0.2136 0
M  V30 139 C 15.8789 -3.79104 -1.90999 0
M  V30 140 C 13.7859 -5.85963 -0.80005 0
M  V30 141 H 12.7159 -0.709393 -0.255495 0
M  V30 142 H 15.3669 -1.83365 0.0702693 0
M  V30 143 H 13.7489 -3.39102 -2.04513 0
M  V30 144 H 14.9229 -4.57414 0.557596 0
M  V30 145 H 13.2379 -4.14956 0.346474 0
M  V30 146 H 15.8349 -4.79901 -2.35795 0
M  V30 147 H 16.1779 -3.1306 -2.74407 0
M  V30 148 H 16.7109 -3.79833 -1.18203 0
M  V30 149 H 13.4499 -6.555 -0.00456708 0
M  V30 150 H 12.9699 -5.79687 -1.54021 0
M  V30 151 H 14.6489 -6.33884 -1.29615 0
M  V30 152 N 14.781 0.264519 -1.55364 0
M  V30 153 C 16.197 0.61215 -1.47394 0
M  V30 154 C 16.397 1.89134 -0.695018 0
M  V30 155 O 15.453 2.51563 -0.217275 0
M  V30 156 C 16.766 0.731235 -2.91674 0
M  V30 157 C 18.314 0.82473 -3.01939 0
M  V30 158 C 18.789 0.975522 -4.4749 0
M  V30 159 N 20.28 1.04083 -4.51354 0
M  V30 160 C 21.015 1.17646 -5.61201 0
M  V30 161 N 20.511 1.27874 -6.80896 0
M  V30 162 N 22.304 1.20823 -5.48961 0
M  V30 163 H 14.455 -0.575456 -2.04456 0
M  V30 164 H 16.718 -0.196099 -0.927496 0
M  V30 165 H 16.424 -0.138392 -3.51428 0
M  V30 166 H 16.298 1.60883 -3.41169 0
M  V30 167 H 18.685 1.68482 -2.42276 0
M  V30 168 H 18.766 -0.0776479 -2.55682 0
M  V30 169 H 18.41 0.120058 -5.07758 0
M  V30 170 H 18.34 1.89268 -4.91412 0
M  V30 171 H 20.831 0.973846 -3.65136 0
M  V30 172 H 21.144 1.38081 -7.60364 0
M  V30 173 H 19.489 1.24863 -6.83692 0
M  V30 174 H 22.68 1.12469 -4.54388 0
M  V30 175 H 22.853 1.31049 -6.3461 0
M  V30 176 N 16.2591 1.48442 0.529413 0
M  V30 177 C 17.1891 1.65902 1.64313 0
M  V30 178 C 18.1701 0.507897 1.6234 0
M  V30 179 O 19.3551 0.740503 1.79528 0
M  V30 180 C 16.4851 1.69911 3.02898 0
M  V30 181 C 15.4391 2.8453 3.19729 0
M  V30 182 C 14.7651 2.73629 4.59381 0
M  V30 183 C 16.0651 4.25821 3.02447 0
M  V30 184 H 17.7591 2.5914 1.49955 0
M  V30 185 H 15.3051 1.24709 0.719982 0
M  V30 186 H 17.2581 1.80715 3.80684 0
M  V30 187 H 15.9821 0.732524 3.18279 0
M  V30 188 H 14.6411 2.73283 2.44361 0
M  V30 189 H 14.2891 1.74938 4.71599 0
M  V30 190 H 13.9891 3.50541 4.71588 0
M  V30 191 H 15.5131 2.86401 5.39265 0
M  V30 192 H 16.9271 4.37898 3.70024 0
M  V30 193 H 15.3241 5.03735 3.26146 0
M  V30 194 H 16.3941 4.42244 1.98867 0
M  V30 195 N 17.7372 -0.778329 1.37039 0
M  V30 196 C 18.9852 -1.53361 1.31623 0
M  V30 197 C 19.3062 -1.94739 -0.100831 0
M  V30 198 O 18.5762 -1.65797 -1.04347 0
M  V30 199 H 17.1562 -0.568794 0.484234 0
M  V30 200 H 19.8182 -0.926742 1.71457 0
M  V30 201 H 18.9142 -2.43606 1.95096 0
M  V30 202 N 19.2153 -1.21501 -1.00376 0
M  V30 203 C 20.4643 -1.02718 -1.73586 0
M  V30 204 C 20.7773 0.439589 -1.90596 0
M  V30 205 O 21.9833 0.746848 -2.61026 0
M  V30 206 C 20.4393 -1.78929 -3.1227 0
M  V30 207 C 20.0473 -3.29783 -3.03228 0
M  V30 208 C 21.7913 -1.68557 -3.89601 0
M  V30 209 C 19.6983 -3.98479 -4.36999 0
M  V30 210 H 18.6283 -0.380733 -0.650814 0
M  V30 211 H 21.2793 -1.45248 -1.1214 0
M  V30 212 H 19.6613 -1.29192 -3.74333 0
M  V30 213 H 20.8353 -3.86832 -2.50395 0
M  V30 214 H 19.1503 -3.40711 -2.39385 0
M  V30 215 H 21.7473 -2.17211 -4.88593 0
M  V30 216 H 22.0903 -0.644021 -4.11288 0
M  V30 217 H 22.6233 -2.15778 -3.34193 0
M  V30 218 H 19.3623 -5.02841 -4.20513 0
M  V30 219 H 18.8823 -3.46219 -4.89788 0
M  V30 220 H 20.5613 -4.03462 -5.05794 0
M  V30 221 N 20.6934 1.19889 -1.02296 0
M  V30 222 C 21.9394 1.89701 -0.717033 0
M  V30 223 C 22.2724 1.7905 0.751989 0
M  V30 224 O 21.5474 1.17891 1.547 0
M  V30 225 C 21.8304 3.40858 -1.16136 0
M  V30 226 C 21.6834 3.60411 -2.69117 0
M  V30 227 C 23.0024 4.33876 -0.737549 0
M  V30 228 H 20.1214 0.688874 -0.261957 0
M  V30 229 H 22.7634 1.41154 -1.27183 0
M  V30 230 H 20.9134 3.82335 -0.689342 0
M  V30 231 H 22.5854 3.28145 -3.2422 0
M  V30 232 H 20.8284 3.03665 -3.0979 0
M  V30 233 H 21.4994 4.66396 -2.95261 0
M  V30 234 H 23.9754 4.00081 -1.14344 0
M  V30 235 H 22.8514 5.38242 -1.0764 0
M  V30 236 H 23.1124 4.40628 0.360436 0
M  V30 237 N 22.1715 0.800033 1.35784 0
M  V30 238 C 23.1185 0.203848 2.29898 0
M  V30 239 C 24.0885 -0.658375 1.52495 0
M  V30 240 O 25.2735 -0.604832 1.8096 0
M  V30 241 C 22.4135 -0.64688 3.38983 0
M  V30 242 C 21.5265 0.235054 4.3136 0
M  V30 243 C 20.6615 -0.623054 5.27533 0
M  V30 244 C 19.7005 0.259682 6.11549 0
M  V30 245 N 18.8375 -0.558019 6.99879 0
M  V30 246 H 23.6775 1.01186 2.80295 0
M  V30 247 H 21.2145 0.51053 1.37957 0
M  V30 248 H 23.1725 -1.15521 4.00887 0
M  V30 249 H 21.8025 -1.42021 2.89879 0
M  V30 250 H 20.8545 0.861438 3.70518 0
M  V30 251 H 22.1665 0.914768 4.9034 0
M  V30 252 H 21.3205 -1.19678 5.94779 0
M  V30 253 H 20.0595 -1.33636 4.69034 0
M  V30 254 H 19.0645 0.845726 5.43256 0
M  V30 255 H 20.2895 0.970748 6.72126 0
M  V30 256 H 18.2355 -1.25542 6.43875 0
M  V30 257 H 18.1525 0.0637872 7.55973 0
M  V30 258 H 19.4205 -1.11523 7.71481 0
M  V30 259 N 23.6496 -1.47581 0.552962 0
M  V30 260 C 25.0606 -1.86324 0.118463 0
M  V30 261 C 25.4116 -1.46006 -1.3106 0
M  V30 262 O 24.5366 -0.861182 -1.98526 0
M  V30 263 C 25.1316 -3.3816 0.20821 0
M  V30 264 C 23.6906 -3.7601 -0.171226 0
M  V30 265 C 22.8376 -2.71634 0.557686 0
M  V30 266 H 25.7886 -1.39159 0.762928 0
M  V30 267 H 25.8096 -3.76141 -0.574278 0
M  V30 268 H 25.3216 -3.67473 1.24841 0
M  V30 269 H 23.4226 -3.52313 -1.21269 0
M  V30 270 H 23.5356 -4.78745 0.184379 0
M  V30 271 H 21.8996 -2.547 0.00125792 0
M  V30 272 H 22.6826 -3.0379 1.59896 0
M  V30 273 N 25.1277 -0.289203 -1.54924 0
M  V30 274 C 26.3737 0.316922 -2.00916 0
M  V30 275 C 26.7287 1.52424 -1.17408 0
M  V30 276 O 26.0217 1.90097 -0.239536 0
M  V30 277 C 26.2157 0.736119 -3.49737 0
M  V30 278 C 26.0447 -0.429036 -4.47649 0
M  V30 279 C 24.8147 -0.917311 -4.96904 0
M  V30 280 C 27.0127 -1.27016 -4.98369 0
M  V30 281 N 24.9947 -2.05046 -5.78644 0
M  V30 282 C 26.3657 -2.25097 -5.77695 0
M  V30 283 C 28.4207 -1.30188 -4.80578 0
M  V30 284 C 27.1237 -3.26114 -6.41126 0
M  V30 285 C 29.1497 -2.30057 -5.44819 0
M  V30 286 C 28.5117 -3.2687 -6.23968 0
M  V30 287 H 24.6107 0.0807535 -0.777819 0
M  V30 288 H 27.1947 -0.416434 -1.90194 0
M  V30 289 H 25.3657 1.43867 -3.60773 0
M  V30 290 H 27.0977 1.32078 -3.82541 0
M  V30 291 H 23.8527 -0.494248 -4.71014 0
M  V30 292 H 24.2767 -2.62108 -6.24202 0
M  V30 293 H 28.9187 -0.567163 -4.18979 0
M  V30 294 H 26.6367 -4.00512 -7.01866 0
M  V30 295 H 30.2227 -2.33271 -5.32988 0
M  V30 296 H 29.1027 -4.02883 -6.72796 0
M  V30 297 N 26.6058 1.57591 -0.0167156 0
M  V30 298 C 27.5538 2.10604 0.987353 0
M  V30 299 C 28.5478 1.02977 1.34507 0
M  V30 300 O 29.7538 1.21425 1.32875 0
M  V30 301 H 26.1288 0.672695 0.336134 0
M  V30 302 H 28.0998 2.93925 0.514817 0
M  V30 303 C 26.8488 2.6382 2.26483 0
M  V30 304 H 26.1718 3.46278 1.99829 0
M  V30 305 H 27.6118 3.04573 2.94977 0
M  V30 306 C 26.0708 1.55992 2.9861 0
M  V30 307 O 26.6008 0.952521 3.90243 0
M  V30 308 N 24.8068 1.28335 2.60727 0
M  V30 309 H 24.3538 1.77914 1.86291 0
M  V30 310 H 24.3118 0.564115 3.09298 0
M  V30 311 N 28.0839 -0.256276 1.55502 0
M  V30 312 C 29.3089 -1.00766 1.81276 0
M  V30 313 C 29.7339 -1.78524 0.59252 0
M  V30 314 O 29.0919 -1.75413 -0.45827 0
M  V30 315 C 29.1399 -1.92869 3.04687 0
M  V30 316 O 28.2439 -3.019 2.80945 0
M  V30 317 H 27.5849 -0.287224 0.598664 0
M  V30 318 H 30.1149 -0.280109 2.02674 0
M  V30 319 H 30.1249 -2.34511 3.33869 0
M  V30 320 H 28.7999 -1.35689 3.93143 0
M  V30 321 H 27.3769 -2.64454 2.62904 0
M  V30 322 N 29.562 -1.4872 -0.521534 0
M  V30 323 C 30.79 -1.60843 -1.30142 0
M  V30 324 C 31.205 -0.271897 -1.86832 0
M  V30 325 O 30.562 0.739969 -1.66825 0
M  V30 326 C 30.613 -2.66155 -2.4463 0
M  V30 327 O 30.334 -3.94623 -1.90275 0
M  V30 328 C 31.835 -2.88795 -3.36322 0
M  V30 329 H 29.055 -0.542075 -0.395468 0
M  V30 330 H 31.599 -1.94609 -0.628285 0
M  V30 331 H 29.754 -2.35224 -3.07812 0
M  V30 332 H 30.168 -4.52468 -2.65279 0
M  V30 333 H 31.642 -3.66264 -4.12983 0
M  V30 334 H 32.119 -1.97934 -3.9207 0
M  V30 335 H 32.725 -3.21063 -2.78924 0
M  V30 336 N 31.0401 0.771051 -1.3745 0
M  V30 337 C 32.2861 1.53109 -1.339 0
M  V30 338 C 32.6411 1.9225 0.0758401 0
M  V30 339 O 31.9341 1.61264 1.03463 0
M  V30 340 C 32.1281 2.80676 -2.2126 0
M  V30 341 C 31.9571 2.54003 -3.71096 0
M  V30 342 C 30.7271 2.48097 -4.402 0
M  V30 343 C 32.9251 2.21953 -4.63941 0
M  V30 344 N 30.9071 2.13515 -5.75573 0
M  V30 345 C 32.2781 1.97516 -5.87697 0
M  V30 346 C 34.3331 2.08114 -4.5232 0
M  V30 347 C 33.0361 1.60638 -7.01133 0
M  V30 348 C 35.0621 1.72636 -5.65642 0
M  V30 349 C 34.4241 1.4906 -6.88448 0
M  V30 350 H 30.5231 0.56055 -0.54526 0
M  V30 351 H 33.1071 0.899472 -1.72678 0
M  V30 352 H 31.2781 3.41674 -1.84698 0
M  V30 353 H 33.0101 3.46578 -2.08963 0
M  V30 354 H 29.7651 2.63974 -3.93211 0
M  V30 355 H 30.1891 1.98919 -6.47117 0
M  V30 356 H 34.8311 2.25024 -3.57944 0
M  V30 357 H 32.5491 1.42467 -7.95443 0
M  V30 358 H 36.1351 1.62586 -5.58621 0
M  V30 359 H 35.0151 1.22014 -7.7465 0
M  V30 360 N 32.5182 1.22032 0.997298 0
M  V30 361 C 33.7652 1.04222 1.73621 0
M  V30 362 C 34.0932 -0.423264 1.89839 0
M  V30 363 O 33.3482 -1.3302 1.43542 0
M  V30 364 C 33.6472 1.69345 3.14733 0
M  V30 365 C 33.3132 3.19226 3.18442 0
M  V30 366 C 31.9752 3.60124 3.19161 0
M  V30 367 C 34.3272 4.15181 3.15078 0
M  V30 368 C 31.6552 4.95467 3.14212 0
M  V30 369 C 34.0072 5.50495 3.1167 0
M  V30 370 C 32.6712 5.90779 3.10703 0
M  V30 371 H 31.9412 0.381374 0.635323 0
M  V30 372 H 34.5882 1.51732 1.16831 0
M  V30 373 H 32.8932 1.14147 3.74803 0
M  V30 374 H 34.5902 1.53059 3.7064 0
M  V30 375 H 31.1802 2.86659 3.18629 0
M  V30 376 H 35.3642 3.84605 3.13676 0
M  V30 377 H 30.6202 5.25916 3.11805 0
M  V30 378 H 34.7942 6.24576 3.08022 0
M  V30 379 H 32.4212 6.9562 3.06622 0
M  V30 380 N 33.9963 -1.19345 1.0293 0
M  V30 381 C 34.9593 -2.20793 0.615069 0
M  V30 382 C 35.9593 -1.57553 -0.321533 0
M  V30 383 O 37.1493 -1.73862 -0.108483 0
M  V30 384 C 34.2813 -3.40754 -0.0999222 0
M  V30 385 H 35.4743 -2.58955 1.51269 0
M  V30 386 H 33.0273 -1.3303 0.820534 0
M  V30 387 H 33.7623 -3.0811 -1.01187 0
M  V30 388 H 33.5473 -3.87889 0.57309 0
M  V30 389 H 35.0373 -4.15898 -0.376645 0
M  V30 390 N 35.4744 -0.807222 -1.35358 0
M  V30 391 C 36.4224 -0.20614 -2.31685 0
M  V30 392 C 37.4164 0.644445 -1.56663 0
M  V30 393 O 38.6224 0.537538 -1.71786 0
M  V30 394 H 34.9974 -0.0479006 -0.750473 0
M  V30 395 H 36.9684 -1.03369 -2.79924 0
M  V30 396 C 35.7174 0.630212 -3.41941 0
M  V30 397 H 35.0404 -0.0149558 -3.99797 0
M  V30 398 H 36.4804 1.01716 -4.11619 0
M  V30 399 C 34.9394 1.79601 -2.85035 0
M  V30 400 O 35.4694 2.89351 -2.78637 0
M  V30 401 N 33.6754 1.60774 -2.42074 0
M  V30 402 H 33.2224 0.715009 -2.47478 0
M  V30 403 H 33.1804 2.38933 -2.04349 0
M  V30 404 N 36.9525 1.47285 -0.560781 0
M  V30 405 C 38.1805 2.06855 -0.0430262 0
M  V30 406 C 38.5955 1.41291 1.25229 0
M  V30 407 O 37.9525 0.510648 1.7521 0
M  V30 408 C 38.0035 3.61178 0.152518 0
M  V30 409 O 37.7245 4.24285 -1.0915 0
M  V30 410 C 39.2255 4.37624 0.707145 0
M  V30 411 H 36.4455 0.669319 -0.0474652 0
M  V30 412 H 38.9895 1.89237 -0.77521 0
M  V30 413 H 37.1445 3.78298 0.834843 0
M  V30 414 H 37.5585 5.16868 -0.891482 0
M  V30 415 H 39.0325 5.46271 0.793244 0
M  V30 416 H 39.5095 4.04152 1.71923 0
M  V30 417 H 40.1155 4.25257 0.0604027 0
M  V30 418 N 38.4306 0.297415 1.54768 0
M  V30 419 C 39.3776 -0.580276 2.23386 0
M  V30 420 C 40.3476 -1.13238 1.21517 0
M  V30 421 O 41.5326 -1.17757 1.50126 0
M  V30 422 C 38.6726 -1.74801 2.97555 0
M  V30 423 C 37.7856 -1.22764 4.1419 0
M  V30 424 C 36.9206 -2.35895 4.75949 0
M  V30 425 C 35.9596 -1.80974 5.84735 0
M  V30 426 N 35.0966 -2.87664 6.40464 0
M  V30 427 H 39.9366 0.0114833 2.97998 0
M  V30 428 H 37.4736 0.0174361 1.4709 0
M  V30 429 H 39.4316 -2.43475 3.38786 0
M  V30 430 H 38.0616 -2.31145 2.25326 0
M  V30 431 H 37.1136 -0.433271 3.77924 0
M  V30 432 H 38.4256 -0.785551 4.92575 0
M  V30 433 H 37.5796 -3.12523 5.20014 0
M  V30 434 H 36.3186 -2.83429 3.96887 0
M  V30 435 H 35.3236 -1.02834 5.40097 0
M  V30 436 H 36.5486 -1.34348 6.65678 0
M  V30 437 H 34.4946 -3.34538 5.64287 0
M  V30 438 H 34.4116 -2.4794 7.14186 0
M  V30 439 H 35.6796 -3.642 6.89187 0
M  V30 440 N 39.9087 -1.5758 0.0250728 0
M  V30 441 C 40.8187 -2.1343 -0.973905 0
M  V30 442 C 41.8347 -1.08556 -1.35984 0
M  V30 443 O 43.0107 -1.40592 -1.44207 0
M  V30 444 C 40.0757 -2.64703 -2.23904 0
M  V30 445 C 39.1367 -3.84276 -1.91391 0
M  V30 446 C 38.3697 -4.33095 -3.11873 0
M  V30 447 O 38.5927 -3.81107 -4.24398 0
M  V30 448 O 37.5267 -5.24984 -2.94406 0
M  V30 449 H 41.3527 -2.99057 -0.529036 0
M  V30 450 H 38.9377 -1.48118 -0.195288 0
M  V30 451 H 40.8197 -2.97769 -2.98181 0
M  V30 452 H 39.4947 -1.82161 -2.6758 0
M  V30 453 H 38.4017 -3.56143 -1.14511 0
M  V30 454 H 39.7347 -4.67968 -1.52534 0
M  V30 455 N 41.3868 0.248026 -1.55636 0
M  V30 456 C 42.6338 0.976224 -1.77415 0
M  V30 457 C 42.9618 1.85361 -0.589193 0
M  V30 458 O 42.2168 1.90973 0.427529 0
M  V30 459 C 42.5158 1.86819 -3.04686 0
M  V30 460 C 42.1818 1.14625 -4.36087 0
M  V30 461 C 40.8438 0.946723 -4.71795 0
M  V30 462 C 43.1958 0.634463 -5.17324 0
M  V30 463 C 40.5238 0.223091 -5.86276 0
M  V30 464 C 42.8758 -0.0756959 -6.32555 0
M  V30 465 C 41.5398 -0.286711 -6.66884 0
M  V30 466 H 40.8098 0.357226 -0.649208 0
M  V30 467 H 43.4568 0.246415 -1.89908 0
M  V30 468 H 41.7618 2.66502 -2.872 0
M  V30 469 H 43.4588 2.43329 -3.18735 0
M  V30 470 H 40.0488 1.3117 -4.08035 0
M  V30 471 H 44.2328 0.77616 -4.90193 0
M  V30 472 H 39.4888 0.0491185 -6.1138 0
M  V30 473 H 43.6628 -0.479899 -6.94745 0
M  V30 474 H 41.2898 -0.849389 -7.5544 0
M  V30 475 N 42.8649 1.48995 0.513639 0
M  V30 476 C 43.8279 1.64229 1.59879 0
M  V30 477 C 44.8279 0.514696 1.5234 0
M  V30 478 O 46.0179 0.78087 1.55718 0
M  V30 479 C 43.1499 1.62783 2.99524 0
M  V30 480 H 44.3429 2.61004 1.47705 0
M  V30 481 H 41.8959 1.37837 0.736936 0
M  V30 482 H 42.6309 0.675461 3.17188 0
M  V30 483 H 42.4159 2.4466 3.06404 0
M  V30 484 H 43.9059 1.76669 3.78388 0
M  V30 485 N 44.343 -0.763751 1.37857 0
M  V30 486 C 45.62 -1.51244 1.24035 0
M  V30 487 C 46 -2.10472 -0.162649 0
M  V30 488 O 45.348 -1.96206 -1.17112 0
M  V30 489 C 45.558 -2.58694 2.34261 0
M  V30 490 C 46.906 -3.25878 2.72193 0
M  V30 491 O 47.93 -2.68993 2.33497 0
M  V30 492 O 46.789 -4.2874 3.38887 0
M  V30 493 H 43.883 -0.670243 0.484462 0
M  V30 494 H 46.429 -0.800031 1.49658 0
M  V30 495 H 45.201 -2.13105 3.2818 0
M  V30 496 H 44.824 -3.37527 2.10146 0
M  V30 497 N 45.8211 -1.22559 -0.990812 0
M  V30 498 C 46.7691 -0.994798 -2.10253 0
M  V30 499 C 47.7631 0.0627798 -1.69284 0
M  V30 500 O 48.9691 -0.0898392 -1.79776 0
M  V30 501 H 45.3441 -0.304527 -0.687581 0
M  V30 502 H 47.3151 -1.93812 -2.26891 0
M  V30 503 C 46.0641 -0.591439 -3.42633 0
M  V30 504 H 45.3871 -1.3969 -3.74602 0
M  V30 505 H 46.8271 -0.469385 -4.21394 0
M  V30 506 C 45.2861 0.699232 -3.29564 0
M  V30 507 O 45.8161 1.75112 -3.61523 0
M  V30 508 N 44.0221 0.671182 -2.82743 0
M  V30 509 H 43.5691 -0.185136 -2.56934 0
M  V30 510 H 43.5271 1.53502 -2.7438 0
M  V30 511 N 47.2992 1.18797 -1.03562 0
M  V30 512 C 48.2292 2.24472 -0.643019 0
M  V30 513 C 49.2102 1.66433 0.351283 0
M  V30 514 O 50.3952 1.92803 0.232505 0
M  V30 515 C 47.5252 3.473 4.24935e-05 0
M  V30 516 C 46.4792 4.18055 -0.917257 0
M  V30 517 C 45.8052 5.34519 -0.138941 0
M  V30 518 C 47.1052 4.72109 -2.23407 0
M  V30 519 H 48.7992 2.57566 -1.52643 0
M  V30 520 H 46.3452 1.23806 -0.735394 0
M  V30 521 H 48.2982 4.20426 0.286383 0
M  V30 522 H 47.0222 3.13424 0.918299 0
M  V30 523 H 45.6812 3.46821 -1.1879 0
M  V30 524 H 45.3292 4.96891 0.781562 0
M  V30 525 H 45.0292 5.82794 -0.750005 0
M  V30 526 H 46.5532 6.10438 0.1405 0
M  V30 527 H 47.9672 5.36955 -2.00879 0
M  V30 528 H 46.3642 5.30897 -2.79765 0
M  V30 529 H 47.4342 3.89807 -2.88407 0
M  V30 530 N 48.7773 0.814389 1.34928 0
M  V30 531 C 50.0543 0.321363 1.92942 0
M  V30 532 C 50.4343 -1.19014 1.74353 0
M  V30 533 O 49.7823 -1.99328 1.11716 0
M  V30 534 C 49.9923 0.741323 3.41036 0
M  V30 535 C 51.3403 0.735266 4.18185 0
M  V30 536 O 52.3643 0.68336 3.49584 0
M  V30 537 O 51.2233 0.800703 5.40602 0
M  V30 538 H 48.3173 0.0858893 0.822528 0
M  V30 539 H 50.8633 0.898609 1.43955 0
M  V30 540 H 49.6353 1.78276 3.4833 0
M  V30 541 H 49.2583 0.139307 3.97356 0
M  V30 542 N 50.2554 -1.46986 0.568584 0
M  V30 543 C 51.4804 -2.07335 0.0520528 0
M  V30 544 C 51.9054 -1.41675 -1.23733 0
M  V30 545 O 51.2634 -0.495623 -1.74394 0
M  V30 546 C 51.3114 -3.60417 -0.11501 0
M  V30 547 O 50.4154 -3.95309 -1.17492 0
M  V30 548 H 49.7564 -0.661597 0.0564385 0
M  V30 549 H 52.2864 -1.88837 0.787507 0
M  V30 550 H 52.2964 -4.06698 -0.325644 0
M  V30 551 H 50.9714 -4.07601 0.826675 0
M  V30 552 H 49.5484 -3.60757 -0.943869 0
M  V30 553 N 51.7335 -0.305618 -1.54608 0
M  V30 554 C 53.0105 0.355652 -1.92339 0
M  V30 555 C 53.3905 1.71324 -1.23335 0
M  V30 556 O 52.7385 2.25473 -0.370702 0
M  V30 557 C 52.9485 0.46572 -3.45879 0
M  V30 558 C 54.2965 0.734426 -4.182 0
M  V30 559 O 55.3205 0.54935 -3.51938 0
M  V30 560 O 54.1795 1.09024 -5.35515 0
M  V30 561 H 51.2735 0.199666 -0.802535 0
M  V30 562 H 53.8195 -0.354017 -1.65966 0
M  V30 563 H 52.5915 -0.488461 -3.88239 0
M  V30 564 H 52.2145 1.22367 -3.78301 0
M  V30 565 N 53.2116 1.57565 -0.0334293 0
M  V30 566 C 54.4586 1.91978 0.644272 0
M  V30 567 C 54.7866 0.910231 1.71887 0
M  V30 568 O 54.0416 -0.0801961 1.95536 0
M  V30 569 C 54.3406 3.33112 1.29504 0
M  V30 570 C 54.0066 4.49537 0.350388 0
M  V30 571 C 52.6686 4.81115 0.0903974 0
M  V30 572 C 55.0206 5.20347 -0.298032 0
M  V30 573 C 52.3486 5.8086 -0.825746 0
M  V30 574 C 54.7006 6.2107 -1.20226 0
M  V30 575 C 53.3646 6.51088 -1.4711 0
M  V30 576 H 52.6346 0.702496 0.235756 0
M  V30 577 H 55.2816 1.91259 -0.0961176 0
M  V30 578 H 53.5866 3.30113 2.11028 0
M  V30 579 H 55.2836 3.57011 1.82603 0
M  V30 580 H 51.8736 4.24883 0.563205 0
M  V30 581 H 56.0576 4.96178 -0.110234 0
M  V30 582 H 51.3136 6.02461 -1.04169 0
M  V30 583 H 55.4876 6.75057 -1.71086 0
M  V30 584 H 53.1146 7.28193 -2.18264 0
M  V30 585 N 54.6897 -0.239769 1.55765 0
M  V30 586 C 55.6367 -1.29696 1.90913 0
M  V30 587 C 56.6067 -1.47478 0.764164 0
M  V30 588 O 57.7917 -1.61345 1.01845 0
M  V30 589 C 54.9317 -2.64598 2.21544 0
M  V30 590 C 54.0447 -2.54765 3.48882 0
M  V30 591 C 53.1797 -3.82069 3.69049 0
M  V30 592 C 52.2187 -3.66883 4.89963 0
M  V30 593 N 51.3557 -4.86094 5.06614 0
M  V30 594 H 56.1957 -0.990224 2.81067 0
M  V30 595 H 53.7327 -0.477684 1.39128 0
M  V30 596 H 55.6907 -3.43132 2.3731 0
M  V30 597 H 54.3207 -2.93405 1.34585 0
M  V30 598 H 53.3727 -1.67763 3.41409 0
M  V30 599 H 54.6847 -2.39457 4.37563 0
M  V30 600 H 53.8387 -4.69046 3.84812 0
M  V30 601 H 52.5777 -4.00282 2.78614 0
M  V30 602 H 51.5827 -2.78289 4.74168 0
M  V30 603 H 52.8077 -3.50157 5.81865 0
M  V30 604 H 50.7537 -5.04655 4.19117 0
M  V30 605 H 50.6707 -4.73443 5.89396 0
M  V30 606 H 51.9387 -5.74549 5.26795 0
M  V30 607 N 56.1678 -1.49265 -0.50573 0
M  V30 608 C 57.4138 -1.58748 -1.26202 0
M  V30 609 C 57.7468 -0.271227 -1.92297 0
M  V30 610 O 57.0218 0.724831 -1.80489 0
M  V30 611 C 57.3048 -2.74332 -2.33268 0
M  V30 612 C 57.1578 -4.15737 -1.71705 0
M  V30 613 C 58.4768 -2.85576 -3.34865 0
M  V30 614 H 55.5958 -0.577826 -0.457478 0
M  V30 615 H 58.2378 -1.81532 -0.560897 0
M  V30 616 H 56.3878 -2.55036 -2.93068 0
M  V30 617 H 58.0598 -4.46537 -1.15769 0
M  V30 618 H 56.3028 -4.21605 -1.02135 0
M  V30 619 H 56.9738 -4.92477 -2.49341 0
M  V30 620 H 59.4498 -3.03127 -2.8505 0
M  V30 621 H 58.3258 -3.68135 -4.07146 0
M  V30 622 H 58.5868 -1.94732 -3.96903 0
M  V30 623 N 57.6459 0.756429 -1.3826 0
M  V30 624 C 59.0619 1.0591 -1.19395 0
M  V30 625 C 59.2619 2.01459 -0.0406567 0
M  V30 626 O 58.3179 2.44909 0.614467 0
M  V30 627 C 59.6309 1.64191 -2.51916 0
M  V30 628 C 61.1789 1.76376 -2.58574 0
M  V30 629 C 61.6539 2.38069 -3.91264 0
M  V30 630 N 63.1449 2.45503 -3.92788 0
M  V30 631 C 63.8799 2.94126 -4.92217 0
M  V30 632 N 63.3759 3.42805 -6.02043 0
M  V30 633 N 65.1689 2.9314 -4.7961 0
M  V30 634 H 57.3199 0.122313 -2.12048 0
M  V30 635 H 59.5829 0.116892 -0.940766 0
M  V30 636 H 59.2889 1.01451 -3.3675 0
M  V30 637 H 59.1629 2.6329 -2.70108 0
M  V30 638 H 61.5499 2.38244 -1.74137 0
M  V30 639 H 61.6309 0.759894 -2.44252 0
M  V30 640 H 61.2749 1.76835 -4.76121 0
M  V30 641 H 61.2049 3.39091 -4.02895 0
M  V30 642 H 63.6959 2.1107 -3.13461 0
M  V30 643 H 64.0089 3.78354 -6.73846 0
M  V30 644 H 62.3539 3.4087 -6.05667 0
M  V30 645 H 65.5449 2.54419 -3.92923 0
M  V30 646 H 65.7179 3.30721 -5.5725 0
M  V30 647 N 59.124 1.23083 0.984299 0
M  V30 648 C 60.056 0.96636 2.07832 0
M  V30 649 C 61.069 -0.0582135 1.62696 0
M  V30 650 O 62.258 0.176843 1.77622 0
M  V30 651 C 59.358 0.433397 3.36117 0
M  V30 652 C 58.531 1.51722 4.10243 0
M  V30 653 C 57.59 0.989821 5.16807 0
M  V30 654 O 56.616 1.67794 5.43906 0
M  V30 655 N 57.818 -0.184367 5.80207 0
M  V30 656 H 60.583 1.90824 2.31098 0
M  V30 657 H 58.144 1.13888 1.1507 0
M  V30 658 H 60.136 0.065699 4.04647 0
M  V30 659 H 58.706 -0.413806 3.09849 0
M  V30 660 H 57.926 2.05786 3.36223 0
M  V30 661 H 59.214 2.24619 4.56534 0
M  V30 662 H 58.612 -0.760062 5.60571 0
M  V30 663 H 57.169 -0.493366 6.4993 0
M  V30 664 N 60.6021 -1.18246 1.0419 0
M  V30 665 C 61.8321 -1.91916 0.764961 0
M  V30 666 C 62.2401 -1.76485 -0.681898 0
M  V30 667 O 61.5831 -1.09275 -1.47664 0
M  V30 668 C 61.6451 -3.4373 1.05309 0
M  V30 669 C 61.3091 -3.8294 2.4941 0
M  V30 670 C 62.3061 -3.86621 3.47592 0
M  V30 671 C 59.9911 -4.142 2.84155 0
M  V30 672 C 61.9851 -4.21013 4.78568 0
M  V30 673 C 59.6721 -4.48262 4.15337 0
M  V30 674 C 60.6701 -4.51645 5.12353 0
M  V30 675 O 60.3581 -4.84911 6.41183 0
M  V30 676 H 60.0901 -0.61606 0.278292 0
M  V30 677 H 62.6441 -1.50947 1.39299 0
M  V30 678 H 60.8741 -3.84946 0.367933 0
M  V30 679 H 62.5631 -3.9865 0.763752 0
M  V30 680 H 63.3291 -3.62607 3.22089 0
M  V30 681 H 59.2081 -4.10743 2.09311 0
M  V30 682 H 62.7521 -4.23568 5.54289 0
M  V30 683 H 58.6491 -4.71737 4.40607 0
M  V30 684 H 59.4171 -5.02809 6.45852 0
M  V30 685 N 62.0802 -0.821533 -1.34494 0
M  V30 686 C 63.0102 -0.257138 -2.3208 0
M  V30 687 C 63.9912 0.625645 -1.58176 0
M  V30 688 O 65.1762 0.552811 -1.86166 0
M  V30 689 C 62.3062 0.582958 -3.42372 0
M  V30 690 C 61.2602 -0.202571 -4.2752 0
M  V30 691 C 60.5862 0.760179 -5.29269 0
M  V30 692 C 61.8862 -1.40998 -5.02908 0
M  V30 693 H 63.5802 -1.07247 -2.79532 0
M  V30 694 H 61.1262 -0.517163 -1.34393 0
M  V30 695 H 63.0792 0.987972 -4.09655 0
M  V30 696 H 61.8032 1.43133 -2.93565 0
M  V30 697 H 60.4622 -0.588936 -3.61838 0
M  V30 698 H 60.1102 1.60447 -4.76724 0
M  V30 699 H 59.8102 0.238809 -5.87115 0
M  V30 700 H 61.3342 1.16308 -5.9942 0
M  V30 701 H 62.7482 -1.07905 -5.63054 0
M  V30 702 H 61.1452 -1.86689 -5.70322 0
M  V30 703 H 62.2152 -2.1889 -4.32684 0
M  V30 704 N 63.5583 1.46682 -0.576371 0
M  V30 705 C 64.7863 2.06798 -0.0649635 0
M  V30 706 C 65.2013 1.42612 1.23723 0
M  V30 707 O 64.5583 0.529203 1.74659 0
M  V30 708 C 64.6093 3.6132 0.114202 0
M  V30 709 O 64.3303 4.23104 -1.13644 0
M  V30 710 C 65.8313 4.38349 0.66069 0
M  V30 711 H 63.0513 0.668778 -0.0545616 0
M  V30 712 H 65.5953 1.88404 -0.795237 0
M  V30 713 H 63.7503 3.79162 0.794673 0
M  V30 714 H 64.1643 5.15894 -0.946253 0
M  V30 715 H 65.6383 5.47081 0.73526 0
M  V30 716 H 66.1153 4.05953 1.67627 0
M  V30 717 H 66.7213 4.25297 0.0152951 0
M  V30 718 N 65.0364 0.313813 1.54444 0
M  V30 719 C 65.9834 -0.55655 2.23989 0
M  V30 720 C 66.9534 -1.11943 1.22711 0
M  V30 721 O 68.1384 -1.16158 1.51367 0
M  V30 722 C 65.2784 -1.71635 2.99392 0
M  V30 723 C 64.3914 -1.18364 4.15468 0
M  V30 724 C 63.5264 -2.30834 4.78424 0
M  V30 725 C 62.5654 -1.74762 5.86622 0
M  V30 726 N 61.7024 -2.80855 6.43479 0
M  V30 727 H 66.5424 0.0430893 2.97969 0
M  V30 728 H 64.0794 0.0330359 1.47063 0
M  V30 729 H 66.0374 -2.39868 3.41349 0
M  V30 730 H 64.6674 -2.28742 2.27765 0
M  V30 731 H 63.7194 -0.393163 3.78363 0
M  V30 732 H 65.0314 -0.733262 4.93381 0
M  V30 733 H 64.1854 -3.0699 5.23299 0
M  V30 734 H 62.9244 -2.79204 3.99871 0
M  V30 735 H 61.9294 -0.970995 5.41158 0
M  V30 736 H 63.1544 -1.2728 6.67066 0
M  V30 737 H 61.1004 -3.28535 5.67804 0
M  V30 738 H 61.0174 -2.40351 7.16776 0
M  V30 739 H 62.2854 -3.5687 6.93011 0
M  V30 740 N 66.5145 -1.57545 0.0417849 0
M  V30 741 C 67.4245 -2.14451 -0.951213 0
M  V30 742 C 68.4405 -1.09992 -1.34825 0
M  V30 743 O 69.6165 -1.42114 -1.42708 0
M  V30 744 C 66.6815 -2.67063 -2.21084 0
M  V30 745 C 65.7425 -3.86284 -1.87304 0
M  V30 746 C 64.9755 -4.36378 -3.07261 0
M  V30 747 O 65.1985 -3.85587 -4.20332 0
M  V30 748 O 64.1325 -5.28077 -2.88822 0
M  V30 749 H 67.9585 -2.99601 -0.497287 0
M  V30 750 H 65.5435 -1.48317 -0.179567 0
M  V30 751 H 67.4255 -3.00914 -2.95006 0
M  V30 752 H 66.1005 -1.84989 -2.65633 0
M  V30 753 H 65.0075 -3.57338 -1.10727 0
M  V30 754 H 66.3405 -4.6956 -1.47562 0
M  V30 755 N 67.9926 0.231505 -1.5589 0
M  V30 756 C 68.9226 1.29022 -1.94617 0
M  V30 757 C 69.9036 1.4941 -0.813067 0
M  V30 758 O 71.0886 1.6176 -1.07459 0
M  V30 759 C 68.2186 2.64199 -2.25424 0
M  V30 760 C 67.1726 2.58484 -3.41131 0
M  V30 761 C 66.4986 3.97599 -3.57518 0
M  V30 762 C 67.7986 2.1413 -4.76388 0
M  V30 763 H 69.4926 0.968563 -2.83301 0
M  V30 764 H 67.0386 0.464479 -1.36303 0
M  V30 765 H 68.9916 3.38413 -2.51107 0
M  V30 766 H 67.7156 2.98032 -1.33583 0
M  V30 767 H 66.3746 1.86727 -3.15481 0
M  V30 768 H 66.0226 4.28723 -2.6307 0
M  V30 769 H 65.7226 3.94659 -4.35337 0
M  V30 770 H 67.2466 4.7349 -3.85538 0
M  V30 771 H 68.6606 2.78083 -5.01341 0
M  V30 772 H 67.0576 2.2227 -5.57419 0
M  V30 773 H 68.1276 1.09331 -4.72414 0
M  V30 774 N 69.4707 1.49531 0.497807 0
M  V30 775 C 70.4337 1.65916 1.58128 0
M  V30 776 C 71.4337 0.530825 1.51786 0
M  V30 777 O 72.6237 0.797342 1.54881 0
M  V30 778 C 69.7557 1.65951 2.9778 0
M  V30 779 H 70.9487 2.62556 1.44929 0
M  V30 780 H 68.5017 1.38611 0.722275 0
M  V30 781 H 69.2367 0.709065 3.16453 0
M  V30 782 H 69.0217 2.47897 3.03792 0
M  V30 783 H 70.5117 1.80673 3.76493 0
M  V30 784 N 70.9488 -0.749086 1.3866 0
M  V30 785 C 71.8958 -1.86291 1.36251 0
M  V30 786 C 72.8658 -1.64578 0.224347 0
M  V30 787 O 74.0508 -1.86181 0.417279 0
M  V30 788 C 71.1908 -3.23644 1.19786 0
M  V30 789 C 70.3038 -3.57158 2.43027 0
M  V30 790 C 69.4388 -4.83838 2.19258 0
M  V30 791 C 68.4778 -5.10152 3.38247 0
M  V30 792 N 67.6148 -6.28029 3.13884 0
M  V30 793 H 72.4548 -1.87685 2.3147 0
M  V30 794 H 69.9918 -0.917287 1.14997 0
M  V30 795 H 71.9498 -4.0291 1.08254 0
M  V30 796 H 70.5798 -3.21566 0.282031 0
M  V30 797 H 69.6318 -2.72701 2.65214 0
M  V30 798 H 70.9438 -3.7253 3.31697 0
M  V30 799 H 70.0978 -5.71057 2.04888 0
M  V30 800 H 68.8368 -4.70614 1.2796 0
M  V30 801 H 67.8418 -4.21401 3.53131 0
M  V30 802 H 69.0668 -5.25271 4.30427 0
M  V30 803 H 67.0128 -6.1612 2.25238 0
M  V30 804 H 66.9298 -6.43922 3.96106 0
M  V30 805 H 68.1978 -7.18124 3.03179 0
M  V30 806 N 72.4269 -1.23603 -0.977757 0
M  V30 807 C 73.3899 -1.02069 -2.05218 0
M  V30 808 C 74.3899 0.0184305 -1.60789 0
M  V30 809 O 75.5799 -0.221569 -1.72785 0
M  V30 810 C 72.7119 -0.544926 -3.36517 0
M  V30 811 H 73.9049 -1.9742 -2.25755 0
M  V30 812 H 71.4579 -1.05684 -1.15155 0
M  V30 813 H 72.1929 0.412241 -3.21669 0
M  V30 814 H 71.9779 -1.2948 -3.70105 0
M  V30 815 H 73.4679 -0.414985 -4.15533 0
M  V30 816 N 73.905 1.17692 -1.04816 0
M  V30 817 C 75.13 1.92327 -0.776207 0
M  V30 818 C 75.555 1.76082 0.661581 0
M  V30 819 O 74.913 1.076 1.45917 0
M  V30 820 C 74.961 3.41539 -1.15687 0
M  V30 821 O 74.065 4.11402 -0.286775 0
M  V30 822 H 73.406 0.599735 -0.284981 0
M  V30 823 H 75.936 1.49201 -1.4 0
M  V30 824 H 75.946 3.92269 -1.12202 0
M  V30 825 H 74.621 3.52684 -2.20425 0
M  V30 826 H 73.198 3.70939 -0.381903 0
M  V30 827 N 75.3831 0.828654 1.34056 0
M  V30 828 C 76.6291 0.42008 1.98402 0
M  V30 829 C 76.9621 -1.01564 1.65525 0
M  V30 830 O 76.2371 -1.70834 0.929831 0
M  V30 831 C 76.5201 0.62927 3.54559 0
M  V30 832 C 76.3731 2.11152 3.97159 0
M  V30 833 C 77.6921 0.0688756 4.40046 0
M  V30 834 H 74.8111 0.154104 0.720709 0
M  V30 835 H 77.4531 1.04228 1.5886 0
M  V30 836 H 75.6031 0.0996418 3.88372 0
M  V30 837 H 77.2751 2.70522 3.73651 0
M  V30 838 H 75.5181 2.59985 3.47261 0
M  V30 839 H 76.1891 2.20868 5.05887 0
M  V30 840 H 78.6651 0.521458 4.1282 0
M  V30 841 H 77.5411 0.245006 5.48353 0
M  V30 842 H 77.8021 -1.0266 4.30015 0
M  V30 843 N 76.8612 -1.46375 0.584142 0
M  V30 844 C 78.0862 -2.07268 0.0740405 0
M  V30 845 C 78.5112 -1.42979 -1.22223 0
M  V30 846 O 77.8692 -0.514092 -1.73859 0
M  V30 847 C 77.9172 -3.60518 -0.0767769 0
M  V30 848 O 77.0212 -3.96533 -1.13292 0
M  V30 849 H 76.3622 -0.660961 0.0634524 0
M  V30 850 H 78.8922 -1.87991 0.807492 0
M  V30 851 H 78.9022 -4.07021 -0.282489 0
M  V30 852 H 77.5772 -4.06702 0.86986 0
M  V30 853 H 76.1542 -3.61738 -0.905553 0
M  V30 854 N 78.3393 -0.321999 -1.54275 0
M  V30 855 C 79.7553 0.0306999 -1.5957 0
M  V30 856 C 79.9553 1.50614 -1.33857 0
M  V30 857 O 79.0113 2.2619 -1.12223 0
M  V30 858 C 80.3243 -0.386122 -2.98211 0
M  V30 859 C 81.8723 -0.336647 -3.11184 0
M  V30 860 C 82.3473 -0.728607 -4.52167 0
M  V30 861 N 83.8383 -0.681952 -4.58152 0
M  V30 862 C 84.5733 -0.957449 -5.6535 0
M  V30 863 N 84.0693 -1.3 -6.80494 0
M  V30 864 N 85.8623 -0.883113 -5.55119 0
M  V30 865 H 78.0133 -1.28332 -1.69247 0
M  V30 866 H 80.2763 -0.521716 -0.791528 0
M  V30 867 H 79.9823 -1.41404 -3.22022 0
M  V30 868 H 79.8563 0.249662 -3.76373 0
M  V30 869 H 82.2433 0.682058 -2.8711 0
M  V30 870 H 82.3243 -1.00734 -2.3513 0
M  V30 871 H 81.9683 -1.74522 -4.76974 0
M  V30 872 H 81.8983 -0.0356152 -5.26588 0
M  V30 873 H 84.3893 -0.428985 -3.75457 0
M  V30 874 H 84.7023 -1.49563 -7.58189 0
M  V30 875 H 83.0473 -1.33824 -6.81994 0
M  V30 876 H 86.2383 -0.615001 -4.64042 0
M  V30 877 H 86.4113 -1.10118 -6.38575 0
M  V30 878 N 79.8174 1.5752 -0.0501392 0
M  V30 879 C 81.0664 1.91827 0.623328 0
M  V30 880 C 81.3794 0.930222 1.72065 0
M  V30 881 O 82.5854 1.1653 2.4522 0
M  V30 882 C 81.0414 3.40692 1.16003 0
M  V30 883 C 80.6494 4.479 0.0948811 0
M  V30 884 C 82.3934 3.84034 1.80881 0
M  V30 885 C 80.3004 5.87879 0.644411 0
M  V30 886 H 79.2304 0.715918 0.236596 0
M  V30 887 H 81.8814 1.83115 -0.118861 0
M  V30 888 H 80.2634 3.44405 1.9545 0
M  V30 889 H 81.4374 4.55775 -0.678675 0
M  V30 890 H 79.7524 4.13892 -0.45637 0
M  V30 891 H 82.3494 4.85984 2.22988 0
M  V30 892 H 82.6924 3.20225 2.6601 0
M  V30 893 H 83.2254 3.82833 1.0809 0
M  V30 894 H 79.9644 6.55282 -0.169229 0
M  V30 895 H 79.4844 5.83567 1.38598 0
M  V30 896 H 81.1634 6.37098 1.12763 0
M  V30 897 N 81.2955 -0.223234 1.56011 0
M  V30 898 C 82.5415 -0.949279 1.79211 0
M  V30 899 C 82.8745 -1.84054 0.619494 0
M  V30 900 O 82.1495 -1.90726 -0.381317 0
M  V30 901 C 82.4325 -1.78965 3.12479 0
M  V30 902 C 82.2855 -0.924997 4.40186 0
M  V30 903 C 83.6045 -2.76774 3.42175 0
M  V30 904 H 80.7235 -0.343676 0.651963 0
M  V30 905 H 83.3655 -0.218253 1.88742 0
M  V30 906 H 81.5155 -2.41291 3.04485 0
M  V30 907 H 83.1875 -0.318615 4.60198 0
M  V30 908 H 81.4305 -0.230344 4.33188 0
M  V30 909 H 82.1015 -1.54735 5.29869 0
M  V30 910 H 84.5775 -2.24584 3.50287 0
M  V30 911 H 83.4535 -3.32678 4.36597 0
M  V30 912 H 83.7145 -3.54429 2.64258 0
M  V30 913 N 82.7736 -1.49793 -0.48987 0
M  V30 914 C 84.0226 -1.59085 -1.23995 0
M  V30 915 C 84.3356 -0.287907 -1.9347 0
M  V30 916 O 85.5416 -0.259506 -2.70257 0
M  V30 917 C 83.9976 -2.80736 -2.252 0
M  V30 918 C 83.6056 -4.17833 -1.61614 0
M  V30 919 C 85.3496 -2.99364 -3.00967 0
M  V30 920 C 83.2566 -5.30693 -2.60996 0
M  V30 921 H 82.1866 -0.592372 -0.466488 0
M  V30 922 H 84.8376 -1.76197 -0.51252 0
M  V30 923 H 83.2196 -2.57142 -3.01154 0
M  V30 924 H 84.3936 -4.51608 -0.915774 0
M  V30 925 H 82.7086 -4.04656 -0.981977 0
M  V30 926 H 85.3056 -3.80851 -3.75308 0
M  V30 927 H 85.6486 -2.10356 -3.59244 0
M  V30 928 H 86.1816 -3.2305 -2.32128 0
M  V30 929 H 82.9206 -6.21796 -2.07485 0
M  V30 930 H 82.4406 -5.01359 -3.2924 0
M  V30 931 H 84.1196 -5.6049 -3.23202 0
M  V30 932 N 84.2517 0.741722 -1.39055 0
M  V30 933 C 85.1617 1.88621 -1.39496 0
M  V30 934 C 86.1777 1.71557 -0.290578 0
M  V30 935 O 87.3537 1.94275 -0.530954 0
M  V30 936 C 84.4187 3.24134 -1.23037 0
M  V30 937 C 83.4797 3.5364 -2.43387 0
M  V30 938 C 82.7127 4.82687 -2.27703 0
M  V30 939 O 82.9357 5.55922 -1.27696 0
M  V30 940 O 81.8697 5.1194 -3.16545 0
M  V30 941 H 85.6957 1.91203 -2.35956 0
M  V30 942 H 83.2807 0.888625 -1.20099 0
M  V30 943 H 85.1627 4.0513 -1.15964 0
M  V30 944 H 83.8377 3.22337 -0.296691 0
M  V30 945 H 82.7447 2.72758 -2.56035 0
M  V30 946 H 84.0777 3.60209 -3.35425 0
M  V30 947 N 85.7298 1.2412 0.971189 0
M  V30 948 C 87.1458 1.00584 1.23916 0
M  V30 949 C 87.3458 -0.287481 1.99439 0
M  V30 950 O 86.4018 -1.00454 2.31658 0
M  V30 951 C 87.7148 2.21864 2.0297 0
M  V30 952 C 89.2628 2.26452 2.16076 0
M  V30 953 C 89.7378 3.47343 2.98524 0
M  V30 954 N 91.2288 3.47639 3.06107 0
M  V30 955 C 91.9638 4.37837 3.70251 0
M  V30 956 N 91.4598 5.38286 4.36142 0
M  V30 957 N 93.2528 4.25558 3.67228 0
M  V30 958 H 85.4038 2.07236 0.465499 0
M  V30 959 H 87.6668 0.909236 0.268315 0
M  V30 960 H 87.3728 3.15771 1.54861 0
M  V30 961 H 87.2468 2.23698 3.03709 0
M  V30 962 H 89.6338 1.33078 2.6339 0
M  V30 963 H 89.7148 2.28645 1.14696 0
M  V30 964 H 89.3588 4.41029 2.51905 0
M  V30 965 H 89.2888 3.42393 4.00093 0
M  V30 966 H 91.7798 2.74966 2.59233 0
M  V30 967 H 92.0928 6.03352 4.82894 0
M  V30 968 H 90.4378 5.42176 4.34822 0
M  V30 969 H 93.6288 3.46322 3.14927 0
M  V30 970 H 93.8018 4.96054 4.16935 0
M  V30 971 N 87.2079 -1.17134 1.05439 0
M  V30 972 C 88.6189 -1.69084 0.791676 0
M  V30 973 C 88.9699 -1.83822 -0.685839 0
M  V30 974 O 88.0949 -1.52757 -1.53278 0
M  V30 975 C 88.6899 -3.07119 1.4305 0
M  V30 976 C 87.2489 -3.56225 1.21577 0
M  V30 977 C 86.3959 -2.32421 1.51247 0
M  V30 978 H 89.3469 -1.01617 1.219 0
M  V30 979 H 89.3679 -3.71087 0.84112 0
M  V30 980 H 88.8799 -2.9636 2.50584 0
M  V30 981 H 86.9809 -3.72257 0.159787 0
M  V30 982 H 87.0939 -4.38837 1.92246 0
M  V30 983 H 85.4579 -2.3701 0.932653 0
M  V30 984 H 86.2409 -2.24268 2.5992 0
M  V30 985 N 88.686 -0.835752 -1.33615 0
M  V30 986 C 89.649 -0.272 -2.2758 0
M  V30 987 C 90.649 0.557487 -1.50827 0
M  V30 988 O 91.839 0.37173 -1.70188 0
M  V30 989 C 88.971 0.617173 -3.35267 0
M  V30 990 H 90.164 -1.10111 -2.78954 0
M  V30 991 H 87.717 -0.608594 -1.43965 0
M  V30 992 H 88.452 1.46884 -2.89129 0
M  V30 993 H 88.237 0.0237066 -3.92093 0
M  V30 994 H 89.727 1.005 -4.05326 0
M  V30 995 N 90.1641 1.46063 -0.591896 0
M  V30 996 C 91.1111 2.30399 0.136069 0
M  V30 997 C 92.0811 1.41169 0.875238 0
M  V30 998 O 93.2661 1.70112 0.86409 0
M  V30 999 C 90.4061 3.25804 1.13781 0
M  V30 1000 C 89.5191 4.30134 0.401137 0
M  V30 1001 C 88.6541 5.12659 1.39121 0
M  V30 1002 C 87.6931 6.0873 0.641462 0
M  V30 1003 N 86.8301 6.8409 1.58004 0
M  V30 1004 H 91.6701 2.92118 -0.589144 0
M  V30 1005 H 89.2071 1.43959 -0.302342 0
M  V30 1006 H 91.1651 3.79569 1.73156 0
M  V30 1007 H 89.7951 2.65872 1.83062 0
M  V30 1008 H 88.8471 3.79152 -0.307826 0
M  V30 1009 H 90.1591 4.98458 -0.184565 0
M  V30 1010 H 89.3131 5.70747 2.05749 0
M  V30 1011 H 88.0521 4.44316 2.01084 0
M  V30 1012 H 87.0571 5.49786 -0.0385419 0
M  V30 1013 H 88.2821 6.79095 0.0270945 0
M  V30 1014 H 86.2281 6.18449 2.18761 0
M  V30 1015 H 86.1451 7.48709 1.04738 0
M  V30 1016 H 87.4131 7.4673 2.23639 0
M  V30 1017 N 91.6422 0.330177 1.54103 0
M  V30 1018 C 92.8672 -0.274893 2.0557 0
M  V30 1019 C 93.2922 -1.44487 1.20437 0
M  V30 1020 O 92.6502 -1.80021 0.214991 0
M  V30 1021 C 92.6982 -0.68079 3.54115 0
M  V30 1022 O 91.8022 -1.7824 3.71893 0
M  V30 1023 H 91.1432 -0.0483849 0.662235 0
M  V30 1024 H 93.6732 0.480508 1.98878 0
M  V30 1025 H 93.6832 -0.961635 3.96505 0
M  V30 1026 H 92.3582 0.174903 4.15532 0
M  V30 1027 H 90.9352 -1.49985 3.41407 0
M  V30 1028 N 93.1203 -1.57491 0.0584922 0
M  V30 1029 C 94.3693 -1.92155 -0.613146 0
M  V30 1030 C 94.6823 -0.939334 -1.71569 0
M  V30 1031 O 95.8883 -1.17829 -2.44599 0
M  V30 1032 C 94.3443 -3.41303 -1.14195 0
M  V30 1033 C 93.9523 -4.47944 -0.0711265 0
M  V30 1034 C 95.6963 -3.84988 -1.78841 0
M  V30 1035 C 93.6033 -5.88212 -0.613225 0
M  V30 1036 H 92.5333 -0.717162 -0.232796 0
M  V30 1037 H 95.1843 -1.83049 0.12857 0
M  V30 1038 H 93.5663 -3.45437 -1.93621 0
M  V30 1039 H 94.7403 -4.55408 0.702836 0
M  V30 1040 H 93.0553 -4.13644 0.478313 0
M  V30 1041 H 95.6523 -4.87159 -2.20408 0
M  V30 1042 H 95.9953 -3.21632 -2.64308 0
M  V30 1043 H 96.5283 -3.83401 -1.06059 0
M  V30 1044 H 93.2673 -6.55183 0.203978 0
M  V30 1045 H 92.7873 -5.84294 -1.35501 0
M  V30 1046 H 94.4663 -6.37687 -1.09383 0
M  V30 1047 N 94.5984 0.214957 -1.56127 0
M  V30 1048 C 96.0144 0.564948 -1.49267 0
M  V30 1049 C 96.2144 1.86827 -0.754838 0
M  V30 1050 O 95.2704 2.50745 -0.297198 0
M  V30 1051 C 96.5834 0.638071 -2.93852 0
M  V30 1052 C 98.1314 0.728253 -3.0441 0
M  V30 1053 C 98.6064 0.832663 -4.50367 0
M  V30 1054 N 100.097 0.896712 -4.54437 0
M  V30 1055 C 100.832 0.997324 -5.6466 0
M  V30 1056 N 100.328 1.06147 -6.8462 0
M  V30 1057 N 102.121 1.03297 -5.52527 0
M  V30 1058 H 94.2724 -0.640211 -2.02522 0
M  V30 1059 H 96.5354 -0.225507 -0.920788 0
M  V30 1060 H 96.2414 -0.250126 -3.50809 0
M  V30 1061 H 96.1154 1.49947 -3.46115 0
M  V30 1062 H 98.5024 1.60689 -2.47514 0
M  V30 1063 H 98.5834 -0.158952 -2.55306 0
M  V30 1064 H 98.2274 -0.0415417 -5.07883 0
M  V30 1065 H 98.1574 1.73538 -4.97184 0
M  V30 1066 H 100.648 0.857188 -3.6805 0
M  V30 1067 H 100.961 1.1382 -7.64372 0
M  V30 1068 H 99.3064 1.03049 -6.87318 0
M  V30 1069 H 102.497 0.979558 -4.57736 0
M  V30 1070 H 102.67 1.10793 -6.38458 0
M  V30 1071 N 96.0765 1.50051 0.48192 0
M  V30 1072 C 97.3225 1.60736 1.2366 0
M  V30 1073 C 97.6555 0.301786 1.91841 0
M  V30 1074 O 96.9305 -0.696025 1.8162 0
M  V30 1075 C 97.2135 2.78009 2.28874 0
M  V30 1076 C 97.0665 4.18416 1.65069 0
M  V30 1077 C 98.3855 2.90867 3.30279 0
M  V30 1078 H 95.5045 0.585031 0.448228 0
M  V30 1079 H 98.1465 1.82402 0.531946 0
M  V30 1080 H 96.2965 2.59667 2.88973 0
M  V30 1081 H 97.9685 4.48322 1.0865 0
M  V30 1082 H 96.2115 4.23177 0.954148 0
M  V30 1083 H 96.8825 4.96381 2.41474 0
M  V30 1084 H 99.3585 3.07623 2.80191 0
M  V30 1085 H 98.2345 3.74566 4.01238 0
M  V30 1086 H 98.4955 2.01021 3.93755 0
M  V30 1087 N 97.5546 -0.734337 1.39446 0
M  V30 1088 C 98.7826 -1.52358 1.39981 0
M  V30 1089 C 99.1976 -1.88799 -0.0054975 0
M  V30 1090 O 98.5546 -1.54146 -0.976998 0
M  V30 1091 C 98.6056 -2.81072 2.27333 0
M  V30 1092 O 98.3266 -2.46178 3.62392 0
M  V30 1093 C 99.8276 -3.75096 2.36259 0
M  V30 1094 H 97.0476 -0.470806 0.478103 0
M  V30 1095 H 99.5916 -0.907339 1.83269 0
M  V30 1096 H 97.7466 -3.39026 1.87457 0
M  V30 1097 H 98.1606 -3.28866 4.08592 0
M  V30 1098 H 99.6346 -4.62305 3.01626 0
M  V30 1099 H 100.112 -4.16892 1.38194 0
M  V30 1100 H 100.718 -3.23061 2.76608 0
M  V30 1101 N 99.0327 -1.24633 -0.964593 0
M  V30 1102 C 100.282 -1.08188 -1.7023 0
M  V30 1103 C 100.595 0.37873 -1.91898 0
M  V30 1104 O 101.801 0.663427 -2.6327 0
M  V30 1105 C 100.257 -1.88773 -3.06419 0
M  V30 1106 C 99.8647 -3.39263 -2.92582 0
M  V30 1107 C 101.609 -1.80867 -3.84041 0
M  V30 1108 C 99.5157 -4.1218 -4.24101 0
M  V30 1109 H 98.4457 -0.401245 -0.638372 0
M  V30 1110 H 101.097 -1.48742 -1.07462 0
M  V30 1111 H 99.4787 -1.41035 -3.70034 0
M  V30 1112 H 100.653 -3.94603 -2.37961 0
M  V30 1113 H 98.9677 -3.48154 -2.28424 0
M  V30 1114 H 101.565 -2.32646 -4.81435 0
M  V30 1115 H 101.908 -0.774543 -4.09031 0
M  V30 1116 H 102.441 -2.26301 -3.27159 0
M  V30 1117 H 99.1797 -5.15965 -4.04303 0
M  V30 1118 H 98.6997 -3.61626 -4.78526 0
M  V30 1119 H 100.379 -4.19349 -4.92702 0
M  V30 1120 N 100.511 1.16574 -1.06058 0
M  V30 1121 C 101.461 2.18854 -0.63929 0
M  V30 1122 C 102.445 1.57505 0.328798 0
M  V30 1123 O 103.637 1.76408 0.144623 0
M  V30 1124 C 100.766 3.43291 -0.0247203 0
M  V30 1125 C 99.8518 4.11722 -1.01716 0
M  V30 1126 N 100.243 4.55841 -2.19186 0
M  V30 1127 C 98.5408 4.37872 -0.847569 0
M  V30 1128 C 99.2418 5.08751 -2.82042 0
M  V30 1129 N 98.2178 5.01489 -2.09784 0
M  V30 1130 H 102.02 2.5068 -1.53417 0
M  V30 1131 H 99.5338 1.32999 -0.931935 0
M  V30 1132 H 101.531 4.15856 0.294915 0
M  V30 1133 H 100.191 3.12954 0.865448 0
M  V30 1134 H 101.202 4.49649 -2.56975 0
M  V30 1135 H 97.8788 4.17499 -0.00918848 0
M  V30 1136 H 99.2688 5.52944 -3.81709 0
M  V30 1137 N 101.989 0.842826 1.3317 0
M  V30 1138 C 103.217 0.454055 2.01856 0
M  V30 1139 C 103.632 -0.94587 1.63397 0
M  V30 1140 O 102.989 -1.61534 0.849302 0
M  V30 1141 C 103.04 0.569715 3.56982 0
M  V30 1142 O 102.761 1.91448 3.94055 0
M  V30 1143 C 104.262 0.178412 4.42941 0
M  V30 1144 H 101.482 0.17979 0.646465 0
M  V30 1145 H 104.026 1.1365 1.70012 0
M  V30 1146 H 102.181 -0.0648587 3.87346 0
M  V30 1147 H 102.595 1.90282 4.88767 0
M  V30 1148 H 104.069 0.310376 5.51127 0
M  V30 1149 H 104.546 -0.880056 4.30293 0
M  V30 1150 H 105.152 0.787579 4.17944 0
M  V30 1151 N 103.467 -1.45747 0.599634 0
M  V30 1152 C 104.43 -2.28917 -0.113835 0
M  V30 1153 C 105.43 -1.3933 -0.802729 0
M  V30 1154 O 106.62 -1.61534 -0.652103 0
M  V30 1155 C 103.752 -3.20152 -1.17114 0
M  V30 1156 H 104.945 -2.93478 0.617289 0
M  V30 1157 H 102.498 -1.52137 0.358327 0
M  V30 1158 H 103.233 -2.60374 -1.93329 0
M  V30 1159 H 103.018 -3.86133 -0.681468 0
M  V30 1160 H 104.508 -3.82708 -1.67105 0
M  V30 1161 N 104.945 -0.338344 -1.53925 0
M  V30 1162 C 106.361 0.0137736 -1.59594 0
M  V30 1163 C 106.561 1.49186 -1.35447 0
M  V30 1164 O 105.617 2.24987 -1.14616 0
M  V30 1165 C 106.93 -0.41773 -2.97784 0
M  V30 1166 C 108.478 -0.369633 -3.1081 0
M  V30 1167 C 108.953 -0.776524 -4.51369 0
M  V30 1168 N 110.444 -0.730506 -4.57403 0
M  V30 1169 C 111.179 -1.01736 -5.64303 0
M  V30 1170 N 110.675 -1.3721 -6.79077 0
M  V30 1171 N 112.468 -0.941942 -5.54151 0
M  V30 1172 H 104.619 -1.3012 -1.67876 0
M  V30 1173 H 106.882 -0.530082 -0.78595 0
M  V30 1174 H 106.588 -1.44811 -3.20504 0
M  V30 1175 H 106.462 0.209729 -3.76616 0
M  V30 1176 H 108.849 0.651568 -2.87817 0
M  V30 1177 H 108.93 -1.03223 -2.34049 0
M  V30 1178 H 108.574 -1.79571 -4.75096 0
M  V30 1179 H 108.504 -0.0914649 -5.26521 0
M  V30 1180 H 110.995 -0.468783 -3.74981 0
M  V30 1181 H 111.308 -1.57597 -7.5656 0
M  V30 1182 H 109.653 -1.4105 -6.80536 0
M  V30 1183 H 112.844 -0.664184 -4.63364 0
M  V30 1184 H 113.017 -1.16884 -6.37371 0
M  V30 1185 N 106.423 1.57458 -0.0668435 0
M  V30 1186 C 107.834 1.80776 0.466558 0
M  V30 1187 C 108.185 0.980361 1.69951 0
M  V30 1188 O 107.31 0.201441 2.1546 0
M  V30 1189 C 107.905 3.27881 0.85321 0
M  V30 1190 C 106.464 3.52062 1.3315 0
M  V30 1191 C 105.611 2.75513 0.314264 0
M  V30 1192 H 108.562 1.5598 -0.292588 0
M  V30 1193 H 108.583 3.39659 1.715 0
M  V30 1194 H 108.095 3.88075 -0.0443439 0
M  V30 1195 H 106.196 2.97167 2.24772 0
M  V30 1196 H 106.309 4.60762 1.31285 0
M  V30 1197 H 104.673 2.42123 0.790492 0
M  V30 1198 H 105.456 3.38442 -0.575477 0
M  V30 1199 N 107.901 -0.206675 1.56239 0
M  V30 1200 C 109.149 -0.927007 1.79586 0
M  V30 1201 C 109.47 -1.8427 0.637929 0
M  V30 1202 O 108.74 -1.92849 -0.344398 0
M  V30 1203 H 107.32 -0.345292 0.662407 0
M  V30 1204 H 109.982 -0.21496 1.93711 0
M  V30 1205 H 109.078 -1.52501 2.72305 0
M  V30 1206 N 109.379 -1.50304 -0.473955 0
M  V30 1207 C 110.628 -1.60392 -1.22301 0
M  V30 1208 C 110.941 -0.308411 -1.93153 0
M  V30 1209 O 112.147 -0.288156 -2.69966 0
M  V30 1210 C 110.603 -2.83109 -2.2221 0
M  V30 1211 C 110.211 -4.19524 -1.57173 0
M  V30 1212 C 111.955 -3.0254 -2.97775 0
M  V30 1213 C 109.862 -5.33431 -2.55353 0
M  V30 1214 H 108.792 -0.597286 -0.460179 0
M  V30 1215 H 111.443 -1.76731 -0.493803 0
M  V30 1216 H 109.825 -2.60322 -2.9841 0
M  V30 1217 H 110.999 -4.52554 -0.867824 0
M  V30 1218 H 109.314 -4.05674 -0.939002 0
M  V30 1219 H 111.911 -3.84811 -3.71248 0
M  V30 1220 H 112.254 -2.14154 -3.56992 0
M  V30 1221 H 112.787 -3.25494 -2.28688 0
M  V30 1222 H 109.526 -6.23962 -2.00878 0
M  V30 1223 H 109.046 -5.04823 -3.23904 0
M  V30 1224 H 110.725 -5.63887 -3.17239 0
M  V30 1225 N 110.857 0.726932 -1.39834 0
M  V30 1226 C 112.103 1.48884 -1.377 0
M  V30 1227 C 112.436 1.94185 0.0244852 0
M  V30 1228 O 111.711 1.67361 0.990986 0
M  V30 1229 C 111.994 2.72288 -2.3565 0
M  V30 1230 C 111.847 2.32956 -3.84775 0
M  V30 1231 C 113.166 3.74414 -2.31306 0
M  V30 1232 H 110.285 0.540062 -0.5015 0
M  V30 1233 H 112.927 0.830547 -1.70886 0
M  V30 1234 H 111.077 3.28457 -2.07481 0
M  V30 1235 H 112.749 1.82356 -4.23726 0
M  V30 1236 H 110.992 1.65088 -4.01159 0
M  V30 1237 H 111.663 3.21362 -4.4881 0
M  V30 1238 H 114.139 3.27849 -2.56231 0
M  V30 1239 H 113.015 4.58414 -3.01907 0
M  V30 1240 H 113.276 4.21909 -1.32081 0
M  V30 1241 N 112.336 1.25143 0.95797 0
M  V30 1242 C 113.585 1.0909 1.69654 0
M  V30 1243 C 113.898 -0.368548 1.92097 0
M  V30 1244 O 115.104 -0.649455 2.63618 0
M  V30 1245 C 113.56 1.90395 3.05414 0
M  V30 1246 C 113.168 3.4081 2.90779 0
M  V30 1247 C 114.912 1.82901 3.83076 0
M  V30 1248 C 112.819 4.14423 4.21909 0
M  V30 1249 H 111.749 0.404625 0.636235 0
M  V30 1250 H 114.4 1.4931 1.06672 0
M  V30 1251 H 112.782 1.42996 3.69281 0
M  V30 1252 H 113.956 3.95859 2.35865 0
M  V30 1253 H 112.271 3.49361 2.26575 0
M  V30 1254 H 114.868 2.35196 4.80195 0
M  V30 1255 H 115.211 0.796224 4.08615 0
M  V30 1256 H 115.744 2.28033 3.25954 0
M  V30 1257 H 112.483 5.18102 4.01561 0
M  V30 1258 H 112.003 3.64159 4.76601 0
M  V30 1259 H 113.682 4.21956 4.90471 0
M  V30 1260 N 113.814 -1.1601 1.06675 0
M  V30 1261 C 115.062 -1.86264 0.784229 0
M  V30 1262 C 115.383 -1.82328 -0.691488 0
M  V30 1263 O 114.653 -1.25947 -1.50047 0
M  V30 1264 H 113.233 -0.689621 0.28711 0
M  V30 1265 H 115.895 -1.40664 1.34906 0
M  V30 1266 H 114.991 -2.91595 1.11259 0
M  V30 1267 N 115.292 -0.849877 -1.32721 0
M  V30 1268 C 116.239 -0.289033 -2.28983 0
M  V30 1269 C 117.209 0.601324 -1.54833 0
M  V30 1270 O 118.394 0.537253 -1.8308 0
M  V30 1271 C 115.534 0.520623 -3.4115 0
M  V30 1272 C 114.647 -0.394989 -4.3019 0
M  V30 1273 C 113.782 0.426834 -5.29482 0
M  V30 1274 C 112.821 -0.486476 -6.10164 0
M  V30 1275 N 111.958 0.297879 -7.01468 0
M  V30 1276 H 116.798 -1.11519 -2.76347 0
M  V30 1277 H 114.335 -0.56138 -1.35967 0
M  V30 1278 H 116.293 1.00563 -4.04899 0
M  V30 1279 H 114.923 1.31165 -2.9495 0
M  V30 1280 H 113.975 -0.99836 -3.67065 0
M  V30 1281 H 115.287 -1.09612 -4.86607 0
M  V30 1282 H 114.441 0.975205 -5.98811 0
M  V30 1283 H 113.18 1.16136 -4.73671 0
M  V30 1284 H 112.185 -1.04677 -5.39743 0
M  V30 1285 H 113.41 -1.21953 -6.6806 0
M  V30 1286 H 111.356 1.01558 -6.48091 0
M  V30 1287 H 111.273 -0.344318 -7.55216 0
M  V30 1288 H 112.541 0.828131 -7.75089 0
M  V30 1289 N 116.77 1.45427 -0.607355 0
M  V30 1290 C 117.717 2.3053 0.111625 0
M  V30 1291 C 118.687 1.4209 0.860216 0
M  V30 1292 O 119.872 1.71019 0.845998 0
M  V30 1293 C 117.012 3.26992 1.10319 0
M  V30 1294 C 116.125 4.30535 0.355493 0
M  V30 1295 C 115.26 5.14105 1.33676 0
M  V30 1296 C 114.299 6.09376 0.576862 0
M  V30 1297 N 113.436 6.85727 1.5074 0
M  V30 1298 H 118.276 2.91477 -0.620093 0
M  V30 1299 H 115.813 1.43631 -0.317594 0
M  V30 1300 H 117.771 3.81385 1.6912 0
M  V30 1301 H 116.401 2.67799 1.80232 0
M  V30 1302 H 115.453 3.78805 -0.348023 0
M  V30 1303 H 116.765 4.98235 -0.237423 0
M  V30 1304 H 115.919 5.72897 1.99684 0
M  V30 1305 H 114.658 4.46423 1.9636 0
M  V30 1306 H 113.663 5.49715 -0.0968519 0
M  V30 1307 H 114.888 6.79085 -0.0449341 0
M  V30 1308 H 112.834 6.20735 2.12189 0
M  V30 1309 H 112.751 7.49778 0.967913 0
M  V30 1310 H 114.019 7.4906 2.15706 0
M  V30 1311 N 118.248 0.346503 1.53744 0
M  V30 1312 C 119.496 -0.248612 2.00565 0
M  V30 1313 C 119.817 -1.5083 1.23593 0
M  V30 1314 O 119.087 -1.92858 0.343912 0
M  V30 1315 H 117.667 -0.0948564 0.740953 0
M  V30 1316 H 120.329 0.468341 1.89189 0
M  V30 1317 H 119.425 -0.488994 3.08245 0
M  V30 1318 N 119.726 -1.57421 0.075193 0
M  V30 1319 C 120.636 -2.1642 -0.905511 0
M  V30 1320 C 121.652 -1.12828 -1.32461 0
M  V30 1321 O 122.828 -1.45109 -1.39661 0
M  V30 1322 C 119.893 -2.71693 -2.15369 0
M  V30 1323 C 118.954 -3.90171 -1.79068 0
M  V30 1324 C 118.187 -4.42798 -2.97936 0
M  V30 1325 O 118.41 -3.94416 -4.12058 0
M  V30 1326 O 117.344 -5.34085 -2.77555 0
M  V30 1327 H 121.17 -3.00588 -0.433626 0
M  V30 1328 H 118.755 -1.48664 -0.148067 0
M  V30 1329 H 120.637 -3.07104 -2.88557 0
M  V30 1330 H 119.312 -1.90582 -2.61649 0
M  V30 1331 H 118.219 -3.59606 -1.03122 0
M  V30 1332 H 119.552 -4.72584 -1.37569 0
M  V30 1333 N 121.204 0.198386 -1.56346 0
M  V30 1334 C 122.481 0.944982 -1.71258 0
M  V30 1335 C 122.861 2.0151 -0.629048 0
M  V30 1336 O 122.209 2.25639 0.360473 0
M  V30 1337 C 122.419 1.5344 -3.1346 0
M  V30 1338 C 123.767 2.01778 -3.73591 0
M  V30 1339 O 124.791 1.63288 -3.16568 0
M  V30 1340 O 123.65 2.72594 -4.73661 0
M  V30 1341 H 120.744 0.442939 -0.69838 0
M  V30 1342 H 123.29 0.188342 -1.68652 0
M  V30 1343 H 122.062 0.762869 -3.83792 0
M  V30 1344 H 121.685 2.35596 -3.20282 0
M  V30 1345 N 122.682 1.50554 0.465978 0
M  V30 1346 C 123.928 1.62038 1.21949 0
M  V30 1347 C 124.261 0.322116 1.9151 0
M  V30 1348 O 123.536 -0.676723 1.82348 0
M  V30 1349 C 123.819 2.80421 2.25912 0
M  V30 1350 C 123.672 4.20144 1.60622 0
M  V30 1351 C 124.991 2.94354 3.27176 0
M  V30 1352 H 122.11 0.589752 0.441998 0
M  V30 1353 H 124.752 1.82956 0.51257 0
M  V30 1354 H 122.902 2.62717 2.86203 0
M  V30 1355 H 124.574 4.49449 1.03889 0
M  V30 1356 H 122.817 4.24165 0.909211 0
M  V30 1357 H 123.488 4.98914 2.36196 0
M  V30 1358 H 125.964 3.10578 2.76913 0
M  V30 1359 H 124.84 3.788 3.97242 0
M  V30 1360 H 125.101 2.05186 3.916 0
M  V30 1361 N 124.16 -0.719506 1.40217 0
M  V30 1362 C 125.07 -1.86378 1.42479 0
M  V30 1363 C 126.086 -1.71073 0.317834 0
M  V30 1364 O 127.262 -1.93406 0.561794 0
M  V30 1365 C 124.327 -3.22136 1.28178 0
M  V30 1366 C 123.388 -3.49723 2.48982 0
M  V30 1367 C 122.621 -4.79004 2.35353 0
M  V30 1368 O 122.844 -5.53821 1.36524 0
M  V30 1369 O 121.778 -5.06839 3.2465 0
M  V30 1370 H 125.604 -1.87425 2.38968 0
M  V30 1371 H 123.189 -0.869405 1.21498 0
M  V30 1372 H 125.071 -4.03234 1.22395 0
M  V30 1373 H 123.746 -3.21825 0.347934 0
M  V30 1374 H 122.653 -2.6865 2.60342 0
M  V30 1375 H 123.986 -3.54828 3.41113 0
M  V30 1376 N 125.638 -1.25649 -0.95132 0
M  V30 1377 C 126.585 -1.06323 -2.04851 0
M  V30 1378 C 127.555 0.0286491 -1.66075 0
M  V30 1379 O 128.74 -0.12917 -1.90362 0
M  V30 1380 C 125.88 -0.691529 -3.381 0
M  V30 1381 C 124.993 -1.85861 -3.89974 0
M  V30 1382 C 124.128 -1.43096 -5.11563 0
M  V30 1383 C 123.167 -2.56696 -5.55674 0
M  V30 1384 N 122.304 -2.14684 -6.68472 0
M  V30 1385 H 127.144 -2.00222 -2.20715 0
M  V30 1386 H 124.681 -0.997027 -1.08156 0
M  V30 1387 H 126.639 -0.456963 -4.1469 0
M  V30 1388 H 125.269 0.210474 -3.22113 0
M  V30 1389 H 124.321 -2.20639 -3.09875 0
M  V30 1390 H 125.633 -2.71161 -4.18657 0
M  V30 1391 H 124.787 -1.15624 -5.9558 0
M  V30 1392 H 123.526 -0.548722 -4.84603 0
M  V30 1393 H 122.531 -2.84909 -4.7022 0
M  V30 1394 H 123.756 -3.45503 -5.8464 0
M  V30 1395 H 121.702 -1.28881 -6.43215 0
M  V30 1396 H 121.619 -2.9353 -6.96689 0
M  V30 1397 H 122.887 -1.90397 -7.5589 0
M  V30 1398 N 127.117 1.15442 -1.07289 0
M  V30 1399 C 128.047 2.22312 -0.714107 0
M  V30 1400 C 129.028 1.67467 0.298155 0
M  V30 1401 O 130.213 1.93445 0.171048 0
M  V30 1402 C 127.343 3.47124 -0.110448 0
M  V30 1403 C 126.297 4.14926 -1.04979 0
M  V30 1404 C 125.623 5.33807 -0.308924 0
M  V30 1405 C 126.923 4.64762 -2.38314 0
M  V30 1406 H 128.617 2.5258 -1.6076 0
M  V30 1407 H 126.163 1.21404 -0.77441 0
M  V30 1408 H 128.116 4.21124 0.152482 0
M  V30 1409 H 126.84 3.16187 0.81812 0
M  V30 1410 H 125.499 3.42866 -1.29764 0
M  V30 1411 H 125.147 4.99126 0.623084 0
M  V30 1412 H 124.847 5.80113 -0.935036 0
M  V30 1413 H 126.371 6.10576 -0.0537771 0
M  V30 1414 H 127.785 5.30292 -2.1786 0
M  V30 1415 H 126.182 5.21728 -2.96514 0
M  V30 1416 H 127.252 3.80434 -3.00663 0
M  V30 1417 N 128.595 0.856903 1.32268 0
M  V30 1418 C 130.011 0.547061 1.49931 0
M  V30 1419 C 130.211 -0.921781 1.7918 0
M  V30 1420 O 129.267 -1.70469 1.8627 0
M  V30 1421 C 130.58 1.43599 2.64196 0
M  V30 1422 C 132.128 1.43665 2.78081 0
M  V30 1423 C 132.603 2.31085 3.95428 0
M  V30 1424 N 134.094 2.28893 4.02694 0
M  V30 1425 C 134.829 2.93262 4.92732 0
M  V30 1426 N 134.325 3.66751 5.87763 0
M  V30 1427 N 136.118 2.82638 4.85873 0
M  V30 1428 H 128.269 1.8075 1.11549 0
M  V30 1429 H 130.532 0.772144 0.549997 0
M  V30 1430 H 130.238 2.48058 2.49319 0
M  V30 1431 H 130.112 1.12502 3.60032 0
M  V30 1432 H 132.499 0.399701 2.92381 0
M  V30 1433 H 132.58 1.7878 1.82952 0
M  V30 1434 H 132.224 3.34849 3.81888 0
M  V30 1435 H 132.154 1.93302 4.89839 0
M  V30 1436 H 134.645 1.75466 3.34694 0
M  V30 1437 H 134.958 4.13027 6.53168 0
M  V30 1438 H 133.303 3.70859 5.87783 0
M  V30 1439 H 136.494 2.24774 4.10602 0
M  V30 1440 H 136.667 3.33084 5.55841 0
M  V30 1441 N 130.073 -1.45103 0.615059 0
M  V30 1442 C 131.02 -2.30586 -0.0993978 0
M  V30 1443 C 131.99 -1.42544 -0.852669 0
M  V30 1444 O 133.175 -1.71465 -0.836917 0
M  V30 1445 C 130.315 -3.27572 -1.08583 0
M  V30 1446 C 129.428 -4.30717 -0.332656 0
M  V30 1447 C 128.563 -5.14807 -1.30947 0
M  V30 1448 C 127.602 -6.09673 -0.544538 0
M  V30 1449 N 126.739 -6.86517 -1.47101 0
M  V30 1450 H 131.579 -2.91144 0.635542 0
M  V30 1451 H 129.116 -1.4346 0.325206 0
M  V30 1452 H 131.074 -3.82276 -1.67095 0
M  V30 1453 H 129.704 -2.68751 -1.78809 0
M  V30 1454 H 128.756 -3.78615 0.368107 0
M  V30 1455 H 130.068 -4.98102 0.263842 0
M  V30 1456 H 129.222 -5.73948 -1.96643 0
M  V30 1457 H 127.961 -4.47458 -1.9399 0
M  V30 1458 H 126.966 -5.49656 0.126003 0
M  V30 1459 H 128.191 -6.79052 0.080947 0
M  V30 1460 H 126.137 -6.21851 -2.08895 0
M  V30 1461 H 126.054 -7.50281 -0.928137 0
M  V30 1462 H 127.322 -7.50194 -2.11731 0
M  V30 1463 N 131.551 -0.354651 -1.53558 0
M  V30 1464 C 132.797 0.238797 -2.01389 0
M  V30 1465 C 133.13 1.49309 -1.2418 0
M  V30 1466 O 132.405 1.91638 -0.332457 0
M  V30 1467 C 132.688 0.541771 -3.56001 0
M  V30 1468 C 132.541 -0.725388 -4.43912 0
M  V30 1469 C 133.86 1.34685 -4.18984 0
M  V30 1470 H 130.979 0.0853177 -0.732045 0
M  V30 1471 H 133.621 -0.477384 -1.83905 0
M  V30 1472 H 131.771 1.15189 -3.71031 0
M  V30 1473 H 133.443 -1.36313 -4.407 0
M  V30 1474 H 131.686 -1.34801 -4.12324 0
M  V30 1475 H 132.357 -0.468505 -5.50008 0
M  V30 1476 H 134.833 0.830837 -4.07721 0
M  V30 1477 H 133.709 1.52759 -5.27215 0
M  V30 1478 H 133.97 2.35221 -3.74331 0
M  V30 1479 N 133.029 1.57378 -0.0835403 0
M  V30 1480 C 134.275 1.94217 0.583733 0
M  V30 1481 C 134.608 0.964653 1.68547 0
M  V30 1482 O 133.883 -0.00422258 1.945 0
M  V30 1483 C 134.166 3.41253 1.14972 0
M  V30 1484 C 134.019 4.49768 0.0538277 0
M  V30 1485 C 135.338 3.89352 2.05166 0
M  V30 1486 H 132.457 0.706233 0.210724 0
M  V30 1487 H 135.099 1.89392 -0.1519 0
M  V30 1488 H 133.249 3.45496 1.77665 0
M  V30 1489 H 134.921 4.57641 -0.579851 0
M  V30 1490 H 133.164 4.29432 -0.614068 0
M  V30 1491 H 133.835 5.49817 0.490452 0
M  V30 1492 H 136.311 3.87189 1.52393 0
M  V30 1493 H 135.187 4.92822 2.41698 0
M  V30 1494 H 135.448 3.27973 2.96456 0
M  V30 1495 N 134.507 -0.190092 1.56449 0
M  V30 1496 C 135.47 -1.21925 1.9408 0
M  V30 1497 C 136.47 -1.38176 0.822431 0
M  V30 1498 O 137.66 -1.35903 1.08977 0
M  V30 1499 C 134.792 -2.58773 2.21922 0
M  V30 1500 H 135.985 -0.897464 2.86157 0
M  V30 1501 H 133.538 -0.43181 1.50217 0
M  V30 1502 H 134.273 -2.95998 1.32499 0
M  V30 1503 H 134.058 -2.48348 3.03424 0
M  V30 1504 H 135.548 -3.32978 2.52022 0
M  V30 1505 N 135.985 -1.50799 -0.457987 0
M  V30 1506 C 137.262 -1.52968 -1.21902 0
M  V30 1507 C 137.642 -0.281906 -2.09209 0
M  V30 1508 O 136.99 0.734076 -2.16388 0
M  V30 1509 C 137.2 -2.8326 -2.03875 0
M  V30 1510 C 138.548 -3.34425 -2.6162 0
M  V30 1511 O 139.572 -2.8467 -2.14106 0
M  V30 1512 O 138.431 -4.21188 -3.48228 0
M  V30 1513 H 135.525 -0.614129 -0.553873 0
M  V30 1514 H 138.071 -1.63098 -0.468739 0
M  V30 1515 H 136.843 -3.65543 -1.39621 0
M  V30 1516 H 136.466 -2.76195 -2.8601 0
M  V30 1517 N 137.463 0.71206 -1.40597 0
M  V30 1518 C 138.712 1.46754 -1.38369 0
M  V30 1519 C 139.025 1.95598 0.0097839 0
M  V30 1520 O 140.231 2.71059 0.154677 0
M  V30 1521 C 138.687 2.65289 -2.43207 0
M  V30 1522 C 138.295 2.23301 -3.88382 0
M  V30 1523 C 140.039 3.43008 -2.50091 0
M  V30 1524 C 137.946 3.38696 -4.84808 0
M  V30 1525 H 136.876 0.55118 -0.514506 0
M  V30 1526 H 139.527 0.774616 -1.66349 0
M  V30 1527 H 137.909 3.36769 -2.08332 0
M  V30 1528 H 139.083 1.59218 -4.32419 0
M  V30 1529 H 137.398 1.58618 -3.85006 0
M  V30 1530 H 139.995 4.28881 -3.1932 0
M  V30 1531 H 140.338 3.87065 -1.53253 0
M  V30 1532 H 140.871 2.78574 -2.83974 0
M  V30 1533 H 137.61 2.99668 -5.82992 0
M  V30 1534 H 137.13 4.01683 -4.45433 0
M  V30 1535 H 138.809 4.04712 -5.04794 0
M  V30 1536 N 138.941 1.26152 0.944643 0
M  V30 1537 C 139.904 1.07474 2.0244 0
M  V30 1538 C 140.904 0.0242064 1.60782 0
M  V30 1539 O 142.094 0.267302 1.72137 0
M  V30 1540 C 139.226 0.633956 3.34953 0
M  V30 1541 H 140.419 2.03336 2.20442 0
M  V30 1542 H 137.972 1.087 1.12312 0
M  V30 1543 H 138.707 -0.326811 3.22649 0
M  V30 1544 H 138.492 1.39247 3.66542 0
M  V30 1545 H 139.982 0.52501 4.14287 0
M  V30 1546 N 140.419 -1.14872 1.07899 0
M  V30 1547 C 141.667 -1.85422 0.803941 0
M  V30 1548 C 141.988 -1.83051 -0.67211 0
M  V30 1549 O 141.258 -1.27532 -1.48703 0
M  V30 1550 H 139.838 -0.686537 0.294408 0
M  V30 1551 H 142.5 -1.39226 1.3639 0
M  V30 1552 H 141.596 -2.90399 1.14346 0
M  V30 1553 N 141.898 -0.863906 -1.31812 0
M  V30 1554 C 143.144 -0.472535 -1.97218 0
M  V30 1555 C 143.477 0.971394 -1.68159 0
M  V30 1556 O 142.752 1.68309 -0.974798 0
M  V30 1557 C 143.035 -0.723054 -3.52766 0
M  V30 1558 C 142.888 -2.21608 -3.91421 0
M  V30 1559 C 144.207 -0.185522 -4.39709 0
M  V30 1560 H 141.326 -0.173158 -0.71637 0
M  V30 1561 H 143.968 -1.08403 -1.56041 0
M  V30 1562 H 142.118 -0.202577 -3.87971 0
M  V30 1563 H 143.79 -2.80334 -3.66347 0
M  V30 1564 H 142.033 -2.691 -3.40246 0
M  V30 1565 H 142.704 -2.34203 -4.99853 0
M  V30 1566 H 145.18 -0.630726 -4.11292 0
M  V30 1567 H 144.056 -0.390306 -5.47511 0
M  V30 1568 H 144.317 0.912229 -4.32586 0
M  V30 1569 N 143.376 1.44774 -0.622745 0
M  V30 1570 C 144.787 1.85546 -0.207226 0
M  V30 1571 C 145.138 1.52093 1.23944 0
M  V30 1572 O 144.263 0.95492 1.94191 0
M  V30 1573 C 144.858 3.36781 -0.369313 0
M  V30 1574 C 143.417 3.76399 -0.00836847 0
M  V30 1575 C 142.564 2.68664 -0.686651 0
M  V30 1576 H 145.515 1.3536 -0.828454 0
M  V30 1577 H 145.536 3.78453 0.394162 0
M  V30 1578 H 145.048 3.61098 -1.42231 0
M  V30 1579 H 143.149 3.57698 1.04322 0
M  V30 1580 H 143.262 4.7732 -0.412584 0
M  V30 1581 H 141.626 2.54404 -0.122777 0
M  V30 1582 H 142.409 2.95815 -1.74208 0
M  V30 1583 N 144.854 0.36279 1.53368 0
M  V30 1584 C 145.817 -0.472679 2.24273 0
M  V30 1585 C 146.817 -1.012 1.24961 0
M  V30 1586 O 148.007 -0.898194 1.49259 0
M  V30 1587 C 145.139 -1.66039 2.97731 0
M  V30 1588 H 146.332 0.14773 2.99536 0
M  V30 1589 H 143.885 0.114434 1.55881 0
M  V30 1590 H 144.62 -2.31896 2.26704 0
M  V30 1591 H 144.405 -1.28066 3.70596 0
M  V30 1592 H 145.895 -2.25252 3.51641 0
M  V30 1593 N 146.332 -1.57332 0.0918853 0
M  V30 1594 C 147.264 -2.10869 -0.898168 0
M  V30 1595 C 148.277 -1.04521 -1.24817 0
M  V30 1596 O 149.466 -1.31977 -1.20184 0
M  V30 1597 C 146.566 -2.57083 -2.2082 0
M  V30 1598 C 145.739 -3.87229 -2.03402 0
M  V30 1599 C 144.798 -4.19324 -3.17889 0
M  V30 1600 O 143.824 -4.88598 -2.91994 0
M  V30 1601 N 145.026 -3.74471 -4.43567 0
M  V30 1602 H 147.791 -2.96439 -0.440943 0
M  V30 1603 H 145.352 -1.61631 -0.0933064 0
M  V30 1604 H 147.344 -2.75602 -2.96354 0
M  V30 1605 H 145.914 -1.76541 -2.57977 0
M  V30 1606 H 145.134 -3.7789 -1.12218 0
M  V30 1607 H 146.422 -4.72379 -1.89038 0
M  V30 1608 H 145.82 -3.18546 -4.67488 0
M  V30 1609 H 144.377 -3.98151 -5.16061 0
M  V30 1610 N 147.81 0.181792 -1.56548 0
M  V30 1611 C 149.059 0.898348 -1.8059 0
M  V30 1612 C 149.372 1.83862 -0.667379 0
M  V30 1613 O 150.578 2.59678 -0.792446 0
M  V30 1614 C 149.034 1.64791 -3.19956 0
M  V30 1615 C 148.642 0.751789 -4.41647 0
M  V30 1616 C 150.386 2.35331 -3.53298 0
M  V30 1617 C 148.293 1.50098 -5.72035 0
M  V30 1618 H 147.223 0.339194 -0.673397 0
M  V30 1619 H 149.874 0.151413 -1.82874 0
M  V30 1620 H 148.256 2.43921 -3.11959 0
M  V30 1621 H 149.43 -0.0018076 -4.608 0
M  V30 1622 H 147.745 0.156562 -4.16106 0
M  V30 1623 H 150.342 2.91958 -4.47956 0
M  V30 1624 H 150.685 3.10164 -2.77676 0
M  V30 1625 H 151.218 1.63154 -3.62803 0
M  V30 1626 H 147.957 0.795175 -6.50659 0
M  V30 1627 H 147.477 2.22817 -5.56878 0
M  V30 1628 H 149.156 2.05125 -6.13622 0
M  V30 1629 N 149.288 1.51039 0.449983 0
M  V30 1630 C 150.236 1.71995 1.5659 0
M  V30 1631 C 151.23 0.586029 1.5894 0
M  V30 1632 O 152.436 0.76709 1.62837 0
M  V30 1633 H 148.811 0.543233 0.520001 0
M  V30 1634 H 150.782 2.65562 1.36085 0
M  V30 1635 C 149.531 1.8506 2.9436 0
M  V30 1636 H 148.854 2.71712 2.93279 0
M  V30 1637 H 150.294 2.0374 3.71842 0
M  V30 1638 C 148.753 0.607277 3.31382 0
M  V30 1639 O 149.283 -0.243903 4.00959 0
M  V30 1640 N 147.489 0.455073 2.87015 0
M  V30 1641 H 147.036 1.14879 2.30566 0
M  V30 1642 H 146.994 -0.375611 3.12148 0
M  V30 1643 N 150.766 -0.704594 1.40972 0
M  V30 1644 C 152.015 -1.46018 1.39146 0
M  V30 1645 C 152.328 -1.956 0.000589254 0
M  V30 1646 O 153.534 -2.71137 -0.1403 0
M  V30 1647 C 151.99 -2.63996 2.4461 0
M  V30 1648 C 151.598 -2.21238 3.89561 0
M  V30 1649 C 153.342 -3.41677 2.51907 0
M  V30 1650 C 151.249 -3.3612 4.86598 0
M  V30 1651 H 150.179 -0.548444 0.517422 0
M  V30 1652 H 152.83 -0.765784 1.66757 0
M  V30 1653 H 151.212 -3.3566 2.10115 0
M  V30 1654 H 152.386 -1.56923 4.33257 0
M  V30 1655 H 150.701 -1.56574 3.85841 0
M  V30 1656 H 153.298 -4.27182 3.2159 0
M  V30 1657 H 153.641 -3.86247 1.55303 0
M  V30 1658 H 154.174 -2.77064 2.85448 0
M  V30 1659 H 150.913 -2.96572 5.84573 0
M  V30 1660 H 150.433 -3.99315 4.47557 0
M  V30 1661 H 152.112 -4.02029 5.06934 0
M  V30 1662 N 152.244 -1.26651 -0.937939 0
M  V30 1663 C 153.207 -1.08546 -2.01867 0
M  V30 1664 C 154.207 -0.0327327 -1.60767 0
M  V30 1665 O 155.397 -0.276427 -1.71993 0
M  V30 1666 C 152.529 -0.651711 -3.34613 0
M  V30 1667 H 153.722 -2.04502 -2.1936 0
M  V30 1668 H 151.275 -1.09294 -1.11734 0
M  V30 1669 H 152.01 0.309696 -3.22818 0
M  V30 1670 H 151.795 -1.41189 -3.65798 0
M  V30 1671 H 153.285 -0.546973 -4.14002 0
M  V30 1672 N 153.722 1.14298 -1.08507 0
M  V30 1673 C 154.632 2.23027 -0.727753 0
M  V30 1674 C 155.648 1.71952 0.26619 0
M  V30 1675 O 156.824 2.011 0.109882 0
M  V30 1676 C 153.889 3.46403 -0.143541 0
M  V30 1677 C 152.95 4.12413 -1.19223 0
M  V30 1678 C 152.183 5.29899 -0.635798 0
M  V30 1679 O 152.406 5.67796 0.544393 0
M  V30 1680 O 151.34 5.85717 -1.38634 0
M  V30 1681 H 155.166 2.55945 -1.63481 0
M  V30 1682 H 152.751 1.22248 -0.858817 0
M  V30 1683 H 154.633 4.21018 0.179404 0
M  V30 1684 H 153.308 3.15206 0.736659 0
M  V30 1685 H 152.215 3.39667 -1.56772 0
M  V30 1686 H 153.548 4.47718 -2.04474 0
M  V30 1687 N 155.201 0.870884 1.31352 0
M  V30 1688 C 156.447 0.482987 1.96965 0
M  V30 1689 C 156.78 -0.962462 1.68672 0
M  V30 1690 O 156.055 -1.6779 0.98371 0
M  V30 1691 C 156.338 0.741752 3.52378 0
M  V30 1692 C 156.191 2.2368 3.9024 0
M  V30 1693 C 157.51 0.208838 4.39604 0
M  V30 1694 H 154.629 0.176955 0.715441 0
M  V30 1695 H 157.271 1.09229 1.55464 0
M  V30 1696 H 155.421 0.223149 3.87859 0
M  V30 1697 H 157.093 2.82273 3.64856 0
M  V30 1698 H 155.336 2.70901 3.38814 0
M  V30 1699 H 156.007 2.3685 4.98604 0
M  V30 1700 H 158.483 0.652529 4.10952 0
M  V30 1701 H 157.359 0.419336 5.47296 0
M  V30 1702 H 157.62 -0.889275 4.33064 0
M  V30 1703 N 156.679 -1.44442 0.630414 0
M  V30 1704 C 158.095 -1.56832 0.295973 0
M  V30 1705 C 158.295 -1.61806 -1.20088 0
M  V30 1706 O 157.351 -1.5607 -1.9849 0
M  V30 1707 C 158.664 -2.84031 0.987264 0
M  V30 1708 C 160.212 -2.97742 0.96534 0
M  V30 1709 C 160.687 -4.27743 1.63708 0
M  V30 1710 N 162.178 -4.34555 1.60364 0
M  V30 1711 C 162.913 -5.33862 2.09234 0
M  V30 1712 N 162.409 -6.39578 2.66292 0
M  V30 1713 N 164.202 -5.25366 1.99867 0
M  V30 1714 H 156.353 -1.39457 1.60205 0
M  V30 1715 H 158.616 -0.668237 0.672431 0
M  V30 1716 H 158.322 -2.86338 2.04215 0
M  V30 1717 H 158.196 -3.73534 0.524588 0
M  V30 1718 H 160.583 -2.94989 -0.0810639 0
M  V30 1719 H 160.664 -2.09589 1.4665 0
M  V30 1720 H 160.308 -4.31255 2.68293 0
M  V30 1721 H 160.238 -5.14752 1.11076 0
M  V30 1722 H 162.729 -3.58772 1.18705 0
M  V30 1723 H 163.042 -7.11637 3.01317 0
M  V30 1724 H 161.387 -6.40265 2.70343 0
M  V30 1725 H 164.578 -4.41688 1.55013 0
M  V30 1726 H 164.751 -6.02606 2.38265 0
M  V30 1727 N 158.157 -0.370918 -1.53173 0
M  V30 1728 C 159.104 0.473035 -2.259 0
M  V30 1729 C 160.074 1.07311 -1.26781 0
M  V30 1730 O 161.259 1.1046 -1.55574 0
M  V30 1731 C 158.399 1.60405 -3.05556 0
M  V30 1732 C 157.512 1.02863 -4.19575 0
M  V30 1733 C 156.647 2.12918 -4.86661 0
M  V30 1734 C 155.686 1.52869 -5.92704 0
M  V30 1735 N 154.823 2.56779 -6.53459 0
M  V30 1736 H 159.663 -0.153649 -2.97604 0
M  V30 1737 H 157.2 -0.0875946 -1.46839 0
M  V30 1738 H 159.158 2.27034 -3.50016 0
M  V30 1739 H 157.788 2.20131 -2.36097 0
M  V30 1740 H 156.84 0.252465 -3.79561 0
M  V30 1741 H 158.152 0.549642 -4.95762 0
M  V30 1742 H 157.306 2.87356 -5.34333 0
M  V30 1743 H 156.045 2.6417 -4.09958 0
M  V30 1744 H 155.05 0.769479 -5.44389 0
M  V30 1745 H 156.275 1.02435 -6.7133 0
M  V30 1746 H 154.221 3.07235 -5.79606 0
M  V30 1747 H 154.138 2.13583 -7.25202 0
M  V30 1748 H 155.406 3.30903 -7.05779 0
M  V30 1749 N 159.635 1.57281 -0.100228 0
M  V30 1750 C 161.046 1.81725 0.428107 0
M  V30 1751 C 161.397 1.01619 1.67833 0
M  V30 1752 O 160.522 0.247098 2.14985 0
M  V30 1753 C 161.117 3.29617 0.78347 0
M  V30 1754 C 159.676 3.54808 1.25653 0
M  V30 1755 C 158.823 2.76118 0.255752 0
M  V30 1756 H 161.774 1.55324 -0.325608 0
M  V30 1757 H 161.795 3.4322 1.64256 0
M  V30 1758 H 161.307 3.87893 -0.12665 0
M  V30 1759 H 159.408 3.01868 2.18418 0
M  V30 1760 H 159.521 4.63443 1.21482 0
M  V30 1761 H 157.885 2.43745 0.738956 0
M  V30 1762 H 158.668 3.37145 -0.647136 0
M  V30 1763 N 161.113 -0.173488 1.56642 0
M  V30 1764 C 162.023 -1.23482 1.99473 0
M  V30 1765 C 163.039 -1.48567 0.905752 0
M  V30 1766 O 164.215 -1.60758 1.21321 0
M  V30 1767 C 161.28 -2.55444 2.34413 0
M  V30 1768 C 160.341 -2.38241 3.57127 0
M  V30 1769 C 159.574 -3.63909 3.90392 0
M  V30 1770 O 159.797 -4.68996 3.24653 0
M  V30 1771 O 158.731 -3.58149 4.83749 0
M  V30 1772 H 162.557 -0.901279 2.90018 0
M  V30 1773 H 160.142 -0.380185 1.44482 0
M  V30 1774 H 162.024 -3.33292 2.57865 0
M  V30 1775 H 160.699 -2.88382 1.4703 0
M  V30 1776 H 159.606 -1.58431 3.38896 0
M  V30 1777 H 160.939 -2.10228 4.45045 0
M  V30 1778 N 162.591 -1.51276 -0.441967 0
M  V30 1779 C 163.521 -1.752 -1.54361 0
M  V30 1780 C 164.502 -0.601682 -1.59103 0
M  V30 1781 O 165.687 -0.843913 -1.74905 0
M  V30 1782 C 162.817 -1.87282 -2.92477 0
M  V30 1783 C 161.771 -3.02687 -3.02596 0
M  V30 1784 C 161.097 -2.99947 -4.42647 0
M  V30 1785 C 162.397 -4.4273 -2.77106 0
M  V30 1786 H 164.091 -2.67442 -1.34592 0
M  V30 1787 H 161.637 -1.28694 -0.646048 0
M  V30 1788 H 163.59 -2.02602 -3.695 0
M  V30 1789 H 162.314 -0.916844 -3.13467 0
M  V30 1790 H 160.973 -2.87065 -2.28012 0
M  V30 1791 H 160.621 -2.02136 -4.60597 0
M  V30 1792 H 160.321 -3.77439 -4.50348 0
M  V30 1793 H 161.845 -3.17354 -5.2165 0
M  V30 1794 H 163.259 -4.58727 -3.43864 0
M  V30 1795 H 161.656 -5.21893 -2.96222 0
M  V30 1796 H 162.726 -4.53087 -1.72744 0
M  V30 1797 N 164.069 0.697108 -1.41344 0
M  V30 1798 C 165.346 1.45154 -1.31109 0
M  V30 1799 C 165.726 2.11009 0.0620449 0
M  V30 1800 O 165.074 2.01571 1.07618 0
M  V30 1801 C 165.284 2.47223 -2.46337 0
M  V30 1802 C 166.632 3.1252 -2.87431 0
M  V30 1803 O 167.656 2.57547 -2.46065 0
M  V30 1804 O 166.515 4.12083 -3.58957 0
M  V30 1805 H 163.609 0.646365 -0.515889 0
M  V30 1806 H 166.155 0.727716 -1.53305 0
M  V30 1807 H 164.927 1.97204 -3.37974 0
M  V30 1808 H 164.55 3.27116 -2.2601 0
M  V30 1809 N 165.547 1.27147 0.931209 0
M  V30 1810 C 166.51 1.09615 2.01289 0
M  V30 1811 C 167.51 0.0412581 1.60747 0
M  V30 1812 O 168.7 0.285545 1.71844 0
M  V30 1813 C 165.832 0.669447 3.34262 0
M  V30 1814 H 167.025 2.05662 2.18273 0
M  V30 1815 H 164.578 1.09885 1.11153 0
M  V30 1816 H 165.313 -0.292572 3.22978 0
M  V30 1817 H 165.098 1.43127 3.65044 0
M  V30 1818 H 166.588 0.568921 4.13706 0
M  V30 1819 N 167.025 -1.13721 1.09112 0
M  V30 1820 C 167.972 -2.19031 0.727591 0
M  V30 1821 C 168.942 -1.63555 -0.289656 0
M  V30 1822 O 170.127 -1.90023 -0.172026 0
M  V30 1823 C 167.267 -3.4477 0.15082 0
M  V30 1824 C 166.38 -4.14365 1.22172 0
M  V30 1825 C 165.515 -5.27709 0.608042 0
M  V30 1826 C 164.554 -5.89147 1.66047 0
M  V30 1827 N 163.691 -6.93929 1.06806 0
M  V30 1828 H 168.531 -2.49475 1.62991 0
M  V30 1829 H 166.068 -1.22499 0.81439 0
M  V30 1830 H 168.026 -4.16714 -0.201358 0
M  V30 1831 H 166.656 -3.14787 -0.714783 0
M  V30 1832 H 165.708 -3.40737 1.69122 0
M  V30 1833 H 167.02 -4.56114 2.01895 0
M  V30 1834 H 166.174 -6.06355 0.204523 0
M  V30 1835 H 164.913 -4.872 -0.220769 0
M  V30 1836 H 163.918 -5.09198 2.07357 0
M  V30 1837 H 165.143 -6.31729 2.49189 0
M  V30 1838 H 163.089 -6.55483 0.260476 0
M  V30 1839 H 163.006 -7.34202 1.8023 0
M  V30 1840 H 164.274 -7.76434 0.690644 0
M  V30 1841 N 168.503 -0.877838 -1.30888 0
M  V30 1842 C 169.433 -0.35534 -2.3078 0
M  V30 1843 C 170.414 0.557994 -1.60687 0
M  V30 1844 O 171.599 0.473355 -1.88343 0
M  V30 1845 C 168.729 0.437221 -3.44537 0
M  V30 1846 C 167.683 -0.383715 -4.26276 0
M  V30 1847 C 167.009 0.535014 -5.32017 0
M  V30 1848 C 168.309 -1.62201 -4.96476 0
M  V30 1849 H 170.003 -1.19007 -2.74732 0
M  V30 1850 H 167.549 -0.573698 -1.32078 0
M  V30 1851 H 169.502 0.813334 -4.13477 0
M  V30 1852 H 168.226 1.30553 -2.99372 0
M  V30 1853 H 166.885 -0.741874 -3.59015 0
M  V30 1854 H 166.533 1.40083 -4.831 0
M  V30 1855 H 166.233 -0.0104211 -5.87599 0
M  V30 1856 H 167.757 0.907799 -6.03814 0
M  V30 1857 H 169.171 -1.31689 -5.5797 0
M  V30 1858 H 167.568 -2.10711 -5.61891 0
M  V30 1859 H 168.638 -2.37044 -4.23011 0
M  V30 1860 N 169.982 1.44106 -0.638065 0
M  V30 1861 C 171.228 2.02277 -0.145546 0
M  V30 1862 C 171.561 1.50125 1.23191 0
M  V30 1863 O 170.836 0.688133 1.8192 0
M  V30 1864 C 171.119 3.59829 -0.139791 0
M  V30 1865 C 170.972 4.22247 -1.55008 0
M  V30 1866 C 172.291 4.36873 0.531966 0
M  V30 1867 H 169.41 0.734992 -0.0543632 0
M  V30 1868 H 172.052 1.71592 -0.815863 0
M  V30 1869 H 170.202 3.86102 0.431007 0
M  V30 1870 H 171.874 4.07057 -2.1703 0
M  V30 1871 H 170.117 3.79476 -2.10191 0
M  V30 1872 H 170.788 5.31284 -1.49804 0
M  V30 1873 H 173.264 4.16074 0.0464781 0
M  V30 1874 H 172.14 5.4657 0.505206 0
M  V30 1875 H 172.401 4.11995 1.60352 0
M  V30 1876 N 171.46 0.379036 1.52974 0
M  V30 1877 C 172.423 -0.448865 2.24762 0
M  V30 1878 C 173.423 -0.998689 1.26027 0
M  V30 1879 O 174.613 -0.882313 1.50203 0
M  V30 1880 C 171.745 -1.62872 2.99476 0
M  V30 1881 H 172.938 0.179491 2.99362 0
M  V30 1882 H 170.491 0.13096 1.5575 0
M  V30 1883 H 171.226 -2.29479 2.29151 0
M  V30 1884 H 171.011 -1.24128 3.71934 0
M  V30 1885 H 172.501 -2.2151 3.5401 0
M  V30 1886 N 172.938 -1.57226 0.108567 0
M  V30 1887 C 174.215 -1.86333 -0.594939 0
M  V30 1888 C 174.595 -1.00788 -1.85486 0
M  V30 1889 O 173.943 -0.0839293 -2.28346 0
M  V30 1890 C 174.153 -3.37265 -0.897405 0
M  V30 1891 C 175.501 -4.05629 -1.25501 0
M  V30 1892 O 176.525 -3.42224 -0.987998 0
M  V30 1893 O 175.384 -5.17531 -1.75567 0
M  V30 1894 H 172.478 -0.771018 -0.2991 0
M  V30 1895 H 175.024 -1.69102 0.142283 0
M  V30 1896 H 173.796 -3.913 -0.00413806 0
M  V30 1897 H 173.419 -3.59889 -1.69014 0
M  V30 1898 N 174.416 0.165178 -1.56732 0
M  V30 1899 C 175.641 0.900253 -1.86843 0
M  V30 1900 C 176.066 1.74766 -0.695596 0
M  V30 1901 O 175.424 1.77786 0.35522 0
M  V30 1902 C 175.472 1.74777 -3.15413 0
M  V30 1903 O 174.576 2.85007 -2.98068 0
M  V30 1904 H 173.917 0.251832 -0.614391 0
M  V30 1905 H 176.447 0.161468 -2.03962 0
M  V30 1906 H 176.457 2.14646 -3.46974 0
M  V30 1907 H 175.132 1.12537 -4.00385 0
M  V30 1908 H 173.709 2.48676 -2.77875 0
M  V30 1909 N 175.894 1.51508 0.433938 0
M  V30 1910 C 177.143 1.63578 1.18005 0
M  V30 1911 C 177.456 0.359514 1.92268 0
M  V30 1912 O 178.662 0.359632 2.69108 0
M  V30 1913 C 177.118 2.88901 2.14626 0
M  V30 1914 C 176.726 4.23544 1.45995 0
M  V30 1915 C 178.47 3.10328 2.89649 0
M  V30 1916 C 176.377 5.40014 2.4112 0
M  V30 1917 H 175.307 0.609277 0.444182 0
M  V30 1918 H 177.958 1.77978 0.446773 0
M  V30 1919 H 176.34 2.68142 2.91403 0
M  V30 1920 H 177.514 4.54696 0.747532 0
M  V30 1921 H 175.829 4.08021 0.831115 0
M  V30 1922 H 178.426 3.94518 3.60915 0
M  V30 1923 H 178.769 2.23544 3.51189 0
M  V30 1924 H 179.302 3.31443 2.19978 0
M  V30 1925 H 176.041 6.29068 1.84264 0
M  V30 1926 H 175.561 5.13233 3.10406 0
M  V30 1927 H 177.24 5.72099 3.02177 0
M  V30 1928 N 177.372 -0.689602 1.41712 0
M  V30 1929 C 178.6 -1.47827 1.44758 0
M  V30 1930 C 179.015 -1.88721 0.0545703 0
M  V30 1931 O 178.372 -1.57176 -0.927463 0
M  V30 1932 C 178.423 -2.73698 2.3616 0
M  V30 1933 O 178.144 -2.34524 3.7004 0
M  V30 1934 C 179.645 -3.67389 2.48072 0
M  V30 1935 H 176.865 -0.455357 0.49284 0
M  V30 1936 H 179.409 -0.848574 1.86063 0
M  V30 1937 H 177.564 -3.32891 1.98148 0
M  V30 1938 H 177.978 -3.15701 4.18847 0
M  V30 1939 H 179.452 -4.52475 3.16181 0
M  V30 1940 H 179.929 -4.12284 1.51388 0
M  V30 1941 H 180.535 -3.14097 2.86746 0
M  V30 1942 N 178.85 -1.27639 -0.924453 0
M  V30 1943 C 180.075 -1.17101 -1.71179 0
M  V30 1944 C 180.5 0.268134 -1.86179 0
M  V30 1945 O 179.858 1.19415 -1.36418 0
M  V30 1946 C 179.906 -1.86313 -3.08739 0
M  V30 1947 O 179.01 -1.16331 -3.95652 0
M  V30 1948 H 178.351 -0.407091 -0.524569 0
M  V30 1949 H 180.881 -1.68767 -1.15666 0
M  V30 1950 H 180.891 -1.938 -3.59034 0
M  V30 1951 H 179.566 -2.91001 -2.97138 0
M  V30 1952 H 178.143 -1.16935 -3.54091 0
M  V30 1953 N 180.328 1.1314 -1.09713 0
M  V30 1954 C 181.26 2.18343 -0.697056 0
M  V30 1955 C 182.273 1.60669 0.262551 0
M  V30 1956 O 183.462 1.78435 0.0481527 0
M  V30 1957 C 180.562 3.38899 -0.00684728 0
M  V30 1958 C 179.735 4.26078 -0.988741 0
M  V30 1959 C 178.794 5.25155 -0.331394 0
M  V30 1960 O 177.82 5.60701 -0.979926 0
M  V30 1961 N 179.022 5.73271 0.913261 0
M  V30 1962 H 181.787 2.5328 -1.60216 0
M  V30 1963 H 179.348 1.28491 -0.984971 0
M  V30 1964 H 181.34 4.02255 0.444191 0
M  V30 1965 H 179.91 3.02175 0.800551 0
M  V30 1966 H 179.13 3.59453 -1.61826 0
M  V30 1967 H 180.418 4.81178 -1.65364 0
M  V30 1968 H 179.816 5.46544 1.45966 0
M  V30 1969 H 178.373 6.3855 1.30757 0
M  V30 1970 N 181.806 0.884767 1.30421 0
M  V30 1971 C 182.736 0.367574 2.30589 0
M  V30 1972 C 183.717 -0.549464 1.60981 0
M  V30 1973 O 184.902 -0.46336 1.88591 0
M  V30 1974 C 182.032 -0.418944 3.44764 0
M  V30 1975 C 180.986 0.406316 4.26067 0
M  V30 1976 C 180.312 -0.506793 5.32293 0
M  V30 1977 C 181.612 1.64832 4.95608 0
M  V30 1978 H 183.306 1.20462 2.74097 0
M  V30 1979 H 180.852 0.580695 1.31772 0
M  V30 1980 H 182.805 -0.791395 4.13902 0
M  V30 1981 H 181.529 -1.28964 3.0006 0
M  V30 1982 H 180.188 0.760903 3.58617 0
M  V30 1983 H 179.836 -1.37519 4.83836 0
M  V30 1984 H 179.536 0.0415828 5.87585 0
M  V30 1985 H 181.06 -0.875764 6.04287 0
M  V30 1986 H 182.474 1.34646 5.57264 0
M  V30 1987 H 180.871 2.13688 5.60765 0
M  V30 1988 H 181.941 2.39284 4.21748 0
M  V30 1989 N 183.284 -1.43765 0.645699 0
M  V30 1990 C 184.194 -2.34544 -0.0512957 0
M  V30 1991 C 185.21 -1.53455 -0.82022 0
M  V30 1992 O 186.386 -1.86133 -0.769176 0
M  V30 1993 C 183.451 -3.31636 -1.01087 0
M  V30 1994 C 182.512 -4.2863 -0.239712 0
M  V30 1995 C 181.745 -5.21084 -1.15358 0
M  V30 1996 O 181.968 -5.1779 -2.39269 0
M  V30 1997 O 180.902 -5.98593 -0.630038 0
M  V30 1998 H 184.728 -2.95624 0.695718 0
M  V30 1999 H 182.313 -1.43781 0.405882 0
M  V30 2000 H 184.195 -3.9136 -1.56254 0
M  V30 2001 H 182.87 -2.73069 -1.73824 0
M  V30 2002 H 181.777 -3.72408 0.355356 0
M  V30 2003 H 183.11 -4.90157 0.447936 0
M  V30 2004 N 184.763 -0.387143 -1.52771 0
M  V30 2005 C 186.179 -0.037007 -1.59557 0
M  V30 2006 C 186.379 1.44801 -1.40124 0
M  V30 2007 O 185.435 2.21227 -1.21716 0
M  V30 2008 C 186.748 -0.512256 -2.96305 0
M  V30 2009 C 188.296 -0.468328 -3.09476 0
M  V30 2010 C 188.771 -0.919731 -4.4867 0
M  V30 2011 N 190.262 -0.875656 -4.54848 0
M  V30 2012 C 190.997 -1.19637 -5.6078 0
M  V30 2013 N 190.493 -1.58745 -6.74368 0
M  V30 2014 N 192.286 -1.11776 -5.50874 0
M  V30 2015 H 184.437 -1.35395 -1.63652 0
M  V30 2016 H 186.7 -0.554818 -0.768688 0
M  V30 2017 H 186.406 -1.54935 -3.15734 0
M  V30 2018 H 186.28 0.089805 -3.77093 0
M  V30 2019 H 188.667 0.559671 -2.89744 0
M  V30 2020 H 188.748 -1.10616 -2.30646 0
M  V30 2021 H 188.392 -1.94595 -4.69143 0
M  V30 2022 H 188.322 -0.258927 -5.25963 0
M  V30 2023 H 190.813 -0.587843 -3.733 0
M  V30 2024 H 191.126 -1.81586 -7.51163 0
M  V30 2025 H 189.471 -1.6263 -6.75705 0
M  V30 2026 H 192.662 -0.811264 -4.61016 0
M  V30 2027 H 192.835 -1.37103 -6.3333 0
M  V30 2028 N 186.241 1.57166 -0.116904 0
M  V30 2029 C 187.657 1.5779 0.239693 0
M  V30 2030 C 187.857 1.1295 1.66867 0
M  V30 2031 O 186.913 0.81592 2.38954 0
M  V30 2032 C 188.226 3.00699 0.00828202 0
M  V30 2033 C 189.774 3.12912 0.0743438 0
M  V30 2034 C 190.249 4.57817 -0.129348 0
M  V30 2035 N 191.74 4.63139 -0.075247 0
M  V30 2036 C 192.475 5.73023 -0.207788 0
M  V30 2037 N 191.971 6.91665 -0.396382 0
M  V30 2038 N 193.764 5.61906 -0.14751 0
M  V30 2039 H 185.915 1.84615 -1.05029 0
M  V30 2040 H 188.178 0.85311 -0.41341 0
M  V30 2041 H 187.884 3.37784 -0.979531 0
M  V30 2042 H 187.758 3.69848 0.741077 0
M  V30 2043 H 190.145 2.75686 1.05268 0
M  V30 2044 H 190.226 2.4631 -0.690297 0
M  V30 2045 H 189.87 4.95742 -1.10465 0
M  V30 2046 H 189.8 5.22507 0.655253 0
M  V30 2047 H 192.291 3.7784 0.0670898 0
M  V30 2048 H 192.604 7.71255 -0.488437 0
M  V30 2049 H 190.949 6.93654 -0.432329 0
M  V30 2050 H 194.14 4.681 -0.00115036 0
M  V30 2051 H 194.313 6.47501 -0.254247 0
M  V30 2052 N 187.719 -0.156864 1.56817 0
M  V30 2053 C 188.965 -0.872416 1.83076 0
M  V30 2054 C 189.298 -1.81261 0.697001 0
M  V30 2055 O 188.573 -1.92171 -0.30008 0
M  V30 2056 C 188.856 -1.65551 3.19789 0
M  V30 2057 C 188.709 -0.737467 4.43713 0
M  V30 2058 C 190.028 -2.62012 3.53606 0
M  V30 2059 H 187.147 -0.315715 0.665953 0
M  V30 2060 H 189.789 -0.138004 1.89498 0
M  V30 2061 H 187.939 -2.28159 3.14445 0
M  V30 2062 H 189.611 -0.123143 4.61136 0
M  V30 2063 H 187.854 -0.0464067 4.33775 0
M  V30 2064 H 188.525 -1.32122 5.35955 0
M  V30 2065 H 191.001 -2.09525 3.59497 0
M  V30 2066 H 189.877 -3.13861 4.50314 0
M  V30 2067 H 190.138 -3.42902 2.79053 0
M  V30 2068 N 189.197 -1.51736 -0.425897 0
M  V30 2069 C 190.13 -1.68574 -1.53812 0
M  V30 2070 C 191.108 -0.53328 -1.53606 0
M  V30 2071 O 192.292 -0.758555 -1.72564 0
M  V30 2072 C 189.419 -1.70977 -2.92377 0
M  V30 2073 C 188.465 -2.92324 -3.10563 0
M  V30 2074 S 189.298 -4.52952 -2.85648 0
M  V30 2075 C 190.454 -4.58117 -4.26474 0
M  V30 2076 H 190.687 -2.62647 -1.39298 0
M  V30 2077 H 188.22 -1.41564 -0.616361 0
M  V30 2078 H 190.178 -1.73047 -3.72243 0
M  V30 2079 H 188.839 -0.78061 -3.04245 0
M  V30 2080 H 188.032 -2.90439 -4.11899 0
M  V30 2081 H 187.634 -2.88055 -2.38538 0
M  V30 2082 H 189.926 -4.34462 -5.19855 0
M  V30 2083 H 190.869 -5.59983 -4.33388 0
M  V30 2084 H 191.277 -3.8732 -4.10662 0
M  V30 2085 N 190.675 0.682077 -1.42076 0
M  V30 2086 C 191.922 1.44215 -1.42156 0
M  V30 2087 C 192.25 1.94468 -0.0354186 0
M  V30 2088 O 191.505 1.70816 0.955002 0
M  V30 2089 C 191.804 2.66036 -2.38662 0
M  V30 2090 C 191.47 2.34366 -3.85206 0
M  V30 2091 C 190.132 2.25439 -4.25124 0
M  V30 2092 C 192.484 2.08513 -4.77673 0
M  V30 2093 C 189.812 1.88775 -5.55501 0
M  V30 2094 C 192.164 1.73354 -6.08384 0
M  V30 2095 C 190.828 1.62933 -6.47309 0
M  V30 2096 H 190.098 0.527718 -0.520187 0
M  V30 2097 H 192.745 0.778387 -1.74967 0
M  V30 2098 H 191.05 3.3741 -1.99152 0
M  V30 2099 H 192.747 3.24205 -2.35991 0
M  V30 2100 H 189.337 2.42213 -3.53597 0
M  V30 2101 H 193.521 2.14346 -4.47626 0
M  V30 2102 H 188.777 1.7927 -5.84527 0
M  V30 2103 H 192.951 1.52373 -6.79526 0
M  V30 2104 H 190.578 1.34292 -7.48244 0
M  V30 2105 N 192.153 1.28127 0.917671 0
M  V30 2106 C 193.569 1.05749 1.19538 0
M  V30 2107 C 193.769 -0.202633 2.00479 0
M  V30 2108 O 192.825 -0.905382 2.3571 0
M  V30 2109 C 194.138 2.30273 1.93378 0
M  V30 2110 C 195.686 2.35412 2.06277 0
M  V30 2111 C 196.161 3.59692 2.83524 0
M  V30 2112 N 197.652 3.60309 2.91087 0
M  V30 2113 C 198.387 4.53147 3.51348 0
M  V30 2114 N 197.883 5.563 4.12919 0
M  V30 2115 N 199.676 4.40751 3.48849 0
M  V30 2116 H 191.827 2.09024 0.377184 0
M  V30 2117 H 194.09 0.919798 0.22951 0
M  V30 2118 H 193.796 3.22055 1.41328 0
M  V30 2119 H 193.67 2.36378 2.93947 0
M  V30 2120 H 196.057 1.4413 2.57508 0
M  V30 2121 H 196.138 2.33304 1.04895 0
M  V30 2122 H 195.782 4.51316 2.32973 0
M  V30 2123 H 195.712 3.59054 3.85211 0
M  V30 2124 H 198.203 2.85714 2.47338 0
M  V30 2125 H 198.516 6.2329 4.56869 0
M  V30 2126 H 196.861 5.60131 4.11435 0
M  V30 2127 H 200.052 3.59367 2.99955 0
M  V30 2128 H 200.225 5.13291 3.9552 0
M  V30 2129 N 193.631 -1.12557 1.10312 0
M  V30 2130 C 195.047 -1.36036 0.834649 0
M  V30 2131 C 195.247 -1.93946 -0.546539 0
M  V30 2132 O 194.303 -2.16484 -1.29966 0
M  V30 2133 C 195.616 -2.30312 1.9333 0
M  V30 2134 C 197.164 -2.43906 1.9616 0
M  V30 2135 C 197.639 -3.41496 3.05195 0
M  V30 2136 N 199.13 -3.49053 3.04494 0
M  V30 2137 C 199.865 -4.24471 3.85502 0
M  V30 2138 N 199.361 -5.02966 4.76442 0
M  V30 2139 N 201.154 -4.19864 3.73725 0
M  V30 2140 H 193.305 -0.733246 1.99342 0
M  V30 2141 H 195.568 -0.385234 0.866198 0
M  V30 2142 H 195.274 -1.94933 2.92735 0
M  V30 2143 H 195.148 -3.30421 1.81939 0
M  V30 2144 H 197.535 -2.78567 0.973886 0
M  V30 2145 H 197.616 -1.4369 2.11629 0
M  V30 2146 H 197.26 -3.07565 4.04186 0
M  V30 2147 H 197.19 -4.41539 2.86968 0
M  V30 2148 H 199.681 -2.93053 2.38596 0
M  V30 2149 H 199.994 -5.57846 5.34815 0
M  V30 2150 H 198.339 -5.02167 4.80472 0
M  V30 2151 H 201.53 -3.57623 3.02032 0
M  V30 2152 H 201.703 -4.78386 4.37093 0
M  V30 2153 N 195.109 -0.891671 -1.2995 0
M  V30 2154 C 196.072 -0.36828 -2.26222 0
M  V30 2155 C 197.072 0.493014 -1.53056 0
M  V30 2156 O 198.262 0.299213 -1.71611 0
M  V30 2157 C 195.394 0.47442 -3.37583 0
M  V30 2158 H 196.587 -1.21844 -2.74033 0
M  V30 2159 H 194.14 -0.669107 -1.41254 0
M  V30 2160 H 194.875 1.34489 -2.95099 0
M  V30 2161 H 194.66 -0.142615 -3.91841 0
M  V30 2162 H 196.15 0.83218 -4.09224 0
M  V30 2163 N 196.587 1.43421 -0.653314 0
M  V30 2164 C 197.52 2.2803 0.0879804 0
M  V30 2165 C 198.498 1.39833 0.82979 0
M  V30 2166 O 199.682 1.69275 0.829341 0
M  V30 2167 C 196.809 3.19247 1.13132 0
M  V30 2168 C 195.855 4.23704 0.487546 0
M  V30 2169 S 196.688 5.30377 -0.738961 0
M  V30 2170 C 197.844 6.25162 0.30384 0
M  V30 2171 H 198.077 2.90554 -0.629739 0
M  V30 2172 H 195.61 1.47934 -0.442156 0
M  V30 2173 H 197.568 3.72346 1.72827 0
M  V30 2174 H 196.229 2.55901 1.82136 0
M  V30 2175 H 195.422 4.87631 1.27407 0
M  V30 2176 H 195.024 3.73983 -0.0352915 0
M  V30 2177 H 197.316 6.67321 1.17 0
M  V30 2178 H 198.259 7.07463 -0.300402 0
M  V30 2179 H 198.667 5.60864 0.63969 0
M  V30 2180 N 198.065 0.39524 1.52563 0
M  V30 2181 C 199.012 -0.437036 2.26624 0
M  V30 2182 C 199.982 -1.05281 1.28472 0
M  V30 2183 O 201.167 -1.07971 1.57311 0
M  V30 2184 C 198.307 -1.55524 3.08069 0
M  V30 2185 C 197.42 -0.961745 4.21158 0
M  V30 2186 C 196.555 -2.05149 4.89987 0
M  V30 2187 C 195.594 -1.4342 5.95061 0
M  V30 2188 N 194.731 -2.46351 6.57462 0
M  V30 2189 H 199.571 0.200976 2.97322 0
M  V30 2190 H 197.108 0.110944 1.46681 0
M  V30 2191 H 199.066 -2.21437 3.53584 0
M  V30 2192 H 197.696 -2.16348 2.3957 0
M  V30 2193 H 196.748 -0.192048 3.79915 0
M  V30 2194 H 198.06 -0.470701 4.96574 0
M  V30 2195 H 197.214 -2.78819 5.38837 0
M  V30 2196 H 195.953 -2.57615 4.14109 0
M  V30 2197 H 194.958 -0.682774 5.45544 0
M  V30 2198 H 196.183 -0.917416 6.72875 0
M  V30 2199 H 194.129 -2.97975 5.8442 0
M  V30 2200 H 194.046 -2.02019 7.28508 0
M  V30 2201 H 195.314 -3.19633 7.10954 0
M  V30 2202 N 199.544 -1.57102 0.125237 0
M  V30 2203 C 200.96 -1.57915 -0.231322 0
M  V30 2204 C 201.16 -1.13833 -1.66266 0
M  V30 2205 O 200.216 -0.828581 -2.38518 0
M  V30 2206 C 201.529 -3.00699 0.00766489 0
M  V30 2207 C 203.077 -3.12947 -0.0577483 0
M  V30 2208 C 203.552 -4.57742 0.153626 0
M  V30 2209 N 205.043 -4.63092 0.0998073 0
M  V30 2210 C 205.778 -5.72905 0.238174 0
M  V30 2211 N 205.274 -6.91445 0.433057 0
M  V30 2212 N 207.067 -5.6182 0.177308 0
M  V30 2213 H 199.218 -1.84055 1.06007 0
M  V30 2214 H 201.481 -0.850905 0.417929 0
M  V30 2215 H 201.187 -3.3726 0.997431 0
M  V30 2216 H 201.061 -3.70236 -0.721452 0
M  V30 2217 H 203.448 -2.7624 -1.03804 0
M  V30 2218 H 203.529 -2.4594 0.70335 0
M  V30 2219 H 203.173 -4.95149 1.13092 0
M  V30 2220 H 203.103 -5.22848 -0.627534 0
M  V30 2221 H 205.594 -3.77871 -0.047051 0
M  V30 2222 H 205.907 -7.70985 0.529332 0
M  V30 2223 H 204.252 -6.93415 0.469109 0
M  V30 2224 H 207.443 -4.68093 0.0259748 0
M  V30 2225 H 207.616 -6.47357 0.288582 0
M  V30 2226 N 201.022 0.148545 -1.56898 0
M  V30 2227 C 201.985 1.16736 -1.97244 0
M  V30 2228 C 202.985 1.35947 -0.858777 0
M  V30 2229 O 204.175 1.32966 -1.12542 0
M  V30 2230 C 201.307 2.52798 -2.28705 0
M  V30 2231 H 202.5 0.821279 -2.88435 0
M  V30 2232 H 200.053 0.391831 -1.51309 0
M  V30 2233 H 200.788 2.92381 -1.403 0
M  V30 2234 H 200.573 2.40216 -3.09901 0
M  V30 2235 H 202.063 3.26179 -2.60762 0
M  V30 2236 N 202.5 1.5196 0.417844 0
M  V30 2237 C 203.746 1.65836 1.16732 0
M  V30 2238 C 204.079 0.382881 1.90388 0
M  V30 2239 O 203.354 -0.618368 1.84408 0
M  V30 2240 C 203.637 2.87466 2.16876 0
M  V30 2241 C 203.49 4.25041 1.47174 0
M  V30 2242 C 204.809 3.04613 3.17646 0
M  V30 2243 H 201.928 0.603515 0.423011 0
M  V30 2244 H 204.57 1.84494 0.454105 0
M  V30 2245 H 202.72 2.71689 2.777 0
M  V30 2246 H 204.392 4.52527 0.895376 0
M  V30 2247 H 202.635 4.26843 0.773806 0
M  V30 2248 H 203.306 5.06176 2.20204 0
M  V30 2249 H 205.782 3.1923 2.66892 0
M  V30 2250 H 204.658 3.91247 3.8499 0
M  V30 2251 H 204.919 2.17541 3.84874 0
M  V30 2252 N 203.978 -0.674533 1.42435 0
M  V30 2253 C 204.91 -1.80005 1.41883 0
M  V30 2254 C 205.923 -1.59667 0.31787 0
M  V30 2255 O 207.112 -1.68781 0.580973 0
M  V30 2256 C 204.212 -3.17114 1.19549 0
M  V30 2257 C 203.385 -3.64299 2.42084 0
M  V30 2258 C 202.444 -4.80142 2.15291 0
M  V30 2259 O 201.47 -4.90673 2.88493 0
M  V30 2260 N 202.672 -5.68869 1.1562 0
M  V30 2261 H 205.437 -1.80964 2.38898 0
M  V30 2262 H 202.998 -0.857633 1.37318 0
M  V30 2263 H 204.99 -3.92267 0.995417 0
M  V30 2264 H 203.56 -3.11053 0.310569 0
M  V30 2265 H 202.78 -2.79822 2.77657 0
M  V30 2266 H 204.068 -3.92567 3.23679 0
M  V30 2267 H 203.466 -5.63012 0.550765 0
M  V30 2268 H 202.023 -6.43833 1.016 0
M  V30 2269 N 205.456 -1.28612 -0.910864 0
M  V30 2270 C 206.404 -1.1265 -2.03501 0
M  V30 2271 C 207.398 -0.0450054 -1.6934 0
M  V30 2272 O 208.604 -0.203988 -1.7884 0
M  V30 2273 H 204.979 -0.347639 -0.666822 0
M  V30 2274 H 206.95 -2.07849 -2.14106 0
M  V30 2275 C 205.699 -0.808143 -3.38178 0
M  V30 2276 H 205.022 -1.63231 -3.6496 0
M  V30 2277 H 206.462 -0.736426 -4.17556 0
M  V30 2278 C 204.921 0.488226 -3.33344 0
M  V30 2279 O 205.451 1.51766 -3.71927 0
M  V30 2280 N 203.657 0.490009 -2.86439 0
M  V30 2281 H 203.204 -0.348161 -2.55236 0
M  V30 2282 H 203.162 1.35741 -2.83587 0
M  V30 2283 N 206.934 1.1197 -1.10907 0
M  V30 2284 C 207.897 2.16031 -0.765707 0
M  V30 2285 C 208.897 1.59393 0.212235 0
M  V30 2286 O 210.087 1.74196 -0.0115441 0
M  V30 2287 C 207.219 3.40632 -0.135053 0
M  V30 2288 H 208.412 2.47919 -1.68748 0
M  V30 2289 H 205.965 1.27061 -0.910226 0
M  V30 2290 H 206.7 3.14348 0.797218 0
M  V30 2291 H 206.485 3.8302 -0.838937 0
M  V30 2292 H 207.975 4.17505 0.0892469 0
M  V30 2293 N 208.412 0.89855 1.29475 0
M  V30 2294 C 209.345 0.319981 2.25945 0
M  V30 2295 C 210.323 -0.567189 1.52387 0
M  V30 2296 O 211.507 -0.514254 1.8135 0
M  V30 2297 C 208.634 -0.544013 3.34303 0
M  V30 2298 C 207.68 0.275682 4.25608 0
M  V30 2299 S 208.513 1.67272 5.08704 0
M  V30 2300 C 209.669 0.815621 6.20563 0
M  V30 2301 H 209.902 1.13767 2.74671 0
M  V30 2302 H 207.435 0.69882 1.3768 0
M  V30 2303 H 209.393 -1.03673 3.97193 0
M  V30 2304 H 208.054 -1.33593 2.84274 0
M  V30 2305 H 207.247 -0.384263 5.02533 0
M  V30 2306 H 206.849 0.701496 3.67362 0
M  V30 2307 H 209.141 0.0385042 6.77489 0
M  V30 2308 H 210.084 1.55691 6.90772 0
M  V30 2309 H 210.492 0.370516 5.63283 0
M  V30 2310 N 209.89 -1.43072 0.660911 0
M  V30 2311 C 211.306 -1.56169 0.329173 0
M  V30 2312 C 211.506 -1.64317 -1.16629 0
M  V30 2313 O 210.562 -1.60245 -1.95135 0
M  V30 2314 C 211.875 -2.81873 1.04729 0
M  V30 2315 C 213.423 -2.95627 1.02828 0
M  V30 2316 C 213.898 -4.24174 1.72744 0
M  V30 2317 N 215.389 -4.31055 1.69545 0
M  V30 2318 C 216.124 -5.29304 2.20511 0
M  V30 2319 N 215.62 -6.33786 2.79799 0
M  V30 2320 N 217.413 -5.21008 2.10966 0
M  V30 2321 H 209.564 -1.36027 1.63127 0
M  V30 2322 H 211.827 -0.653823 0.686454 0
M  V30 2323 H 211.533 -2.81942 2.10242 0
M  V30 2324 H 211.407 -3.72338 0.603702 0
M  V30 2325 H 213.794 -2.95094 -0.0184742 0
M  V30 2326 H 213.875 -2.06431 1.51063 0
M  V30 2327 H 213.519 -4.25467 2.7738 0
M  V30 2328 H 213.449 -5.1228 1.2197 0
M  V30 2329 H 215.94 -3.56174 1.26288 0
M  V30 2330 H 216.253 -7.05086 3.16344 0
M  V30 2331 H 214.598 -6.34387 2.83863 0
M  V30 2332 H 217.789 -4.38301 1.64347 0
M  V30 2333 H 217.962 -5.97416 2.50993 0
M  V30 2334 N 211.368 -0.403325 -1.52352 0
M  V30 2335 C 212.298 0.416205 -2.29761 0
M  V30 2336 C 213.279 1.05123 -1.33728 0
M  V30 2337 O 214.464 1.06134 -1.62632 0
M  V30 2338 C 211.594 1.53624 -3.11475 0
M  V30 2339 C 210.548 1.02653 -4.15507 0
M  V30 2340 C 209.874 2.23971 -4.85532 0
M  V30 2341 C 211.174 0.08463 -5.22231 0
M  V30 2342 H 212.868 -0.229701 -2.98518 0
M  V30 2343 H 210.414 -0.111913 -1.43564 0
M  V30 2344 H 212.367 2.1165 -3.64393 0
M  V30 2345 H 211.091 2.20994 -2.40477 0
M  V30 2346 H 209.75 0.46871 -3.63591 0
M  V30 2347 H 209.398 2.89883 -4.11068 0
M  V30 2348 H 209.098 1.90521 -5.55856 0
M  V30 2349 H 210.622 2.82614 -5.41259 0
M  V30 2350 H 212.036 0.573509 -5.70424 0
M  V30 2351 H 210.433 -0.160783 -5.99885 0
M  V30 2352 H 211.503 -0.86237 -4.7717 0
M  V30 2353 N 212.846 1.57033 -0.133567 0
M  V30 2354 C 214.094 1.953 0.519848 0
M  V30 2355 C 214.415 1.01866 1.66278 0
M  V30 2356 O 213.685 0.0776513 1.95746 0
M  V30 2357 H 212.265 0.721091 0.195032 0
M  V30 2358 H 214.927 1.93809 -0.205921 0
M  V30 2359 H 214.023 2.98695 0.904854 0
M  V30 2360 N 214.325 -0.140222 1.56975 0
M  V30 2361 C 215.288 -1.15689 1.97861 0
M  V30 2362 C 216.288 -1.3549 0.865974 0
M  V30 2363 O 217.478 -1.32367 1.13246 0
M  V30 2364 C 214.61 -2.51582 2.30042 0
M  V30 2365 H 215.803 -0.805971 2.88867 0
M  V30 2366 H 213.356 -0.383801 1.51515 0
M  V30 2367 H 214.091 -2.91632 1.41849 0
M  V30 2368 H 213.876 -2.38569 3.11171 0
M  V30 2369 H 215.366 -3.24792 2.62488 0
M  V30 2370 N 215.803 -1.52179 -0.40978 0
M  V30 2371 C 216.75 -1.75475 -1.49924 0
M  V30 2372 C 217.72 -0.597175 -1.54994 0
M  V30 2373 O 218.905 -0.834655 -1.71575 0
M  V30 2374 C 216.045 -1.9107 -2.87378 0
M  V30 2375 C 215.158 -3.18717 -2.91622 0
M  V30 2376 C 214.293 -3.24747 -4.20372 0
M  V30 2377 C 213.332 -4.46598 -4.18588 0
M  V30 2378 N 212.469 -4.50025 -5.38908 0
M  V30 2379 H 217.309 -2.68458 -1.29361 0
M  V30 2380 H 214.846 -1.33024 -0.627934 0
M  V30 2381 H 216.804 -1.98096 -3.6717 0
M  V30 2382 H 215.434 -1.01469 -3.06437 0
M  V30 2383 H 214.486 -3.20866 -2.04326 0
M  V30 2384 H 215.798 -4.08544 -2.86169 0
M  V30 2385 H 214.952 -3.30841 -5.08556 0
M  V30 2386 H 213.691 -2.32857 -4.28519 0
M  V30 2387 H 212.696 -4.40652 -3.28794 0
M  V30 2388 H 213.921 -5.39783 -4.12081 0
M  V30 2389 H 211.867 -3.61017 -5.47725 0
M  V30 2390 H 211.784 -5.33697 -5.35447 0
M  V30 2391 H 213.052 -4.60347 -6.29048 0
M  V30 2392 N 217.281 0.66697 -1.42791 0
M  V30 2393 C 218.529 1.42417 -1.43394 0
M  V30 2394 C 218.85 1.94925 -0.0542373 0
M  V30 2395 O 218.12 1.73564 0.908415 0
M  V30 2396 H 216.7 0.528515 -0.527902 0
M  V30 2397 H 219.362 0.787562 -1.78279 0
M  V30 2398 H 218.458 2.27333 -2.13837 0
M  V30 2399 N 218.759 1.29093 0.90403 0
M  V30 2400 C 220.008 1.16187 1.64874 0
M  V30 2401 C 220.321 -0.286742 1.93487 0
M  V30 2402 O 221.527 -0.537062 2.66135 0
M  V30 2403 C 219.983 2.03177 2.97064 0
M  V30 2404 C 219.591 3.52836 2.76062 0
M  V30 2405 C 221.335 1.98984 3.74974 0
M  V30 2406 C 219.242 4.31945 4.03952 0
M  V30 2407 H 218.172 0.431246 0.618501 0
M  V30 2408 H 220.823 1.53699 1.00243 0
M  V30 2409 H 219.205 1.5853 3.62883 0
M  V30 2410 H 220.379 4.05507 2.18863 0
M  V30 2411 H 218.694 3.58656 2.11553 0
M  V30 2412 H 221.291 2.55351 4.69787 0
M  V30 2413 H 221.634 0.968815 4.0487 0
M  V30 2414 H 222.167 2.41652 3.15989 0
M  V30 2415 H 218.906 5.34667 3.79225 0
M  V30 2416 H 218.426 3.84045 4.60727 0
M  V30 2417 H 220.105 4.42379 4.72133 0
M  V30 2418 N 220.237 -1.11381 1.11499 0
M  V30 2419 C 221.184 -2.17439 0.773887 0
M  V30 2420 C 222.154 -1.64132 -0.254899 0
M  V30 2421 O 223.339 -1.90345 -0.13168 0
M  V30 2422 C 220.479 -3.44373 0.223917 0
M  V30 2423 C 219.592 -4.1168 1.30934 0
M  V30 2424 C 218.727 -5.263 0.71984 0
M  V30 2425 C 217.766 -5.85493 1.78507 0
M  V30 2426 N 216.903 -6.91507 1.21502 0
M  V30 2427 H 221.743 -2.45962 1.68246 0
M  V30 2428 H 219.28 -1.20744 0.840191 0
M  V30 2429 H 221.238 -4.17047 -0.112921 0
M  V30 2430 H 219.868 -3.16232 -0.647851 0
M  V30 2431 H 218.92 -3.37073 1.76312 0
M  V30 2432 H 220.232 -4.51729 2.11524 0
M  V30 2433 H 219.386 -6.05785 0.333094 0
M  V30 2434 H 218.125 -4.87559 -0.117377 0
M  V30 2435 H 217.13 -5.04686 2.18111 0
M  V30 2436 H 218.355 -6.26301 2.62533 0
M  V30 2437 H 216.301 -6.54783 0.399455 0
M  V30 2438 H 216.218 -7.30214 1.95763 0
M  V30 2439 H 217.486 -7.74795 0.855181 0
M  V30 2440 N 221.715 -0.905404 -1.28997 0
M  V30 2441 C 222.961 -0.535039 -1.95615 0
M  V30 2442 C 223.294 0.917404 -1.71165 0
M  V30 2443 O 222.569 1.65123 -1.02785 0
M  V30 2444 C 222.852 -0.834918 -3.50287 0
M  V30 2445 C 222.705 -2.33948 -3.84172 0
M  V30 2446 C 224.024 -0.325318 -4.38896 0
M  V30 2447 H 221.143 -0.195861 -0.710498 0
M  V30 2448 H 223.785 -1.13313 -1.52513 0
M  V30 2449 H 221.935 -0.325904 -3.87131 0
M  V30 2450 H 223.607 -2.91847 -3.57243 0
M  V30 2451 H 221.85 -2.79789 -3.31513 0
M  V30 2452 H 222.521 -2.49987 -4.92149 0
M  V30 2453 H 224.997 -0.761256 -4.09077 0
M  V30 2454 H 223.873 -0.564295 -5.45992 0
M  V30 2455 H 224.134 0.774144 -4.35269 0
M  V30 2456 N 223.193 1.4272 -0.668489 0
M  V30 2457 C 224.103 2.34596 0.0139753 0
M  V30 2458 C 225.119 1.5474 0.795703 0
M  V30 2459 O 226.295 1.87334 0.739466 0
M  V30 2460 C 223.36 3.33202 0.957982 0
M  V30 2461 C 222.421 4.28957 0.17149 0
M  V30 2462 C 221.654 5.22853 1.07053 0
M  V30 2463 O 221.877 5.21531 2.31001 0
M  V30 2464 O 220.811 5.9952 0.534727 0
M  V30 2465 H 224.637 2.9448 -0.742661 0
M  V30 2466 H 222.222 1.43117 -0.428705 0
M  V30 2467 H 224.104 3.93796 1.50008 0
M  V30 2468 H 222.779 2.758 1.69458 0
M  V30 2469 H 221.686 3.71796 -0.414558 0
M  V30 2470 H 223.019 4.89383 -0.52586 0
M  V30 2471 N 224.671 0.411399 1.52136 0
M  V30 2472 C 225.917 -0.163888 2.02137 0
M  V30 2473 C 226.25 -1.44597 1.29636 0
M  V30 2474 O 225.525 -1.90272 0.403353 0
M  V30 2475 C 225.808 -0.40927 3.57767 0
M  V30 2476 C 225.661 0.889643 4.40914 0
M  V30 2477 C 226.98 -1.19042 4.23694 0
M  V30 2478 H 224.099 -0.0580896 0.734707 0
M  V30 2479 H 226.741 0.54531 1.82007 0
M  V30 2480 H 224.891 -1.0134 3.7505 0
M  V30 2481 H 226.563 1.52575 4.35337 0
M  V30 2482 H 224.806 1.50011 4.07037 0
M  V30 2483 H 225.477 0.672314 5.4789 0
M  V30 2484 H 227.953 -0.678942 4.10524 0
M  V30 2485 H 226.829 -1.33086 5.32522 0
M  V30 2486 H 227.09 -2.21166 3.82803 0
M  V30 2487 N 226.149 -1.5696 0.141893 0
M  V30 2488 C 227.374 -2.00754 -0.520838 0
M  V30 2489 C 227.799 -1.0213 -1.57959 0
M  V30 2490 O 227.157 0.00371324 -1.813 0
M  V30 2491 C 227.205 -3.43318 -1.10294 0
M  V30 2492 O 226.309 -3.47679 -2.21795 0
M  V30 2493 H 225.65 -0.651564 -0.127908 0
M  V30 2494 H 228.18 -2.03221 0.23712 0
M  V30 2495 H 228.19 -3.82012 -1.43287 0
M  V30 2496 H 226.865 -4.14608 -0.327574 0
M  V30 2497 H 225.442 -3.20824 -1.9007 0
M  V30 2498 N 227.627 0.131896 -1.57047 0
M  V30 2499 C 228.875 0.840269 -1.83804 0
M  V30 2500 C 229.196 1.81017 -0.72512 0
M  V30 2501 O 228.466 1.94272 0.251995 0
M  V30 2502 H 227.046 0.313294 -0.678127 0
M  V30 2503 H 229.708 0.122294 -1.94516 0
M  V30 2504 H 228.804 1.39335 -2.79271 0
M  V30 2505 N 229.106 1.52395 0.401703 0
M  V30 2506 C 230.522 1.41363 0.740864 0
M  V30 2507 C 230.722 0.523982 1.94568 0
M  V30 2508 O 229.778 -0.00741204 2.52499 0
M  V30 2509 C 231.091 2.84011 0.987847 0
M  V30 2510 C 232.639 2.93404 1.09011 0
M  V30 2511 C 233.114 4.37036 1.3698 0
M  V30 2512 N 234.605 4.40304 1.43829 0
M  V30 2513 C 235.34 5.48508 1.67112 0
M  V30 2514 N 234.836 6.66819 1.87949 0
M  V30 2515 N 236.629 5.36034 1.69187 0
M  V30 2516 H 228.78 2.08765 -0.391262 0
M  V30 2517 H 231.043 0.941265 -0.112798 0
M  V30 2518 H 230.749 3.51265 0.174835 0
M  V30 2519 H 230.623 3.25502 1.906 0
M  V30 2520 H 233.01 2.26325 1.8937 0
M  V30 2521 H 233.091 2.55359 0.15015 0
M  V30 2522 H 232.735 5.04676 0.571353 0
M  V30 2523 H 232.665 4.72623 2.3224 0
M  V30 2524 H 235.156 3.55024 1.29486 0
M  V30 2525 H 235.469 7.45063 2.05185 0
M  V30 2526 H 233.814 6.6987 1.85199 0
M  V30 2527 H 237.005 4.42579 1.52451 0
M  V30 2528 H 237.178 6.20434 1.86993 0
M  V30 2529 N 230.584 -0.659388 1.43143 0
M  V30 2530 C 231.514 -1.78422 1.50625 0
M  V30 2531 C 232.495 -1.66216 0.361443 0
M  V30 2532 O 233.68 -1.85404 0.577834 0
M  V30 2533 C 230.81 -3.16815 1.42287 0
M  V30 2534 C 229.764 -3.43777 2.54954 0
M  V30 2535 C 229.09 -4.81905 2.31671 0
M  V30 2536 C 230.39 -3.39134 3.97222 0
M  V30 2537 H 232.084 -1.72417 2.44771 0
M  V30 2538 H 229.63 -0.828084 1.17808 0
M  V30 2539 H 231.583 -3.95253 1.46127 0
M  V30 2540 H 230.307 -3.23534 0.446435 0
M  V30 2541 H 228.966 -2.67707 2.50457 0
M  V30 2542 H 228.614 -4.85294 1.32284 0
M  V30 2543 H 228.314 -5.00906 3.07192 0
M  V30 2544 H 229.838 -5.62609 2.37284 0
M  V30 2545 H 231.252 -4.07518 4.03239 0
M  V30 2546 H 229.649 -3.69671 4.72719 0
M  V30 2547 H 230.719 -2.37426 4.22797 0
M  V30 2548 N 232.062 -1.29571 -0.897171 0
M  V30 2549 C 233.31 -1.17456 -1.64464 0
M  V30 2550 C 233.631 0.273698 -1.9307 0
M  V30 2551 O 232.901 1.18684 -1.55855 0
M  V30 2552 H 231.481 -0.431706 -0.609622 0
M  V30 2553 H 234.143 -1.62531 -1.07562 0
M  V30 2554 H 233.239 -1.72648 -2.59998 0
M  V30 2555 N 233.54 1.10788 -1.12088 0
M  V30 2556 C 234.788 1.8231 -0.872205 0
M  V30 2557 C 235.109 1.85419 0.603709 0
M  V30 2558 O 234.379 1.32963 1.43867 0
M  V30 2559 H 232.959 0.675137 -0.319686 0
M  V30 2560 H 235.621 1.34068 -1.41463 0
M  V30 2561 H 234.717 2.85955 -1.25045 0
M  V30 2562 N 235.018 0.912232 1.28515 0
M  V30 2563 C 235.981 0.404223 2.25607 0
M  V30 2564 C 236.981 -0.468602 1.53821 0
M  V30 2565 O 238.171 -0.271873 1.72065 0
M  V30 2566 C 235.303 -0.420653 3.38295 0
M  V30 2567 H 236.496 1.26188 2.7206 0
M  V30 2568 H 234.049 0.691495 1.40171 0
M  V30 2569 H 234.784 -1.29777 2.97201 0
M  V30 2570 H 234.569 0.204935 3.91564 0
M  V30 2571 H 236.059 -0.766971 4.10496 0
M  V30 2572 N 236.496 -1.42363 0.676048 0
M  V30 2573 C 237.406 -2.346 -0.00153389 0
M  V30 2574 C 238.422 -1.5516 -0.787485 0
M  V30 2575 O 239.598 -1.87723 -0.729521 0
M  V30 2576 C 236.663 -3.33705 -0.940298 0
M  V30 2577 C 235.724 -4.29042 -0.148739 0
M  V30 2578 C 234.957 -5.23413 -1.04279 0
M  V30 2579 O 235.18 -5.22749 -2.28232 0
M  V30 2580 O 234.114 -5.99795 -0.502925 0
M  V30 2581 H 237.94 -2.94082 0.758268 0
M  V30 2582 H 235.525 -1.42888 0.436289 0
M  V30 2583 H 237.407 -3.94586 -1.47917 0
M  V30 2584 H 236.082 -2.76695 -1.67993 0
M  V30 2585 H 234.989 -3.71571 0.43427 0
M  V30 2586 H 236.322 -4.89097 0.551805 0
M  V30 2587 N 237.974 -0.419461 -1.51915 0
M  V30 2588 C 239.223 0.154346 -2.01109 0
M  V30 2589 C 239.536 1.45338 -1.30905 0
M  V30 2590 O 240.742 2.10906 -1.7097 0
M  V30 2591 C 239.198 0.325615 -3.58424 0
M  V30 2592 C 238.806 -0.961934 -4.37551 0
M  V30 2593 C 240.55 0.854155 -4.15818 0
M  V30 2594 C 238.457 -0.757287 -5.86531 0
M  V30 2595 H 237.387 0.0614563 -0.751491 0
M  V30 2596 H 240.038 -0.54649 -1.75173 0
M  V30 2597 H 238.42 1.08903 -3.80731 0
M  V30 2598 H 239.594 -1.7323 -4.26999 0
M  V30 2599 H 237.909 -1.41766 -3.91524 0
M  V30 2600 H 240.506 1.02346 -5.24814 0
M  V30 2601 H 240.849 1.83172 -3.73837 0
M  V30 2602 H 241.382 0.149528 -3.97519 0
M  V30 2603 H 238.121 -1.70671 -6.32892 0
M  V30 2604 H 237.641 -0.0264061 -5.99794 0
M  V30 2605 H 239.32 -0.403482 -6.45741 0
M  V30 2606 N 239.452 1.56882 -0.150215 0
M  V30 2607 C 240.415 2.1573 0.774157 0
M  V30 2608 C 241.415 1.0999 1.17298 0
M  V30 2609 O 242.605 1.35613 1.09338 0
M  V30 2610 C 239.737 2.72302 2.05096 0
M  V30 2611 H 240.93 2.98752 0.262201 0
M  V30 2612 H 238.483 1.55985 0.099248 0
M  V30 2613 H 239.218 1.92956 2.6065 0
M  V30 2614 H 239.003 3.49665 1.77416 0
M  V30 2615 H 240.493 3.17632 2.71109 0
M  V30 2616 N 240.93 -0.123565 1.57115 0
M  V30 2617 C 242.346 -0.476961 1.52306 0
M  V30 2618 C 242.546 -1.82109 0.86248 0
M  V30 2619 O 241.602 -2.48586 0.442884 0
M  V30 2620 C 242.915 -0.465661 2.97073 0
M  V30 2621 C 244.463 -0.549534 3.08138 0
M  V30 2622 C 244.938 -0.568669 4.54456 0
M  V30 2623 N 246.429 -0.630237 4.58892 0
M  V30 2624 C 247.164 -0.666415 5.69514 0
M  V30 2625 N 246.66 -0.660514 6.89644 0
M  V30 2626 N 248.453 -0.709077 5.5761 0
M  V30 2627 H 240.604 0.757198 1.98445 0
M  V30 2628 H 242.867 0.278808 0.906074 0
M  V30 2629 H 242.573 0.454232 3.48754 0
M  V30 2630 H 242.447 -1.29513 3.54269 0
M  V30 2631 H 244.834 -1.45985 2.56461 0
M  V30 2632 H 244.915 0.307532 2.53945 0
M  V30 2633 H 244.559 0.337581 5.06777 0
M  V30 2634 H 244.489 -1.44256 5.06456 0
M  V30 2635 H 246.98 -0.641146 3.72421 0
M  V30 2636 H 247.293 -0.690616 7.69708 0
M  V30 2637 H 245.638 -0.628012 6.92157 0
M  V30 2638 H 248.829 -0.711019 4.62668 0
M  V30 2639 H 249.002 -0.733804 6.43832 0
M  V30 2640 N 242.408 -1.52605 -0.393616 0
M  V30 2641 C 243.636 -1.71294 -1.16043 0
M  V30 2642 C 244.051 -0.429259 -1.83855 0
M  V30 2643 O 243.408 0.595921 -1.72496 0
M  V30 2644 C 243.459 -2.8593 -2.21193 0
M  V30 2645 O 243.18 -4.09329 -1.56146 0
M  V30 2646 C 244.681 -3.16259 -3.10636 0
M  V30 2647 H 241.901 -0.573641 -0.348104 0
M  V30 2648 H 244.445 -1.99234 -0.461092 0
M  V30 2649 H 242.6 -2.60465 -2.86769 0
M  V30 2650 H 243.014 -4.73323 -2.25978 0
M  V30 2651 H 244.488 -3.99946 -3.80456 0
M  V30 2652 H 244.965 -2.3045 -3.73884 0
M  V30 2653 H 245.571 -3.43547 -2.50711 0
M  V30 2654 N 243.887 0.651787 -1.4349 0
M  V30 2655 C 244.797 1.79368 -1.5121 0
M  V30 2656 C 245.813 1.69361 -0.399093 0
M  V30 2657 O 246.989 1.90505 -0.653431 0
M  V30 2658 C 244.054 3.15653 -1.43401 0
M  V30 2659 C 243.115 3.37446 -2.65384 0
M  V30 2660 C 242.348 4.67229 -2.57939 0
M  V30 2661 O 242.571 5.46676 -1.62792 0
M  V30 2662 O 241.505 4.90773 -3.48462 0
M  V30 2663 H 245.331 1.7581 -2.47638 0
M  V30 2664 H 242.916 0.810447 -1.25507 0
M  V30 2665 H 244.798 3.96935 -1.41494 0
M  V30 2666 H 243.473 3.19798 -0.501085 0
M  V30 2667 H 242.38 2.55923 -2.72863 0
M  V30 2668 H 243.713 3.38148 -3.57654 0
M  V30 2669 N 245.365 1.30045 0.890287 0
M  V30 2670 C 246.611 1.19747 1.64415 0
M  V30 2671 C 246.966 -0.246591 1.90813 0
M  V30 2672 O 246.259 -1.174 1.51419 0
M  V30 2673 C 246.453 1.95409 2.99249 0
M  V30 2674 C 246.282 3.47025 2.86013 0
M  V30 2675 C 245.052 4.1638 2.86279 0
M  V30 2676 C 247.25 4.42353 2.62351 0
M  V30 2677 N 245.232 5.54293 2.63879 0
M  V30 2678 C 246.603 5.67792 2.49022 0
M  V30 2679 C 248.658 4.32009 2.47533 0
M  V30 2680 C 247.361 6.8406 2.22383 0
M  V30 2681 C 249.387 5.48038 2.22279 0
M  V30 2682 C 248.749 6.72455 2.09722 0
M  V30 2683 H 244.848 0.493223 0.60684 0
M  V30 2684 H 247.432 1.6399 1.04954 0
M  V30 2685 H 245.603 1.53565 3.56752 0
M  V30 2686 H 247.335 1.77298 3.63796 0
M  V30 2687 H 244.09 3.68164 2.97913 0
M  V30 2688 H 244.514 6.26852 2.55706 0
M  V30 2689 H 249.156 3.36503 2.55979 0
M  V30 2690 H 246.874 7.79612 2.12675 0
M  V30 2691 H 250.46 5.41939 2.11643 0
M  V30 2692 H 249.34 7.60722 1.90453 0
M  V30 2693 N 246.843 -1.10192 1.12674 0
M  V30 2694 C 248.073 -1.85713 0.905213 0
M  V30 2695 C 248.481 -1.81056 -0.549108 0
M  V30 2696 O 247.824 -1.19927 -1.39151 0
M  V30 2697 C 247.886 -3.34972 1.30516 0
M  V30 2698 C 247.55 -3.63385 2.77129 0
M  V30 2699 C 248.547 -3.59772 3.75313 0
M  V30 2700 C 246.232 -3.91981 3.14096 0
M  V30 2701 C 248.226 -3.84354 5.08479 0
M  V30 2702 C 245.913 -4.16218 4.47443 0
M  V30 2703 C 246.911 -4.12395 5.44444 0
M  V30 2704 O 246.599 -4.36014 6.75387 0
M  V30 2705 H 246.331 -0.593719 0.323223 0
M  V30 2706 H 248.885 -1.40198 1.50112 0
M  V30 2707 H 247.115 -3.81156 0.652463 0
M  V30 2708 H 248.804 -3.91886 1.05736 0
M  V30 2709 H 249.57 -3.37716 3.48099 0
M  V30 2710 H 245.449 -3.94085 2.39202 0
M  V30 2711 H 248.993 -3.81285 5.84181 0
M  V30 2712 H 244.89 -4.37754 4.74386 0
M  V30 2713 H 245.658 -4.53516 6.8137 0
M  V30 2714 N 248.321 -0.919034 -1.28029 0
M  V30 2715 C 249.737 -0.617972 -1.4715 0
M  V30 2716 C 249.937 0.835242 -1.83374 0
M  V30 2717 O 248.993 1.61388 -1.94191 0
M  V30 2718 C 250.306 -1.56041 -2.57044 0
M  V30 2719 C 251.854 -1.56769 -2.7091 0
M  V30 2720 C 252.329 -2.49688 -3.83953 0
M  V30 2721 N 253.82 -2.47845 -3.91314 0
M  V30 2722 C 254.555 -3.16437 -4.78179 0
M  V30 2723 N 254.051 -3.94376 -5.69596 0
M  V30 2724 N 255.844 -3.05498 -4.71834 0
M  V30 2725 H 247.995 -1.85866 -1.02798 0
M  V30 2726 H 250.258 -0.797506 -0.512531 0
M  V30 2727 H 249.964 -2.59671 -2.372 0
M  V30 2728 H 249.838 -1.29551 -3.54255 0
M  V30 2729 H 252.225 -0.538745 -2.90141 0
M  V30 2730 H 252.306 -1.87305 -1.74214 0
M  V30 2731 H 251.95 -3.52688 -3.65477 0
M  V30 2732 H 251.88 -2.16453 -4.80058 0
M  V30 2733 H 254.371 -1.91234 -3.25941 0
M  V30 2734 H 254.684 -4.43721 -6.32718 0
M  V30 2735 H 253.029 -3.98481 -5.69419 0
M  V30 2736 H 256.22 -2.44108 -3.99411 0
M  V30 2737 H 256.393 -3.59225 -5.39316 0
M  V30 2738 N 249.799 1.42003 -0.683588 0
M  V30 2739 C 250.709 2.34597 -0.0109075 0
M  V30 2740 C 251.725 1.55576 0.779245 0
M  V30 2741 O 252.901 1.88107 0.719555 0
M  V30 2742 C 249.966 3.34199 0.922588 0
M  V30 2743 C 249.027 4.29115 0.125984 0
M  V30 2744 C 248.26 5.23959 1.01502 0
M  V30 2745 O 248.483 5.23952 2.25456 0
M  V30 2746 O 247.417 6.00053 0.47111 0
M  V30 2747 H 251.243 2.93675 -0.773853 0
M  V30 2748 H 248.828 1.42654 -0.443861 0
M  V30 2749 H 250.71 3.95365 1.45823 0
M  V30 2750 H 249.385 2.77582 1.66523 0
M  V30 2751 H 248.292 3.71335 -0.453969 0
M  V30 2752 H 249.625 4.88798 -0.577736 0
M  V30 2753 N 251.277 0.427512 1.51691 0
M  V30 2754 C 252.525 -0.141948 2.01601 0
M  V30 2755 C 252.846 -1.44067 1.31414 0
M  V30 2756 O 252.116 -1.90763 0.445658 0
M  V30 2757 H 250.696 -0.0554468 0.744939 0
M  V30 2758 H 253.358 0.567968 1.86441 0
M  V30 2759 H 252.454 -0.324913 3.10404 0
M  V30 2760 N 252.755 -1.56801 0.158532 0
M  V30 2761 C 254.171 -1.5837 -0.197774 0
M  V30 2762 C 254.371 -1.17334 -1.63814 0
M  V30 2763 O 253.427 -0.878988 -2.36707 0
M  V30 2764 C 254.74 -3.00615 0.0714459 0
M  V30 2765 C 256.288 -3.12999 0.00864533 0
M  V30 2766 C 256.763 -4.57313 0.250685 0
M  V30 2767 N 258.254 -4.62777 0.198014 0
M  V30 2768 C 258.989 -5.72271 0.359642 0
M  V30 2769 N 258.485 -6.90371 0.579625 0
M  V30 2770 N 260.278 -5.61318 0.296438 0
M  V30 2771 H 252.429 -1.81765 1.09887 0
M  V30 2772 H 254.692 -0.841849 0.435884 0
M  V30 2773 H 254.398 -3.35068 1.06874 0
M  V30 2774 H 254.272 -3.71683 -0.642757 0
M  V30 2775 H 256.659 -2.7838 -0.979217 0
M  V30 2776 H 256.74 -2.44393 0.755359 0
M  V30 2777 H 256.384 -4.92639 1.2357 0
M  V30 2778 H 256.314 -5.24061 -0.516489 0
M  V30 2779 H 258.805 -3.77885 0.0331115 0
M  V30 2780 H 259.118 -7.69689 0.69275 0
M  V30 2781 H 257.463 -6.92264 0.616087 0
M  V30 2782 H 260.654 -4.67932 0.125258 0
M  V30 2783 H 260.827 -6.46599 0.425831 0
M  V30 2784 N 254.233 0.115231 -1.57178 0
M  V30 2785 C 255.479 0.82357 -1.85325 0
M  V30 2786 C 255.812 1.79349 -0.744814 0
M  V30 2787 O 255.087 1.92899 0.249024 0
M  V30 2788 C 255.37 1.57014 -3.24066 0
M  V30 2789 C 255.223 0.619565 -4.45513 0
M  V30 2790 C 256.542 2.52545 -3.60429 0
M  V30 2791 H 253.661 0.297948 -0.674089 0
M  V30 2792 H 256.303 0.0877138 -1.89797 0
M  V30 2793 H 254.453 2.19742 -3.20383 0
M  V30 2794 H 256.125 0.000837639 -4.613 0
M  V30 2795 H 254.368 -0.0686174 -4.33746 0
M  V30 2796 H 255.039 1.17866 -5.3927 0
M  V30 2797 H 257.515 1.9992 -3.64926 0
M  V30 2798 H 256.391 3.01811 -4.58477 0
M  V30 2799 H 256.652 3.35383 -2.88047 0
M  V30 2800 N 255.711 1.52812 0.385517 0
M  V30 2801 C 257.122 1.5993 0.963293 0
M  V30 2802 C 257.473 0.454302 1.90868 0
M  V30 2803 O 256.598 -0.422132 2.12243 0
M  V30 2804 C 257.193 2.89871 1.75387 0
M  V30 2805 C 255.752 2.99389 2.28129 0
M  V30 2806 C 254.899 2.55071 1.08783 0
M  V30 2807 H 257.85 1.5784 0.164948 0
M  V30 2808 H 257.871 2.76553 2.61341 0
M  V30 2809 H 257.383 3.73186 1.06554 0
M  V30 2810 H 255.484 2.20619 3.00263 0
M  V30 2811 H 255.597 4.04096 2.57377 0
M  V30 2812 H 253.961 2.09473 1.4489 0
M  V30 2813 H 254.744 3.40785 0.414807 0
M  V30 2814 N 257.189 -0.644168 1.43834 0
M  V30 2815 C 258.119 -1.76814 1.52509 0
M  V30 2816 C 259.1 -1.65823 0.379052 0
M  V30 2817 O 260.285 -1.84781 0.597466 0
M  V30 2818 C 257.415 -3.15288 1.4564 0
M  V30 2819 C 256.369 -3.41053 2.58586 0
M  V30 2820 C 255.695 -4.79421 2.36769 0
M  V30 2821 C 256.995 -3.34902 4.00797 0
M  V30 2822 H 258.689 -1.69812 2.46586 0
M  V30 2823 H 256.235 -0.815542 1.1868 0
M  V30 2824 H 258.188 -3.93681 1.50311 0
M  V30 2825 H 256.912 -3.23043 0.480725 0
M  V30 2826 H 255.571 -2.65035 2.53282 0
M  V30 2827 H 255.219 -4.83863 1.37424 0
M  V30 2828 H 254.919 -4.9762 3.12487 0
M  V30 2829 H 256.443 -5.6006 2.43238 0
M  V30 2830 H 257.857 -4.03218 4.07539 0
M  V30 2831 H 256.254 -3.64637 4.76613 0
M  V30 2832 H 257.324 -2.32928 4.25291 0
M  V30 2833 N 258.668 -1.30515 -0.883378 0
M  V30 2834 C 259.618 -1.13641 -1.9766 0
M  V30 2835 C 260.602 -0.0511314 -1.60819 0
M  V30 2836 O 261.794 -0.274623 -1.74857 0
M  V30 2837 C 258.923 -0.831976 -3.33066 0
M  V30 2838 C 258.009 -1.95759 -3.76217 0
M  V30 2839 N 258.4 -3.20313 -3.9145 0
M  V30 2840 C 256.698 -1.85431 -4.05625 0
M  V30 2841 C 257.399 -3.93856 -4.2808 0
M  V30 2842 N 256.375 -3.21919 -4.38029 0
M  V30 2843 H 260.177 -2.08106 -2.07531 0
M  V30 2844 H 257.691 -1.21877 -1.0733 0
M  V30 2845 H 259.688 -0.692102 -4.11115 0
M  V30 2846 H 258.348 0.104588 -3.24532 0
M  V30 2847 H 259.359 -3.55583 -3.76538 0
M  V30 2848 H 256.036 -0.991531 -4.05555 0
M  V30 2849 H 257.426 -5.01125 -4.47575 0
M  V30 2850 N 260.146 1.09593 -1.13257 0
M  V30 2851 C 261.374 1.855 -0.916378 0
M  V30 2852 C 261.789 1.81069 0.534738 0
M  V30 2853 O 261.146 1.20562 1.37007 0
M  V30 2854 C 261.197 3.33546 -1.39388 0
M  V30 2855 O 260.918 3.37927 -2.78813 0
M  V30 2856 C 262.419 4.26299 -1.21588 0
M  V30 2857 H 259.639 0.585991 -0.326887 0
M  V30 2858 H 262.183 1.38488 -1.5047 0
M  V30 2859 H 260.338 3.77992 -0.848597 0
M  V30 2860 H 260.752 4.30254 -2.9997 0
M  V30 2861 H 262.226 5.28341 -1.59876 0
M  V30 2862 H 262.703 4.38918 -0.157376 0
M  V30 2863 H 263.309 3.87668 -1.7491 0
M  V30 2864 N 261.624 0.925811 1.2754 0
M  V30 2865 C 262.554 0.440748 2.29303 0
M  V30 2866 C 263.535 -0.497971 1.62648 0
M  V30 2867 O 264.72 -0.403126 1.8997 0
M  V30 2868 C 261.85 -0.309048 3.45922 0
M  V30 2869 C 260.804 0.54166 4.24559 0
M  V30 2870 C 260.13 -0.337191 5.33636 0
M  V30 2871 C 261.43 1.80516 4.90114 0
M  V30 2872 H 263.124 1.29121 2.70126 0
M  V30 2873 H 260.67 0.622323 1.29858 0
M  V30 2874 H 262.623 -0.659315 4.1621 0
M  V30 2875 H 261.347 -1.19352 3.04011 0
M  V30 2876 H 260.006 0.874609 3.56014 0
M  V30 2877 H 259.654 -1.22056 4.87966 0
M  V30 2878 H 259.354 0.228497 5.87156 0
M  V30 2879 H 260.878 -0.683072 6.06767 0
M  V30 2880 H 262.292 1.52307 5.52698 0
M  V30 2881 H 260.689 2.3142 5.53683 0
M  V30 2882 H 261.759 2.52581 4.13921 0
M  V30 2883 N 263.102 -1.41638 0.69111 0
M  V30 2884 C 264.518 -1.55435 0.362224 0
M  V30 2885 C 264.718 -1.66754 -1.13117 0
M  V30 2886 O 263.774 -1.64348 -1.91692 0
M  V30 2887 C 265.087 -2.79588 1.10684 0
M  V30 2888 C 266.635 -2.9338 1.09075 0
M  V30 2889 C 267.11 -4.20414 1.81703 0
M  V30 2890 N 268.601 -4.27362 1.7865 0
M  V30 2891 C 269.336 -5.24507 2.31689 0
M  V30 2892 N 268.832 -6.27708 2.93179 0
M  V30 2893 N 270.625 -5.16416 2.2197 0
M  V30 2894 H 262.776 -1.32536 1.65976 0
M  V30 2895 H 265.039 -0.639115 0.700168 0
M  V30 2896 H 264.745 -2.77419 2.16175 0
M  V30 2897 H 264.619 -3.70973 0.682545 0
M  V30 2898 H 267.006 -2.95067 0.0441238 0
M  V30 2899 H 267.087 -2.0318 1.55407 0
M  V30 2900 H 266.731 -4.19488 2.86343 0
M  V30 2901 H 266.661 -5.09578 1.32808 0
M  V30 2902 H 269.152 -3.53415 1.33815 0
M  V30 2903 H 269.465 -6.98217 3.31229 0
M  V30 2904 H 267.81 -6.28223 2.97255 0
M  V30 2905 H 271.001 -4.34716 1.73607 0
M  V30 2906 H 271.174 -5.91958 2.63609 0
M  V30 2907 N 264.58 -0.43555 -1.51462 0
M  V30 2908 C 265.543 0.365137 -2.26273 0
M  V30 2909 C 266.543 0.951227 -1.29647 0
M  V30 2910 O 267.733 0.825958 -1.53374 0
M  V30 2911 C 264.865 1.51645 -3.05314 0
M  V30 2912 H 266.058 -0.290474 -2.9849 0
M  V30 2913 H 263.611 -0.188676 -1.55157 0
M  V30 2914 H 264.346 2.20816 -2.3751 0
M  V30 2915 H 264.131 1.10238 -3.76284 0
M  V30 2916 H 265.621 2.08218 -3.61987 0
M  V30 2917 N 266.058 1.56714 -0.166846 0
M  V30 2918 C 267.335 1.88412 0.525373 0
M  V30 2919 C 267.715 1.07602 1.81618 0
M  V30 2920 O 267.063 0.168621 2.27877 0
M  V30 2921 C 267.273 3.40363 0.771613 0
M  V30 2922 C 268.621 4.10007 1.1036 0
M  V30 2923 O 269.645 3.45655 0.860304 0
M  V30 2924 O 268.504 5.2369 1.56239 0
M  V30 2925 H 265.598 0.781587 0.270278 0
M  V30 2926 H 268.144 1.68458 -0.204946 0
M  V30 2927 H 266.916 3.91046 -0.141093 0
M  V30 2928 H 266.539 3.65914 1.55541 0
M  V30 2929 N 267.536 -0.106894 1.57237 0
M  V30 2930 C 268.785 -0.811163 1.8467 0
M  V30 2931 C 269.098 -1.80469 0.754342 0
M  V30 2932 O 270.304 -2.55601 0.915439 0
M  V30 2933 C 268.76 -1.49337 3.27454 0
M  V30 2934 C 268.368 -0.540217 4.44731 0
M  V30 2935 C 270.112 -2.18206 3.64124 0
M  V30 2936 C 268.019 -1.22634 5.78545 0
M  V30 2937 H 266.949 -0.306679 0.688813 0
M  V30 2938 H 269.6 -0.0639887 1.83388 0
M  V30 2939 H 267.982 -2.2876 3.23241 0
M  V30 2940 H 269.156 0.221659 4.60267 0
M  V30 2941 H 267.471 0.042146 4.16379 0
M  V30 2942 H 270.068 -2.70253 4.61376 0
M  V30 2943 H 270.411 -2.96562 2.92158 0
M  V30 2944 H 270.944 -1.45658 3.70174 0
M  V30 2945 H 267.683 -0.483832 6.53712 0
M  V30 2946 H 267.203 -1.95993 5.66874 0
M  V30 2947 H 268.882 -1.75615 6.2271 0
M  V30 2948 N 269.014 -1.53014 -0.377408 0
M  V30 2949 C 270.291 -1.59215 -1.13622 0
M  V30 2950 C 270.671 -0.392407 -2.07421 0
M  V30 2951 O 270.019 0.618342 -2.19975 0
M  V30 2952 C 270.229 -2.93669 -1.88573 0
M  V30 2953 C 271.577 -3.47822 -2.43526 0
M  V30 2954 O 272.601 -2.9562 -1.98715 0
M  V30 2955 O 271.46 -4.39055 -3.25412 0
M  V30 2956 H 268.554 -0.642625 -0.52054 0
M  V30 2957 H 271.1 -1.65353 -0.381625 0
M  V30 2958 H 269.872 -3.7243 -1.20048 0
M  V30 2959 H 269.495 -2.90968 -2.70968 0
M  V30 2960 N 270.492 0.636531 -1.44174 0
M  V30 2961 C 271.722 1.42146 -1.49927 0
M  V30 2962 C 272.13 1.88812 -0.121063 0
M  V30 2963 O 271.473 1.61126 0.882267 0
M  V30 2964 C 271.535 2.67883 -2.39748 0
M  V30 2965 C 271.199 2.43048 -3.8701 0
M  V30 2966 C 272.196 2.05216 -4.77684 0
M  V30 2967 C 269.881 2.56856 -4.3166 0
M  V30 2968 C 271.875 1.81512 -6.11009 0
M  V30 2969 C 269.562 2.32766 -5.65034 0
M  V30 2970 C 270.56 1.95152 -6.54526 0
M  V30 2971 O 270.248 1.71326 -7.85431 0
M  V30 2972 H 269.98 0.442567 -0.51099 0
M  V30 2973 H 272.534 0.786158 -1.8976 0
M  V30 2974 H 270.764 3.34032 -1.94832 0
M  V30 2975 H 272.453 3.29874 -2.36513 0
M  V30 2976 H 273.219 1.94111 -4.44462 0
M  V30 2977 H 269.098 2.85104 -3.62266 0
M  V30 2978 H 272.642 1.52077 -6.80822 0
M  V30 2979 H 268.539 2.43479 -5.97819 0
M  V30 2980 H 269.307 1.85616 -7.97176 0
M  V30 2981 N 271.97 1.30982 0.876444 0
M  V30 2982 C 272.918 1.18006 2.00443 0
M  V30 2983 C 273.912 0.0898871 1.69161 0
M  V30 2984 O 275.118 0.251333 1.78237 0
M  V30 2985 H 271.493 0.365196 0.65737 0
M  V30 2986 H 273.464 2.13453 2.0852 0
M  V30 2987 C 272.213 0.897521 3.35916 0
M  V30 2988 H 271.536 1.7285 3.60504 0
M  V30 2989 H 272.976 0.846874 4.15456 0
M  V30 2990 C 271.435 -0.399674 3.34521 0
M  V30 2991 O 271.965 -1.41852 3.7582 0
M  V30 2992 N 270.171 -0.413893 2.87637 0
M  V30 2993 H 269.718 0.41571 2.54224 0
M  V30 2994 H 269.676 -1.28175 2.87086 0
M  V30 2995 N 273.449 -1.08991 1.13837 0
M  V30 2996 C 274.677 -1.85011 0.926202 0
M  V30 2997 C 275.092 -1.8135 -0.525127 0
M  V30 2998 O 274.449 -1.21287 -1.36366 0
M  V30 2999 C 274.5 -3.32802 1.41155 0
M  V30 3000 O 274.221 -3.36444 2.80601 0
M  V30 3001 C 275.722 -4.25649 1.23847 0
M  V30 3002 H 272.942 -0.584249 0.32999 0
M  V30 3003 H 275.486 -1.37688 1.51202 0
M  V30 3004 H 273.641 -3.77536 0.868631 0
M  V30 3005 H 274.055 -4.28657 3.02248 0
M  V30 3006 H 275.529 -5.27485 1.62675 0
M  V30 3007 H 276.006 -4.38828 0.18065 0
M  V30 3008 H 276.612 -3.86735 1.76964 0
M  V30 3009 N 274.927 -0.932562 -1.27047 0
M  V30 3010 C 276.152 -0.591474 -1.98787 0
M  V30 3011 C 276.577 0.824601 -1.69062 0
M  V30 3012 O 275.935 1.5541 -0.933677 0
M  V30 3013 C 275.983 -0.829808 -3.50922 0
M  V30 3014 O 275.087 0.102266 -4.12273 0
M  V30 3015 H 274.428 -0.227185 -0.623926 0
M  V30 3016 H 276.958 -1.25314 -1.61733 0
M  V30 3017 H 276.968 -0.747292 -4.01098 0
M  V30 3018 H 275.643 -1.86201 -3.7189 0
M  V30 3019 H 274.22 -0.0305761 -3.72887 0
M  V30 3020 N 276.405 1.4127 -0.698611 0
M  V30 3021 C 277.315 2.34573 -0.0357891 0
M  V30 3022 C 278.331 1.56393 0.762701 0
M  V30 3023 O 279.507 1.8886 0.699564 0
M  V30 3024 C 276.572 3.35159 0.887089 0
M  V30 3025 C 275.633 4.29225 0.0804634 0
M  V30 3026 C 274.866 5.25006 0.959387 0
M  V30 3027 O 275.089 5.26314 2.19886 0
M  V30 3028 O 274.023 6.00519 0.407439 0
M  V30 3029 H 277.849 2.92838 -0.804957 0
M  V30 3030 H 275.434 1.42175 -0.458966 0
M  V30 3031 H 277.316 3.9689 1.41621 0
M  V30 3032 H 275.991 2.79333 1.6357 0
M  V30 3033 H 274.898 3.70833 -0.493328 0
M  V30 3034 H 276.231 4.88157 -0.629547 0
M  V30 3035 N 277.883 0.443576 1.51229 0
M  V30 3036 C 278.846 -0.353132 2.26463 0
M  V30 3037 C 279.846 -0.944338 1.3015 0
M  V30 3038 O 281.036 -0.817813 1.5381 0
M  V30 3039 C 278.168 -1.50023 3.06114 0
M  V30 3040 H 279.361 0.3063 2.98332 0
M  V30 3041 H 276.914 0.196902 1.55055 0
M  V30 3042 H 277.649 -2.19553 2.38677 0
M  V30 3043 H 277.434 -1.08241 3.76864 0
M  V30 3044 H 278.924 -2.06296 3.63087 0
M  V30 3045 N 279.361 -1.56624 0.175154 0
M  V30 3046 C 280.311 -2.14747 -0.766004 0
M  V30 3047 C 281.295 -1.08275 -1.19018 0
M  V30 3048 O 282.487 -1.34388 -1.15191 0
M  V30 3049 C 279.616 -2.79478 -1.99366 0
M  V30 3050 C 278.702 -3.93114 -1.5913 0
M  V30 3051 N 279.093 -4.97752 -0.89872 0
M  V30 3052 C 277.391 -4.04345 -1.88204 0
M  V30 3053 C 278.092 -5.77473 -0.700012 0
M  V30 3054 N 277.068 -5.29207 -1.24263 0
M  V30 3055 H 280.87 -2.93015 -0.22793 0
M  V30 3056 H 278.384 -1.6238 -0.0253843 0
M  V30 3057 H 280.381 -3.19498 -2.67818 0
M  V30 3058 H 279.041 -2.02692 -2.53665 0
M  V30 3059 H 280.052 -5.14903 -0.556347 0
M  V30 3060 H 276.729 -3.38667 -2.44153 0
M  V30 3061 H 278.119 -6.71728 -0.152047 0
M  V30 3062 N 280.839 0.0985539 -1.57292 0
M  V30 3063 C 282.067 0.816318 -1.90115 0
M  V30 3064 C 282.482 1.72451 -0.768509 0
M  V30 3065 O 281.839 1.80643 0.259687 0
M  V30 3066 C 281.89 1.63259 -3.22535 0
M  V30 3067 O 281.611 0.760934 -4.31441 0
M  V30 3068 C 283.112 2.45372 -3.69199 0
M  V30 3069 H 280.332 0.233595 -0.629027 0
M  V30 3070 H 282.876 0.0768229 -2.04356 0
M  V30 3071 H 281.031 2.32463 -3.09903 0
M  V30 3072 H 281.445 1.32595 -5.07463 0
M  V30 3073 H 282.919 2.98144 -4.64558 0
M  V30 3074 H 283.396 3.23677 -2.96867 0
M  V30 3075 H 284.002 1.81373 -3.84687 0
M  V30 3076 N 282.317 1.53212 0.369288 0
M  V30 3077 C 283.545 1.73119 1.13303 0
M  V30 3078 C 283.96 0.458455 1.83149 0
M  V30 3079 O 283.317 -0.568403 1.73423 0
M  V30 3080 C 283.368 2.89413 2.16616 0
M  V30 3081 O 283.089 4.11761 1.49614 0
M  V30 3082 C 284.59 3.21161 3.05566 0
M  V30 3083 H 281.81 0.579107 0.338934 0
M  V30 3084 H 284.354 1.99942 0.429338 0
M  V30 3085 H 282.509 2.64994 2.82589 0
M  V30 3086 H 282.923 4.76858 2.18419 0
M  V30 3087 H 284.397 4.05949 3.74045 0
M  V30 3088 H 284.874 2.36369 3.70171 0
M  V30 3089 H 285.48 3.47492 2.45213 0
M  V30 3090 N 283.795 -0.628877 1.44509 0
M  V30 3091 C 285.025 -1.41349 1.50678 0
M  V30 3092 C 285.433 -1.88745 0.131075 0
M  V30 3093 O 284.776 -1.61592 -0.87371 0
M  V30 3094 C 284.838 -2.66608 2.41165 0
M  V30 3095 C 284.502 -2.40993 3.88293 0
M  V30 3096 C 285.499 -2.0268 4.78766 0
M  V30 3097 C 283.184 -2.54563 4.33016 0
M  V30 3098 C 285.178 -1.78269 6.11963 0
M  V30 3099 C 282.865 -2.29766 5.6626 0
M  V30 3100 C 283.863 -1.91678 6.55552 0
M  V30 3101 O 283.551 -1.67158 7.86329 0
M  V30 3102 H 283.283 -0.439851 0.51333 0
M  V30 3103 H 285.837 -0.776084 1.90174 0
M  V30 3104 H 284.067 -3.32994 1.96601 0
M  V30 3105 H 285.756 -3.28615 2.38259 0
M  V30 3106 H 286.522 -1.91751 4.45485 0
M  V30 3107 H 282.401 -2.83179 3.63773 0
M  V30 3108 H 285.945 -1.48465 6.81619 0
M  V30 3109 H 281.842 -2.40306 5.99102 0
M  V30 3110 H 282.61 -1.81386 7.98149 0
M  V30 3111 N 285.273 -1.31445 -0.869486 0
M  V30 3112 C 286.521 -1.20918 -1.61936 0
M  V30 3113 C 286.842 0.232683 -1.93607 0
M  V30 3114 O 286.112 1.15352 -1.58338 0
M  V30 3115 H 284.692 -0.44454 -0.600328 0
M  V30 3116 H 287.354 -1.64776 -1.0409 0
M  V30 3117 H 286.45 -1.78124 -2.56278 0
M  V30 3118 N 286.751 1.08385 -1.14413 0
M  V30 3119 C 287.997 1.81044 -0.913834 0
M  V30 3120 C 288.33 1.86004 0.558209 0
M  V30 3121 O 287.605 1.33606 1.4135 0
M  V30 3122 C 287.888 3.26648 -1.51569 0
M  V30 3123 C 287.741 3.29895 -3.0576 0
M  V30 3124 C 289.06 4.23629 -1.19273 0
M  V30 3125 H 286.179 0.65727 -0.333414 0
M  V30 3126 H 288.821 1.26896 -1.41412 0
M  V30 3127 H 286.971 3.72889 -1.09023 0
M  V30 3128 H 288.643 2.91977 -3.57137 0
M  V30 3129 H 286.886 2.69163 -3.40197 0
M  V30 3130 H 287.557 4.32516 -3.42977 0
M  V30 3131 H 290.033 3.85727 -1.56057 0
M  V30 3132 H 288.909 5.23822 -1.64017 0
M  V30 3133 H 289.17 4.41968 -0.108068 0
M  V30 3134 N 288.23 0.939286 1.26551 0
M  V30 3135 C 289.479 0.581601 1.93133 0
M  V30 3136 C 289.792 -0.883224 1.74524 0
M  V30 3137 O 290.998 -1.3502 2.35546 0
M  V30 3138 C 289.454 0.989425 3.46032 0
M  V30 3139 C 289.062 2.47573 3.73379 0
M  V30 3140 C 290.806 0.703544 4.18629 0
M  V30 3141 C 288.713 2.82235 5.19709 0
M  V30 3142 H 287.643 0.213803 0.723052 0
M  V30 3143 H 290.294 1.14167 1.4366 0
M  V30 3144 H 288.676 0.357902 3.94379 0
M  V30 3145 H 289.85 3.15614 3.35744 0
M  V30 3146 H 288.165 2.73471 3.1401 0
M  V30 3147 H 290.762 0.938869 5.26393 0
M  V30 3148 H 291.105 -0.359639 4.14744 0
M  V30 3149 H 291.638 1.2947 3.76141 0
M  V30 3150 H 288.377 3.87509 5.28694 0
M  V30 3151 H 287.897 2.18854 5.58447 0
M  V30 3152 H 289.576 2.70599 5.87695 0
M  V30 3153 N 289.708 -1.40897 0.706093 0
M  V30 3154 C 290.956 -2.00657 0.241054 0
M  V30 3155 C 291.277 -1.56241 -1.16678 0
M  V30 3156 O 290.547 -0.79765 -1.78926 0
M  V30 3157 H 289.127 -0.742018 0.0861308 0
M  V30 3158 H 291.789 -1.72372 0.909604 0
M  V30 3159 H 290.885 -3.10958 0.266705 0
M  V30 3160 N 291.186 -0.45159 -1.50991 0
M  V30 3161 C 292.432 0.110237 -2.025 0
M  V30 3162 C 292.765 1.41109 -1.33424 0
M  V30 3163 O 292.04 1.89135 -0.453659 0
M  V30 3164 C 292.323 0.314271 -3.58726 0
M  V30 3165 C 292.176 -1.00623 -4.38401 0
M  V30 3166 C 293.495 1.07767 -4.26702 0
M  V30 3167 H 290.614 0.0385897 -0.735989 0
M  V30 3168 H 293.256 -0.593374 -1.80497 0
M  V30 3169 H 291.406 0.913601 -3.77605 0
M  V30 3170 H 293.078 -1.64064 -4.31139 0
M  V30 3171 H 291.321 -1.6075 -4.02917 0
M  V30 3172 H 291.992 -0.817341 -5.45915 0
M  V30 3173 H 294.468 0.56986 -4.12179 0
M  V30 3174 H 293.344 1.18921 -5.35863 0
M  V30 3175 H 293.605 2.10939 -3.88532 0
M  V30 3176 N 292.664 1.56529 -0.183458 0
M  V30 3177 C 293.611 2.18546 0.742055 0
M  V30 3178 C 294.581 1.12912 1.2182 0
M  V30 3179 O 295.766 1.41115 1.28418 0
M  V30 3180 C 292.906 2.83977 1.96089 0
M  V30 3181 C 292.019 4.04105 1.52719 0
M  V30 3182 C 291.154 4.57427 2.70063 0
M  V30 3183 C 290.193 5.69938 2.23243 0
M  V30 3184 N 289.33 6.17717 3.33722 0
M  V30 3185 H 294.17 2.97284 0.206432 0
M  V30 3186 H 291.707 1.46823 0.0901571 0
M  V30 3187 H 293.665 3.20077 2.67594 0
M  V30 3188 H 292.295 2.07822 2.47002 0
M  V30 3189 H 291.347 3.73745 0.708436 0
M  V30 3190 H 292.659 4.85513 1.1436 0
M  V30 3191 H 291.813 4.95772 3.49708 0
M  V30 3192 H 290.552 3.75101 3.11689 0
M  V30 3193 H 289.557 5.31133 1.42048 0
M  V30 3194 H 290.782 6.54073 1.82661 0
M  V30 3195 H 288.728 5.38317 3.74902 0
M  V30 3196 H 288.645 6.94146 2.99495 0
M  V30 3197 H 289.913 6.60713 4.13616 0
M  V30 3198 N 294.142 -0.090211 1.57342 0
M  V30 3199 C 295.388 -0.793982 1.86611 0
M  V30 3200 C 295.721 -1.78142 0.773252 0
M  V30 3201 O 294.996 -1.93271 -0.218304 0
M  V30 3202 C 295.279 -1.51839 3.26523 0
M  V30 3203 C 295.132 -0.548609 4.46442 0
M  V30 3204 C 296.451 -2.46779 3.64401 0
M  V30 3205 H 293.57 -0.287186 0.678744 0
M  V30 3206 H 296.212 -0.0575076 1.89913 0
M  V30 3207 H 294.362 -2.14617 3.23839 0
M  V30 3208 H 296.034 0.0725513 4.61243 0
M  V30 3209 H 294.277 0.137614 4.33582 0
M  V30 3210 H 294.948 -1.09271 5.41076 0
M  V30 3211 H 297.424 -1.94089 3.68061 0
M  V30 3212 H 296.3 -2.94479 4.63221 0
M  V30 3213 H 296.561 -3.30758 2.93346 0
M  V30 3214 N 295.62 -1.53406 -0.361157 0
M  V30 3215 C 296.866 -1.70999 -1.1014 0
M  V30 3216 C 297.221 -0.458425 -1.86859 0
M  V30 3217 O 296.514 0.548654 -1.83577 0
M  V30 3218 C 296.708 -2.90211 -2.08596 0
M  V30 3219 C 296.537 -4.26841 -1.41553 0
M  V30 3220 C 295.307 -4.91621 -1.16778 0
M  V30 3221 C 297.505 -5.07212 -0.850915 0
M  V30 3222 N 295.487 -6.12164 -0.461312 0
M  V30 3223 C 296.858 -6.19394 -0.274046 0
M  V30 3224 C 298.913 -4.92218 -0.750036 0
M  V30 3225 C 297.616 -7.18221 0.393868 0
M  V30 3226 C 299.642 -5.91322 -0.095894 0
M  V30 3227 C 299.004 -7.0283 0.470081 0
M  V30 3228 H 295.103 -0.678939 -0.388028 0
M  V30 3229 H 297.687 -1.90811 -0.38722 0
M  V30 3230 H 295.858 -2.71931 -2.77323 0
M  V30 3231 H 297.59 -2.96606 -2.7533 0
M  V30 3232 H 294.345 -4.50849 -1.45024 0
M  V30 3233 H 294.769 -6.76888 -0.123312 0
M  V30 3234 H 299.411 -4.06192 -1.17337 0
M  V30 3235 H 297.129 -8.03835 0.82914 0
M  V30 3236 H 300.715 -5.81797 -0.0187075 0
M  V30 3237 H 299.595 -7.782 0.968241 0
M  V30 3238 N 297.098 0.621204 -1.44841 0
M  V30 3239 C 298.347 1.37658 -1.47422 0
M  V30 3240 C 298.66 1.95264 -0.114629 0
M  V30 3241 O 299.866 2.71494 -0.0180199 0
M  V30 3242 C 298.322 2.49285 -2.59586 0
M  V30 3243 C 297.93 1.98149 -4.01797 0
M  V30 3244 C 299.674 3.26409 -2.71399 0
M  V30 3245 C 297.581 3.07178 -5.05367 0
M  V30 3246 H 296.511 0.517344 -0.548517 0
M  V30 3247 H 299.162 0.667257 -1.70938 0
M  V30 3248 H 297.544 3.22839 -2.29328 0
M  V30 3249 H 298.718 1.31395 -4.41669 0
M  V30 3250 H 297.033 1.33812 -3.94314 0
M  V30 3251 H 299.63 4.07706 -3.45948 0
M  V30 3252 H 299.973 3.76535 -1.77559 0
M  V30 3253 H 300.506 2.5995 -3.01116 0
M  V30 3254 H 297.245 2.61985 -6.00869 0
M  V30 3255 H 296.765 3.72542 -4.70077 0
M  V30 3256 H 298.444 3.71789 -5.29511 0
M  V30 3257 N 298.576 1.31904 0.862503 0
M  V30 3258 C 299.823 1.22017 1.61611 0
M  V30 3259 C 300.151 -0.21991 1.93253 0
M  V30 3260 O 299.406 -1.17076 1.56817 0
M  V30 3261 C 299.705 2.01713 2.95037 0
M  V30 3262 C 299.371 3.51145 2.82857 0
M  V30 3263 C 298.033 3.91889 2.79243 0
M  V30 3264 C 300.385 4.46204 2.69353 0
M  V30 3265 C 297.713 5.25947 2.59993 0
M  V30 3266 C 300.065 5.80397 2.5164 0
M  V30 3267 C 298.729 6.20352 2.46413 0
M  V30 3268 H 297.999 0.44649 0.591378 0
M  V30 3269 H 300.646 1.63248 1.00111 0
M  V30 3270 H 298.951 1.53185 3.60613 0
M  V30 3271 H 300.648 1.91437 3.52353 0
M  V30 3272 H 297.238 3.1878 2.86491 0
M  V30 3273 H 301.422 4.15652 2.71196 0
M  V30 3274 H 296.678 5.5597 2.54376 0
M  V30 3275 H 300.852 6.53676 2.40169 0
M  V30 3276 H 298.479 7.24172 2.31256 0
M  V30 3277 N 300.054 -1.07777 1.14986 0
M  V30 3278 C 301.001 -2.14867 0.842672 0
M  V30 3279 C 301.971 -1.6486 -0.202552 0
M  V30 3280 O 303.156 -1.90668 -0.0710568 0
M  V30 3281 C 300.296 -3.43486 0.333363 0
M  V30 3282 C 299.409 -4.07306 1.43965 0
M  V30 3283 C 298.544 -5.23744 0.886914 0
M  V30 3284 C 297.583 -5.79517 1.97043 0
M  V30 3285 N 296.72 -6.87291 1.4344 0
M  V30 3286 H 301.56 -2.40485 1.75986 0
M  V30 3287 H 299.097 -1.1801 0.878179 0
M  V30 3288 H 301.055 -4.17195 0.0198163 0
M  V30 3289 H 299.685 -3.18133 -0.546916 0
M  V30 3290 H 298.737 -3.31293 1.86946 0
M  V30 3291 H 300.049 -4.44771 2.25788 0
M  V30 3292 H 299.203 -6.04419 0.525651 0
M  V30 3293 H 297.942 -4.87685 0.0377957 0
M  V30 3294 H 296.947 -4.97491 2.34057 0
M  V30 3295 H 298.172 -6.17632 2.82325 0
M  V30 3296 H 296.118 -6.5318 0.607567 0
M  V30 3297 H 296.035 -7.23617 2.18895 0
M  V30 3298 H 297.303 -7.71682 1.10124 0
M  V30 3299 N 301.532 -0.945985 -1.26051 0
M  V30 3300 C 302.78 -0.594941 -1.93145 0
M  V30 3301 C 303.101 0.86953 -1.7454 0
M  V30 3302 O 302.371 1.61838 -1.10387 0
M  V30 3303 H 300.951 -0.217044 -0.714773 0
M  V30 3304 H 303.613 -1.20235 -1.53393 0
M  V30 3305 H 302.709 -0.816835 -3.01221 0
M  V30 3306 N 303.011 1.40521 -0.713556 0
M  V30 3307 C 303.921 2.34522 -0.0606667 0
M  V30 3308 C 304.937 1.57193 0.74607 0
M  V30 3309 O 306.113 1.89591 0.679493 0
M  V30 3310 C 303.178 3.36081 0.851491 0
M  V30 3311 C 302.239 4.29286 0.0349339 0
M  V30 3312 C 301.472 5.25994 0.903649 0
M  V30 3313 O 301.695 5.28616 2.14292 0
M  V30 3314 O 300.629 6.00918 0.343723 0
M  V30 3315 H 304.455 2.91968 -0.835972 0
M  V30 3316 H 302.04 1.41681 -0.47402 0
M  V30 3317 H 303.922 3.98369 1.37404 0
M  V30 3318 H 302.597 2.81052 1.60598 0
M  V30 3319 H 301.504 3.70289 -0.532633 0
M  V30 3320 H 302.837 4.87462 -0.681287 0
M  V30 3321 N 304.489 0.459591 1.5075 0
M  V30 3322 C 305.738 -0.100971 2.01447 0
M  V30 3323 C 306.051 -1.41816 1.34713 0
M  V30 3324 O 307.257 -2.06299 1.76502 0
M  V30 3325 C 305.713 -0.23047 3.59161 0
M  V30 3326 C 305.321 1.0776 4.34847 0
M  V30 3327 C 307.065 -0.743608 4.17936 0
M  V30 3328 C 304.972 0.91253 5.84317 0
M  V30 3329 H 303.902 -0.0415102 0.752856 0
M  V30 3330 H 306.553 0.592742 1.73663 0
M  V30 3331 H 304.935 -0.987703 3.83485 0
M  V30 3332 H 306.109 1.8449 4.22256 0
M  V30 3333 H 304.424 1.52097 3.87628 0
M  V30 3334 H 307.021 -0.883959 5.27343 0
M  V30 3335 H 307.364 -1.73196 3.78562 0
M  V30 3336 H 307.897 -0.04408 3.97776 0
M  V30 3337 H 304.636 1.87391 6.28144 0
M  V30 3338 H 304.156 0.185422 5.99513 0
M  V30 3339 H 305.835 0.574547 6.44444 0
M  V30 3340 N 305.967 -1.56429 0.191757 0
M  V30 3341 C 306.897 -2.21937 -0.725696 0
M  V30 3342 C 307.878 -1.1814 -1.2238 0
M  V30 3343 O 309.063 -1.46636 -1.27325 0
M  V30 3344 C 306.193 -2.87611 -1.94672 0
M  V30 3345 C 305.147 -3.97623 -1.58366 0
M  V30 3346 C 304.473 -4.50446 -2.88102 0
M  V30 3347 C 305.773 -5.16197 -0.796133 0
M  V30 3348 H 307.467 -2.98861 -0.179606 0
M  V30 3349 H 305.013 -1.43749 -0.0849464 0
M  V30 3350 H 306.966 -3.3212 -2.59373 0
M  V30 3351 H 305.69 -2.08087 -2.51728 0
M  V30 3352 H 304.349 -3.53801 -0.960247 0
M  V30 3353 H 303.997 -3.67688 -3.43241 0
M  V30 3354 H 303.697 -5.24675 -2.64556 0
M  V30 3355 H 305.221 -4.97654 -3.53798 0
M  V30 3356 H 306.635 -5.57271 -1.34618 0
M  V30 3357 H 305.032 -5.96471 -0.658928 0
M  V30 3358 H 306.102 -4.84473 0.203478 0
M  V30 3359 N 307.445 0.0818655 -1.57387 0
M  V30 3360 C 308.693 0.781368 -1.86384 0
M  V30 3361 C 309.014 1.78618 -0.782342 0
M  V30 3362 O 308.284 1.94976 0.190061 0
M  V30 3363 H 306.864 0.291562 -0.687751 0
M  V30 3364 H 309.526 0.060348 -1.94807 0
M  V30 3365 H 308.622 1.3038 -2.83562 0
M  V30 3366 N 308.923 1.53595 0.353017 0
M  V30 3367 C 310.171 1.70049 1.09215 0
M  V30 3368 C 310.492 0.461406 1.89463 0
M  V30 3369 O 309.762 -0.524633 1.88744 0
M  V30 3370 H 308.342 0.626912 0.40619 0
M  V30 3371 H 311.004 1.90822 0.396585 0
M  V30 3372 H 310.1 2.56718 1.77488 0
M  V30 3373 N 310.401 -0.613514 1.45168 0
M  V30 3374 C 311.334 -1.73809 1.47871 0
M  V30 3375 C 312.312 -1.59097 0.33568 0
M  V30 3376 O 313.496 -1.8074 0.535299 0
M  V30 3377 C 310.623 -3.11574 1.32813 0
M  V30 3378 C 309.669 -3.4489 2.50905 0
M  V30 3379 S 310.502 -3.40393 4.13392 0
M  V30 3380 C 311.658 -4.80749 4.00789 0
M  V30 3381 H 311.891 -1.71252 2.43023 0
M  V30 3382 H 309.424 -0.789658 1.32679 0
M  V30 3383 H 311.382 -3.91065 1.24812 0
M  V30 3384 H 310.043 -3.11652 0.391418 0
M  V30 3385 H 309.236 -4.45183 2.36279 0
M  V30 3386 H 308.838 -2.72901 2.55736 0
M  V30 3387 H 311.13 -5.7041 3.65567 0
M  V30 3388 H 312.073 -5.00431 5.00974 0
M  V30 3389 H 312.481 -4.56151 3.32545 0
M  V30 3390 N 311.879 -1.3236 -0.855495 0
M  V30 3391 C 312.842 -1.21164 -1.94556 0
M  V30 3392 C 313.842 -0.134908 -1.60233 0
M  V30 3393 O 315.032 -0.385249 -1.69887 0
M  V30 3394 C 312.164 -0.863192 -3.29791 0
M  V30 3395 H 313.357 -2.18038 -2.05911 0
M  V30 3396 H 310.91 -1.16179 -1.04557 0
M  V30 3397 H 311.645 0.103769 -3.24134 0
M  V30 3398 H 311.43 -1.64166 -3.56078 0
M  V30 3399 H 312.92 -0.809156 -4.09686 0
M  V30 3400 N 313.357 1.07166 -1.15556 0
M  V30 3401 C 314.32 2.12589 -0.856644 0
M  V30 3402 C 315.32 1.6015 0.14444 0
M  V30 3403 O 316.51 1.7399 -0.0854163 0
M  V30 3404 C 313.642 3.39753 -0.279405 0
M  V30 3405 H 314.835 2.40539 -1.79112 0
M  V30 3406 H 312.388 1.23086 -0.963298 0
M  V30 3407 H 313.123 3.17447 0.663174 0
M  V30 3408 H 312.908 3.79117 -1.00063 0
M  V30 3409 H 314.398 4.17507 -0.0879113 0
M  V30 3410 N 314.835 0.952656 1.25548 0
M  V30 3411 C 316.081 0.607272 1.93494 0
M  V30 3412 C 316.414 -0.853245 1.74452 0
M  V30 3413 O 315.689 -1.61194 1.08843 0
M  V30 3414 C 315.972 0.96435 3.46947 0
M  V30 3415 C 315.825 2.48045 3.75225 0
M  V30 3416 C 317.144 0.487987 4.37386 0
M  V30 3417 H 314.263 0.222096 0.702739 0
M  V30 3418 H 316.905 1.18895 1.48203 0
M  V30 3419 H 315.055 0.469361 3.85654 0
M  V30 3420 H 316.727 3.04905 3.46166 0
M  V30 3421 H 314.97 2.919 3.209 0
M  V30 3422 H 315.641 2.6808 4.82532 0
M  V30 3423 H 318.117 0.912558 4.0597 0
M  V30 3424 H 316.993 0.766547 5.43521 0
M  V30 3425 H 317.254 -0.612063 4.37843 0
M  V30 3426 N 316.313 -1.40141 0.720998 0
M  V30 3427 C 317.223 -2.34486 0.0731031 0
M  V30 3428 C 318.239 -1.57587 -0.737723 0
M  V30 3429 O 319.415 -1.89949 -0.669429 0
M  V30 3430 C 316.48 -3.36528 -0.833656 0
M  V30 3431 C 315.541 -4.29298 -0.0121673 0
M  V30 3432 C 314.774 -5.26466 -0.875742 0
M  V30 3433 O 314.997 -5.29745 -2.11485 0
M  V30 3434 O 313.931 -6.01092 -0.31185 0
M  V30 3435 H 317.757 -2.9152 0.851444 0
M  V30 3436 H 315.342 -1.41427 0.481527 0
M  V30 3437 H 317.224 -3.99093 -1.35289 0
M  V30 3438 H 315.899 -2.81899 -1.59105 0
M  V30 3439 H 314.806 -3.70001 0.552262 0
M  V30 3440 H 316.139 -4.87094 0.707129 0
M  V30 3441 N 317.792 -0.46758 -1.50504 0
M  V30 3442 C 318.724 0.364655 -2.26281 0
M  V30 3443 C 319.737 0.960151 -1.31472 0
M  V30 3444 O 320.926 0.849153 -1.57008 0
M  V30 3445 C 318.026 1.52509 -3.02645 0
M  V30 3446 C 317.199 1.04302 -4.24782 0
M  V30 3447 C 316.258 2.07709 -4.8347 0
M  V30 3448 O 315.284 1.65913 -5.44483 0
M  V30 3449 N 316.486 3.40485 -4.70159 0
M  V30 3450 H 319.251 -0.28495 -2.98342 0
M  V30 3451 H 316.812 -0.298163 -1.59131 0
M  V30 3452 H 318.804 2.21371 -3.38787 0
M  V30 3453 H 317.374 2.07945 -2.33404 0
M  V30 3454 H 316.594 0.180393 -3.93787 0
M  V30 3455 H 317.882 0.698798 -5.03978 0
M  V30 3456 H 317.28 3.77155 -4.21629 0
M  V30 3457 H 315.837 4.05156 -5.1058 0
M  V30 3458 N 319.27 1.56325 -0.20005 0
M  V30 3459 C 320.681 1.8408 0.31167 0
M  V30 3460 C 321.032 1.12087 1.61031 0
M  V30 3461 O 320.157 0.38332 2.12978 0
M  V30 3462 C 320.752 3.33932 0.57226 0
M  V30 3463 C 319.311 3.6208 1.02834 0
M  V30 3464 C 318.458 2.77186 0.079634 0
M  V30 3465 H 321.409 1.52939 -0.423729 0
M  V30 3466 H 321.43 3.52971 1.42096 0
M  V30 3467 H 320.942 3.86303 -0.37308 0
M  V30 3468 H 319.043 3.15147 1.98778 0
M  V30 3469 H 319.156 4.7023 0.917624 0
M  V30 3470 H 317.52 2.47951 0.582448 0
M  V30 3471 H 318.303 3.32347 -0.860238 0
M  V30 3472 N 320.748 -0.0735177 1.57428 0
M  V30 3473 C 321.658 -1.10547 2.06922 0
M  V30 3474 C 322.674 -1.42506 0.998402 0
M  V30 3475 O 323.85 -1.52717 1.31299 0
M  V30 3476 C 320.915 -2.40019 2.50184 0
M  V30 3477 C 319.976 -2.15046 3.71556 0
M  V30 3478 C 319.209 -3.38345 4.12745 0
M  V30 3479 O 319.432 -4.47399 3.53822 0
M  V30 3480 O 318.366 -3.2666 5.05546 0
M  V30 3481 H 322.192 -0.715013 2.95163 0
M  V30 3482 H 319.777 -0.287531 1.46607 0
M  V30 3483 H 321.659 -3.16218 2.78539 0
M  V30 3484 H 320.334 -2.78447 1.65072 0
M  V30 3485 H 319.241 -1.36558 3.48285 0
M  V30 3486 H 320.574 -1.81499 4.57514 0
M  V30 3487 N 322.226 -1.5378 -0.344866 0
M  V30 3488 C 323.173 -1.81676 -1.42346 0
M  V30 3489 C 324.143 -0.662376 -1.52321 0
M  V30 3490 O 325.328 -0.906675 -1.67881 0
M  V30 3491 C 322.468 -2.03087 -2.79015 0
M  V30 3492 C 321.581 -3.30799 -2.77842 0
M  V30 3493 C 320.716 -3.42285 -4.0622 0
M  V30 3494 C 319.755 -4.6395 -3.9927 0
M  V30 3495 N 318.892 -4.72477 -5.19336 0
M  V30 3496 H 323.732 -2.73703 -1.17858 0
M  V30 3497 H 321.269 -1.35568 -0.570949 0
M  V30 3498 H 323.227 -2.1349 -3.58438 0
M  V30 3499 H 321.857 -1.14375 -3.01858 0
M  V30 3500 H 320.909 -3.29244 -1.90533 0
M  V30 3501 H 322.221 -4.20314 -2.68584 0
M  V30 3502 H 321.375 -3.52113 -4.94066 0
M  V30 3503 H 320.114 -2.50823 -4.18258 0
M  V30 3504 H 319.119 -4.54201 -3.09809 0
M  V30 3505 H 320.344 -5.56775 -3.88817 0
M  V30 3506 H 318.29 -3.83924 -5.3192 0
M  V30 3507 H 318.207 -5.55927 -5.12329 0
M  V30 3508 H 319.475 -4.86613 -6.08957 0
M  V30 3509 N 323.704 0.605807 -1.45491 0
M  V30 3510 C 325.115 1.18777 -1.44045 0
M  V30 3511 C 325.466 1.95471 -0.169001 0
M  V30 3512 O 324.591 2.0374 0.729324 0
M  V30 3513 C 325.186 2.16064 -2.60963 0
M  V30 3514 C 323.745 2.69633 -2.62631 0
M  V30 3515 C 322.892 1.45072 -2.36325 0
M  V30 3516 H 325.843 0.395017 -1.53705 0
M  V30 3517 H 325.864 2.9913 -2.35163 0
M  V30 3518 H 325.376 1.60217 -3.53486 0
M  V30 3519 H 323.477 3.29414 -1.74119 0
M  V30 3520 H 323.59 3.13944 -3.61906 0
M  V30 3521 H 321.954 1.74089 -1.85917 0
M  V30 3522 H 322.737 0.910899 -3.30995 0
M  V30 3523 N 325.182 1.32811 0.848464 0
M  V30 3524 C 326.145 1.22194 1.9391 0
M  V30 3525 C 327.145 0.143404 1.60159 0
M  V30 3526 O 328.335 0.394253 1.6968 0
M  V30 3527 C 325.467 0.88067 3.29328 0
M  V30 3528 H 326.66 2.19127 2.04752 0
M  V30 3529 H 324.213 1.16731 1.0394 0
M  V30 3530 H 324.948 -0.0865776 3.24184 0
M  V30 3531 H 324.733 1.66052 3.55203 0
M  V30 3532 H 326.223 0.830871 4.09251 0
M  V30 3533 N 326.66 -1.06551 1.16123 0
M  V30 3534 C 327.623 -2.12132 0.867906 0
M  V30 3535 C 328.623 -1.60224 -0.135944 0
M  V30 3536 O 329.813 -1.73943 0.0946422 0
M  V30 3537 C 326.945 -3.396 0.297419 0
M  V30 3538 H 328.138 -2.39586 1.80385 0
M  V30 3539 H 325.691 -1.22574 0.969812 0
M  V30 3540 H 326.426 -3.17794 -0.64633 0
M  V30 3541 H 326.211 -3.78581 1.02073 0
M  V30 3542 H 327.701 -4.17455 0.110052 0
M  V30 3543 N 328.138 -0.959301 -1.25041 0
M  V30 3544 C 329.07 -0.440543 -2.24926 0
M  V30 3545 C 330.083 0.446131 -1.56568 0
M  V30 3546 O 331.272 0.253657 -1.76689 0
M  V30 3547 C 328.372 0.38412 -3.36716 0
M  V30 3548 C 327.545 -0.490658 -4.34639 0
M  V30 3549 C 326.604 0.276587 -5.25473 0
M  V30 3550 O 325.63 -0.326614 -5.68262 0
M  V30 3551 N 326.832 1.56844 -5.5891 0
M  V30 3552 H 329.597 -1.29931 -2.70071 0
M  V30 3553 H 327.158 -0.830181 -1.38995 0
M  V30 3554 H 329.15 0.905228 -3.94446 0
M  V30 3555 H 327.72 1.14377 -2.90924 0
M  V30 3556 H 326.94 -1.19282 -3.7572 0
M  V30 3557 H 328.228 -1.08756 -4.97041 0
M  V30 3558 H 327.626 2.08036 -5.26059 0
M  V30 3559 H 326.183 2.03541 -6.19205 0
M  V30 3560 N 329.616 1.39756 -0.72842 0
M  V30 3561 C 331.027 1.83498 -0.344289 0
M  V30 3562 C 331.378 1.60868 1.12321 0
M  V30 3563 O 330.503 1.09634 1.86573 0
M  V30 3564 C 331.098 3.33114 -0.618112 0
M  V30 3565 C 329.657 3.753 -0.287549 0
M  V30 3566 C 328.804 2.62831 -0.884048 0
M  V30 3567 H 331.755 1.28842 -0.926578 0
M  V30 3568 H 331.776 3.80334 0.112349 0
M  V30 3569 H 331.288 3.49553 -1.68625 0
M  V30 3570 H 329.389 3.64451 0.775012 0
M  V30 3571 H 329.502 4.72945 -0.765512 0
M  V30 3572 H 327.866 2.52792 -0.311149 0
M  V30 3573 H 328.649 2.82078 -1.95671 0
M  V30 3574 N 331.094 0.475555 1.50254 0
M  V30 3575 C 332.041 -0.316293 2.28622 0
M  V30 3576 C 333.011 -0.983227 1.33873 0
M  V30 3577 O 334.196 -0.994805 1.62814 0
M  V30 3578 C 331.336 -1.38975 3.1588 0
M  V30 3579 C 330.449 -0.737146 4.25664 0
M  V30 3580 C 329.584 -1.78887 5.00173 0
M  V30 3581 C 328.623 -1.11676 6.01826 0
M  V30 3582 N 327.76 -2.11154 6.69596 0
M  V30 3583 H 332.6 0.358297 2.95838 0
M  V30 3584 H 330.137 0.188541 1.45887 0
M  V30 3585 H 332.095 -2.02383 3.64825 0
M  V30 3586 H 330.725 -2.03344 2.50701 0
M  V30 3587 H 329.777 0.0096065 3.80399 0
M  V30 3588 H 331.089 -0.206816 4.98371 0
M  V30 3589 H 330.243 -2.49865 5.52859 0
M  V30 3590 H 328.982 -2.35302 4.27182 0
M  V30 3591 H 327.987 -0.392633 5.48396 0
M  V30 3592 H 329.212 -0.55945 6.76792 0
M  V30 3593 H 327.158 -2.66577 5.99394 0
M  V30 3594 H 327.075 -1.63118 7.38193 0
M  V30 3595 H 328.343 -2.81497 7.26897 0
M  V30 3596 N 332.573 -1.56217 0.208337 0
M  V30 3597 C 333.52 -2.19699 -0.707192 0
M  V30 3598 C 334.49 -1.14836 -1.20008 0
M  V30 3599 O 335.675 -1.4314 -1.26157 0
M  V30 3600 C 332.815 -2.87061 -1.91546 0
M  V30 3601 C 331.928 -4.06483 -1.46271 0
M  V30 3602 C 331.063 -4.61665 -2.62752 0
M  V30 3603 C 330.102 -5.73417 -2.14147 0
M  V30 3604 N 329.239 -6.22948 -3.23853 0
M  V30 3605 H 334.079 -2.97575 -0.159111 0
M  V30 3606 H 331.616 -1.46948 -0.0667874 0
M  V30 3607 H 333.574 -3.24294 -2.62468 0
M  V30 3608 H 332.204 -2.11725 -2.43664 0
M  V30 3609 H 331.256 -3.74825 -0.648886 0
M  V30 3610 H 332.568 -4.87271 -1.06622 0
M  V30 3611 H 331.722 -5.01272 -3.41776 0
M  V30 3612 H 330.461 -3.80013 -3.05682 0
M  V30 3613 H 329.466 -5.33326 -1.33581 0
M  V30 3614 H 330.691 -6.56897 -1.72232 0
M  V30 3615 H 328.637 -5.44213 -3.6629 0
M  V30 3616 H 328.554 -6.98823 -2.88414 0
M  V30 3617 H 329.822 -6.6721 -4.03052 0
M  V30 3618 N 334.051 0.0651679 -1.57465 0
M  V30 3619 C 334.983 1.10359 -2.00882 0
M  V30 3620 C 335.996 1.346 -0.915788 0
M  V30 3621 O 337.185 1.32723 -1.1936 0
M  V30 3622 C 334.285 2.45312 -2.33828 0
M  V30 3623 C 333.458 2.40934 -3.65061 0
M  V30 3624 C 332.517 3.58047 -3.85602 0
M  V30 3625 O 331.543 3.39175 -4.57109 0
M  V30 3626 N 332.745 4.78637 -3.28462 0
M  V30 3627 H 335.51 0.733807 -2.90578 0
M  V30 3628 H 333.071 0.253719 -1.599 0
M  V30 3629 H 335.063 3.22314 -2.44737 0
M  V30 3630 H 333.633 2.74267 -1.49988 0
M  V30 3631 H 332.853 1.49273 -3.64844 0
M  V30 3632 H 334.141 2.35117 -4.51218 0
M  V30 3633 H 333.539 4.96872 -2.70433 0
M  V30 3634 H 332.096 5.53127 -3.44809 0
M  V30 3635 N 335.529 1.53961 0.336706 0
M  V30 3636 C 336.461 1.78751 1.4346 0
M  V30 3637 C 337.474 0.669019 1.48418 0
M  V30 3638 O 338.663 0.945884 1.51378 0
M  V30 3639 C 335.763 1.87844 2.82078 0
M  V30 3640 C 334.936 3.17854 3.00479 0
M  V30 3641 C 333.995 3.17816 4.19379 0
M  V30 3642 O 333.021 3.91511 4.13168 0
M  V30 3643 N 334.223 2.40669 5.2826 0
M  V30 3644 H 336.988 2.73493 1.22563 0
M  V30 3645 H 334.549 1.53096 0.526625 0
M  V30 3646 H 336.541 1.85261 3.59806 0
M  V30 3647 H 335.111 1.00257 2.96086 0
M  V30 3648 H 334.331 3.33504 2.10163 0
M  V30 3649 H 335.619 4.03718 3.0966 0
M  V30 3650 H 335.017 1.8036 5.36178 0
M  V30 3651 H 333.574 2.43877 6.04456 0
M  V30 3652 N 337.007 -0.598083 1.45811 0
M  V30 3653 C 338.423 -0.919847 1.30426 0
M  V30 3654 C 338.623 -1.99759 0.264303 0
M  V30 3655 O 337.679 -2.50221 -0.338472 0
M  V30 3656 C 338.992 -1.35176 2.68603 0
M  V30 3657 C 340.54 -1.46546 2.76574 0
M  V30 3658 C 341.015 -1.9311 4.15298 0
M  V30 3659 N 342.506 -2.00328 4.1764 0
M  V30 3660 C 343.241 -2.37599 5.21856 0
M  V30 3661 N 342.737 -2.73771 6.36413 0
M  V30 3662 N 344.53 -2.38021 5.09218 0
M  V30 3663 H 336.681 0.114111 2.12093 0
M  V30 3664 H 338.944 -0.0116121 0.947929 0
M  V30 3665 H 338.65 -0.633969 3.45939 0
M  V30 3666 H 338.524 -2.3164 2.97696 0
M  V30 3667 H 340.911 -2.17415 1.99537 0
M  V30 3668 H 340.992 -0.483727 2.51185 0
M  V30 3669 H 340.636 -1.22824 4.92825 0
M  V30 3670 H 340.566 -2.92213 4.38086 0
M  V30 3671 H 343.057 -1.74925 3.34977 0
M  V30 3672 H 343.37 -3.0112 7.11721 0
M  V30 3673 H 341.715 -2.71445 6.39799 0
M  V30 3674 H 344.906 -2.09174 4.18765 0
M  V30 3675 H 345.079 -2.66741 5.90554 0
M  V30 3676 N 338.485 -1.33259 -0.841409 0
M  V30 3677 C 339.432 -1.23302 -1.95103 0
M  V30 3678 C 340.402 -0.112204 -1.65721 0
M  V30 3679 O 341.587 -0.290038 -1.88583 0
M  V30 3680 C 338.727 -0.975583 -3.31023 0
M  V30 3681 C 337.84 -2.18243 -3.72819 0
M  V30 3682 C 336.975 -1.85936 -4.97595 0
M  V30 3683 C 336.014 -3.02866 -5.3192 0
M  V30 3684 N 335.151 -2.70565 -6.47873 0
M  V30 3685 H 339.991 -2.18207 -2.02952 0
M  V30 3686 H 337.528 -1.0851 -0.993173 0
M  V30 3687 H 339.486 -0.80677 -4.09325 0
M  V30 3688 H 338.116 -0.0632755 -3.22738 0
M  V30 3689 H 337.168 -2.46107 -2.90061 0
M  V30 3690 H 338.48 -3.05666 -3.94169 0
M  V30 3691 H 337.634 -1.65684 -5.83638 0
M  V30 3692 H 336.373 -0.957452 -4.78209 0
M  V30 3693 H 335.378 -3.23736 -4.44382 0
M  V30 3694 H 336.603 -3.93809 -5.53255 0
M  V30 3695 H 334.549 -1.8293 -6.29978 0
M  V30 3696 H 334.466 -3.51519 -6.69306 0
M  V30 3697 H 335.734 -2.53774 -7.37034 0
M  V30 3698 N 339.963 1.05934 -1.16686 0
M  V30 3699 C 341.211 1.78447 -0.948744 0
M  V30 3700 C 341.532 1.87813 0.524523 0
M  V30 3701 O 340.802 1.38945 1.38098 0
M  V30 3702 H 339.382 0.660971 -0.348033 0
M  V30 3703 H 342.044 1.27947 -1.47022 0
M  V30 3704 H 341.14 2.80394 -1.37061 0
M  V30 3705 N 341.441 0.965919 1.2453 0
M  V30 3706 C 342.857 0.67216 1.44756 0
M  V30 3707 C 343.057 -0.766609 1.86347 0
M  V30 3708 O 342.113 -1.5407 2.00047 0
M  V30 3709 C 343.426 1.65473 2.51076 0
M  V30 3710 C 344.974 1.66716 2.64905 0
M  V30 3711 C 345.449 2.63766 3.74421 0
M  V30 3712 N 346.94 2.62198 3.81846 0
M  V30 3713 C 347.675 3.33966 4.66106 0
M  V30 3714 N 347.171 4.15245 5.54566 0
M  V30 3715 N 348.964 3.22799 4.60171 0
M  V30 3716 H 341.115 1.89553 0.958293 0
M  V30 3717 H 343.378 0.815979 0.482579 0
M  V30 3718 H 343.084 2.68296 2.27399 0
M  V30 3719 H 342.958 1.4261 3.49202 0
M  V30 3720 H 345.345 0.646057 2.87941 0
M  V30 3721 H 345.426 1.93642 1.67142 0
M  V30 3722 H 345.07 3.6601 3.52135 0
M  V30 3723 H 345 2.34121 4.71694 0
M  V30 3724 H 347.491 2.032 3.18619 0
M  V30 3725 H 347.804 4.66898 6.15814 0
M  V30 3726 H 346.149 4.1934 5.54237 0
M  V30 3727 H 349.34 2.58764 3.90075 0
M  V30 3728 H 349.513 3.78994 5.25612 0
M  V30 3729 N 342.919 -1.39368 0.735821 0
M  V30 3730 C 343.866 -2.30599 0.0963825 0
M  V30 3731 C 344.836 -1.49257 -0.728794 0
M  V30 3732 O 346.021 -1.77941 -0.688588 0
M  V30 3733 C 343.161 -3.35596 -0.804305 0
M  V30 3734 C 342.274 -4.31987 0.0335761 0
M  V30 3735 C 341.409 -5.24053 -0.868461 0
M  V30 3736 C 340.448 -6.12095 -0.0258776 0
M  V30 3737 N 339.585 -6.96514 -0.883893 0
M  V30 3738 H 344.425 -2.8471 0.880002 0
M  V30 3739 H 341.962 -1.40188 0.445619 0
M  V30 3740 H 343.92 -3.95062 -1.34096 0
M  V30 3741 H 342.55 -2.82938 -1.55389 0
M  V30 3742 H 341.602 -3.74133 0.68766 0
M  V30 3743 H 342.914 -4.94074 0.685036 0
M  V30 3744 H 342.068 -5.88549 -1.47293 0
M  V30 3745 H 340.807 -4.62289 -1.5537 0
M  V30 3746 H 339.812 -5.4661 0.591386 0
M  V30 3747 H 341.037 -6.75923 0.656156 0
M  V30 3748 H 338.983 -6.37318 -1.55441 0
M  V30 3749 H 338.9 -7.55448 -0.288931 0
M  V30 3750 H 340.168 -7.65439 -1.4739 0
M  V30 3751 O 344.436 -0.625292 -1.48904 0
M  V30 3752 H 345.127 -0.142374 -1.93176 0
M  V30 END ATOM
M  V30 BEGIN BOND
M  V30 END BOND
M  V30 END CTAB
M  END
$$$$
