drugbank_target|P0A721 Thymidylate kinase (DB03280)
 OpenBabel12092120023D

  0  0  0     0  0            999 V3000
M  V30 BEGIN CTAB
M  V30 COUNTS 3367 3390 0 0 0
M  V30 BEGIN ATOM
M  V30 1 H -0.908 1.98254 -0.117106 0
M  V30 2 N 0 1.576 0 0
M  V30 3 C 0.933 2.03868 1.02534 0
M  V30 4 C 1.911 0.928543 1.3348 0
M  V30 5 O 3.095 1.19667 1.45644 0
M  V30 6 C 0.222 2.43627 2.35294 0
M  V30 7 C -0.732 3.65373 2.2001 0
M  V30 8 S 0.101 5.13292 1.52614 0
M  V30 9 C 1.257 5.56322 2.86805 0
M  V30 10 H 1.49 2.90518 0.631377 0
M  V30 11 H -0.977 1.52953 0.210867 0
M  V30 12 H 0.981 2.67203 3.11629 0
M  V30 13 H -0.358 1.57376 2.7183 0
M  V30 14 H -1.165 3.90944 3.18086 0
M  V30 15 H -1.563 3.418 1.51819 0
M  V30 16 H 0.729 5.58782 3.83104 0
M  V30 17 H 1.672 6.56266 2.65933 0
M  V30 18 H 2.08 4.83886 2.90714 0
M  V30 19 N 1.4781 -0.272755 1.55222 0
M  V30 20 C 2.8941 -0.619959 1.47067 0
M  V30 21 C 3.0941 -1.895 0.684978 0
M  V30 22 O 2.1501 -2.51675 0.203931 0
M  V30 23 C 3.4631 -0.746693 2.91282 0
M  V30 24 C 5.0111 -0.840731 3.01497 0
M  V30 25 C 5.4861 -0.99924 4.46967 0
M  V30 26 N 6.9771 -1.06476 4.50796 0
M  V30 27 C 7.7121 -1.20621 5.6057 0
M  V30 28 N 7.2081 -1.31483 6.80209 0
M  V30 29 N 9.0011 -1.23733 5.48312 0
M  V30 30 H 1.1521 0.564606 2.04758 0
M  V30 31 H 3.4151 0.191177 0.928523 0
M  V30 32 H 3.1211 0.119753 3.51496 0
M  V30 33 H 2.9951 -1.6269 3.40311 0
M  V30 34 H 5.3821 -1.69764 2.41379 0
M  V30 35 H 5.4631 0.0640874 2.5572 0
M  V30 36 H 5.1071 -0.146984 5.07687 0
M  V30 37 H 5.0371 -1.91871 4.90401 0
M  V30 38 H 7.5281 -0.993196 3.64615 0
M  V30 39 H 7.8411 -1.42111 7.59621 0
M  V30 40 H 6.1861 -1.28487 6.8302 0
M  V30 41 H 9.3771 -1.14877 4.53785 0
M  V30 42 H 9.5501 -1.34412 6.33906 0
M  V30 43 N 2.9562 -1.48159 -0.537278 0
M  V30 44 C 4.1812 -1.59707 -1.32319 0
M  V30 45 C 4.6062 -0.254859 -1.86365 0
M  V30 46 O 3.9642 0.772378 -1.64024 0
M  V30 47 C 4.0122 -2.6412 -2.45505 0
M  V30 48 O 3.1162 -2.20774 -3.48328 0
M  V30 49 H 2.4572 -0.535791 -0.392204 0
M  V30 50 H 4.9872 -1.94092 -0.647268 0
M  V30 51 H 4.9972 -2.85166 -2.91795 0
M  V30 52 H 3.6722 -3.61567 -2.05528 0
M  V30 53 H 2.2492 -2.09911 -3.08207 0
M  V30 54 N 4.4343 0.785586 -1.36625 0
M  V30 55 C 5.3813 1.89838 -1.31264 0
M  V30 56 C 6.3513 1.65115 -0.180633 0
M  V30 57 O 7.5363 1.87222 -0.36777 0
M  V30 58 C 4.6763 3.26706 -1.11163 0
M  V30 59 C 3.7893 3.63476 -2.33472 0
M  V30 60 C 2.9243 4.89481 -2.06353 0
M  V30 61 C 1.9633 5.18941 -3.24602 0
M  V30 62 N 1.1003 6.36131 -2.97123 0
M  V30 63 H 5.9403 1.93756 -2.26413 0
M  V30 64 H 3.4773 0.947454 -1.12524 0
M  V30 65 H 5.4353 4.05639 -0.975337 0
M  V30 66 H 4.0653 3.222 -0.196674 0
M  V30 67 H 3.1173 2.79636 -2.57891 0
M  V30 68 H 4.4293 3.81193 -3.21704 0
M  V30 69 H 3.5833 5.76288 -1.89675 0
M  V30 70 H 2.3223 4.73841 -1.15437 0
M  V30 71 H 1.3273 4.30615 -3.41834 0
M  V30 72 H 2.5523 5.36498 -4.16349 0
M  V30 73 H 0.4983 6.21875 -2.08823 0
M  V30 74 H 0.4153 6.54198 -3.78894 0
M  V30 75 H 1.6833 7.2591 -2.84033 0
M  V30 76 N 5.9124 1.20967 1.01018 0
M  V30 77 C 7.1424 1.04803 1.78044 0
M  V30 78 C 7.5504 -0.405462 1.84804 0
M  V30 79 O 6.8934 -1.2932 1.30468 0
M  V30 80 C 6.9554 1.56377 3.23707 0
M  V30 81 C 6.6194 3.04767 3.40538 0
M  V30 82 C 7.6164 4.02366 3.29239 0
M  V30 83 C 5.3014 3.43862 3.66147 0
M  V30 84 C 7.2954 5.37049 3.43304 0
M  V30 85 C 4.9824 4.78699 3.79855 0
M  V30 86 C 5.9804 5.75101 3.68439 0
M  V30 87 O 5.6684 7.07493 3.81719 0
M  V30 88 H 5.4004 0.368778 0.56655 0
M  V30 89 H 7.9544 1.60642 1.27997 0
M  V30 90 H 6.1844 0.949297 3.74867 0
M  V30 91 H 7.8734 1.36136 3.8239 0
M  V30 92 H 8.6394 3.73506 3.09384 0
M  V30 93 H 4.5184 2.69364 3.74118 0
M  V30 94 H 8.0624 6.12277 3.34309 0
M  V30 95 H 3.9594 5.07247 3.99213 0
M  V30 96 H 4.7274 7.1483 3.98697 0
M  V30 97 N 7.3905 -1.2043 1.01659 0
M  V30 98 C 8.6395 -1.89118 0.701237 0
M  V30 99 C 8.9525 -1.79705 -0.772358 0
M  V30 100 O 10.1585 -2.43528 -1.20026 0
M  V30 101 C 8.6145 -3.39168 1.20388 0
M  V30 102 C 8.2225 -3.57166 2.70438 0
M  V30 103 C 9.9665 -4.1341 0.963953 0
M  V30 104 C 7.8735 -5.01042 3.14183 0
M  V30 105 H 6.8035 -0.708267 0.2586 0
M  V30 106 H 9.4545 -1.36239 1.22927 0
M  V30 107 H 7.8365 -3.91369 0.603824 0
M  V30 108 H 9.0105 -3.15351 3.35992 0
M  V30 109 H 7.3255 -2.96294 2.92572 0
M  V30 110 H 9.9225 -5.19491 1.26621 0
M  V30 111 H 10.2655 -4.16181 -0.099578 0
M  V30 112 H 10.7985 -3.67309 1.52738 0
M  V30 113 H 7.5375 -5.03426 4.19812 0
M  V30 114 H 7.0575 -5.43668 2.53348 0
M  V30 115 H 8.7365 -5.69623 3.0682 0
M  V30 116 N 8.8686 -0.792821 -1.36206 0
M  V30 117 C 10.1146 -0.36733 -1.99446 0
M  V30 118 C 10.4476 1.05917 -1.62774 0
M  V30 119 O 9.7226 1.7324 -0.88421 0
M  V30 120 C 10.0056 -0.535044 -3.56103 0
M  V30 121 C 9.8586 -2.00548 -4.02617 0
M  V30 122 C 11.1776 0.0478191 -4.40074 0
M  V30 123 H 8.2966 -0.134941 -0.724541 0
M  V30 124 H 10.9386 -0.999794 -1.61568 0
M  V30 125 H 9.0886 0.00336329 -3.885 0
M  V30 126 H 10.7606 -2.60521 -3.80692 0
M  V30 127 H 9.0036 -2.50686 -3.54032 0
M  V30 128 H 9.6746 -2.07377 -5.11565 0
M  V30 129 H 12.1506 -0.411822 -4.14057 0
M  V30 130 H 11.0266 -0.0995336 -5.4881 0
M  V30 131 H 11.2876 1.14025 -4.27142 0
M  V30 132 N 10.3467 1.47872 -0.545128 0
M  V30 133 C 11.5957 2.01695 -0.0145033 0
M  V30 134 C 11.9087 1.42609 1.33873 0
M  V30 135 O 13.1147 1.88021 1.95858 0
M  V30 136 C 11.5707 3.59892 0.0245068 0
M  V30 137 C 11.1787 4.27966 -1.32475 0
M  V30 138 C 12.9227 4.21507 0.50316 0
M  V30 139 C 10.8297 5.78136 -1.2455 0
M  V30 140 H 9.7597 0.753998 -0.00165172 0
M  V30 141 H 12.4107 1.69985 -0.691175 0
M  V30 142 H 10.7927 3.88509 0.766575 0
M  V30 143 H 11.9667 4.11003 -2.08357 0
M  V30 144 H 10.2817 3.78286 -1.74036 0
M  V30 145 H 12.8787 5.31538 0.580656 0
M  V30 146 H 13.2217 3.87855 1.51243 0
M  V30 147 H 13.7547 3.97376 -0.183681 0
M  V30 148 H 10.4937 6.16388 -2.23039 0
M  V30 149 H 10.0137 5.97469 -0.528282 0
M  V30 150 H 11.6927 6.40099 -0.942488 0
M  V30 151 N 11.8248 0.280983 1.55075 0
M  V30 152 C 12.7348 -0.61388 2.26426 0
M  V30 153 C 13.7508 -1.16521 1.29224 0
M  V30 154 O 14.9268 -1.19426 1.62171 0
M  V30 155 C 11.9918 -1.7788 2.9759 0
M  V30 156 C 11.0528 -1.26355 4.10284 0
M  V30 157 C 10.2858 -2.37295 4.78045 0
M  V30 158 O 10.5088 -3.56777 4.45047 0
M  V30 159 O 9.4428 -2.05119 5.65871 0
M  V30 160 H 13.2688 -0.0356932 3.03679 0
M  V30 161 H 10.8538 0.0481686 1.49322 0
M  V30 162 H 12.7358 -2.45791 3.42293 0
M  V30 163 H 11.4108 -2.34397 2.23249 0
M  V30 164 H 10.3178 -0.550735 3.70024 0
M  V30 165 H 11.6508 -0.744065 4.86543 0
M  V30 166 N 13.3029 -1.57598 0.00835791 0
M  V30 167 C 14.5509 -1.90551 -0.6734 0
M  V30 168 C 14.8719 -0.883301 -1.73847 0
M  V30 169 O 14.1419 0.0781442 -1.95744 0
M  V30 170 H 12.7219 -0.703312 -0.251717 0
M  V30 171 H 15.3839 -1.94833 0.0512592 0
M  V30 172 H 14.4799 -2.9056 -1.13935 0
M  V30 173 N 14.781 0.264519 -1.55364 0
M  V30 174 C 15.711 1.33121 -1.91836 0
M  V30 175 C 16.692 1.51101 -0.781192 0
M  V30 176 O 17.877 1.64003 -1.04003 0
M  V30 177 C 15.007 2.68921 -2.19769 0
M  V30 178 C 13.961 2.65661 -3.35571 0
M  V30 179 C 13.287 4.05093 -3.49004 0
M  V30 180 C 14.587 2.24187 -4.71739 0
M  V30 181 H 16.281 1.02844 -2.81182 0
M  V30 182 H 13.827 0.493286 -1.35287 0
M  V30 183 H 15.78 3.43663 -2.43872 0
M  V30 184 H 14.504 3.00799 -1.27231 0
M  V30 185 H 13.163 1.93377 -3.1145 0
M  V30 186 H 12.811 4.34206 -2.53917 0
M  V30 187 H 12.511 4.03804 -4.26868 0
M  V30 188 H 14.035 4.81561 -3.75408 0
M  V30 189 H 15.449 2.88654 -4.9533 0
M  V30 190 H 13.846 2.34044 -5.52579 0
M  V30 191 H 14.916 1.19327 -4.69988 0
M  V30 192 N 16.2591 1.48442 0.529413 0
M  V30 193 C 17.1691 1.6569 1.66084 0
M  V30 194 C 18.1851 0.539432 1.65427 0
M  V30 195 O 19.3611 0.810572 1.84368 0
M  V30 196 C 16.4261 1.69315 3.02545 0
M  V30 197 C 15.4871 2.92694 3.14052 0
M  V30 198 C 14.7201 2.96137 4.44003 0
M  V30 199 O 14.9431 2.07973 5.31134 0
M  V30 200 O 13.8771 3.88312 4.59888 0
M  V30 201 H 17.7031 2.61483 1.54469 0
M  V30 202 H 15.2881 1.3185 0.702567 0
M  V30 203 H 17.1701 1.74217 3.83701 0
M  V30 204 H 15.8451 0.766966 3.14483 0
M  V30 205 H 14.7521 2.93324 2.32189 0
M  V30 206 H 16.0851 3.84699 3.0703 0
M  V30 207 N 17.7372 -0.778329 1.37039 0
M  V30 208 C 18.9852 -1.53361 1.31623 0
M  V30 209 C 19.3062 -1.94739 -0.100831 0
M  V30 210 O 18.5762 -1.65797 -1.04347 0
M  V30 211 H 17.1562 -0.568794 0.484234 0
M  V30 212 H 19.8182 -0.926742 1.71457 0
M  V30 213 H 18.9142 -2.43606 1.95096 0
M  V30 214 N 19.2153 -1.21501 -1.00376 0
M  V30 215 C 20.1783 -0.976927 -2.07337 0
M  V30 216 C 21.1783 0.0525322 -1.60714 0
M  V30 217 O 22.3683 -0.184869 -1.73216 0
M  V30 218 C 19.5003 -0.473423 -3.37597 0
M  V30 219 H 20.6933 -1.92587 -2.29892 0
M  V30 220 H 18.2463 -1.03217 -1.17371 0
M  V30 221 H 18.9813 0.480379 -3.20722 0
M  V30 222 H 18.7663 -1.216 -3.72768 0
M  V30 223 H 20.2563 -0.32675 -4.1632 0
M  V30 224 N 20.6934 1.19889 -1.02296 0
M  V30 225 C 21.9414 1.89046 -0.714558 0
M  V30 226 C 22.2624 1.79636 0.758681 0
M  V30 227 O 21.5324 1.20292 1.54618 0
M  V30 228 H 20.1124 0.699802 -0.261317 0
M  V30 229 H 22.7744 1.45574 -1.29592 0
M  V30 230 H 21.8704 2.95524 -1.0036 0
M  V30 231 N 22.1715 0.800033 1.35784 0
M  V30 232 C 23.1185 0.203848 2.29898 0
M  V30 233 C 24.0885 -0.658375 1.52495 0
M  V30 234 O 25.2735 -0.604832 1.8096 0
M  V30 235 C 22.4135 -0.64688 3.38983 0
M  V30 236 C 21.5265 0.235054 4.3136 0
M  V30 237 C 20.6615 -0.623054 5.27533 0
M  V30 238 C 19.7005 0.259682 6.11549 0
M  V30 239 N 18.8375 -0.558019 6.99879 0
M  V30 240 H 23.6775 1.01186 2.80295 0
M  V30 241 H 21.2145 0.51053 1.37957 0
M  V30 242 H 23.1725 -1.15521 4.00887 0
M  V30 243 H 21.8025 -1.42021 2.89879 0
M  V30 244 H 20.8545 0.861438 3.70518 0
M  V30 245 H 22.1665 0.914768 4.9034 0
M  V30 246 H 21.3205 -1.19678 5.94779 0
M  V30 247 H 20.0595 -1.33636 4.69034 0
M  V30 248 H 19.0645 0.845726 5.43256 0
M  V30 249 H 20.2895 0.970748 6.72126 0
M  V30 250 H 18.2355 -1.25542 6.43875 0
M  V30 251 H 18.1525 0.0637872 7.55973 0
M  V30 252 H 19.4205 -1.11523 7.71481 0
M  V30 253 N 23.6496 -1.47581 0.552962 0
M  V30 254 C 24.8776 -2.06875 0.0320556 0
M  V30 255 C 25.2926 -1.40625 -1.25976 0
M  V30 256 O 24.6496 -0.501349 -1.75479 0
M  V30 257 C 24.7006 -3.61092 -0.17167 0
M  V30 258 O 24.4216 -4.24858 1.06899 0
M  V30 259 C 25.9226 -4.37242 -0.730344 0
M  V30 260 H 23.1426 -0.669561 0.043915 0
M  V30 261 H 25.6866 -1.89646 0.765163 0
M  V30 262 H 23.8416 -3.7785 -0.854894 0
M  V30 263 H 24.2556 -5.17334 0.864059 0
M  V30 264 H 25.7296 -5.45842 -0.822203 0
M  V30 265 H 26.2066 -4.03235 -1.74064 0
M  V30 266 H 26.8126 -4.25219 -0.0829543 0
M  V30 267 N 25.1277 -0.289203 -1.54924 0
M  V30 268 C 26.3557 0.326463 -2.04308 0
M  V30 269 C 26.7707 1.48413 -1.16701 0
M  V30 270 O 26.1277 1.81507 -0.190087 0
M  V30 271 C 26.1787 0.794014 -3.52672 0
M  V30 272 O 25.8997 -0.317564 -4.36948 0
M  V30 273 C 27.4007 1.47605 -4.18004 0
M  V30 274 H 24.6207 0.0726272 -0.667058 0
M  V30 275 H 27.1647 -0.425401 -2.00026 0
M  V30 276 H 25.3197 1.49593 -3.57352 0
M  V30 277 H 25.7337 0.0443186 -5.24481 0
M  V30 278 H 27.2077 1.75447 -5.23376 0
M  V30 279 H 27.6847 2.41224 -3.67025 0
M  V30 280 H 28.2907 0.81762 -4.17367 0
M  V30 281 N 26.6058 1.57591 -0.0167156 0
M  V30 282 C 27.5688 2.08393 0.954204 0
M  V30 283 C 28.5688 0.996531 1.26198 0
M  V30 284 O 29.7588 1.25858 1.20438 0
M  V30 285 C 26.8908 2.5394 2.27436 0
M  V30 286 H 28.0838 2.95455 0.514451 0
M  V30 287 H 25.6368 1.54582 0.231089 0
M  V30 288 H 26.3718 1.70171 2.76066 0
M  V30 289 H 26.1568 3.33371 2.06412 0
M  V30 290 H 27.6468 2.93512 2.97053 0
M  V30 291 N 28.0839 -0.256276 1.55502 0
M  V30 292 C 29.4999 -0.604325 1.47716 0
M  V30 293 C 29.6999 -1.88763 0.705039 0
M  V30 294 O 28.7559 -2.51445 0.230613 0
M  V30 295 C 30.0689 -0.715756 2.92057 0
M  V30 296 C 31.6169 -0.808706 3.02372 0
M  V30 297 C 32.0919 -0.951777 4.48001 0
M  V30 298 N 33.5829 -1.01688 4.519 0
M  V30 299 C 34.3179 -1.14668 5.61817 0
M  V30 300 N 33.8139 -1.24261 6.81565 0
M  V30 301 N 35.6069 -1.1791 5.49594 0
M  V30 302 H 27.7579 0.586291 2.04148 0
M  V30 303 H 30.0209 0.201015 0.926443 0
M  V30 304 H 29.7269 0.157027 3.51349 0
M  V30 305 H 29.6009 -1.59071 3.42018 0
M  V30 306 H 31.9879 -1.67195 2.43166 0
M  V30 307 H 32.0689 0.0912063 2.55637 0
M  V30 308 H 31.7129 -0.0931291 5.07815 0
M  V30 309 H 31.6429 -1.86659 4.92408 0
M  V30 310 H 34.1339 -0.954468 3.65648 0
M  V30 311 H 34.4469 -1.34046 7.61086 0
M  V30 312 H 32.7919 -1.21236 6.84344 0
M  V30 313 H 35.9829 -1.10057 4.54978 0
M  V30 314 H 36.1559 -1.27681 6.35296 0
M  V30 315 N 29.562 -1.4872 -0.521534 0
M  V30 316 C 30.51 -1.64328 -1.64618 0
M  V30 317 C 31.504 -0.50953 -1.61555 0
M  V30 318 O 32.71 -0.688525 -1.66311 0
M  V30 319 H 29.085 -0.517805 -0.545328 0
M  V30 320 H 31.056 -2.58767 -1.48601 0
M  V30 321 C 29.805 -1.70805 -3.02855 0
M  V30 322 H 29.128 -2.5741 -3.05909 0
M  V30 323 H 30.568 -1.85766 -3.81139 0
M  V30 324 C 29.027 -0.448479 -3.33902 0
M  V30 325 O 29.557 0.434928 -3.99339 0
M  V30 326 N 27.763 -0.317616 -2.88859 0
M  V30 327 H 27.31 -1.03748 -2.35784 0
M  V30 328 H 27.268 0.524113 -3.10001 0
M  V30 329 N 31.0401 0.771051 -1.3745 0
M  V30 330 C 32.2861 1.5319 -1.32894 0
M  V30 331 C 32.6191 1.94008 0.0862511 0
M  V30 332 O 31.8941 1.64124 1.04373 0
M  V30 333 C 32.1771 2.79648 -2.26868 0
M  V30 334 C 32.0301 2.45079 -3.77169 0
M  V30 335 C 33.3491 3.81583 -2.19277 0
M  V30 336 H 30.4681 0.555744 -0.484064 0
M  V30 337 H 33.1101 0.884492 -1.68157 0
M  V30 338 H 31.2601 3.34891 -1.96926 0
M  V30 339 H 32.9321 1.95745 -4.1771 0
M  V30 340 H 31.1751 1.77767 -3.95704 0
M  V30 341 H 31.8461 3.35478 -4.38359 0
M  V30 342 H 34.3221 3.35835 -2.45671 0
M  V30 343 H 33.1981 4.67787 -2.87171 0
M  V30 344 H 33.4591 4.25897 -1.18592 0
M  V30 345 N 32.5182 1.22032 0.997298 0
M  V30 346 C 33.7642 1.04376 1.73878 0
M  V30 347 C 34.0972 -0.420716 1.89588 0
M  V30 348 O 33.3722 -1.31202 1.43583 0
M  V30 349 C 33.6552 1.75047 3.14691 0
M  V30 350 C 33.5082 3.29062 3.06656 0
M  V30 351 C 34.8272 1.49928 4.13775 0
M  V30 352 H 31.9462 0.380578 0.631133 0
M  V30 353 H 34.5882 1.50312 1.16217 0
M  V30 354 H 32.7382 1.35996 3.63919 0
M  V30 355 H 34.4102 3.7753 2.65083 0
M  V30 356 H 32.6532 3.58967 2.43568 0
M  V30 357 H 33.3242 3.73683 4.06282 0
M  V30 358 H 35.8002 1.83842 3.73285 0
M  V30 359 H 34.6762 2.01878 5.10428 0
M  V30 360 H 34.9372 0.430929 4.39995 0
M  V30 361 N 33.9963 -1.19345 1.0293 0
M  V30 362 C 35.2423 -1.89318 0.727083 0
M  V30 363 C 35.5753 -1.79446 -0.742483 0
M  V30 364 O 34.8503 -1.1871 -1.54072 0
M  V30 365 C 35.1333 -3.40238 1.17942 0
M  V30 366 C 34.9863 -3.58979 2.71024 0
M  V30 367 C 36.3053 -4.33479 0.760548 0
M  V30 368 H 33.4243 -0.687475 0.265606 0
M  V30 369 H 36.0663 -1.40477 1.2793 0
M  V30 370 H 34.2163 -3.81964 0.709608 0
M  V30 371 H 35.8883 -3.26421 3.25955 0
M  V30 372 H 34.1313 -3.02018 3.11396 0
M  V30 373 H 34.8023 -4.64823 2.9773 0
M  V30 374 H 37.2783 -3.99469 1.16464 0
M  V30 375 H 36.1543 -5.37664 1.10493 0
M  V30 376 H 36.4153 -4.40813 -0.337063 0
M  V30 377 N 35.4744 -0.807222 -1.35358 0
M  V30 378 C 36.3844 -0.219594 -2.3357 0
M  V30 379 C 37.4004 0.637734 -1.61892 0
M  V30 380 O 38.5764 0.549336 -1.93763 0
M  V30 381 C 35.6414 0.62158 -3.41083 0
M  V30 382 C 34.7024 -0.256315 -4.28534 0
M  V30 383 C 33.9354 0.544807 -5.30912 0
M  V30 384 O 34.1584 1.77944 -5.41934 0
M  V30 385 O 33.0924 -0.0646478 -6.01865 0
M  V30 386 H 36.9184 -1.03208 -2.85625 0
M  V30 387 H 34.5034 -0.569025 -1.38139 0
M  V30 388 H 36.3854 1.10067 -4.06772 0
M  V30 389 H 35.0604 1.41165 -2.91297 0
M  V30 390 H 33.9674 -0.782559 -3.65823 0
M  V30 391 H 35.3004 -1.01034 -4.81719 0
M  V30 392 N 36.9525 1.47285 -0.560781 0
M  V30 393 C 38.1805 2.06855 -0.0430262 0
M  V30 394 C 38.5955 1.41291 1.25229 0
M  V30 395 O 37.9525 0.510648 1.7521 0
M  V30 396 C 38.0035 3.61178 0.152518 0
M  V30 397 O 37.7245 4.24285 -1.0915 0
M  V30 398 C 39.2255 4.37624 0.707145 0
M  V30 399 H 36.4455 0.669319 -0.0474652 0
M  V30 400 H 38.9895 1.89237 -0.77521 0
M  V30 401 H 37.1445 3.78298 0.834843 0
M  V30 402 H 37.5585 5.16868 -0.891482 0
M  V30 403 H 39.0325 5.46271 0.793244 0
M  V30 404 H 39.5095 4.04152 1.71923 0
M  V30 405 H 40.1155 4.25257 0.0604027 0
M  V30 406 N 38.4306 0.297415 1.54768 0
M  V30 407 C 39.3606 -0.573494 2.26348 0
M  V30 408 C 40.3416 -1.14085 1.26169 0
M  V30 409 O 41.5266 -1.17086 1.54934 0
M  V30 410 C 38.6566 -1.74716 3.00153 0
M  V30 411 C 37.6106 -1.31032 4.07449 0
M  V30 412 C 36.9366 -2.56887 4.68949 0
M  V30 413 C 38.2366 -0.444183 5.20408 0
M  V30 414 H 39.9306 0.0235131 2.99391 0
M  V30 415 H 37.4766 0.0127488 1.43994 0
M  V30 416 H 39.4296 -2.3625 3.48947 0
M  V30 417 H 38.1536 -2.37035 2.24682 0
M  V30 418 H 36.8126 -0.718066 3.59499 0
M  V30 419 H 36.4606 -3.17512 3.90122 0
M  V30 420 H 36.1606 -2.2836 5.41411 0
M  V30 421 H 37.6846 -3.19229 5.20505 0
M  V30 422 H 39.0986 -0.9651 5.65118 0
M  V30 423 H 37.4956 -0.252846 5.99567 0
M  V30 424 H 38.5656 0.531609 4.81977 0
M  V30 425 N 39.9087 -1.5758 0.0250728 0
M  V30 426 C 40.8187 -2.1343 -0.973905 0
M  V30 427 C 41.8347 -1.08556 -1.35984 0
M  V30 428 O 43.0107 -1.40592 -1.44207 0
M  V30 429 C 40.0757 -2.64703 -2.23904 0
M  V30 430 C 39.1367 -3.84276 -1.91391 0
M  V30 431 C 38.3697 -4.33095 -3.11873 0
M  V30 432 O 38.5927 -3.81107 -4.24398 0
M  V30 433 O 37.5267 -5.24984 -2.94406 0
M  V30 434 H 41.3527 -2.99057 -0.529036 0
M  V30 435 H 38.9377 -1.48118 -0.195288 0
M  V30 436 H 40.8197 -2.97769 -2.98181 0
M  V30 437 H 39.4947 -1.82161 -2.6758 0
M  V30 438 H 38.4017 -3.56143 -1.14511 0
M  V30 439 H 39.7347 -4.67968 -1.52534 0
M  V30 440 N 41.3868 0.248026 -1.55636 0
M  V30 441 C 42.3188 1.32993 -1.8667 0
M  V30 442 C 43.3318 1.44345 -0.752877 0
M  V30 443 O 44.5208 1.45715 -1.03098 0
M  V30 444 C 41.6208 2.70863 -2.03682 0
M  V30 445 C 40.7938 2.81792 -3.34532 0
M  V30 446 C 39.8528 4.005 -3.41301 0
M  V30 447 O 38.8788 3.9008 -4.14519 0
M  V30 448 N 40.0808 5.13618 -2.70512 0
M  V30 449 H 42.8458 1.06707 -2.8006 0
M  V30 450 H 40.4068 0.438129 -1.55859 0
M  V30 451 H 42.3988 3.48612 -2.05553 0
M  V30 452 H 40.9688 2.89862 -1.17041 0
M  V30 453 H 40.1888 1.90729 -3.44987 0
M  V30 454 H 41.4768 2.86043 -4.20781 0
M  V30 455 H 40.8748 5.24975 -2.10755 0
M  V30 456 H 39.4318 5.89505 -2.78077 0
M  V30 457 N 42.8649 1.48995 0.513639 0
M  V30 458 C 43.7949 1.67636 1.62544 0
M  V30 459 C 44.7759 0.525087 1.61793 0
M  V30 460 O 45.9609 0.759502 1.78732 0
M  V30 461 C 43.0909 1.73114 3.01079 0
M  V30 462 C 42.0449 2.87905 3.16693 0
M  V30 463 C 41.3709 2.78486 4.56453 0
M  V30 464 C 42.6709 4.29005 2.97913 0
M  V30 465 H 44.3649 2.60716 1.47198 0
M  V30 466 H 41.9109 1.25465 0.706714 0
M  V30 467 H 43.8639 1.84742 3.78746 0
M  V30 468 H 42.5879 0.766241 3.17484 0
M  V30 469 H 41.2469 2.75859 2.41448 0
M  V30 470 H 40.8949 1.7993 4.69717 0
M  V30 471 H 40.5949 3.55523 4.67843 0
M  V30 472 H 42.1189 2.92104 5.36197 0
M  V30 473 H 43.5329 4.41798 3.65359 0
M  V30 474 H 41.9299 5.07166 3.20785 0
M  V30 475 H 42.9999 4.44329 1.94165 0
M  V30 476 N 44.343 -0.763751 1.37857 0
M  V30 477 C 45.591 -1.51957 1.33243 0
M  V30 478 C 45.912 -1.94835 -0.0801709 0
M  V30 479 O 45.182 -1.66894 -1.02582 0
M  V30 480 H 43.762 -0.563626 0.49024 0
M  V30 481 H 46.424 -0.908504 1.7243 0
M  V30 482 H 45.52 -2.41523 1.97669 0
M  V30 483 N 45.8211 -1.22559 -0.990812 0
M  V30 484 C 47.0701 -1.04553 -1.72486 0
M  V30 485 C 47.3831 0.419349 -1.91052 0
M  V30 486 O 48.5891 0.719121 -2.61803 0
M  V30 487 C 47.0451 -1.82231 -3.10355 0
M  V30 488 C 46.6531 -3.32981 -2.99713 0
M  V30 489 C 48.3971 -1.7268 -3.87791 0
M  V30 490 C 46.3041 -4.03091 -4.32748 0
M  V30 491 H 45.2341 -0.387614 -0.646739 0
M  V30 492 H 47.8851 -1.46429 -1.10593 0
M  V30 493 H 46.2671 -1.33155 -3.72942 0
M  V30 494 H 47.4411 -3.89466 -2.46278 0
M  V30 495 H 45.7561 -3.43231 -2.35758 0
M  V30 496 H 48.3531 -2.22381 -4.86262 0
M  V30 497 H 48.6961 -0.687607 -4.10582 0
M  V30 498 H 49.2291 -2.1931 -3.31885 0
M  V30 499 H 45.9681 -5.07273 -4.15156 0
M  V30 500 H 45.4881 -3.51394 -4.86089 0
M  V30 501 H 47.1671 -4.08804 -5.01486 0
M  V30 502 N 47.2992 1.18797 -1.03562 0
M  V30 503 C 48.7152 1.40671 -0.753917 0
M  V30 504 C 48.9152 1.9043 0.658686 0
M  V30 505 O 47.9712 2.08538 1.42366 0
M  V30 506 C 49.2842 2.41192 -1.79574 0
M  V30 507 C 50.8322 2.54928 -1.81606 0
M  V30 508 C 51.3072 3.58709 -2.84766 0
M  V30 509 N 52.7982 3.66212 -2.83625 0
M  V30 510 C 53.5332 4.46225 -3.60098 0
M  V30 511 N 53.0292 5.29888 -4.46308 0
M  V30 512 N 54.8222 4.40939 -3.4861 0
M  V30 513 H 46.9732 0.848221 -1.94728 0
M  V30 514 H 49.2362 0.435081 -0.842264 0
M  V30 515 H 48.9422 2.11669 -2.80872 0
M  V30 516 H 48.8162 3.40467 -1.62365 0
M  V30 517 H 51.2032 2.83771 -0.809817 0
M  V30 518 H 51.2842 1.55784 -2.02891 0
M  V30 519 H 50.9282 3.30607 -3.85566 0
M  V30 520 H 50.8582 4.57519 -2.60737 0
M  V30 521 H 53.3492 3.06466 -2.21105 0
M  V30 522 H 53.6622 5.88078 -5.01382 0
M  V30 523 H 52.0072 5.29326 -4.50377 0
M  V30 524 H 55.1982 3.74624 -2.80668 0
M  V30 525 H 55.3712 5.03056 -4.08459 0
M  V30 526 N 48.7773 0.814389 1.34928 0
M  V30 527 C 50.0543 0.321363 1.92942 0
M  V30 528 C 50.4343 -1.19014 1.74353 0
M  V30 529 O 49.7823 -1.99328 1.11716 0
M  V30 530 C 49.9923 0.741323 3.41036 0
M  V30 531 C 51.3403 0.735266 4.18185 0
M  V30 532 O 52.3643 0.68336 3.49584 0
M  V30 533 O 51.2233 0.800703 5.40602 0
M  V30 534 H 48.3173 0.0858893 0.822528 0
M  V30 535 H 50.8633 0.898609 1.43955 0
M  V30 536 H 49.6353 1.78276 3.4833 0
M  V30 537 H 49.2583 0.139307 3.97356 0
M  V30 538 N 50.2554 -1.46986 0.568584 0
M  V30 539 C 51.1884 -2.27129 -0.220779 0
M  V30 540 C 52.1664 -1.34757 -0.909905 0
M  V30 541 O 53.3504 -1.64152 -0.926622 0
M  V30 542 C 50.4774 -3.12108 -1.31553 0
M  V30 543 C 49.5234 -4.20141 -0.733748 0
M  V30 544 S 50.3564 -5.33783 0.428479 0
M  V30 545 C 51.5124 -6.22327 -0.667811 0
M  V30 546 H 51.7454 -2.93731 0.459267 0
M  V30 547 H 49.2784 -1.5026 0.355154 0
M  V30 548 H 51.2364 -3.61636 -1.94241 0
M  V30 549 H 49.8974 -2.44847 -1.96746 0
M  V30 550 H 49.0904 -4.79373 -1.5562 0
M  V30 551 H 48.6924 -3.73553 -0.182812 0
M  V30 552 H 50.9844 -6.59364 -1.55708 0
M  V30 553 H 51.9274 -7.0801 -0.11258 0
M  V30 554 H 52.3354 -5.5618 -0.965601 0
M  V30 555 N 51.7335 -0.305618 -1.54608 0
M  V30 556 C 52.9795 0.302746 -2.00528 0
M  V30 557 C 53.3125 1.53184 -1.19367 0
M  V30 558 O 52.5875 1.92598 -0.271321 0
M  V30 559 C 52.8705 0.654756 -3.54097 0
M  V30 560 C 52.7235 -0.583793 -4.45995 0
M  V30 561 C 54.0425 1.47947 -4.14487 0
M  V30 562 H 51.1615 0.108564 -0.72896 0
M  V30 563 H 53.8035 -0.418634 -1.85331 0
M  V30 564 H 51.9535 1.26935 -3.67178 0
M  V30 565 H 53.6255 -1.22224 -4.44814 0
M  V30 566 H 51.8685 -1.21615 -4.16404 0
M  V30 567 H 52.5395 -0.293287 -5.5122 0
M  V30 568 H 55.0155 0.96013 -4.04871 0
M  V30 569 H 53.8915 1.69454 -5.22088 0
M  V30 570 H 54.1525 2.47011 -3.66658 0
M  V30 571 N 53.2116 1.57565 -0.0334293 0
M  V30 572 C 54.4586 1.91978 0.644272 0
M  V30 573 C 54.7866 0.910231 1.71887 0
M  V30 574 O 54.0416 -0.0801961 1.95536 0
M  V30 575 C 54.3406 3.33112 1.29504 0
M  V30 576 C 54.0066 4.49537 0.350388 0
M  V30 577 C 52.6686 4.81115 0.0903974 0
M  V30 578 C 55.0206 5.20347 -0.298032 0
M  V30 579 C 52.3486 5.8086 -0.825746 0
M  V30 580 C 54.7006 6.2107 -1.20226 0
M  V30 581 C 53.3646 6.51088 -1.4711 0
M  V30 582 H 52.6346 0.702496 0.235756 0
M  V30 583 H 55.2816 1.91259 -0.0961176 0
M  V30 584 H 53.5866 3.30113 2.11028 0
M  V30 585 H 55.2836 3.57011 1.82603 0
M  V30 586 H 51.8736 4.24883 0.563205 0
M  V30 587 H 56.0576 4.96178 -0.110234 0
M  V30 588 H 51.3136 6.02461 -1.04169 0
M  V30 589 H 55.4876 6.75057 -1.71086 0
M  V30 590 H 53.1146 7.28193 -2.18264 0
M  V30 591 N 54.6897 -0.239769 1.55765 0
M  V30 592 C 55.9177 -0.98417 1.81994 0
M  V30 593 C 56.3327 -1.7867 0.610124 0
M  V30 594 O 55.6897 -1.77571 -0.421271 0
M  V30 595 C 55.7407 -1.91635 3.06526 0
M  V30 596 O 55.4617 -1.14629 4.22838 0
M  V30 597 C 56.9627 -2.77616 3.45607 0
M  V30 598 H 54.1827 -0.28928 0.605441 0
M  V30 599 H 56.7267 -0.260499 2.02834 0
M  V30 600 H 54.8817 -2.5942 2.87715 0
M  V30 601 H 55.2957 -1.77745 4.93464 0
M  V30 602 H 56.7697 -3.38759 4.35828 0
M  V30 603 H 57.2467 -3.4909 2.6652 0
M  V30 604 H 57.8527 -2.15271 3.66795 0
M  V30 605 N 56.1678 -1.49265 -0.50573 0
M  V30 606 C 57.5838 -1.35923 -0.836486 0
M  V30 607 C 57.7838 -0.388704 -1.97715 0
M  V30 608 O 56.8398 0.181336 -2.51848 0
M  V30 609 C 58.1528 -2.76531 -1.18115 0
M  V30 610 C 59.7008 -2.85197 -1.28964 0
M  V30 611 C 60.1758 -4.26561 -1.66761 0
M  V30 612 N 61.6668 -4.2935 -1.73819 0
M  V30 613 C 62.4018 -5.35693 -2.045 0
M  V30 614 N 61.8978 -6.52287 -2.33438 0
M  V30 615 N 63.6908 -5.23105 -2.05711 0
M  V30 616 H 55.8418 -2.10965 0.246519 0
M  V30 617 H 58.1048 -0.9468 0.0476887 0
M  V30 618 H 57.8108 -3.49226 -0.416398 0
M  V30 619 H 57.6848 -3.11599 -2.1257 0
M  V30 620 H 60.0718 -2.12742 -2.04511 0
M  V30 621 H 60.1528 -2.53718 -0.325704 0
M  V30 622 H 59.7968 -4.99541 -0.917656 0
M  V30 623 H 59.7268 -4.55502 -2.64246 0
M  V30 624 H 62.2178 -3.4526 -1.53635 0
M  V30 625 H 62.5308 -7.29158 -2.56024 0
M  V30 626 H 60.8758 -6.55521 -2.30905 0
M  V30 627 H 64.0668 -4.31026 -1.82577 0
M  V30 628 H 64.2398 -6.06078 -2.29289 0
M  V30 629 N 57.6459 0.756429 -1.3826 0
M  V30 630 C 58.5559 1.9009 -1.37488 0
M  V30 631 C 59.5719 1.71855 -0.272366 0
M  V30 632 O 60.7479 1.94827 -0.510318 0
M  V30 633 C 57.8129 3.25421 -1.19592 0
M  V30 634 C 56.8739 3.56202 -2.39622 0
M  V30 635 C 56.1069 4.85075 -2.2257 0
M  V30 636 O 56.3299 5.57246 -1.21793 0
M  V30 637 O 55.2639 5.15269 -3.11098 0
M  V30 638 H 59.0899 1.93695 -2.33914 0
M  V30 639 H 56.6749 0.901313 -1.1915 0
M  V30 640 H 58.5569 4.06337 -1.11661 0
M  V30 641 H 57.2319 3.22634 -0.262486 0
M  V30 642 H 56.1389 2.75458 -2.53128 0
M  V30 643 H 57.4719 3.63747 -3.31586 0
M  V30 644 N 59.124 1.23083 0.984299 0
M  V30 645 C 60.535 1.05609 1.5396 0
M  V30 646 C 60.886 -0.377793 1.92528 0
M  V30 647 O 60.011 -1.26398 1.75649 0
M  V30 648 C 60.606 1.91087 2.7977 0
M  V30 649 C 59.165 1.77885 3.31713 0
M  V30 650 C 58.312 1.87028 2.04733 0
M  V30 651 H 61.263 1.36802 0.804419 0
M  V30 652 H 61.284 1.43336 3.5247 0
M  V30 653 H 60.796 2.9544 2.51668 0
M  V30 654 H 58.897 0.762995 3.64704 0
M  V30 655 H 59.01 2.61047 4.01735 0
M  V30 656 H 57.374 1.30565 2.18689 0
M  V30 657 H 58.157 2.92929 1.79017 0
M  V30 658 N 60.6021 -1.18246 1.0419 0
M  V30 659 C 61.8501 -1.87886 0.744543 0
M  V30 660 C 62.1711 -1.8082 -0.730006 0
M  V30 661 O 61.4411 -1.22736 -1.52685 0
M  V30 662 H 60.0211 -0.695556 0.272417 0
M  V30 663 H 62.6831 -1.43494 1.31892 0
M  V30 664 H 61.7791 -2.9389 1.05049 0
M  V30 665 N 62.0802 -0.821533 -1.34494 0
M  V30 666 C 63.3282 -0.408139 -1.97936 0
M  V30 667 C 63.6492 1.03193 -1.65457 0
M  V30 668 O 62.9192 1.71622 -0.944595 0
M  V30 669 H 61.4992 -0.147928 -0.732206 0
M  V30 670 H 64.1612 -1.05067 -1.64155 0
M  V30 671 H 63.2572 -0.52601 -3.07635 0
M  V30 672 N 63.5583 1.46682 -0.576371 0
M  V30 673 C 64.7863 2.06798 -0.0649635 0
M  V30 674 C 65.2013 1.42612 1.23723 0
M  V30 675 O 64.5583 0.529203 1.74659 0
M  V30 676 C 64.6093 3.6132 0.114202 0
M  V30 677 O 64.3303 4.23104 -1.13644 0
M  V30 678 C 65.8313 4.38349 0.66069 0
M  V30 679 H 63.0513 0.668778 -0.0545616 0
M  V30 680 H 65.5953 1.88404 -0.795237 0
M  V30 681 H 63.7503 3.79162 0.794673 0
M  V30 682 H 64.1643 5.15894 -0.946253 0
M  V30 683 H 65.6383 5.47081 0.73526 0
M  V30 684 H 66.1153 4.05953 1.67627 0
M  V30 685 H 66.7213 4.25297 0.0152951 0
M  V30 686 N 65.0364 0.313813 1.54444 0
M  V30 687 C 65.9684 -0.590425 2.21465 0
M  V30 688 C 66.9814 -1.08753 1.21147 0
M  V30 689 O 68.1704 -1.00278 1.4767 0
M  V30 690 C 65.2704 -1.82179 2.85769 0
M  V30 691 C 64.4434 -1.46502 4.12136 0
M  V30 692 C 63.5024 -2.55288 4.60124 0
M  V30 693 O 62.5284 -2.19842 5.25032 0
M  V30 694 N 63.7304 -3.86053 4.33525 0
M  V30 695 H 66.4954 -0.0166033 2.99695 0
M  V30 696 H 64.0564 0.136578 1.61323 0
M  V30 697 H 66.0484 -2.54328 3.14801 0
M  V30 698 H 64.6184 -2.30369 2.11303 0
M  V30 699 H 63.8384 -0.575595 3.89975 0
M  V30 700 H 65.1264 -1.20221 4.94393 0
M  V30 701 H 64.5244 -4.17654 3.81552 0
M  V30 702 H 63.0814 -4.54461 4.67235 0
M  V30 703 N 66.5145 -1.57545 0.0417849 0
M  V30 704 C 67.4445 -2.14009 -0.933929 0
M  V30 705 C 68.4255 -1.05938 -1.33083 0
M  V30 706 O 69.6105 -1.33833 -1.40721 0
M  V30 707 C 66.7405 -2.67747 -2.21199 0
M  V30 708 C 65.6945 -3.80718 -1.95544 0
M  V30 709 C 65.0205 -4.20935 -3.29724 0
M  V30 710 C 66.3205 -5.06258 -1.28452 0
M  V30 711 H 68.0145 -2.95788 -0.463645 0
M  V30 712 H 65.5605 -1.42285 -0.221573 0
M  V30 713 H 67.5135 -3.05886 -2.89848 0
M  V30 714 H 66.2375 -1.83147 -2.70416 0
M  V30 715 H 64.8965 -3.43037 -1.2931 0
M  V30 716 H 64.5445 -3.33298 -3.76724 0
M  V30 717 H 64.2445 -4.9707 -3.13361 0
M  V30 718 H 65.7685 -4.61666 -3.9962 0
M  V30 719 H 67.1825 -5.41903 -1.8712 0
M  V30 720 H 65.5795 -5.87475 -1.22445 0
M  V30 721 H 66.6495 -4.84207 -0.259219 0
M  V30 722 N 67.9926 0.231505 -1.5589 0
M  V30 723 C 68.9556 1.27028 -1.90779 0
M  V30 724 C 69.9556 1.40308 -0.785507 0
M  V30 725 O 71.1456 1.38744 -1.05336 0
M  V30 726 C 68.2776 2.64566 -2.14983 0
M  V30 727 H 69.4706 0.973017 -2.83677 0
M  V30 728 H 67.0236 0.471486 -1.49019 0
M  V30 729 H 67.7586 2.99406 -1.24604 0
M  V30 730 H 67.5436 2.56305 -2.96732 0
M  V30 731 H 69.0336 3.39543 -2.43105 0
M  V30 732 N 69.4707 1.49531 0.497807 0
M  V30 733 C 70.3807 1.69176 1.62532 0
M  V30 734 C 71.3967 0.5744 1.64246 0
M  V30 735 O 72.5727 0.849497 1.82608 0
M  V30 736 C 69.6377 1.75695 2.98885 0
M  V30 737 C 68.6987 2.9929 3.07773 0
M  V30 738 C 67.9317 3.05488 4.37622 0
M  V30 739 O 68.1547 2.19192 5.26603 0
M  V30 740 O 67.0887 3.9798 4.51548 0
M  V30 741 H 70.9147 2.647 1.48887 0
M  V30 742 H 68.4997 1.3331 0.674441 0
M  V30 743 H 70.3817 1.82317 3.79919 0
M  V30 744 H 69.0567 0.8335 3.12785 0
M  V30 745 H 67.9637 2.98183 2.25915 0
M  V30 746 H 69.2967 3.91125 2.98801 0
M  V30 747 N 70.9488 -0.749086 1.3866 0
M  V30 748 C 71.8958 -1.86291 1.36251 0
M  V30 749 C 72.8658 -1.64578 0.224347 0
M  V30 750 O 74.0508 -1.86181 0.417279 0
M  V30 751 C 71.1908 -3.23644 1.19786 0
M  V30 752 C 70.3038 -3.57158 2.43027 0
M  V30 753 C 69.4388 -4.83838 2.19258 0
M  V30 754 C 68.4778 -5.10152 3.38247 0
M  V30 755 N 67.6148 -6.28029 3.13884 0
M  V30 756 H 72.4548 -1.87685 2.3147 0
M  V30 757 H 69.9918 -0.917287 1.14997 0
M  V30 758 H 71.9498 -4.0291 1.08254 0
M  V30 759 H 70.5798 -3.21566 0.282031 0
M  V30 760 H 69.6318 -2.72701 2.65214 0
M  V30 761 H 70.9438 -3.7253 3.31697 0
M  V30 762 H 70.0978 -5.71057 2.04888 0
M  V30 763 H 68.8368 -4.70614 1.2796 0
M  V30 764 H 67.8418 -4.21401 3.53131 0
M  V30 765 H 69.0668 -5.25271 4.30427 0
M  V30 766 H 67.0128 -6.1612 2.25238 0
M  V30 767 H 66.9298 -6.43922 3.96106 0
M  V30 768 H 68.1978 -7.18124 3.03179 0
M  V30 769 N 72.4269 -1.23603 -0.977757 0
M  V30 770 C 73.3569 -1.04401 -2.0886 0
M  V30 771 C 74.3379 0.0399052 -1.70053 0
M  V30 772 O 75.5229 -0.125246 -1.93796 0
M  V30 773 C 72.6529 -0.637269 -3.41403 0
M  V30 774 C 71.6069 -1.66883 -3.94124 0
M  V30 775 C 70.9329 -1.11745 -5.22893 0
M  V30 776 C 72.2329 -3.06247 -4.23096 0
M  V30 777 H 73.9269 -1.97316 -2.25182 0
M  V30 778 H 71.4729 -0.950096 -1.08209 0
M  V30 779 H 73.4259 -0.48998 -4.18542 0
M  V30 780 H 72.1499 0.327557 -3.24953 0
M  V30 781 H 70.8089 -1.80416 -3.19133 0
M  V30 782 H 70.4569 -0.143527 -5.02795 0
M  V30 783 H 70.1569 -1.80672 -5.59134 0
M  V30 784 H 71.6809 -0.982067 -6.02651 0
M  V30 785 H 73.0949 -2.96001 -4.90975 0
M  V30 786 H 71.4919 -3.72436 -4.70544 0
M  V30 787 H 72.5619 -3.55041 -3.30263 0
M  V30 788 N 73.905 1.17692 -1.04816 0
M  V30 789 C 75.321 1.39863 -0.768794 0
M  V30 790 C 75.521 1.91118 0.638451 0
M  V30 791 O 74.577 2.10036 1.40146 0
M  V30 792 C 75.89 2.39274 -1.82122 0
M  V30 793 C 77.438 2.52987 -1.843 0
M  V30 794 C 77.913 3.55669 -2.88555 0
M  V30 795 N 79.404 3.63183 -2.87493 0
M  V30 796 C 80.139 4.42381 -3.64811 0
M  V30 797 N 79.635 5.25125 -4.51903 0
M  V30 798 N 81.428 4.37217 -3.53267 0
M  V30 799 H 73.579 0.82752 -1.95617 0
M  V30 800 H 75.842 0.426123 -0.846831 0
M  V30 801 H 75.548 2.08678 -2.83102 0
M  V30 802 H 75.422 3.38725 -1.65967 0
M  V30 803 H 77.809 2.82896 -0.839869 0
M  V30 804 H 77.89 1.53623 -2.04532 0
M  V30 805 H 77.534 3.26499 -3.89051 0
M  V30 806 H 77.464 4.54728 -2.65575 0
M  V30 807 H 79.955 3.04103 -2.24343 0
M  V30 808 H 80.268 5.82728 -5.07591 0
M  V30 809 H 78.613 5.24519 -4.55966 0
M  V30 810 H 81.804 3.71626 -2.84625 0
M  V30 811 H 81.977 4.98696 -4.13771 0
M  V30 812 N 75.3831 0.828654 1.34056 0
M  V30 813 C 76.6081 0.431637 2.02859 0
M  V30 814 C 77.0331 -0.956339 1.61975 0
M  V30 815 O 76.3911 -1.62338 0.807228 0
M  V30 816 C 76.4391 0.548323 3.56407 0
M  V30 817 O 75.5431 -0.429556 4.10157 0
M  V30 818 H 74.8841 0.176886 0.640006 0
M  V30 819 H 77.4141 1.12066 1.71179 0
M  V30 820 H 77.4241 0.426196 4.05768 0
M  V30 821 H 76.0991 1.5606 3.8551 0
M  V30 822 H 74.6761 -0.265836 3.71951 0
M  V30 823 N 76.8612 -1.46375 0.584142 0
M  V30 824 C 77.7912 -2.33103 -0.136037 0
M  V30 825 C 78.7722 -1.45431 -0.882255 0
M  V30 826 O 79.9572 -1.74246 -0.857434 0
M  V30 827 C 77.0872 -3.27731 -1.14933 0
M  V30 828 C 76.0412 -4.24855 -0.517862 0
M  V30 829 C 75.3672 -5.09001 -1.63773 0
M  V30 830 C 76.6672 -5.19439 0.545886 0
M  V30 831 H 78.3612 -2.93568 0.588086 0
M  V30 832 H 75.9072 -1.41166 0.284259 0
M  V30 833 H 77.8602 -3.87261 -1.66153 0
M  V30 834 H 76.5842 -2.65377 -1.90375 0
M  V30 835 H 75.2432 -3.6659 -0.0267361 0
M  V30 836 H 74.8912 -4.43031 -2.38185 0
M  V30 837 H 74.5912 -5.74777 -1.22085 0
M  V30 838 H 76.1152 -5.71396 -2.15266 0
M  V30 839 H 77.5292 -5.73177 0.118704 0
M  V30 840 H 75.9262 -5.93566 0.88317 0
M  V30 841 H 76.9962 -4.63285 1.43162 0
M  V30 842 N 78.3393 -0.321999 -1.54275 0
M  V30 843 C 79.5853 0.281461 -2.00837 0
M  V30 844 C 79.9183 1.51909 -1.20985 0
M  V30 845 O 79.1933 1.923 -0.291733 0
M  V30 846 C 79.4763 0.617162 -3.54772 0
M  V30 847 C 79.3293 -0.631064 -4.45351 0
M  V30 848 C 80.6483 1.43542 -4.16033 0
M  V30 849 H 77.7673 0.100826 -0.730071 0
M  V30 850 H 80.4093 -0.438268 -1.84876 0
M  V30 851 H 78.5593 1.23034 -3.68504 0
M  V30 852 H 80.2313 -1.26934 -4.43492 0
M  V30 853 H 78.4743 -1.26025 -4.15091 0
M  V30 854 H 79.1453 -0.351735 -5.50878 0
M  V30 855 H 81.6213 0.917134 -4.05867 0
M  V30 856 H 80.4973 1.63907 -5.23856 0
M  V30 857 H 80.7583 2.43108 -3.69257 0
M  V30 858 N 79.8174 1.5752 -0.0501392 0
M  V30 859 C 80.7474 2.14502 0.922566 0
M  V30 860 C 81.7284 1.06642 1.3252 0
M  V30 861 O 82.9134 1.34577 1.4001 0
M  V30 862 C 80.0434 2.68916 2.19776 0
M  V30 863 C 78.9974 3.8175 1.93523 0
M  V30 864 C 78.3234 4.22677 3.27487 0
M  V30 865 C 79.6234 5.06932 1.25765 0
M  V30 866 H 81.3174 2.9603 0.447952 0
M  V30 867 H 78.8634 1.42401 0.214024 0
M  V30 868 H 80.8164 3.07419 2.88222 0
M  V30 869 H 79.5404 1.84578 2.69441 0
M  V30 870 H 78.1994 3.43718 1.27489 0
M  V30 871 H 77.8474 3.35291 3.74952 0
M  V30 872 H 77.5474 4.98725 3.1072 0
M  V30 873 H 79.0714 4.63779 3.97166 0
M  V30 874 H 80.4854 5.42888 1.84244 0
M  V30 875 H 78.8824 5.88116 1.19328 0
M  V30 876 H 79.9524 4.84337 0.233536 0
M  V30 877 N 81.2955 -0.223234 1.56011 0
M  V30 878 C 82.5725 -0.972108 1.69733 0
M  V30 879 C 82.9525 -2.02485 0.59691 0
M  V30 880 O 82.3005 -2.25037 -0.396324 0
M  V30 881 C 82.5105 -1.58407 3.10979 0
M  V30 882 C 83.8585 -2.07696 3.70334 0
M  V30 883 O 84.8825 -1.68304 3.1393 0
M  V30 884 O 83.7415 -2.80096 4.69264 0
M  V30 885 H 80.8355 -0.453993 0.691245 0
M  V30 886 H 83.3815 -0.215149 1.68331 0
M  V30 887 H 82.1535 -0.823831 3.82529 0
M  V30 888 H 81.7765 -2.40661 3.16493 0
M  V30 889 N 82.7736 -1.49793 -0.48987 0
M  V30 890 C 84.0226 -1.59085 -1.23995 0
M  V30 891 C 84.3356 -0.287907 -1.9347 0
M  V30 892 O 85.5416 -0.259506 -2.70257 0
M  V30 893 C 83.9976 -2.80736 -2.252 0
M  V30 894 C 83.6056 -4.17833 -1.61614 0
M  V30 895 C 85.3496 -2.99364 -3.00967 0
M  V30 896 C 83.2566 -5.30693 -2.60996 0
M  V30 897 H 82.1866 -0.592372 -0.466488 0
M  V30 898 H 84.8376 -1.76197 -0.51252 0
M  V30 899 H 83.2196 -2.57142 -3.01154 0
M  V30 900 H 84.3936 -4.51608 -0.915774 0
M  V30 901 H 82.7086 -4.04656 -0.981977 0
M  V30 902 H 85.3056 -3.80851 -3.75308 0
M  V30 903 H 85.6486 -2.10356 -3.59244 0
M  V30 904 H 86.1816 -3.2305 -2.32128 0
M  V30 905 H 82.9206 -6.21796 -2.07485 0
M  V30 906 H 82.4406 -5.01359 -3.2924 0
M  V30 907 H 84.1196 -5.6049 -3.23202 0
M  V30 908 N 84.2517 0.741722 -1.39055 0
M  V30 909 C 85.1987 1.85566 -1.37237 0
M  V30 910 C 86.1687 1.64457 -0.233072 0
M  V30 911 O 87.3537 1.85957 -0.427147 0
M  V30 912 C 84.4937 3.23004 -1.215 0
M  V30 913 C 83.6067 3.55864 -2.44918 0
M  V30 914 C 82.7417 4.82669 -2.21821 0
M  V30 915 C 81.7807 5.08351 -3.40948 0
M  V30 916 N 80.9177 6.26356 -3.17211 0
M  V30 917 H 85.7577 1.86455 -2.32462 0
M  V30 918 H 83.2947 0.911176 -1.15482 0
M  V30 919 H 85.2527 4.02331 -1.10389 0
M  V30 920 H 83.8827 3.21411 -0.29908 0
M  V30 921 H 82.9347 2.7129 -2.66657 0
M  V30 922 H 84.2467 3.70765 -3.33668 0
M  V30 923 H 83.4007 5.69962 -2.07914 0
M  V30 924 H 82.1397 4.69929 -1.30454 0
M  V30 925 H 81.1447 4.19522 -3.55361 0
M  V30 926 H 82.3697 5.22981 -4.33207 0
M  V30 927 H 80.3157 6.14917 -2.28502 0
M  V30 928 H 80.2327 6.41813 -3.99515 0
M  V30 929 H 81.5007 7.16506 -3.06984 0
M  V30 930 N 85.7298 1.2412 0.971189 0
M  V30 931 C 86.9548 1.10667 1.75407 0
M  V30 932 C 87.3798 -0.337048 1.85056 0
M  V30 933 O 86.7378 -1.24396 1.31892 0
M  V30 934 C 86.7858 1.74726 3.15441 0
M  V30 935 O 85.8898 1.01566 3.99697 0
M  V30 936 H 85.2308 0.387341 0.539317 0
M  V30 937 H 87.7608 1.64358 1.2185 0
M  V30 938 H 87.7708 1.80341 3.6598 0
M  V30 939 H 86.4458 2.79773 3.07734 0
M  V30 940 H 85.0228 1.03713 3.58187 0
M  V30 941 N 87.2079 -1.17134 1.05439 0
M  V30 942 C 88.4539 -1.87733 0.767077 0
M  V30 943 C 88.7869 -1.8098 -0.704253 0
M  V30 944 O 88.0619 -1.21951 -1.5152 0
M  V30 945 C 88.3449 -3.37659 1.25133 0
M  V30 946 C 88.1979 -3.53149 2.78578 0
M  V30 947 C 89.5169 -4.31768 0.852324 0
M  V30 948 H 86.6359 -0.681687 0.280129 0
M  V30 949 H 89.2779 -1.37732 1.30881 0
M  V30 950 H 87.4279 -3.80373 0.790469 0
M  V30 951 H 89.0999 -3.19434 3.32806 0
M  V30 952 H 87.3429 -2.95345 3.17732 0
M  V30 953 H 88.0139 -4.58403 3.07523 0
M  V30 954 H 90.4899 -3.96909 1.24911 0
M  V30 955 H 89.3659 -5.35199 1.21873 0
M  V30 956 H 89.6269 -4.41429 -0.243485 0
M  V30 957 N 88.686 -0.835752 -1.33615 0
M  V30 958 C 89.934 -0.429109 -1.97492 0
M  V30 959 C 90.255 1.01433 -1.66543 0
M  V30 960 O 89.525 1.70611 -0.962744 0
M  V30 961 H 88.105 -0.155686 -0.730596 0
M  V30 962 H 90.767 -1.06802 -1.63031 0
M  V30 963 H 89.863 -0.55861 -3.0706 0
M  V30 964 N 90.1641 1.46063 -0.591896 0
M  V30 965 C 91.4411 1.95595 -0.0137119 0
M  V30 966 C 91.8211 1.5345 1.4497 0
M  V30 967 O 91.1691 0.789543 2.14426 0
M  V30 968 C 91.3791 3.48453 -0.195373 0
M  V30 969 C 92.7271 4.24546 -0.0679765 0
M  V30 970 O 93.7511 3.55982 -0.124681 0
M  V30 971 O 92.6101 5.46467 0.0600579 0
M  V30 972 H 89.7041 0.825795 0.0446279 0
M  V30 973 H 92.2501 1.56303 -0.660859 0
M  V30 974 H 91.0221 3.72045 -1.21235 0
M  V30 975 H 90.6451 3.94597 0.487775 0
M  V30 976 N 91.6422 0.330177 1.54103 0
M  V30 977 C 92.5522 -0.541534 2.28264 0
M  V30 978 C 93.5682 -1.12351 1.32866 0
M  V30 979 O 94.7442 -1.14206 1.65888 0
M  V30 980 C 91.8092 -1.68322 3.03098 0
M  V30 981 C 90.8702 -1.13238 4.14096 0
M  V30 982 C 90.1032 -2.21966 4.85352 0
M  V30 983 O 90.3262 -3.42437 4.56172 0
M  V30 984 O 89.2602 -1.87013 5.7211 0
M  V30 985 H 93.0862 0.060938 3.03639 0
M  V30 986 H 90.6712 0.09565 1.49093 0
M  V30 987 H 92.5532 -2.34777 3.49939 0
M  V30 988 H 91.2282 -2.27176 2.30593 0
M  V30 989 H 90.1352 -0.432736 3.71589 0
M  V30 990 H 91.4682 -0.588898 4.88664 0
M  V30 991 N 93.1203 -1.57491 0.0584922 0
M  V30 992 C 94.3663 -1.93264 -0.614558 0
M  V30 993 C 94.6993 -0.937717 -1.7006 0
M  V30 994 O 93.9743 0.0351652 -1.94468 0
M  V30 995 C 94.2573 -3.3938 -1.20386 0
M  V30 996 C 94.1103 -4.49625 -0.125375 0
M  V30 997 C 95.4293 -3.86039 -2.11334 0
M  V30 998 H 92.5483 -0.702791 -0.221933 0
M  V30 999 H 95.1903 -1.8961 0.12175 0
M  V30 1000 H 93.3403 -3.42626 -1.83139 0
M  V30 1001 H 95.0123 -4.58506 0.506971 0
M  V30 1002 H 93.2553 -4.30354 0.545672 0
M  V30 1003 H 93.9263 -5.48967 -0.577861 0
M  V30 1004 H 96.4023 -3.84716 -1.58534 0
M  V30 1005 H 95.2783 -4.88914 -2.49507 0
M  V30 1006 H 95.5393 -3.23215 -3.01636 0
M  V30 1007 N 94.5984 0.214957 -1.56127 0
M  V30 1008 C 95.8474 0.936451 -1.78643 0
M  V30 1009 C 96.1604 1.85237 -0.628229 0
M  V30 1010 O 97.3664 2.613 -0.737186 0
M  V30 1011 C 95.8224 1.7154 -3.16389 0
M  V30 1012 C 95.4304 0.845299 -4.39953 0
M  V30 1013 C 97.1744 2.42772 -3.48227 0
M  V30 1014 C 95.0814 1.62198 -5.68723 0
M  V30 1015 H 94.0114 0.353401 -0.666051 0
M  V30 1016 H 96.6624 0.190169 -1.82512 0
M  V30 1017 H 95.0444 2.50484 -3.06715 0
M  V30 1018 H 96.2184 0.0959353 -4.607 0
M  V30 1019 H 94.5334 0.244789 -4.1568 0
M  V30 1020 H 97.1304 3.01394 -4.41663 0
M  V30 1021 H 97.4734 3.15984 -2.71035 0
M  V30 1022 H 98.0064 1.70813 -3.5926 0
M  V30 1023 H 94.7454 0.933011 -6.48826 0
M  V30 1024 H 94.2654 2.34579 -5.52026 0
M  V30 1025 H 95.9444 2.18095 -6.09133 0
M  V30 1026 N 96.0765 1.50051 0.48192 0
M  V30 1027 C 97.3045 1.64237 1.25832 0
M  V30 1028 C 97.7195 0.321336 1.86045 0
M  V30 1029 O 97.0765 -0.695478 1.68729 0
M  V30 1030 C 97.1275 2.72548 2.37487 0
M  V30 1031 O 96.8485 3.99529 1.79745 0
M  V30 1032 C 98.3495 2.9761 3.28547 0
M  V30 1033 H 95.5695 0.55237 0.380957 0
M  V30 1034 H 98.1135 1.96207 0.576467 0
M  V30 1035 H 96.2685 2.43303 3.01467 0
M  V30 1036 H 96.6825 4.59342 2.5319 0
M  V30 1037 H 98.1565 3.77084 4.03127 0
M  V30 1038 H 98.6335 2.0826 3.86684 0
M  V30 1039 H 99.2395 3.28345 2.70314 0
M  V30 1040 N 97.5546 -0.734337 1.39446 0
M  V30 1041 C 98.8316 -1.48579 1.27215 0
M  V30 1042 C 99.2116 -2.1077 -0.117968 0
M  V30 1043 O 98.5596 -1.98646 -1.12924 0
M  V30 1044 C 98.7696 -2.53667 2.39696 0
M  V30 1045 C 100.118 -3.20031 2.79044 0
M  V30 1046 O 101.142 -2.6398 2.39151 0
M  V30 1047 O 100.001 -4.21455 3.47905 0
M  V30 1048 H 97.0946 -0.659816 0.49857 0
M  V30 1049 H 99.6406 -0.768106 1.51322 0
M  V30 1050 H 98.4126 -2.06096 3.32626 0
M  V30 1051 H 98.0356 -3.32994 2.17258 0
M  V30 1052 N 99.0327 -1.24633 -0.964593 0
M  V30 1053 C 99.9797 -1.04144 -2.05968 0
M  V30 1054 C 100.95 0.046262 -1.66036 0
M  V30 1055 O 102.135 -0.108972 -1.90489 0
M  V30 1056 C 99.2747 -0.65563 -3.38815 0
M  V30 1057 C 98.3877 -1.81714 -3.91923 0
M  V30 1058 C 97.5227 -1.37662 -5.13052 0
M  V30 1059 C 96.5617 -2.50788 -5.58365 0
M  V30 1060 N 95.6987 -2.07582 -6.70712 0
M  V30 1061 H 100.539 -1.9787 -2.22827 0
M  V30 1062 H 98.0757 -0.9855 -1.09208 0
M  V30 1063 H 100.034 -0.412954 -4.15151 0
M  V30 1064 H 98.6637 0.244627 -3.21872 0
M  V30 1065 H 97.7157 -2.1734 -3.12198 0
M  V30 1066 H 99.0277 -2.66705 -4.21509 0
M  V30 1067 H 98.1817 -1.093 -5.96773 0
M  V30 1068 H 96.9207 -0.497293 -4.85158 0
M  V30 1069 H 95.9257 -2.79906 -4.73215 0
M  V30 1070 H 97.1507 -3.39283 -5.88272 0
M  V30 1071 H 95.0967 -1.22051 -6.44546 0
M  V30 1072 H 95.0137 -2.86125 -6.99763 0
M  V30 1073 H 96.2817 -1.82369 -7.57867 0
M  V30 1074 N 100.511 1.16574 -1.06058 0
M  V30 1075 C 101.474 2.19085 -0.673392 0
M  V30 1076 C 102.474 1.5835 0.279648 0
M  V30 1077 O 103.664 1.74088 0.0623488 0
M  V30 1078 C 100.796 3.40899 0.00954234 0
M  V30 1079 H 101.989 2.54853 -1.58081 0
M  V30 1080 H 99.5418 1.30808 -0.855516 0
M  V30 1081 H 100.277 3.10684 0.929826 0
M  V30 1082 H 100.062 3.86233 -0.67573 0
M  V30 1083 H 101.552 4.1675 0.266245 0
M  V30 1084 N 101.989 0.842826 1.3317 0
M  V30 1085 C 102.899 0.281444 2.32906 0
M  V30 1086 C 103.915 -0.594587 1.63526 0
M  V30 1087 O 105.091 -0.49777 1.95152 0
M  V30 1088 C 102.156 -0.530929 3.42611 0
M  V30 1089 C 101.217 0.369843 4.27704 0
M  V30 1090 C 100.45 -0.403853 5.3217 0
M  V30 1091 O 100.673 -1.63513 5.46461 0
M  V30 1092 O 99.6069 0.224199 6.01482 0
M  V30 1093 H 103.433 1.10744 2.82789 0
M  V30 1094 H 101.018 0.60545 1.36582 0
M  V30 1095 H 102.9 -0.992437 4.09547 0
M  V30 1096 H 101.575 -1.33392 2.94938 0
M  V30 1097 H 100.482 0.879275 3.6362 0
M  V30 1098 H 101.815 1.13771 4.78871 0
M  V30 1099 N 103.467 -1.45747 0.599634 0
M  V30 1100 C 104.713 -2.02592 0.0918643 0
M  V30 1101 C 105.046 -1.46806 -1.27128 0
M  V30 1102 O 104.321 -0.639658 -1.83681 0
M  V30 1103 C 104.604 -3.60073 0.0443398 0
M  V30 1104 C 104.457 -4.26208 1.43759 0
M  V30 1105 C 105.776 -4.35309 -0.647608 0
M  V30 1106 H 102.895 -0.736175 0.034857 0
M  V30 1107 H 105.537 -1.73694 0.770081 0
M  V30 1108 H 103.687 -3.84823 -0.533224 0
M  V30 1109 H 105.359 -4.12668 2.06162 0
M  V30 1110 H 103.602 -3.84916 2.00056 0
M  V30 1111 H 104.273 -5.35069 1.35665 0
M  V30 1112 H 106.749 -4.15805 -0.156776 0
M  V30 1113 H 105.625 -5.45038 -0.649942 0
M  V30 1114 H 105.886 -4.07598 -1.71219 0
M  V30 1115 N 104.945 -0.338344 -1.53925 0
M  V30 1116 C 105.875 0.51328 -2.27789 0
M  V30 1117 C 106.856 1.107 -1.29149 0
M  V30 1118 O 108.041 1.12937 -1.57984 0
M  V30 1119 C 105.171 1.66697 -3.04679 0
M  V30 1120 C 104.125 1.20183 -4.1078 0
M  V30 1121 C 103.451 2.44363 -4.75595 0
M  V30 1122 C 104.751 0.30605 -5.21403 0
M  V30 1123 H 106.445 -0.102883 -2.99223 0
M  V30 1124 H 103.991 -0.0509219 -1.4391 0
M  V30 1125 H 105.944 2.26915 -3.55088 0
M  V30 1126 H 104.668 2.30995 -2.30887 0
M  V30 1127 H 103.327 0.622499 -3.61276 0
M  V30 1128 H 102.975 3.07057 -3.98403 0
M  V30 1129 H 102.675 2.13925 -5.47275 0
M  V30 1130 H 104.199 3.05317 -5.28786 0
M  V30 1131 H 105.613 0.814929 -5.67478 0
M  V30 1132 H 104.01 0.0937929 -6.00027 0
M  V30 1133 H 105.08 -0.65921 -4.80398 0
M  V30 1134 N 106.423 1.57458 -0.0668435 0
M  V30 1135 C 107.356 2.08033 0.93795 0
M  V30 1136 C 108.334 0.984321 1.29421 0
M  V30 1137 O 109.518 1.25736 1.40437 0
M  V30 1138 C 106.645 2.53388 2.24749 0
M  V30 1139 C 105.691 3.74376 2.04315 0
M  V30 1140 S 106.524 5.19303 1.30706 0
M  V30 1141 C 107.68 5.67986 2.62951 0
M  V30 1142 H 107.913 2.92935 0.50759 0
M  V30 1143 H 105.446 1.5371 0.145804 0
M  V30 1144 H 107.404 2.8018 3.00016 0
M  V30 1145 H 106.065 1.68763 2.64911 0
M  V30 1146 H 105.258 4.04083 3.01218 0
M  V30 1147 H 104.86 3.47931 1.37186 0
M  V30 1148 H 107.152 5.74528 3.5906 0
M  V30 1149 H 108.095 6.66955 2.3786 0
M  V30 1150 H 108.503 4.95781 2.69929 0
M  V30 1151 N 107.901 -0.206675 1.56239 0
M  V30 1152 C 109.148 -0.928842 1.79941 0
M  V30 1153 C 109.476 -1.83734 0.638131 0
M  V30 1154 O 108.731 -1.92039 -0.376746 0
M  V30 1155 C 109.03 -1.78675 3.09532 0
M  V30 1156 C 108.696 -1.03022 4.38973 0
M  V30 1157 C 107.358 -0.821302 4.74139 0
M  V30 1158 C 109.71 -0.497081 5.18824 0
M  V30 1159 C 107.038 -0.0675719 5.86661 0
M  V30 1160 C 109.39 0.24338 6.32132 0
M  V30 1161 C 108.054 0.463422 6.65889 0
M  V30 1162 H 107.324 -0.339887 0.658451 0
M  V30 1163 H 109.971 -0.195977 1.90495 0
M  V30 1164 H 108.276 -2.58794 2.94165 0
M  V30 1165 H 109.973 -2.34792 3.25075 0
M  V30 1166 H 106.563 -1.20306 4.11369 0
M  V30 1167 H 110.747 -0.645921 4.92079 0
M  V30 1168 H 106.003 0.112995 6.11296 0
M  V30 1169 H 110.177 0.66393 6.93228 0
M  V30 1170 H 107.804 1.04938 7.52922 0
M  V30 1171 N 109.379 -1.50304 -0.473955 0
M  V30 1172 C 110.609 -1.64663 -1.24778 0
M  V30 1173 C 111.017 -0.328174 -1.86332 0
M  V30 1174 O 110.36 0.699536 -1.69859 0
M  V30 1175 C 110.422 -2.6778 -2.39863 0
M  V30 1176 C 110.086 -4.11413 -1.98969 0
M  V30 1177 C 111.083 -4.97372 -1.51385 0
M  V30 1178 C 108.768 -4.57312 -2.07777 0
M  V30 1179 C 110.762 -6.27277 -1.13148 0
M  V30 1180 C 108.449 -5.87223 -1.69152 0
M  V30 1181 C 109.447 -6.72031 -1.21915 0
M  V30 1182 O 109.135 -7.99518 -0.838237 0
M  V30 1183 H 108.867 -0.556602 -0.383627 0
M  V30 1184 H 111.421 -1.9726 -0.572491 0
M  V30 1185 H 109.651 -2.30419 -3.10554 0
M  V30 1186 H 111.34 -2.71388 -3.01833 0
M  V30 1187 H 112.106 -4.63128 -1.44004 0
M  V30 1188 H 107.985 -3.91449 -2.43493 0
M  V30 1189 H 111.529 -6.93425 -0.762077 0
M  V30 1190 H 107.426 -6.20989 -1.76191 0
M  V30 1191 H 108.194 -8.12764 -0.967339 0
M  V30 1192 N 110.857 0.726932 -1.39834 0
M  V30 1193 C 111.82 1.82269 -1.38962 0
M  V30 1194 C 112.82 1.58248 -0.285334 0
M  V30 1195 O 114.01 1.65499 -0.54366 0
M  V30 1196 C 111.142 3.20186 -1.17019 0
M  V30 1197 H 112.335 1.84443 -2.36476 0
M  V30 1198 H 109.888 0.931416 -1.25516 0
M  V30 1199 H 110.623 3.23669 -0.202204 0
M  V30 1200 H 110.408 3.3902 -1.96998 0
M  V30 1201 H 111.898 4.00235 -1.1917 0
M  V30 1202 N 112.336 1.25143 0.95797 0
M  V30 1203 C 113.299 1.05321 2.03569 0
M  V30 1204 C 114.299 0.007152 1.60798 0
M  V30 1205 O 115.489 0.24903 1.72411 0
M  V30 1206 C 112.621 0.598394 3.35607 0
M  V30 1207 H 113.814 2.00986 2.22586 0
M  V30 1208 H 111.367 1.07502 1.13459 0
M  V30 1209 H 112.102 -0.361014 3.22284 0
M  V30 1210 H 111.887 1.35351 3.67998 0
M  V30 1211 H 113.377 0.48104 4.1482 0
M  V30 1212 N 113.814 -1.1601 1.06675 0
M  V30 1213 C 115.23 -1.38622 0.790948 0
M  V30 1214 C 115.43 -1.92109 -0.607965 0
M  V30 1215 O 114.486 -2.12239 -1.36787 0
M  V30 1216 C 115.799 -2.36347 1.85905 0
M  V30 1217 C 117.347 -2.50023 1.88301 0
M  V30 1218 C 117.822 -3.51033 2.94176 0
M  V30 1219 N 119.313 -3.58563 2.93235 0
M  V30 1220 C 120.048 -4.36521 3.71803 0
M  V30 1221 N 119.544 -5.17869 4.602 0
M  V30 1222 N 121.337 -4.31541 3.60178 0
M  V30 1223 H 113.488 -0.796294 1.96908 0
M  V30 1224 H 115.751 -0.412597 0.853503 0
M  V30 1225 H 115.457 -2.04147 2.86386 0
M  V30 1226 H 115.331 -3.36042 1.71334 0
M  V30 1227 H 117.718 -2.81524 0.884769 0
M  V30 1228 H 117.799 -1.5035 2.06951 0
M  V30 1229 H 117.443 -3.20268 3.94196 0
M  V30 1230 H 117.373 -4.50445 2.72776 0
M  V30 1231 H 119.864 -3.00496 2.29152 0
M  V30 1232 H 120.177 -5.74578 5.16797 0
M  V30 1233 H 118.522 -5.17199 4.64253 0
M  V30 1234 H 121.713 -3.67051 2.90502 0
M  V30 1235 H 121.886 -4.9205 4.21653 0
M  V30 1236 N 115.292 -0.849877 -1.32721 0
M  V30 1237 C 116.538 -0.451591 -1.97708 0
M  V30 1238 C 116.871 0.989175 -1.6712 0
M  V30 1239 O 116.146 1.69334 -0.956891 0
M  V30 1240 C 116.429 -0.685598 -3.53513 0
M  V30 1241 C 116.282 -2.17444 -3.93749 0
M  V30 1242 C 117.601 -0.138874 -4.39881 0
M  V30 1243 H 114.72 -0.16555 -0.718166 0
M  V30 1244 H 117.362 -1.06742 -1.57182 0
M  V30 1245 H 115.512 -0.161416 -3.88165 0
M  V30 1246 H 117.184 -2.76433 -3.693 0
M  V30 1247 H 115.427 -2.65476 -3.43081 0
M  V30 1248 H 116.098 -2.28888 -5.02309 0
M  V30 1249 H 118.574 -0.587068 -4.11938 0
M  V30 1250 H 117.45 -0.332213 -5.47894 0
M  V30 1251 H 117.711 0.95806 -4.31594 0
M  V30 1252 N 116.77 1.45427 -0.607355 0
M  V30 1253 C 117.702 2.2871 0.149752 0
M  V30 1254 C 118.715 1.39937 0.831958 0
M  V30 1255 O 119.904 1.64313 0.697385 0
M  V30 1256 C 117.004 3.15673 1.23304 0
M  V30 1257 C 116.177 4.32722 0.637996 0
M  V30 1258 C 115.236 5.00895 1.61215 0
M  V30 1259 O 114.262 5.57697 1.13854 0
M  V30 1260 N 115.464 5.00159 2.94655 0
M  V30 1261 H 118.229 2.94328 -0.564882 0
M  V30 1262 H 115.79 1.55612 -0.446823 0
M  V30 1263 H 117.782 3.58144 1.88454 0
M  V30 1264 H 116.352 2.51965 1.8502 0
M  V30 1265 H 115.572 3.93734 -0.191572 0
M  V30 1266 H 116.86 5.08321 0.220665 0
M  V30 1267 H 116.258 4.553 3.35735 0
M  V30 1268 H 114.815 5.46495 3.55228 0
M  V30 1269 N 118.248 0.346503 1.53744 0
M  V30 1270 C 119.178 -0.501193 2.28058 0
M  V30 1271 C 120.159 -1.10014 1.29734 0
M  V30 1272 O 121.344 -1.12097 1.58581 0
M  V30 1273 C 118.474 -1.65078 3.05559 0
M  V30 1274 C 117.428 -1.18003 4.11411 0
M  V30 1275 C 116.754 -2.41837 4.76884 0
M  V30 1276 C 118.054 -0.278394 5.21558 0
M  V30 1277 H 119.748 0.11875 2.99164 0
M  V30 1278 H 117.294 0.0585531 1.43881 0
M  V30 1279 H 119.247 -2.25028 3.56287 0
M  V30 1280 H 117.971 -2.29767 2.32109 0
M  V30 1281 H 116.63 -0.603331 3.61601 0
M  V30 1282 H 116.278 -3.0494 4.00026 0
M  V30 1283 H 115.978 -2.1102 5.48402 0
M  V30 1284 H 117.502 -3.02508 5.30397 0
M  V30 1285 H 118.916 -0.784823 5.67903 0
M  V30 1286 H 117.313 -0.0619707 6.00068 0
M  V30 1287 H 118.383 0.684677 4.80042 0
M  V30 1288 N 119.726 -1.57421 0.075193 0
M  V30 1289 C 120.972 -1.93905 -0.594025 0
M  V30 1290 C 121.305 -0.955701 -1.69056 0
M  V30 1291 O 120.58 0.0145373 -1.94495 0
M  V30 1292 C 120.863 -3.40638 -1.1678 0
M  V30 1293 C 120.716 -4.49733 -0.0776792 0
M  V30 1294 C 122.035 -3.88259 -2.07228 0
M  V30 1295 H 119.154 -0.705105 -0.214466 0
M  V30 1296 H 121.796 -1.8947 0.141854 0
M  V30 1297 H 119.946 -3.44549 -1.79494 0
M  V30 1298 H 121.618 -4.57942 0.555573 0
M  V30 1299 H 119.861 -4.29751 0.591286 0
M  V30 1300 H 120.532 -5.49549 -0.519603 0
M  V30 1301 H 123.008 -3.86376 -1.54445 0
M  V30 1302 H 121.884 -4.91533 -2.44308 0
M  V30 1303 H 122.145 -3.26396 -2.98191 0
M  V30 1304 N 121.204 0.198386 -1.56346 0
M  V30 1305 C 122.114 1.2664 -1.97483 0
M  V30 1306 C 123.13 1.49989 -0.882002 0
M  V30 1307 O 124.306 1.62668 -1.18748 0
M  V30 1308 C 121.371 2.59141 -2.30319 0
M  V30 1309 C 120.432 2.43892 -3.53292 0
M  V30 1310 C 119.665 3.70074 -3.84553 0
M  V30 1311 O 119.888 4.74101 -3.1715 0
M  V30 1312 O 118.822 3.658 -4.7799 0
M  V30 1313 H 122.648 0.947304 -2.88548 0
M  V30 1314 H 120.233 0.403123 -1.43859 0
M  V30 1315 H 122.115 3.37352 -2.5253 0
M  V30 1316 H 120.79 2.90684 -1.42423 0
M  V30 1317 H 119.697 1.63803 -3.36332 0
M  V30 1318 H 121.03 2.17282 -4.41644 0
M  V30 1319 N 122.682 1.50554 0.465978 0
M  V30 1320 C 123.91 1.65563 1.24083 0
M  V30 1321 C 124.325 0.341051 1.85694 0
M  V30 1322 O 123.682 -0.677543 1.69457 0
M  V30 1323 C 123.733 2.75051 2.34583 0
M  V30 1324 O 123.454 4.01413 1.75497 0
M  V30 1325 C 124.955 3.01078 3.25372 0
M  V30 1326 H 122.175 0.55638 0.375077 0
M  V30 1327 H 124.719 1.96807 0.555624 0
M  V30 1328 H 122.874 2.46486 2.9887 0
M  V30 1329 H 123.288 4.62002 2.48303 0
M  V30 1330 H 124.762 3.81339 3.99105 0
M  V30 1331 H 125.239 2.12349 3.84453 0
M  V30 1332 H 125.845 3.31194 2.66816 0
M  V30 1333 N 124.16 -0.719506 1.40217 0
M  V30 1334 C 125.406 -1.48152 1.38488 0
M  V30 1335 C 125.739 -1.94195 -0.0141867 0
M  V30 1336 O 125.014 -1.67884 -0.982096 0
M  V30 1337 C 125.297 -2.71035 2.37091 0
M  V30 1338 C 125.15 -2.30912 3.86005 0
M  V30 1339 C 126.469 -3.73182 2.33288 0
M  V30 1340 H 123.588 -0.537395 0.504357 0
M  V30 1341 H 126.23 -0.821472 1.71324 0
M  V30 1342 H 124.38 -3.27352 2.0922 0
M  V30 1343 H 126.052 -1.80107 4.24687 0
M  V30 1344 H 124.295 -1.62958 4.02029 0
M  V30 1345 H 124.966 -3.18978 4.50508 0
M  V30 1346 H 127.442 -3.26485 2.57966 0
M  V30 1347 H 126.318 -4.56806 3.04334 0
M  V30 1348 H 126.579 -4.21202 1.34317 0
M  V30 1349 N 125.638 -1.25649 -0.95132 0
M  V30 1350 C 126.887 -1.09988 -1.69073 0
M  V30 1351 C 127.2 0.358355 -1.92289 0
M  V30 1352 O 128.406 0.635466 -2.63958 0
M  V30 1353 C 126.862 -1.92012 -3.044 0
M  V30 1354 C 126.47 -3.42347 -2.88968 0
M  V30 1355 C 128.214 -1.8493 -3.82101 0
M  V30 1356 C 126.121 -4.16655 -4.19705 0
M  V30 1357 H 125.051 -0.407993 -0.63408 0
M  V30 1358 H 127.702 -1.49873 -1.05879 0
M  V30 1359 H 126.084 -1.44952 -3.68517 0
M  V30 1360 H 127.258 -3.97104 -2.33762 0
M  V30 1361 H 125.573 -3.50557 -2.24719 0
M  V30 1362 H 128.17 -2.37739 -4.78941 0
M  V30 1363 H 128.513 -0.817883 -4.08187 0
M  V30 1364 H 129.046 -2.29758 -3.2474 0
M  V30 1365 H 125.785 -5.20224 -3.98807 0
M  V30 1366 H 125.305 -3.66681 -4.74663 0
M  V30 1367 H 126.984 -4.24551 -4.88227 0
M  V30 1368 N 127.117 1.15442 -1.07289 0
M  V30 1369 C 128.064 2.20161 -0.692653 0
M  V30 1370 C 129.034 1.63073 0.31564 0
M  V30 1371 O 130.219 1.89725 0.202235 0
M  V30 1372 C 127.359 3.44967 -0.0959509 0
M  V30 1373 C 126.472 4.16256 -1.15564 0
M  V30 1374 C 125.607 5.28609 -0.524011 0
M  V30 1375 C 124.646 5.91715 -1.56653 0
M  V30 1376 N 123.783 6.9554 -0.957531 0
M  V30 1377 H 128.623 2.52037 -1.59002 0
M  V30 1378 H 126.16 1.2378 -0.794798 0
M  V30 1379 H 128.118 4.16341 0.267628 0
M  V30 1380 H 126.748 3.1361 0.764772 0
M  V30 1381 H 125.8 3.43385 -1.6368 0
M  V30 1382 H 127.112 4.59268 -1.94613 0
M  V30 1383 H 126.266 6.06604 -0.108032 0
M  V30 1384 H 125.005 4.86787 0.29825 0
M  V30 1385 H 124.01 5.12433 -1.9923 0
M  V30 1386 H 125.235 6.35614 -2.39107 0
M  V30 1387 H 123.181 6.55814 -0.156162 0
M  V30 1388 H 123.098 7.36977 -1.68526 0
M  V30 1389 H 124.366 7.77435 -0.567032 0
M  V30 1390 N 128.595 0.856903 1.32268 0
M  V30 1391 C 130.006 0.515711 1.79436 0
M  V30 1392 C 130.357 -0.966586 1.70738 0
M  V30 1393 O 129.482 -1.75409 1.26731 0
M  V30 1394 C 130.077 0.929335 3.25805 0
M  V30 1395 C 128.636 0.640006 3.70919 0
M  V30 1396 C 127.783 1.12784 2.53328 0
M  V30 1397 H 130.734 1.04389 1.19535 0
M  V30 1398 H 130.755 0.246633 3.797 0
M  V30 1399 H 130.267 2.00821 3.32103 0
M  V30 1400 H 128.368 -0.428051 3.70133 0
M  V30 1401 H 128.481 1.20788 4.63624 0
M  V30 1402 H 126.845 0.548033 2.48734 0
M  V30 1403 H 127.628 2.21387 2.62379 0
M  V30 1404 N 130.073 -1.45103 0.615059 0
M  V30 1405 C 131.036 -2.29025 -0.0895485 0
M  V30 1406 C 132.036 -1.40174 -0.787906 0
M  V30 1407 O 133.226 -1.62217 -0.634933 0
M  V30 1408 C 130.358 -3.21376 -1.13711 0
M  V30 1409 H 131.551 -2.92807 0.648382 0
M  V30 1410 H 129.104 -1.51749 0.374444 0
M  V30 1411 H 129.839 -2.6241 -1.90556 0
M  V30 1412 H 129.624 -3.86834 -0.640475 0
M  V30 1413 H 131.114 -3.84459 -1.63036 0
M  V30 1414 N 131.551 -0.354651 -1.53558 0
M  V30 1415 C 132.481 0.489091 -2.2832 0
M  V30 1416 C 133.462 1.09324 -1.30316 0
M  V30 1417 O 134.647 1.11255 -1.59173 0
M  V30 1418 C 131.777 1.63456 -3.0643 0
M  V30 1419 C 130.731 1.1582 -4.12031 0
M  V30 1420 C 130.057 2.39305 -4.7816 0
M  V30 1421 C 131.357 0.250731 -5.21698 0
M  V30 1422 H 133.051 -0.134614 -2.99097 0
M  V30 1423 H 130.597 -0.0661826 -1.43848 0
M  V30 1424 H 132.55 2.23136 -3.57475 0
M  V30 1425 H 131.274 2.28533 -2.33325 0
M  V30 1426 H 129.933 0.584146 -3.61916 0
M  V30 1427 H 129.581 3.02814 -4.01637 0
M  V30 1428 H 129.281 2.08109 -5.49513 0
M  V30 1429 H 130.805 2.99691 -5.31994 0
M  V30 1430 H 132.219 0.754695 -5.68311 0
M  V30 1431 H 130.616 0.0301468 -6.00092 0
M  V30 1432 H 131.686 -0.710125 -4.79672 0
M  V30 1433 N 133.029 1.57378 -0.0835403 0
M  V30 1434 C 133.992 2.12252 0.864959 0
M  V30 1435 C 134.992 1.04916 1.21858 0
M  V30 1436 O 136.182 1.30853 1.14991 0
M  V30 1437 C 133.314 2.63358 2.16461 0
M  V30 1438 H 134.507 2.97371 0.388676 0
M  V30 1439 H 132.06 1.55423 0.165317 0
M  V30 1440 H 132.795 1.81727 2.686 0
M  V30 1441 H 132.58 3.41826 1.92087 0
M  V30 1442 H 134.07 3.05847 2.84337 0
M  V30 1443 N 134.507 -0.190092 1.56449 0
M  V30 1444 C 135.455 -1.25501 1.95837 0
M  V30 1445 C 136.449 -1.4685 0.844485 0
M  V30 1446 O 137.655 -1.47651 1.02952 0
M  V30 1447 H 134.03 -0.421447 0.622805 0
M  V30 1448 H 136.001 -0.895821 2.84636 0
M  V30 1449 C 134.75 -2.59124 2.31841 0
M  V30 1450 H 134.073 -2.43514 3.17082 0
M  V30 1451 H 135.513 -3.32371 2.6326 0
M  V30 1452 C 133.972 -3.16488 1.15486 0
M  V30 1453 O 134.502 -3.99365 0.432535 0
M  V30 1454 N 132.708 -2.75305 0.930349 0
M  V30 1455 H 132.255 -2.08013 1.51948 0
M  V30 1456 H 132.213 -3.14024 0.153634 0
M  V30 1457 N 135.985 -1.50799 -0.457987 0
M  V30 1458 C 137.233 -1.62121 -1.2067 0
M  V30 1459 C 137.554 -0.329793 -1.92191 0
M  V30 1460 O 136.824 0.653409 -1.84682 0
M  V30 1461 H 135.404 -0.597441 -0.448411 0
M  V30 1462 H 138.066 -1.87637 -0.527096 0
M  V30 1463 H 137.162 -2.43882 -1.94751 0
M  V30 1464 N 137.463 0.71206 -1.40597 0
M  V30 1465 C 138.691 1.50111 -1.42388 0
M  V30 1466 C 139.106 1.88784 -0.0245395 0
M  V30 1467 O 138.463 1.55681 0.952351 0
M  V30 1468 C 138.514 2.7742 -2.31776 0
M  V30 1469 O 138.235 2.40382 -3.66262 0
M  V30 1470 C 139.736 3.7129 -2.42196 0
M  V30 1471 H 136.956 0.46314 -0.485533 0
M  V30 1472 H 139.5 0.878068 -1.8469 0
M  V30 1473 H 137.655 3.36001 -1.92827 0
M  V30 1474 H 138.069 3.22324 -4.13772 0
M  V30 1475 H 139.543 4.57448 -3.08943 0
M  V30 1476 H 140.02 4.14641 -1.44809 0
M  V30 1477 H 140.626 3.18619 -2.81712 0
M  V30 1478 N 138.941 1.26152 0.944643 0
M  V30 1479 C 140.187 1.12665 1.69346 0
M  V30 1480 C 140.542 -0.3273 1.89596 0
M  V30 1481 O 139.835 -1.23717 1.46303 0
M  V30 1482 C 140.029 1.82541 3.07268 0
M  V30 1483 C 139.858 3.34582 3.00475 0
M  V30 1484 C 138.628 4.03863 3.03681 0
M  V30 1485 C 140.826 4.30828 2.80877 0
M  V30 1486 N 138.808 5.42603 2.87151 0
M  V30 1487 C 140.179 5.5672 2.7288 0
M  V30 1488 C 142.234 4.21122 2.65633 0
M  V30 1489 C 140.937 6.74013 2.51196 0
M  V30 1490 C 142.963 5.38118 2.45323 0
M  V30 1491 C 142.325 6.62955 2.38055 0
M  V30 1492 H 138.424 0.467041 0.627214 0
M  V30 1493 H 141.008 1.59391 1.11815 0
M  V30 1494 H 139.179 1.38296 3.62945 0
M  V30 1495 H 140.911 1.61708 3.70989 0
M  V30 1496 H 137.666 3.55198 3.1326 0
M  V30 1497 H 138.09 6.15443 2.82063 0
M  V30 1498 H 142.732 3.25344 2.70021 0
M  V30 1499 H 140.45 7.6989 2.4555 0
M  V30 1500 H 144.036 5.32475 2.34439 0
M  V30 1501 H 142.916 7.51959 2.22546 0
M  V30 1502 N 140.419 -1.14872 1.07899 0
M  V30 1503 C 141.665 -1.86064 0.806725 0
M  V30 1504 C 141.998 -1.82434 -0.665706 0
M  V30 1505 O 141.273 -1.25138 -1.48899 0
M  V30 1506 C 141.556 -3.34929 1.32267 0
M  V30 1507 C 141.409 -3.47161 2.86006 0
M  V30 1508 C 142.728 -4.29863 0.943717 0
M  V30 1509 H 139.847 -0.675591 0.294526 0
M  V30 1510 H 142.489 -1.34925 1.33773 0
M  V30 1511 H 140.639 -3.78611 0.870974 0
M  V30 1512 H 142.311 -3.12302 3.39507 0
M  V30 1513 H 140.554 -2.88539 3.23925 0
M  V30 1514 H 141.225 -4.51777 3.17177 0
M  V30 1515 H 143.701 -3.9417 1.33302 0
M  V30 1516 H 142.577 -5.32494 1.33198 0
M  V30 1517 H 142.838 -4.41846 -0.149796 0
M  V30 1518 N 141.898 -0.863906 -1.31812 0
M  V30 1519 C 143.147 -0.46801 -1.96195 0
M  V30 1520 C 143.46 0.983474 -1.69077 0
M  V30 1521 O 144.666 1.48523 -2.27273 0
M  V30 1522 C 143.122 -0.785995 -3.51212 0
M  V30 1523 C 142.73 -2.25383 -3.87178 0
M  V30 1524 C 144.474 -0.458274 -4.22019 0
M  V30 1525 C 142.381 -2.51455 -5.3528 0
M  V30 1526 H 141.311 -0.171283 -0.734287 0
M  V30 1527 H 143.962 -1.05597 -1.50072 0
M  V30 1528 H 142.344 -0.127359 -3.95795 0
M  V30 1529 H 143.518 -2.95502 -3.53575 0
M  V30 1530 H 141.833 -2.54698 -3.2942 0
M  V30 1531 H 144.43 -0.630369 -5.30971 0
M  V30 1532 H 144.773 0.600834 -4.11941 0
M  V30 1533 H 145.306 -1.07319 -3.8305 0
M  V30 1534 H 142.045 -3.56025 -5.50387 0
M  V30 1535 H 141.565 -1.85923 -5.70257 0
M  V30 1536 H 143.244 -2.35874 -6.02472 0
M  V30 1537 N 143.376 1.44774 -0.622745 0
M  V30 1538 C 144.624 2.01721 -0.123655 0
M  V30 1539 C 144.945 1.49172 1.25589 0
M  V30 1540 O 144.215 0.691974 1.83272 0
M  V30 1541 H 142.795 0.745777 -0.0427225 0
M  V30 1542 H 145.457 1.77382 -0.807559 0
M  V30 1543 H 144.553 3.11984 -0.0849534 0
M  V30 1544 N 144.854 0.36279 1.53368 0
M  V30 1545 C 146.131 -0.284021 1.93527 0
M  V30 1546 C 146.511 -1.66628 1.29608 0
M  V30 1547 O 145.859 -2.23942 0.45413 0
M  V30 1548 C 146.069 -0.337028 3.47369 0
M  V30 1549 C 147.417 -0.578708 4.20638 0
M  V30 1550 O 148.441 -0.418352 3.53735 0
M  V30 1551 O 147.3 -0.89074 5.39192 0
M  V30 1552 H 144.394 -0.169743 0.809393 0
M  V30 1553 H 146.94 0.41537 1.64538 0
M  V30 1554 H 145.712 0.632217 3.86159 0
M  V30 1555 H 145.335 -1.08243 3.82582 0
M  V30 1556 N 146.332 -1.57332 0.0918853 0
M  V30 1557 C 147.748 -1.57389 -0.264766 0
M  V30 1558 C 147.948 -1.10281 -1.68643 0
M  V30 1559 O 147.004 -0.777801 -2.40222 0
M  V30 1560 C 148.317 -3.00648 -0.0561195 0
M  V30 1561 C 149.865 -3.12754 -0.124116 0
M  V30 1562 C 150.34 -4.57965 0.0564972 0
M  V30 1563 N 151.831 -4.632 0.00155611 0
M  V30 1564 C 152.566 -5.73281 0.116598 0
M  V30 1565 N 152.062 -6.92208 0.286294 0
M  V30 1566 N 153.855 -5.6207 0.0580973 0
M  V30 1567 H 146.006 -1.86262 1.02079 0
M  V30 1568 H 148.269 -0.859579 0.399786 0
M  V30 1569 H 147.975 -3.393 0.925669 0
M  V30 1570 H 147.849 -3.68623 -0.799823 0
M  V30 1571 H 150.236 -2.73976 -1.09641 0
M  V30 1572 H 150.317 -2.47377 0.651024 0
M  V30 1573 H 149.961 -4.97436 1.02564 0
M  V30 1574 H 149.891 -5.21399 -0.738297 0
M  V30 1575 H 152.382 -3.77686 -0.127192 0
M  V30 1576 H 152.695 -7.71934 0.365676 0
M  V30 1577 H 151.04 -6.94254 0.32192 0
M  V30 1578 H 154.231 -4.68043 -0.0733204 0
M  V30 1579 H 154.404 -6.47824 0.151203 0
M  V30 1580 N 147.81 0.181792 -1.56548 0
M  V30 1581 C 148.76 1.22961 -1.92002 0
M  V30 1582 C 149.744 1.40331 -0.787146 0
M  V30 1583 O 150.936 1.42478 -1.05019 0
M  V30 1584 C 148.065 2.57144 -2.27446 0
M  V30 1585 C 147.151 2.43512 -3.47222 0
M  V30 1586 N 147.542 1.99577 -4.64761 0
M  V30 1587 C 145.84 2.74368 -3.51622 0
M  V30 1588 C 146.541 1.98156 -5.46909 0
M  V30 1589 N 145.517 2.40164 -4.8767 0
M  V30 1590 H 149.319 0.881462 -2.8037 0
M  V30 1591 H 146.833 0.390141 -1.57644 0
M  V30 1592 H 148.83 3.32847 -2.51035 0
M  V30 1593 H 147.49 2.92771 -1.40411 0
M  V30 1594 H 148.501 1.70078 -4.89177 0
M  V30 1595 H 145.178 3.14102 -2.75038 0
M  V30 1596 H 146.568 1.65975 -6.51077 0
M  V30 1597 N 149.288 1.51039 0.449983 0
M  V30 1598 C 150.565 1.53612 1.21089 0
M  V30 1599 C 150.945 0.292997 2.09057 0
M  V30 1600 O 150.293 -0.72259 2.16774 0
M  V30 1601 C 150.503 2.84337 2.0237 0
M  V30 1602 C 151.851 3.35807 2.59843 0
M  V30 1603 O 152.875 2.85802 2.12593 0
M  V30 1604 O 151.734 4.23029 3.45989 0
M  V30 1605 H 148.828 0.617057 0.550608 0
M  V30 1606 H 151.374 1.63344 0.460082 0
M  V30 1607 H 150.146 3.66278 1.37681 0
M  V30 1608 H 149.769 2.77708 2.84542 0
M  V30 1609 N 150.766 -0.704594 1.40972 0
M  V30 1610 C 151.696 -1.83124 1.44872 0
M  V30 1611 C 152.677 -1.67281 0.30838 0
M  V30 1612 O 153.862 -1.87149 0.518556 0
M  V30 1613 C 150.992 -3.21181 1.32136 0
M  V30 1614 C 149.946 -3.51714 2.43888 0
M  V30 1615 C 149.272 -4.89032 2.16222 0
M  V30 1616 C 150.572 -3.516 3.86232 0
M  V30 1617 H 152.266 -1.80117 2.39161 0
M  V30 1618 H 149.812 -0.865145 1.15114 0
M  V30 1619 H 151.765 -3.99702 1.33479 0
M  V30 1620 H 150.489 -3.24791 0.343279 0
M  V30 1621 H 149.148 -2.75539 2.41813 0
M  V30 1622 H 148.796 -4.89256 1.16778 0
M  V30 1623 H 148.496 -5.10426 2.911 0
M  V30 1624 H 150.02 -5.69873 2.19265 0
M  V30 1625 H 151.434 -4.2014 3.9007 0
M  V30 1626 H 149.831 -3.84523 4.60719 0
M  V30 1627 H 150.901 -2.50757 4.15029 0
M  V30 1628 N 152.244 -1.26651 -0.937939 0
M  V30 1629 C 153.469 -1.15279 -1.72411 0
M  V30 1630 C 153.894 0.287866 -1.85884 0
M  V30 1631 O 153.252 1.20855 -1.35143 0
M  V30 1632 C 153.3 -1.83028 -3.10698 0
M  V30 1633 O 152.404 -1.12128 -3.96864 0
M  V30 1634 H 151.745 -0.401504 -0.528858 0
M  V30 1635 H 154.275 -1.67531 -1.1745 0
M  V30 1636 H 154.285 -1.89981 -3.6107 0
M  V30 1637 H 152.96 -2.87833 -3.00208 0
M  V30 1638 H 151.537 -1.13173 -3.55312 0
M  V30 1639 N 153.722 1.14298 -1.08507 0
M  V30 1640 C 154.95 1.89219 -0.836876 0
M  V30 1641 C 155.365 1.78638 0.611054 0
M  V30 1642 O 154.722 1.14643 1.41998 0
M  V30 1643 C 154.773 3.39158 -1.25116 0
M  V30 1644 O 154.494 3.49449 -2.64229 0
M  V30 1645 C 155.995 4.31073 -1.03398 0
M  V30 1646 H 153.215 0.599328 -0.301739 0
M  V30 1647 H 155.759 1.44746 -1.44461 0
M  V30 1648 H 153.914 3.81251 -0.687514 0
M  V30 1649 H 154.328 4.42589 -2.81452 0
M  V30 1650 H 155.802 5.34646 -1.37323 0
M  V30 1651 H 156.279 4.3919 0.0289259 0
M  V30 1652 H 156.885 3.94738 -1.58311 0
M  V30 1653 N 155.201 0.870884 1.31352 0
M  V30 1654 C 156.133 0.28455 2.27427 0
M  V30 1655 C 157.146 -0.552927 1.53123 0
M  V30 1656 O 158.335 -0.374771 1.74521 0
M  V30 1657 C 155.435 -0.615164 3.3327 0
M  V30 1658 C 154.608 0.190079 4.36987 0
M  V30 1659 C 153.667 -0.637917 5.22319 0
M  V30 1660 O 152.693 -0.065626 5.69162 0
M  V30 1661 N 153.895 -1.94973 5.46778 0
M  V30 1662 H 156.66 1.11017 2.7838 0
M  V30 1663 H 154.221 0.732458 1.44384 0
M  V30 1664 H 156.213 -1.1748 3.87273 0
M  V30 1665 H 154.783 -1.34146 2.82354 0
M  V30 1666 H 154.003 0.931165 3.83044 0
M  V30 1667 H 155.291 0.742579 5.03352 0
M  V30 1668 H 154.689 -2.4378 5.10478 0
M  V30 1669 H 153.246 -2.45713 6.03712 0
M  V30 1670 N 156.679 -1.44442 0.630414 0
M  V30 1671 C 157.642 -2.29107 -0.0652523 0
M  V30 1672 C 158.642 -1.41002 -0.772995 0
M  V30 1673 O 159.832 -1.62881 -0.617692 0
M  V30 1674 C 156.964 -3.22564 -1.10296 0
M  V30 1675 H 158.157 -2.92103 0.679401 0
M  V30 1676 H 155.71 -1.51343 0.390517 0
M  V30 1677 H 156.445 -2.64416 -1.87762 0
M  V30 1678 H 156.23 -3.87491 -0.59941 0
M  V30 1679 H 157.72 -3.86167 -1.5895 0
M  V30 1680 N 158.157 -0.370918 -1.53173 0
M  V30 1681 C 159.387 0.217389 -2.05453 0
M  V30 1682 C 159.795 1.42568 -1.24382 0
M  V30 1683 O 159.138 1.81571 -0.278839 0
M  V30 1684 C 159.2 0.669827 -3.53205 0
M  V30 1685 C 158.864 -0.4225 -4.55043 0
M  V30 1686 C 159.861 -1.27407 -5.04047 0
M  V30 1687 C 157.546 -0.58427 -4.9889 0
M  V30 1688 C 159.54 -2.27271 -5.95505 0
M  V30 1689 C 157.227 -1.58627 -5.90153 0
M  V30 1690 C 158.225 -2.42892 -6.38351 0
M  V30 1691 O 157.913 -3.41382 -7.27814 0
M  V30 1692 H 157.645 0.0408171 -0.674767 0
M  V30 1693 H 160.199 -0.5292 -1.98466 0
M  V30 1694 H 158.429 1.4681 -3.57748 0
M  V30 1695 H 160.118 1.18173 -3.88317 0
M  V30 1696 H 160.884 -1.16031 -4.70916 0
M  V30 1697 H 156.763 0.061851 -4.60959 0
M  V30 1698 H 160.307 -2.93079 -6.33049 0
M  V30 1699 H 156.204 -1.70048 -6.22699 0
M  V30 1700 H 156.972 -3.37173 -7.45826 0
M  V30 1701 N 159.635 1.57281 -0.100228 0
M  V30 1702 C 160.567 2.11342 0.886972 0
M  V30 1703 C 161.58 1.05182 1.24261 0
M  V30 1704 O 162.769 1.32613 1.19483 0
M  V30 1705 C 159.869 2.5825 2.19454 0
M  V30 1706 C 159.042 3.88302 2.01346 0
M  V30 1707 C 158.101 4.21004 3.15661 0
M  V30 1708 O 157.127 4.9014 2.89398 0
M  V30 1709 N 158.329 3.76818 4.41575 0
M  V30 1710 H 161.094 2.96668 0.425216 0
M  V30 1711 H 158.655 1.61678 0.0847334 0
M  V30 1712 H 160.647 2.7717 2.94888 0
M  V30 1713 H 159.217 1.77907 2.57037 0
M  V30 1714 H 158.437 3.7848 1.10212 0
M  V30 1715 H 159.725 4.73375 1.8653 0
M  V30 1716 H 159.123 3.2102 4.65792 0
M  V30 1717 H 157.68 4.00882 5.13942 0
M  V30 1718 N 161.113 -0.173488 1.56642 0
M  V30 1719 C 162.361 -0.888706 1.81512 0
M  V30 1720 C 162.682 -1.82875 0.676872 0
M  V30 1721 O 161.952 -1.93536 -0.303414 0
M  V30 1722 H 160.532 -0.331164 0.669582 0
M  V30 1723 H 163.194 -0.173823 1.94123 0
M  V30 1724 H 162.29 -1.46691 2.75478 0
M  V30 1725 N 162.591 -1.51276 -0.441967 0
M  V30 1726 C 163.839 -1.63392 -1.18943 0
M  V30 1727 C 164.16 -0.350159 -1.9183 0
M  V30 1728 O 163.43 0.633784 -1.85364 0
M  V30 1729 H 162.01 -0.602164 -0.442049 0
M  V30 1730 H 164.672 -1.88186 -0.507165 0
M  V30 1731 H 163.768 -2.45934 -1.92154 0
M  V30 1732 N 164.069 0.697108 -1.41344 0
M  V30 1733 C 165.317 1.45426 -1.40341 0
M  V30 1734 C 165.638 1.94996 -0.0128787 0
M  V30 1735 O 164.908 1.71599 0.945027 0
M  V30 1736 H 163.488 0.539594 -0.516573 0
M  V30 1737 H 166.15 0.825201 -1.76569 0
M  V30 1738 H 165.246 2.31817 -2.08967 0
M  V30 1739 N 165.547 1.27147 0.931209 0
M  V30 1740 C 166.963 1.04475 1.20653 0
M  V30 1741 C 167.163 -0.223885 2.00252 0
M  V30 1742 O 166.219 -0.930332 2.34736 0
M  V30 1743 C 167.532 2.28209 1.95809 0
M  V30 1744 C 169.08 2.33211 2.08762 0
M  V30 1745 C 169.555 3.56665 2.87323 0
M  V30 1746 N 171.046 3.57201 2.94892 0
M  V30 1747 C 171.781 4.49395 3.56134 0
M  V30 1748 N 171.277 5.51889 4.18796 0
M  V30 1749 N 173.07 4.37026 3.53504 0
M  V30 1750 H 165.221 2.08612 0.399333 0
M  V30 1751 H 167.484 0.917312 0.239253 0
M  V30 1752 H 167.19 3.20538 1.44736 0
M  V30 1753 H 167.064 2.33247 2.96438 0
M  V30 1754 H 169.451 1.41391 2.59023 0
M  V30 1755 H 169.532 2.32178 1.07364 0
M  V30 1756 H 169.176 4.4882 2.37746 0
M  V30 1757 H 169.106 3.54948 3.88998 0
M  V30 1758 H 171.597 2.83074 2.50354 0
M  V30 1759 H 171.91 6.18409 4.63454 0
M  V30 1760 H 170.255 5.55735 4.17353 0
M  V30 1761 H 173.446 3.56166 3.03749 0
M  V30 1762 H 173.619 5.09067 4.00942 0
M  V30 1763 N 167.025 -1.13721 1.09112 0
M  V30 1764 C 168.273 -1.84559 0.823562 0
M  V30 1765 C 168.594 -1.83754 -0.652658 0
M  V30 1766 O 167.864 -1.29102 -1.47342 0
M  V30 1767 H 166.444 -0.683376 0.301673 0
M  V30 1768 H 169.106 -1.37771 1.37859 0
M  V30 1769 H 168.202 -2.8917 1.17419 0
M  V30 1770 N 168.503 -0.877838 -1.30888 0
M  V30 1771 C 169.752 -0.488793 -1.95688 0
M  V30 1772 C 170.065 0.965485 -1.70111 0
M  V30 1773 O 171.271 1.46104 -2.28836 0
M  V30 1774 C 169.727 -0.823201 -3.50359 0
M  V30 1775 C 169.335 -2.29477 -3.84765 0
M  V30 1776 C 171.079 -0.503009 -4.21509 0
M  V30 1777 C 168.986 -2.57118 -5.32583 0
M  V30 1778 H 167.916 -0.179062 -0.732429 0
M  V30 1779 H 170.567 -1.07183 -1.48943 0
M  V30 1780 H 168.949 -0.169331 -3.95638 0
M  V30 1781 H 170.123 -2.99236 -3.5042 0
M  V30 1782 H 168.438 -2.58178 -3.267 0
M  V30 1783 H 171.035 -0.68665 -5.30273 0
M  V30 1784 H 171.378 0.557109 -4.12555 0
M  V30 1785 H 171.911 -1.11376 -3.8189 0
M  V30 1786 H 168.65 -3.61843 -5.4658 0
M  V30 1787 H 168.17 -1.91961 -5.68253 0
M  V30 1788 H 169.849 -2.42251 -5.99936 0
M  V30 1789 N 169.982 1.44106 -0.638065 0
M  V30 1790 C 171.259 1.95453 -0.0759321 0
M  V30 1791 C 171.639 1.57984 1.40015 0
M  V30 1792 O 170.987 0.857361 2.11806 0
M  V30 1793 C 171.197 3.47655 -0.306132 0
M  V30 1794 C 172.545 4.24114 -0.203008 0
M  V30 1795 O 173.569 3.55405 -0.237871 0
M  V30 1796 O 172.428 5.46381 -0.113827 0
M  V30 1797 H 169.522 0.826797 0.0183332 0
M  V30 1798 H 172.068 1.54122 -0.710251 0
M  V30 1799 H 170.84 3.68 -1.3301 0
M  V30 1800 H 170.463 3.95949 0.361991 0
M  V30 1801 N 171.46 0.379036 1.52974 0
M  V30 1802 C 172.392 -0.495963 2.2377 0
M  V30 1803 C 173.405 -1.03517 1.25651 0
M  V30 1804 O 174.594 -0.939249 1.51791 0
M  V30 1805 C 171.694 -1.69894 2.93239 0
M  V30 1806 C 170.867 -1.2889 4.17979 0
M  V30 1807 C 169.926 -2.35543 4.70538 0
M  V30 1808 O 168.952 -1.97375 5.33883 0
M  V30 1809 N 170.154 -3.67318 4.49508 0
M  V30 1810 H 172.919 0.110523 2.99496 0
M  V30 1811 H 170.48 0.204878 1.60598 0
M  V30 1812 H 172.472 -2.40747 3.25304 0
M  V30 1813 H 171.042 -2.212 2.20883 0
M  V30 1814 H 170.262 -0.409676 3.92065 0
M  V30 1815 H 171.55 -0.991443 4.99047 0
M  V30 1816 H 170.948 -4.01095 3.98923 0
M  V30 1817 H 169.505 -4.34235 4.8609 0
M  V30 1818 N 172.938 -1.57226 0.108567 0
M  V30 1819 C 173.888 -2.11305 -0.856396 0
M  V30 1820 C 174.872 -1.03129 -1.23504 0
M  V30 1821 O 176.064 -1.29381 -1.20787 0
M  V30 1822 C 173.193 -2.70771 -2.11041 0
M  V30 1823 C 172.279 -3.86011 -1.7566 0
M  V30 1824 N 172.67 -4.93492 -1.10902 0
M  V30 1825 C 170.968 -3.95999 -2.05185 0
M  V30 1826 C 171.669 -5.73984 -0.944308 0
M  V30 1827 N 170.645 -5.2346 -1.46596 0
M  V30 1828 H 174.447 -2.91784 -0.352002 0
M  V30 1829 H 171.961 -1.62126 -0.0942324 0
M  V30 1830 H 173.958 -3.07851 -2.81128 0
M  V30 1831 H 172.618 -1.91751 -2.62034 0
M  V30 1832 H 173.629 -5.1208 -0.774235 0
M  V30 1833 H 170.306 -3.28007 -2.58298 0
M  V30 1834 H 171.696 -6.70479 -0.436813 0
M  V30 1835 N 174.416 0.165178 -1.56732 0
M  V30 1836 C 175.349 1.23336 -1.91998 0
M  V30 1837 C 176.327 1.42476 -0.783531 0
M  V30 1838 O 177.511 1.57384 -1.03743 0
M  V30 1839 C 174.638 2.59533 -2.17625 0
M  V30 1840 C 173.684 2.57093 -3.40302 0
M  V30 1841 S 174.517 2.05571 -4.9447 0
M  V30 1842 C 175.673 3.43532 -5.23198 0
M  V30 1843 H 175.906 0.932387 -2.82301 0
M  V30 1844 H 173.439 0.370013 -1.49901 0
M  V30 1845 H 175.397 3.37918 -2.3307 0
M  V30 1846 H 174.058 2.86827 -1.28019 0
M  V30 1847 H 173.251 3.57308 -3.55453 0
M  V30 1848 H 172.853 1.86806 -3.24005 0
M  V30 1849 H 175.145 4.39559 -5.15552 0
M  V30 1850 H 176.088 3.33251 -6.2478 0
M  V30 1851 H 176.496 3.39828 -4.50752 0
M  V30 1852 N 175.894 1.51508 0.433938 0
M  V30 1853 C 176.824 1.76016 1.53429 0
M  V30 1854 C 177.805 0.610112 1.58782 0
M  V30 1855 O 178.99 0.853177 1.74455 0
M  V30 1856 C 176.12 1.88831 2.9148 0
M  V30 1857 C 175.074 3.04288 3.00987 0
M  V30 1858 C 174.4 3.0229 4.4105 0
M  V30 1859 C 175.7 4.44193 2.74754 0
M  V30 1860 H 177.394 2.68152 1.33171 0
M  V30 1861 H 174.94 1.29035 0.639214 0
M  V30 1862 H 176.893 2.04559 3.6842 0
M  V30 1863 H 175.617 0.933455 3.12976 0
M  V30 1864 H 174.276 2.8827 2.26486 0
M  V30 1865 H 173.924 2.04576 4.59519 0
M  V30 1866 H 173.624 3.79822 4.4834 0
M  V30 1867 H 175.148 3.20116 5.1996 0
M  V30 1868 H 176.562 4.60544 3.41426 0
M  V30 1869 H 174.959 5.23457 2.9345 0
M  V30 1870 H 176.029 4.53996 1.70339 0
M  V30 1871 N 177.372 -0.689602 1.41712 0
M  V30 1872 C 178.335 -1.78521 1.43746 0
M  V30 1873 C 179.335 -1.57436 0.327191 0
M  V30 1874 O 180.525 -1.64 0.587348 0
M  V30 1875 C 177.657 -3.16971 1.25467 0
M  V30 1876 H 178.85 -1.78108 2.41283 0
M  V30 1877 H 176.403 -0.89781 1.27942 0
M  V30 1878 H 177.138 -3.23019 0.287948 0
M  V30 1879 H 176.923 -3.33678 2.05917 0
M  V30 1880 H 178.413 -3.96935 1.2974 0
M  V30 1881 N 178.85 -1.27639 -0.924453 0
M  V30 1882 C 180.078 -1.16989 -1.70649 0
M  V30 1883 C 180.493 0.272869 -1.86818 0
M  V30 1884 O 179.85 1.18549 -1.38753 0
M  V30 1885 C 179.901 -1.85229 -3.10439 0
M  V30 1886 O 179.622 -3.23868 -2.95028 0
M  V30 1887 C 181.123 -1.80746 -4.04779 0
M  V30 1888 H 178.343 -0.406595 -0.53378 0
M  V30 1889 H 180.887 -1.68569 -1.15778 0
M  V30 1890 H 179.042 -1.37545 -3.6216 0
M  V30 1891 H 179.456 -3.57889 -3.83426 0
M  V30 1892 H 180.93 -2.33101 -5.00368 0
M  V30 1893 H 181.407 -0.777499 -4.32263 0
M  V30 1894 H 182.013 -2.28059 -3.58984 0
M  V30 1895 N 180.328 1.1314 -1.09713 0
M  V30 1896 C 181.258 2.20748 -0.761102 0
M  V30 1897 C 182.239 1.68061 0.262566 0
M  V30 1898 O 183.424 1.93765 0.129977 0
M  V30 1899 C 180.554 3.46812 -0.184054 0
M  V30 1900 C 179.508 4.12606 -1.13757 0
M  V30 1901 C 178.834 5.33031 -0.422083 0
M  V30 1902 C 180.134 4.59603 -2.48118 0
M  V30 1903 H 181.828 2.49113 -1.66082 0
M  V30 1904 H 179.374 1.19734 -0.799987 0
M  V30 1905 H 181.327 4.21353 0.0631215 0
M  V30 1906 H 180.051 3.17851 0.750868 0
M  V30 1907 H 178.71 3.40036 -1.37007 0
M  V30 1908 H 178.358 5.00335 0.517072 0
M  V30 1909 H 178.058 5.77999 -1.05788 0
M  V30 1910 H 179.582 6.10325 -0.183277 0
M  V30 1911 H 180.996 5.25552 -2.29059 0
M  V30 1912 H 179.393 5.15321 -3.07514 0
M  V30 1913 H 180.463 3.73971 -3.08665 0
M  V30 1914 N 181.806 0.884767 1.30421 0
M  V30 1915 C 183.222 0.57874 1.48737 0
M  V30 1916 C 183.422 -0.883567 1.81095 0
M  V30 1917 O 182.478 -1.6648 1.89844 0
M  V30 1918 C 183.791 1.49171 2.61091 0
M  V30 1919 C 185.339 1.49532 2.74971 0
M  V30 1920 C 185.814 2.39421 3.90438 0
M  V30 1921 N 187.305 2.37383 3.97748 0
M  V30 1922 C 188.04 3.03647 4.86401 0
M  V30 1923 N 187.536 3.79136 5.79852 0
M  V30 1924 N 189.329 2.9288 4.79768 0
M  V30 1925 H 181.48 1.83075 1.0769 0
M  V30 1926 H 183.743 0.783637 0.533495 0
M  V30 1927 H 183.449 2.53291 2.44001 0
M  V30 1928 H 183.323 1.20113 3.57565 0
M  V30 1929 H 185.71 0.46163 2.91467 0
M  V30 1930 H 185.791 1.8262 1.79119 0
M  V30 1931 H 185.435 3.42874 3.74699 0
M  V30 1932 H 185.365 2.03649 4.85628 0
M  V30 1933 H 187.856 1.82525 3.30897 0
M  V30 1934 H 188.169 4.26789 6.4426 0
M  V30 1935 H 186.514 3.83243 5.79784 0
M  V30 1936 H 189.705 2.33433 4.05742 0
M  V30 1937 H 189.878 3.448 5.4865 0
M  V30 1938 N 183.284 -1.43765 0.645699 0
M  V30 1939 C 184.561 -1.9541 0.0862963 0
M  V30 1940 C 184.941 -1.58725 -1.39175 0
M  V30 1941 O 184.289 -0.868581 -2.11348 0
M  V30 1942 C 184.499 -3.47488 0.324565 0
M  V30 1943 C 185.847 -4.24001 0.225497 0
M  V30 1944 O 186.871 -3.55274 0.256715 0
M  V30 1945 O 185.73 -5.46313 0.142801 0
M  V30 1946 H 182.824 -0.826882 -0.0139483 0
M  V30 1947 H 185.37 -1.53743 0.718415 0
M  V30 1948 H 184.142 -3.67289 1.3496 0
M  V30 1949 H 183.765 -3.96135 -0.340987 0
M  V30 1950 N 184.763 -0.387143 -1.52771 0
M  V30 1951 C 185.726 0.436939 -2.24997 0
M  V30 1952 C 186.726 0.991991 -1.26555 0
M  V30 1953 O 187.916 0.874335 -1.50669 0
M  V30 1954 C 185.048 1.61281 -3.00335 0
M  V30 1955 H 186.241 -0.195365 -2.99263 0
M  V30 1956 H 183.794 -0.139218 -1.55679 0
M  V30 1957 H 184.529 2.2826 -2.30364 0
M  V30 1958 H 184.314 1.22154 -3.72587 0
M  V30 1959 H 185.804 2.19629 -3.5518 0
M  V30 1960 N 186.241 1.57166 -0.116904 0
M  V30 1961 C 187.487 1.95412 0.542405 0
M  V30 1962 C 187.82 1.00019 1.66463 0
M  V30 1963 O 187.095 0.0370346 1.94465 0
M  V30 1964 C 187.378 3.43615 1.07708 0
M  V30 1965 C 187.231 4.49781 -0.0415868 0
M  V30 1966 C 188.55 3.93616 1.96861 0
M  V30 1967 H 185.669 0.710543 0.195696 0
M  V30 1968 H 188.311 1.89027 -0.192038 0
M  V30 1969 H 186.461 3.49187 1.70296 0
M  V30 1970 H 188.133 4.56308 -0.676793 0
M  V30 1971 H 186.376 4.28033 -0.705019 0
M  V30 1972 H 187.047 5.50733 0.373717 0
M  V30 1973 H 189.523 3.90335 1.44146 0
M  V30 1974 H 188.399 4.97838 2.3119 0
M  V30 1975 H 188.66 3.34188 2.89432 0
M  V30 1976 N 187.719 -0.156864 1.56817 0
M  V30 1977 C 188.649 -1.19589 2.00551 0
M  V30 1978 C 189.63 -1.4536 0.883426 0
M  V30 1979 O 190.815 -1.56449 1.15054 0
M  V30 1980 C 187.945 -2.53143 2.37773 0
M  V30 1981 C 186.899 -2.41913 3.53075 0
M  V30 1982 C 186.225 -3.80088 3.76081 0
M  V30 1983 C 187.525 -1.91157 4.86062 0
M  V30 1984 H 189.219 -0.832293 2.87599 0
M  V30 1985 H 186.765 -0.398918 1.38364 0
M  V30 1986 H 188.718 -3.26047 2.66967 0
M  V30 1987 H 187.442 -2.91319 1.4765 0
M  V30 1988 H 186.101 -1.71462 3.24031 0
M  V30 1989 H 185.749 -4.15683 2.83225 0
M  V30 1990 H 185.449 -3.73439 4.53671 0
M  V30 1991 H 186.973 -4.54556 4.0769 0
M  V30 1992 H 188.387 -2.53846 5.14038 0
M  V30 1993 H 186.784 -1.95422 5.67389 0
M  V30 1994 H 187.854 -0.866673 4.77092 0
M  V30 1995 N 189.197 -1.51736 -0.425897 0
M  V30 1996 C 190.445 -1.64644 -1.17204 0
M  V30 1997 C 190.766 -0.370486 -1.91448 0
M  V30 1998 O 190.036 0.614088 -1.86026 0
M  V30 1999 H 188.616 -0.606819 -0.435638 0
M  V30 2000 H 191.278 -1.88713 -0.487177 0
M  V30 2001 H 190.374 -2.47958 -1.89534 0
M  V30 2002 N 190.675 0.682077 -1.42076 0
M  V30 2003 C 191.952 1.43755 -1.32642 0
M  V30 2004 C 192.332 2.11063 0.0396611 0
M  V30 2005 O 191.68 2.02701 1.05474 0
M  V30 2006 C 191.89 2.44596 -2.48946 0
M  V30 2007 C 193.238 3.09454 -2.9073 0
M  V30 2008 O 194.262 2.54922 -2.48783 0
M  V30 2009 O 193.121 4.08253 -3.63307 0
M  V30 2010 H 190.215 0.640857 -0.522715 0
M  V30 2011 H 192.761 0.711415 -1.54068 0
M  V30 2012 H 191.533 1.93609 -3.40046 0
M  V30 2013 H 191.156 3.24701 -2.29467 0
M  V30 2014 N 192.153 1.28127 0.917671 0
M  V30 2015 C 193.4 1.15052 1.66641 0
M  V30 2016 C 193.728 -0.301677 1.92146 0
M  V30 2017 O 192.983 -1.23622 1.51711 0
M  V30 2018 C 193.282 1.89018 3.03327 0
M  V30 2019 C 192.948 3.38832 2.97496 0
M  V30 2020 C 191.61 3.79693 2.95613 0
M  V30 2021 C 193.962 4.34378 2.88036 0
M  V30 2022 C 191.29 5.14447 2.82066 0
M  V30 2023 C 193.642 5.69201 2.7603 0
M  V30 2024 C 192.306 6.09343 2.72502 0
M  V30 2025 H 191.576 0.421006 0.609783 0
M  V30 2026 H 194.223 1.58855 1.06945 0
M  V30 2027 H 192.528 1.37752 3.66785 0
M  V30 2028 H 194.225 1.76321 3.60156 0
M  V30 2029 H 190.815 3.06342 2.99754 0
M  V30 2030 H 194.999 4.03775 2.88581 0
M  V30 2031 H 190.255 5.44681 2.77728 0
M  V30 2032 H 194.429 6.42901 2.67678 0
M  V30 2033 H 192.056 7.13712 2.61762 0
M  V30 2034 N 193.631 -1.12557 1.10312 0
M  V30 2035 C 195.047 -1.36036 0.834649 0
M  V30 2036 C 195.247 -1.93946 -0.546539 0
M  V30 2037 O 194.303 -2.16484 -1.29966 0
M  V30 2038 C 195.616 -2.30312 1.9333 0
M  V30 2039 C 197.164 -2.43906 1.9616 0
M  V30 2040 C 197.639 -3.41496 3.05195 0
M  V30 2041 N 199.13 -3.49053 3.04494 0
M  V30 2042 C 199.865 -4.24471 3.85502 0
M  V30 2043 N 199.361 -5.02966 4.76442 0
M  V30 2044 N 201.154 -4.19864 3.73725 0
M  V30 2045 H 193.305 -0.733246 1.99342 0
M  V30 2046 H 195.568 -0.385234 0.866198 0
M  V30 2047 H 195.274 -1.94933 2.92735 0
M  V30 2048 H 195.148 -3.30421 1.81939 0
M  V30 2049 H 197.535 -2.78567 0.973886 0
M  V30 2050 H 197.616 -1.4369 2.11629 0
M  V30 2051 H 197.26 -3.07565 4.04186 0
M  V30 2052 H 197.19 -4.41539 2.86968 0
M  V30 2053 H 199.681 -2.93053 2.38596 0
M  V30 2054 H 199.994 -5.57846 5.34815 0
M  V30 2055 H 198.339 -5.02167 4.80472 0
M  V30 2056 H 201.53 -3.57623 3.02032 0
M  V30 2057 H 201.703 -4.78386 4.37093 0
M  V30 2058 N 195.109 -0.891671 -1.2995 0
M  V30 2059 C 196.52 -0.563104 -1.78006 0
M  V30 2060 C 196.871 0.920978 -1.73241 0
M  V30 2061 O 195.996 1.71987 -1.31337 0
M  V30 2062 C 196.591 -1.01539 -3.23226 0
M  V30 2063 C 195.15 -0.738124 -3.69092 0
M  V30 2064 C 194.297 -1.19461 -2.50249 0
M  V30 2065 H 197.248 -1.07522 -1.16725 0
M  V30 2066 H 197.269 -0.347217 -3.78912 0
M  V30 2067 H 196.781 -2.09555 -3.26662 0
M  V30 2068 H 194.882 0.329766 -3.71138 0
M  V30 2069 H 194.995 -1.33037 -4.60259 0
M  V30 2070 H 193.359 -0.613787 -2.47194 0
M  V30 2071 H 194.142 -2.28265 -2.56417 0
M  V30 2072 N 196.587 1.43421 -0.653314 0
M  V30 2073 C 197.864 1.95361 -0.0966581 0
M  V30 2074 C 198.244 1.59461 1.38331 0
M  V30 2075 O 197.592 0.879777 2.10884 0
M  V30 2076 C 197.802 3.47311 -0.342988 0
M  V30 2077 C 199.15 4.23875 -0.24798 0
M  V30 2078 O 200.174 3.55133 -0.275553 0
M  V30 2079 O 199.033 5.4623 -0.171771 0
M  V30 2080 H 196.127 0.826945 0.00956291 0
M  V30 2081 H 198.673 1.5336 -0.726558 0
M  V30 2082 H 197.445 3.66569 -1.36906 0
M  V30 2083 H 197.068 3.9631 0.319975 0
M  V30 2084 N 198.065 0.39524 1.52563 0
M  V30 2085 C 198.995 -0.428384 2.29537 0
M  V30 2086 C 199.976 -1.05831 1.33169 0
M  V30 2087 O 201.161 -1.06995 1.62067 0
M  V30 2088 C 198.291 -1.55274 3.10656 0
M  V30 2089 C 197.245 -1.04855 4.14957 0
M  V30 2090 C 196.571 -2.26543 4.84337 0
M  V30 2091 C 197.871 -0.112324 5.22179 0
M  V30 2092 H 199.565 0.213867 2.98635 0
M  V30 2093 H 197.111 0.104298 1.43622 0
M  V30 2094 H 199.064 -2.1358 3.63265 0
M  V30 2095 H 197.788 -2.22266 2.39302 0
M  V30 2096 H 196.447 -0.487985 3.63338 0
M  V30 2097 H 196.095 -2.92059 4.09525 0
M  V30 2098 H 195.795 -1.93466 5.54837 0
M  V30 2099 H 197.319 -2.85481 5.39753 0
M  V30 2100 H 198.733 -0.603752 5.70112 0
M  V30 2101 H 197.13 0.128968 5.99961 0
M  V30 2102 H 198.2 0.837052 4.77621 0
M  V30 2103 N 199.544 -1.57102 0.125237 0
M  V30 2104 C 200.772 -1.99761 -0.538797 0
M  V30 2105 C 201.187 -1.00503 -1.59827 0
M  V30 2106 O 200.544 0.00119474 -1.825 0
M  V30 2107 C 200.595 -3.42408 -1.15927 0
M  V30 2108 O 200.316 -4.37869 -0.142143 0
M  V30 2109 C 201.817 -4.00232 -1.90602 0
M  V30 2110 H 199.037 -0.655772 -0.14214 0
M  V30 2111 H 201.581 -2.03383 0.213413 0
M  V30 2112 H 199.736 -3.39706 -1.86223 0
M  V30 2113 H 200.15 -5.21128 -0.593775 0
M  V30 2114 H 201.624 -5.02105 -2.29335 0
M  V30 2115 H 202.101 -3.39721 -2.78363 0
M  V30 2116 H 202.707 -4.06499 -1.25055 0
M  V30 2117 N 201.022 0.148545 -1.56898 0
M  V30 2118 C 201.952 1.18524 -2.01182 0
M  V30 2119 C 202.933 1.4489 -0.891123 0
M  V30 2120 O 204.118 1.55836 -1.15882 0
M  V30 2121 C 201.248 2.51879 -2.39112 0
M  V30 2122 C 200.202 2.40038 -3.54353 0
M  V30 2123 C 199.528 3.78089 -3.78091 0
M  V30 2124 C 200.828 1.88577 -4.87069 0
M  V30 2125 H 202.522 0.817029 -2.88036 0
M  V30 2126 H 200.068 0.391575 -1.38574 0
M  V30 2127 H 202.021 3.24627 -2.68692 0
M  V30 2128 H 200.745 2.90532 -1.49193 0
M  V30 2129 H 199.404 1.69742 -3.24936 0
M  V30 2130 H 199.052 4.14175 -2.85426 0
M  V30 2131 H 198.752 3.71028 -4.55645 0
M  V30 2132 H 200.276 4.52387 -4.10095 0
M  V30 2133 H 201.69 2.51117 -5.15377 0
M  V30 2134 H 200.087 1.9241 -5.68417 0
M  V30 2135 H 201.157 0.84136 -4.77545 0
M  V30 2136 N 202.5 1.5196 0.417844 0
M  V30 2137 C 203.73 1.69181 1.18581 0
M  V30 2138 C 204.138 0.397104 1.84986 0
M  V30 2139 O 203.481 -0.636011 1.72339 0
M  V30 2140 C 203.543 2.76497 2.29759 0
M  V30 2141 C 203.207 4.18514 1.83563 0
M  V30 2142 C 204.204 5.02648 1.32821 0
M  V30 2143 C 201.889 4.64708 1.90661 0
M  V30 2144 C 203.883 6.31044 0.897894 0
M  V30 2145 C 201.57 5.93096 1.47241 0
M  V30 2146 C 202.568 6.76093 0.968891 0
M  V30 2147 O 202.256 8.02078 0.540924 0
M  V30 2148 H 201.988 0.570457 0.362705 0
M  V30 2149 H 204.542 1.99249 0.498885 0
M  V30 2150 H 202.772 2.41786 3.01789 0
M  V30 2151 H 204.461 2.82403 2.91553 0
M  V30 2152 H 205.227 4.68154 1.26716 0
M  V30 2153 H 201.106 4.00216 2.28797 0
M  V30 2154 H 204.65 6.95776 0.504192 0
M  V30 2155 H 200.547 6.271 1.53022 0
M  V30 2156 H 201.315 8.15794 0.66502 0
M  V30 2157 N 203.978 -0.674533 1.42435 0
M  V30 2158 C 204.908 -1.80009 1.48724 0
M  V30 2159 C 205.889 -1.6659 0.343793 0
M  V30 2160 O 207.074 -1.86007 0.558137 0
M  V30 2161 C 204.204 -3.18306 1.38919 0
M  V30 2162 C 203.158 -3.46461 2.51294 0
M  V30 2163 C 202.484 -4.84335 2.26547 0
M  V30 2164 C 203.784 -3.43328 3.93603 0
M  V30 2165 H 205.478 -1.75004 2.42928 0
M  V30 2166 H 203.024 -0.840533 1.16923 0
M  V30 2167 H 204.977 -3.9678 1.41927 0
M  V30 2168 H 203.701 -3.2399 0.412094 0
M  V30 2169 H 202.36 -2.70348 2.47604 0
M  V30 2170 H 202.008 -4.86669 1.2713 0
M  V30 2171 H 201.708 -5.04136 3.01861 0
M  V30 2172 H 203.232 -5.65094 2.31304 0
M  V30 2173 H 204.646 -4.11772 3.98894 0
M  V30 2174 H 203.043 -3.74664 4.68771 0
M  V30 2175 H 204.113 -2.41897 4.20255 0
M  V30 2176 N 205.456 -1.28612 -0.910864 0
M  V30 2177 C 206.733 -1.06632 -1.63979 0
M  V30 2178 C 207.113 0.393351 -2.07403 0
M  V30 2179 O 206.461 1.37999 -1.82122 0
M  V30 2180 C 206.671 -2.0436 -2.8291 0
M  V30 2181 C 208.019 -2.34666 -3.5386 0
M  V30 2182 O 209.043 -2.02467 -2.93062 0
M  V30 2183 O 207.902 -2.89631 -4.63439 0
M  V30 2184 H 204.996 -0.407737 -0.7195 0
M  V30 2185 H 207.542 -1.39942 -0.959914 0
M  V30 2186 H 206.314 -3.02727 -2.47936 0
M  V30 2187 H 205.937 -1.71714 -3.58609 0
M  V30 2188 N 206.934 1.1197 -1.10907 0
M  V30 2189 C 208.18 1.8386 -0.855773 0
M  V30 2190 C 208.513 1.84134 0.617103 0
M  V30 2191 O 207.788 1.29041 1.45529 0
M  V30 2192 C 208.071 3.31305 -1.411 0
M  V30 2193 C 207.924 3.39456 -2.9511 0
M  V30 2194 C 209.243 4.2721 -1.05736 0
M  V30 2195 H 206.362 0.667545 -0.312334 0
M  V30 2196 H 209.004 1.31331 -1.37303 0
M  V30 2197 H 207.154 3.76169 -0.97105 0
M  V30 2198 H 208.826 3.03191 -3.47668 0
M  V30 2199 H 207.069 2.79849 -3.31462 0
M  V30 2200 H 207.74 4.43209 -3.29044 0
M  V30 2201 H 210.216 3.90497 -1.43706 0
M  V30 2202 H 209.092 5.28775 -1.47269 0
M  V30 2203 H 209.353 4.42088 0.0325958 0
M  V30 2204 N 208.412 0.89855 1.29475 0
M  V30 2205 C 209.64 0.539261 1.99749 0
M  V30 2206 C 210.055 -0.875716 1.67262 0
M  V30 2207 O 209.412 -1.57786 0.917049 0
M  V30 2208 C 209.463 0.72061 3.54245 0
M  V30 2209 O 209.184 2.07989 3.8558 0
M  V30 2210 C 210.685 0.366118 4.41786 0
M  V30 2211 H 207.905 0.207047 0.638258 0
M  V30 2212 H 210.449 1.20758 1.65039 0
M  V30 2213 H 208.604 0.0994862 3.87272 0
M  V30 2214 H 209.018 2.10841 4.80257 0
M  V30 2215 H 210.492 0.543848 5.49314 0
M  V30 2216 H 210.969 -0.696763 4.33638 0
M  V30 2217 H 211.575 0.964135 4.14228 0
M  V30 2218 N 209.89 -1.43072 0.660911 0
M  V30 2219 C 211.301 -1.84932 0.256348 0
M  V30 2220 C 211.652 -1.55325 -1.19868 0
M  V30 2221 O 210.777 -1.00607 -1.91591 0
M  V30 2222 C 211.372 -3.35684 0.458475 0
M  V30 2223 C 209.931 -3.76245 0.108161 0
M  V30 2224 C 209.078 -2.66749 0.757641 0
M  V30 2225 H 212.029 -1.33116 0.864051 0
M  V30 2226 H 212.05 -3.79365 -0.293683 0
M  V30 2227 H 211.562 -3.572 1.51755 0
M  V30 2228 H 209.663 -3.60338 -0.948014 0
M  V30 2229 H 209.776 -4.76058 0.538992 0
M  V30 2230 H 208.14 -2.53989 0.190185 0
M  V30 2231 H 208.923 -2.91092 1.81989 0
M  V30 2232 N 211.368 -0.403325 -1.52352 0
M  V30 2233 C 212.278 0.432009 -2.30588 0
M  V30 2234 C 213.294 1.05884 -1.38075 0
M  V30 2235 O 214.47 1.06161 -1.71148 0
M  V30 2236 C 211.535 1.53669 -3.10784 0
M  V30 2237 C 210.596 0.933525 -4.19027 0
M  V30 2238 C 209.829 1.98557 -4.9539 0
M  V30 2239 O 210.052 3.20283 -4.71991 0
M  V30 2240 O 208.986 1.59504 -5.80381 0
M  V30 2241 H 212.812 -0.205739 -3.03002 0
M  V30 2242 H 210.397 -0.166675 -1.48467 0
M  V30 2243 H 212.279 2.17814 -3.60742 0
M  V30 2244 H 210.954 2.15915 -2.41169 0
M  V30 2245 H 209.861 0.254954 -3.7323 0
M  V30 2246 H 211.194 0.35508 -4.90918 0
M  V30 2247 N 212.846 1.57033 -0.133567 0
M  V30 2248 C 214.092 1.95976 0.521649 0
M  V30 2249 C 214.425 1.01779 1.65393 0
M  V30 2250 O 213.7 0.0576581 1.94415 0
M  V30 2251 C 213.983 3.44738 1.04057 0
M  V30 2252 C 213.836 4.49711 -0.0892897 0
M  V30 2253 C 215.155 3.95682 1.92675 0
M  V30 2254 H 212.274 0.712579 0.188149 0
M  V30 2255 H 214.916 1.88813 -0.212076 0
M  V30 2256 H 213.066 3.50973 1.66583 0
M  V30 2257 H 214.738 4.55565 -0.725152 0
M  V30 2258 H 212.981 4.27261 -0.750378 0
M  V30 2259 H 213.652 5.51099 0.315284 0
M  V30 2260 H 216.128 3.91841 1.39998 0
M  V30 2261 H 215.004 5.00262 2.25897 0
M  V30 2262 H 215.265 3.37239 2.85872 0
M  V30 2263 N 214.325 -0.140222 1.56975 0
M  V30 2264 C 215.573 -0.850005 1.83356 0
M  V30 2265 C 215.894 -1.81399 0.71551 0
M  V30 2266 O 215.164 -1.94136 -0.262294 0
M  V30 2267 H 213.744 -0.316886 0.676456 0
M  V30 2268 H 216.406 -0.132608 1.94448 0
M  V30 2269 H 215.502 -1.40814 2.78528 0
M  V30 2270 N 215.803 -1.52179 -0.40978 0
M  V30 2271 C 216.733 -1.78435 -1.5061 0
M  V30 2272 C 217.714 -0.635295 -1.57791 0
M  V30 2273 O 218.899 -0.880823 -1.73076 0
M  V30 2274 C 216.029 -1.93444 -2.88439 0
M  V30 2275 C 214.983 -3.09038 -2.96108 0
M  V30 2276 C 214.309 -3.09268 -4.36185 0
M  V30 2277 C 215.609 -4.48508 -2.67652 0
M  V30 2278 H 217.303 -2.70237 -1.28889 0
M  V30 2279 H 214.849 -1.30036 -0.618605 0
M  V30 2280 H 216.802 -2.10394 -3.65119 0
M  V30 2281 H 215.526 -0.983129 -3.11452 0
M  V30 2282 H 214.185 -2.91837 -2.21872 0
M  V30 2283 H 213.833 -2.11861 -4.56206 0
M  V30 2284 H 213.533 -3.86907 -4.42241 0
M  V30 2285 H 215.057 -3.28348 -5.14801 0
M  V30 2286 H 216.471 -4.65918 -3.34056 0
M  V30 2287 H 214.868 -5.28059 -2.85085 0
M  V30 2288 H 215.938 -4.56649 -1.63095 0
M  V30 2289 N 217.281 0.66697 -1.42791 0
M  V30 2290 C 218.228 1.7803 -1.4688 0
M  V30 2291 C 219.198 1.6299 -0.319919 0
M  V30 2292 O 220.383 1.83432 -0.525118 0
M  V30 2293 C 217.523 3.1611 -1.38451 0
M  V30 2294 C 216.636 3.42381 -2.63437 0
M  V30 2295 C 215.771 4.70232 -2.47094 0
M  V30 2296 C 214.81 4.89564 -3.67415 0
M  V30 2297 N 213.947 6.08661 -3.49966 0
M  V30 2298 H 218.787 1.7387 -2.42019 0
M  V30 2299 H 216.324 0.84868 -1.20149 0
M  V30 2300 H 218.282 3.95914 -1.31561 0
M  V30 2301 H 216.912 3.19374 -0.469033 0
M  V30 2302 H 215.964 2.56774 -2.80662 0
M  V30 2303 H 217.276 3.52557 -3.52853 0
M  V30 2304 H 216.43 5.5814 -2.37834 0
M  V30 2305 H 215.169 4.62353 -1.5518 0
M  V30 2306 H 214.174 4.00096 -3.77099 0
M  V30 2307 H 215.399 4.99282 -4.6032 0
M  V30 2308 H 213.345 6.0194 -2.60776 0
M  V30 2309 H 213.262 6.19733 -4.32975 0
M  V30 2310 H 214.53 6.99226 -3.44532 0
M  V30 2311 N 218.759 1.29093 0.90403 0
M  V30 2312 C 220.175 1.07011 1.1841 0
M  V30 2313 C 220.375 -0.181358 2.00682 0
M  V30 2314 O 219.431 -0.880331 2.36657 0
M  V30 2315 C 220.744 2.32311 1.90924 0
M  V30 2316 C 222.292 2.37587 2.03768 0
M  V30 2317 C 222.767 3.62679 2.79693 0
M  V30 2318 N 224.258 3.63376 2.87249 0
M  V30 2319 C 224.993 4.56848 3.46522 0
M  V30 2320 N 224.489 5.60648 4.06996 0
M  V30 2321 N 226.282 4.44426 3.44154 0
M  V30 2322 H 218.433 2.09412 0.354993 0
M  V30 2323 H 220.696 0.922181 0.219742 0
M  V30 2324 H 220.402 3.23536 1.37905 0
M  V30 2325 H 220.276 2.39483 2.91424 0
M  V30 2326 H 222.663 1.46853 2.55965 0
M  V30 2327 H 222.744 2.34403 1.02415 0
M  V30 2328 H 222.388 4.53762 2.28173 0
M  V30 2329 H 222.318 3.63119 3.81381 0
M  V30 2330 H 224.809 2.88321 2.44293 0
M  V30 2331 H 225.122 6.28101 4.50232 0
M  V30 2332 H 223.467 5.64463 4.05471 0
M  V30 2333 H 226.658 3.62529 2.96126 0
M  V30 2334 H 226.831 5.17457 3.90054 0
M  V30 2335 N 220.237 -1.11381 1.11499 0
M  V30 2336 C 221.2 -2.15622 0.777153 0
M  V30 2337 C 222.2 -1.59504 -0.203779 0
M  V30 2338 O 223.39 -1.74188 0.020782 0
M  V30 2339 C 220.522 -3.40556 0.153116 0
M  V30 2340 H 221.715 -2.47021 1.70061 0
M  V30 2341 H 219.268 -1.26577 0.916952 0
M  V30 2342 H 220.003 -3.14767 -0.780536 0
M  V30 2343 H 219.788 -3.8257 0.859238 0
M  V30 2344 H 221.278 -4.17546 -0.0671044 0
M  V30 2345 N 221.715 -0.905404 -1.28997 0
M  V30 2346 C 223.131 -0.60233 -1.47798 0
M  V30 2347 C 223.331 0.854645 -1.82478 0
M  V30 2348 O 222.387 1.63439 -1.92468 0
M  V30 2349 C 223.7 -1.53306 -2.58685 0
M  V30 2350 C 225.248 -1.53887 -2.72558 0
M  V30 2351 C 225.723 -2.45602 -3.86579 0
M  V30 2352 N 227.214 -2.43681 -3.93921 0
M  V30 2353 C 227.949 -3.11347 -4.81509 0
M  V30 2354 N 227.445 -3.88313 -5.73746 0
M  V30 2355 N 229.238 -3.00476 -4.75048 0
M  V30 2356 H 221.389 -1.84765 -1.04764 0
M  V30 2357 H 223.652 -0.792025 -0.520961 0
M  V30 2358 H 223.358 -2.57141 -2.39941 0
M  V30 2359 H 223.232 -1.25787 -3.55609 0
M  V30 2360 H 225.619 -0.507941 -2.90696 0
M  V30 2361 H 225.7 -1.85447 -1.76191 0
M  V30 2362 H 225.344 -3.48792 -3.69197 0
M  V30 2363 H 225.274 -2.11349 -4.82327 0
M  V30 2364 H 227.765 -1.87767 -3.27951 0
M  V30 2365 H 228.078 -4.36985 -6.37389 0
M  V30 2366 H 226.423 -3.92419 -5.73614 0
M  V30 2367 H 229.614 -2.39858 -4.01977 0
M  V30 2368 H 229.787 -3.53485 -5.43095 0
M  V30 2369 N 223.193 1.4272 -0.668489 0
M  V30 2370 C 224.156 2.292 0.00448567 0
M  V30 2371 C 225.156 1.43001 0.735339 0
M  V30 2372 O 226.346 1.64461 0.57429 0
M  V30 2373 C 223.478 3.25375 1.01705 0
M  V30 2374 H 224.671 2.90199 -0.756608 0
M  V30 2375 H 222.224 1.50254 -0.430506 0
M  V30 2376 H 222.959 2.69301 1.80686 0
M  V30 2377 H 222.744 3.88944 0.496463 0
M  V30 2378 H 224.234 3.90245 1.48655 0
M  V30 2379 N 224.671 0.411399 1.52136 0
M  V30 2380 C 226.087 0.0623865 1.59478 0
M  V30 2381 C 226.287 -1.42554 1.4241 0
M  V30 2382 O 225.343 -2.19263 1.2522 0
M  V30 2383 C 226.656 0.559331 2.95452 0
M  V30 2384 C 228.204 0.517503 3.08692 0
M  V30 2385 C 228.679 0.990994 4.4715 0
M  V30 2386 N 230.17 0.947908 4.53397 0
M  V30 2387 C 230.905 1.28544 5.58806 0
M  V30 2388 N 230.401 1.69454 6.71757 0
M  V30 2389 N 232.194 1.20526 5.49026 0
M  V30 2390 H 224.345 1.37982 1.61477 0
M  V30 2391 H 226.608 0.566977 0.759764 0
M  V30 2392 H 226.314 1.59938 3.1323 0
M  V30 2393 H 226.188 -0.0298014 3.77188 0
M  V30 2394 H 228.575 -0.513505 2.90598 0
M  V30 2395 H 228.656 1.14272 2.28857 0
M  V30 2396 H 228.3 2.02034 4.65988 0
M  V30 2397 H 228.23 0.34257 5.25485 0
M  V30 2398 H 230.721 0.647157 3.72317 0
M  V30 2399 H 231.034 1.93513 7.48179 0
M  V30 2400 H 229.379 1.73359 6.73032 0
M  V30 2401 H 232.57 0.884505 4.59667 0
M  V30 2402 H 232.743 1.47161 6.31069 0
M  V30 2403 N 226.149 -1.5696 0.141893 0
M  V30 2404 C 227.397 -1.95573 -0.509484 0
M  V30 2405 C 227.718 -1.02746 -1.65736 0
M  V30 2406 O 226.988 -0.0880311 -1.95702 0
M  V30 2407 H 225.568 -0.722115 -0.191205 0
M  V30 2408 H 228.23 -1.93697 0.216196 0
M  V30 2409 H 227.326 -2.99171 -0.889 0
M  V30 2410 N 227.627 0.131896 -1.57047 0
M  V30 2411 C 228.537 1.1815 -2.02676 0
M  V30 2412 C 229.553 1.46113 -0.944824 0
M  V30 2413 O 230.729 1.57485 -1.25541 0
M  V30 2414 C 227.794 2.49139 -2.41103 0
M  V30 2415 C 226.855 2.28688 -3.63318 0
M  V30 2416 C 226.088 3.53431 -3.99903 0
M  V30 2417 O 226.311 4.60223 -3.36973 0
M  V30 2418 O 225.245 3.45198 -4.93074 0
M  V30 2419 H 229.071 0.824069 -2.92306 0
M  V30 2420 H 226.656 0.341745 -1.45439 0
M  V30 2421 H 228.538 3.26338 -2.66611 0
M  V30 2422 H 227.213 2.84382 -1.54624 0
M  V30 2423 H 226.12 1.4939 -3.42977 0
M  V30 2424 H 227.453 1.98355 -4.50462 0
M  V30 2425 N 229.106 1.52395 0.401703 0
M  V30 2426 C 230.036 1.79231 1.49661 0
M  V30 2427 C 231.017 0.643654 1.57452 0
M  V30 2428 O 232.202 0.889989 1.72606 0
M  V30 2429 C 229.332 1.94971 2.87409 0
M  V30 2430 C 228.286 3.10604 2.94465 0
M  V30 2431 C 227.612 3.11577 4.34538 0
M  V30 2432 C 228.912 4.49921 2.6527 0
M  V30 2433 H 230.606 2.70917 1.27454 0
M  V30 2434 H 228.152 1.30362 0.6117 0
M  V30 2435 H 230.105 2.12328 3.63999 0
M  V30 2436 H 228.829 0.999632 3.10926 0
M  V30 2437 H 227.488 2.93009 2.20321 0
M  V30 2438 H 227.136 2.14277 4.55076 0
M  V30 2439 H 226.836 3.89247 4.40183 0
M  V30 2440 H 228.36 3.31073 5.13053 0
M  V30 2441 H 229.774 4.67683 3.31581 0
M  V30 2442 H 228.171 5.29564 2.82281 0
M  V30 2443 H 229.241 4.57507 1.60671 0
M  V30 2444 N 230.584 -0.659388 1.43143 0
M  V30 2445 C 231.861 -1.41627 1.34912 0
M  V30 2446 C 232.241 -2.11099 -0.00607785 0
M  V30 2447 O 231.589 -2.04353 -1.02236 0
M  V30 2448 C 231.799 -2.40604 2.52805 0
M  V30 2449 C 233.147 -3.04789 2.95616 0
M  V30 2450 O 234.171 -2.50932 2.52807 0
M  V30 2451 O 233.03 -4.02421 3.69756 0
M  V30 2452 H 230.124 -0.63246 0.532844 0
M  V30 2453 H 232.67 -0.686814 1.5518 0
M  V30 2454 H 231.442 -1.88174 3.43083 0
M  V30 2455 H 231.065 -3.21009 2.34604 0
M  V30 2456 N 232.062 -1.29571 -0.897171 0
M  V30 2457 C 233.478 -1.07637 -1.17841 0
M  V30 2458 C 233.678 0.170713 -2.00776 0
M  V30 2459 O 232.734 0.867768 -2.3712 0
M  V30 2460 C 234.047 -2.3332 -1.8969 0
M  V30 2461 C 235.595 -2.38664 -2.02505 0
M  V30 2462 C 236.07 -3.64157 -2.77765 0
M  V30 2463 N 237.561 -3.64894 -2.85318 0
M  V30 2464 C 238.296 -4.58679 -3.44094 0
M  V30 2465 N 237.792 -5.62799 -4.04017 0
M  V30 2466 N 239.585 -4.46245 -3.41793 0
M  V30 2467 H 231.736 -2.09598 -0.343883 0
M  V30 2468 H 233.999 -0.923333 -0.214848 0
M  V30 2469 H 233.705 -3.24262 -1.36187 0
M  V30 2470 H 233.579 -2.41025 -2.9015 0
M  V30 2471 H 235.966 -1.48208 -2.55183 0
M  V30 2472 H 236.047 -2.34943 -1.01171 0
M  V30 2473 H 235.691 -4.54965 -2.25763 0
M  V30 2474 H 235.621 -3.65137 -3.7945 0
M  V30 2475 H 238.112 -2.89613 -2.42761 0
M  V30 2476 H 238.425 -6.3048 -4.46895 0
M  V30 2477 H 236.77 -5.66605 -4.02472 0
M  V30 2478 H 239.961 -3.64094 -2.94199 0
M  V30 2479 H 240.134 -5.19518 -3.87304 0
M  V30 2480 N 233.54 1.10788 -1.12088 0
M  V30 2481 C 234.789 1.82036 -0.868659 0
M  V30 2482 C 235.102 1.85929 0.607426 0
M  V30 2483 O 236.308 2.53346 0.97613 0
M  V30 2484 C 234.764 3.26951 -1.50435 0
M  V30 2485 C 234.372 3.31367 -3.01496 0
M  V30 2486 C 236.116 4.03053 -1.33225 0
M  V30 2487 C 234.023 4.7072 -3.58017 0
M  V30 2488 H 232.953 0.682108 -0.321318 0
M  V30 2489 H 235.604 1.24618 -1.34694 0
M  V30 2490 H 233.986 3.84343 -0.953735 0
M  V30 2491 H 235.16 2.83819 -3.6302 0
M  V30 2492 H 233.475 2.6875 -3.18061 0
M  V30 2493 H 236.072 5.05981 -1.72878 0
M  V30 2494 H 236.415 4.15387 -0.275529 0
M  V30 2495 H 236.948 3.52066 -1.85188 0
M  V30 2496 H 233.687 4.63585 -4.63432 0
M  V30 2497 H 233.207 5.1865 -3.01268 0
M  V30 2498 H 234.886 5.39685 -3.56859 0
M  V30 2499 N 235.018 0.912232 1.28515 0
M  V30 2500 C 235.928 0.404506 2.31086 0
M  V30 2501 C 236.944 -0.50707 1.66448 0
M  V30 2502 O 238.12 -0.393624 1.97516 0
M  V30 2503 C 235.185 -0.348572 3.44943 0
M  V30 2504 C 234.246 0.59604 4.25142 0
M  V30 2505 C 233.479 -0.121194 5.33562 0
M  V30 2506 O 233.702 -1.34317 5.5436 0
M  V30 2507 O 232.636 0.542716 5.99448 0
M  V30 2508 H 236.462 1.25579 2.76521 0
M  V30 2509 H 234.047 0.676998 1.33181 0
M  V30 2510 H 235.929 -0.77395 4.14232 0
M  V30 2511 H 234.604 -1.17571 3.01594 0
M  V30 2512 H 233.511 1.07079 3.58448 0
M  V30 2513 H 234.844 1.38995 4.72167 0
M  V30 2514 N 236.496 -1.42363 0.676048 0
M  V30 2515 C 237.428 -2.29164 -0.0404605 0
M  V30 2516 C 238.441 -1.43747 -0.764245 0
M  V30 2517 O 239.63 -1.67453 -0.618195 0
M  V30 2518 C 236.73 -3.21196 -1.08103 0
M  V30 2519 C 235.903 -4.35273 -0.430812 0
M  V30 2520 C 234.962 -5.08017 -1.37133 0
M  V30 2521 O 233.988 -5.62494 -0.87116 0
M  V30 2522 N 235.19 -5.13647 -2.70456 0
M  V30 2523 H 237.955 -2.91298 0.704667 0
M  V30 2524 H 235.516 -1.53303 0.520559 0
M  V30 2525 H 237.508 -3.66728 -1.71152 0
M  V30 2526 H 236.078 -2.60505 -1.72788 0
M  V30 2527 H 235.298 -3.92372 0.379209 0
M  V30 2528 H 236.586 -5.08795 0.0221132 0
M  V30 2529 H 235.984 -4.708 -3.1363 0
M  V30 2530 H 234.541 -5.62821 -3.28749 0
M  V30 2531 N 237.974 -0.419461 -1.51915 0
M  V30 2532 C 238.884 0.407528 -2.31033 0
M  V30 2533 C 239.9 1.04413 -1.3919 0
M  V30 2534 O 241.076 1.0434 -1.72265 0
M  V30 2535 C 238.141 1.50365 -3.12396 0
M  V30 2536 C 237.202 0.889029 -4.19994 0
M  V30 2537 C 236.435 1.93291 -4.97468 0
M  V30 2538 O 236.658 3.15259 -4.75361 0
M  V30 2539 O 235.592 1.53339 -5.8204 0
M  V30 2540 H 239.418 -0.237865 -3.02767 0
M  V30 2541 H 237.003 -0.182413 -1.48282 0
M  V30 2542 H 238.885 2.13975 -3.63032 0
M  V30 2543 H 237.56 2.13345 -2.43445 0
M  V30 2544 H 236.467 0.215353 -3.7348 0
M  V30 2545 H 237.8 0.302991 -4.91267 0
M  V30 2546 N 239.452 1.56882 -0.150215 0
M  V30 2547 C 240.677 2.01027 0.510184 0
M  V30 2548 C 241.102 1.02966 1.57415 0
M  V30 2549 O 240.46 0.00590158 1.81299 0
M  V30 2550 C 240.508 3.43899 1.08472 0
M  V30 2551 O 239.612 3.4885 2.19948 0
M  V30 2552 H 238.953 0.652233 0.124451 0
M  V30 2553 H 241.483 2.03093 -0.247894 0
M  V30 2554 H 241.493 3.82766 1.41259 0
M  V30 2555 H 240.168 4.14776 0.305582 0
M  V30 2556 H 238.745 3.21827 1.88366 0
M  V30 2557 N 240.93 -0.123565 1.57115 0
M  V30 2558 C 242.177 -0.832153 1.84612 0
M  V30 2559 C 242.505 -1.80093 0.734627 0
M  V30 2560 O 241.76 -1.93766 -0.27442 0
M  V30 2561 C 242.059 -1.62016 3.18568 0
M  V30 2562 C 241.725 -0.796084 4.43817 0
M  V30 2563 C 240.387 -0.568816 4.77826 0
M  V30 2564 C 242.739 -0.221364 5.2073 0
M  V30 2565 C 240.067 0.243499 5.86194 0
M  V30 2566 C 242.419 0.578117 6.29953 0
M  V30 2567 C 241.083 0.815744 6.62497 0
M  V30 2568 H 240.353 -0.304507 0.675542 0
M  V30 2569 H 243 -0.0947248 1.91266 0
M  V30 2570 H 241.305 -2.42837 3.0747 0
M  V30 2571 H 243.002 -2.17231 3.37064 0
M  V30 2572 H 239.592 -0.983307 4.17168 0
M  V30 2573 H 243.776 -0.384173 4.94811 0
M  V30 2574 H 239.032 0.436871 6.09837 0
M  V30 2575 H 243.206 1.03046 6.88734 0
M  V30 2576 H 240.833 1.44701 7.46301 0
M  V30 2577 N 242.408 -1.52605 -0.393616 0
M  V30 2578 C 243.685 -1.58001 -1.15304 0
M  V30 2579 C 244.065 -0.370385 -2.07825 0
M  V30 2580 O 243.413 0.641638 -2.19306 0
M  V30 2581 C 243.623 -2.91652 -1.91677 0
M  V30 2582 C 244.971 -3.4522 -2.47201 0
M  V30 2583 O 245.995 -2.93495 -2.01839 0
M  V30 2584 O 244.854 -4.35579 -3.3005 0
M  V30 2585 H 241.948 -0.637068 -0.527327 0
M  V30 2586 H 244.494 -1.64939 -0.399141 0
M  V30 2587 H 243.266 -3.71136 -1.23992 0
M  V30 2588 H 242.889 -2.88077 -2.74039 0
M  V30 2589 N 243.887 0.651787 -1.4349 0
M  V30 2590 C 245.134 1.41167 -1.45183 0
M  V30 2591 C 245.462 1.94349 -0.0766601 0
M  V30 2592 O 244.717 1.72804 0.918555 0
M  V30 2593 C 245.016 2.60914 -2.44251 0
M  V30 2594 C 244.682 2.26142 -3.9009 0
M  V30 2595 C 243.344 2.16371 -4.2981 0
M  V30 2596 C 245.696 1.98334 -4.81989 0
M  V30 2597 C 243.024 1.7695 -5.5938 0
M  V30 2598 C 245.376 1.6041 -6.11924 0
M  V30 2599 C 244.04 1.49166 -6.5062 0
M  V30 2600 H 243.31 0.516566 -0.531263 0
M  V30 2601 H 245.957 0.741099 -1.76579 0
M  V30 2602 H 244.262 3.3311 -2.06265 0
M  V30 2603 H 245.959 3.19127 -2.42815 0
M  V30 2604 H 242.549 2.34658 -3.58655 0
M  V30 2605 H 246.733 2.04803 -4.52072 0
M  V30 2606 H 241.989 1.66831 -5.88198 0
M  V30 2607 H 246.163 1.37925 -6.82605 0
M  V30 2608 H 243.79 1.1839 -7.50925 0
M  V30 2609 N 245.365 1.30045 0.890287 0
M  V30 2610 C 246.612 1.18561 1.64163 0
M  V30 2611 C 246.94 -0.260852 1.92743 0
M  V30 2612 O 246.195 -1.20376 1.54299 0
M  V30 2613 C 246.494 1.95409 2.99249 0
M  V30 2614 C 246.16 3.45066 2.90242 0
M  V30 2615 C 244.822 3.85878 2.87492 0
M  V30 2616 C 247.174 4.4039 2.78758 0
M  V30 2617 C 244.502 5.20314 2.7109 0
M  V30 2618 C 246.854 5.74928 2.63894 0
M  V30 2619 C 245.518 6.14986 2.59516 0
M  V30 2620 H 244.788 0.433846 0.600715 0
M  V30 2621 H 247.435 1.61088 1.03552 0
M  V30 2622 H 245.74 1.45501 3.63781 0
M  V30 2623 H 247.437 1.8392 3.56334 0
M  V30 2624 H 244.027 3.12631 2.93189 0
M  V30 2625 H 248.211 4.09806 2.79952 0
M  V30 2626 H 243.467 5.50449 2.66112 0
M  V30 2627 H 247.641 6.48434 2.53981 0
M  V30 2628 H 245.268 7.19104 2.46565 0
M  V30 2629 N 246.843 -1.10192 1.12674 0
M  V30 2630 C 247.791 -2.18694 0.792196 0
M  V30 2631 C 248.785 -1.67938 -0.222058 0
M  V30 2632 O 249.991 -1.79822 -0.0800074 0
M  V30 2633 H 246.366 -0.713223 0.238364 0
M  V30 2634 H 248.337 -2.44149 1.71564 0
M  V30 2635 C 247.086 -3.46682 0.265859 0
M  V30 2636 H 246.409 -3.86101 1.03761 0
M  V30 2637 H 247.849 -4.23942 0.0701128 0
M  V30 2638 C 246.308 -3.21506 -1.00675 0
M  V30 2639 O 246.838 -3.43408 -2.08408 0
M  V30 2640 N 245.044 -2.75158 -0.934692 0
M  V30 2641 H 244.591 -2.57535 -0.0578604 0
M  V30 2642 H 244.549 -2.58691 -1.7868 0
M  V30 2643 N 248.321 -0.919034 -1.28029 0
M  V30 2644 C 249.737 -0.617972 -1.4715 0
M  V30 2645 C 249.937 0.835242 -1.83374 0
M  V30 2646 O 248.993 1.61388 -1.94191 0
M  V30 2647 C 250.306 -1.56041 -2.57044 0
M  V30 2648 C 251.854 -1.56769 -2.7091 0
M  V30 2649 C 252.329 -2.49688 -3.83953 0
M  V30 2650 N 253.82 -2.47845 -3.91314 0
M  V30 2651 C 254.555 -3.16437 -4.78179 0
M  V30 2652 N 254.051 -3.94376 -5.69596 0
M  V30 2653 N 255.844 -3.05498 -4.71834 0
M  V30 2654 H 247.995 -1.85866 -1.02798 0
M  V30 2655 H 250.258 -0.797506 -0.512531 0
M  V30 2656 H 249.964 -2.59671 -2.372 0
M  V30 2657 H 249.838 -1.29551 -3.54255 0
M  V30 2658 H 252.225 -0.538745 -2.90141 0
M  V30 2659 H 252.306 -1.87305 -1.74214 0
M  V30 2660 H 251.95 -3.52688 -3.65477 0
M  V30 2661 H 251.88 -2.16453 -4.80058 0
M  V30 2662 H 254.371 -1.91234 -3.25941 0
M  V30 2663 H 254.684 -4.43721 -6.32718 0
M  V30 2664 H 253.029 -3.98481 -5.69419 0
M  V30 2665 H 256.22 -2.44108 -3.99411 0
M  V30 2666 H 256.393 -3.59225 -5.39316 0
M  V30 2667 N 249.799 1.42003 -0.683588 0
M  V30 2668 C 251.027 2.05746 -0.218182 0
M  V30 2669 C 251.442 1.51396 1.12804 0
M  V30 2670 O 250.799 0.657303 1.70252 0
M  V30 2671 C 250.85 3.61171 -0.154131 0
M  V30 2672 O 250.571 4.13508 -1.44716 0
M  V30 2673 C 252.072 4.42042 0.333713 0
M  V30 2674 H 249.292 0.662888 -0.10402 0
M  V30 2675 H 251.836 1.81987 -0.9328 0
M  V30 2676 H 249.991 3.84012 0.511231 0
M  V30 2677 H 250.405 5.07453 -1.32632 0
M  V30 2678 H 251.879 5.51028 0.327423 0
M  V30 2679 H 252.356 4.17269 1.37053 0
M  V30 2680 H 252.962 4.24239 -0.300222 0
M  V30 2681 N 251.277 0.427512 1.51691 0
M  V30 2682 C 252.693 0.0792977 1.59403 0
M  V30 2683 C 252.893 -1.41035 1.43914 0
M  V30 2684 O 251.949 -2.17922 1.27539 0
M  V30 2685 C 253.262 0.590636 2.94842 0
M  V30 2686 C 254.81 0.550215 3.08126 0
M  V30 2687 C 255.285 1.03836 4.46074 0
M  V30 2688 N 256.776 0.995943 4.52366 0
M  V30 2689 C 257.511 1.34463 5.57411 0
M  V30 2690 N 257.007 1.76569 6.69922 0
M  V30 2691 N 258.8 1.26343 5.47717 0
M  V30 2692 H 250.951 1.39687 1.60004 0
M  V30 2693 H 253.214 0.575003 0.753708 0
M  V30 2694 H 252.92 1.63251 3.11516 0
M  V30 2695 H 252.794 0.0102061 3.77199 0
M  V30 2696 H 255.181 -0.482654 2.91126 0
M  V30 2697 H 255.262 1.16693 2.27632 0
M  V30 2698 H 254.906 2.06965 4.63819 0
M  V30 2699 H 254.836 0.398286 5.25092 0
M  V30 2700 H 257.327 0.68661 3.7161 0
M  V30 2701 H 257.64 2.01438 7.46085 0
M  V30 2702 H 255.985 1.80488 6.71155 0
M  V30 2703 H 259.176 0.933209 4.58703 0
M  V30 2704 H 259.349 1.53846 6.29472 0
M  V30 2705 N 252.755 -1.56801 0.158532 0
M  V30 2706 C 253.718 -2.16138 -0.762705 0
M  V30 2707 C 254.718 -1.1061 -1.16713 0
M  V30 2708 O 255.908 -1.36191 -1.08617 0
M  V30 2709 C 253.04 -2.73386 -2.03649 0
M  V30 2710 H 254.233 -2.98886 -0.246354 0
M  V30 2711 H 251.786 -1.56035 -0.0909744 0
M  V30 2712 H 252.521 -1.94335 -2.59623 0
M  V30 2713 H 252.306 -3.50601 -1.75559 0
M  V30 2714 H 253.796 -3.19065 -2.6942 0
M  V30 2715 N 254.233 0.115231 -1.57178 0
M  V30 2716 C 255.649 0.468877 -1.52557 0
M  V30 2717 C 255.849 1.81649 -0.872125 0
M  V30 2718 O 254.905 2.48347 -0.45606 0
M  V30 2719 C 256.218 0.4499 -2.97315 0
M  V30 2720 C 257.766 0.533185 -3.08425 0
M  V30 2721 C 258.241 0.54456 -4.54751 0
M  V30 2722 N 259.732 0.605892 -4.5922 0
M  V30 2723 C 260.467 0.636203 -5.6986 0
M  V30 2724 N 259.963 0.623931 -6.89985 0
M  V30 2725 N 261.756 0.679496 -5.57978 0
M  V30 2726 H 253.907 -0.767712 -1.9804 0
M  V30 2727 H 256.17 -0.283609 -0.904583 0
M  V30 2728 H 255.876 -0.472721 -3.48509 0
M  V30 2729 H 255.75 1.27632 -3.5495 0
M  V30 2730 H 258.137 1.44623 -2.57232 0
M  V30 2731 H 258.218 -0.320995 -2.53778 0
M  V30 2732 H 257.862 -0.364452 -5.06591 0
M  V30 2733 H 257.792 1.41568 -5.07214 0
M  V30 2734 H 260.283 0.621386 -3.72756 0
M  V30 2735 H 260.596 0.649787 -7.70063 0
M  V30 2736 H 258.941 0.591296 -6.9248 0
M  V30 2737 H 262.132 0.686472 -4.63039 0
M  V30 2738 H 262.305 0.69965 -6.44212 0
M  V30 2739 N 255.711 1.52812 0.385517 0
M  V30 2740 C 256.941 1.71658 1.14966 0
M  V30 2741 C 257.349 0.436253 1.84102 0
M  V30 2742 O 256.692 -0.599313 1.73649 0
M  V30 2743 C 256.754 2.81309 2.23843 0
M  V30 2744 C 256.418 4.22313 1.74644 0
M  V30 2745 C 257.415 5.05352 1.22129 0
M  V30 2746 C 255.1 4.68648 1.80761 0
M  V30 2747 C 257.094 6.32807 0.763838 0
M  V30 2748 C 254.781 5.96086 1.34627 0
M  V30 2749 C 255.779 6.77996 0.825264 0
M  V30 2750 O 255.467 8.03045 0.370669 0
M  V30 2751 H 255.199 0.578022 0.350523 0
M  V30 2752 H 257.753 2.00263 0.456509 0
M  V30 2753 H 255.983 2.48133 2.96592 0
M  V30 2754 H 257.672 2.88524 2.85497 0
M  V30 2755 H 258.438 4.70736 1.16758 0
M  V30 2756 H 254.317 4.04979 2.20256 0
M  V30 2757 H 257.861 6.96689 0.356494 0
M  V30 2758 H 253.758 6.30205 1.39686 0
M  V30 2759 H 254.526 8.17021 0.491829 0
M  V30 2760 N 257.189 -0.644168 1.43834 0
M  V30 2761 C 258.119 -1.76814 1.52509 0
M  V30 2762 C 259.1 -1.65823 0.379052 0
M  V30 2763 O 260.285 -1.84781 0.597466 0
M  V30 2764 C 257.415 -3.15288 1.4564 0
M  V30 2765 C 256.369 -3.41053 2.58586 0
M  V30 2766 C 255.695 -4.79421 2.36769 0
M  V30 2767 C 256.995 -3.34902 4.00797 0
M  V30 2768 H 258.689 -1.69812 2.46586 0
M  V30 2769 H 256.235 -0.815542 1.1868 0
M  V30 2770 H 258.188 -3.93681 1.50311 0
M  V30 2771 H 256.912 -3.23043 0.480725 0
M  V30 2772 H 255.571 -2.65035 2.53282 0
M  V30 2773 H 255.219 -4.83863 1.37424 0
M  V30 2774 H 254.919 -4.9762 3.12487 0
M  V30 2775 H 256.443 -5.6006 2.43238 0
M  V30 2776 H 257.857 -4.03218 4.07539 0
M  V30 2777 H 256.254 -3.64637 4.76613 0
M  V30 2778 H 257.324 -2.32928 4.25291 0
M  V30 2779 N 258.668 -1.30515 -0.883378 0
M  V30 2780 C 259.578 -1.18959 -2.02203 0
M  V30 2781 C 260.594 -0.109172 -1.73657 0
M  V30 2782 O 261.77 -0.324413 -1.9877 0
M  V30 2783 C 258.835 -0.883871 -3.35244 0
M  V30 2784 C 257.896 -2.04982 -3.77201 0
M  V30 2785 C 257.129 -1.75859 -5.03894 0
M  V30 2786 O 257.352 -0.687276 -5.66244 0
M  V30 2787 O 256.286 -2.61146 -5.42297 0
M  V30 2788 H 260.112 -2.14616 -2.1488 0
M  V30 2789 H 257.697 -1.10124 -1.0096 0
M  V30 2790 H 259.579 -0.728644 -4.15053 0
M  V30 2791 H 258.254 0.0427798 -3.23672 0
M  V30 2792 H 257.161 -2.26038 -2.9809 0
M  V30 2793 H 258.494 -2.95825 -3.93381 0
M  V30 2794 N 260.146 1.09593 -1.13257 0
M  V30 2795 C 261.076 2.18214 -0.830946 0
M  V30 2796 C 262.057 1.68812 0.208966 0
M  V30 2797 O 263.242 1.9408 0.0682666 0
M  V30 2798 C 260.372 3.46051 -0.294296 0
M  V30 2799 C 259.326 4.08778 -1.26826 0
M  V30 2800 C 258.652 5.31419 -0.591449 0
M  V30 2801 C 259.952 4.51476 -2.62615 0
M  V30 2802 H 261.646 2.43703 -1.73923 0
M  V30 2803 H 259.192 1.17128 -0.837675 0
M  V30 2804 H 261.145 4.2134 -0.0709606 0
M  V30 2805 H 259.869 3.20079 0.649366 0
M  V30 2806 H 258.528 3.35505 -1.47756 0
M  V30 2807 H 258.176 5.01727 0.357633 0
M  V30 2808 H 257.876 5.74341 -1.24123 0
M  V30 2809 H 259.4 6.09433 -0.377355 0
M  V30 2810 H 260.814 5.17999 -2.45663 0
M  V30 2811 H 259.211 5.05277 -3.23752 0
M  V30 2812 H 260.281 3.63962 -3.20406 0
M  V30 2813 N 261.624 0.925811 1.2754 0
M  V30 2814 C 262.587 0.428129 2.25166 0
M  V30 2815 C 263.587 -0.452261 1.54309 0
M  V30 2816 O 264.777 -0.253608 1.72344 0
M  V30 2817 C 261.909 -0.384749 3.38722 0
M  V30 2818 H 263.102 1.29066 2.70706 0
M  V30 2819 H 260.655 0.706323 1.3943 0
M  V30 2820 H 261.39 -1.26618 2.98561 0
M  V30 2821 H 261.175 0.246454 3.91325 0
M  V30 2822 H 262.665 -0.723389 4.11287 0
M  V30 2823 N 263.102 -1.41638 0.69111 0
M  V30 2824 C 264.065 -2.29178 0.0319786 0
M  V30 2825 C 265.065 -1.44153 -0.712496 0
M  V30 2826 O 266.255 -1.65354 -0.548053 0
M  V30 2827 C 263.387 -3.26952 -0.965161 0
M  V30 2828 H 264.58 -2.88959 0.802681 0
M  V30 2829 H 262.133 -1.4955 0.454356 0
M  V30 2830 H 262.868 -2.72142 -1.76378 0
M  V30 2831 H 262.653 -3.89685 -0.434522 0
M  V30 2832 H 264.143 -3.92561 -1.42428 0
M  V30 2833 N 264.58 -0.43555 -1.51462 0
M  V30 2834 C 265.512 0.41257 -2.25456 0
M  V30 2835 C 266.525 0.987822 -1.29406 0
M  V30 2836 O 267.714 0.882266 -1.55172 0
M  V30 2837 C 264.814 1.58894 -2.99342 0
M  V30 2838 C 263.987 1.13288 -4.22474 0
M  V30 2839 C 263.046 2.17917 -4.78956 0
M  V30 2840 O 262.072 1.77425 -5.40841 0
M  V30 2841 N 263.274 3.50382 -4.62832 0
M  V30 2842 H 266.039 -0.221603 -2.9888 0
M  V30 2843 H 263.6 -0.264342 -1.59727 0
M  V30 2844 H 265.592 2.28508 -3.34015 0
M  V30 2845 H 264.162 2.12849 -2.28941 0
M  V30 2846 H 263.382 0.263881 -3.93316 0
M  V30 2847 H 264.67 0.805542 -5.02383 0
M  V30 2848 H 264.068 3.86013 -4.13534 0
M  V30 2849 H 262.625 4.15895 -5.01871 0
M  V30 2850 N 266.058 1.56714 -0.166846 0
M  V30 2851 C 267.335 1.88412 0.525373 0
M  V30 2852 C 267.715 1.07602 1.81618 0
M  V30 2853 O 267.063 0.168621 2.27877 0
M  V30 2854 C 267.273 3.40363 0.771613 0
M  V30 2855 C 268.621 4.10007 1.1036 0
M  V30 2856 O 269.645 3.45655 0.860304 0
M  V30 2857 O 268.504 5.2369 1.56239 0
M  V30 2858 H 265.598 0.781587 0.270278 0
M  V30 2859 H 268.144 1.68458 -0.204946 0
M  V30 2860 H 266.916 3.91046 -0.141093 0
M  V30 2861 H 266.539 3.65914 1.55541 0
M  V30 2862 N 267.536 -0.106894 1.57237 0
M  V30 2863 C 268.483 -1.13049 2.01217 0
M  V30 2864 C 269.453 -1.40471 0.886403 0
M  V30 2865 O 270.638 -1.52133 1.15153 0
M  V30 2866 C 267.778 -2.4487 2.43172 0
M  V30 2867 C 266.891 -2.24281 3.69218 0
M  V30 2868 C 266.026 -3.49417 4.00101 0
M  V30 2869 C 265.065 -3.24038 5.19294 0
M  V30 2870 N 264.202 -4.41409 5.45988 0
M  V30 2871 H 269.042 -0.748456 2.88448 0
M  V30 2872 H 266.579 -0.358054 1.42676 0
M  V30 2873 H 268.537 -3.21786 2.65537 0
M  V30 2874 H 267.167 -2.80944 1.58967 0
M  V30 2875 H 266.219 -1.38224 3.54398 0
M  V30 2876 H 267.531 -2.01512 4.56283 0
M  V30 2877 H 266.685 -4.34746 4.2318 0
M  V30 2878 H 265.424 -3.75229 3.11535 0
M  V30 2879 H 264.429 -2.37102 4.96047 0
M  V30 2880 H 265.654 -2.99584 6.09447 0
M  V30 2881 H 263.6 -4.67319 4.60379 0
M  V30 2882 H 263.517 -4.21788 6.274 0
M  V30 2883 H 264.785 -5.27836 5.73593 0
M  V30 2884 N 269.014 -1.53014 -0.377408 0
M  V30 2885 C 270.239 -1.72818 -1.14668 0
M  V30 2886 C 270.664 -0.450725 -1.8262 0
M  V30 2887 O 270.022 0.59439 -1.7128 0
M  V30 2888 C 270.07 -2.88627 -2.16164 0
M  V30 2889 O 269.174 -2.56409 -3.22998 0
M  V30 2890 H 268.515 -0.574301 -0.333278 0
M  V30 2891 H 271.045 -1.99853 -0.438152 0
M  V30 2892 H 271.055 -3.14455 -2.59966 0
M  V30 2893 H 269.73 -3.81294 -1.66095 0
M  V30 2894 H 268.307 -2.4136 -2.84253 0
M  V30 2895 N 270.492 0.636531 -1.44174 0
M  V30 2896 C 271.741 1.39213 -1.45954 0
M  V30 2897 C 272.054 1.95374 -0.0939119 0
M  V30 2898 O 273.26 2.71498 0.0107767 0
M  V30 2899 C 271.716 2.52025 -2.56927 0
M  V30 2900 C 271.324 2.024 -3.99673 0
M  V30 2901 C 273.068 3.29269 -2.67922 0
M  V30 2902 C 270.975 3.12521 -5.0208 0
M  V30 2903 H 269.905 0.523132 -0.542999 0
M  V30 2904 H 272.556 0.685349 -1.70221 0
M  V30 2905 H 270.938 3.25253 -2.25891 0
M  V30 2906 H 272.112 1.36073 -4.40251 0
M  V30 2907 H 270.427 1.37987 -3.92872 0
M  V30 2908 H 273.024 4.11352 -3.41605 0
M  V30 2909 H 273.367 3.78397 -1.73555 0
M  V30 2910 H 273.9 2.63129 -2.98342 0
M  V30 2911 H 270.639 2.68343 -5.98057 0
M  V30 2912 H 270.159 3.77507 -4.66099 0
M  V30 2913 H 271.838 3.77385 -5.25538 0
M  V30 2914 N 271.97 1.30982 0.876444 0
M  V30 2915 C 272.92 1.14688 1.97055 0
M  V30 2916 C 273.904 0.0596593 1.60789 0
M  V30 2917 O 275.096 0.283892 1.74708 0
M  V30 2918 C 272.225 0.849627 3.3262 0
M  V30 2919 C 271.311 1.97752 3.75173 0
M  V30 2920 N 271.702 3.22384 3.89746 0
M  V30 2921 C 270 1.8758 4.04635 0
M  V30 2922 C 270.701 3.96121 4.25985 0
M  V30 2923 N 269.677 3.24237 4.36315 0
M  V30 2924 H 273.479 2.09204 2.06424 0
M  V30 2925 H 270.993 1.22445 1.06682 0
M  V30 2926 H 272.99 0.713895 4.10742 0
M  V30 2927 H 271.65 -0.087376 3.24582 0
M  V30 2928 H 272.661 3.57575 3.74647 0
M  V30 2929 H 269.338 1.01303 4.05024 0
M  V30 2930 H 270.728 5.03491 4.44911 0
M  V30 2931 N 273.449 -1.08991 1.13837 0
M  V30 2932 C 274.677 -1.85011 0.926202 0
M  V30 2933 C 275.092 -1.8135 -0.525127 0
M  V30 2934 O 274.449 -1.21287 -1.36366 0
M  V30 2935 C 274.5 -3.32802 1.41155 0
M  V30 2936 O 274.221 -3.36444 2.80601 0
M  V30 2937 C 275.722 -4.25649 1.23847 0
M  V30 2938 H 272.942 -0.584249 0.32999 0
M  V30 2939 H 275.486 -1.37688 1.51202 0
M  V30 2940 H 273.641 -3.77536 0.868631 0
M  V30 2941 H 274.055 -4.28657 3.02248 0
M  V30 2942 H 275.529 -5.27485 1.62675 0
M  V30 2943 H 276.006 -4.38828 0.18065 0
M  V30 2944 H 276.612 -3.86735 1.76964 0
M  V30 2945 N 274.927 -0.932562 -1.27047 0
M  V30 2946 C 276.176 -0.571351 -1.93439 0
M  V30 2947 C 276.489 0.892467 -1.74053 0
M  V30 2948 O 277.695 1.36267 -2.34826 0
M  V30 2949 C 276.151 -0.97106 -3.46552 0
M  V30 2950 C 275.759 -2.4559 -3.74686 0
M  V30 2951 C 277.503 -0.681333 -4.18997 0
M  V30 2952 C 275.41 -2.79475 -5.21198 0
M  V30 2953 H 274.34 -0.209966 -0.724176 0
M  V30 2954 H 276.991 -1.13403 -1.44263 0
M  V30 2955 H 275.373 -0.336983 -3.94564 0
M  V30 2956 H 276.547 -3.13829 -3.37414 0
M  V30 2957 H 274.862 -2.71802 -3.15456 0
M  V30 2958 H 277.459 -0.910939 -5.26883 0
M  V30 2959 H 277.802 0.381628 -4.14547 0
M  V30 2960 H 278.335 -1.27473 -3.76823 0
M  V30 2961 H 275.074 -3.847 -5.30741 0
M  V30 2962 H 274.594 -2.1589 -5.596 0
M  V30 2963 H 276.273 -2.67478 -5.89122 0
M  V30 2964 N 276.405 1.4127 -0.698611 0
M  V30 2965 C 277.682 1.94955 -0.158762 0
M  V30 2966 C 278.062 1.63781 1.33188 0
M  V30 2967 O 277.41 0.946423 2.07979 0
M  V30 2968 C 277.62 3.46044 -0.453309 0
M  V30 2969 C 278.968 4.22872 -0.382707 0
M  V30 2970 O 279.992 3.54076 -0.388396 0
M  V30 2971 O 278.851 5.45407 -0.345463 0
M  V30 2972 H 275.945 0.82683 -0.0167505 0
M  V30 2973 H 278.491 1.50971 -0.77498 0
M  V30 2974 H 277.263 3.62028 -1.48498 0
M  V30 2975 H 276.886 3.97128 0.19373 0
M  V30 2976 N 277.883 0.443576 1.51229 0
M  V30 2977 C 278.846 -0.353132 2.26463 0
M  V30 2978 C 279.846 -0.944338 1.3015 0
M  V30 2979 O 281.036 -0.817813 1.5381 0
M  V30 2980 C 278.168 -1.50023 3.06114 0
M  V30 2981 H 279.361 0.3063 2.98332 0
M  V30 2982 H 276.914 0.196902 1.55055 0
M  V30 2983 H 277.649 -2.19553 2.38677 0
M  V30 2984 H 277.434 -1.08241 3.76864 0
M  V30 2985 H 278.924 -2.06296 3.63087 0
M  V30 2986 N 279.361 -1.56624 0.175154 0
M  V30 2987 C 280.589 -2.01374 -0.474971 0
M  V30 2988 C 281.004 -1.05537 -1.56548 0
M  V30 2989 O 280.361 -0.0568668 -1.82411 0
M  V30 2990 C 280.412 -3.45923 -1.04975 0
M  V30 2991 O 280.133 -4.381 -0.00276605 0
M  V30 2992 C 281.634 -4.06093 -1.77773 0
M  V30 2993 H 278.854 -0.659962 -0.121206 0
M  V30 2994 H 281.398 -2.02601 0.27801 0
M  V30 2995 H 279.553 -3.45458 -1.75321 0
M  V30 2996 H 279.967 -5.22753 -0.427681 0
M  V30 2997 H 281.441 -5.09147 -2.13245 0
M  V30 2998 H 281.918 -3.48405 -2.67414 0
M  V30 2999 H 282.524 -4.10272 -1.12059 0
M  V30 3000 N 280.839 0.0985539 -1.57292 0
M  V30 3001 C 281.771 1.14595 -1.98496 0
M  V30 3002 C 282.784 1.36512 -0.887031 0
M  V30 3003 O 283.973 1.35225 -1.16518 0
M  V30 3004 C 281.073 2.50216 -2.28572 0
M  V30 3005 C 280.246 2.48624 -3.59868 0
M  V30 3006 C 279.305 3.66146 -3.7792 0
M  V30 3007 O 278.331 3.48795 -4.49812 0
M  V30 3008 N 279.533 4.85496 -3.18235 0
M  V30 3009 H 282.298 0.795277 -2.88956 0
M  V30 3010 H 279.859 0.287579 -1.59325 0
M  V30 3011 H 281.851 3.27432 -2.37845 0
M  V30 3012 H 280.421 2.77387 -1.44136 0
M  V30 3013 H 279.641 1.56978 -3.61596 0
M  V30 3014 H 280.929 2.44635 -4.46129 0
M  V30 3015 H 280.327 5.02497 -2.59833 0
M  V30 3016 H 278.884 5.60317 -3.32999 0
M  V30 3017 N 282.317 1.53212 0.369288 0
M  V30 3018 C 283.728 1.60943 0.946276 0
M  V30 3019 C 284.079 0.47452 1.90375 0
M  V30 3020 O 283.204 -0.399597 2.12679 0
M  V30 3021 C 283.799 2.91715 1.72302 0
M  V30 3022 C 282.358 3.01792 2.24941 0
M  V30 3023 C 281.505 2.56211 1.06072 0
M  V30 3024 H 284.456 1.58007 0.148198 0
M  V30 3025 H 284.477 2.79309 2.58393 0
M  V30 3026 H 283.989 3.74295 1.0259 0
M  V30 3027 H 282.09 2.23791 2.97906 0
M  V30 3028 H 282.203 4.06803 2.53077 0
M  V30 3029 H 280.567 2.10998 1.4266 0
M  V30 3030 H 281.35 3.41206 0.378639 0
M  V30 3031 N 283.795 -0.628877 1.44509 0
M  V30 3032 C 284.725 -1.75187 1.54376 0
M  V30 3033 C 285.706 -1.65411 0.396618 0
M  V30 3034 O 286.891 -1.84137 0.617031 0
M  V30 3035 C 284.021 -3.13725 1.48976 0
M  V30 3036 C 282.975 -3.38291 2.62189 0
M  V30 3037 C 282.301 -4.76883 2.41841 0
M  V30 3038 C 283.601 -3.30632 4.04326 0
M  V30 3039 H 285.295 -1.67187 2.48373 0
M  V30 3040 H 282.841 -0.802909 1.19538 0
M  V30 3041 H 284.794 -3.92064 1.54478 0
M  V30 3042 H 283.518 -3.22515 0.514961 0
M  V30 3043 H 282.177 -2.62334 2.56079 0
M  V30 3044 H 281.825 -4.82378 1.42548 0
M  V30 3045 H 281.525 -4.94278 3.17747 0
M  V30 3046 H 283.049 -5.57449 2.49165 0
M  V30 3047 H 284.463 -3.98873 4.11793 0
M  V30 3048 H 282.86 -3.59561 4.80454 0
M  V30 3049 H 283.93 -2.28404 4.27738 0
M  V30 3050 N 285.273 -1.31445 -0.869486 0
M  V30 3051 C 286.183 -1.21097 -2.0093 0
M  V30 3052 C 287.199 -0.127584 -1.73532 0
M  V30 3053 O 288.375 -0.345477 -1.98415 0
M  V30 3054 C 285.44 -0.919378 -3.34288 0
M  V30 3055 C 284.501 -2.08971 -3.75006 0
M  V30 3056 C 283.734 -1.81194 -5.02001 0
M  V30 3057 O 283.957 -0.747296 -5.65484 0
M  V30 3058 O 282.891 -2.66883 -5.39497 0
M  V30 3059 H 286.717 -2.16883 -2.12592 0
M  V30 3060 H 284.302 -1.11189 -0.997868 0
M  V30 3061 H 286.184 -0.772625 -4.14257 0
M  V30 3062 H 284.859 0.00844772 -3.23699 0
M  V30 3063 H 283.766 -2.29187 -2.95676 0
M  V30 3064 H 285.099 -2.9998 -3.90221 0
M  V30 3065 N 286.751 1.08385 -1.14413 0
M  V30 3066 C 287.714 2.13486 -0.834048 0
M  V30 3067 C 288.714 1.59988 0.161418 0
M  V30 3068 O 289.904 1.74071 -0.0669575 0
M  V30 3069 C 287.036 3.4003 -0.243354 0
M  V30 3070 H 288.229 2.42425 -1.7655 0
M  V30 3071 H 285.782 1.24101 -0.950189 0
M  V30 3072 H 286.517 3.16726 0.696807 0
M  V30 3073 H 286.302 3.80157 -0.960367 0
M  V30 3074 H 287.792 4.17577 -0.0436242 0
M  V30 3075 N 288.23 0.939286 1.26551 0
M  V30 3076 C 289.476 0.586715 1.94128 0
M  V30 3077 C 289.809 -0.8717 1.73537 0
M  V30 3078 O 289.084 -1.62339 1.07127 0
M  V30 3079 C 289.367 0.927497 3.4795 0
M  V30 3080 C 289.22 2.44052 3.77834 0
M  V30 3081 C 290.539 0.441569 4.37879 0
M  V30 3082 H 287.658 0.21463 0.705055 0
M  V30 3083 H 290.3 1.17316 1.49455 0
M  V30 3084 H 288.45 0.428431 3.8613 0
M  V30 3085 H 290.122 3.01216 3.4938 0
M  V30 3086 H 288.365 2.8848 3.23978 0
M  V30 3087 H 289.036 2.62947 4.85348 0
M  V30 3088 H 291.512 0.869448 4.06915 0
M  V30 3089 H 290.388 0.708856 5.44304 0
M  V30 3090 H 290.649 -0.658467 4.37169 0
M  V30 3091 N 289.708 -1.40897 0.706093 0
M  V30 3092 C 290.641 -2.282 -0.00328781 0
M  V30 3093 C 291.619 -1.42816 -0.77732 0
M  V30 3094 O 292.803 -1.72237 -0.765944 0
M  V30 3095 C 289.93 -3.23226 -1.01205 0
M  V30 3096 C 288.976 -4.25222 -0.329955 0
M  V30 3097 S 289.809 -5.27269 0.935298 0
M  V30 3098 C 290.965 -6.25859 -0.0716061 0
M  V30 3099 H 291.198 -2.88016 0.737143 0
M  V30 3100 H 288.731 -1.46191 0.496756 0
M  V30 3101 H 290.689 -3.78503 -1.58888 0
M  V30 3102 H 289.35 -2.62485 -1.72513 0
M  V30 3103 H 288.543 -4.92023 -1.09221 0
M  V30 3104 H 288.145 -3.73595 0.174069 0
M  V30 3105 H 290.437 -6.71204 -0.921521 0
M  V30 3106 H 291.38 -7.0586 0.562765 0
M  V30 3107 H 291.788 -5.62852 -0.431088 0
M  V30 3108 N 291.186 -0.45159 -1.50991 0
M  V30 3109 C 292.463 0.170707 -1.94854 0
M  V30 3110 C 292.843 1.58788 -1.39103 0
M  V30 3111 O 292.191 2.20913 -0.583921 0
M  V30 3112 C 292.401 0.133929 -3.48743 0
M  V30 3113 C 293.749 0.33248 -4.23296 0
M  V30 3114 O 294.773 0.211403 -3.55572 0
M  V30 3115 O 293.632 0.57486 -5.43468 0
M  V30 3116 H 290.726 0.122264 -0.817912 0
M  V30 3117 H 293.272 -0.510594 -1.61836 0
M  V30 3118 H 292.044 -0.856283 -3.81816 0
M  V30 3119 H 291.667 0.857529 -3.88242 0
M  V30 3120 N 292.664 1.56529 -0.183458 0
M  V30 3121 C 293.627 2.17324 0.728223 0
M  V30 3122 C 294.627 1.12453 1.14939 0
M  V30 3123 O 295.817 1.37902 1.06437 0
M  V30 3124 C 292.949 2.76591 1.99274 0
M  V30 3125 H 294.142 2.99241 0.198772 0
M  V30 3126 H 291.695 1.5616 0.0661391 0
M  V30 3127 H 292.43 1.98441 2.56499 0
M  V30 3128 H 292.215 3.5335 1.69959 0
M  V30 3129 H 293.705 3.23311 2.6431 0
M  V30 3130 N 294.142 -0.090211 1.57342 0
M  V30 3131 C 295.391 -0.791531 1.8552 0
M  V30 3132 C 295.704 -1.79659 0.773441 0
M  V30 3133 O 296.91 -2.54616 0.942497 0
M  V30 3134 C 295.366 -1.45856 3.2902 0
M  V30 3135 C 294.974 -0.493017 4.45279 0
M  V30 3136 C 296.718 -2.14332 3.66418 0
M  V30 3137 C 294.625 -1.16491 5.79814 0
M  V30 3138 H 293.555 -0.299356 0.692027 0
M  V30 3139 H 296.206 -0.0445343 1.83446 0
M  V30 3140 H 294.588 -2.25318 3.2565 0
M  V30 3141 H 295.762 0.270464 4.60006 0
M  V30 3142 H 294.077 0.0863061 4.16311 0
M  V30 3143 H 296.674 -2.65344 4.64216 0
M  V30 3144 H 297.017 -2.93447 2.95287 0
M  V30 3145 H 297.55 -1.41724 3.71698 0
M  V30 3146 H 294.289 -0.41447 6.54188 0
M  V30 3147 H 293.809 -1.8997 5.68921 0
M  V30 3148 H 295.488 -1.69001 6.24538 0
M  V30 3149 N 295.62 -1.53406 -0.361157 0
M  V30 3150 C 297.036 -1.43277 -0.703124 0
M  V30 3151 C 297.236 -0.575384 -1.9311 0
M  V30 3152 O 296.292 -0.0595362 -2.5243 0
M  V30 3153 C 297.605 -2.8653 -0.9122 0
M  V30 3154 C 299.153 -2.96191 -1.01193 0
M  V30 3155 C 299.628 -4.40514 -1.25345 0
M  V30 3156 N 301.119 -4.43962 -1.32105 0
M  V30 3157 C 301.854 -5.52746 -1.5251 0
M  V30 3158 N 301.35 -6.71567 -1.70203 0
M  V30 3159 N 303.143 -5.40331 -1.54916 0
M  V30 3160 H 295.294 -2.07654 0.446475 0
M  V30 3161 H 297.557 -0.937944 0.137715 0
M  V30 3162 H 297.263 -3.51605 -0.0816414 0
M  V30 3163 H 297.137 -3.30441 -1.81903 0
M  V30 3164 H 299.524 -2.31266 -1.83303 0
M  V30 3165 H 299.605 -2.55667 -0.0823929 0
M  V30 3166 H 299.249 -5.06014 -0.437346 0
M  V30 3167 H 299.179 -4.78614 -2.19627 0
M  V30 3168 H 301.67 -3.58332 -1.20028 0
M  V30 3169 H 301.983 -7.50241 -1.85359 0
M  V30 3170 H 300.328 -6.74545 -1.67373 0
M  V30 3171 H 303.519 -4.46465 -1.40663 0
M  V30 3172 H 303.692 -6.25173 -1.70477 0
M  V30 3173 N 297.098 0.621204 -1.44841 0
M  V30 3174 C 298.326 1.40752 -1.51646 0
M  V30 3175 C 298.741 1.88246 -0.144549 0
M  V30 3176 O 298.098 1.61422 0.851416 0
M  V30 3177 C 298.149 2.62119 -2.4895 0
M  V30 3178 O 297.87 2.16602 -3.80808 0
M  V30 3179 C 299.371 3.55135 -2.65319 0
M  V30 3180 H 296.591 0.431325 -0.514004 0
M  V30 3181 H 299.135 0.758835 -1.899 0
M  V30 3182 H 297.29 3.23058 -2.13805 0
M  V30 3183 H 297.704 2.95358 -4.33433 0
M  V30 3184 H 299.178 4.36874 -3.37409 0
M  V30 3185 H 299.655 4.04592 -1.70886 0
M  V30 3186 H 300.261 3.00058 -3.01405 0
M  V30 3187 N 298.576 1.31904 0.862503 0
M  V30 3188 C 299.804 1.24998 1.64873 0
M  V30 3189 C 300.219 -0.183425 1.87907 0
M  V30 3190 O 299.576 -1.11794 1.44251 0
M  V30 3191 C 299.627 1.99829 3.01248 0
M  V30 3192 O 299.348 3.37575 2.79239 0
M  V30 3193 C 300.849 1.99852 3.95694 0
M  V30 3194 H 298.069 0.431599 0.513773 0
M  V30 3195 H 300.613 1.73901 1.07604 0
M  V30 3196 H 298.768 1.54668 3.55185 0
M  V30 3197 H 299.182 3.75776 3.65914 0
M  V30 3198 H 300.656 2.56709 4.88676 0
M  V30 3199 H 301.133 0.982852 4.28062 0
M  V30 3200 H 301.739 2.44926 3.47694 0
M  V30 3201 N 300.054 -1.07777 1.14986 0
M  V30 3202 C 301.3 -1.80557 0.923422 0
M  V30 3203 C 301.633 -1.86298 -0.548337 0
M  V30 3204 O 300.908 -1.34354 -1.40639 0
M  V30 3205 C 301.191 -3.25839 1.53299 0
M  V30 3206 C 301.044 -3.28269 3.07505 0
M  V30 3207 C 302.363 -4.22991 1.21518 0
M  V30 3208 H 299.482 -0.655493 0.336894 0
M  V30 3209 H 302.124 -1.26144 1.42083 0
M  V30 3210 H 300.274 -3.72306 1.10999 0
M  V30 3211 H 301.946 -2.90079 3.58681 0
M  V30 3212 H 300.189 -2.67355 3.4162 0
M  V30 3213 H 300.86 -4.30691 3.45266 0
M  V30 3214 H 303.336 -3.84894 1.581 0
M  V30 3215 H 302.212 -5.22945 1.66793 0
M  V30 3216 H 302.473 -4.41904 0.131505 0
M  V30 3217 N 301.532 -0.945985 -1.26051 0
M  V30 3218 C 302.76 -0.613025 -1.9761 0
M  V30 3219 C 303.175 0.813035 -1.70397 0
M  V30 3220 O 302.532 1.54274 -0.974979 0
M  V30 3221 C 302.583 -0.85159 -3.51326 0
M  V30 3222 O 302.304 -2.22157 -3.77595 0
M  V30 3223 C 303.805 -0.529831 -4.40122 0
M  V30 3224 H 301.025 -0.230593 -0.630133 0
M  V30 3225 H 303.569 -1.268 -1.60443 0
M  V30 3226 H 301.724 -0.243151 -3.86636 0
M  V30 3227 H 302.138 -2.2852 -4.721 0
M  V30 3228 H 303.612 -0.747348 -5.46917 0
M  V30 3229 H 304.089 0.535341 -4.35925 0
M  V30 3230 H 304.695 -1.11721 -4.10364 0
M  V30 3231 N 303.011 1.40521 -0.713556 0
M  V30 3232 C 303.961 2.27971 -0.036165 0
M  V30 3233 C 304.945 1.43151 0.734623 0
M  V30 3234 O 306.137 1.66261 0.607158 0
M  V30 3235 C 303.266 3.31661 0.886331 0
M  V30 3236 C 302.352 4.23955 0.110836 0
M  V30 3237 N 302.743 4.97641 -0.904847 0
M  V30 3238 C 301.041 4.44674 0.343692 0
M  V30 3239 C 301.742 5.65322 -1.37064 0
M  V30 3240 N 300.718 5.39162 -0.693168 0
M  V30 3241 H 304.52 2.82384 -0.814645 0
M  V30 3242 H 302.034 1.52948 -0.545963 0
M  V30 3243 H 304.031 3.93154 1.38692 0
M  V30 3244 H 302.691 2.78808 1.66421 0
M  V30 3245 H 303.702 5.01689 -1.28563 0
M  V30 3246 H 300.379 4.02801 1.09805 0
M  V30 3247 H 301.769 6.34359 -2.21447 0
M  V30 3248 N 304.489 0.459591 1.5075 0
M  V30 3249 C 305.735 -0.091664 2.03193 0
M  V30 3250 C 306.09 -1.38432 1.3362 0
M  V30 3251 O 305.383 -1.86257 0.449322 0
M  V30 3252 C 305.577 -0.342866 3.55752 0
M  V30 3253 C 305.406 0.923888 4.40107 0
M  V30 3254 C 304.176 1.46388 4.83631 0
M  V30 3255 C 306.374 1.81617 4.81165 0
M  V30 3256 N 304.356 2.68086 5.52271 0
M  V30 3257 C 305.727 2.87907 5.49099 0
M  V30 3258 C 307.782 1.82793 4.63132 0
M  V30 3259 C 306.485 3.95347 6.0091 0
M  V30 3260 C 308.511 2.89182 5.15876 0
M  V30 3261 C 307.873 3.94191 5.83774 0
M  V30 3262 H 303.972 0.00619247 0.781975 0
M  V30 3263 H 306.556 0.625233 1.84388 0
M  V30 3264 H 304.727 -1.0288 3.74527 0
M  V30 3265 H 306.459 -0.887445 3.9485 0
M  V30 3266 H 303.214 1.01466 4.62603 0
M  V30 3267 H 303.638 3.29857 5.91205 0
M  V30 3268 H 308.28 1.0293 4.1008 0
M  V30 3269 H 305.998 4.76035 6.53006 0
M  V30 3270 H 309.584 2.91061 5.0376 0
M  V30 3271 H 308.464 4.75161 6.23853 0
M  V30 3272 N 305.967 -1.56429 0.191757 0
M  V30 3273 C 307.213 -1.97777 -0.448554 0
M  V30 3274 C 307.546 -1.07847 -1.61501 0
M  V30 3275 O 306.821 -0.129774 -1.94067 0
M  V30 3276 C 307.104 -3.48362 -0.911906 0
M  V30 3277 C 306.957 -4.4907 0.256136 0
M  V30 3278 C 308.276 -4.02561 -1.77857 0
M  V30 3279 H 305.395 -0.719071 -0.161572 0
M  V30 3280 H 308.037 -1.87896 0.282007 0
M  V30 3281 H 306.187 -3.56914 -1.53442 0
M  V30 3282 H 307.859 -4.5256 0.893733 0
M  V30 3283 H 306.102 -4.24181 0.908436 0
M  V30 3284 H 306.773 -5.51889 -0.11053 0
M  V30 3285 H 309.249 -3.96767 -1.25359 0
M  V30 3286 H 308.125 -5.08301 -2.07174 0
M  V30 3287 H 308.386 -3.47616 -2.73158 0
M  V30 3288 N 307.445 0.0818655 -1.57387 0
M  V30 3289 C 308.392 1.09834 -2.0299 0
M  V30 3290 C 309.362 1.39043 -0.908639 0
M  V30 3291 O 310.547 1.50282 -1.17559 0
M  V30 3292 C 307.687 2.40971 -2.47037 0
M  V30 3293 C 306.8 2.18379 -3.7274 0
M  V30 3294 C 305.935 3.43008 -4.0561 0
M  V30 3295 C 304.974 3.15736 -5.24383 0
M  V30 3296 N 304.111 4.32667 -5.52941 0
M  V30 3297 H 308.951 0.702472 -2.89602 0
M  V30 3298 H 306.488 0.33531 -1.43227 0
M  V30 3299 H 308.446 3.1752 -2.70623 0
M  V30 3300 H 307.076 2.78379 -1.63417 0
M  V30 3301 H 306.128 1.32569 -3.56552 0
M  V30 3302 H 307.44 1.94227 -4.59431 0
M  V30 3303 H 306.594 4.27958 -4.30043 0
M  V30 3304 H 305.333 3.70225 -3.17466 0
M  V30 3305 H 304.338 2.2918 -4.99757 0
M  V30 3306 H 305.563 2.8985 -6.14136 0
M  V30 3307 H 303.509 4.59935 -4.67756 0
M  V30 3308 H 303.426 4.11753 -6.34031 0
M  V30 3309 H 304.694 5.18644 -5.81918 0
M  V30 3310 N 308.923 1.53595 0.353017 0
M  V30 3311 C 309.833 1.83897 1.45667 0
M  V30 3312 C 310.849 0.728334 1.58023 0
M  V30 3313 O 312.025 1.01968 1.73679 0
M  V30 3314 C 309.09 2.03383 2.80778 0
M  V30 3315 C 308.151 3.27262 2.77845 0
M  V30 3316 C 307.384 3.45809 4.06512 0
M  V30 3317 O 307.607 2.68387 5.03314 0
M  V30 3318 O 306.541 4.39207 4.11559 0
M  V30 3319 H 310.367 2.77686 1.2298 0
M  V30 3320 H 307.952 1.39132 0.544308 0
M  V30 3321 H 309.834 2.17698 3.60812 0
M  V30 3322 H 308.509 1.12783 3.03417 0
M  V30 3323 H 307.416 3.18359 1.96465 0
M  V30 3324 H 308.749 4.17824 2.60161 0
M  V30 3325 N 310.401 -0.613514 1.45168 0
M  V30 3326 C 311.331 -1.7354 1.56225 0
M  V30 3327 C 312.312 -1.64981 0.41414 0
M  V30 3328 O 313.497 -1.83472 0.636526 0
M  V30 3329 C 310.627 -3.12128 1.52295 0
M  V30 3330 C 309.581 -3.35491 2.65762 0
M  V30 3331 C 308.907 -4.74291 2.46885 0
M  V30 3332 C 310.207 -3.26325 4.0781 0
M  V30 3333 H 311.901 -1.64543 2.50132 0
M  V30 3334 H 309.447 -0.790185 1.20383 0
M  V30 3335 H 311.4 -3.90404 1.58628 0
M  V30 3336 H 310.124 -3.2195 0.549139 0
M  V30 3337 H 308.783 -2.59603 2.58847 0
M  V30 3338 H 308.431 -4.80839 1.47657 0
M  V30 3339 H 308.131 -4.9088 3.22972 0
M  V30 3340 H 309.655 -5.54775 2.55063 0
M  V30 3341 H 311.069 -3.94483 4.16 0
M  V30 3342 H 309.466 -3.54445 4.8424 0
M  V30 3343 H 310.536 -2.23855 4.30136 0
M  V30 3344 N 311.879 -1.3236 -0.855495 0
M  V30 3345 C 313.156 -1.13491 -1.59309 0
M  V30 3346 C 313.536 0.30503 -2.08885 0
M  V30 3347 O 312.884 1.30151 -1.87811 0
M  V30 3348 C 313.094 -2.16176 -2.73987 0
M  V30 3349 C 314.442 -2.49463 -3.43589 0
M  V30 3350 O 315.466 -2.14715 -2.84211 0
M  V30 3351 O 314.325 -3.09027 -4.50738 0
M  V30 3352 H 311.419 -0.437887 -0.701559 0
M  V30 3353 H 313.965 -1.43887 -0.899696 0
M  V30 3354 H 312.737 -3.1297 -2.34873 0
M  V30 3355 H 312.36 -1.86769 -3.51003 0
M  V30 3356 N 313.357 1.07166 -1.15556 0
M  V30 3357 C 314.32 2.12589 -0.856644 0
M  V30 3358 C 315.32 1.6015 0.14444 0
M  V30 3359 O 316.51 1.7399 -0.0854163 0
M  V30 3360 C 313.642 3.39753 -0.279405 0
M  V30 3361 H 314.835 2.40539 -1.79112 0
M  V30 3362 H 312.388 1.23086 -0.963298 0
M  V30 3363 H 313.123 3.17447 0.663174 0
M  V30 3364 H 312.908 3.79117 -1.00063 0
M  V30 3365 H 314.398 4.17507 -0.0879113 0
M  V30 3366 O 314.874 1.08282 1.19822 0
M  V30 3367 H 315.565 0.773615 1.77581 0
M  V30 END ATOM
M  V30 BEGIN BOND
M  V30 END BOND
M  V30 END CTAB
M  END
$$$$
