drugbank_target|P0A7V8 30S ribosomal protein S4 (DB00256; DB00453; DB00595; DB01017; DB12329)
 OpenBabel12092119223D

  0  0  0     0  0            999 V3000
M  V30 BEGIN CTAB
M  V30 COUNTS 3370 3392 0 0 0
M  V30 BEGIN ATOM
M  V30 1 H -0.908 1.98254 -0.117106 0
M  V30 2 N 0 1.576 0 0
M  V30 3 C 0.933 2.03868 1.02534 0
M  V30 4 C 1.911 0.928543 1.3348 0
M  V30 5 O 3.095 1.19667 1.45644 0
M  V30 6 C 0.222 2.43627 2.35294 0
M  V30 7 C -0.732 3.65373 2.2001 0
M  V30 8 S 0.101 5.13292 1.52614 0
M  V30 9 C 1.257 5.56322 2.86805 0
M  V30 10 H 1.49 2.90518 0.631377 0
M  V30 11 H -0.977 1.52953 0.210867 0
M  V30 12 H 0.981 2.67203 3.11629 0
M  V30 13 H -0.358 1.57376 2.7183 0
M  V30 14 H -1.165 3.90944 3.18086 0
M  V30 15 H -1.563 3.418 1.51819 0
M  V30 16 H 0.729 5.58782 3.83104 0
M  V30 17 H 1.672 6.56266 2.65933 0
M  V30 18 H 2.08 4.83886 2.90714 0
M  V30 19 N 1.4781 -0.272755 1.55222 0
M  V30 20 C 2.4411 -1.32041 1.87344 0
M  V30 21 C 3.4411 -1.42342 0.74803 0
M  V30 22 O 4.6311 -1.41488 1.0162 0
M  V30 23 C 1.7631 -2.70173 2.07893 0
M  V30 24 H 2.9561 -1.04789 2.80997 0
M  V30 25 H 0.5091 -0.51083 1.47717 0
M  V30 26 H 1.2441 -3.02605 1.16622 0
M  V30 27 H 1.0291 -2.64082 2.89833 0
M  V30 28 H 2.5191 -3.45869 2.34017 0
M  V30 29 N 2.9562 -1.48159 -0.537278 0
M  V30 30 C 4.3722 -1.34118 -0.865129 0
M  V30 31 C 4.5722 -0.346678 -1.98495 0
M  V30 32 O 3.6282 0.234715 -2.51407 0
M  V30 33 C 4.9412 -2.73963 -1.23954 0
M  V30 34 C 6.4892 -2.82397 -1.34984 0
M  V30 35 C 6.9642 -4.22928 -1.75772 0
M  V30 36 N 8.4552 -4.25566 -1.82887 0
M  V30 37 C 9.1902 -5.31235 -2.15817 0
M  V30 38 N 8.6862 -6.47189 -2.47222 0
M  V30 39 N 10.4792 -5.18624 -2.16761 0
M  V30 40 H 2.6302 -2.1144 0.201715 0
M  V30 41 H 4.8932 -0.947598 0.0275949 0
M  V30 42 H 4.5992 -3.48264 -0.490381 0
M  V30 43 H 4.4732 -3.0702 -2.19132 0
M  V30 44 H 6.8602 -2.08356 -2.08978 0
M  V30 45 H 6.9412 -2.5297 -0.379448 0
M  V30 46 H 6.5852 -4.97482 -1.02341 0
M  V30 47 H 6.5152 -4.49794 -2.73848 0
M  V30 48 H 9.0062 -3.41924 -1.60924 0
M  V30 49 H 9.3192 -7.23564 -2.71433 0
M  V30 50 H 7.6642 -6.50476 -2.44757 0
M  V30 51 H 10.8552 -4.27056 -1.91679 0
M  V30 52 H 11.0282 -6.01078 -2.42093 0
M  V30 53 N 4.4343 0.785586 -1.36625 0
M  V30 54 C 5.6643 1.5722 -1.34036 0
M  V30 55 C 6.0723 1.89033 0.0795062 0
M  V30 56 O 5.4153 1.50881 1.04789 0
M  V30 57 C 5.4773 2.91759 -2.10041 0
M  V30 58 C 5.1413 2.82654 -3.59104 0
M  V30 59 C 6.1383 2.54634 -4.53274 0
M  V30 60 C 3.8233 3.01111 -4.02042 0
M  V30 61 C 5.8173 2.45177 -5.88359 0
M  V30 62 C 3.5043 2.91276 -5.37216 0
M  V30 63 C 4.5023 2.63348 -6.30188 0
M  V30 64 O 4.1903 2.53514 -7.6288 0
M  V30 65 H 3.9223 0.494177 -0.461265 0
M  V30 66 H 6.4763 0.982632 -1.8037 0
M  V30 67 H 4.7063 3.52781 -1.58375 0
M  V30 68 H 6.3953 3.53059 -2.00261 0
M  V30 69 H 7.1613 2.40073 -4.21414 0
M  V30 70 H 3.0403 3.21854 -3.30047 0
M  V30 71 H 6.5843 2.23299 -6.60896 0
M  V30 72 H 2.4813 3.054 -5.68684 0
M  V30 73 H 3.2493 2.68967 -7.73045 0
M  V30 74 N 5.9124 1.20967 1.01018 0
M  V30 75 C 6.8424 0.988272 2.11555 0
M  V30 76 C 7.8234 -0.0849778 1.69888 0
M  V30 77 O 9.0084 0.0738202 1.9406 0
M  V30 78 C 6.1384 0.546528 3.42973 0
M  V30 79 C 5.0924 1.56375 3.9841 0
M  V30 80 C 4.4184 0.97842 5.25672 0
M  V30 81 C 5.7184 2.94922 4.31066 0
M  V30 82 H 7.4124 1.91276 2.30334 0
M  V30 83 H 4.9584 0.921073 1.1069 0
M  V30 84 H 6.9114 0.378839 4.19694 0
M  V30 85 H 5.6354 -0.413598 3.23971 0
M  V30 86 H 4.2944 1.71891 3.23804 0
M  V30 87 H 3.9424 0.0101688 5.02999 0
M  V30 88 H 3.6424 1.65784 5.63728 0
M  V30 89 H 5.1664 0.821939 6.05043 0
M  V30 90 H 6.5804 2.8288 4.9865 0
M  V30 91 H 4.9774 3.5983 4.80253 0
M  V30 92 H 6.0474 3.4616 3.39561 0
M  V30 93 N 7.3905 -1.2043 1.01659 0
M  V30 94 C 8.6385 -1.89423 0.704522 0
M  V30 95 C 8.9595 -1.79231 -0.768197 0
M  V30 96 O 8.2295 -1.1947 -1.55254 0
M  V30 97 H 6.8095 -0.701178 0.257602 0
M  V30 98 H 9.4715 -1.4626 1.28818 0
M  V30 99 H 8.5675 -2.96052 0.987916 0
M  V30 100 N 8.8686 -0.792821 -1.36206 0
M  V30 101 C 10.2796 -0.429513 -1.81692 0
M  V30 102 C 10.6306 1.04695 -1.65932 0
M  V30 103 O 9.7556 1.81256 -1.18218 0
M  V30 104 C 10.3506 -0.772831 -3.29868 0
M  V30 105 C 8.9096 -0.462307 -3.7355 0
M  V30 106 C 8.0566 -1.00569 -2.5842 0
M  V30 107 H 11.0076 -0.985672 -1.24379 0
M  V30 108 H 11.0286 -0.0651928 -3.80444 0
M  V30 109 H 10.5406 -1.84747 -3.41307 0
M  V30 110 H 8.6416 0.604158 -3.67669 0
M  V30 111 H 8.7546 -0.985299 -4.68859 0
M  V30 112 H 7.1186 -0.428734 -2.51066 0
M  V30 113 H 7.9016 -2.08616 -2.72643 0
M  V30 114 N 10.3467 1.47872 -0.545128 0
M  V30 115 C 11.2937 2.29849 0.2093 0
M  V30 116 C 12.2637 1.38313 0.919707 0
M  V30 117 O 13.4487 1.67277 0.917772 0
M  V30 118 C 10.5887 3.22019 1.24088 0
M  V30 119 C 9.7017 4.2864 0.537778 0
M  V30 120 C 8.8367 5.07973 1.5536 0
M  V30 121 C 7.8757 6.06381 0.8348 0
M  V30 122 N 7.0127 6.78717 1.79688 0
M  V30 123 H 11.8527 2.93845 -0.49591 0
M  V30 124 H 9.3897 1.44848 -0.256389 0
M  V30 125 H 11.3477 3.73868 1.85144 0
M  V30 126 H 9.9777 2.59914 1.91428 0
M  V30 127 H 9.0297 3.7994 -0.187046 0
M  V30 128 H 10.3417 4.98793 -0.0258907 0
M  V30 129 H 9.4957 5.63912 2.23803 0
M  V30 130 H 8.2347 4.37693 2.15118 0
M  V30 131 H 7.2397 5.49631 0.136388 0
M  V30 132 H 8.4647 6.78665 0.24313 0
M  V30 133 H 6.4107 6.11177 2.38326 0
M  V30 134 H 6.3277 7.44998 1.28505 0
M  V30 135 H 7.5957 7.39237 2.47282 0
M  V30 136 N 11.8248 0.280983 1.55075 0
M  V30 137 C 12.7548 -0.597469 2.25727 0
M  V30 138 C 13.7358 -1.15417 1.24952 0
M  V30 139 O 14.9208 -1.18722 1.53684 0
M  V30 140 C 12.0508 -1.7789 2.98283 0
M  V30 141 C 11.0048 -1.35347 4.06036 0
M  V30 142 C 10.3308 -2.61846 4.66198 0
M  V30 143 C 11.6308 -0.499354 5.19907 0
M  V30 144 H 13.3248 -0.00824265 2.99399 0
M  V30 145 H 10.8708 -0.0025244 1.44 0
M  V30 146 H 12.8238 -2.39937 3.46422 0
M  V30 147 H 11.5478 -2.39405 2.22155 0
M  V30 148 H 10.2068 -0.756156 3.58717 0
M  V30 149 H 9.8548 -3.21632 3.86732 0
M  V30 150 H 9.5548 -2.3409 5.38958 0
M  V30 151 H 11.0788 -3.24732 5.1709 0
M  V30 152 H 12.4928 -1.02498 5.64063 0
M  V30 153 H 10.8898 -0.316424 5.99265 0
M  V30 154 H 11.9598 0.480459 4.82514 0
M  V30 155 N 13.3029 -1.57598 0.00835791 0
M  V30 156 C 14.2499 -2.08945 -0.980346 0
M  V30 157 C 15.2199 -0.986738 -1.33614 0
M  V30 158 O 16.4049 -1.25968 -1.43306 0
M  V30 159 C 13.5449 -2.60425 -2.26435 0
M  V30 160 C 12.6579 -3.84628 -1.96685 0
M  V30 161 C 11.7929 -4.24579 -3.19228 0
M  V30 162 C 10.8319 -5.41596 -2.85202 0
M  V30 163 N 9.9689 -5.768 -4.00307 0
M  V30 164 H 14.8089 -2.93148 -0.535551 0
M  V30 165 H 12.3459 -1.44912 -0.252776 0
M  V30 166 H 14.3039 -2.88354 -3.01509 0
M  V30 167 H 12.9339 -1.79083 -2.68568 0
M  V30 168 H 11.9859 -3.63556 -1.11942 0
M  V30 169 H 13.2979 -4.69796 -1.67611 0
M  V30 170 H 12.4519 -4.53834 -4.02641 0
M  V30 171 H 11.1909 -3.38137 -3.51447 0
M  V30 172 H 10.1959 -5.12056 -2.00198 0
M  V30 173 H 11.4209 -6.29721 -2.54222 0
M  V30 174 H 9.3669 -4.93316 -4.32407 0
M  V30 175 H 9.2839 -6.5656 -3.74786 0
M  V30 176 H 10.5519 -6.10652 -4.84484 0
M  V30 177 N 14.781 0.264519 -1.55364 0
M  V30 178 C 15.711 1.33121 -1.91836 0
M  V30 179 C 16.692 1.51101 -0.781192 0
M  V30 180 O 17.877 1.64003 -1.04003 0
M  V30 181 C 15.007 2.68921 -2.19769 0
M  V30 182 C 13.961 2.65661 -3.35571 0
M  V30 183 C 13.287 4.05093 -3.49004 0
M  V30 184 C 14.587 2.24187 -4.71739 0
M  V30 185 H 16.281 1.02844 -2.81182 0
M  V30 186 H 13.827 0.493286 -1.35287 0
M  V30 187 H 15.78 3.43663 -2.43872 0
M  V30 188 H 14.504 3.00799 -1.27231 0
M  V30 189 H 13.163 1.93377 -3.1145 0
M  V30 190 H 12.811 4.34206 -2.53917 0
M  V30 191 H 12.511 4.03804 -4.26868 0
M  V30 192 H 14.035 4.81561 -3.75408 0
M  V30 193 H 15.449 2.88654 -4.9533 0
M  V30 194 H 13.846 2.34044 -5.52579 0
M  V30 195 H 14.916 1.19327 -4.69988 0
M  V30 196 N 16.2591 1.48442 0.529413 0
M  V30 197 C 17.4841 1.60406 1.31471 0
M  V30 198 C 17.9091 0.264738 1.86228 0
M  V30 199 O 17.2671 -0.763668 1.64432 0
M  V30 200 C 17.3151 2.65419 2.44101 0
M  V30 201 O 16.4191 2.22618 3.47153 0
M  V30 202 H 15.7601 0.537863 0.389357 0
M  V30 203 H 18.2901 1.94432 0.636965 0
M  V30 204 H 18.3001 2.86709 2.90279 0
M  V30 205 H 16.9751 3.62652 2.03608 0
M  V30 206 H 15.5521 2.11543 3.0709 0
M  V30 207 N 17.7372 -0.778329 1.37039 0
M  V30 208 C 19.1532 -1.07796 1.17695 0
M  V30 209 C 19.3532 -2.01498 0.00860115 0
M  V30 210 O 18.4092 -2.43901 -0.653352 0
M  V30 211 C 19.7222 -1.68178 2.49272 0
M  V30 212 C 21.2702 -1.80467 2.55735 0
M  V30 213 C 21.7452 -2.44263 3.87427 0
M  V30 214 N 23.2362 -2.51721 3.88833 0
M  V30 215 C 23.9712 -3.01919 4.87476 0
M  V30 216 N 23.4672 -3.5234 5.96513 0
M  V30 217 N 25.2602 -3.00733 4.74885 0
M  V30 218 H 17.4112 -0.156032 2.11826 0
M  V30 219 H 19.6742 -0.131844 0.938787 0
M  V30 220 H 19.3802 -1.06796 3.35093 0
M  V30 221 H 19.2542 -2.67554 2.65885 0
M  V30 222 H 21.6412 -2.40984 1.70325 0
M  V30 223 H 21.7222 -0.798656 2.43013 0
M  V30 224 H 21.3662 -1.84388 4.73248 0
M  V30 225 H 21.2962 -3.45458 3.9745 0
M  V30 226 H 23.7872 -2.1603 3.10063 0
M  V30 227 H 24.1002 -3.89027 6.67741 0
M  V30 228 H 22.4452 -3.50462 6.00168 0
M  V30 229 H 25.6362 -2.60638 3.88826 0
M  V30 230 H 25.8092 -3.39545 5.51918 0
M  V30 231 N 19.2153 -1.21501 -1.00376 0
M  V30 232 C 20.6313 -0.972629 -1.26539 0
M  V30 233 C 20.8313 0.340257 -1.98606 0
M  V30 234 O 19.8873 1.06561 -2.28913 0
M  V30 235 C 21.2003 -2.16404 -2.08781 0
M  V30 236 C 22.7483 -2.20643 -2.22004 0
M  V30 237 C 23.2233 -3.39306 -3.07629 0
M  V30 238 N 24.7143 -3.39401 -3.15217 0
M  V30 239 C 25.4493 -4.27867 -3.81729 0
M  V30 240 N 24.9453 -5.26533 -4.5026 0
M  V30 241 N 26.7383 -4.15672 -3.78382 0
M  V30 242 H 18.8893 -2.05929 -0.520281 0
M  V30 243 H 21.1523 -0.901803 -0.292328 0
M  V30 244 H 20.8583 -3.11554 -1.63178 0
M  V30 245 H 20.7323 -2.15567 -3.09533 0
M  V30 246 H 23.1193 -1.26048 -2.66825 0
M  V30 247 H 23.2003 -2.25523 -1.20718 0
M  V30 248 H 22.8443 -4.34195 -2.63509 0
M  V30 249 H 22.7743 -3.31665 -4.09031 0
M  V30 250 H 25.2653 -2.67997 -2.66432 0
M  V30 251 H 25.5783 -5.90337 -4.98721 0
M  V30 252 H 23.9233 -5.30457 -4.49044 0
M  V30 253 H 27.1143 -3.3785 -3.23998 0
M  V30 254 H 27.2873 -4.84825 -4.2994 0
M  V30 255 N 20.6934 1.19889 -1.02296 0
M  V30 256 C 21.6034 2.26571 -0.608508 0
M  V30 257 C 22.6194 1.70299 0.356964 0
M  V30 258 O 23.7954 2.00235 0.216326 0
M  V30 259 C 20.8604 3.46677 0.0402814 0
M  V30 260 C 19.9214 4.18153 -0.97194 0
M  V30 261 C 19.1544 5.32525 -0.354016 0
M  V30 262 O 19.3774 5.64112 0.844604 0
M  V30 263 O 18.3114 5.92242 -1.07391 0
M  V30 264 H 22.1374 2.64251 -1.49684 0
M  V30 265 H 19.7224 1.26629 -0.792809 0
M  V30 266 H 21.6044 4.19475 0.402324 0
M  V30 267 H 20.2794 3.10858 0.902707 0
M  V30 268 H 19.1864 3.47499 -1.38546 0
M  V30 269 H 20.5194 4.57927 -1.80454 0
M  V30 270 N 22.1715 0.800033 1.35784 0
M  V30 271 C 23.4195 0.376597 1.9856 0
M  V30 272 C 23.7405 -1.05812 1.63795 0
M  V30 273 O 23.0105 -1.73103 0.917171 0
M  V30 274 H 21.5905 0.136261 0.734467 0
M  V30 275 H 24.2525 1.02442 1.65806 0
M  V30 276 H 23.3485 0.477002 3.08433 0
M  V30 277 N 23.6496 -1.47581 0.552962 0
M  V30 278 C 24.8776 -2.06875 0.0320556 0
M  V30 279 C 25.2926 -1.40625 -1.25976 0
M  V30 280 O 24.6496 -0.501349 -1.75479 0
M  V30 281 C 24.7006 -3.61092 -0.17167 0
M  V30 282 O 24.4216 -4.24858 1.06899 0
M  V30 283 C 25.9226 -4.37242 -0.730344 0
M  V30 284 H 23.1426 -0.669561 0.043915 0
M  V30 285 H 25.6866 -1.89646 0.765163 0
M  V30 286 H 23.8416 -3.7785 -0.854894 0
M  V30 287 H 24.2556 -5.17334 0.864059 0
M  V30 288 H 25.7296 -5.45842 -0.822203 0
M  V30 289 H 26.2066 -4.03235 -1.74064 0
M  V30 290 H 26.8126 -4.25219 -0.0829543 0
M  V30 291 N 25.1277 -0.289203 -1.54924 0
M  V30 292 C 26.4047 0.376032 -1.91951 0
M  V30 293 C 26.7847 1.72622 -1.21511 0
M  V30 294 O 26.1327 2.25853 -0.346767 0
M  V30 295 C 26.3427 0.502378 -3.45365 0
M  V30 296 C 27.6907 0.778741 -4.17398 0
M  V30 297 O 28.7147 0.586647 -3.51336 0
M  V30 298 O 27.5737 1.14698 -5.34328 0
M  V30 299 H 24.6677 0.208167 -0.800372 0
M  V30 300 H 27.2137 -0.336394 -1.66332 0
M  V30 301 H 25.9857 -0.447255 -3.88736 0
M  V30 302 H 25.6087 1.26373 -3.76982 0
M  V30 303 N 26.6058 1.57591 -0.0167156 0
M  V30 304 C 27.5358 2.12496 0.967858 0
M  V30 305 C 28.5168 1.03807 1.34752 0
M  V30 306 O 29.7018 1.31577 1.42833 0
M  V30 307 C 26.8318 2.64194 2.25431 0
M  V30 308 C 25.7858 3.77559 2.01576 0
M  V30 309 C 25.1118 4.15636 3.36379 0
M  V30 310 C 26.4118 5.04151 1.36489 0
M  V30 311 H 28.1058 2.95013 0.510643 0
M  V30 312 H 25.6518 1.41915 0.244181 0
M  V30 313 H 27.6048 3.01236 2.94678 0
M  V30 314 H 26.3288 1.78821 2.73296 0
M  V30 315 H 24.9878 3.40937 1.34751 0
M  V30 316 H 24.6358 3.27263 3.81979 0
M  V30 317 H 24.3358 4.92022 3.21229 0
M  V30 318 H 25.8598 4.5525 4.06915 0
M  V30 319 H 27.2738 5.38857 1.95718 0
M  V30 320 H 25.6708 5.85453 1.31776 0
M  V30 321 H 26.7408 4.83733 0.336219 0
M  V30 322 N 28.0839 -0.256276 1.55502 0
M  V30 323 C 29.3309 -0.985619 1.76895 0
M  V30 324 C 29.6589 -1.85671 0.579355 0
M  V30 325 O 28.9139 -1.90744 -0.437651 0
M  V30 326 C 29.2129 -1.88432 3.03691 0
M  V30 327 C 28.8789 -1.16936 4.35473 0
M  V30 328 C 27.5409 -0.97173 4.71286 0
M  V30 329 C 29.8929 -0.661889 5.1698 0
M  V30 330 C 27.2209 -0.254179 5.86149 0
M  V30 331 C 29.5729 0.042149 6.32586 0
M  V30 332 C 28.2369 0.25134 6.67027 0
M  V30 333 H 27.5069 -0.360663 0.647304 0
M  V30 334 H 30.1539 -0.256483 1.89775 0
M  V30 335 H 28.4589 -2.68021 2.85783 0
M  V30 336 H 30.1559 -2.45015 3.1744 0
M  V30 337 H 26.7459 -1.33332 4.07333 0
M  V30 338 H 30.9299 -0.802145 4.89775 0
M  V30 339 H 26.1859 -0.0815408 6.11346 0
M  V30 340 H 30.3599 0.443049 6.94989 0
M  V30 341 H 27.9869 0.809314 7.5588 0
M  V30 342 N 29.562 -1.4872 -0.521534 0
M  V30 343 C 30.492 -1.66771 -1.63431 0
M  V30 344 C 31.473 -0.516499 -1.62069 0
M  V30 345 O 32.658 -0.750013 -1.79132 0
M  V30 346 C 29.788 -1.71515 -3.01993 0
M  V30 347 C 28.742 -2.86222 -3.18216 0
M  V30 348 C 28.068 -2.76061 -4.57924 0
M  V30 349 C 29.368 -4.27419 -3.00184 0
M  V30 350 H 31.062 -2.59932 -1.48579 0
M  V30 351 H 28.608 -1.25089 -0.713358 0
M  V30 352 H 30.561 -1.82731 -3.7972 0
M  V30 353 H 29.285 -0.749393 -3.17886 0
M  V30 354 H 27.944 -2.74575 -2.42908 0
M  V30 355 H 27.592 -1.77437 -4.70665 0
M  V30 356 H 27.292 -3.53037 -4.69722 0
M  V30 357 H 28.816 -2.89256 -5.37739 0
M  V30 358 H 30.23 -4.39855 -3.67697 0
M  V30 359 H 28.627 -5.05458 -3.2347 0
M  V30 360 H 29.697 -4.43293 -1.96518 0
M  V30 361 N 31.0401 0.771051 -1.3745 0
M  V30 362 C 31.9871 1.88435 -1.3327 0
M  V30 363 C 32.9571 1.64914 -0.198136 0
M  V30 364 O 34.1421 1.86821 -0.387606 0
M  V30 365 C 31.2821 3.25509 -1.14622 0
M  V30 366 C 30.3951 3.60979 -2.37314 0
M  V30 367 C 29.5301 4.87265 -2.11533 0
M  V30 368 C 28.5691 5.15469 -3.30088 0
M  V30 369 N 27.7061 6.32944 -3.03853 0
M  V30 370 H 32.5461 1.91344 -2.28455 0
M  V30 371 H 30.0831 0.935466 -1.13523 0
M  V30 372 H 32.0411 4.04582 -1.01831 0
M  V30 373 H 30.6711 3.21974 -0.230837 0
M  V30 374 H 29.7231 2.76885 -2.60842 0
M  V30 375 H 31.0351 3.77759 -3.25729 0
M  V30 376 H 30.1891 5.74244 -1.95777 0
M  V30 377 H 28.9281 4.7259 -1.20457 0
M  V30 378 H 27.9331 4.26966 -3.46382 0
M  V30 379 H 29.1581 5.32052 -4.22016 0
M  V30 380 H 27.1041 6.19625 -2.15407 0
M  V30 381 H 27.0211 6.50143 -3.85812 0
M  V30 382 H 28.2891 7.22857 -2.91716 0
M  V30 383 N 32.5182 1.22032 0.997298 0
M  V30 384 C 33.7432 1.06921 1.77715 0
M  V30 385 C 34.1682 -0.376226 1.84299 0
M  V30 386 O 33.5262 -1.27165 1.29223 0
M  V30 387 C 33.5742 1.67996 3.19076 0
M  V30 388 O 32.6782 0.930653 4.01762 0
M  V30 389 H 32.0192 0.375814 0.547412 0
M  V30 390 H 34.5492 1.61737 1.25309 0
M  V30 391 H 34.5592 1.72538 3.69723 0
M  V30 392 H 33.2342 2.73182 3.13599 0
M  V30 393 H 31.8112 0.960917 3.60307 0
M  V30 394 N 33.9963 -1.19345 1.0293 0
M  V30 395 C 35.2443 -1.88665 0.724574 0
M  V30 396 C 35.5653 -1.80036 -0.749144 0
M  V30 397 O 34.8353 -1.2111 -1.53978 0
M  V30 398 H 33.4153 -0.698406 0.265025 0
M  V30 399 H 36.0773 -1.44885 1.30362 0
M  V30 400 H 35.1733 -2.94987 1.01926 0
M  V30 401 N 35.4744 -0.807222 -1.35358 0
M  V30 402 C 36.7204 -0.388463 -1.99045 0
M  V30 403 C 37.0534 1.04184 -1.63888 0
M  V30 404 O 36.3284 1.72292 -0.902535 0
M  V30 405 C 36.6114 -0.572783 -3.55515 0
M  V30 406 C 36.4644 -2.04807 -4.00468 0
M  V30 407 C 37.7834 0.00114064 -4.401 0
M  V30 408 H 34.9024 -0.142619 -0.723069 0
M  V30 409 H 37.5444 -1.01687 -1.60498 0
M  V30 410 H 35.6944 -0.0378425 -3.88482 0
M  V30 411 H 37.3664 -2.64544 -3.77908 0
M  V30 412 H 35.6094 -2.54427 -3.51353 0
M  V30 413 H 36.2804 -2.12792 -5.09337 0
M  V30 414 H 38.7564 -0.455716 -4.13597 0
M  V30 415 H 37.6324 -0.157737 -5.48673 0
M  V30 416 H 37.8934 1.09488 -4.28328 0
M  V30 417 N 36.9525 1.47285 -0.560781 0
M  V30 418 C 38.3685 1.58065 -0.22081 0
M  V30 419 C 38.5685 1.55892 1.27671 0
M  V30 420 O 37.6245 1.46422 2.0571 0
M  V30 421 C 38.9375 2.88418 -0.850625 0
M  V30 422 C 40.4855 3.02009 -0.822184 0
M  V30 423 C 40.9605 4.35066 -1.43113 0
M  V30 424 N 42.4515 4.41711 -1.39448 0
M  V30 425 C 43.1865 5.43237 -1.83525 0
M  V30 426 N 42.6825 6.51555 -2.35474 0
M  V30 427 N 44.4755 5.34304 -1.74574 0
M  V30 428 H 36.6265 1.46941 -1.53369 0
M  V30 429 H 38.8895 0.699558 -0.639783 0
M  V30 430 H 38.5955 2.95755 -1.9032 0
M  V30 431 H 38.4695 3.75612 -0.345773 0
M  V30 432 H 40.8565 2.94266 0.221714 0
M  V30 433 H 40.9375 2.16347 -1.36483 0
M  V30 434 H 40.5815 4.43565 -2.47412 0
M  V30 435 H 40.5115 5.19465 -0.863899 0
M  V30 436 H 43.0025 3.64027 -1.01452 0
M  V30 437 H 43.3155 7.25203 -2.67021 0
M  V30 438 H 41.6605 6.52435 -2.39487 0
M  V30 439 H 44.8515 4.48581 -1.33763 0
M  V30 440 H 45.0245 6.13288 -2.09242 0
M  V30 441 N 38.4306 0.297415 1.54768 0
M  V30 442 C 39.3936 -0.567375 2.22066 0
M  V30 443 C 40.3936 -1.06409 1.20556 0
M  V30 444 O 41.5836 -0.960691 1.45315 0
M  V30 445 C 38.7156 -1.78517 2.90421 0
M  V30 446 H 39.9086 0.0205534 2.99893 0
M  V30 447 H 37.4616 0.0482163 1.56226 0
M  V30 448 H 38.1966 -2.41303 2.16664 0
M  V30 449 H 37.9816 -1.43669 3.64831 0
M  V30 450 H 39.4716 -2.39964 3.41771 0
M  V30 451 N 39.9087 -1.5758 0.0250728 0
M  V30 452 C 41.1577 -1.90811 -0.653767 0
M  V30 453 C 41.4707 -0.90273 -1.73523 0
M  V30 454 O 42.6767 -1.12614 -2.47043 0
M  V30 455 C 41.1327 -3.38804 -1.21409 0
M  V30 456 C 40.7407 -4.47692 -0.166126 0
M  V30 457 C 42.4847 -3.81108 -1.86967 0
M  V30 458 C 40.3917 -5.86779 -0.737856 0
M  V30 459 H 39.3217 -0.712063 -0.247956 0
M  V30 460 H 41.9727 -1.83281 0.0897137 0
M  V30 461 H 40.3547 -3.41252 -2.00905 0
M  V30 462 H 41.5287 -4.56797 0.606079 0
M  V30 463 H 39.8437 -4.14565 0.390466 0
M  V30 464 H 42.4407 -4.82375 -2.30692 0
M  V30 465 H 42.7837 -3.15953 -2.71071 0
M  V30 466 H 43.3167 -3.81065 -1.14167 0
M  V30 467 H 40.0557 -6.55468 0.0649577 0
M  V30 468 H 39.5757 -5.81288 -1.47864 0
M  V30 469 H 41.2547 -6.35223 -1.22884 0
M  V30 470 N 41.3868 0.248026 -1.55636 0
M  V30 471 C 42.6638 0.998988 -1.68165 0
M  V30 472 C 43.0438 2.03409 -0.564621 0
M  V30 473 O 42.3918 2.24378 0.432076 0
M  V30 474 C 42.6018 1.63334 -3.0842 0
M  V30 475 C 43.9498 2.13562 -3.66983 0
M  V30 476 O 44.9738 1.73277 -3.11213 0
M  V30 477 O 43.8328 2.87526 -4.64749 0
M  V30 478 H 40.9268 0.464933 -0.683935 0
M  V30 479 H 43.4728 0.241902 -1.67967 0
M  V30 480 H 42.2448 0.884583 -3.8117 0
M  V30 481 H 41.8678 2.45666 -3.12624 0
M  V30 482 N 42.8649 1.48995 0.513639 0
M  V30 483 C 44.0929 1.61531 1.29288 0
M  V30 484 C 44.5079 0.281801 1.86685 0
M  V30 485 O 43.8649 -0.731111 1.67215 0
M  V30 486 C 43.9159 2.67449 2.43215 0
M  V30 487 O 43.6369 3.95626 1.88179 0
M  V30 488 C 45.1379 2.90575 3.34785 0
M  V30 489 H 42.3579 0.544165 0.392588 0
M  V30 490 H 44.9019 1.9494 0.617956 0
M  V30 491 H 43.0569 2.36853 3.0656 0
M  V30 492 H 43.4709 4.53868 2.62876 0
M  V30 493 H 44.9449 3.68449 4.11035 0
M  V30 494 H 45.4219 2.00011 3.91015 0
M  V30 495 H 46.0279 3.22538 2.77218 0
M  V30 496 N 44.343 -0.763751 1.37857 0
M  V30 497 C 45.29 -1.87726 1.34267 0
M  V30 498 C 46.26 -1.64807 0.206879 0
M  V30 499 O 47.445 -1.86613 0.397508 0
M  V30 500 C 44.585 -3.24896 1.16346 0
M  V30 501 C 43.698 -3.59716 2.39225 0
M  V30 502 C 42.833 -4.86137 2.14114 0
M  V30 503 C 41.872 -5.13711 3.32817 0
M  V30 504 N 41.009 -6.31323 3.07206 0
M  V30 505 H 45.849 -1.90129 2.29466 0
M  V30 506 H 43.386 -0.929433 1.14017 0
M  V30 507 H 45.344 -4.04036 1.03975 0
M  V30 508 H 43.974 -3.21847 0.247909 0
M  V30 509 H 43.026 -2.75498 2.62307 0
M  V30 510 H 44.338 -3.76027 3.27728 0
M  V30 511 H 43.492 -5.73198 1.9882 0
M  V30 512 H 42.231 -4.71945 1.22961 0
M  V30 513 H 41.236 -4.25123 3.48641 0
M  V30 514 H 42.461 -5.29807 4.24832 0
M  V30 515 H 40.407 -6.18474 2.1869 0
M  V30 516 H 40.324 -6.48087 3.89254 0
M  V30 517 H 41.592 -7.213 2.95546 0
M  V30 518 N 45.8211 -1.22559 -0.990812 0
M  V30 519 C 47.0611 -1.06302 -1.74583 0
M  V30 520 C 47.4251 0.394737 -1.87898 0
M  V30 521 O 48.6261 0.678214 -2.60103 0
M  V30 522 C 46.8971 -1.75699 -3.11231 0
M  V30 523 S 48.4561 -1.74882 -4.02445 0
M  V30 524 H 45.2741 -0.380639 -0.600529 0
M  V30 525 H 47.8761 -1.55532 -1.18449 0
M  V30 526 H 46.5801 -2.80923 -2.99183 0
M  V30 527 H 46.1111 -1.26708 -3.72436 0
M  V30 528 H 48.1261 -0.799997 -4.89709 0
M  V30 529 N 47.2992 1.18797 -1.03562 0
M  V30 530 C 48.2462 2.22253 -0.622259 0
M  V30 531 C 49.2162 1.61987 0.36736 0
M  V30 532 O 50.4012 1.88986 0.262492 0
M  V30 533 C 47.5412 3.45097 0.0138462 0
M  V30 534 C 46.6542 4.19722 -1.02263 0
M  V30 535 C 45.7892 5.30009 -0.355573 0
M  V30 536 C 44.8282 5.96399 -1.37749 0
M  V30 537 N 43.9652 6.98234 -0.735766 0
M  V30 538 H 48.8052 2.56968 -1.50903 0
M  V30 539 H 46.3422 1.26245 -0.755017 0
M  V30 540 H 48.3002 4.15279 0.399948 0
M  V30 541 H 46.9302 3.11018 0.864158 0
M  V30 542 H 45.9822 3.48418 -1.52673 0
M  V30 543 H 47.2942 4.65227 -1.79903 0
M  V30 544 H 46.4482 6.0664 0.0850095 0
M  V30 545 H 45.1872 4.85592 0.452967 0
M  V30 546 H 44.1922 5.18512 -1.82826 0
M  V30 547 H 45.4172 6.42899 -2.18764 0
M  V30 548 H 43.3632 6.55979 0.0525597 0
M  V30 549 H 43.2802 7.41965 -1.44995 0
M  V30 550 H 44.5482 7.78845 -0.31941 0
M  V30 551 N 48.7773 0.814389 1.34928 0
M  V30 552 C 50.0263 0.394871 1.97797 0
M  V30 553 C 50.3393 -1.04555 1.65311 0
M  V30 554 O 51.5453 -1.56856 2.21604 0
M  V30 555 C 50.0013 0.655103 3.53888 0
M  V30 556 C 49.6093 2.10858 3.95276 0
M  V30 557 C 51.3533 0.301329 4.23429 0
M  V30 558 C 49.2603 2.31415 5.44244 0
M  V30 559 H 48.1903 0.143913 0.740139 0
M  V30 560 H 50.8413 0.999544 1.53888 0
M  V30 561 H 49.2233 -0.0196253 3.95995 0
M  V30 562 H 50.3973 2.82176 3.64298 0
M  V30 563 H 48.7123 2.42297 3.38646 0
M  V30 564 H 51.3093 0.432869 5.32945 0
M  V30 565 H 51.6523 -0.75331 4.09428 0
M  V30 566 H 52.1853 0.930288 3.86769 0
M  V30 567 H 48.9243 3.35353 5.63222 0
M  V30 568 H 48.4443 1.6463 5.76764 0
M  V30 569 H 50.1233 2.13352 6.10811 0
M  V30 570 N 50.2554 -1.46986 0.568584 0
M  V30 571 C 51.1654 -2.33942 -0.17555 0
M  V30 572 C 52.1814 -1.48891 -0.90041 0
M  V30 573 O 53.3574 -1.81794 -0.86676 0
M  V30 574 C 50.4224 -3.25811 -1.18524 0
M  V30 575 C 49.4834 -4.26757 -0.466582 0
M  V30 576 C 48.7164 -5.14236 -1.42817 0
M  V30 577 O 48.9394 -5.04379 -2.66379 0
M  V30 578 O 47.8734 -5.94412 -0.946453 0
M  V30 579 H 51.6994 -2.98896 0.538036 0
M  V30 580 H 49.2844 -1.4573 0.329097 0
M  V30 581 H 51.1664 -3.82527 -1.76779 0
M  V30 582 H 49.8414 -2.63471 -1.88055 0
M  V30 583 H 48.7484 -3.73769 0.157451 0
M  V30 584 H 50.0814 -4.91843 0.187485 0
M  V30 585 N 51.7335 -0.305618 -1.54608 0
M  V30 586 C 52.6655 0.602161 -2.21149 0
M  V30 587 C 53.6785 1.09394 -1.20569 0
M  V30 588 O 54.8675 1.0106 -1.47136 0
M  V30 589 C 51.9675 1.83692 -2.84799 0
M  V30 590 C 51.1405 1.48686 -4.11353 0
M  V30 591 C 50.1995 2.57725 -4.58764 0
M  V30 592 O 49.2255 2.22623 -5.23858 0
M  V30 593 N 50.4275 3.88346 -4.31471 0
M  V30 594 H 53.1925 0.0324966 -2.99682 0
M  V30 595 H 50.7535 -0.128021 -1.61393 0
M  V30 596 H 52.7455 2.55994 -3.13448 0
M  V30 597 H 51.3155 2.31486 -2.10078 0
M  V30 598 H 50.5355 0.596269 -3.89664 0
M  V30 599 H 51.8235 1.22842 -4.93748 0
M  V30 600 H 51.2215 4.19671 -3.79331 0
M  V30 601 H 49.7785 4.56932 -4.64818 0
M  V30 602 N 53.2116 1.57565 -0.0334293 0
M  V30 603 C 54.1746 2.09393 0.932048 0
M  V30 604 C 55.1746 1.00986 1.25134 0
M  V30 605 O 56.3646 1.27129 1.19096 0
M  V30 606 C 53.4966 2.56338 2.2473 0
M  V30 607 H 54.6896 2.95984 0.483085 0
M  V30 608 H 52.2426 1.54819 0.21468 0
M  V30 609 H 52.9776 1.7309 2.74245 0
M  V30 610 H 52.7626 3.35542 2.02865 0
M  V30 611 H 54.2526 2.96646 2.93923 0
M  V30 612 N 54.6897 -0.239769 1.55765 0
M  V30 613 C 56.1007 -0.808263 1.68297 0
M  V30 614 C 56.4517 -1.85736 0.632181 0
M  V30 615 O 55.5767 -2.15277 -0.220204 0
M  V30 616 C 56.1717 -1.47284 3.05111 0
M  V30 617 C 54.7307 -1.98895 3.19559 0
M  V30 618 C 53.8777 -0.842575 2.64189 0
M  V30 619 H 56.8287 -0.0154422 1.58692 0
M  V30 620 H 56.8497 -2.34111 2.99954 0
M  V30 621 H 56.3617 -0.709053 3.81568 0
M  V30 622 H 54.4627 -2.78132 2.47938 0
M  V30 623 H 54.5757 -2.18143 4.26556 0
M  V30 624 H 52.9397 -1.24501 2.22197 0
M  V30 625 H 53.7227 -0.0917552 3.43177 0
M  V30 626 N 56.1678 -1.49265 -0.50573 0
M  V30 627 C 57.4158 -1.582 -1.25766 0
M  V30 628 C 57.7368 -0.268482 -1.93143 0
M  V30 629 O 57.0068 0.711833 -1.8251 0
M  V30 630 H 55.5868 -0.582873 -0.467191 0
M  V30 631 H 58.2488 -1.85865 -0.586525 0
M  V30 632 H 57.3448 -2.37563 -2.02412 0
M  V30 633 N 57.6459 0.756429 -1.3826 0
M  V30 634 C 58.5779 1.87971 -1.31147 0
M  V30 635 C 59.5909 1.61248 -0.224239 0
M  V30 636 O 60.7799 1.71881 -0.481581 0
M  V30 637 C 57.8799 3.23545 -1.00857 0
M  V30 638 C 57.0529 3.77794 -2.20432 0
M  V30 639 C 56.1119 4.91877 -1.86931 0
M  V30 640 O 55.1379 5.06659 -2.59395 0
M  V30 641 N 56.3399 5.74643 -0.822568 0
M  V30 642 H 59.1049 1.94585 -2.2794 0
M  V30 643 H 56.6659 0.936234 -1.32084 0
M  V30 644 H 58.6579 3.97403 -0.765021 0
M  V30 645 H 57.2279 3.12335 -0.128687 0
M  V30 646 H 56.4479 2.95534 -2.6087 0
M  V30 647 H 57.7359 4.10771 -3.00241 0
M  V30 648 H 57.1339 5.65266 -0.221575 0
M  V30 649 H 55.6909 6.48661 -0.638899 0
M  V30 650 N 59.124 1.23083 0.984299 0
M  V30 651 C 60.074 0.975749 2.06066 0
M  V30 652 C 61.058 -0.0768251 1.60716 0
M  V30 653 O 62.25 0.134805 1.76486 0
M  V30 654 C 59.379 0.564673 3.38624 0
M  V30 655 C 58.465 1.65244 3.90583 0
M  V30 656 N 58.856 2.88193 4.15666 0
M  V30 657 C 57.154 1.52612 4.19077 0
M  V30 658 C 57.855 3.58593 4.58024 0
M  V30 659 N 56.831 2.86093 4.62225 0
M  V30 660 H 60.633 1.90957 2.23411 0
M  V30 661 H 58.147 1.12963 1.16675 0
M  V30 662 H 60.144 0.36322 4.15315 0
M  V30 663 H 58.804 -0.362147 3.22674 0
M  V30 664 H 59.815 3.24537 4.03604 0
M  V30 665 H 56.492 0.666121 4.12152 0
M  V30 666 H 57.882 4.63974 4.85982 0
M  V30 667 N 60.6021 -1.18246 1.0419 0
M  V30 668 C 61.8501 -1.87886 0.744543 0
M  V30 669 C 62.1711 -1.8082 -0.730006 0
M  V30 670 O 61.4411 -1.22736 -1.52685 0
M  V30 671 H 60.0211 -0.695556 0.272417 0
M  V30 672 H 62.6831 -1.43494 1.31892 0
M  V30 673 H 61.7791 -2.9389 1.05049 0
M  V30 674 N 62.0802 -0.821533 -1.34494 0
M  V30 675 C 63.0432 -0.247847 -2.27856 0
M  V30 676 C 64.0432 0.573453 -1.50227 0
M  V30 677 O 65.2332 0.389759 -1.69784 0
M  V30 678 C 62.3652 0.652698 -3.34593 0
M  V30 679 H 63.5582 -1.07146 -2.80107 0
M  V30 680 H 61.1112 -0.593291 -1.44602 0
M  V30 681 H 61.8462 1.49943 -2.87555 0
M  V30 682 H 61.6312 0.065292 -3.92046 0
M  V30 683 H 63.1212 1.04793 -4.04238 0
M  V30 684 N 63.5583 1.46682 -0.576371 0
M  V30 685 C 64.9743 1.57822 -0.237562 0
M  V30 686 C 65.1743 1.57237 1.26011 0
M  V30 687 O 64.2303 1.48596 2.04146 0
M  V30 688 C 65.5433 2.87499 -0.881168 0
M  V30 689 C 67.0913 3.01119 -0.85417 0
M  V30 690 C 67.5663 4.33524 -1.4772 0
M  V30 691 N 69.0573 4.40207 -1.44125 0
M  V30 692 C 69.7923 5.4126 -1.89276 0
M  V30 693 N 69.2883 6.49021 -2.42371 0
M  V30 694 N 71.0813 5.32422 -1.80231 0
M  V30 695 H 63.2323 1.45306 -1.54919 0
M  V30 696 H 65.4953 0.692733 -0.647167 0
M  V30 697 H 65.2013 2.9372 -1.93447 0
M  V30 698 H 65.0753 3.75224 -0.385592 0
M  V30 699 H 67.4623 2.94485 0.190491 0
M  V30 700 H 67.5433 2.14887 -1.3877 0
M  V30 701 H 67.1873 4.40916 -2.52103 0
M  V30 702 H 67.1173 5.1852 -0.918947 0
M  V30 703 H 69.6083 3.62931 -1.05307 0
M  V30 704 H 69.9213 7.2233 -2.74698 0
M  V30 705 H 68.2663 6.49858 -2.46393 0
M  V30 706 H 71.4573 4.47137 -1.38514 0
M  V30 707 H 71.6303 6.11034 -2.15735 0
M  V30 708 N 65.0364 0.313813 1.54444 0
M  V30 709 C 65.9834 -0.55655 2.23989 0
M  V30 710 C 66.9534 -1.11943 1.22711 0
M  V30 711 O 68.1384 -1.16158 1.51367 0
M  V30 712 C 65.2784 -1.71635 2.99392 0
M  V30 713 C 64.3914 -1.18364 4.15468 0
M  V30 714 C 63.5264 -2.30834 4.78424 0
M  V30 715 C 62.5654 -1.74762 5.86622 0
M  V30 716 N 61.7024 -2.80855 6.43479 0
M  V30 717 H 66.5424 0.0430893 2.97969 0
M  V30 718 H 64.0794 0.0330359 1.47063 0
M  V30 719 H 66.0374 -2.39868 3.41349 0
M  V30 720 H 64.6674 -2.28742 2.27765 0
M  V30 721 H 63.7194 -0.393163 3.78363 0
M  V30 722 H 65.0314 -0.733262 4.93381 0
M  V30 723 H 64.1854 -3.0699 5.23299 0
M  V30 724 H 62.9244 -2.79204 3.99871 0
M  V30 725 H 61.9294 -0.970995 5.41158 0
M  V30 726 H 63.1544 -1.2728 6.67066 0
M  V30 727 H 61.1004 -3.28535 5.67804 0
M  V30 728 H 61.0174 -2.40351 7.16776 0
M  V30 729 H 62.2854 -3.5687 6.93011 0
M  V30 730 N 66.5145 -1.57545 0.0417849 0
M  V30 731 C 67.9255 -1.80011 -0.495259 0
M  V30 732 C 68.2765 -0.953199 -1.71489 0
M  V30 733 O 67.4015 -0.167138 -2.15754 0
M  V30 734 C 67.9965 -3.26482 -0.905265 0
M  V30 735 C 66.5555 -3.499 -1.38734 0
M  V30 736 C 65.7025 -2.74979 -0.358056 0
M  V30 737 H 68.6535 -1.56425 0.267736 0
M  V30 738 H 68.6745 -3.36887 -1.76882 0
M  V30 739 H 68.1865 -3.88096 -0.017401 0
M  V30 740 H 66.2875 -2.93553 -2.29471 0
M  V30 741 H 66.4005 -4.58615 -1.38598 0
M  V30 742 H 64.7645 -2.40834 -0.828912 0
M  V30 743 H 65.5475 -3.39315 0.521561 0
M  V30 744 N 67.9926 0.231505 -1.5589 0
M  V30 745 C 69.4086 0.580748 -1.48659 0
M  V30 746 C 69.6086 1.87617 -0.73498 0
M  V30 747 O 68.6646 2.51046 -0.270586 0
M  V30 748 C 69.9776 0.669202 -2.93159 0
M  V30 749 C 71.5256 0.760499 -3.03621 0
M  V30 750 C 72.0006 0.880383 -4.49459 0
M  V30 751 N 73.4916 0.944861 -4.53461 0
M  V30 752 C 74.2266 1.05716 -5.63571 0
M  V30 753 N 73.7226 1.13403 -6.83456 0
M  V30 754 N 75.5156 1.09152 -5.514 0
M  V30 755 H 67.6666 -0.618695 -2.03189 0
M  V30 756 H 69.9296 -0.215728 -0.923128 0
M  V30 757 H 69.6356 -0.212904 -3.51055 0
M  V30 758 H 69.5096 1.5361 -3.44505 0
M  V30 759 H 71.8966 1.63305 -2.45796 0
M  V30 760 H 71.9776 -0.131864 -2.5546 0
M  V30 761 H 71.6216 0.0123284 -5.07899 0
M  V30 762 H 71.5516 1.78802 -4.95316 0
M  V30 763 H 74.0426 0.896176 -3.6712 0
M  V30 764 H 74.3556 1.21921 -7.63122 0
M  V30 765 H 72.7006 1.10333 -6.86186 0
M  V30 766 H 75.8916 1.02805 -4.56671 0
M  V30 767 H 76.0646 1.17558 -6.37247 0
M  V30 768 N 69.4707 1.49531 0.497807 0
M  V30 769 C 70.4007 1.6935 1.60757 0
M  V30 770 C 71.3817 0.542218 1.61227 0
M  V30 771 O 72.5667 0.778417 1.77917 0
M  V30 772 C 69.6967 1.76298 2.99226 0
M  V30 773 C 68.6507 2.91248 3.13622 0
M  V30 774 C 67.9767 2.83312 4.53474 0
M  V30 775 C 69.2767 4.3214 2.93346 0
M  V30 776 H 70.9707 2.62263 1.44425 0
M  V30 777 H 68.5167 1.26208 0.693367 0
M  V30 778 H 70.4697 1.88749 3.76765 0
M  V30 779 H 69.1937 0.799871 3.16654 0
M  V30 780 H 67.8527 2.78404 2.38509 0
M  V30 781 H 67.5007 1.84902 4.67782 0
M  V30 782 H 67.2007 3.60465 4.64046 0
M  V30 783 H 68.7247 2.97775 5.33069 0
M  V30 784 H 70.1387 4.45649 3.60652 0
M  V30 785 H 68.5357 5.1054 3.15387 0
M  V30 786 H 69.6057 4.46363 1.89441 0
M  V30 787 N 70.9488 -0.749086 1.3866 0
M  V30 788 C 72.1738 -1.54344 1.38538 0
M  V30 789 C 72.5988 -1.88088 -0.0216655 0
M  V30 790 O 71.9568 -1.50899 -1.00494 0
M  V30 791 C 72.0048 -2.8164 2.25192 0
M  V30 792 O 71.1088 -3.7698 1.67212 0
M  V30 793 H 70.4498 -0.466654 0.472367 0
M  V30 794 H 72.9798 -0.925355 1.82478 0
M  V30 795 H 72.9898 -3.30519 2.3921 0
M  V30 796 H 71.6648 -2.56411 3.27454 0
M  V30 797 H 70.2418 -3.35699 1.6236 0
M  V30 798 N 72.4269 -1.23603 -0.977757 0
M  V30 799 C 73.7039 -0.977897 -1.69401 0
M  V30 800 C 74.0839 0.502738 -2.05026 0
M  V30 801 O 73.4319 1.47459 -1.74551 0
M  V30 802 C 73.6419 -1.89077 -2.93345 0
M  V30 803 C 74.9899 -2.15579 -3.65802 0
M  V30 804 O 76.0139 -1.86648 -3.03383 0
M  V30 805 O 74.8729 -2.64658 -4.78141 0
M  V30 806 H 71.9669 -0.369025 -0.740101 0
M  V30 807 H 74.5129 -1.34657 -1.03274 0
M  V30 808 H 73.2849 -2.89158 -2.63634 0
M  V30 809 H 72.9079 -1.52463 -3.67207 0
M  V30 810 N 73.905 1.17692 -1.04816 0
M  V30 811 C 75.135 1.91508 -0.775128 0
M  V30 812 C 75.543 1.76844 0.67253 0
M  V30 813 O 74.886 1.10057 1.47082 0
M  V30 814 C 74.948 3.43167 -1.0713 0
M  V30 815 C 74.612 3.81612 -2.51438 0
M  V30 816 C 75.609 3.84772 -3.49638 0
M  V30 817 C 73.294 4.12687 -2.86348 0
M  V30 818 C 75.288 4.18469 -4.80794 0
M  V30 819 C 72.975 4.46053 -4.17708 0
M  V30 820 C 73.973 4.48921 -5.14741 0
M  V30 821 O 73.661 4.81504 -6.43746 0
M  V30 822 H 73.393 0.614575 -0.281555 0
M  V30 823 H 75.947 1.50206 -1.40098 0
M  V30 824 H 74.177 3.84745 -0.388342 0
M  V30 825 H 75.866 3.98239 -0.784883 0
M  V30 826 H 76.632 3.60893 -3.24008 0
M  V30 827 H 72.511 4.09627 -2.11486 0
M  V30 828 H 76.055 4.20623 -5.56527 0
M  V30 829 H 71.952 4.69393 -4.43103 0
M  V30 830 H 72.72 4.99377 -6.4851 0
M  V30 831 N 75.3831 0.828654 1.34056 0
M  V30 832 C 76.6311 0.41863 1.97717 0
M  V30 833 C 76.9521 -1.02314 1.66002 0
M  V30 834 O 76.2221 -1.71119 0.953683 0
M  V30 835 H 74.8021 0.151809 0.731412 0
M  V30 836 H 77.4641 1.05936 1.63596 0
M  V30 837 H 76.5601 0.542318 3.07352 0
M  V30 838 N 76.8612 -1.46375 0.584142 0
M  V30 839 C 78.1072 -2.02678 0.0703716 0
M  V30 840 C 78.4402 -1.4545 -1.28678 0
M  V30 841 O 77.7152 -0.62014 -1.84349 0
M  V30 842 C 77.9982 -3.60099 0.00614674 0
M  V30 843 C 77.8512 -4.27709 1.3923 0
M  V30 844 C 79.1702 -4.34598 -0.693742 0
M  V30 845 H 76.2892 -0.736504 0.027047 0
M  V30 846 H 78.9312 -1.74501 0.751615 0
M  V30 847 H 77.0812 -3.84236 -0.574009 0
M  V30 848 H 78.7532 -4.14832 2.01773 0
M  V30 849 H 76.9962 -3.87016 1.95962 0
M  V30 850 H 77.6672 -5.36478 1.29982 0
M  V30 851 H 80.1432 -4.15615 -0.200869 0
M  V30 852 H 79.0192 -5.44318 -0.707714 0
M  V30 853 H 79.2802 -4.05759 -1.75533 0
M  V30 854 N 78.3393 -0.321999 -1.54275 0
M  V30 855 C 79.2713 0.578671 -2.21775 0
M  V30 856 C 80.2843 1.08109 -1.21722 0
M  V30 857 O 81.4733 0.994938 -1.482 0
M  V30 858 C 78.5733 1.80661 -2.86731 0
M  V30 859 C 77.7463 1.44314 -4.12907 0
M  V30 860 C 76.8053 2.52845 -4.61472 0
M  V30 861 O 75.8313 2.17054 -5.2619 0
M  V30 862 N 77.0333 3.83748 -4.35566 0
M  V30 863 H 79.7983 0.000709447 -2.997 0
M  V30 864 H 77.3593 -0.145132 -1.61248 0
M  V30 865 H 79.3513 2.52655 -3.16145 0
M  V30 866 H 77.9213 2.29245 -2.12521 0
M  V30 867 H 77.1413 0.554906 -3.90275 0
M  V30 868 H 78.4293 1.17598 -4.95023 0
M  V30 869 H 77.8273 4.15625 -3.83761 0
M  V30 870 H 76.3843 4.51977 -4.69638 0
M  V30 871 N 79.8174 1.5752 -0.0501392 0
M  V30 872 C 80.7474 2.14502 0.922566 0
M  V30 873 C 81.7284 1.06642 1.3252 0
M  V30 874 O 82.9134 1.34577 1.4001 0
M  V30 875 C 80.0434 2.68916 2.19776 0
M  V30 876 C 78.9974 3.8175 1.93523 0
M  V30 877 C 78.3234 4.22677 3.27487 0
M  V30 878 C 79.6234 5.06932 1.25765 0
M  V30 879 H 81.3174 2.9603 0.447952 0
M  V30 880 H 78.8634 1.42401 0.214024 0
M  V30 881 H 80.8164 3.07419 2.88222 0
M  V30 882 H 79.5404 1.84578 2.69441 0
M  V30 883 H 78.1994 3.43718 1.27489 0
M  V30 884 H 77.8474 3.35291 3.74952 0
M  V30 885 H 77.5474 4.98725 3.1072 0
M  V30 886 H 79.0714 4.63779 3.97166 0
M  V30 887 H 80.4854 5.42888 1.84244 0
M  V30 888 H 78.8824 5.88116 1.19328 0
M  V30 889 H 79.9524 4.84337 0.233536 0
M  V30 890 N 81.2955 -0.223234 1.56011 0
M  V30 891 C 82.7115 -0.572856 1.48965 0
M  V30 892 C 82.9115 -1.87225 0.74492 0
M  V30 893 O 81.9675 -2.50899 0.283896 0
M  V30 894 C 83.2805 -0.653646 2.9351 0
M  V30 895 C 84.8285 -0.744386 3.0402 0
M  V30 896 C 85.3035 -0.856535 4.49919 0
M  V30 897 N 86.7945 -0.9208 4.53955 0
M  V30 898 C 87.5295 -1.02726 5.64123 0
M  V30 899 N 87.0255 -1.09777 6.84047 0
M  V30 900 N 88.8185 -1.06226 5.51971 0
M  V30 901 H 80.9695 0.629462 2.02858 0
M  V30 902 H 83.2325 0.220621 0.921971 0
M  V30 903 H 82.9385 0.231518 3.50937 0
M  V30 904 H 82.8125 -1.51781 3.45315 0
M  V30 905 H 85.1995 -1.61999 2.46658 0
M  V30 906 H 85.2805 0.14541 2.55386 0
M  V30 907 H 84.9245 0.0146069 5.07898 0
M  V30 908 H 84.8545 -1.76172 4.96257 0
M  V30 909 H 87.3455 -0.876694 3.6759 0
M  V30 910 H 87.6585 -1.17872 7.63758 0
M  V30 911 H 86.0035 -1.06693 6.86762 0
M  V30 912 H 89.1945 -1.00382 4.5721 0
M  V30 913 H 89.3675 -1.14177 6.37862 0
M  V30 914 N 82.7736 -1.49793 -0.48987 0
M  V30 915 C 83.6836 -1.70036 -1.61632 0
M  V30 916 C 84.6996 -0.583102 -1.63939 0
M  V30 917 O 85.8756 -0.859169 -1.82154 0
M  V30 918 C 82.9406 -1.77277 -2.97949 0
M  V30 919 C 82.0016 -3.00918 -3.06181 0
M  V30 920 C 81.2346 -3.07804 -4.35996 0
M  V30 921 O 81.4576 -2.21982 -5.25433 0
M  V30 922 O 80.3916 -4.00369 -4.49431 0
M  V30 923 H 84.2176 -2.65486 -1.47482 0
M  V30 924 H 81.8026 -1.33666 -0.667362 0
M  V30 925 H 83.6846 -1.84329 -3.78947 0
M  V30 926 H 82.3596 -0.850076 -3.12339 0
M  V30 927 H 81.2666 -2.99377 -2.2433 0
M  V30 928 H 82.5996 -3.92704 -2.96723 0
M  V30 929 N 84.2517 0.741722 -1.39055 0
M  V30 930 C 85.1987 1.85566 -1.37237 0
M  V30 931 C 86.1687 1.64457 -0.233072 0
M  V30 932 O 87.3537 1.85957 -0.427147 0
M  V30 933 C 84.4937 3.23004 -1.215 0
M  V30 934 C 83.6067 3.55864 -2.44918 0
M  V30 935 C 82.7417 4.82669 -2.21821 0
M  V30 936 C 81.7807 5.08351 -3.40948 0
M  V30 937 N 80.9177 6.26356 -3.17211 0
M  V30 938 H 85.7577 1.86455 -2.32462 0
M  V30 939 H 83.2947 0.911176 -1.15482 0
M  V30 940 H 85.2527 4.02331 -1.10389 0
M  V30 941 H 83.8827 3.21411 -0.29908 0
M  V30 942 H 82.9347 2.7129 -2.66657 0
M  V30 943 H 84.2467 3.70765 -3.33668 0
M  V30 944 H 83.4007 5.69962 -2.07914 0
M  V30 945 H 82.1397 4.69929 -1.30454 0
M  V30 946 H 81.1447 4.19522 -3.55361 0
M  V30 947 H 82.3697 5.22981 -4.33207 0
M  V30 948 H 80.3157 6.14917 -2.28502 0
M  V30 949 H 80.2327 6.41813 -3.99515 0
M  V30 950 H 81.5007 7.16506 -3.06984 0
M  V30 951 N 85.7298 1.2412 0.971189 0
M  V30 952 C 86.6618 0.988349 2.06795 0
M  V30 953 C 87.6748 -0.0409541 1.62748 0
M  V30 954 O 88.8638 0.195673 1.77424 0
M  V30 955 C 85.9638 0.469023 3.35639 0
M  V30 956 C 85.1368 1.56065 4.08611 0
M  V30 957 C 84.1958 1.04458 5.15728 0
M  V30 958 O 83.2218 1.73553 5.42096 0
M  V30 959 N 84.4238 -0.122817 5.8037 0
M  V30 960 H 87.1888 1.93265 2.29061 0
M  V30 961 H 84.7498 1.15102 1.13856 0
M  V30 962 H 86.7418 0.108613 4.04554 0
M  V30 963 H 85.3118 -0.380919 3.1027 0
M  V30 964 H 84.5318 2.09341 3.34021 0
M  V30 965 H 85.8198 2.29449 4.54126 0
M  V30 966 H 85.2178 -0.700563 5.61345 0
M  V30 967 H 83.7748 -0.424404 6.50417 0
M  V30 968 N 87.2079 -1.17134 1.05439 0
M  V30 969 C 88.1549 -2.21235 0.657539 0
M  V30 970 C 89.1249 -1.62551 -0.341543 0
M  V30 971 O 90.3099 -1.89379 -0.232393 0
M  V30 972 C 87.4499 -3.45076 0.0410575 0
M  V30 973 C 86.5629 -4.18042 1.08927 0
M  V30 974 C 85.6979 -5.29376 0.439848 0
M  V30 975 C 84.7369 -5.94132 1.4722 0
M  V30 976 N 83.8739 -6.96975 0.846756 0
M  V30 977 H 88.7139 -2.54534 1.54972 0
M  V30 978 H 86.2509 -1.25028 0.775006 0
M  V30 979 H 88.2089 -4.15862 -0.33383 0
M  V30 980 H 86.8389 -3.12353 -0.814568 0
M  V30 981 H 85.8909 -3.45945 1.58196 0
M  V30 982 H 87.2029 -4.62306 1.87282 0
M  V30 983 H 86.3569 -6.06699 0.0115125 0
M  V30 984 H 85.0959 -4.86251 -0.375656 0
M  V30 985 H 84.1009 -5.15538 1.91052 0
M  V30 986 H 85.3259 -6.39337 2.28965 0
M  V30 987 H 83.2719 -6.5598 0.0518075 0
M  V30 988 H 83.1889 -7.39565 1.5678 0
M  V30 989 H 84.4569 -7.78239 0.443277 0
M  V30 990 N 88.686 -0.835752 -1.33615 0
M  V30 991 C 89.932 -0.430596 -1.98176 0
M  V30 992 C 90.265 1.00684 -1.66061 0
M  V30 993 O 89.54 1.70339 -0.938877 0
M  V30 994 C 89.823 -0.648065 -3.5422 0
M  V30 995 C 89.676 -2.13255 -3.96033 0
M  V30 996 C 90.995 -0.0922113 -4.40003 0
M  V30 997 H 88.114 -0.157924 -0.719881 0
M  V30 998 H 90.756 -1.05069 -1.58305 0
M  V30 999 H 88.906 -0.120237 -3.88314 0
M  V30 1000 H 90.578 -2.725 -3.72211 0
M  V30 1001 H 88.821 -2.61823 -3.45878 0
M  V30 1002 H 89.492 -2.23547 -5.04708 0
M  V30 1003 H 91.968 -0.543343 -4.12537 0
M  V30 1004 H 90.844 -0.274083 -5.48215 0
M  V30 1005 H 91.105 1.00378 -4.30554 0
M  V30 1006 N 90.1641 1.46063 -0.591896 0
M  V30 1007 C 91.5801 1.57561 -0.254288 0
M  V30 1008 C 91.7801 1.58565 1.24336 0
M  V30 1009 O 90.8361 1.50753 2.02558 0
M  V30 1010 C 92.1491 2.86549 -0.911611 0
M  V30 1011 C 93.6971 3.00197 -0.886059 0
M  V30 1012 C 94.1721 4.31933 -1.5231 0
M  V30 1013 N 95.6631 4.38654 -1.48786 0
M  V30 1014 C 96.3981 5.39222 -1.95006 0
M  V30 1015 N 95.8941 6.46414 -2.49241 0
M  V30 1016 N 97.6871 5.3048 -1.85868 0
M  V30 1017 H 89.8381 1.43655 -1.56451 0
M  V30 1018 H 92.1011 0.68583 -0.654478 0
M  V30 1019 H 91.8071 2.91651 -1.96551 0
M  V30 1020 H 91.6811 3.74794 -0.425368 0
M  V30 1021 H 94.0681 2.9467 0.159246 0
M  V30 1022 H 94.1491 2.13403 -1.41041 0
M  V30 1023 H 93.7931 4.38217 -2.56765 0
M  V30 1024 H 93.7231 5.17516 -0.973891 0
M  V30 1025 H 96.2141 3.61793 -1.09151 0
M  V30 1026 H 96.5271 7.19376 -2.82344 0
M  V30 1027 H 94.8721 6.47208 -2.53272 0
M  V30 1028 H 98.0631 4.45643 -1.43248 0
M  V30 1029 H 98.2361 6.08711 -2.22204 0
M  V30 1030 N 91.6422 0.330177 1.54103 0
M  V30 1031 C 93.0582 -0.0222371 1.59585 0
M  V30 1032 C 93.2582 -1.49902 1.34654 0
M  V30 1033 O 92.3142 -2.25592 1.13421 0
M  V30 1034 C 93.6272 0.401932 2.98002 0
M  V30 1035 C 95.1752 0.353145 3.11001 0
M  V30 1036 C 95.6502 0.752576 4.51775 0
M  V30 1037 N 97.1412 0.706239 4.57784 0
M  V30 1038 C 97.8762 0.987417 5.64834 0
M  V30 1039 N 97.3722 1.33607 6.79795 0
M  V30 1040 N 99.1652 0.91254 5.54643 0
M  V30 1041 H 91.3162 1.29228 1.68564 0
M  V30 1042 H 93.5792 0.525906 0.78875 0
M  V30 1043 H 93.2852 1.4311 3.21267 0
M  V30 1044 H 93.1592 -0.229699 3.765 0
M  V30 1045 H 95.5462 -0.666822 2.87467 0
M  V30 1046 H 95.6272 1.0198 2.34593 0
M  V30 1047 H 95.2712 1.77049 4.76042 0
M  V30 1048 H 95.2012 0.0635409 5.26562 0
M  V30 1049 H 97.6922 0.44889 3.75224 0
M  V30 1050 H 98.0052 1.53582 7.57385 0
M  V30 1051 H 96.3502 1.37439 6.81275 0
M  V30 1052 H 99.5412 0.639601 4.6371 0
M  V30 1053 H 99.7142 1.13503 6.37982 0
M  V30 1054 N 93.1203 -1.57491 0.0584922 0
M  V30 1055 C 94.3693 -1.92155 -0.613146 0
M  V30 1056 C 94.6823 -0.939334 -1.71569 0
M  V30 1057 O 95.8883 -1.17829 -2.44599 0
M  V30 1058 C 94.3443 -3.41303 -1.14195 0
M  V30 1059 C 93.9523 -4.47944 -0.0711265 0
M  V30 1060 C 95.6963 -3.84988 -1.78841 0
M  V30 1061 C 93.6033 -5.88212 -0.613225 0
M  V30 1062 H 92.5333 -0.717162 -0.232796 0
M  V30 1063 H 95.1843 -1.83049 0.12857 0
M  V30 1064 H 93.5663 -3.45437 -1.93621 0
M  V30 1065 H 94.7403 -4.55408 0.702836 0
M  V30 1066 H 93.0553 -4.13644 0.478313 0
M  V30 1067 H 95.6523 -4.87159 -2.20408 0
M  V30 1068 H 95.9953 -3.21632 -2.64308 0
M  V30 1069 H 96.5283 -3.83401 -1.06059 0
M  V30 1070 H 93.2673 -6.55183 0.203978 0
M  V30 1071 H 92.7873 -5.84294 -1.35501 0
M  V30 1072 H 94.4663 -6.37687 -1.09383 0
M  V30 1073 N 94.5984 0.214957 -1.56127 0
M  V30 1074 C 95.8284 0.953707 -1.8327 0
M  V30 1075 C 96.2364 1.78181 -0.636262 0
M  V30 1076 O 95.5794 1.79191 0.404516 0
M  V30 1077 C 95.6414 1.91516 -3.0424 0
M  V30 1078 C 95.3054 1.27094 -4.38972 0
M  V30 1079 C 96.3024 0.657575 -5.15725 0
M  V30 1080 C 93.9874 1.28073 -4.85698 0
M  V30 1081 C 95.9814 0.0625968 -6.37369 0
M  V30 1082 C 93.6684 0.681914 -6.07283 0
M  V30 1083 C 94.6664 0.0739046 -6.8296 0
M  V30 1084 O 94.3544 -0.515582 -8.02245 0
M  V30 1085 H 94.0864 0.284764 -0.613095 0
M  V30 1086 H 96.6404 0.233283 -2.04071 0
M  V30 1087 H 94.8704 2.67475 -2.79274 0
M  V30 1088 H 96.5594 2.52001 -3.18198 0
M  V30 1089 H 97.3254 0.642288 -4.80728 0
M  V30 1090 H 93.2044 1.74337 -4.26764 0
M  V30 1091 H 96.7484 -0.412593 -6.96379 0
M  V30 1092 H 92.6454 0.694636 -6.41752 0
M  V30 1093 H 93.4134 -0.410544 -8.1747 0
M  V30 1094 N 96.0765 1.50051 0.48192 0
M  V30 1095 C 97.3245 1.60181 1.23234 0
M  V30 1096 C 97.6455 0.299176 1.92691 0
M  V30 1097 O 96.9155 -0.682708 1.83619 0
M  V30 1098 H 95.4955 0.590232 0.457859 0
M  V30 1099 H 98.1575 1.86775 0.556881 0
M  V30 1100 H 97.2535 2.40753 1.98607 0
M  V30 1101 N 97.5546 -0.734337 1.39446 0
M  V30 1102 C 98.8006 -1.49613 1.36908 0
M  V30 1103 C 99.1336 -1.94169 -0.0347829 0
M  V30 1104 O 98.4086 -1.66833 -0.999847 0
M  V30 1105 C 98.6916 -2.73534 2.34203 0
M  V30 1106 C 98.5446 -2.34993 3.83534 0
M  V30 1107 C 99.8636 -3.75635 2.29317 0
M  V30 1108 H 96.9826 -0.542714 0.498629 0
M  V30 1109 H 99.6246 -0.839597 1.70443 0
M  V30 1110 H 97.7746 -3.29553 2.05736 0
M  V30 1111 H 99.4466 -1.84601 4.22753 0
M  V30 1112 H 97.6896 -1.67213 4.00278 0
M  V30 1113 H 98.3606 -3.23738 4.47099 0
M  V30 1114 H 100.837 -3.29203 2.54489 0
M  V30 1115 H 99.7126 -4.60008 2.99472 0
M  V30 1116 H 99.9736 -4.22603 1.29842 0
M  V30 1117 N 99.0327 -1.24633 -0.964593 0
M  V30 1118 C 99.9627 -1.06611 -2.07741 0
M  V30 1119 C 100.944 0.0218666 -1.70086 0
M  V30 1120 O 102.129 -0.145793 -1.93652 0
M  V30 1121 C 99.2587 -0.673444 -3.40708 0
M  V30 1122 C 98.2127 -1.71054 -3.92332 0
M  V30 1123 C 97.5387 -1.17285 -5.21678 0
M  V30 1124 C 98.8387 -3.10718 -4.19824 0
M  V30 1125 H 100.533 -1.99693 -2.23076 0
M  V30 1126 H 98.0787 -0.96152 -1.07195 0
M  V30 1127 H 100.032 -0.534345 -4.17998 0
M  V30 1128 H 98.7557 0.293073 -3.25282 0
M  V30 1129 H 97.4147 -1.83791 -3.17201 0
M  V30 1130 H 97.0627 -0.196847 -5.02615 0
M  V30 1131 H 96.7627 -1.86592 -5.57187 0
M  V30 1132 H 98.2867 -1.04593 -6.01575 0
M  V30 1133 H 99.7007 -3.01192 -4.87808 0
M  V30 1134 H 98.0977 -3.77406 -4.66567 0
M  V30 1135 H 99.1677 -3.58524 -3.26479 0
M  V30 1136 N 100.511 1.16574 -1.06058 0
M  V30 1137 C 101.421 2.2452 -0.680282 0
M  V30 1138 C 102.437 1.71348 0.302604 0
M  V30 1139 O 103.613 2.00822 0.152513 0
M  V30 1140 C 100.678 3.46629 -0.0700315 0
M  V30 1141 C 99.7388 4.14849 -1.10448 0
M  V30 1142 C 98.9718 5.31129 -0.523256 0
M  V30 1143 O 99.1948 5.66514 0.664709 0
M  V30 1144 O 98.1288 5.88526 -1.26179 0
M  V30 1145 H 101.955 2.59355 -1.58015 0
M  V30 1146 H 99.5398 1.24043 -0.832694 0
M  V30 1147 H 101.422 4.20543 0.268667 0
M  V30 1148 H 100.097 3.13573 0.803353 0
M  V30 1149 H 99.0038 3.42916 -1.49532 0
M  V30 1150 H 100.337 4.51954 -1.94931 0
M  V30 1151 N 101.989 0.842826 1.3317 0
M  V30 1152 C 103.405 0.531128 1.50503 0
M  V30 1153 C 103.605 -0.940734 1.78192 0
M  V30 1154 O 102.661 -1.72436 1.84451 0
M  V30 1155 C 103.974 1.40789 2.65705 0
M  V30 1156 C 105.522 1.40708 2.79589 0
M  V30 1157 C 105.997 2.26878 3.97857 0
M  V30 1158 N 107.488 2.24609 4.05099 0
M  V30 1159 C 108.223 2.88019 4.95815 0
M  V30 1160 N 107.719 3.60496 5.9162 0
M  V30 1161 N 109.512 2.77469 4.88843 0
M  V30 1162 H 101.663 1.79557 1.1346 0
M  V30 1163 H 103.926 0.766267 0.558156 0
M  V30 1164 H 103.632 2.454 2.51936 0
M  V30 1165 H 103.506 1.08677 3.61205 0
M  V30 1166 H 105.893 0.368668 2.92788 0
M  V30 1167 H 105.974 1.76829 1.84838 0
M  V30 1168 H 105.618 3.3078 3.85418 0
M  V30 1169 H 105.548 1.88096 4.91861 0
M  V30 1170 H 108.039 1.71906 3.36536 0
M  V30 1171 H 108.352 4.06076 6.57512 0
M  V30 1172 H 106.697 3.64604 5.91683 0
M  V30 1173 H 109.888 2.20406 4.12963 0
M  V30 1174 H 110.061 3.2717 5.59342 0
M  V30 1175 N 103.467 -1.45747 0.599634 0
M  V30 1176 C 104.399 -2.28628 -0.161879 0
M  V30 1177 C 105.412 -1.39494 -0.839367 0
M  V30 1178 O 106.601 -1.63941 -0.706089 0
M  V30 1179 C 103.701 -3.15014 -1.24976 0
M  V30 1180 C 102.874 -4.32378 -0.660935 0
M  V30 1181 C 101.933 -5.00033 -1.63869 0
M  V30 1182 O 100.959 -5.57085 -1.1681 0
M  V30 1183 N 102.161 -4.98589 -2.97303 0
M  V30 1184 H 104.926 -2.94624 0.549265 0
M  V30 1185 H 102.487 -1.55847 0.438565 0
M  V30 1186 H 104.479 -3.5714 -1.9035 0
M  V30 1187 H 103.049 -2.5098 -1.86354 0
M  V30 1188 H 102.269 -3.9383 0.170688 0
M  V30 1189 H 103.557 -5.08197 -0.247619 0
M  V30 1190 H 102.955 -4.53514 -3.38145 0
M  V30 1191 H 101.512 -5.44603 -3.58121 0
M  V30 1192 N 104.945 -0.338344 -1.53925 0
M  V30 1193 C 106.192 0.259758 -2.00827 0
M  V30 1194 C 106.52 1.50973 -1.22628 0
M  V30 1195 O 105.775 1.93379 -0.300509 0
M  V30 1196 C 106.074 0.62448 -3.51902 0
M  V30 1197 C 105.74 -0.528006 -4.47798 0
M  V30 1198 C 104.402 -0.844298 -4.73735 0
M  V30 1199 C 106.754 -1.30143 -5.0469 0
M  V30 1200 C 104.082 -1.93648 -5.53821 0
M  V30 1201 C 106.434 -2.38382 -5.85967 0
M  V30 1202 C 105.098 -2.70576 -6.10201 0
M  V30 1203 H 104.368 0.0950523 -0.734878 0
M  V30 1204 H 107.015 -0.465182 -1.85764 0
M  V30 1205 H 105.32 1.43006 -3.64769 0
M  V30 1206 H 107.017 1.09905 -3.85645 0
M  V30 1207 H 103.607 -0.271421 -4.2774 0
M  V30 1208 H 107.791 -1.07033 -4.84621 0
M  V30 1209 H 103.047 -2.19021 -5.70824 0
M  V30 1210 H 107.221 -2.98746 -6.29066 0
M  V30 1211 H 104.848 -3.55333 -6.72044 0
M  V30 1212 N 106.423 1.57458 -0.0668435 0
M  V30 1213 C 107.839 1.56947 0.289772 0
M  V30 1214 C 108.039 1.07584 1.70376 0
M  V30 1215 O 107.095 0.739486 2.41429 0
M  V30 1216 C 108.408 3.0052 0.103943 0
M  V30 1217 C 109.956 3.12517 0.173857 0
M  V30 1218 C 110.431 4.57997 0.0163682 0
M  V30 1219 N 111.922 4.63144 0.0721352 0
M  V30 1220 C 112.657 5.73394 -0.0253794 0
M  V30 1221 N 112.153 6.92576 -0.176133 0
M  V30 1222 N 113.946 5.62091 0.0313305 0
M  V30 1223 H 106.097 1.87863 -0.991027 0
M  V30 1224 H 108.36 0.86583 -0.38606 0
M  V30 1225 H 108.066 3.40729 -0.871572 0
M  V30 1226 H 107.94 3.67304 0.858366 0
M  V30 1227 H 110.327 2.72197 1.13985 0
M  V30 1228 H 110.408 2.48381 -0.611586 0
M  V30 1229 H 110.052 4.99005 -0.946374 0
M  V30 1230 H 109.982 5.20158 0.821153 0
M  V30 1231 H 112.473 3.77436 0.187263 0
M  V30 1232 H 112.786 7.72418 -0.242821 0
M  V30 1233 H 111.131 6.94678 -0.211429 0
M  V30 1234 H 114.322 4.67867 0.147773 0
M  V30 1235 H 114.495 6.47982 -0.048121 0
M  V30 1236 N 107.901 -0.206675 1.56239 0
M  V30 1237 C 108.849 -1.27571 1.94495 0
M  V30 1238 C 109.843 -1.47737 0.828862 0
M  V30 1239 O 111.049 -1.48735 1.0138 0
M  V30 1240 H 107.424 -0.428029 0.6183 0
M  V30 1241 H 109.395 -0.925961 2.8367 0
M  V30 1242 C 108.144 -2.61568 2.29079 0
M  V30 1243 H 107.467 -2.46863 3.14482 0
M  V30 1244 H 108.907 -3.35144 2.5972 0
M  V30 1245 C 107.366 -3.17695 1.12123 0
M  V30 1246 O 107.896 -3.99801 0.390153 0
M  V30 1247 N 106.102 -2.76276 0.901097 0
M  V30 1248 H 105.649 -2.09613 1.49733 0
M  V30 1249 H 105.607 -3.1417 0.120319 0
M  V30 1250 N 109.379 -1.50304 -0.473955 0
M  V30 1251 C 110.609 -1.64663 -1.24778 0
M  V30 1252 C 111.017 -0.328174 -1.86332 0
M  V30 1253 O 110.36 0.699536 -1.69859 0
M  V30 1254 C 110.422 -2.6778 -2.39863 0
M  V30 1255 C 110.086 -4.11413 -1.98969 0
M  V30 1256 C 111.083 -4.97372 -1.51385 0
M  V30 1257 C 108.768 -4.57312 -2.07777 0
M  V30 1258 C 110.762 -6.27277 -1.13148 0
M  V30 1259 C 108.449 -5.87223 -1.69152 0
M  V30 1260 C 109.447 -6.72031 -1.21915 0
M  V30 1261 O 109.135 -7.99518 -0.838237 0
M  V30 1262 H 108.867 -0.556602 -0.383627 0
M  V30 1263 H 111.421 -1.9726 -0.572491 0
M  V30 1264 H 109.651 -2.30419 -3.10554 0
M  V30 1265 H 111.34 -2.71388 -3.01833 0
M  V30 1266 H 112.106 -4.63128 -1.44004 0
M  V30 1267 H 107.985 -3.91449 -2.43493 0
M  V30 1268 H 111.529 -6.93425 -0.762077 0
M  V30 1269 H 107.426 -6.20989 -1.76191 0
M  V30 1270 H 108.194 -8.12764 -0.967339 0
M  V30 1271 N 110.857 0.726932 -1.39834 0
M  V30 1272 C 112.087 1.51393 -1.40583 0
M  V30 1273 C 112.495 1.892 -0.000740625 0
M  V30 1274 O 111.838 1.55189 0.982951 0
M  V30 1275 C 111.9 2.82588 -2.22226 0
M  V30 1276 C 111.564 2.67169 -3.70769 0
M  V30 1277 C 112.561 2.3518 -4.63666 0
M  V30 1278 C 110.246 2.83788 -4.14451 0
M  V30 1279 C 112.24 2.20002 -5.98229 0
M  V30 1280 C 109.927 2.68229 -5.49087 0
M  V30 1281 C 110.925 2.36382 -6.4079 0
M  V30 1282 O 110.613 2.2093 -7.72946 0
M  V30 1283 H 110.345 0.474168 -0.48181 0
M  V30 1284 H 112.899 0.905247 -1.84376 0
M  V30 1285 H 111.129 3.45746 -1.73195 0
M  V30 1286 H 112.818 3.44247 -2.15055 0
M  V30 1287 H 113.584 2.21984 -4.31217 0
M  V30 1288 H 109.463 3.07566 -3.43401 0
M  V30 1289 H 113.007 1.95067 -6.69772 0
M  V30 1290 H 108.904 2.81006 -5.81125 0
M  V30 1291 H 109.672 2.35937 -7.83757 0
M  V30 1292 N 112.336 1.25143 0.95797 0
M  V30 1293 C 113.283 1.05235 2.05412 0
M  V30 1294 C 114.253 -0.0374561 1.66058 0
M  V30 1295 O 115.438 0.119073 1.90428 0
M  V30 1296 C 112.578 0.673589 3.38462 0
M  V30 1297 C 111.691 1.8379 3.90954 0
M  V30 1298 C 110.826 1.40381 5.12315 0
M  V30 1299 C 109.865 2.53746 5.57027 0
M  V30 1300 N 109.002 2.11136 6.69601 0
M  V30 1301 H 113.842 1.99048 2.21774 0
M  V30 1302 H 111.379 0.991277 1.08683 0
M  V30 1303 H 113.337 0.434964 4.14926 0
M  V30 1304 H 111.967 -0.227554 3.21997 0
M  V30 1305 H 111.019 2.18992 3.11041 0
M  V30 1306 H 112.331 2.68937 4.20089 0
M  V30 1307 H 111.485 1.12464 5.96185 0
M  V30 1308 H 110.224 0.523015 4.84887 0
M  V30 1309 H 109.229 2.82412 4.71724 0
M  V30 1310 H 110.454 3.42398 5.86464 0
M  V30 1311 H 108.4 1.25468 6.4389 0
M  V30 1312 H 108.317 2.89832 6.98236 0
M  V30 1313 H 109.585 1.86385 7.56889 0
M  V30 1314 N 113.814 -1.1601 1.06675 0
M  V30 1315 C 114.724 -2.24156 0.692179 0
M  V30 1316 C 115.74 -1.71507 -0.293513 0
M  V30 1317 O 116.916 -2.009 -0.141861 0
M  V30 1318 C 113.981 -3.46587 0.0884131 0
M  V30 1319 C 113.042 -4.14257 1.12646 0
M  V30 1320 C 112.275 -5.30844 0.551416 0
M  V30 1321 O 112.498 -5.66858 -0.634656 0
M  V30 1322 O 111.432 -5.87848 1.29298 0
M  V30 1323 H 115.258 -2.58513 1.59388 0
M  V30 1324 H 112.843 -1.23599 0.83926 0
M  V30 1325 H 114.725 -4.20679 -0.246361 0
M  V30 1326 H 113.4 -3.13994 -0.786712 0
M  V30 1327 H 112.307 -3.42118 1.51348 0
M  V30 1328 H 113.64 -4.50914 1.97325 0
M  V30 1329 N 115.292 -0.849877 -1.32721 0
M  V30 1330 C 116.255 -0.296122 -2.27279 0
M  V30 1331 C 117.255 0.541458 -1.5141 0
M  V30 1332 O 118.445 0.353658 -1.70572 0
M  V30 1333 C 115.577 0.581579 -3.35902 0
M  V30 1334 H 116.77 -1.13064 -2.77771 0
M  V30 1335 H 114.323 -0.62383 -1.43311 0
M  V30 1336 H 115.058 1.43809 -2.9067 0
M  V30 1337 H 114.843 -0.0178814 -3.92096 0
M  V30 1338 H 116.333 0.961951 -4.0637 0
M  V30 1339 N 116.77 1.45427 -0.607355 0
M  V30 1340 C 117.733 2.28974 0.101693 0
M  V30 1341 C 118.733 1.39754 0.795329 0
M  V30 1342 O 119.923 1.61878 0.643527 0
M  V30 1343 C 117.055 3.20768 1.15414 0
M  V30 1344 H 118.248 2.93147 -0.632844 0
M  V30 1345 H 115.801 1.51945 -0.366391 0
M  V30 1346 H 116.536 2.61395 1.91945 0
M  V30 1347 H 116.321 3.86489 0.66098 0
M  V30 1348 H 117.811 3.83589 1.65073 0
M  V30 1349 N 118.248 0.346503 1.53744 0
M  V30 1350 C 119.664 -0.00530975 1.59599 0
M  V30 1351 C 119.864 -1.48465 1.36236 0
M  V30 1352 O 118.92 -2.24376 1.15808 0
M  V30 1353 C 120.233 0.433516 2.97559 0
M  V30 1354 C 121.781 0.386111 3.10609 0
M  V30 1355 C 122.256 0.800451 4.50951 0
M  V30 1356 N 123.747 0.754753 4.5701 0
M  V30 1357 C 124.482 1.04727 5.63755 0
M  V30 1358 N 123.978 1.4081 6.7834 0
M  V30 1359 N 125.771 0.971316 5.53644 0
M  V30 1360 H 117.922 1.31009 1.67184 0
M  V30 1361 H 120.185 0.534242 0.783128 0
M  V30 1362 H 119.891 1.46509 3.19731 0
M  V30 1363 H 119.765 -0.189753 3.76722 0
M  V30 1364 H 122.152 -0.636295 2.88158 0
M  V30 1365 H 122.233 1.04462 2.33498 0
M  V30 1366 H 121.877 1.82088 4.74137 0
M  V30 1367 H 121.807 0.119386 5.26465 0
M  V30 1368 H 124.298 0.488662 3.74727 0
M  V30 1369 H 124.611 1.61607 7.55714 0
M  V30 1370 H 122.956 1.44657 6.79779 0
M  V30 1371 H 126.147 0.688748 4.63005 0
M  V30 1372 H 126.32 1.20263 6.36742 0
M  V30 1373 N 119.726 -1.57421 0.075193 0
M  V30 1374 C 120.656 -2.15942 -0.888324 0
M  V30 1375 C 121.637 -1.08737 -1.30806 0
M  V30 1376 O 122.822 -1.36787 -1.37851 0
M  V30 1377 C 119.952 -2.72379 -2.1547 0
M  V30 1378 C 118.906 -3.8478 -1.87425 0
M  V30 1379 C 118.232 -4.27834 -3.20721 0
M  V30 1380 C 119.532 -5.08869 -1.17684 0
M  V30 1381 H 121.226 -2.96705 -0.400799 0
M  V30 1382 H 118.772 -1.42723 -0.191342 0
M  V30 1383 H 120.725 -3.11965 -2.83295 0
M  V30 1384 H 119.449 -1.88841 -2.6647 0
M  V30 1385 H 118.108 -3.45703 -1.22004 0
M  V30 1386 H 117.756 -3.41214 -3.6957 0
M  V30 1387 H 117.456 -5.03605 -3.02746 0
M  V30 1388 H 118.98 -4.70039 -3.89738 0
M  V30 1389 H 120.394 -5.4575 -1.75584 0
M  V30 1390 H 118.791 -5.8994 -1.09956 0
M  V30 1391 H 119.861 -4.84648 -0.156453 0
M  V30 1392 N 121.204 0.198386 -1.56346 0
M  V30 1393 C 122.151 1.24589 -1.94284 0
M  V30 1394 C 123.121 1.454 -0.802997 0
M  V30 1395 O 124.306 1.58588 -1.06087 0
M  V30 1396 C 121.446 2.58631 -2.28482 0
M  V30 1397 C 120.559 2.45426 -3.55514 0
M  V30 1398 C 119.694 3.7215 -3.79049 0
M  V30 1399 C 118.733 3.53763 -4.99518 0
M  V30 1400 N 117.87 4.72491 -5.19323 0
M  V30 1401 H 122.71 0.915356 -2.83593 0
M  V30 1402 H 120.247 0.440629 -1.40346 0
M  V30 1403 H 122.205 3.3672 -2.46324 0
M  V30 1404 H 120.835 2.89734 -1.42317 0
M  V30 1405 H 119.887 1.58652 -3.45737 0
M  V30 1406 H 121.199 2.27772 -4.43758 0
M  V30 1407 H 120.353 4.58679 -3.97113 0
M  V30 1408 H 119.092 3.92754 -2.89129 0
M  V30 1409 H 118.097 2.65619 -4.8138 0
M  V30 1410 H 119.322 3.34607 -5.90944 0
M  V30 1411 H 117.268 4.93365 -4.3235 0
M  V30 1412 H 117.185 4.5765 -6.01741 0
M  V30 1413 H 118.453 5.6038 -5.41843 0
M  V30 1414 N 122.682 1.50554 0.465978 0
M  V30 1415 C 123.93 1.61479 1.21528 0
M  V30 1416 C 124.251 0.319596 1.92363 0
M  V30 1417 O 123.521 -0.663194 1.84333 0
M  V30 1418 H 122.101 0.595055 0.451573 0
M  V30 1419 H 124.763 1.87355 0.53704 0
M  V30 1420 H 123.859 2.42846 1.96042 0
M  V30 1421 N 124.16 -0.719506 1.40217 0
M  V30 1422 C 125.108 -1.85493 1.40339 0
M  V30 1423 C 126.102 -1.66995 0.284415 0
M  V30 1424 O 127.308 -1.74148 0.455252 0
M  V30 1425 H 123.683 -0.610857 0.438586 0
M  V30 1426 H 125.654 -1.82506 2.36081 0
M  V30 1427 C 124.403 -3.23321 1.27901 0
M  V30 1428 H 123.726 -3.38159 2.1328 0
M  V30 1429 H 125.166 -4.02914 1.32045 0
M  V30 1430 C 123.625 -3.36898 -0.0111355 0
M  V30 1431 O 124.155 -3.89674 -0.975538 0
M  V30 1432 N 122.361 -2.90492 -0.0793393 0
M  V30 1433 H 121.908 -2.47731 0.706183 0
M  V30 1434 H 121.866 -2.99955 -0.942038 0
M  V30 1435 N 125.638 -1.25649 -0.95132 0
M  V30 1436 C 126.866 -1.13343 -1.73092 0
M  V30 1437 C 127.281 0.312434 -1.86197 0
M  V30 1438 O 126.638 1.21465 -1.36207 0
M  V30 1439 C 126.689 -1.78602 -3.14299 0
M  V30 1440 O 126.41 -3.17537 -3.01831 0
M  V30 1441 C 127.911 -1.72119 -4.08522 0
M  V30 1442 H 125.131 -0.395181 -0.542285 0
M  V30 1443 H 127.675 -1.66076 -1.19328 0
M  V30 1444 H 125.83 -1.29832 -3.64996 0
M  V30 1445 H 126.244 -3.49676 -3.90931 0
M  V30 1446 H 127.718 -2.22435 -5.052 0
M  V30 1447 H 128.195 -0.685635 -4.33815 0
M  V30 1448 H 128.801 -2.20393 -3.63741 0
M  V30 1449 N 127.117 1.15442 -1.07289 0
M  V30 1450 C 128.365 1.85845 -0.794096 0
M  V30 1451 C 128.686 1.82692 0.681809 0
M  V30 1452 O 127.956 1.26741 1.49377 0
M  V30 1453 H 126.536 0.688089 -0.290763 0
M  V30 1454 H 129.198 1.39947 -1.3565 0
M  V30 1455 H 128.294 2.91001 -1.12804 0
M  V30 1456 N 128.595 0.856903 1.32268 0
M  V30 1457 C 129.505 0.306131 2.32594 0
M  V30 1458 C 130.521 -0.577209 1.64147 0
M  V30 1459 O 131.697 -0.477043 1.95669 0
M  V30 1460 C 128.762 -0.494561 3.43154 0
M  V30 1461 C 127.823 0.415186 4.27288 0
M  V30 1462 C 127.056 -0.347387 5.32568 0
M  V30 1463 O 127.279 -1.57708 5.48165 0
M  V30 1464 O 126.213 0.287982 6.01211 0
M  V30 1465 H 130.039 1.13737 2.81598 0
M  V30 1466 H 127.624 0.619902 1.35932 0
M  V30 1467 H 129.506 -0.948944 4.10576 0
M  V30 1468 H 128.181 -1.30257 2.96336 0
M  V30 1469 H 127.088 0.917793 3.62667 0
M  V30 1470 H 128.421 1.18844 4.77637 0
M  V30 1471 N 130.073 -1.45103 0.615059 0
M  V30 1472 C 131.021 -2.32331 -0.111791 0
M  V30 1473 C 132.015 -1.46409 -0.852102 0
M  V30 1474 O 133.221 -1.62849 -0.766821 0
M  V30 1475 H 129.596 -0.749993 -0.0549072 0
M  V30 1476 H 131.567 -2.91407 0.642225 0
M  V30 1477 C 130.316 -3.3015 -1.09071 0
M  V30 1478 H 129.639 -3.96265 -0.530485 0
M  V30 1479 H 131.079 -3.93898 -1.56908 0
M  V30 1480 C 129.538 -2.57875 -2.168 0
M  V30 1481 O 130.068 -2.36567 -3.24652 0
M  V30 1482 N 128.274 -2.17884 -1.92289 0
M  V30 1483 H 127.821 -2.35413 -1.04587 0
M  V30 1484 H 127.779 -1.6985 -2.64572 0
M  V30 1485 N 131.551 -0.354651 -1.53558 0
M  V30 1486 C 132.481 0.489091 -2.2832 0
M  V30 1487 C 133.462 1.09324 -1.30316 0
M  V30 1488 O 134.647 1.11255 -1.59173 0
M  V30 1489 C 131.777 1.63456 -3.0643 0
M  V30 1490 C 130.731 1.1582 -4.12031 0
M  V30 1491 C 130.057 2.39305 -4.7816 0
M  V30 1492 C 131.357 0.250731 -5.21698 0
M  V30 1493 H 133.051 -0.134614 -2.99097 0
M  V30 1494 H 130.597 -0.0661826 -1.43848 0
M  V30 1495 H 132.55 2.23136 -3.57475 0
M  V30 1496 H 131.274 2.28533 -2.33325 0
M  V30 1497 H 129.933 0.584146 -3.61916 0
M  V30 1498 H 129.581 3.02814 -4.01637 0
M  V30 1499 H 129.281 2.08109 -5.49513 0
M  V30 1500 H 130.805 2.99691 -5.31994 0
M  V30 1501 H 132.219 0.754695 -5.68311 0
M  V30 1502 H 130.616 0.0301468 -6.00092 0
M  V30 1503 H 131.686 -0.710125 -4.79672 0
M  V30 1504 N 133.029 1.57378 -0.0835403 0
M  V30 1505 C 133.959 2.1641 0.87686 0
M  V30 1506 C 134.94 1.09429 1.30228 0
M  V30 1507 O 136.125 1.37516 1.37124 0
M  V30 1508 C 133.255 2.73517 2.14022 0
M  V30 1509 C 132.209 3.85769 1.85381 0
M  V30 1510 C 131.535 4.29529 3.18448 0
M  V30 1511 C 132.835 5.09486 1.14984 0
M  V30 1512 H 134.529 2.96914 0.385059 0
M  V30 1513 H 132.075 1.42823 0.18377 0
M  V30 1514 H 134.028 3.13463 2.81636 0
M  V30 1515 H 132.752 1.90252 2.65465 0
M  V30 1516 H 131.411 3.46345 1.20169 0
M  V30 1517 H 131.059 3.43169 3.67755 0
M  V30 1518 H 130.759 5.05204 3.00071 0
M  V30 1519 H 132.283 4.72099 3.8724 0
M  V30 1520 H 133.697 5.46674 1.72687 0
M  V30 1521 H 132.094 5.90515 1.06826 0
M  V30 1522 H 133.164 4.84724 0.130749 0
M  V30 1523 N 134.507 -0.190092 1.56449 0
M  V30 1524 C 135.47 -1.21925 1.9408 0
M  V30 1525 C 136.47 -1.38176 0.822431 0
M  V30 1526 O 137.66 -1.35903 1.08977 0
M  V30 1527 C 134.792 -2.58773 2.21922 0
M  V30 1528 H 135.985 -0.897464 2.86157 0
M  V30 1529 H 133.538 -0.43181 1.50217 0
M  V30 1530 H 134.273 -2.95998 1.32499 0
M  V30 1531 H 134.058 -2.48348 3.03424 0
M  V30 1532 H 135.548 -3.32978 2.52022 0
M  V30 1533 N 135.985 -1.50799 -0.457987 0
M  V30 1534 C 136.915 -1.73553 -1.5621 0
M  V30 1535 C 137.896 -0.584774 -1.59732 0
M  V30 1536 O 139.081 -0.825314 -1.7579 0
M  V30 1537 C 136.211 -1.84169 -2.94447 0
M  V30 1538 C 135.165 -2.99461 -3.0579 0
M  V30 1539 C 134.491 -2.95235 -4.45803 0
M  V30 1540 C 135.791 -4.39766 -2.81786 0
M  V30 1541 H 137.485 -2.66 -1.37421 0
M  V30 1542 H 135.031 -1.28002 -0.659662 0
M  V30 1543 H 136.984 -1.98672 -3.71628 0
M  V30 1544 H 135.708 -0.883545 -3.14422 0
M  V30 1545 H 134.367 -2.8463 -2.31044 0
M  V30 1546 H 134.015 -1.97239 -4.62715 0
M  V30 1547 H 133.715 -3.72642 -4.54326 0
M  V30 1548 H 135.239 -3.11803 -5.24987 0
M  V30 1549 H 136.653 -4.55054 -3.4871 0
M  V30 1550 H 135.05 -5.18722 -3.0174 0
M  V30 1551 H 136.12 -4.51229 -1.7754 0
M  V30 1552 N 137.463 0.71206 -1.40597 0
M  V30 1553 C 138.393 1.83889 -1.43899 0
M  V30 1554 C 139.374 1.67442 -0.299504 0
M  V30 1555 O 140.559 1.87421 -0.508624 0
M  V30 1556 C 137.689 3.21877 -1.30431 0
M  V30 1557 C 136.643 3.53002 -2.42019 0
M  V30 1558 C 135.969 4.90172 -2.13626 0
M  V30 1559 C 137.269 3.53643 -3.84362 0
M  V30 1560 H 138.963 1.81383 -2.38203 0
M  V30 1561 H 136.509 0.871237 -1.14654 0
M  V30 1562 H 138.462 4.00404 -1.31357 0
M  V30 1563 H 137.186 3.24968 -0.326049 0
M  V30 1564 H 135.845 2.76818 -2.40349 0
M  V30 1565 H 135.493 4.89869 -1.14182 0
M  V30 1566 H 135.193 5.11962 -2.88389 0
M  V30 1567 H 136.717 5.71028 -2.1624 0
M  V30 1568 H 138.131 4.22203 -3.87837 0
M  V30 1569 H 136.528 3.86961 -4.58673 0
M  V30 1570 H 137.598 2.52954 -4.13693 0
M  V30 1571 N 138.941 1.26152 0.944643 0
M  V30 1572 C 139.851 1.09176 2.07648 0
M  V30 1573 C 140.867 0.0261935 1.7398 0
M  V30 1574 O 142.043 0.229208 2.00091 0
M  V30 1575 C 139.108 0.722915 3.39079 0
M  V30 1576 C 138.169 1.86752 3.86552 0
M  V30 1577 C 137.402 1.51617 5.11711 0
M  V30 1578 O 137.625 0.416331 5.68879 0
M  V30 1579 O 136.559 2.34975 5.54139 0
M  V30 1580 H 140.385 2.0412 2.24875 0
M  V30 1581 H 137.97 1.05182 1.061 0
M  V30 1582 H 139.852 0.529787 4.18056 0
M  V30 1583 H 138.527 -0.197159 3.23099 0
M  V30 1584 H 137.434 2.11558 3.08535 0
M  V30 1585 H 138.767 2.76719 4.07047 0
M  V30 1586 N 140.419 -1.14872 1.07899 0
M  V30 1587 C 141.667 -1.85422 0.803941 0
M  V30 1588 C 141.988 -1.83051 -0.67211 0
M  V30 1589 O 141.258 -1.27532 -1.48703 0
M  V30 1590 H 139.838 -0.686537 0.294408 0
M  V30 1591 H 142.5 -1.39226 1.3639 0
M  V30 1592 H 141.596 -2.90399 1.14346 0
M  V30 1593 N 141.898 -0.863906 -1.31812 0
M  V30 1594 C 143.314 -0.555004 -1.49639 0
M  V30 1595 C 143.514 0.912266 -1.79666 0
M  V30 1596 O 142.57 1.69479 -1.87171 0
M  V30 1597 C 143.883 -1.44998 -2.63431 0
M  V30 1598 C 145.431 -1.45138 -2.77316 0
M  V30 1599 C 145.906 -2.33179 -3.94197 0
M  V30 1600 N 147.397 -2.31025 -4.01474 0
M  V30 1601 C 148.132 -2.95871 -4.9117 0
M  V30 1602 N 147.628 -3.69863 -5.8581 0
M  V30 1603 N 149.421 -2.85211 -4.84367 0
M  V30 1604 H 141.572 -1.81339 -1.10589 0
M  V30 1605 H 143.835 -0.77505 -0.545895 0
M  V30 1606 H 143.541 -2.49377 -2.48 0
M  V30 1607 H 143.415 -1.14409 -3.59431 0
M  V30 1608 H 145.802 -0.415201 -2.92164 0
M  V30 1609 H 145.883 -1.79747 -1.82001 0
M  V30 1610 H 145.527 -3.3687 -3.80107 0
M  V30 1611 H 145.457 -1.95897 -4.88807 0
M  V30 1612 H 147.948 -1.77238 -3.33759 0
M  V30 1613 H 148.261 -4.16486 -6.50968 0
M  V30 1614 H 146.606 -3.73971 -5.85808 0
M  V30 1615 H 149.797 -2.26948 -4.09405 0
M  V30 1616 H 149.97 -3.36027 -5.54066 0
M  V30 1617 N 143.376 1.44774 -0.622745 0
M  V30 1618 C 144.306 2.33382 0.0741861 0
M  V30 1619 C 145.287 1.47719 0.843387 0
M  V30 1620 O 146.472 1.76458 0.810934 0
M  V30 1621 C 143.602 3.30663 1.06204 0
M  V30 1622 C 142.556 4.26079 0.405037 0
M  V30 1623 C 141.882 5.13165 1.5022 0
M  V30 1624 C 143.182 5.1781 -0.683414 0
M  V30 1625 H 144.876 2.91905 -0.665713 0
M  V30 1626 H 142.422 1.40363 -0.321587 0
M  V30 1627 H 144.375 3.9153 1.55827 0
M  V30 1628 H 143.099 2.70331 1.83272 0
M  V30 1629 H 141.758 3.66532 -0.0704683 0
M  V30 1630 H 141.406 4.49191 2.26355 0
M  V30 1631 H 141.106 5.77812 1.06803 0
M  V30 1632 H 142.63 5.76902 2.00041 0
M  V30 1633 H 144.044 5.72661 -0.270631 0
M  V30 1634 H 142.441 5.91015 -1.04023 0
M  V30 1635 H 143.511 4.59326 -1.55395 0
M  V30 1636 N 144.854 0.36279 1.53368 0
M  V30 1637 C 146.131 -0.284021 1.93527 0
M  V30 1638 C 146.511 -1.66628 1.29608 0
M  V30 1639 O 145.859 -2.23942 0.45413 0
M  V30 1640 C 146.069 -0.337028 3.47369 0
M  V30 1641 C 147.417 -0.578708 4.20638 0
M  V30 1642 O 148.441 -0.418352 3.53735 0
M  V30 1643 O 147.3 -0.89074 5.39192 0
M  V30 1644 H 144.394 -0.169743 0.809393 0
M  V30 1645 H 146.94 0.41537 1.64538 0
M  V30 1646 H 145.712 0.632217 3.86159 0
M  V30 1647 H 145.335 -1.08243 3.82582 0
M  V30 1648 N 146.332 -1.57332 0.0918853 0
M  V30 1649 C 147.28 -2.15075 -0.885747 0
M  V30 1650 C 148.274 -1.09277 -1.29441 0
M  V30 1651 O 149.48 -1.27627 -1.26931 0
M  V30 1652 H 145.855 -0.687966 -0.303656 0
M  V30 1653 H 147.826 -2.96047 -0.373995 0
M  V30 1654 C 146.575 -2.74325 -2.13638 0
M  V30 1655 H 145.898 -3.55418 -1.8308 0
M  V30 1656 H 147.338 -3.183 -2.80109 0
M  V30 1657 C 145.797 -1.70062 -2.90827 0
M  V30 1658 O 146.327 -1.13763 -3.85254 0
M  V30 1659 N 144.533 -1.40628 -2.54307 0
M  V30 1660 H 144.08 -1.866 -1.7759 0
M  V30 1661 H 144.038 -0.711043 -3.06254 0
M  V30 1662 N 147.81 0.181792 -1.56548 0
M  V30 1663 C 149.056 0.901431 -1.81665 0
M  V30 1664 C 149.389 1.82347 -0.668075 0
M  V30 1665 O 148.664 1.91669 0.330615 0
M  V30 1666 C 148.947 1.70618 -3.17115 0
M  V30 1667 C 148.8 0.807964 -4.42484 0
M  V30 1668 C 150.119 2.67605 -3.49393 0
M  V30 1669 H 147.238 0.32627 -0.660846 0
M  V30 1670 H 149.88 0.168134 -1.89255 0
M  V30 1671 H 148.03 2.33133 -3.10775 0
M  V30 1672 H 149.702 0.19649 -4.60881 0
M  V30 1673 H 147.945 0.115411 -4.33646 0
M  V30 1674 H 148.616 1.40632 -5.33785 0
M  V30 1675 H 151.092 2.15218 -3.56118 0
M  V30 1676 H 149.968 3.20985 -4.45264 0
M  V30 1677 H 150.229 3.47298 -2.73563 0
M  V30 1678 N 149.288 1.51039 0.449983 0
M  V30 1679 C 150.534 1.63322 1.20223 0
M  V30 1680 C 150.867 0.34241 1.91158 0
M  V30 1681 O 150.142 -0.657344 1.83055 0
M  V30 1682 C 150.425 2.82801 2.22925 0
M  V30 1683 C 150.278 4.21823 1.56157 0
M  V30 1684 C 151.597 2.97807 3.24035 0
M  V30 1685 H 148.716 0.594407 0.435718 0
M  V30 1686 H 151.358 1.83489 0.493136 0
M  V30 1687 H 149.508 2.65738 2.834 0
M  V30 1688 H 151.18 4.50526 0.991162 0
M  V30 1689 H 149.423 4.25105 0.864172 0
M  V30 1690 H 150.094 5.01391 2.30891 0
M  V30 1691 H 152.57 3.13497 2.73603 0
M  V30 1692 H 151.446 3.82992 3.93202 0
M  V30 1693 H 151.707 2.09328 3.89402 0
M  V30 1694 N 150.766 -0.704594 1.40972 0
M  V30 1695 C 151.996 -1.49138 1.42974 0
M  V30 1696 C 152.404 -1.89175 0.0308406 0
M  V30 1697 O 151.747 -1.56734 -0.958138 0
M  V30 1698 C 151.809 -2.79016 2.26694 0
M  V30 1699 C 151.473 -2.61236 3.74973 0
M  V30 1700 C 152.47 -2.27773 4.67349 0
M  V30 1701 C 150.155 -2.77158 4.18914 0
M  V30 1702 C 152.149 -2.10457 6.01653 0
M  V30 1703 C 149.836 -2.59459 5.53285 0
M  V30 1704 C 150.834 -2.26158 6.4447 0
M  V30 1705 O 150.522 -2.08605 7.76363 0
M  V30 1706 H 150.254 -0.466443 0.489292 0
M  V30 1707 H 152.808 -0.8758 1.85793 0
M  V30 1708 H 151.038 -3.42947 1.78673 0
M  V30 1709 H 152.727 -3.40782 2.20504 0
M  V30 1710 H 153.493 -2.15095 4.34694 0
M  V30 1711 H 149.372 -3.02064 3.48251 0
M  V30 1712 H 152.916 -1.84387 6.72791 0
M  V30 1713 H 148.813 -2.71725 5.85522 0
M  V30 1714 H 149.581 -2.23439 7.87412 0
M  V30 1715 N 152.244 -1.26651 -0.937939 0
M  V30 1716 C 153.66 -1.03834 -1.21205 0
M  V30 1717 C 153.86 0.234502 -2.00131 0
M  V30 1718 O 152.916 0.942767 -2.3424 0
M  V30 1719 C 154.229 -2.27167 -1.97017 0
M  V30 1720 C 155.777 -2.32101 -2.09996 0
M  V30 1721 C 156.252 -3.55136 -2.8921 0
M  V30 1722 N 157.743 -3.55632 -2.96783 0
M  V30 1723 C 158.478 -4.475 -3.58512 0
M  V30 1724 N 157.974 -5.4966 -4.21717 0
M  V30 1725 N 159.767 -4.35145 -3.55816 0
M  V30 1726 H 151.918 -2.08398 -0.410391 0
M  V30 1727 H 154.181 -0.916031 -0.244114 0
M  V30 1728 H 153.887 -3.19765 -1.46434 0
M  V30 1729 H 153.761 -2.31672 -2.97671 0
M  V30 1730 H 156.148 -1.40015 -2.59769 0
M  V30 1731 H 156.229 -2.31605 -1.08594 0
M  V30 1732 H 155.873 -4.47553 -2.40123 0
M  V30 1733 H 155.803 -3.5288 -3.90875 0
M  V30 1734 H 158.294 -2.81743 -2.51852 0
M  V30 1735 H 158.607 -6.15943 -4.66727 0
M  V30 1736 H 156.952 -5.53514 -4.20294 0
M  V30 1737 H 160.143 -3.5455 -3.05634 0
M  V30 1738 H 160.316 -5.06934 -4.03636 0
M  V30 1739 N 153.722 1.14298 -1.08507 0
M  V30 1740 C 154.655 2.18447 -0.660004 0
M  V30 1741 C 155.633 1.59242 0.328749 0
M  V30 1742 O 156.817 1.87062 0.232367 0
M  V30 1743 C 153.944 3.38688 0.0290807 0
M  V30 1744 C 152.99 4.1646 -0.919982 0
M  V30 1745 S 153.823 4.77334 -2.42718 0
M  V30 1746 C 154.979 6.00931 -1.75024 0
M  V30 1747 H 155.212 2.54166 -1.54231 0
M  V30 1748 H 152.745 1.25446 -0.900149 0
M  V30 1749 H 154.703 4.08342 0.420378 0
M  V30 1750 H 153.364 3.01289 0.887895 0
M  V30 1751 H 152.557 5.02529 -0.384751 0
M  V30 1752 H 152.159 3.52414 -1.25223 0
M  V30 1753 H 154.451 6.69017 -1.06877 0
M  V30 1754 H 155.394 6.59044 -2.58971 0
M  V30 1755 H 155.802 5.51089 -1.22317 0
M  V30 1756 N 155.201 0.870884 1.31352 0
M  V30 1757 C 156.449 0.48132 1.96285 0
M  V30 1758 C 156.77 -0.969813 1.69173 0
M  V30 1759 O 156.04 -1.67998 1.00764 0
M  V30 1760 H 154.62 0.175002 0.726212 0
M  V30 1761 H 157.282 1.11087 1.60143 0
M  V30 1762 H 156.378 0.639825 3.05471 0
M  V30 1763 N 156.679 -1.44442 0.630414 0
M  V30 1764 C 157.926 -2.02052 0.134617 0
M  V30 1765 C 158.254 -1.49576 -1.24327 0
M  V30 1766 O 157.509 -0.669806 -1.83881 0
M  V30 1767 C 157.808 -3.57332 0.0697835 0
M  V30 1768 C 157.474 -4.29058 1.38635 0
M  V30 1769 C 156.136 -4.4837 1.74694 0
M  V30 1770 C 158.488 -4.69872 2.25543 0
M  V30 1771 C 155.816 -5.05756 2.97369 0
M  V30 1772 C 158.168 -5.28616 3.47487 0
M  V30 1773 C 156.832 -5.46147 3.8377 0
M  V30 1774 H 156.102 -0.739361 0.0492598 0
M  V30 1775 H 158.749 -1.73217 0.816586 0
M  V30 1776 H 157.054 -3.85577 -0.695553 0
M  V30 1777 H 158.751 -3.99637 -0.330344 0
M  V30 1778 H 155.341 -4.14357 1.09574 0
M  V30 1779 H 159.525 -4.54666 1.98979 0
M  V30 1780 H 154.781 -5.17515 3.25558 0
M  V30 1781 H 158.955 -5.59192 4.15063 0
M  V30 1782 H 156.582 -5.9038 4.7891 0
M  V30 1783 N 158.157 -0.370918 -1.53173 0
M  V30 1784 C 159.405 0.216673 -2.00935 0
M  V30 1785 C 159.726 1.48845 -1.25977 0
M  V30 1786 O 158.996 1.92286 -0.374551 0
M  V30 1787 H 157.576 0.0830565 -0.742368 0
M  V30 1788 H 160.238 -0.49838 -1.8842 0
M  V30 1789 H 159.334 0.439893 -3.08984 0
M  V30 1790 N 159.635 1.57281 -0.100228 0
M  V30 1791 C 160.598 2.13158 0.842398 0
M  V30 1792 C 161.598 1.06202 1.20738 0
M  V30 1793 O 162.788 1.32066 1.13597 0
M  V30 1794 C 159.92 2.65639 2.13655 0
M  V30 1795 H 161.113 2.97766 0.357114 0
M  V30 1796 H 158.666 1.5559 0.148823 0
M  V30 1797 H 159.401 1.84566 2.66657 0
M  V30 1798 H 159.186 3.43844 1.88451 0
M  V30 1799 H 160.676 3.08846 2.81077 0
M  V30 1800 N 161.113 -0.173488 1.56642 0
M  V30 1801 C 162.341 -0.906095 1.86004 0
M  V30 1802 C 162.756 -1.75921 0.685355 0
M  V30 1803 O 162.113 -1.79198 -0.345578 0
M  V30 1804 C 162.164 -1.78462 3.14378 0
M  V30 1805 O 161.885 -0.965914 4.27319 0
M  V30 1806 C 163.386 -2.62707 3.57071 0
M  V30 1807 H 160.606 -0.263341 0.617165 0
M  V30 1808 H 163.15 -0.174236 2.03756 0
M  V30 1809 H 161.305 -2.46984 2.98459 0
M  V30 1810 H 161.719 -1.56655 5.00559 0
M  V30 1811 H 163.193 -3.19969 4.49804 0
M  V30 1812 H 163.67 -3.37472 2.81086 0
M  V30 1813 H 164.276 -1.99521 3.75595 0
M  V30 1814 N 162.591 -1.51276 -0.441967 0
M  V30 1815 C 164.007 -1.39349 -0.778083 0
M  V30 1816 C 164.207 -0.472212 -1.95889 0
M  V30 1817 O 163.263 0.0743551 -2.5239 0
M  V30 1818 C 164.576 -2.81292 -1.0628 0
M  V30 1819 C 166.124 -2.9041 -1.16751 0
M  V30 1820 C 166.599 -4.33251 -1.48519 0
M  V30 1821 N 168.09 -4.36336 -1.55453 0
M  V30 1822 C 168.825 -5.43885 -1.81596 0
M  V30 1823 N 168.321 -6.61601 -2.05562 0
M  V30 1824 N 170.114 -5.3136 -1.8334 0
M  V30 1825 H 162.265 -2.09729 0.335774 0
M  V30 1826 H 164.528 -0.943925 0.0878028 0
M  V30 1827 H 164.234 -3.50678 -0.267905 0
M  V30 1828 H 164.108 -3.20334 -1.99163 0
M  V30 1829 H 166.495 -2.21225 -1.95304 0
M  V30 1830 H 166.576 -2.54871 -0.217801 0
M  V30 1831 H 166.22 -5.02984 -0.704958 0
M  V30 1832 H 166.15 -4.66299 -2.44689 0
M  V30 1833 H 168.641 -3.51466 -1.38853 0
M  V30 1834 H 168.954 -7.39361 -2.24867 0
M  V30 1835 H 167.299 -6.64725 -2.02894 0
M  V30 1836 H 170.49 -4.38382 -1.64132 0
M  V30 1837 H 170.663 -6.15258 -2.03377 0
M  V30 1838 N 164.069 0.697108 -1.41344 0
M  V30 1839 C 165.032 1.79281 -1.42797 0
M  V30 1840 C 166.032 1.57607 -0.318837 0
M  V30 1841 O 167.222 1.64309 -0.578642 0
M  V30 1842 C 164.354 3.17632 -1.23785 0
M  V30 1843 H 165.547 1.79385 -2.40335 0
M  V30 1844 H 163.1 0.904582 -1.27464 0
M  V30 1845 H 163.835 3.23167 -0.270814 0
M  V30 1846 H 163.62 3.34765 -2.04144 0
M  V30 1847 H 165.11 3.97617 -1.27633 0
M  V30 1848 N 165.547 1.27147 0.931209 0
M  V30 1849 C 166.457 1.11372 2.06478 0
M  V30 1850 C 167.473 0.044645 1.73943 0
M  V30 1851 O 168.649 0.250417 1.99837 0
M  V30 1852 C 165.714 0.758838 3.38294 0
M  V30 1853 C 164.775 1.90841 3.84549 0
M  V30 1854 C 164.008 1.57036 5.10074 0
M  V30 1855 O 164.231 0.476645 5.68405 0
M  V30 1856 O 163.165 2.40839 5.51616 0
M  V30 1857 H 166.991 2.06493 2.22698 0
M  V30 1858 H 164.576 1.06301 1.04978 0
M  V30 1859 H 166.458 0.574098 4.17471 0
M  V30 1860 H 165.133 -0.162879 3.2329 0
M  V30 1861 H 164.04 2.14819 3.06274 0
M  V30 1862 H 165.373 2.81021 4.04089 0
M  V30 1863 N 167.025 -1.13721 1.09112 0
M  V30 1864 C 167.988 -2.17222 0.731241 0
M  V30 1865 C 168.988 -1.59035 -0.237566 0
M  V30 1866 O 170.178 -1.74192 -0.0161704 0
M  V30 1867 C 167.31 -3.40804 0.0808443 0
M  V30 1868 H 168.503 -2.50573 1.64783 0
M  V30 1869 H 166.056 -1.28493 0.889897 0
M  V30 1870 H 166.791 -3.1304 -0.847127 0
M  V30 1871 H 166.576 -3.84306 0.777896 0
M  V30 1872 H 168.066 -4.1731 -0.155657 0
M  V30 1873 N 168.503 -0.877838 -1.30888 0
M  V30 1874 C 169.919 -0.570844 -1.49042 0
M  V30 1875 C 170.119 0.893159 -1.80624 0
M  V30 1876 O 169.175 1.67485 -1.88958 0
M  V30 1877 C 170.488 -1.47784 -2.61878 0
M  V30 1878 C 172.036 -1.48071 -2.75761 0
M  V30 1879 C 172.511 -2.37347 -3.91702 0
M  V30 1880 N 174.002 -2.35271 -3.99001 0
M  V30 1881 C 174.737 -3.01063 -4.88004 0
M  V30 1882 N 174.233 -3.76055 -5.81854 0
M  V30 1883 N 176.026 -2.90332 -4.81315 0
M  V30 1884 H 168.177 -1.82502 -1.0866 0
M  V30 1885 H 170.44 -0.780797 -0.537644 0
M  V30 1886 H 170.146 -2.51993 -2.45341 0
M  V30 1887 H 170.02 -1.18215 -3.58197 0
M  V30 1888 H 172.407 -0.446166 -2.91708 0
M  V30 1889 H 172.488 -1.81668 -1.80085 0
M  V30 1890 H 172.132 -3.40883 -3.76512 0
M  V30 1891 H 172.062 -2.01071 -4.86701 0
M  V30 1892 H 174.553 -1.80768 -3.3186 0
M  V30 1893 H 174.866 -4.23366 -6.46514 0
M  V30 1894 H 173.211 -3.80163 -5.81808 0
M  V30 1895 H 176.402 -2.31278 -4.06974 0
M  V30 1896 H 176.575 -3.41885 -5.50471 0
M  V30 1897 N 169.982 1.44106 -0.638065 0
M  V30 1898 C 170.914 2.28976 0.101205 0
M  V30 1899 C 171.927 1.4167 0.802088 0
M  V30 1900 O 173.116 1.65755 0.662375 0
M  V30 1901 C 170.216 3.18217 1.16581 0
M  V30 1902 C 169.389 4.33978 0.546066 0
M  V30 1903 C 168.448 5.04202 1.50554 0
M  V30 1904 O 167.474 5.59986 1.01999 0
M  V30 1905 N 168.676 5.06296 2.8398 0
M  V30 1906 H 171.441 2.93064 -0.627186 0
M  V30 1907 H 169.002 1.54629 -0.479731 0
M  V30 1908 H 170.994 3.62061 1.80815 0
M  V30 1909 H 169.564 2.55833 1.79634 0
M  V30 1910 H 168.784 3.93239 -0.275046 0
M  V30 1911 H 170.072 5.08675 0.112793 0
M  V30 1912 H 169.47 4.62319 3.26002 0
M  V30 1913 H 168.027 5.53907 3.43556 0
M  V30 1914 N 171.46 0.379036 1.52974 0
M  V30 1915 C 172.39 -0.452706 2.29069 0
M  V30 1916 C 173.371 -1.07237 1.32039 0
M  V30 1917 O 174.556 -1.08708 1.60923 0
M  V30 1918 C 171.686 -1.5856 3.08992 0
M  V30 1919 C 170.64 -1.0925 4.13822 0
M  V30 1920 C 169.966 -2.31668 4.81907 0
M  V30 1921 C 171.266 -0.167702 5.22031 0
M  V30 1922 H 172.96 0.182181 2.98845 0
M  V30 1923 H 170.506 0.0890592 1.43724 0
M  V30 1924 H 172.459 -2.1742 3.6098 0
M  V30 1925 H 171.183 -2.24792 2.36931 0
M  V30 1926 H 169.842 -0.526494 3.628 0
M  V30 1927 H 169.49 -2.96386 4.06404 0
M  V30 1928 H 169.19 -1.9934 5.52754 0
M  V30 1929 H 170.714 -2.91189 5.36695 0
M  V30 1930 H 172.128 -0.664186 5.6944 0
M  V30 1931 H 170.525 0.0653265 6.00064 0
M  V30 1932 H 171.595 0.786347 4.78482 0
M  V30 1933 N 172.938 -1.57226 0.108567 0
M  V30 1934 C 174.184 -1.95121 -0.552761 0
M  V30 1935 C 174.517 -0.991345 -1.66991 0
M  V30 1936 O 173.792 -0.0267211 -1.94482 0
M  V30 1937 C 174.075 -3.43039 -1.09528 0
M  V30 1938 C 173.928 -4.49797 0.0177332 0
M  V30 1939 C 175.247 -3.92567 -1.98945 0
M  V30 1940 H 172.366 -0.709496 -0.199461 0
M  V30 1941 H 175.008 -1.89126 0.182011 0
M  V30 1942 H 173.158 -3.48279 -1.72146 0
M  V30 1943 H 174.83 -4.56661 0.652584 0
M  V30 1944 H 173.073 -4.284 0.682309 0
M  V30 1945 H 173.744 -5.50528 -0.402919 0
M  V30 1946 H 176.22 -3.89565 -1.46214 0
M  V30 1947 H 175.096 -4.96605 -2.33827 0
M  V30 1948 H 175.357 -3.32648 -2.91201 0
M  V30 1949 N 174.416 0.165178 -1.56732 0
M  V30 1950 C 175.641 0.900253 -1.86843 0
M  V30 1951 C 176.066 1.74766 -0.695596 0
M  V30 1952 O 175.424 1.77786 0.35522 0
M  V30 1953 C 175.472 1.74777 -3.15413 0
M  V30 1954 O 174.576 2.85007 -2.98068 0
M  V30 1955 H 173.917 0.251832 -0.614391 0
M  V30 1956 H 176.447 0.161468 -2.03962 0
M  V30 1957 H 176.457 2.14646 -3.46974 0
M  V30 1958 H 175.132 1.12537 -4.00385 0
M  V30 1959 H 173.709 2.48676 -2.77875 0
M  V30 1960 N 175.894 1.51508 0.433938 0
M  V30 1961 C 176.844 1.69451 1.52546 0
M  V30 1962 C 177.828 0.548474 1.51263 0
M  V30 1963 O 179.02 0.804529 1.57659 0
M  V30 1964 C 176.149 1.82604 2.90707 0
M  V30 1965 C 175.235 3.03002 2.96733 0
M  V30 1966 N 175.626 4.26121 2.72496 0
M  V30 1967 C 173.924 3.02327 3.27894 0
M  V30 1968 C 174.625 5.07407 2.84452 0
M  V30 1969 N 173.601 4.42126 3.16269 0
M  V30 1970 H 177.403 2.62305 1.32564 0
M  V30 1971 H 174.917 1.49202 0.641297 0
M  V30 1972 H 176.914 1.93569 3.69238 0
M  V30 1973 H 175.574 0.909339 3.11707 0
M  V30 1974 H 176.585 4.55009 2.4736 0
M  V30 1975 H 173.262 2.20301 3.54646 0
M  V30 1976 H 174.652 6.15422 2.69639 0
M  V30 1977 N 177.372 -0.689602 1.41712 0
M  V30 1978 C 178.319 -1.80345 1.44029 0
M  V30 1979 C 179.289 -1.63478 0.293948 0
M  V30 1980 O 180.474 -1.84244 0.495869 0
M  V30 1981 C 177.614 -3.18272 1.33405 0
M  V30 1982 C 176.727 -3.46529 2.57956 0
M  V30 1983 C 175.862 -4.74103 2.39582 0
M  V30 1984 C 174.901 -4.95347 3.5958 0
M  V30 1985 N 174.038 -6.14151 3.40239 0
M  V30 1986 H 178.878 -1.77698 2.39222 0
M  V30 1987 H 176.415 -0.867688 1.18784 0
M  V30 1988 H 178.373 -3.97956 1.25246 0
M  V30 1989 H 177.003 -3.2008 0.418164 0
M  V30 1990 H 176.055 -2.61207 2.76542 0
M  V30 1991 H 177.367 -3.58126 3.47199 0
M  V30 1992 H 176.521 -5.61853 2.28924 0
M  V30 1993 H 175.26 -4.64763 1.47805 0
M  V30 1994 H 174.265 -4.06044 3.70686 0
M  V30 1995 H 175.49 -5.06542 4.52318 0
M  V30 1996 H 173.436 -6.06013 2.51167 0
M  V30 1997 H 173.353 -6.26543 4.23061 0
M  V30 1998 H 174.621 -7.04619 3.33365 0
M  V30 1999 N 178.85 -1.27639 -0.924453 0
M  V30 2000 C 179.813 -1.10681 -2.00705 0
M  V30 2001 C 180.813 -0.0497823 -1.60723 0
M  V30 2002 O 182.003 -0.294654 -1.7169 0
M  V30 2003 C 179.135 -0.687164 -3.33902 0
M  V30 2004 H 180.328 -2.06817 -2.17179 0
M  V30 2005 H 177.881 -1.10473 -1.10569 0
M  V30 2006 H 178.616 0.275439 -3.23128 0
M  V30 2007 H 178.401 -1.45061 -3.6428 0
M  V30 2008 H 179.891 -0.590853 -4.13399 0
M  V30 2009 N 180.328 1.1314 -1.09713 0
M  V30 2010 C 181.577 1.83838 -0.829851 0
M  V30 2011 C 181.89 1.84599 0.646728 0
M  V30 2012 O 183.096 2.51218 1.02965 0
M  V30 2013 C 181.552 3.30069 -1.43466 0
M  V30 2014 C 181.16 3.37688 -2.94399 0
M  V30 2015 C 182.904 4.05788 -1.24645 0
M  V30 2016 C 180.811 4.78209 -3.47952 0
M  V30 2017 H 179.741 0.68877 -0.306777 0
M  V30 2018 H 182.392 1.27448 -1.3202 0
M  V30 2019 H 180.774 3.8628 -0.871996 0
M  V30 2020 H 181.948 2.91456 -3.56918 0
M  V30 2021 H 180.263 2.75436 -3.12289 0
M  V30 2022 H 182.86 5.09535 -1.62107 0
M  V30 2023 H 183.203 4.15878 -0.187357 0
M  V30 2024 H 183.736 3.55915 -1.77678 0
M  V30 2025 H 180.475 4.73311 -4.53495 0
M  V30 2026 H 179.995 5.24924 -2.90198 0
M  V30 2027 H 181.674 5.47133 -3.45332 0
M  V30 2028 N 181.806 0.884767 1.30421 0
M  V30 2029 C 182.739 0.295999 2.26272 0
M  V30 2030 C 183.717 -0.58332 1.51777 0
M  V30 2031 O 184.901 -0.53346 1.80794 0
M  V30 2032 C 182.028 -0.57944 3.33707 0
M  V30 2033 C 181.074 0.230525 4.25877 0
M  V30 2034 S 181.907 1.61867 5.1045 0
M  V30 2035 C 183.063 0.749756 6.21393 0
M  V30 2036 H 183.296 1.10848 2.75862 0
M  V30 2037 H 180.829 0.684178 1.38414 0
M  V30 2038 H 182.787 -1.07879 3.96071 0
M  V30 2039 H 181.448 -1.36601 2.82841 0
M  V30 2040 H 180.641 -0.437542 5.02097 0
M  V30 2041 H 180.243 0.662493 3.68086 0
M  V30 2042 H 182.535 -0.0333547 6.77492 0
M  V30 2043 H 183.478 1.48356 6.92384 0
M  V30 2044 H 183.886 0.310751 5.63644 0
M  V30 2045 N 183.284 -1.43765 0.645699 0
M  V30 2046 C 184.53 -2.02197 0.156271 0
M  V30 2047 C 184.863 -1.50776 -1.22393 0
M  V30 2048 O 184.138 -0.697771 -1.81553 0
M  V30 2049 C 184.421 -3.59749 0.158872 0
M  V30 2050 C 184.274 -4.21419 1.57245 0
M  V30 2051 C 185.593 -4.37149 -0.50879 0
M  V30 2052 H 182.712 -0.734694 0.0582602 0
M  V30 2053 H 185.354 -1.71157 0.824951 0
M  V30 2054 H 183.504 -3.86325 -0.410525 0
M  V30 2055 H 185.176 -4.059 2.19186 0
M  V30 2056 H 183.419 -3.78356 2.122 0
M  V30 2057 H 184.09 -5.30482 1.52619 0
M  V30 2058 H 186.566 -4.16093 -0.024412 0
M  V30 2059 H 185.442 -5.4683 -0.476213 0
M  V30 2060 H 185.703 -4.12839 -1.58165 0
M  V30 2061 N 184.763 -0.387143 -1.52771 0
M  V30 2062 C 185.711 0.463953 -2.27926 0
M  V30 2063 C 186.705 1.06493 -1.31741 0
M  V30 2064 O 187.911 1.00565 -1.49287 0
M  V30 2065 H 184.286 0.16837 -0.732909 0
M  V30 2066 H 186.257 -0.19141 -2.97785 0
M  V30 2067 C 185.006 1.5803 -3.09713 0
M  V30 2068 H 184.329 1.12718 -3.83581 0
M  V30 2069 H 185.769 2.15008 -3.65442 0
M  V30 2070 C 184.228 2.53509 -2.2189 0
M  V30 2071 O 184.758 3.56863 -1.84422 0
M  V30 2072 N 182.964 2.23199 -1.86093 0
M  V30 2073 H 182.511 1.39185 -2.16761 0
M  V30 2074 H 182.469 2.87333 -1.27621 0
M  V30 2075 N 186.241 1.57166 -0.116904 0
M  V30 2076 C 187.489 1.94737 0.540533 0
M  V30 2077 C 187.81 1.00096 1.67349 0
M  V30 2078 O 187.08 0.0568854 1.95817 0
M  V30 2079 H 185.66 0.718981 0.202669 0
M  V30 2080 H 188.322 1.94017 -0.185353 0
M  V30 2081 H 187.418 2.97719 0.936483 0
M  V30 2082 N 187.719 -0.156864 1.56817 0
M  V30 2083 C 189.135 -0.50916 1.5126 0
M  V30 2084 C 189.335 -1.83897 0.823658 0
M  V30 2085 O 188.391 -2.49469 0.390055 0
M  V30 2086 C 189.704 -0.52857 2.96018 0
M  V30 2087 C 191.252 -0.614771 3.06903 0
M  V30 2088 C 191.727 -0.664938 4.53147 0
M  V30 2089 N 193.218 -0.727433 4.57452 0
M  V30 2090 C 193.953 -0.787067 5.67973 0
M  V30 2091 N 193.449 -0.806649 6.88088 0
M  V30 2092 N 195.242 -0.827195 5.5598 0
M  V30 2093 H 187.393 0.714935 2.00006 0
M  V30 2094 H 189.656 0.259526 0.911784 0
M  V30 2095 H 189.362 0.380154 3.49639 0
M  V30 2096 H 189.236 -1.36998 3.51442 0
M  V30 2097 H 191.623 -1.51392 2.53307 0
M  V30 2098 H 191.704 0.253597 2.5454 0
M  V30 2099 H 191.348 0.230011 5.07379 0
M  V30 2100 H 191.278 -1.54966 5.03282 0
M  V30 2101 H 193.769 -0.719998 3.70978 0
M  V30 2102 H 194.082 -0.853727 7.6807 0
M  V30 2103 H 192.427 -0.774687 6.90669 0
M  V30 2104 H 195.618 -0.808998 4.61056 0
M  V30 2105 H 195.791 -0.870206 6.4213 0
M  V30 2106 N 189.197 -1.51736 -0.425897 0
M  V30 2107 C 190.443 -1.65214 -1.1761 0
M  V30 2108 C 190.776 -0.372778 -1.90589 0
M  V30 2109 O 190.051 0.628139 -1.84078 0
M  V30 2110 C 190.334 -2.86312 -2.18398 0
M  V30 2111 C 190.187 -4.24254 -1.49426 0
M  V30 2112 C 191.506 -3.02925 -3.19256 0
M  V30 2113 H 188.625 -0.601263 -0.426206 0
M  V30 2114 H 191.267 -1.8425 -0.463882 0
M  V30 2115 H 189.417 -2.70213 -2.79137 0
M  V30 2116 H 191.089 -4.52046 -0.919362 0
M  V30 2117 H 189.332 -4.26426 -0.796432 0
M  V30 2118 H 190.003 -5.05001 -2.22885 0
M  V30 2119 H 192.479 -3.1781 -2.68581 0
M  V30 2120 H 191.355 -3.89199 -3.8706 0
M  V30 2121 H 191.616 -2.15497 -3.86023 0
M  V30 2122 N 190.675 0.682077 -1.42076 0
M  V30 2123 C 191.921 1.44428 -1.42367 0
M  V30 2124 C 192.254 1.94164 -0.0373056 0
M  V30 2125 O 191.529 1.70429 0.937239 0
M  V30 2126 C 191.812 2.64654 -2.44194 0
M  V30 2127 C 191.665 2.20596 -3.91991 0
M  V30 2128 C 192.984 3.66865 -2.431 0
M  V30 2129 H 190.103 0.523834 -0.518428 0
M  V30 2130 H 192.745 0.77576 -1.73442 0
M  V30 2131 H 190.895 3.2169 -2.17826 0
M  V30 2132 H 192.567 1.68783 -4.29313 0
M  V30 2133 H 190.81 1.52242 -4.06208 0
M  V30 2134 H 191.481 3.06921 -4.58807 0
M  V30 2135 H 193.957 3.19531 -2.66532 0
M  V30 2136 H 192.833 4.48577 -3.16339 0
M  V30 2137 H 193.094 4.17493 -1.45437 0
M  V30 2138 N 192.153 1.28127 0.917671 0
M  V30 2139 C 193.101 1.11569 2.04096 0
M  V30 2140 C 194.095 0.0360242 1.69362 0
M  V30 2141 O 195.301 0.194501 1.78946 0
M  V30 2142 H 191.676 0.344097 0.668656 0
M  V30 2143 H 193.647 2.06711 2.15205 0
M  V30 2144 C 192.396 0.790197 3.38602 0
M  V30 2145 H 191.719 1.61293 3.6582 0
M  V30 2146 H 193.159 0.714271 4.1794 0
M  V30 2147 C 191.618 -0.505897 3.3308 0
M  V30 2148 O 192.148 -1.53736 3.71117 0
M  V30 2149 N 190.354 -0.505193 2.86175 0
M  V30 2150 H 189.901 0.334621 2.55417 0
M  V30 2151 H 189.859 -1.37243 2.82863 0
M  V30 2152 N 193.631 -1.12557 1.10312 0
M  V30 2153 C 194.88 -1.83395 0.839588 0
M  V30 2154 C 195.193 -1.84939 -0.636929 0
M  V30 2155 O 196.399 -2.51761 -1.01631 0
M  V30 2156 C 194.855 -3.29303 1.45215 0
M  V30 2157 C 194.463 -3.36122 2.96186 0
M  V30 2158 C 196.207 -4.05121 1.26796 0
M  V30 2159 C 194.114 -4.76357 3.50483 0
M  V30 2160 H 193.044 -0.687133 0.310425 0
M  V30 2161 H 195.695 -1.26746 1.32694 0
M  V30 2162 H 194.077 -3.85812 0.892469 0
M  V30 2163 H 195.251 -2.89559 3.58458 0
M  V30 2164 H 193.566 -2.73776 3.13745 0
M  V30 2165 H 196.163 -5.08668 1.64806 0
M  V30 2166 H 196.506 -4.15773 0.209409 0
M  V30 2167 H 197.039 -3.54967 1.79563 0
M  V30 2168 H 193.778 -4.70899 4.55998 0
M  V30 2169 H 193.298 -5.23377 2.92978 0
M  V30 2170 H 194.977 -5.45294 3.48228 0
M  V30 2171 N 195.109 -0.891671 -1.2995 0
M  V30 2172 C 196.072 -0.36828 -2.26222 0
M  V30 2173 C 197.072 0.493014 -1.53056 0
M  V30 2174 O 198.262 0.299213 -1.71611 0
M  V30 2175 C 195.394 0.47442 -3.37583 0
M  V30 2176 H 196.587 -1.21844 -2.74033 0
M  V30 2177 H 194.14 -0.669107 -1.41254 0
M  V30 2178 H 194.875 1.34489 -2.95099 0
M  V30 2179 H 194.66 -0.142615 -3.91841 0
M  V30 2180 H 196.15 0.83218 -4.09224 0
M  V30 2181 N 196.587 1.43421 -0.653314 0
M  V30 2182 C 197.812 2.06678 -0.172846 0
M  V30 2183 C 198.237 1.48648 1.15262 0
M  V30 2184 O 197.595 0.596457 1.71208 0
M  V30 2185 C 197.643 3.60474 -0.0953184 0
M  V30 2186 O 196.747 4.01487 0.942442 0
M  V30 2187 H 196.088 0.657181 -0.0949155 0
M  V30 2188 H 198.618 1.83925 -0.896265 0
M  V30 2189 H 198.628 4.07905 0.0879728 0
M  V30 2190 H 197.303 4.02088 -1.06291 0
M  V30 2191 H 195.88 3.65646 0.731932 0
M  V30 2192 N 198.065 0.39524 1.52563 0
M  V30 2193 C 199.295 -0.184675 2.05773 0
M  V30 2194 C 199.703 -1.40571 1.26635 0
M  V30 2195 O 199.046 -1.81105 0.30769 0
M  V30 2196 C 199.108 -0.613551 3.54226 0
M  V30 2197 C 198.772 0.49484 4.54313 0
M  V30 2198 C 199.769 1.3541 5.01956 0
M  V30 2199 C 197.454 0.663565 4.97898 0
M  V30 2200 C 199.448 2.36716 5.91814 0
M  V30 2201 C 197.135 1.67996 5.87555 0
M  V30 2202 C 198.133 2.53017 6.34406 0
M  V30 2203 O 197.821 3.52917 7.22291 0
M  V30 2204 H 197.553 -0.030077 0.675331 0
M  V30 2205 H 200.107 0.560708 1.97599 0
M  V30 2206 H 198.337 -1.411 3.60038 0
M  V30 2207 H 200.026 -1.11981 3.90148 0
M  V30 2208 H 200.792 1.23509 4.6901 0
M  V30 2209 H 196.671 0.0114913 4.60999 0
M  V30 2210 H 200.215 3.03113 6.28306 0
M  V30 2211 H 196.112 1.79933 6.19915 0
M  V30 2212 H 196.88 3.48996 7.40367 0
M  V30 2213 N 199.544 -1.57102 0.125237 0
M  V30 2214 C 200.476 -2.12726 -0.853237 0
M  V30 2215 C 201.489 -1.07145 -1.22571 0
M  V30 2216 O 202.678 -1.34497 -1.17358 0
M  V30 2217 C 199.778 -2.61709 -2.15317 0
M  V30 2218 C 198.951 -3.91456 -1.95143 0
M  V30 2219 C 198.01 -4.25973 -3.08923 0
M  V30 2220 O 197.036 -4.94682 -2.81564 0
M  V30 2221 N 198.238 -3.83795 -4.35524 0
M  V30 2222 H 201.003 -2.97307 -0.377964 0
M  V30 2223 H 198.564 -1.61792 -0.0590011 0
M  V30 2224 H 200.556 -2.81826 -2.90441 0
M  V30 2225 H 199.126 -1.81974 -2.54174 0
M  V30 2226 H 198.346 -3.80185 -1.04177 0
M  V30 2227 H 199.634 -4.76283 -1.78976 0
M  V30 2228 H 199.032 -3.2839 -4.60626 0
M  V30 2229 H 197.589 -4.09008 -5.07499 0
M  V30 2230 N 201.022 0.148545 -1.56898 0
M  V30 2231 C 202.268 0.862694 -1.83536 0
M  V30 2232 C 202.601 1.80889 -0.706604 0
M  V30 2233 O 201.876 1.92328 0.289885 0
M  V30 2234 C 202.159 1.63853 -3.20662 0
M  V30 2235 C 202.012 0.713925 -4.44098 0
M  V30 2236 C 203.331 2.60133 -3.54991 0
M  V30 2237 H 200.45 0.312179 -0.667618 0
M  V30 2238 H 203.092 0.127953 -1.89569 0
M  V30 2239 H 201.242 2.26489 -3.1565 0
M  V30 2240 H 202.914 0.098686 -4.61194 0
M  V30 2241 H 201.157 0.0234019 -4.33794 0
M  V30 2242 H 201.828 1.29278 -5.36648 0
M  V30 2243 H 204.304 2.07616 -3.60603 0
M  V30 2244 H 203.18 3.11468 -4.51972 0
M  V30 2245 H 203.441 3.41417 -2.80868 0
M  V30 2246 N 202.5 1.5196 0.417844 0
M  V30 2247 C 203.725 1.69717 1.1921 0
M  V30 2248 C 204.15 0.402148 1.83751 0
M  V30 2249 O 203.508 -0.639593 1.69643 0
M  V30 2250 C 203.556 2.82794 2.2374 0
M  V30 2251 O 202.66 2.47756 3.29683 0
M  V30 2252 H 202.001 0.565263 0.348387 0
M  V30 2253 H 204.531 1.98621 0.490985 0
M  V30 2254 H 204.541 3.07452 2.68212 0
M  V30 2255 H 203.216 3.76756 1.76146 0
M  V30 2256 H 201.793 2.33739 2.90552 0
M  V30 2257 N 203.978 -0.674533 1.42435 0
M  V30 2258 C 205.389 -1.25514 1.38214 0
M  V30 2259 C 205.74 -1.96055 0.0755464 0
M  V30 2260 O 204.865 -2.00028 -0.8257 0
M  V30 2261 C 205.46 -2.28269 2.50357 0
M  V30 2262 C 204.019 -2.81856 2.49467 0
M  V30 2263 C 203.166 -1.56182 2.29134 0
M  V30 2264 H 206.117 -0.467902 1.51646 0
M  V30 2265 H 206.138 -3.10009 2.20624 0
M  V30 2266 H 205.65 -1.769 3.45439 0
M  V30 2267 H 203.751 -3.37346 1.58204 0
M  V30 2268 H 203.864 -3.30854 3.46515 0
M  V30 2269 H 202.228 -1.82761 1.774 0
M  V30 2270 H 203.011 -1.06778 3.26272 0
M  V30 2271 N 205.456 -1.28612 -0.910864 0
M  V30 2272 C 206.404 -1.1265 -2.03501 0
M  V30 2273 C 207.398 -0.0450054 -1.6934 0
M  V30 2274 O 208.604 -0.203988 -1.7884 0
M  V30 2275 H 204.979 -0.347639 -0.666822 0
M  V30 2276 H 206.95 -2.07849 -2.14106 0
M  V30 2277 C 205.699 -0.808143 -3.38178 0
M  V30 2278 H 205.022 -1.63231 -3.6496 0
M  V30 2279 H 206.462 -0.736426 -4.17556 0
M  V30 2280 C 204.921 0.488226 -3.33344 0
M  V30 2281 O 205.451 1.51766 -3.71927 0
M  V30 2282 N 203.657 0.490009 -2.86439 0
M  V30 2283 H 203.204 -0.348161 -2.55236 0
M  V30 2284 H 203.162 1.35741 -2.83587 0
M  V30 2285 N 206.934 1.1197 -1.10907 0
M  V30 2286 C 208.211 1.79959 -0.766432 0
M  V30 2287 C 208.591 1.97466 0.746363 0
M  V30 2288 O 207.939 1.55491 1.67436 0
M  V30 2289 C 208.149 3.14009 -1.52314 0
M  V30 2290 C 209.497 3.89134 -1.69883 0
M  V30 2291 O 210.521 3.2368 -1.48692 0
M  V30 2292 O 209.38 5.06572 -2.05054 0
M  V30 2293 H 206.474 0.779208 -0.277062 0
M  V30 2294 H 209.02 1.18762 -1.21217 0
M  V30 2295 H 207.792 2.96587 -2.55249 0
M  V30 2296 H 207.415 3.82915 -1.07059 0
M  V30 2297 N 208.412 0.89855 1.29475 0
M  V30 2298 C 209.658 0.524658 1.95896 0
M  V30 2299 C 209.991 -0.926468 1.70676 0
M  V30 2300 O 209.266 -1.65665 1.01908 0
M  V30 2301 C 209.549 0.81633 3.50725 0
M  V30 2302 C 209.402 2.31907 3.85408 0
M  V30 2303 C 210.721 0.302038 4.39062 0
M  V30 2304 H 207.84 0.19209 0.711527 0
M  V30 2305 H 210.482 1.12502 1.53112 0
M  V30 2306 H 208.632 0.305369 3.87298 0
M  V30 2307 H 210.304 2.89949 3.58786 0
M  V30 2308 H 208.547 2.78027 3.32992 0
M  V30 2309 H 209.218 2.47373 4.93468 0
M  V30 2310 H 211.694 0.739551 4.09475 0
M  V30 2311 H 210.57 0.535331 5.46283 0
M  V30 2312 H 210.831 -0.797216 4.34853 0
M  V30 2313 N 209.89 -1.43072 0.660911 0
M  V30 2314 C 211.136 -2.0202 0.177708 0
M  V30 2315 C 211.469 -1.52066 -1.20787 0
M  V30 2316 O 210.744 -0.716987 -1.80802 0
M  V30 2317 C 211.027 -3.59561 0.197019 0
M  V30 2318 C 210.88 -4.19727 1.61706 0
M  V30 2319 C 212.199 -4.37664 -0.462396 0
M  V30 2320 H 209.318 -0.734034 0.0660494 0
M  V30 2321 H 211.96 -1.70272 0.843058 0
M  V30 2322 H 210.11 -3.86739 -0.369527 0
M  V30 2323 H 211.782 -4.03553 2.23479 0
M  V30 2324 H 210.025 -3.76084 2.16201 0
M  V30 2325 H 210.696 -5.28834 1.58237 0
M  V30 2326 H 213.172 -4.16095 0.0197215 0
M  V30 2327 H 212.048 -5.47305 -0.418188 0
M  V30 2328 H 212.309 -4.14493 -1.53778 0
M  V30 2329 N 211.368 -0.403325 -1.52352 0
M  V30 2330 C 212.593 0.176499 -2.06648 0
M  V30 2331 C 213.018 1.38577 -1.27193 0
M  V30 2332 O 212.376 1.7879 -0.300637 0
M  V30 2333 C 212.424 0.511061 -3.5696 0
M  V30 2334 O 211.528 1.60294 -3.79973 0
M  V30 2335 H 210.869 0.0167337 -0.663789 0
M  V30 2336 H 213.399 -0.574848 -1.96359 0
M  V30 2337 H 213.409 0.771362 -4.00642 0
M  V30 2338 H 212.084 -0.37296 -4.14224 0
M  V30 2339 H 210.661 1.33526 -3.48174 0
M  V30 2340 N 212.846 1.57033 -0.133567 0
M  V30 2341 C 214.095 1.94861 0.520768 0
M  V30 2342 C 214.408 1.02012 1.66892 0
M  V30 2343 O 215.614 1.29365 2.38699 0
M  V30 2344 C 214.07 3.46362 0.977809 0
M  V30 2345 C 213.678 4.47773 -0.142674 0
M  V30 2346 C 215.422 3.93083 1.60269 0
M  V30 2347 C 213.329 5.90468 0.331883 0
M  V30 2348 H 212.259 0.727453 0.198315 0
M  V30 2349 H 214.91 1.82227 -0.215759 0
M  V30 2350 H 213.292 3.54282 1.7692 0
M  V30 2351 H 214.466 4.51536 -0.919317 0
M  V30 2352 H 212.781 4.10891 -0.675124 0
M  V30 2353 H 215.378 4.97121 1.96914 0
M  V30 2354 H 215.721 3.33876 2.48662 0
M  V30 2355 H 216.254 3.88025 0.876453 0
M  V30 2356 H 212.993 6.53463 -0.516341 0
M  V30 2357 H 212.513 5.90094 1.07469 0
M  V30 2358 H 214.192 6.42179 0.788332 0
M  V30 2359 N 214.325 -0.140222 1.56975 0
M  V30 2360 C 215.741 -0.493088 1.51792 0
M  V30 2361 C 215.941 -1.83013 0.843116 0
M  V30 2362 O 214.997 -2.49041 0.416493 0
M  V30 2363 C 216.31 -0.497144 2.96562 0
M  V30 2364 C 217.858 -0.582186 3.07538 0
M  V30 2365 C 218.333 -0.616838 4.53827 0
M  V30 2366 N 219.824 -0.678873 4.58198 0
M  V30 2367 C 220.559 -0.726782 5.68775 0
M  V30 2368 N 220.055 -0.733623 6.88905 0
M  V30 2369 N 221.848 -0.768179 5.56826 0
M  V30 2370 H 213.999 0.736108 1.99237 0
M  V30 2371 H 216.262 0.269182 0.90898 0
M  V30 2372 H 215.968 0.417217 3.49217 0
M  V30 2373 H 215.842 -1.33263 3.52875 0
M  V30 2374 H 218.229 -1.48697 2.54899 0
M  V30 2375 H 218.31 0.280581 2.54257 0
M  V30 2376 H 217.954 0.283812 5.07106 0
M  V30 2377 H 217.884 -1.49619 5.04898 0
M  V30 2378 H 220.375 -0.68061 3.7172 0
M  V30 2379 H 220.688 -0.772215 7.68932 0
M  V30 2380 H 219.033 -0.701389 6.91452 0
M  V30 2381 H 222.224 -0.760051 4.61888 0
M  V30 2382 H 222.397 -0.80205 6.43017 0
M  V30 2383 N 215.803 -1.52179 -0.40978 0
M  V30 2384 C 216.713 -1.78364 -1.52392 0
M  V30 2385 C 217.729 -0.669183 -1.60617 0
M  V30 2386 O 218.905 -0.954518 -1.77344 0
M  V30 2387 C 215.97 -1.92822 -2.88133 0
M  V30 2388 C 215.031 -3.16725 -2.898 0
M  V30 2389 C 214.264 -3.30483 -4.19067 0
M  V30 2390 O 214.487 -2.49522 -5.12928 0
M  V30 2391 O 213.421 -4.2363 -4.27576 0
M  V30 2392 H 217.247 -2.72931 -1.33201 0
M  V30 2393 H 214.832 -1.37016 -0.59557 0
M  V30 2394 H 216.714 -2.04157 -3.68643 0
M  V30 2395 H 215.389 -1.01444 -3.07393 0
M  V30 2396 H 214.296 -3.10848 -2.08146 0
M  V30 2397 H 215.629 -4.07881 -2.75489 0
M  V30 2398 N 217.281 0.66697 -1.42791 0
M  V30 2399 C 218.228 1.7803 -1.4688 0
M  V30 2400 C 219.198 1.6299 -0.319919 0
M  V30 2401 O 220.383 1.83432 -0.525118 0
M  V30 2402 C 217.523 3.1611 -1.38451 0
M  V30 2403 C 216.636 3.42381 -2.63437 0
M  V30 2404 C 215.771 4.70232 -2.47094 0
M  V30 2405 C 214.81 4.89564 -3.67415 0
M  V30 2406 N 213.947 6.08661 -3.49966 0
M  V30 2407 H 218.787 1.7387 -2.42019 0
M  V30 2408 H 216.324 0.84868 -1.20149 0
M  V30 2409 H 218.282 3.95914 -1.31561 0
M  V30 2410 H 216.912 3.19374 -0.469033 0
M  V30 2411 H 215.964 2.56774 -2.80662 0
M  V30 2412 H 217.276 3.52557 -3.52853 0
M  V30 2413 H 216.43 5.5814 -2.37834 0
M  V30 2414 H 215.169 4.62353 -1.5518 0
M  V30 2415 H 214.174 4.00096 -3.77099 0
M  V30 2416 H 215.399 4.99282 -4.6032 0
M  V30 2417 H 213.345 6.0194 -2.60776 0
M  V30 2418 H 213.262 6.19733 -4.32975 0
M  V30 2419 H 214.53 6.99226 -3.44532 0
M  V30 2420 N 218.759 1.29093 0.90403 0
M  V30 2421 C 219.722 1.1386 1.98919 0
M  V30 2422 C 220.722 0.0753457 1.60623 0
M  V30 2423 O 221.912 0.321931 1.71199 0
M  V30 2424 C 219.044 0.740198 3.32767 0
M  V30 2425 H 220.237 2.10246 2.13861 0
M  V30 2426 H 217.79 1.12218 1.08797 0
M  V30 2427 H 218.525 -0.223997 3.23525 0
M  V30 2428 H 218.31 1.50838 3.61926 0
M  V30 2429 H 219.8 0.656546 4.12407 0
M  V30 2430 N 220.237 -1.11381 1.11499 0
M  V30 2431 C 221.184 -2.17439 0.773887 0
M  V30 2432 C 222.154 -1.64132 -0.254899 0
M  V30 2433 O 223.339 -1.90345 -0.13168 0
M  V30 2434 C 220.479 -3.44373 0.223917 0
M  V30 2435 C 219.592 -4.1168 1.30934 0
M  V30 2436 C 218.727 -5.263 0.71984 0
M  V30 2437 C 217.766 -5.85493 1.78507 0
M  V30 2438 N 216.903 -6.91507 1.21502 0
M  V30 2439 H 221.743 -2.45962 1.68246 0
M  V30 2440 H 219.28 -1.20744 0.840191 0
M  V30 2441 H 221.238 -4.17047 -0.112921 0
M  V30 2442 H 219.868 -3.16232 -0.647851 0
M  V30 2443 H 218.92 -3.37073 1.76312 0
M  V30 2444 H 220.232 -4.51729 2.11524 0
M  V30 2445 H 219.386 -6.05785 0.333094 0
M  V30 2446 H 218.125 -4.87559 -0.117377 0
M  V30 2447 H 217.13 -5.04686 2.18111 0
M  V30 2448 H 218.355 -6.26301 2.62533 0
M  V30 2449 H 216.301 -6.54783 0.399455 0
M  V30 2450 H 216.218 -7.30214 1.95763 0
M  V30 2451 H 217.486 -7.74795 0.855181 0
M  V30 2452 N 221.715 -0.905404 -1.28997 0
M  V30 2453 C 222.662 -0.385892 -2.27551 0
M  V30 2454 C 223.632 0.535113 -1.57244 0
M  V30 2455 O 224.817 0.459119 -1.85194 0
M  V30 2456 C 221.957 0.375461 -3.43051 0
M  V30 2457 C 221.07 -0.577092 -4.28128 0
M  V30 2458 C 220.205 0.201879 -5.30816 0
M  V30 2459 C 219.244 -0.744829 -6.07551 0
M  V30 2460 N 218.381 9.42587e-05 -7.021 0
M  V30 2461 H 223.221 -1.23139 -2.71368 0
M  V30 2462 H 220.758 -0.618542 -1.33463 0
M  V30 2463 H 222.716 0.832992 -4.088 0
M  V30 2464 H 221.346 1.18537 -3.00248 0
M  V30 2465 H 220.398 -1.15315 -3.62501 0
M  V30 2466 H 221.71 -1.30152 -4.8152 0
M  V30 2467 H 220.864 0.720351 -6.02408 0
M  V30 2468 H 219.603 0.959413 -4.7817 0
M  V30 2469 H 218.608 -1.27475 -5.34818 0
M  V30 2470 H 219.833 -1.50178 -6.62286 0
M  V30 2471 H 217.779 0.739791 -6.51815 0
M  V30 2472 H 217.696 -0.664321 -7.53076 0
M  V30 2473 H 218.964 0.498644 -7.77903 0
M  V30 2474 N 223.193 1.4272 -0.668489 0
M  V30 2475 C 224.125 2.2914 0.052613 0
M  V30 2476 C 225.138 1.43339 0.771857 0
M  V30 2477 O 226.327 1.67123 0.627067 0
M  V30 2478 C 223.427 3.20618 1.09804 0
M  V30 2479 C 222.6 4.35039 0.45389 0
M  V30 2480 C 221.659 5.07282 1.39825 0
M  V30 2481 O 220.685 5.62024 0.900978 0
M  V30 2482 N 221.887 5.12206 2.73176 0
M  V30 2483 H 224.652 2.91668 -0.689209 0
M  V30 2484 H 222.213 1.53577 -0.512422 0
M  V30 2485 H 224.205 3.65815 1.73094 0
M  V30 2486 H 222.775 2.59585 1.74167 0
M  V30 2487 H 221.995 3.92567 -0.358396 0
M  V30 2488 H 223.283 5.088 0.00486972 0
M  V30 2489 H 222.681 4.6913 3.16122 0
M  V30 2490 H 221.238 5.61069 3.31729 0
M  V30 2491 N 224.671 0.411399 1.52136 0
M  V30 2492 C 225.896 -0.165538 2.06738 0
M  V30 2493 C 226.321 -1.379 1.27926 0
M  V30 2494 O 225.679 -1.78628 0.310114 0
M  V30 2495 C 225.727 -0.492124 3.57226 0
M  V30 2496 O 224.831 -1.58276 3.80818 0
M  V30 2497 H 224.172 -0.0132132 0.663869 0
M  V30 2498 H 226.702 0.585253 1.96051 0
M  V30 2499 H 226.712 -0.750104 4.01045 0
M  V30 2500 H 225.387 0.394922 4.14021 0
M  V30 2501 H 223.964 -1.31677 3.48877 0
M  V30 2502 N 226.149 -1.5696 0.141893 0
M  V30 2503 C 227.565 -1.58151 -0.21456 0
M  V30 2504 C 227.765 -1.1559 -1.65049 0
M  V30 2505 O 226.821 -0.853832 -2.37626 0
M  V30 2506 C 228.134 -3.00674 0.0395576 0
M  V30 2507 C 229.682 -3.1299 -0.0245529 0
M  V30 2508 C 230.157 -4.57554 0.202167 0
M  V30 2509 N 231.648 -4.62961 0.148919 0
M  V30 2510 C 232.383 -5.7262 0.298924 0
M  V30 2511 N 231.879 -6.90947 0.50637 0
M  V30 2512 N 233.672 -5.61601 0.236886 0
M  V30 2513 H 225.823 -1.8292 1.07953 0
M  V30 2514 H 228.086 -0.846425 0.42693 0
M  V30 2515 H 227.792 -3.36183 1.03315 0
M  V30 2516 H 227.666 -3.70981 -0.682143 0
M  V30 2517 H 230.053 -2.77326 -1.00869 0
M  V30 2518 H 230.134 -2.4518 0.729396 0
M  V30 2519 H 229.778 -4.93922 1.18338 0
M  V30 2520 H 229.708 -5.23484 -0.572044 0
M  V30 2521 H 232.199 -3.77899 -0.00697015 0
M  V30 2522 H 232.512 -7.7038 0.611076 0
M  V30 2523 H 230.857 -6.92878 0.542628 0
M  V30 2524 H 234.048 -4.68039 0.0756209 0
M  V30 2525 H 234.221 -6.47015 0.357227 0
M  V30 2526 N 227.627 0.131896 -1.57047 0
M  V30 2527 C 228.873 0.843179 -1.84441 0
M  V30 2528 C 229.206 1.80129 -0.725749 0
M  V30 2529 O 228.481 1.92624 0.269469 0
M  V30 2530 C 228.764 1.60442 -3.22382 0
M  V30 2531 C 228.617 0.666782 -4.4483 0
M  V30 2532 C 229.936 2.56354 -3.5773 0
M  V30 2533 H 227.055 0.305081 -0.670891 0
M  V30 2534 H 229.697 0.107839 -1.89694 0
M  V30 2535 H 227.847 2.23128 -3.18035 0
M  V30 2536 H 229.519 0.0497646 -4.61273 0
M  V30 2537 H 227.762 -0.022609 -4.33794 0
M  V30 2538 H 228.433 1.23579 -5.37989 0
M  V30 2539 H 230.909 2.0378 -3.62785 0
M  V30 2540 H 229.785 3.06657 -4.5525 0
M  V30 2541 H 230.046 3.38419 -2.84473 0
M  V30 2542 N 229.106 1.52395 0.401703 0
M  V30 2543 C 230.053 1.76268 1.48991 0
M  V30 2544 C 231.023 0.605386 1.54675 0
M  V30 2545 O 232.208 0.843742 1.7113 0
M  V30 2546 C 229.348 1.92592 2.86361 0
M  V30 2547 C 228.461 3.20259 2.89928 0
M  V30 2548 C 227.596 3.26972 4.18644 0
M  V30 2549 C 226.635 4.48812 4.16214 0
M  V30 2550 N 225.772 4.52877 5.36514 0
M  V30 2551 H 230.612 2.6914 1.27935 0
M  V30 2552 H 228.149 1.33355 0.620871 0
M  V30 2553 H 230.107 2.0004 3.66115 0
M  V30 2554 H 228.737 1.03093 3.05895 0
M  V30 2555 H 227.789 3.21945 2.02621 0
M  V30 2556 H 229.101 4.10056 2.83999 0
M  V30 2557 H 228.255 3.33533 5.06794 0
M  V30 2558 H 226.994 2.35126 4.27278 0
M  V30 2559 H 225.999 4.4239 3.26453 0
M  V30 2560 H 227.224 5.41961 4.09213 0
M  V30 2561 H 225.17 3.63917 5.45802 0
M  V30 2562 H 225.087 5.36529 5.32609 0
M  V30 2563 H 226.355 4.63676 6.26597 0
M  V30 2564 N 230.584 -0.659388 1.43143 0
M  V30 2565 C 231.547 -1.75432 1.47501 0
M  V30 2566 C 232.547 -1.56707 0.360512 0
M  V30 2567 O 233.737 -1.62717 0.622002 0
M  V30 2568 C 230.869 -3.14239 1.32162 0
M  V30 2569 H 232.062 -1.7295 2.45006 0
M  V30 2570 H 229.615 -0.870469 1.29817 0
M  V30 2571 H 230.35 -3.22336 0.356401 0
M  V30 2572 H 230.135 -3.29235 2.12948 0
M  V30 2573 H 231.625 -3.94094 1.3813 0
M  V30 2574 N 232.062 -1.29571 -0.897171 0
M  V30 2575 C 233.025 -1.14913 -1.98312 0
M  V30 2576 C 234.025 -0.0838629 -1.60581 0
M  V30 2577 O 235.215 -0.331006 -1.71026 0
M  V30 2578 C 232.347 -0.757835 -3.3237 0
M  V30 2579 H 233.54 -2.11377 -2.12743 0
M  V30 2580 H 231.093 -1.12793 -1.08201 0
M  V30 2581 H 231.828 0.206837 -3.2364 0
M  V30 2582 H 231.613 -1.52755 -3.61121 0
M  V30 2583 H 233.103 -0.678408 -4.12053 0
M  V30 2584 N 233.54 1.10788 -1.12088 0
M  V30 2585 C 234.47 2.19083 -0.807755 0
M  V30 2586 C 235.451 1.6858 0.226859 0
M  V30 2587 O 236.636 1.93997 0.0888475 0
M  V30 2588 C 233.766 3.46344 -0.257576 0
M  V30 2589 C 232.72 4.101 -1.22483 0
M  V30 2590 C 232.046 5.32016 -0.535052 0
M  V30 2591 C 233.346 4.54236 -2.57811 0
M  V30 2592 H 235.04 2.45534 -1.71328 0
M  V30 2593 H 232.586 1.1801 -0.825205 0
M  V30 2594 H 234.539 4.21392 -0.0262679 0
M  V30 2595 H 233.263 3.19373 0.683278 0
M  V30 2596 H 231.922 3.37054 -1.44189 0
M  V30 2597 H 231.57 5.01319 0.410827 0
M  V30 2598 H 231.27 5.75625 -1.18024 0
M  V30 2599 H 232.794 6.09799 -0.312695 0
M  V30 2600 H 234.208 5.20575 -2.40155 0
M  V30 2601 H 232.605 5.08682 -3.18375 0
M  V30 2602 H 233.675 3.6734 -3.16528 0
M  V30 2603 N 235.018 0.912232 1.28515 0
M  V30 2604 C 235.928 0.404506 2.31086 0
M  V30 2605 C 236.944 -0.50707 1.66448 0
M  V30 2606 O 238.12 -0.393624 1.97516 0
M  V30 2607 C 235.185 -0.348572 3.44943 0
M  V30 2608 C 234.246 0.59604 4.25142 0
M  V30 2609 C 233.479 -0.121194 5.33562 0
M  V30 2610 O 233.702 -1.34317 5.5436 0
M  V30 2611 O 232.636 0.542716 5.99448 0
M  V30 2612 H 236.462 1.25579 2.76521 0
M  V30 2613 H 234.047 0.676998 1.33181 0
M  V30 2614 H 235.929 -0.77395 4.14232 0
M  V30 2615 H 234.604 -1.17571 3.01594 0
M  V30 2616 H 233.511 1.07079 3.58448 0
M  V30 2617 H 234.844 1.38995 4.72167 0
M  V30 2618 N 236.496 -1.42363 0.676048 0
M  V30 2619 C 237.426 -2.33497 0.0124832 0
M  V30 2620 C 238.407 -1.50748 -0.787981 0
M  V30 2621 O 239.592 -1.79346 -0.744884 0
M  V30 2622 C 236.722 -3.34377 -0.938582 0
M  V30 2623 C 235.676 -4.27289 -0.246622 0
M  V30 2624 C 235.002 -5.18386 -1.31071 0
M  V30 2625 C 236.302 -5.14916 0.875125 0
M  V30 2626 H 237.996 -2.89233 0.773593 0
M  V30 2627 H 235.542 -1.39073 0.37346 0
M  V30 2628 H 237.495 -3.97044 -1.41188 0
M  V30 2629 H 236.219 -2.76947 -1.73113 0
M  V30 2630 H 234.878 -3.66018 0.206456 0
M  V30 2631 H 234.526 -4.57282 -2.09528 0
M  V30 2632 H 234.226 -5.81378 -0.852839 0
M  V30 2633 H 235.75 -5.83929 -1.78492 0
M  V30 2634 H 237.164 -5.71262 0.482983 0
M  V30 2635 H 235.561 -5.86747 1.25887 0
M  V30 2636 H 236.631 -4.53242 1.72335 0
M  V30 2637 N 237.974 -0.419461 -1.51915 0
M  V30 2638 C 238.937 0.389116 -2.25873 0
M  V30 2639 C 239.937 0.964924 -1.28631 0
M  V30 2640 O 241.127 0.842179 -1.52489 0
M  V30 2641 C 238.259 1.54874 -3.03689 0
M  V30 2642 H 239.452 -0.258799 -2.98781 0
M  V30 2643 H 237.005 -0.172209 -1.55348 0
M  V30 2644 H 237.74 2.23323 -2.35154 0
M  V30 2645 H 237.525 1.14223 -3.75094 0
M  V30 2646 H 239.015 2.12046 -3.59759 0
M  V30 2647 N 239.452 1.56882 -0.150215 0
M  V30 2648 C 240.362 2.20494 0.801222 0
M  V30 2649 C 241.378 1.19019 1.26927 0
M  V30 2650 O 242.554 1.51607 1.32579 0
M  V30 2651 C 239.619 2.81659 2.02161 0
M  V30 2652 C 238.68 3.9827 1.60249 0
M  V30 2653 C 237.913 4.56508 2.7647 0
M  V30 2654 O 238.136 4.13627 3.92771 0
M  V30 2655 O 237.07 5.46719 2.51757 0
M  V30 2656 H 240.896 3.02315 0.289717 0
M  V30 2657 H 238.481 1.49202 0.0769684 0
M  V30 2658 H 240.363 3.20522 2.73576 0
M  V30 2659 H 239.038 2.02849 2.52258 0
M  V30 2660 H 237.945 3.64117 0.858477 0
M  V30 2661 H 239.278 4.78609 1.14864 0
M  V30 2662 N 240.93 -0.123565 1.57115 0
M  V30 2663 C 241.862 -1.17739 1.96648 0
M  V30 2664 C 242.875 -1.37906 0.865201 0
M  V30 2665 O 244.064 -1.37062 1.14351 0
M  V30 2666 C 241.164 -2.53821 2.24562 0
M  V30 2667 C 240.337 -2.54317 3.55867 0
M  V30 2668 C 239.396 -3.72112 3.72047 0
M  V30 2669 O 238.422 -3.55907 4.44206 0
M  V30 2670 N 239.624 -4.90498 3.10471 0
M  V30 2671 H 242.389 -0.841147 2.87654 0
M  V30 2672 H 239.95 -0.31289 1.58848 0
M  V30 2673 H 241.942 -3.31175 2.32606 0
M  V30 2674 H 240.512 -2.79645 1.39705 0
M  V30 2675 H 239.732 -1.62711 3.59053 0
M  V30 2676 H 241.02 -2.51701 4.42181 0
M  V30 2677 H 240.418 -5.06567 2.51806 0
M  V30 2678 H 238.975 -5.65544 3.24043 0
M  V30 2679 N 242.408 -1.52605 -0.393616 0
M  V30 2680 C 243.824 -1.41753 -0.733357 0
M  V30 2681 C 244.024 -0.534293 -1.94287 0
M  V30 2682 O 243.08 -0.0059787 -2.52499 0
M  V30 2683 C 244.393 -2.84531 -0.972772 0
M  V30 2684 C 245.941 -2.93978 -1.07453 0
M  V30 2685 C 246.416 -4.37756 -1.3466 0
M  V30 2686 N 247.907 -4.4106 -1.41492 0
M  V30 2687 C 248.642 -5.49387 -1.642 0
M  V30 2688 N 248.138 -6.67806 -1.8441 0
M  V30 2689 N 249.931 -5.36923 -1.66342 0
M  V30 2690 H 242.082 -2.08555 0.402328 0
M  V30 2691 H 244.345 -0.940654 0.117789 0
M  V30 2692 H 244.051 -3.51353 -0.156204 0
M  V30 2693 H 243.925 -3.26508 -1.88871 0
M  V30 2694 H 246.312 -2.27326 -1.88167 0
M  V30 2695 H 246.393 -2.55435 -0.136605 0
M  V30 2696 H 246.037 -5.04972 -0.544581 0
M  V30 2697 H 245.967 -4.73848 -2.2973 0
M  V30 2698 H 248.458 -3.55705 -1.27601 0
M  V30 2699 H 248.771 -7.46141 -2.01231 0
M  V30 2700 H 247.116 -6.70843 -1.81644 0
M  V30 2701 H 250.307 -4.43381 -1.50102 0
M  V30 2702 H 250.48 -6.21416 -1.837 0
M  V30 2703 N 243.887 0.651787 -1.4349 0
M  V30 2704 C 244.797 1.79368 -1.5121 0
M  V30 2705 C 245.813 1.69361 -0.399093 0
M  V30 2706 O 246.989 1.90505 -0.653431 0
M  V30 2707 C 244.054 3.15653 -1.43401 0
M  V30 2708 C 243.115 3.37446 -2.65384 0
M  V30 2709 C 242.348 4.67229 -2.57939 0
M  V30 2710 O 242.571 5.46676 -1.62792 0
M  V30 2711 O 241.505 4.90773 -3.48462 0
M  V30 2712 H 245.331 1.7581 -2.47638 0
M  V30 2713 H 242.916 0.810447 -1.25507 0
M  V30 2714 H 244.798 3.96935 -1.41494 0
M  V30 2715 H 243.473 3.19798 -0.501085 0
M  V30 2716 H 242.38 2.55923 -2.72863 0
M  V30 2717 H 243.713 3.38148 -3.57654 0
M  V30 2718 N 245.365 1.30045 0.890287 0
M  V30 2719 C 246.312 1.15976 1.99545 0
M  V30 2720 C 247.282 0.0506202 1.66023 0
M  V30 2721 O 248.467 0.219847 1.89529 0
M  V30 2722 C 245.607 0.852054 3.34416 0
M  V30 2723 C 244.72 2.04255 3.80662 0
M  V30 2724 C 243.855 1.6734 5.04154 0
M  V30 2725 C 242.894 2.82916 5.42794 0
M  V30 2726 N 242.031 2.46333 6.57468 0
M  V30 2727 H 246.871 2.10524 2.10911 0
M  V30 2728 H 244.408 1.04749 1.03276 0
M  V30 2729 H 246.366 0.654296 4.12037 0
M  V30 2730 H 244.996 -0.0565502 3.2275 0
M  V30 2731 H 244.048 2.35172 2.98995 0
M  V30 2732 H 245.36 2.90826 4.05242 0
M  V30 2733 H 244.514 1.43908 5.89386 0
M  V30 2734 H 243.253 0.779308 4.81433 0
M  V30 2735 H 242.258 3.0702 4.56091 0
M  V30 2736 H 243.483 3.73004 5.6749 0
M  V30 2737 H 241.429 1.59423 6.36334 0
M  V30 2738 H 241.346 3.26436 6.81891 0
M  V30 2739 H 242.614 2.26244 7.45945 0
M  V30 2740 N 246.843 -1.10192 1.12674 0
M  V30 2741 C 248.254 -1.63707 0.897604 0
M  V30 2742 C 248.605 -1.87812 -0.567546 0
M  V30 2743 O 247.73 -1.62196 -1.43253 0
M  V30 2744 C 248.325 -2.974 1.62292 0
M  V30 2745 C 246.884 -3.47772 1.43986 0
M  V30 2746 C 246.031 -2.22332 1.65722 0
M  V30 2747 H 248.982 -0.936587 1.28116 0
M  V30 2748 H 249.003 -3.64986 1.07541 0
M  V30 2749 H 248.515 -2.79824 2.68924 0
M  V30 2750 H 246.616 -3.70487 0.396206 0
M  V30 2751 H 246.729 -4.25723 2.19765 0
M  V30 2752 H 245.093 -2.30599 1.08149 0
M  V30 2753 H 245.876 -2.07285 2.73657 0
M  V30 2754 N 248.321 -0.919034 -1.28029 0
M  V30 2755 C 249.549 -0.570971 -1.98866 0
M  V30 2756 C 249.964 0.848996 -1.68634 0
M  V30 2757 O 249.321 1.56307 -0.942036 0
M  V30 2758 C 249.372 -0.776876 -3.53054 0
M  V30 2759 O 249.093 -2.14097 -3.82222 0
M  V30 2760 C 250.594 -0.436356 -4.41147 0
M  V30 2761 H 247.814 -0.217175 -0.634883 0
M  V30 2762 H 250.358 -1.23368 -1.63097 0
M  V30 2763 H 248.513 -0.161085 -3.87065 0
M  V30 2764 H 248.927 -2.18455 -4.76841 0
M  V30 2765 H 250.401 -0.63117 -5.4838 0
M  V30 2766 H 250.878 0.627686 -4.34692 0
M  V30 2767 H 251.484 -1.02991 -4.12641 0
M  V30 2768 N 249.799 1.42003 -0.683588 0
M  V30 2769 C 251.045 2.02223 -0.218536 0
M  V30 2770 C 251.4 1.53126 1.16492 0
M  V30 2771 O 250.693 0.727459 1.77253 0
M  V30 2772 C 250.887 3.56827 -0.202357 0
M  V30 2773 C 250.716 4.20928 -1.5827 0
M  V30 2774 C 249.486 4.5573 -2.18262 0
M  V30 2775 C 251.684 4.47933 -2.52706 0
M  V30 2776 N 249.666 5.05056 -3.48986 0
M  V30 2777 C 251.037 4.98906 -3.68094 0
M  V30 2778 C 253.092 4.29931 -2.51125 0
M  V30 2779 C 251.795 5.33768 -4.82166 0
M  V30 2780 C 253.821 4.65875 -3.643 0
M  V30 2781 C 253.183 5.17008 -4.78417 0
M  V30 2782 H 249.282 0.771931 -0.125088 0
M  V30 2783 H 251.866 1.72729 -0.898479 0
M  V30 2784 H 250.037 3.85819 0.447029 0
M  V30 2785 H 251.769 4.03755 0.276399 0
M  V30 2786 H 248.524 4.41781 -1.70665 0
M  V30 2787 H 248.948 5.34139 -4.15962 0
M  V30 2788 H 253.59 3.89647 -1.6412 0
M  V30 2789 H 251.308 5.72981 -5.6984 0
M  V30 2790 H 254.894 4.53615 -3.64314 0
M  V30 2791 H 253.774 5.44301 -5.64541 0
M  V30 2792 N 251.277 0.427512 1.51691 0
M  V30 2793 C 252.207 -0.3796 2.30394 0
M  V30 2794 C 253.188 -1.02982 1.35384 0
M  V30 2795 O 254.373 -1.03534 1.643 0
M  V30 2796 C 251.503 -1.48649 3.1388 0
M  V30 2797 C 250.457 -0.960294 4.17088 0
M  V30 2798 C 249.783 -2.16219 4.89033 0
M  V30 2799 C 251.083 -0.00153679 5.223 0
M  V30 2800 H 252.777 0.277164 2.98114 0
M  V30 2801 H 250.323 0.134739 1.43368 0
M  V30 2802 H 252.276 -2.05826 3.67714 0
M  V30 2803 H 251 -2.1714 2.43962 0
M  V30 2804 H 249.659 -0.410806 3.64291 0
M  V30 2805 H 249.307 -2.83307 4.15628 0
M  V30 2806 H 249.007 -1.81654 5.58816 0
M  V30 2807 H 250.531 -2.73968 5.45687 0
M  V30 2808 H 251.945 -0.482687 5.71264 0
M  V30 2809 H 250.342 0.256199 5.99553 0
M  V30 2810 H 251.412 0.938174 4.75738 0
M  V30 2811 N 252.755 -1.56801 0.158532 0
M  V30 2812 C 253.665 -2.20916 -0.789518 0
M  V30 2813 C 254.681 -1.1969 -1.26294 0
M  V30 2814 O 255.857 -1.52308 -1.31773 0
M  V30 2815 C 252.922 -2.82727 -2.00665 0
M  V30 2816 C 251.983 -3.99114 -1.58134 0
M  V30 2817 C 251.216 -4.57968 -2.74045 0
M  V30 2818 O 251.439 -4.15704 -3.90572 0
M  V30 2819 O 250.373 -5.48047 -2.48855 0
M  V30 2820 H 254.199 -3.02464 -0.273681 0
M  V30 2821 H 251.784 -1.4924 -0.0690548 0
M  V30 2822 H 253.666 -3.21968 -2.71872 0
M  V30 2823 H 252.341 -2.04184 -2.51179 0
M  V30 2824 H 251.248 -3.64567 -0.839155 0
M  V30 2825 H 252.581 -4.79212 -1.12325 0
M  V30 2826 N 254.233 0.115231 -1.57178 0
M  V30 2827 C 255.479 0.82357 -1.85325 0
M  V30 2828 C 255.812 1.79349 -0.744814 0
M  V30 2829 O 255.087 1.92899 0.249024 0
M  V30 2830 C 255.37 1.57014 -3.24066 0
M  V30 2831 C 255.223 0.619565 -4.45513 0
M  V30 2832 C 256.542 2.52545 -3.60429 0
M  V30 2833 H 253.661 0.297948 -0.674089 0
M  V30 2834 H 256.303 0.0877138 -1.89797 0
M  V30 2835 H 254.453 2.19742 -3.20383 0
M  V30 2836 H 256.125 0.000837639 -4.613 0
M  V30 2837 H 254.368 -0.0686174 -4.33746 0
M  V30 2838 H 255.039 1.17866 -5.3927 0
M  V30 2839 H 257.515 1.9992 -3.64926 0
M  V30 2840 H 256.391 3.01811 -4.58477 0
M  V30 2841 H 256.652 3.35383 -2.88047 0
M  V30 2842 N 255.711 1.52812 0.385517 0
M  V30 2843 C 256.988 1.5861 1.14465 0
M  V30 2844 C 257.368 0.381402 2.07626 0
M  V30 2845 O 256.716 -0.629999 2.19643 0
M  V30 2846 C 256.926 2.92664 1.90128 0
M  V30 2847 C 258.274 3.46526 2.45367 0
M  V30 2848 O 259.298 2.94562 2.0028 0
M  V30 2849 O 258.157 4.37323 3.27736 0
M  V30 2850 H 255.251 0.639855 0.523941 0
M  V30 2851 H 257.797 1.65149 0.390389 0
M  V30 2852 H 256.569 3.71788 1.22022 0
M  V30 2853 H 256.192 2.89527 2.72507 0
M  V30 2854 N 257.189 -0.644168 1.43834 0
M  V30 2855 C 258.152 -1.73857 1.49353 0
M  V30 2856 C 259.152 -1.56315 0.377112 0
M  V30 2857 O 260.342 -1.62048 0.639226 0
M  V30 2858 C 257.474 -3.12819 1.35488 0
M  V30 2859 H 258.667 -1.70342 2.46827 0
M  V30 2860 H 256.22 -0.856652 1.30733 0
M  V30 2861 H 256.955 -3.2194 0.390569 0
M  V30 2862 H 256.74 -3.26958 2.16428 0
M  V30 2863 H 258.23 -3.92606 1.42302 0
M  V30 2864 N 258.668 -1.30515 -0.883378 0
M  V30 2865 C 259.916 -1.19194 -1.63209 0
M  V30 2866 C 260.237 0.253205 -1.93349 0
M  V30 2867 O 259.507 1.17025 -1.57105 0
M  V30 2868 H 258.087 -0.438148 -0.605009 0
M  V30 2869 H 260.749 -1.63663 -1.05832 0
M  V30 2870 H 259.845 -1.75396 -2.58153 0
M  V30 2871 N 260.146 1.09593 -1.13257 0
M  V30 2872 C 261.093 2.1618 -0.808381 0
M  V30 2873 C 262.063 1.64517 0.228754 0
M  V30 2874 O 263.248 1.9053 0.101381 0
M  V30 2875 C 260.388 3.43973 -0.278675 0
M  V30 2876 C 259.501 4.09545 -1.37466 0
M  V30 2877 C 258.636 5.25088 -0.803479 0
M  V30 2878 C 257.675 5.82579 -1.87799 0
M  V30 2879 N 256.812 6.89486 -1.32488 0
M  V30 2880 H 261.652 2.43254 -1.72138 0
M  V30 2881 H 259.189 1.19392 -0.859294 0
M  V30 2882 H 261.147 4.17174 0.0465583 0
M  V30 2883 H 259.777 3.17223 0.597459 0
M  V30 2884 H 258.829 3.34226 -1.81652 0
M  V30 2885 H 260.141 4.48307 -2.18684 0
M  V30 2886 H 259.295 6.05178 -0.429427 0
M  V30 2887 H 258.034 4.87684 0.0397956 0
M  V30 2888 H 257.039 5.01152 -2.26113 0
M  V30 2889 H 258.264 6.22045 -2.72463 0
M  V30 2890 H 256.21 6.54064 -0.503575 0
M  V30 2891 H 256.127 7.27007 -2.07355 0
M  V30 2892 H 257.395 7.73336 -0.978336 0
M  V30 2893 N 261.624 0.925811 1.2754 0
M  V30 2894 C 262.557 0.367836 2.25216 0
M  V30 2895 C 263.535 -0.534738 1.53556 0
M  V30 2896 O 264.719 -0.475672 1.824 0
M  V30 2897 C 261.846 -0.47298 3.35381 0
M  V30 2898 C 260.892 0.365898 4.24928 0
M  V30 2899 S 261.725 1.78025 5.05042 0
M  V30 2900 C 262.881 0.947068 6.18693 0
M  V30 2901 H 263.114 1.19568 2.72196 0
M  V30 2902 H 260.647 0.727867 1.36167 0
M  V30 2903 H 262.605 -0.952242 3.99303 0
M  V30 2904 H 261.266 -1.27533 2.87044 0
M  V30 2905 H 260.459 -0.277582 5.03235 0
M  V30 2906 H 260.061 0.779261 3.65792 0
M  V30 2907 H 262.353 0.182201 6.77255 0
M  V30 2908 H 263.296 1.70309 6.87314 0
M  V30 2909 H 263.704 0.489913 5.6237 0
M  V30 2910 N 263.102 -1.41638 0.69111 0
M  V30 2911 C 264.012 -2.34588 0.0233487 0
M  V30 2912 C 265.028 -1.55987 -0.770984 0
M  V30 2913 O 266.204 -1.88486 -0.709569 0
M  V30 2914 C 263.269 -3.34684 -0.904851 0
M  V30 2915 C 262.33 -4.29176 -0.103225 0
M  V30 2916 C 261.563 -5.2449 -0.987216 0
M  V30 2917 O 261.786 -5.2514 -2.22674 0
M  V30 2918 O 260.72 -6.00295 -0.439281 0
M  V30 2919 H 264.546 -2.93261 0.789416 0
M  V30 2920 H 262.131 -1.42417 0.45142 0
M  V30 2921 H 264.013 -3.96133 -1.43724 0
M  V30 2922 H 262.688 -2.78461 -1.65049 0
M  V30 2923 H 261.595 -3.71089 0.473655 0
M  V30 2924 H 262.928 -4.88484 0.60365 0
M  V30 2925 N 264.58 -0.43555 -1.51462 0
M  V30 2926 C 265.828 0.131254 -2.01673 0
M  V30 2927 C 266.149 1.43368 -1.32177 0
M  V30 2928 O 265.419 1.90524 -0.455769 0
M  V30 2929 H 263.999 0.0514954 -0.745223 0
M  V30 2930 H 266.661 -0.577847 -1.86137 0
M  V30 2931 H 265.757 0.308446 -3.10572 0
M  V30 2932 N 266.058 1.56714 -0.166846 0
M  V30 2933 C 267.286 2.0112 0.485644 0
M  V30 2934 C 267.701 1.04705 1.57106 0
M  V30 2935 O 267.058 0.0471923 1.82439 0
M  V30 2936 C 267.109 3.45361 1.06808 0
M  V30 2937 O 266.83 4.38092 0.0259995 0
M  V30 2938 C 268.331 4.05145 1.79924 0
M  V30 2939 H 265.551 0.65931 0.124704 0
M  V30 2940 H 268.095 2.02746 -0.267262 0
M  V30 2941 H 266.25 3.44524 1.7715 0
M  V30 2942 H 266.664 5.22519 0.455398 0
M  V30 2943 H 268.138 5.08009 2.15942 0
M  V30 2944 H 268.615 3.46982 2.69258 0
M  V30 2945 H 269.221 4.09672 1.14234 0
M  V30 2946 N 267.536 -0.106894 1.57237 0
M  V30 2947 C 268.783 -0.812526 1.85484 0
M  V30 2948 C 269.111 -1.79304 0.753687 0
M  V30 2949 O 268.366 -1.94047 -0.253853 0
M  V30 2950 C 268.665 -1.58628 3.20268 0
M  V30 2951 C 268.331 -0.748967 4.44636 0
M  V30 2952 C 266.993 -0.518104 4.78403 0
M  V30 2953 C 269.345 -0.166122 5.20935 0
M  V30 2954 C 266.673 0.305659 5.85903 0
M  V30 2955 C 269.025 0.644899 6.29304 0
M  V30 2956 C 267.689 0.885965 6.61594 0
M  V30 2957 H 266.959 -0.297324 0.678734 0
M  V30 2958 H 269.606 -0.0744332 1.91355 0
M  V30 2959 H 267.911 -2.39562 3.10028 0
M  V30 2960 H 269.608 -2.13643 3.39349 0
M  V30 2961 H 266.198 -0.939006 4.18187 0
M  V30 2962 H 270.382 -0.33167 4.95191 0
M  V30 2963 H 265.638 0.501528 6.0934 0
M  V30 2964 H 269.812 1.10345 6.87602 0
M  V30 2965 H 267.439 1.52609 7.44725 0
M  V30 2966 N 269.014 -1.53014 -0.377408 0
M  V30 2967 C 269.961 -1.78616 -1.46168 0
M  V30 2968 C 270.931 -0.629917 -1.53692 0
M  V30 2969 O 272.116 -0.870861 -1.69766 0
M  V30 2970 C 269.256 -1.97123 -2.8326 0
M  V30 2971 C 268.369 -3.24831 -2.84796 0
M  V30 2972 C 267.504 -3.33591 -4.13389 0
M  V30 2973 C 266.543 -4.55377 -4.09021 0
M  V30 2974 N 265.68 -4.61355 -5.29241 0
M  V30 2975 H 270.52 -2.71142 -1.23637 0
M  V30 2976 H 268.057 -1.34326 -0.599577 0
M  V30 2977 H 270.015 -2.05839 -3.62886 0
M  V30 2978 H 268.645 -1.07946 -3.04216 0
M  V30 2979 H 267.697 -3.25128 -1.97474 0
M  V30 2980 H 269.009 -4.14523 -2.77439 0
M  V30 2981 H 268.163 -3.41554 -5.01424 0
M  V30 2982 H 266.902 -2.41894 -4.23484 0
M  V30 2983 H 265.907 -4.47527 -3.19373 0
M  V30 2984 H 267.132 -5.48402 -4.00539 0
M  V30 2985 H 265.078 -3.72554 -5.39944 0
M  V30 2986 H 264.995 -5.44935 -5.24006 0
M  V30 2987 H 266.263 -4.73586 -6.19141 0
M  V30 2988 N 270.492 0.636531 -1.44174 0
M  V30 2989 C 271.908 0.954104 -1.27941 0
M  V30 2990 C 272.108 2.0039 -0.211248 0
M  V30 2991 O 271.164 2.49236 0.404695 0
M  V30 2992 C 272.477 1.4225 -2.64925 0
M  V30 2993 C 274.025 1.53827 -2.72592 0
M  V30 2994 C 274.5 2.04053 -4.10032 0
M  V30 2995 N 275.991 2.11331 -4.12182 0
M  V30 2996 C 276.726 2.51352 -5.15374 0
M  V30 2997 N 276.222 2.90549 -6.2893 0
M  V30 2998 N 278.015 2.51438 -5.02728 0
M  V30 2999 H 270.166 -0.0578386 -2.12321 0
M  V30 3000 H 272.429 0.0367406 -0.947288 0
M  V30 3001 H 272.135 0.725466 -3.44136 0
M  V30 3002 H 272.009 2.39451 -2.9145 0
M  V30 3003 H 274.396 2.22628 -1.93702 0
M  V30 3004 H 274.477 0.550154 -2.49814 0
M  V30 3005 H 274.121 1.35848 -4.89395 0
M  V30 3006 H 274.051 3.03726 -4.30184 0
M  V30 3007 H 276.542 1.83745 -3.30222 0
M  V30 3008 H 276.855 3.19884 -7.03487 0
M  V30 3009 H 275.2 2.88313 -6.32377 0
M  V30 3010 H 278.391 2.20203 -4.13072 0
M  V30 3011 H 278.564 2.82304 -5.83274 0
M  V30 3012 N 271.97 1.30982 0.876444 0
M  V30 3013 C 272.917 1.18085 1.98304 0
M  V30 3014 C 273.887 0.0682263 1.6596 0
M  V30 3015 O 275.072 0.239937 1.89285 0
M  V30 3016 C 272.212 0.887475 3.33493 0
M  V30 3017 C 271.325 2.08281 3.78475 0
M  V30 3018 C 270.46 1.72678 5.0235 0
M  V30 3019 C 269.499 2.88657 5.39762 0
M  V30 3020 N 268.636 2.53292 6.54819 0
M  V30 3021 H 273.476 2.1275 2.08666 0
M  V30 3022 H 271.013 1.05839 1.02159 0
M  V30 3023 H 272.971 0.697961 4.1132 0
M  V30 3024 H 271.601 -0.022315 3.22792 0
M  V30 3025 H 270.653 2.3833 2.96484 0
M  V30 3026 H 271.965 2.95108 4.02135 0
M  V30 3027 H 271.119 1.50151 5.87826 0
M  V30 3028 H 269.858 0.830327 4.8058 0
M  V30 3029 H 268.863 3.1184 4.52809 0
M  V30 3030 H 270.088 3.79002 5.63502 0
M  V30 3031 H 268.034 1.66163 6.34607 0
M  V30 3032 H 267.951 3.3365 6.7839 0
M  V30 3033 H 269.219 2.34143 7.43503 0
M  V30 3034 N 273.449 -1.08991 1.13837 0
M  V30 3035 C 274.86 -1.62746 0.914917 0
M  V30 3036 C 275.211 -1.88403 -0.547594 0
M  V30 3037 O 274.336 -1.63706 -1.41525 0
M  V30 3038 C 274.931 -2.95662 1.65437 0
M  V30 3039 C 273.49 -3.46225 1.47666 0
M  V30 3040 C 272.637 -2.20562 1.6807 0
M  V30 3041 H 275.588 -0.922946 1.29102 0
M  V30 3042 H 275.609 -3.63825 1.11407 0
M  V30 3043 H 275.121 -2.76956 2.71877 0
M  V30 3044 H 273.222 -3.70046 0.435478 0
M  V30 3045 H 273.335 -4.23368 2.24268 0
M  V30 3046 H 271.699 -2.29439 1.10589 0
M  V30 3047 H 272.482 -2.0437 2.7584 0
M  V30 3048 N 274.927 -0.932562 -1.27047 0
M  V30 3049 C 275.837 -0.441219 -2.30414 0
M  V30 3050 C 276.853 0.480525 -1.67233 0
M  V30 3051 O 278.029 0.362151 -1.98117 0
M  V30 3052 C 275.094 0.293651 -3.45454 0
M  V30 3053 C 274.155 -0.663601 -4.2414 0
M  V30 3054 C 273.388 0.0362932 -5.33688 0
M  V30 3055 O 273.611 1.2548 -5.56427 0
M  V30 3056 O 272.545 -0.638015 -5.98509 0
M  V30 3057 H 276.371 -1.29962 -2.74488 0
M  V30 3058 H 273.956 -0.6981 -1.32087 0
M  V30 3059 H 275.838 0.707951 -4.15411 0
M  V30 3060 H 274.513 1.12758 -3.03426 0
M  V30 3061 H 273.42 -1.12768 -3.56699 0
M  V30 3062 H 274.753 -1.46489 -4.69896 0
M  V30 3063 N 276.405 1.4127 -0.698611 0
M  V30 3064 C 277.821 1.55241 -0.370462 0
M  V30 3065 C 278.021 1.67351 1.12231 0
M  V30 3066 O 277.077 1.65363 1.90818 0
M  V30 3067 C 278.39 2.78997 -1.12165 0
M  V30 3068 C 279.938 2.92797 -1.1063 0
M  V30 3069 C 280.413 4.19445 -1.8393 0
M  V30 3070 N 281.904 4.26409 -1.80914 0
M  V30 3071 C 282.639 5.23271 -2.34467 0
M  V30 3072 N 282.135 6.26145 -2.96504 0
M  V30 3073 N 283.928 5.15232 -2.24706 0
M  V30 3074 H 276.079 1.31654 -1.66676 0
M  V30 3075 H 278.342 0.635393 -0.703548 0
M  V30 3076 H 278.048 2.76268 -2.17644 0
M  V30 3077 H 277.922 3.70606 -0.702209 0
M  V30 3078 H 280.309 2.95039 -0.0597713 0
M  V30 3079 H 280.39 2.02353 -1.56483 0
M  V30 3080 H 280.034 4.17964 -2.88563 0
M  V30 3081 H 279.964 5.08866 -1.35509 0
M  V30 3082 H 282.455 3.527 -1.35687 0
M  V30 3083 H 282.768 6.96451 -3.34927 0
M  V30 3084 H 281.113 6.26638 -3.00583 0
M  V30 3085 H 284.304 4.33789 -1.7591 0
M  V30 3086 H 284.477 5.90552 -2.66745 0
M  V30 3087 N 277.883 0.443576 1.51229 0
M  V30 3088 C 279.108 -0.121648 2.07043 0
M  V30 3089 C 279.533 -1.35156 1.30823 0
M  V30 3090 O 278.891 -1.7793 0.347934 0
M  V30 3091 C 278.939 -0.41624 3.5819 0
M  V30 3092 O 278.043 -1.50163 3.8409 0
M  V30 3093 H 277.384 0.000871367 0.663999 0
M  V30 3094 H 279.914 0.626706 1.94765 0
M  V30 3095 H 279.924 -0.664867 4.02546 0
M  V30 3096 H 278.599 0.482653 4.1309 0
M  V30 3097 H 277.176 -1.24248 3.51592 0
M  V30 3098 N 279.361 -1.56624 0.175154 0
M  V30 3099 C 280.638 -1.88688 -0.515373 0
M  V30 3100 C 281.018 -1.08564 -1.81044 0
M  V30 3101 O 280.366 -0.180703 -2.27784 0
M  V30 3102 C 280.576 -3.40768 -0.753552 0
M  V30 3103 C 281.924 -4.10587 -1.08184 0
M  V30 3104 O 282.948 -3.46106 -0.841961 0
M  V30 3105 O 281.807 -5.24512 -1.53459 0
M  V30 3106 H 278.901 -0.78301 -0.26613 0
M  V30 3107 H 281.447 -1.68347 0.213877 0
M  V30 3108 H 280.219 -3.90965 0.161829 0
M  V30 3109 H 279.842 -3.66733 -1.53598 0
M  V30 3110 N 280.839 0.0985539 -1.57292 0
M  V30 3111 C 281.769 1.12064 -2.04851 0
M  V30 3112 C 282.75 1.41981 -0.936767 0
M  V30 3113 O 283.935 1.52071 -1.20781 0
M  V30 3114 C 281.065 2.44144 -2.47004 0
M  V30 3115 C 280.019 2.28643 -3.6181 0
M  V30 3116 C 279.345 3.65869 -3.89929 0
M  V30 3117 C 280.645 1.72986 -4.92822 0
M  V30 3118 H 282.339 0.724979 -2.9049 0
M  V30 3119 H 279.885 0.34729 -1.39749 0
M  V30 3120 H 281.838 3.15914 -2.78884 0
M  V30 3121 H 280.562 2.85639 -1.5836 0
M  V30 3122 H 279.221 1.59318 -3.30172 0
M  V30 3123 H 278.869 4.04885 -2.98458 0
M  V30 3124 H 278.569 3.56344 -4.67218 0
M  V30 3125 H 280.093 4.39112 -4.2428 0
M  V30 3126 H 281.507 2.34593 -5.23105 0
M  V30 3127 H 279.904 1.74229 -5.74251 0
M  V30 3128 H 280.974 0.689007 -4.7998 0
M  V30 3129 N 282.317 1.53212 0.369288 0
M  V30 3130 C 283.542 1.73423 1.1375 0
M  V30 3131 C 283.967 0.460404 1.82378 0
M  V30 3132 O 283.325 -0.585298 1.71592 0
M  V30 3133 C 283.373 2.89769 2.1463 0
M  V30 3134 O 282.477 2.58119 3.21634 0
M  V30 3135 H 281.818 0.576061 0.330227 0
M  V30 3136 H 284.348 2.00083 0.427547 0
M  V30 3137 H 284.358 3.15829 2.58294 0
M  V30 3138 H 283.033 3.8217 1.64071 0
M  V30 3139 H 281.61 2.42864 2.82969 0
M  V30 3140 N 283.795 -0.628877 1.44509 0
M  V30 3141 C 284.758 -1.72263 1.51188 0
M  V30 3142 C 285.758 -1.55907 0.39367 0
M  V30 3143 O 286.948 -1.61361 0.656377 0
M  V30 3144 C 284.08 -3.11365 1.38798 0
M  V30 3145 H 285.273 -1.67714 2.4862 0
M  V30 3146 H 282.826 -0.842737 1.31634 0
M  V30 3147 H 283.561 -3.21507 0.424693 0
M  V30 3148 H 283.346 -3.24644 2.19884 0
M  V30 3149 H 284.836 -3.91075 1.46458 0
M  V30 3150 N 285.273 -1.31445 -0.869486 0
M  V30 3151 C 286.55 -1.11795 -1.60503 0
M  V30 3152 C 286.93 0.327168 -2.08549 0
M  V30 3153 O 286.278 1.32135 -1.8642 0
M  V30 3154 C 286.488 -2.13258 -2.76265 0
M  V30 3155 C 287.836 -2.45805 -3.46215 0
M  V30 3156 O 288.86 -2.11688 -2.86473 0
M  V30 3157 O 287.719 -3.04228 -4.5399 0
M  V30 3158 H 284.813 -0.430421 -0.706163 0
M  V30 3159 H 287.359 -1.42925 -0.914907 0
M  V30 3160 H 286.131 -3.10461 -2.3818 0
M  V30 3161 H 285.754 -1.83035 -3.52964 0
M  V30 3162 N 286.751 1.08385 -1.14413 0
M  V30 3163 C 288 1.80153 -0.907076 0
M  V30 3164 C 288.313 1.87176 0.567851 0
M  V30 3165 O 289.519 2.55359 0.922172 0
M  V30 3166 C 287.975 3.23687 -1.57336 0
M  V30 3167 C 287.583 3.24897 -3.08457 0
M  V30 3168 C 289.327 4.00136 -1.41744 0
M  V30 3169 C 287.234 4.6302 -3.67921 0
M  V30 3170 H 286.164 0.675139 -0.335714 0
M  V30 3171 H 288.815 1.21733 -1.37307 0
M  V30 3172 H 287.197 3.82234 -1.03505 0
M  V30 3173 H 288.371 2.76055 -3.68958 0
M  V30 3174 H 286.686 2.61943 -3.2369 0
M  V30 3175 H 289.283 5.02201 -1.83572 0
M  V30 3176 H 289.626 4.14709 -0.363576 0
M  V30 3177 H 290.159 3.48058 -1.92614 0
M  V30 3178 H 286.898 4.5365 -4.73161 0
M  V30 3179 H 286.418 5.12143 -3.12201 0
M  V30 3180 H 288.097 5.31994 -3.68227 0
M  V30 3181 N 288.23 0.939286 1.26551 0
M  V30 3182 C 289.178 0.43815 2.28436 0
M  V30 3183 C 290.172 -0.483587 1.62351 0
M  V30 3184 O 291.378 -0.362009 1.76322 0
M  V30 3185 H 287.753 0.123149 0.741848 0
M  V30 3186 H 289.724 1.31002 2.68106 0
M  V30 3187 C 288.473 -0.283052 3.46546 0
M  V30 3188 H 287.796 0.417043 3.97619 0
M  V30 3189 H 289.236 -0.597948 4.19763 0
M  V30 3190 C 287.695 -1.50018 3.01656 0
M  V30 3191 O 288.225 -2.59855 3.0633 0
M  V30 3192 N 286.431 -1.35608 2.57019 0
M  V30 3193 H 285.978 -0.46244 2.53415 0
M  V30 3194 H 285.936 -2.17165 2.27347 0
M  V30 3195 N 289.708 -1.40897 0.706093 0
M  V30 3196 C 290.618 -2.3455 0.0482286 0
M  V30 3197 C 291.634 -1.56796 -0.754396 0
M  V30 3198 O 292.81 -1.89228 -0.689538 0
M  V30 3199 C 289.875 -3.35625 -0.869303 0
M  V30 3200 C 288.936 -4.29261 -0.0576994 0
M  V30 3201 C 288.169 -5.25508 -0.931531 0
M  V30 3202 O 288.392 -5.27472 -2.17092 0
M  V30 3203 O 287.326 -6.00727 -0.375587 0
M  V30 3204 H 291.152 -2.92407 0.820476 0
M  V30 3205 H 288.737 -1.4193 0.4665 0
M  V30 3206 H 290.619 -3.97635 -1.39514 0
M  V30 3207 H 289.294 -2.80196 -1.62086 0
M  V30 3208 H 288.201 -3.70566 0.512988 0
M  V30 3209 H 289.534 -4.87817 0.655426 0
M  V30 3210 N 291.186 -0.45159 -1.50991 0
M  V30 3211 C 292.136 0.370861 -2.24964 0
M  V30 3212 C 293.12 0.978074 -1.2776 0
M  V30 3213 O 294.312 0.893854 -1.52772 0
M  V30 3214 C 291.441 1.46344 -3.10545 0
M  V30 3215 C 290.527 0.864924 -4.15187 0
M  V30 3216 N 290.918 -0.00311354 -5.058 0
M  V30 3217 C 289.216 1.13099 -4.31422 0
M  V30 3218 C 289.917 -0.340772 -5.80701 0
M  V30 3219 N 288.893 0.279203 -5.42883 0
M  V30 3220 H 292.695 -0.298134 -2.92384 0
M  V30 3221 H 290.209 -0.264528 -1.60231 0
M  V30 3222 H 292.206 2.06565 -3.62128 0
M  V30 3223 H 290.866 2.13463 -2.4467 0
M  V30 3224 H 291.877 -0.37058 -5.16572 0
M  V30 3225 H 288.554 1.79861 -3.76771 0
M  V30 3226 H 289.944 -1.048 -6.63677 0
M  V30 3227 N 292.664 1.56529 -0.183458 0
M  V30 3228 C 293.594 2.21549 0.737456 0
M  V30 3229 C 294.575 1.17489 1.23005 0
M  V30 3230 O 295.76 1.45959 1.281 0
M  V30 3231 C 292.89 2.86575 1.96194 0
M  V30 3232 C 291.844 3.96778 1.60473 0
M  V30 3233 C 291.17 4.48911 2.90487 0
M  V30 3234 C 292.47 5.15767 0.823497 0
M  V30 3235 H 294.164 2.98761 0.195453 0
M  V30 3236 H 291.71 1.43702 0.0925686 0
M  V30 3237 H 293.663 3.30739 2.61131 0
M  V30 3238 H 292.387 2.06749 2.52828 0
M  V30 3239 H 291.046 3.53286 0.978997 0
M  V30 3240 H 290.694 3.65862 3.45186 0
M  V30 3241 H 290.394 5.23265 2.67335 0
M  V30 3242 H 291.918 4.95771 3.56432 0
M  V30 3243 H 293.332 5.56549 1.37571 0
M  V30 3244 H 291.729 5.96114 0.690551 0
M  V30 3245 H 292.799 4.84574 -0.177782 0
M  V30 3246 N 294.142 -0.090211 1.57342 0
M  V30 3247 C 295.391 -0.791531 1.8552 0
M  V30 3248 C 295.704 -1.79659 0.773441 0
M  V30 3249 O 296.91 -2.54616 0.942497 0
M  V30 3250 C 295.366 -1.45856 3.2902 0
M  V30 3251 C 294.974 -0.493017 4.45279 0
M  V30 3252 C 296.718 -2.14332 3.66418 0
M  V30 3253 C 294.625 -1.16491 5.79814 0
M  V30 3254 H 293.555 -0.299356 0.692027 0
M  V30 3255 H 296.206 -0.0445343 1.83446 0
M  V30 3256 H 294.588 -2.25318 3.2565 0
M  V30 3257 H 295.762 0.270464 4.60006 0
M  V30 3258 H 294.077 0.0863061 4.16311 0
M  V30 3259 H 296.674 -2.65344 4.64216 0
M  V30 3260 H 297.017 -2.93447 2.95287 0
M  V30 3261 H 297.55 -1.41724 3.71698 0
M  V30 3262 H 294.289 -0.41447 6.54188 0
M  V30 3263 H 293.809 -1.8997 5.68921 0
M  V30 3264 H 295.488 -1.69001 6.24538 0
M  V30 3265 N 295.62 -1.53406 -0.361157 0
M  V30 3266 C 296.866 -1.70054 -1.10496 0
M  V30 3267 C 297.199 -0.453278 -1.88836 0
M  V30 3268 O 296.474 0.5495 -1.86576 0
M  V30 3269 C 296.757 -2.95317 -2.06058 0
M  V30 3270 C 296.61 -4.3021 -1.31298 0
M  V30 3271 C 297.929 -3.16193 -3.06121 0
M  V30 3272 H 295.048 -0.618799 -0.400321 0
M  V30 3273 H 297.69 -1.86052 -0.385318 0
M  V30 3274 H 295.84 -2.81809 -2.67425 0
M  V30 3275 H 297.512 -4.55538 -0.726807 0
M  V30 3276 H 295.755 -4.29421 -0.614853 0
M  V30 3277 H 296.426 -5.14 -2.01265 0
M  V30 3278 H 298.902 -3.28916 -2.5486 0
M  V30 3279 H 297.778 -4.05266 -3.70204 0
M  V30 3280 H 298.039 -2.31676 -3.76535 0
M  V30 3281 N 297.098 0.621204 -1.44841 0
M  V30 3282 C 298.008 1.7612 -1.5498 0
M  V30 3283 C 299.024 1.68477 -0.434927 0
M  V30 3284 O 300.2 1.89076 -0.693693 0
M  V30 3285 C 297.265 3.1254 -1.50065 0
M  V30 3286 C 296.326 3.31741 -2.72482 0
M  V30 3287 C 295.559 4.61653 -2.67792 0
M  V30 3288 O 295.782 5.431 -1.74352 0
M  V30 3289 O 294.716 4.83271 -3.58794 0
M  V30 3290 H 298.542 1.70518 -2.51311 0
M  V30 3291 H 296.127 0.783643 -1.27198 0
M  V30 3292 H 298.009 3.93844 -1.49882 0
M  V30 3293 H 296.684 3.18663 -0.568806 0
M  V30 3294 H 295.591 2.50077 -2.7823 0
M  V30 3295 H 296.924 3.30486 -3.64746 0
M  V30 3296 N 298.576 1.31904 0.862503 0
M  V30 3297 C 299.506 1.22782 1.98612 0
M  V30 3298 C 300.487 0.113362 1.69722 0
M  V30 3299 O 301.672 0.299218 1.91881 0
M  V30 3300 C 298.802 0.942058 3.34279 0
M  V30 3301 C 297.756 2.0169 3.77499 0
M  V30 3302 C 297.082 1.58369 5.10709 0
M  V30 3303 C 298.382 3.43096 3.93805 0
M  V30 3304 H 300.076 2.16788 2.06502 0
M  V30 3305 H 297.622 1.04366 0.992154 0
M  V30 3306 H 299.575 0.864818 4.1243 0
M  V30 3307 H 298.299 -0.0336603 3.26583 0
M  V30 3308 H 296.958 2.08416 3.01593 0
M  V30 3309 H 296.606 0.595628 4.99461 0
M  V30 3310 H 296.306 2.30279 5.40597 0
M  V30 3311 H 297.83 1.52067 5.91361 0
M  V30 3312 H 299.244 3.39003 4.62331 0
M  V30 3313 H 297.641 4.13288 4.35101 0
M  V30 3314 H 298.711 3.83334 2.96957 0
M  V30 3315 N 300.054 -1.07777 1.14986 0
M  V30 3316 C 301.284 -1.83752 0.944402 0
M  V30 3317 C 301.692 -1.8218 -0.51058 0
M  V30 3318 O 301.035 -1.22852 -1.36576 0
M  V30 3319 C 301.097 -3.32128 1.37592 0
M  V30 3320 C 300.761 -3.57425 2.84775 0
M  V30 3321 C 301.758 -3.5173 3.8286 0
M  V30 3322 C 299.443 -3.8523 3.2234 0
M  V30 3323 C 301.437 -3.73482 5.16517 0
M  V30 3324 C 299.124 -4.06634 4.56171 0
M  V30 3325 C 300.122 -4.00754 5.53069 0
M  V30 3326 O 299.81 -4.2159 6.84483 0
M  V30 3327 H 299.542 -0.58673 0.335744 0
M  V30 3328 H 302.096 -1.36982 1.53052 0
M  V30 3329 H 300.326 -3.79686 0.733165 0
M  V30 3330 H 302.015 -3.89555 1.14024 0
M  V30 3331 H 302.781 -3.30256 3.55184 0
M  V30 3332 H 298.66 -3.88923 2.47508 0
M  V30 3333 H 302.204 -3.68808 5.92137 0
M  V30 3334 H 298.101 -4.27593 4.83564 0
M  V30 3335 H 298.869 -4.38961 6.90837 0
M  V30 3336 N 301.532 -0.945985 -1.26051 0
M  V30 3337 C 302.757 -0.612525 -1.98149 0
M  V30 3338 C 303.182 0.806623 -1.69927 0
M  V30 3339 O 302.54 1.54411 -0.950108 0
M  V30 3340 C 302.588 -0.866981 -3.50023 0
M  V30 3341 O 301.692 0.0585333 -4.12358 0
M  V30 3342 H 301.033 -0.23379 -0.621481 0
M  V30 3343 H 303.563 -1.27023 -1.60395 0
M  V30 3344 H 303.573 -0.789792 -4.00283 0
M  V30 3345 H 302.248 -1.90135 -3.69894 0
M  V30 3346 H 300.825 -0.0701241 -3.72834 0
M  V30 3347 N 303.011 1.40521 -0.713556 0
M  V30 3348 C 303.958 2.30723 -0.059684 0
M  V30 3349 C 304.928 1.48079 0.752448 0
M  V30 3350 O 306.113 1.76823 0.71681 0
M  V30 3351 C 303.253 3.34274 0.857594 0
M  V30 3352 C 302.366 4.31986 0.0351536 0
M  V30 3353 C 301.501 5.22605 0.951724 0
M  V30 3354 C 300.54 6.11976 0.123253 0
M  V30 3355 N 299.677 6.9502 0.99459 0
M  V30 3356 H 304.517 2.86074 -0.834596 0
M  V30 3357 H 302.054 1.40879 -0.42326 0
M  V30 3358 H 304.012 3.92879 1.40364 0
M  V30 3359 H 302.642 2.8043 1.59871 0
M  V30 3360 H 301.694 3.7518 -0.628052 0
M  V30 3361 H 303.006 4.95101 -0.606347 0
M  V30 3362 H 302.16 5.86131 1.56638 0
M  V30 3363 H 300.899 4.59759 1.62705 0
M  V30 3364 H 299.904 5.47482 -0.50435 0
M  V30 3365 H 301.129 6.76881 -0.548539 0
M  V30 3366 H 299.075 6.34764 1.6556 0
M  V30 3367 H 298.992 7.54892 0.40908 0
M  V30 3368 H 300.26 7.62997 1.59549 0
M  V30 3369 O 304.528 0.601524 1.4988 0
M  V30 3370 H 305.219 0.111623 1.93378 0
M  V30 END ATOM
M  V30 BEGIN BOND
M  V30 END BOND
M  V30 END CTAB
M  END
$$$$
