drugbank_target|P0A7X3 30S ribosomal protein S9 (DB00453; DB00560; DB00595; DB01017; DB01301)
 OpenBabel12092119243D

  0  0  0     0  0            999 V3000
M  V30 BEGIN CTAB
M  V30 COUNTS 2137 2149 0 0 0
M  V30 BEGIN ATOM
M  V30 1 H -0.908 1.98254 -0.117106 0
M  V30 2 N 0 1.576 0 0
M  V30 3 C 0.933 2.03868 1.02534 0
M  V30 4 C 1.911 0.928543 1.3348 0
M  V30 5 O 3.095 1.19667 1.45644 0
M  V30 6 C 0.222 2.43627 2.35294 0
M  V30 7 C -0.732 3.65373 2.2001 0
M  V30 8 S 0.101 5.13292 1.52614 0
M  V30 9 C 1.257 5.56322 2.86805 0
M  V30 10 H 1.49 2.90518 0.631377 0
M  V30 11 H -0.977 1.52953 0.210867 0
M  V30 12 H 0.981 2.67203 3.11629 0
M  V30 13 H -0.358 1.57376 2.7183 0
M  V30 14 H -1.165 3.90944 3.18086 0
M  V30 15 H -1.563 3.418 1.51819 0
M  V30 16 H 0.729 5.58782 3.83104 0
M  V30 17 H 1.672 6.56266 2.65933 0
M  V30 18 H 2.08 4.83886 2.90714 0
M  V30 19 N 1.4781 -0.272755 1.55222 0
M  V30 20 C 2.4411 -1.32041 1.87344 0
M  V30 21 C 3.4411 -1.42342 0.74803 0
M  V30 22 O 4.6311 -1.41488 1.0162 0
M  V30 23 C 1.7631 -2.70173 2.07893 0
M  V30 24 H 2.9561 -1.04789 2.80997 0
M  V30 25 H 0.5091 -0.51083 1.47717 0
M  V30 26 H 1.2441 -3.02605 1.16622 0
M  V30 27 H 1.0291 -2.64082 2.89833 0
M  V30 28 H 2.5191 -3.45869 2.34017 0
M  V30 29 N 2.9562 -1.48159 -0.537278 0
M  V30 30 C 3.8662 -1.64807 -1.6696 0
M  V30 31 C 4.8822 -0.530651 -1.65711 0
M  V30 32 O 6.0582 -0.800784 -1.84796 0
M  V30 33 C 3.1232 -1.67708 -3.03438 0
M  V30 34 C 2.1842 -2.91025 -3.156 0
M  V30 35 C 1.4172 -2.93778 -4.45567 0
M  V30 36 O 1.6402 -2.05153 -5.3223 0
M  V30 37 O 0.5742 -3.85868 -4.61941 0
M  V30 38 H 4.4002 -2.6066 -1.55853 0
M  V30 39 H 1.9852 -1.31475 -0.709549 0
M  V30 40 H 3.8672 -1.7218 -3.84619 0
M  V30 41 H 2.5422 -0.750278 -3.14885 0
M  V30 42 H 1.4492 -2.92089 -2.33741 0
M  V30 43 H 2.7822 -3.83065 -3.09066 0
M  V30 44 N 4.4343 0.785586 -1.36625 0
M  V30 45 C 5.3823 1.91978 -1.31329 0
M  V30 46 C 6.3763 1.68162 -0.204416 0
M  V30 47 O 7.5823 1.76122 -0.371645 0
M  V30 48 H 3.9573 0.631087 -0.408942 0
M  V30 49 H 5.9283 1.93562 -2.27104 0
M  V30 50 C 4.6773 3.29055 -1.12329 0
M  V30 51 H 4.0003 3.4795 -1.96903 0
M  V30 52 H 5.4403 4.08756 -1.12671 0
M  V30 53 C 3.8993 3.36461 0.171861 0
M  V30 54 O 4.4293 3.84576 1.16035 0
M  V30 55 N 2.6353 2.89782 0.217846 0
M  V30 56 H 2.1823 2.50819 -0.587183 0
M  V30 57 H 2.1403 2.95119 1.08408 0
M  V30 58 N 5.9124 1.20967 1.01018 0
M  V30 59 C 6.8444 0.922059 2.09835 0
M  V30 60 C 7.8574 -0.0927106 1.62536 0
M  V30 61 O 9.0464 0.139127 1.77957 0
M  V30 62 C 6.1464 0.362004 3.36961 0
M  V30 63 C 5.3194 1.42986 4.13369 0
M  V30 64 C 4.3784 0.879976 5.1879 0
M  V30 65 O 3.4044 1.56219 5.47343 0
M  V30 66 N 4.6064 -0.307396 5.79686 0
M  V30 67 H 7.3714 1.8588 2.35093 0
M  V30 68 H 4.9324 1.11422 1.1746 0
M  V30 69 H 6.9244 -0.0201474 4.04695 0
M  V30 70 H 5.4944 -0.479437 3.08902 0
M  V30 71 H 4.7144 1.98608 3.40512 0
M  V30 72 H 6.0024 2.14885 4.61196 0
M  V30 73 H 5.4004 -0.878796 5.58832 0
M  V30 74 H 3.9574 -0.631115 6.48737 0
M  V30 75 N 7.3905 -1.2043 1.01659 0
M  V30 76 C 8.6205 -1.93496 0.724081 0
M  V30 77 C 9.0285 -1.74998 -0.71918 0
M  V30 78 O 8.3715 -1.06118 -1.49949 0
M  V30 79 C 8.4335 -3.45886 0.97994 0
M  V30 80 C 8.0975 -3.88145 2.41232 0
M  V30 81 C 9.0945 -3.93907 3.39313 0
M  V30 82 C 6.7795 -4.20134 2.75305 0
M  V30 83 C 8.7735 -4.31069 4.6953 0
M  V30 84 C 6.4605 -4.56971 4.05735 0
M  V30 85 C 7.4585 -4.62411 5.02658 0
M  V30 86 O 7.1465 -4.98403 6.30754 0
M  V30 87 H 6.8785 -0.621824 0.265162 0
M  V30 88 H 9.4325 -1.53867 1.36066 0
M  V30 89 H 7.6625 -3.85639 0.286198 0
M  V30 90 H 9.3515 -4.0018 0.679021 0
M  V30 91 H 10.1175 -3.69357 3.14325 0
M  V30 92 H 5.9965 -4.1509 2.00551 0
M  V30 93 H 9.5405 -4.3523 5.45179 0
M  V30 94 H 5.4375 -4.80977 4.30502 0
M  V30 95 H 6.2055 -5.16395 6.35042 0
M  V30 96 N 8.8686 -0.792821 -1.36206 0
M  V30 97 C 10.0986 -0.378275 -2.03107 0
M  V30 98 C 10.5066 1.01119 -1.59911 0
M  V30 99 O 9.8496 1.66052 -0.785658 0
M  V30 100 C 9.9116 -0.366535 -3.57627 0
M  V30 101 C 9.5756 -1.70416 -4.24037 0
M  V30 102 C 10.5726 -2.6602 -4.46687 0
M  V30 103 C 8.2576 -1.98439 -4.6144 0
M  V30 104 C 10.2516 -3.8784 -5.05825 0
M  V30 105 C 7.9386 -3.20525 -5.20295 0
M  V30 106 C 8.9366 -4.15044 -5.42427 0
M  V30 107 O 8.6246 -5.34978 -6.00045 0
M  V30 108 H 8.3566 -0.153543 -0.658332 0
M  V30 109 H 10.9106 -1.07383 -1.75094 0
M  V30 110 H 9.1406 0.385539 -3.84773 0
M  V30 111 H 10.8296 0.0238088 -4.05893 0
M  V30 112 H 11.5956 -2.45658 -4.18183 0
M  V30 113 H 7.4746 -1.25686 -4.43536 0
M  V30 114 H 11.0186 -4.61628 -5.23015 0
M  V30 115 H 6.9156 -3.40764 -5.48225 0
M  V30 116 H 7.6836 -5.36088 -6.18508 0
M  V30 117 N 10.3467 1.47872 -0.545128 0
M  V30 118 C 11.5947 2.02093 -0.016553 0
M  V30 119 C 11.9157 1.42305 1.3332 0
M  V30 120 O 11.1857 0.593853 1.86682 0
M  V30 121 H 9.7657 0.746993 -0.00313038 0
M  V30 122 H 12.4277 1.81414 -0.712397 0
M  V30 123 H 11.5237 3.11996 0.0805422 0
M  V30 124 N 11.8248 0.280983 1.55075 0
M  V30 125 C 13.0528 -0.337293 2.04132 0
M  V30 126 C 13.4678 -1.4903 1.15912 0
M  V30 127 O 12.8248 -1.81606 0.180459 0
M  V30 128 C 12.8758 -0.812706 3.52246 0
M  V30 129 O 12.5968 0.294387 4.3711 0
M  V30 130 C 14.0978 -1.4982 4.17216 0
M  V30 131 H 11.3178 -0.0761638 0.666663 0
M  V30 132 H 13.8618 0.414787 2.00249 0
M  V30 133 H 12.0168 -1.51486 3.56554 0
M  V30 134 H 12.4308 -0.0721325 5.2445 0
M  V30 135 H 13.9048 -1.7822 5.22438 0
M  V30 136 H 14.3818 -2.43168 3.65741 0
M  V30 137 H 14.9878 -0.839742 4.16927 0
M  V30 138 N 13.3029 -1.57598 0.00835791 0
M  V30 139 C 14.5509 -1.90551 -0.6734 0
M  V30 140 C 14.8719 -0.883301 -1.73847 0
M  V30 141 O 14.1419 0.0781442 -1.95744 0
M  V30 142 H 12.7219 -0.703312 -0.251717 0
M  V30 143 H 15.3839 -1.94833 0.0512592 0
M  V30 144 H 14.4799 -2.9056 -1.13935 0
M  V30 145 N 14.781 0.264519 -1.55364 0
M  V30 146 C 16.197 0.61215 -1.47394 0
M  V30 147 C 16.397 1.89134 -0.695018 0
M  V30 148 O 15.453 2.51563 -0.217275 0
M  V30 149 C 16.766 0.731235 -2.91674 0
M  V30 150 C 18.314 0.82473 -3.01939 0
M  V30 151 C 18.789 0.975522 -4.4749 0
M  V30 152 N 20.28 1.04083 -4.51354 0
M  V30 153 C 21.015 1.17646 -5.61201 0
M  V30 154 N 20.511 1.27874 -6.80896 0
M  V30 155 N 22.304 1.20823 -5.48961 0
M  V30 156 H 14.455 -0.575456 -2.04456 0
M  V30 157 H 16.718 -0.196099 -0.927496 0
M  V30 158 H 16.424 -0.138392 -3.51428 0
M  V30 159 H 16.298 1.60883 -3.41169 0
M  V30 160 H 18.685 1.68482 -2.42276 0
M  V30 161 H 18.766 -0.0776479 -2.55682 0
M  V30 162 H 18.41 0.120058 -5.07758 0
M  V30 163 H 18.34 1.89268 -4.91412 0
M  V30 164 H 20.831 0.973846 -3.65136 0
M  V30 165 H 21.144 1.38081 -7.60364 0
M  V30 166 H 19.489 1.24863 -6.83692 0
M  V30 167 H 22.68 1.12469 -4.54388 0
M  V30 168 H 22.853 1.31049 -6.3461 0
M  V30 169 N 16.2591 1.48442 0.529413 0
M  V30 170 C 17.6751 1.34575 0.858004 0
M  V30 171 C 17.8751 0.3572 1.98309 0
M  V30 172 O 16.9311 -0.221379 2.51528 0
M  V30 173 C 18.2441 2.74617 1.22499 0
M  V30 174 C 19.7921 2.83109 1.33484 0
M  V30 175 C 20.2671 4.23854 1.73526 0
M  V30 176 N 21.7581 4.2653 1.80628 0
M  V30 177 C 22.4931 5.32372 2.12997 0
M  V30 178 N 21.9891 6.48491 2.43786 0
M  V30 179 N 23.7821 5.19766 2.14008 0
M  V30 180 H 15.9331 2.1133 -0.212925 0
M  V30 181 H 18.1961 0.947439 -0.0326199 0
M  V30 182 H 17.9021 3.4852 0.471905 0
M  V30 183 H 17.7761 3.08177 2.17501 0
M  V30 184 H 20.1631 2.09462 2.0787 0
M  V30 185 H 20.2441 2.53168 0.366027 0
M  V30 186 H 19.8881 4.98018 0.997013 0
M  V30 187 H 19.8181 4.5124 2.71459 0
M  V30 188 H 22.3091 3.42772 1.59108 0
M  V30 189 H 22.6221 7.24993 2.67592 0
M  V30 190 H 20.9671 6.51765 2.41304 0
M  V30 191 H 24.1581 4.28066 1.89412 0
M  V30 192 H 24.3311 6.02354 2.38902 0
M  V30 193 N 17.7372 -0.778329 1.37039 0
M  V30 194 C 18.6842 -1.89139 1.32269 0
M  V30 195 C 19.6542 -1.65017 0.189387 0
M  V30 196 O 20.8392 -1.87024 0.377693 0
M  V30 197 C 17.9792 -3.26112 1.12894 0
M  V30 198 C 17.0922 -3.62233 2.35396 0
M  V30 199 C 16.2272 -4.8838 2.08946 0
M  V30 200 C 15.2662 -5.17212 3.2735 0
M  V30 201 N 14.4032 -6.34546 3.00492 0
M  V30 202 H 19.2432 -1.92552 2.27437 0
M  V30 203 H 16.7802 -0.941473 1.13025 0
M  V30 204 H 18.7382 -4.05116 0.996835 0
M  V30 205 H 17.3682 -3.22091 0.213758 0
M  V30 206 H 16.4202 -2.78265 2.5937 0
M  V30 207 H 17.7322 -3.79481 3.23721 0
M  V30 208 H 16.8862 -5.75274 1.92729 0
M  V30 209 H 15.6252 -4.73222 1.17949 0
M  V30 210 H 14.6302 -4.28796 3.44113 0
M  V30 211 H 15.8552 -5.34283 4.19188 0
M  V30 212 H 13.8012 -6.20759 2.12118 0
M  V30 213 H 13.7182 -6.52179 3.82358 0
M  V30 214 H 14.9862 -7.24394 2.87879 0
M  V30 215 N 19.2153 -1.21501 -1.00376 0
M  V30 216 C 20.4403 -1.05977 -1.78279 0
M  V30 217 C 20.8653 0.385994 -1.84097 0
M  V30 218 O 20.2233 1.27849 -1.28547 0
M  V30 219 C 20.2713 -1.66302 -3.19963 0
M  V30 220 O 19.3753 -0.909333 -4.0225 0
M  V30 221 H 18.7163 -0.372906 -0.549397 0
M  V30 222 H 21.2463 -1.6107 -1.26165 0
M  V30 223 H 21.2563 -1.70574 -3.70632 0
M  V30 224 H 19.9313 -2.71515 -3.15043 0
M  V30 225 H 18.5083 -0.941795 -3.60811 0
M  V30 226 N 20.6934 1.19889 -1.02296 0
M  V30 227 C 21.9184 1.9393 -0.735237 0
M  V30 228 C 22.3434 1.74639 0.698782 0
M  V30 229 O 21.7014 1.04481 1.48167 0
M  V30 230 C 21.7494 3.43916 -1.08417 0
M  V30 231 O 20.8534 4.11917 -0.199446 0
M  V30 232 H 20.1944 0.605645 -0.272196 0
M  V30 233 H 22.7244 1.52137 -1.36804 0
M  V30 234 H 22.7344 3.9456 -1.03856 0
M  V30 235 H 21.4094 3.5728 -2.12894 0
M  V30 236 H 19.9864 3.71666 -0.303136 0
M  V30 237 N 22.1715 0.800033 1.35784 0
M  V30 238 C 23.1345 0.211565 2.28221 0
M  V30 239 C 24.1345 -0.59728 1.49296 0
M  V30 240 O 25.3245 -0.416721 1.69142 0
M  V30 241 C 22.4565 -0.705846 3.33513 0
M  V30 242 H 23.6495 1.02677 2.81776 0
M  V30 243 H 21.2025 0.570211 1.45528 0
M  V30 244 H 21.9375 -1.54498 2.85133 0
M  V30 245 H 21.7225 -0.127655 3.91892 0
M  V30 246 H 23.2125 -1.11211 4.02519 0
M  V30 247 N 23.6496 -1.47581 0.552962 0
M  V30 248 C 24.6126 -2.28439 -0.186605 0
M  V30 249 C 25.6126 -1.36706 -0.84665 0
M  V30 250 O 26.8026 -1.59378 -0.703164 0
M  V30 251 C 23.9346 -3.16264 -1.2724 0
M  V30 252 H 25.1276 -2.95294 0.523609 0
M  V30 253 H 22.6806 -1.532 0.309745 0
M  V30 254 H 23.4156 -2.54091 -2.01514 0
M  V30 255 H 23.2006 -3.83769 -0.803968 0
M  V30 256 H 24.6906 -3.77198 -1.79196 0
M  V30 257 N 25.1277 -0.289203 -1.54924 0
M  V30 258 C 26.5437 0.0645403 -1.59469 0
M  V30 259 C 26.7437 1.53419 -1.30632 0
M  V30 260 O 25.7997 2.2852 -1.074 0
M  V30 261 C 27.1127 -0.32278 -2.98963 0
M  V30 262 C 28.6607 -0.270564 -3.11828 0
M  V30 263 C 29.1357 -0.632532 -4.53611 0
M  V30 264 N 30.6267 -0.584617 -4.59496 0
M  V30 265 C 31.3617 -0.837314 -5.67254 0
M  V30 266 N 30.8577 -1.15536 -6.83098 0
M  V30 267 N 32.6507 -0.765166 -5.56868 0
M  V30 268 H 24.8017 -1.24714 -1.71931 0
M  V30 269 H 27.0647 -0.504809 -0.802416 0
M  V30 270 H 26.7707 -1.34541 -3.24948 0
M  V30 271 H 26.6447 0.32944 -3.75759 0
M  V30 272 H 29.0317 0.742805 -2.85598 0
M  V30 273 H 29.1127 -0.957242 -2.37214 0
M  V30 274 H 28.7567 -1.64365 -4.80569 0
M  V30 275 H 28.6867 0.07609 -5.26545 0
M  V30 276 H 31.1777 -0.349248 -3.76283 0
M  V30 277 H 31.4907 -1.33447 -7.61191 0
M  V30 278 H 29.8357 -1.19328 -6.84679 0
M  V30 279 H 33.0267 -0.516432 -4.65243 0
M  V30 280 H 33.1997 -0.965477 -6.40767 0
M  V30 281 N 26.6058 1.57591 -0.0167156 0
M  V30 282 C 27.8518 1.91567 0.665582 0
M  V30 283 C 28.1848 0.892298 1.72487 0
M  V30 284 O 27.4598 -0.0867127 1.94307 0
M  V30 285 C 27.7428 3.36069 1.29342 0
M  V30 286 C 27.5958 4.49135 0.244541 0
M  V30 287 C 28.9148 3.803 2.21495 0
M  V30 288 H 26.0338 0.69666 0.240488 0
M  V30 289 H 28.6758 1.89866 -0.0714356 0
M  V30 290 H 26.8258 3.3765 1.92158 0
M  V30 291 H 28.4978 4.59689 -0.385228 0
M  V30 292 H 26.7408 4.3165 -0.431379 0
M  V30 293 H 27.4118 5.47242 0.723207 0
M  V30 294 H 29.8878 3.80377 1.68678 0
M  V30 295 H 28.7638 4.82127 2.62382 0
M  V30 296 H 29.0248 3.15104 3.101 0
M  V30 297 N 28.0839 -0.256276 1.55502 0
M  V30 298 C 29.3309 -0.985619 1.76895 0
M  V30 299 C 29.6589 -1.85671 0.579355 0
M  V30 300 O 28.9139 -1.90744 -0.437651 0
M  V30 301 C 29.2129 -1.88432 3.03691 0
M  V30 302 C 28.8789 -1.16936 4.35473 0
M  V30 303 C 27.5409 -0.97173 4.71286 0
M  V30 304 C 29.8929 -0.661889 5.1698 0
M  V30 305 C 27.2209 -0.254179 5.86149 0
M  V30 306 C 29.5729 0.042149 6.32586 0
M  V30 307 C 28.2369 0.25134 6.67027 0
M  V30 308 H 27.5069 -0.360663 0.647304 0
M  V30 309 H 30.1539 -0.256483 1.89775 0
M  V30 310 H 28.4589 -2.68021 2.85783 0
M  V30 311 H 30.1559 -2.45015 3.1744 0
M  V30 312 H 26.7459 -1.33332 4.07333 0
M  V30 313 H 30.9299 -0.802145 4.89775 0
M  V30 314 H 26.1859 -0.0815408 6.11346 0
M  V30 315 H 30.3599 0.443049 6.94989 0
M  V30 316 H 27.9869 0.809314 7.5588 0
M  V30 317 N 29.562 -1.4872 -0.521534 0
M  V30 318 C 30.811 -1.56419 -1.27341 0
M  V30 319 C 31.124 -0.246805 -1.94037 0
M  V30 320 O 32.33 -0.202122 -2.70747 0
M  V30 321 C 30.786 -2.75896 -2.31105 0
M  V30 322 C 30.394 -4.14311 -1.70441 0
M  V30 323 C 32.138 -2.92913 -3.07249 0
M  V30 324 C 30.045 -5.25038 -2.72194 0
M  V30 325 H 28.975 -0.582344 -0.478949 0
M  V30 326 H 31.626 -1.75071 -0.549779 0
M  V30 327 H 30.008 -2.50697 -3.06541 0
M  V30 328 H 31.182 -4.49564 -1.01136 0
M  V30 329 H 29.497 -4.02482 -1.06759 0
M  V30 330 H 32.094 -3.72805 -3.83302 0
M  V30 331 H 32.437 -2.02689 -3.63625 0
M  V30 332 H 32.97 -3.18054 -2.38928 0
M  V30 333 H 29.709 -6.17255 -2.20627 0
M  V30 334 H 29.229 -4.94263 -3.39801 0
M  V30 335 H 30.908 -5.53508 -3.35019 0
M  V30 336 N 31.0401 0.771051 -1.3745 0
M  V30 337 C 31.9871 1.88435 -1.3327 0
M  V30 338 C 32.9571 1.64914 -0.198136 0
M  V30 339 O 34.1421 1.86821 -0.387606 0
M  V30 340 C 31.2821 3.25509 -1.14622 0
M  V30 341 C 30.3951 3.60979 -2.37314 0
M  V30 342 C 29.5301 4.87265 -2.11533 0
M  V30 343 C 28.5691 5.15469 -3.30088 0
M  V30 344 N 27.7061 6.32944 -3.03853 0
M  V30 345 H 32.5461 1.91344 -2.28455 0
M  V30 346 H 30.0831 0.935466 -1.13523 0
M  V30 347 H 32.0411 4.04582 -1.01831 0
M  V30 348 H 30.6711 3.21974 -0.230837 0
M  V30 349 H 29.7231 2.76885 -2.60842 0
M  V30 350 H 31.0351 3.77759 -3.25729 0
M  V30 351 H 30.1891 5.74244 -1.95777 0
M  V30 352 H 28.9281 4.7259 -1.20457 0
M  V30 353 H 27.9331 4.26966 -3.46382 0
M  V30 354 H 29.1581 5.32052 -4.22016 0
M  V30 355 H 27.1041 6.19625 -2.15407 0
M  V30 356 H 27.0211 6.50143 -3.85812 0
M  V30 357 H 28.2891 7.22857 -2.91716 0
M  V30 358 N 32.5182 1.22032 0.997298 0
M  V30 359 C 33.9292 1.0397 1.55071 0
M  V30 360 C 34.2802 -0.398192 1.92117 0
M  V30 361 O 33.4052 -1.28254 1.74298 0
M  V30 362 C 34.0002 1.88109 2.81781 0
M  V30 363 C 32.5592 1.74357 3.33581 0
M  V30 364 C 31.7062 1.84846 2.06706 0
M  V30 365 H 34.6572 1.35941 0.818883 0
M  V30 366 H 34.6782 1.39589 3.53971 0
M  V30 367 H 34.1902 2.92754 2.54787 0
M  V30 368 H 32.2912 0.72427 3.65493 0
M  V30 369 H 32.4042 2.56772 4.04481 0
M  V30 370 H 30.7682 1.28238 2.20062 0
M  V30 371 H 31.5512 2.91014 1.82114 0
M  V30 372 N 33.9963 -1.19345 1.0293 0
M  V30 373 C 35.2443 -1.88665 0.724574 0
M  V30 374 C 35.5653 -1.80036 -0.749144 0
M  V30 375 O 34.8353 -1.2111 -1.53978 0
M  V30 376 H 33.4153 -0.698406 0.265025 0
M  V30 377 H 36.0773 -1.44885 1.30362 0
M  V30 378 H 35.1733 -2.94987 1.01926 0
M  V30 379 N 35.4744 -0.807222 -1.35358 0
M  V30 380 C 36.4224 -0.20614 -2.31685 0
M  V30 381 C 37.4164 0.644445 -1.56663 0
M  V30 382 O 38.6224 0.537538 -1.71786 0
M  V30 383 H 34.9974 -0.0479006 -0.750473 0
M  V30 384 H 36.9684 -1.03369 -2.79924 0
M  V30 385 C 35.7174 0.630212 -3.41941 0
M  V30 386 H 35.0404 -0.0149558 -3.99797 0
M  V30 387 H 36.4804 1.01716 -4.11619 0
M  V30 388 C 34.9394 1.79601 -2.85035 0
M  V30 389 O 35.4694 2.89351 -2.78637 0
M  V30 390 N 33.6754 1.60774 -2.42074 0
M  V30 391 H 33.2224 0.715009 -2.47478 0
M  V30 392 H 33.1804 2.38933 -2.04349 0
M  V30 393 N 36.9525 1.47285 -0.560781 0
M  V30 394 C 38.2005 2.02064 -0.0379868 0
M  V30 395 C 38.5215 1.43711 1.31803 0
M  V30 396 O 37.7915 0.61362 1.86042 0
M  V30 397 H 36.3715 0.746918 -0.0110531 0
M  V30 398 H 39.0335 1.80648 -0.731598 0
M  V30 399 H 38.1295 3.12064 0.0474463 0
M  V30 400 N 38.4306 0.297415 1.54768 0
M  V30 401 C 39.3776 -0.580276 2.23386 0
M  V30 402 C 40.3476 -1.13238 1.21517 0
M  V30 403 O 41.5326 -1.17757 1.50126 0
M  V30 404 C 38.6726 -1.74801 2.97555 0
M  V30 405 C 37.7856 -1.22764 4.1419 0
M  V30 406 C 36.9206 -2.35895 4.75949 0
M  V30 407 C 35.9596 -1.80974 5.84735 0
M  V30 408 N 35.0966 -2.87664 6.40464 0
M  V30 409 H 39.9366 0.0114833 2.97998 0
M  V30 410 H 37.4736 0.0174361 1.4709 0
M  V30 411 H 39.4316 -2.43475 3.38786 0
M  V30 412 H 38.0616 -2.31145 2.25326 0
M  V30 413 H 37.1136 -0.433271 3.77924 0
M  V30 414 H 38.4256 -0.785551 4.92575 0
M  V30 415 H 37.5796 -3.12523 5.20014 0
M  V30 416 H 36.3186 -2.83429 3.96887 0
M  V30 417 H 35.3236 -1.02834 5.40097 0
M  V30 418 H 36.5486 -1.34348 6.65678 0
M  V30 419 H 34.4946 -3.34538 5.64287 0
M  V30 420 H 34.4116 -2.4794 7.14186 0
M  V30 421 H 35.6796 -3.642 6.89187 0
M  V30 422 N 39.9087 -1.5758 0.0250728 0
M  V30 423 C 41.1577 -1.90811 -0.653767 0
M  V30 424 C 41.4707 -0.90273 -1.73523 0
M  V30 425 O 42.6767 -1.12614 -2.47043 0
M  V30 426 C 41.1327 -3.38804 -1.21409 0
M  V30 427 C 40.7407 -4.47692 -0.166126 0
M  V30 428 C 42.4847 -3.81108 -1.86967 0
M  V30 429 C 40.3917 -5.86779 -0.737856 0
M  V30 430 H 39.3217 -0.712063 -0.247956 0
M  V30 431 H 41.9727 -1.83281 0.0897137 0
M  V30 432 H 40.3547 -3.41252 -2.00905 0
M  V30 433 H 41.5287 -4.56797 0.606079 0
M  V30 434 H 39.8437 -4.14565 0.390466 0
M  V30 435 H 42.4407 -4.82375 -2.30692 0
M  V30 436 H 42.7837 -3.15953 -2.71071 0
M  V30 437 H 43.3167 -3.81065 -1.14167 0
M  V30 438 H 40.0557 -6.55468 0.0649577 0
M  V30 439 H 39.5757 -5.81288 -1.47864 0
M  V30 440 H 41.2547 -6.35223 -1.22884 0
M  V30 441 N 41.3868 0.248026 -1.55636 0
M  V30 442 C 42.6328 0.97767 -1.77678 0
M  V30 443 C 42.9658 1.85016 -0.590135 0
M  V30 444 O 42.2408 1.90095 0.411611 0
M  V30 445 C 42.5238 1.83914 -3.09593 0
M  V30 446 C 42.3768 0.99491 -4.38659 0
M  V30 447 C 43.6958 2.82183 -3.37729 0
M  V30 448 H 40.8148 0.354005 -0.646413 0
M  V30 449 H 43.4568 0.248253 -1.88371 0
M  V30 450 H 41.6068 2.46104 -3.00608 0
M  V30 451 H 43.2788 0.391789 -4.59633 0
M  V30 452 H 41.5218 0.299231 -4.32767 0
M  V30 453 H 42.1928 1.63145 -5.2734 0
M  V30 454 H 44.6688 2.30129 -3.4667 0
M  V30 455 H 43.5448 3.39582 -4.31249 0
M  V30 456 H 43.8058 3.58588 -2.58586 0
M  V30 457 N 42.8649 1.48995 0.513639 0
M  V30 458 C 44.1139 1.57093 1.2651 0
M  V30 459 C 44.4269 0.257091 1.93903 0
M  V30 460 O 45.6329 0.216478 2.70636 0
M  V30 461 C 44.0889 2.77118 2.29638 0
M  V30 462 C 43.6969 4.15209 1.68241 0
M  V30 463 C 45.4409 2.94538 3.05692 0
M  V30 464 C 43.3479 5.26474 2.69406 0
M  V30 465 H 42.2779 0.584876 0.475854 0
M  V30 466 H 44.9289 1.7536 0.540487 0
M  V30 467 H 43.3109 2.52319 3.05207 0
M  V30 468 H 44.4849 4.50094 0.987505 0
M  V30 469 H 42.7999 4.03042 1.04623 0
M  V30 470 H 45.3969 3.74832 3.8132 0
M  V30 471 H 45.7399 2.04614 3.62545 0
M  V30 472 H 46.2729 3.19316 2.37238 0
M  V30 473 H 43.0119 6.18417 2.17351 0
M  V30 474 H 42.5319 4.96058 3.37175 0
M  V30 475 H 44.2109 5.55277 3.32078 0
M  V30 476 N 44.343 -0.763751 1.37857 0
M  V30 477 C 45.291 -1.89864 1.34367 0
M  V30 478 C 46.285 -1.67816 0.231143 0
M  V30 479 O 47.491 -1.75508 0.399617 0
M  V30 480 H 43.866 -0.624501 0.41893 0
M  V30 481 H 45.837 -1.89925 2.30155 0
M  V30 482 C 44.586 -3.27227 1.1755 0
M  V30 483 H 43.909 -3.44773 2.02414 0
M  V30 484 H 45.349 -4.06911 1.1916 0
M  V30 485 C 43.808 -3.36692 -0.118311 0
M  V30 486 O 44.338 -3.86374 -1.09902 0
M  V30 487 N 42.544 -2.90092 -0.171717 0
M  V30 488 H 42.091 -2.49853 0.627012 0
M  V30 489 H 42.049 -2.96806 -1.03699 0
M  V30 490 N 45.8211 -1.22559 -0.990812 0
M  V30 491 C 46.7531 -0.955325 -2.08342 0
M  V30 492 C 47.7661 0.0668408 -1.62663 0
M  V30 493 O 48.9551 -0.167421 -1.77713 0
M  V30 494 C 46.0551 -0.415566 -3.36342 0
M  V30 495 C 45.2281 -1.49544 -4.11042 0
M  V30 496 C 44.2871 -0.962399 -5.17324 0
M  V30 497 O 43.3131 -1.64907 -5.44788 0
M  V30 498 N 44.5151 0.215134 -5.80101 0
M  V30 499 H 47.2801 -1.89596 -2.32106 0
M  V30 500 H 44.8411 -1.13276 -1.15673 0
M  V30 501 H 46.8331 -0.0442386 -4.04676 0
M  V30 502 H 45.4031 0.430232 -3.09625 0
M  V30 503 H 44.6231 -2.04 -3.37309 0
M  V30 504 H 45.9111 -2.22195 -4.57719 0
M  V30 505 H 45.3091 0.789779 -5.6016 0
M  V30 506 H 43.8661 0.527826 -6.49659 0
M  V30 507 N 47.2992 1.18797 -1.03562 0
M  V30 508 C 48.7152 1.40671 -0.753917 0
M  V30 509 C 48.9152 1.9043 0.658686 0
M  V30 510 O 47.9712 2.08538 1.42366 0
M  V30 511 C 49.2842 2.41192 -1.79574 0
M  V30 512 C 50.8322 2.54928 -1.81606 0
M  V30 513 C 51.3072 3.58709 -2.84766 0
M  V30 514 N 52.7982 3.66212 -2.83625 0
M  V30 515 C 53.5332 4.46225 -3.60098 0
M  V30 516 N 53.0292 5.29888 -4.46308 0
M  V30 517 N 54.8222 4.40939 -3.4861 0
M  V30 518 H 46.9732 0.848221 -1.94728 0
M  V30 519 H 49.2362 0.435081 -0.842264 0
M  V30 520 H 48.9422 2.11669 -2.80872 0
M  V30 521 H 48.8162 3.40467 -1.62365 0
M  V30 522 H 51.2032 2.83771 -0.809817 0
M  V30 523 H 51.2842 1.55784 -2.02891 0
M  V30 524 H 50.9282 3.30607 -3.85566 0
M  V30 525 H 50.8582 4.57519 -2.60737 0
M  V30 526 H 53.3492 3.06466 -2.21105 0
M  V30 527 H 53.6622 5.88078 -5.01382 0
M  V30 528 H 52.0072 5.29326 -4.50377 0
M  V30 529 H 55.1982 3.74624 -2.80668 0
M  V30 530 H 55.3712 5.03056 -4.08459 0
M  V30 531 N 48.7773 0.814389 1.34928 0
M  V30 532 C 50.0023 0.410097 2.03305 0
M  V30 533 C 50.4273 -0.973464 1.60951 0
M  V30 534 O 49.7853 -1.63185 0.789964 0
M  V30 535 C 49.8333 0.51049 3.56968 0
M  V30 536 O 48.9373 -0.473035 4.09678 0
M  V30 537 H 48.2783 0.170088 0.641846 0
M  V30 538 H 50.8083 1.10244 1.72358 0
M  V30 539 H 50.8183 0.383135 4.06197 0
M  V30 540 H 49.4933 1.51963 3.87144 0
M  V30 541 H 48.0703 -0.305272 3.71648 0
M  V30 542 N 50.2554 -1.46986 0.568584 0
M  V30 543 C 51.1854 -2.32946 -0.160753 0
M  V30 544 C 52.1664 -1.44487 -0.897631 0
M  V30 545 O 53.3514 -1.73327 -0.875867 0
M  V30 546 C 50.4814 -3.26494 -1.18403 0
M  V30 547 C 49.4354 -4.24282 -0.562895 0
M  V30 548 C 48.7614 -5.07236 -1.69163 0
M  V30 549 C 50.0614 -5.19989 0.490761 0
M  V30 550 H 51.7554 -2.94175 0.556916 0
M  V30 551 H 49.3014 -1.4146 0.26927 0
M  V30 552 H 51.2544 -3.85477 -1.70251 0
M  V30 553 H 49.9784 -2.63343 -1.93179 0
M  V30 554 H 48.6374 -3.66541 -0.0656164 0
M  V30 555 H 48.2854 -4.4048 -2.42871 0
M  V30 556 H 47.9854 -5.7345 -1.28174 0
M  V30 557 H 49.5094 -5.6908 -2.21314 0
M  V30 558 H 50.9234 -5.73271 0.0579047 0
M  V30 559 H 49.3204 -5.94469 0.820165 0
M  V30 560 H 50.3904 -4.64777 1.3824 0
M  V30 561 N 51.7335 -0.305618 -1.54608 0
M  V30 562 C 52.6435 0.57778 -2.27374 0
M  V30 563 C 53.6595 1.14451 -1.31061 0
M  V30 564 O 54.8355 1.16831 -1.6405 0
M  V30 565 C 51.9005 1.73123 -3.00382 0
M  V30 566 C 50.9615 1.19812 -4.12242 0
M  V30 567 C 50.1945 2.2966 -4.81759 0
M  V30 568 O 50.4175 3.49651 -4.50666 0
M  V30 569 O 49.3515 1.96091 -5.69062 0
M  V30 570 H 53.1775 -0.012624 -3.03697 0
M  V30 571 H 50.7625 -0.0719184 -1.49227 0
M  V30 572 H 52.6445 2.40315 -3.4616 0
M  V30 573 H 51.3195 2.30815 -2.26949 0
M  V30 574 H 50.2265 0.491798 -3.70853 0
M  V30 575 H 51.5595 0.666566 -4.87666 0
M  V30 576 N 53.2116 1.57565 -0.0334293 0
M  V30 577 C 54.1436 2.0739 0.975811 0
M  V30 578 C 55.1566 0.998166 1.2861 0
M  V30 579 O 56.3456 1.27426 1.25 0
M  V30 580 C 53.4456 2.4871 2.30209 0
M  V30 581 C 52.6186 3.79413 2.17634 0
M  V30 582 C 51.6776 4.07237 3.33233 0
M  V30 583 O 50.7036 4.77425 3.09927 0
M  V30 584 N 51.9056 3.5775 4.5716 0
M  V30 585 H 54.6706 2.94598 0.55066 0
M  V30 586 H 52.2316 1.61173 0.15323 0
M  V30 587 H 54.2236 2.64413 3.06378 0
M  V30 588 H 52.7936 1.66845 2.64351 0
M  V30 589 H 52.0136 3.73465 1.26165 0
M  V30 590 H 53.3016 4.65038 2.0644 0
M  V30 591 H 52.6996 3.00976 4.78989 0
M  V30 592 H 51.2566 3.78724 5.30482 0
M  V30 593 N 54.6897 -0.239769 1.55765 0
M  V30 594 C 55.9197 -0.982743 1.8173 0
M  V30 595 C 56.3277 -1.7917 0.607835 0
M  V30 596 O 55.6707 -1.78525 -0.432973 0
M  V30 597 C 55.7327 -1.96332 3.01155 0
M  V30 598 C 55.3967 -1.34062 4.36894 0
M  V30 599 C 56.3937 -0.739539 5.14613 0
M  V30 600 C 54.0787 -1.35784 4.83599 0
M  V30 601 C 56.0727 -0.163989 6.37189 0
M  V30 602 C 53.7597 -0.778441 6.06122 0
M  V30 603 C 54.7577 -0.182548 6.82756 0
M  V30 604 O 54.4457 0.387887 8.02964 0
M  V30 605 H 54.1777 -0.294481 0.608487 0
M  V30 606 H 56.7317 -0.26572 2.03674 0
M  V30 607 H 54.9617 -2.71884 2.74984 0
M  V30 608 H 56.6507 -2.57032 3.14149 0
M  V30 609 H 57.4167 -0.718687 4.79646 0
M  V30 610 H 53.2957 -1.81105 4.23936 0
M  V30 611 H 56.8397 0.301753 6.96947 0
M  V30 612 H 52.7367 -0.796645 6.40565 0
M  V30 613 H 53.5047 0.28044 8.18019 0
M  V30 614 N 56.1678 -1.49265 -0.50573 0
M  V30 615 C 57.4148 -1.58513 -1.26015 0
M  V30 616 C 57.7428 -0.26972 -1.92621 0
M  V30 617 O 56.9978 0.741997 -1.81088 0
M  V30 618 C 57.2968 -2.69008 -2.35308 0
M  V30 619 C 56.9628 -4.10662 -1.86192 0
M  V30 620 C 55.6248 -4.49212 -1.72516 0
M  V30 621 C 57.9768 -4.99336 -1.49375 0
M  V30 622 C 55.3048 -5.74214 -1.20394 0
M  V30 623 C 57.6568 -6.24852 -0.987072 0
M  V30 624 C 56.3208 -6.62236 -0.836669 0
M  V30 625 H 55.5908 -0.580041 -0.461122 0
M  V30 626 H 58.2378 -1.83078 -0.561665 0
M  V30 627 H 56.5428 -2.38396 -3.10926 0
M  V30 628 H 58.2398 -2.73373 -2.93374 0
M  V30 629 H 54.8298 -3.8023 -1.97795 0
M  V30 630 H 59.0138 -4.70212 -1.5879 0
M  V30 631 H 54.2698 -6.01883 -1.07458 0
M  V30 632 H 58.4438 -6.92944 -0.692983 0
M  V30 633 H 56.0708 -7.58979 -0.430607 0
M  V30 634 N 57.6459 0.756429 -1.3826 0
M  V30 635 C 58.8939 1.51248 -1.34047 0
M  V30 636 C 59.2149 1.94875 0.0698372 0
M  V30 637 O 58.4849 1.67436 1.01696 0
M  V30 638 H 57.0649 0.561018 -0.493222 0
M  V30 639 H 59.7269 0.899347 -1.7291 0
M  V30 640 H 58.8229 2.40472 -1.98947 0
M  V30 641 N 59.124 1.23083 0.984299 0
M  V30 642 C 60.54 0.992637 1.24975 0
M  V30 643 C 60.74 -0.308618 1.99123 0
M  V30 644 O 59.796 -1.02905 2.30579 0
M  V30 645 C 61.109 2.19698 2.05312 0
M  V30 646 C 62.657 2.24147 2.18465 0
M  V30 647 C 63.132 3.44157 3.02192 0
M  V30 648 N 64.623 3.44372 3.09777 0
M  V30 649 C 65.358 4.33886 3.74874 0
M  V30 650 N 64.854 5.3363 4.41827 0
M  V30 651 N 66.647 4.21639 3.71721 0
M  V30 652 H 58.798 2.06731 0.487453 0
M  V30 653 H 61.061 0.906339 0.277944 0
M  V30 654 H 60.767 3.1411 1.58201 0
M  V30 655 H 60.641 2.20465 3.06064 0
M  V30 656 H 63.028 1.30277 2.64786 0
M  V30 657 H 63.109 2.27415 1.17115 0
M  V30 658 H 62.753 4.38332 2.56568 0
M  V30 659 H 62.683 3.3813 4.03702 0
M  V30 660 H 65.174 2.72201 2.62135 0
M  V30 661 H 65.487 5.98196 4.89266 0
M  V30 662 H 63.832 5.37534 4.40548 0
M  V30 663 H 67.023 3.42962 3.18582 0
M  V30 664 H 67.196 4.91604 4.22173 0
M  V30 665 N 60.6021 -1.18246 1.0419 0
M  V30 666 C 61.5121 -2.25574 0.644476 0
M  V30 667 C 62.5281 -1.70845 -0.329826 0
M  V30 668 O 63.7041 -2.00554 -0.184443 0
M  V30 669 C 60.7691 -3.46697 0.014877 0
M  V30 670 C 59.8301 -4.16554 1.03834 0
M  V30 671 C 59.0631 -5.31894 0.438692 0
M  V30 672 O 59.2861 -5.65385 -0.754752 0
M  V30 673 O 58.2201 -5.90459 1.168 0
M  V30 674 H 62.0461 -2.61836 1.53869 0
M  V30 675 H 59.6311 -1.25352 0.812854 0
M  V30 676 H 61.5131 -4.20062 -0.335538 0
M  V30 677 H 60.1881 -3.12255 -0.853138 0
M  V30 678 H 59.0951 -3.45251 1.44057 0
M  V30 679 H 60.4281 -4.54998 1.87716 0
M  V30 680 N 62.0802 -0.821533 -1.34494 0
M  V30 681 C 63.3082 -0.421884 -2.02553 0
M  V30 682 C 63.7232 0.971745 -1.61872 0
M  V30 683 O 63.0802 1.62864 -0.823496 0
M  V30 684 C 63.1312 -0.51285 -3.57844 0
M  V30 685 O 62.8522 -1.85155 -3.97051 0
M  V30 686 C 64.3532 -0.107921 -4.43169 0
M  V30 687 H 61.5732 -0.169482 -0.649243 0
M  V30 688 H 64.1172 -1.1093 -1.71798 0
M  V30 689 H 62.2722 0.126474 -3.87193 0
M  V30 690 H 62.6862 -1.82482 -4.91732 0
M  V30 691 H 64.1602 -0.222657 -5.51551 0
M  V30 692 H 64.6372 0.948401 -4.28838 0
M  V30 693 H 65.2432 -0.720989 -4.19144 0
M  V30 694 N 63.5583 1.46682 -0.576371 0
M  V30 695 C 64.5213 2.28707 0.150239 0
M  V30 696 C 65.5213 1.38035 0.824794 0
M  V30 697 O 66.7113 1.60476 0.677719 0
M  V30 698 C 63.8433 3.18248 1.22192 0
M  V30 699 H 65.0363 2.94423 -0.570521 0
M  V30 700 H 62.5893 1.52688 -0.334078 0
M  V30 701 H 63.3243 2.57265 1.97447 0
M  V30 702 H 63.1093 3.85 0.742812 0
M  V30 703 H 64.5993 3.80001 1.73172 0
M  V30 704 N 65.0364 0.313813 1.54444 0
M  V30 705 C 66.4524 -0.0391619 1.59552 0
M  V30 706 C 66.6524 -1.51322 1.33056 0
M  V30 707 O 65.7084 -2.26782 1.11022 0
M  V30 708 C 67.0214 0.370302 2.98411 0
M  V30 709 C 68.5694 0.320139 3.11358 0
M  V30 710 C 69.0444 0.704617 4.52547 0
M  V30 711 N 70.5354 0.657645 4.58508 0
M  V30 712 C 71.2704 0.927453 5.6585 0
M  V30 713 N 70.7664 1.26389 6.81174 0
M  V30 714 N 72.5594 0.853662 5.5558 0
M  V30 715 H 64.7104 1.27433 1.69925 0
M  V30 716 H 66.9734 0.517511 0.794284 0
M  V30 717 H 66.6794 1.39694 3.22767 0
M  V30 718 H 66.5534 -0.269619 3.76235 0
M  V30 719 H 68.9404 -0.697275 2.86744 0
M  V30 720 H 69.0214 0.99486 2.35661 0
M  V30 721 H 68.6654 1.7199 4.77893 0
M  V30 722 H 68.5954 0.00768843 5.26599 0
M  V30 723 H 71.0864 0.409067 3.75679 0
M  V30 724 H 71.3994 1.4554 7.58972 0
M  V30 725 H 69.7444 1.30206 6.82694 0
M  V30 726 H 72.9354 0.590383 4.64362 0
M  V30 727 H 73.1084 1.0673 6.3915 0
M  V30 728 N 66.5145 -1.57545 0.0417849 0
M  V30 729 C 67.4475 -2.06514 -0.970928 0
M  V30 730 C 68.4255 -0.963607 -1.30971 0
M  V30 731 O 69.6095 -1.23486 -1.4242 0
M  V30 732 C 66.7365 -2.4978 -2.28752 0
M  V30 733 C 65.7825 -3.71078 -2.10246 0
M  V30 734 S 66.6155 -5.17158 -1.38952 0
M  V30 735 C 67.7715 -5.6373 -2.71954 0
M  V30 736 H 68.0045 -2.9209 -0.554129 0
M  V30 737 H 65.5375 -1.53459 -0.17024 0
M  V30 738 H 67.4955 -2.75371 -3.04435 0
M  V30 739 H 66.1565 -1.64527 -2.67562 0
M  V30 740 H 65.3495 -3.9924 -3.07609 0
M  V30 741 H 64.9515 -3.45705 -1.42704 0
M  V30 742 H 67.2435 -5.68743 -3.68154 0
M  V30 743 H 68.1865 -6.63086 -2.4844 0
M  V30 744 H 68.5945 -4.91424 -2.77782 0
M  V30 745 N 67.9926 0.231505 -1.5589 0
M  V30 746 C 69.2386 0.95877 -1.78705 0
M  V30 747 C 69.5716 1.8438 -0.609725 0
M  V30 748 O 68.8466 1.90521 0.391426 0
M  V30 749 C 69.1296 1.8062 -3.11526 0
M  V30 750 C 68.9826 0.948328 -4.39689 0
M  V30 751 C 70.3016 2.78585 -3.40703 0
M  V30 752 H 67.4206 0.347129 -0.650131 0
M  V30 753 H 70.0626 0.228259 -1.88624 0
M  V30 754 H 68.2126 2.42902 -3.03201 0
M  V30 755 H 69.8846 0.343016 -4.60023 0
M  V30 756 H 68.1276 0.253314 -4.3306 0
M  V30 757 H 68.7986 1.57543 -5.29041 0
M  V30 758 H 71.2746 2.26439 -3.49091 0
M  V30 759 H 70.1506 3.34988 -4.34826 0
M  V30 760 H 70.4116 3.55825 -2.62375 0
M  V30 761 N 69.4707 1.49531 0.497807 0
M  V30 762 C 70.7167 1.59415 1.25358 0
M  V30 763 C 71.0497 0.281422 1.9215 0
M  V30 764 O 70.3247 -0.715249 1.80871 0
M  V30 765 C 70.6077 2.75566 2.3181 0
M  V30 766 C 70.4607 4.16642 1.69498 0
M  V30 767 C 71.7797 2.87347 3.33346 0
M  V30 768 H 68.8987 0.580244 0.454408 0
M  V30 769 H 71.5407 1.81827 0.551262 0
M  V30 770 H 69.6907 2.56587 2.91711 0
M  V30 771 H 71.3627 4.47145 1.13399 0
M  V30 772 H 69.6057 4.22141 0.998978 0
M  V30 773 H 70.2767 4.93792 2.46725 0
M  V30 774 H 72.7527 3.04634 2.83438 0
M  V30 775 H 71.6287 3.70289 4.05188 0
M  V30 776 H 71.8897 1.96834 3.95865 0
M  V30 777 N 70.9488 -0.749086 1.3866 0
M  V30 778 C 72.3648 -1.05276 1.19955 0
M  V30 779 C 72.5648 -2.01435 0.05134 0
M  V30 780 O 71.6208 -2.45232 -0.60147 0
M  V30 781 C 72.9338 -1.62853 2.52783 0
M  V30 782 C 74.4818 -1.75002 2.59506 0
M  V30 783 C 74.9568 -2.35991 3.92521 0
M  V30 784 N 76.4478 -2.43416 3.94085 0
M  V30 785 C 77.1828 -2.91511 4.9377 0
M  V30 786 N 76.6788 -3.39608 6.03853 0
M  V30 787 N 78.4718 -2.90592 4.81157 0
M  V30 788 H 70.6228 -0.111066 2.12109 0
M  V30 789 H 72.8858 -0.111901 0.941373 0
M  V30 790 H 72.5918 -0.99664 3.37283 0
M  V30 791 H 72.4658 -2.61854 2.715 0
M  V30 792 H 74.8528 -2.37317 1.75398 0
M  V30 793 H 74.9338 -0.74693 2.44652 0
M  V30 794 H 74.5778 -1.74308 4.77053 0
M  V30 795 H 74.5078 -3.3695 4.04688 0
M  V30 796 H 76.9988 -2.09405 3.14576 0
M  V30 797 H 77.3118 -3.74775 6.75843 0
M  V30 798 H 75.6568 -3.37653 6.07466 0
M  V30 799 H 78.8478 -2.52332 3.94267 0
M  V30 800 H 79.0208 -3.27762 5.58996 0
M  V30 801 N 72.4269 -1.23603 -0.977757 0
M  V30 802 C 73.3589 -0.977369 -2.07317 0
M  V30 803 C 74.3719 0.0495845 -1.62724 0
M  V30 804 O 75.5609 -0.186261 -1.77526 0
M  V30 805 C 72.6609 -0.451216 -3.35883 0
M  V30 806 C 71.8339 -1.53896 -4.09432 0
M  V30 807 C 70.8929 -1.01721 -5.16274 0
M  V30 808 O 69.9189 -1.70676 -5.43009 0
M  V30 809 N 71.1209 0.153594 -5.80297 0
M  V30 810 H 73.8859 -1.92047 -2.30082 0
M  V30 811 H 71.4469 -1.14497 -1.14465 0
M  V30 812 H 73.4389 -0.0871574 -4.04606 0
M  V30 813 H 72.0089 0.397368 -3.10064 0
M  V30 814 H 71.2289 -2.07566 -3.35127 0
M  V30 815 H 72.5169 -2.27037 -4.55337 0
M  V30 816 H 71.9149 0.730323 -5.60966 0
M  V30 817 H 70.4719 0.458892 -6.50183 0
M  V30 818 N 73.905 1.17692 -1.04816 0
M  V30 819 C 75.316 1.69501 -0.782698 0
M  V30 820 C 75.667 1.83456 0.695577 0
M  V30 821 O 74.792 1.51942 1.54086 0
M  V30 822 C 75.387 3.07874 -1.41419 0
M  V30 823 C 73.946 3.56864 -1.19686 0
M  V30 824 C 73.093 2.3322 -1.50012 0
M  V30 825 H 76.044 1.02262 -1.2136 0
M  V30 826 H 76.065 3.71528 -0.821428 0
M  V30 827 H 75.577 2.97685 -2.49009 0
M  V30 828 H 73.678 3.72337 -0.140043 0
M  V30 829 H 73.791 4.39851 -1.89916 0
M  V30 830 H 72.155 2.37501 -0.920071 0
M  V30 831 H 72.938 2.25644 -2.58727 0
M  V30 832 N 75.3831 0.828654 1.34056 0
M  V30 833 C 76.3131 0.269443 2.3194 0
M  V30 834 C 77.2941 -0.617247 1.58506 0
M  V30 835 O 78.4791 -0.542931 1.86456 0
M  V30 836 C 75.6091 -0.564793 3.42677 0
M  V30 837 C 74.5631 0.225241 4.27407 0
M  V30 838 C 73.8891 -0.7321 5.29664 0
M  V30 839 C 75.1891 1.43663 5.02154 0
M  V30 840 H 76.8831 1.08728 2.7896 0
M  V30 841 H 74.4291 0.524283 1.34117 0
M  V30 842 H 76.3821 -0.966233 4.10173 0
M  V30 843 H 75.1061 -1.41574 2.9432 0
M  V30 844 H 73.7651 0.608117 3.61521 0
M  V30 845 H 73.4131 -1.57916 4.77568 0
M  V30 846 H 73.1131 -0.20767 5.87233 0
M  V30 847 H 74.6371 -1.13128 6.00029 0
M  V30 848 H 76.0511 1.1089 5.62473 0
M  V30 849 H 74.4481 1.89711 5.69324 0
M  V30 850 H 75.5181 2.21181 4.31517 0
M  V30 851 N 76.8612 -1.46375 0.584142 0
M  V30 852 C 77.7712 -2.34115 -0.150728 0
M  V30 853 C 78.7872 -1.49838 -0.884567 0
M  V30 854 O 79.9632 -1.82704 -0.847429 0
M  V30 855 C 77.0282 -3.2705 -1.15062 0
M  V30 856 C 76.0892 -4.27228 -0.421293 0
M  V30 857 C 75.3222 -5.15722 -1.37355 0
M  V30 858 O 75.5452 -5.07176 -2.61014 0
M  V30 859 O 74.4792 -5.95383 -0.883355 0
M  V30 860 H 78.3052 -2.98309 0.569708 0
M  V30 861 H 75.8902 -1.45373 0.344535 0
M  V30 862 H 77.7722 -3.84381 -1.72712 0
M  V30 863 H 76.4472 -2.65451 -1.8525 0
M  V30 864 H 75.3542 -3.7358 0.197085 0
M  V30 865 H 76.6872 -4.91616 0.239641 0
M  V30 866 N 78.3393 -0.321999 -1.54275 0
M  V30 867 C 79.2693 0.537411 -2.27231 0
M  V30 868 C 80.2503 1.12064 -1.27968 0
M  V30 869 O 81.4353 1.14606 -1.56777 0
M  V30 870 C 78.5653 1.69919 -3.02894 0
M  V30 871 C 77.5193 1.24534 -4.09482 0
M  V30 872 C 76.8453 2.49394 -4.72977 0
M  V30 873 C 78.1453 0.361335 -5.21049 0
M  V30 874 H 79.8393 -0.0711406 -2.99315 0
M  V30 875 H 77.3853 -0.0356555 -1.43956 0
M  V30 876 H 79.3383 2.30668 -3.52662 0
M  V30 877 H 78.0623 2.33431 -2.28424 0
M  V30 878 H 76.7213 0.660782 -3.60596 0
M  V30 879 H 76.3693 3.11265 -3.95124 0
M  V30 880 H 76.0693 2.19718 -5.44975 0
M  V30 881 H 77.5933 3.10908 -5.25517 0
M  V30 882 H 79.0073 0.875072 -5.66582 0
M  V30 883 H 77.4043 0.157428 -5.99893 0
M  V30 884 H 78.4743 -0.60822 -4.8107 0
M  V30 885 N 79.8174 1.5752 -0.0501392 0
M  V30 886 C 81.0634 1.92936 0.624798 0
M  V30 887 C 81.3964 0.928685 1.70555 0
M  V30 888 O 80.6714 -0.0454779 1.94447 0
M  V30 889 C 80.9544 3.38737 1.22185 0
M  V30 890 C 80.8074 4.49552 0.149218 0
M  V30 891 C 82.1264 3.84913 2.13378 0
M  V30 892 H 79.2454 0.701604 0.225657 0
M  V30 893 H 81.8874 1.89671 -0.111693 0
M  V30 894 H 80.0374 3.4165 1.84953 0
M  V30 895 H 81.7094 4.58768 -0.482648 0
M  V30 896 H 79.9524 4.30638 -0.522841 0
M  V30 897 H 80.6234 5.48653 0.606966 0
M  V30 898 H 83.0994 3.8387 1.60572 0
M  V30 899 H 81.9754 4.87584 2.52097 0
M  V30 900 H 82.2364 3.21611 3.03346 0
M  V30 901 N 81.2955 -0.223234 1.56011 0
M  V30 902 C 82.5725 -0.972108 1.69733 0
M  V30 903 C 82.9525 -2.02485 0.59691 0
M  V30 904 O 82.3005 -2.25037 -0.396324 0
M  V30 905 C 82.5105 -1.58407 3.10979 0
M  V30 906 C 83.8585 -2.07696 3.70334 0
M  V30 907 O 84.8825 -1.68304 3.1393 0
M  V30 908 O 83.7415 -2.80096 4.69264 0
M  V30 909 H 80.8355 -0.453993 0.691245 0
M  V30 910 H 83.3815 -0.215149 1.68331 0
M  V30 911 H 82.1535 -0.823831 3.82529 0
M  V30 912 H 81.7765 -2.40661 3.16493 0
M  V30 913 N 82.7736 -1.49793 -0.48987 0
M  V30 914 C 83.7066 -1.61898 -1.60823 0
M  V30 915 C 84.6846 -0.467651 -1.5573 0
M  V30 916 O 85.8686 -0.684682 -1.75626 0
M  V30 917 C 82.9956 -1.58422 -2.99366 0
M  V30 918 C 82.0416 -2.78889 -3.22682 0
M  V30 919 S 82.8746 -4.40429 -3.04602 0
M  V30 920 C 84.0306 -4.39617 -4.4552 0
M  V30 921 H 84.2636 -2.56502 -1.50312 0
M  V30 922 H 81.7966 -1.38822 -0.675849 0
M  V30 923 H 83.7546 -1.57103 -3.79248 0
M  V30 924 H 82.4156 -0.650866 -3.07283 0
M  V30 925 H 81.6086 -2.72708 -4.23847 0
M  V30 926 H 81.2106 -2.77678 -2.50541 0
M  V30 927 H 83.5026 -4.12022 -5.37814 0
M  V30 928 H 84.4456 -5.41097 -4.56749 0
M  V30 929 H 84.8536 -3.69554 -4.2672 0
M  V30 930 N 84.2517 0.741722 -1.39055 0
M  V30 931 C 85.4977 1.50336 -1.36113 0
M  V30 932 C 85.8307 1.94148 0.0450796 0
M  V30 933 O 85.1057 1.66301 1.00868 0
M  V30 934 C 85.3887 2.74773 -2.32749 0
M  V30 935 C 85.2417 2.37023 -3.82283 0
M  V30 936 C 86.5607 3.76846 -2.27322 0
M  V30 937 H 83.6797 0.545351 -0.495743 0
M  V30 938 H 86.3217 0.848624 -1.69995 0
M  V30 939 H 84.4717 3.30639 -2.03986 0
M  V30 940 H 86.1437 1.8684 -4.21768 0
M  V30 941 H 84.3867 1.69334 -3.99385 0
M  V30 942 H 85.0577 3.26104 -4.45376 0
M  V30 943 H 87.5337 3.30548 -2.5274 0
M  V30 944 H 86.4097 4.6159 -2.97028 0
M  V30 945 H 86.6707 4.23286 -1.27599 0
M  V30 946 N 85.7298 1.2412 0.971189 0
M  V30 947 C 86.6398 1.04747 2.09917 0
M  V30 948 C 87.6558 -0.0107162 1.73997 0
M  V30 949 O 88.8318 0.186714 2.00533 0
M  V30 950 C 85.8968 0.650828 3.40537 0
M  V30 951 C 84.9578 1.7851 3.90426 0
M  V30 952 C 84.1908 1.40729 5.14812 0
M  V30 953 O 84.4138 0.29557 5.69634 0
M  V30 954 O 83.3478 2.23168 5.58999 0
M  V30 955 H 87.1738 1.99304 2.29154 0
M  V30 956 H 84.7588 1.02908 1.08307 0
M  V30 957 H 86.6408 0.440992 4.19086 0
M  V30 958 H 85.3158 -0.265649 3.22608 0
M  V30 959 H 84.2228 2.04966 3.12953 0
M  V30 960 H 85.5558 2.68023 4.12825 0
M  V30 961 N 87.2079 -1.17134 1.05439 0
M  V30 962 C 88.1549 -2.21235 0.657539 0
M  V30 963 C 89.1249 -1.62551 -0.341543 0
M  V30 964 O 90.3099 -1.89379 -0.232393 0
M  V30 965 C 87.4499 -3.45076 0.0410575 0
M  V30 966 C 86.5629 -4.18042 1.08927 0
M  V30 967 C 85.6979 -5.29376 0.439848 0
M  V30 968 C 84.7369 -5.94132 1.4722 0
M  V30 969 N 83.8739 -6.96975 0.846756 0
M  V30 970 H 88.7139 -2.54534 1.54972 0
M  V30 971 H 86.2509 -1.25028 0.775006 0
M  V30 972 H 88.2089 -4.15862 -0.33383 0
M  V30 973 H 86.8389 -3.12353 -0.814568 0
M  V30 974 H 85.8909 -3.45945 1.58196 0
M  V30 975 H 87.2029 -4.62306 1.87282 0
M  V30 976 H 86.3569 -6.06699 0.0115125 0
M  V30 977 H 85.0959 -4.86251 -0.375656 0
M  V30 978 H 84.1009 -5.15538 1.91052 0
M  V30 979 H 85.3259 -6.39337 2.28965 0
M  V30 980 H 83.2719 -6.5598 0.0518075 0
M  V30 981 H 83.1889 -7.39565 1.5678 0
M  V30 982 H 84.4569 -7.78239 0.443277 0
M  V30 983 N 88.686 -0.835752 -1.33615 0
M  V30 984 C 89.616 -0.281739 -2.31794 0
M  V30 985 C 90.597 0.608833 -1.58831 0
M  V30 986 O 91.782 0.533035 -1.86741 0
M  V30 987 C 88.912 0.546612 -3.42971 0
M  V30 988 C 87.866 -0.247904 -4.27281 0
M  V30 989 C 87.192 0.704001 -5.30045 0
M  V30 990 C 88.492 -1.46324 -5.01385 0
M  V30 991 H 90.186 -1.10206 -2.78379 0
M  V30 992 H 87.732 -0.531388 -1.33837 0
M  V30 993 H 89.685 0.944467 -4.1068 0
M  V30 994 H 88.409 1.40011 -2.95067 0
M  V30 995 H 87.068 -0.627281 -3.61194 0
M  V30 996 H 86.716 1.55381 -4.78399 0
M  V30 997 H 86.416 0.176524 -5.87335 0
M  V30 998 H 87.94 1.09944 -6.0062 0
M  V30 999 H 89.354 -1.13871 -5.61877 0
M  V30 1000 H 87.751 -1.92728 -5.6831 0
M  V30 1001 H 88.821 -2.23467 -4.30338 0
M  V30 1002 N 90.1641 1.46063 -0.591896 0
M  V30 1003 C 91.4411 1.95595 -0.0137119 0
M  V30 1004 C 91.8211 1.5345 1.4497 0
M  V30 1005 O 91.1691 0.789543 2.14426 0
M  V30 1006 C 91.3791 3.48453 -0.195373 0
M  V30 1007 C 92.7271 4.24546 -0.0679765 0
M  V30 1008 O 93.7511 3.55982 -0.124681 0
M  V30 1009 O 92.6101 5.46467 0.0600579 0
M  V30 1010 H 89.7041 0.825795 0.0446279 0
M  V30 1011 H 92.2501 1.56303 -0.660859 0
M  V30 1012 H 91.0221 3.72045 -1.21235 0
M  V30 1013 H 90.6451 3.94597 0.487775 0
M  V30 1014 N 91.6422 0.330177 1.54103 0
M  V30 1015 C 92.5722 -0.525353 2.27513 0
M  V30 1016 C 93.5532 -1.11383 1.2856 0
M  V30 1017 O 94.7382 -1.13773 1.57383 0
M  V30 1018 C 91.8682 -1.6831 3.03791 0
M  V30 1019 C 90.8222 -1.2236 4.10137 0
M  V30 1020 C 90.1482 -2.46882 4.74293 0
M  V30 1021 C 91.4482 -0.333697 5.21233 0
M  V30 1022 H 93.1422 0.087013 2.99274 0
M  V30 1023 H 90.6882 0.0432893 1.43935 0
M  V30 1024 H 92.6412 -2.28795 3.5388 0
M  V30 1025 H 91.3652 -2.32216 2.29659 0
M  V30 1026 H 90.0242 -0.64165 3.60941 0
M  V30 1027 H 89.6722 -3.09165 3.96769 0
M  V30 1028 H 89.3722 -2.16825 5.46133 0
M  V30 1029 H 90.8962 -3.08117 5.27159 0
M  V30 1030 H 92.3102 -0.845013 5.67038 0
M  V30 1031 H 90.7072 -0.125612 5.99969 0
M  V30 1032 H 91.7772 0.633724 4.80741 0
M  V30 1033 N 93.1203 -1.57491 0.0584922 0
M  V30 1034 C 94.3503 -1.9701 -0.622134 0
M  V30 1035 C 94.7583 -0.935034 -1.6448 0
M  V30 1036 O 94.1013 0.0882904 -1.83488 0
M  V30 1037 C 94.1633 -3.32794 -1.35972 0
M  V30 1038 C 93.8273 -4.54343 -0.492043 0
M  V30 1039 C 94.8243 -5.19323 0.244901 0
M  V30 1040 C 92.5093 -5.00534 -0.420821 0
M  V30 1041 C 94.5033 -6.28835 1.04143 0
M  V30 1042 C 92.1903 -6.09921 0.379389 0
M  V30 1043 C 93.1883 -6.73933 1.10919 0
M  V30 1044 O 92.8763 -7.81216 1.89623 0
M  V30 1045 H 92.6083 -0.653127 -0.174359 0
M  V30 1046 H 95.1623 -2.05029 0.123418 0
M  V30 1047 H 93.3923 -3.21351 -2.15105 0
M  V30 1048 H 95.0813 -3.5701 -1.93129 0
M  V30 1049 H 95.8473 -4.8459 0.19939 0
M  V30 1050 H 91.7263 -4.50496 -0.978474 0
M  V30 1051 H 95.2703 -6.7873 1.61157 0
M  V30 1052 H 91.1673 -6.44089 0.426512 0
M  V30 1053 H 91.9353 -7.98029 1.81913 0
M  V30 1054 N 94.5984 0.214957 -1.56127 0
M  V30 1055 C 95.8474 0.936451 -1.78643 0
M  V30 1056 C 96.1604 1.85237 -0.628229 0
M  V30 1057 O 97.3664 2.613 -0.737186 0
M  V30 1058 C 95.8224 1.7154 -3.16389 0
M  V30 1059 C 95.4304 0.845299 -4.39953 0
M  V30 1060 C 97.1744 2.42772 -3.48227 0
M  V30 1061 C 95.0814 1.62198 -5.68723 0
M  V30 1062 H 94.0114 0.353401 -0.666051 0
M  V30 1063 H 96.6624 0.190169 -1.82512 0
M  V30 1064 H 95.0444 2.50484 -3.06715 0
M  V30 1065 H 96.2184 0.0959353 -4.607 0
M  V30 1066 H 94.5334 0.244789 -4.1568 0
M  V30 1067 H 97.1304 3.01394 -4.41663 0
M  V30 1068 H 97.4734 3.15984 -2.71035 0
M  V30 1069 H 98.0064 1.70813 -3.5926 0
M  V30 1070 H 94.7454 0.933011 -6.48826 0
M  V30 1071 H 94.2654 2.34579 -5.52026 0
M  V30 1072 H 95.9444 2.18095 -6.09133 0
M  V30 1073 N 96.0765 1.50051 0.48192 0
M  V30 1074 C 97.3045 1.64237 1.25832 0
M  V30 1075 C 97.7195 0.321336 1.86045 0
M  V30 1076 O 97.0765 -0.695478 1.68729 0
M  V30 1077 C 97.1275 2.72548 2.37487 0
M  V30 1078 O 96.8485 3.99529 1.79745 0
M  V30 1079 C 98.3495 2.9761 3.28547 0
M  V30 1080 H 95.5695 0.55237 0.380957 0
M  V30 1081 H 98.1135 1.96207 0.576467 0
M  V30 1082 H 96.2685 2.43303 3.01467 0
M  V30 1083 H 96.6825 4.59342 2.5319 0
M  V30 1084 H 98.1565 3.77084 4.03127 0
M  V30 1085 H 98.6335 2.0826 3.86684 0
M  V30 1086 H 99.2395 3.28345 2.70314 0
M  V30 1087 N 97.5546 -0.734337 1.39446 0
M  V30 1088 C 98.8006 -1.49613 1.36908 0
M  V30 1089 C 99.1336 -1.94169 -0.0347829 0
M  V30 1090 O 98.4086 -1.66833 -0.999847 0
M  V30 1091 C 98.6916 -2.73534 2.34203 0
M  V30 1092 C 98.5446 -2.34993 3.83534 0
M  V30 1093 C 99.8636 -3.75635 2.29317 0
M  V30 1094 H 96.9826 -0.542714 0.498629 0
M  V30 1095 H 99.6246 -0.839597 1.70443 0
M  V30 1096 H 97.7746 -3.29553 2.05736 0
M  V30 1097 H 99.4466 -1.84601 4.22753 0
M  V30 1098 H 97.6896 -1.67213 4.00278 0
M  V30 1099 H 98.3606 -3.23738 4.47099 0
M  V30 1100 H 100.837 -3.29203 2.54489 0
M  V30 1101 H 99.7126 -4.60008 2.99472 0
M  V30 1102 H 99.9736 -4.22603 1.29842 0
M  V30 1103 N 99.0327 -1.24633 -0.964593 0
M  V30 1104 C 99.9797 -1.04144 -2.05968 0
M  V30 1105 C 100.95 0.046262 -1.66036 0
M  V30 1106 O 102.135 -0.108972 -1.90489 0
M  V30 1107 C 99.2747 -0.65563 -3.38815 0
M  V30 1108 C 98.3877 -1.81714 -3.91923 0
M  V30 1109 C 97.5227 -1.37662 -5.13052 0
M  V30 1110 C 96.5617 -2.50788 -5.58365 0
M  V30 1111 N 95.6987 -2.07582 -6.70712 0
M  V30 1112 H 100.539 -1.9787 -2.22827 0
M  V30 1113 H 98.0757 -0.9855 -1.09208 0
M  V30 1114 H 100.034 -0.412954 -4.15151 0
M  V30 1115 H 98.6637 0.244627 -3.21872 0
M  V30 1116 H 97.7157 -2.1734 -3.12198 0
M  V30 1117 H 99.0277 -2.66705 -4.21509 0
M  V30 1118 H 98.1817 -1.093 -5.96773 0
M  V30 1119 H 96.9207 -0.497293 -4.85158 0
M  V30 1120 H 95.9257 -2.79906 -4.73215 0
M  V30 1121 H 97.1507 -3.39283 -5.88272 0
M  V30 1122 H 95.0967 -1.22051 -6.44546 0
M  V30 1123 H 95.0137 -2.86125 -6.99763 0
M  V30 1124 H 96.2817 -1.82369 -7.57867 0
M  V30 1125 N 100.511 1.16574 -1.06058 0
M  V30 1126 C 101.759 1.86677 -0.77434 0
M  V30 1127 C 102.08 1.81959 0.701147 0
M  V30 1128 O 101.35 1.2515 1.50713 0
M  V30 1129 H 99.9298 0.691134 -0.283449 0
M  V30 1130 H 102.592 1.41378 -1.34158 0
M  V30 1131 H 101.688 2.92181 -1.09711 0
M  V30 1132 N 101.989 0.842826 1.3317 0
M  V30 1133 C 103.237 0.439577 1.97262 0
M  V30 1134 C 103.558 -1.00548 1.67078 0
M  V30 1135 O 102.828 -1.70098 0.971779 0
M  V30 1136 H 101.408 0.159558 0.72976 0
M  V30 1137 H 104.07 1.07665 1.62463 0
M  V30 1138 H 103.166 0.574886 3.0676 0
M  V30 1139 N 103.467 -1.45747 0.599634 0
M  V30 1140 C 104.715 -2.01893 0.0915472 0
M  V30 1141 C 105.036 -1.47155 -1.27946 0
M  V30 1142 O 104.306 -0.66273 -1.84349 0
M  V30 1143 H 102.886 -0.746363 0.0308524 0
M  V30 1144 H 105.548 -1.78645 0.779237 0
M  V30 1145 H 104.644 -3.1208 0.0353086 0
M  V30 1146 N 104.945 -0.338344 -1.53925 0
M  V30 1147 C 106.194 0.260732 -2.00008 0
M  V30 1148 C 106.507 1.52073 -1.23017 0
M  V30 1149 O 107.713 2.19672 -1.5955 0
M  V30 1150 C 106.169 0.51515 -3.56194 0
M  V30 1151 C 105.777 -0.728645 -4.42035 0
M  V30 1152 C 107.521 1.07337 -4.10706 0
M  V30 1153 C 105.428 -0.445315 -5.89721 0
M  V30 1154 H 104.358 0.101205 -0.747177 0
M  V30 1155 H 107.009 -0.452866 -1.77824 0
M  V30 1156 H 105.391 1.28932 -3.74423 0
M  V30 1157 H 106.565 -1.50352 -4.35581 0
M  V30 1158 H 104.88 -1.20813 -3.98489 0
M  V30 1159 H 107.477 1.30022 -5.18651 0
M  V30 1160 H 107.82 2.0273 -3.63602 0
M  V30 1161 H 108.353 0.360034 -3.96167 0
M  V30 1162 H 105.092 -1.36883 -6.41049 0
M  V30 1163 H 104.612 0.291569 -5.99091 0
M  V30 1164 H 106.291 -0.0606218 -6.46972 0
M  V30 1165 N 106.423 1.57458 -0.0668435 0
M  V30 1166 C 107.648 1.9804 0.616027 0
M  V30 1167 C 108.073 0.944771 1.62652 0
M  V30 1168 O 107.431 -0.0902094 1.81075 0
M  V30 1169 C 107.479 3.37665 1.26549 0
M  V30 1170 O 106.583 3.36701 2.38131 0
M  V30 1171 H 105.924 0.644719 0.158849 0
M  V30 1172 H 108.454 2.04121 -0.139891 0
M  V30 1173 H 108.464 3.7474 1.6135 0
M  V30 1174 H 107.139 4.12573 0.525016 0
M  V30 1175 H 105.716 3.1139 2.0516 0
M  V30 1176 N 107.901 -0.206675 1.56239 0
M  V30 1177 C 109.149 -0.927007 1.79586 0
M  V30 1178 C 109.47 -1.8427 0.637929 0
M  V30 1179 O 108.74 -1.92849 -0.344398 0
M  V30 1180 H 107.32 -0.345292 0.662407 0
M  V30 1181 H 109.982 -0.21496 1.93711 0
M  V30 1182 H 109.078 -1.52501 2.72305 0
M  V30 1183 N 109.379 -1.50304 -0.473955 0
M  V30 1184 C 110.311 -1.65109 -1.58971 0
M  V30 1185 C 111.324 -0.532676 -1.53839 0
M  V30 1186 O 112.513 -0.805751 -1.59279 0
M  V30 1187 C 109.613 -1.61684 -2.97845 0
M  V30 1188 C 108.786 -2.8951 -3.27876 0
M  V30 1189 C 107.845 -2.78768 -4.4629 0
M  V30 1190 O 106.871 -3.52722 -4.46739 0
M  V30 1191 N 108.073 -1.9213 -5.47783 0
M  V30 1192 H 110.838 -2.61347 -1.46689 0
M  V30 1193 H 108.399 -1.47732 -0.662324 0
M  V30 1194 H 110.391 -1.52114 -3.75024 0
M  V30 1195 H 108.961 -0.731925 -3.03911 0
M  V30 1196 H 108.181 -3.13228 -2.39336 0
M  V30 1197 H 109.469 -3.74199 -3.4475 0
M  V30 1198 H 108.867 -1.31353 -5.50239 0
M  V30 1199 H 107.424 -1.88466 -6.23958 0
M  V30 1200 N 110.857 0.726932 -1.39834 0
M  V30 1201 C 111.82 1.82269 -1.38962 0
M  V30 1202 C 112.82 1.58248 -0.285334 0
M  V30 1203 O 114.01 1.65499 -0.54366 0
M  V30 1204 C 111.142 3.20186 -1.17019 0
M  V30 1205 H 112.335 1.84443 -2.36476 0
M  V30 1206 H 109.888 0.931416 -1.25516 0
M  V30 1207 H 110.623 3.23669 -0.202204 0
M  V30 1208 H 110.408 3.3902 -1.96998 0
M  V30 1209 H 111.898 4.00235 -1.1917 0
M  V30 1210 N 112.336 1.25143 0.95797 0
M  V30 1211 C 113.584 1.09476 1.69881 0
M  V30 1212 C 113.905 -0.365502 1.91544 0
M  V30 1213 O 113.175 -1.25985 1.50015 0
M  V30 1214 H 111.755 0.402128 0.629525 0
M  V30 1215 H 114.417 1.57214 1.15194 0
M  V30 1216 H 113.513 1.60046 2.6794 0
M  V30 1217 N 113.814 -1.1601 1.06675 0
M  V30 1218 C 114.777 -2.18724 0.685001 0
M  V30 1219 C 115.777 -1.58496 -0.271246 0
M  V30 1220 O 116.967 -1.74119 -0.0531156 0
M  V30 1221 C 114.099 -3.40899 0.00853648 0
M  V30 1222 H 115.292 -2.54011 1.59431 0
M  V30 1223 H 112.845 -1.30352 0.862441 0
M  V30 1224 H 113.58 -3.11173 -0.913337 0
M  V30 1225 H 113.365 -3.8587 0.696204 0
M  V30 1226 H 114.855 -4.16886 -0.24414 0
M  V30 1227 N 115.292 -0.849877 -1.32721 0
M  V30 1228 C 116.541 -0.447175 -1.96681 0
M  V30 1229 C 116.854 1.00135 -1.68025 0
M  V30 1230 O 118.06 1.50926 -2.25685 0
M  V30 1231 C 116.516 -0.7487 -3.52026 0
M  V30 1232 C 116.124 -2.21264 -3.89546 0
M  V30 1233 C 117.868 -0.413487 -4.22481 0
M  V30 1234 C 115.775 -2.45763 -5.37917 0
M  V30 1235 H 114.705 -0.163486 -0.736063 0
M  V30 1236 H 117.356 -1.03999 -1.51183 0
M  V30 1237 H 115.738 -0.0853727 -3.95908 0
M  V30 1238 H 116.912 -2.91736 -3.56689 0
M  V30 1239 H 115.227 -2.5119 -3.32103 0
M  V30 1240 H 117.824 -0.574017 -5.3161 0
M  V30 1241 H 118.167 0.644492 -4.11281 0
M  V30 1242 H 118.7 -1.03251 -3.84167 0
M  V30 1243 H 115.439 -3.50168 -5.54132 0
M  V30 1244 H 114.959 -1.79864 -5.72197 0
M  V30 1245 H 116.638 -2.29471 -6.0494 0
M  V30 1246 N 116.77 1.45427 -0.607355 0
M  V30 1247 C 118.186 1.57283 -0.270985 0
M  V30 1248 C 118.386 1.59875 1.22647 0
M  V30 1249 O 117.442 1.52893 2.00948 0
M  V30 1250 C 118.755 2.85566 -0.941952 0
M  V30 1251 C 120.303 2.9924 -0.917849 0
M  V30 1252 C 120.778 4.30293 -1.56882 0
M  V30 1253 N 122.269 4.37051 -1.5343 0
M  V30 1254 C 123.004 5.37123 -2.00715 0
M  V30 1255 N 122.5 6.43734 -2.56084 0
M  V30 1256 N 124.293 5.28479 -1.91484 0
M  V30 1257 H 116.444 1.41988 -1.57966 0
M  V30 1258 H 118.707 0.67885 -0.661715 0
M  V30 1259 H 118.413 2.8955 -1.99633 0
M  V30 1260 H 118.287 3.74322 -0.465096 0
M  V30 1261 H 120.674 2.94822 0.127984 0
M  V30 1262 H 120.755 2.11895 -1.43297 0
M  V30 1263 H 120.399 4.35469 -2.61398 0
M  V30 1264 H 120.329 5.16454 -1.02873 0
M  V30 1265 H 122.82 3.60615 -1.12982 0
M  V30 1266 H 123.133 7.16341 -2.89958 0
M  V30 1267 H 121.478 6.44485 -2.60122 0
M  V30 1268 H 124.669 4.44098 -1.47967 0
M  V30 1269 H 124.842 6.0632 -2.28648 0
M  V30 1270 N 118.248 0.346503 1.53744 0
M  V30 1271 C 119.198 -0.524953 2.21874 0
M  V30 1272 C 120.182 -1.06376 1.20718 0
M  V30 1273 O 121.374 -0.996972 1.46251 0
M  V30 1274 C 118.503 -1.6739 2.99726 0
M  V30 1275 C 117.589 -1.14888 4.08242 0
M  V30 1276 N 117.98 -0.345329 5.0462 0
M  V30 1277 C 116.278 -1.4255 4.22606 0
M  V30 1278 C 116.979 -0.0600706 5.81669 0
M  V30 1279 N 115.955 -0.65252 5.39669 0
M  V30 1280 H 119.757 0.0960091 2.93743 0
M  V30 1281 H 117.271 0.15352 1.61673 0
M  V30 1282 H 119.268 -2.3102 3.47038 0
M  V30 1283 H 117.928 -2.29811 2.29384 0
M  V30 1284 H 118.939 0.0138439 5.17898 0
M  V30 1285 H 115.616 -2.05389 3.63486 0
M  V30 1286 H 117.006 0.588321 6.69319 0
M  V30 1287 N 119.726 -1.57421 0.075193 0
M  V30 1288 C 120.974 -1.93236 -0.591974 0
M  V30 1289 C 121.295 -0.956241 -1.69944 0
M  V30 1290 O 120.565 -0.00494792 -1.95899 0
M  V30 1291 H 119.145 -0.713355 -0.22166 0
M  V30 1292 H 121.807 -1.9444 0.133848 0
M  V30 1293 H 120.903 -2.95131 -1.01509 0
M  V30 1294 N 121.204 0.198386 -1.56346 0
M  V30 1295 C 122.453 0.917451 -1.79627 0
M  V30 1296 C 122.766 1.8456 -0.64784 0
M  V30 1297 O 123.972 2.60504 -0.764859 0
M  V30 1298 C 122.428 1.68175 -3.18191 0
M  V30 1299 C 122.036 0.798589 -4.40825 0
M  V30 1300 C 123.78 2.39065 -3.50782 0
M  V30 1301 C 121.687 1.56157 -5.70411 0
M  V30 1302 H 120.617 0.346317 -0.669762 0
M  V30 1303 H 123.268 0.170801 -1.82703 0
M  V30 1304 H 121.65 2.47216 -3.09354 0
M  V30 1305 H 122.824 0.0470665 -4.60776 0
M  V30 1306 H 121.139 0.200686 -4.15916 0
M  V30 1307 H 123.736 2.96692 -4.44835 0
M  V30 1308 H 124.079 3.13091 -2.74371 0
M  V30 1309 H 124.612 1.66993 -3.61052 0
M  V30 1310 H 121.351 0.864142 -6.49779 0
M  V30 1311 H 120.871 2.2871 -5.54483 0
M  V30 1312 H 122.55 2.11622 -6.11412 0
M  V30 1313 N 122.682 1.50554 0.465978 0
M  V30 1314 C 123.91 1.65563 1.24083 0
M  V30 1315 C 124.325 0.341051 1.85694 0
M  V30 1316 O 123.682 -0.677543 1.69457 0
M  V30 1317 C 123.733 2.75051 2.34583 0
M  V30 1318 O 123.454 4.01413 1.75497 0
M  V30 1319 C 124.955 3.01078 3.25372 0
M  V30 1320 H 122.175 0.55638 0.375077 0
M  V30 1321 H 124.719 1.96807 0.555624 0
M  V30 1322 H 122.874 2.46486 2.9887 0
M  V30 1323 H 123.288 4.62002 2.48303 0
M  V30 1324 H 124.762 3.81339 3.99105 0
M  V30 1325 H 125.239 2.12349 3.84453 0
M  V30 1326 H 125.845 3.31194 2.66816 0
M  V30 1327 N 124.16 -0.719506 1.40217 0
M  V30 1328 C 125.576 -1.02707 1.22161 0
M  V30 1329 C 125.776 -2.0128 0.0940557 0
M  V30 1330 O 124.832 -2.46452 -0.549318 0
M  V30 1331 C 126.145 -1.57454 2.56181 0
M  V30 1332 C 127.693 -1.69458 2.63159 0
M  V30 1333 C 128.168 -2.27611 3.97438 0
M  V30 1334 N 129.659 -2.35002 3.99159 0
M  V30 1335 C 130.394 -2.80972 4.99842 0
M  V30 1336 N 129.89 -3.26723 6.10921 0
M  V30 1337 N 131.683 -2.80321 4.87213 0
M  V30 1338 H 123.834 -0.0660492 2.12297 0
M  V30 1339 H 126.097 -0.0919077 0.943534 0
M  V30 1340 H 125.803 -0.924873 3.39321 0
M  V30 1341 H 125.677 -2.56036 2.76993 0
M  V30 1342 H 128.064 -2.33543 1.80393 0
M  V30 1343 H 128.145 -0.694867 2.46181 0
M  V30 1344 H 127.789 -1.6415 4.80643 0
M  V30 1345 H 127.719 -3.2829 4.11744 0
M  V30 1346 H 130.21 -2.02685 3.18947 0
M  V30 1347 H 130.523 -3.60355 6.8364 0
M  V30 1348 H 128.868 -3.24692 6.14492 0
M  V30 1349 H 132.059 -2.43912 3.9953 0
M  V30 1350 H 132.232 -3.15831 5.65822 0
M  V30 1351 N 125.638 -1.25649 -0.95132 0
M  V30 1352 C 126.601 -1.06399 -2.03007 0
M  V30 1353 C 127.601 -0.0156794 -1.60792 0
M  V30 1354 O 128.791 -0.25817 -1.72276 0
M  V30 1355 C 125.923 -0.616184 -3.35285 0
M  V30 1356 H 127.116 -2.02164 -2.21517 0
M  V30 1357 H 124.669 -1.08103 -1.12887 0
M  V30 1358 H 125.404 0.343917 -3.22471 0
M  V30 1359 H 125.189 -1.37301 -3.67275 0
M  V30 1360 H 126.679 -0.503032 -4.14559 0
M  V30 1361 N 127.117 1.15442 -1.07289 0
M  V30 1362 C 128.047 2.22312 -0.714107 0
M  V30 1363 C 129.028 1.67467 0.298155 0
M  V30 1364 O 130.213 1.93445 0.171048 0
M  V30 1365 C 127.343 3.47124 -0.110448 0
M  V30 1366 C 126.297 4.14926 -1.04979 0
M  V30 1367 C 125.623 5.33807 -0.308924 0
M  V30 1368 C 126.923 4.64762 -2.38314 0
M  V30 1369 H 128.617 2.5258 -1.6076 0
M  V30 1370 H 126.163 1.21404 -0.77441 0
M  V30 1371 H 128.116 4.21124 0.152482 0
M  V30 1372 H 126.84 3.16187 0.81812 0
M  V30 1373 H 125.499 3.42866 -1.29764 0
M  V30 1374 H 125.147 4.99126 0.623084 0
M  V30 1375 H 124.847 5.80113 -0.935036 0
M  V30 1376 H 126.371 6.10576 -0.0537771 0
M  V30 1377 H 127.785 5.30292 -2.1786 0
M  V30 1378 H 126.182 5.21728 -2.96514 0
M  V30 1379 H 127.252 3.80434 -3.00663 0
M  V30 1380 N 128.595 0.856903 1.32268 0
M  V30 1381 C 129.528 0.247937 2.26849 0
M  V30 1382 C 130.506 -0.615382 1.50505 0
M  V30 1383 O 131.69 -0.571689 1.79622 0
M  V30 1384 C 128.817 -0.650093 3.32403 0
M  V30 1385 C 127.863 0.140138 4.2627 0
M  V30 1386 S 128.696 1.51004 5.13769 0
M  V30 1387 C 129.852 0.61778 6.22844 0
M  V30 1388 H 130.085 1.04971 2.78152 0
M  V30 1389 H 127.618 0.654665 1.39834 0
M  V30 1390 H 129.576 -1.16256 3.93694 0
M  V30 1391 H 128.237 -1.4257 2.7988 0
M  V30 1392 H 127.43 -0.543945 5.01056 0
M  V30 1393 H 127.032 0.584267 3.69408 0
M  V30 1394 H 129.324 -0.177053 6.77269 0
M  V30 1395 H 130.267 1.33636 6.95375 0
M  V30 1396 H 130.675 0.191124 5.64176 0
M  V30 1397 N 130.073 -1.45103 0.615059 0
M  V30 1398 C 130.983 -2.34382 -0.101034 0
M  V30 1399 C 131.999 -1.51681 -0.852585 0
M  V30 1400 O 133.175 -1.8446 -0.808484 0
M  V30 1401 C 130.24 -3.29417 -1.08099 0
M  V30 1402 C 129.301 -4.28025 -0.330577 0
M  V30 1403 C 128.534 -5.1852 -1.26385 0
M  V30 1404 O 128.757 -5.12598 -2.50198 0
M  V30 1405 O 127.691 -5.97122 -0.756866 0
M  V30 1406 H 131.517 -2.97033 0.632855 0
M  V30 1407 H 129.102 -1.4461 0.375293 0
M  V30 1408 H 130.984 -3.87958 -1.6452 0
M  V30 1409 H 129.659 -2.69321 -1.79577 0
M  V30 1410 H 128.566 -3.73078 0.276283 0
M  V30 1411 H 129.899 -4.90997 0.343866 0
M  V30 1412 N 131.551 -0.354651 -1.53558 0
M  V30 1413 C 132.781 0.239167 -2.05211 0
M  V30 1414 C 133.189 1.43879 -1.22863 0
M  V30 1415 O 132.532 1.81857 -0.259565 0
M  V30 1416 C 132.594 0.707251 -3.52474 0
M  V30 1417 C 132.258 -0.374212 -4.55465 0
M  V30 1418 C 133.255 -1.22054 -5.0537 0
M  V30 1419 C 130.94 -0.531323 -4.99482 0
M  V30 1420 C 132.934 -2.20942 -5.97882 0
M  V30 1421 C 130.621 -1.52358 -5.91802 0
M  V30 1422 C 131.619 -2.36108 -6.40892 0
M  V30 1423 O 131.307 -3.33643 -7.31394 0
M  V30 1424 H 131.039 0.0479716 -0.674296 0
M  V30 1425 H 133.593 -0.508121 -1.99016 0
M  V30 1426 H 131.823 1.50596 -3.56171 0
M  V30 1427 H 133.512 1.22285 -3.87042 0
M  V30 1428 H 134.278 -1.1103 -4.7212 0
M  V30 1429 H 130.157 0.110738 -4.60867 0
M  V30 1430 H 133.701 -2.86348 -6.36121 0
M  V30 1431 H 129.598 -1.63434 -6.24467 0
M  V30 1432 H 130.366 -3.29244 -7.4936 0
M  V30 1433 N 133.029 1.57378 -0.0835403 0
M  V30 1434 C 134.306 1.85363 0.624507 0
M  V30 1435 C 134.686 0.978239 1.87066 0
M  V30 1436 O 134.034 0.0475908 2.2845 0
M  V30 1437 C 134.244 3.35795 0.950947 0
M  V30 1438 C 135.592 4.03581 1.31939 0
M  V30 1439 O 136.616 3.40609 1.04232 0
M  V30 1440 O 135.475 5.14672 1.83779 0
M  V30 1441 H 132.569 0.766162 0.311329 0
M  V30 1442 H 135.115 1.69307 -0.115362 0
M  V30 1443 H 133.887 3.91244 0.0663899 0
M  V30 1444 H 133.51 3.57154 1.74719 0
M  V30 1445 N 134.507 -0.190092 1.56449 0
M  V30 1446 C 135.417 -1.25591 1.98152 0
M  V30 1447 C 136.433 -1.49519 0.889944 0
M  V30 1448 O 137.609 -1.62036 1.19609 0
M  V30 1449 C 134.674 -2.57916 2.3169 0
M  V30 1450 C 133.735 -2.42015 3.5458 0
M  V30 1451 C 132.968 -3.6803 3.8651 0
M  V30 1452 O 133.191 -4.72413 3.1966 0
M  V30 1453 O 132.125 -3.6326 4.79923 0
M  V30 1454 H 135.951 -0.931988 2.89046 0
M  V30 1455 H 133.536 -0.395488 1.4407 0
M  V30 1456 H 135.418 -3.36008 2.54316 0
M  V30 1457 H 134.093 -2.89925 1.43963 0
M  V30 1458 H 133 -1.62017 3.37196 0
M  V30 1459 H 134.333 -2.14937 4.4279 0
M  V30 1460 N 135.985 -1.50799 -0.457987 0
M  V30 1461 C 137.21 -1.66496 -1.23668 0
M  V30 1462 C 137.635 -0.353288 -1.84752 0
M  V30 1463 O 136.993 0.684346 -1.67888 0
M  V30 1464 C 137.041 -2.76763 -2.3116 0
M  V30 1465 O 136.145 -2.38928 -3.36136 0
M  V30 1466 H 135.486 -0.555828 -0.363252 0
M  V30 1467 H 138.016 -1.9725 -0.543474 0
M  V30 1468 H 138.026 -3.00232 -2.76269 0
M  V30 1469 H 136.701 -3.71954 -1.86073 0
M  V30 1470 H 135.278 -2.25953 -2.96647 0
M  V30 1471 N 137.463 0.71206 -1.40597 0
M  V30 1472 C 138.393 1.83889 -1.43899 0
M  V30 1473 C 139.374 1.67442 -0.299504 0
M  V30 1474 O 140.559 1.87421 -0.508624 0
M  V30 1475 C 137.689 3.21877 -1.30431 0
M  V30 1476 C 136.643 3.53002 -2.42019 0
M  V30 1477 C 135.969 4.90172 -2.13626 0
M  V30 1478 C 137.269 3.53643 -3.84362 0
M  V30 1479 H 138.963 1.81383 -2.38203 0
M  V30 1480 H 136.509 0.871237 -1.14654 0
M  V30 1481 H 138.462 4.00404 -1.31357 0
M  V30 1482 H 137.186 3.24968 -0.326049 0
M  V30 1483 H 135.845 2.76818 -2.40349 0
M  V30 1484 H 135.493 4.89869 -1.14182 0
M  V30 1485 H 135.193 5.11962 -2.88389 0
M  V30 1486 H 136.717 5.71028 -2.1624 0
M  V30 1487 H 138.131 4.22203 -3.87837 0
M  V30 1488 H 136.528 3.86961 -4.58673 0
M  V30 1489 H 137.598 2.52954 -4.13693 0
M  V30 1490 N 138.941 1.26152 0.944643 0
M  V30 1491 C 140.357 1.03189 1.21754 0
M  V30 1492 C 140.557 -0.245112 2.00004 0
M  V30 1493 O 139.613 -0.955176 2.33736 0
M  V30 1494 C 140.926 2.26119 1.98219 0
M  V30 1495 C 142.474 2.30984 2.11224 0
M  V30 1496 C 142.949 3.53597 2.91089 0
M  V30 1497 N 144.44 3.54053 2.98664 0
M  V30 1498 C 145.175 4.45593 3.60881 0
M  V30 1499 N 144.671 5.47416 4.24626 0
M  V30 1500 N 146.464 4.33252 3.58119 0
M  V30 1501 H 138.615 2.08177 0.421437 0
M  V30 1502 H 140.878 0.914723 0.248969 0
M  V30 1503 H 140.584 3.18984 1.48128 0
M  V30 1504 H 140.458 2.3009 2.98895 0
M  V30 1505 H 142.845 1.38635 2.60508 0
M  V30 1506 H 142.926 2.31026 1.09821 0
M  V30 1507 H 142.57 4.46273 2.42493 0
M  V30 1508 H 142.5 3.50802 3.92741 0
M  V30 1509 H 144.991 2.80403 2.53343 0
M  V30 1510 H 145.304 6.13459 4.69987 0
M  V30 1511 H 143.649 5.51278 4.23223 0
M  V30 1512 H 146.84 3.52924 3.0751 0
M  V30 1513 H 147.013 5.04786 4.06319 0
M  V30 1514 N 140.419 -1.14872 1.07899 0
M  V30 1515 C 141.644 -1.90202 0.826926 0
M  V30 1516 C 142.069 -1.77774 -0.614664 0
M  V30 1517 O 141.427 -1.11431 -1.43013 0
M  V30 1518 C 141.475 -3.38352 1.24702 0
M  V30 1519 O 140.579 -4.10497 0.39575 0
M  V30 1520 H 139.92 -0.591968 0.300782 0
M  V30 1521 H 142.45 -1.45437 1.43907 0
M  V30 1522 H 142.46 -3.89156 1.22563 0
M  V30 1523 H 141.135 -3.46715 2.29698 0
M  V30 1524 H 139.712 -3.69796 0.480117 0
M  V30 1525 N 141.898 -0.863906 -1.31812 0
M  V30 1526 C 142.808 -0.318461 -2.32428 0
M  V30 1527 C 143.824 0.568496 -1.64451 0
M  V30 1528 O 145 0.46666 -1.95919 0
M  V30 1529 C 142.065 0.476355 -3.43412 0
M  V30 1530 C 141.126 -0.43784 -4.27061 0
M  V30 1531 C 140.359 0.319138 -5.32745 0
M  V30 1532 O 140.582 1.54799 -5.48993 0
M  V30 1533 O 139.516 -0.319861 -6.01049 0
M  V30 1534 H 143.342 -1.15229 -2.80991 0
M  V30 1535 H 140.927 -0.627103 -1.35602 0
M  V30 1536 H 142.809 0.927156 -4.11074 0
M  V30 1537 H 141.484 1.28683 -2.97022 0
M  V30 1538 H 140.391 -0.937013 -3.62175 0
M  V30 1539 H 141.724 -1.21375 -4.77 0
M  V30 1540 N 143.376 1.44774 -0.622745 0
M  V30 1541 C 144.306 2.33382 0.0741861 0
M  V30 1542 C 145.287 1.47719 0.843387 0
M  V30 1543 O 146.472 1.76458 0.810934 0
M  V30 1544 C 143.602 3.30663 1.06204 0
M  V30 1545 C 142.556 4.26079 0.405037 0
M  V30 1546 C 141.882 5.13165 1.5022 0
M  V30 1547 C 143.182 5.1781 -0.683414 0
M  V30 1548 H 144.876 2.91905 -0.665713 0
M  V30 1549 H 142.422 1.40363 -0.321587 0
M  V30 1550 H 144.375 3.9153 1.55827 0
M  V30 1551 H 143.099 2.70331 1.83272 0
M  V30 1552 H 141.758 3.66532 -0.0704683 0
M  V30 1553 H 141.406 4.49191 2.26355 0
M  V30 1554 H 141.106 5.77812 1.06803 0
M  V30 1555 H 142.63 5.76902 2.00041 0
M  V30 1556 H 144.044 5.72661 -0.270631 0
M  V30 1557 H 142.441 5.91015 -1.04023 0
M  V30 1558 H 143.511 4.59326 -1.55395 0
M  V30 1559 N 144.854 0.36279 1.53368 0
M  V30 1560 C 146.27 0.0116182 1.59596 0
M  V30 1561 C 146.47 -1.47012 1.37803 0
M  V30 1562 O 145.526 -2.23136 1.18181 0
M  V30 1563 C 146.839 0.465052 2.97082 0
M  V30 1564 C 148.387 0.419033 3.10182 0
M  V30 1565 C 148.862 0.848235 4.50077 0
M  V30 1566 N 150.353 0.803183 4.56183 0
M  V30 1567 C 151.088 1.107 5.62613 0
M  V30 1568 N 150.584 1.47996 6.76808 0
M  V30 1569 N 152.377 1.02998 5.52583 0
M  V30 1570 H 144.528 1.32775 1.65785 0
M  V30 1571 H 146.791 0.542518 0.777417 0
M  V30 1572 H 146.497 1.49892 3.18159 0
M  V30 1573 H 146.371 -0.149786 3.76902 0
M  V30 1574 H 148.758 -0.605696 2.88817 0
M  V30 1575 H 148.839 1.06933 2.32377 0
M  V30 1576 H 148.483 1.87107 4.7218 0
M  V30 1577 H 148.413 0.175218 5.26308 0
M  V30 1578 H 150.904 0.52838 3.74188 0
M  V30 1579 H 151.217 1.69613 7.53957 0
M  V30 1580 H 149.562 1.51859 6.78206 0
M  V30 1581 H 152.753 0.737817 4.62249 0
M  V30 1582 H 152.926 1.2701 6.35431 0
M  V30 1583 N 146.332 -1.57332 0.0918853 0
M  V30 1584 C 147.279 -2.13847 -0.868211 0
M  V30 1585 C 148.249 -1.05618 -1.28196 0
M  V30 1586 O 149.434 -1.33387 -1.36427 0
M  V30 1587 C 146.574 -2.72062 -2.12312 0
M  V30 1588 C 145.687 -3.94514 -1.7602 0
M  V30 1589 C 144.822 -4.40903 -2.96273 0
M  V30 1590 C 143.861 -5.55953 -2.56092 0
M  V30 1591 N 142.998 -5.97209 -3.69169 0
M  V30 1592 H 147.838 -2.95575 -0.379406 0
M  V30 1593 H 145.375 -1.46048 -0.175606 0
M  V30 1594 H 147.333 -3.03931 -2.858 0
M  V30 1595 H 145.963 -1.93068 -2.58698 0
M  V30 1596 H 145.015 -3.68979 -0.925135 0
M  V30 1597 H 146.327 -4.7802 -1.42472 0
M  V30 1598 H 145.481 -4.74539 -3.78018 0
M  V30 1599 H 144.22 -3.56291 -3.33029 0
M  V30 1600 H 143.225 -5.21948 -1.72773 0
M  V30 1601 H 144.45 -6.42311 -2.20484 0
M  V30 1602 H 142.396 -5.15543 -4.05649 0
M  V30 1603 H 142.313 -6.75504 -3.39456 0
M  V30 1604 H 143.581 -6.35475 -4.51434 0
M  V30 1605 N 147.81 0.181792 -1.56548 0
M  V30 1606 C 148.773 1.20894 -1.94724 0
M  V30 1607 C 149.773 1.37738 -0.829747 0
M  V30 1608 O 150.963 1.35323 -1.09697 0
M  V30 1609 C 148.095 2.57593 -2.23291 0
M  V30 1610 H 149.288 0.882275 -2.86629 0
M  V30 1611 H 146.841 0.423838 -1.50444 0
M  V30 1612 H 147.576 2.95291 -1.34067 0
M  V30 1613 H 147.361 2.46735 -3.04736 0
M  V30 1614 H 148.851 3.31637 -2.53785 0
M  V30 1615 N 149.288 1.51039 0.449983 0
M  V30 1616 C 150.536 1.62759 1.19808 0
M  V30 1617 C 150.857 0.339981 1.92013 0
M  V30 1618 O 150.127 -0.643606 1.85026 0
M  V30 1619 H 148.707 0.599811 0.445237 0
M  V30 1620 H 151.369 1.87914 0.517138 0
M  V30 1621 H 150.465 2.44911 1.93455 0
M  V30 1622 N 150.766 -0.704594 1.40972 0
M  V30 1623 C 152.013 -1.46458 1.39844 0
M  V30 1624 C 152.341 -1.94499 0.00447594 0
M  V30 1625 O 151.596 -1.69275 -0.982057 0
M  V30 1626 C 151.895 -2.698 2.34399 0
M  V30 1627 C 151.561 -2.40464 3.81429 0
M  V30 1628 C 150.223 -2.32174 4.21484 0
M  V30 1629 C 152.575 -2.16086 4.74296 0
M  V30 1630 C 149.903 -1.97589 5.52427 0
M  V30 1631 C 152.255 -1.83011 6.05549 0
M  V30 1632 C 150.919 -1.7321 6.44635 0
M  V30 1633 H 150.189 -0.535927 0.511725 0
M  V30 1634 H 152.836 -0.806124 1.73706 0
M  V30 1635 H 151.141 -3.40536 1.93759 0
M  V30 1636 H 152.838 -3.27919 2.30804 0
M  V30 1637 H 149.428 -2.47808 3.49699 0
M  V30 1638 H 153.612 -2.2144 4.4416 0
M  V30 1639 H 148.868 -1.88547 5.81601 0
M  V30 1640 H 153.042 -1.63164 6.77016 0
M  V30 1641 H 150.669 -1.46179 7.46013 0
M  V30 1642 N 152.244 -1.26651 -0.937939 0
M  V30 1643 C 153.49 -1.12553 -1.687 0
M  V30 1644 C 153.823 0.329782 -1.91379 0
M  V30 1645 O 153.098 1.24202 -1.4968 0
M  V30 1646 C 153.381 -1.89862 -3.05981 0
M  V30 1647 C 153.234 -3.43318 -2.90607 0
M  V30 1648 C 154.553 -1.69499 -4.0615 0
M  V30 1649 H 151.672 -0.410257 -0.612257 0
M  V30 1650 H 154.314 -1.55685 -1.08913 0
M  V30 1651 H 152.464 -1.53204 -3.57017 0
M  V30 1652 H 154.136 -3.89747 -2.46769 0
M  V30 1653 H 152.379 -3.70179 -2.26164 0
M  V30 1654 H 153.05 -3.92642 -3.8799 0
M  V30 1655 H 155.526 -2.01442 -3.64088 0
M  V30 1656 H 154.402 -2.26002 -5.00214 0
M  V30 1657 H 154.663 -0.640365 -4.37438 0
M  V30 1658 N 153.722 1.14298 -1.08507 0
M  V30 1659 C 154.95 1.89219 -0.836876 0
M  V30 1660 C 155.365 1.78638 0.611054 0
M  V30 1661 O 154.722 1.14643 1.41998 0
M  V30 1662 C 154.773 3.39158 -1.25116 0
M  V30 1663 O 154.494 3.49449 -2.64229 0
M  V30 1664 C 155.995 4.31073 -1.03398 0
M  V30 1665 H 153.215 0.599328 -0.301739 0
M  V30 1666 H 155.759 1.44746 -1.44461 0
M  V30 1667 H 153.914 3.81251 -0.687514 0
M  V30 1668 H 154.328 4.42589 -2.81452 0
M  V30 1669 H 155.802 5.34646 -1.37323 0
M  V30 1670 H 156.279 4.3919 0.0289259 0
M  V30 1671 H 156.885 3.94738 -1.58311 0
M  V30 1672 N 155.201 0.870884 1.31352 0
M  V30 1673 C 156.617 0.562932 1.49343 0
M  V30 1674 C 156.817 -0.902725 1.80148 0
M  V30 1675 O 155.873 -1.68484 1.88067 0
M  V30 1676 C 157.186 1.46393 2.62659 0
M  V30 1677 C 158.734 1.46607 2.76542 0
M  V30 1678 C 159.209 2.35266 3.92955 0
M  V30 1679 N 160.7 2.33151 4.00243 0
M  V30 1680 C 161.435 2.98471 4.89594 0
M  V30 1681 N 160.931 3.72964 5.8384 0
M  V30 1682 N 162.724 2.87775 4.82848 0
M  V30 1683 H 154.875 1.81923 1.09626 0
M  V30 1684 H 157.138 0.777934 0.541777 0
M  V30 1685 H 156.844 2.50689 2.46674 0
M  V30 1686 H 156.718 1.16314 3.58819 0
M  V30 1687 H 159.105 0.43069 2.9194 0
M  V30 1688 H 159.186 1.8071 1.81046 0
M  V30 1689 H 158.83 3.38881 3.78315 0
M  V30 1690 H 158.76 1.98487 4.87761 0
M  V30 1691 H 161.251 1.79006 3.32814 0
M  V30 1692 H 161.564 4.19932 6.4875 0
M  V30 1693 H 159.909 3.77073 5.83816 0
M  V30 1694 H 163.1 2.29116 4.08195 0
M  V30 1695 H 163.273 3.38961 5.52277 0
M  V30 1696 N 156.679 -1.44442 0.630414 0
M  V30 1697 C 157.956 -1.9549 0.0655657 0
M  V30 1698 C 158.336 -1.5724 -1.40851 0
M  V30 1699 O 157.684 -0.846116 -2.12257 0
M  V30 1700 C 157.894 -3.47812 0.287691 0
M  V30 1701 C 159.242 -4.24216 0.180513 0
M  V30 1702 O 160.266 -3.55526 0.219019 0
M  V30 1703 O 159.125 -5.46434 0.0848493 0
M  V30 1704 H 156.219 -0.826688 -0.0227177 0
M  V30 1705 H 158.765 -1.54496 0.702068 0
M  V30 1706 H 157.537 -3.687 1.31056 0
M  V30 1707 H 157.16 -3.95751 -0.382984 0
M  V30 1708 N 158.157 -0.370918 -1.53173 0
M  V30 1709 C 159.12 0.460778 -2.24521 0
M  V30 1710 C 160.12 1.00536 -1.25496 0
M  V30 1711 O 161.31 0.890266 -1.49733 0
M  V30 1712 C 158.442 1.64457 -2.98608 0
M  V30 1713 H 159.635 -0.163613 -2.99453 0
M  V30 1714 H 157.188 -0.122699 -1.55818 0
M  V30 1715 H 157.923 2.30691 -2.2793 0
M  V30 1716 H 157.708 1.26099 -3.7127 0
M  V30 1717 H 159.198 2.23384 -3.5283 0
M  V30 1718 N 159.635 1.57281 -0.100228 0
M  V30 1719 C 161.051 1.57527 0.256416 0
M  V30 1720 C 161.251 1.11173 1.68056 0
M  V30 1721 O 160.307 0.79053 2.39806 0
M  V30 1722 C 161.62 3.00673 0.0401747 0
M  V30 1723 C 163.168 3.12815 0.107528 0
M  V30 1724 C 163.643 4.57929 -0.0807834 0
M  V30 1725 N 165.134 4.63193 -0.0261207 0
M  V30 1726 C 165.869 5.73212 -0.146999 0
M  V30 1727 N 165.365 6.92047 -0.322999 0
M  V30 1728 N 167.158 5.62031 -0.0879044 0
M  V30 1729 H 159.309 1.85718 -1.03065 0
M  V30 1730 H 161.572 0.857446 -0.404339 0
M  V30 1731 H 161.278 3.38804 -0.943649 0
M  V30 1732 H 161.152 3.69042 0.780262 0
M  V30 1733 H 163.539 2.74554 1.08186 0
M  V30 1734 H 163.62 2.47028 -0.664134 0
M  V30 1735 H 163.264 4.96886 -1.05201 0
M  V30 1736 H 163.194 5.21783 0.710635 0
M  V30 1737 H 165.685 3.77748 0.107161 0
M  V30 1738 H 165.998 7.7173 -0.406608 0
M  V30 1739 H 164.343 6.94074 -0.358733 0
M  V30 1740 H 167.534 4.68075 0.048498 0
M  V30 1741 H 167.707 6.47734 -0.185557 0
M  V30 1742 N 161.113 -0.173488 1.56642 0
M  V30 1743 C 162.045 -1.23935 1.92802 0
M  V30 1744 C 163.058 -1.40589 0.820889 0
M  V30 1745 O 164.247 -1.40631 1.09933 0
M  V30 1746 C 161.347 -2.60837 2.16373 0
M  V30 1747 C 160.52 -2.6551 3.47596 0
M  V30 1748 C 159.579 -3.8376 3.60021 0
M  V30 1749 O 158.605 -3.69859 4.32658 0
M  V30 1750 N 159.807 -5.00127 2.94709 0
M  V30 1751 H 162.572 -0.932236 2.84832 0
M  V30 1752 H 160.133 -0.363268 1.57772 0
M  V30 1753 H 162.125 -3.38407 2.21952 0
M  V30 1754 H 160.695 -2.83948 1.30738 0
M  V30 1755 H 159.915 -1.74052 3.53694 0
M  V30 1756 H 161.203 -2.65641 4.33949 0
M  V30 1757 H 160.601 -5.14322 2.35563 0
M  V30 1758 H 159.158 -5.75567 3.05886 0
M  V30 1759 N 162.591 -1.51276 -0.441967 0
M  V30 1760 C 163.837 -1.63958 -1.19355 0
M  V30 1761 C 164.17 -0.352543 -1.90973 0
M  V30 1762 O 163.445 0.647627 -1.83401 0
M  V30 1763 C 163.728 -2.83979 -2.21422 0
M  V30 1764 C 163.581 -4.22646 -1.53918 0
M  V30 1765 C 164.9 -2.99521 -3.22451 0
M  V30 1766 H 162.019 -0.596709 -0.432559 0
M  V30 1767 H 164.661 -1.83748 -0.483398 0
M  V30 1768 H 162.811 -2.67237 -2.81987 0
M  V30 1769 H 164.483 -4.51045 -0.967256 0
M  V30 1770 H 162.726 -4.25558 -0.841615 0
M  V30 1771 H 163.397 -5.02609 -2.28229 0
M  V30 1772 H 165.873 -3.14944 -2.71937 0
M  V30 1773 H 164.749 -3.85072 -3.91166 0
M  V30 1774 H 165.01 -2.11391 -3.88287 0
M  V30 1775 N 164.069 0.697108 -1.41344 0
M  V30 1776 C 164.979 1.84088 -1.45427 0
M  V30 1777 C 165.995 1.70545 -0.34501 0
M  V30 1778 O 167.171 1.92488 -0.592492 0
M  V30 1779 C 164.236 3.20056 -1.33286 0
M  V30 1780 C 163.297 3.45718 -2.54514 0
M  V30 1781 C 162.53 4.75199 -2.42944 0
M  V30 1782 O 162.753 5.51579 -1.45318 0
M  V30 1783 O 161.687 5.0161 -3.32672 0
M  V30 1784 H 165.513 1.836 -2.41919 0
M  V30 1785 H 163.098 0.849966 -1.22866 0
M  V30 1786 H 164.98 4.01236 -1.28794 0
M  V30 1787 H 163.655 3.2123 -0.39909 0
M  V30 1788 H 162.562 2.64474 -2.64583 0
M  V30 1789 H 163.895 3.49356 -3.46715 0
M  V30 1790 N 165.547 1.27147 0.931209 0
M  V30 1791 C 166.963 1.04475 1.20653 0
M  V30 1792 C 167.163 -0.223885 2.00252 0
M  V30 1793 O 166.219 -0.930332 2.34736 0
M  V30 1794 C 167.532 2.28209 1.95809 0
M  V30 1795 C 169.08 2.33211 2.08762 0
M  V30 1796 C 169.555 3.56665 2.87323 0
M  V30 1797 N 171.046 3.57201 2.94892 0
M  V30 1798 C 171.781 4.49395 3.56134 0
M  V30 1799 N 171.277 5.51889 4.18796 0
M  V30 1800 N 173.07 4.37026 3.53504 0
M  V30 1801 H 165.221 2.08612 0.399333 0
M  V30 1802 H 167.484 0.917312 0.239253 0
M  V30 1803 H 167.19 3.20538 1.44736 0
M  V30 1804 H 167.064 2.33247 2.96438 0
M  V30 1805 H 169.451 1.41391 2.59023 0
M  V30 1806 H 169.532 2.32178 1.07364 0
M  V30 1807 H 169.176 4.4882 2.37746 0
M  V30 1808 H 169.106 3.54948 3.88998 0
M  V30 1809 H 171.597 2.83074 2.50354 0
M  V30 1810 H 171.91 6.18409 4.63454 0
M  V30 1811 H 170.255 5.55735 4.17353 0
M  V30 1812 H 173.446 3.56166 3.03749 0
M  V30 1813 H 173.619 5.09067 4.00942 0
M  V30 1814 N 167.025 -1.13721 1.09112 0
M  V30 1815 C 167.972 -2.19031 0.727591 0
M  V30 1816 C 168.942 -1.63555 -0.289656 0
M  V30 1817 O 170.127 -1.90023 -0.172026 0
M  V30 1818 C 167.267 -3.4477 0.15082 0
M  V30 1819 C 166.38 -4.14365 1.22172 0
M  V30 1820 C 165.515 -5.27709 0.608042 0
M  V30 1821 C 164.554 -5.89147 1.66047 0
M  V30 1822 N 163.691 -6.93929 1.06806 0
M  V30 1823 H 168.531 -2.49475 1.62991 0
M  V30 1824 H 166.068 -1.22499 0.81439 0
M  V30 1825 H 168.026 -4.16714 -0.201358 0
M  V30 1826 H 166.656 -3.14787 -0.714783 0
M  V30 1827 H 165.708 -3.40737 1.69122 0
M  V30 1828 H 167.02 -4.56114 2.01895 0
M  V30 1829 H 166.174 -6.06355 0.204523 0
M  V30 1830 H 164.913 -4.872 -0.220769 0
M  V30 1831 H 163.918 -5.09198 2.07357 0
M  V30 1832 H 165.143 -6.31729 2.49189 0
M  V30 1833 H 163.089 -6.55483 0.260476 0
M  V30 1834 H 163.006 -7.34202 1.8023 0
M  V30 1835 H 164.274 -7.76434 0.690644 0
M  V30 1836 N 168.503 -0.877838 -1.30888 0
M  V30 1837 C 169.45 -0.337538 -2.28318 0
M  V30 1838 C 170.42 0.568346 -1.56074 0
M  V30 1839 O 171.605 0.498298 -1.84178 0
M  V30 1840 C 168.745 0.448142 -3.42178 0
M  V30 1841 C 167.858 -0.48615 -4.29256 0
M  V30 1842 C 166.993 0.314427 -5.30269 0
M  V30 1843 C 166.032 -0.615791 -6.08995 0
M  V30 1844 N 165.169 0.14902 -7.01942 0
M  V30 1845 H 170.009 -1.17356 -2.73919 0
M  V30 1846 H 167.546 -0.590094 -1.34745 0
M  V30 1847 H 169.504 0.919517 -4.06941 0
M  V30 1848 H 168.134 1.24879 -2.97666 0
M  V30 1849 H 167.186 -1.076 -3.64865 0
M  V30 1850 H 168.498 -1.19909 -4.84173 0
M  V30 1851 H 167.652 0.847969 -6.00745 0
M  V30 1852 H 166.391 1.06062 -4.76027 0
M  V30 1853 H 165.396 -1.16102 -5.37401 0
M  V30 1854 H 166.621 -1.36097 -6.65323 0
M  V30 1855 H 164.567 0.877884 -6.50099 0
M  V30 1856 H 164.484 -0.504433 -7.54315 0
M  V30 1857 H 165.752 0.663537 -7.76671 0
M  V30 1858 N 169.982 1.44106 -0.638065 0
M  V30 1859 C 171.228 2.02277 -0.145546 0
M  V30 1860 C 171.561 1.50125 1.23191 0
M  V30 1861 O 170.836 0.688133 1.8192 0
M  V30 1862 C 171.119 3.59829 -0.139791 0
M  V30 1863 C 170.972 4.22247 -1.55008 0
M  V30 1864 C 172.291 4.36873 0.531966 0
M  V30 1865 H 169.41 0.734992 -0.0543632 0
M  V30 1866 H 172.052 1.71592 -0.815863 0
M  V30 1867 H 170.202 3.86102 0.431007 0
M  V30 1868 H 171.874 4.07057 -2.1703 0
M  V30 1869 H 170.117 3.79476 -2.10191 0
M  V30 1870 H 170.788 5.31284 -1.49804 0
M  V30 1871 H 173.264 4.16074 0.0464781 0
M  V30 1872 H 172.14 5.4657 0.505206 0
M  V30 1873 H 172.401 4.11995 1.60352 0
M  V30 1874 N 171.46 0.379036 1.52974 0
M  V30 1875 C 172.708 -0.206014 2.01047 0
M  V30 1876 C 173.029 -1.48175 1.26765 0
M  V30 1877 O 172.299 -1.92085 0.384743 0
M  V30 1878 H 170.879 -0.0791184 0.742798 0
M  V30 1879 H 173.541 0.508366 1.88153 0
M  V30 1880 H 172.637 -0.423501 3.09213 0
M  V30 1881 N 172.938 -1.57226 0.108567 0
M  V30 1882 C 173.868 -2.17778 -0.84232 0
M  V30 1883 C 174.849 -1.11487 -1.2847 0
M  V30 1884 O 176.034 -1.39681 -1.34918 0
M  V30 1885 C 173.164 -2.76888 -2.09644 0
M  V30 1886 C 172.118 -3.88669 -1.79221 0
M  V30 1887 C 171.444 -4.34541 -3.11574 0
M  V30 1888 C 172.744 -5.11251 -1.06864 0
M  V30 1889 H 174.438 -2.97489 -0.337774 0
M  V30 1890 H 171.984 -1.43097 -0.161025 0
M  V30 1891 H 173.937 -3.17904 -2.76614 0
M  V30 1892 H 172.661 -1.94451 -2.62405 0
M  V30 1893 H 171.32 -3.48213 -1.14644 0
M  V30 1894 H 170.968 -3.48977 -3.62249 0
M  V30 1895 H 170.668 -5.09914 -2.91996 0
M  V30 1896 H 172.192 -4.782 -3.7968 0
M  V30 1897 H 173.606 -5.49352 -1.63968 0
M  V30 1898 H 172.003 -5.9214 -0.974178 0
M  V30 1899 H 173.073 -4.8487 -0.0536168 0
M  V30 1900 N 174.416 0.165178 -1.56732 0
M  V30 1901 C 175.832 0.517174 -1.50988 0
M  V30 1902 C 176.032 1.84331 -0.813894 0
M  V30 1903 O 175.088 2.49672 -0.37682 0
M  V30 1904 C 176.401 0.544261 -2.95733 0
M  V30 1905 C 177.949 0.631039 -3.06573 0
M  V30 1906 C 178.424 0.68896 -4.52788 0
M  V30 1907 N 179.915 0.751683 -4.5706 0
M  V30 1908 C 180.65 0.817177 -5.67547 0
M  V30 1909 N 180.146 0.843129 -6.8765 0
M  V30 1910 N 181.939 0.856668 -5.55534 0
M  V30 1911 H 174.09 -0.704318 -2.00382 0
M  V30 1912 H 176.353 -0.254687 -0.913148 0
M  V30 1913 H 176.059 -0.361607 -3.49836 0
M  V30 1914 H 175.933 1.3886 -3.5071 0
M  V30 1915 H 178.32 1.52733 -2.52501 0
M  V30 1916 H 178.401 -0.240095 -2.54671 0
M  V30 1917 H 178.045 -0.2031 -5.07494 0
M  V30 1918 H 177.975 1.57633 -5.02454 0
M  V30 1919 H 180.466 0.739661 -3.70591 0
M  V30 1920 H 180.779 0.894448 -7.67606 0
M  V30 1921 H 179.124 0.811304 -6.90248 0
M  V30 1922 H 182.315 0.833437 -4.60621 0
M  V30 1923 H 182.488 0.904247 -6.4166 0
M  V30 1924 N 175.894 1.51508 0.433938 0
M  V30 1925 C 176.841 1.73068 1.52696 0
M  V30 1926 C 177.811 0.572441 1.55924 0
M  V30 1927 O 178.996 0.807253 1.72882 0
M  V30 1928 C 176.136 1.86474 2.90381 0
M  V30 1929 C 175.249 3.14037 2.96656 0
M  V30 1930 C 174.384 3.18019 4.25485 0
M  V30 1931 C 173.423 4.39882 4.2564 0
M  V30 1932 N 172.56 4.41394 5.45999 0
M  V30 1933 H 177.4 2.66366 1.33615 0
M  V30 1934 H 174.937 1.32008 0.649018 0
M  V30 1935 H 176.895 1.92229 3.70275 0
M  V30 1936 H 175.525 0.965809 3.08013 0
M  V30 1937 H 174.577 3.17575 2.09404 0
M  V30 1938 H 175.889 4.0394 2.92633 0
M  V30 1939 H 175.043 3.22708 5.13755 0
M  V30 1940 H 173.782 2.2601 4.3217 0
M  V30 1941 H 172.787 4.35366 3.35763 0
M  V30 1942 H 174.012 5.33159 4.20617 0
M  V30 1943 H 171.958 3.52258 5.53399 0
M  V30 1944 H 171.875 5.25111 5.4387 0
M  V30 1945 H 173.143 4.50281 6.36292 0
M  V30 1946 N 177.372 -0.689602 1.41712 0
M  V30 1947 C 178.335 -1.78521 1.43746 0
M  V30 1948 C 179.335 -1.57436 0.327191 0
M  V30 1949 O 180.525 -1.64 0.587348 0
M  V30 1950 C 177.657 -3.16971 1.25467 0
M  V30 1951 H 178.85 -1.78108 2.41283 0
M  V30 1952 H 176.403 -0.89781 1.27942 0
M  V30 1953 H 177.138 -3.23019 0.287948 0
M  V30 1954 H 176.923 -3.33678 2.05917 0
M  V30 1955 H 178.413 -3.96935 1.2974 0
M  V30 1956 N 178.85 -1.27639 -0.924453 0
M  V30 1957 C 180.266 -1.05113 -1.20097 0
M  V30 1958 C 180.466 0.213262 -2.00368 0
M  V30 1959 O 179.522 0.91787 -2.35226 0
M  V30 1960 C 180.835 -2.29244 -1.94596 0
M  V30 1961 C 182.383 -2.34315 -2.07522 0
M  V30 1962 C 182.858 -3.58183 -2.85427 0
M  V30 1963 N 184.349 -3.5876 -2.92994 0
M  V30 1964 C 185.084 -4.51277 -3.53746 0
M  V30 1965 N 184.58 -5.54102 -4.15863 0
M  V30 1966 N 186.373 -4.38894 -3.51181 0
M  V30 1967 H 178.524 -2.08821 -0.388264 0
M  V30 1968 H 180.787 -0.918568 -0.234385 0
M  V30 1969 H 180.493 -3.21301 -1.43034 0
M  V30 1970 H 180.367 -2.34816 -2.95197 0
M  V30 1971 H 182.754 -1.42762 -2.58269 0
M  V30 1972 H 182.835 -2.32744 -1.06131 0
M  V30 1973 H 182.479 -4.50074 -2.35363 0
M  V30 1974 H 182.409 -3.57006 -3.8711 0
M  V30 1975 H 184.9 -2.84398 -2.4885 0
M  V30 1976 H 185.213 -6.20859 -4.60168 0
M  V30 1977 H 183.558 -5.57941 -4.144 0
M  V30 1978 H 186.749 -3.57772 -3.01856 0
M  V30 1979 H 186.922 -5.11186 -3.98237 0
M  V30 1980 N 180.328 1.1314 -1.09713 0
M  V30 1981 C 181.744 1.36477 -0.827423 0
M  V30 1982 C 181.944 1.93654 0.556817 0
M  V30 1983 O 181 2.15791 1.31112 0
M  V30 1984 C 182.313 2.31334 -1.92106 0
M  V30 1985 C 183.861 2.44943 -1.94864 0
M  V30 1986 C 184.336 3.4311 -3.0338 0
M  V30 1987 N 185.827 3.50662 -3.02639 0
M  V30 1988 C 186.562 4.2651 -3.83246 0
M  V30 1989 N 186.058 5.05485 -4.73768 0
M  V30 1990 N 187.851 4.2184 -3.71493 0
M  V30 1991 H 180.002 0.743807 -1.9895 0
M  V30 1992 H 182.265 0.389823 -0.864143 0
M  V30 1993 H 181.971 1.96483 -2.91698 0
M  V30 1994 H 181.845 3.31381 -1.80184 0
M  V30 1995 H 184.232 2.79079 -0.959099 0
M  V30 1996 H 184.313 1.4481 -2.10864 0
M  V30 1997 H 183.957 3.09704 -4.02549 0
M  V30 1998 H 183.887 4.43055 -2.84622 0
M  V30 1999 H 186.378 2.94315 -2.37039 0
M  V30 2000 H 186.691 5.60675 -5.3185 0
M  V30 2001 H 185.036 5.04708 -4.77802 0
M  V30 2002 H 188.227 3.5922 -3.00131 0
M  V30 2003 H 188.4 4.80697 -4.3455 0
M  V30 2004 N 181.806 0.884767 1.30421 0
M  V30 2005 C 183.222 0.57874 1.48737 0
M  V30 2006 C 183.422 -0.883567 1.81095 0
M  V30 2007 O 182.478 -1.6648 1.89844 0
M  V30 2008 C 183.791 1.49171 2.61091 0
M  V30 2009 C 185.339 1.49532 2.74971 0
M  V30 2010 C 185.814 2.39421 3.90438 0
M  V30 2011 N 187.305 2.37383 3.97748 0
M  V30 2012 C 188.04 3.03647 4.86401 0
M  V30 2013 N 187.536 3.79136 5.79852 0
M  V30 2014 N 189.329 2.9288 4.79768 0
M  V30 2015 H 181.48 1.83075 1.0769 0
M  V30 2016 H 183.743 0.783637 0.533495 0
M  V30 2017 H 183.449 2.53291 2.44001 0
M  V30 2018 H 183.323 1.20113 3.57565 0
M  V30 2019 H 185.71 0.46163 2.91467 0
M  V30 2020 H 185.791 1.8262 1.79119 0
M  V30 2021 H 185.435 3.42874 3.74699 0
M  V30 2022 H 185.365 2.03649 4.85628 0
M  V30 2023 H 187.856 1.82525 3.30897 0
M  V30 2024 H 188.169 4.26789 6.4426 0
M  V30 2025 H 186.514 3.83243 5.79784 0
M  V30 2026 H 189.705 2.33433 4.05742 0
M  V30 2027 H 189.878 3.448 5.4865 0
M  V30 2028 N 183.284 -1.43765 0.645699 0
M  V30 2029 C 184.695 -1.85193 0.236719 0
M  V30 2030 C 185.046 -1.54045 -1.21509 0
M  V30 2031 O 184.171 -0.985694 -1.92647 0
M  V30 2032 C 184.766 -3.36151 0.422845 0
M  V30 2033 C 183.325 -3.76338 0.0682492 0
M  V30 2034 C 182.472 -2.67538 0.729306 0
M  V30 2035 H 185.423 -1.34025 0.849883 0
M  V30 2036 H 185.444 -3.79032 -0.333904 0
M  V30 2037 H 184.956 -3.5879 1.47958 0
M  V30 2038 H 183.057 -3.59312 -0.986179 0
M  V30 2039 H 183.17 -4.76603 0.488469 0
M  V30 2040 H 181.534 -2.54176 0.163235 0
M  V30 2041 H 182.317 -2.93006 1.78892 0
M  V30 2042 N 184.763 -0.387143 -1.52771 0
M  V30 2043 C 185.695 0.484089 -2.2403 0
M  V30 2044 C 186.708 1.02849 -1.26198 0
M  V30 2045 O 187.897 0.931186 -1.52286 0
M  V30 2046 C 184.997 1.68337 -2.94136 0
M  V30 2047 C 184.17 1.26672 -4.18656 0
M  V30 2048 C 183.229 2.33045 -4.7178 0
M  V30 2049 O 182.255 1.94541 -5.34923 0
M  V30 2050 N 183.457 3.64929 -4.5145 0
M  V30 2051 H 186.222 -0.126404 -2.99433 0
M  V30 2052 H 183.783 -0.213392 -1.60488 0
M  V30 2053 H 185.775 2.39019 -3.26577 0
M  V30 2054 H 184.345 2.20025 -2.22053 0
M  V30 2055 H 183.565 0.388878 -3.92277 0
M  V30 2056 H 184.853 0.964964 -4.99566 0
M  V30 2057 H 184.251 3.98974 -4.01044 0
M  V30 2058 H 182.808 4.31651 -4.88386 0
M  V30 2059 N 186.241 1.57166 -0.116904 0
M  V30 2060 C 187.488 1.95123 0.541603 0
M  V30 2061 C 187.816 1.00006 1.6682 0
M  V30 2062 O 187.071 0.0235658 1.95686 0
M  V30 2063 C 187.37 3.39508 1.11664 0
M  V30 2064 C 187.036 4.50762 0.111606 0
M  V30 2065 C 185.698 4.80918 -0.164758 0
M  V30 2066 C 188.05 5.18036 -0.573438 0
M  V30 2067 C 185.378 5.75666 -1.13249 0
M  V30 2068 C 187.73 6.13824 -1.52978 0
M  V30 2069 C 186.394 6.42374 -1.81415 0
M  V30 2070 H 185.664 0.714005 0.198187 0
M  V30 2071 H 188.311 1.9048 -0.197365 0
M  V30 2072 H 186.616 3.40835 1.93232 0
M  V30 2073 H 188.313 3.66189 1.63422 0
M  V30 2074 H 184.903 4.27272 0.337192 0
M  V30 2075 H 189.087 4.94896 -0.373092 0
M  V30 2076 H 184.343 5.96092 -1.35958 0
M  V30 2077 H 188.517 6.65039 -2.06629 0
M  V30 2078 H 186.144 7.15599 -2.56557 0
M  V30 2079 N 187.719 -0.156864 1.56817 0
M  V30 2080 C 188.944 -0.890331 1.87318 0
M  V30 2081 C 189.369 -1.74394 0.704855 0
M  V30 2082 O 188.727 -1.77972 -0.345786 0
M  V30 2083 C 188.775 -1.73102 3.16336 0
M  V30 2084 O 187.879 -2.83422 2.99576 0
M  V30 2085 H 187.22 -0.24857 0.615718 0
M  V30 2086 H 189.75 -0.150649 2.04045 0
M  V30 2087 H 189.76 -2.12803 3.48107 0
M  V30 2088 H 188.435 -1.10412 4.00976 0
M  V30 2089 H 187.012 -2.47199 2.7919 0
M  V30 2090 N 189.197 -1.51736 -0.425897 0
M  V30 2091 C 190.144 -1.73875 -1.51776 0
M  V30 2092 C 191.114 -0.580702 -1.55618 0
M  V30 2093 O 192.299 -0.81641 -1.72451 0
M  V30 2094 C 189.439 -1.88012 -2.89388 0
M  V30 2095 C 188.552 -3.15606 -2.94986 0
M  V30 2096 C 187.687 -3.20271 -4.23793 0
M  V30 2097 C 186.726 -4.42134 -4.23302 0
M  V30 2098 N 185.863 -4.44284 -5.43651 0
M  V30 2099 H 190.703 -2.67071 -1.32201 0
M  V30 2100 H 188.24 -1.32351 -0.642008 0
M  V30 2101 H 190.198 -1.9419 -3.69251 0
M  V30 2102 H 188.828 -0.98213 -3.07496 0
M  V30 2103 H 187.88 -3.18681 -2.07717 0
M  V30 2104 H 189.192 -4.05486 -2.90486 0
M  V30 2105 H 188.346 -3.25428 -5.12036 0
M  V30 2106 H 187.085 -2.28299 -4.30965 0
M  V30 2107 H 186.09 -4.3714 -3.3345 0
M  V30 2108 H 187.315 -5.35382 -4.17783 0
M  V30 2109 H 185.261 -3.55188 -5.51523 0
M  V30 2110 H 185.178 -5.27988 -5.41078 0
M  V30 2111 H 186.446 -4.53649 -6.33895 0
M  V30 2112 N 190.675 0.682077 -1.42076 0
M  V30 2113 C 192.091 0.994324 -1.24841 0
M  V30 2114 C 192.291 2.0096 -0.147389 0
M  V30 2115 O 191.347 2.47822 0.483782 0
M  V30 2116 C 192.66 1.50607 -2.60265 0
M  V30 2117 C 194.208 1.62421 -2.6756 0
M  V30 2118 C 194.683 2.16994 -4.03333 0
M  V30 2119 N 196.174 2.24337 -4.0525 0
M  V30 2120 C 196.909 2.67621 -5.07116 0
M  V30 2121 N 196.405 3.1041 -6.19368 0
M  V30 2122 N 198.198 2.67305 -4.94474 0
M  V30 2123 H 190.349 0.00973908 -2.12398 0
M  V30 2124 H 192.612 0.0668593 -0.945639 0
M  V30 2125 H 192.318 0.834583 -3.41654 0
M  V30 2126 H 192.192 2.48602 -2.83684 0
M  V30 2127 H 194.579 2.28678 -1.86521 0
M  V30 2128 H 194.66 0.629352 -2.47937 0
M  V30 2129 H 194.304 1.51349 -4.84826 0
M  V30 2130 H 194.234 3.17258 -4.20304 0
M  V30 2131 H 196.725 1.94158 -3.24209 0
M  V30 2132 H 197.038 3.42103 -6.92954 0
M  V30 2133 H 195.383 3.08286 -6.22884 0
M  V30 2134 H 198.574 2.33233 -4.05857 0
M  V30 2135 H 198.747 3.00718 -5.73997 0
M  V30 2136 O 192.192 1.38868 0.824489 0
M  V30 2137 H 192.883 1.26408 1.46767 0
M  V30 END ATOM
M  V30 BEGIN BOND
M  V30 END BOND
M  V30 END CTAB
M  END
$$$$
