drugbank_target|P0A759 Glucosamine-6-phosphate deaminase (DB02445; DB03951)
 OpenBabel12092119573D

  0  0  0     0  0            999 V3000
M  V30 BEGIN CTAB
M  V30 COUNTS 4173 4220 0 0 0
M  V30 BEGIN ATOM
M  V30 1 H -0.908 1.98254 -0.117106 0
M  V30 2 N 0 1.576 0 0
M  V30 3 C 0.933 2.03868 1.02534 0
M  V30 4 C 1.911 0.928543 1.3348 0
M  V30 5 O 3.095 1.19667 1.45644 0
M  V30 6 C 0.222 2.43627 2.35294 0
M  V30 7 C -0.732 3.65373 2.2001 0
M  V30 8 S 0.101 5.13292 1.52614 0
M  V30 9 C 1.257 5.56322 2.86805 0
M  V30 10 H 1.49 2.90518 0.631377 0
M  V30 11 H -0.977 1.52953 0.210867 0
M  V30 12 H 0.981 2.67203 3.11629 0
M  V30 13 H -0.358 1.57376 2.7183 0
M  V30 14 H -1.165 3.90944 3.18086 0
M  V30 15 H -1.563 3.418 1.51819 0
M  V30 16 H 0.729 5.58782 3.83104 0
M  V30 17 H 1.672 6.56266 2.65933 0
M  V30 18 H 2.08 4.83886 2.90714 0
M  V30 19 N 1.4781 -0.272755 1.55222 0
M  V30 20 C 2.8941 -0.619959 1.47067 0
M  V30 21 C 3.0941 -1.895 0.684978 0
M  V30 22 O 2.1501 -2.51675 0.203931 0
M  V30 23 C 3.4631 -0.746693 2.91282 0
M  V30 24 C 5.0111 -0.840731 3.01497 0
M  V30 25 C 5.4861 -0.99924 4.46967 0
M  V30 26 N 6.9771 -1.06476 4.50796 0
M  V30 27 C 7.7121 -1.20621 5.6057 0
M  V30 28 N 7.2081 -1.31483 6.80209 0
M  V30 29 N 9.0011 -1.23733 5.48312 0
M  V30 30 H 1.1521 0.564606 2.04758 0
M  V30 31 H 3.4151 0.191177 0.928523 0
M  V30 32 H 3.1211 0.119753 3.51496 0
M  V30 33 H 2.9951 -1.6269 3.40311 0
M  V30 34 H 5.3821 -1.69764 2.41379 0
M  V30 35 H 5.4631 0.0640874 2.5572 0
M  V30 36 H 5.1071 -0.146984 5.07687 0
M  V30 37 H 5.0371 -1.91871 4.90401 0
M  V30 38 H 7.5281 -0.993196 3.64615 0
M  V30 39 H 7.8411 -1.42111 7.59621 0
M  V30 40 H 6.1861 -1.28487 6.8302 0
M  V30 41 H 9.3771 -1.14877 4.53785 0
M  V30 42 H 9.5501 -1.34412 6.33906 0
M  V30 43 N 2.9562 -1.48159 -0.537278 0
M  V30 44 C 3.8862 -1.65029 -1.6519 0
M  V30 45 C 4.8672 -0.499281 -1.62607 0
M  V30 46 O 6.0522 -0.730972 -1.79918 0
M  V30 47 C 3.1822 -1.68303 -3.03795 0
M  V30 48 C 2.1362 -2.8283 -3.21234 0
M  V30 49 C 1.4622 -2.71189 -4.60826 0
M  V30 50 C 2.7622 -4.24211 -3.04701 0
M  V30 51 H 4.4562 -2.58341 -1.51328 0
M  V30 52 H 2.0022 -1.24325 -0.726585 0
M  V30 53 H 3.9552 -1.78693 -3.81637 0
M  V30 54 H 2.6792 -0.715635 -3.18663 0
M  V30 55 H 1.3382 -2.71983 -2.45807 0
M  V30 56 H 0.9862 -1.72435 -4.7252 0
M  V30 57 H 0.6862 -3.48035 -4.7344 0
M  V30 58 H 2.2102 -2.83537 -5.40777 0
M  V30 59 H 3.6242 -4.3593 -3.72341 0
M  V30 60 H 2.0212 -5.01998 -3.28813 0
M  V30 61 H 3.0912 -4.41184 -2.01209 0
M  V30 62 N 4.4343 0.785586 -1.36625 0
M  V30 63 C 5.6833 1.53883 -1.30396 0
M  V30 64 C 5.9963 1.95271 0.113452 0
M  V30 65 O 7.2023 2.69858 0.298142 0
M  V30 66 C 5.6583 2.77808 -2.28802 0
M  V30 67 C 5.2663 2.43574 -3.75999 0
M  V30 68 C 7.0103 3.55783 -2.31558 0
M  V30 69 C 4.9173 3.63919 -4.66173 0
M  V30 70 H 3.8473 0.577678 -0.484566 0
M  V30 71 H 6.4983 0.861705 -1.62009 0
M  V30 72 H 4.8803 3.47339 -1.90188 0
M  V30 73 H 6.0543 1.81916 -4.23371 0
M  V30 74 H 4.3693 1.78803 -3.76056 0
M  V30 75 H 6.9663 4.45205 -2.96137 0
M  V30 76 H 7.3093 3.94644 -1.3252 0
M  V30 77 H 7.8423 2.93235 -2.68809 0
M  V30 78 H 4.5813 3.3015 -5.66287 0
M  V30 79 H 4.1013 4.2473 -4.23515 0
M  V30 80 H 5.7803 4.30901 -4.82632 0
M  V30 81 N 5.9124 1.20967 1.01018 0
M  V30 82 C 7.3234 1.02319 1.56165 0
M  V30 83 C 7.6744 -0.418546 1.91684 0
M  V30 84 O 6.7994 -1.30096 1.72928 0
M  V30 85 C 7.3944 1.85109 2.8376 0
M  V30 86 C 5.9534 1.70809 3.35412 0
M  V30 87 C 5.1004 1.82643 2.08655 0
M  V30 88 H 8.0514 1.35065 0.833255 0
M  V30 89 H 8.0724 1.35827 3.55431 0
M  V30 90 H 7.5844 2.90035 2.57878 0
M  V30 91 H 5.6854 0.685464 3.66241 0
M  V30 92 H 5.7984 2.52467 4.07182 0
M  V30 93 H 4.1624 1.25896 2.21409 0
M  V30 94 H 4.9454 2.89066 1.85191 0
M  V30 95 N 7.3905 -1.2043 1.01659 0
M  V30 96 C 8.3205 -2.25466 0.607226 0
M  V30 97 C 9.3015 -1.65853 -0.377716 0
M  V30 98 O 10.4865 -1.92409 -0.263149 0
M  V30 99 C 7.6165 -3.47256 -0.0552949 0
M  V30 100 C 6.5705 -4.19462 0.850632 0
M  V30 101 C 5.8965 -5.34673 0.0538859 0
M  V30 102 C 7.1965 -4.75603 2.15868 0
M  V30 103 H 8.8905 -2.59962 1.48526 0
M  V30 104 H 6.4365 -1.2496 0.715605 0
M  V30 105 H 8.3895 -4.19917 -0.353233 0
M  V30 106 H 7.1135 -3.11924 -0.968045 0
M  V30 107 H 5.7725 -3.48667 1.13257 0
M  V30 108 H 5.4205 -4.95585 -0.860514 0
M  V30 109 H 5.1205 -5.83913 0.657192 0
M  V30 110 H 6.6445 -6.10138 -0.237598 0
M  V30 111 H 8.0585 -5.40083 1.92311 0
M  V30 112 H 6.4555 -5.3528 2.71284 0
M  V30 113 H 7.5255 -3.94346 2.82169 0
M  V30 114 N 8.8686 -0.792821 -1.36206 0
M  V30 115 C 10.0966 -0.378825 -2.03402 0
M  V30 116 C 10.5116 1.00586 -1.59774 0
M  V30 117 O 9.8686 1.64574 -0.788764 0
M  V30 118 C 9.9196 -0.43683 -3.58851 0
M  V30 119 O 9.6406 -1.76691 -4.00889 0
M  V30 120 C 11.1416 -0.0138943 -4.43298 0
M  V30 121 H 8.3616 -0.155673 -0.652692 0
M  V30 122 H 10.9056 -1.07261 -1.74113 0
M  V30 123 H 9.0606 0.208575 -3.86838 0
M  V30 124 H 9.4746 -1.72011 -4.95492 0
M  V30 125 H 10.9486 -0.105615 -5.51899 0
M  V30 126 H 11.4256 1.03915 -4.2673 0
M  V30 127 H 12.0316 -0.63192 -4.20579 0
M  V30 128 N 10.3467 1.47872 -0.545128 0
M  V30 129 C 11.5747 2.06889 -0.021084 0
M  V30 130 C 11.9897 1.39955 1.2672 0
M  V30 131 O 11.3467 0.492036 1.75742 0
M  V30 132 C 11.3977 3.60996 0.190817 0
M  V30 133 O 11.1187 4.25419 -1.04644 0
M  V30 134 C 12.6197 4.36849 0.753521 0
M  V30 135 H 9.8397 0.669785 -0.0403635 0
M  V30 136 H 12.3837 1.90049 -0.755095 0
M  V30 137 H 10.5387 3.77391 0.87492 0
M  V30 138 H 10.9527 5.17785 -0.836611 0
M  V30 139 H 12.4267 5.45399 0.851139 0
M  V30 140 H 12.9037 4.02306 1.762 0
M  V30 141 H 13.5097 4.25169 0.105503 0
M  V30 142 N 11.8248 0.280983 1.55075 0
M  V30 143 C 12.7878 -0.590896 2.21452 0
M  V30 144 C 13.7878 -1.07682 1.19421 0
M  V30 145 O 14.9778 -0.97605 1.44288 0
M  V30 146 C 12.1098 -1.81587 2.88511 0
M  V30 147 H 13.3028 -0.0112554 2.99898 0
M  V30 148 H 10.8558 0.0316438 1.56268 0
M  V30 149 H 11.5908 -2.43587 2.14093 0
M  V30 150 H 11.3758 -1.4753 3.63287 0
M  V30 151 H 12.8658 -2.43575 3.39206 0
M  V30 152 N 13.3029 -1.57598 0.00835791 0
M  V30 153 C 14.2129 -2.12385 -0.996487 0
M  V30 154 C 15.2289 -1.07108 -1.37127 0
M  V30 155 O 16.4049 -1.39055 -1.4569 0
M  V30 156 C 13.4699 -2.62314 -2.26699 0
M  V30 157 C 12.5309 -3.82225 -1.95456 0
M  V30 158 C 11.7639 -4.29763 -3.16449 0
M  V30 159 O 11.9869 -3.76584 -4.28416 0
M  V30 160 O 10.9209 -5.21832 -2.99958 0
M  V30 161 H 14.7469 -2.98479 -0.560725 0
M  V30 162 H 12.3319 -1.47903 -0.210987 0
M  V30 163 H 14.2139 -2.94589 -3.01322 0
M  V30 164 H 12.8889 -1.79313 -2.69497 0
M  V30 165 H 11.7959 -3.54909 -1.18282 0
M  V30 166 H 13.1289 -4.66324 -1.57489 0
M  V30 167 N 14.781 0.264519 -1.55364 0
M  V30 168 C 15.713 1.34965 -1.85248 0
M  V30 169 C 16.726 1.45136 -0.737525 0
M  V30 170 O 17.915 1.46801 -1.01547 0
M  V30 171 C 15.015 2.73008 -2.00797 0
M  V30 172 C 14.188 2.85324 -3.31525 0
M  V30 173 C 13.247 4.04097 -3.37034 0
M  V30 174 O 12.273 3.94455 -4.10358 0
M  V30 175 N 13.475 5.16458 -2.65049 0
M  V30 176 H 16.24 1.09672 -2.78913 0
M  V30 177 H 13.801 0.454635 -1.55386 0
M  V30 178 H 15.793 3.50772 -2.01844 0
M  V30 179 H 14.363 2.91087 -1.1396 0
M  V30 180 H 13.583 1.94377 -3.42945 0
M  V30 181 H 14.871 2.9049 -4.17724 0
M  V30 182 H 14.269 5.27181 -2.05175 0
M  V30 183 H 12.826 5.92422 -2.71809 0
M  V30 184 N 16.2591 1.48442 0.529413 0
M  V30 185 C 17.5051 1.5672 1.28711 0
M  V30 186 C 17.8381 0.2406 1.92704 0
M  V30 187 O 17.1131 -0.753454 1.79313 0
M  V30 188 C 17.3961 2.70587 2.37603 0
M  V30 189 C 17.2491 4.12953 1.78297 0
M  V30 190 C 18.5681 2.80212 3.39366 0
M  V30 191 H 15.6871 0.570474 0.466613 0
M  V30 192 H 18.3291 1.80617 0.589706 0
M  V30 193 H 16.4791 2.50342 2.97088 0
M  V30 194 H 18.1511 4.44639 1.22858 0
M  V30 195 H 16.3941 4.19927 1.0883 0
M  V30 196 H 17.0651 4.88448 2.57144 0
M  V30 197 H 19.5411 2.98553 2.89836 0
M  V30 198 H 18.4171 3.61611 4.12951 0
M  V30 199 H 18.6781 1.88393 3.99951 0
M  V30 200 N 17.7372 -0.778329 1.37039 0
M  V30 201 C 18.9852 -1.53361 1.31623 0
M  V30 202 C 19.3062 -1.94739 -0.100831 0
M  V30 203 O 18.5762 -1.65797 -1.04347 0
M  V30 204 H 17.1562 -0.568794 0.484234 0
M  V30 205 H 19.8182 -0.926742 1.71457 0
M  V30 206 H 18.9142 -2.43606 1.95096 0
M  V30 207 N 19.2153 -1.21501 -1.00376 0
M  V30 208 C 20.1623 -0.975387 -2.09177 0
M  V30 209 C 21.1323 0.0990615 -1.65804 0
M  V30 210 O 22.3173 -0.0483147 -1.90739 0
M  V30 211 C 19.4573 -0.547507 -3.40729 0
M  V30 212 C 18.5703 -1.69153 -3.97506 0
M  V30 213 C 17.7053 -1.2127 -5.17172 0
M  V30 214 C 16.7443 -2.32897 -5.66061 0
M  V30 215 N 15.8813 -1.86138 -6.76976 0
M  V30 216 H 20.7213 -1.9068 -2.29009 0
M  V30 217 H 18.2583 -0.950257 -1.12288 0
M  V30 218 H 20.2163 -0.280667 -4.16255 0
M  V30 219 H 18.8463 0.346904 -3.20931 0
M  V30 220 H 17.8983 -2.07298 -3.18954 0
M  V30 221 H 19.2103 -2.5316 -4.29781 0
M  V30 222 H 18.3643 -0.902591 -5.99948 0
M  V30 223 H 17.1033 -0.342692 -4.86495 0
M  V30 224 H 16.1083 -2.64709 -4.81881 0
M  V30 225 H 17.3333 -3.20396 -5.98768 0
M  V30 226 H 15.2793 -1.01484 -6.48103 0
M  V30 227 H 15.1963 -2.63717 -7.08512 0
M  V30 228 H 16.4643 -1.58165 -7.63285 0
M  V30 229 N 20.6934 1.19889 -1.02296 0
M  V30 230 C 21.9394 1.89973 -0.726759 0
M  V30 231 C 22.2944 1.7776 0.73614 0
M  V30 232 O 21.5874 1.15523 1.52856 0
M  V30 233 C 21.7814 3.39883 -1.10518 0
M  V30 234 C 21.6104 3.66684 -2.60332 0
M  V30 235 C 20.3804 3.85045 -3.27213 0
M  V30 236 C 22.5784 3.68727 -3.58532 0
M  V30 237 N 20.5604 3.99422 -4.66192 0
M  V30 238 C 21.9314 3.88604 -4.83101 0
M  V30 239 C 23.9864 3.51722 -3.52414 0
M  V30 240 C 22.6894 3.9324 -6.02292 0
M  V30 241 C 24.7154 3.57632 -4.71013 0
M  V30 242 C 24.0774 3.77988 -5.94394 0
M  V30 243 H 20.1764 0.714551 -0.317712 0
M  V30 244 H 22.7604 1.44123 -1.30907 0
M  V30 245 H 20.9314 3.8447 -0.551142 0
M  V30 246 H 22.6634 3.97464 -0.761853 0
M  V30 247 H 19.4184 3.83689 -2.77632 0
M  V30 248 H 19.8424 4.10473 -5.38368 0
M  V30 249 H 24.4844 3.34945 -2.58015 0
M  V30 250 H 22.2024 4.08811 -6.97065 0
M  V30 251 H 25.7884 3.45773 -4.67902 0
M  V30 252 H 24.6684 3.82428 -6.8463 0
M  V30 253 N 22.1715 0.800033 1.35784 0
M  V30 254 C 23.1345 0.211565 2.28221 0
M  V30 255 C 24.1345 -0.59728 1.49296 0
M  V30 256 O 25.3245 -0.416721 1.69142 0
M  V30 257 C 22.4565 -0.705846 3.33513 0
M  V30 258 H 23.6495 1.02677 2.81776 0
M  V30 259 H 21.2025 0.570211 1.45528 0
M  V30 260 H 21.9375 -1.54498 2.85133 0
M  V30 261 H 21.7225 -0.127655 3.91892 0
M  V30 262 H 23.2125 -1.11211 4.02519 0
M  V30 263 N 23.6496 -1.47581 0.552962 0
M  V30 264 C 24.6126 -2.28439 -0.186605 0
M  V30 265 C 25.6126 -1.36706 -0.84665 0
M  V30 266 O 26.8026 -1.59378 -0.703164 0
M  V30 267 C 23.9346 -3.16264 -1.2724 0
M  V30 268 H 25.1276 -2.95294 0.523609 0
M  V30 269 H 22.6806 -1.532 0.309745 0
M  V30 270 H 23.4156 -2.54091 -2.01514 0
M  V30 271 H 23.2006 -3.83769 -0.803968 0
M  V30 272 H 24.6906 -3.77198 -1.79196 0
M  V30 273 N 25.1277 -0.289203 -1.54924 0
M  V30 274 C 26.5437 0.0645403 -1.59469 0
M  V30 275 C 26.7437 1.53419 -1.30632 0
M  V30 276 O 25.7997 2.2852 -1.074 0
M  V30 277 C 27.1127 -0.32278 -2.98963 0
M  V30 278 C 28.6607 -0.270564 -3.11828 0
M  V30 279 C 29.1357 -0.632532 -4.53611 0
M  V30 280 N 30.6267 -0.584617 -4.59496 0
M  V30 281 C 31.3617 -0.837314 -5.67254 0
M  V30 282 N 30.8577 -1.15536 -6.83098 0
M  V30 283 N 32.6507 -0.765166 -5.56868 0
M  V30 284 H 24.8017 -1.24714 -1.71931 0
M  V30 285 H 27.0647 -0.504809 -0.802416 0
M  V30 286 H 26.7707 -1.34541 -3.24948 0
M  V30 287 H 26.6447 0.32944 -3.75759 0
M  V30 288 H 29.0317 0.742805 -2.85598 0
M  V30 289 H 29.1127 -0.957242 -2.37214 0
M  V30 290 H 28.7567 -1.64365 -4.80569 0
M  V30 291 H 28.6867 0.07609 -5.26545 0
M  V30 292 H 31.1777 -0.349248 -3.76283 0
M  V30 293 H 31.4907 -1.33447 -7.61191 0
M  V30 294 H 29.8357 -1.19328 -6.84679 0
M  V30 295 H 33.0267 -0.516432 -4.65243 0
M  V30 296 H 33.1997 -0.965477 -6.40767 0
M  V30 297 N 26.6058 1.57591 -0.0167156 0
M  V30 298 C 27.5558 2.05953 0.978137 0
M  V30 299 C 28.5398 0.957532 1.29306 0
M  V30 300 O 29.7318 1.22119 1.28125 0
M  V30 301 C 26.8608 2.58006 2.26468 0
M  V30 302 C 25.9468 3.75113 1.97867 0
M  V30 303 N 26.3378 4.86187 1.39486 0
M  V30 304 C 24.6358 3.83363 2.27924 0
M  V30 305 C 25.3368 5.67502 1.27735 0
M  V30 306 N 24.3128 5.14023 1.76866 0
M  V30 307 H 28.1148 2.89236 0.521522 0
M  V30 308 H 25.6288 1.61301 0.188596 0
M  V30 309 H 27.6258 2.90937 2.98599 0
M  V30 310 H 26.2858 1.76148 2.72767 0
M  V30 311 H 27.2968 5.06695 1.07147 0
M  V30 312 H 23.9738 3.1239 2.76982 0
M  V30 313 H 25.3638 6.66791 0.826978 0
M  V30 314 N 28.0839 -0.256276 1.55502 0
M  V30 315 C 29.3329 -0.983486 1.76098 0
M  V30 316 C 29.6459 -1.86837 0.578896 0
M  V30 317 O 30.8519 -2.63163 0.667648 0
M  V30 318 C 29.3079 -1.79868 3.1173 0
M  V30 319 C 28.9159 -0.961648 4.37557 0
M  V30 320 C 30.6599 -2.51919 3.41668 0
M  V30 321 C 28.5669 -1.77219 5.64223 0
M  V30 322 H 27.4969 -0.370936 0.656447 0
M  V30 323 H 30.1479 -0.238492 1.81944 0
M  V30 324 H 28.5299 -2.58527 2.99966 0
M  V30 325 H 29.7039 -0.218048 4.60284 0
M  V30 326 H 28.0189 -0.354913 4.14885 0
M  V30 327 H 30.6159 -3.12998 4.33516 0
M  V30 328 H 30.9589 -3.23059 2.62562 0
M  V30 329 H 31.4919 -1.80278 3.54605 0
M  V30 330 H 28.2309 -1.10471 6.46124 0
M  V30 331 H 27.7509 -2.49132 5.45613 0
M  V30 332 H 29.4299 -2.34169 6.03137 0
M  V30 333 N 29.562 -1.4872 -0.521534 0
M  V30 334 C 30.808 -1.574 -1.27879 0
M  V30 335 C 31.141 -0.250817 -1.92573 0
M  V30 336 O 30.416 0.743934 -1.79711 0
M  V30 337 C 30.699 -2.71843 -2.36164 0
M  V30 338 C 30.552 -4.13893 -1.76105 0
M  V30 339 C 31.871 -2.82008 -3.37875 0
M  V30 340 H 28.99 -0.572941 -0.463581 0
M  V30 341 H 31.632 -1.80927 -0.580119 0
M  V30 342 H 29.782 -2.51914 -2.95756 0
M  V30 343 H 31.454 -4.45284 -1.20499 0
M  V30 344 H 29.697 -4.20498 -1.06601 0
M  V30 345 H 30.368 -4.89804 -2.5455 0
M  V30 346 H 32.844 -3.00086 -2.88249 0
M  V30 347 H 31.72 -3.63796 -4.11028 0
M  V30 348 H 31.981 -1.90511 -3.98946 0
M  V30 349 N 31.0401 0.771051 -1.3745 0
M  V30 350 C 31.9881 1.90574 -1.33358 0
M  V30 351 C 32.9821 1.67936 -0.22224 0
M  V30 352 O 34.1881 1.75717 -0.390304 0
M  V30 353 H 30.5631 0.626714 -0.415612 0
M  V30 354 H 32.5341 1.91142 -2.29144 0
M  V30 355 C 31.2831 3.27845 -1.15813 0
M  V30 356 H 30.6061 3.45842 -2.00583 0
M  V30 357 H 32.0461 4.07538 -1.17 0
M  V30 358 C 30.5051 3.36625 0.136165 0
M  V30 359 O 31.0351 3.85785 1.11949 0
M  V30 360 N 29.2411 2.89997 0.187099 0
M  V30 361 H 28.7881 2.50182 -0.613753 0
M  V30 362 H 28.7461 2.96252 1.05272 0
M  V30 363 N 32.5182 1.22032 0.997298 0
M  V30 364 C 33.9342 0.979326 1.26021 0
M  V30 365 C 34.1342 -0.32972 1.98784 0
M  V30 366 O 33.1902 -1.05345 2.29475 0
M  V30 367 C 34.5032 2.17509 2.07631 0
M  V30 368 C 36.0512 2.21817 2.2083 0
M  V30 369 C 36.5262 3.40933 3.05825 0
M  V30 370 N 38.0172 3.41067 3.13412 0
M  V30 371 C 38.7522 4.29885 3.79455 0
M  V30 372 N 38.2482 5.28914 4.47462 0
M  V30 373 N 40.0412 4.17673 3.76173 0
M  V30 374 H 32.1922 2.06202 0.509352 0
M  V30 375 H 34.4552 0.90334 0.287541 0
M  V30 376 H 34.1612 3.12415 1.61524 0
M  V30 377 H 34.0352 2.17206 3.08385 0
M  V30 378 H 36.4222 1.27462 2.66153 0
M  V30 379 H 36.5032 2.2616 1.1952 0
M  V30 380 H 36.1472 4.35586 2.61203 0
M  V30 381 H 36.0772 3.33829 4.07266 0
M  V30 382 H 38.5682 2.69406 2.65007 0
M  V30 383 H 38.8812 5.92973 4.95583 0
M  V30 384 H 37.2262 5.32831 4.46224 0
M  V30 385 H 40.4172 3.39564 3.22202 0
M  V30 386 H 40.5902 4.87098 4.27363 0
M  V30 387 N 33.9963 -1.19345 1.0293 0
M  V30 388 C 35.2453 -1.88363 0.721256 0
M  V30 389 C 35.5583 -1.80514 -0.753254 0
M  V30 390 O 36.7643 -2.44788 -1.17436 0
M  V30 391 C 35.2203 -3.37872 1.23978 0
M  V30 392 C 34.8283 -3.54278 2.74211 0
M  V30 393 C 36.5723 -4.12365 1.00775 0
M  V30 394 C 34.4793 -4.97682 3.19479 0
M  V30 395 H 33.4093 -0.705484 0.266098 0
M  V30 396 H 36.0603 -1.34928 1.24365 0
M  V30 397 H 34.4423 -3.90707 0.6453 0
M  V30 398 H 35.6163 -3.11769 3.39318 0
M  V30 399 H 33.9313 -2.93174 2.95699 0
M  V30 400 H 36.5283 -5.18119 1.32123 0
M  V30 401 H 36.8713 -4.16263 -0.0554308 0
M  V30 402 H 37.4043 -3.65668 1.56625 0
M  V30 403 H 34.1433 -4.98945 4.25128 0
M  V30 404 H 33.6633 -5.4095 2.591 0
M  V30 405 H 35.3423 -5.66337 3.12845 0
M  V30 406 N 35.4744 -0.807222 -1.35358 0
M  V30 407 C 36.4224 -0.20614 -2.31685 0
M  V30 408 C 37.4164 0.644445 -1.56663 0
M  V30 409 O 38.6224 0.537538 -1.71786 0
M  V30 410 H 34.9974 -0.0479006 -0.750473 0
M  V30 411 H 36.9684 -1.03369 -2.79924 0
M  V30 412 C 35.7174 0.630212 -3.41941 0
M  V30 413 H 35.0404 -0.0149558 -3.99797 0
M  V30 414 H 36.4804 1.01716 -4.11619 0
M  V30 415 C 34.9394 1.79601 -2.85035 0
M  V30 416 O 35.4694 2.89351 -2.78637 0
M  V30 417 N 33.6754 1.60774 -2.42074 0
M  V30 418 H 33.2224 0.715009 -2.47478 0
M  V30 419 H 33.1804 2.38933 -2.04349 0
M  V30 420 N 36.9525 1.47285 -0.560781 0
M  V30 421 C 37.9155 2.28535 0.174488 0
M  V30 422 C 38.9155 1.37153 0.839388 0
M  V30 423 O 40.1055 1.59748 0.694702 0
M  V30 424 C 37.2375 3.16934 1.25561 0
M  V30 425 H 38.4305 2.95012 -0.539262 0
M  V30 426 H 35.9835 1.53034 -0.317865 0
M  V30 427 H 36.7185 2.55157 2.00164 0
M  V30 428 H 36.5035 3.8419 0.783604 0
M  V30 429 H 37.9935 3.78143 1.77193 0
M  V30 430 N 38.4306 0.297415 1.54768 0
M  V30 431 C 39.6776 -0.312913 2.00068 0
M  V30 432 C 40.0056 -1.54171 1.18582 0
M  V30 433 O 39.2606 -1.94108 0.249133 0
M  V30 434 C 39.5596 -0.717561 3.50123 0
M  V30 435 C 39.2256 0.409095 4.4904 0
M  V30 436 C 37.8876 0.718399 4.75807 0
M  V30 437 C 40.2396 1.16717 5.07963 0
M  V30 438 C 37.5676 1.78896 5.5876 0
M  V30 439 C 39.9196 2.22762 5.92081 0
M  V30 440 C 38.5836 2.54303 6.1716 0
M  V30 441 H 37.8536 -0.114503 0.7321 0
M  V30 442 H 40.5006 0.415767 1.86932 0
M  V30 443 H 38.8056 -1.52627 3.60849 0
M  V30 444 H 40.5026 -1.20091 3.82595 0
M  V30 445 H 37.0926 0.157918 4.28309 0
M  V30 446 H 41.2766 0.941466 4.87289 0
M  V30 447 H 36.5326 2.0381 5.7643 0
M  V30 448 H 40.7066 2.81962 6.36765 0
M  V30 449 H 38.3336 3.3739 6.81229 0
M  V30 450 N 39.9087 -1.5758 0.0250728 0
M  V30 451 C 40.8557 -2.09973 -0.958129 0
M  V30 452 C 41.8257 -1.00085 -1.3256 0
M  V30 453 O 43.0107 -1.27481 -1.41962 0
M  V30 454 C 40.1507 -2.62812 -2.2366 0
M  V30 455 C 39.2637 -3.86693 -1.92594 0
M  V30 456 C 38.3987 -4.27941 -3.14707 0
M  V30 457 C 37.4377 -5.44591 -2.79442 0
M  V30 458 N 36.5747 -5.81014 -3.94167 0
M  V30 459 H 41.4147 -2.937 -0.504428 0
M  V30 460 H 38.9517 -1.45172 -0.237392 0
M  V30 461 H 40.9097 -2.91536 -2.98434 0
M  V30 462 H 39.5397 -1.81922 -2.66654 0
M  V30 463 H 38.5917 -3.64723 -1.0808 0
M  V30 464 H 39.9037 -4.71547 -1.62619 0
M  V30 465 H 39.0577 -4.58079 -3.97804 0
M  V30 466 H 37.7967 -3.41845 -3.4784 0
M  V30 467 H 36.8017 -5.1415 -1.94755 0
M  V30 468 H 38.0267 -6.32382 -2.47528 0
M  V30 469 H 35.9727 -4.97874 -4.2715 0
M  V30 470 H 35.8897 -6.60498 -3.67801 0
M  V30 471 H 37.1577 -6.15756 -4.7798 0
M  V30 472 N 41.3868 0.248026 -1.55636 0
M  V30 473 C 42.7978 0.817177 -1.67866 0
M  V30 474 C 43.1488 1.86069 -0.622322 0
M  V30 475 O 42.2738 2.15157 0.231618 0
M  V30 476 C 42.8688 1.489 -3.04326 0
M  V30 477 C 41.4278 2.00587 -3.185 0
M  V30 478 C 40.5748 0.856573 -2.63739 0
M  V30 479 H 43.5258 0.0238579 -1.58682 0
M  V30 480 H 43.5468 2.35698 -2.98708 0
M  V30 481 H 43.0588 0.729279 -3.81186 0
M  V30 482 H 41.1598 2.79443 -2.4646 0
M  V30 483 H 41.2728 2.20402 -4.25393 0
M  V30 484 H 39.6368 1.25678 -2.21534 0
M  V30 485 H 40.4198 0.109953 -3.43124 0
M  V30 486 N 42.8649 1.48995 0.513639 0
M  V30 487 C 44.0929 1.61531 1.29288 0
M  V30 488 C 44.5079 0.281801 1.86685 0
M  V30 489 O 43.8649 -0.731111 1.67215 0
M  V30 490 C 43.9159 2.67449 2.43215 0
M  V30 491 O 43.6369 3.95626 1.88179 0
M  V30 492 C 45.1379 2.90575 3.34785 0
M  V30 493 H 42.3579 0.544165 0.392588 0
M  V30 494 H 44.9019 1.9494 0.617956 0
M  V30 495 H 43.0569 2.36853 3.0656 0
M  V30 496 H 43.4709 4.53868 2.62876 0
M  V30 497 H 44.9449 3.68449 4.11035 0
M  V30 498 H 45.4219 2.00011 3.91015 0
M  V30 499 H 46.0279 3.22538 2.77218 0
M  V30 500 N 44.343 -0.763751 1.37857 0
M  V30 501 C 45.306 -1.85889 1.34081 0
M  V30 502 C 46.306 -1.58949 0.243277 0
M  V30 503 O 47.496 -1.66882 0.499589 0
M  V30 504 C 44.628 -3.23176 1.08489 0
M  V30 505 H 45.821 -1.90648 2.31502 0
M  V30 506 H 43.374 -0.964367 1.23003 0
M  V30 507 H 44.109 -3.24091 0.116318 0
M  V30 508 H 43.894 -3.44124 1.8794 0
M  V30 509 H 45.384 -4.03254 1.08517 0
M  V30 510 N 45.8211 -1.22559 -0.990812 0
M  V30 511 C 47.0981 -0.959875 -1.70428 0
M  V30 512 C 47.4781 0.524455 -2.04481 0
M  V30 513 O 46.8261 1.49302 -1.72977 0
M  V30 514 C 47.0361 -1.85955 -2.95333 0
M  V30 515 C 48.3841 -2.11687 -3.68068 0
M  V30 516 O 49.4081 -1.8342 -3.05345 0
M  V30 517 O 48.2671 -2.59572 -4.80921 0
M  V30 518 H 45.3611 -0.361154 -0.743974 0
M  V30 519 H 47.9071 -1.33554 -1.04697 0
M  V30 520 H 46.6791 -2.86346 -2.66687 0
M  V30 521 H 46.3021 -1.4856 -3.68803 0
M  V30 522 N 47.2992 1.18797 -1.03562 0
M  V30 523 C 48.7152 1.40671 -0.753917 0
M  V30 524 C 48.9152 1.9043 0.658686 0
M  V30 525 O 47.9712 2.08538 1.42366 0
M  V30 526 C 49.2842 2.41192 -1.79574 0
M  V30 527 C 50.8322 2.54928 -1.81606 0
M  V30 528 C 51.3072 3.58709 -2.84766 0
M  V30 529 N 52.7982 3.66212 -2.83625 0
M  V30 530 C 53.5332 4.46225 -3.60098 0
M  V30 531 N 53.0292 5.29888 -4.46308 0
M  V30 532 N 54.8222 4.40939 -3.4861 0
M  V30 533 H 46.9732 0.848221 -1.94728 0
M  V30 534 H 49.2362 0.435081 -0.842264 0
M  V30 535 H 48.9422 2.11669 -2.80872 0
M  V30 536 H 48.8162 3.40467 -1.62365 0
M  V30 537 H 51.2032 2.83771 -0.809817 0
M  V30 538 H 51.2842 1.55784 -2.02891 0
M  V30 539 H 50.9282 3.30607 -3.85566 0
M  V30 540 H 50.8582 4.57519 -2.60737 0
M  V30 541 H 53.3492 3.06466 -2.21105 0
M  V30 542 H 53.6622 5.88078 -5.01382 0
M  V30 543 H 52.0072 5.29326 -4.50377 0
M  V30 544 H 55.1982 3.74624 -2.80668 0
M  V30 545 H 55.3712 5.03056 -4.08459 0
M  V30 546 N 48.7773 0.814389 1.34928 0
M  V30 547 C 50.1883 0.458364 1.80986 0
M  V30 548 C 50.5393 -1.02042 1.67577 0
M  V30 549 O 49.6643 -1.79352 1.21086 0
M  V30 550 C 50.2593 0.825212 3.28597 0
M  V30 551 C 48.8183 0.521677 3.72767 0
M  V30 552 C 47.9653 1.04668 2.56788 0
M  V30 553 H 50.9163 1.00533 1.22795 0
M  V30 554 H 50.9373 0.12571 3.80292 0
M  V30 555 H 50.4493 1.90154 3.38324 0
M  V30 556 H 48.5503 -0.545589 3.68584 0
M  V30 557 H 48.6633 1.05977 4.67232 0
M  V30 558 H 47.0273 0.468622 2.50352 0
M  V30 559 H 47.8103 2.12927 2.6929 0
M  V30 560 N 50.2554 -1.46986 0.568584 0
M  V30 561 C 51.5024 -2.02441 0.0487986 0
M  V30 562 C 51.8304 -1.44169 -1.30559 0
M  V30 563 O 51.0854 -0.591213 -1.86556 0
M  V30 564 C 51.3844 -3.57306 -0.081836 0
M  V30 565 C 51.0504 -4.34552 1.20313 0
M  V30 566 C 49.7124 -4.55376 1.5552 0
M  V30 567 C 52.0644 -4.79016 2.05411 0
M  V30 568 C 49.3924 -5.17913 2.7565 0
M  V30 569 C 51.7444 -5.42879 3.24754 0
M  V30 570 C 50.4084 -5.61933 3.60261 0
M  V30 571 H 49.6784 -0.740785 0.0178567 0
M  V30 572 H 52.3254 -1.76525 0.742384 0
M  V30 573 H 50.6304 -3.8228 -0.858463 0
M  V30 574 H 52.3274 -3.97876 -0.499546 0
M  V30 575 H 48.9174 -4.18631 0.919014 0
M  V30 576 H 53.1014 -4.62696 1.79516 0
M  V30 577 H 48.3574 -5.30858 3.03315 0
M  V30 578 H 52.5314 -5.76293 3.90973 0
M  V30 579 H 50.1584 -6.10161 4.53439 0
M  V30 580 N 51.7335 -0.305618 -1.54608 0
M  V30 581 C 52.9795 0.302746 -2.00528 0
M  V30 582 C 53.3125 1.53184 -1.19367 0
M  V30 583 O 52.5875 1.92598 -0.271321 0
M  V30 584 C 52.8705 0.654756 -3.54097 0
M  V30 585 C 52.7235 -0.583793 -4.45995 0
M  V30 586 C 54.0425 1.47947 -4.14487 0
M  V30 587 H 51.1615 0.108564 -0.72896 0
M  V30 588 H 53.8035 -0.418634 -1.85331 0
M  V30 589 H 51.9535 1.26935 -3.67178 0
M  V30 590 H 53.6255 -1.22224 -4.44814 0
M  V30 591 H 51.8685 -1.21615 -4.16404 0
M  V30 592 H 52.5395 -0.293287 -5.5122 0
M  V30 593 H 55.0155 0.96013 -4.04871 0
M  V30 594 H 53.8915 1.69454 -5.22088 0
M  V30 595 H 54.1525 2.47011 -3.66658 0
M  V30 596 N 53.2116 1.57565 -0.0334293 0
M  V30 597 C 54.1416 2.13511 0.945265 0
M  V30 598 C 55.1226 1.05231 1.33643 0
M  V30 599 O 56.3076 1.33084 1.41429 0
M  V30 600 C 53.4376 2.6657 2.22616 0
M  V30 601 C 52.3916 3.79676 1.97561 0
M  V30 602 C 51.7176 4.1918 3.31952 0
M  V30 603 C 53.0176 5.0557 1.31135 0
M  V30 604 H 54.7116 2.95538 0.479325 0
M  V30 605 H 52.2576 1.42166 0.229115 0
M  V30 606 H 54.2106 3.04344 2.91466 0
M  V30 607 H 52.9346 1.8171 2.71384 0
M  V30 608 H 51.5936 3.42347 1.31127 0
M  V30 609 H 51.2416 3.31296 3.78487 0
M  V30 610 H 50.9416 4.95402 3.15992 0
M  V30 611 H 52.4656 4.59541 4.02063 0
M  V30 612 H 53.8796 5.40903 1.89992 0
M  V30 613 H 52.2766 5.86818 1.25559 0
M  V30 614 H 53.3466 4.84062 0.284894 0
M  V30 615 N 54.6897 -0.239769 1.55765 0
M  V30 616 C 55.9377 -0.964892 1.77579 0
M  V30 617 C 56.2587 -1.85582 0.598699 0
M  V30 618 O 55.5287 -1.92075 -0.385226 0
M  V30 619 H 54.1087 -0.359265 0.654933 0
M  V30 620 H 56.7707 -0.256001 1.93211 0
M  V30 621 H 55.8667 -1.58243 2.69009 0
M  V30 622 N 56.1678 -1.49265 -0.50573 0
M  V30 623 C 57.0978 -1.68495 -1.61653 0
M  V30 624 C 58.0788 -0.53366 -1.61512 0
M  V30 625 O 59.2638 -0.76897 -1.78327 0
M  V30 626 C 56.3938 -1.74709 -3.00157 0
M  V30 627 C 55.3478 -2.89581 -3.15162 0
M  V30 628 C 54.6738 -2.80903 -4.5497 0
M  V30 629 C 55.9738 -4.30578 -2.95634 0
M  V30 630 H 57.6678 -2.61493 -1.45814 0
M  V30 631 H 55.2138 -1.25838 -0.70005 0
M  V30 632 H 57.1668 -1.86748 -3.77761 0
M  V30 633 H 55.8908 -0.783067 -3.17074 0
M  V30 634 H 54.5498 -2.77136 -2.39982 0
M  V30 635 H 54.1978 -1.82419 -4.68756 0
M  V30 636 H 53.8978 -3.57999 -4.65951 0
M  V30 637 H 55.4218 -2.94944 -5.34641 0
M  V30 638 H 56.8358 -4.4373 -3.63011 0
M  V30 639 H 55.2328 -5.0886 -3.18091 0
M  V30 640 H 56.3028 -4.45352 -1.91806 0
M  V30 641 N 57.6459 0.756429 -1.3826 0
M  V30 642 C 59.0569 1.33359 -1.30661 0
M  V30 643 C 59.4079 1.96161 0.0388875 0
M  V30 644 O 58.5329 1.94874 0.940918 0
M  V30 645 C 59.1279 2.42477 -2.36622 0
M  V30 646 C 57.6869 2.95922 -2.3261 0
M  V30 647 C 56.8339 1.69275 -2.19639 0
M  V30 648 H 59.7849 0.55552 -1.4866 0
M  V30 649 H 59.8059 3.22345 -2.02174 0
M  V30 650 H 59.3179 1.96739 -3.34538 0
M  V30 651 H 57.4189 3.45996 -1.38267 0
M  V30 652 H 57.5319 3.50494 -3.26636 0
M  V30 653 H 55.8959 1.92793 -1.66442 0
M  V30 654 H 56.6789 1.25619 -3.19491 0
M  V30 655 N 59.124 1.23083 0.984299 0
M  V30 656 C 60.352 1.08714 1.76037 0
M  V30 657 C 60.767 -0.361691 1.85303 0
M  V30 658 O 60.124 -1.25034 1.32939 0
M  V30 659 C 60.175 1.70206 3.18923 0
M  V30 660 O 59.896 3.09423 3.10144 0
M  V30 661 C 61.397 1.61227 4.12941 0
M  V30 662 H 58.617 0.380664 0.552572 0
M  V30 663 H 61.161 1.62853 1.23689 0
M  V30 664 H 59.316 1.20109 3.6831 0
M  V30 665 H 59.73 3.39188 4.00065 0
M  V30 666 H 61.204 2.08962 5.10919 0
M  V30 667 H 61.681 0.570375 4.35481 0
M  V30 668 H 62.287 2.10671 3.69456 0
M  V30 669 N 60.6021 -1.18246 1.0419 0
M  V30 670 C 61.8501 -1.87886 0.744543 0
M  V30 671 C 62.1711 -1.8082 -0.730006 0
M  V30 672 O 61.4411 -1.22736 -1.52685 0
M  V30 673 H 60.0211 -0.695556 0.272417 0
M  V30 674 H 62.6831 -1.43494 1.31892 0
M  V30 675 H 61.7791 -2.9389 1.05049 0
M  V30 676 N 62.0802 -0.821533 -1.34494 0
M  V30 677 C 63.3282 -0.408139 -1.97936 0
M  V30 678 C 63.6492 1.03193 -1.65457 0
M  V30 679 O 62.9192 1.71622 -0.944595 0
M  V30 680 H 61.4992 -0.147928 -0.732206 0
M  V30 681 H 64.1612 -1.05067 -1.64155 0
M  V30 682 H 63.2572 -0.52601 -3.07635 0
M  V30 683 N 63.5583 1.46682 -0.576371 0
M  V30 684 C 64.7863 2.06798 -0.0649635 0
M  V30 685 C 65.2013 1.42612 1.23723 0
M  V30 686 O 64.5583 0.529203 1.74659 0
M  V30 687 C 64.6093 3.6132 0.114202 0
M  V30 688 O 64.3303 4.23104 -1.13644 0
M  V30 689 C 65.8313 4.38349 0.66069 0
M  V30 690 H 63.0513 0.668778 -0.0545616 0
M  V30 691 H 65.5953 1.88404 -0.795237 0
M  V30 692 H 63.7503 3.79162 0.794673 0
M  V30 693 H 64.1643 5.15894 -0.946253 0
M  V30 694 H 65.6383 5.47081 0.73526 0
M  V30 695 H 66.1153 4.05953 1.67627 0
M  V30 696 H 66.7213 4.25297 0.0152951 0
M  V30 697 N 65.0364 0.313813 1.54444 0
M  V30 698 C 66.4474 -0.176243 1.85866 0
M  V30 699 C 66.7984 -1.52405 1.23561 0
M  V30 700 O 65.9234 -2.09605 0.538016 0
M  V30 701 C 66.5184 -0.32657 3.37222 0
M  V30 702 C 65.0774 -0.760846 3.6863 0
M  V30 703 C 64.2244 0.123247 2.77026 0
M  V30 704 H 67.1754 0.534418 1.49431 0
M  V30 705 H 67.1964 -1.15908 3.62416 0
M  V30 706 H 66.7084 0.654531 3.82541 0
M  V30 707 H 64.8094 -1.75204 3.28838 0
M  V30 708 H 64.9224 -0.571353 4.75681 0
M  V30 709 H 63.2864 -0.399597 2.51546 0
M  V30 710 H 64.0694 1.10094 3.25168 0
M  V30 711 N 66.5145 -1.57545 0.0417849 0
M  V30 712 C 67.4475 -2.06514 -0.970928 0
M  V30 713 C 68.4255 -0.963607 -1.30971 0
M  V30 714 O 69.6095 -1.23486 -1.4242 0
M  V30 715 C 66.7365 -2.4978 -2.28752 0
M  V30 716 C 65.7825 -3.71078 -2.10246 0
M  V30 717 S 66.6155 -5.17158 -1.38952 0
M  V30 718 C 67.7715 -5.6373 -2.71954 0
M  V30 719 H 68.0045 -2.9209 -0.554129 0
M  V30 720 H 65.5375 -1.53459 -0.17024 0
M  V30 721 H 67.4955 -2.75371 -3.04435 0
M  V30 722 H 66.1565 -1.64527 -2.67562 0
M  V30 723 H 65.3495 -3.9924 -3.07609 0
M  V30 724 H 64.9515 -3.45705 -1.42704 0
M  V30 725 H 67.2435 -5.68743 -3.68154 0
M  V30 726 H 68.1865 -6.63086 -2.4844 0
M  V30 727 H 68.5945 -4.91424 -2.77782 0
M  V30 728 N 67.9926 0.231505 -1.5589 0
M  V30 729 C 69.2206 0.974505 -1.82513 0
M  V30 730 C 69.6356 1.78344 -0.619591 0
M  V30 731 O 68.9926 1.77792 0.411848 0
M  V30 732 C 69.0436 1.90007 -3.07538 0
M  V30 733 O 68.7646 1.12385 -4.2344 0
M  V30 734 C 70.2656 2.75779 -3.47075 0
M  V30 735 H 67.4856 0.286065 -0.606966 0
M  V30 736 H 70.0296 0.249739 -2.02969 0
M  V30 737 H 68.1846 2.57891 -2.89086 0
M  V30 738 H 68.5986 1.75125 -4.944 0
M  V30 739 H 70.0726 3.36443 -4.37619 0
M  V30 740 H 70.5496 3.47672 -2.68367 0
M  V30 741 H 71.1556 2.13323 -3.67931 0
M  V30 742 N 69.4707 1.49531 0.497807 0
M  V30 743 C 70.6987 1.62893 1.27567 0
M  V30 744 C 71.1137 0.301585 1.86376 0
M  V30 745 O 70.4707 -0.713335 1.67982 0
M  V30 746 C 70.5217 2.70013 2.40364 0
M  V30 747 O 70.2427 3.976 1.83972 0
M  V30 748 C 71.7437 2.94109 3.31685 0
M  V30 749 H 68.9637 0.548298 0.386794 0
M  V30 750 H 71.5077 1.95584 0.597245 0
M  V30 751 H 69.6627 2.40092 3.04031 0
M  V30 752 H 70.0767 4.56631 2.58047 0
M  V30 753 H 71.5507 3.72788 4.07104 0
M  V30 754 H 72.0277 2.04147 3.88871 0
M  V30 755 H 72.6337 3.2546 2.73781 0
M  V30 756 N 70.9488 -0.749086 1.3866 0
M  V30 757 C 72.1788 -1.53611 1.38157 0
M  V30 758 C 72.5868 -1.89177 -0.0293595 0
M  V30 759 O 71.9298 -1.53606 -1.00752 0
M  V30 760 C 71.9918 -2.86087 2.17702 0
M  V30 761 C 71.6558 -2.73034 3.66472 0
M  V30 762 C 72.6528 -2.42526 4.59866 0
M  V30 763 C 70.3378 -2.90345 4.09884 0
M  V30 764 C 72.3318 -2.29492 5.94653 0
M  V30 765 C 70.0188 -2.7693 5.4475 0
M  V30 766 C 71.0168 -2.46547 6.36949 0
M  V30 767 O 70.7048 -2.33199 7.69333 0
M  V30 768 H 70.4368 -0.481773 0.474205 0
M  V30 769 H 72.9908 -0.934465 1.82912 0
M  V30 770 H 71.2208 -3.48458 1.67672 0
M  V30 771 H 72.9098 -3.47625 2.09551 0
M  V30 772 H 73.6758 -2.28816 4.27631 0
M  V30 773 H 69.5548 -3.1299 3.38464 0
M  V30 774 H 73.0988 -2.05698 6.66584 0
M  V30 775 H 68.9958 -2.90215 5.76581 0
M  V30 776 H 69.7638 -2.48376 7.79905 0
M  V30 777 N 72.4269 -1.23603 -0.977757 0
M  V30 778 C 73.3739 -1.01954 -2.07061 0
M  V30 779 C 74.3439 0.0638697 -1.65977 0
M  V30 780 O 75.5289 -0.0887624 -1.90593 0
M  V30 781 C 72.6689 -0.619658 -3.39491 0
M  V30 782 C 71.7819 -1.77547 -3.93829 0
M  V30 783 C 70.9169 -1.32212 -5.14484 0
M  V30 784 C 69.9559 -2.44852 -5.60994 0
M  V30 785 N 69.0929 -2.00456 -6.72876 0
M  V30 786 H 73.9329 -1.95495 -2.24913 0
M  V30 787 H 71.4699 -0.973861 -1.10247 0
M  V30 788 H 73.4279 -0.368898 -4.15566 0
M  V30 789 H 72.0579 0.278752 -3.21594 0
M  V30 790 H 71.1099 -2.14016 -3.14486 0
M  V30 791 H 72.4219 -2.62219 -4.24314 0
M  V30 792 H 71.5759 -1.02965 -5.97899 0
M  V30 793 H 70.3149 -0.445808 -4.85658 0
M  V30 794 H 69.3199 -2.74871 -4.76157 0
M  V30 795 H 70.5449 -3.33024 -5.91837 0
M  V30 796 H 68.4909 -1.15208 -6.45804 0
M  V30 797 H 68.4079 -2.78687 -7.02759 0
M  V30 798 H 69.6759 -1.7432 -7.59758 0
M  V30 799 N 73.905 1.17692 -1.04816 0
M  V30 800 C 74.868 2.19787 -0.650117 0
M  V30 801 C 75.868 1.58044 0.296427 0
M  V30 802 O 77.058 1.74012 0.0808097 0
M  V30 803 C 74.19 3.40869 0.0456987 0
M  V30 804 H 75.383 2.56516 -1.5537 0
M  V30 805 H 72.936 1.31708 -0.841594 0
M  V30 806 H 73.671 3.09681 0.962726 0
M  V30 807 H 73.456 3.86928 -0.634727 0
M  V30 808 H 74.946 4.16445 0.310432 0
M  V30 809 N 75.3831 0.828654 1.34056 0
M  V30 810 C 76.3131 0.269443 2.3194 0
M  V30 811 C 77.2941 -0.617247 1.58506 0
M  V30 812 O 78.4791 -0.542931 1.86456 0
M  V30 813 C 75.6091 -0.564793 3.42677 0
M  V30 814 C 74.5631 0.225241 4.27407 0
M  V30 815 C 73.8891 -0.7321 5.29664 0
M  V30 816 C 75.1891 1.43663 5.02154 0
M  V30 817 H 76.8831 1.08728 2.7896 0
M  V30 818 H 74.4291 0.524283 1.34117 0
M  V30 819 H 76.3821 -0.966233 4.10173 0
M  V30 820 H 75.1061 -1.41574 2.9432 0
M  V30 821 H 73.7651 0.608117 3.61521 0
M  V30 822 H 73.4131 -1.57916 4.77568 0
M  V30 823 H 73.1131 -0.20767 5.87233 0
M  V30 824 H 74.6371 -1.13128 6.00029 0
M  V30 825 H 76.0511 1.1089 5.62473 0
M  V30 826 H 74.4481 1.89711 5.69324 0
M  V30 827 H 75.5181 2.21181 4.31517 0
M  V30 828 N 76.8612 -1.46375 0.584142 0
M  V30 829 C 78.1072 -2.02678 0.0703716 0
M  V30 830 C 78.4402 -1.4545 -1.28678 0
M  V30 831 O 77.7152 -0.62014 -1.84349 0
M  V30 832 C 77.9982 -3.60099 0.00614674 0
M  V30 833 C 77.8512 -4.27709 1.3923 0
M  V30 834 C 79.1702 -4.34598 -0.693742 0
M  V30 835 H 76.2892 -0.736504 0.027047 0
M  V30 836 H 78.9312 -1.74501 0.751615 0
M  V30 837 H 77.0812 -3.84236 -0.574009 0
M  V30 838 H 78.7532 -4.14832 2.01773 0
M  V30 839 H 76.9962 -3.87016 1.95962 0
M  V30 840 H 77.6672 -5.36478 1.29982 0
M  V30 841 H 80.1432 -4.15615 -0.200869 0
M  V30 842 H 79.0192 -5.44318 -0.707714 0
M  V30 843 H 79.2802 -4.05759 -1.75533 0
M  V30 844 N 78.3393 -0.321999 -1.54275 0
M  V30 845 C 79.2493 0.553631 -2.27974 0
M  V30 846 C 80.2653 1.13054 -1.32268 0
M  V30 847 O 81.4413 1.15084 -1.6528 0
M  V30 848 C 78.5063 1.69927 -3.02201 0
M  V30 849 C 77.5673 1.15433 -4.1349 0
M  V30 850 C 76.8003 2.24537 -4.84168 0
M  V30 851 O 77.0233 3.44852 -4.5435 0
M  V30 852 O 75.9573 1.90044 -5.7111 0
M  V30 853 H 79.7833 -0.0448345 -3.03667 0
M  V30 854 H 77.3683 -0.0877418 -1.49142 0
M  V30 855 H 79.2503 2.3663 -3.48689 0
M  V30 856 H 77.9253 2.28395 -2.29385 0
M  V30 857 H 76.8323 0.452436 -3.71354 0
M  V30 858 H 78.1653 0.614805 -4.88345 0
M  V30 859 N 79.8174 1.5752 -0.0501392 0
M  V30 860 C 80.7504 2.07026 0.959962 0
M  V30 861 C 81.7284 0.970539 1.30458 0
M  V30 862 O 82.9124 1.2424 1.41763 0
M  V30 863 C 80.0394 2.5099 2.27424 0
M  V30 864 C 79.0854 3.72188 2.08275 0
M  V30 865 S 79.9184 5.17888 1.36207 0
M  V30 866 C 81.0744 5.65165 2.6896 0
M  V30 867 H 81.3074 2.9238 0.538631 0
M  V30 868 H 78.8404 1.53547 0.162099 0
M  V30 869 H 80.7984 2.76982 3.02971 0
M  V30 870 H 79.4594 1.65944 2.66686 0
M  V30 871 H 78.6524 4.00866 3.05487 0
M  V30 872 H 78.2544 3.46457 1.40868 0
M  V30 873 H 80.5464 5.70687 3.65133 0
M  V30 874 H 81.4894 6.64394 2.4492 0
M  V30 875 H 81.8974 4.9289 2.75172 0
M  V30 876 N 81.2955 -0.223234 1.56011 0
M  V30 877 C 82.2455 -1.28008 1.88674 0
M  V30 878 C 83.2295 -1.42369 0.749663 0
M  V30 879 O 84.4215 -1.45212 1.01205 0
M  V30 880 C 81.5505 -2.63084 2.20548 0
M  V30 881 C 80.6365 -2.52632 3.40643 0
M  V30 882 N 81.0275 -2.11829 4.59306 0
M  V30 883 C 79.3255 -2.83594 3.44224 0
M  V30 884 C 80.0265 -2.12587 5.41463 0
M  V30 885 N 79.0025 -2.5301 4.81131 0
M  V30 886 H 82.8045 -0.955487 2.77935 0
M  V30 887 H 80.3185 -0.431801 1.56554 0
M  V30 888 H 82.3155 -3.39385 2.42122 0
M  V30 889 H 80.9755 -2.96391 1.32599 0
M  V30 890 H 81.9865 -1.82988 4.84496 0
M  V30 891 H 78.6635 -3.21284 2.66614 0
M  V30 892 H 80.0535 -1.83179 6.46448 0
M  V30 893 N 82.7736 -1.49793 -0.48987 0
M  V30 894 C 83.7206 -1.67281 -1.59014 0
M  V30 895 C 84.6906 -0.514177 -1.57941 0
M  V30 896 O 85.8756 -0.742533 -1.75759 0
M  V30 897 C 83.0156 -1.75569 -2.97102 0
M  V30 898 C 82.1286 -3.0281 -3.08107 0
M  V30 899 C 81.2636 -3.02008 -4.36995 0
M  V30 900 C 80.3026 -4.23782 -4.41673 0
M  V30 901 N 79.4396 -4.20826 -5.62005 0
M  V30 902 H 84.2796 -2.61224 -1.43409 0
M  V30 903 H 81.8166 -1.29508 -0.697565 0
M  V30 904 H 83.7746 -1.78354 -3.77155 0
M  V30 905 H 82.4046 -0.850827 -3.11385 0
M  V30 906 H 81.4566 -3.09584 -2.21047 0
M  V30 907 H 82.7686 -3.92801 -3.07423 0
M  V30 908 H 81.9226 -3.03418 -5.25378 0
M  V30 909 H 80.6616 -2.09815 -4.4026 0
M  V30 910 H 79.6666 -4.22604 -3.5169 0
M  V30 911 H 80.8916 -5.17181 -4.40115 0
M  V30 912 H 78.8376 -3.31476 -5.66091 0
M  V30 913 H 78.7546 -5.04564 -5.62984 0
M  V30 914 H 80.0226 -4.26355 -6.52565 0
M  V30 915 N 84.2517 0.741722 -1.39055 0
M  V30 916 C 85.2147 1.83733 -1.37021 0
M  V30 917 C 86.2147 1.58542 -0.268534 0
M  V30 918 O 87.4047 1.66067 -0.526076 0
M  V30 919 C 84.5367 3.2141 -1.13617 0
M  V30 920 H 85.7297 1.86941 -2.34506 0
M  V30 921 H 83.2827 0.944676 -1.24521 0
M  V30 922 H 84.0177 3.23865 -0.167863 0
M  V30 923 H 83.8027 3.4109 -1.93391 0
M  V30 924 H 85.2927 4.01477 -1.14918 0
M  V30 925 N 85.7298 1.2412 0.971189 0
M  V30 926 C 86.9778 1.07668 1.71032 0
M  V30 927 C 87.2988 -0.385797 1.91146 0
M  V30 928 O 86.5688 -1.27569 1.4867 0
M  V30 929 H 85.1488 0.395429 0.633755 0
M  V30 930 H 87.8108 1.55984 1.16855 0
M  V30 931 H 86.9068 1.57195 2.69622 0
M  V30 932 N 87.2079 -1.17134 1.05439 0
M  V30 933 C 88.1399 -2.2078 0.615539 0
M  V30 934 C 89.1529 -1.59584 -0.322001 0
M  V30 935 O 90.3419 -1.78133 -0.114344 0
M  V30 936 C 87.4419 -3.38691 -0.118938 0
M  V30 937 C 86.6149 -4.29454 0.829924 0
M  V30 938 C 85.6739 -5.26024 0.136258 0
M  V30 939 O 84.6999 -5.63952 0.77115 0
M  V30 940 N 85.9019 -5.69487 -1.1254 0
M  V30 941 H 88.6669 -2.59052 1.50705 0
M  V30 942 H 86.2279 -1.32058 0.936603 0
M  V30 943 H 88.2199 -4.00329 -0.593179 0
M  V30 944 H 86.7899 -2.98996 -0.91215 0
M  V30 945 H 86.0099 -3.65211 1.48373 0
M  V30 946 H 87.2979 -4.86984 1.47392 0
M  V30 947 H 86.6959 -5.4075 -1.6615 0
M  V30 948 H 85.2529 -6.33257 -1.54366 0
M  V30 949 N 88.686 -0.835752 -1.33615 0
M  V30 950 C 89.932 -0.430596 -1.98176 0
M  V30 951 C 90.265 1.00684 -1.66061 0
M  V30 952 O 89.54 1.70339 -0.938877 0
M  V30 953 C 89.823 -0.648065 -3.5422 0
M  V30 954 C 89.676 -2.13255 -3.96033 0
M  V30 955 C 90.995 -0.0922113 -4.40003 0
M  V30 956 H 88.114 -0.157924 -0.719881 0
M  V30 957 H 90.756 -1.05069 -1.58305 0
M  V30 958 H 88.906 -0.120237 -3.88314 0
M  V30 959 H 90.578 -2.725 -3.72211 0
M  V30 960 H 88.821 -2.61823 -3.45878 0
M  V30 961 H 89.492 -2.23547 -5.04708 0
M  V30 962 H 91.968 -0.543343 -4.12537 0
M  V30 963 H 90.844 -0.274083 -5.48215 0
M  V30 964 H 91.105 1.00378 -4.30554 0
M  V30 965 N 90.1641 1.46063 -0.591896 0
M  V30 966 C 91.3891 2.07226 -0.0850314 0
M  V30 967 C 91.8141 1.43625 1.21463 0
M  V30 968 O 91.1721 0.523305 1.73583 0
M  V30 969 C 91.2201 3.60554 0.0576567 0
M  V30 970 O 90.3241 3.97128 1.11188 0
M  V30 971 H 89.6651 0.660615 -0.0669568 0
M  V30 972 H 92.1951 1.8756 -0.81745 0
M  V30 973 H 92.2051 4.07165 0.2609 0
M  V30 974 H 90.8801 4.06235 -0.891416 0
M  V30 975 H 89.4571 3.62213 0.886356 0
M  V30 976 N 91.6422 0.330177 1.54103 0
M  V30 977 C 92.8892 -0.270405 2.00686 0
M  V30 978 C 93.2172 -1.51621 1.21825 0
M  V30 979 O 92.4722 -1.93536 0.29025 0
M  V30 980 C 92.7712 -0.643134 3.51566 0
M  V30 981 C 92.4372 0.504251 4.48072 0
M  V30 982 C 91.0992 0.819163 4.74176 0
M  V30 983 C 93.4512 1.27465 5.05373 0
M  V30 984 C 90.7792 1.90708 5.5484 0
M  V30 985 C 93.1312 2.35271 5.87223 0
M  V30 986 C 91.7952 2.67336 6.11627 0
M  V30 987 H 91.0652 -0.0989482 0.734364 0
M  V30 988 H 93.7122 0.455324 1.86008 0
M  V30 989 H 92.0172 -1.44938 3.64006 0
M  V30 990 H 93.7142 -1.11949 3.85056 0
M  V30 991 H 90.3042 0.248733 4.27878 0
M  V30 992 H 94.4882 1.04462 4.85182 0
M  V30 993 H 89.7442 2.15991 5.71977 0
M  V30 994 H 93.9182 2.95405 6.30641 0
M  V30 995 H 91.5452 3.51763 6.73919 0
M  V30 996 N 93.1203 -1.57491 0.0584922 0
M  V30 997 C 94.0673 -2.11958 -0.913376 0
M  V30 998 C 95.0373 -1.02875 -1.30407 0
M  V30 999 O 96.2223 -1.30464 -1.39226 0
M  V30 1000 C 93.3623 -2.67497 -2.18035 0
M  V30 1001 C 92.4753 -3.90691 -1.84349 0
M  V30 1002 C 91.6103 -4.3452 -3.05559 0
M  V30 1003 C 90.6493 -5.50395 -2.67827 0
M  V30 1004 N 89.7863 -5.89244 -3.81754 0
M  V30 1005 H 94.6263 -2.94704 -0.442017 0
M  V30 1006 H 92.1633 -1.45643 -0.206545 0
M  V30 1007 H 94.1213 -2.978 -2.92183 0
M  V30 1008 H 92.7513 -1.87537 -2.62735 0
M  V30 1009 H 91.8033 -3.66934 -1.00319 0
M  V30 1010 H 93.1153 -4.7489 -1.5258 0
M  V30 1011 H 92.2693 -4.66414 -3.87998 0
M  V30 1012 H 91.0083 -3.49147 -3.40511 0
M  V30 1013 H 90.0133 -5.18165 -1.83806 0
M  V30 1014 H 91.2383 -6.3749 -2.34059 0
M  V30 1015 H 89.1843 -5.06823 -4.16493 0
M  V30 1016 H 89.1013 -6.68151 -3.53708 0
M  V30 1017 H 90.3693 -6.25756 -4.64811 0
M  V30 1018 N 94.5984 0.214957 -1.56127 0
M  V30 1019 C 95.5484 1.27006 -1.8935 0
M  V30 1020 C 96.5324 1.41969 -0.757202 0
M  V30 1021 O 97.7244 1.44673 -1.01973 0
M  V30 1022 C 94.8534 2.61911 -2.2194 0
M  V30 1023 C 93.9394 2.50822 -3.41978 0
M  V30 1024 N 94.3304 2.09391 -4.60423 0
M  V30 1025 C 92.6284 2.81765 -3.45723 0
M  V30 1026 C 93.3294 2.09712 -5.42582 0
M  V30 1027 N 92.3054 2.50454 -4.82466 0
M  V30 1028 H 96.1074 0.940734 -2.78437 0
M  V30 1029 H 93.6214 0.423492 -1.56781 0
M  V30 1030 H 95.6184 3.38096 -2.43919 0
M  V30 1031 H 94.2784 2.95684 -1.34169 0
M  V30 1032 H 95.2894 1.80416 -4.85459 0
M  V30 1033 H 91.9664 3.19865 -2.68314 0
M  V30 1034 H 93.3564 1.79748 -6.4741 0
M  V30 1035 N 96.0765 1.50051 0.48192 0
M  V30 1036 C 97.3225 1.60736 1.2366 0
M  V30 1037 C 97.6555 0.301786 1.91841 0
M  V30 1038 O 96.9305 -0.696025 1.8162 0
M  V30 1039 C 97.2135 2.78009 2.28874 0
M  V30 1040 C 97.0665 4.18416 1.65069 0
M  V30 1041 C 98.3855 2.90867 3.30279 0
M  V30 1042 H 95.5045 0.585031 0.448228 0
M  V30 1043 H 98.1465 1.82402 0.531946 0
M  V30 1044 H 96.2965 2.59667 2.88973 0
M  V30 1045 H 97.9685 4.48322 1.0865 0
M  V30 1046 H 96.2115 4.23177 0.954148 0
M  V30 1047 H 96.8825 4.96381 2.41474 0
M  V30 1048 H 99.3585 3.07623 2.80191 0
M  V30 1049 H 98.2345 3.74566 4.01238 0
M  V30 1050 H 98.4955 2.01021 3.93755 0
M  V30 1051 N 97.5546 -0.734337 1.39446 0
M  V30 1052 C 98.8006 -1.49613 1.36908 0
M  V30 1053 C 99.1336 -1.94169 -0.0347829 0
M  V30 1054 O 98.4086 -1.66833 -0.999847 0
M  V30 1055 C 98.6916 -2.73534 2.34203 0
M  V30 1056 C 98.5446 -2.34993 3.83534 0
M  V30 1057 C 99.8636 -3.75635 2.29317 0
M  V30 1058 H 96.9826 -0.542714 0.498629 0
M  V30 1059 H 99.6246 -0.839597 1.70443 0
M  V30 1060 H 97.7746 -3.29553 2.05736 0
M  V30 1061 H 99.4466 -1.84601 4.22753 0
M  V30 1062 H 97.6896 -1.67213 4.00278 0
M  V30 1063 H 98.3606 -3.23738 4.47099 0
M  V30 1064 H 100.837 -3.29203 2.54489 0
M  V30 1065 H 99.7126 -4.60008 2.99472 0
M  V30 1066 H 99.9736 -4.22603 1.29842 0
M  V30 1067 N 99.0327 -1.24633 -0.964593 0
M  V30 1068 C 100.261 -1.11501 -1.74285 0
M  V30 1069 C 100.676 0.332165 -1.85855 0
M  V30 1070 O 100.033 1.22903 -1.34911 0
M  V30 1071 C 100.084 -1.75258 -3.16175 0
M  V30 1072 O 99.8047 -3.14318 -3.05182 0
M  V30 1073 C 101.306 -1.67776 -4.10324 0
M  V30 1074 H 98.5257 -0.389407 -0.546446 0
M  V30 1075 H 101.07 -1.64801 -1.21083 0
M  V30 1076 H 99.2247 -1.25954 -3.66353 0
M  V30 1077 H 99.6387 -3.4551 -3.94618 0
M  V30 1078 H 101.113 -2.17064 -5.0753 0
M  V30 1079 H 101.59 -0.639584 -4.34518 0
M  V30 1080 H 102.196 -2.16522 -3.66058 0
M  V30 1081 N 100.511 1.16574 -1.06058 0
M  V30 1082 C 101.758 1.87047 -0.775873 0
M  V30 1083 C 102.086 1.81562 0.697534 0
M  V30 1084 O 101.341 1.22445 1.52662 0
M  V30 1085 C 101.64 3.36195 -1.21275 0
M  V30 1086 C 101.306 3.6188 -2.68986 0
M  V30 1087 C 99.9678 3.68599 -3.09335 0
M  V30 1088 C 102.32 3.72648 -3.64394 0
M  V30 1089 C 99.6478 3.83584 -4.43937 0
M  V30 1090 C 102 3.89154 -4.98741 0
M  V30 1091 C 100.664 3.94114 -5.3873 0
M  V30 1092 H 99.9338 0.684452 -0.283912 0
M  V30 1093 H 102.581 1.37853 -1.32925 0
M  V30 1094 H 100.886 3.87505 -0.578528 0
M  V30 1095 H 102.583 3.89103 -0.969542 0
M  V30 1096 H 99.1728 3.57281 -2.36744 0
M  V30 1097 H 103.357 3.66769 -3.34356 0
M  V30 1098 H 98.6128 3.85677 -4.74409 0
M  V30 1099 H 102.787 3.96427 -5.72554 0
M  V30 1100 H 100.414 4.05478 -6.43033 0
M  V30 1101 N 101.989 0.842826 1.3317 0
M  V30 1102 C 102.937 0.267495 2.31057 0
M  V30 1103 C 103.931 -0.602682 1.58316 0
M  V30 1104 O 105.137 -0.491803 1.73151 0
M  V30 1105 H 101.512 0.0677813 0.748939 0
M  V30 1106 H 103.483 1.10754 2.77085 0
M  V30 1107 C 102.232 -0.539331 3.43492 0
M  V30 1108 H 101.555 0.12095 3.99617 0
M  V30 1109 H 102.995 -0.90767 4.14171 0
M  V30 1110 C 101.454 -1.71981 2.89697 0
M  V30 1111 O 101.984 -2.81862 2.86211 0
M  V30 1112 N 100.19 -1.54299 2.46252 0
M  V30 1113 H 99.7369 -0.649143 2.49287 0
M  V30 1114 H 99.6949 -2.33431 2.10612 0
M  V30 1115 N 103.467 -1.45747 0.599634 0
M  V30 1116 C 104.4 -2.27547 -0.172552 0
M  V30 1117 C 105.378 -1.36657 -0.881116 0
M  V30 1118 O 106.562 -1.66081 -0.891595 0
M  V30 1119 C 103.689 -3.14829 -1.24903 0
M  V30 1120 C 102.735 -4.21603 -0.644465 0
M  V30 1121 S 103.568 -5.32754 0.541606 0
M  V30 1122 C 104.724 -6.23604 -0.535656 0
M  V30 1123 H 104.957 -2.92691 0.521468 0
M  V30 1124 H 102.49 -1.49473 0.386947 0
M  V30 1125 H 104.448 -3.65675 -1.86527 0
M  V30 1126 H 103.109 -2.48965 -1.91508 0
M  V30 1127 H 102.302 -4.82566 -1.45417 0
M  V30 1128 H 101.904 -3.73857 -0.103534 0
M  V30 1129 H 104.196 -6.62519 -1.41686 0
M  V30 1130 H 105.139 -7.0809 0.0376246 0
M  V30 1131 H 105.547 -5.58103 -0.84741 0
M  V30 1132 N 104.945 -0.338344 -1.53925 0
M  V30 1133 C 106.222 0.314774 -1.93051 0
M  V30 1134 C 106.602 1.68669 -1.26941 0
M  V30 1135 O 105.95 2.24636 -0.418445 0
M  V30 1136 C 106.16 0.392249 -3.46789 0
M  V30 1137 C 107.508 0.645554 -4.19664 0
M  V30 1138 O 108.532 0.474575 -3.53024 0
M  V30 1139 O 107.391 0.976408 -5.37707 0
M  V30 1140 H 104.485 0.182598 -0.80659 0
M  V30 1141 H 107.031 -0.389141 -1.65178 0
M  V30 1142 H 105.803 -0.570702 -3.87116 0
M  V30 1143 H 105.426 1.14316 -3.80812 0
M  V30 1144 N 106.423 1.57458 -0.0668435 0
M  V30 1145 C 107.333 2.15937 0.916975 0
M  V30 1146 C 108.349 1.12123 1.33058 0
M  V30 1147 O 109.525 1.44366 1.40429 0
M  V30 1148 C 106.59 2.70547 2.16807 0
M  V30 1149 C 105.651 3.89215 1.81135 0
M  V30 1150 C 104.884 4.41211 3.0028 0
M  V30 1151 O 105.107 3.92225 4.14144 0
M  V30 1152 O 104.041 5.32605 2.80384 0
M  V30 1153 H 107.867 3.00354 0.449561 0
M  V30 1154 H 105.452 1.48584 0.155949 0
M  V30 1155 H 107.334 3.0557 2.90181 0
M  V30 1156 H 106.009 1.89192 2.62656 0
M  V30 1157 H 104.916 3.59054 1.05028 0
M  V30 1158 H 106.249 4.71848 1.40073 0
M  V30 1159 N 107.901 -0.206675 1.56239 0
M  V30 1160 C 109.131 -0.943975 1.83773 0
M  V30 1161 C 109.539 -1.77841 0.645703 0
M  V30 1162 O 108.882 -1.79403 -0.395008 0
M  V30 1163 C 108.944 -1.899 3.05251 0
M  V30 1164 C 108.608 -1.24764 4.39639 0
M  V30 1165 C 109.605 -0.630216 5.16066 0
M  V30 1166 C 107.29 -1.25496 4.8637 0
M  V30 1167 C 109.284 -0.0287946 6.37393 0
M  V30 1168 C 106.971 -0.649698 6.07637 0
M  V30 1169 C 107.969 -0.0376845 6.8299 0
M  V30 1170 O 107.657 0.55812 8.0196 0
M  V30 1171 H 107.389 -0.281508 0.614597 0
M  V30 1172 H 109.943 -0.222458 2.04192 0
M  V30 1173 H 108.173 -2.6599 2.80689 0
M  V30 1174 H 109.862 -2.5031 3.1953 0
M  V30 1175 H 110.628 -0.616785 4.81062 0
M  V30 1176 H 106.507 -1.72072 4.27683 0
M  V30 1177 H 110.051 0.449518 6.9615 0
M  V30 1178 H 105.948 -0.660592 6.42111 0
M  V30 1179 H 106.716 0.453891 8.17241 0
M  V30 1180 N 109.379 -1.50304 -0.473955 0
M  V30 1181 C 110.625 -1.61389 -1.22806 0
M  V30 1182 C 110.958 -0.311955 -1.91678 0
M  V30 1183 O 110.233 0.686384 -1.81986 0
M  V30 1184 C 110.516 -2.79219 -2.27396 0
M  V30 1185 C 110.369 -4.19286 -1.62848 0
M  V30 1186 C 111.688 -2.92614 -3.28732 0
M  V30 1187 H 108.807 -0.587399 -0.445119 0
M  V30 1188 H 111.449 -1.82681 -0.522265 0
M  V30 1189 H 109.599 -2.61195 -2.87592 0
M  V30 1190 H 111.271 -4.48892 -1.06271 0
M  V30 1191 H 109.514 -4.23677 -0.931693 0
M  V30 1192 H 110.185 -4.97655 -2.38838 0
M  V30 1193 H 112.661 -3.09105 -2.78556 0
M  V30 1194 H 111.537 -3.76688 -3.99246 0
M  V30 1195 H 111.798 -2.03107 -3.92683 0
M  V30 1196 N 110.857 0.726932 -1.39834 0
M  V30 1197 C 112.105 1.4837 -1.37225 0
M  V30 1198 C 112.426 1.94979 0.0284857 0
M  V30 1199 O 111.696 1.69555 0.981213 0
M  V30 1200 H 110.276 0.55043 -0.505011 0
M  V30 1201 H 112.938 0.862468 -1.74778 0
M  V30 1202 H 112.034 2.36198 -2.04003 0
M  V30 1203 N 112.336 1.25143 0.95797 0
M  V30 1204 C 113.266 1.07711 2.07173 0
M  V30 1205 C 114.247 -0.0128462 1.70095 0
M  V30 1206 O 115.432 0.156061 1.93572 0
M  V30 1207 C 112.562 0.691503 3.40346 0
M  V30 1208 C 111.516 1.73132 3.9142 0
M  V30 1209 C 110.842 1.20049 5.21049 0
M  V30 1210 C 112.142 3.1294 4.1817 0
M  V30 1211 H 113.836 2.00873 2.22014 0
M  V30 1212 H 111.382 0.967191 1.06684 0
M  V30 1213 H 113.335 0.556505 4.17709 0
M  V30 1214 H 112.059 -0.275819 3.25433 0
M  V30 1215 H 110.718 1.8547 3.16222 0
M  V30 1216 H 110.366 0.223499 5.02503 0
M  V30 1217 H 110.066 1.89545 5.56189 0
M  V30 1218 H 111.59 1.07782 6.01012 0
M  V30 1219 H 113.004 3.03775 4.86203 0
M  V30 1220 H 111.401 3.79875 4.64559 0
M  V30 1221 H 112.471 3.6025 3.24573 0
M  V30 1222 N 113.814 -1.1601 1.06675 0
M  V30 1223 C 115.225 -1.68235 0.809565 0
M  V30 1224 C 115.576 -1.8454 -0.666303 0
M  V30 1225 O 114.701 -1.54374 -1.5165 0
M  V30 1226 C 115.296 -3.05585 1.46299 0
M  V30 1227 C 113.855 -3.54915 1.25349 0
M  V30 1228 C 113.002 -2.30804 1.53703 0
M  V30 1229 H 115.953 -1.00318 1.22971 0
M  V30 1230 H 115.974 -3.70174 0.880431 0
M  V30 1231 H 115.486 -2.93686 2.53713 0
M  V30 1232 H 113.587 -3.72067 0.199261 0
M  V30 1233 H 113.7 -4.36774 1.9689 0
M  V30 1234 H 112.064 -2.36007 0.957739 0
M  V30 1235 H 112.847 -2.21499 2.62284 0
M  V30 1236 N 115.292 -0.849877 -1.32721 0
M  V30 1237 C 116.239 -0.289033 -2.28983 0
M  V30 1238 C 117.209 0.601324 -1.54833 0
M  V30 1239 O 118.394 0.537253 -1.8308 0
M  V30 1240 C 115.534 0.520623 -3.4115 0
M  V30 1241 C 114.647 -0.394989 -4.3019 0
M  V30 1242 C 113.782 0.426834 -5.29482 0
M  V30 1243 C 112.821 -0.486476 -6.10164 0
M  V30 1244 N 111.958 0.297879 -7.01468 0
M  V30 1245 H 116.798 -1.11519 -2.76347 0
M  V30 1246 H 114.335 -0.56138 -1.35967 0
M  V30 1247 H 116.293 1.00563 -4.04899 0
M  V30 1248 H 114.923 1.31165 -2.9495 0
M  V30 1249 H 113.975 -0.99836 -3.67065 0
M  V30 1250 H 115.287 -1.09612 -4.86607 0
M  V30 1251 H 114.441 0.975205 -5.98811 0
M  V30 1252 H 113.18 1.16136 -4.73671 0
M  V30 1253 H 112.185 -1.04677 -5.39743 0
M  V30 1254 H 113.41 -1.21953 -6.6806 0
M  V30 1255 H 111.356 1.01558 -6.48091 0
M  V30 1256 H 111.273 -0.344318 -7.55216 0
M  V30 1257 H 112.541 0.828131 -7.75089 0
M  V30 1258 N 116.77 1.45427 -0.607355 0
M  V30 1259 C 117.68 2.34325 0.113463 0
M  V30 1260 C 118.696 1.51226 0.860617 0
M  V30 1261 O 119.872 1.84029 0.818255 0
M  V30 1262 C 116.937 3.28839 1.09844 0
M  V30 1263 C 115.998 4.27844 0.353271 0
M  V30 1264 C 115.231 5.17842 1.29133 0
M  V30 1265 O 115.454 5.11264 2.52913 0
M  V30 1266 O 114.388 5.96713 0.788523 0
M  V30 1267 H 118.214 2.97364 -0.617094 0
M  V30 1268 H 115.799 1.44807 -0.367619 0
M  V30 1269 H 117.681 3.8708 1.66575 0
M  V30 1270 H 116.356 2.68365 1.81003 0
M  V30 1271 H 115.263 3.7322 -0.256494 0
M  V30 1272 H 116.596 4.91173 -0.317822 0
M  V30 1273 N 118.248 0.346503 1.53744 0
M  V30 1274 C 119.198 -0.524953 2.21874 0
M  V30 1275 C 120.182 -1.06376 1.20718 0
M  V30 1276 O 121.374 -0.996972 1.46251 0
M  V30 1277 C 118.503 -1.6739 2.99726 0
M  V30 1278 C 117.589 -1.14888 4.08242 0
M  V30 1279 N 117.98 -0.345329 5.0462 0
M  V30 1280 C 116.278 -1.4255 4.22606 0
M  V30 1281 C 116.979 -0.0600706 5.81669 0
M  V30 1282 N 115.955 -0.65252 5.39669 0
M  V30 1283 H 119.757 0.0960091 2.93743 0
M  V30 1284 H 117.271 0.15352 1.61673 0
M  V30 1285 H 119.268 -2.3102 3.47038 0
M  V30 1286 H 117.928 -2.29811 2.29384 0
M  V30 1287 H 118.939 0.0138439 5.17898 0
M  V30 1288 H 115.616 -2.05389 3.63486 0
M  V30 1289 H 117.006 0.588321 6.69319 0
M  V30 1290 N 119.726 -1.57421 0.075193 0
M  V30 1291 C 121.137 -1.81021 -0.456964 0
M  V30 1292 C 121.488 -0.98936 -1.69429 0
M  V30 1293 O 120.613 -0.212865 -2.15351 0
M  V30 1294 C 121.208 -3.28329 -0.83581 0
M  V30 1295 C 119.767 -3.52764 -1.31281 0
M  V30 1296 C 118.914 -2.75676 -0.299648 0
M  V30 1297 H 121.865 -1.55822 0.300856 0
M  V30 1298 H 121.886 -3.40564 -1.69696 0
M  V30 1299 H 121.398 -3.88046 0.0649238 0
M  V30 1300 H 119.499 -2.98355 -2.23193 0
M  V30 1301 H 119.612 -4.61451 -1.28839 0
M  V30 1302 H 117.976 -2.42538 -0.777641 0
M  V30 1303 H 118.759 -3.38132 0.593417 0
M  V30 1304 N 121.204 0.198386 -1.56346 0
M  V30 1305 C 122.114 1.2664 -1.97483 0
M  V30 1306 C 123.13 1.49989 -0.882002 0
M  V30 1307 O 124.306 1.62668 -1.18748 0
M  V30 1308 C 121.371 2.59141 -2.30319 0
M  V30 1309 C 120.432 2.43892 -3.53292 0
M  V30 1310 C 119.665 3.70074 -3.84553 0
M  V30 1311 O 119.888 4.74101 -3.1715 0
M  V30 1312 O 118.822 3.658 -4.7799 0
M  V30 1313 H 122.648 0.947304 -2.88548 0
M  V30 1314 H 120.233 0.403123 -1.43859 0
M  V30 1315 H 122.115 3.37352 -2.5253 0
M  V30 1316 H 120.79 2.90684 -1.42423 0
M  V30 1317 H 119.697 1.63803 -3.36332 0
M  V30 1318 H 121.03 2.17282 -4.41644 0
M  V30 1319 N 122.682 1.50554 0.465978 0
M  V30 1320 C 123.907 1.65838 1.24549 0
M  V30 1321 C 124.332 0.343486 1.84937 0
M  V30 1322 O 123.69 -0.69324 1.67523 0
M  V30 1323 C 123.738 2.75533 2.32624 0
M  V30 1324 O 122.842 2.37142 3.37398 0
M  V30 1325 H 122.183 0.553893 0.366194 0
M  V30 1326 H 124.713 1.96959 0.553927 0
M  V30 1327 H 124.723 2.98763 2.77857 0
M  V30 1328 H 123.398 3.70962 1.88043 0
M  V30 1329 H 121.975 2.24377 2.97841 0
M  V30 1330 N 124.16 -0.719506 1.40217 0
M  V30 1331 C 125.39 -1.50646 1.41384 0
M  V30 1332 C 125.798 -1.89197 0.0107743 0
M  V30 1333 O 125.141 -1.55709 -0.974708 0
M  V30 1334 C 125.203 -2.81405 2.23722 0
M  V30 1335 C 124.867 -2.65199 3.72181 0
M  V30 1336 C 125.864 -2.32717 4.64907 0
M  V30 1337 C 123.549 -2.81586 4.1595 0
M  V30 1338 C 125.543 -2.16827 5.99387 0
M  V30 1339 C 123.23 -2.65313 5.50502 0
M  V30 1340 C 124.228 -2.32981 6.42035 0
M  V30 1341 O 123.916 -2.16827 7.74107 0
M  V30 1342 H 123.648 -0.471606 0.484318 0
M  V30 1343 H 126.202 -0.895456 1.84853 0
M  V30 1344 H 124.432 -3.44823 1.75026 0
M  V30 1345 H 126.121 -3.43102 2.16878 0
M  V30 1346 H 126.887 -2.19694 4.32388 0
M  V30 1347 H 122.766 -3.0574 3.45027 0
M  V30 1348 H 126.31 -1.91513 6.70797 0
M  V30 1349 H 122.207 -2.7792 5.82607 0
M  V30 1350 H 122.975 -2.31778 7.84998 0
M  V30 1351 N 125.638 -1.25649 -0.95132 0
M  V30 1352 C 126.868 -1.13179 -1.72841 0
M  V30 1353 C 127.276 0.316827 -1.86528 0
M  V30 1354 O 126.619 1.22948 -1.3649 0
M  V30 1355 C 126.681 -1.71644 -3.15878 0
M  V30 1356 C 126.345 -3.20667 -3.25609 0
M  V30 1357 C 127.342 -4.17616 -3.09666 0
M  V30 1358 C 125.027 -3.6094 -3.49324 0
M  V30 1359 C 127.021 -5.52817 -3.17289 0
M  V30 1360 C 124.708 -4.96278 -3.56584 0
M  V30 1361 C 125.706 -5.92025 -3.40581 0
M  V30 1362 O 125.394 -7.24899 -3.47528 0
M  V30 1363 H 125.126 -0.395389 -0.54831 0
M  V30 1364 H 127.68 -1.66566 -1.20187 0
M  V30 1365 H 125.91 -1.12707 -3.69911 0
M  V30 1366 H 127.599 -1.54225 -3.75459 0
M  V30 1367 H 128.365 -3.87842 -2.91211 0
M  V30 1368 H 124.244 -2.86907 -3.6084 0
M  V30 1369 H 127.788 -6.2753 -3.04716 0
M  V30 1370 H 123.685 -5.25716 -3.74556 0
M  V30 1371 H 124.453 -7.33039 -3.64138 0
M  V30 1372 N 127.117 1.15442 -1.07289 0
M  V30 1373 C 128.342 1.90638 -0.816828 0
M  V30 1374 C 128.767 1.77445 0.624083 0
M  V30 1375 O 128.125 1.10671 1.43602 0
M  V30 1376 C 128.173 3.39008 -1.22906 0
M  V30 1377 O 127.277 4.10701 -0.373975 0
M  V30 1378 H 126.618 0.593555 -0.297638 0
M  V30 1379 H 129.148 1.46198 -1.43134 0
M  V30 1380 H 129.158 3.89801 -1.20497 0
M  V30 1381 H 127.833 3.47929 -2.27856 0
M  V30 1382 H 126.41 3.70046 -0.460499 0
M  V30 1383 N 128.595 0.856903 1.32268 0
M  V30 1384 C 129.842 0.461386 1.97174 0
M  V30 1385 C 130.17 -0.983491 1.67803 0
M  V30 1386 O 129.425 -1.70541 0.959903 0
M  V30 1387 C 129.724 0.649919 3.51441 0
M  V30 1388 C 129.39 2.0656 4.00804 0
M  V30 1389 C 128.052 2.45279 4.13995 0
M  V30 1390 C 130.404 2.98947 4.26943 0
M  V30 1391 C 127.732 3.75653 4.50668 0
M  V30 1392 C 130.084 4.28822 4.65075 0
M  V30 1393 C 128.748 4.67472 4.76472 0
M  V30 1394 H 128.018 0.168833 0.72151 0
M  V30 1395 H 130.665 1.08739 1.57633 0
M  V30 1396 H 128.97 -0.0593018 3.91755 0
M  V30 1397 H 130.667 0.32391 3.9969 0
M  V30 1398 H 127.257 1.75495 3.91024 0
M  V30 1399 H 131.441 2.70265 4.16258 0
M  V30 1400 H 126.697 4.05379 4.57688 0
M  V30 1401 H 130.871 5.0047 4.84255 0
M  V30 1402 H 128.498 5.68539 5.04646 0
M  V30 1403 N 130.073 -1.45103 0.615059 0
M  V30 1404 C 131.006 -2.27717 -0.148408 0
M  V30 1405 C 131.984 -1.37584 -0.866572 0
M  V30 1406 O 133.168 -1.67017 -0.87393 0
M  V30 1407 C 130.295 -3.16136 -1.21557 0
M  V30 1408 C 129.341 -4.22263 -0.599712 0
M  V30 1409 S 130.174 -5.3215 0.598081 0
M  V30 1410 C 131.33 -6.24137 -0.469484 0
M  V30 1411 H 131.563 -2.92121 0.552483 0
M  V30 1412 H 129.096 -1.49054 0.402778 0
M  V30 1413 H 131.054 -3.67633 -1.82638 0
M  V30 1414 H 129.715 -2.50982 -1.88857 0
M  V30 1415 H 128.908 -4.84081 -1.4029 0
M  V30 1416 H 128.51 -3.73945 -0.063876 0
M  V30 1417 H 130.802 -6.63984 -1.34652 0
M  V30 1418 H 131.745 -7.0801 0.112725 0
M  V30 1419 H 132.153 -5.58971 -0.788168 0
M  V30 1420 N 131.551 -0.354651 -1.53558 0
M  V30 1421 C 132.501 0.513179 -2.2215 0
M  V30 1422 C 133.485 1.05734 -1.21281 0
M  V30 1423 O 134.677 0.989202 -1.46778 0
M  V30 1424 C 131.806 1.65798 -3.00609 0
M  V30 1425 C 130.892 1.12722 -4.08845 0
M  V30 1426 N 131.283 0.318563 -5.04796 0
M  V30 1427 C 129.581 1.40307 -4.23356 0
M  V30 1428 C 130.282 0.0292224 -5.81693 0
M  V30 1429 N 129.258 0.623891 -5.40008 0
M  V30 1430 H 133.06 -0.111586 -2.93688 0
M  V30 1431 H 130.574 -0.162091 -1.61589 0
M  V30 1432 H 132.571 2.29176 -3.48258 0
M  V30 1433 H 131.231 2.28591 -2.306 0
M  V30 1434 H 132.242 -0.0413091 -5.17884 0
M  V30 1435 H 128.919 2.03458 -3.6457 0
M  V30 1436 H 130.309 -0.623808 -6.68998 0
M  V30 1437 N 133.029 1.57378 -0.0835403 0
M  V30 1438 C 134.445 1.57246 0.273109 0
M  V30 1439 C 134.645 1.09385 1.69225 0
M  V30 1440 O 133.701 0.765051 2.40631 0
M  V30 1441 C 135.014 3.00614 0.0720628 0
M  V30 1442 C 136.562 3.12684 0.1407 0
M  V30 1443 C 137.037 4.57989 -0.0322094 0
M  V30 1444 N 138.528 4.63194 0.0230085 0
M  V30 1445 C 139.263 5.73335 -0.0861941 0
M  V30 1446 N 138.759 6.9235 -0.24958 0
M  V30 1447 N 140.552 5.62093 -0.0282886 0
M  V30 1448 H 132.703 1.86801 -1.0109 0
M  V30 1449 H 134.966 0.861687 -0.395222 0
M  V30 1450 H 134.672 3.39786 -0.907662 0
M  V30 1451 H 134.546 3.68193 0.81936 0
M  V30 1452 H 136.933 2.73391 1.11092 0
M  V30 1453 H 137.014 2.47719 -0.637896 0
M  V30 1454 H 136.658 4.97973 -0.999247 0
M  V30 1455 H 136.588 5.21 0.765937 0
M  V30 1456 H 139.079 3.77613 0.14722 0
M  V30 1457 H 139.392 7.72117 -0.324733 0
M  V30 1458 H 137.737 6.94415 -0.285097 0
M  V30 1459 H 140.928 4.67997 0.0981408 0
M  V30 1460 H 141.101 6.47895 -0.116845 0
M  V30 1461 N 134.507 -0.190092 1.56449 0
M  V30 1462 C 135.455 -1.25501 1.95837 0
M  V30 1463 C 136.449 -1.4685 0.844485 0
M  V30 1464 O 137.655 -1.47651 1.02952 0
M  V30 1465 H 134.03 -0.421447 0.622805 0
M  V30 1466 H 136.001 -0.895821 2.84636 0
M  V30 1467 C 134.75 -2.59124 2.31841 0
M  V30 1468 H 134.073 -2.43514 3.17082 0
M  V30 1469 H 135.513 -3.32371 2.6326 0
M  V30 1470 C 133.972 -3.16488 1.15486 0
M  V30 1471 O 134.502 -3.99365 0.432535 0
M  V30 1472 N 132.708 -2.75305 0.930349 0
M  V30 1473 H 132.255 -2.08013 1.51948 0
M  V30 1474 H 132.213 -3.14024 0.153634 0
M  V30 1475 N 135.985 -1.50799 -0.457987 0
M  V30 1476 C 137.232 -1.62442 -1.20908 0
M  V30 1477 C 137.56 -0.330865 -1.91665 0
M  V30 1478 O 136.815 0.68401 -1.83357 0
M  V30 1479 C 137.114 -2.76358 -2.2663 0
M  V30 1480 C 136.78 -4.16378 -1.73033 0
M  V30 1481 C 135.442 -4.54473 -1.58138 0
M  V30 1482 C 137.794 -5.03836 -1.33413 0
M  V30 1483 C 135.122 -5.77754 -1.02065 0
M  V30 1484 C 137.474 -6.27676 -0.78778 0
M  V30 1485 C 136.138 -6.64562 -0.625561 0
M  V30 1486 H 135.408 -0.594417 -0.442435 0
M  V30 1487 H 138.055 -1.84772 -0.503136 0
M  V30 1488 H 136.36 -2.48167 -3.03184 0
M  V30 1489 H 138.057 -2.82568 -2.84528 0
M  V30 1490 H 134.647 -3.86331 -1.85598 0
M  V30 1491 H 138.831 -4.75026 -1.4375 0
M  V30 1492 H 134.087 -6.04997 -0.882547 0
M  V30 1493 H 138.261 -6.94797 -0.472177 0
M  V30 1494 H 135.888 -7.59965 -0.188926 0
M  V30 1495 N 137.463 0.71206 -1.40597 0
M  V30 1496 C 138.71 1.47197 -1.39065 0
M  V30 1497 C 139.038 1.94499 0.00583891 0
M  V30 1498 O 138.293 1.68752 0.99102 0
M  V30 1499 C 138.592 2.71039 -2.32965 0
M  V30 1500 C 138.258 2.42484 -3.80148 0
M  V30 1501 C 136.92 2.34406 -4.20247 0
M  V30 1502 C 139.272 2.18598 -4.73143 0
M  V30 1503 C 136.6 2.00516 -5.51371 0
M  V30 1504 C 138.952 1.8622 -6.0457 0
M  V30 1505 C 137.616 1.76626 -6.43708 0
M  V30 1506 H 136.886 0.538634 -0.508876 0
M  V30 1507 H 139.533 0.815325 -1.73276 0
M  V30 1508 H 137.838 3.41558 -1.91951 0
M  V30 1509 H 139.535 3.29138 -2.29061 0
M  V30 1510 H 136.125 2.49659 -3.4838 0
M  V30 1511 H 140.309 2.23793 -4.42979 0
M  V30 1512 H 135.565 1.91628 -5.80593 0
M  V30 1513 H 139.739 1.66752 -6.76141 0
M  V30 1514 H 137.366 1.50133 -7.45228 0
M  V30 1515 N 138.941 1.26152 0.944643 0
M  V30 1516 C 140.218 1.02247 1.66748 0
M  V30 1517 C 140.598 -0.448202 2.06287 0
M  V30 1518 O 139.946 -1.42779 1.78399 0
M  V30 1519 C 140.156 1.96788 2.88228 0
M  V30 1520 C 141.504 2.25201 3.59958 0
M  V30 1521 O 142.528 1.94626 2.98327 0
M  V30 1522 O 141.387 2.77242 4.70956 0
M  V30 1523 H 138.481 0.388517 0.730057 0
M  V30 1524 H 141.027 1.37348 0.99668 0
M  V30 1525 H 139.799 2.96047 2.55875 0
M  V30 1526 H 139.422 1.62145 3.63035 0
M  V30 1527 N 140.419 -1.14872 1.07899 0
M  V30 1528 C 141.369 -2.17809 0.674027 0
M  V30 1529 C 142.353 -1.58008 -0.303699 0
M  V30 1530 O 143.545 -1.76616 -0.11654 0
M  V30 1531 C 140.674 -3.43208 0.0793318 0
M  V30 1532 C 139.76 -4.10051 1.08253 0
M  V30 1533 N 140.151 -4.52296 2.2641 0
M  V30 1534 C 138.449 -4.36469 0.917124 0
M  V30 1535 C 139.15 -5.04199 2.901 0
M  V30 1536 N 138.126 -4.98088 2.17736 0
M  V30 1537 H 141.928 -2.48207 1.57386 0
M  V30 1538 H 139.442 -1.315 0.952976 0
M  V30 1539 H 141.439 -4.16272 -0.228719 0
M  V30 1540 H 140.099 -3.14291 -0.815551 0
M  V30 1541 H 141.11 -4.45504 2.64096 0
M  V30 1542 H 137.787 -4.17432 0.0756078 0
M  V30 1543 H 139.177 -5.46802 3.90458 0
M  V30 1544 N 141.898 -0.863906 -1.31812 0
M  V30 1545 C 143.144 -0.472535 -1.97218 0
M  V30 1546 C 143.477 0.971394 -1.68159 0
M  V30 1547 O 142.752 1.68309 -0.974798 0
M  V30 1548 C 143.035 -0.723054 -3.52766 0
M  V30 1549 C 142.888 -2.21608 -3.91421 0
M  V30 1550 C 144.207 -0.185522 -4.39709 0
M  V30 1551 H 141.326 -0.173158 -0.71637 0
M  V30 1552 H 143.968 -1.08403 -1.56041 0
M  V30 1553 H 142.118 -0.202577 -3.87971 0
M  V30 1554 H 143.79 -2.80334 -3.66347 0
M  V30 1555 H 142.033 -2.691 -3.40246 0
M  V30 1556 H 142.704 -2.34203 -4.99853 0
M  V30 1557 H 145.18 -0.630726 -4.11292 0
M  V30 1558 H 144.056 -0.390306 -5.47511 0
M  V30 1559 H 144.317 0.912229 -4.32586 0
M  V30 1560 N 143.376 1.44774 -0.622745 0
M  V30 1561 C 144.653 1.95522 -0.0551974 0
M  V30 1562 C 145.033 1.5649 1.41683 0
M  V30 1563 O 144.381 0.834848 2.12703 0
M  V30 1564 C 144.591 3.4796 -0.269242 0
M  V30 1565 C 145.939 4.24306 -0.158014 0
M  V30 1566 O 146.963 3.55637 -0.200162 0
M  V30 1567 O 145.822 5.46471 -0.0558693 0
M  V30 1568 H 142.916 0.826556 0.0271015 0
M  V30 1569 H 145.462 1.54866 -0.693864 0
M  V30 1570 H 144.234 3.6939 -1.29099 0
M  V30 1571 H 143.857 3.95543 0.403966 0
M  V30 1572 N 144.854 0.36279 1.53368 0
M  V30 1573 C 146.103 -0.22888 2.00397 0
M  V30 1574 C 146.416 -1.50096 1.25421 0
M  V30 1575 O 147.622 -2.17106 1.63025 0
M  V30 1576 C 146.078 -0.458417 3.56969 0
M  V30 1577 C 145.686 0.798877 4.4082 0
M  V30 1578 C 147.43 -1.00789 4.12361 0
M  V30 1579 C 145.337 0.539078 5.88938 0
M  V30 1580 H 144.267 -0.089305 0.748693 0
M  V30 1581 H 146.918 0.481099 1.77081 0
M  V30 1582 H 145.3 -1.22959 3.76427 0
M  V30 1583 H 146.474 1.57262 4.33134 0
M  V30 1584 H 144.789 1.27137 3.96516 0
M  V30 1585 H 147.386 -1.21754 5.20653 0
M  V30 1586 H 147.729 -1.9692 3.66781 0
M  V30 1587 H 148.262 -0.296961 3.9669 0
M  V30 1588 H 145.001 1.47064 6.3879 0
M  V30 1589 H 144.521 -0.196222 5.99479 0
M  V30 1590 H 146.2 0.163542 6.46793 0
M  V30 1591 N 146.332 -1.57332 0.0918853 0
M  V30 1592 C 147.743 -1.81496 -0.437739 0
M  V30 1593 C 148.094 -1.00727 -1.6837 0
M  V30 1594 O 147.219 -0.235694 -2.15113 0
M  V30 1595 C 147.814 -3.29197 -0.800939 0
M  V30 1596 C 146.373 -3.54136 -1.27532 0
M  V30 1597 C 145.52 -2.75979 -0.270392 0
M  V30 1598 H 148.471 -1.55494 0.317366 0
M  V30 1599 H 148.492 -3.42344 -1.66074 0
M  V30 1600 H 148.004 -3.87955 0.106078 0
M  V30 1601 H 146.105 -3.00705 -2.20016 0
M  V30 1602 H 146.218 -4.62792 -1.23938 0
M  V30 1603 H 144.582 -2.43349 -0.751872 0
M  V30 1604 H 145.365 -3.37484 0.629248 0
M  V30 1605 N 147.81 0.181792 -1.56548 0
M  V30 1606 C 148.773 1.20894 -1.94724 0
M  V30 1607 C 149.773 1.37738 -0.829747 0
M  V30 1608 O 150.963 1.35323 -1.09697 0
M  V30 1609 C 148.095 2.57593 -2.23291 0
M  V30 1610 H 149.288 0.882275 -2.86629 0
M  V30 1611 H 146.841 0.423838 -1.50444 0
M  V30 1612 H 147.576 2.95291 -1.34067 0
M  V30 1613 H 147.361 2.46735 -3.04736 0
M  V30 1614 H 148.851 3.31637 -2.53785 0
M  V30 1615 N 149.288 1.51039 0.449983 0
M  V30 1616 C 150.198 1.74261 1.57067 0
M  V30 1617 C 151.214 0.626363 1.62335 0
M  V30 1618 O 152.39 0.907162 1.79812 0
M  V30 1619 C 149.455 1.85114 2.93144 0
M  V30 1620 C 148.516 3.0893 2.98095 0
M  V30 1621 C 147.749 3.19256 4.27681 0
M  V30 1622 O 147.972 2.35835 5.19363 0
M  V30 1623 O 146.906 4.12144 4.38658 0
M  V30 1624 H 150.732 2.69303 1.40391 0
M  V30 1625 H 148.317 1.35389 0.631688 0
M  V30 1626 H 150.199 1.94311 3.73926 0
M  V30 1627 H 148.874 0.932588 3.09975 0
M  V30 1628 H 147.781 3.0522 2.16314 0
M  V30 1629 H 149.114 4.00433 2.86206 0
M  V30 1630 N 150.766 -0.704594 1.40972 0
M  V30 1631 C 151.714 -1.83994 1.42299 0
M  V30 1632 C 152.708 -1.66684 0.302111 0
M  V30 1633 O 153.914 -1.73655 0.473697 0
M  V30 1634 H 150.289 -0.606171 0.44504 0
M  V30 1635 H 152.26 -1.79992 2.38003 0
M  V30 1636 C 151.009 -3.21946 1.31323 0
M  V30 1637 H 150.332 -3.35878 2.16855 0
M  V30 1638 H 151.772 -4.01491 1.36311 0
M  V30 1639 C 150.231 -3.36891 0.0245977 0
M  V30 1640 O 150.761 -3.90687 -0.934153 0
M  V30 1641 N 148.967 -2.90559 -0.0485243 0
M  V30 1642 H 148.514 -2.46968 0.732419 0
M  V30 1643 H 148.472 -3.00937 -0.910171 0
M  V30 1644 N 152.244 -1.26651 -0.937939 0
M  V30 1645 C 153.493 -1.11775 -1.67897 0
M  V30 1646 C 153.806 0.33794 -1.92659 0
M  V30 1647 O 155.012 0.607434 -2.64618 0
M  V30 1648 C 153.468 -1.9523 -3.02346 0
M  V30 1649 C 153.076 -3.45393 -2.8532 0
M  V30 1650 C 154.82 -1.88972 -3.80118 0
M  V30 1651 C 152.727 -4.21083 -4.15263 0
M  V30 1652 H 151.657 -0.414696 -0.629717 0
M  V30 1653 H 154.308 -1.50988 -1.04283 0
M  V30 1654 H 152.69 -1.48853 -3.66959 0
M  V30 1655 H 153.864 -3.99561 -2.29537 0
M  V30 1656 H 152.179 -3.52921 -2.20988 0
M  V30 1657 H 154.776 -2.42805 -4.76392 0
M  V30 1658 H 155.119 -0.86113 -4.07296 0
M  V30 1659 H 155.652 -2.33189 -3.22285 0
M  V30 1660 H 152.391 -5.24425 -3.93267 0
M  V30 1661 H 151.911 -3.71695 -4.70747 0
M  V30 1662 H 153.59 -4.29706 -4.83696 0
M  V30 1663 N 153.722 1.14298 -1.08507 0
M  V30 1664 C 154.67 2.21483 -0.710483 0
M  V30 1665 C 155.664 1.66998 0.284234 0
M  V30 1666 O 156.87 1.79401 0.146692 0
M  V30 1667 H 153.245 0.721578 -0.211729 0
M  V30 1668 H 155.216 2.50348 -1.62384 0
M  V30 1669 C 153.965 3.4743 -0.137007 0
M  V30 1670 H 153.288 3.89686 -0.893592 0
M  V30 1671 H 154.728 4.2391 0.0872789 0
M  V30 1672 C 153.187 3.17548 1.12538 0
M  V30 1673 O 153.717 3.35437 2.21009 0
M  V30 1674 N 151.923 2.71499 1.03617 0
M  V30 1675 H 151.47 2.57143 0.153403 0
M  V30 1676 H 151.428 2.51881 1.88158 0
M  V30 1677 N 155.201 0.870884 1.31352 0
M  V30 1678 C 156.131 0.343096 2.30966 0
M  V30 1679 C 157.112 -0.566507 1.60389 0
M  V30 1680 O 158.297 -0.483336 1.88089 0
M  V30 1681 C 155.427 -0.455487 3.443 0
M  V30 1682 C 154.381 0.361103 4.26474 0
M  V30 1683 C 153.707 -0.563221 5.31725 0
M  V30 1684 C 155.007 1.59566 4.97329 0
M  V30 1685 H 156.701 1.17548 2.75359 0
M  V30 1686 H 154.247 0.566686 1.32381 0
M  V30 1687 H 156.2 -0.83525 4.13039 0
M  V30 1688 H 154.924 -1.32139 2.98675 0
M  V30 1689 H 153.583 0.722825 3.59403 0
M  V30 1690 H 153.231 -1.42643 4.82351 0
M  V30 1691 H 152.931 -0.0207409 5.87596 0
M  V30 1692 H 154.455 -0.939808 6.03324 0
M  V30 1693 H 155.869 1.28728 5.58661 0
M  V30 1694 H 154.266 2.07728 5.63 0
M  V30 1695 H 155.336 2.34798 4.24262 0
M  V30 1696 N 156.679 -1.44442 0.630414 0
M  V30 1697 C 157.609 -2.33418 -0.0618083 0
M  V30 1698 C 158.59 -1.48165 -0.835541 0
M  V30 1699 O 159.775 -1.76886 -0.801564 0
M  V30 1700 C 156.905 -3.31222 -1.04449 0
M  V30 1701 C 155.859 -4.26288 -0.382436 0
M  V30 1702 C 155.185 -5.13954 -1.47497 0
M  V30 1703 C 156.485 -5.1744 0.710865 0
M  V30 1704 H 158.179 -2.91548 0.681184 0
M  V30 1705 H 155.725 -1.40191 0.329026 0
M  V30 1706 H 157.678 -3.92351 -1.53748 0
M  V30 1707 H 156.402 -2.71299 -1.81836 0
M  V30 1708 H 155.061 -3.6649 0.0899054 0
M  V30 1709 H 154.709 -4.50385 -2.2397 0
M  V30 1710 H 154.409 -5.7837 -1.03737 0
M  V30 1711 H 155.933 -5.77955 -1.96979 0
M  V30 1712 H 157.347 -5.72509 0.300996 0
M  V30 1713 H 155.744 -5.90455 1.07156 0
M  V30 1714 H 156.814 -4.58496 1.57829 0
M  V30 1715 N 158.157 -0.370918 -1.53173 0
M  V30 1716 C 159.105 0.488101 -2.27421 0
M  V30 1717 C 160.099 1.07884 -1.30604 0
M  V30 1718 O 161.305 1.02143 -1.48212 0
M  V30 1719 H 157.68 0.176134 -0.731082 0
M  V30 1720 H 159.651 -0.159815 -2.97972 0
M  V30 1721 C 158.4 1.61306 -3.08019 0
M  V30 1722 H 157.723 1.1678 -3.82364 0
M  V30 1723 H 159.163 2.18872 -3.63141 0
M  V30 1724 C 157.622 2.55848 -2.19188 0
M  V30 1725 O 158.152 3.58799 -1.80626 0
M  V30 1726 N 156.358 2.2516 -1.83715 0
M  V30 1727 H 155.905 1.41476 -2.15273 0
M  V30 1728 H 155.863 2.8867 -1.24567 0
M  V30 1729 N 159.635 1.57281 -0.100228 0
M  V30 1730 C 160.883 1.94153 0.561157 0
M  V30 1731 C 161.204 0.983157 1.68401 0
M  V30 1732 O 160.474 0.0361132 1.95867 0
M  V30 1733 H 159.054 0.716791 0.210283 0
M  V30 1734 H 161.716 1.94202 -0.164765 0
M  V30 1735 H 160.812 2.96709 0.968008 0
M  V30 1736 N 161.113 -0.173488 1.56642 0
M  V30 1737 C 162.061 -1.23417 1.97157 0
M  V30 1738 C 163.055 -1.45946 0.860013 0
M  V30 1739 O 164.261 -1.46551 1.04512 0
M  V30 1740 H 160.636 -0.414818 0.62724 0
M  V30 1741 H 162.607 -0.865582 2.8557 0
M  V30 1742 C 161.356 -2.5665 2.34576 0
M  V30 1743 H 160.679 -2.40137 3.19647 0
M  V30 1744 H 162.119 -3.2956 2.6677 0
M  V30 1745 C 160.578 -3.15245 1.18836 0
M  V30 1746 O 161.108 -3.98883 0.474869 0
M  V30 1747 N 159.314 -2.74303 0.959497 0
M  V30 1748 H 158.861 -2.0639 1.54146 0
M  V30 1749 H 158.819 -3.13844 0.186932 0
M  V30 1750 N 162.591 -1.51276 -0.441967 0
M  V30 1751 C 163.554 -1.7167 -1.51862 0
M  V30 1752 C 164.554 -0.586793 -1.49711 0
M  V30 1753 O 165.744 -0.854276 -1.51815 0
M  V30 1754 C 162.876 -1.76889 -2.91416 0
M  V30 1755 H 164.069 -2.67754 -1.35084 0
M  V30 1756 H 161.622 -1.41196 -0.670333 0
M  V30 1757 H 162.357 -0.826026 -3.13604 0
M  V30 1758 H 162.142 -2.59001 -2.94382 0
M  V30 1759 H 163.632 -1.94522 -3.69528 0
M  V30 1760 N 164.069 0.697108 -1.41344 0
M  V30 1761 C 165.48 1.27697 -1.36199 0
M  V30 1762 C 165.831 1.9615 -0.0443463 0
M  V30 1763 O 164.956 1.98689 0.857419 0
M  V30 1764 C 165.551 2.32223 -2.46694 0
M  V30 1765 C 164.11 2.8579 -2.44952 0
M  V30 1766 C 163.257 1.59807 -2.26621 0
M  V30 1767 H 166.208 0.491968 -1.50882 0
M  V30 1768 H 166.229 3.1348 -2.15664 0
M  V30 1769 H 165.741 1.82373 -3.42581 0
M  V30 1770 H 163.842 3.3982 -1.52817 0
M  V30 1771 H 163.955 3.36325 -3.41207 0
M  V30 1772 H 162.319 1.8556 -1.7447 0
M  V30 1773 H 163.102 1.11956 -3.24532 0
M  V30 1774 N 165.547 1.27147 0.931209 0
M  V30 1775 C 166.824 1.0401 1.65654 0
M  V30 1776 C 167.204 -0.426297 2.06751 0
M  V30 1777 O 166.552 -1.40879 1.79904 0
M  V30 1778 C 166.762 1.99834 2.86125 0
M  V30 1779 C 168.11 2.29007 3.57549 0
M  V30 1780 O 169.134 1.97779 2.96246 0
M  V30 1781 O 167.993 2.82222 4.67989 0
M  V30 1782 H 165.087 0.396239 0.725895 0
M  V30 1783 H 167.633 1.38397 0.982056 0
M  V30 1784 H 166.405 2.98744 2.52721 0
M  V30 1785 H 166.028 1.65987 3.61295 0
M  V30 1786 N 167.025 -1.13721 1.09112 0
M  V30 1787 C 168.274 -1.84275 0.82009 0
M  V30 1788 C 168.587 -1.84253 -0.656509 0
M  V30 1789 O 169.793 -2.50668 -1.04296 0
M  V30 1790 C 168.249 -3.30825 1.41714 0
M  V30 1791 C 167.857 -3.39244 2.92605 0
M  V30 1792 C 169.601 -4.06443 1.22492 0
M  V30 1793 C 167.508 -4.80047 3.45411 0
M  V30 1794 H 166.438 -0.690387 0.30312 0
M  V30 1795 H 169.089 -1.28146 1.31343 0
M  V30 1796 H 167.471 -3.86737 0.851498 0
M  V30 1797 H 168.645 -2.93344 3.55367 0
M  V30 1798 H 166.96 -2.77088 3.10823 0
M  V30 1799 H 169.557 -5.10387 1.59402 0
M  V30 1800 H 169.9 -4.15972 0.165299 0
M  V30 1801 H 170.433 -3.56852 1.75788 0
M  V30 1802 H 167.172 -4.75709 4.50978 0
M  V30 1803 H 166.692 -5.26455 2.87411 0
M  V30 1804 H 168.371 -5.48957 3.42425 0
M  V30 1805 N 168.503 -0.877838 -1.30888 0
M  V30 1806 C 169.78 -0.413052 -1.91189 0
M  V30 1807 C 170.16 1.1056 -1.79832 0
M  V30 1808 O 169.508 1.93771 -1.21099 0
M  V30 1809 C 169.718 -0.903191 -3.3711 0
M  V30 1810 C 171.066 -0.93395 -4.14201 0
M  V30 1811 O 172.09 -0.849373 -3.45925 0
M  V30 1812 O 170.949 -1.05772 -5.36167 0
M  V30 1813 H 168.043 -0.125035 -0.817493 0
M  V30 1814 H 170.589 -0.966269 -1.39504 0
M  V30 1815 H 169.361 -1.94692 -3.39427 0
M  V30 1816 H 168.984 -0.328732 -3.96239 0
M  V30 1817 N 169.982 1.44106 -0.638065 0
M  V30 1818 C 170.945 2.29138 0.0531013 0
M  V30 1819 C 171.945 1.41409 0.765506 0
M  V30 1820 O 173.135 1.63206 0.609046 0
M  V30 1821 C 170.267 3.23144 1.08584 0
M  V30 1822 H 171.46 2.91739 -0.694883 0
M  V30 1823 H 169.013 1.51134 -0.398538 0
M  V30 1824 H 169.748 2.65408 1.86357 0
M  V30 1825 H 169.533 3.87804 0.578852 0
M  V30 1826 H 171.023 3.87004 1.56899 0
M  V30 1827 N 171.46 0.379036 1.52974 0
M  V30 1828 C 172.37 -0.468639 2.29872 0
M  V30 1829 C 173.386 -1.08067 1.36373 0
M  V30 1830 O 174.562 -1.08871 1.69438 0
M  V30 1831 C 171.627 -1.58594 3.083 0
M  V30 1832 C 170.688 -1.00007 4.17489 0
M  V30 1833 C 169.921 -2.06413 4.92168 0
M  V30 1834 O 170.144 -3.27751 4.66835 0
M  V30 1835 O 169.078 -1.68717 5.7777 0
M  V30 1836 H 172.904 0.157508 3.03291 0
M  V30 1837 H 170.489 0.143035 1.48714 0
M  V30 1838 H 172.371 -2.23525 3.57232 0
M  V30 1839 H 171.046 -2.19724 2.37703 0
M  V30 1840 H 169.953 -0.314299 3.72777 0
M  V30 1841 H 171.286 -0.433135 4.90291 0
M  V30 1842 N 172.938 -1.57226 0.108567 0
M  V30 1843 C 174.178 -1.96717 -0.555155 0
M  V30 1844 C 174.542 -0.990003 -1.64508 0
M  V30 1845 O 175.743 -1.2739 -2.36696 0
M  V30 1846 C 174.014 -3.40575 -1.08367 0
M  V30 1847 S 175.573 -4.02072 -1.75737 0
M  V30 1848 H 172.391 -0.687638 -0.180762 0
M  V30 1849 H 174.993 -1.94563 0.191172 0
M  V30 1850 H 173.697 -4.0945 -0.279092 0
M  V30 1851 H 173.228 -3.46356 -1.86551 0
M  V30 1852 H 175.243 -3.91977 -3.04251 0
M  V30 1853 N 174.416 0.165178 -1.56732 0
M  V30 1854 C 175.832 0.517174 -1.50988 0
M  V30 1855 C 176.032 1.84331 -0.813894 0
M  V30 1856 O 175.088 2.49672 -0.37682 0
M  V30 1857 C 176.401 0.544261 -2.95733 0
M  V30 1858 C 177.949 0.631039 -3.06573 0
M  V30 1859 C 178.424 0.68896 -4.52788 0
M  V30 1860 N 179.915 0.751683 -4.5706 0
M  V30 1861 C 180.65 0.817177 -5.67547 0
M  V30 1862 N 180.146 0.843129 -6.8765 0
M  V30 1863 N 181.939 0.856668 -5.55534 0
M  V30 1864 H 174.09 -0.704318 -2.00382 0
M  V30 1865 H 176.353 -0.254687 -0.913148 0
M  V30 1866 H 176.059 -0.361607 -3.49836 0
M  V30 1867 H 175.933 1.3886 -3.5071 0
M  V30 1868 H 178.32 1.52733 -2.52501 0
M  V30 1869 H 178.401 -0.240095 -2.54671 0
M  V30 1870 H 178.045 -0.2031 -5.07494 0
M  V30 1871 H 177.975 1.57633 -5.02454 0
M  V30 1872 H 180.466 0.739661 -3.70591 0
M  V30 1873 H 180.779 0.894448 -7.67606 0
M  V30 1874 H 179.124 0.811304 -6.90248 0
M  V30 1875 H 182.315 0.833437 -4.60621 0
M  V30 1876 H 182.488 0.904247 -6.4166 0
M  V30 1877 N 175.894 1.51508 0.433938 0
M  V30 1878 C 176.826 1.69266 1.54537 0
M  V30 1879 C 177.839 0.573276 1.52373 0
M  V30 1880 O 179.028 0.847698 1.57087 0
M  V30 1881 C 176.128 1.69524 2.93453 0
M  V30 1882 C 175.301 2.98101 3.20085 0
M  V30 1883 C 174.36 2.90502 4.38742 0
M  V30 1884 O 173.386 3.64442 4.3723 0
M  V30 1885 N 174.588 2.06586 5.42496 0
M  V30 1886 H 177.353 2.65145 1.39708 0
M  V30 1887 H 174.914 1.49437 0.622922 0
M  V30 1888 H 176.906 1.62004 3.70859 0
M  V30 1889 H 175.476 0.812245 3.01863 0
M  V30 1890 H 174.696 3.19464 2.30947 0
M  V30 1891 H 175.984 3.83207 3.34708 0
M  V30 1892 H 175.382 1.45896 5.46563 0
M  V30 1893 H 173.939 2.04943 6.18742 0
M  V30 1894 N 177.372 -0.689602 1.41712 0
M  V30 1895 C 178.602 -1.47613 1.44548 0
M  V30 1896 C 179.01 -1.89132 0.0509034 0
M  V30 1897 O 178.353 -1.57741 -0.94146 0
M  V30 1898 C 178.415 -2.76596 2.2964 0
M  V30 1899 C 178.079 -2.57245 3.77722 0
M  V30 1900 C 179.076 -2.22804 4.69739 0
M  V30 1901 C 176.761 -2.727 4.2183 0
M  V30 1902 C 178.755 -2.04064 6.03851 0
M  V30 1903 C 176.442 -2.53576 5.56006 0
M  V30 1904 C 177.44 -2.1931 6.46832 0
M  V30 1905 O 177.128 -2.00359 7.78532 0
M  V30 1906 H 176.86 -0.461227 0.494212 0
M  V30 1907 H 179.414 -0.856045 1.86711 0
M  V30 1908 H 177.644 -3.41033 1.82301 0
M  V30 1909 H 179.333 -3.38424 2.24107 0
M  V30 1910 H 180.099 -2.10473 4.36951 0
M  V30 1911 H 175.978 -2.98353 3.51435 0
M  V30 1912 H 179.522 -1.77241 6.74708 0
M  V30 1913 H 175.419 -2.65499 5.88371 0
M  V30 1914 H 176.187 -2.15075 7.89737 0
M  V30 1915 N 178.85 -1.27639 -0.924453 0
M  V30 1916 C 179.76 -1.12466 -2.05885 0
M  V30 1917 C 180.776 -0.053869 -1.73917 0
M  V30 1918 O 181.952 -0.261012 -1.99702 0
M  V30 1919 C 179.017 -0.776768 -3.37886 0
M  V30 1920 C 178.078 -1.92878 -3.83532 0
M  V30 1921 C 177.311 -1.59739 -5.09234 0
M  V30 1922 O 177.534 -0.506782 -5.68144 0
M  V30 1923 O 176.468 -2.43761 -5.50331 0
M  V30 1924 H 180.294 -2.07671 -2.21599 0
M  V30 1925 H 177.879 -1.06857 -1.04413 0
M  V30 1926 H 179.761 -0.596229 -4.17161 0
M  V30 1927 H 178.436 0.145732 -3.23372 0
M  V30 1928 H 177.343 -2.1644 -3.0513 0
M  V30 1929 H 178.676 -2.8316 -4.02593 0
M  V30 1930 N 180.328 1.1314 -1.09713 0
M  V30 1931 C 181.238 2.22242 -0.751367 0
M  V30 1932 C 182.254 1.72224 0.247938 0
M  V30 1933 O 183.43 2.01205 0.0885463 0
M  V30 1934 C 180.495 3.46231 -0.180274 0
M  V30 1935 C 179.556 4.11125 -1.2359 0
M  V30 1936 C 178.789 5.29195 -0.691966 0
M  V30 1937 O 179.012 5.68342 0.48414 0
M  V30 1938 O 177.946 5.84214 -1.44838 0
M  V30 1939 H 181.772 2.54197 -1.66186 0
M  V30 1940 H 179.357 1.21331 -0.871735 0
M  V30 1941 H 181.239 4.21185 0.134739 0
M  V30 1942 H 179.914 3.1597 0.703185 0
M  V30 1943 H 178.821 3.37985 -1.60366 0
M  V30 1944 H 180.154 4.45524 -2.09211 0
M  V30 1945 N 181.806 0.884767 1.30421 0
M  V30 1946 C 182.753 0.349642 2.28136 0
M  V30 1947 C 183.723 -0.560061 1.56373 0
M  V30 1948 O 184.908 -0.488524 1.8444 0
M  V30 1949 C 182.048 -0.42999 3.42411 0
M  V30 1950 C 181.161 0.508907 4.28992 0
M  V30 1951 C 180.296 -0.286301 5.30428 0
M  V30 1952 C 179.335 0.648079 6.08659 0
M  V30 1953 N 178.472 -0.111792 7.02011 0
M  V30 1954 H 183.312 1.18807 2.73293 0
M  V30 1955 H 180.849 0.597231 1.3443 0
M  V30 1956 H 182.807 -0.897923 4.07423 0
M  V30 1957 H 181.437 -1.23299 2.98324 0
M  V30 1958 H 180.489 1.09533 3.64289 0
M  V30 1959 H 181.801 1.22475 4.8353 0
M  V30 1960 H 180.955 -0.816098 6.01186 0
M  V30 1961 H 179.694 -1.03536 4.76583 0
M  V30 1962 H 178.699 1.18951 5.36778 0
M  V30 1963 H 179.924 1.39623 6.64592 0
M  V30 1964 H 177.87 -0.843395 6.50556 0
M  V30 1965 H 177.787 0.544429 7.54037 0
M  V30 1966 H 179.055 -0.622339 7.77012 0
M  V30 1967 N 183.284 -1.43765 0.645699 0
M  V30 1968 C 184.533 -2.01116 0.153412 0
M  V30 1969 C 184.846 -1.51493 -1.23731 0
M  V30 1970 O 186.052 -2.01067 -1.8244 0
M  V30 1971 C 184.508 -3.59206 0.223473 0
M  V30 1972 C 184.116 -4.17823 1.61642 0
M  V30 1973 C 185.86 -4.23972 -0.211597 0
M  V30 1974 C 183.767 -5.68183 1.64081 0
M  V30 1975 H 182.697 -0.752093 0.0535891 0
M  V30 1976 H 185.348 -1.6482 0.806633 0
M  V30 1977 H 183.73 -3.92867 -0.497118 0
M  V30 1978 H 184.904 -3.95674 2.36176 0
M  V30 1979 H 183.219 -3.65399 1.99681 0
M  V30 1980 H 185.816 -5.34275 -0.213112 0
M  V30 1981 H 186.159 -3.97352 -1.24165 0
M  V30 1982 H 186.692 -3.95166 0.456988 0
M  V30 1983 H 183.431 -5.99559 2.64971 0
M  V30 1984 H 182.951 -5.9241 0.938611 0
M  V30 1985 H 184.63 -6.32085 1.3812 0
M  V30 1986 N 184.763 -0.387143 -1.52771 0
M  V30 1987 C 186.179 -0.037007 -1.59557 0
M  V30 1988 C 186.379 1.44801 -1.40124 0
M  V30 1989 O 185.435 2.21227 -1.21716 0
M  V30 1990 C 186.748 -0.512256 -2.96305 0
M  V30 1991 C 188.296 -0.468328 -3.09476 0
M  V30 1992 C 188.771 -0.919731 -4.4867 0
M  V30 1993 N 190.262 -0.875656 -4.54848 0
M  V30 1994 C 190.997 -1.19637 -5.6078 0
M  V30 1995 N 190.493 -1.58745 -6.74368 0
M  V30 1996 N 192.286 -1.11776 -5.50874 0
M  V30 1997 H 184.437 -1.35395 -1.63652 0
M  V30 1998 H 186.7 -0.554818 -0.768688 0
M  V30 1999 H 186.406 -1.54935 -3.15734 0
M  V30 2000 H 186.28 0.089805 -3.77093 0
M  V30 2001 H 188.667 0.559671 -2.89744 0
M  V30 2002 H 188.748 -1.10616 -2.30646 0
M  V30 2003 H 188.392 -1.94595 -4.69143 0
M  V30 2004 H 188.322 -0.258927 -5.25963 0
M  V30 2005 H 190.813 -0.587843 -3.733 0
M  V30 2006 H 191.126 -1.81586 -7.51163 0
M  V30 2007 H 189.471 -1.6263 -6.75705 0
M  V30 2008 H 192.662 -0.811264 -4.61016 0
M  V30 2009 H 192.835 -1.37103 -6.3333 0
M  V30 2010 N 186.241 1.57166 -0.116904 0
M  V30 2011 C 187.466 1.999 0.55271 0
M  V30 2012 C 187.891 0.996039 1.59564 0
M  V30 2013 O 187.249 -0.032556 1.81271 0
M  V30 2014 C 187.297 3.4152 1.15742 0
M  V30 2015 O 186.401 3.44106 2.27299 0
M  V30 2016 H 185.742 0.649447 0.138258 0
M  V30 2017 H 188.272 2.03573 -0.204759 0
M  V30 2018 H 188.282 3.79684 1.49346 0
M  V30 2019 H 186.957 4.14034 0.393493 0
M  V30 2020 H 185.534 3.17759 1.9515 0
M  V30 2021 N 187.719 -0.156864 1.56817 0
M  V30 2022 C 188.949 -0.885031 1.86684 0
M  V30 2023 C 189.357 -1.75696 0.701954 0
M  V30 2024 O 188.7 -1.80569 -0.337732 0
M  V30 2025 C 188.762 -1.80092 3.11138 0
M  V30 2026 C 188.426 -1.10714 4.43386 0
M  V30 2027 C 189.423 -0.465714 5.1781 0
M  V30 2028 C 187.108 -1.09959 4.90117 0
M  V30 2029 C 189.102 0.174002 6.37162 0
M  V30 2030 C 186.789 -0.456055 6.09396 0
M  V30 2031 C 187.787 0.179622 6.82764 0
M  V30 2032 O 187.475 0.812975 7.99779 0
M  V30 2033 H 187.207 -0.261813 0.623242 0
M  V30 2034 H 189.761 -0.157383 2.04796 0
M  V30 2035 H 187.991 -2.56926 2.89009 0
M  V30 2036 H 189.68 -2.40018 3.27332 0
M  V30 2037 H 190.446 -0.463427 4.82781 0
M  V30 2038 H 186.325 -1.58378 4.3294 0
M  V30 2039 H 189.869 0.670765 6.94368 0
M  V30 2040 H 185.766 -0.455975 6.43888 0
M  V30 2041 H 186.534 0.71366 8.15383 0
M  V30 2042 N 189.197 -1.51736 -0.425897 0
M  V30 2043 C 190.445 -1.64644 -1.17204 0
M  V30 2044 C 190.766 -0.370486 -1.91448 0
M  V30 2045 O 190.036 0.614088 -1.86026 0
M  V30 2046 H 188.616 -0.606819 -0.435638 0
M  V30 2047 H 191.278 -1.88713 -0.487177 0
M  V30 2048 H 190.374 -2.47958 -1.89534 0
M  V30 2049 N 190.675 0.682077 -1.42076 0
M  V30 2050 C 191.622 1.79578 -1.44984 0
M  V30 2051 C 192.592 1.6332 -0.302614 0
M  V30 2052 O 193.777 1.83978 -0.505633 0
M  V30 2053 C 190.917 3.1756 -1.35091 0
M  V30 2054 C 190.03 3.45156 -2.59791 0
M  V30 2055 C 189.165 4.72826 -2.42093 0
M  V30 2056 C 188.204 4.93433 -3.62202 0
M  V30 2057 N 187.341 6.12338 -3.43491 0
M  V30 2058 H 192.181 1.76427 -2.40161 0
M  V30 2059 H 189.718 0.861376 -1.19242 0
M  V30 2060 H 191.676 3.97287 -1.27354 0
M  V30 2061 H 190.306 3.19854 -0.435133 0
M  V30 2062 H 189.358 2.59736 -2.77923 0
M  V30 2063 H 190.67 3.5628 -3.49094 0
M  V30 2064 H 189.824 5.60631 -2.319 0
M  V30 2065 H 188.563 4.63973 -1.50268 0
M  V30 2066 H 187.568 4.04073 -3.72834 0
M  V30 2067 H 188.793 5.04136 -4.54998 0
M  V30 2068 H 186.739 6.04672 -2.54377 0
M  V30 2069 H 186.656 6.2429 -4.26377 0
M  V30 2070 H 187.924 7.02841 -3.37097 0
M  V30 2071 N 192.153 1.28127 0.917671 0
M  V30 2072 C 193.402 1.14432 1.66097 0
M  V30 2073 C 193.715 -0.307247 1.93172 0
M  V30 2074 O 194.921 -0.565259 2.65551 0
M  V30 2075 C 193.377 2.00015 2.99202 0
M  V30 2076 C 192.985 3.49889 2.79789 0
M  V30 2077 C 194.729 1.94996 3.77064 0
M  V30 2078 C 192.636 4.27636 4.08511 0
M  V30 2079 H 191.566 0.424662 0.62304 0
M  V30 2080 H 194.217 1.52628 1.01868 0
M  V30 2081 H 192.599 1.54672 3.64544 0
M  V30 2082 H 193.773 4.03162 2.23152 0
M  V30 2083 H 192.088 3.56392 2.15345 0
M  V30 2084 H 194.685 2.50354 4.72469 0
M  V30 2085 H 195.028 0.925819 4.05875 0
M  V30 2086 H 195.561 2.38287 3.18534 0
M  V30 2087 H 192.3 5.30615 3.84874 0
M  V30 2088 H 191.82 3.79137 4.64774 0
M  V30 2089 H 193.499 4.37346 4.76799 0
M  V30 2090 N 193.631 -1.12557 1.10312 0
M  V30 2091 C 194.581 -2.16331 0.720076 0
M  V30 2092 C 195.565 -1.58616 -0.270115 0
M  V30 2093 O 196.757 -1.76823 -0.0790507 0
M  V30 2094 C 193.886 -3.42963 0.152113 0
M  V30 2095 C 192.972 -4.07663 1.16927 0
M  V30 2096 N 193.363 -4.47392 2.35953 0
M  V30 2097 C 191.661 -4.34425 1.0095 0
M  V30 2098 C 192.362 -4.97932 3.0073 0
M  V30 2099 N 191.338 -4.93358 2.28252 0
M  V30 2100 H 195.14 -2.44813 1.62616 0
M  V30 2101 H 192.654 -1.29449 0.980654 0
M  V30 2102 H 194.651 -4.16664 -0.14037 0
M  V30 2103 H 193.311 -3.1595 -0.748701 0
M  V30 2104 H 194.322 -4.39802 2.73486 0
M  V30 2105 H 190.999 -4.17177 0.164134 0
M  V30 2106 H 192.389 -5.38397 4.01969 0
M  V30 2107 N 195.109 -0.891671 -1.2995 0
M  V30 2108 C 196.039 -0.379797 -2.30391 0
M  V30 2109 C 197.02 0.540919 -1.6127 0
M  V30 2110 O 198.205 0.453352 -1.88834 0
M  V30 2111 C 195.335 0.400654 -3.44981 0
M  V30 2112 C 194.289 -0.428905 -4.25846 0
M  V30 2113 C 193.615 0.478557 -5.32554 0
M  V30 2114 C 194.915 -1.67458 -4.94727 0
M  V30 2115 H 196.609 -1.21914 -2.73454 0
M  V30 2116 H 194.155 -0.587675 -1.31462 0
M  V30 2117 H 196.108 0.769434 -4.14316 0
M  V30 2118 H 194.832 1.27371 -3.0074 0
M  V30 2119 H 193.491 -0.779911 -3.58208 0
M  V30 2120 H 193.139 1.34951 -4.84559 0
M  V30 2121 H 192.839 -0.0727433 -5.87555 0
M  V30 2122 H 194.363 0.843705 -6.04743 0
M  V30 2123 H 195.777 -1.376 -5.56542 0
M  V30 2124 H 194.174 -2.16659 -5.59624 0
M  V30 2125 H 195.244 -2.41518 -4.20473 0
M  V30 2126 N 196.587 1.43421 -0.653314 0
M  V30 2127 C 197.834 2.01812 -0.166745 0
M  V30 2128 C 198.162 1.51535 1.21931 0
M  V30 2129 O 197.417 0.698975 1.82792 0
M  V30 2130 C 197.716 3.57176 -0.126623 0
M  V30 2131 C 197.382 4.26798 -1.45444 0
M  V30 2132 C 196.044 4.45534 -1.81805 0
M  V30 2133 C 198.396 4.66225 -2.32989 0
M  V30 2134 C 195.724 5.00961 -3.05377 0
M  V30 2135 C 198.076 5.23021 -3.55853 0
M  V30 2136 C 196.74 5.39973 -3.9241 0
M  V30 2137 H 196.01 0.738484 -0.0610162 0
M  V30 2138 H 198.657 1.71896 -0.84404 0
M  V30 2139 H 196.962 3.86634 0.634123 0
M  V30 2140 H 198.659 4.00112 0.266723 0
M  V30 2141 H 195.249 4.12561 -1.16153 0
M  V30 2142 H 199.433 4.51443 -2.06187 0
M  V30 2143 H 194.689 5.12271 -3.3375 0
M  V30 2144 H 198.863 5.52518 -4.23907 0
M  V30 2145 H 196.49 5.82687 -4.88242 0
M  V30 2146 N 198.065 0.39524 1.52563 0
M  V30 2147 C 198.998 -0.4813 2.23067 0
M  V30 2148 C 199.976 -1.05927 1.23362 0
M  V30 2149 O 201.16 -1.10979 1.52368 0
M  V30 2150 C 198.287 -1.66676 2.9485 0
M  V30 2151 C 197.333 -1.21348 4.08873 0
M  V30 2152 S 198.166 -0.190102 5.35162 0
M  V30 2153 C 199.322 -1.38121 6.1047 0
M  V30 2154 H 199.555 0.117381 2.97068 0
M  V30 2155 H 197.088 0.179458 1.53354 0
M  V30 2156 H 199.046 -2.3466 3.36816 0
M  V30 2157 H 197.707 -2.23676 2.20518 0
M  V30 2158 H 196.9 -2.09877 4.58222 0
M  V30 2159 H 196.502 -0.612486 3.68951 0
M  V30 2160 H 198.794 -2.30726 6.37002 0
M  V30 2161 H 199.737 -0.928521 7.01986 0
M  V30 2162 H 200.145 -1.60071 5.41329 0
M  V30 2163 N 199.544 -1.57102 0.125237 0
M  V30 2164 C 200.792 -1.95021 -0.530198 0
M  V30 2165 C 201.113 -1.00982 -1.66816 0
M  V30 2166 O 200.383 -0.0672693 -1.95784 0
M  V30 2167 H 198.963 -0.720046 -0.198853 0
M  V30 2168 H 201.625 -1.93916 0.19564 0
M  V30 2169 H 200.721 -2.98211 -0.920681 0
M  V30 2170 N 201.022 0.148545 -1.56898 0
M  V30 2171 C 202.27 0.859717 -1.82902 0
M  V30 2172 C 202.591 1.81775 -0.70588 0
M  V30 2173 O 201.861 1.93994 0.272586 0
M  V30 2174 H 200.441 0.320469 -0.674766 0
M  V30 2175 H 203.103 0.142918 -1.94375 0
M  V30 2176 H 202.199 1.4229 -2.77777 0
M  V30 2177 N 202.5 1.5196 0.417844 0
M  V30 2178 C 203.746 1.65836 1.16732 0
M  V30 2179 C 204.079 0.382881 1.90388 0
M  V30 2180 O 203.354 -0.618368 1.84408 0
M  V30 2181 C 203.637 2.87466 2.16876 0
M  V30 2182 C 203.49 4.25041 1.47174 0
M  V30 2183 C 204.809 3.04613 3.17646 0
M  V30 2184 H 201.928 0.603515 0.423011 0
M  V30 2185 H 204.57 1.84494 0.454105 0
M  V30 2186 H 202.72 2.71689 2.777 0
M  V30 2187 H 204.392 4.52527 0.895376 0
M  V30 2188 H 202.635 4.26843 0.773806 0
M  V30 2189 H 203.306 5.06176 2.20204 0
M  V30 2190 H 205.782 3.1923 2.66892 0
M  V30 2191 H 204.658 3.91247 3.8499 0
M  V30 2192 H 204.919 2.17541 3.84874 0
M  V30 2193 N 203.978 -0.674533 1.42435 0
M  V30 2194 C 205.226 -1.43175 1.42637 0
M  V30 2195 C 205.547 -1.94951 0.0438992 0
M  V30 2196 O 204.817 -1.7308 -0.917607 0
M  V30 2197 H 203.397 -0.531307 0.525092 0
M  V30 2198 H 206.059 -0.797006 1.77859 0
M  V30 2199 H 205.155 -2.28463 2.12629 0
M  V30 2200 N 205.456 -1.28612 -0.910864 0
M  V30 2201 C 206.404 -1.1265 -2.03501 0
M  V30 2202 C 207.398 -0.0450054 -1.6934 0
M  V30 2203 O 208.604 -0.203988 -1.7884 0
M  V30 2204 H 204.979 -0.347639 -0.666822 0
M  V30 2205 H 206.95 -2.07849 -2.14106 0
M  V30 2206 C 205.699 -0.808143 -3.38178 0
M  V30 2207 H 205.022 -1.63231 -3.6496 0
M  V30 2208 H 206.462 -0.736426 -4.17556 0
M  V30 2209 C 204.921 0.488226 -3.33344 0
M  V30 2210 O 205.451 1.51766 -3.71927 0
M  V30 2211 N 203.657 0.490009 -2.86439 0
M  V30 2212 H 203.204 -0.348161 -2.55236 0
M  V30 2213 H 203.162 1.35741 -2.83587 0
M  V30 2214 N 206.934 1.1197 -1.10907 0
M  V30 2215 C 208.211 1.79959 -0.766432 0
M  V30 2216 C 208.591 1.97466 0.746363 0
M  V30 2217 O 207.939 1.55491 1.67436 0
M  V30 2218 C 208.149 3.14009 -1.52314 0
M  V30 2219 C 209.497 3.89134 -1.69883 0
M  V30 2220 O 210.521 3.2368 -1.48692 0
M  V30 2221 O 209.38 5.06572 -2.05054 0
M  V30 2222 H 206.474 0.779208 -0.277062 0
M  V30 2223 H 209.02 1.18762 -1.21217 0
M  V30 2224 H 207.792 2.96587 -2.55249 0
M  V30 2225 H 207.415 3.82915 -1.07059 0
M  V30 2226 N 208.412 0.89855 1.29475 0
M  V30 2227 C 209.66 0.522847 1.9522 0
M  V30 2228 C 209.981 -0.93371 1.71192 0
M  V30 2229 O 209.251 -1.65823 1.04305 0
M  V30 2230 H 207.831 0.190366 0.722336 0
M  V30 2231 H 210.493 1.14459 1.5775 0
M  V30 2232 H 209.589 0.704476 3.04045 0
M  V30 2233 N 209.89 -1.43072 0.660911 0
M  V30 2234 C 210.84 -2.27948 -0.04847 0
M  V30 2235 C 211.824 -1.40325 -0.787246 0
M  V30 2236 O 213.016 -1.63893 -0.668446 0
M  V30 2237 C 210.145 -3.28143 -1.00881 0
M  V30 2238 C 209.231 -4.23252 -0.268108 0
M  V30 2239 N 209.622 -5.00656 0.719528 0
M  V30 2240 C 207.92 -4.43092 -0.508493 0
M  V30 2241 C 208.621 -5.70019 1.15988 0
M  V30 2242 N 207.597 -5.41364 0.492584 0
M  V30 2243 H 211.399 -2.85213 0.709279 0
M  V30 2244 H 208.913 -1.54869 0.488822 0
M  V30 2245 H 210.91 -3.87736 -1.53188 0
M  V30 2246 H 209.57 -2.7244 -1.76654 0
M  V30 2247 H 210.581 -5.06115 1.09855 0
M  V30 2248 H 207.258 -3.98449 -1.24679 0
M  V30 2249 H 208.648 -6.4214 1.97751 0
M  V30 2250 N 211.368 -0.403325 -1.52352 0
M  V30 2251 C 212.617 0.175668 -2.00934 0
M  V30 2252 C 212.93 1.46718 -1.29356 0
M  V30 2253 O 214.136 2.12708 -1.68724 0
M  V30 2254 C 212.592 0.363612 -3.58058 0
M  V30 2255 C 212.2 -0.915472 -4.38547 0
M  V30 2256 C 213.944 0.89821 -4.14888 0
M  V30 2257 C 211.851 -0.695035 -5.87302 0
M  V30 2258 H 210.781 0.0694234 -0.750797 0
M  V30 2259 H 213.432 -0.527879 -1.75743 0
M  V30 2260 H 211.814 1.12935 -3.79555 0
M  V30 2261 H 212.988 -1.68691 -4.28812 0
M  V30 2262 H 211.303 -1.37606 -3.93006 0
M  V30 2263 H 213.9 1.07907 -5.23699 0
M  V30 2264 H 214.243 1.87126 -3.71873 0
M  V30 2265 H 214.776 0.191681 -3.97338 0
M  V30 2266 H 211.515 -1.63948 -6.34666 0
M  V30 2267 H 211.035 0.0372116 -5.99788 0
M  V30 2268 H 212.714 -0.33497 -6.46132 0
M  V30 2269 N 212.846 1.57033 -0.133567 0
M  V30 2270 C 213.809 2.14897 0.796995 0
M  V30 2271 C 214.809 1.0874 1.18458 0
M  V30 2272 O 215.999 1.34446 1.1077 0
M  V30 2273 C 213.131 2.70112 2.07973 0
M  V30 2274 H 214.324 2.98457 0.293873 0
M  V30 2275 H 211.877 1.55871 0.115787 0
M  V30 2276 H 212.612 1.9018 2.62682 0
M  V30 2277 H 212.397 3.47764 1.81115 0
M  V30 2278 H 213.887 3.14738 2.74462 0
M  V30 2279 N 214.325 -0.140222 1.56975 0
M  V30 2280 C 215.572 -0.851687 1.83719 0
M  V30 2281 C 215.9 -1.80862 0.715485 0
M  V30 2282 O 215.155 -1.93464 -0.294956 0
M  V30 2283 C 215.454 -1.65386 3.16832 0
M  V30 2284 C 215.12 -0.843112 4.42947 0
M  V30 2285 C 213.782 -0.619464 4.77196 0
M  V30 2286 C 216.134 -0.276582 5.20466 0
M  V30 2287 C 213.462 0.181312 5.8642 0
M  V30 2288 C 215.814 0.51127 6.30531 0
M  V30 2289 C 214.478 0.745432 6.63325 0
M  V30 2290 H 213.748 -0.311654 0.672274 0
M  V30 2291 H 216.395 -0.115006 1.91154 0
M  V30 2292 H 214.7 -2.46084 3.04877 0
M  V30 2293 H 216.397 -2.20793 3.34741 0
M  V30 2294 H 212.987 -1.0275 4.16101 0
M  V30 2295 H 217.171 -0.436632 4.94376 0
M  V30 2296 H 212.427 0.372165 6.10266 0
M  V30 2297 H 216.601 0.957354 6.89788 0
M  V30 2298 H 214.228 1.36778 7.47794 0
M  V30 2299 N 215.803 -1.52179 -0.40978 0
M  V30 2300 C 216.751 -1.76086 -1.51975 0
M  V30 2301 C 217.745 -0.627964 -1.57331 0
M  V30 2302 O 218.951 -0.809993 -1.60745 0
M  V30 2303 H 215.326 -0.556829 -0.505416 0
M  V30 2304 H 217.297 -2.69077 -1.28996 0
M  V30 2305 C 216.046 -1.92799 -2.8935 0
M  V30 2306 H 215.369 -2.79392 -2.85972 0
M  V30 2307 H 216.809 -2.13527 -3.66309 0
M  V30 2308 C 215.268 -0.694923 -3.29655 0
M  V30 2309 O 215.798 0.13751 -4.01465 0
M  V30 2310 N 214.004 -0.53101 -2.85707 0
M  V30 2311 H 213.551 -1.20952 -2.27439 0
M  V30 2312 H 213.509 0.292718 -3.13034 0
M  V30 2313 N 217.281 0.66697 -1.42791 0
M  V30 2314 C 218.191 1.80962 -1.49299 0
M  V30 2315 C 219.207 1.69775 -0.381108 0
M  V30 2316 O 220.383 1.91188 -0.633188 0
M  V30 2317 C 217.448 3.17156 -1.40045 0
M  V30 2318 C 216.509 3.40242 -2.6179 0
M  V30 2319 C 215.742 4.69939 -2.52969 0
M  V30 2320 O 215.965 5.48372 -1.56985 0
M  V30 2321 O 214.899 4.94441 -3.43237 0
M  V30 2322 H 218.725 1.78427 -2.45759 0
M  V30 2323 H 216.31 0.823713 -1.24641 0
M  V30 2324 H 218.192 3.98413 -1.37276 0
M  V30 2325 H 216.867 3.20312 -0.467138 0
M  V30 2326 H 215.774 2.58802 -2.70134 0
M  V30 2327 H 217.107 3.41923 -3.54047 0
M  V30 2328 N 218.759 1.29093 0.90403 0
M  V30 2329 C 220.17 1.15186 1.46932 0
M  V30 2330 C 220.521 -0.254587 1.94541 0
M  V30 2331 O 219.646 -1.14972 1.83332 0
M  V30 2332 C 220.241 2.08492 2.67051 0
M  V30 2333 C 218.8 1.98621 3.19729 0
M  V30 2334 C 217.947 1.9967 1.92425 0
M  V30 2335 H 220.898 1.41641 0.715789 0
M  V30 2336 H 220.919 1.65461 3.42641 0
M  V30 2337 H 220.431 3.10847 2.3237 0
M  V30 2338 H 218.532 0.993389 3.59114 0
M  V30 2339 H 218.645 2.86068 3.8432 0
M  V30 2340 H 217.009 1.44208 2.09943 0
M  V30 2341 H 217.792 3.03721 1.60026 0
M  V30 2342 N 220.237 -1.11381 1.11499 0
M  V30 2343 C 221.2 -2.15622 0.777153 0
M  V30 2344 C 222.2 -1.59504 -0.203779 0
M  V30 2345 O 223.39 -1.74188 0.020782 0
M  V30 2346 C 220.522 -3.40556 0.153116 0
M  V30 2347 H 221.715 -2.47021 1.70061 0
M  V30 2348 H 219.268 -1.26577 0.916952 0
M  V30 2349 H 220.003 -3.14767 -0.780536 0
M  V30 2350 H 219.788 -3.8257 0.859238 0
M  V30 2351 H 221.278 -4.17546 -0.0671044 0
M  V30 2352 N 221.715 -0.905404 -1.28997 0
M  V30 2353 C 222.94 -0.549175 -1.99997 0
M  V30 2354 C 223.365 0.860276 -1.67275 0
M  V30 2355 O 222.723 1.57355 -0.900502 0
M  V30 2356 C 222.771 -0.755185 -3.52604 0
M  V30 2357 O 221.875 0.189692 -4.11964 0
M  V30 2358 H 221.216 -0.213899 -0.628604 0
M  V30 2359 H 223.746 -1.21856 -1.64354 0
M  V30 2360 H 223.756 -0.662045 -4.02593 0
M  V30 2361 H 222.431 -1.78271 -3.75755 0
M  V30 2362 H 221.008 0.0485257 -3.72868 0
M  V30 2363 N 223.193 1.4272 -0.668489 0
M  V30 2364 C 224.418 2.06484 -0.194758 0
M  V30 2365 C 224.843 1.49862 1.13679 0
M  V30 2366 O 224.201 0.614582 1.70565 0
M  V30 2367 C 224.249 3.60353 -0.133546 0
M  V30 2368 O 223.353 4.02464 0.899806 0
M  V30 2369 H 222.694 0.656137 -0.10188 0
M  V30 2370 H 225.224 1.82964 -0.915722 0
M  V30 2371 H 225.234 4.07976 0.0447041 0
M  V30 2372 H 223.909 4.00938 -1.1055 0
M  V30 2373 H 222.486 3.66402 0.693109 0
M  V30 2374 N 224.671 0.411399 1.52136 0
M  V30 2375 C 225.601 -0.404015 2.29978 0
M  V30 2376 C 226.582 -1.04412 1.34284 0
M  V30 2377 O 227.767 -1.0527 1.63192 0
M  V30 2378 C 224.897 -1.5197 3.12286 0
M  V30 2379 C 223.851 -1.00448 4.16046 0
M  V30 2380 C 223.177 -2.21393 4.86712 0
M  V30 2381 C 224.477 -0.0569336 5.22269 0
M  V30 2382 H 226.171 0.245529 2.98392 0
M  V30 2383 H 223.717 0.119525 1.43503 0
M  V30 2384 H 225.67 -2.09715 3.6551 0
M  V30 2385 H 224.394 -2.19716 2.41646 0
M  V30 2386 H 223.053 -0.449421 3.63835 0
M  V30 2387 H 222.701 -2.87699 4.12599 0
M  V30 2388 H 222.401 -1.87571 5.56858 0
M  V30 2389 H 223.925 -2.7974 5.4275 0
M  V30 2390 H 225.339 -0.54325 5.7072 0
M  V30 2391 H 223.736 0.192594 5.99791 0
M  V30 2392 H 224.806 0.887663 4.76706 0
M  V30 2393 N 226.149 -1.5696 0.141893 0
M  V30 2394 C 227.112 -2.15316 -0.785587 0
M  V30 2395 C 228.112 -1.09366 -1.1788 0
M  V30 2396 O 229.302 -1.35031 -1.10056 0
M  V30 2397 C 226.434 -2.71211 -2.06537 0
M  V30 2398 H 227.627 -2.98608 -0.278041 0
M  V30 2399 H 225.18 -1.5593 -0.107519 0
M  V30 2400 H 225.915 -1.91571 -2.6167 0
M  V30 2401 H 225.7 -3.4872 -1.79268 0
M  V30 2402 H 227.19 -3.16189 -2.72789 0
M  V30 2403 N 227.627 0.131896 -1.57047 0
M  V30 2404 C 228.852 0.860418 -1.8871 0
M  V30 2405 C 229.277 1.73251 -0.73251 0
M  V30 2406 O 228.635 1.785 0.317429 0
M  V30 2407 C 228.683 1.68047 -3.19049 0
M  V30 2408 O 227.787 2.7862 -3.04047 0
M  V30 2409 H 227.128 0.238743 -0.619595 0
M  V30 2410 H 229.658 0.118169 -2.04258 0
M  V30 2411 H 229.668 2.07238 -3.51449 0
M  V30 2412 H 228.343 1.04018 -4.02682 0
M  V30 2413 H 226.92 2.42726 -2.83088 0
M  V30 2414 N 229.106 1.52395 0.401703 0
M  V30 2415 C 230.522 1.41363 0.740864 0
M  V30 2416 C 230.722 0.523982 1.94568 0
M  V30 2417 O 229.778 -0.00741204 2.52499 0
M  V30 2418 C 231.091 2.84011 0.987847 0
M  V30 2419 C 232.639 2.93404 1.09011 0
M  V30 2420 C 233.114 4.37036 1.3698 0
M  V30 2421 N 234.605 4.40304 1.43829 0
M  V30 2422 C 235.34 5.48508 1.67112 0
M  V30 2423 N 234.836 6.66819 1.87949 0
M  V30 2424 N 236.629 5.36034 1.69187 0
M  V30 2425 H 228.78 2.08765 -0.391262 0
M  V30 2426 H 231.043 0.941265 -0.112798 0
M  V30 2427 H 230.749 3.51265 0.174835 0
M  V30 2428 H 230.623 3.25502 1.906 0
M  V30 2429 H 233.01 2.26325 1.8937 0
M  V30 2430 H 233.091 2.55359 0.15015 0
M  V30 2431 H 232.735 5.04676 0.571353 0
M  V30 2432 H 232.665 4.72623 2.3224 0
M  V30 2433 H 235.156 3.55024 1.29486 0
M  V30 2434 H 235.469 7.45063 2.05185 0
M  V30 2435 H 233.814 6.6987 1.85199 0
M  V30 2436 H 237.005 4.42579 1.52451 0
M  V30 2437 H 237.178 6.20434 1.86993 0
M  V30 2438 N 230.584 -0.659388 1.43143 0
M  V30 2439 C 231.812 -1.44723 1.47861 0
M  V30 2440 C 232.227 -1.88563 0.0945886 0
M  V30 2441 O 231.584 -1.59108 -0.893915 0
M  V30 2442 C 231.635 -2.68627 2.41913 0
M  V30 2443 O 231.356 -2.26623 3.74932 0
M  V30 2444 C 232.857 -3.62045 2.55809 0
M  V30 2445 H 230.077 -0.444801 0.502387 0
M  V30 2446 H 232.621 -0.808916 1.87821 0
M  V30 2447 H 230.776 -3.28613 2.05164 0
M  V30 2448 H 231.19 -3.06745 4.2545 0
M  V30 2449 H 232.664 -4.45666 3.25708 0
M  V30 2450 H 233.141 -4.08981 1.60099 0
M  V30 2451 H 233.747 -3.07944 2.93344 0
M  V30 2452 N 232.062 -1.29571 -0.897171 0
M  V30 2453 C 233.478 -1.07637 -1.17841 0
M  V30 2454 C 233.678 0.170713 -2.00776 0
M  V30 2455 O 232.734 0.867768 -2.3712 0
M  V30 2456 C 234.047 -2.3332 -1.8969 0
M  V30 2457 C 235.595 -2.38664 -2.02505 0
M  V30 2458 C 236.07 -3.64157 -2.77765 0
M  V30 2459 N 237.561 -3.64894 -2.85318 0
M  V30 2460 C 238.296 -4.58679 -3.44094 0
M  V30 2461 N 237.792 -5.62799 -4.04017 0
M  V30 2462 N 239.585 -4.46245 -3.41793 0
M  V30 2463 H 231.736 -2.09598 -0.343883 0
M  V30 2464 H 233.999 -0.923333 -0.214848 0
M  V30 2465 H 233.705 -3.24262 -1.36187 0
M  V30 2466 H 233.579 -2.41025 -2.9015 0
M  V30 2467 H 235.966 -1.48208 -2.55183 0
M  V30 2468 H 236.047 -2.34943 -1.01171 0
M  V30 2469 H 235.691 -4.54965 -2.25763 0
M  V30 2470 H 235.621 -3.65137 -3.7945 0
M  V30 2471 H 238.112 -2.89613 -2.42761 0
M  V30 2472 H 238.425 -6.3048 -4.46895 0
M  V30 2473 H 236.77 -5.66605 -4.02472 0
M  V30 2474 H 239.961 -3.64094 -2.94199 0
M  V30 2475 H 240.134 -5.19518 -3.87304 0
M  V30 2476 N 233.54 1.10788 -1.12088 0
M  V30 2477 C 234.789 1.82036 -0.868659 0
M  V30 2478 C 235.102 1.85929 0.607426 0
M  V30 2479 O 236.308 2.53346 0.97613 0
M  V30 2480 C 234.764 3.26951 -1.50435 0
M  V30 2481 C 234.372 3.31367 -3.01496 0
M  V30 2482 C 236.116 4.03053 -1.33225 0
M  V30 2483 C 234.023 4.7072 -3.58017 0
M  V30 2484 H 232.953 0.682108 -0.321318 0
M  V30 2485 H 235.604 1.24618 -1.34694 0
M  V30 2486 H 233.986 3.84343 -0.953735 0
M  V30 2487 H 235.16 2.83819 -3.6302 0
M  V30 2488 H 233.475 2.6875 -3.18061 0
M  V30 2489 H 236.072 5.05981 -1.72878 0
M  V30 2490 H 236.415 4.15387 -0.275529 0
M  V30 2491 H 236.948 3.52066 -1.85188 0
M  V30 2492 H 233.687 4.63585 -4.63432 0
M  V30 2493 H 233.207 5.1865 -3.01268 0
M  V30 2494 H 234.886 5.39685 -3.56859 0
M  V30 2495 N 235.018 0.912232 1.28515 0
M  V30 2496 C 235.965 0.397954 2.27343 0
M  V30 2497 C 236.935 -0.526766 1.57526 0
M  V30 2498 O 238.12 -0.449292 1.85435 0
M  V30 2499 C 235.26 -0.357263 3.43246 0
M  V30 2500 C 234.373 0.599788 4.27816 0
M  V30 2501 C 233.508 -0.173725 5.30916 0
M  V30 2502 C 232.547 0.777039 6.07148 0
M  V30 2503 N 231.684 0.0371398 7.0209 0
M  V30 2504 H 236.524 1.24577 2.70711 0
M  V30 2505 H 234.061 0.625612 1.33133 0
M  V30 2506 H 236.019 -0.8113 4.09236 0
M  V30 2507 H 234.649 -1.16943 3.00872 0
M  V30 2508 H 233.701 1.17235 3.61884 0
M  V30 2509 H 235.013 1.32704 4.80823 0
M  V30 2510 H 234.167 -0.688394 6.02782 0
M  V30 2511 H 232.906 -0.934041 4.78672 0
M  V30 2512 H 231.911 1.3031 5.34134 0
M  V30 2513 H 233.136 1.53689 6.61481 0
M  V30 2514 H 231.082 -0.705213 6.52198 0
M  V30 2515 H 230.999 0.704249 7.52713 0
M  V30 2516 H 232.267 -0.457383 7.78157 0
M  V30 2517 N 236.496 -1.42363 0.676048 0
M  V30 2518 C 237.724 -2.05859 0.207268 0
M  V30 2519 C 238.139 -1.50796 -1.13605 0
M  V30 2520 O 237.496 -0.648265 -1.70598 0
M  V30 2521 C 237.547 -3.61248 0.134975 0
M  V30 2522 O 237.268 -4.1427 1.42521 0
M  V30 2523 C 238.769 -4.41859 -0.357151 0
M  V30 2524 H 235.989 -0.663431 0.100503 0
M  V30 2525 H 238.533 -1.82479 0.923136 0
M  V30 2526 H 236.688 -3.83735 -0.531588 0
M  V30 2527 H 237.102 -5.0815 1.29939 0
M  V30 2528 H 238.576 -5.50847 -0.356641 0
M  V30 2529 H 239.053 -4.16536 -1.39264 0
M  V30 2530 H 239.659 -4.24392 0.27772 0
M  V30 2531 N 237.974 -0.419461 -1.51915 0
M  V30 2532 C 238.904 0.391813 -2.30189 0
M  V30 2533 C 239.885 1.03699 -1.34836 0
M  V30 2534 O 241.07 1.04403 -1.63748 0
M  V30 2535 C 238.2 1.50312 -3.13087 0
M  V30 2536 C 237.154 0.9824 -4.16573 0
M  V30 2537 C 236.48 2.18809 -4.8788 0
M  V30 2538 C 237.78 0.0292356 -5.22292 0
M  V30 2539 H 239.474 -0.26135 -2.98257 0
M  V30 2540 H 237.02 -0.127134 -1.43438 0
M  V30 2541 H 238.973 2.07773 -3.66617 0
M  V30 2542 H 237.697 2.18431 -2.42807 0
M  V30 2543 H 236.356 0.430119 -3.64068 0
M  V30 2544 H 236.004 2.85507 -4.14119 0
M  V30 2545 H 235.704 1.84615 -5.57845 0
M  V30 2546 H 237.228 2.76858 -5.44226 0
M  V30 2547 H 238.642 0.512976 -5.71 0
M  V30 2548 H 237.039 -0.2244 -5.9968 0
M  V30 2549 H 238.109 -0.912931 -4.76228 0
M  V30 2550 N 239.452 1.56882 -0.150215 0
M  V30 2551 C 240.68 2.00593 0.506948 0
M  V30 2552 C 241.095 1.03033 1.58208 0
M  V30 2553 O 240.452 0.0278396 1.82479 0
M  V30 2554 C 240.503 3.44209 1.10465 0
M  V30 2555 O 240.224 4.3804 0.0724636 0
M  V30 2556 C 241.725 4.03214 1.84211 0
M  V30 2557 H 238.945 0.65795 0.13169 0
M  V30 2558 H 241.489 2.03018 -0.245743 0
M  V30 2559 H 239.644 3.42625 1.80795 0
M  V30 2560 H 240.058 5.22007 0.510793 0
M  V30 2561 H 241.532 5.0569 2.21318 0
M  V30 2562 H 242.009 3.44107 2.72923 0
M  V30 2563 H 242.615 4.08437 1.18572 0
M  V30 2564 N 240.93 -0.123565 1.57115 0
M  V30 2565 C 241.88 -1.1575 1.96433 0
M  V30 2566 C 242.864 -1.37313 0.838686 0
M  V30 2567 O 244.056 -1.38482 1.10235 0
M  V30 2568 C 241.185 -2.48526 2.36833 0
M  V30 2569 C 240.271 -2.30457 3.5602 0
M  V30 2570 N 240.662 -1.8219 4.71848 0
M  V30 2571 C 238.96 -2.61129 3.61563 0
M  V30 2572 C 239.661 -1.77721 5.53886 0
M  V30 2573 N 238.637 -2.21899 4.96248 0
M  V30 2574 H 242.439 -0.776797 2.83449 0
M  V30 2575 H 239.953 -0.331364 1.58983 0
M  V30 2576 H 241.95 -3.233 2.63216 0
M  V30 2577 H 240.61 -2.87358 1.5118 0
M  V30 2578 H 241.621 -1.51805 4.95152 0
M  V30 2579 H 238.298 -3.03678 2.86507 0
M  V30 2580 H 239.688 -1.41697 6.56789 0
M  V30 2581 N 242.408 -1.52605 -0.393616 0
M  V30 2582 C 243.685 -1.58001 -1.15304 0
M  V30 2583 C 244.065 -0.370385 -2.07825 0
M  V30 2584 O 243.413 0.641638 -2.19306 0
M  V30 2585 C 243.623 -2.91652 -1.91677 0
M  V30 2586 C 244.971 -3.4522 -2.47201 0
M  V30 2587 O 245.995 -2.93495 -2.01839 0
M  V30 2588 O 244.854 -4.35579 -3.3005 0
M  V30 2589 H 241.948 -0.637068 -0.527327 0
M  V30 2590 H 244.494 -1.64939 -0.399141 0
M  V30 2591 H 243.266 -3.71136 -1.23992 0
M  V30 2592 H 242.889 -2.88077 -2.74039 0
M  V30 2593 N 243.887 0.651787 -1.4349 0
M  V30 2594 C 245.115 1.43937 -1.48626 0
M  V30 2595 C 245.53 1.8851 -0.104587 0
M  V30 2596 O 244.887 1.5958 0.885464 0
M  V30 2597 C 244.938 2.6734 -2.43334 0
M  V30 2598 O 244.659 2.24631 -3.76128 0
M  V30 2599 C 246.16 3.60683 -2.57726 0
M  V30 2600 H 243.38 0.44213 -0.504739 0
M  V30 2601 H 245.924 0.798944 -1.88248 0
M  V30 2602 H 244.079 3.2752 -2.06904 0
M  V30 2603 H 244.493 3.04485 -4.2707 0
M  V30 2604 H 245.967 4.43933 -3.28067 0
M  V30 2605 H 246.444 4.08126 -1.62265 0
M  V30 2606 H 247.05 3.06384 -2.94973 0
M  V30 2607 N 245.365 1.30045 0.890287 0
M  V30 2608 C 246.781 1.08261 1.17268 0
M  V30 2609 C 246.981 -0.160063 2.00863 0
M  V30 2610 O 246.037 -0.855181 2.37577 0
M  V30 2611 C 247.35 2.34323 1.8845 0
M  V30 2612 C 248.898 2.39735 2.01237 0
M  V30 2613 C 249.373 3.65625 2.7583 0
M  V30 2614 N 250.864 3.66402 2.83379 0
M  V30 2615 C 251.599 4.60498 3.41657 0
M  V30 2616 N 251.095 5.64933 4.01026 0
M  V30 2617 N 252.888 4.48051 3.39421 0
M  V30 2618 H 245.039 2.09777 0.332762 0
M  V30 2619 H 247.302 0.92446 0.209948 0
M  V30 2620 H 247.008 3.2498 1.34465 0
M  V30 2621 H 246.882 2.4256 2.88867 0
M  V30 2622 H 249.269 1.4956 2.54393 0
M  V30 2623 H 249.35 2.35476 0.999232 0
M  V30 2624 H 248.994 4.56156 2.23347 0
M  V30 2625 H 248.924 3.67144 3.77509 0
M  V30 2626 H 251.415 2.90896 2.41222 0
M  V30 2627 H 251.728 6.32841 4.43545 0
M  V30 2628 H 250.073 5.68732 3.99461 0
M  V30 2629 H 253.264 3.65649 2.92264 0
M  V30 2630 H 253.437 5.21565 3.84544 0
M  V30 2631 N 246.843 -1.10192 1.12674 0
M  V30 2632 C 248.089 -1.82475 0.884915 0
M  V30 2633 C 248.422 -1.85093 -0.58773 0
M  V30 2634 O 247.697 -1.3134 -1.43457 0
M  V30 2635 C 247.98 -3.29018 1.46353 0
M  V30 2636 C 247.833 -3.34718 3.00473 0
M  V30 2637 C 249.152 -4.25473 1.12519 0
M  V30 2638 H 246.271 -0.662492 0.322915 0
M  V30 2639 H 248.913 -1.2913 1.39375 0
M  V30 2640 H 247.063 -3.74576 1.03077 0
M  V30 2641 H 248.735 -2.97622 3.52447 0
M  V30 2642 H 246.978 -2.74541 3.35872 0
M  V30 2643 H 247.649 -4.37918 3.36053 0
M  V30 2644 H 250.125 -3.88161 1.499 0
M  V30 2645 H 249.001 -5.26365 1.55663 0
M  V30 2646 H 249.262 -4.42084 0.0377407 0
M  V30 2647 N 248.321 -0.919034 -1.28029 0
M  V30 2648 C 249.284 -0.416182 -2.2539 0
M  V30 2649 C 250.284 0.460438 -1.54067 0
M  V30 2650 O 251.474 0.262744 -1.72207 0
M  V30 2651 C 248.606 0.402707 -3.38513 0
M  V30 2652 H 249.799 -1.27629 -2.71387 0
M  V30 2653 H 247.352 -0.698919 -1.39803 0
M  V30 2654 H 248.087 1.282 -2.97885 0
M  V30 2655 H 247.872 -0.225698 -3.9145 0
M  V30 2656 H 249.362 0.745191 -4.10897 0
M  V30 2657 N 249.799 1.42003 -0.683588 0
M  V30 2658 C 250.747 2.326 0.000815408 0
M  V30 2659 C 251.741 1.50308 0.781278 0
M  V30 2660 O 252.947 1.66322 0.688251 0
M  V30 2661 H 249.322 0.751758 0.0190616 0
M  V30 2662 H 251.293 2.88011 -0.780528 0
M  V30 2663 C 250.042 3.34978 0.93195 0
M  V30 2664 H 249.365 3.98345 0.340817 0
M  V30 2665 H 250.805 4.00936 1.37936 0
M  V30 2666 C 249.264 2.67925 2.04249 0
M  V30 2667 O 249.794 2.51788 3.12995 0
M  V30 2668 N 248 2.2681 1.81675 0
M  V30 2669 H 247.547 2.40135 0.932363 0
M  V30 2670 H 247.505 1.8228 2.56167 0
M  V30 2671 N 251.277 0.427512 1.51691 0
M  V30 2672 C 252.502 -0.143601 2.06902 0
M  V30 2673 C 252.927 -1.36536 1.29382 0
M  V30 2674 O 252.285 -1.78289 0.329043 0
M  V30 2675 C 252.333 -0.454207 3.57728 0
M  V30 2676 O 251.437 -1.54228 3.82475 0
M  V30 2677 H 250.778 -0.00617128 0.663971 0
M  V30 2678 H 253.308 0.606014 1.95419 0
M  V30 2679 H 253.318 -0.707525 4.01818 0
M  V30 2680 H 251.993 0.438812 4.13579 0
M  V30 2681 H 250.57 -1.2797 3.50254 0
M  V30 2682 N 252.755 -1.56801 0.158532 0
M  V30 2683 C 254.171 -1.5837 -0.197774 0
M  V30 2684 C 254.371 -1.17334 -1.63814 0
M  V30 2685 O 253.427 -0.878988 -2.36707 0
M  V30 2686 C 254.74 -3.00615 0.0714459 0
M  V30 2687 C 256.288 -3.12999 0.00864533 0
M  V30 2688 C 256.763 -4.57313 0.250685 0
M  V30 2689 N 258.254 -4.62777 0.198014 0
M  V30 2690 C 258.989 -5.72271 0.359642 0
M  V30 2691 N 258.485 -6.90371 0.579625 0
M  V30 2692 N 260.278 -5.61318 0.296438 0
M  V30 2693 H 252.429 -1.81765 1.09887 0
M  V30 2694 H 254.692 -0.841849 0.435884 0
M  V30 2695 H 254.398 -3.35068 1.06874 0
M  V30 2696 H 254.272 -3.71683 -0.642757 0
M  V30 2697 H 256.659 -2.7838 -0.979217 0
M  V30 2698 H 256.74 -2.44393 0.755359 0
M  V30 2699 H 256.384 -4.92639 1.2357 0
M  V30 2700 H 256.314 -5.24061 -0.516489 0
M  V30 2701 H 258.805 -3.77885 0.0331115 0
M  V30 2702 H 259.118 -7.69689 0.69275 0
M  V30 2703 H 257.463 -6.92264 0.616087 0
M  V30 2704 H 260.654 -4.67932 0.125258 0
M  V30 2705 H 260.827 -6.46599 0.425831 0
M  V30 2706 N 254.233 0.115231 -1.57178 0
M  V30 2707 C 255.48 0.822351 -1.8505 0
M  V30 2708 C 255.808 1.79701 -0.744168 0
M  V30 2709 O 255.063 1.93909 0.26414 0
M  V30 2710 C 255.362 1.60324 -3.19423 0
M  V30 2711 C 255.028 0.772536 -4.44233 0
M  V30 2712 C 253.69 0.543468 -4.78121 0
M  V30 2713 C 256.042 0.193746 -5.2084 0
M  V30 2714 C 253.37 -0.274583 -5.86057 0
M  V30 2715 C 255.722 -0.611517 -6.29637 0
M  V30 2716 C 254.386 -0.850867 -6.62055 0
M  V30 2717 H 253.656 0.30092 -0.677147 0
M  V30 2718 H 256.303 0.0845802 -1.91313 0
M  V30 2719 H 254.608 2.41203 -3.08753 0
M  V30 2720 H 256.305 2.1544 -3.38211 0
M  V30 2721 H 252.895 0.96117 -4.17683 0
M  V30 2722 H 257.079 0.357926 -4.95008 0
M  V30 2723 H 252.335 -0.469206 -6.09597 0
M  V30 2724 H 256.509 -1.06697 -6.88178 0
M  V30 2725 H 254.136 -1.48657 -7.45523 0
M  V30 2726 N 255.711 1.52812 0.385517 0
M  V30 2727 C 256.958 1.68026 1.1302 0
M  V30 2728 C 257.286 0.421934 1.89868 0
M  V30 2729 O 256.541 -0.595749 1.86412 0
M  V30 2730 C 256.84 2.86856 2.13187 0
M  V30 2731 C 256.506 4.24159 1.5297 0
M  V30 2732 C 255.168 4.61501 1.36274 0
M  V30 2733 C 257.52 5.09627 1.09223 0
M  V30 2734 C 254.848 5.81966 0.743837 0
M  V30 2735 C 257.2 6.30719 0.487411 0
M  V30 2736 C 255.864 6.6679 0.307777 0
M  V30 2737 H 255.134 0.614849 0.413571 0
M  V30 2738 H 257.781 1.86962 0.414405 0
M  V30 2739 H 256.086 2.6235 2.90998 0
M  V30 2740 H 257.783 2.95821 2.70722 0
M  V30 2741 H 254.373 3.94746 1.66954 0
M  V30 2742 H 258.557 4.81343 1.20922 0
M  V30 2743 H 253.813 6.08519 0.592891 0
M  V30 2744 H 257.987 6.96259 0.140143 0
M  V30 2745 H 255.614 7.60001 -0.173879 0
M  V30 2746 N 257.189 -0.644168 1.43834 0
M  V30 2747 C 258.466 -1.40188 1.36406 0
M  V30 2748 C 258.846 -2.11094 0.0163124 0
M  V30 2749 O 258.194 -2.05426 -1.00062 0
M  V30 2750 C 258.404 -2.3791 2.55343 0
M  V30 2751 C 259.752 -3.01637 2.98832 0
M  V30 2752 O 260.776 -2.48237 2.55455 0
M  V30 2753 O 259.635 -3.98477 3.74003 0
M  V30 2754 H 256.729 -0.626773 0.539523 0
M  V30 2755 H 259.275 -0.670317 1.559 0
M  V30 2756 H 258.047 -1.84525 3.4506 0
M  V30 2757 H 257.67 -3.18503 2.37995 0
M  V30 2758 N 258.668 -1.30515 -0.883378 0
M  V30 2759 C 259.616 -1.16941 -2.01066 0
M  V30 2760 C 260.61 -0.0809148 -1.69207 0
M  V30 2761 O 261.816 -0.241877 -1.78367 0
M  V30 2762 H 258.191 -0.361705 -0.659298 0
M  V30 2763 H 260.162 -2.12344 -2.09649 0
M  V30 2764 C 258.911 -0.879694 -3.36388 0
M  V30 2765 H 258.234 -1.70936 -3.61415 0
M  V30 2766 H 259.674 -0.82483 -4.159 0
M  V30 2767 C 258.133 0.417409 -3.34304 0
M  V30 2768 O 258.663 1.43843 -3.75063 0
M  V30 2769 N 256.869 0.429141 -2.87414 0
M  V30 2770 H 256.416 -0.402222 -2.5444 0
M  V30 2771 H 256.374 1.29696 -2.86403 0
M  V30 2772 N 260.146 1.09593 -1.13257 0
M  V30 2773 C 261.423 1.78293 -0.804432 0
M  V30 2774 C 261.803 1.99004 0.70431 0
M  V30 2775 O 261.151 1.59007 1.641 0
M  V30 2776 C 261.361 3.10707 -1.5894 0
M  V30 2777 C 262.709 3.85443 -1.78099 0
M  V30 2778 O 263.733 3.20454 -1.55525 0
M  V30 2779 O 262.592 5.02108 -2.15753 0
M  V30 2780 H 259.686 0.773156 -0.293528 0
M  V30 2781 H 262.232 1.16164 -1.23709 0
M  V30 2782 H 261.004 2.91106 -2.61482 0
M  V30 2783 H 260.627 3.80558 -1.15157 0
M  V30 2784 N 261.624 0.925811 1.2754 0
M  V30 2785 C 262.87 0.566092 1.94739 0
M  V30 2786 C 263.203 -0.890057 1.72603 0
M  V30 2787 O 262.478 -1.63467 1.05399 0
M  V30 2788 C 262.761 0.89054 3.48915 0
M  V30 2789 C 262.614 2.4003 3.80402 0
M  V30 2790 C 263.933 0.395101 4.38323 0
M  V30 2791 H 261.052 0.20714 0.707292 0
M  V30 2792 H 263.694 1.15725 1.50691 0
M  V30 2793 H 261.844 0.387452 3.86563 0
M  V30 2794 H 263.516 2.97494 3.52555 0
M  V30 2795 H 261.759 2.85028 3.2702 0
M  V30 2796 H 262.43 2.57785 4.8811 0
M  V30 2797 H 264.906 0.826241 4.07814 0
M  V30 2798 H 263.782 0.651086 5.45025 0
M  V30 2799 H 264.043 -0.704798 4.36446 0
M  V30 2800 N 263.102 -1.41638 0.69111 0
M  V30 2801 C 264.05 -2.32597 0.0115199 0
M  V30 2802 C 265.044 -1.5072 -0.773296 0
M  V30 2803 O 266.25 -1.66685 -0.67942 0
M  V30 2804 H 262.625 -0.751849 -0.0150746 0
M  V30 2805 H 264.596 -2.87593 0.795791 0
M  V30 2806 C 263.345 -3.35467 -0.914172 0
M  V30 2807 H 262.668 -3.9852 -0.319687 0
M  V30 2808 H 264.108 -4.01662 -1.35808 0
M  V30 2809 C 262.567 -2.69004 -2.02826 0
M  V30 2810 O 263.097 -2.53444 -3.11655 0
M  V30 2811 N 261.303 -2.2777 -1.80469 0
M  V30 2812 H 260.85 -2.40626 -0.919615 0
M  V30 2813 H 260.808 -1.83635 -2.55197 0
M  V30 2814 N 264.58 -0.43555 -1.51462 0
M  V30 2815 C 265.512 0.41257 -2.25456 0
M  V30 2816 C 266.525 0.987822 -1.29406 0
M  V30 2817 O 267.714 0.882266 -1.55172 0
M  V30 2818 C 264.814 1.58894 -2.99342 0
M  V30 2819 C 263.987 1.13288 -4.22474 0
M  V30 2820 C 263.046 2.17917 -4.78956 0
M  V30 2821 O 262.072 1.77425 -5.40841 0
M  V30 2822 N 263.274 3.50382 -4.62832 0
M  V30 2823 H 266.039 -0.221603 -2.9888 0
M  V30 2824 H 263.6 -0.264342 -1.59727 0
M  V30 2825 H 265.592 2.28508 -3.34015 0
M  V30 2826 H 264.162 2.12849 -2.28941 0
M  V30 2827 H 263.382 0.263881 -3.93316 0
M  V30 2828 H 264.67 0.805542 -5.02383 0
M  V30 2829 H 264.068 3.86013 -4.13534 0
M  V30 2830 H 262.625 4.15895 -5.01871 0
M  V30 2831 N 266.058 1.56714 -0.166846 0
M  V30 2832 C 267.304 1.97039 0.479962 0
M  V30 2833 C 267.637 1.05264 1.63197 0
M  V30 2834 O 266.912 0.0988833 1.94248 0
M  V30 2835 C 267.195 3.46867 0.967212 0
M  V30 2836 C 267.048 4.49421 -0.18466 0
M  V30 2837 C 268.367 3.9968 1.84238 0
M  V30 2838 H 265.486 0.71641 0.172992 0
M  V30 2839 H 268.128 1.8832 -0.252079 0
M  V30 2840 H 266.278 3.54428 1.59101 0
M  V30 2841 H 267.95 4.53924 -0.821621 0
M  V30 2842 H 266.193 4.25573 -0.840837 0
M  V30 2843 H 266.864 5.51644 0.198317 0
M  V30 2844 H 269.34 3.94723 1.31655 0
M  V30 2845 H 268.216 5.04941 2.15234 0
M  V30 2846 H 268.477 3.43226 2.78654 0
M  V30 2847 N 267.536 -0.106894 1.57237 0
M  V30 2848 C 268.947 -0.662723 1.74542 0
M  V30 2849 C 269.298 -1.7971 0.787319 0
M  V30 2850 O 268.423 -2.16368 -0.0369636 0
M  V30 2851 C 269.018 -1.20896 3.16496 0
M  V30 2852 C 267.577 -1.71096 3.35266 0
M  V30 2853 C 266.724 -0.615642 2.7038 0
M  V30 2854 H 269.675 0.119106 1.58252 0
M  V30 2855 H 269.696 -2.07847 3.18716 0
M  V30 2856 H 269.208 -0.383122 3.86204 0
M  V30 2857 H 267.309 -2.56119 2.70618 0
M  V30 2858 H 267.422 -1.81208 4.43509 0
M  V30 2859 H 265.786 -1.05222 2.31949 0
M  V30 2860 H 266.569 0.199419 3.4272 0
M  V30 2861 N 269.014 -1.53014 -0.377408 0
M  V30 2862 C 269.961 -1.78616 -1.46168 0
M  V30 2863 C 270.931 -0.629917 -1.53692 0
M  V30 2864 O 272.116 -0.870861 -1.69766 0
M  V30 2865 C 269.256 -1.97123 -2.8326 0
M  V30 2866 C 268.369 -3.24831 -2.84796 0
M  V30 2867 C 267.504 -3.33591 -4.13389 0
M  V30 2868 C 266.543 -4.55377 -4.09021 0
M  V30 2869 N 265.68 -4.61355 -5.29241 0
M  V30 2870 H 270.52 -2.71142 -1.23637 0
M  V30 2871 H 268.057 -1.34326 -0.599577 0
M  V30 2872 H 270.015 -2.05839 -3.62886 0
M  V30 2873 H 268.645 -1.07946 -3.04216 0
M  V30 2874 H 267.697 -3.25128 -1.97474 0
M  V30 2875 H 269.009 -4.14523 -2.77439 0
M  V30 2876 H 268.163 -3.41554 -5.01424 0
M  V30 2877 H 266.902 -2.41894 -4.23484 0
M  V30 2878 H 265.907 -4.47527 -3.19373 0
M  V30 2879 H 267.132 -5.48402 -4.00539 0
M  V30 2880 H 265.078 -3.72554 -5.39944 0
M  V30 2881 H 264.995 -5.44935 -5.24006 0
M  V30 2882 H 266.263 -4.73586 -6.19141 0
M  V30 2883 N 270.492 0.636531 -1.44174 0
M  V30 2884 C 271.722 1.42146 -1.49927 0
M  V30 2885 C 272.13 1.88812 -0.121063 0
M  V30 2886 O 271.473 1.61126 0.882267 0
M  V30 2887 C 271.535 2.67883 -2.39748 0
M  V30 2888 C 271.199 2.43048 -3.8701 0
M  V30 2889 C 272.196 2.05216 -4.77684 0
M  V30 2890 C 269.881 2.56856 -4.3166 0
M  V30 2891 C 271.875 1.81512 -6.11009 0
M  V30 2892 C 269.562 2.32766 -5.65034 0
M  V30 2893 C 270.56 1.95152 -6.54526 0
M  V30 2894 O 270.248 1.71326 -7.85431 0
M  V30 2895 H 269.98 0.442567 -0.51099 0
M  V30 2896 H 272.534 0.786158 -1.8976 0
M  V30 2897 H 270.764 3.34032 -1.94832 0
M  V30 2898 H 272.453 3.29874 -2.36513 0
M  V30 2899 H 273.219 1.94111 -4.44462 0
M  V30 2900 H 269.098 2.85104 -3.62266 0
M  V30 2901 H 272.642 1.52077 -6.80822 0
M  V30 2902 H 268.539 2.43479 -5.97819 0
M  V30 2903 H 269.307 1.85616 -7.97176 0
M  V30 2904 N 271.97 1.30982 0.876444 0
M  V30 2905 C 272.933 1.18054 1.96459 0
M  V30 2906 C 273.933 0.109399 1.60427 0
M  V30 2907 O 275.123 0.358173 1.70478 0
M  V30 2908 C 272.255 0.810616 3.31122 0
M  V30 2909 H 273.448 2.14735 2.09354 0
M  V30 2910 H 271.001 1.145 1.06392 0
M  V30 2911 H 271.736 -0.155322 3.23928 0
M  V30 2912 H 271.521 1.58481 3.58645 0
M  V30 2913 H 273.011 0.743876 4.10921 0
M  V30 2914 N 273.449 -1.08991 1.13837 0
M  V30 2915 C 274.379 -2.17771 0.842507 0
M  V30 2916 C 275.36 -1.6892 -0.20001 0
M  V30 2917 O 276.545 -1.94113 -0.0579731 0
M  V30 2918 C 273.675 -3.4589 0.312644 0
M  V30 2919 C 272.629 -4.08099 1.28992 0
M  V30 2920 C 271.955 -5.31098 0.619623 0
M  V30 2921 C 273.255 -4.50077 2.65005 0
M  V30 2922 H 274.949 -2.42777 1.75213 0
M  V30 2923 H 272.495 -1.16682 0.843875 0
M  V30 2924 H 274.448 -4.21297 0.0933043 0
M  V30 2925 H 273.172 -3.20419 -0.632382 0
M  V30 2926 H 271.831 -3.34717 1.49533 0
M  V30 2927 H 271.479 -5.0191 -0.33102 0
M  V30 2928 H 271.179 -5.73674 1.27167 0
M  V30 2929 H 272.703 -6.09224 0.409669 0
M  V30 2930 H 274.117 -5.16688 2.48407 0
M  V30 2931 H 272.514 -5.03553 3.26427 0
M  V30 2932 H 273.584 -3.62257 3.22332 0
M  V30 2933 N 274.927 -0.932562 -1.27047 0
M  V30 2934 C 276.155 -0.592031 -1.98249 0
M  V30 2935 C 276.57 0.831062 -1.69525 0
M  V30 2936 O 275.927 1.55299 -0.958561 0
M  V30 2937 C 275.978 -0.814279 -3.5221 0
M  V30 2938 O 275.699 -2.18139 -3.7993 0
M  V30 2939 C 277.2 -0.483121 -4.4066 0
M  V30 2940 H 274.42 -0.223896 -0.632544 0
M  V30 2941 H 276.964 -1.25091 -1.61779 0
M  V30 2942 H 275.119 -0.20213 -3.86872 0
M  V30 2943 H 275.533 -2.235 -4.74498 0
M  V30 2944 H 277.007 -0.689298 -5.47679 0
M  V30 2945 H 277.484 0.581546 -4.35333 0
M  V30 2946 H 278.09 -1.07362 -4.11526 0
M  V30 2947 N 276.405 1.4127 -0.698611 0
M  V30 2948 C 277.651 2.01478 -0.231207 0
M  V30 2949 C 277.984 1.55215 1.16713 0
M  V30 2950 O 277.259 0.764672 1.78838 0
M  V30 2951 C 277.542 3.58912 -0.292281 0
M  V30 2952 C 277.395 4.15293 -1.72778 0
M  V30 2953 C 278.714 4.38736 0.346194 0
M  V30 2954 H 275.833 0.732025 -0.0854878 0
M  V30 2955 H 278.475 1.67977 -0.887906 0
M  V30 2956 H 276.625 3.87582 0.26686 0
M  V30 2957 H 278.297 3.97486 -2.341 0
M  V30 2958 H 276.54 3.7022 -2.26096 0
M  V30 2959 H 277.211 5.24452 -1.72202 0
M  V30 2960 H 279.687 4.15897 -0.130035 0
M  V30 2961 H 278.563 5.48221 0.272932 0
M  V30 2962 H 278.824 4.18425 1.42734 0
M  V30 2963 N 277.883 0.443576 1.51229 0
M  V30 2964 C 279.131 -0.120557 2.0174 0
M  V30 2965 C 279.452 -1.42665 1.32935 0
M  V30 2966 O 278.722 -1.9028 0.465866 0
M  V30 2967 H 277.302 -0.0475426 0.745486 0
M  V30 2968 H 279.964 0.587711 1.85828 0
M  V30 2969 H 279.06 -0.291972 3.10731 0
M  V30 2970 N 279.361 -1.56624 0.175154 0
M  V30 2971 C 280.607 -1.9729 -0.469506 0
M  V30 2972 C 280.94 -1.06128 -1.62636 0
M  V30 2973 O 280.215 -0.109183 -1.94193 0
M  V30 2974 C 280.498 -3.47375 -0.948804 0
M  V30 2975 C 280.351 -4.49317 0.208491 0
M  V30 2976 C 281.67 -4.00652 -1.82116 0
M  V30 2977 H 278.789 -0.717317 -0.16919 0
M  V30 2978 H 281.431 -1.88184 0.262062 0
M  V30 2979 H 279.581 -3.55267 -1.57219 0
M  V30 2980 H 281.253 -4.53482 0.845682 0
M  V30 2981 H 279.496 -4.25121 0.863395 0
M  V30 2982 H 280.167 -5.51741 -0.169059 0
M  V30 2983 H 282.643 -3.95416 -1.2956 0
M  V30 2984 H 281.519 -5.06075 -2.12554 0
M  V30 2985 H 281.78 -3.44699 -2.7683 0
M  V30 2986 N 280.839 0.0985539 -1.57292 0
M  V30 2987 C 282.087 0.801092 -1.85545 0
M  V30 2988 C 282.408 1.79438 -0.763353 0
M  V30 2989 O 281.678 1.94763 0.21073 0
M  V30 2990 H 280.258 0.29884 -0.684619 0
M  V30 2991 H 282.92 0.0810064 -1.94732 0
M  V30 2992 H 282.016 1.3338 -2.82163 0
M  V30 2993 N 282.317 1.53212 0.369288 0
M  V30 2994 C 283.545 1.73119 1.13303 0
M  V30 2995 C 283.96 0.458455 1.83149 0
M  V30 2996 O 283.317 -0.568403 1.73423 0
M  V30 2997 C 283.368 2.89413 2.16616 0
M  V30 2998 O 283.089 4.11761 1.49614 0
M  V30 2999 C 284.59 3.21161 3.05566 0
M  V30 3000 H 281.81 0.579107 0.338934 0
M  V30 3001 H 284.354 1.99942 0.429338 0
M  V30 3002 H 282.509 2.64994 2.82589 0
M  V30 3003 H 282.923 4.76858 2.18419 0
M  V30 3004 H 284.397 4.05949 3.74045 0
M  V30 3005 H 284.874 2.36369 3.70171 0
M  V30 3006 H 285.48 3.47492 2.45213 0
M  V30 3007 N 283.795 -0.628877 1.44509 0
M  V30 3008 C 284.725 -1.75187 1.54376 0
M  V30 3009 C 285.706 -1.65411 0.396618 0
M  V30 3010 O 286.891 -1.84137 0.617031 0
M  V30 3011 C 284.021 -3.13725 1.48976 0
M  V30 3012 C 282.975 -3.38291 2.62189 0
M  V30 3013 C 282.301 -4.76883 2.41841 0
M  V30 3014 C 283.601 -3.30632 4.04326 0
M  V30 3015 H 285.295 -1.67187 2.48373 0
M  V30 3016 H 282.841 -0.802909 1.19538 0
M  V30 3017 H 284.794 -3.92064 1.54478 0
M  V30 3018 H 283.518 -3.22515 0.514961 0
M  V30 3019 H 282.177 -2.62334 2.56079 0
M  V30 3020 H 281.825 -4.82378 1.42548 0
M  V30 3021 H 281.525 -4.94278 3.17747 0
M  V30 3022 H 283.049 -5.57449 2.49165 0
M  V30 3023 H 284.463 -3.98873 4.11793 0
M  V30 3024 H 282.86 -3.59561 4.80454 0
M  V30 3025 H 283.93 -2.28404 4.27738 0
M  V30 3026 N 285.273 -1.31445 -0.869486 0
M  V30 3027 C 286.203 -1.21727 -1.99261 0
M  V30 3028 C 287.184 -0.104359 -1.6978 0
M  V30 3029 O 288.369 -0.289038 -1.92037 0
M  V30 3030 C 285.499 -0.924317 -3.34774 0
M  V30 3031 C 284.453 -1.99685 -3.78563 0
M  V30 3032 C 283.779 -1.55658 -5.11541 0
M  V30 3033 C 285.079 -3.41003 -3.95619 0
M  V30 3034 H 286.773 -2.1569 -2.07649 0
M  V30 3035 H 284.319 -1.03839 -0.997675 0
M  V30 3036 H 286.272 -0.842934 -4.12883 0
M  V30 3037 H 284.996 0.0509793 -3.2656 0
M  V30 3038 H 283.655 -2.06813 -3.02694 0
M  V30 3039 H 283.303 -0.569132 -4.9977 0
M  V30 3040 H 283.003 -2.27409 -5.41811 0
M  V30 3041 H 284.527 -1.48928 -5.92159 0
M  V30 3042 H 285.941 -3.36547 -4.64122 0
M  V30 3043 H 284.338 -4.10975 -4.37286 0
M  V30 3044 H 285.408 -3.81754 -2.98985 0
M  V30 3045 N 286.751 1.08385 -1.14413 0
M  V30 3046 C 288.028 1.77429 -0.823297 0
M  V30 3047 C 288.408 1.9974 0.683163 0
M  V30 3048 O 287.756 1.60739 1.62405 0
M  V30 3049 C 287.966 3.09004 -1.62227 0
M  V30 3050 C 289.314 3.83532 -1.82177 0
M  V30 3051 O 290.338 3.18786 -1.58915 0
M  V30 3052 O 289.197 4.99792 -2.21067 0
M  V30 3053 H 286.291 0.769999 -0.301712 0
M  V30 3054 H 288.837 1.14846 -1.24934 0
M  V30 3055 H 287.609 2.88316 -2.64555 0
M  V30 3056 H 287.232 3.79316 -1.19187 0
M  V30 3057 N 288.23 0.939286 1.26551 0
M  V30 3058 C 289.193 0.451987 2.24699 0
M  V30 3059 C 290.193 -0.435869 1.5478 0
M  V30 3060 O 291.383 -0.235314 1.72603 0
M  V30 3061 C 288.515 -0.348801 3.39111 0
M  V30 3062 H 289.708 1.3193 2.69322 0
M  V30 3063 H 287.261 0.721072 1.38673 0
M  V30 3064 H 287.996 -1.23444 2.99887 0
M  V30 3065 H 287.781 0.287945 3.91041 0
M  V30 3066 H 289.271 -0.679726 4.12031 0
M  V30 3067 N 289.708 -1.40897 0.706093 0
M  V30 3068 C 290.618 -2.3455 0.0482286 0
M  V30 3069 C 291.634 -1.56796 -0.754396 0
M  V30 3070 O 292.81 -1.89228 -0.689538 0
M  V30 3071 C 289.875 -3.35625 -0.869303 0
M  V30 3072 C 288.936 -4.29261 -0.0576994 0
M  V30 3073 C 288.169 -5.25508 -0.931531 0
M  V30 3074 O 288.392 -5.27472 -2.17092 0
M  V30 3075 O 287.326 -6.00727 -0.375587 0
M  V30 3076 H 291.152 -2.92407 0.820476 0
M  V30 3077 H 288.737 -1.4193 0.4665 0
M  V30 3078 H 290.619 -3.97635 -1.39514 0
M  V30 3079 H 289.294 -2.80196 -1.62086 0
M  V30 3080 H 288.201 -3.70566 0.512988 0
M  V30 3081 H 289.534 -4.87817 0.655426 0
M  V30 3082 N 291.186 -0.45159 -1.50991 0
M  V30 3083 C 292.096 0.358431 -2.31846 0
M  V30 3084 C 293.112 1.01438 -1.41373 0
M  V30 3085 O 294.288 1.00663 -1.74439 0
M  V30 3086 C 291.353 1.43704 -3.15515 0
M  V30 3087 C 290.414 0.799742 -4.21785 0
M  V30 3088 C 289.647 1.82696 -5.01456 0
M  V30 3089 O 289.87 3.05105 -4.81941 0
M  V30 3090 O 288.804 1.40958 -5.85162 0
M  V30 3091 H 292.63 -0.302032 -3.02194 0
M  V30 3092 H 290.215 -0.213825 -1.47862 0
M  V30 3093 H 292.097 2.06227 -3.67489 0
M  V30 3094 H 290.772 2.08133 -2.47916 0
M  V30 3095 H 289.679 0.136084 -3.73852 0
M  V30 3096 H 291.012 0.198718 -4.91799 0
M  V30 3097 N 292.664 1.56529 -0.183458 0
M  V30 3098 C 293.91 1.97537 0.459036 0
M  V30 3099 C 294.243 1.06989 1.62071 0
M  V30 3100 O 293.518 0.11948 1.94133 0
M  V30 3101 C 293.801 3.47874 0.930368 0
M  V30 3102 C 293.654 4.492 -0.232317 0
M  V30 3103 C 294.973 4.01612 1.79989 0
M  V30 3104 H 292.092 0.718204 0.165383 0
M  V30 3105 H 294.734 1.88042 -0.272038 0
M  V30 3106 H 292.884 3.56095 1.55333 0
M  V30 3107 H 294.556 4.53027 -0.86972 0
M  V30 3108 H 292.799 4.24657 -0.885928 0
M  V30 3109 H 293.47 5.51823 0.139796 0
M  V30 3110 H 295.946 3.96097 1.27461 0
M  V30 3111 H 294.822 5.07195 2.09867 0
M  V30 3112 H 295.083 3.46163 2.74998 0
M  V30 3113 N 294.142 -0.090211 1.57342 0
M  V30 3114 C 295.075 -1.14035 1.97664 0
M  V30 3115 C 296.053 -1.38576 0.850616 0
M  V30 3116 O 297.237 -1.52255 1.11134 0
M  V30 3117 C 294.364 -2.48854 2.2976 0
M  V30 3118 C 293.41 -2.40564 3.52181 0
M  V30 3119 S 294.243 -1.81745 5.03715 0
M  V30 3120 C 295.399 -3.18178 5.38993 0
M  V30 3121 H 295.632 -0.796636 2.86428 0
M  V30 3122 H 293.165 -0.298072 1.51496 0
M  V30 3123 H 295.123 -3.26413 2.48927 0
M  V30 3124 H 293.784 -2.80393 1.41558 0
M  V30 3125 H 292.977 -3.39942 3.72096 0
M  V30 3126 H 292.579 -1.71135 3.32549 0
M  V30 3127 H 294.871 -4.14461 5.35937 0
M  V30 3128 H 295.814 -3.03062 6.39968 0
M  V30 3129 H 296.222 -3.17935 4.66452 0
M  V30 3130 N 295.62 -1.53406 -0.361157 0
M  V30 3131 C 296.869 -1.69022 -1.10066 0
M  V30 3132 C 297.182 -0.450838 -1.90333 0
M  V30 3133 O 298.388 -0.487617 -2.67085 0
M  V30 3134 C 296.844 -2.98812 -2.00598 0
M  V30 3135 C 296.452 -4.30027 -1.25621 0
M  V30 3136 C 298.196 -3.23795 -2.74513 0
M  V30 3137 C 296.103 -5.50903 -2.1508 0
M  V30 3138 H 295.033 -0.629776 -0.414606 0
M  V30 3139 H 297.684 -1.79907 -0.361348 0
M  V30 3140 H 296.066 -2.8174 -2.78278 0
M  V30 3141 H 297.24 -4.57745 -0.529739 0
M  V30 3142 H 295.555 -4.11522 -0.635496 0
M  V30 3143 H 298.152 -4.11289 -3.41681 0
M  V30 3144 H 298.495 -2.40045 -3.40123 0
M  V30 3145 H 299.028 -3.41561 -2.03914 0
M  V30 3146 H 295.767 -6.37143 -1.54041 0
M  V30 3147 H 295.287 -5.27459 -2.85565 0
M  V30 3148 H 296.966 -5.85865 -2.74538 0
M  V30 3149 N 297.098 0.621204 -1.44841 0
M  V30 3150 C 298.028 1.74366 -1.55303 0
M  V30 3151 C 299.009 1.65199 -0.405385 0
M  V30 3152 O 300.194 1.83807 -0.626787 0
M  V30 3153 C 297.324 3.12931 -1.50637 0
M  V30 3154 C 296.278 3.36896 -2.63979 0
M  V30 3155 C 295.604 4.75594 -2.44366 0
M  V30 3156 C 296.904 3.28483 -4.06074 0
M  V30 3157 H 298.598 1.65867 -2.49256 0
M  V30 3158 H 296.144 0.796558 -1.19962 0
M  V30 3159 H 298.097 3.9124 -1.56555 0
M  V30 3160 H 296.821 3.22237 -0.532057 0
M  V30 3161 H 295.48 2.60972 -2.57467 0
M  V30 3162 H 295.128 4.81616 -1.45105 0
M  V30 3163 H 294.828 4.92586 -3.20364 0
M  V30 3164 H 296.352 5.5612 -2.52117 0
M  V30 3165 H 297.766 3.96684 -4.13902 0
M  V30 3166 H 296.163 3.57008 -4.82354 0
M  V30 3167 H 297.233 2.26133 -4.28943 0
M  V30 3168 N 298.576 1.31904 0.862503 0
M  V30 3169 C 299.822 1.22197 1.61851 0
M  V30 3170 C 300.155 -0.217641 1.92977 0
M  V30 3171 O 299.43 -1.15264 1.56666 0
M  V30 3172 C 299.713 2.07378 2.94391 0
M  V30 3173 C 299.566 3.59678 2.70096 0
M  V30 3174 C 300.885 1.92891 3.95577 0
M  V30 3175 H 298.004 0.445255 0.587296 0
M  V30 3176 H 300.646 1.6177 0.99651 0
M  V30 3177 H 298.796 1.73758 3.47477 0
M  V30 3178 H 300.468 4.03472 2.23625 0
M  V30 3179 H 298.711 3.82735 2.04197 0
M  V30 3180 H 299.382 4.14595 3.64438 0
M  V30 3181 H 301.858 2.22327 3.51724 0
M  V30 3182 H 300.734 2.54781 4.86187 0
M  V30 3183 H 300.995 0.894315 4.3296 0
M  V30 3184 N 300.054 -1.07777 1.14986 0
M  V30 3185 C 300.984 -2.16865 0.865557 0
M  V30 3186 C 301.965 -1.69123 -0.182083 0
M  V30 3187 O 303.15 -1.94164 -0.0373815 0
M  V30 3188 C 300.28 -3.45539 0.349313 0
M  V30 3189 C 299.234 -4.06708 1.33313 0
M  V30 3190 C 298.56 -5.30411 0.675918 0
M  V30 3191 C 299.86 -4.47241 2.69764 0
M  V30 3192 H 301.554 -2.40905 1.77778 0
M  V30 3193 H 299.1 -1.15781 0.856203 0
M  V30 3194 H 301.053 -4.21174 0.137983 0
M  V30 3195 H 299.777 -3.21072 -0.598362 0
M  V30 3196 H 298.436 -3.33112 1.53075 0
M  V30 3197 H 298.084 -5.02232 -0.277767 0
M  V30 3198 H 297.784 -5.72293 1.33244 0
M  V30 3199 H 299.308 -6.08755 0.474262 0
M  V30 3200 H 300.722 -5.14025 2.53873 0
M  V30 3201 H 299.119 -5.00062 3.3175 0
M  V30 3202 H 300.189 -3.58818 3.26156 0
M  V30 3203 N 301.532 -0.945985 -1.26051 0
M  V30 3204 C 302.78 -0.594941 -1.93145 0
M  V30 3205 C 303.101 0.86953 -1.7454 0
M  V30 3206 O 302.371 1.61838 -1.10387 0
M  V30 3207 H 300.951 -0.217044 -0.714773 0
M  V30 3208 H 303.613 -1.20235 -1.53393 0
M  V30 3209 H 302.709 -0.816835 -3.01221 0
M  V30 3210 N 303.011 1.40521 -0.713556 0
M  V30 3211 C 304.236 2.05759 -0.26035 0
M  V30 3212 C 304.661 1.53403 1.08854 0
M  V30 3213 O 304.019 0.668535 1.68524 0
M  V30 3214 C 304.067 3.59745 -0.248122 0
M  V30 3215 O 303.171 4.05123 0.77131 0
M  V30 3216 H 302.512 0.652564 -0.122703 0
M  V30 3217 H 305.042 1.79958 -0.973467 0
M  V30 3218 H 305.052 4.07911 -0.0851129 0
M  V30 3219 H 303.727 3.97218 -1.2325 0
M  V30 3220 H 302.304 3.68422 0.57619 0
M  V30 3221 N 304.489 0.459591 1.5075 0
M  V30 3222 C 305.421 -0.37665 2.26084 0
M  V30 3223 C 306.434 -0.967109 1.30961 0
M  V30 3224 O 307.623 -0.857468 1.56556 0
M  V30 3225 C 304.723 -1.54112 3.01832 0
M  V30 3226 C 303.896 -1.06553 4.24223 0
M  V30 3227 C 302.955 -2.1027 4.82362 0
M  V30 3228 O 301.981 -1.68798 5.43595 0
M  V30 3229 N 303.183 -3.42974 4.68347 0
M  V30 3230 H 305.948 0.269124 2.98489 0
M  V30 3231 H 303.509 0.28972 1.59287 0
M  V30 3232 H 305.501 -2.23165 3.37608 0
M  V30 3233 H 304.071 -2.0918 2.32298 0
M  V30 3234 H 303.291 -0.201274 3.93686 0
M  V30 3235 H 304.579 -0.725516 5.03601 0
M  V30 3236 H 303.977 -3.79385 4.19623 0
M  V30 3237 H 302.534 -4.07858 5.08424 0
M  V30 3238 N 305.967 -1.56429 0.191757 0
M  V30 3239 C 306.914 -2.18936 -0.730454 0
M  V30 3240 C 307.884 -1.13557 -1.21219 0
M  V30 3241 O 309.069 -1.41794 -1.27668 0
M  V30 3242 C 306.209 -2.85013 -1.9458 0
M  V30 3243 C 305.322 -4.04909 -1.50574 0
M  V30 3244 C 304.457 -4.58853 -2.67634 0
M  V30 3245 C 303.496 -5.71114 -2.20217 0
M  V30 3246 N 302.633 -6.19478 -3.30442 0
M  V30 3247 H 307.473 -2.97389 -0.190664 0
M  V30 3248 H 305.01 -1.46869 -0.0823694 0
M  V30 3249 H 306.968 -3.21492 -2.65893 0
M  V30 3250 H 305.598 -2.09129 -2.45896 0
M  V30 3251 H 304.65 -3.74115 -0.688605 0
M  V30 3252 H 305.962 -4.86113 -1.11784 0
M  V30 3253 H 305.116 -4.97619 -3.47074 0
M  V30 3254 H 303.855 -3.76749 -3.09696 0
M  V30 3255 H 302.86 -5.31879 -1.3923 0
M  V30 3256 H 304.085 -6.55033 -1.79189 0
M  V30 3257 H 302.031 -5.40297 -3.72041 0
M  V30 3258 H 301.948 -6.95725 -2.9581 0
M  V30 3259 H 303.216 -6.62898 -4.10106 0
M  V30 3260 N 307.445 0.0818655 -1.57387 0
M  V30 3261 C 308.408 1.08265 -2.02018 0
M  V30 3262 C 309.408 1.32183 -0.915664 0
M  V30 3263 O 310.598 1.28073 -1.18081 0
M  V30 3264 C 307.73 2.42871 -2.39221 0
M  V30 3265 H 308.923 0.698204 -2.91659 0
M  V30 3266 H 306.476 0.327303 -1.52835 0
M  V30 3267 H 307.211 2.86167 -1.52575 0
M  V30 3268 H 306.996 2.26855 -3.19811 0
M  V30 3269 H 308.486 3.14826 -2.74362 0
M  V30 3270 N 308.923 1.53595 0.353017 0
M  V30 3271 C 309.853 1.83902 1.43883 0
M  V30 3272 C 310.834 0.693421 1.55324 0
M  V30 3273 O 312.019 0.944452 1.69687 0
M  V30 3274 C 309.149 2.04016 2.8106 0
M  V30 3275 C 308.103 3.19814 2.84434 0
M  V30 3276 C 307.429 3.25244 4.24406 0
M  V30 3277 C 308.729 4.58133 2.50822 0
M  V30 3278 H 310.423 2.74835 1.1877 0
M  V30 3279 H 307.969 1.32242 0.569917 0
M  V30 3280 H 309.922 2.238 3.57059 0
M  V30 3281 H 308.646 1.09804 3.07588 0
M  V30 3282 H 307.305 2.9987 2.10887 0
M  V30 3283 H 306.953 2.28646 4.48029 0
M  V30 3284 H 306.653 4.03054 4.27576 0
M  V30 3285 H 308.177 3.47228 5.0226 0
M  V30 3286 H 309.591 4.77995 3.16534 0
M  V30 3287 H 307.988 5.38276 2.6529 0
M  V30 3288 H 309.058 4.62387 1.46034 0
M  V30 3289 N 310.401 -0.613514 1.45168 0
M  V30 3290 C 311.364 -1.7065 1.53007 0
M  V30 3291 C 312.364 -1.5548 0.410184 0
M  V30 3292 O 313.554 -1.60656 0.673455 0
M  V30 3293 C 310.686 -3.09875 1.42093 0
M  V30 3294 H 311.879 -1.65068 2.50385 0
M  V30 3295 H 309.432 -0.828728 1.32521 0
M  V30 3296 H 310.167 -3.21039 0.458769 0
M  V30 3297 H 309.952 -3.22293 2.23315 0
M  V30 3298 H 311.442 -3.895 1.50598 0
M  V30 3299 N 311.879 -1.3236 -0.855495 0
M  V30 3300 C 312.809 -1.23833 -1.97958 0
M  V30 3301 C 313.79 -0.122361 -1.69659 0
M  V30 3302 O 314.975 -0.30939 -1.9172 0
M  V30 3303 C 312.105 -0.959772 -3.33775 0
M  V30 3304 C 311.059 -2.03689 -3.76424 0
M  V30 3305 C 310.385 -1.61075 -5.09862 0
M  V30 3306 C 311.685 -3.4518 -3.9198 0
M  V30 3307 H 313.379 -2.1788 -2.0535 0
M  V30 3308 H 310.925 -1.04891 -0.986605 0
M  V30 3309 H 312.878 -0.886678 -4.11966 0
M  V30 3310 H 311.602 0.0163404 -3.26596 0
M  V30 3311 H 310.261 -2.10012 -3.00484 0
M  V30 3312 H 309.909 -0.622107 -4.99138 0
M  V30 3313 H 309.609 -2.33143 -5.39368 0
M  V30 3314 H 311.133 -1.55201 -5.90546 0
M  V30 3315 H 312.547 -3.4145 -4.60526 0
M  V30 3316 H 310.944 -4.1559 -4.32903 0
M  V30 3317 H 312.014 -3.84903 -2.94919 0
M  V30 3318 N 313.357 1.07166 -1.15556 0
M  V30 3319 C 314.289 2.14341 -0.811815 0
M  V30 3320 C 315.302 1.61835 0.177015 0
M  V30 3321 O 316.491 1.78439 -0.0464996 0
M  V30 3322 C 313.591 3.38387 -0.186481 0
M  V30 3323 C 312.764 4.20238 -1.21321 0
M  V30 3324 C 311.823 5.2266 -0.609302 0
M  V30 3325 O 310.849 5.54719 -1.27576 0
M  V30 3326 N 312.051 5.77306 0.608099 0
M  V30 3327 H 314.816 2.44431 -1.73417 0
M  V30 3328 H 312.377 1.23089 -1.0517 0
M  V30 3329 H 314.369 4.04044 0.230339 0
M  V30 3330 H 312.939 3.05994 0.639249 0
M  V30 3331 H 312.159 3.50369 -1.80652 0
M  V30 3332 H 313.447 4.71736 -1.90638 0
M  V30 3333 H 312.845 5.53513 1.1679 0
M  V30 3334 H 311.402 6.44583 0.96725 0
M  V30 3335 N 314.835 0.952656 1.25548 0
M  V30 3336 C 315.798 0.475794 2.24207 0
M  V30 3337 C 316.798 -0.419428 1.55234 0
M  V30 3338 O 317.988 -0.216994 1.72843 0
M  V30 3339 C 315.12 -0.312814 3.39462 0
M  V30 3340 H 316.313 1.34779 2.67908 0
M  V30 3341 H 313.866 0.735739 1.37901 0
M  V30 3342 H 314.601 -1.20257 3.01179 0
M  V30 3343 H 314.386 0.329404 3.90714 0
M  V30 3344 H 315.876 -0.635986 4.12729 0
M  V30 3345 N 316.313 -1.40141 0.720998 0
M  V30 3346 C 317.276 -2.29058 0.0805834 0
M  V30 3347 C 318.276 -1.45632 -0.681758 0
M  V30 3348 O 319.466 -1.6648 -0.512856 0
M  V30 3349 C 316.598 -3.28925 -0.895593 0
M  V30 3350 H 317.791 -2.87191 0.863793 0
M  V30 3351 H 315.344 -1.48553 0.485975 0
M  V30 3352 H 316.079 -2.75822 -1.70566 0
M  V30 3353 H 315.864 -3.90519 -0.351766 0
M  V30 3354 H 317.354 -3.95494 -1.34069 0
M  V30 3355 N 317.792 -0.46758 -1.50504 0
M  V30 3356 C 319.038 0.0887532 -2.02606 0
M  V30 3357 C 319.371 1.39686 -1.34913 0
M  V30 3358 O 318.646 1.88644 -0.473694 0
M  V30 3359 C 318.929 0.276206 -3.59039 0
M  V30 3360 C 318.782 -1.05267 -4.37309 0
M  V30 3361 C 320.101 1.03235 -4.27821 0
M  V30 3362 H 317.22 0.0307814 -0.736357 0
M  V30 3363 H 319.862 -0.612485 -1.79857 0
M  V30 3364 H 318.012 0.8735 -3.78553 0
M  V30 3365 H 319.684 -1.68628 -4.29374 0
M  V30 3366 H 317.927 -1.65015 -4.01189 0
M  V30 3367 H 318.598 -0.875197 -5.45018 0
M  V30 3368 H 321.074 0.526111 -4.12761 0
M  V30 3369 H 319.95 1.1323 -5.37094 0
M  V30 3370 H 320.211 2.06806 -3.90748 0
M  V30 3371 N 319.27 1.56325 -0.20005 0
M  V30 3372 C 320.18 2.22931 0.730668 0
M  V30 3373 C 321.196 1.22997 1.23076 0
M  V30 3374 O 322.372 1.55748 1.27689 0
M  V30 3375 C 319.437 2.87948 1.93098 0
M  V30 3376 C 318.498 4.03166 1.47497 0
M  V30 3377 C 317.731 4.65073 2.61807 0
M  V30 3378 O 317.954 4.25913 3.79413 0
M  V30 3379 O 316.888 5.54452 2.34237 0
M  V30 3380 H 320.714 3.03084 0.193391 0
M  V30 3381 H 318.299 1.49371 0.0294621 0
M  V30 3382 H 320.181 3.29063 2.6324 0
M  V30 3383 H 318.856 2.10771 2.45677 0
M  V30 3384 H 317.763 3.66664 0.742201 0
M  V30 3385 H 319.096 4.82022 0.995796 0
M  V30 3386 N 320.748 -0.0735177 1.57428 0
M  V30 3387 C 321.996 -0.771472 1.86796 0
M  V30 3388 C 322.317 -1.78201 0.791804 0
M  V30 3389 O 321.587 -1.95074 -0.179718 0
M  V30 3390 H 320.167 -0.28791 0.689287 0
M  V30 3391 H 322.829 -0.0500161 1.94836 0
M  V30 3392 H 321.925 -1.28874 2.8425 0
M  V30 3393 N 322.226 -1.5378 -0.344866 0
M  V30 3394 C 323.466 -1.72677 -1.09371 0
M  V30 3395 C 323.83 -0.479084 -1.85927 0
M  V30 3396 O 325.031 -0.54505 -2.63216 0
M  V30 3397 C 323.302 -2.95457 -2.01097 0
M  V30 3398 S 324.861 -3.35158 -2.83222 0
M  V30 3399 H 321.679 -0.607402 -0.369573 0
M  V30 3400 H 324.281 -1.91922 -0.372307 0
M  V30 3401 H 322.985 -3.84437 -1.43655 0
M  V30 3402 H 322.516 -2.78673 -2.77678 0
M  V30 3403 H 324.531 -2.88789 -4.03504 0
M  V30 3404 N 323.704 0.605807 -1.45491 0
M  V30 3405 C 324.95 1.36679 -1.49823 0
M  V30 3406 C 325.283 1.93693 -0.140175 0
M  V30 3407 O 324.558 1.75158 0.845581 0
M  V30 3408 C 324.841 2.51337 -2.57879 0
M  V30 3409 C 324.694 1.99508 -4.03134 0
M  V30 3410 C 326.013 3.53463 -2.62205 0
M  V30 3411 H 323.132 0.495617 -0.545466 0
M  V30 3412 H 325.774 0.682732 -1.7731 0
M  V30 3413 H 323.924 3.09691 -2.34571 0
M  V30 3414 H 325.596 1.45789 -4.37656 0
M  V30 3415 H 323.839 1.30496 -4.13707 0
M  V30 3416 H 324.51 2.82169 -4.74431 0
M  V30 3417 H 326.986 3.04953 -2.83095 0
M  V30 3418 H 325.862 4.31178 -3.39672 0
M  V30 3419 H 326.123 4.09197 -1.67363 0
M  V30 3420 N 325.182 1.32811 0.848464 0
M  V30 3421 C 326.13 1.22231 1.97895 0
M  V30 3422 C 327.124 0.125749 1.68933 0
M  V30 3423 O 328.33 0.289083 1.77663 0
M  V30 3424 H 324.705 0.379058 0.649476 0
M  V30 3425 H 326.676 2.17828 2.03945 0
M  V30 3426 C 325.425 0.968572 3.33937 0
M  V30 3427 H 324.748 1.80458 3.56756 0
M  V30 3428 H 326.188 0.934808 4.13567 0
M  V30 3429 C 324.647 -0.328628 3.35293 0
M  V30 3430 O 325.177 -1.33848 3.78745 0
M  V30 3431 N 323.383 -0.352788 2.88451 0
M  V30 3432 H 322.93 0.469541 2.53285 0
M  V30 3433 H 322.888 -1.22057 2.89741 0
M  V30 3434 N 326.66 -1.06551 1.16123 0
M  V30 3435 C 327.61 -2.12209 0.833736 0
M  V30 3436 C 328.594 -1.59825 -0.185656 0
M  V30 3437 O 329.786 -1.76994 0.0147906 0
M  V30 3438 C 326.915 -3.41674 0.333697 0
M  V30 3439 C 326.001 -4.00892 1.38372 0
M  V30 3440 N 326.392 -4.34256 2.59337 0
M  V30 3441 C 324.69 -4.28463 1.23836 0
M  V30 3442 C 325.391 -4.81291 3.26701 0
M  V30 3443 N 324.367 -4.80565 2.54083 0
M  V30 3444 H 328.169 -2.35849 1.75364 0
M  V30 3445 H 325.683 -1.24068 1.04789 0
M  V30 3446 H 327.68 -4.16822 0.0806918 0
M  V30 3447 H 326.34 -3.19475 -0.58017 0
M  V30 3448 H 327.351 -4.24687 2.96415 0
M  V30 3449 H 324.028 -4.15721 0.38504 0
M  V30 3450 H 325.418 -5.16332 4.29943 0
M  V30 3451 N 328.138 -0.959301 -1.25041 0
M  V30 3452 C 329.071 -0.427418 -2.24161 0
M  V30 3453 C 330.049 0.493837 -1.54919 0
M  V30 3454 O 331.233 0.427144 -1.83597 0
M  V30 3455 C 328.36 0.383893 -3.36517 0
M  V30 3456 C 327.406 -0.478431 -4.23808 0
M  V30 3457 S 328.239 -1.91353 -5.00144 0
M  V30 3458 C 329.395 -1.11077 -6.15965 0
M  V30 3459 H 329.628 -1.26743 -2.6893 0
M  V30 3460 H 327.161 -0.763714 -1.34189 0
M  V30 3461 H 329.119 0.846039 -4.01687 0
M  V30 3462 H 327.78 1.19878 -2.90324 0
M  V30 3463 H 326.973 0.14406 -5.03794 0
M  V30 3464 H 326.575 -0.87597 -3.63597 0
M  V30 3465 H 328.867 -0.361699 -6.76534 0
M  V30 3466 H 329.81 -1.88472 -6.82557 0
M  V30 3467 H 330.218 -0.638843 -5.60873 0
M  V30 3468 N 329.616 1.39756 -0.72842 0
M  V30 3469 C 330.862 2.01425 -0.282761 0
M  V30 3470 C 331.217 1.56754 1.11561 0
M  V30 3471 O 330.51 0.783482 1.74849 0
M  V30 3472 C 330.704 3.56002 -0.315776 0
M  V30 3473 C 330.533 4.1568 -1.71582 0
M  V30 3474 C 329.303 4.48555 -2.32651 0
M  V30 3475 C 331.501 4.39667 -2.66829 0
M  V30 3476 N 329.483 4.93698 -3.64877 0
M  V30 3477 C 330.854 4.86942 -3.8378 0
M  V30 3478 C 332.909 4.21724 -2.64675 0
M  V30 3479 C 331.612 5.18158 -4.98904 0
M  V30 3480 C 333.638 4.54049 -3.78937 0
M  V30 3481 C 333 5.01525 -4.94623 0
M  V30 3482 H 329.099 0.76756 -0.149583 0
M  V30 3483 H 331.683 1.69784 -0.952976 0
M  V30 3484 H 329.854 3.87046 0.324057 0
M  V30 3485 H 331.586 4.0443 0.147808 0
M  V30 3486 H 328.341 4.36128 -1.84633 0
M  V30 3487 H 328.765 5.20635 -4.32744 0
M  V30 3488 H 333.407 3.84228 -1.76433 0
M  V30 3489 H 331.125 5.54562 -5.87781 0
M  V30 3490 H 334.711 4.41795 -3.78561 0
M  V30 3491 H 333.591 5.26065 -5.81572 0
M  V30 3492 N 331.094 0.475555 1.50254 0
M  V30 3493 C 332.322 -0.0754493 2.06762 0
M  V30 3494 C 332.737 -1.33111 1.33891 0
M  V30 3495 O 332.094 -1.77846 0.40952 0
M  V30 3496 C 332.145 -0.359008 3.59713 0
M  V30 3497 O 331.866 0.846851 4.29837 0
M  V30 3498 C 333.367 -0.956484 4.32858 0
M  V30 3499 H 330.587 0.00907525 0.670939 0
M  V30 3500 H 333.131 0.665618 1.93364 0
M  V30 3501 H 331.286 -1.05001 3.72899 0
M  V30 3502 H 331.7 0.594162 5.21124 0
M  V30 3503 H 333.174 -1.10463 5.40834 0
M  V30 3504 H 333.651 -1.94775 3.93649 0
M  V30 3505 H 334.257 -0.303723 4.24214 0
M  V30 3506 N 332.573 -1.56217 0.208337 0
M  V30 3507 C 333.822 -1.97124 -0.427204 0
M  V30 3508 C 334.135 -1.09859 -1.61835 0
M  V30 3509 O 335.341 -1.40606 -2.32255 0
M  V30 3510 C 333.797 -3.50633 -0.811442 0
M  V30 3511 C 333.405 -4.46582 0.35615 0
M  V30 3512 C 335.149 -4.00282 -1.41332 0
M  V30 3513 C 333.056 -5.91379 -0.0497852 0
M  V30 3514 H 331.986 -0.736086 -0.163381 0
M  V30 3515 H 334.637 -1.8099 0.302456 0
M  V30 3516 H 333.019 -3.62319 -1.59815 0
M  V30 3517 H 334.193 -4.46636 1.1337 0
M  V30 3518 H 332.508 -4.07202 0.870396 0
M  V30 3519 H 335.105 -5.0595 -1.72972 0
M  V30 3520 H 335.448 -3.45359 -2.32449 0
M  V30 3521 H 335.981 -3.91764 -0.690323 0
M  V30 3522 H 332.72 -6.50255 0.827529 0
M  V30 3523 H 332.24 -5.94549 -0.791926 0
M  V30 3524 H 333.919 -6.45209 -0.481042 0
M  V30 3525 N 334.051 0.0651679 -1.57465 0
M  V30 3526 C 335.276 0.779605 -1.9219 0
M  V30 3527 C 335.701 1.69988 -0.805333 0
M  V30 3528 O 335.059 1.79685 0.241435 0
M  V30 3529 C 335.107 1.54364 -3.2589 0
M  V30 3530 O 334.211 2.65474 -3.1559 0
M  V30 3531 H 333.552 0.212249 -0.629163 0
M  V30 3532 H 336.082 0.0314294 -2.04576 0
M  V30 3533 H 336.092 1.92146 -3.59922 0
M  V30 3534 H 334.767 0.868457 -4.06732 0
M  V30 3535 H 333.344 2.30501 -2.93128 0
M  V30 3536 N 335.529 1.53961 0.336706 0
M  V30 3537 C 336.769 1.73254 1.08454 0
M  V30 3538 C 337.133 0.488937 1.8567 0
M  V30 3539 O 338.334 0.559001 2.62923 0
M  V30 3540 C 336.605 2.96519 1.99528 0
M  V30 3541 S 338.164 3.36655 2.81441 0
M  V30 3542 H 334.982 0.609353 0.366347 0
M  V30 3543 H 337.584 1.92117 0.362124 0
M  V30 3544 H 336.288 3.85193 1.41614 0
M  V30 3545 H 335.819 2.80142 2.76196 0
M  V30 3546 H 337.834 2.90925 4.01967 0
M  V30 3547 N 337.007 -0.598083 1.45811 0
M  V30 3548 C 337.937 -1.71873 1.58057 0
M  V30 3549 C 338.918 -1.64533 0.431615 0
M  V30 3550 O 340.103 -1.82787 0.65595 0
M  V30 3551 C 337.233 -3.10495 1.55597 0
M  V30 3552 C 336.187 -3.32654 2.69305 0
M  V30 3553 C 335.513 -4.71646 2.51902 0
M  V30 3554 C 336.813 -3.21981 4.11248 0
M  V30 3555 H 338.507 -1.61881 2.51863 0
M  V30 3556 H 336.053 -0.777372 1.21214 0
M  V30 3557 H 338.006 -3.88699 1.6276 0
M  V30 3558 H 336.73 -3.2135 0.583255 0
M  V30 3559 H 335.389 -2.56843 2.61586 0
M  V30 3560 H 335.037 -4.79246 1.52748 0
M  V30 3561 H 334.737 -4.87426 3.2816 0
M  V30 3562 H 336.261 -5.52038 2.60933 0
M  V30 3563 H 337.675 -3.90049 4.20161 0
M  V30 3564 H 336.072 -3.49289 4.87972 0
M  V30 3565 H 337.142 -2.1928 4.32486 0
M  V30 3566 N 338.485 -1.33259 -0.841409 0
M  V30 3567 C 339.417 -1.19136 -1.95804 0
M  V30 3568 C 340.43 -0.122965 -1.62335 0
M  V30 3569 O 341.619 -0.373154 -1.74556 0
M  V30 3570 C 338.719 -0.804268 -3.29218 0
M  V30 3571 C 337.892 -1.96376 -3.90839 0
M  V30 3572 C 336.951 -1.55806 -5.02604 0
M  V30 3573 O 335.977 -2.27203 -5.21888 0
M  V30 3574 N 337.179 -0.461609 -5.78662 0
M  V30 3575 H 339.944 -2.15326 -2.08458 0
M  V30 3576 H 337.505 -1.25971 -1.017 0
M  V30 3577 H 339.497 -0.51501 -4.0141 0
M  V30 3578 H 338.067 0.0668809 -3.12528 0
M  V30 3579 H 337.287 -2.41879 -3.11269 0
M  V30 3580 H 338.575 -2.73966 -4.28742 0
M  V30 3581 H 337.973 0.132343 -5.65545 0
M  V30 3582 H 336.53 -0.232013 -6.51387 0
M  V30 3583 N 339.963 1.05934 -1.16686 0
M  V30 3584 C 340.893 2.1546 -0.899949 0
M  V30 3585 C 341.874 1.69391 0.155154 0
M  V30 3586 O 343.059 1.94199 0.00648693 0
M  V30 3587 C 340.189 3.44939 -0.404241 0
M  V30 3588 C 339.143 4.04536 -1.39767 0
M  V30 3589 C 338.469 5.29268 -0.760216 0
M  V30 3590 C 339.769 4.42893 -2.76845 0
M  V30 3591 H 341.463 2.38046 -1.81588 0
M  V30 3592 H 339.009 1.14404 -0.874514 0
M  V30 3593 H 340.962 4.20901 -0.204971 0
M  V30 3594 H 339.686 3.21983 0.547206 0
M  V30 3595 H 338.345 3.30635 -1.58355 0
M  V30 3596 H 337.993 5.02611 0.197831 0
M  V30 3597 H 337.693 5.70101 -1.42332 0
M  V30 3598 H 339.217 6.07924 -0.57105 0
M  V30 3599 H 340.631 5.09921 -2.62019 0
M  V30 3600 H 339.028 4.94721 -3.39663 0
M  V30 3601 H 340.098 3.53584 -3.31823 0
M  V30 3602 N 341.441 0.965919 1.2453 0
M  V30 3603 C 342.391 0.465731 2.23193 0
M  V30 3604 C 343.375 -0.451277 1.54442 0
M  V30 3605 O 344.567 -0.282489 1.74731 0
M  V30 3606 C 341.696 -0.244511 3.42428 0
M  V30 3607 C 340.782 0.691222 4.18429 0
M  V30 3608 N 341.173 1.82771 4.71623 0
M  V30 3609 C 339.471 0.501649 4.4317 0
M  V30 3610 C 340.172 2.41285 5.29298 0
M  V30 3611 N 339.148 1.69819 5.16394 0
M  V30 3612 H 342.95 1.33291 2.61937 0
M  V30 3613 H 340.464 0.824789 1.39896 0
M  V30 3614 H 342.461 -0.620056 4.12263 0
M  V30 3615 H 341.121 -1.10815 3.05205 0
M  V30 3616 H 342.132 2.20929 4.68413 0
M  V30 3617 H 338.809 -0.318177 4.16286 0
M  V30 3618 H 340.199 3.37181 5.8117 0
M  V30 3619 N 342.919 -1.39368 0.735821 0
M  V30 3620 C 344.33 -1.83313 0.354015 0
M  V30 3621 C 344.681 -1.61461 -1.11466 0
M  V30 3622 O 343.806 -1.10621 -1.85989 0
M  V30 3623 C 344.401 -3.32781 0.635769 0
M  V30 3624 C 342.96 -3.75142 0.307448 0
M  V30 3625 C 342.107 -2.62358 0.897974 0
M  V30 3626 H 345.058 -1.28349 0.933398 0
M  V30 3627 H 345.079 -3.80388 -0.0921773 0
M  V30 3628 H 344.591 -3.48654 1.70476 0
M  V30 3629 H 342.692 -3.64857 -0.755674 0
M  V30 3630 H 342.805 -4.72532 0.790583 0
M  V30 3631 H 341.169 -2.52624 0.324551 0
M  V30 3632 H 341.952 -2.81036 1.97164 0
M  V30 3633 N 344.397 -0.483516 -1.5 0
M  V30 3634 C 345.344 0.304164 -2.28787 0
M  V30 3635 C 346.314 0.976114 -1.34392 0
M  V30 3636 O 347.499 0.986156 -1.63339 0
M  V30 3637 C 344.639 1.37298 -3.16612 0
M  V30 3638 C 343.752 0.714561 -4.26049 0
M  V30 3639 C 342.887 1.76232 -5.01114 0
M  V30 3640 C 341.926 1.08483 -6.0241 0
M  V30 3641 N 341.063 2.076 -6.70706 0
M  V30 3642 H 345.903 -0.373981 -2.95644 0
M  V30 3643 H 343.44 -0.196275 -1.45785 0
M  V30 3644 H 345.398 2.00445 -3.65893 0
M  V30 3645 H 344.028 2.02012 -2.51776 0
M  V30 3646 H 343.08 -0.0297798 -3.80388 0
M  V30 3647 H 344.392 0.180383 -4.98474 0
M  V30 3648 H 343.546 2.46929 -5.54176 0
M  V30 3649 H 342.285 2.33033 -4.28424 0
M  V30 3650 H 341.29 0.363545 -5.48597 0
M  V30 3651 H 342.515 0.523551 -6.77079 0
M  V30 3652 H 340.461 2.63394 -6.00799 0
M  V30 3653 H 340.378 1.59201 -7.39047 0
M  V30 3654 H 341.646 2.77639 -7.2838 0
M  V30 3655 N 345.875 1.56104 -0.216619 0
M  V30 3656 C 346.838 2.18819 0.681962 0
M  V30 3657 C 347.838 1.14866 1.12528 0
M  V30 3658 O 349.028 1.40128 1.03488 0
M  V30 3659 C 346.16 2.80756 1.93362 0
M  V30 3660 H 347.353 2.99595 0.135254 0
M  V30 3661 H 344.906 1.56265 0.0330003 0
M  V30 3662 H 345.641 2.03837 2.52232 0
M  V30 3663 H 345.426 3.56876 1.62426 0
M  V30 3664 H 346.916 3.28844 2.57393 0
M  V30 3665 N 347.353 -0.0568162 1.57498 0
M  V30 3666 C 348.602 -0.752001 1.87157 0
M  V30 3667 C 348.915 -1.77978 0.811375 0
M  V30 3668 O 350.121 -2.52559 0.996293 0
M  V30 3669 C 348.577 -1.38844 3.3204 0
M  V30 3670 C 348.185 -0.398456 4.46225 0
M  V30 3671 C 349.929 -2.06512 3.70882 0
M  V30 3672 C 347.836 -1.04166 5.82154 0
M  V30 3673 H 346.766 -0.28461 0.698222 0
M  V30 3674 H 349.417 -0.00561272 1.83499 0
M  V30 3675 H 347.799 -2.1836 3.30356 0
M  V30 3676 H 348.973 0.367977 4.59328 0
M  V30 3677 H 347.288 0.174592 4.16034 0
M  V30 3678 H 349.885 -2.55437 4.6974 0
M  V30 3679 H 350.228 -2.87117 3.01445 0
M  V30 3680 H 350.761 -1.33808 3.7462 0
M  V30 3681 H 347.5 -0.275614 6.5492 0
M  V30 3682 H 347.02 -1.7786 5.72823 0
M  V30 3683 H 348.699 -1.55715 6.27982 0
M  V30 3684 N 348.832 -1.54138 -0.328536 0
M  V30 3685 C 349.765 -1.78014 -1.4278 0
M  V30 3686 C 350.743 -0.629889 -1.49904 0
M  V30 3687 O 351.927 -0.866763 -1.6739 0
M  V30 3688 C 349.054 -1.89225 -2.80912 0
M  V30 3689 C 348.1 -3.11483 -2.91343 0
M  V30 3690 S 348.933 -4.70201 -2.56263 0
M  V30 3691 C 350.089 -4.84312 -3.96476 0
M  V30 3692 H 350.322 -2.70974 -1.22313 0
M  V30 3693 H 347.855 -1.45197 -0.525084 0
M  V30 3694 H 349.813 -1.9637 -3.60485 0
M  V30 3695 H 348.474 -0.972518 -2.98665 0
M  V30 3696 H 347.667 -3.16046 -3.92595 0
M  V30 3697 H 347.269 -3.02642 -2.19736 0
M  V30 3698 H 349.561 -4.66643 -4.91173 0
M  V30 3699 H 350.504 -5.86411 -3.96898 0
M  V30 3700 H 350.912 -4.12652 -3.85199 0
M  V30 3701 N 350.31 0.590341 -1.46126 0
M  V30 3702 C 351.556 1.35082 -1.51264 0
M  V30 3703 C 351.889 1.93534 -0.160711 0
M  V30 3704 O 351.164 1.76045 0.826956 0
M  V30 3705 C 351.447 2.48588 -2.6053 0
M  V30 3706 C 351.3 1.95221 -4.05227 0
M  V30 3707 C 352.619 3.50662 -2.6594 0
M  V30 3708 H 349.738 0.489803 -0.550692 0
M  V30 3709 H 352.38 0.663887 -1.78024 0
M  V30 3710 H 350.53 3.07186 -2.37843 0
M  V30 3711 H 352.202 1.41139 -4.39178 0
M  V30 3712 H 350.445 1.26101 -4.15068 0
M  V30 3713 H 351.116 2.77121 -4.77397 0
M  V30 3714 H 353.592 3.01934 -2.86313 0
M  V30 3715 H 352.468 4.27551 -3.44226 0
M  V30 3716 H 352.729 4.07399 -1.71694 0
M  V30 3717 N 351.788 1.33704 0.83433 0
M  V30 3718 C 353.028 1.26754 1.60352 0
M  V30 3719 C 353.392 -0.163182 1.91305 0
M  V30 3720 O 354.593 -0.3567 2.66423 0
M  V30 3721 C 352.864 2.12262 2.8754 0
M  V30 3722 S 354.423 2.22549 3.78176 0
M  V30 3723 H 351.241 0.450879 0.549753 0
M  V30 3724 H 353.843 1.68788 0.986444 0
M  V30 3725 H 352.547 3.15238 2.62779 0
M  V30 3726 H 352.078 1.71082 3.54252 0
M  V30 3727 H 354.093 1.3899 4.76336 0
M  V30 3728 N 353.266 -1.05314 1.17247 0
M  V30 3729 C 354.543 -1.75184 0.87005 0
M  V30 3730 C 354.923 -2.01481 -0.629965 0
M  V30 3731 O 354.271 -1.64988 -1.58086 0
M  V30 3732 C 354.481 -3.04594 1.70363 0
M  V30 3733 C 355.829 -3.78567 1.92281 0
M  V30 3734 O 356.853 -3.14461 1.67311 0
M  V30 3735 O 355.712 -4.93755 2.3424 0
M  V30 3736 H 352.806 -0.761729 0.322021 0
M  V30 3737 H 355.352 -1.11493 1.27935 0
M  V30 3738 H 354.124 -2.81201 2.72106 0
M  V30 3739 H 353.747 -3.76022 1.29202 0
M  V30 3740 N 354.744 -0.972509 -1.24016 0
M  V30 3741 C 355.654 -0.5143 -2.28893 0
M  V30 3742 C 356.67 0.427078 -1.68677 0
M  V30 3743 O 357.846 0.298939 -1.99169 0
M  V30 3744 C 354.911 0.183598 -3.46214 0
M  V30 3745 C 353.972 -0.798202 -4.21814 0
M  V30 3746 C 353.205 -0.133514 -5.33533 0
M  V30 3747 O 353.428 1.07714 -5.60137 0
M  V30 3748 O 352.362 -0.828103 -5.96176 0
M  V30 3749 H 356.188 -1.38629 -2.70214 0
M  V30 3750 H 353.773 -0.739769 -1.29799 0
M  V30 3751 H 355.655 0.575433 -4.17453 0
M  V30 3752 H 354.33 1.03048 -3.0686 0
M  V30 3753 H 353.237 -1.24059 -3.52931 0
M  V30 3754 H 354.57 -1.61364 -4.64997 0
M  V30 3755 N 356.222 1.38976 -0.743202 0
M  V30 3756 C 357.633 1.83123 -0.363732 0
M  V30 3757 C 357.984 1.6205 1.10609 0
M  V30 3758 O 357.109 1.11606 1.854 0
M  V30 3759 C 357.704 3.32439 -0.653408 0
M  V30 3760 C 356.263 3.74974 -0.327338 0
M  V30 3761 C 355.41 2.61878 -0.911875 0
M  V30 3762 H 358.361 1.27852 -0.940191 0
M  V30 3763 H 358.382 3.80432 0.0720031 0
M  V30 3764 H 357.894 3.47745 -1.72323 0
M  V30 3765 H 355.995 3.65252 0.736314 0
M  V30 3766 H 356.108 4.72106 -0.815631 0
M  V30 3767 H 354.472 2.52448 -0.337944 0
M  V30 3768 H 355.255 2.79987 -1.98651 0
M  V30 3769 N 357.7 0.491464 1.49741 0
M  V30 3770 C 358.925 -0.0557177 2.07325 0
M  V30 3771 C 359.35 -1.30925 1.35056 0
M  V30 3772 O 358.708 -1.76733 0.404365 0
M  V30 3773 C 358.756 -0.302074 3.59333 0
M  V30 3774 O 357.86 -1.37868 3.88672 0
M  V30 3775 H 357.201 0.0219956 0.663636 0
M  V30 3776 H 359.731 0.688352 1.92673 0
M  V30 3777 H 359.741 -0.536464 4.04458 0
M  V30 3778 H 358.416 0.61383 4.11345 0
M  V30 3779 H 356.993 -1.12999 3.55367 0
M  V30 3780 N 359.178 -1.55987 0.224894 0
M  V30 3781 C 360.406 -2.02784 -0.410665 0
M  V30 3782 C 360.821 -1.10464 -1.53112 0
M  V30 3783 O 360.178 -0.114871 -1.82138 0
M  V30 3784 C 360.229 -3.49087 -0.939165 0
M  V30 3785 O 359.95 -4.37887 0.136614 0
M  V30 3786 C 361.451 -4.11543 -1.64763 0
M  V30 3787 H 358.671 -0.663484 -0.100148 0
M  V30 3788 H 361.215 -2.01614 0.342326 0
M  V30 3789 H 359.37 -3.50861 -1.64242 0
M  V30 3790 H 359.784 -5.23849 -0.261155 0
M  V30 3791 H 361.258 -5.15673 -1.96939 0
M  V30 3792 H 361.735 -3.56736 -2.56195 0
M  V30 3793 H 362.341 -4.13629 -0.989503 0
M  V30 3794 N 360.656 0.0484629 -1.57525 0
M  V30 3795 C 361.589 1.08755 -2.00618 0
M  V30 3796 C 362.567 1.36272 -0.887058 0
M  V30 3797 O 363.751 1.49255 -1.15131 0
M  V30 3798 C 360.878 2.42675 -2.36277 0
M  V30 3799 C 359.924 2.31142 -3.58435 0
M  V30 3800 S 360.757 1.68326 -5.08357 0
M  V30 3801 C 361.913 3.03776 -5.47239 0
M  V30 3802 H 362.146 0.720415 -2.88439 0
M  V30 3803 H 359.679 0.257801 -1.52233 0
M  V30 3804 H 361.637 3.19699 -2.57494 0
M  V30 3805 H 360.298 2.76541 -1.48942 0
M  V30 3806 H 359.491 3.29957 -3.80978 0
M  V30 3807 H 359.093 1.62258 -3.36969 0
M  V30 3808 H 361.385 4.00106 -5.46737 0
M  V30 3809 H 362.328 2.85988 -6.47778 0
M  V30 3810 H 362.736 3.05456 -4.74718 0
M  V30 3811 N 362.134 1.5431 0.320358 0
M  V30 3812 C 363.044 1.86946 1.41734 0
M  V30 3813 C 364.06 0.761689 1.56443 0
M  V30 3814 O 365.236 1.05629 1.71477 0
M  V30 3815 C 362.301 2.09293 2.76401 0
M  V30 3816 C 361.362 3.33082 2.70841 0
M  V30 3817 C 360.595 3.54353 3.99086 0
M  V30 3818 O 360.818 2.79002 4.97508 0
M  V30 3819 O 359.752 4.47838 4.0215 0
M  V30 3820 H 363.578 2.80232 1.17062 0
M  V30 3821 H 361.163 1.40255 0.514673 0
M  V30 3822 H 363.045 2.25303 3.56113 0
M  V30 3823 H 361.72 1.19194 3.00956 0
M  V30 3824 H 360.627 3.22454 1.89668 0
M  V30 3825 H 361.96 4.23249 2.5124 0
M  V30 3826 N 363.613 -0.582584 1.46437 0
M  V30 3827 C 364.543 -1.70187 1.59871 0
M  V30 3828 C 365.524 -1.64066 0.449042 0
M  V30 3829 O 366.709 -1.82081 0.6753 0
M  V30 3830 C 363.839 -3.08827 1.58881 0
M  V30 3831 C 362.793 -3.29779 2.72819 0
M  V30 3832 C 362.119 -4.68947 2.5689 0
M  V30 3833 C 363.419 -3.17601 4.1464 0
M  V30 3834 H 365.113 -1.592 2.53566 0
M  V30 3835 H 362.659 -0.764472 1.22032 0
M  V30 3836 H 364.612 -3.86951 1.66873 0
M  V30 3837 H 363.336 -3.20713 0.617306 0
M  V30 3838 H 361.995 -2.54054 2.64296 0
M  V30 3839 H 361.643 -4.77599 1.57823 0
M  V30 3840 H 361.343 -4.83919 3.33312 0
M  V30 3841 H 362.867 -5.4924 2.66773 0
M  V30 3842 H 364.281 -3.8557 4.24274 0
M  V30 3843 H 362.678 -3.44094 4.9165 0
M  V30 3844 H 363.748 -2.14681 4.34788 0
M  V30 3845 N 365.091 -1.34144 -0.827227 0
M  V30 3846 C 366.038 -1.25364 -1.93785 0
M  V30 3847 C 367.008 -0.129774 -1.65592 0
M  V30 3848 O 368.193 -0.310024 -1.88264 0
M  V30 3849 C 365.333 -1.01064 -3.2997 0
M  V30 3850 C 364.446 -2.22185 -3.70484 0
M  V30 3851 C 363.581 -1.91203 -4.95595 0
M  V30 3852 C 362.62 -3.08491 -5.28677 0
M  V30 3853 N 361.757 -2.77421 -6.44967 0
M  V30 3854 H 366.597 -2.20347 -2.00627 0
M  V30 3855 H 364.134 -1.09558 -0.981608 0
M  V30 3856 H 366.092 -0.850139 -4.08446 0
M  V30 3857 H 364.722 -0.0975026 -3.22653 0
M  V30 3858 H 363.774 -2.4917 -2.87434 0
M  V30 3859 H 365.086 -3.0983 -3.90905 0
M  V30 3860 H 364.24 -1.71864 -5.81848 0
M  V30 3861 H 362.979 -1.00812 -4.77167 0
M  V30 3862 H 361.984 -3.28431 -4.40923 0
M  V30 3863 H 363.209 -3.99655 -5.49047 0
M  V30 3864 H 361.155 -1.89601 -6.28003 0
M  V30 3865 H 361.072 -3.58598 -6.6554 0
M  V30 3866 H 362.34 -2.61577 -7.34301 0
M  V30 3867 N 366.569 1.04691 -1.17803 0
M  V30 3868 C 367.815 1.78045 -0.970969 0
M  V30 3869 C 368.148 1.87686 0.498751 0
M  V30 3870 O 367.423 1.38035 1.37027 0
M  V30 3871 C 367.706 3.2166 -1.61884 0
M  V30 3872 C 367.559 3.20001 -3.161 0
M  V30 3873 C 368.878 4.1962 -1.3269 0
M  V30 3874 H 365.997 0.64633 -0.354155 0
M  V30 3875 H 368.639 1.22333 -1.45378 0
M  V30 3876 H 366.789 3.69232 -1.20831 0
M  V30 3877 H 368.461 2.80467 -3.66246 0
M  V30 3878 H 366.704 2.58203 -3.48588 0
M  V30 3879 H 367.375 4.21386 -3.56564 0
M  V30 3880 H 369.851 3.80567 -1.68249 0
M  V30 3881 H 368.727 5.18339 -1.80599 0
M  V30 3882 H 368.988 4.414 -0.248622 0
M  V30 3883 N 368.047 0.979072 1.23499 0
M  V30 3884 C 368.994 0.517904 2.24914 0
M  V30 3885 C 369.964 -0.442525 1.60097 0
M  V30 3886 O 371.149 -0.350365 1.87556 0
M  V30 3887 C 368.289 -0.174813 3.44657 0
M  V30 3888 C 367.402 0.825721 4.24035 0
M  V30 3889 C 366.537 0.107946 5.3109 0
M  V30 3890 C 365.576 1.09778 6.02175 0
M  V30 3891 N 364.713 0.40925 7.00906 0
M  V30 3892 H 369.553 1.38751 2.63727 0
M  V30 3893 H 367.09 0.695303 1.2963 0
M  V30 3894 H 369.048 -0.593233 4.12961 0
M  V30 3895 H 367.678 -1.0083 3.06648 0
M  V30 3896 H 366.73 1.36253 3.55161 0
M  V30 3897 H 368.042 1.58005 4.73113 0
M  V30 3898 H 367.196 -0.367904 6.05583 0
M  V30 3899 H 365.935 -0.678994 4.8295 0
M  V30 3900 H 364.94 1.5844 5.26476 0
M  V30 3901 H 366.165 1.88536 6.52404 0
M  V30 3902 H 364.111 -0.358506 6.5502 0
M  V30 3903 H 364.028 1.10226 7.47921 0
M  V30 3904 H 365.296 -0.0442557 7.79487 0
M  V30 3905 N 369.525 -1.3858 0.750561 0
M  V30 3906 C 370.753 -2.04471 0.316098 0
M  V30 3907 C 371.168 -1.56606 -1.05452 0
M  V30 3908 O 370.525 -0.737784 -1.66922 0
M  V30 3909 C 370.576 -3.60025 0.326275 0
M  V30 3910 O 370.297 -4.06133 1.6428 0
M  V30 3911 C 371.798 -4.43131 -0.122429 0
M  V30 3912 H 369.018 -0.65717 0.135528 0
M  V30 3913 H 371.562 -1.77329 1.01857 0
M  V30 3914 H 369.717 -3.86014 -0.327431 0
M  V30 3915 H 370.131 -5.00547 1.56693 0
M  V30 3916 H 371.605 -5.51963 -0.0641473 0
M  V30 3917 H 372.082 -4.23333 -1.16988 0
M  V30 3918 H 372.688 -4.22323 0.50229 0
M  V30 3919 N 371.003 -0.499398 -1.49478 0
M  V30 3920 C 371.933 0.269244 -2.31943 0
M  V30 3921 C 372.914 0.964054 -1.40143 0
M  V30 3922 O 374.099 0.955767 -1.69052 0
M  V30 3923 C 371.229 1.33504 -3.20615 0
M  V30 3924 C 370.183 0.760202 -4.21195 0
M  V30 3925 C 369.509 1.9264 -4.98792 0
M  V30 3926 C 370.809 -0.247661 -5.21712 0
M  V30 3927 H 372.503 -0.419082 -2.96452 0
M  V30 3928 H 370.049 -0.202988 -1.42562 0
M  V30 3929 H 372.002 1.88048 -3.77115 0
M  V30 3930 H 370.726 2.05253 -2.54045 0
M  V30 3931 H 369.385 0.23653 -3.65836 0
M  V30 3932 H 369.033 2.63154 -4.28671 0
M  V30 3933 H 368.733 1.54785 -5.66847 0
M  V30 3934 H 370.257 2.4762 -5.58137 0
M  V30 3935 H 371.671 0.209579 -5.72917 0
M  V30 3936 H 370.068 -0.541962 -5.97648 0
M  V30 3937 H 371.138 -1.16409 -4.7072 0
M  V30 3938 N 372.481 1.55866 -0.233164 0
M  V30 3939 C 373.897 1.59133 0.121988 0
M  V30 3940 C 374.097 1.25016 1.58029 0
M  V30 3941 O 373.153 0.990922 2.32243 0
M  V30 3942 C 374.466 2.99932 -0.214792 0
M  V30 3943 C 376.014 3.12601 -0.157971 0
M  V30 3944 C 376.489 4.55597 -0.46859 0
M  V30 3945 N 377.98 4.61305 -0.418585 0
M  V30 3946 C 378.715 5.69903 -0.63227 0
M  V30 3947 N 378.211 6.86819 -0.90835 0
M  V30 3948 N 380.004 5.59264 -0.563913 0
M  V30 3949 H 372.155 1.76315 -1.18434 0
M  V30 3950 H 374.418 0.820093 -0.475553 0
M  V30 3951 H 374.124 3.29588 -1.22739 0
M  V30 3952 H 373.998 3.74327 0.464691 0
M  V30 3953 H 376.385 2.82735 0.845283 0
M  V30 3954 H 376.466 2.40511 -0.871102 0
M  V30 3955 H 376.11 4.86182 -1.46934 0
M  V30 3956 H 376.04 5.25928 0.265865 0
M  V30 3957 H 378.531 3.77297 -0.213368 0
M  V30 3958 H 378.844 7.65507 -1.05919 0
M  V30 3959 H 377.189 6.88536 -0.945673 0
M  V30 3960 H 380.38 4.66802 -0.348372 0
M  V30 3961 H 380.553 6.43831 -0.733847 0
M  V30 3962 N 373.959 -0.0401083 1.57549 0
M  V30 3963 C 375.189 -0.744115 1.92734 0
M  V30 3964 C 375.597 -1.70005 0.830348 0
M  V30 3965 O 374.94 -1.82576 -0.20286 0
M  V30 3966 C 375.002 -1.56516 3.2364 0
M  V30 3967 C 374.666 -0.7752 4.50377 0
M  V30 3968 C 375.663 -0.0803326 5.19838 0
M  V30 3969 C 373.348 -0.733002 4.96923 0
M  V30 3970 C 375.342 0.646154 6.34116 0
M  V30 3971 C 373.029 -0.00276321 6.111 0
M  V30 3972 C 374.027 0.685585 6.7955 0
M  V30 3973 O 373.715 1.40399 7.91545 0
M  V30 3974 H 373.447 -0.214861 0.640945 0
M  V30 3975 H 376.001 -0.00503675 2.05399 0
M  V30 3976 H 374.231 -2.3478 3.07271 0
M  V30 3977 H 375.92 -2.15076 3.44234 0
M  V30 3978 H 376.686 -0.104035 4.84888 0
M  V30 3979 H 372.565 -1.25827 4.43496 0
M  V30 3980 H 376.109 1.18398 6.87479 0
M  V30 3981 H 372.006 0.0229012 6.45496 0
M  V30 3982 H 372.774 1.31653 8.07843 0
M  V30 3983 N 375.437 -1.54477 -0.31217 0
M  V30 3984 C 376.684 -1.73227 -1.04875 0
M  V30 3985 C 377.012 -0.512042 -1.87639 0
M  V30 3986 O 376.267 0.506131 -1.89042 0
M  V30 3987 C 376.566 -2.967 -1.99258 0
M  V30 3988 C 376.232 -4.30974 -1.32559 0
M  V30 3989 C 374.894 -4.67477 -1.141 0
M  V30 3990 C 377.246 -5.14258 -0.847835 0
M  V30 3991 C 374.574 -5.84852 -0.465326 0
M  V30 3992 C 376.926 -6.32327 -0.185931 0
M  V30 3993 C 375.59 -6.67499 0.0107077 0
M  V30 3994 H 374.86 -0.633881 -0.383765 0
M  V30 3995 H 377.507 -1.88727 -0.324731 0
M  V30 3996 H 375.812 -2.75935 -2.7815 0
M  V30 3997 H 377.509 -3.08401 -2.563 0
M  V30 3998 H 374.099 -4.02262 -1.4793 0
M  V30 3999 H 378.283 -4.86565 -0.978192 0
M  V30 4000 H 373.539 -6.10654 -0.301883 0
M  V30 4001 H 377.713 -6.96135 0.192211 0
M  V30 4002 H 375.34 -7.58306 0.536287 0
M  V30 4003 N 376.915 0.57481 -1.46744 0
M  V30 4004 C 377.863 1.70435 -1.58286 0
M  V30 4005 C 378.857 1.63287 -0.450956 0
M  V30 4006 O 380.063 1.68685 -0.628121 0
M  V30 4007 H 376.438 0.56364 -0.497809 0
M  V30 4008 H 378.409 1.57833 -2.53242 0
M  V30 4009 C 377.158 3.08815 -1.59776 0
M  V30 4010 H 376.481 3.1499 -2.46214 0
M  V30 4011 H 377.921 3.87588 -1.71905 0
M  V30 4012 C 376.38 3.35301 -0.327812 0
M  V30 4013 O 376.91 3.97511 0.57861 0
M  V30 4014 N 375.116 2.89816 -0.213274 0
M  V30 4015 H 374.663 2.39371 -0.951798 0
M  V30 4016 H 374.621 3.0791 0.63553 0
M  V30 4017 N 378.394 1.34581 0.820102 0
M  V30 4018 C 379.304 1.28471 1.96297 0
M  V30 4019 C 380.32 0.191902 1.72939 0
M  V30 4020 O 381.496 0.418879 1.96996 0
M  V30 4021 C 378.561 1.04281 3.30645 0
M  V30 4022 C 377.622 2.22745 3.66992 0
M  V30 4023 C 376.855 1.997 4.9493 0
M  V30 4024 O 377.078 0.956656 5.6232 0
M  V30 4025 O 376.012 2.86723 5.2922 0
M  V30 4026 H 379.838 2.24624 2.04396 0
M  V30 4027 H 377.423 1.14816 0.955913 0
M  V30 4028 H 379.305 0.925841 4.11104 0
M  V30 4029 H 377.98 0.111697 3.23507 0
M  V30 4030 H 376.887 2.40003 2.86966 0
M  V30 4031 H 378.22 3.14257 3.78819 0
M  V30 4032 N 379.872 -1.04064 1.18357 0
M  V30 4033 C 380.802 -2.14001 0.934113 0
M  V30 4034 C 381.783 -1.69616 -0.128186 0
M  V30 4035 O 382.968 -1.94185 0.0244093 0
M  V30 4036 C 380.098 -3.44253 0.459066 0
M  V30 4037 C 379.052 -4.02261 1.46185 0
M  V30 4038 C 378.378 -5.27992 0.844322 0
M  V30 4039 C 379.678 -4.38432 2.83856 0
M  V30 4040 H 381.372 -2.35127 1.85352 0
M  V30 4041 H 378.918 -1.12998 0.892604 0
M  V30 4042 H 380.871 -4.20522 0.271907 0
M  V30 4043 H 379.595 -3.22813 -0.495912 0
M  V30 4044 H 378.254 -3.28074 1.63595 0
M  V30 4045 H 377.902 -5.02862 -0.117845 0
M  V30 4046 H 377.602 -5.67765 1.51384 0
M  V30 4047 H 379.126 -6.06938 0.667693 0
M  V30 4048 H 380.54 -5.05688 2.70098 0
M  V30 4049 H 378.937 -4.89254 3.47491 0
M  V30 4050 H 380.007 -3.4826 3.37406 0
M  V30 4051 N 381.35 -0.985608 -1.22978 0
M  V30 4052 C 382.26 -0.538548 -2.28335 0
M  V30 4053 C 383.276 0.409163 -1.69121 0
M  V30 4054 O 384.452 0.277797 -1.99475 0
M  V30 4055 C 381.517 0.146867 -3.46389 0
M  V30 4056 C 380.578 -0.842896 -4.20944 0
M  V30 4057 C 379.811 -0.190095 -5.33361 0
M  V30 4058 O 380.034 1.01767 -5.61248 0
M  V30 4059 O 378.968 -0.891289 -5.95264 0
M  V30 4060 H 382.794 -1.41487 -2.68729 0
M  V30 4061 H 380.379 -0.753495 -1.29007 0
M  V30 4062 H 382.261 0.531125 -4.1804 0
M  V30 4063 H 380.936 0.997871 -3.07935 0
M  V30 4064 H 379.843 -1.27795 -3.51595 0
M  V30 4065 H 381.176 -1.66287 -4.6326 0
M  V30 4066 N 382.828 1.3818 -0.7579 0
M  V30 4067 C 383.791 2.28764 -0.141286 0
M  V30 4068 C 384.791 1.47388 0.642907 0
M  V30 4069 O 385.981 1.67781 0.468536 0
M  V30 4070 C 383.113 3.31184 0.808069 0
M  V30 4071 H 384.306 2.848 -0.939633 0
M  V30 4072 H 381.859 1.47212 -0.525191 0
M  V30 4073 H 382.594 2.80247 1.63193 0
M  V30 4074 H 382.379 3.91314 0.248104 0
M  V30 4075 H 383.869 3.98909 1.23536 0
M  V30 4076 N 384.306 0.507319 1.49211 0
M  V30 4077 C 385.216 -0.272136 2.33016 0
M  V30 4078 C 386.232 -0.961206 1.45041 0
M  V30 4079 O 387.408 -0.941191 1.78055 0
M  V30 4080 C 384.473 -1.31895 3.20631 0
M  V30 4081 C 383.534 -0.642648 4.24463 0
M  V30 4082 C 382.767 -1.63959 5.07891 0
M  V30 4083 O 382.99 -2.87007 4.92933 0
M  V30 4084 O 381.924 -1.19143 5.8999 0
M  V30 4085 H 385.75 0.413982 3.00865 0
M  V30 4086 H 383.335 0.268556 1.46966 0
M  V30 4087 H 385.217 -1.92446 3.7489 0
M  V30 4088 H 383.892 -1.98788 2.5547 0
M  V30 4089 H 382.799 0.00276252 3.741 0
M  V30 4090 H 384.132 -0.0160534 4.92197 0
M  V30 4091 N 385.784 -1.5574 0.241426 0
M  V30 4092 C 386.732 -2.22538 -0.676718 0
M  V30 4093 C 387.726 -1.21117 -1.18436 0
M  V30 4094 O 388.932 -1.39144 -1.14188 0
M  V30 4095 H 385.307 -0.713776 -0.236701 0
M  V30 4096 H 387.278 -2.98264 -0.0901187 0
M  V30 4097 C 386.027 -2.93439 -1.86518 0
M  V30 4098 H 385.35 -3.7125 -1.4837 0
M  V30 4099 H 386.79 -3.43549 -2.48495 0
M  V30 4100 C 385.249 -1.97008 -2.73294 0
M  V30 4101 O 385.779 -1.49965 -3.72657 0
M  V30 4102 N 383.985 -1.64227 -2.39745 0
M  V30 4103 H 383.532 -2.02677 -1.58996 0
M  V30 4104 H 383.49 -0.999708 -2.98083 0
M  V30 4105 N 387.262 0.0317525 -1.57568 0
M  V30 4106 C 388.511 0.722131 -1.8833 0
M  V30 4107 C 388.824 1.76664 -0.839587 0
M  V30 4108 O 390.03 2.50942 -1.03635 0
M  V30 4109 C 388.486 1.33544 -3.34207 0
M  V30 4110 C 388.094 0.327415 -4.46802 0
M  V30 4111 C 389.838 2.00585 -3.7412 0
M  V30 4112 C 387.745 0.948915 -5.83738 0
M  V30 4113 H 386.675 0.273466 -0.702661 0
M  V30 4114 H 389.326 -0.0235811 -1.83485 0
M  V30 4115 H 387.708 2.13077 -3.33788 0
M  V30 4116 H 388.882 -0.441006 -4.58685 0
M  V30 4117 H 387.197 -0.240758 -4.15703 0
M  V30 4118 H 389.794 2.47932 -4.73744 0
M  V30 4119 H 390.137 2.82285 -3.05975 0
M  V30 4120 H 390.67 1.27831 -3.76702 0
M  V30 4121 H 387.409 0.171387 -6.55276 0
M  V30 4122 H 386.929 1.68724 -5.7558 0
M  V30 4123 H 388.608 1.45705 -6.3038 0
M  V30 4124 N 388.74 1.54641 0.303973 0
M  V30 4125 C 389.687 1.85386 1.37479 0
M  V30 4126 C 390.657 0.702528 1.50512 0
M  V30 4127 O 391.842 0.950867 1.65418 0
M  V30 4128 C 388.982 2.10413 2.73533 0
M  V30 4129 C 388.095 3.38049 2.68974 0
M  V30 4130 C 387.23 3.52934 3.97002 0
M  V30 4131 C 386.269 4.74373 3.86829 0
M  V30 4132 N 385.406 4.8608 5.06627 0
M  V30 4133 H 390.246 2.76732 1.1056 0
M  V30 4134 H 387.783 1.37034 0.534805 0
M  V30 4135 H 389.741 2.22919 3.52652 0
M  V30 4136 H 388.371 1.22338 2.98719 0
M  V30 4137 H 387.423 3.3418 1.81736 0
M  V30 4138 H 388.735 4.27288 2.57346 0
M  V30 4139 H 387.889 3.65088 4.84557 0
M  V30 4140 H 386.628 2.61824 4.1146 0
M  V30 4141 H 385.633 4.62255 2.97658 0
M  V30 4142 H 386.858 5.66888 3.73918 0
M  V30 4143 H 384.804 3.97891 5.21554 0
M  V30 4144 H 384.721 5.69315 4.9741 0
M  V30 4145 H 385.989 5.02587 5.95841 0
M  V30 4146 N 390.218 -0.567019 1.47046 0
M  V30 4147 C 391.466 -1.322 1.52864 0
M  V30 4148 C 391.787 -1.94088 0.188388 0
M  V30 4149 O 391.057 -1.7941 -0.786693 0
M  V30 4150 H 389.637 -0.490894 0.563056 0
M  V30 4151 H 392.299 -0.662879 1.83281 0
M  V30 4152 H 391.395 -2.12062 2.2899 0
M  V30 4153 N 391.696 -1.35014 -0.812953 0
M  V30 4154 C 392.626 -1.30069 -1.93919 0
M  V30 4155 C 393.607 -0.176275 -1.69184 0
M  V30 4156 O 394.792 -0.370227 -1.90638 0
M  V30 4157 C 391.922 -1.06547 -3.30552 0
M  V30 4158 C 390.876 -2.15561 -3.69753 0
M  V30 4159 C 390.202 -1.77214 -5.04479 0
M  V30 4160 C 391.502 -3.57476 -3.808 0
M  V30 4161 H 393.196 -2.24303 -1.98314 0
M  V30 4162 H 390.742 -1.07977 -0.952736 0
M  V30 4163 H 392.695 -1.01729 -4.08937 0
M  V30 4164 H 391.419 -0.0875719 -3.26483 0
M  V30 4165 H 390.078 -2.19466 -2.9365 0
M  V30 4166 H 389.726 -0.780589 -4.96906 0
M  V30 4167 H 389.426 -2.50184 -5.31678 0
M  V30 4168 H 390.95 -1.7391 -5.8531 0
M  V30 4169 H 392.364 -3.55929 -4.4943 0
M  V30 4170 H 390.761 -4.29152 -4.19462 0
M  V30 4171 H 391.831 -3.94091 -2.82525 0
M  V30 4172 O 393.213 0.951708 -1.30479 0
M  V30 4173 H 393.904 1.58029 -1.12012 0
M  V30 END ATOM
M  V30 BEGIN BOND
M  V30 END BOND
M  V30 END CTAB
M  END
$$$$
