drugbank_target|P0A7W7 30S ribosomal protein S8 (DB00759; DB09093; DB12455)
 OpenBabel12092120573D

  0  0  0     0  0            999 V3000
M  V30 BEGIN CTAB
M  V30 COUNTS 2030 2040 0 0 0
M  V30 BEGIN ATOM
M  V30 1 H -0.908 1.98254 -0.117106 0
M  V30 2 N 0 1.576 0 0
M  V30 3 C 0.933 2.03868 1.02534 0
M  V30 4 C 1.911 0.928543 1.3348 0
M  V30 5 O 3.095 1.19667 1.45644 0
M  V30 6 C 0.222 2.43627 2.35294 0
M  V30 7 C -0.732 3.65373 2.2001 0
M  V30 8 S 0.101 5.13292 1.52614 0
M  V30 9 C 1.257 5.56322 2.86805 0
M  V30 10 H 1.49 2.90518 0.631377 0
M  V30 11 H -0.977 1.52953 0.210867 0
M  V30 12 H 0.981 2.67203 3.11629 0
M  V30 13 H -0.358 1.57376 2.7183 0
M  V30 14 H -1.165 3.90944 3.18086 0
M  V30 15 H -1.563 3.418 1.51819 0
M  V30 16 H 0.729 5.58782 3.83104 0
M  V30 17 H 1.672 6.56266 2.65933 0
M  V30 18 H 2.08 4.83886 2.90714 0
M  V30 19 N 1.4781 -0.272755 1.55222 0
M  V30 20 C 2.7031 -1.02683 1.80197 0
M  V30 21 C 3.1281 -1.79142 0.573551 0
M  V30 22 O 2.4861 -1.74917 -0.476849 0
M  V30 23 C 2.5341 -1.9609 3.02624 0
M  V30 24 O 1.6381 -3.04863 2.77727 0
M  V30 25 H 0.9791 -0.293557 0.595584 0
M  V30 26 H 3.5091 -0.30159 2.02365 0
M  V30 27 H 3.5191 -2.38039 3.31363 0
M  V30 28 H 2.1941 -1.39851 3.91682 0
M  V30 29 H 0.7711 -2.67228 2.60084 0
M  V30 30 N 2.9562 -1.48159 -0.537278 0
M  V30 31 C 3.8892 -1.567 -1.65893 0
M  V30 32 C 4.8672 -0.41787 -1.57139 0
M  V30 33 O 6.0512 -0.628461 -1.77715 0
M  V30 34 C 3.1782 -1.48818 -3.04255 0
M  V30 35 C 2.2242 -2.68482 -3.31391 0
M  V30 36 S 3.0572 -4.30516 -3.1846 0
M  V30 37 C 4.2132 -4.2522 -4.59281 0
M  V30 38 H 4.4462 -2.5159 -1.58397 0
M  V30 39 H 1.9792 -1.36602 -0.719672 0
M  V30 40 H 3.9372 -1.44958 -3.84054 0
M  V30 41 H 2.5982 -0.552777 -3.09198 0
M  V30 42 H 1.7912 -2.59085 -4.32309 0
M  V30 43 H 1.3932 -2.69567 -2.59248 0
M  V30 44 H 3.6852 -3.94703 -5.5065 0
M  V30 45 H 4.6282 -5.26292 -4.73732 0
M  V30 46 H 5.0362 -3.55791 -4.38261 0
M  V30 47 N 4.4343 0.785586 -1.36625 0
M  V30 48 C 5.3663 1.90711 -1.2713 0
M  V30 49 C 6.3793 1.61688 -0.189986 0
M  V30 50 O 7.5683 1.72864 -0.445014 0
M  V30 51 C 4.6683 3.25611 -0.939713 0
M  V30 52 C 3.8413 3.82385 -2.12369 0
M  V30 53 C 2.9003 4.95732 -1.76456 0
M  V30 54 O 1.9263 5.12047 -2.48589 0
M  V30 55 N 3.1283 5.76258 -0.700492 0
M  V30 56 H 5.8933 1.99376 -2.23762 0
M  V30 57 H 3.4543 0.964041 -1.30069 0
M  V30 58 H 5.4463 3.98937 -0.680554 0
M  V30 59 H 4.0163 3.12538 -0.0624074 0
M  V30 60 H 3.2363 3.01001 -2.54543 0
M  V30 61 H 4.5243 4.17047 -2.9146 0
M  V30 62 H 3.9223 5.65609 -0.101624 0
M  V30 63 H 2.4793 6.4987 -0.501165 0
M  V30 64 N 5.9124 1.20967 1.01018 0
M  V30 65 C 7.1894 0.93264 1.71934 0
M  V30 66 C 7.5694 -0.55692 2.03621 0
M  V30 67 O 6.9174 -1.52035 1.7058 0
M  V30 68 C 7.1274 1.81233 2.98254 0
M  V30 69 C 8.4754 2.05804 3.71389 0
M  V30 70 O 9.4994 1.78539 3.08225 0
M  V30 71 O 8.3584 2.51888 4.84989 0
M  V30 72 H 5.4524 0.349272 0.749625 0
M  V30 73 H 7.9984 1.31871 1.06808 0
M  V30 74 H 6.7704 2.82067 2.71208 0
M  V30 75 H 6.3934 1.42674 3.7112 0
M  V30 76 N 7.3905 -1.2043 1.01659 0
M  V30 77 C 8.8015 -1.71517 0.737482 0
M  V30 78 C 9.1525 -1.81547 -0.743973 0
M  V30 79 O 8.2775 -1.47803 -1.58061 0
M  V30 80 C 8.8725 -3.11515 1.33206 0
M  V30 81 C 7.4315 -3.59912 1.10183 0
M  V30 82 C 6.5785 -2.37116 1.43776 0
M  V30 83 H 9.5295 -1.05444 1.18606 0
M  V30 84 H 9.5505 -3.73575 0.722636 0
M  V30 85 H 9.0625 -3.04182 2.41028 0
M  V30 86 H 7.1635 -3.72577 0.0412756 0
M  V30 87 H 7.2765 -4.44731 1.78188 0
M  V30 88 H 5.6405 -2.39857 0.856778 0
M  V30 89 H 6.4235 -2.32424 2.52654 0
M  V30 90 N 8.8686 -0.792821 -1.36206 0
M  V30 91 C 10.1176 -0.363353 -1.984 0
M  V30 92 C 10.4306 1.07172 -1.63626 0
M  V30 93 O 11.6366 1.60362 -2.19081 0
M  V30 94 C 10.0926 -0.59872 -3.54885 0
M  V30 95 C 9.7006 -2.04543 -3.9858 0
M  V30 96 C 11.4446 -0.233926 -4.23855 0
M  V30 97 C 9.3516 -2.22727 -5.47856 0
M  V30 98 H 8.2816 -0.13212 -0.742334 0
M  V30 99 H 10.9326 -0.974935 -1.55458 0
M  V30 100 H 9.3146 0.0826222 -3.95914 0
M  V30 101 H 10.4886 -2.76345 -3.68741 0
M  V30 102 H 8.8036 -2.36879 -3.42458 0
M  V30 103 H 11.4006 -0.348027 -5.33566 0
M  V30 104 H 11.7436 0.818351 -4.08177 0
M  V30 105 H 12.2766 -0.868639 -3.882 0
M  V30 106 H 9.0156 -3.2635 -5.68486 0
M  V30 107 H 8.5356 -1.55434 -5.7931 0
M  V30 108 H 10.2146 -2.03607 -6.14128 0
M  V30 109 N 10.3467 1.47872 -0.545128 0
M  V30 110 C 11.3097 2.28337 0.198717 0
M  V30 111 C 12.3097 1.36255 0.853888 0
M  V30 112 O 13.4997 1.59003 0.711606 0
M  V30 113 C 10.6317 3.15585 1.28915 0
M  V30 114 H 11.8247 2.95567 -0.507941 0
M  V30 115 H 9.3777 1.53362 -0.301616 0
M  V30 116 H 10.1127 2.53019 2.02859 0
M  V30 117 H 9.8977 3.83337 0.824309 0
M  V30 118 H 11.3877 3.76243 1.81194 0
M  V30 119 N 11.8248 0.280983 1.55075 0
M  V30 120 C 13.1018 -0.386207 1.91749 0
M  V30 121 C 13.4818 -1.73264 1.20594 0
M  V30 122 O 12.8298 -2.26034 0.334784 0
M  V30 123 C 13.0398 -0.520687 3.45094 0
M  V30 124 C 14.3878 -0.800865 4.16979 0
M  V30 125 O 15.4118 -0.605271 3.5102 0
M  V30 126 O 14.2708 -1.1753 5.33712 0
M  V30 127 H 11.3648 -0.212408 0.799257 0
M  V30 128 H 13.9108 0.327568 1.66509 0
M  V30 129 H 12.6828 0.426633 3.88967 0
M  V30 130 H 12.3058 -1.2837 3.76307 0
M  V30 131 N 13.3029 -1.57598 0.00835791 0
M  V30 132 C 14.2359 -2.04409 -1.01451 0
M  V30 133 C 15.2139 -0.935609 -1.32985 0
M  V30 134 O 16.3979 -1.20437 -1.45007 0
M  V30 135 C 13.5249 -2.44872 -2.33999 0
M  V30 136 C 12.5709 -3.66535 -2.18069 0
M  V30 137 S 13.4039 -5.14095 -1.4989 0
M  V30 138 C 14.5599 -5.57835 -2.8385 0
M  V30 139 H 14.7929 -2.90849 -0.615961 0
M  V30 140 H 12.3259 -1.53063 -0.202752 0
M  V30 141 H 14.2839 -2.68852 -3.10208 0
M  V30 142 H 12.9449 -1.58815 -2.70992 0
M  V30 143 H 12.1379 -3.92626 -3.16008 0
M  V30 144 H 11.7399 -3.426 -1.50004 0
M  V30 145 H 14.0319 -5.60806 -3.80136 0
M  V30 146 H 14.9749 -6.57667 -2.62449 0
M  V30 147 H 15.3829 -4.85421 -2.88144 0
M  V30 148 N 14.781 0.264519 -1.55364 0
M  V30 149 C 15.711 1.33121 -1.91836 0
M  V30 150 C 16.692 1.51101 -0.781192 0
M  V30 151 O 17.877 1.64003 -1.04003 0
M  V30 152 C 15.007 2.68921 -2.19769 0
M  V30 153 C 13.961 2.65661 -3.35571 0
M  V30 154 C 13.287 4.05093 -3.49004 0
M  V30 155 C 14.587 2.24187 -4.71739 0
M  V30 156 H 16.281 1.02844 -2.81182 0
M  V30 157 H 13.827 0.493286 -1.35287 0
M  V30 158 H 15.78 3.43663 -2.43872 0
M  V30 159 H 14.504 3.00799 -1.27231 0
M  V30 160 H 13.163 1.93377 -3.1145 0
M  V30 161 H 12.811 4.34206 -2.53917 0
M  V30 162 H 12.511 4.03804 -4.26868 0
M  V30 163 H 14.035 4.81561 -3.75408 0
M  V30 164 H 15.449 2.88654 -4.9533 0
M  V30 165 H 13.846 2.34044 -5.52579 0
M  V30 166 H 14.916 1.19327 -4.69988 0
M  V30 167 N 16.2591 1.48442 0.529413 0
M  V30 168 C 17.4871 1.60151 1.30994 0
M  V30 169 C 17.9021 0.261985 1.86973 0
M  V30 170 O 17.2591 -0.748805 1.66431 0
M  V30 171 C 17.3101 2.64854 2.46038 0
M  V30 172 O 17.0311 3.93608 1.92365 0
M  V30 173 C 18.5321 2.87007 3.37849 0
M  V30 174 H 15.7521 0.539971 0.398338 0
M  V30 175 H 18.2961 1.94273 0.638597 0
M  V30 176 H 16.4511 2.33589 3.09055 0
M  V30 177 H 16.8651 4.51055 2.67675 0
M  V30 178 H 18.3391 3.64068 4.14919 0
M  V30 179 H 18.8161 1.95852 3.93114 0
M  V30 180 H 19.4221 3.19579 2.80623 0
M  V30 181 N 17.7372 -0.778329 1.37039 0
M  V30 182 C 19.1532 -1.07796 1.17695 0
M  V30 183 C 19.3532 -2.01498 0.00860115 0
M  V30 184 O 18.4092 -2.43901 -0.653352 0
M  V30 185 C 19.7222 -1.68178 2.49272 0
M  V30 186 C 21.2702 -1.80467 2.55735 0
M  V30 187 C 21.7452 -2.44263 3.87427 0
M  V30 188 N 23.2362 -2.51721 3.88833 0
M  V30 189 C 23.9712 -3.01919 4.87476 0
M  V30 190 N 23.4672 -3.5234 5.96513 0
M  V30 191 N 25.2602 -3.00733 4.74885 0
M  V30 192 H 17.4112 -0.156032 2.11826 0
M  V30 193 H 19.6742 -0.131844 0.938787 0
M  V30 194 H 19.3802 -1.06796 3.35093 0
M  V30 195 H 19.2542 -2.67554 2.65885 0
M  V30 196 H 21.6412 -2.40984 1.70325 0
M  V30 197 H 21.7222 -0.798656 2.43013 0
M  V30 198 H 21.3662 -1.84388 4.73248 0
M  V30 199 H 21.2962 -3.45458 3.9745 0
M  V30 200 H 23.7872 -2.1603 3.10063 0
M  V30 201 H 24.1002 -3.89027 6.67741 0
M  V30 202 H 22.4452 -3.50462 6.00168 0
M  V30 203 H 25.6362 -2.60638 3.88826 0
M  V30 204 H 25.8092 -3.39545 5.51918 0
M  V30 205 N 19.2153 -1.21501 -1.00376 0
M  V30 206 C 20.4643 -1.02718 -1.73586 0
M  V30 207 C 20.7773 0.439589 -1.90596 0
M  V30 208 O 21.9833 0.746848 -2.61026 0
M  V30 209 C 20.4393 -1.78929 -3.1227 0
M  V30 210 C 20.0473 -3.29783 -3.03228 0
M  V30 211 C 21.7913 -1.68557 -3.89601 0
M  V30 212 C 19.6983 -3.98479 -4.36999 0
M  V30 213 H 18.6283 -0.380733 -0.650814 0
M  V30 214 H 21.2793 -1.45248 -1.1214 0
M  V30 215 H 19.6613 -1.29192 -3.74333 0
M  V30 216 H 20.8353 -3.86832 -2.50395 0
M  V30 217 H 19.1503 -3.40711 -2.39385 0
M  V30 218 H 21.7473 -2.17211 -4.88593 0
M  V30 219 H 22.0903 -0.644021 -4.11288 0
M  V30 220 H 22.6233 -2.15778 -3.34193 0
M  V30 221 H 19.3623 -5.02841 -4.20513 0
M  V30 222 H 18.8823 -3.46219 -4.89788 0
M  V30 223 H 20.5613 -4.03462 -5.05794 0
M  V30 224 N 20.6934 1.19889 -1.02296 0
M  V30 225 C 22.1094 1.41462 -0.738954 0
M  V30 226 C 22.3094 1.89721 0.678846 0
M  V30 227 O 21.3654 2.07016 1.4457 0
M  V30 228 C 22.6784 2.43083 -1.77005 0
M  V30 229 C 24.2264 2.5684 -1.78892 0
M  V30 230 C 24.7014 3.61709 -2.80945 0
M  V30 231 N 26.1924 3.69199 -2.79725 0
M  V30 232 C 26.9274 4.50019 -3.55345 0
M  V30 233 N 26.4234 5.34592 -4.40662 0
M  V30 234 N 28.2164 4.44612 -3.43914 0
M  V30 235 H 20.3674 0.868827 -1.93817 0
M  V30 236 H 22.6304 0.44399 -0.837602 0
M  V30 237 H 22.3364 2.14636 -2.78612 0
M  V30 238 H 22.2104 3.4217 -1.58744 0
M  V30 239 H 24.5974 2.84614 -0.779674 0
M  V30 240 H 24.6784 1.57927 -2.01228 0
M  V30 241 H 24.3224 3.34678 -3.82038 0
M  V30 242 H 24.2524 4.60259 -2.5587 0
M  V30 243 H 26.7434 3.08794 -2.17842 0
M  V30 244 H 27.0564 5.93363 -4.95116 0
M  V30 245 H 25.4014 5.34073 -4.44737 0
M  V30 246 H 28.5924 3.7758 -2.76679 0
M  V30 247 H 28.7654 5.0736 -4.031 0
M  V30 248 N 22.1715 0.800033 1.35784 0
M  V30 249 C 23.1195 0.193851 2.31791 0
M  V30 250 C 24.1135 -0.652744 1.56319 0
M  V30 251 O 25.3195 -0.546641 1.71499 0
M  V30 252 H 21.6945 0.04392 0.750716 0
M  V30 253 H 23.6655 1.01883 2.80468 0
M  V30 254 C 22.4145 -0.648338 3.41602 0
M  V30 255 H 21.7375 -0.00624665 3.998 0
M  V30 256 H 23.1775 -1.03898 4.11073 0
M  V30 257 C 21.6365 -1.8111 2.84079 0
M  V30 258 O 22.1665 -2.90825 2.77099 0
M  V30 259 N 20.3725 -1.62056 2.41218 0
M  V30 260 H 19.9195 -0.728123 2.47095 0
M  V30 261 H 19.8775 -2.40013 2.03079 0
M  V30 262 N 23.6496 -1.47581 0.552962 0
M  V30 263 C 24.8976 -2.02082 0.0272703 0
M  V30 264 C 25.2186 -1.4301 -1.32563 0
M  V30 265 O 24.4886 -0.603745 -1.86365 0
M  V30 266 H 23.0686 -0.746966 0.00709182 0
M  V30 267 H 25.7306 -1.81033 0.722008 0
M  V30 268 H 24.8266 -3.12034 -0.0639951 0
M  V30 269 N 25.1277 -0.289203 -1.54924 0
M  V30 270 C 26.0597 0.625583 -2.20497 0
M  V30 271 C 27.0727 1.10667 -1.19402 0
M  V30 272 O 28.2617 1.02615 -1.46056 0
M  V30 273 C 25.3617 1.86702 -2.82835 0
M  V30 274 C 24.5347 1.5304 -4.09753 0
M  V30 275 C 23.5937 2.62576 -4.56005 0
M  V30 276 O 22.6197 2.28167 -5.21468 0
M  V30 277 N 23.8217 3.92901 -4.27328 0
M  V30 278 H 26.5867 0.0642801 -2.99631 0
M  V30 279 H 24.1477 -0.110896 -1.6152 0
M  V30 280 H 26.1397 2.59304 -3.10715 0
M  V30 281 H 24.7097 2.33702 -2.07611 0
M  V30 282 H 23.9297 0.637564 -3.8901 0
M  V30 283 H 25.2177 1.28072 -4.92418 0
M  V30 284 H 24.6157 4.23671 -3.74859 0
M  V30 285 H 23.1727 4.61837 -4.59946 0
M  V30 286 N 26.6058 1.57591 -0.0167156 0
M  V30 287 C 27.5688 2.08393 0.954204 0
M  V30 288 C 28.5688 0.996531 1.26198 0
M  V30 289 O 29.7588 1.25858 1.20438 0
M  V30 290 C 26.8908 2.5394 2.27436 0
M  V30 291 H 28.0838 2.95455 0.514451 0
M  V30 292 H 25.6368 1.54582 0.231089 0
M  V30 293 H 26.3718 1.70171 2.76066 0
M  V30 294 H 26.1568 3.33371 2.06412 0
M  V30 295 H 27.6468 2.93512 2.97053 0
M  V30 296 N 28.0839 -0.256276 1.55502 0
M  V30 297 C 29.0469 -1.30047 1.88734 0
M  V30 298 C 30.0469 -1.4154 0.763086 0
M  V30 299 O 31.2369 -1.40403 1.03115 0
M  V30 300 C 28.3689 -2.67953 2.10747 0
M  V30 301 H 29.5619 -1.01802 2.82093 0
M  V30 302 H 27.1149 -0.495134 1.4825 0
M  V30 303 H 27.8499 -3.01351 1.19825 0
M  V30 304 H 27.6349 -2.60993 2.92617 0
M  V30 305 H 29.1249 -3.43368 2.37673 0
M  V30 306 N 29.562 -1.4872 -0.521534 0
M  V30 307 C 30.51 -1.64328 -1.64618 0
M  V30 308 C 31.504 -0.50953 -1.61555 0
M  V30 309 O 32.71 -0.688525 -1.66311 0
M  V30 310 H 29.085 -0.517805 -0.545328 0
M  V30 311 H 31.056 -2.58767 -1.48601 0
M  V30 312 C 29.805 -1.70805 -3.02855 0
M  V30 313 H 29.128 -2.5741 -3.05909 0
M  V30 314 H 30.568 -1.85766 -3.81139 0
M  V30 315 C 29.027 -0.448479 -3.33902 0
M  V30 316 O 29.557 0.434928 -3.99339 0
M  V30 317 N 27.763 -0.317616 -2.88859 0
M  V30 318 H 27.31 -1.03748 -2.35784 0
M  V30 319 H 27.268 0.524113 -3.10001 0
M  V30 320 N 31.0401 0.771051 -1.3745 0
M  V30 321 C 31.9871 1.88435 -1.3327 0
M  V30 322 C 32.9571 1.64914 -0.198136 0
M  V30 323 O 34.1421 1.86821 -0.387606 0
M  V30 324 C 31.2821 3.25509 -1.14622 0
M  V30 325 C 30.3951 3.60979 -2.37314 0
M  V30 326 C 29.5301 4.87265 -2.11533 0
M  V30 327 C 28.5691 5.15469 -3.30088 0
M  V30 328 N 27.7061 6.32944 -3.03853 0
M  V30 329 H 32.5461 1.91344 -2.28455 0
M  V30 330 H 30.0831 0.935466 -1.13523 0
M  V30 331 H 32.0411 4.04582 -1.01831 0
M  V30 332 H 30.6711 3.21974 -0.230837 0
M  V30 333 H 29.7231 2.76885 -2.60842 0
M  V30 334 H 31.0351 3.77759 -3.25729 0
M  V30 335 H 30.1891 5.74244 -1.95777 0
M  V30 336 H 28.9281 4.7259 -1.20457 0
M  V30 337 H 27.9331 4.26966 -3.46382 0
M  V30 338 H 29.1581 5.32052 -4.22016 0
M  V30 339 H 27.1041 6.19625 -2.15407 0
M  V30 340 H 27.0211 6.50143 -3.85812 0
M  V30 341 H 28.2891 7.22857 -2.91716 0
M  V30 342 N 32.5182 1.22032 0.997298 0
M  V30 343 C 33.4812 0.987909 2.06816 0
M  V30 344 C 34.4812 -0.0440084 1.6074 0
M  V30 345 O 35.6712 0.194053 1.73116 0
M  V30 346 C 32.8032 0.49132 3.37341 0
M  V30 347 H 33.9962 1.93803 2.28868 0
M  V30 348 H 31.5492 1.03838 1.16822 0
M  V30 349 H 32.2842 -0.463364 3.20973 0
M  V30 350 H 32.0692 1.23575 3.72118 0
M  V30 351 H 33.5592 0.348824 4.16141 0
M  V30 352 N 33.9963 -1.19345 1.0293 0
M  V30 353 C 34.9593 -2.20793 0.615069 0
M  V30 354 C 35.9593 -1.57553 -0.321533 0
M  V30 355 O 37.1493 -1.73862 -0.108483 0
M  V30 356 C 34.2813 -3.40754 -0.0999222 0
M  V30 357 H 35.4743 -2.58955 1.51269 0
M  V30 358 H 33.0273 -1.3303 0.820534 0
M  V30 359 H 33.7623 -3.0811 -1.01187 0
M  V30 360 H 33.5473 -3.87889 0.57309 0
M  V30 361 H 35.0373 -4.15898 -0.376645 0
M  V30 362 N 35.4744 -0.807222 -1.35358 0
M  V30 363 C 36.7204 -0.388463 -1.99045 0
M  V30 364 C 37.0534 1.04184 -1.63888 0
M  V30 365 O 36.3284 1.72292 -0.902535 0
M  V30 366 C 36.6114 -0.572783 -3.55515 0
M  V30 367 C 36.4644 -2.04807 -4.00468 0
M  V30 368 C 37.7834 0.00114064 -4.401 0
M  V30 369 H 34.9024 -0.142619 -0.723069 0
M  V30 370 H 37.5444 -1.01687 -1.60498 0
M  V30 371 H 35.6944 -0.0378425 -3.88482 0
M  V30 372 H 37.3664 -2.64544 -3.77908 0
M  V30 373 H 35.6094 -2.54427 -3.51353 0
M  V30 374 H 36.2804 -2.12792 -5.09337 0
M  V30 375 H 38.7564 -0.455716 -4.13597 0
M  V30 376 H 37.6324 -0.157737 -5.48673 0
M  V30 377 H 37.8934 1.09488 -4.28328 0
M  V30 378 N 36.9525 1.47285 -0.560781 0
M  V30 379 C 38.1805 2.06855 -0.0430262 0
M  V30 380 C 38.5955 1.41291 1.25229 0
M  V30 381 O 37.9525 0.510648 1.7521 0
M  V30 382 C 38.0035 3.61178 0.152518 0
M  V30 383 O 37.7245 4.24285 -1.0915 0
M  V30 384 C 39.2255 4.37624 0.707145 0
M  V30 385 H 36.4455 0.669319 -0.0474652 0
M  V30 386 H 38.9895 1.89237 -0.77521 0
M  V30 387 H 37.1445 3.78298 0.834843 0
M  V30 388 H 37.5585 5.16868 -0.891482 0
M  V30 389 H 39.0325 5.46271 0.793244 0
M  V30 390 H 39.5095 4.04152 1.71923 0
M  V30 391 H 40.1155 4.25257 0.0604027 0
M  V30 392 N 38.4306 0.297415 1.54768 0
M  V30 393 C 39.3636 -0.622188 2.19554 0
M  V30 394 C 40.3416 -1.13558 1.16376 0
M  V30 395 O 41.5256 -1.20444 1.45002 0
M  V30 396 C 38.6526 -1.8509 2.83653 0
M  V30 397 C 37.6986 -1.47106 4.00328 0
M  V30 398 S 38.5316 -0.53006 5.3287 0
M  V30 399 C 39.6876 -1.76665 6.0045 0
M  V30 400 H 39.9206 -0.0717806 2.97213 0
M  V30 401 H 37.4536 0.0815678 1.54184 0
M  V30 402 H 39.4116 -2.55605 3.21211 0
M  V30 403 H 38.0726 -2.37247 2.05846 0
M  V30 404 H 37.2656 -2.38594 4.43947 0
M  V30 405 H 36.8676 -0.845885 3.64309 0
M  V30 406 H 39.1596 -2.7077 6.21039 0
M  V30 407 H 40.1026 -1.37308 6.9466 0
M  V30 408 H 40.5106 -1.94174 5.30054 0
M  V30 409 N 39.9087 -1.5758 0.0250728 0
M  V30 410 C 41.3197 -1.79476 -0.514323 0
M  V30 411 C 41.6707 -0.934956 -1.72491 0
M  V30 412 O 40.7957 -0.144245 -2.15919 0
M  V30 413 C 41.3907 -3.25503 -0.939842 0
M  V30 414 C 39.9497 -3.48408 -1.42438 0
M  V30 415 C 39.0967 -2.74583 -0.387201 0
M  V30 416 H 42.0477 -1.567 0.25113 0
M  V30 417 H 42.0687 -3.34992 -1.80445 0
M  V30 418 H 41.5807 -3.88056 -0.0585628 0
M  V30 419 H 39.6817 -2.91103 -2.32572 0
M  V30 420 H 39.7947 -4.57119 -1.43455 0
M  V30 421 H 38.1587 -2.39942 -0.854409 0
M  V30 422 H 38.9417 -3.39849 0.485543 0
M  V30 423 N 41.3868 0.248026 -1.55636 0
M  V30 424 C 42.6118 0.998028 -1.81808 0
M  V30 425 C 43.0368 1.78207 -0.601979 0
M  V30 426 O 42.3948 1.75653 0.448961 0
M  V30 427 C 42.4428 1.9125 -3.05705 0
M  V30 428 O 41.5468 3.00406 -2.82542 0
M  V30 429 H 40.8878 0.284045 -0.600179 0
M  V30 430 H 43.4178 0.269357 -2.02819 0
M  V30 431 H 43.4278 2.32737 -3.35108 0
M  V30 432 H 42.1028 1.33602 -3.93857 0
M  V30 433 H 40.6798 2.63056 -2.64303 0
M  V30 434 N 42.8649 1.48995 0.513639 0
M  V30 435 C 44.0899 1.61792 1.29762 0
M  V30 436 C 44.5149 0.284475 1.85936 0
M  V30 437 O 43.8729 -0.746185 1.65232 0
M  V30 438 C 43.9209 2.67993 2.41272 0
M  V30 439 O 43.0249 2.26287 3.44772 0
M  V30 440 H 42.3659 0.541963 0.38363 0
M  V30 441 H 44.8959 1.95097 0.616307 0
M  V30 442 H 44.9059 2.89772 2.87221 0
M  V30 443 H 43.5809 3.64791 1.9975 0
M  V30 444 H 42.1579 2.14788 3.04829 0
M  V30 445 N 44.343 -0.763751 1.37857 0
M  V30 446 C 45.29 -1.87726 1.34267 0
M  V30 447 C 46.26 -1.64807 0.206879 0
M  V30 448 O 47.445 -1.86613 0.397508 0
M  V30 449 C 44.585 -3.24896 1.16346 0
M  V30 450 C 43.698 -3.59716 2.39225 0
M  V30 451 C 42.833 -4.86137 2.14114 0
M  V30 452 C 41.872 -5.13711 3.32817 0
M  V30 453 N 41.009 -6.31323 3.07206 0
M  V30 454 H 45.849 -1.90129 2.29466 0
M  V30 455 H 43.386 -0.929433 1.14017 0
M  V30 456 H 45.344 -4.04036 1.03975 0
M  V30 457 H 43.974 -3.21847 0.247909 0
M  V30 458 H 43.026 -2.75498 2.62307 0
M  V30 459 H 44.338 -3.76027 3.27728 0
M  V30 460 H 43.492 -5.73198 1.9882 0
M  V30 461 H 42.231 -4.71945 1.22961 0
M  V30 462 H 41.236 -4.25123 3.48641 0
M  V30 463 H 42.461 -5.29807 4.24832 0
M  V30 464 H 40.407 -6.18474 2.1869 0
M  V30 465 H 40.324 -6.48087 3.89254 0
M  V30 466 H 41.592 -7.213 2.95546 0
M  V30 467 N 45.8211 -1.22559 -0.990812 0
M  V30 468 C 46.7511 -1.0218 -2.09956 0
M  V30 469 C 47.7321 0.0579394 -1.70001 0
M  V30 470 O 48.9171 -0.104684 -1.93918 0
M  V30 471 C 46.0471 -0.601023 -3.4206 0
M  V30 472 C 45.0011 -1.62694 -3.95872 0
M  V30 473 C 44.3271 -1.06193 -5.24049 0
M  V30 474 C 45.6271 -3.01743 -4.2632 0
M  V30 475 H 47.3211 -1.94916 -2.27262 0
M  V30 476 H 44.8671 -0.938566 -1.09211 0
M  V30 477 H 46.8201 -0.445561 -4.19038 0
M  V30 478 H 45.5441 0.362005 -3.24588 0
M  V30 479 H 44.2031 -1.77021 -3.21028 0
M  V30 480 H 43.8511 -0.0901903 -5.02919 0
M  V30 481 H 43.5511 -1.74732 -5.61019 0
M  V30 482 H 45.0751 -0.918092 -6.03658 0
M  V30 483 H 46.4891 -2.90777 -4.94087 0
M  V30 484 H 44.8861 -3.67425 -4.74467 0
M  V30 485 H 45.9561 -3.51518 -3.34011 0
M  V30 486 N 47.2992 1.18797 -1.03562 0
M  V30 487 C 48.2462 2.22253 -0.622259 0
M  V30 488 C 49.2162 1.61987 0.36736 0
M  V30 489 O 50.4012 1.88986 0.262492 0
M  V30 490 C 47.5412 3.45097 0.0138462 0
M  V30 491 C 46.6542 4.19722 -1.02263 0
M  V30 492 C 45.7892 5.30009 -0.355573 0
M  V30 493 C 44.8282 5.96399 -1.37749 0
M  V30 494 N 43.9652 6.98234 -0.735766 0
M  V30 495 H 48.8052 2.56968 -1.50903 0
M  V30 496 H 46.3422 1.26245 -0.755017 0
M  V30 497 H 48.3002 4.15279 0.399948 0
M  V30 498 H 46.9302 3.11018 0.864158 0
M  V30 499 H 45.9822 3.48418 -1.52673 0
M  V30 500 H 47.2942 4.65227 -1.79903 0
M  V30 501 H 46.4482 6.0664 0.0850095 0
M  V30 502 H 45.1872 4.85592 0.452967 0
M  V30 503 H 44.1922 5.18512 -1.82826 0
M  V30 504 H 45.4172 6.42899 -2.18764 0
M  V30 505 H 43.3632 6.55979 0.0525597 0
M  V30 506 H 43.2802 7.41965 -1.44995 0
M  V30 507 H 44.5482 7.78845 -0.31941 0
M  V30 508 N 48.7773 0.814389 1.34928 0
M  V30 509 C 50.0233 0.399013 1.98836 0
M  V30 510 C 50.3563 -1.03314 1.64438 0
M  V30 511 O 49.6313 -1.71811 0.911659 0
M  V30 512 C 49.9143 0.591629 3.55207 0
M  V30 513 C 49.7673 2.06928 3.99376 0
M  V30 514 C 51.0863 0.022199 4.40094 0
M  V30 515 H 48.2053 0.146451 0.722303 0
M  V30 516 H 50.8473 1.02537 1.59957 0
M  V30 517 H 48.9973 0.0584441 3.88456 0
M  V30 518 H 50.6693 2.66544 3.76499 0
M  V30 519 H 48.9123 2.56287 3.49999 0
M  V30 520 H 49.5833 2.1549 5.08201 0
M  V30 521 H 52.0593 0.477643 4.13349 0
M  V30 522 H 50.9353 0.186832 5.48582 0
M  V30 523 H 51.1963 -1.07215 4.28902 0
M  V30 524 N 50.2554 -1.46986 0.568584 0
M  V30 525 C 51.2184 -2.28624 -0.162366 0
M  V30 526 C 52.2184 -1.37596 -0.832103 0
M  V30 527 O 53.4084 -1.60115 -0.68622 0
M  V30 528 C 50.5404 -3.17596 -1.23878 0
M  V30 529 H 51.7334 -2.94722 0.554899 0
M  V30 530 H 49.2864 -1.52863 0.325976 0
M  V30 531 H 50.0214 -2.56214 -1.98808 0
M  V30 532 H 49.8064 -3.846 -0.763219 0
M  V30 533 H 51.2964 -3.79078 -1.75185 0
M  V30 534 N 51.7335 -0.305618 -1.54608 0
M  V30 535 C 52.9825 0.303098 -1.9941 0
M  V30 536 C 53.2955 1.54648 -1.19764 0
M  V30 537 O 54.5015 2.23007 -1.54855 0
M  V30 538 C 52.9575 0.590588 -3.55021 0
M  V30 539 C 52.5655 -0.634719 -4.43481 0
M  V30 540 C 54.3095 1.16025 -4.08336 0
M  V30 541 C 52.2165 -0.320126 -5.90533 0
M  V30 542 H 51.1465 0.117031 -0.744862 0
M  V30 543 H 53.7975 -0.415045 -1.78745 0
M  V30 544 H 52.1795 1.36845 -3.71604 0
M  V30 545 H 53.3535 -1.41079 -4.38672 0
M  V30 546 H 51.6685 -1.12333 -4.00962 0
M  V30 547 H 54.2655 1.40994 -5.15776 0
M  V30 548 H 54.6085 2.10397 -3.5922 0
M  V30 549 H 55.1415 0.443985 -3.95315 0
M  V30 550 H 51.8805 -1.23254 -6.43808 0
M  V30 551 H 51.4005 0.418579 -5.98338 0
M  V30 552 H 53.0795 0.0766241 -6.46955 0
M  V30 553 N 53.2116 1.57565 -0.0334293 0
M  V30 554 C 54.1746 2.09393 0.932048 0
M  V30 555 C 55.1746 1.00986 1.25134 0
M  V30 556 O 56.3646 1.27129 1.19096 0
M  V30 557 C 53.4966 2.56338 2.2473 0
M  V30 558 H 54.6896 2.95984 0.483085 0
M  V30 559 H 52.2426 1.54819 0.21468 0
M  V30 560 H 52.9776 1.7309 2.74245 0
M  V30 561 H 52.7626 3.35542 2.02865 0
M  V30 562 H 54.2526 2.96646 2.93923 0
M  V30 563 N 54.6897 -0.239769 1.55765 0
M  V30 564 C 55.6377 -1.31668 1.91745 0
M  V30 565 C 56.6317 -1.49462 0.797338 0
M  V30 566 O 57.8377 -1.50852 0.982021 0
M  V30 567 H 54.2127 -0.441048 0.609082 0
M  V30 568 H 56.1837 -0.985923 2.81642 0
M  V30 569 C 54.9327 -2.66368 2.2348 0
M  V30 570 H 54.2557 -2.53478 3.09175 0
M  V30 571 H 55.6957 -3.40578 2.52553 0
M  V30 572 C 54.1547 -3.20002 1.05359 0
M  V30 573 O 54.6847 -4.00538 0.305261 0
M  V30 574 N 52.8907 -2.78126 0.842292 0
M  V30 575 H 52.4377 -2.12742 1.45253 0
M  V30 576 H 52.3957 -3.14354 0.053652 0
M  V30 577 N 56.1678 -1.49265 -0.50573 0
M  V30 578 C 57.4138 -1.58748 -1.26202 0
M  V30 579 C 57.7468 -0.271227 -1.92297 0
M  V30 580 O 57.0218 0.724831 -1.80489 0
M  V30 581 C 57.3048 -2.74332 -2.33268 0
M  V30 582 C 57.1578 -4.15737 -1.71705 0
M  V30 583 C 58.4768 -2.85576 -3.34865 0
M  V30 584 H 55.5958 -0.577826 -0.457478 0
M  V30 585 H 58.2378 -1.81532 -0.560897 0
M  V30 586 H 56.3878 -2.55036 -2.93068 0
M  V30 587 H 58.0598 -4.46537 -1.15769 0
M  V30 588 H 56.3028 -4.21605 -1.02135 0
M  V30 589 H 56.9738 -4.92477 -2.49341 0
M  V30 590 H 59.4498 -3.03127 -2.8505 0
M  V30 591 H 58.3258 -3.68135 -4.07146 0
M  V30 592 H 58.5868 -1.94732 -3.96903 0
M  V30 593 N 57.6459 0.756429 -1.3826 0
M  V30 594 C 58.5759 1.88374 -1.37976 0
M  V30 595 C 59.5569 1.68311 -0.246082 0
M  V30 596 O 60.7419 1.88944 -0.44874 0
M  V30 597 C 57.8719 3.25864 -1.20125 0
M  V30 598 C 56.8259 3.60523 -2.30666 0
M  V30 599 C 56.1519 4.9672 -1.97923 0
M  V30 600 C 57.4519 3.65692 -3.72916 0
M  V30 601 H 59.1459 1.88869 -2.32312 0
M  V30 602 H 56.6919 0.907272 -1.11824 0
M  V30 603 H 58.6449 4.0438 -1.18552 0
M  V30 604 H 57.3689 3.25841 -0.222498 0
M  V30 605 H 56.0279 2.84324 -2.3142 0
M  V30 606 H 55.6759 4.93253 -0.985393 0
M  V30 607 H 55.3759 5.20878 -2.71955 0
M  V30 608 H 56.8999 5.77618 -1.97964 0
M  V30 609 H 58.3139 4.34328 -3.74208 0
M  V30 610 H 56.7109 4.01358 -4.4613 0
M  V30 611 H 57.7809 2.65987 -4.05436 0
M  V30 612 N 59.124 1.23083 0.984299 0
M  V30 613 C 60.071 1.00854 2.07598 0
M  V30 614 C 61.041 -0.0726709 1.65941 0
M  V30 615 O 62.226 0.0786535 1.90638 0
M  V30 616 C 59.366 0.601645 3.39815 0
M  V30 617 C 58.479 1.75456 3.94765 0
M  V30 618 C 57.614 1.29482 5.15177 0
M  V30 619 C 56.653 2.41873 5.62284 0
M  V30 620 N 55.79 1.96885 6.73929 0
M  V30 621 H 60.63 1.943 2.25946 0
M  V30 622 H 58.167 0.968001 1.10762 0
M  V30 623 H 60.125 0.346854 4.15756 0
M  V30 624 H 58.755 -0.295803 3.21442 0
M  V30 625 H 57.807 2.12346 3.15616 0
M  V30 626 H 59.119 2.59965 4.25699 0
M  V30 627 H 58.273 0.997923 5.98437 0
M  V30 628 H 57.012 0.420046 4.85888 0
M  V30 629 H 56.017 2.72342 4.77608 0
M  V30 630 H 57.242 3.29881 5.93595 0
M  V30 631 H 55.188 1.11782 6.46406 0
M  V30 632 H 55.105 2.74956 7.04227 0
M  V30 633 H 56.373 1.70289 7.60672 0
M  V30 634 N 60.6021 -1.18246 1.0419 0
M  V30 635 C 61.5121 -2.25574 0.644476 0
M  V30 636 C 62.5281 -1.70845 -0.329826 0
M  V30 637 O 63.7041 -2.00554 -0.184443 0
M  V30 638 C 60.7691 -3.46697 0.014877 0
M  V30 639 C 59.8301 -4.16554 1.03834 0
M  V30 640 C 59.0631 -5.31894 0.438692 0
M  V30 641 O 59.2861 -5.65385 -0.754752 0
M  V30 642 O 58.2201 -5.90459 1.168 0
M  V30 643 H 62.0461 -2.61836 1.53869 0
M  V30 644 H 59.6311 -1.25352 0.812854 0
M  V30 645 H 61.5131 -4.20062 -0.335538 0
M  V30 646 H 60.1881 -3.12255 -0.853138 0
M  V30 647 H 59.0951 -3.45251 1.44057 0
M  V30 648 H 60.4281 -4.54998 1.87716 0
M  V30 649 N 62.0802 -0.821533 -1.34494 0
M  V30 650 C 62.9902 -0.244355 -2.33324 0
M  V30 651 C 64.0062 0.620527 -1.62559 0
M  V30 652 O 65.1822 0.528754 -1.94335 0
M  V30 653 C 62.2472 0.585368 -3.41723 0
M  V30 654 C 61.3082 -0.301752 -4.28238 0
M  V30 655 C 60.5412 0.488466 -5.3146 0
M  V30 656 O 60.7642 1.72186 -5.4379 0
M  V30 657 O 59.6982 -0.12848 -6.01763 0
M  V30 658 H 63.5242 -1.06231 -2.84515 0
M  V30 659 H 61.1092 -0.583645 -1.37528 0
M  V30 660 H 62.9912 1.05747 -4.07916 0
M  V30 661 H 61.6662 1.38068 -2.92778 0
M  V30 662 H 60.5732 -0.821315 -3.64973 0
M  V30 663 H 61.9062 -1.06138 -4.8062 0
M  V30 664 N 63.5583 1.46682 -0.576371 0
M  V30 665 C 64.8063 2.02013 -0.0594163 0
M  V30 666 C 65.1273 1.45101 1.30271 0
M  V30 667 O 64.3973 0.633317 1.8538 0
M  V30 668 H 62.9773 0.746759 -0.0189745 0
M  V30 669 H 65.6393 1.79862 -0.750717 0
M  V30 670 H 64.7353 3.12097 0.014345 0
M  V30 671 N 65.0364 0.313813 1.54444 0
M  V30 672 C 66.2834 -0.291675 2.00388 0
M  V30 673 C 66.6114 -1.52904 1.2021 0
M  V30 674 O 65.8664 -1.93833 0.269707 0
M  V30 675 C 66.1654 -0.680386 3.50864 0
M  V30 676 C 65.8314 0.456699 4.48581 0
M  V30 677 C 64.4934 0.768824 4.75018 0
M  V30 678 C 66.8454 1.22098 5.06697 0
M  V30 679 C 64.1734 1.84812 5.56831 0
M  V30 680 C 66.5254 2.29029 5.89685 0
M  V30 681 C 65.1894 2.60834 6.14428 0
M  V30 682 H 64.4594 -0.106732 0.733273 0
M  V30 683 H 67.1064 0.43557 1.86481 0
M  V30 684 H 65.4114 -1.48791 3.62448 0
M  V30 685 H 67.1084 -1.16026 3.83847 0
M  V30 686 H 63.6984 0.203337 4.28117 0
M  V30 687 H 67.8824 0.993096 4.86263 0
M  V30 688 H 63.1384 2.09912 5.74236 0
M  V30 689 H 67.3124 2.887 6.33739 0
M  V30 690 H 64.9394 3.44596 6.77612 0
M  V30 691 N 66.5145 -1.57545 0.0417849 0
M  V30 692 C 67.7635 -1.91494 -0.633492 0
M  V30 693 C 68.0765 -0.921084 -1.72556 0
M  V30 694 O 69.2825 -1.15228 -2.45835 0
M  V30 695 C 67.7385 -3.40072 -1.17808 0
M  V30 696 C 67.3465 -4.47843 -0.118633 0
M  V30 697 C 69.0905 -3.8307 -1.82915 0
M  V30 698 C 66.9975 -5.87529 -0.675578 0
M  V30 699 H 65.9275 -0.714653 -0.24039 0
M  V30 700 H 68.5785 -1.83175 0.109148 0
M  V30 701 H 66.9605 -3.43364 -1.97274 0
M  V30 702 H 68.1345 -4.56128 0.654494 0
M  V30 703 H 66.4495 -4.14128 0.434414 0
M  V30 704 H 69.0465 -4.84794 -2.25563 0
M  V30 705 H 69.3895 -3.1881 -2.67705 0
M  V30 706 H 69.9225 -3.82255 -1.10119 0
M  V30 707 H 66.6615 -6.55362 0.134475 0
M  V30 708 H 66.1815 -5.82824 -1.4169 0
M  V30 709 H 67.8605 -6.36491 -1.1614 0
M  V30 710 N 67.9926 0.231505 -1.5589 0
M  V30 711 C 68.9026 1.308 -1.94752 0
M  V30 712 C 69.9186 1.51826 -0.849989 0
M  V30 713 O 71.0946 1.6515 -1.15271 0
M  V30 714 C 68.1596 2.63968 -2.24771 0
M  V30 715 C 67.2206 2.51331 -3.48039 0
M  V30 716 C 66.4536 3.78148 -3.76616 0
M  V30 717 O 66.6766 4.80722 -3.07022 0
M  V30 718 O 65.6106 3.75857 -4.70123 0
M  V30 719 H 69.4366 1.0083 -2.86474 0
M  V30 720 H 67.0216 0.433547 -1.42971 0
M  V30 721 H 68.9036 3.42633 -2.45318 0
M  V30 722 H 67.5786 2.9364 -1.36225 0
M  V30 723 H 66.4856 1.709 -3.32782 0
M  V30 724 H 67.8186 2.26601 -4.36936 0
M  V30 725 N 69.4707 1.49531 0.497807 0
M  V30 726 C 70.7477 1.49682 1.25915 0
M  V30 727 C 71.1277 0.226339 2.09883 0
M  V30 728 O 70.4757 -0.791189 2.14365 0
M  V30 729 C 70.6857 2.77755 2.11313 0
M  V30 730 C 72.0337 3.27371 2.70395 0
M  V30 731 O 73.0577 2.78894 2.21578 0
M  V30 732 O 71.9167 4.11808 3.59272 0
M  V30 733 H 69.0107 0.599228 0.56996 0
M  V30 734 H 71.5567 1.61798 0.511816 0
M  V30 735 H 70.3287 3.61713 1.49264 0
M  V30 736 H 69.9517 2.68515 2.93233 0
M  V30 737 N 70.9488 -0.749086 1.3866 0
M  V30 738 C 72.1958 -1.50833 1.35114 0
M  V30 739 C 72.5238 -1.94415 -0.0574049 0
M  V30 740 O 71.7788 -1.66065 -1.03541 0
M  V30 741 C 72.0778 -2.7712 2.25697 0
M  V30 742 C 71.7438 -2.52477 3.73585 0
M  V30 743 C 70.4058 -2.45466 4.13884 0
M  V30 744 C 72.7578 -2.31066 4.67181 0
M  V30 745 C 70.0858 -2.15064 5.45861 0
M  V30 746 C 72.4378 -2.02183 5.9942 0
M  V30 747 C 71.1018 -1.93631 6.38798 0
M  V30 748 H 70.3718 -0.551936 0.494416 0
M  V30 749 H 73.0188 -0.860979 1.71054 0
M  V30 750 H 71.3238 -3.46528 1.82827 0
M  V30 751 H 73.0208 -3.35096 2.20254 0
M  V30 752 H 69.6108 -2.58807 3.41638 0
M  V30 753 H 73.7948 -2.35459 4.3689 0
M  V30 754 H 69.0508 -2.06954 5.75308 0
M  V30 755 H 73.2248 -1.8462 6.71482 0
M  V30 756 H 70.8518 -1.69839 7.40985 0
M  V30 757 N 72.4269 -1.23603 -0.977757 0
M  V30 758 C 73.3739 -1.01954 -2.07061 0
M  V30 759 C 74.3439 0.0638697 -1.65977 0
M  V30 760 O 75.5289 -0.0887624 -1.90593 0
M  V30 761 C 72.6689 -0.619658 -3.39491 0
M  V30 762 C 71.7819 -1.77547 -3.93829 0
M  V30 763 C 70.9169 -1.32212 -5.14484 0
M  V30 764 C 69.9559 -2.44852 -5.60994 0
M  V30 765 N 69.0929 -2.00456 -6.72876 0
M  V30 766 H 73.9329 -1.95495 -2.24913 0
M  V30 767 H 71.4699 -0.973861 -1.10247 0
M  V30 768 H 73.4279 -0.368898 -4.15566 0
M  V30 769 H 72.0579 0.278752 -3.21594 0
M  V30 770 H 71.1099 -2.14016 -3.14486 0
M  V30 771 H 72.4219 -2.62219 -4.24314 0
M  V30 772 H 71.5759 -1.02965 -5.97899 0
M  V30 773 H 70.3149 -0.445808 -4.85658 0
M  V30 774 H 69.3199 -2.74871 -4.76157 0
M  V30 775 H 70.5449 -3.33024 -5.91837 0
M  V30 776 H 68.4909 -1.15208 -6.45804 0
M  V30 777 H 68.4079 -2.78687 -7.02759 0
M  V30 778 H 69.6759 -1.7432 -7.59758 0
M  V30 779 N 73.905 1.17692 -1.04816 0
M  V30 780 C 75.151 1.88137 -0.75711 0
M  V30 781 C 75.484 1.80604 0.713841 0
M  V30 782 O 74.759 1.21146 1.52164 0
M  V30 783 C 75.042 3.38318 -1.2334 0
M  V30 784 C 74.895 3.54622 -2.76701 0
M  V30 785 C 76.214 4.32214 -0.829415 0
M  V30 786 H 73.333 0.683163 -0.27651 0
M  V30 787 H 75.975 1.38424 -1.30149 0
M  V30 788 H 74.125 3.80787 -0.770286 0
M  V30 789 H 75.797 3.21194 -3.31107 0
M  V30 790 H 74.04 2.97026 -3.16161 0
M  V30 791 H 74.711 4.60028 -3.05088 0
M  V30 792 H 77.187 3.97565 -1.22805 0
M  V30 793 H 76.063 5.35838 -1.19033 0
M  V30 794 H 76.324 4.41294 0.266891 0
M  V30 795 N 75.3831 0.828654 1.34056 0
M  V30 796 C 76.2931 0.256725 2.33191 0
M  V30 797 C 77.3091 -0.611898 1.62886 0
M  V30 798 O 78.4851 -0.51844 1.94613 0
M  V30 799 C 75.5501 -0.567238 3.42028 0
M  V30 800 C 74.6111 0.324458 4.28072 0
M  V30 801 C 73.8441 -0.460274 5.31712 0
M  V30 802 O 74.0671 -1.693 5.44696 0
M  V30 803 O 73.0011 0.160391 6.01686 0
M  V30 804 H 76.8271 1.07739 2.83947 0
M  V30 805 H 74.4121 0.59093 1.37217 0
M  V30 806 H 76.2941 -1.03582 4.08471 0
M  V30 807 H 74.9691 -1.36513 2.93506 0
M  V30 808 H 73.8761 0.840659 3.64532 0
M  V30 809 H 75.2091 1.08685 4.8005 0
M  V30 810 N 76.8612 -1.46375 0.584142 0
M  V30 811 C 78.1092 -2.01978 0.0701287 0
M  V30 812 C 78.4302 -1.4579 -1.295 0
M  V30 813 O 77.7002 -0.64314 -1.85042 0
M  V30 814 H 76.2802 -0.746648 0.0229345 0
M  V30 815 H 78.9422 -1.79461 0.760245 0
M  V30 816 H 78.0382 -3.121 0.0022064 0
M  V30 817 N 78.3393 -0.321999 -1.54275 0
M  V30 818 C 79.6163 0.335232 -1.92706 0
M  V30 819 C 79.9963 1.70006 -1.25145 0
M  V30 820 O 79.3443 2.25067 -0.394596 0
M  V30 821 C 79.5543 0.429008 -3.46353 0
M  V30 822 C 80.9023 0.690029 -4.18956 0
M  V30 823 O 81.9263 0.511992 -3.52501 0
M  V30 824 O 80.7853 1.03338 -5.36641 0
M  V30 825 H 77.8793 0.191143 -0.804608 0
M  V30 826 H 80.4253 -0.3716 -1.65581 0
M  V30 827 H 79.1973 -0.529611 -3.87699 0
M  V30 828 H 78.8203 1.18348 -3.79578 0
M  V30 829 N 79.8174 1.5752 -0.0501392 0
M  V30 830 C 81.0454 1.96963 0.633492 0
M  V30 831 C 81.4604 0.927631 1.6444 0
M  V30 832 O 80.8174 -0.0882665 1.82286 0
M  V30 833 C 80.8684 3.36487 1.32132 0
M  V30 834 O 80.5894 4.36693 0.350894 0
M  V30 835 C 82.0904 3.90682 2.09481 0
M  V30 836 H 79.3104 0.648244 0.173266 0
M  V30 837 H 81.8544 2.0417 -0.116134 0
M  V30 838 H 80.0094 3.30434 2.02218 0
M  V30 839 H 80.4234 5.17702 0.841735 0
M  V30 840 H 81.8974 4.90591 2.5303 0
M  V30 841 H 82.3744 3.26053 2.94255 0
M  V30 842 H 82.9804 4.00069 1.44307 0
M  V30 843 N 81.2955 -0.223234 1.56011 0
M  V30 844 C 82.2425 -1.27664 1.92277 0
M  V30 845 C 83.2125 -1.46659 0.779763 0
M  V30 846 O 84.3975 -1.60256 1.03551 0
M  V30 847 C 81.5375 -2.62234 2.24338 0
M  V30 848 C 80.6505 -2.51051 3.51564 0
M  V30 849 C 79.7855 -3.78133 3.7308 0
M  V30 850 C 78.8245 -3.61665 4.93827 0
M  V30 851 N 77.9615 -4.80693 5.11741 0
M  V30 852 H 82.8015 -0.960358 2.82101 0
M  V30 853 H 80.3385 -0.462901 1.39627 0
M  V30 854 H 82.2965 -3.40596 2.40936 0
M  V30 855 H 80.9265 -2.91961 1.3769 0
M  V30 856 H 79.9785 -1.64132 3.43169 0
M  V30 857 H 81.2905 -2.34803 4.40079 0
M  V30 858 H 80.4445 -4.64938 3.89766 0
M  V30 859 H 79.1835 -3.97304 2.82844 0
M  V30 860 H 78.1885 -2.73244 4.77093 0
M  V30 861 H 79.4135 -3.43966 5.85546 0
M  V30 862 H 77.3595 -5.00181 4.24446 0
M  V30 863 H 77.2765 -4.67165 5.94384 0
M  V30 864 H 78.5445 -5.6893 5.3286 0
M  V30 865 N 82.7736 -1.49793 -0.48987 0
M  V30 866 C 84.1846 -1.52914 -1.07118 0
M  V30 867 C 84.5356 -0.321738 -1.93544 0
M  V30 868 O 83.6606 0.567338 -2.08831 0
M  V30 869 C 84.2556 -2.771 -1.94938 0
M  V30 870 C 82.8146 -2.82963 -2.48212 0
M  V30 871 C 81.9616 -2.46972 -1.26096 0
M  V30 872 H 84.9126 -1.56329 -0.273289 0
M  V30 873 H 84.9336 -2.57892 -2.79771 0
M  V30 874 H 84.4456 -3.64959 -1.32009 0
M  V30 875 H 82.5466 -1.99411 -3.14748 0
M  V30 876 H 82.6596 -3.85406 -2.84603 0
M  V30 877 H 81.0236 -1.98994 -1.58976 0
M  V30 878 H 81.8066 -3.37118 -0.648581 0
M  V30 879 N 84.2517 0.741722 -1.39055 0
M  V30 880 C 85.1617 1.88621 -1.39496 0
M  V30 881 C 86.1777 1.71557 -0.290578 0
M  V30 882 O 87.3537 1.94275 -0.530954 0
M  V30 883 C 84.4187 3.24134 -1.23037 0
M  V30 884 C 83.4797 3.5364 -2.43387 0
M  V30 885 C 82.7127 4.82687 -2.27703 0
M  V30 886 O 82.9357 5.55922 -1.27696 0
M  V30 887 O 81.8697 5.1194 -3.16545 0
M  V30 888 H 85.6957 1.91203 -2.35956 0
M  V30 889 H 83.2807 0.888625 -1.20099 0
M  V30 890 H 85.1627 4.0513 -1.15964 0
M  V30 891 H 83.8377 3.22337 -0.296691 0
M  V30 892 H 82.7447 2.72758 -2.56035 0
M  V30 893 H 84.0777 3.60209 -3.35425 0
M  V30 894 N 85.7298 1.2412 0.971189 0
M  V30 895 C 86.6598 1.05508 2.08304 0
M  V30 896 C 87.6408 -0.0308864 1.70072 0
M  V30 897 O 88.8258 0.135521 1.93727 0
M  V30 898 C 85.9558 0.655365 3.4106 0
M  V30 899 C 84.9098 1.68971 3.93234 0
M  V30 900 C 84.2358 1.14516 5.22293 0
M  V30 901 C 85.5358 3.08487 4.21465 0
M  V30 902 H 87.2298 1.98507 2.24132 0
M  V30 903 H 84.7758 0.955821 1.07704 0
M  V30 904 H 86.7288 0.51217 4.18276 0
M  V30 905 H 85.4528 -0.31032 3.25122 0
M  V30 906 H 84.1118 1.82106 3.18171 0
M  V30 907 H 83.7598 0.170189 5.02712 0
M  V30 908 H 83.4598 1.83635 5.58168 0
M  V30 909 H 84.9838 1.01401 6.02121 0
M  V30 910 H 86.3978 2.98601 4.89398 0
M  V30 911 H 84.7948 3.74926 4.68562 0
M  V30 912 H 85.8648 3.56787 3.28376 0
M  V30 913 N 87.2079 -1.17134 1.05439 0
M  V30 914 C 88.1179 -2.24878 0.668365 0
M  V30 915 C 89.1339 -1.71186 -0.311687 0
M  V30 916 O 90.3099 -2.00738 -0.163161 0
M  V30 917 C 87.3749 -3.46662 0.051648 0
M  V30 918 C 86.4359 -4.15429 1.08246 0
M  V30 919 C 85.6689 -5.31399 0.495082 0
M  V30 920 O 85.8919 -5.66153 -0.694743 0
M  V30 921 O 84.8259 -5.89187 1.23056 0
M  V30 922 H 88.6519 -2.60189 1.56637 0
M  V30 923 H 86.2369 -1.24482 0.826104 0
M  V30 924 H 88.1189 -4.20394 -0.290966 0
M  V30 925 H 86.7939 -3.13142 -0.819971 0
M  V30 926 H 85.7009 -3.43704 1.47711 0
M  V30 927 H 87.0339 -4.52982 1.92532 0
M  V30 928 N 88.686 -0.835752 -1.33615 0
M  V30 929 C 89.616 -0.281739 -2.31794 0
M  V30 930 C 90.597 0.608833 -1.58831 0
M  V30 931 O 91.782 0.533035 -1.86741 0
M  V30 932 C 88.912 0.546612 -3.42971 0
M  V30 933 C 87.866 -0.247904 -4.27281 0
M  V30 934 C 87.192 0.704001 -5.30045 0
M  V30 935 C 88.492 -1.46324 -5.01385 0
M  V30 936 H 90.186 -1.10206 -2.78379 0
M  V30 937 H 87.732 -0.531388 -1.33837 0
M  V30 938 H 89.685 0.944467 -4.1068 0
M  V30 939 H 88.409 1.40011 -2.95067 0
M  V30 940 H 87.068 -0.627281 -3.61194 0
M  V30 941 H 86.716 1.55381 -4.78399 0
M  V30 942 H 86.416 0.176524 -5.87335 0
M  V30 943 H 87.94 1.09944 -6.0062 0
M  V30 944 H 89.354 -1.13871 -5.61877 0
M  V30 945 H 87.751 -1.92728 -5.6831 0
M  V30 946 H 88.821 -2.23467 -4.30338 0
M  V30 947 N 90.1641 1.46063 -0.591896 0
M  V30 948 C 91.3921 2.06717 -0.0868936 0
M  V30 949 C 91.8071 1.43916 1.22203 0
M  V30 950 O 91.1641 0.547698 1.74088 0
M  V30 951 C 91.2151 3.6142 0.0758725 0
M  V30 952 O 90.9361 4.21874 -1.18126 0
M  V30 953 C 92.4371 4.39025 0.61416 0
M  V30 954 H 89.6571 0.668162 -0.0616518 0
M  V30 955 H 92.2011 1.8755 -0.815175 0
M  V30 956 H 90.3561 3.79983 0.754413 0
M  V30 957 H 90.7701 5.14861 -1.00092 0
M  V30 958 H 92.2441 5.4783 0.677193 0
M  V30 959 H 92.7211 4.07708 1.63312 0
M  V30 960 H 93.3271 4.2529 -0.0298142 0
M  V30 961 N 91.6422 0.330177 1.54103 0
M  V30 962 C 92.5722 -0.525353 2.27513 0
M  V30 963 C 93.5532 -1.11383 1.2856 0
M  V30 964 O 94.7382 -1.13773 1.57383 0
M  V30 965 C 91.8682 -1.6831 3.03791 0
M  V30 966 C 90.8222 -1.2236 4.10137 0
M  V30 967 C 90.1482 -2.46882 4.74293 0
M  V30 968 C 91.4482 -0.333697 5.21233 0
M  V30 969 H 93.1422 0.087013 2.99274 0
M  V30 970 H 90.6882 0.0432893 1.43935 0
M  V30 971 H 92.6412 -2.28795 3.5388 0
M  V30 972 H 91.3652 -2.32216 2.29659 0
M  V30 973 H 90.0242 -0.64165 3.60941 0
M  V30 974 H 89.6722 -3.09165 3.96769 0
M  V30 975 H 89.3722 -2.16825 5.46133 0
M  V30 976 H 90.8962 -3.08117 5.27159 0
M  V30 977 H 92.3102 -0.845013 5.67038 0
M  V30 978 H 90.7072 -0.125612 5.99969 0
M  V30 979 H 91.7772 0.633724 4.80741 0
M  V30 980 N 93.1203 -1.57491 0.0584922 0
M  V30 981 C 94.0673 -2.11958 -0.913376 0
M  V30 982 C 95.0373 -1.02875 -1.30407 0
M  V30 983 O 96.2223 -1.30464 -1.39226 0
M  V30 984 C 93.3623 -2.67497 -2.18035 0
M  V30 985 C 92.4753 -3.90691 -1.84349 0
M  V30 986 C 91.6103 -4.3452 -3.05559 0
M  V30 987 C 90.6493 -5.50395 -2.67827 0
M  V30 988 N 89.7863 -5.89244 -3.81754 0
M  V30 989 H 94.6263 -2.94704 -0.442017 0
M  V30 990 H 92.1633 -1.45643 -0.206545 0
M  V30 991 H 94.1213 -2.978 -2.92183 0
M  V30 992 H 92.7513 -1.87537 -2.62735 0
M  V30 993 H 91.8033 -3.66934 -1.00319 0
M  V30 994 H 93.1153 -4.7489 -1.5258 0
M  V30 995 H 92.2693 -4.66414 -3.87998 0
M  V30 996 H 91.0083 -3.49147 -3.40511 0
M  V30 997 H 90.0133 -5.18165 -1.83806 0
M  V30 998 H 91.2383 -6.3749 -2.34059 0
M  V30 999 H 89.1843 -5.06823 -4.16493 0
M  V30 1000 H 89.1013 -6.68151 -3.53708 0
M  V30 1001 H 90.3693 -6.25756 -4.64811 0
M  V30 1002 N 94.5984 0.214957 -1.56127 0
M  V30 1003 C 95.8284 0.953707 -1.8327 0
M  V30 1004 C 96.2364 1.78181 -0.636262 0
M  V30 1005 O 95.5794 1.79191 0.404516 0
M  V30 1006 C 95.6414 1.91516 -3.0424 0
M  V30 1007 C 95.3054 1.27094 -4.38972 0
M  V30 1008 C 96.3024 0.657575 -5.15725 0
M  V30 1009 C 93.9874 1.28073 -4.85698 0
M  V30 1010 C 95.9814 0.0625968 -6.37369 0
M  V30 1011 C 93.6684 0.681914 -6.07283 0
M  V30 1012 C 94.6664 0.0739046 -6.8296 0
M  V30 1013 O 94.3544 -0.515582 -8.02245 0
M  V30 1014 H 94.0864 0.284764 -0.613095 0
M  V30 1015 H 96.6404 0.233283 -2.04071 0
M  V30 1016 H 94.8704 2.67475 -2.79274 0
M  V30 1017 H 96.5594 2.52001 -3.18198 0
M  V30 1018 H 97.3254 0.642288 -4.80728 0
M  V30 1019 H 93.2044 1.74337 -4.26764 0
M  V30 1020 H 96.7484 -0.412593 -6.96379 0
M  V30 1021 H 92.6454 0.694636 -6.41752 0
M  V30 1022 H 93.4134 -0.410544 -8.1747 0
M  V30 1023 N 96.0765 1.50051 0.48192 0
M  V30 1024 C 97.3235 1.60498 1.23477 0
M  V30 1025 C 97.6515 0.300331 1.92167 0
M  V30 1026 O 96.9065 -0.713094 1.82246 0
M  V30 1027 C 97.2055 2.72717 2.30998 0
M  V30 1028 C 96.8715 4.13572 1.79636 0
M  V30 1029 C 95.5335 4.519 1.65348 0
M  V30 1030 C 97.8855 5.01649 1.41412 0
M  V30 1031 C 95.2135 5.76057 1.11244 0
M  V30 1032 C 97.5655 6.26343 0.887538 0
M  V30 1033 C 96.2295 6.63483 0.731207 0
M  V30 1034 H 95.4995 0.587303 0.451836 0
M  V30 1035 H 98.1465 1.83948 0.532468 0
M  V30 1036 H 96.4515 2.43312 3.07094 0
M  V30 1037 H 98.1485 2.78006 2.88988 0
M  V30 1038 H 94.7385 3.83329 1.91721 0
M  V30 1039 H 98.9225 4.72679 1.51289 0
M  V30 1040 H 94.1785 6.03516 0.978686 0
M  V30 1041 H 98.3525 6.93958 0.582654 0
M  V30 1042 H 95.9795 7.59568 0.309806 0
M  V30 1043 N 97.5546 -0.734337 1.39446 0
M  V30 1044 C 98.4866 -1.85861 1.34121 0
M  V30 1045 C 99.4996 -1.60871 0.249864 0
M  V30 1046 O 100.689 -1.71093 0.508865 0
M  V30 1047 C 97.7886 -3.21899 1.05991 0
M  V30 1048 C 96.9616 -3.74239 2.26415 0
M  V30 1049 C 96.0206 -4.88841 1.94733 0
M  V30 1050 O 95.0466 -5.02468 2.67422 0
M  V30 1051 N 96.2486 -5.73261 0.913884 0
M  V30 1052 H 99.0136 -1.90934 2.31007 0
M  V30 1053 H 96.5746 -0.915102 1.33557 0
M  V30 1054 H 98.5666 -3.96136 0.828147 0
M  V30 1055 H 97.1366 -3.12091 0.178361 0
M  V30 1056 H 96.3566 -2.91347 2.65539 0
M  V30 1057 H 97.6446 -4.05942 3.06738 0
M  V30 1058 H 97.0426 -5.64842 0.311476 0
M  V30 1059 H 95.5996 -6.47563 0.742015 0
M  V30 1060 N 99.0327 -1.24633 -0.964593 0
M  V30 1061 C 100.281 -1.08573 -1.70459 0
M  V30 1062 C 100.602 0.375655 -1.91347 0
M  V30 1063 O 99.8717 1.26779 -1.49345 0
M  V30 1064 H 98.4517 -0.398784 -0.631649 0
M  V30 1065 H 101.114 -1.56601 -1.16026 0
M  V30 1066 H 100.21 -1.58623 -2.68785 0
M  V30 1067 N 100.511 1.16574 -1.06058 0
M  V30 1068 C 101.458 2.20883 -0.669263 0
M  V30 1069 C 102.428 1.62729 0.332918 0
M  V30 1070 O 103.613 1.895 0.222346 0
M  V30 1071 C 100.753 3.45049 -0.0593572 0
M  V30 1072 C 99.8658 4.17458 -1.11143 0
M  V30 1073 C 99.0008 5.29135 -0.467916 0
M  V30 1074 C 98.0398 5.93343 -1.50369 0
M  V30 1075 N 97.1768 6.96516 -0.883706 0
M  V30 1076 H 102.017 2.53709 -1.5632 0
M  V30 1077 H 99.5538 1.24616 -0.781625 0
M  V30 1078 H 101.512 4.16033 0.311771 0
M  V30 1079 H 100.142 3.12781 0.797992 0
M  V30 1080 H 99.1938 3.45101 -1.60029 0
M  V30 1081 H 100.506 4.61307 -1.89731 0
M  V30 1082 H 99.6598 6.06684 -0.0436871 0
M  V30 1083 H 98.3988 4.86443 0.349864 0
M  V30 1084 H 97.4038 5.14517 -1.93784 0
M  V30 1085 H 98.6288 6.38114 -2.32352 0
M  V30 1086 H 96.5748 6.55943 -0.086595 0
M  V30 1087 H 96.4918 7.38723 -1.607 0
M  V30 1088 H 97.7598 7.77993 -0.484543 0
M  V30 1089 N 101.989 0.842826 1.3317 0
M  V30 1090 C 102.952 0.284065 2.27433 0
M  V30 1091 C 103.952 -0.54948 1.5112 0
M  V30 1092 O 105.142 -0.362699 1.70382 0
M  V30 1093 C 102.274 -0.599384 3.35589 0
M  V30 1094 H 103.467 1.11589 2.78366 0
M  V30 1095 H 101.02 0.616221 1.4364 0
M  V30 1096 H 101.755 -1.45349 2.89904 0
M  V30 1097 H 101.54 -0.00291266 3.921 0
M  V30 1098 H 103.03 -0.983488 4.05854 0
M  V30 1099 N 103.467 -1.45747 0.599634 0
M  V30 1100 C 104.713 -2.02592 0.0918643 0
M  V30 1101 C 105.046 -1.46806 -1.27128 0
M  V30 1102 O 104.321 -0.639658 -1.83681 0
M  V30 1103 C 104.604 -3.60073 0.0443398 0
M  V30 1104 C 104.457 -4.26208 1.43759 0
M  V30 1105 C 105.776 -4.35309 -0.647608 0
M  V30 1106 H 102.895 -0.736175 0.034857 0
M  V30 1107 H 105.537 -1.73694 0.770081 0
M  V30 1108 H 103.687 -3.84823 -0.533224 0
M  V30 1109 H 105.359 -4.12668 2.06162 0
M  V30 1110 H 103.602 -3.84916 2.00056 0
M  V30 1111 H 104.273 -5.35069 1.35665 0
M  V30 1112 H 106.749 -4.15805 -0.156776 0
M  V30 1113 H 105.625 -5.45038 -0.649942 0
M  V30 1114 H 105.886 -4.07598 -1.71219 0
M  V30 1115 N 104.945 -0.338344 -1.53925 0
M  V30 1116 C 106.191 0.260143 -2.01125 0
M  V30 1117 C 106.524 1.50617 -1.22589 0
M  V30 1118 O 105.799 1.91979 -0.312113 0
M  V30 1119 C 106.082 0.579499 -3.55407 0
M  V30 1120 C 105.935 -0.678264 -4.44657 0
M  V30 1121 C 107.254 1.39122 -4.17532 0
M  V30 1122 H 104.373 0.0930772 -0.731099 0
M  V30 1123 H 107.015 -0.457852 -1.84401 0
M  V30 1124 H 105.165 1.19118 -3.69788 0
M  V30 1125 H 106.837 -1.31631 -4.42121 0
M  V30 1126 H 105.08 -1.3042 -4.13731 0
M  V30 1127 H 105.751 -0.410143 -5.50474 0
M  V30 1128 H 108.227 0.874035 -4.06817 0
M  V30 1129 H 107.103 1.58342 -5.25565 0
M  V30 1130 H 107.364 2.39178 -3.71815 0
M  V30 1131 N 106.423 1.57458 -0.0668435 0
M  V30 1132 C 107.333 2.15937 0.916975 0
M  V30 1133 C 108.349 1.12123 1.33058 0
M  V30 1134 O 109.525 1.44366 1.40429 0
M  V30 1135 C 106.59 2.70547 2.16807 0
M  V30 1136 C 105.651 3.89215 1.81135 0
M  V30 1137 C 104.884 4.41211 3.0028 0
M  V30 1138 O 105.107 3.92225 4.14144 0
M  V30 1139 O 104.041 5.32605 2.80384 0
M  V30 1140 H 107.867 3.00354 0.449561 0
M  V30 1141 H 105.452 1.48584 0.155949 0
M  V30 1142 H 107.334 3.0557 2.90181 0
M  V30 1143 H 106.009 1.89192 2.62656 0
M  V30 1144 H 104.916 3.59054 1.05028 0
M  V30 1145 H 106.249 4.71848 1.40073 0
M  V30 1146 N 107.901 -0.206675 1.56239 0
M  V30 1147 C 109.126 -0.949474 1.8439 0
M  V30 1148 C 109.551 -1.76549 0.649016 0
M  V30 1149 O 108.909 -1.76782 -0.402231 0
M  V30 1150 C 108.957 -1.83078 3.10668 0
M  V30 1151 O 108.061 -2.9281 2.90407 0
M  V30 1152 H 107.402 -0.268033 0.607499 0
M  V30 1153 H 109.932 -0.215488 2.03462 0
M  V30 1154 H 109.942 -2.2377 3.41161 0
M  V30 1155 H 108.617 -1.23112 3.97261 0
M  V30 1156 H 107.194 -2.55956 2.71184 0
M  V30 1157 N 109.379 -1.50304 -0.473955 0
M  V30 1158 C 110.628 -1.60392 -1.22301 0
M  V30 1159 C 110.941 -0.308411 -1.93153 0
M  V30 1160 O 112.147 -0.288156 -2.69966 0
M  V30 1161 C 110.603 -2.83109 -2.2221 0
M  V30 1162 C 110.211 -4.19524 -1.57173 0
M  V30 1163 C 111.955 -3.0254 -2.97775 0
M  V30 1164 C 109.862 -5.33431 -2.55353 0
M  V30 1165 H 108.792 -0.597286 -0.460179 0
M  V30 1166 H 111.443 -1.76731 -0.493803 0
M  V30 1167 H 109.825 -2.60322 -2.9841 0
M  V30 1168 H 110.999 -4.52554 -0.867824 0
M  V30 1169 H 109.314 -4.05674 -0.939002 0
M  V30 1170 H 111.911 -3.84811 -3.71248 0
M  V30 1171 H 112.254 -2.14154 -3.56992 0
M  V30 1172 H 112.787 -3.25494 -2.28688 0
M  V30 1173 H 109.526 -6.23962 -2.00878 0
M  V30 1174 H 109.046 -5.04823 -3.23904 0
M  V30 1175 H 110.725 -5.63887 -3.17239 0
M  V30 1176 N 110.857 0.726932 -1.39834 0
M  V30 1177 C 111.789 1.85147 -1.35104 0
M  V30 1178 C 112.802 1.60736 -0.258392 0
M  V30 1179 O 113.991 1.70821 -0.517931 0
M  V30 1180 C 111.091 3.21332 -1.07697 0
M  V30 1181 C 110.264 3.73033 -2.28396 0
M  V30 1182 C 109.323 4.87802 -1.97322 0
M  V30 1183 O 108.349 5.01043 -2.70083 0
M  V30 1184 N 109.551 5.72768 -0.944273 0
M  V30 1185 H 112.316 1.89706 -2.32017 0
M  V30 1186 H 109.877 0.908006 -1.3404 0
M  V30 1187 H 111.869 3.95691 -0.849144 0
M  V30 1188 H 110.439 3.11992 -0.194909 0
M  V30 1189 H 109.659 2.89934 -2.6708 0
M  V30 1190 H 110.947 4.0431 -3.08887 0
M  V30 1191 H 110.345 5.64669 -0.341427 0
M  V30 1192 H 108.902 6.4716 -0.776346 0
M  V30 1193 N 112.336 1.25143 0.95797 0
M  V30 1194 C 113.752 1.01892 1.22842 0
M  V30 1195 C 113.952 -0.266311 1.99732 0
M  V30 1196 O 113.008 -0.979913 2.3271 0
M  V30 1197 C 114.321 2.24004 2.00606 0
M  V30 1198 C 115.869 2.28731 2.13662 0
M  V30 1199 C 116.344 3.5049 2.94823 0
M  V30 1200 N 117.835 3.50866 3.02403 0
M  V30 1201 C 118.57 4.4174 3.65586 0
M  V30 1202 N 118.066 5.42882 4.30408 0
M  V30 1203 N 119.859 4.29429 3.62694 0
M  V30 1204 H 112.01 2.07718 0.443493 0
M  V30 1205 H 114.273 0.912031 0.258657 0
M  V30 1206 H 113.979 3.17395 1.51503 0
M  V30 1207 H 113.853 2.26907 3.01319 0
M  V30 1208 H 116.24 1.35865 2.61963 0
M  V30 1209 H 116.321 2.29848 1.12265 0
M  V30 1210 H 115.965 4.43676 2.47213 0
M  V30 1211 H 115.895 3.46617 3.96439 0
M  V30 1212 H 118.386 2.777 2.56302 0
M  V30 1213 H 118.699 6.0844 4.76467 0
M  V30 1214 H 117.044 5.46758 4.29047 0
M  V30 1215 H 120.235 3.49643 3.11236 0
M  V30 1216 H 120.408 5.00448 4.1165 0
M  V30 1217 N 113.814 -1.1601 1.06675 0
M  V30 1218 C 115.06 -1.86909 0.786945 0
M  V30 1219 C 115.393 -1.81717 -0.685018 0
M  V30 1220 O 114.668 -1.23551 -1.50218 0
M  V30 1221 C 114.951 -3.36313 1.28707 0
M  V30 1222 C 114.804 -3.50175 2.82308 0
M  V30 1223 C 116.123 -4.3084 0.898071 0
M  V30 1224 H 113.242 -0.678677 0.287343 0
M  V30 1225 H 115.884 -1.36336 1.32334 0
M  V30 1226 H 114.034 -3.79513 0.830768 0
M  V30 1227 H 115.706 -3.15886 3.36175 0
M  V30 1228 H 113.949 -2.91959 3.20847 0
M  V30 1229 H 114.62 -4.55116 3.12368 0
M  V30 1230 H 117.096 -3.95561 1.29114 0
M  V30 1231 H 115.972 -5.33876 1.27543 0
M  V30 1232 H 116.233 -4.41662 -0.196651 0
M  V30 1233 N 115.292 -0.849877 -1.32721 0
M  V30 1234 C 116.517 -0.463856 -2.02146 0
M  V30 1235 C 116.942 0.930449 -1.63476 0
M  V30 1236 O 116.3 1.61033 -0.832952 0
M  V30 1237 C 116.348 -0.604955 -3.55489 0
M  V30 1238 O 115.452 0.36425 -4.10788 0
M  V30 1239 H 114.793 -0.187046 -0.637111 0
M  V30 1240 H 117.323 -1.14775 -1.69375 0
M  V30 1241 H 117.333 -0.490696 -4.05038 0
M  V30 1242 H 116.008 -1.62174 -3.82978 0
M  V30 1243 H 114.585 0.206628 -3.72327 0
M  V30 1244 N 116.77 1.45427 -0.607355 0
M  V30 1245 C 118.186 1.57283 -0.270985 0
M  V30 1246 C 118.386 1.59875 1.22647 0
M  V30 1247 O 117.442 1.52893 2.00948 0
M  V30 1248 C 118.755 2.85566 -0.941952 0
M  V30 1249 C 120.303 2.9924 -0.917849 0
M  V30 1250 C 120.778 4.30293 -1.56882 0
M  V30 1251 N 122.269 4.37051 -1.5343 0
M  V30 1252 C 123.004 5.37123 -2.00715 0
M  V30 1253 N 122.5 6.43734 -2.56084 0
M  V30 1254 N 124.293 5.28479 -1.91484 0
M  V30 1255 H 116.444 1.41988 -1.57966 0
M  V30 1256 H 118.707 0.67885 -0.661715 0
M  V30 1257 H 118.413 2.8955 -1.99633 0
M  V30 1258 H 118.287 3.74322 -0.465096 0
M  V30 1259 H 120.674 2.94822 0.127984 0
M  V30 1260 H 120.755 2.11895 -1.43297 0
M  V30 1261 H 120.399 4.35469 -2.61398 0
M  V30 1262 H 120.329 5.16454 -1.02873 0
M  V30 1263 H 122.82 3.60615 -1.12982 0
M  V30 1264 H 123.133 7.16341 -2.89958 0
M  V30 1265 H 121.478 6.44485 -2.60122 0
M  V30 1266 H 124.669 4.44098 -1.47967 0
M  V30 1267 H 124.842 6.0632 -2.28648 0
M  V30 1268 N 118.248 0.346503 1.53744 0
M  V30 1269 C 119.659 -0.136779 1.86198 0
M  V30 1270 C 120.01 -1.49749 1.26766 0
M  V30 1271 O 119.135 -2.08417 0.582355 0
M  V30 1272 C 119.73 -0.254966 3.37839 0
M  V30 1273 C 118.289 -0.682482 3.70161 0
M  V30 1274 C 117.436 0.181981 2.76702 0
M  V30 1275 H 120.387 0.565994 1.48264 0
M  V30 1276 H 120.408 -1.08195 3.64793 0
M  V30 1277 H 119.92 0.735526 3.81066 0
M  V30 1278 H 118.021 -1.68189 3.3248 0
M  V30 1279 H 118.134 -0.470326 4.76786 0
M  V30 1280 H 116.498 -0.34615 2.52337 0
M  V30 1281 H 117.281 1.16966 3.2276 0
M  V30 1282 N 119.726 -1.57421 0.075193 0
M  V30 1283 C 120.974 -1.93236 -0.591974 0
M  V30 1284 C 121.295 -0.956241 -1.69944 0
M  V30 1285 O 120.565 -0.00494792 -1.95899 0
M  V30 1286 H 119.145 -0.713355 -0.22166 0
M  V30 1287 H 121.807 -1.9444 0.133848 0
M  V30 1288 H 120.903 -2.95131 -1.01509 0
M  V30 1289 N 121.204 0.198386 -1.56346 0
M  V30 1290 C 122.134 1.24865 -1.9731 0
M  V30 1291 C 123.115 1.47651 -0.844576 0
M  V30 1292 O 124.3 1.59444 -1.10866 0
M  V30 1293 C 121.43 2.59358 -2.30977 0
M  V30 1294 C 120.384 2.5119 -3.46537 0
M  V30 1295 C 119.71 3.89926 -3.65871 0
M  V30 1296 C 121.01 2.03977 -4.80823 0
M  V30 1297 H 122.704 0.908252 -2.85291 0
M  V30 1298 H 120.25 0.435462 -1.37258 0
M  V30 1299 H 122.203 3.33011 -2.58228 0
M  V30 1300 H 120.927 2.95132 -1.39874 0
M  V30 1301 H 119.586 1.79993 -3.19371 0
M  V30 1302 H 119.234 4.23046 -2.72105 0
M  V30 1303 H 118.934 3.85336 -4.4361 0
M  V30 1304 H 120.458 4.65205 -3.95495 0
M  V30 1305 H 121.872 2.67386 -5.07127 0
M  V30 1306 H 120.269 2.10397 -5.62008 0
M  V30 1307 H 121.339 0.992861 -4.74626 0
M  V30 1308 N 122.682 1.50554 0.465978 0
M  V30 1309 C 124.098 1.38093 0.800154 0
M  V30 1310 C 124.298 0.440988 1.96615 0
M  V30 1311 O 123.354 -0.114499 2.5224 0
M  V30 1312 C 124.667 2.79565 1.10742 0
M  V30 1313 C 126.215 2.88516 1.21357 0
M  V30 1314 C 126.69 4.30833 1.55393 0
M  V30 1315 N 128.181 4.33807 1.62375 0
M  V30 1316 C 128.916 5.40927 1.90225 0
M  V30 1317 N 128.412 6.58247 2.16062 0
M  V30 1318 N 130.205 5.28376 1.9177 0
M  V30 1319 H 122.356 2.10237 -0.302366 0
M  V30 1320 H 124.619 0.945203 -0.0727746 0
M  V30 1321 H 124.325 3.50208 0.323661 0
M  V30 1322 H 124.199 3.17125 2.04234 0
M  V30 1323 H 126.586 2.1809 1.98799 0
M  V30 1324 H 126.667 2.54492 0.258321 0
M  V30 1325 H 126.311 5.01799 0.784889 0
M  V30 1326 H 126.241 4.62347 2.52076 0
M  V30 1327 H 128.732 3.49212 1.44427 0
M  V30 1328 H 129.045 7.3569 2.36601 0
M  V30 1329 H 127.39 6.61413 2.13444 0
M  V30 1330 H 130.581 4.35715 1.71085 0
M  V30 1331 H 130.754 6.11944 2.13139 0
M  V30 1332 N 124.16 -0.719506 1.40217 0
M  V30 1333 C 125.409 -1.47486 1.37589 0
M  V30 1334 C 125.722 -1.9559 -0.0201568 0
M  V30 1335 O 126.928 -2.70973 -0.169049 0
M  V30 1336 C 125.384 -2.66575 2.41796 0
M  V30 1337 C 124.992 -2.25358 3.87192 0
M  V30 1338 C 126.736 -3.4433 2.48269 0
M  V30 1339 C 124.643 -3.41262 4.83005 0
M  V30 1340 H 123.573 -0.553901 0.511576 0
M  V30 1341 H 126.224 -0.783427 1.65936 0
M  V30 1342 H 124.606 -3.3787 2.06543 0
M  V30 1343 H 125.78 -1.61509 4.31569 0
M  V30 1344 H 124.095 -1.60657 3.84159 0
M  V30 1345 H 126.692 -4.30569 3.17041 0
M  V30 1346 H 127.035 -3.87872 1.51198 0
M  V30 1347 H 127.568 -2.80076 2.82493 0
M  V30 1348 H 124.307 -3.02755 5.81394 0
M  V30 1349 H 123.827 -4.0404 4.43297 0
M  V30 1350 H 125.506 -4.07383 5.02641 0
M  V30 1351 N 125.638 -1.25649 -0.95132 0
M  V30 1352 C 126.868 -1.13179 -1.72841 0
M  V30 1353 C 127.276 0.316827 -1.86528 0
M  V30 1354 O 126.619 1.22948 -1.3649 0
M  V30 1355 C 126.681 -1.71644 -3.15878 0
M  V30 1356 C 126.345 -3.20667 -3.25609 0
M  V30 1357 C 127.342 -4.17616 -3.09666 0
M  V30 1358 C 125.027 -3.6094 -3.49324 0
M  V30 1359 C 127.021 -5.52817 -3.17289 0
M  V30 1360 C 124.708 -4.96278 -3.56584 0
M  V30 1361 C 125.706 -5.92025 -3.40581 0
M  V30 1362 O 125.394 -7.24899 -3.47528 0
M  V30 1363 H 125.126 -0.395389 -0.54831 0
M  V30 1364 H 127.68 -1.66566 -1.20187 0
M  V30 1365 H 125.91 -1.12707 -3.69911 0
M  V30 1366 H 127.599 -1.54225 -3.75459 0
M  V30 1367 H 128.365 -3.87842 -2.91211 0
M  V30 1368 H 124.244 -2.86907 -3.6084 0
M  V30 1369 H 127.788 -6.2753 -3.04716 0
M  V30 1370 H 123.685 -5.25716 -3.74556 0
M  V30 1371 H 124.453 -7.33039 -3.64138 0
M  V30 1372 N 127.117 1.15442 -1.07289 0
M  V30 1373 C 128.064 2.20161 -0.692653 0
M  V30 1374 C 129.034 1.63073 0.31564 0
M  V30 1375 O 130.219 1.89725 0.202235 0
M  V30 1376 C 127.359 3.44967 -0.0959509 0
M  V30 1377 C 126.472 4.16256 -1.15564 0
M  V30 1378 C 125.607 5.28609 -0.524011 0
M  V30 1379 C 124.646 5.91715 -1.56653 0
M  V30 1380 N 123.783 6.9554 -0.957531 0
M  V30 1381 H 128.623 2.52037 -1.59002 0
M  V30 1382 H 126.16 1.2378 -0.794798 0
M  V30 1383 H 128.118 4.16341 0.267628 0
M  V30 1384 H 126.748 3.1361 0.764772 0
M  V30 1385 H 125.8 3.43385 -1.6368 0
M  V30 1386 H 127.112 4.59268 -1.94613 0
M  V30 1387 H 126.266 6.06604 -0.108032 0
M  V30 1388 H 125.005 4.86787 0.29825 0
M  V30 1389 H 124.01 5.12433 -1.9923 0
M  V30 1390 H 125.235 6.35614 -2.39107 0
M  V30 1391 H 123.181 6.55814 -0.156162 0
M  V30 1392 H 123.098 7.36977 -1.68526 0
M  V30 1393 H 124.366 7.77435 -0.567032 0
M  V30 1394 N 128.595 0.856903 1.32268 0
M  V30 1395 C 130.011 0.547061 1.49931 0
M  V30 1396 C 130.211 -0.921781 1.7918 0
M  V30 1397 O 129.267 -1.70469 1.8627 0
M  V30 1398 C 130.58 1.43599 2.64196 0
M  V30 1399 C 132.128 1.43665 2.78081 0
M  V30 1400 C 132.603 2.31085 3.95428 0
M  V30 1401 N 134.094 2.28893 4.02694 0
M  V30 1402 C 134.829 2.93262 4.92732 0
M  V30 1403 N 134.325 3.66751 5.87763 0
M  V30 1404 N 136.118 2.82638 4.85873 0
M  V30 1405 H 128.269 1.8075 1.11549 0
M  V30 1406 H 130.532 0.772144 0.549997 0
M  V30 1407 H 130.238 2.48058 2.49319 0
M  V30 1408 H 130.112 1.12502 3.60032 0
M  V30 1409 H 132.499 0.399701 2.92381 0
M  V30 1410 H 132.58 1.7878 1.82952 0
M  V30 1411 H 132.224 3.34849 3.81888 0
M  V30 1412 H 132.154 1.93302 4.89839 0
M  V30 1413 H 134.645 1.75466 3.34694 0
M  V30 1414 H 134.958 4.13027 6.53168 0
M  V30 1415 H 133.303 3.70859 5.87783 0
M  V30 1416 H 136.494 2.24774 4.10602 0
M  V30 1417 H 136.667 3.33084 5.55841 0
M  V30 1418 N 130.073 -1.45103 0.615059 0
M  V30 1419 C 131.02 -2.30586 -0.0993978 0
M  V30 1420 C 131.99 -1.42544 -0.852669 0
M  V30 1421 O 133.175 -1.71465 -0.836917 0
M  V30 1422 C 130.315 -3.27572 -1.08583 0
M  V30 1423 C 129.428 -4.30717 -0.332656 0
M  V30 1424 C 128.563 -5.14807 -1.30947 0
M  V30 1425 C 127.602 -6.09673 -0.544538 0
M  V30 1426 N 126.739 -6.86517 -1.47101 0
M  V30 1427 H 131.579 -2.91144 0.635542 0
M  V30 1428 H 129.116 -1.4346 0.325206 0
M  V30 1429 H 131.074 -3.82276 -1.67095 0
M  V30 1430 H 129.704 -2.68751 -1.78809 0
M  V30 1431 H 128.756 -3.78615 0.368107 0
M  V30 1432 H 130.068 -4.98102 0.263842 0
M  V30 1433 H 129.222 -5.73948 -1.96643 0
M  V30 1434 H 127.961 -4.47458 -1.9399 0
M  V30 1435 H 126.966 -5.49656 0.126003 0
M  V30 1436 H 128.191 -6.79052 0.080947 0
M  V30 1437 H 126.137 -6.21851 -2.08895 0
M  V30 1438 H 126.054 -7.50281 -0.928137 0
M  V30 1439 H 127.322 -7.50194 -2.11731 0
M  V30 1440 N 131.551 -0.354651 -1.53558 0
M  V30 1441 C 132.828 0.294281 -1.93374 0
M  V30 1442 C 133.208 1.67313 -1.28723 0
M  V30 1443 O 132.556 2.24179 -0.442247 0
M  V30 1444 C 132.766 0.355445 -3.47185 0
M  V30 1445 C 134.114 0.601007 -4.20325 0
M  V30 1446 O 135.138 0.437106 -3.53508 0
M  V30 1447 O 133.997 0.919322 -5.38712 0
M  V30 1448 H 131.091 0.174033 -0.808481 0
M  V30 1449 H 133.637 -0.406638 -1.64756 0
M  V30 1450 H 132.409 -0.611729 -3.86489 0
M  V30 1451 H 132.032 1.1027 -3.82003 0
M  V30 1452 N 133.029 1.57378 -0.0835403 0
M  V30 1453 C 133.939 2.16897 0.894021 0
M  V30 1454 C 134.955 1.13528 1.31861 0
M  V30 1455 O 136.131 1.45848 1.3889 0
M  V30 1456 C 133.196 2.72831 2.13925 0
M  V30 1457 C 132.257 3.91115 1.76997 0
M  V30 1458 C 131.49 4.44371 2.95584 0
M  V30 1459 O 131.713 3.96596 4.09961 0
M  V30 1460 O 130.647 5.35549 2.74719 0
M  V30 1461 H 134.473 3.00814 0.417679 0
M  V30 1462 H 132.058 1.48741 0.140181 0
M  V30 1463 H 133.94 3.0863 2.86924 0
M  V30 1464 H 132.615 1.91967 2.60635 0
M  V30 1465 H 131.522 3.60148 1.01214 0
M  V30 1466 H 132.855 4.73307 1.3506 0
M  V30 1467 N 134.507 -0.190092 1.56449 0
M  V30 1468 C 135.437 -1.23816 1.97969 0
M  V30 1469 C 136.418 -1.47201 0.852395 0
M  V30 1470 O 137.603 -1.58854 1.1171 0
M  V30 1471 C 134.733 -2.5813 2.3235 0
M  V30 1472 C 133.687 -2.49348 3.47864 0
M  V30 1473 C 133.013 -3.8798 3.67934 0
M  V30 1474 C 134.313 -2.01424 4.81898 0
M  V30 1475 H 136.007 -0.89311 2.85769 0
M  V30 1476 H 133.553 -0.428177 1.37487 0
M  V30 1477 H 135.506 -3.31637 2.59991 0
M  V30 1478 H 134.23 -2.94386 1.41438 0
M  V30 1479 H 132.889 -1.78297 3.20321 0
M  V30 1480 H 132.537 -4.21597 2.74344 0
M  V30 1481 H 132.237 -3.82978 4.45648 0
M  V30 1482 H 133.761 -4.63101 3.97957 0
M  V30 1483 H 135.175 -2.64693 5.08538 0
M  V30 1484 H 133.572 -2.07413 5.63116 0
M  V30 1485 H 134.642 -0.967677 4.75146 0
M  V30 1486 N 135.985 -1.50799 -0.457987 0
M  V30 1487 C 137.396 -1.55152 -1.0385 0
M  V30 1488 C 137.747 -0.362719 -1.92818 0
M  V30 1489 O 136.872 0.522915 -2.09987 0
M  V30 1490 C 137.467 -2.81173 -1.89017 0
M  V30 1491 C 136.026 -2.88164 -2.42154 0
M  V30 1492 C 135.173 -2.49591 -1.20829 0
M  V30 1493 H 138.124 -1.56874 -0.240068 0
M  V30 1494 H 138.145 -2.63769 -2.74238 0
M  V30 1495 H 137.657 -3.67677 -1.24238 0
M  V30 1496 H 135.758 -2.06042 -3.10447 0
M  V30 1497 H 135.871 -3.91356 -2.76364 0
M  V30 1498 H 134.235 -2.02322 -1.54719 0
M  V30 1499 H 135.018 -3.38418 -0.576927 0
M  V30 1500 N 137.463 0.71206 -1.40597 0
M  V30 1501 C 138.41 1.82613 -1.41142 0
M  V30 1502 C 139.38 1.63925 -0.267903 0
M  V30 1503 O 140.565 1.85009 -0.466495 0
M  V30 1504 C 137.705 3.20354 -1.28324 0
M  V30 1505 C 136.818 3.50589 -2.52411 0
M  V30 1506 C 135.953 4.77855 -2.32009 0
M  V30 1507 C 134.992 5.01005 -3.51654 0
M  V30 1508 N 134.129 6.19487 -3.30425 0
M  V30 1509 H 138.969 1.81482 -2.36365 0
M  V30 1510 H 136.506 0.886475 -1.17388 0
M  V30 1511 H 138.464 3.99899 -1.18899 0
M  V30 1512 H 137.094 3.20705 -0.367189 0
M  V30 1513 H 136.146 2.65573 -2.72351 0
M  V30 1514 H 137.458 3.63604 -3.41458 0
M  V30 1515 H 136.612 5.65424 -2.19956 0
M  V30 1516 H 135.351 4.67056 -1.40392 0
M  V30 1517 H 134.356 4.1189 -3.64179 0
M  V30 1518 H 135.581 5.13674 -4.44202 0
M  V30 1519 H 133.527 6.09932 -2.41494 0
M  V30 1520 H 133.444 6.33194 -4.13039 0
M  V30 1521 H 134.712 7.09834 -3.22113 0
M  V30 1522 N 138.941 1.26152 0.944643 0
M  V30 1523 C 140.187 1.11657 1.69294 0
M  V30 1524 C 140.52 -0.339926 1.91202 0
M  V30 1525 O 139.795 -1.24994 1.49019 0
M  V30 1526 C 140.078 1.88236 3.06984 0
M  V30 1527 C 139.931 3.41772 2.92424 0
M  V30 1528 C 141.25 1.67343 4.07043 0
M  V30 1529 H 138.369 0.407004 0.614424 0
M  V30 1530 H 141.011 1.55106 1.09737 0
M  V30 1531 H 139.161 1.51308 3.57824 0
M  V30 1532 H 140.833 3.88433 2.48832 0
M  V30 1533 H 139.076 3.68974 2.28124 0
M  V30 1534 H 139.747 3.90579 3.90067 0
M  V30 1535 H 142.223 1.99509 3.65151 0
M  V30 1536 H 141.099 2.23346 5.01406 0
M  V30 1537 H 141.36 0.617158 4.37771 0
M  V30 1538 N 140.419 -1.14872 1.07899 0
M  V30 1539 C 141.352 -2.18794 0.64841 0
M  V30 1540 C 142.33 -1.59065 -0.337189 0
M  V30 1541 O 143.514 -1.86936 -0.242284 0
M  V30 1542 C 140.641 -3.38667 -0.0470417 0
M  V30 1543 C 139.687 -4.16942 0.897884 0
M  V30 1544 S 140.52 -4.78615 2.40183 0
M  V30 1545 C 141.676 -6.0185 1.71834 0
M  V30 1546 H 141.909 -2.5498 1.52881 0
M  V30 1547 H 139.442 -1.25922 0.893484 0
M  V30 1548 H 141.4 -4.08113 -0.442027 0
M  V30 1549 H 140.061 -3.00814 -0.903861 0
M  V30 1550 H 139.254 -5.02726 0.358096 0
M  V30 1551 H 138.856 -3.53073 1.23352 0
M  V30 1552 H 141.148 -6.69574 1.03328 0
M  V30 1553 H 142.091 -6.60408 2.55473 0
M  V30 1554 H 142.499 -5.5173 1.19392 0
M  V30 1555 N 141.898 -0.863906 -1.31812 0
M  V30 1556 C 142.861 -0.320212 -2.26952 0
M  V30 1557 C 143.861 0.525369 -1.51975 0
M  V30 1558 O 145.051 0.335547 -1.70938 0
M  V30 1559 C 142.183 0.545919 -3.365 0
M  V30 1560 H 143.376 -1.16004 -2.76556 0
M  V30 1561 H 140.929 -0.638995 -1.42641 0
M  V30 1562 H 141.664 1.40718 -2.92179 0
M  V30 1563 H 141.449 -0.0594674 -3.92055 0
M  V30 1564 H 142.939 0.918796 -4.07367 0
M  V30 1565 N 143.376 1.44774 -0.622745 0
M  V30 1566 C 144.624 2.01721 -0.123655 0
M  V30 1567 C 144.945 1.49172 1.25589 0
M  V30 1568 O 144.215 0.691974 1.83272 0
M  V30 1569 H 142.795 0.745777 -0.0427225 0
M  V30 1570 H 145.457 1.77382 -0.807559 0
M  V30 1571 H 144.553 3.11984 -0.0849534 0
M  V30 1572 N 144.854 0.36279 1.53368 0
M  V30 1573 C 145.784 -0.476976 2.28576 0
M  V30 1574 C 146.765 -1.08631 1.30894 0
M  V30 1575 O 147.95 -1.10409 1.59761 0
M  V30 1576 C 145.08 -1.61828 3.07293 0
M  V30 1577 C 144.034 -1.13633 4.1264 0
M  V30 1578 C 143.36 -2.36766 4.79423 0
M  V30 1579 C 144.66 -0.223061 5.21823 0
M  V30 1580 H 146.354 0.150474 2.99022 0
M  V30 1581 H 143.9 0.0738103 1.43811 0
M  V30 1582 H 145.853 -2.21237 3.58653 0
M  V30 1583 H 144.577 -2.27292 2.34533 0
M  V30 1584 H 143.236 -0.564945 3.62221 0
M  V30 1585 H 142.884 -3.0068 4.03238 0
M  V30 1586 H 142.584 -2.05192 5.50609 0
M  V30 1587 H 144.108 -2.96865 5.33576 0
M  V30 1588 H 145.522 -0.724545 5.68703 0
M  V30 1589 H 143.919 0.001678 6.001 0
M  V30 1590 H 144.989 0.735553 4.79289 0
M  V30 1591 N 146.332 -1.57332 0.0918853 0
M  V30 1592 C 147.58 -1.93853 -0.571446 0
M  V30 1593 C 147.901 -0.974212 -1.6892 0
M  V30 1594 O 147.171 -0.0257254 -1.95883 0
M  V30 1595 H 145.751 -0.715666 -0.214082 0
M  V30 1596 H 148.413 -1.94287 0.154464 0
M  V30 1597 H 147.509 -2.96191 -0.983729 0
M  V30 1598 N 147.81 0.181792 -1.56548 0
M  V30 1599 C 149.059 0.898348 -1.8059 0
M  V30 1600 C 149.372 1.83862 -0.667379 0
M  V30 1601 O 150.578 2.59678 -0.792446 0
M  V30 1602 C 149.034 1.64791 -3.19956 0
M  V30 1603 C 148.642 0.751789 -4.41647 0
M  V30 1604 C 150.386 2.35331 -3.53298 0
M  V30 1605 C 148.293 1.50098 -5.72035 0
M  V30 1606 H 147.223 0.339194 -0.673397 0
M  V30 1607 H 149.874 0.151413 -1.82874 0
M  V30 1608 H 148.256 2.43921 -3.11959 0
M  V30 1609 H 149.43 -0.0018076 -4.608 0
M  V30 1610 H 147.745 0.156562 -4.16106 0
M  V30 1611 H 150.342 2.91958 -4.47956 0
M  V30 1612 H 150.685 3.10164 -2.77676 0
M  V30 1613 H 151.218 1.63154 -3.62803 0
M  V30 1614 H 147.957 0.795175 -6.50659 0
M  V30 1615 H 147.477 2.22817 -5.56878 0
M  V30 1616 H 149.156 2.05125 -6.13622 0
M  V30 1617 N 149.288 1.51039 0.449983 0
M  V30 1618 C 150.251 1.70863 1.5277 0
M  V30 1619 C 151.251 0.578846 1.5002 0
M  V30 1620 O 152.441 0.846213 1.52266 0
M  V30 1621 C 149.573 1.75341 2.9235 0
M  V30 1622 H 150.766 2.67034 1.36502 0
M  V30 1623 H 148.319 1.40838 0.677812 0
M  V30 1624 H 149.054 0.809383 3.14037 0
M  V30 1625 H 148.839 2.57436 2.95752 0
M  V30 1626 H 150.329 1.92559 3.70555 0
M  V30 1627 N 150.766 -0.704594 1.40972 0
M  V30 1628 C 152.012 -1.46675 1.40051 0
M  V30 1629 C 152.345 -1.94199 0.00641102 0
M  V30 1630 O 151.62 -1.68916 -0.964235 0
M  V30 1631 C 151.903 -2.68505 2.39952 0
M  V30 1632 C 151.756 -2.26805 3.88432 0
M  V30 1633 C 153.075 -3.70686 2.37233 0
M  V30 1634 H 150.194 -0.532015 0.510028 0
M  V30 1635 H 152.836 -0.803255 1.72185 0
M  V30 1636 H 150.986 -3.25114 2.1268 0
M  V30 1637 H 152.658 -1.75592 4.26574 0
M  V30 1638 H 150.901 -1.58685 4.03734 0
M  V30 1639 H 151.572 -3.14181 4.53866 0
M  V30 1640 H 154.048 -3.23731 2.61415 0
M  V30 1641 H 152.924 -4.53553 3.09162 0
M  V30 1642 H 153.185 -4.19754 1.38777 0
M  V30 1643 N 152.244 -1.26651 -0.937939 0
M  V30 1644 C 153.49 -1.12553 -1.687 0
M  V30 1645 C 153.823 0.329782 -1.91379 0
M  V30 1646 O 153.098 1.24202 -1.4968 0
M  V30 1647 C 153.381 -1.89862 -3.05981 0
M  V30 1648 C 153.234 -3.43318 -2.90607 0
M  V30 1649 C 154.553 -1.69499 -4.0615 0
M  V30 1650 H 151.672 -0.410257 -0.612257 0
M  V30 1651 H 154.314 -1.55685 -1.08913 0
M  V30 1652 H 152.464 -1.53204 -3.57017 0
M  V30 1653 H 154.136 -3.89747 -2.46769 0
M  V30 1654 H 152.379 -3.70179 -2.26164 0
M  V30 1655 H 153.05 -3.92642 -3.8799 0
M  V30 1656 H 155.526 -2.01442 -3.64088 0
M  V30 1657 H 154.402 -2.26002 -5.00214 0
M  V30 1658 H 154.663 -0.640365 -4.37438 0
M  V30 1659 N 153.722 1.14298 -1.08507 0
M  V30 1660 C 154.947 1.8976 -0.837001 0
M  V30 1661 C 155.372 1.78097 0.605228 0
M  V30 1662 O 154.73 1.12188 1.4242 0
M  V30 1663 C 154.778 3.37685 -1.26495 0
M  V30 1664 O 153.882 4.10281 -0.417514 0
M  V30 1665 H 153.223 0.590365 -0.303917 0
M  V30 1666 H 155.753 1.44672 -1.44676 0
M  V30 1667 H 155.763 3.88501 -1.24625 0
M  V30 1668 H 154.438 3.45492 -2.31534 0
M  V30 1669 H 153.015 3.69536 -0.499722 0
M  V30 1670 N 155.201 0.870884 1.31352 0
M  V30 1671 C 156.429 0.49677 2.00848 0
M  V30 1672 C 156.844 -0.910998 1.65367 0
M  V30 1673 O 156.201 -1.59696 0.883374 0
M  V30 1674 C 156.252 0.645308 3.55694 0
M  V30 1675 O 155.973 1.99764 3.89905 0
M  V30 1676 C 157.474 0.272326 4.42463 0
M  V30 1677 H 154.694 0.193462 0.642506 0
M  V30 1678 H 157.238 1.1723 1.67563 0
M  V30 1679 H 155.393 0.0173176 3.87396 0
M  V30 1680 H 155.807 2.00607 4.84621 0
M  V30 1681 H 157.281 0.427208 5.50344 0
M  V30 1682 H 157.758 -0.788587 4.32062 0
M  V30 1683 H 158.364 0.876054 4.1618 0
M  V30 1684 N 156.679 -1.44442 0.630414 0
M  V30 1685 C 157.904 -2.06927 0.139944 0
M  V30 1686 C 158.329 -1.46795 -1.17613 0
M  V30 1687 O 157.687 -0.569144 -1.72135 0
M  V30 1688 C 157.735 -3.6058 0.0379581 0
M  V30 1689 O 156.839 -3.99937 -1.0062 0
M  V30 1690 H 156.18 -0.658608 0.0844483 0
M  V30 1691 H 158.71 -1.85327 0.866891 0
M  V30 1692 H 158.72 -4.07714 -0.152856 0
M  V30 1693 H 157.395 -4.03728 0.998809 0
M  V30 1694 H 155.972 -3.64436 -0.79001 0
M  V30 1695 N 158.157 -0.370918 -1.53173 0
M  V30 1696 C 159.104 0.473035 -2.259 0
M  V30 1697 C 160.074 1.07311 -1.26781 0
M  V30 1698 O 161.259 1.1046 -1.55574 0
M  V30 1699 C 158.399 1.60405 -3.05556 0
M  V30 1700 C 157.512 1.02863 -4.19575 0
M  V30 1701 C 156.647 2.12918 -4.86661 0
M  V30 1702 C 155.686 1.52869 -5.92704 0
M  V30 1703 N 154.823 2.56779 -6.53459 0
M  V30 1704 H 159.663 -0.153649 -2.97604 0
M  V30 1705 H 157.2 -0.0875946 -1.46839 0
M  V30 1706 H 159.158 2.27034 -3.50016 0
M  V30 1707 H 157.788 2.20131 -2.36097 0
M  V30 1708 H 156.84 0.252465 -3.79561 0
M  V30 1709 H 158.152 0.549642 -4.95762 0
M  V30 1710 H 157.306 2.87356 -5.34333 0
M  V30 1711 H 156.045 2.6417 -4.09958 0
M  V30 1712 H 155.05 0.769479 -5.44389 0
M  V30 1713 H 156.275 1.02435 -6.7133 0
M  V30 1714 H 154.221 3.07235 -5.79606 0
M  V30 1715 H 154.138 2.13583 -7.25202 0
M  V30 1716 H 155.406 3.30903 -7.05779 0
M  V30 1717 N 159.635 1.57281 -0.100228 0
M  V30 1718 C 160.883 1.94153 0.561157 0
M  V30 1719 C 161.204 0.983157 1.68401 0
M  V30 1720 O 160.474 0.0361132 1.95867 0
M  V30 1721 H 159.054 0.716791 0.210283 0
M  V30 1722 H 161.716 1.94202 -0.164765 0
M  V30 1723 H 160.812 2.96709 0.968008 0
M  V30 1724 N 161.113 -0.173488 1.56642 0
M  V30 1725 C 162.359 -0.891784 1.8214 0
M  V30 1726 C 162.692 -1.8199 0.677736 0
M  V30 1727 O 161.967 -1.91842 -0.320446 0
M  V30 1728 C 162.25 -1.68933 3.18015 0
M  V30 1729 C 162.103 -0.784487 4.42906 0
M  V30 1730 C 163.422 -2.65748 3.50808 0
M  V30 1731 H 160.541 -0.322761 0.662567 0
M  V30 1732 H 163.183 -0.158095 1.89341 0
M  V30 1733 H 161.333 -2.31482 3.12007 0
M  V30 1734 H 163.005 -0.172046 4.60979 0
M  V30 1735 H 161.248 -0.0924117 4.33702 0
M  V30 1736 H 161.919 -1.37799 5.34524 0
M  V30 1737 H 164.395 -2.13327 3.57255 0
M  V30 1738 H 163.271 -3.18619 4.4696 0
M  V30 1739 H 163.532 -3.45842 2.75401 0
M  V30 1740 N 162.591 -1.51276 -0.441967 0
M  V30 1741 C 163.524 -1.66933 -1.55591 0
M  V30 1742 C 164.502 -0.516958 -1.54163 0
M  V30 1743 O 165.686 -0.740209 -1.73358 0
M  V30 1744 C 162.813 -1.67866 -2.94174 0
M  V30 1745 C 161.859 -2.89013 -3.13646 0
M  V30 1746 S 162.692 -4.49897 -2.90436 0
M  V30 1747 C 163.848 -4.53568 -4.31308 0
M  V30 1748 H 164.081 -2.61155 -1.42076 0
M  V30 1749 H 161.614 -1.40902 -0.631341 0
M  V30 1750 H 163.572 -1.69089 -3.74058 0
M  V30 1751 H 162.233 -0.748296 -3.05056 0
M  V30 1752 H 161.426 -2.86054 -4.14957 0
M  V30 1753 H 161.028 -2.85509 -2.4158 0
M  V30 1754 H 163.32 -4.28924 -5.24434 0
M  V30 1755 H 164.263 -5.55355 -4.39303 0
M  V30 1756 H 164.671 -3.82943 -4.14747 0
M  V30 1757 N 164.069 0.697108 -1.41344 0
M  V30 1758 C 165.297 1.48593 -1.43972 0
M  V30 1759 C 165.712 1.88747 -0.0445612 0
M  V30 1760 O 165.069 1.56682 0.935785 0
M  V30 1761 C 165.12 2.74946 -2.34706 0
M  V30 1762 O 164.841 2.36484 -3.68791 0
M  V30 1763 C 166.342 3.687 -2.46121 0
M  V30 1764 H 163.562 0.457964 -0.490418 0
M  V30 1765 H 166.106 0.858429 -1.8561 0
M  V30 1766 H 164.261 3.33937 -1.9638 0
M  V30 1767 H 164.675 3.17918 -4.17167 0
M  V30 1768 H 166.149 4.54145 -3.13777 0
M  V30 1769 H 166.626 4.13081 -1.49199 0
M  V30 1770 H 167.232 3.15613 -2.85076 0
M  V30 1771 N 165.547 1.27147 0.931209 0
M  V30 1772 C 166.824 1.0401 1.65654 0
M  V30 1773 C 167.204 -0.426297 2.06751 0
M  V30 1774 O 166.552 -1.40879 1.79904 0
M  V30 1775 C 166.762 1.99834 2.86125 0
M  V30 1776 C 168.11 2.29007 3.57549 0
M  V30 1777 O 169.134 1.97779 2.96246 0
M  V30 1778 O 167.993 2.82222 4.67989 0
M  V30 1779 H 165.087 0.396239 0.725895 0
M  V30 1780 H 167.633 1.38397 0.982056 0
M  V30 1781 H 166.405 2.98744 2.52721 0
M  V30 1782 H 166.028 1.65987 3.61295 0
M  V30 1783 N 167.025 -1.13721 1.09112 0
M  V30 1784 C 168.441 -1.36914 0.820174 0
M  V30 1785 C 168.641 -1.93356 -0.567079 0
M  V30 1786 O 167.697 -2.15093 -1.32255 0
M  V30 1787 C 169.01 -2.3235 1.90877 0
M  V30 1788 C 170.558 -2.45973 1.93562 0
M  V30 1789 C 171.033 -3.44714 3.01556 0
M  V30 1790 N 172.524 -3.52263 3.00775 0
M  V30 1791 C 173.259 -4.28536 3.80978 0
M  V30 1792 N 172.755 -5.07991 4.71081 0
M  V30 1793 N 174.548 -4.23804 3.69251 0
M  V30 1794 H 166.699 -0.754348 1.98553 0
M  V30 1795 H 168.962 -0.3944 0.862063 0
M  V30 1796 H 168.668 -1.98027 2.90651 0
M  V30 1797 H 168.542 -3.32332 1.78424 0
M  V30 1798 H 170.929 -2.79584 0.944286 0
M  V30 1799 H 171.01 -1.45926 2.10093 0
M  V30 1800 H 170.654 -3.11835 4.00901 0
M  V30 1801 H 170.584 -4.44558 2.82269 0
M  V30 1802 H 173.075 -2.95567 2.35475 0
M  V30 1803 H 173.388 -5.63487 5.28869 0
M  V30 1804 H 171.733 -5.07235 4.75119 0
M  V30 1805 H 174.924 -3.60806 2.98222 0
M  V30 1806 H 175.097 -4.82995 4.31995 0
M  V30 1807 N 168.503 -0.877838 -1.30888 0
M  V30 1808 C 169.466 -0.344265 -2.266 0
M  V30 1809 C 170.466 0.50922 -1.52524 0
M  V30 1810 O 171.656 0.317398 -1.71284 0
M  V30 1811 C 168.788 0.510198 -3.37061 0
M  V30 1812 H 169.981 -1.1893 -2.7531 0
M  V30 1813 H 167.534 -0.654088 -1.41956 0
M  V30 1814 H 168.269 1.37612 -2.93655 0
M  V30 1815 H 168.054 -0.101047 -3.9197 0
M  V30 1816 H 169.544 0.875537 -4.08319 0
M  V30 1817 N 169.982 1.44106 -0.638065 0
M  V30 1818 C 170.945 2.29138 0.0531013 0
M  V30 1819 C 171.945 1.41409 0.765506 0
M  V30 1820 O 173.135 1.63206 0.609046 0
M  V30 1821 C 170.267 3.23144 1.08584 0
M  V30 1822 H 171.46 2.91739 -0.694883 0
M  V30 1823 H 169.013 1.51134 -0.398538 0
M  V30 1824 H 169.748 2.65408 1.86357 0
M  V30 1825 H 169.533 3.87804 0.578852 0
M  V30 1826 H 171.023 3.87004 1.56899 0
M  V30 1827 N 171.46 0.379036 1.52974 0
M  V30 1828 C 172.876 0.0285448 1.59574 0
M  V30 1829 C 173.076 -1.45542 1.39355 0
M  V30 1830 O 172.132 -2.2187 1.20541 0
M  V30 1831 C 173.445 0.496535 2.96572 0
M  V30 1832 C 174.993 0.451909 3.0972 0
M  V30 1833 C 175.468 0.895924 4.49152 0
M  V30 1834 N 176.959 0.851522 4.55306 0
M  V30 1835 C 177.694 1.16661 5.61407 0
M  V30 1836 N 177.19 1.55166 6.752 0
M  V30 1837 N 178.983 1.08853 5.51459 0
M  V30 1838 H 171.134 1.34525 1.64367 0
M  V30 1839 H 173.397 0.550733 0.771619 0
M  V30 1840 H 173.103 1.53258 3.16552 0
M  V30 1841 H 172.977 -0.109802 3.7704 0
M  V30 1842 H 175.364 -0.575029 2.89443 0
M  V30 1843 H 175.445 1.09392 2.3123 0
M  V30 1844 H 175.089 1.92104 4.70168 0
M  V30 1845 H 175.019 0.23103 5.26093 0
M  V30 1846 H 177.51 0.568038 3.73606 0
M  V30 1847 H 177.823 1.776 7.52116 0
M  V30 1848 H 176.168 1.59044 6.76557 0
M  V30 1849 H 179.359 0.786803 4.6144 0
M  V30 1850 H 179.532 1.33742 6.34048 0
M  V30 1851 N 172.938 -1.57226 0.108567 0
M  V30 1852 C 173.87 -2.11809 -0.875752 0
M  V30 1853 C 174.883 -1.05839 -1.23701 0
M  V30 1854 O 176.072 -1.33245 -1.18778 0
M  V30 1855 C 173.172 -2.59411 -2.18081 0
M  V30 1856 C 172.345 -3.89364 -1.99284 0
M  V30 1857 C 171.404 -4.22672 -3.13424 0
M  V30 1858 O 170.43 -4.91668 -2.86795 0
M  V30 1859 N 171.632 -3.79154 -4.3957 0
M  V30 1860 H 174.397 -2.9689 -0.409477 0
M  V30 1861 H 171.958 -1.61721 -0.076158 0
M  V30 1862 H 173.95 -2.7873 -2.93414 0
M  V30 1863 H 172.52 -1.79268 -2.5609 0
M  V30 1864 H 171.74 -3.79059 -1.08203 0
M  V30 1865 H 173.028 -4.74358 -1.84017 0
M  V30 1866 H 172.426 -3.23486 -4.64083 0
M  V30 1867 H 170.983 -4.03602 -5.11809 0
M  V30 1868 N 174.416 0.165178 -1.56732 0
M  V30 1869 C 175.379 1.18822 -1.95995 0
M  V30 1870 C 176.379 1.3685 -0.84431 0
M  V30 1871 O 177.569 1.34152 -1.11126 0
M  V30 1872 C 174.701 2.5521 -2.26011 0
M  V30 1873 H 175.894 0.851825 -2.87548 0
M  V30 1874 H 173.447 0.407857 -1.50885 0
M  V30 1875 H 174.182 2.93852 -1.37191 0
M  V30 1876 H 173.967 2.43489 -3.07336 0
M  V30 1877 H 175.457 3.28927 -2.57288 0
M  V30 1878 N 175.894 1.51508 0.433938 0
M  V30 1879 C 177.142 1.6402 1.18075 0
M  V30 1880 C 177.463 0.360328 1.91642 0
M  V30 1881 O 176.733 -0.623945 1.85698 0
M  V30 1882 H 175.313 0.6045 0.43885 0
M  V30 1883 H 177.975 1.88452 0.497178 0
M  V30 1884 H 177.071 2.46949 1.90847 0
M  V30 1885 N 177.372 -0.689602 1.41712 0
M  V30 1886 C 178.302 -1.81577 1.46806 0
M  V30 1887 C 179.283 -1.66945 0.326105 0
M  V30 1888 O 180.468 -1.86588 0.538377 0
M  V30 1889 C 177.598 -3.19762 1.35535 0
M  V30 1890 C 176.552 -3.49107 2.47605 0
M  V30 1891 C 175.878 -4.86711 2.21397 0
M  V30 1892 C 177.178 -3.47483 3.89939 0
M  V30 1893 H 178.872 -1.7757 2.41058 0
M  V30 1894 H 176.418 -0.852887 1.16025 0
M  V30 1895 H 178.371 -3.98263 1.3771 0
M  V30 1896 H 177.095 -3.24409 0.377708 0
M  V30 1897 H 175.754 -2.72959 2.44722 0
M  V30 1898 H 175.402 -4.8799 1.21961 0
M  V30 1899 H 175.102 -5.0731 2.96497 0
M  V30 1900 H 176.626 -5.67515 2.25297 0
M  V30 1901 H 178.04 -4.1598 3.94505 0
M  V30 1902 H 176.437 -3.79615 4.64771 0
M  V30 1903 H 177.507 -2.46341 4.17665 0
M  V30 1904 N 178.85 -1.27639 -0.924453 0
M  V30 1905 C 180.098 -1.13941 -1.66918 0
M  V30 1906 C 180.419 0.314589 -1.92446 0
M  V30 1907 O 179.689 1.21964 -1.53303 0
M  V30 1908 H 178.269 -0.418678 -0.618642 0
M  V30 1909 H 180.931 -1.60213 -1.10985 0
M  V30 1910 H 180.027 -1.67094 -2.63602 0
M  V30 1911 N 180.328 1.1314 -1.09713 0
M  V30 1912 C 181.576 1.84119 -0.833338 0
M  V30 1913 C 181.897 1.84097 0.642904 0
M  V30 1914 O 181.167 1.29881 1.46655 0
M  V30 1915 H 179.747 0.681766 -0.305293 0
M  V30 1916 H 182.409 1.37038 -1.38588 0
M  V30 1917 H 181.505 2.88543 -1.18951 0
M  V30 1918 N 181.806 0.884767 1.30421 0
M  V30 1919 C 182.716 0.355398 2.31892 0
M  V30 1920 C 183.732 -0.542261 1.65335 0
M  V30 1921 O 184.908 -0.435432 1.96637 0
M  V30 1922 C 181.973 -0.421661 3.44126 0
M  V30 1923 C 181.034 0.505727 4.26311 0
M  V30 1924 C 180.267 -0.234343 5.33185 0
M  V30 1925 O 180.49 -1.46045 5.51386 0
M  V30 1926 O 179.424 0.415443 6.00465 0
M  V30 1927 H 183.25 1.19685 2.79122 0
M  V30 1928 H 180.835 0.648596 1.34587 0
M  V30 1929 H 182.717 -0.861641 4.12497 0
M  V30 1930 H 181.392 -1.23942 2.99032 0
M  V30 1931 H 180.299 0.994513 3.60639 0
M  V30 1932 H 181.632 1.28948 4.75009 0
M  V30 1933 N 183.284 -1.43765 0.645699 0
M  V30 1934 C 184.533 -2.01116 0.153412 0
M  V30 1935 C 184.846 -1.51493 -1.23731 0
M  V30 1936 O 186.052 -2.01067 -1.8244 0
M  V30 1937 C 184.508 -3.59206 0.223473 0
M  V30 1938 C 184.116 -4.17823 1.61642 0
M  V30 1939 C 185.86 -4.23972 -0.211597 0
M  V30 1940 C 183.767 -5.68183 1.64081 0
M  V30 1941 H 182.697 -0.752093 0.0535891 0
M  V30 1942 H 185.348 -1.6482 0.806633 0
M  V30 1943 H 183.73 -3.92867 -0.497118 0
M  V30 1944 H 184.904 -3.95674 2.36176 0
M  V30 1945 H 183.219 -3.65399 1.99681 0
M  V30 1946 H 185.816 -5.34275 -0.213112 0
M  V30 1947 H 186.159 -3.97352 -1.24165 0
M  V30 1948 H 186.692 -3.95166 0.456988 0
M  V30 1949 H 183.431 -5.99559 2.64971 0
M  V30 1950 H 182.951 -5.9241 0.938611 0
M  V30 1951 H 184.63 -6.32085 1.3812 0
M  V30 1952 N 184.763 -0.387143 -1.52771 0
M  V30 1953 C 186.012 0.19697 -2.00736 0
M  V30 1954 C 186.325 1.48082 -1.27793 0
M  V30 1955 O 187.531 2.14485 -1.66458 0
M  V30 1956 C 185.987 0.401568 -3.57653 0
M  V30 1957 C 185.595 -0.868907 -4.39493 0
M  V30 1958 C 187.339 0.942164 -4.13912 0
M  V30 1959 C 185.246 -0.632705 -5.88006 0
M  V30 1960 H 184.176 0.0773827 -0.750019 0
M  V30 1961 H 186.827 -0.50921 -1.76293 0
M  V30 1962 H 185.209 1.16954 -3.78335 0
M  V30 1963 H 186.383 -1.64133 -4.30577 0
M  V30 1964 H 184.698 -1.33429 -3.94443 0
M  V30 1965 H 187.295 1.13455 -5.22525 0
M  V30 1966 H 187.638 1.9106 -3.69867 0
M  V30 1967 H 188.171 0.233814 -3.97112 0
M  V30 1968 H 184.91 -1.57208 -6.36369 0
M  V30 1969 H 184.43 0.100825 -5.99715 0
M  V30 1970 H 186.109 -0.26642 -6.46451 0
M  V30 1971 N 186.241 1.57166 -0.116904 0
M  V30 1972 C 187.481 1.97008 0.544715 0
M  V30 1973 C 187.845 0.998713 1.63981 0
M  V30 1974 O 189.046 1.28644 2.36018 0
M  V30 1975 C 187.317 3.41145 1.06559 0
M  V30 1976 S 188.876 4.02998 1.73603 0
M  V30 1977 H 185.694 0.688587 0.177112 0
M  V30 1978 H 188.296 1.94459 -0.201487 0
M  V30 1979 H 187 4.09592 0.257374 0
M  V30 1980 H 186.531 3.4734 1.84712 0
M  V30 1981 H 188.546 3.93585 3.02168 0
M  V30 1982 N 187.719 -0.156864 1.56817 0
M  V30 1983 C 188.949 -0.885031 1.86684 0
M  V30 1984 C 189.357 -1.75696 0.701954 0
M  V30 1985 O 188.7 -1.80569 -0.337732 0
M  V30 1986 C 188.762 -1.80092 3.11138 0
M  V30 1987 C 188.426 -1.10714 4.43386 0
M  V30 1988 C 189.423 -0.465714 5.1781 0
M  V30 1989 C 187.108 -1.09959 4.90117 0
M  V30 1990 C 189.102 0.174002 6.37162 0
M  V30 1991 C 186.789 -0.456055 6.09396 0
M  V30 1992 C 187.787 0.179622 6.82764 0
M  V30 1993 O 187.475 0.812975 7.99779 0
M  V30 1994 H 187.207 -0.261813 0.623242 0
M  V30 1995 H 189.761 -0.157383 2.04796 0
M  V30 1996 H 187.991 -2.56926 2.89009 0
M  V30 1997 H 189.68 -2.40018 3.27332 0
M  V30 1998 H 190.446 -0.463427 4.82781 0
M  V30 1999 H 186.325 -1.58378 4.3294 0
M  V30 2000 H 189.869 0.670765 6.94368 0
M  V30 2001 H 185.766 -0.455975 6.43888 0
M  V30 2002 H 186.534 0.71366 8.15383 0
M  V30 2003 N 189.197 -1.51736 -0.425897 0
M  V30 2004 C 190.443 -1.65214 -1.1761 0
M  V30 2005 C 190.776 -0.372778 -1.90589 0
M  V30 2006 O 190.051 0.628139 -1.84078 0
M  V30 2007 C 190.334 -2.86312 -2.18398 0
M  V30 2008 C 190.187 -4.24254 -1.49426 0
M  V30 2009 C 191.506 -3.02925 -3.19256 0
M  V30 2010 H 188.625 -0.601263 -0.426206 0
M  V30 2011 H 191.267 -1.8425 -0.463882 0
M  V30 2012 H 189.417 -2.70213 -2.79137 0
M  V30 2013 H 191.089 -4.52046 -0.919362 0
M  V30 2014 H 189.332 -4.26426 -0.796432 0
M  V30 2015 H 190.003 -5.05001 -2.22885 0
M  V30 2016 H 192.479 -3.1781 -2.68581 0
M  V30 2017 H 191.355 -3.89199 -3.8706 0
M  V30 2018 H 191.616 -2.15497 -3.86023 0
M  V30 2019 N 190.675 0.682077 -1.42076 0
M  V30 2020 C 191.638 1.77756 -1.44691 0
M  V30 2021 C 192.638 1.5726 -0.335535 0
M  V30 2022 O 193.828 1.63686 -0.596037 0
M  V30 2023 C 190.96 3.16301 -1.27146 0
M  V30 2024 H 192.153 1.76826 -2.42224 0
M  V30 2025 H 189.706 0.891012 -1.28416 0
M  V30 2026 H 190.441 3.22862 -0.305075 0
M  V30 2027 H 190.226 3.32581 -2.07683 0
M  V30 2028 H 191.716 3.96241 -1.31843 0
M  V30 2029 O 192.192 1.38868 0.824489 0
M  V30 2030 H 192.883 1.26408 1.46767 0
M  V30 END ATOM
M  V30 BEGIN BOND
M  V30 END BOND
M  V30 END CTAB
M  END
$$$$
