drugbank_target|P0A7G9 Protein RecA (DB04395)
 OpenBabel12092120273D

  0  0  0     0  0            999 V3000
M  V30 BEGIN CTAB
M  V30 COUNTS 5363 5395 0 0 0
M  V30 BEGIN ATOM
M  V30 1 H -0.908 1.98254 -0.117106 0
M  V30 2 N 0 1.576 0 0
M  V30 3 C 0.933 2.03868 1.02534 0
M  V30 4 C 1.911 0.928543 1.3348 0
M  V30 5 O 3.095 1.19667 1.45644 0
M  V30 6 C 0.222 2.43627 2.35294 0
M  V30 7 C -0.732 3.65373 2.2001 0
M  V30 8 S 0.101 5.13292 1.52614 0
M  V30 9 C 1.257 5.56322 2.86805 0
M  V30 10 H 1.49 2.90518 0.631377 0
M  V30 11 H -0.977 1.52953 0.210867 0
M  V30 12 H 0.981 2.67203 3.11629 0
M  V30 13 H -0.358 1.57376 2.7183 0
M  V30 14 H -1.165 3.90944 3.18086 0
M  V30 15 H -1.563 3.418 1.51819 0
M  V30 16 H 0.729 5.58782 3.83104 0
M  V30 17 H 1.672 6.56266 2.65933 0
M  V30 18 H 2.08 4.83886 2.90714 0
M  V30 19 N 1.4781 -0.272755 1.55222 0
M  V30 20 C 2.4411 -1.32041 1.87344 0
M  V30 21 C 3.4411 -1.42342 0.74803 0
M  V30 22 O 4.6311 -1.41488 1.0162 0
M  V30 23 C 1.7631 -2.70173 2.07893 0
M  V30 24 H 2.9561 -1.04789 2.80997 0
M  V30 25 H 0.5091 -0.51083 1.47717 0
M  V30 26 H 1.2441 -3.02605 1.16622 0
M  V30 27 H 1.0291 -2.64082 2.89833 0
M  V30 28 H 2.5191 -3.45869 2.34017 0
M  V30 29 N 2.9562 -1.48159 -0.537278 0
M  V30 30 C 4.2052 -1.5506 -1.28993 0
M  V30 31 C 4.5182 -0.226211 -1.94288 0
M  V30 32 O 5.7242 -0.173395 -2.70946 0
M  V30 33 C 4.1802 -2.73429 -2.34018 0
M  V30 34 C 3.7882 -4.1248 -1.74825 0
M  V30 35 C 5.5322 -2.89638 -3.10339 0
M  V30 36 C 3.4392 -5.22121 -2.77747 0
M  V30 37 H 2.3692 -0.577231 -0.485098 0
M  V30 38 H 5.0202 -1.74478 -0.568317 0
M  V30 39 H 3.4022 -2.47431 -3.09182 0
M  V30 40 H 4.5762 -4.48466 -1.05899 0
M  V30 41 H 2.8912 -4.01327 -1.11022 0
M  V30 42 H 5.4882 -3.68718 -3.87235 0
M  V30 43 H 5.8312 -1.9882 -3.65754 0
M  V30 44 H 6.3642 -3.15502 -2.42288 0
M  V30 45 H 3.1032 -6.1488 -2.27161 0
M  V30 46 H 2.6232 -4.90631 -3.45024 0
M  V30 47 H 4.3022 -5.49924 -3.4087 0
M  V30 48 N 4.4343 0.785586 -1.36625 0
M  V30 49 C 5.7113 1.53198 -1.21613 0
M  V30 50 C 6.0913 2.10187 0.196113 0
M  V30 51 O 5.4393 1.94318 1.20219 0
M  V30 52 C 5.6493 2.62388 -2.30116 0
M  V30 53 C 6.9973 3.30167 -2.66974 0
M  V30 54 O 8.0213 2.72674 -2.29188 0
M  V30 55 O 6.8803 4.34077 -3.32023 0
M  V30 56 H 3.9743 0.677865 -0.473738 0
M  V30 57 H 6.5203 0.823739 -1.48367 0
M  V30 58 H 5.2923 2.18299 -3.24748 0
M  V30 59 H 4.9153 3.40827 -2.0475 0
M  V30 60 N 5.9124 1.20967 1.01018 0
M  V30 61 C 6.8224 0.980157 2.13143 0
M  V30 62 C 7.8384 -0.0660665 1.73875 0
M  V30 63 O 9.0144 0.122821 2.01025 0
M  V30 64 C 6.0794 0.54216 3.42435 0
M  V30 65 C 5.1404 1.65999 3.95908 0
M  V30 66 C 4.3734 1.2428 5.19028 0
M  V30 67 O 4.5964 0.114196 5.70286 0
M  V30 68 O 3.5304 2.05271 5.65816 0
M  V30 69 H 7.3564 1.91913 2.35379 0
M  V30 70 H 4.9414 0.994099 1.11526 0
M  V30 71 H 6.8234 0.30744 4.20277 0
M  V30 72 H 5.4984 -0.36815 3.216 0
M  V30 73 H 4.4054 1.94906 3.19316 0
M  V30 74 H 5.7384 2.54753 4.21143 0
M  V30 75 N 7.3905 -1.2043 1.01659 0
M  V30 76 C 8.3385 -2.25249 0.580143 0
M  V30 77 C 9.3325 -1.65057 -0.381115 0
M  V30 78 O 10.5385 -1.78241 -0.251039 0
M  V30 79 H 6.9135 -0.732695 0.169299 0
M  V30 80 H 8.8845 -2.59389 1.47512 0
M  V30 81 C 7.6335 -3.47638 -0.065788 0
M  V30 82 H 6.9565 -3.94233 0.664874 0
M  V30 83 H 8.3965 -4.2268 -0.334282 0
M  V30 84 C 6.8555 -3.10447 -1.3086 0
M  V30 85 O 7.3855 -3.21981 -2.4019 0
M  V30 86 N 5.5915 -2.64996 -1.1927 0
M  V30 87 H 5.1385 -2.55811 -0.303064 0
M  V30 88 H 5.0965 -2.40482 -2.02523 0
M  V30 89 N 8.8686 -0.792821 -1.36206 0
M  V30 90 C 9.8156 -0.191653 -2.30003 0
M  V30 91 C 10.7856 0.666453 -1.52143 0
M  V30 92 O 11.9706 0.61442 -1.80636 0
M  V30 93 C 9.1106 0.664848 -3.38635 0
M  V30 94 C 8.2236 -0.212175 -4.31479 0
M  V30 95 C 7.3586 0.651022 -5.27196 0
M  V30 96 C 6.3976 -0.227247 -6.11678 0
M  V30 97 N 5.5346 0.595127 -6.99573 0
M  V30 98 H 10.3746 -0.996978 -2.80828 0
M  V30 99 H 7.9116 -0.503206 -1.38225 0
M  V30 100 H 9.8696 1.17645 -4.00269 0
M  V30 101 H 8.4996 1.43557 -2.89122 0
M  V30 102 H 7.5516 -0.841777 -3.70969 0
M  V30 103 H 8.8636 -0.888751 -4.90818 0
M  V30 104 H 8.0176 1.2283 -5.94136 0
M  V30 105 H 6.7566 1.36121 -4.68319 0
M  V30 106 H 5.7616 -0.816904 -5.43697 0
M  V30 107 H 6.9866 -0.93509 -6.72631 0
M  V30 108 H 4.9326 1.28955 -6.432 0
M  V30 109 H 4.8496 -0.0236952 -7.55996 0
M  V30 110 H 6.1176 1.15613 -7.70879 0
M  V30 111 N 10.3467 1.47872 -0.545128 0
M  V30 112 C 11.2787 2.27869 0.246621 0
M  V30 113 C 12.2917 1.36282 0.890561 0
M  V30 114 O 13.4807 1.61207 0.766449 0
M  V30 115 C 10.5807 3.10159 1.36582 0
M  V30 116 C 9.7537 4.29627 0.820954 0
M  V30 117 C 8.8127 4.93607 1.82314 0
M  V30 118 O 7.8387 5.52366 1.37406 0
M  V30 119 N 9.0407 4.87211 3.15603 0
M  V30 120 H 11.8057 2.96459 -0.439539 0
M  V30 121 H 9.3667 1.57367 -0.380421 0
M  V30 122 H 11.3587 3.49829 2.03474 0
M  V30 123 H 9.9287 2.43891 1.9554 0
M  V30 124 H 9.1487 3.94192 -0.0244032 0
M  V30 125 H 10.4367 5.06928 0.436063 0
M  V30 126 H 9.8347 4.40651 3.54744 0
M  V30 127 H 8.3917 5.30937 3.78087 0
M  V30 128 N 11.8248 0.280983 1.55075 0
M  V30 129 C 12.7718 -0.603937 2.22758 0
M  V30 130 C 13.7418 -1.1452 1.20309 0
M  V30 131 O 14.9268 -1.19343 1.48869 0
M  V30 132 C 12.0668 -1.77947 2.95684 0
M  V30 133 C 11.1798 -1.2715 4.12864 0
M  V30 134 C 10.3148 -2.4093 4.7342 0
M  V30 135 C 9.3538 -1.87165 5.82783 0
M  V30 136 N 8.4908 -2.94441 6.37377 0
M  V30 137 H 13.3308 -0.020124 2.97993 0
M  V30 138 H 10.8678 0.00183425 1.471 0
M  V30 139 H 12.8258 -2.47055 3.36184 0
M  V30 140 H 11.4558 -2.33522 2.22861 0
M  V30 141 H 10.5078 -0.473331 3.77444 0
M  V30 142 H 11.8198 -0.837751 4.91715 0
M  V30 143 H 10.9738 -3.18021 5.1667 0
M  V30 144 H 9.7128 -2.87623 3.93859 0
M  V30 145 H 8.7178 -1.08556 5.38976 0
M  V30 146 H 9.9428 -1.41401 6.64216 0
M  V30 147 H 7.8888 -3.40505 5.60707 0
M  V30 148 H 7.8058 -2.55501 7.11516 0
M  V30 149 H 9.0738 -3.71489 6.85285 0
M  V30 150 N 13.3029 -1.57598 0.00835791 0
M  V30 151 C 14.2659 -2.07884 -0.965242 0
M  V30 152 C 15.2659 -0.989825 -1.26725 0
M  V30 153 O 16.4559 -1.25218 -1.21104 0
M  V30 154 C 13.5879 -2.52731 -2.28779 0
M  V30 155 H 14.7809 -2.95178 -0.530112 0
M  V30 156 H 12.3339 -1.54458 -0.239283 0
M  V30 157 H 13.0689 -1.68705 -2.76964 0
M  V30 158 H 12.8539 -3.32272 -2.08177 0
M  V30 159 H 14.3439 -2.91933 -2.98605 0
M  V30 160 N 14.781 0.264519 -1.55364 0
M  V30 161 C 15.711 1.33121 -1.91836 0
M  V30 162 C 16.692 1.51101 -0.781192 0
M  V30 163 O 17.877 1.64003 -1.04003 0
M  V30 164 C 15.007 2.68921 -2.19769 0
M  V30 165 C 13.961 2.65661 -3.35571 0
M  V30 166 C 13.287 4.05093 -3.49004 0
M  V30 167 C 14.587 2.24187 -4.71739 0
M  V30 168 H 16.281 1.02844 -2.81182 0
M  V30 169 H 13.827 0.493286 -1.35287 0
M  V30 170 H 15.78 3.43663 -2.43872 0
M  V30 171 H 14.504 3.00799 -1.27231 0
M  V30 172 H 13.163 1.93377 -3.1145 0
M  V30 173 H 12.811 4.34206 -2.53917 0
M  V30 174 H 12.511 4.03804 -4.26868 0
M  V30 175 H 14.035 4.81561 -3.75408 0
M  V30 176 H 15.449 2.88654 -4.9533 0
M  V30 177 H 13.846 2.34044 -5.52579 0
M  V30 178 H 14.916 1.19327 -4.69988 0
M  V30 179 N 16.2591 1.48442 0.529413 0
M  V30 180 C 17.2221 1.62524 1.61612 0
M  V30 181 C 18.2221 0.498509 1.52877 0
M  V30 182 O 19.4121 0.76431 1.56537 0
M  V30 183 C 16.5441 1.59597 3.01233 0
M  V30 184 H 17.7371 2.59423 1.50465 0
M  V30 185 H 15.2901 1.37047 0.751514 0
M  V30 186 H 16.0251 0.641781 3.17886 0
M  V30 187 H 15.8101 2.41397 3.08982 0
M  V30 188 H 17.3001 1.72646 3.80241 0
M  V30 189 N 17.7372 -0.778329 1.37039 0
M  V30 190 C 18.7002 -1.87301 1.32102 0
M  V30 191 C 19.7002 -1.59198 0.226405 0
M  V30 192 O 20.8902 -1.67403 0.481861 0
M  V30 193 C 18.0222 -3.24309 1.05055 0
M  V30 194 H 19.2152 -1.93093 2.29467 0
M  V30 195 H 16.7682 -0.977358 1.21973 0
M  V30 196 H 17.5032 -3.24196 0.0819373 0
M  V30 197 H 17.2882 -3.46098 1.84279 0
M  V30 198 H 18.7782 -4.04382 1.04234 0
M  V30 199 N 19.2153 -1.21501 -1.00376 0
M  V30 200 C 20.1783 -0.976927 -2.07337 0
M  V30 201 C 21.1783 0.0525322 -1.60714 0
M  V30 202 O 22.3683 -0.184869 -1.73216 0
M  V30 203 C 19.5003 -0.473423 -3.37597 0
M  V30 204 H 20.6933 -1.92587 -2.29892 0
M  V30 205 H 18.2463 -1.03217 -1.17371 0
M  V30 206 H 18.9813 0.480379 -3.20722 0
M  V30 207 H 18.7663 -1.216 -3.72768 0
M  V30 208 H 20.2563 -0.32675 -4.1632 0
M  V30 209 N 20.6934 1.19889 -1.02296 0
M  V30 210 C 21.6234 2.25141 -0.619174 0
M  V30 211 C 22.6044 1.66051 0.368915 0
M  V30 212 O 23.7894 1.92546 0.252941 0
M  V30 213 C 20.9194 3.4728 0.0368783 0
M  V30 214 C 19.8734 4.19005 -0.872865 0
M  V30 215 C 19.1994 5.34637 -0.0822402 0
M  V30 216 C 20.4994 4.74452 -2.18387 0
M  V30 217 H 22.1934 2.59171 -1.49903 0
M  V30 218 H 19.7394 1.24579 -0.722222 0
M  V30 219 H 21.6924 4.20098 0.330958 0
M  V30 220 H 20.4164 3.12433 0.95149 0
M  V30 221 H 19.0754 3.48061 -1.15105 0
M  V30 222 H 18.7234 4.96034 0.83422 0
M  V30 223 H 18.4234 5.83557 -0.688149 0
M  V30 224 H 19.9474 6.10255 0.205238 0
M  V30 225 H 21.3614 5.39055 -1.95172 0
M  V30 226 H 19.7584 5.33834 -2.74119 0
M  V30 227 H 20.8284 3.92844 -2.84257 0
M  V30 228 N 22.1715 0.800033 1.35784 0
M  V30 229 C 23.4195 0.376597 1.9856 0
M  V30 230 C 23.7405 -1.05812 1.63795 0
M  V30 231 O 23.0105 -1.73103 0.917171 0
M  V30 232 H 21.5905 0.136261 0.734467 0
M  V30 233 H 24.2525 1.02442 1.65806 0
M  V30 234 H 23.3485 0.477002 3.08433 0
M  V30 235 N 23.6496 -1.47581 0.552962 0
M  V30 236 C 24.5816 -2.27997 -0.234533 0
M  V30 237 C 25.5946 -1.36753 -0.883321 0
M  V30 238 O 26.7836 -1.61612 -0.757889 0
M  V30 239 C 23.8836 -3.10879 -1.34935 0
M  V30 240 C 23.0566 -4.30056 -0.798158 0
M  V30 241 C 22.1156 -4.94567 -1.79694 0
M  V30 242 O 21.1416 -5.53087 -1.34474 0
M  V30 243 N 22.3436 -4.88878 -3.13015 0
M  V30 244 H 25.1086 -2.96222 0.455255 0
M  V30 245 H 22.6696 -1.57163 0.388761 0
M  V30 246 H 24.6616 -3.50903 -2.01616 0
M  V30 247 H 23.2316 -2.44924 -1.94244 0
M  V30 248 H 22.4516 -3.94174 0.0453079 0
M  V30 249 H 23.7396 -5.07152 -0.409173 0
M  V30 250 H 23.1376 -4.42526 -3.52402 0
M  V30 251 H 21.6946 -5.32934 -3.75266 0
M  V30 252 N 25.1277 -0.289203 -1.54924 0
M  V30 253 C 26.3767 0.324231 -1.99077 0
M  V30 254 C 26.6897 1.5591 -1.18117 0
M  V30 255 O 27.8957 2.24637 -1.52481 0
M  V30 256 C 26.3517 0.628209 -3.54375 0
M  V30 257 C 25.9597 -0.587647 -4.44129 0
M  V30 258 C 27.7037 1.20349 -4.07083 0
M  V30 259 C 25.6107 -0.257475 -5.90839 0
M  V30 260 H 24.5407 0.124924 -0.743579 0
M  V30 261 H 27.1917 -0.396063 -1.79175 0
M  V30 262 H 25.5737 1.40778 -3.70132 0
M  V30 263 H 26.7477 -1.36418 -4.40144 0
M  V30 264 H 25.0627 -1.08074 -4.0213 0
M  V30 265 H 27.6597 1.46456 -5.14252 0
M  V30 266 H 28.0027 2.14195 -3.56968 0
M  V30 267 H 28.5357 0.485889 -3.94821 0
M  V30 268 H 25.2747 -1.16419 -6.45079 0
M  V30 269 H 24.7947 0.482018 -5.9786 0
M  V30 270 H 26.4737 0.145238 -6.46837 0
M  V30 271 N 26.6058 1.57591 -0.0167156 0
M  V30 272 C 27.5158 2.1291 0.98521 0
M  V30 273 C 28.5318 1.07834 1.36557 0
M  V30 274 O 29.7078 1.39826 1.44951 0
M  V30 275 C 26.7728 2.63512 2.25305 0
M  V30 276 C 25.8338 3.83256 1.93426 0
M  V30 277 C 25.0668 4.31435 3.14165 0
M  V30 278 O 25.2898 3.78851 4.26413 0
M  V30 279 O 24.2238 5.23416 2.97186 0
M  V30 280 H 28.0498 2.98772 0.544888 0
M  V30 281 H 25.6348 1.48012 0.203141 0
M  V30 282 H 27.5168 2.96183 2.99756 0
M  V30 283 H 26.1918 1.8074 2.68542 0
M  V30 284 H 25.0988 3.55531 1.16398 0
M  V30 285 H 26.4318 4.67153 1.55013 0
M  V30 286 N 28.0839 -0.256276 1.55502 0
M  V30 287 C 29.0309 -1.31714 1.89526 0
M  V30 288 C 30.0009 -1.4828 0.748479 0
M  V30 289 O 31.1859 -1.62416 1.00128 0
M  V30 290 C 28.3259 -2.66933 2.18725 0
M  V30 291 C 27.4389 -2.58452 3.4616 0
M  V30 292 C 26.5739 -3.85961 3.64976 0
M  V30 293 C 25.6129 -3.72059 4.86044 0
M  V30 294 N 24.7499 -4.9144 5.01429 0
M  V30 295 H 29.5899 -1.01998 2.80001 0
M  V30 296 H 27.1269 -0.492413 1.38613 0
M  V30 297 H 29.0849 -3.4563 2.33657 0
M  V30 298 H 27.7149 -2.94816 1.31466 0
M  V30 299 H 26.7669 -1.71374 3.3961 0
M  V30 300 H 28.0789 -2.44085 4.34999 0
M  V30 301 H 27.2329 -4.73101 3.79816 0
M  V30 302 H 25.9719 -4.03215 2.74353 0
M  V30 303 H 24.9769 -2.83302 4.7119 0
M  V30 304 H 26.2019 -3.56309 5.78118 0
M  V30 305 H 24.1479 -5.09072 4.13741 0
M  V30 306 H 24.0649 -4.79668 5.84341 0
M  V30 307 H 25.3329 -5.80104 5.20672 0
M  V30 308 N 29.562 -1.4872 -0.521534 0
M  V30 309 C 30.494 -1.59968 -1.64143 0
M  V30 310 C 31.507 -0.483463 -1.55456 0
M  V30 311 O 32.696 -0.75467 -1.61762 0
M  V30 312 C 29.796 -1.52127 -3.02838 0
M  V30 313 C 28.969 -2.78932 -3.36921 0
M  V30 314 C 28.028 -2.64428 -4.54933 0
M  V30 315 O 27.054 -3.38331 -4.57735 0
M  V30 316 N 28.256 -1.74606 -5.53618 0
M  V30 317 H 31.021 -2.56548 -1.54929 0
M  V30 318 H 28.582 -1.45551 -0.708988 0
M  V30 319 H 30.574 -1.40106 -3.79674 0
M  V30 320 H 29.144 -0.634868 -3.06085 0
M  V30 321 H 28.364 -3.05455 -2.4918 0
M  V30 322 H 29.652 -3.63041 -3.56481 0
M  V30 323 H 29.05 -1.13782 -5.54139 0
M  V30 324 H 27.607 -1.6852 -6.29638 0
M  V30 325 N 31.0401 0.771051 -1.3745 0
M  V30 326 C 32.2871 1.52963 -1.32697 0
M  V30 327 C 32.6151 1.94299 0.0883274 0
M  V30 328 O 31.8701 1.64397 1.0617 0
M  V30 329 C 32.1691 2.80676 -2.2126 0
M  V30 330 C 31.8351 2.58389 -3.69521 0
M  V30 331 C 30.4971 2.52019 -4.09927 0
M  V30 332 C 32.8491 2.38469 -4.63446 0
M  V30 333 C 30.1771 2.23721 -5.42371 0
M  V30 334 C 32.5291 2.11694 -5.96128 0
M  V30 335 C 31.1931 2.03769 -6.35637 0
M  V30 336 H 30.4631 0.559732 -0.485573 0
M  V30 337 H 33.1101 0.888083 -1.69662 0
M  V30 338 H 31.4151 3.49392 -1.77291 0
M  V30 339 H 33.1121 3.38557 -2.14895 0
M  V30 340 H 29.7021 2.6421 -3.37478 0
M  V30 341 H 33.8861 2.4238 -4.33089 0
M  V30 342 H 29.1421 2.16081 -5.71943 0
M  V30 343 H 33.3161 1.9528 -6.6846 0
M  V30 344 H 30.9431 1.81606 -7.38189 0
M  V30 345 N 32.5182 1.22032 0.997298 0
M  V30 346 C 33.7662 1.04016 1.73278 0
M  V30 347 C 34.0872 -0.426255 1.90284 0
M  V30 348 O 33.3572 -1.30694 1.45931 0
M  V30 349 H 31.9372 0.381897 0.642 0
M  V30 350 H 34.5992 1.5347 1.20137 0
M  V30 351 H 33.6952 1.51441 2.72896 0
M  V30 352 N 33.9963 -1.19345 1.0293 0
M  V30 353 C 34.9433 -2.2258 0.610464 0
M  V30 354 C 35.9133 -1.6179 -0.375946 0
M  V30 355 O 37.0983 -1.88844 -0.272511 0
M  V30 356 C 34.2383 -3.45085 -0.0321473 0
M  V30 357 C 33.3513 -4.20258 1.00035 0
M  V30 358 C 32.4863 -5.3019 0.32746 0
M  V30 359 C 31.5253 -5.97121 1.34584 0
M  V30 360 N 30.6623 -6.98615 0.698726 0
M  V30 361 H 35.5023 -2.57764 1.49538 0
M  V30 362 H 33.0393 -1.26644 0.748311 0
M  V30 363 H 34.9973 -4.15061 -0.421966 0
M  V30 364 H 33.6273 -3.10555 -0.88064 0
M  V30 365 H 32.6793 -3.49223 1.50823 0
M  V30 366 H 33.9913 -4.66175 1.77433 0
M  V30 367 H 33.1453 -6.06587 -0.11718 0
M  V30 368 H 31.8843 -4.85345 -0.478713 0
M  V30 369 H 30.8893 -5.19474 1.80074 0
M  V30 370 H 32.1143 -6.4405 2.15352 0
M  V30 371 H 30.0603 -6.55942 -0.0873471 0
M  V30 372 H 29.9773 -7.42724 1.41058 0
M  V30 373 H 31.2453 -7.79004 0.278102 0
M  V30 374 N 35.4744 -0.807222 -1.35358 0
M  V30 375 C 36.7224 -0.387122 -1.98358 0
M  V30 376 C 37.0434 1.04942 -1.64354 0
M  V30 377 O 36.3134 1.72615 -0.926339 0
M  V30 378 H 34.8934 -0.140154 -0.733734 0
M  V30 379 H 37.5554 -1.0332 -1.6526 0
M  V30 380 H 36.6514 -0.493352 -3.08176 0
M  V30 381 N 36.9525 1.47285 -0.560781 0
M  V30 382 C 38.1775 2.07359 -0.0410566 0
M  V30 383 C 38.6025 1.41017 1.24483 0
M  V30 384 O 37.9605 0.486368 1.74654 0
M  V30 385 C 38.0085 3.6035 0.134123 0
M  V30 386 O 37.1125 3.94681 1.19587 0
M  V30 387 H 36.4535 0.661887 -0.0529291 0
M  V30 388 H 38.9835 1.89252 -0.777482 0
M  V30 389 H 38.9935 4.0652 0.347207 0
M  V30 390 H 37.6685 4.08034 -0.805047 0
M  V30 391 H 36.2455 3.60251 0.962987 0
M  V30 392 N 38.4306 0.297415 1.54768 0
M  V30 393 C 39.6796 -0.313669 1.99246 0
M  V30 394 C 39.9926 -1.55281 1.18942 0
M  V30 395 O 41.1986 -2.23825 1.5367 0
M  V30 396 C 39.6546 -0.609407 3.54703 0
M  V30 397 C 39.2626 0.611192 4.43811 0
M  V30 398 C 41.0066 -1.18188 4.07715 0
M  V30 399 C 38.9136 0.288805 5.90694 0
M  V30 400 H 37.8436 -0.120979 0.744231 0
M  V30 401 H 40.4946 0.40556 1.78962 0
M  V30 402 H 38.8766 -1.38813 3.70873 0
M  V30 403 H 40.0506 1.3875 4.39414 0
M  V30 404 H 38.3656 1.10205 4.01552 0
M  V30 405 H 40.9626 -1.43727 5.15021 0
M  V30 406 H 41.3056 -2.12299 3.58099 0
M  V30 407 H 41.8386 -0.464944 3.95074 0
M  V30 408 H 38.5776 1.19838 6.44453 0
M  V30 409 H 38.0976 -0.450305 5.98107 0
M  V30 410 H 39.7766 -0.110933 6.46905 0
M  V30 411 N 39.9087 -1.5758 0.0250728 0
M  V30 412 C 40.8417 -2.05473 -0.992777 0
M  V30 413 C 41.8197 -0.949661 -1.31986 0
M  V30 414 O 43.0037 -1.21969 -1.43722 0
M  V30 415 C 40.1307 -2.4734 -2.31389 0
M  V30 416 C 39.1767 -3.68827 -2.1417 0
M  V30 417 S 40.0097 -5.15655 -1.44429 0
M  V30 418 C 41.1657 -5.60814 -2.77918 0
M  V30 419 H 41.3987 -2.91486 -0.585078 0
M  V30 420 H 38.9317 -1.53269 -0.186507 0
M  V30 421 H 40.8897 -2.72127 -3.07339 0
M  V30 422 H 39.5507 -1.6168 -2.69292 0
M  V30 423 H 38.7437 -3.95955 -3.11826 0
M  V30 424 H 38.3457 -3.44172 -1.46362 0
M  V30 425 H 40.6377 -5.64806 -3.74166 0
M  V30 426 H 41.5807 -6.60414 -2.55459 0
M  V30 427 H 41.9887 -4.8845 -2.82979 0
M  V30 428 N 41.3868 0.248026 -1.55636 0
M  V30 429 C 42.8028 0.596483 -1.48035 0
M  V30 430 C 43.0028 1.88386 -0.715039 0
M  V30 431 O 42.0588 2.51319 -0.243944 0
M  V30 432 C 43.3718 0.700258 -2.92433 0
M  V30 433 C 44.9198 0.792659 -3.02797 0
M  V30 434 C 45.3948 0.928005 -4.485 0
M  V30 435 N 46.8858 0.992903 -4.52433 0
M  V30 436 C 47.6208 1.11687 -5.62418 0
M  V30 437 N 47.1168 1.20645 -6.82214 0
M  V30 438 N 48.9098 1.14994 -5.50212 0
M  V30 439 H 41.0608 -0.597109 -2.03834 0
M  V30 440 H 43.3238 -0.205925 -0.925364 0
M  V30 441 H 43.0298 -0.175658 -3.51261 0
M  V30 442 H 42.9038 1.57255 -3.42857 0
M  V30 443 H 45.2908 1.65903 -2.4405 0
M  V30 444 H 45.3718 -0.104762 -2.55585 0
M  V30 445 H 45.0158 0.0661971 -5.07857 0
M  V30 446 H 44.9458 1.84045 -4.93391 0
M  V30 447 H 47.4368 0.935064 -3.66149 0
M  V30 448 H 47.7498 1.30008 -7.61786 0
M  V30 449 H 46.0948 1.17605 -6.84977 0
M  V30 450 H 49.2858 1.07643 -4.55555 0
M  V30 451 H 49.4588 1.24311 -6.35965 0
M  V30 452 N 42.8649 1.48995 0.513639 0
M  V30 453 C 43.7949 1.67636 1.62544 0
M  V30 454 C 44.7759 0.525087 1.61793 0
M  V30 455 O 45.9609 0.759502 1.78732 0
M  V30 456 C 43.0909 1.73114 3.01079 0
M  V30 457 C 42.0449 2.87905 3.16693 0
M  V30 458 C 41.3709 2.78486 4.56453 0
M  V30 459 C 42.6709 4.29005 2.97913 0
M  V30 460 H 44.3649 2.60716 1.47198 0
M  V30 461 H 41.9109 1.25465 0.706714 0
M  V30 462 H 43.8639 1.84742 3.78746 0
M  V30 463 H 42.5879 0.766241 3.17484 0
M  V30 464 H 41.2469 2.75859 2.41448 0
M  V30 465 H 40.8949 1.7993 4.69717 0
M  V30 466 H 40.5949 3.55523 4.67843 0
M  V30 467 H 42.1189 2.92104 5.36197 0
M  V30 468 H 43.5329 4.41798 3.65359 0
M  V30 469 H 41.9299 5.07166 3.20785 0
M  V30 470 H 42.9999 4.44329 1.94165 0
M  V30 471 N 44.343 -0.763751 1.37857 0
M  V30 472 C 45.591 -1.51957 1.33243 0
M  V30 473 C 45.912 -1.94835 -0.0801709 0
M  V30 474 O 45.182 -1.66894 -1.02582 0
M  V30 475 H 43.762 -0.563626 0.49024 0
M  V30 476 H 46.424 -0.908504 1.7243 0
M  V30 477 H 45.52 -2.41523 1.97669 0
M  V30 478 N 45.8211 -1.22559 -0.990812 0
M  V30 479 C 46.7311 -1.01394 -2.11557 0
M  V30 480 C 47.7471 0.0383962 -1.73958 0
M  V30 481 O 48.9231 -0.154787 -2.00804 0
M  V30 482 C 45.9881 -0.596569 -3.41529 0
M  V30 483 C 45.0491 -1.72276 -3.93217 0
M  V30 484 C 44.2821 -1.32521 -5.16985 0
M  V30 485 O 44.5051 -0.204909 -5.70032 0
M  V30 486 O 43.4391 -2.14247 -5.62478 0
M  V30 487 H 47.2651 -1.95633 -2.32296 0
M  V30 488 H 44.8501 -1.01172 -1.0993 0
M  V30 489 H 46.7321 -0.374263 -4.19735 0
M  V30 490 H 45.4071 0.316939 -3.22145 0
M  V30 491 H 44.3141 -1.99961 -3.16174 0
M  V30 492 H 45.6471 -2.61421 -4.17037 0
M  V30 493 N 47.2992 1.18797 -1.03562 0
M  V30 494 C 48.5762 1.84469 -0.650434 0
M  V30 495 C 48.9562 1.92319 0.870433 0
M  V30 496 O 48.3042 1.44528 1.76986 0
M  V30 497 C 48.5142 3.2306 -1.32036 0
M  V30 498 C 49.8622 3.9915 -1.44792 0
M  V30 499 O 50.8862 3.32481 -1.27806 0
M  V30 500 O 49.7452 5.18587 -1.72423 0
M  V30 501 H 46.8392 0.795251 -0.226946 0
M  V30 502 H 49.3852 1.26231 -1.13419 0
M  V30 503 H 48.1572 3.1222 -2.3587 0
M  V30 504 H 47.7802 3.88949 -0.8249 0
M  V30 505 N 48.7773 0.814389 1.34928 0
M  V30 506 C 50.1933 0.499084 1.51596 0
M  V30 507 C 50.3933 -0.978319 1.76157 0
M  V30 508 O 49.4493 -1.76309 1.80752 0
M  V30 509 C 50.7623 1.35121 2.68631 0
M  V30 510 C 52.3103 1.34746 2.82511 0
M  V30 511 C 52.7853 2.18388 4.0258 0
M  V30 512 N 54.2763 2.15966 4.09772 0
M  V30 513 C 55.0113 2.77437 5.01813 0
M  V30 514 N 54.5073 3.47866 5.99134 0
M  V30 515 N 56.3003 2.67037 4.94619 0
M  V30 516 H 48.4513 1.7711 1.17243 0
M  V30 517 H 50.7143 0.754256 0.574284 0
M  V30 518 H 50.4203 2.40001 2.57085 0
M  V30 519 H 50.2943 1.00991 3.63429 0
M  V30 520 H 52.6813 0.30648 2.93504 0
M  V30 521 H 52.7623 1.72869 1.88547 0
M  V30 522 H 52.4063 3.2253 3.92347 0
M  V30 523 H 52.3363 1.77621 4.9574 0
M  V30 524 H 54.8273 1.64729 3.40107 0
M  V30 525 H 55.1403 3.92038 6.65977 0
M  V30 526 H 53.4853 3.51972 5.99284 0
M  V30 527 H 56.6763 2.11597 4.17546 0
M  V30 528 H 56.8493 3.15232 5.66156 0
M  V30 529 N 50.2554 -1.46986 0.568584 0
M  V30 530 C 51.4804 -2.07335 0.0520528 0
M  V30 531 C 51.9054 -1.41675 -1.23733 0
M  V30 532 O 51.2634 -0.495623 -1.74394 0
M  V30 533 C 51.3114 -3.60417 -0.11501 0
M  V30 534 O 50.4154 -3.95309 -1.17492 0
M  V30 535 H 49.7564 -0.661597 0.0564385 0
M  V30 536 H 52.2864 -1.88837 0.787507 0
M  V30 537 H 52.2964 -4.06698 -0.325644 0
M  V30 538 H 50.9714 -4.07601 0.826675 0
M  V30 539 H 49.5484 -3.60757 -0.943869 0
M  V30 540 N 51.7335 -0.305618 -1.54608 0
M  V30 541 C 52.6665 0.610536 -2.19881 0
M  V30 542 C 53.6445 1.1294 -1.16976 0
M  V30 543 O 54.8285 1.19673 -1.45638 0
M  V30 544 C 51.9555 1.83583 -2.84631 0
M  V30 545 C 51.0015 1.4498 -4.01102 0
M  V30 546 S 51.8345 0.501793 -5.33144 0
M  V30 547 C 52.9905 1.73478 -6.01379 0
M  V30 548 H 53.2235 0.0560177 -2.97247 0
M  V30 549 H 50.7565 -0.0897434 -1.54139 0
M  V30 550 H 52.7145 2.53898 -3.22562 0
M  V30 551 H 51.3755 2.36152 -2.07102 0
M  V30 552 H 50.5685 2.36236 -4.45206 0
M  V30 553 H 50.1705 0.826553 -3.64752 0
M  V30 554 H 52.4625 2.67473 -6.22467 0
M  V30 555 H 53.4055 1.33622 -6.95378 0
M  V30 556 H 53.8135 1.9136 -5.31076 0
M  V30 557 N 53.2116 1.57565 -0.0334293 0
M  V30 558 C 54.4886 1.83282 0.683163 0
M  V30 559 C 54.8686 0.91823 1.90084 0
M  V30 560 O 54.2166 -0.025113 2.28486 0
M  V30 561 C 54.4266 3.32599 1.0573 0
M  V30 562 C 55.7746 3.99179 1.44711 0
M  V30 563 O 56.7986 3.3712 1.15015 0
M  V30 564 O 55.6576 5.08565 2.0006 0
M  V30 565 H 52.7516 0.755869 0.335546 0
M  V30 566 H 55.2976 1.69589 -0.0614402 0
M  V30 567 H 54.0696 3.90834 0.190828 0
M  V30 568 H 53.6926 3.51415 1.85993 0
M  V30 569 N 54.6897 -0.239769 1.55765 0
M  V30 570 C 55.9357 -0.968234 1.78194 0
M  V30 571 C 56.2687 -1.84701 0.599938 0
M  V30 572 O 55.5437 -1.9031 -0.401524 0
M  V30 573 C 55.8267 -1.8227 3.10564 0
M  V30 574 C 55.6797 -0.971633 4.3918 0
M  V30 575 C 56.9987 -2.80388 3.39221 0
M  V30 576 H 54.1177 -0.350572 0.648281 0
M  V30 577 H 56.7597 -0.238259 1.885 0
M  V30 578 H 54.9097 -2.44507 3.01908 0
M  V30 579 H 56.5817 -0.367408 4.59835 0
M  V30 580 H 54.8247 -0.276276 4.32919 0
M  V30 581 H 55.4957 -1.60346 5.28198 0
M  V30 582 H 57.9717 -2.28287 3.47885 0
M  V30 583 H 56.8477 -3.3729 4.33044 0
M  V30 584 H 57.1087 -3.57212 2.60484 0
M  V30 585 N 56.1678 -1.49265 -0.50573 0
M  V30 586 C 57.0778 -1.68312 -1.63427 0
M  V30 587 C 58.0938 -0.565682 -1.64548 0
M  V30 588 O 59.2698 -0.839801 -1.83055 0
M  V30 589 C 56.3348 -1.74107 -2.99813 0
M  V30 590 C 55.3958 -2.97653 -3.09356 0
M  V30 591 C 54.6288 -3.03163 -4.39236 0
M  V30 592 O 54.8518 -2.16396 -5.27758 0
M  V30 593 O 53.7858 -3.9558 -4.53652 0
M  V30 594 H 57.6118 -2.63907 -1.50289 0
M  V30 595 H 55.1968 -1.32951 -0.681502 0
M  V30 596 H 57.0788 -1.803 -3.80881 0
M  V30 597 H 55.7538 -0.816901 -3.13223 0
M  V30 598 H 54.6608 -2.96981 -2.27493 0
M  V30 599 H 55.9938 -3.89535 -3.00871 0
M  V30 600 N 57.6459 0.756429 -1.3826 0
M  V30 601 C 58.8739 1.54565 -1.3754 0
M  V30 602 C 59.2889 1.88767 0.0355331 0
M  V30 603 O 58.6459 1.52572 1.0014 0
M  V30 604 C 58.6969 2.84654 -2.22833 0
M  V30 605 O 58.4179 2.51912 -3.5843 0
M  V30 606 C 59.9189 3.78807 -2.30261 0
M  V30 607 H 57.1389 0.478353 -0.470553 0
M  V30 608 H 59.6829 0.936381 -1.81803 0
M  V30 609 H 57.8379 3.41965 -1.8204 0
M  V30 610 H 58.2519 3.35325 -4.03308 0
M  V30 611 H 59.7259 4.67045 -2.94233 0
M  V30 612 H 60.2029 4.19038 -1.31545 0
M  V30 613 H 60.8089 3.2742 -2.71433 0
M  V30 614 N 59.124 1.23083 0.984299 0
M  V30 615 C 60.373 1.05466 1.71929 0
M  V30 616 C 60.686 -0.409211 1.91272 0
M  V30 617 O 61.892 -0.705226 2.62181 0
M  V30 618 C 60.348 1.83874 3.09384 0
M  V30 619 C 59.956 3.34566 2.97943 0
M  V30 620 C 61.7 1.74734 3.8687 0
M  V30 621 C 59.607 4.05381 4.30605 0
M  V30 622 H 58.537 0.391039 0.644674 0
M  V30 623 H 61.188 1.47013 1.09815 0
M  V30 624 H 59.57 1.35131 3.72231 0
M  V30 625 H 60.744 3.90767 2.44209 0
M  V30 626 H 59.059 3.44476 2.33934 0
M  V30 627 H 61.656 2.24957 4.85076 0
M  V30 628 H 61.999 0.709372 4.10212 0
M  V30 629 H 62.532 2.21067 3.30717 0
M  V30 630 H 59.271 5.09467 4.1246 0
M  V30 631 H 58.791 3.53967 4.84218 0
M  V30 632 H 60.47 4.11458 4.99311 0
M  V30 633 N 60.6021 -1.18246 1.0419 0
M  V30 634 C 61.8271 -1.92736 0.765996 0
M  V30 635 C 62.2521 -1.75728 -0.67091 0
M  V30 636 O 61.6101 -1.06825 -1.46486 0
M  V30 637 C 61.6581 -3.42148 1.13875 0
M  V30 638 O 60.7621 -4.11548 0.264954 0
M  V30 639 H 60.1031 -0.601238 0.281797 0
M  V30 640 H 62.6331 -1.49942 1.39207 0
M  V30 641 H 62.6431 -3.92858 1.1012 0
M  V30 642 H 61.3181 -3.53848 2.18551 0
M  V30 643 H 59.8951 -3.71137 0.362226 0
M  V30 644 N 62.0802 -0.821533 -1.34494 0
M  V30 645 C 63.3082 -0.421884 -2.02553 0
M  V30 646 C 63.7232 0.971745 -1.61872 0
M  V30 647 O 63.0802 1.62864 -0.823496 0
M  V30 648 C 63.1312 -0.51285 -3.57844 0
M  V30 649 O 62.8522 -1.85155 -3.97051 0
M  V30 650 C 64.3532 -0.107921 -4.43169 0
M  V30 651 H 61.5732 -0.169482 -0.649243 0
M  V30 652 H 64.1172 -1.1093 -1.71798 0
M  V30 653 H 62.2722 0.126474 -3.87193 0
M  V30 654 H 62.6862 -1.82482 -4.91732 0
M  V30 655 H 64.1602 -0.222657 -5.51551 0
M  V30 656 H 64.6372 0.948401 -4.28838 0
M  V30 657 H 65.2432 -0.720989 -4.19144 0
M  V30 658 N 63.5583 1.46682 -0.576371 0
M  V30 659 C 64.8063 2.02013 -0.0594163 0
M  V30 660 C 65.1273 1.45101 1.30271 0
M  V30 661 O 64.3973 0.633317 1.8538 0
M  V30 662 H 62.9773 0.746759 -0.0189745 0
M  V30 663 H 65.6393 1.79862 -0.750717 0
M  V30 664 H 64.7353 3.12097 0.014345 0
M  V30 665 N 65.0364 0.313813 1.54444 0
M  V30 666 C 66.2614 -0.296681 2.05267 0
M  V30 667 C 66.6864 -1.45757 1.18897 0
M  V30 668 O 66.0444 -1.80239 0.195886 0
M  V30 669 C 66.0924 -0.71831 3.53373 0
M  V30 670 O 65.1964 -1.82175 3.69981 0
M  V30 671 H 64.5374 -0.0554061 0.661684 0
M  V30 672 H 67.0674 0.459387 1.99376 0
M  V30 673 H 67.0774 -1.00364 3.95463 0
M  V30 674 H 65.7524 0.130821 4.15694 0
M  V30 675 H 64.3294 -1.53598 3.39797 0
M  V30 676 N 66.5145 -1.57545 0.0417849 0
M  V30 677 C 67.4445 -2.14009 -0.933929 0
M  V30 678 C 68.4255 -1.05938 -1.33083 0
M  V30 679 O 69.6105 -1.33833 -1.40721 0
M  V30 680 C 66.7405 -2.67747 -2.21199 0
M  V30 681 C 65.6945 -3.80718 -1.95544 0
M  V30 682 C 65.0205 -4.20935 -3.29724 0
M  V30 683 C 66.3205 -5.06258 -1.28452 0
M  V30 684 H 68.0145 -2.95788 -0.463645 0
M  V30 685 H 65.5605 -1.42285 -0.221573 0
M  V30 686 H 67.5135 -3.05886 -2.89848 0
M  V30 687 H 66.2375 -1.83147 -2.70416 0
M  V30 688 H 64.8965 -3.43037 -1.2931 0
M  V30 689 H 64.5445 -3.33298 -3.76724 0
M  V30 690 H 64.2445 -4.9707 -3.13361 0
M  V30 691 H 65.7685 -4.61666 -3.9962 0
M  V30 692 H 67.1825 -5.41903 -1.8712 0
M  V30 693 H 65.5795 -5.87475 -1.22445 0
M  V30 694 H 66.6495 -4.84207 -0.259219 0
M  V30 695 N 67.9926 0.231505 -1.5589 0
M  V30 696 C 69.2176 0.978689 -1.82856 0
M  V30 697 C 69.6426 1.77559 -0.620846 0
M  V30 698 O 69.0006 1.76119 0.430305 0
M  V30 699 C 69.0486 1.87997 -3.07716 0
M  V30 700 O 68.1526 2.97393 -2.85712 0
M  V30 701 H 67.4936 0.277663 -0.603158 0
M  V30 702 H 70.0236 0.24783 -2.03093 0
M  V30 703 H 70.0336 2.2917 -3.37558 0
M  V30 704 H 68.7086 1.29417 -3.95252 0
M  V30 705 H 67.2856 2.60238 -2.67078 0
M  V30 706 N 69.4707 1.49531 0.497807 0
M  V30 707 C 70.4007 1.6935 1.60757 0
M  V30 708 C 71.3817 0.542218 1.61227 0
M  V30 709 O 72.5667 0.778417 1.77917 0
M  V30 710 C 69.6967 1.76298 2.99226 0
M  V30 711 C 68.6507 2.91248 3.13622 0
M  V30 712 C 67.9767 2.83312 4.53474 0
M  V30 713 C 69.2767 4.3214 2.93346 0
M  V30 714 H 70.9707 2.62263 1.44425 0
M  V30 715 H 68.5167 1.26208 0.693367 0
M  V30 716 H 70.4697 1.88749 3.76765 0
M  V30 717 H 69.1937 0.799871 3.16654 0
M  V30 718 H 67.8527 2.78404 2.38509 0
M  V30 719 H 67.5007 1.84902 4.67782 0
M  V30 720 H 67.2007 3.60465 4.64046 0
M  V30 721 H 68.7247 2.97775 5.33069 0
M  V30 722 H 70.1387 4.45649 3.60652 0
M  V30 723 H 68.5357 5.1054 3.15387 0
M  V30 724 H 69.6057 4.46363 1.89441 0
M  V30 725 N 70.9488 -0.749086 1.3866 0
M  V30 726 C 72.2258 -1.4992 1.25632 0
M  V30 727 C 72.6058 -2.10633 -0.140317 0
M  V30 728 O 71.9538 -1.97437 -1.15025 0
M  V30 729 C 72.1638 -2.56195 2.36992 0
M  V30 730 C 73.5118 -3.22972 2.75634 0
M  V30 731 O 74.5358 -2.66502 2.36337 0
M  V30 732 O 73.3948 -4.25122 3.43415 0
M  V30 733 H 70.4888 -0.665067 0.491544 0
M  V30 734 H 73.0348 -0.784113 1.50498 0
M  V30 735 H 71.8068 -2.09612 3.30422 0
M  V30 736 H 71.4298 -3.35279 2.13714 0
M  V30 737 N 72.4269 -1.23603 -0.977757 0
M  V30 738 C 73.6759 -1.06377 -1.71368 0
M  V30 739 C 73.9889 0.399062 -1.91486 0
M  V30 740 O 75.1949 0.691312 -2.62551 0
M  V30 741 C 73.6509 -1.85512 -3.08404 0
M  V30 742 C 73.2589 -3.36141 -2.96164 0
M  V30 743 C 75.0029 -1.76783 -3.85938 0
M  V30 744 C 72.9099 -4.07659 -4.28449 0
M  V30 745 H 71.8399 -0.394452 -0.642591 0
M  V30 746 H 74.4909 -1.47594 -1.09034 0
M  V30 747 H 72.8729 -1.37103 -3.71509 0
M  V30 748 H 74.0469 -3.92056 -2.42133 0
M  V30 749 H 72.3619 -3.45712 -2.32104 0
M  V30 750 H 74.9589 -2.27526 -4.83876 0
M  V30 751 H 75.3019 -0.731116 -4.0983 0
M  V30 752 H 75.8349 -2.22818 -3.2954 0
M  V30 753 H 72.5739 -5.11648 -4.09752 0
M  V30 754 H 72.0939 -3.5653 -4.82334 0
M  V30 755 H 73.7729 -4.141 -4.97122 0
M  V30 756 N 73.905 1.17692 -1.04816 0
M  V30 757 C 74.868 2.19787 -0.650117 0
M  V30 758 C 75.868 1.58044 0.296427 0
M  V30 759 O 77.058 1.74012 0.0808097 0
M  V30 760 C 74.19 3.40869 0.0456987 0
M  V30 761 H 75.383 2.56516 -1.5537 0
M  V30 762 H 72.936 1.31708 -0.841594 0
M  V30 763 H 73.671 3.09681 0.962726 0
M  V30 764 H 73.456 3.86928 -0.634727 0
M  V30 765 H 74.946 4.16445 0.310432 0
M  V30 766 N 75.3831 0.828654 1.34056 0
M  V30 767 C 76.3131 0.269443 2.3194 0
M  V30 768 C 77.2941 -0.617247 1.58506 0
M  V30 769 O 78.4791 -0.542931 1.86456 0
M  V30 770 C 75.6091 -0.564793 3.42677 0
M  V30 771 C 74.5631 0.225241 4.27407 0
M  V30 772 C 73.8891 -0.7321 5.29664 0
M  V30 773 C 75.1891 1.43663 5.02154 0
M  V30 774 H 76.8831 1.08728 2.7896 0
M  V30 775 H 74.4291 0.524283 1.34117 0
M  V30 776 H 76.3821 -0.966233 4.10173 0
M  V30 777 H 75.1061 -1.41574 2.9432 0
M  V30 778 H 73.7651 0.608117 3.61521 0
M  V30 779 H 73.4131 -1.57916 4.77568 0
M  V30 780 H 73.1131 -0.20767 5.87233 0
M  V30 781 H 74.6371 -1.13128 6.00029 0
M  V30 782 H 76.0511 1.1089 5.62473 0
M  V30 783 H 74.4481 1.89711 5.69324 0
M  V30 784 H 75.5181 2.21181 4.31517 0
M  V30 785 N 76.8612 -1.46375 0.584142 0
M  V30 786 C 78.1092 -2.01978 0.0701287 0
M  V30 787 C 78.4302 -1.4579 -1.295 0
M  V30 788 O 77.7002 -0.64314 -1.85042 0
M  V30 789 H 76.2802 -0.746648 0.0229345 0
M  V30 790 H 78.9422 -1.79461 0.760245 0
M  V30 791 H 78.0382 -3.121 0.0022064 0
M  V30 792 N 78.3393 -0.321999 -1.54275 0
M  V30 793 C 79.3023 0.531975 -2.22941 0
M  V30 794 C 80.3023 1.04478 -1.22234 0
M  V30 795 O 81.4923 0.937452 -1.46825 0
M  V30 796 C 78.6243 1.73874 -2.93224 0
M  V30 797 H 79.8173 -0.0682612 -2.99822 0
M  V30 798 H 77.3703 -0.0730644 -1.56129 0
M  V30 799 H 78.1053 2.37825 -2.20476 0
M  V30 800 H 77.8903 1.37847 -3.6707 0
M  V30 801 H 79.3803 2.34496 -3.45545 0
M  V30 802 N 79.8174 1.5752 -0.0501392 0
M  V30 803 C 81.0654 1.9227 0.622642 0
M  V30 804 C 81.3864 0.929083 1.71444 0
M  V30 805 O 80.6564 -0.0262186 1.95882 0
M  V30 806 H 79.2364 0.709739 0.232981 0
M  V30 807 H 81.8984 1.94628 -0.102898 0
M  V30 808 H 80.9944 2.93479 1.06191 0
M  V30 809 N 81.2955 -0.223234 1.56011 0
M  V30 810 C 82.5435 -0.946003 1.78592 0
M  V30 811 C 82.8645 -1.84936 0.618349 0
M  V30 812 O 82.1345 -1.92473 -0.364833 0
M  V30 813 H 80.7145 -0.352298 0.658707 0
M  V30 814 H 83.3765 -0.235494 1.93472 0
M  V30 815 H 82.4725 -1.55381 2.70672 0
M  V30 816 N 82.7736 -1.49793 -0.48987 0
M  V30 817 C 83.7036 -1.70201 -1.59856 0
M  V30 818 C 84.6846 -0.55076 -1.60937 0
M  V30 819 O 85.8696 -0.787841 -1.77501 0
M  V30 820 C 82.9996 -1.77882 -2.98287 0
M  V30 821 C 81.9536 -2.92907 -3.12073 0
M  V30 822 C 81.2796 -2.85712 -4.51965 0
M  V30 823 C 82.5796 -4.3369 -2.91051 0
M  V30 824 H 84.2736 -2.63025 -1.43032 0
M  V30 825 H 81.8196 -1.26574 -0.686664 0
M  V30 826 H 83.7726 -1.90744 -3.75759 0
M  V30 827 H 82.4966 -0.816653 -3.16225 0
M  V30 828 H 81.1556 -2.79665 -2.37029 0
M  V30 829 H 80.8036 -1.8738 -4.66795 0
M  V30 830 H 80.5036 -3.62921 -4.62128 0
M  V30 831 H 82.0276 -3.00598 -5.31482 0
M  V30 832 H 83.4416 -4.47555 -3.58284 0
M  V30 833 H 81.8386 -5.12205 -3.12675 0
M  V30 834 H 82.9086 -4.47362 -1.87071 0
M  V30 835 N 84.2517 0.741722 -1.39055 0
M  V30 836 C 85.6627 1.31966 -1.32068 0
M  V30 837 C 86.0137 1.96192 0.0180797 0
M  V30 838 O 85.1387 1.95861 0.920196 0
M  V30 839 C 85.7337 2.39954 -2.39181 0
M  V30 840 C 84.2927 2.93438 -2.35735 0
M  V30 841 C 83.4397 1.66936 -2.21422 0
M  V30 842 H 86.3907 0.539721 -1.4924 0
M  V30 843 H 86.4117 3.20182 -2.05581 0
M  V30 844 H 85.9237 1.9318 -3.36605 0
M  V30 845 H 84.0247 3.4451 -1.41929 0
M  V30 846 H 84.1377 3.4701 -3.30335 0
M  V30 847 H 82.5017 1.91016 -1.68478 0
M  V30 848 H 83.2847 1.22224 -3.20806 0
M  V30 849 N 85.7298 1.2412 0.971189 0
M  V30 850 C 86.6628 0.97373 2.06382 0
M  V30 851 C 87.6408 -0.0912662 1.62344 0
M  V30 852 O 88.8248 0.0449365 1.88446 0
M  V30 853 C 85.9518 0.468746 3.35441 0
M  V30 854 C 84.9978 1.52176 3.98428 0
M  V30 855 S 85.8308 3.10203 4.36503 0
M  V30 856 C 86.9868 2.61398 5.68702 0
M  V30 857 H 87.2198 1.89893 2.28753 0
M  V30 858 H 84.7528 1.07466 1.10862 0
M  V30 859 H 86.7108 0.184012 4.10087 0
M  V30 860 H 85.3718 -0.435688 3.11064 0
M  V30 861 H 84.5648 1.11876 4.91426 0
M  V30 862 H 84.1668 1.75632 3.30196 0
M  V30 863 H 86.4588 2.03992 6.4606 0
M  V30 864 H 87.4018 3.52972 6.13854 0
M  V30 865 H 87.8098 2.01941 5.27143 0
M  V30 866 N 87.2079 -1.17134 1.05439 0
M  V30 867 C 88.4559 -1.87085 0.764429 0
M  V30 868 C 88.7769 -1.81584 -0.710787 0
M  V30 869 O 88.0469 -1.24349 -1.51374 0
M  V30 870 H 86.6269 -0.692627 0.279779 0
M  V30 871 H 89.2889 -1.42087 1.33406 0
M  V30 872 H 88.3849 -2.92759 1.0816 0
M  V30 873 N 88.686 -0.835752 -1.33615 0
M  V30 874 C 90.102 -0.523139 -1.50783 0
M  V30 875 C 90.302 0.950171 -1.77691 0
M  V30 876 O 89.358 1.73411 -1.83534 0
M  V30 877 C 90.671 -1.39378 -2.66448 0
M  V30 878 C 92.219 -1.39223 -2.80332 0
M  V30 879 C 92.694 -2.24765 -3.99055 0
M  V30 880 N 94.185 -2.22458 -4.06284 0
M  V30 881 C 94.92 -2.85386 -4.97336 0
M  V30 882 N 94.416 -3.57354 -5.93523 0
M  V30 883 N 96.209 -2.74872 -4.90308 0
M  V30 884 H 88.36 -1.78952 -1.14411 0
M  V30 885 H 90.623 -0.763297 -0.562212 0
M  V30 886 H 90.329 -2.44061 -2.53234 0
M  V30 887 H 90.203 -1.0676 -3.61776 0
M  V30 888 H 92.59 -0.353136 -2.92979 0
M  V30 889 H 92.671 -1.75846 -1.85773 0
M  V30 890 H 92.315 -3.28732 -3.87167 0
M  V30 891 H 92.245 -1.85485 -4.92852 0
M  V30 892 H 94.736 -1.70119 -3.37443 0
M  V30 893 H 95.049 -4.02584 -6.59656 0
M  V30 894 H 93.394 -3.61461 -5.93608 0
M  V30 895 H 96.585 -2.18213 -4.14126 0
M  V30 896 H 96.758 -3.24199 -5.61069 0
M  V30 897 N 90.1641 1.46063 -0.591896 0
M  V30 898 C 91.4131 2.01547 -0.0786637 0
M  V30 899 C 91.7261 1.46796 1.29268 0
M  V30 900 O 92.9321 1.94157 1.89777 0
M  V30 901 C 91.3881 3.59787 -0.0900024 0
M  V30 902 C 90.9961 4.23534 -1.46023 0
M  V30 903 C 92.7401 4.22895 0.368806 0
M  V30 904 C 90.6471 5.73881 -1.4288 0
M  V30 905 H 89.5771 0.753564 -0.0256388 0
M  V30 906 H 92.2281 1.677 -0.744905 0
M  V30 907 H 90.6101 3.90752 0.642586 0
M  V30 908 H 91.7841 4.04167 -2.21328 0
M  V30 909 H 90.0991 3.72558 -1.85982 0
M  V30 910 H 92.6961 5.33116 0.411258 0
M  V30 911 H 93.0391 3.9247 1.38827 0
M  V30 912 H 93.5721 3.9659 -0.31001 0
M  V30 913 H 90.3111 6.0898 -2.42536 0
M  V30 914 H 89.8311 5.95486 -0.718095 0
M  V30 915 H 91.5101 6.36776 -1.14565 0
M  V30 916 N 91.6422 0.330177 1.54103 0
M  V30 917 C 92.8882 -0.270806 2.00984 0
M  V30 918 C 93.2212 -1.51265 1.21789 0
M  V30 919 O 92.4962 -1.92142 0.301927 0
M  V30 920 C 92.7792 -0.598339 3.55094 0
M  V30 921 C 92.6322 0.654674 4.4501 0
M  V30 922 C 93.9512 -1.41334 4.16789 0
M  V30 923 H 91.0702 -0.0969531 0.730595 0
M  V30 924 H 93.7122 0.448066 1.84641 0
M  V30 925 H 91.8622 -1.21078 3.69151 0
M  V30 926 H 93.5342 1.29285 4.42813 0
M  V30 927 H 91.7772 1.28224 4.14416 0
M  V30 928 H 92.4482 0.380944 5.50684 0
M  V30 929 H 94.9242 -0.895597 4.06347 0
M  V30 930 H 93.8002 -1.61127 5.24718 0
M  V30 931 H 94.0612 -2.41146 3.70541 0
M  V30 932 N 93.1203 -1.57491 0.0584922 0
M  V30 933 C 94.0303 -2.15448 -0.928414 0
M  V30 934 C 95.0463 -1.11416 -1.3365 0
M  V30 935 O 96.2223 -1.4362 -1.41193 0
M  V30 936 C 93.2873 -2.69393 -2.18239 0
M  V30 937 C 92.3483 -3.88249 -1.83196 0
M  V30 938 C 91.5813 -4.39613 -3.02616 0
M  V30 939 O 91.8043 -3.90023 -4.16219 0
M  V30 940 O 90.7383 -5.31111 -2.83204 0
M  V30 941 H 94.5643 -3.00112 -0.465483 0
M  V30 942 H 92.1493 -1.48499 -0.163826 0
M  V30 943 H 94.0313 -3.04026 -2.91798 0
M  V30 944 H 92.7063 -1.87796 -2.63656 0
M  V30 945 H 91.6133 -3.58492 -1.06931 0
M  V30 946 H 92.9463 -4.71098 -1.42573 0
M  V30 947 N 94.5984 0.214957 -1.56127 0
M  V30 948 C 95.8474 0.936451 -1.78643 0
M  V30 949 C 96.1604 1.85237 -0.628229 0
M  V30 950 O 97.3664 2.613 -0.737186 0
M  V30 951 C 95.8224 1.7154 -3.16389 0
M  V30 952 C 95.4304 0.845299 -4.39953 0
M  V30 953 C 97.1744 2.42772 -3.48227 0
M  V30 954 C 95.0814 1.62198 -5.68723 0
M  V30 955 H 94.0114 0.353401 -0.666051 0
M  V30 956 H 96.6624 0.190169 -1.82512 0
M  V30 957 H 95.0444 2.50484 -3.06715 0
M  V30 958 H 96.2184 0.0959353 -4.607 0
M  V30 959 H 94.5334 0.244789 -4.1568 0
M  V30 960 H 97.1304 3.01394 -4.41663 0
M  V30 961 H 97.4734 3.15984 -2.71035 0
M  V30 962 H 98.0064 1.70813 -3.5926 0
M  V30 963 H 94.7454 0.933011 -6.48826 0
M  V30 964 H 94.2654 2.34579 -5.52026 0
M  V30 965 H 95.9444 2.18095 -6.09133 0
M  V30 966 N 96.0765 1.50051 0.48192 0
M  V30 967 C 97.3065 1.63999 1.2565 0
M  V30 968 C 97.7145 0.318288 1.86504 0
M  V30 969 O 97.0575 -0.708534 1.69486 0
M  V30 970 C 97.1195 2.66504 2.4128 0
M  V30 971 C 96.7835 4.10352 2.01148 0
M  V30 972 C 97.7805 4.96562 1.54021 0
M  V30 973 C 95.4655 4.56203 2.10199 0
M  V30 974 C 97.4595 6.26668 1.16473 0
M  V30 975 C 95.1465 5.86318 1.72264 0
M  V30 976 C 96.1445 6.71375 1.25477 0
M  V30 977 O 95.8325 7.99062 0.880626 0
M  V30 978 H 95.5645 0.55456 0.386574 0
M  V30 979 H 98.1185 1.96954 0.582944 0
M  V30 980 H 96.3485 2.28769 3.11772 0
M  V30 981 H 98.0375 2.69783 3.03268 0
M  V30 982 H 98.8035 4.62358 1.46458 0
M  V30 983 H 94.6825 3.90152 2.45566 0
M  V30 984 H 98.2265 6.93011 0.798841 0
M  V30 985 H 94.1235 6.20046 1.79482 0
M  V30 986 H 94.8915 8.12239 1.01043 0
M  V30 987 N 97.5546 -0.734337 1.39446 0
M  V30 988 C 98.8026 -1.49096 1.36436 0
M  V30 989 C 99.1236 -1.94961 -0.0388255 0
M  V30 990 O 98.3936 -1.69033 -0.990191 0
M  V30 991 H 96.9736 -0.5531 0.502085 0
M  V30 992 H 99.6356 -0.871725 1.74319 0
M  V30 993 H 98.7316 -2.37276 2.02747 0
M  V30 994 N 99.0327 -1.24633 -0.964593 0
M  V30 995 C 100.444 -1.08045 -1.5226 0
M  V30 996 C 100.795 0.347116 -1.93105 0
M  V30 997 O 99.9197 1.23588 -1.77637 0
M  V30 998 C 100.515 -1.95514 -2.76695 0
M  V30 999 C 99.0737 -1.8314 -3.28841 0
M  V30 1000 C 98.2207 -1.90262 -2.01732 0
M  V30 1001 H 101.172 -1.38064 -0.782553 0
M  V30 1002 H 101.193 -1.48925 -3.50145 0
M  V30 1003 H 100.705 -2.99407 -2.46936 0
M  V30 1004 H 98.8057 -0.82092 -3.63444 0
M  V30 1005 H 98.9187 -2.67406 -3.97531 0
M  V30 1006 H 97.2827 -1.34027 -2.16584 0
M  V30 1007 H 98.0657 -2.9574 -1.74334 0
M  V30 1008 N 100.511 1.16574 -1.06058 0
M  V30 1009 C 101.421 2.2452 -0.680282 0
M  V30 1010 C 102.437 1.71348 0.302604 0
M  V30 1011 O 103.613 2.00822 0.152513 0
M  V30 1012 C 100.678 3.46629 -0.0700315 0
M  V30 1013 C 99.7388 4.14849 -1.10448 0
M  V30 1014 C 98.9718 5.31129 -0.523256 0
M  V30 1015 O 99.1948 5.66514 0.664709 0
M  V30 1016 O 98.1288 5.88526 -1.26179 0
M  V30 1017 H 101.955 2.59355 -1.58015 0
M  V30 1018 H 99.5398 1.24043 -0.832694 0
M  V30 1019 H 101.422 4.20543 0.268667 0
M  V30 1020 H 100.097 3.13573 0.803353 0
M  V30 1021 H 99.0038 3.42916 -1.49532 0
M  V30 1022 H 100.337 4.51954 -1.94931 0
M  V30 1023 N 101.989 0.842826 1.3317 0
M  V30 1024 C 103.214 0.453129 2.02389 0
M  V30 1025 C 103.639 -0.939105 1.6298 0
M  V30 1026 O 102.997 -1.61472 0.8244 0
M  V30 1027 C 103.045 0.586094 3.55805 0
M  V30 1028 O 102.149 -0.386029 4.10589 0
M  V30 1029 H 101.49 0.183664 0.638094 0
M  V30 1030 H 104.02 1.13875 1.69981 0
M  V30 1031 H 104.03 0.469209 4.05293 0
M  V30 1032 H 102.705 1.6014 3.83833 0
M  V30 1033 H 101.282 -0.226371 3.72212 0
M  V30 1034 N 103.467 -1.45747 0.599634 0
M  V30 1035 C 104.692 -2.07178 0.0960198 0
M  V30 1036 C 105.117 -1.44268 -1.207 0
M  V30 1037 O 104.475 -0.532503 -1.73303 0
M  V30 1038 C 104.523 -3.60579 -0.0385348 0
M  V30 1039 O 103.627 -3.97713 -1.0908 0
M  V30 1040 H 102.968 -0.660251 0.0704593 0
M  V30 1041 H 105.498 -1.87124 0.827385 0
M  V30 1042 H 105.508 -4.07298 -0.239304 0
M  V30 1043 H 104.183 -4.05756 0.912947 0
M  V30 1044 H 102.76 -3.62678 -0.867135 0
M  V30 1045 N 104.945 -0.338344 -1.53925 0
M  V30 1046 C 106.193 0.259245 -2.0043 0
M  V30 1047 C 106.514 1.51484 -1.22791 0
M  V30 1048 O 105.784 1.93037 -0.33368 0
M  V30 1049 H 104.364 0.0987845 -0.740439 0
M  V30 1050 H 107.026 -0.458302 -1.89435 0
M  V30 1051 H 106.122 0.505334 -3.07982 0
M  V30 1052 N 106.423 1.57458 -0.0668435 0
M  V30 1053 C 107.37 2.12439 0.902122 0
M  V30 1054 C 108.34 1.03565 1.2986 0
M  V30 1055 O 109.525 1.312 1.38532 0
M  V30 1056 C 106.665 2.6865 2.16614 0
M  V30 1057 C 105.778 3.91663 1.82274 0
M  V30 1058 C 104.913 4.36134 3.0325 0
M  V30 1059 C 103.952 5.51808 2.64904 0
M  V30 1060 N 103.089 5.9126 3.78624 0
M  V30 1061 H 107.929 2.94934 0.426382 0
M  V30 1062 H 105.466 1.4575 0.198819 0
M  V30 1063 H 107.424 2.99346 2.90599 0
M  V30 1064 H 106.054 1.88928 2.61737 0
M  V30 1065 H 105.106 3.6746 0.983719 0
M  V30 1066 H 106.418 4.75693 1.50059 0
M  V30 1067 H 105.572 4.68465 3.85519 0
M  V30 1068 H 104.311 3.50948 3.38655 0
M  V30 1069 H 103.316 5.19133 1.81055 0
M  V30 1070 H 104.541 6.38722 2.30675 0
M  V30 1071 H 102.487 5.09024 4.138 0
M  V30 1072 H 102.404 6.70018 3.5016 0
M  V30 1073 H 103.672 6.28212 4.61486 0
M  V30 1074 N 107.901 -0.206675 1.56239 0
M  V30 1075 C 109.129 -0.945345 1.8404 0
M  V30 1076 C 109.544 -1.77336 0.647885 0
M  V30 1077 O 108.901 -1.78425 -0.383511 0
M  V30 1078 C 108.952 -1.8509 3.10522 0
M  V30 1079 O 108.673 -1.05634 4.25174 0
M  V30 1080 C 110.174 -2.70222 3.51418 0
M  V30 1081 H 107.394 -0.276372 0.61144 0
M  V30 1082 H 109.938 -0.217417 2.03341 0
M  V30 1083 H 108.093 -2.53259 2.93153 0
M  V30 1084 H 108.507 -1.67238 4.97124 0
M  V30 1085 H 109.981 -3.29438 4.42916 0
M  V30 1086 H 110.458 -3.43358 2.73864 0
M  V30 1087 H 111.064 -2.07443 3.71278 0
M  V30 1088 N 109.379 -1.50304 -0.473955 0
M  V30 1089 C 110.607 -1.64902 -1.24959 0
M  V30 1090 C 111.022 -0.331198 -1.85872 0
M  V30 1091 O 110.379 0.68652 -1.69095 0
M  V30 1092 C 110.43 -2.73803 -2.36038 0
M  V30 1093 O 110.151 -4.00477 -1.77624 0
M  V30 1094 C 111.652 -2.99349 -3.26964 0
M  V30 1095 H 108.872 -0.554383 -0.378022 0
M  V30 1096 H 111.416 -1.9651 -0.566054 0
M  V30 1097 H 109.571 -2.44898 -3.00173 0
M  V30 1098 H 109.985 -4.60678 -2.5075 0
M  V30 1099 H 111.459 -3.79217 -4.01121 0
M  V30 1100 H 111.936 -2.10307 -3.85574 0
M  V30 1101 H 112.542 -3.29774 -2.68569 0
M  V30 1102 N 110.857 0.726932 -1.39834 0
M  V30 1103 C 111.787 1.85405 -1.41941 0
M  V30 1104 C 112.768 1.67751 -0.281728 0
M  V30 1105 O 113.953 1.8795 -0.488717 0
M  V30 1106 C 111.083 3.23243 -1.2701 0
M  V30 1107 C 110.037 3.55549 -2.38262 0
M  V30 1108 C 109.363 4.9241 -2.08415 0
M  V30 1109 C 110.663 3.577 -3.80589 0
M  V30 1110 H 112.357 1.83899 -2.36266 0
M  V30 1111 H 109.903 0.883349 -1.13723 0
M  V30 1112 H 111.856 4.01775 -1.27103 0
M  V30 1113 H 110.58 3.25296 -0.291564 0
M  V30 1114 H 109.239 2.79351 -2.37399 0
M  V30 1115 H 108.887 4.91052 -1.0898 0
M  V30 1116 H 108.587 5.14992 -2.82943 0
M  V30 1117 H 110.111 5.73289 -2.10171 0
M  V30 1118 H 111.525 4.26293 -3.83337 0
M  V30 1119 H 109.922 3.91804 -4.54543 0
M  V30 1120 H 110.992 2.57328 -4.10987 0
M  V30 1121 N 112.336 1.25143 0.95797 0
M  V30 1122 C 113.564 1.12424 1.73691 0
M  V30 1123 C 113.979 -0.322304 1.86029 0
M  V30 1124 O 113.336 -1.22186 1.35561 0
M  V30 1125 C 113.387 1.76933 3.15241 0
M  V30 1126 O 113.108 3.15932 3.03511 0
M  V30 1127 C 114.609 1.6995 4.09429 0
M  V30 1128 H 111.829 0.3923 0.544373 0
M  V30 1129 H 114.373 1.6544 1.20207 0
M  V30 1130 H 112.528 1.27895 3.6568 0
M  V30 1131 H 112.942 3.47598 3.9278 0
M  V30 1132 H 114.416 2.19753 5.06372 0
M  V30 1133 H 114.893 0.662619 4.34173 0
M  V30 1134 H 115.499 2.18461 3.64904 0
M  V30 1135 N 113.814 -1.1601 1.06675 0
M  V30 1136 C 114.744 -2.22688 0.702307 0
M  V30 1137 C 115.725 -1.67306 -0.307032 0
M  V30 1138 O 116.91 -1.93352 -0.181305 0
M  V30 1139 C 114.04 -3.47178 0.092038 0
M  V30 1140 C 112.994 -4.15477 1.02777 0
M  V30 1141 C 112.32 -5.33963 0.28061 0
M  V30 1142 C 113.62 -4.66019 2.35846 0
M  V30 1143 H 115.314 -2.53429 1.59419 0
M  V30 1144 H 112.86 -1.21813 0.767961 0
M  V30 1145 H 114.813 -4.21037 -0.174814 0
M  V30 1146 H 113.537 -3.15749 -0.834877 0
M  V30 1147 H 112.196 -3.43549 1.27944 0
M  V30 1148 H 111.844 -4.98788 -0.649545 0
M  V30 1149 H 111.544 -5.806 0.904258 0
M  V30 1150 H 113.068 -6.10596 0.021396 0
M  V30 1151 H 114.482 -5.3144 2.15045 0
M  V30 1152 H 112.879 -5.23293 2.93743 0
M  V30 1153 H 113.949 -3.82023 2.98641 0
M  V30 1154 N 115.292 -0.849877 -1.32721 0
M  V30 1155 C 116.224 -0.248332 -2.27851 0
M  V30 1156 C 117.237 0.577218 -1.52224 0
M  V30 1157 O 118.426 0.402489 -1.73903 0
M  V30 1158 C 115.526 0.668107 -3.32249 0
M  V30 1159 C 114.699 -0.120534 -4.37234 0
M  V30 1160 C 113.758 0.720932 -5.21238 0
M  V30 1161 O 112.784 0.156166 -5.68986 0
M  V30 1162 N 113.986 2.03647 -5.43607 0
M  V30 1163 H 116.751 -1.06575 -2.80111 0
M  V30 1164 H 114.312 -0.709395 -1.45531 0
M  V30 1165 H 116.304 1.23627 -3.85355 0
M  V30 1166 H 114.874 1.38621 -2.80184 0
M  V30 1167 H 114.094 -0.870108 -3.84477 0
M  V30 1168 H 115.382 -0.662406 -5.0447 0
M  V30 1169 H 114.78 2.51871 -5.06535 0
M  V30 1170 H 113.337 2.55287 -5.99727 0
M  V30 1171 N 116.77 1.45427 -0.607355 0
M  V30 1172 C 118.016 2.0254 -0.102607 0
M  V30 1173 C 118.349 1.47478 1.26348 0
M  V30 1174 O 117.624 0.64939 1.83339 0
M  V30 1175 C 117.907 3.60044 -0.0634347 0
M  V30 1176 C 117.76 4.2544 -1.46017 0
M  V30 1177 C 119.079 4.35646 0.624514 0
M  V30 1178 H 116.198 0.73598 -0.0387607 0
M  V30 1179 H 118.84 1.73284 -0.779282 0
M  V30 1180 H 116.99 3.85101 0.512808 0
M  V30 1181 H 118.662 4.11569 -2.08347 0
M  V30 1182 H 116.905 3.83849 -2.02094 0
M  V30 1183 H 117.576 5.34342 -1.385 0
M  V30 1184 H 120.052 4.15882 0.134723 0
M  V30 1185 H 118.928 5.45376 0.621028 0
M  V30 1186 H 119.189 4.08501 1.69055 0
M  V30 1187 N 118.248 0.346503 1.53744 0
M  V30 1188 C 119.497 -0.250122 2.00143 0
M  V30 1189 C 119.81 -1.51418 1.23822 0
M  V30 1190 O 121.016 -2.18823 1.60713 0
M  V30 1191 C 119.472 -0.496252 3.56462 0
M  V30 1192 C 119.08 0.752077 4.41642 0
M  V30 1193 C 120.824 -1.05157 4.11269 0
M  V30 1194 C 118.731 0.476583 5.89477 0
M  V30 1195 H 117.661 -0.0972409 0.747703 0
M  V30 1196 H 120.312 0.46229 1.77581 0
M  V30 1197 H 118.694 -1.26944 3.75102 0
M  V30 1198 H 119.868 1.5266 4.34778 0
M  V30 1199 H 118.183 1.22925 3.97842 0
M  V30 1200 H 120.78 -1.27269 5.19333 0
M  V30 1201 H 121.123 -2.00799 3.64672 0
M  V30 1202 H 121.656 -0.339019 3.96353 0
M  V30 1203 H 118.395 1.4028 6.40314 0
M  V30 1204 H 117.915 -0.259794 5.99237 0
M  V30 1205 H 119.594 0.0949315 6.4693 0
M  V30 1206 N 119.726 -1.57421 0.075193 0
M  V30 1207 C 120.689 -2.11791 -0.876203 0
M  V30 1208 C 121.689 -1.04268 -1.22412 0
M  V30 1209 O 122.879 -1.30242 -1.15684 0
M  V30 1210 C 120.011 -2.62207 -2.17854 0
M  V30 1211 H 121.204 -2.9716 -0.40444 0
M  V30 1212 H 118.757 -1.55333 -0.173557 0
M  V30 1213 H 119.492 -1.803 -2.6956 0
M  V30 1214 H 119.277 -3.40802 -1.93897 0
M  V30 1215 H 120.767 -3.04335 -2.85955 0
M  V30 1216 N 121.204 0.198386 -1.56346 0
M  V30 1217 C 122.167 1.22952 -1.93431 0
M  V30 1218 C 123.167 1.38611 -0.815092 0
M  V30 1219 O 124.357 1.36479 -1.08255 0
M  V30 1220 C 121.489 2.59946 -2.20546 0
M  V30 1221 H 122.682 0.912626 -2.85677 0
M  V30 1222 H 120.235 0.43977 -1.49986 0
M  V30 1223 H 120.97 2.96696 -1.30927 0
M  V30 1224 H 120.755 2.49953 -3.02102 0
M  V30 1225 H 122.245 3.3431 -2.50253 0
M  V30 1226 N 122.682 1.50554 0.465978 0
M  V30 1227 C 123.645 1.69233 1.54574 0
M  V30 1228 C 124.645 0.562901 1.50626 0
M  V30 1229 O 125.835 0.830016 1.53155 0
M  V30 1230 C 122.967 1.7223 2.94193 0
M  V30 1231 H 124.16 2.65571 1.39327 0
M  V30 1232 H 121.713 1.40111 0.692711 0
M  V30 1233 H 122.448 0.77603 3.14878 0
M  V30 1234 H 122.233 2.54285 2.98466 0
M  V30 1235 H 123.723 1.88618 3.72576 0
M  V30 1236 N 124.16 -0.719506 1.40217 0
M  V30 1237 C 125.092 -1.84428 1.36084 0
M  V30 1238 C 126.105 -1.60597 0.266913 0
M  V30 1239 O 127.294 -1.70544 0.526983 0
M  V30 1240 C 124.394 -3.20757 1.094 0
M  V30 1241 C 123.567 -3.71817 2.30372 0
M  V30 1242 C 122.626 -4.86748 1.99907 0
M  V30 1243 O 121.652 -4.99603 2.72737 0
M  V30 1244 N 122.854 -5.7226 0.974635 0
M  V30 1245 H 125.619 -1.88473 2.33019 0
M  V30 1246 H 123.18 -0.900885 1.3452 0
M  V30 1247 H 125.172 -3.95235 0.870116 0
M  V30 1248 H 123.742 -3.11884 0.211452 0
M  V30 1249 H 122.962 -2.88514 2.68614 0
M  V30 1250 H 124.25 -4.02666 3.11026 0
M  V30 1251 H 123.648 -5.6448 0.371368 0
M  V30 1252 H 122.205 -6.46739 0.810656 0
M  V30 1253 N 125.638 -1.25649 -0.95132 0
M  V30 1254 C 127.054 -1.02542 -1.223 0
M  V30 1255 C 127.254 0.255715 -1.99871 0
M  V30 1256 O 126.31 0.967558 -2.33226 0
M  V30 1257 C 127.623 -2.25065 -1.99415 0
M  V30 1258 C 129.171 -2.29861 -2.12446 0
M  V30 1259 C 129.646 -3.52048 -2.92961 0
M  V30 1260 N 131.137 -3.52465 -3.00538 0
M  V30 1261 C 131.872 -4.43672 -3.63239 0
M  V30 1262 N 131.368 -5.45157 -4.27523 0
M  V30 1263 N 133.161 -4.31346 -3.60412 0
M  V30 1264 H 125.312 -2.07951 -0.432471 0
M  V30 1265 H 127.575 -0.91339 -0.253816 0
M  V30 1266 H 127.281 -3.18194 -1.49817 0
M  V30 1267 H 127.155 -2.28502 -3.00111 0
M  V30 1268 H 129.542 -1.37252 -2.61239 0
M  V30 1269 H 129.623 -2.3044 -1.11044 0
M  V30 1270 H 129.267 -4.44981 -2.44856 0
M  V30 1271 H 129.197 -3.48715 -3.94596 0
M  V30 1272 H 131.688 -2.79056 -2.54826 0
M  V30 1273 H 132.001 -6.10958 -4.73234 0
M  V30 1274 H 130.346 -5.49025 -4.26141 0
M  V30 1275 H 133.537 -3.51288 -3.09377 0
M  V30 1276 H 133.71 -5.02624 -4.0899 0
M  V30 1277 N 127.117 1.15442 -1.07289 0
M  V30 1278 C 128.027 2.23786 -0.704057 0
M  V30 1279 C 129.043 1.7166 0.284413 0
M  V30 1280 O 130.219 2.00972 0.131205 0
M  V30 1281 C 127.284 3.46535 -0.106792 0
M  V30 1282 C 126.345 4.13654 -1.14842 0
M  V30 1283 C 125.578 5.30544 -0.57956 0
M  V30 1284 O 125.801 5.67187 0.604585 0
M  V30 1285 O 124.735 5.87154 -1.32414 0
M  V30 1286 H 128.561 2.57664 -1.60757 0
M  V30 1287 H 126.146 1.23152 -0.845803 0
M  V30 1288 H 128.028 4.20804 0.224048 0
M  V30 1289 H 126.703 3.14407 0.770049 0
M  V30 1290 H 125.61 3.4131 -1.5316 0
M  V30 1291 H 126.943 4.49861 -1.99714 0
M  V30 1292 N 128.595 0.856903 1.32268 0
M  V30 1293 C 129.843 0.460474 1.96784 0
M  V30 1294 C 130.164 -0.987701 1.68135 0
M  V30 1295 O 129.434 -1.69058 0.989765 0
M  V30 1296 H 128.014 0.167289 0.728027 0
M  V30 1297 H 130.676 1.09383 1.61312 0
M  V30 1298 H 129.772 0.60739 3.06133 0
M  V30 1299 N 130.073 -1.45103 0.615059 0
M  V30 1300 C 131.02 -2.30586 -0.0993978 0
M  V30 1301 C 131.99 -1.42544 -0.852669 0
M  V30 1302 O 133.175 -1.71465 -0.836917 0
M  V30 1303 C 130.315 -3.27572 -1.08583 0
M  V30 1304 C 129.428 -4.30717 -0.332656 0
M  V30 1305 C 128.563 -5.14807 -1.30947 0
M  V30 1306 C 127.602 -6.09673 -0.544538 0
M  V30 1307 N 126.739 -6.86517 -1.47101 0
M  V30 1308 H 131.579 -2.91144 0.635542 0
M  V30 1309 H 129.116 -1.4346 0.325206 0
M  V30 1310 H 131.074 -3.82276 -1.67095 0
M  V30 1311 H 129.704 -2.68751 -1.78809 0
M  V30 1312 H 128.756 -3.78615 0.368107 0
M  V30 1313 H 130.068 -4.98102 0.263842 0
M  V30 1314 H 129.222 -5.73948 -1.96643 0
M  V30 1315 H 127.961 -4.47458 -1.9399 0
M  V30 1316 H 126.966 -5.49656 0.126003 0
M  V30 1317 H 128.191 -6.79052 0.080947 0
M  V30 1318 H 126.137 -6.21851 -2.08895 0
M  V30 1319 H 126.054 -7.50281 -0.928137 0
M  V30 1320 H 127.322 -7.50194 -2.11731 0
M  V30 1321 N 131.551 -0.354651 -1.53558 0
M  V30 1322 C 132.779 0.239515 -2.05509 0
M  V30 1323 C 133.194 1.4333 -1.2289 0
M  V30 1324 O 132.551 1.80538 -0.266899 0
M  V30 1325 C 132.602 0.643719 -3.55723 0
M  V30 1326 O 132.323 -0.502602 -4.35207 0
M  V30 1327 C 133.824 1.29743 -4.23889 0
M  V30 1328 H 131.044 0.0442697 -0.669538 0
M  V30 1329 H 133.588 -0.509856 -1.98042 0
M  V30 1330 H 131.743 1.34302 -3.63376 0
M  V30 1331 H 132.157 -0.178172 -5.24197 0
M  V30 1332 H 133.631 1.53091 -5.30346 0
M  V30 1333 H 134.108 2.25441 -3.76926 0
M  V30 1334 H 134.714 0.639865 -4.20459 0
M  V30 1335 N 133.029 1.57378 -0.0835403 0
M  V30 1336 C 134.269 1.95808 0.586381 0
M  V30 1337 C 134.633 0.963706 1.66062 0
M  V30 1338 O 135.834 1.23608 2.38693 0
M  V30 1339 C 134.105 3.38808 1.13771 0
M  V30 1340 S 135.664 3.99225 1.82112 0
M  V30 1341 H 132.482 0.684675 0.191679 0
M  V30 1342 H 135.084 1.94843 -0.160194 0
M  V30 1343 H 133.788 4.08954 0.344197 0
M  V30 1344 H 133.319 3.43344 1.92038 0
M  V30 1345 H 135.334 3.87087 3.10449 0
M  V30 1346 N 134.507 -0.190092 1.56449 0
M  V30 1347 C 135.47 -1.21925 1.9408 0
M  V30 1348 C 136.47 -1.38176 0.822431 0
M  V30 1349 O 137.66 -1.35903 1.08977 0
M  V30 1350 C 134.792 -2.58773 2.21922 0
M  V30 1351 H 135.985 -0.897464 2.86157 0
M  V30 1352 H 133.538 -0.43181 1.50217 0
M  V30 1353 H 134.273 -2.95998 1.32499 0
M  V30 1354 H 134.058 -2.48348 3.03424 0
M  V30 1355 H 135.548 -3.32978 2.52022 0
M  V30 1356 N 135.985 -1.50799 -0.457987 0
M  V30 1357 C 137.232 -1.62442 -1.20908 0
M  V30 1358 C 137.56 -0.330865 -1.91665 0
M  V30 1359 O 136.815 0.68401 -1.83357 0
M  V30 1360 C 137.114 -2.76358 -2.2663 0
M  V30 1361 C 136.78 -4.16378 -1.73033 0
M  V30 1362 C 135.442 -4.54473 -1.58138 0
M  V30 1363 C 137.794 -5.03836 -1.33413 0
M  V30 1364 C 135.122 -5.77754 -1.02065 0
M  V30 1365 C 137.474 -6.27676 -0.78778 0
M  V30 1366 C 136.138 -6.64562 -0.625561 0
M  V30 1367 H 135.408 -0.594417 -0.442435 0
M  V30 1368 H 138.055 -1.84772 -0.503136 0
M  V30 1369 H 136.36 -2.48167 -3.03184 0
M  V30 1370 H 138.057 -2.82568 -2.84528 0
M  V30 1371 H 134.647 -3.86331 -1.85598 0
M  V30 1372 H 138.831 -4.75026 -1.4375 0
M  V30 1373 H 134.087 -6.04997 -0.882547 0
M  V30 1374 H 138.261 -6.94797 -0.472177 0
M  V30 1375 H 135.888 -7.59965 -0.188926 0
M  V30 1376 N 137.463 0.71206 -1.40597 0
M  V30 1377 C 138.712 1.46754 -1.38369 0
M  V30 1378 C 139.025 1.95598 0.0097839 0
M  V30 1379 O 140.231 2.71059 0.154677 0
M  V30 1380 C 138.687 2.65289 -2.43207 0
M  V30 1381 C 138.295 2.23301 -3.88382 0
M  V30 1382 C 140.039 3.43008 -2.50091 0
M  V30 1383 C 137.946 3.38696 -4.84808 0
M  V30 1384 H 136.876 0.55118 -0.514506 0
M  V30 1385 H 139.527 0.774616 -1.66349 0
M  V30 1386 H 137.909 3.36769 -2.08332 0
M  V30 1387 H 139.083 1.59218 -4.32419 0
M  V30 1388 H 137.398 1.58618 -3.85006 0
M  V30 1389 H 139.995 4.28881 -3.1932 0
M  V30 1390 H 140.338 3.87065 -1.53253 0
M  V30 1391 H 140.871 2.78574 -2.83974 0
M  V30 1392 H 137.61 2.99668 -5.82992 0
M  V30 1393 H 137.13 4.01683 -4.45433 0
M  V30 1394 H 138.809 4.04712 -5.04794 0
M  V30 1395 N 138.941 1.26152 0.944643 0
M  V30 1396 C 140.218 1.02247 1.66748 0
M  V30 1397 C 140.598 -0.448202 2.06287 0
M  V30 1398 O 139.946 -1.42779 1.78399 0
M  V30 1399 C 140.156 1.96788 2.88228 0
M  V30 1400 C 141.504 2.25201 3.59958 0
M  V30 1401 O 142.528 1.94626 2.98327 0
M  V30 1402 O 141.387 2.77242 4.70956 0
M  V30 1403 H 138.481 0.388517 0.730057 0
M  V30 1404 H 141.027 1.37348 0.99668 0
M  V30 1405 H 139.799 2.96047 2.55875 0
M  V30 1406 H 139.422 1.62145 3.63035 0
M  V30 1407 N 140.419 -1.14872 1.07899 0
M  V30 1408 C 141.382 -2.17986 0.708161 0
M  V30 1409 C 142.382 -1.58775 -0.25442 0
M  V30 1410 O 143.572 -1.74166 -0.034645 0
M  V30 1411 C 140.704 -3.40871 0.0446929 0
M  V30 1412 H 141.897 -2.52306 1.62116 0
M  V30 1413 H 139.45 -1.2943 0.876218 0
M  V30 1414 H 140.185 -3.12124 -0.880281 0
M  V30 1415 H 139.97 -3.8511 0.737091 0
M  V30 1416 H 141.46 -4.17121 -0.19991 0
M  V30 1417 N 141.898 -0.863906 -1.31812 0
M  V30 1418 C 142.808 -0.318461 -2.32428 0
M  V30 1419 C 143.824 0.568496 -1.64451 0
M  V30 1420 O 145 0.46666 -1.95919 0
M  V30 1421 C 142.065 0.476355 -3.43412 0
M  V30 1422 C 141.126 -0.43784 -4.27061 0
M  V30 1423 C 140.359 0.319138 -5.32745 0
M  V30 1424 O 140.582 1.54799 -5.48993 0
M  V30 1425 O 139.516 -0.319861 -6.01049 0
M  V30 1426 H 143.342 -1.15229 -2.80991 0
M  V30 1427 H 140.927 -0.627103 -1.35602 0
M  V30 1428 H 142.809 0.927156 -4.11074 0
M  V30 1429 H 141.484 1.28683 -2.97022 0
M  V30 1430 H 140.391 -0.937013 -3.62175 0
M  V30 1431 H 141.724 -1.21375 -4.77 0
M  V30 1432 N 143.376 1.44774 -0.622745 0
M  V30 1433 C 144.326 2.2774 0.108889 0
M  V30 1434 C 145.31 1.38189 0.824175 0
M  V30 1435 O 146.502 1.62063 0.711664 0
M  V30 1436 C 143.631 3.25353 1.09546 0
M  V30 1437 C 142.717 4.22392 0.380232 0
M  V30 1438 N 143.108 5.02388 -0.586535 0
M  V30 1439 C 141.406 4.41588 0.625792 0
M  V30 1440 C 142.107 5.72894 -1.00834 0
M  V30 1441 N 141.083 5.42479 -0.348878 0
M  V30 1442 H 144.885 2.86993 -0.63341 0
M  V30 1443 H 142.399 1.5611 -0.447589 0
M  V30 1444 H 144.396 3.83538 1.63414 0
M  V30 1445 H 143.056 2.6766 1.83815 0
M  V30 1446 H 144.067 5.0885 -0.963975 0
M  V30 1447 H 140.744 3.95003 1.352 0
M  V30 1448 H 142.134 6.47158 -1.80656 0
M  V30 1449 N 144.854 0.36279 1.53368 0
M  V30 1450 C 145.817 -0.472679 2.24273 0
M  V30 1451 C 146.817 -1.012 1.24961 0
M  V30 1452 O 148.007 -0.898194 1.49259 0
M  V30 1453 C 145.139 -1.66039 2.97731 0
M  V30 1454 H 146.332 0.14773 2.99536 0
M  V30 1455 H 143.885 0.114434 1.55881 0
M  V30 1456 H 144.62 -2.31896 2.26704 0
M  V30 1457 H 144.405 -1.28066 3.70596 0
M  V30 1458 H 145.895 -2.25252 3.51641 0
M  V30 1459 N 146.332 -1.57332 0.0918853 0
M  V30 1460 C 147.262 -2.16872 -0.865371 0
M  V30 1461 C 148.243 -1.10118 -1.29646 0
M  V30 1462 O 149.428 -1.38242 -1.36392 0
M  V30 1463 C 146.558 -2.74649 -2.12569 0
M  V30 1464 C 145.512 -3.86747 -1.83333 0
M  V30 1465 C 144.838 -4.31212 -3.16166 0
M  V30 1466 C 146.138 -5.10089 -1.1228 0
M  V30 1467 H 147.832 -2.97114 -0.369307 0
M  V30 1468 H 145.378 -1.42918 -0.176194 0
M  V30 1469 H 147.331 -3.14952 -2.7997 0
M  V30 1470 H 146.055 -1.91657 -2.64452 0
M  V30 1471 H 144.714 -3.46978 -1.18331 0
M  V30 1472 H 144.362 -3.45115 -3.6593 0
M  V30 1473 H 144.062 -5.06788 -2.97388 0
M  V30 1474 H 145.586 -4.74146 -3.84731 0
M  V30 1475 H 147 -5.47582 -1.69785 0
M  V30 1476 H 145.397 -5.91073 -1.03693 0
M  V30 1477 H 146.467 -4.84786 -0.105041 0
M  V30 1478 N 147.81 0.181792 -1.56548 0
M  V30 1479 C 149.087 0.926765 -1.72251 0
M  V30 1480 C 149.467 2.00831 -0.650386 0
M  V30 1481 O 148.815 2.26008 0.336521 0
M  V30 1482 C 149.025 1.50106 -3.1507 0
M  V30 1483 C 150.373 1.97805 -3.75711 0
M  V30 1484 O 151.397 1.59922 -3.18282 0
M  V30 1485 O 150.256 2.67555 -4.76525 0
M  V30 1486 H 147.35 0.435506 -0.703039 0
M  V30 1487 H 149.896 0.170443 -1.68842 0
M  V30 1488 H 148.668 0.72212 -3.84579 0
M  V30 1489 H 148.291 2.32186 -3.22763 0
M  V30 1490 N 149.288 1.51039 0.449983 0
M  V30 1491 C 150.699 1.557 1.03026 0
M  V30 1492 C 151.05 0.372939 1.92623 0
M  V30 1493 O 150.175 -0.511771 2.10261 0
M  V30 1494 C 150.77 2.82171 1.87523 0
M  V30 1495 C 149.329 2.89444 2.40622 0
M  V30 1496 C 148.476 2.50228 1.19504 0
M  V30 1497 H 151.427 1.56999 0.231745 0
M  V30 1498 H 151.448 2.65219 2.72835 0
M  V30 1499 H 150.96 3.68331 1.22286 0
M  V30 1500 H 149.061 2.07685 3.0935 0
M  V30 1501 H 149.174 3.92816 2.74285 0
M  V30 1502 H 147.538 2.03139 1.53644 0
M  V30 1503 H 148.321 3.38719 0.558972 0
M  V30 1504 N 150.766 -0.704594 1.40972 0
M  V30 1505 C 152.015 -1.46018 1.39146 0
M  V30 1506 C 152.328 -1.956 0.000589254 0
M  V30 1507 O 153.534 -2.71137 -0.1403 0
M  V30 1508 C 151.99 -2.63996 2.4461 0
M  V30 1509 C 151.598 -2.21238 3.89561 0
M  V30 1510 C 153.342 -3.41677 2.51907 0
M  V30 1511 C 151.249 -3.3612 4.86598 0
M  V30 1512 H 150.179 -0.548444 0.517422 0
M  V30 1513 H 152.83 -0.765784 1.66757 0
M  V30 1514 H 151.212 -3.3566 2.10115 0
M  V30 1515 H 152.386 -1.56923 4.33257 0
M  V30 1516 H 150.701 -1.56574 3.85841 0
M  V30 1517 H 153.298 -4.27182 3.2159 0
M  V30 1518 H 153.641 -3.86247 1.55303 0
M  V30 1519 H 154.174 -2.77064 2.85448 0
M  V30 1520 H 150.913 -2.96572 5.84573 0
M  V30 1521 H 150.433 -3.99315 4.47557 0
M  V30 1522 H 152.112 -4.02029 5.06934 0
M  V30 1523 N 152.244 -1.26651 -0.937939 0
M  V30 1524 C 153.474 -1.15006 -1.71631 0
M  V30 1525 C 153.882 0.297026 -1.86854 0
M  V30 1526 O 153.225 1.21493 -1.37786 0
M  V30 1527 C 153.287 -1.74984 -3.14039 0
M  V30 1528 C 152.951 -3.24103 -3.2219 0
M  V30 1529 C 153.948 -4.20877 -3.05219 0
M  V30 1530 C 151.633 -3.64625 -3.45476 0
M  V30 1531 C 153.627 -5.56151 -3.11408 0
M  V30 1532 C 151.314 -5.00032 -3.513 0
M  V30 1533 C 152.312 -5.95604 -3.34282 0
M  V30 1534 O 152 -7.28545 -3.3982 0
M  V30 1535 H 151.732 -0.401183 -0.544085 0
M  V30 1536 H 154.286 -1.67832 -1.18413 0
M  V30 1537 H 152.516 -1.16624 -3.68695 0
M  V30 1538 H 154.205 -1.58199 -3.73802 0
M  V30 1539 H 154.971 -3.90908 -2.87081 0
M  V30 1540 H 150.85 -2.90718 -3.57777 0
M  V30 1541 H 154.394 -6.30727 -2.98043 0
M  V30 1542 H 150.291 -5.29659 -3.68959 0
M  V30 1543 H 151.059 -7.3686 -3.56343 0
M  V30 1544 N 153.722 1.14298 -1.08507 0
M  V30 1545 C 154.685 2.17607 -0.719711 0
M  V30 1546 C 155.685 1.58907 0.245997 0
M  V30 1547 O 156.875 1.74181 0.0254081 0
M  V30 1548 C 154.007 3.40842 -0.0627695 0
M  V30 1549 H 155.2 2.51443 -1.63452 0
M  V30 1550 H 152.753 1.28963 -0.88307 0
M  V30 1551 H 153.488 3.12587 0.863716 0
M  V30 1552 H 153.273 3.84713 -0.757504 0
M  V30 1553 H 154.763 4.17221 0.177786 0
M  V30 1554 N 155.201 0.870884 1.31352 0
M  V30 1555 C 156.617 0.562932 1.49343 0
M  V30 1556 C 156.817 -0.902725 1.80148 0
M  V30 1557 O 155.873 -1.68484 1.88067 0
M  V30 1558 C 157.186 1.46393 2.62659 0
M  V30 1559 C 158.734 1.46607 2.76542 0
M  V30 1560 C 159.209 2.35266 3.92955 0
M  V30 1561 N 160.7 2.33151 4.00243 0
M  V30 1562 C 161.435 2.98471 4.89594 0
M  V30 1563 N 160.931 3.72964 5.8384 0
M  V30 1564 N 162.724 2.87775 4.82848 0
M  V30 1565 H 154.875 1.81923 1.09626 0
M  V30 1566 H 157.138 0.777934 0.541777 0
M  V30 1567 H 156.844 2.50689 2.46674 0
M  V30 1568 H 156.718 1.16314 3.58819 0
M  V30 1569 H 159.105 0.43069 2.9194 0
M  V30 1570 H 159.186 1.8071 1.81046 0
M  V30 1571 H 158.83 3.38881 3.78315 0
M  V30 1572 H 158.76 1.98487 4.87761 0
M  V30 1573 H 161.251 1.79006 3.32814 0
M  V30 1574 H 161.564 4.19932 6.4875 0
M  V30 1575 H 159.909 3.77073 5.83816 0
M  V30 1576 H 163.1 2.29116 4.08195 0
M  V30 1577 H 163.273 3.38961 5.52277 0
M  V30 1578 N 156.679 -1.44442 0.630414 0
M  V30 1579 C 157.626 -2.30678 -0.0749355 0
M  V30 1580 C 158.596 -1.4344 -0.837502 0
M  V30 1581 O 159.781 -1.72343 -0.818684 0
M  V30 1582 C 156.921 -3.28706 -1.05103 0
M  V30 1583 C 156.034 -4.31046 -0.286954 0
M  V30 1584 C 155.169 -5.16167 -1.2548 0
M  V30 1585 C 154.208 -6.10216 -0.479843 0
M  V30 1586 N 153.345 -6.88039 -1.39811 0
M  V30 1587 H 158.185 -2.90454 0.666386 0
M  V30 1588 H 155.722 -1.43107 0.340404 0
M  V30 1589 H 157.68 -3.84027 -1.63031 0
M  V30 1590 H 156.31 -2.70632 -1.75949 0
M  V30 1591 H 155.362 -3.78203 0.408243 0
M  V30 1592 H 156.674 -4.97794 0.316657 0
M  V30 1593 H 155.828 -5.76002 -1.90544 0
M  V30 1594 H 154.567 -4.49491 -1.89233 0
M  V30 1595 H 153.572 -5.49491 0.184295 0
M  V30 1596 H 154.797 -6.78928 0.152965 0
M  V30 1597 H 152.743 -6.24032 -2.02287 0
M  V30 1598 H 152.66 -7.51223 -0.848508 0
M  V30 1599 H 153.928 -7.52397 -2.03762 0
M  V30 1600 N 158.157 -0.370918 -1.53173 0
M  V30 1601 C 159.087 0.464847 -2.28826 0
M  V30 1602 C 160.068 1.07936 -1.31468 0
M  V30 1603 O 161.253 1.0956 -1.60344 0
M  V30 1604 C 158.383 1.60196 -3.08147 0
M  V30 1605 C 157.337 1.11443 -4.13237 0
M  V30 1606 C 156.663 2.3422 -4.80672 0
M  V30 1607 C 157.963 0.195384 -5.21934 0
M  V30 1608 H 159.657 -0.166329 -2.98938 0
M  V30 1609 H 157.203 -0.0814359 -1.4377 0
M  V30 1610 H 159.156 2.19332 -3.59822 0
M  V30 1611 H 157.88 2.26045 -2.35735 0
M  V30 1612 H 156.539 0.545727 -3.62515 0
M  V30 1613 H 156.187 2.98537 -4.04827 0
M  V30 1614 H 155.887 2.02269 -5.51689 0
M  V30 1615 H 157.411 2.94032 -5.35143 0
M  V30 1616 H 158.825 0.694375 -5.69079 0
M  V30 1617 H 157.222 -0.0335027 -6.00091 0
M  V30 1618 H 158.292 -0.760961 -4.78892 0
M  V30 1619 N 159.635 1.57281 -0.100228 0
M  V30 1620 C 160.883 1.94153 0.561157 0
M  V30 1621 C 161.204 0.983157 1.68401 0
M  V30 1622 O 160.474 0.0361132 1.95867 0
M  V30 1623 H 159.054 0.716791 0.210283 0
M  V30 1624 H 161.716 1.94202 -0.164765 0
M  V30 1625 H 160.812 2.96709 0.968008 0
M  V30 1626 N 161.113 -0.173488 1.56642 0
M  V30 1627 C 162.359 -0.891784 1.8214 0
M  V30 1628 C 162.692 -1.8199 0.677736 0
M  V30 1629 O 161.967 -1.91842 -0.320446 0
M  V30 1630 C 162.25 -1.68933 3.18015 0
M  V30 1631 C 162.103 -0.784487 4.42906 0
M  V30 1632 C 163.422 -2.65748 3.50808 0
M  V30 1633 H 160.541 -0.322761 0.662567 0
M  V30 1634 H 163.183 -0.158095 1.89341 0
M  V30 1635 H 161.333 -2.31482 3.12007 0
M  V30 1636 H 163.005 -0.172046 4.60979 0
M  V30 1637 H 161.248 -0.0924117 4.33702 0
M  V30 1638 H 161.919 -1.37799 5.34524 0
M  V30 1639 H 164.395 -2.13327 3.57255 0
M  V30 1640 H 163.271 -3.18619 4.4696 0
M  V30 1641 H 163.532 -3.45842 2.75401 0
M  V30 1642 N 162.591 -1.51276 -0.441967 0
M  V30 1643 C 163.868 -1.54252 -1.20273 0
M  V30 1644 C 164.248 -0.30408 -2.08898 0
M  V30 1645 O 163.596 0.711084 -2.17154 0
M  V30 1646 C 163.806 -2.85406 -2.00859 0
M  V30 1647 C 165.154 -3.37181 -2.58059 0
M  V30 1648 O 166.178 -2.86925 -2.11074 0
M  V30 1649 O 165.037 -4.24858 -3.43741 0
M  V30 1650 H 162.131 -0.619969 -0.547328 0
M  V30 1651 H 164.677 -1.63586 -0.451413 0
M  V30 1652 H 163.449 -3.67003 -1.35736 0
M  V30 1653 H 163.072 -2.79213 -2.83065 0
M  V30 1654 N 164.069 0.697108 -1.41344 0
M  V30 1655 C 165.318 1.45279 -1.39918 0
M  V30 1656 C 165.631 1.95597 -0.0109624 0
M  V30 1657 O 166.837 2.71208 0.125919 0
M  V30 1658 C 165.293 2.62695 -2.46007 0
M  V30 1659 C 164.901 2.19169 -3.90729 0
M  V30 1660 C 166.645 3.40336 -2.53715 0
M  V30 1661 C 164.552 3.33535 -4.88373 0
M  V30 1662 H 163.482 0.545692 -0.520323 0
M  V30 1663 H 166.133 0.756929 -1.67161 0
M  V30 1664 H 164.515 3.34541 -2.11892 0
M  V30 1665 H 165.689 1.54623 -4.34083 0
M  V30 1666 H 164.004 1.54525 -3.86666 0
M  V30 1667 H 166.601 4.2547 -3.2385 0
M  V30 1668 H 166.944 3.85418 -1.5735 0
M  V30 1669 H 167.477 2.75546 -2.86913 0
M  V30 1670 H 164.216 2.93468 -5.86137 0
M  V30 1671 H 163.736 3.96936 -4.49668 0
M  V30 1672 H 165.415 3.99335 -5.09059 0
M  V30 1673 N 165.547 1.27147 0.931209 0
M  V30 1674 C 166.824 1.0401 1.65654 0
M  V30 1675 C 167.204 -0.426297 2.06751 0
M  V30 1676 O 166.552 -1.40879 1.79904 0
M  V30 1677 C 166.762 1.99834 2.86125 0
M  V30 1678 C 168.11 2.29007 3.57549 0
M  V30 1679 O 169.134 1.97779 2.96246 0
M  V30 1680 O 167.993 2.82222 4.67989 0
M  V30 1681 H 165.087 0.396239 0.725895 0
M  V30 1682 H 167.633 1.38397 0.982056 0
M  V30 1683 H 166.405 2.98744 2.52721 0
M  V30 1684 H 166.028 1.65987 3.61295 0
M  V30 1685 N 167.025 -1.13721 1.09112 0
M  V30 1686 C 167.973 -2.21103 0.722219 0
M  V30 1687 C 168.967 -1.67147 -0.275374 0
M  V30 1688 O 170.173 -1.79477 -0.137176 0
M  V30 1689 H 166.548 -0.720445 0.215553 0
M  V30 1690 H 168.519 -2.49483 1.63709 0
M  V30 1691 C 167.268 -3.47352 0.15543 0
M  V30 1692 H 166.591 -3.89206 0.914246 0
M  V30 1693 H 168.031 -4.2395 -0.0647967 0
M  V30 1694 C 166.49 -3.1814 -1.10852 0
M  V30 1695 O 167.02 -3.36604 -2.19227 0
M  V30 1696 N 165.226 -2.72045 -1.02176 0
M  V30 1697 H 164.773 -2.57221 -0.139764 0
M  V30 1698 H 164.731 -2.52875 -1.8682 0
M  V30 1699 N 168.503 -0.877838 -1.30888 0
M  V30 1700 C 169.433 -0.35534 -2.3078 0
M  V30 1701 C 170.414 0.557994 -1.60687 0
M  V30 1702 O 171.599 0.473355 -1.88343 0
M  V30 1703 C 168.729 0.437221 -3.44537 0
M  V30 1704 C 167.683 -0.383715 -4.26276 0
M  V30 1705 C 167.009 0.535014 -5.32017 0
M  V30 1706 C 168.309 -1.62201 -4.96476 0
M  V30 1707 H 170.003 -1.19007 -2.74732 0
M  V30 1708 H 167.549 -0.573698 -1.32078 0
M  V30 1709 H 169.502 0.813334 -4.13477 0
M  V30 1710 H 168.226 1.30553 -2.99372 0
M  V30 1711 H 166.885 -0.741874 -3.59015 0
M  V30 1712 H 166.533 1.40083 -4.831 0
M  V30 1713 H 166.233 -0.0104211 -5.87599 0
M  V30 1714 H 167.757 0.907799 -6.03814 0
M  V30 1715 H 169.171 -1.31689 -5.5797 0
M  V30 1716 H 167.568 -2.10711 -5.61891 0
M  V30 1717 H 168.638 -2.37044 -4.23011 0
M  V30 1718 N 169.982 1.44106 -0.638065 0
M  V30 1719 C 170.912 2.33448 0.0494287 0
M  V30 1720 C 171.893 1.48606 0.827672 0
M  V30 1721 O 173.078 1.77308 0.792173 0
M  V30 1722 C 170.208 3.31771 1.02691 0
M  V30 1723 C 169.162 4.26485 0.359823 0
M  V30 1724 C 168.488 5.14729 1.44769 0
M  V30 1725 C 169.788 5.17056 -0.738296 0
M  V30 1726 H 171.482 2.91183 -0.696636 0
M  V30 1727 H 169.028 1.40014 -0.336456 0
M  V30 1728 H 170.981 3.93161 1.51666 0
M  V30 1729 H 169.705 2.7226 1.80395 0
M  V30 1730 H 168.364 3.66437 -0.10934 0
M  V30 1731 H 168.012 4.51566 2.21578 0
M  V30 1732 H 167.712 5.78913 1.00668 0
M  V30 1733 H 169.236 5.78991 1.93911 0
M  V30 1734 H 170.65 5.72342 -0.331354 0
M  V30 1735 H 169.047 5.89879 -1.10286 0
M  V30 1736 H 170.117 4.57652 -1.60258 0
M  V30 1737 N 171.46 0.379036 1.52974 0
M  V30 1738 C 172.7 -0.206325 2.03356 0
M  V30 1739 C 173.064 -1.44892 1.25977 0
M  V30 1740 O 174.265 -2.11078 1.66432 0
M  V30 1741 C 172.536 -0.477887 3.54191 0
M  V30 1742 S 174.095 -1.035 4.26419 0
M  V30 1743 H 170.913 -0.0590259 0.708546 0
M  V30 1744 H 173.515 0.525013 1.88319 0
M  V30 1745 H 172.219 0.433745 4.08101 0
M  V30 1746 H 171.75 -1.23793 3.73415 0
M  V30 1747 H 173.765 -2.31821 4.38718 0
M  V30 1748 N 172.938 -1.57226 0.108567 0
M  V30 1749 C 174.163 -1.99604 -0.563303 0
M  V30 1750 C 174.588 -0.987563 -1.6009 0
M  V30 1751 O 173.946 0.0421687 -1.81251 0
M  V30 1752 C 173.994 -3.40902 -1.17552 0
M  V30 1753 O 173.098 -3.42896 -2.2912 0
M  V30 1754 H 172.439 -0.648704 -0.1417 0
M  V30 1755 H 174.969 -2.03679 0.193961 0
M  V30 1756 H 174.979 -3.78886 -1.51357 0
M  V30 1757 H 173.654 -4.1382 -0.415445 0
M  V30 1758 H 172.231 -3.1672 -1.96832 0
M  V30 1759 N 174.416 0.165178 -1.56732 0
M  V30 1760 C 175.348 1.22911 -1.93457 0
M  V30 1761 C 176.361 1.40152 -0.828333 0
M  V30 1762 O 177.55 1.40046 -1.10677 0
M  V30 1763 C 174.65 2.59686 -2.17753 0
M  V30 1764 C 173.823 2.63663 -3.48999 0
M  V30 1765 C 172.882 3.81845 -3.62051 0
M  V30 1766 O 171.908 3.67559 -4.34613 0
M  V30 1767 N 173.11 4.98557 -2.97357 0
M  V30 1768 H 175.875 0.917118 -2.85323 0
M  V30 1769 H 173.436 0.354895 -1.57962 0
M  V30 1770 H 175.428 3.37225 -2.23743 0
M  V30 1771 H 173.998 2.83251 -1.32242 0
M  V30 1772 H 173.218 1.72173 -3.54612 0
M  V30 1773 H 174.506 2.63336 -4.35352 0
M  V30 1774 H 173.904 5.13065 -2.38287 0
M  V30 1775 H 172.461 5.73936 -3.08934 0
M  V30 1776 N 175.894 1.51508 0.433938 0
M  V30 1777 C 177.305 1.56784 1.01369 0
M  V30 1778 C 177.656 0.393349 1.92217 0
M  V30 1779 O 176.781 -0.489441 2.10792 0
M  V30 1780 C 177.376 2.84144 1.8452 0
M  V30 1781 C 175.935 2.9198 2.37539 0
M  V30 1782 C 175.082 2.51482 1.16843 0
M  V30 1783 H 178.033 1.57236 0.215081 0
M  V30 1784 H 178.054 2.68098 2.70007 0
M  V30 1785 H 177.566 3.69607 1.18373 0
M  V30 1786 H 175.667 2.10955 3.0713 0
M  V30 1787 H 175.78 3.95704 2.70103 0
M  V30 1788 H 174.144 2.04758 1.51481 0
M  V30 1789 H 174.927 3.39293 0.523015 0
M  V30 1790 N 177.372 -0.689602 1.41712 0
M  V30 1791 C 178.649 -1.44457 1.31877 0
M  V30 1792 C 179.029 -2.11039 -0.0508537 0
M  V30 1793 O 178.377 -2.02138 -1.06547 0
M  V30 1794 C 178.587 -2.45913 2.47645 0
M  V30 1795 C 179.935 -3.10991 2.89084 0
M  V30 1796 O 180.959 -2.56238 2.47428 0
M  V30 1797 O 179.818 -4.10174 3.61137 0
M  V30 1798 H 176.912 -0.64362 0.519309 0
M  V30 1799 H 179.458 -0.719576 1.53689 0
M  V30 1800 H 178.23 -1.95409 3.39015 0
M  V30 1801 H 177.853 -3.25913 2.27742 0
M  V30 1802 N 178.85 -1.27639 -0.924453 0
M  V30 1803 C 180.078 -1.16989 -1.70649 0
M  V30 1804 C 180.493 0.272869 -1.86818 0
M  V30 1805 O 179.85 1.18549 -1.38753 0
M  V30 1806 C 179.901 -1.85229 -3.10439 0
M  V30 1807 O 179.622 -3.23868 -2.95028 0
M  V30 1808 C 181.123 -1.80746 -4.04779 0
M  V30 1809 H 178.343 -0.406595 -0.53378 0
M  V30 1810 H 180.887 -1.68569 -1.15778 0
M  V30 1811 H 179.042 -1.37545 -3.6216 0
M  V30 1812 H 179.456 -3.57889 -3.83426 0
M  V30 1813 H 180.93 -2.33101 -5.00368 0
M  V30 1814 H 181.407 -0.777499 -4.32263 0
M  V30 1815 H 182.013 -2.28059 -3.58984 0
M  V30 1816 N 180.328 1.1314 -1.09713 0
M  V30 1817 C 181.576 1.84119 -0.833338 0
M  V30 1818 C 181.897 1.84097 0.642904 0
M  V30 1819 O 181.167 1.29881 1.46655 0
M  V30 1820 H 179.747 0.681766 -0.305293 0
M  V30 1821 H 182.409 1.37038 -1.38588 0
M  V30 1822 H 181.505 2.88543 -1.18951 0
M  V30 1823 N 181.806 0.884767 1.30421 0
M  V30 1824 C 182.716 0.355398 2.31892 0
M  V30 1825 C 183.732 -0.542261 1.65335 0
M  V30 1826 O 184.908 -0.435432 1.96637 0
M  V30 1827 C 181.973 -0.421661 3.44126 0
M  V30 1828 C 181.034 0.505727 4.26311 0
M  V30 1829 C 180.267 -0.234343 5.33185 0
M  V30 1830 O 180.49 -1.46045 5.51386 0
M  V30 1831 O 179.424 0.415443 6.00465 0
M  V30 1832 H 183.25 1.19685 2.79122 0
M  V30 1833 H 180.835 0.648596 1.34587 0
M  V30 1834 H 182.717 -0.861641 4.12497 0
M  V30 1835 H 181.392 -1.23942 2.99032 0
M  V30 1836 H 180.299 0.994513 3.60639 0
M  V30 1837 H 181.632 1.28948 4.75009 0
M  V30 1838 N 183.284 -1.43765 0.645699 0
M  V30 1839 C 184.216 -2.29027 -0.0890605 0
M  V30 1840 C 185.229 -1.42093 -0.794563 0
M  V30 1841 O 186.418 -1.66104 -0.653575 0
M  V30 1842 C 183.518 -3.18831 -1.14891 0
M  V30 1843 C 182.691 -4.34261 -0.523043 0
M  V30 1844 C 181.75 -5.04994 -1.47878 0
M  V30 1845 O 180.776 -5.6052 -0.990277 0
M  V30 1846 N 181.978 -5.07795 -2.81291 0
M  V30 1847 H 184.743 -2.92727 0.64272 0
M  V30 1848 H 182.304 -1.54373 0.487924 0
M  V30 1849 H 184.296 -3.63015 -1.78892 0
M  V30 1850 H 182.866 -2.56782 -1.78275 0
M  V30 1851 H 182.086 -3.93088 0.295896 0
M  V30 1852 H 183.374 -5.08728 -0.0858147 0
M  V30 1853 H 182.772 -4.64042 -3.23546 0
M  V30 1854 H 181.329 -5.55721 -3.40614 0
M  V30 1855 N 184.763 -0.387143 -1.52771 0
M  V30 1856 C 185.726 0.436939 -2.24997 0
M  V30 1857 C 186.726 0.991991 -1.26555 0
M  V30 1858 O 187.916 0.874335 -1.50669 0
M  V30 1859 C 185.048 1.61281 -3.00335 0
M  V30 1860 H 186.241 -0.195365 -2.99263 0
M  V30 1861 H 183.794 -0.139218 -1.55679 0
M  V30 1862 H 184.529 2.2826 -2.30364 0
M  V30 1863 H 184.314 1.22154 -3.72587 0
M  V30 1864 H 185.804 2.19629 -3.5518 0
M  V30 1865 N 186.241 1.57166 -0.116904 0
M  V30 1866 C 187.171 2.18222 0.830759 0
M  V30 1867 C 188.152 1.12167 1.27877 0
M  V30 1868 O 189.337 1.40394 1.34176 0
M  V30 1869 C 186.467 2.77996 2.08172 0
M  V30 1870 C 185.421 3.89614 1.77157 0
M  V30 1871 C 184.747 4.36187 3.09265 0
M  V30 1872 C 186.047 5.1181 1.04151 0
M  V30 1873 H 187.741 2.97664 0.321992 0
M  V30 1874 H 185.287 1.4318 0.153434 0
M  V30 1875 H 187.24 3.19366 2.74924 0
M  V30 1876 H 185.964 1.9584 2.6137 0
M  V30 1877 H 184.623 3.48816 1.12796 0
M  V30 1878 H 184.271 3.50893 3.60393 0
M  V30 1879 H 183.971 5.11455 2.89288 0
M  V30 1880 H 185.495 4.80207 3.77139 0
M  V30 1881 H 186.909 5.50214 1.61052 0
M  V30 1882 H 185.306 5.92648 0.942762 0
M  V30 1883 H 186.376 4.84892 0.0279022 0
M  V30 1884 N 187.719 -0.156864 1.56817 0
M  V30 1885 C 188.629 -1.2136 2.00771 0
M  V30 1886 C 189.645 -1.47598 0.921459 0
M  V30 1887 O 190.821 -1.59462 1.2302 0
M  V30 1888 C 187.886 -2.52943 2.37109 0
M  V30 1889 C 186.947 -2.34439 3.59634 0
M  V30 1890 C 186.18 -3.59748 3.94229 0
M  V30 1891 O 186.403 -4.65526 3.29609 0
M  V30 1892 O 185.337 -3.52998 4.8752 0
M  V30 1893 H 189.163 -0.870468 2.90958 0
M  V30 1894 H 186.748 -0.36484 1.44877 0
M  V30 1895 H 188.63 -3.30538 2.61386 0
M  V30 1896 H 187.305 -2.86806 1.5008 0
M  V30 1897 H 186.212 -1.54828 3.40557 0
M  V30 1898 H 187.545 -2.05496 4.4725 0
M  V30 1899 N 189.197 -1.51736 -0.425897 0
M  V30 1900 C 190.446 -1.64201 -1.17136 0
M  V30 1901 C 190.759 -0.369705 -1.92074 0
M  V30 1902 O 191.965 -0.373898 -2.68913 0
M  V30 1903 C 190.421 -2.90035 -2.13091 0
M  V30 1904 C 190.029 -4.24312 -1.43747 0
M  V30 1905 C 191.773 -3.1186 -2.87999 0
M  V30 1906 C 189.68 -5.41285 -2.38253 0
M  V30 1907 H 188.61 -0.611624 -0.440944 0
M  V30 1908 H 191.261 -1.78212 -0.437328 0
M  V30 1909 H 189.643 -2.69684 -2.89977 0
M  V30 1910 H 190.817 -4.55086 -0.723408 0
M  V30 1911 H 189.132 -4.08456 -0.809465 0
M  V30 1912 H 191.729 -3.96427 -3.58817 0
M  V30 1913 H 192.072 -2.25403 -3.49999 0
M  V30 1914 H 192.605 -3.32605 -2.18217 0
M  V30 1915 H 189.344 -6.30037 -1.80925 0
M  V30 1916 H 188.864 -5.14872 -3.0768 0
M  V30 1917 H 190.543 -5.73694 -2.99139 0
M  V30 1918 N 190.675 0.682077 -1.42076 0
M  V30 1919 C 191.915 1.45424 -1.43636 0
M  V30 1920 C 192.279 1.91939 -0.0484001 0
M  V30 1921 O 193.48 2.6873 0.0612514 0
M  V30 1922 C 191.751 2.62427 -2.42625 0
M  V30 1923 S 193.31 3.51379 -2.62827 0
M  V30 1924 H 190.128 0.496779 -0.508657 0
M  V30 1925 H 192.73 0.794645 -1.78621 0
M  V30 1926 H 191.434 2.26481 -3.42249 0
M  V30 1927 H 190.965 3.33266 -2.09039 0
M  V30 1928 H 192.98 4.58141 -1.9058 0
M  V30 1929 N 192.153 1.28127 0.917671 0
M  V30 1930 C 193.43 1.05761 1.64542 0
M  V30 1931 C 193.81 -0.404344 2.07191 0
M  V30 1932 O 193.158 -1.38963 1.81388 0
M  V30 1933 C 193.368 2.02857 2.83989 0
M  V30 1934 C 194.716 2.32786 3.551 0
M  V30 1935 O 195.74 2.0091 2.94132 0
M  V30 1936 O 194.599 2.87169 4.64969 0
M  V30 1937 H 191.693 0.403916 0.721652 0
M  V30 1938 H 194.239 1.39431 0.967322 0
M  V30 1939 H 193.011 3.01407 2.49538 0
M  V30 1940 H 192.634 1.69809 3.59514 0
M  V30 1941 N 193.631 -1.12557 1.10312 0
M  V30 1942 C 194.594 -2.16434 0.75424 0
M  V30 1943 C 195.594 -1.59278 -0.220685 0
M  V30 1944 O 196.784 -1.742 0.00230591 0
M  V30 1945 C 193.916 -3.40699 0.116987 0
M  V30 1946 H 195.109 -2.48811 1.67431 0
M  V30 1947 H 192.662 -1.27542 0.903475 0
M  V30 1948 H 193.397 -3.13921 -0.813877 0
M  V30 1949 H 193.182 -3.83459 0.818613 0
M  V30 1950 H 194.672 -4.17451 -0.111387 0
M  V30 1951 N 195.109 -0.891671 -1.2995 0
M  V30 1952 C 196.039 -0.379797 -2.30391 0
M  V30 1953 C 197.02 0.540919 -1.6127 0
M  V30 1954 O 198.205 0.453352 -1.88834 0
M  V30 1955 C 195.335 0.400654 -3.44981 0
M  V30 1956 C 194.289 -0.428905 -4.25846 0
M  V30 1957 C 193.615 0.478557 -5.32554 0
M  V30 1958 C 194.915 -1.67458 -4.94727 0
M  V30 1959 H 196.609 -1.21914 -2.73454 0
M  V30 1960 H 194.155 -0.587675 -1.31462 0
M  V30 1961 H 196.108 0.769434 -4.14316 0
M  V30 1962 H 194.832 1.27371 -3.0074 0
M  V30 1963 H 193.491 -0.779911 -3.58208 0
M  V30 1964 H 193.139 1.34951 -4.84559 0
M  V30 1965 H 192.839 -0.0727433 -5.87555 0
M  V30 1966 H 194.363 0.843705 -6.04743 0
M  V30 1967 H 195.777 -1.376 -5.56542 0
M  V30 1968 H 194.174 -2.16659 -5.59624 0
M  V30 1969 H 195.244 -2.41518 -4.20473 0
M  V30 1970 N 196.587 1.43421 -0.653314 0
M  V30 1971 C 197.55 2.29182 0.0287951 0
M  V30 1972 C 198.55 1.42213 0.750465 0
M  V30 1973 O 199.74 1.63843 0.591701 0
M  V30 1974 C 196.872 3.24278 1.05151 0
M  V30 1975 H 198.065 2.90985 -0.725786 0
M  V30 1976 H 195.618 1.50702 -0.414545 0
M  V30 1977 H 196.353 2.6737 1.83532 0
M  V30 1978 H 196.138 3.88396 0.537687 0
M  V30 1979 H 197.628 3.88647 1.52786 0
M  V30 1980 N 198.065 0.39524 1.52563 0
M  V30 1981 C 199.481 0.0454682 1.59535 0
M  V30 1982 C 199.681 -1.44056 1.4089 0
M  V30 1983 O 198.737 -2.20579 1.22888 0
M  V30 1984 C 200.05 0.527963 2.96029 0
M  V30 1985 C 201.598 0.484733 3.09224 0
M  V30 1986 C 202.073 0.943512 4.48176 0
M  V30 1987 N 203.564 0.899765 4.54377 0
M  V30 1988 C 204.299 1.22609 5.60138 0
M  V30 1989 N 203.795 1.62319 6.73516 0
M  V30 1990 N 205.588 1.14696 5.50274 0
M  V30 1991 H 197.739 1.36261 1.62931 0
M  V30 1992 H 200.002 0.558887 0.765735 0
M  V30 1993 H 199.708 1.56607 3.14908 0
M  V30 1994 H 199.582 -0.0698056 3.77135 0
M  V30 1995 H 201.969 -0.544298 2.90037 0
M  V30 1996 H 202.05 1.11838 2.30056 0
M  V30 1997 H 201.694 1.9708 4.68104 0
M  V30 1998 H 201.624 0.286817 5.25818 0
M  V30 1999 H 204.115 0.607632 3.72983 0
M  V30 2000 H 204.428 1.85567 7.5019 0
M  V30 2001 H 202.773 1.66211 6.74833 0
M  V30 2002 H 205.964 0.835701 4.6058 0
M  V30 2003 H 206.137 1.40459 6.32594 0
M  V30 2004 N 199.544 -1.57102 0.125237 0
M  V30 2005 C 200.769 -2.0019 -0.542101 0
M  V30 2006 C 201.194 -1.00449 -1.59034 0
M  V30 2007 O 200.552 0.0229423 -1.81285 0
M  V30 2008 C 200.6 -3.42129 -1.13929 0
M  V30 2009 O 199.704 -3.45307 -2.2547 0
M  V30 2010 H 199.045 -0.650171 -0.134812 0
M  V30 2011 H 201.575 -2.03461 0.215553 0
M  V30 2012 H 201.585 -3.80471 -1.4733 0
M  V30 2013 H 200.26 -4.14237 -0.371531 0
M  V30 2014 H 198.837 -3.1879 -1.93462 0
M  V30 2015 N 201.022 0.148545 -1.56898 0
M  V30 2016 C 202.27 0.859717 -1.82902 0
M  V30 2017 C 202.591 1.81775 -0.70588 0
M  V30 2018 O 201.861 1.93994 0.272586 0
M  V30 2019 H 200.441 0.320469 -0.674766 0
M  V30 2020 H 203.103 0.142918 -1.94375 0
M  V30 2021 H 202.199 1.4229 -2.77777 0
M  V30 2022 N 202.5 1.5196 0.417844 0
M  V30 2023 C 203.463 1.74065 1.49111 0
M  V30 2024 C 204.463 0.610537 1.48758 0
M  V30 2025 O 205.653 0.87832 1.50437 0
M  V30 2026 C 202.785 1.81502 2.88565 0
M  V30 2027 H 203.978 2.69869 1.30807 0
M  V30 2028 H 201.531 1.42244 0.647785 0
M  V30 2029 H 202.266 0.875813 3.1225 0
M  V30 2030 H 202.051 2.63651 2.90225 0
M  V30 2031 H 203.541 2.00376 3.66387 0
M  V30 2032 N 203.978 -0.674533 1.42435 0
M  V30 2033 C 205.224 -1.43671 1.43131 0
M  V30 2034 C 205.557 -1.94142 0.0476021 0
M  V30 2035 O 204.832 -1.70924 -0.928188 0
M  V30 2036 C 205.115 -2.63355 2.45594 0
M  V30 2037 C 204.968 -2.18514 3.93156 0
M  V30 2038 C 206.287 -3.65571 2.45043 0
M  V30 2039 H 203.406 -0.521077 0.521198 0
M  V30 2040 H 206.048 -0.766551 1.7385 0
M  V30 2041 H 204.198 -3.2053 2.19528 0
M  V30 2042 H 205.87 -1.66504 4.30202 0
M  V30 2043 H 204.113 -1.50086 4.07009 0
M  V30 2044 H 204.784 -3.04484 4.60428 0
M  V30 2045 H 207.26 -3.18113 2.68223 0
M  V30 2046 H 206.136 -4.46893 3.18713 0
M  V30 2047 H 206.397 -4.16716 1.47649 0
M  V30 2048 N 205.456 -1.28612 -0.910864 0
M  V30 2049 C 206.733 -1.06632 -1.63979 0
M  V30 2050 C 207.113 0.393351 -2.07403 0
M  V30 2051 O 206.461 1.37999 -1.82122 0
M  V30 2052 C 206.671 -2.0436 -2.8291 0
M  V30 2053 C 208.019 -2.34666 -3.5386 0
M  V30 2054 O 209.043 -2.02467 -2.93062 0
M  V30 2055 O 207.902 -2.89631 -4.63439 0
M  V30 2056 H 204.996 -0.407737 -0.7195 0
M  V30 2057 H 207.542 -1.39942 -0.959914 0
M  V30 2058 H 206.314 -3.02727 -2.47936 0
M  V30 2059 H 205.937 -1.71714 -3.58609 0
M  V30 2060 N 206.934 1.1197 -1.10907 0
M  V30 2061 C 208.18 1.8386 -0.855773 0
M  V30 2062 C 208.513 1.84134 0.617103 0
M  V30 2063 O 207.788 1.29041 1.45529 0
M  V30 2064 C 208.071 3.31305 -1.411 0
M  V30 2065 C 207.924 3.39456 -2.9511 0
M  V30 2066 C 209.243 4.2721 -1.05736 0
M  V30 2067 H 206.362 0.667545 -0.312334 0
M  V30 2068 H 209.004 1.31331 -1.37303 0
M  V30 2069 H 207.154 3.76169 -0.97105 0
M  V30 2070 H 208.826 3.03191 -3.47668 0
M  V30 2071 H 207.069 2.79849 -3.31462 0
M  V30 2072 H 207.74 4.43209 -3.29044 0
M  V30 2073 H 210.216 3.90497 -1.43706 0
M  V30 2074 H 209.092 5.28775 -1.47269 0
M  V30 2075 H 209.353 4.42088 0.0325958 0
M  V30 2076 N 208.412 0.89855 1.29475 0
M  V30 2077 C 209.661 0.519863 1.94885 0
M  V30 2078 C 209.974 -0.9383 1.71625 0
M  V30 2079 O 211.18 -1.42445 2.31131 0
M  V30 2080 C 209.636 0.878836 3.49005 0
M  V30 2081 C 209.244 2.35569 3.81066 0
M  V30 2082 C 210.988 0.570004 4.20656 0
M  V30 2083 C 208.895 2.65558 5.28425 0
M  V30 2084 H 207.825 0.190692 0.729488 0
M  V30 2085 H 210.476 1.09539 1.47219 0
M  V30 2086 H 208.858 0.232253 3.95318 0
M  V30 2087 H 210.032 3.04773 3.45616 0
M  V30 2088 H 208.347 2.63343 3.22552 0
M  V30 2089 H 210.944 0.770925 5.29113 0
M  V30 2090 H 211.287 -0.491404 4.1339 0
M  V30 2091 H 211.82 1.17438 3.8007 0
M  V30 2092 H 208.559 3.70493 5.40754 0
M  V30 2093 H 208.079 2.00977 5.65127 0
M  V30 2094 H 209.758 2.51765 5.96006 0
M  V30 2095 N 209.89 -1.43072 0.660911 0
M  V30 2096 C 211.136 -2.0202 0.177708 0
M  V30 2097 C 211.469 -1.52066 -1.20787 0
M  V30 2098 O 210.744 -0.716987 -1.80802 0
M  V30 2099 C 211.027 -3.59561 0.197019 0
M  V30 2100 C 210.88 -4.19727 1.61706 0
M  V30 2101 C 212.199 -4.37664 -0.462396 0
M  V30 2102 H 209.318 -0.734034 0.0660494 0
M  V30 2103 H 211.96 -1.70272 0.843058 0
M  V30 2104 H 210.11 -3.86739 -0.369527 0
M  V30 2105 H 211.782 -4.03553 2.23479 0
M  V30 2106 H 210.025 -3.76084 2.16201 0
M  V30 2107 H 210.696 -5.28834 1.58237 0
M  V30 2108 H 213.172 -4.16095 0.0197215 0
M  V30 2109 H 212.048 -5.47305 -0.418188 0
M  V30 2110 H 212.309 -4.14493 -1.53778 0
M  V30 2111 N 211.368 -0.403325 -1.52352 0
M  V30 2112 C 212.614 0.174605 -2.02047 0
M  V30 2113 C 212.947 1.45282 -1.28867 0
M  V30 2114 O 212.222 1.90483 -0.393257 0
M  V30 2115 C 212.505 0.428238 -3.57545 0
M  V30 2116 C 212.358 -0.866248 -4.4138 0
M  V30 2117 C 213.677 1.21287 -4.23057 0
M  V30 2118 H 210.796 0.0619851 -0.734389 0
M  V30 2119 H 213.438 -0.53565 -1.82293 0
M  V30 2120 H 211.588 1.03327 -3.74507 0
M  V30 2121 H 213.26 -1.50265 -4.3614 0
M  V30 2122 H 211.503 -1.47851 -4.07827 0
M  V30 2123 H 212.174 -0.643249 -5.48239 0
M  V30 2124 H 214.65 0.700703 -4.10158 0
M  V30 2125 H 213.526 1.35909 -5.31808 0
M  V30 2126 H 213.787 2.23193 -3.81625 0
M  V30 2127 N 212.846 1.57033 -0.133567 0
M  V30 2128 C 214.123 1.87256 0.56522 0
M  V30 2129 C 214.503 1.03726 1.83859 0
M  V30 2130 O 213.851 0.120247 2.28183 0
M  V30 2131 C 214.061 3.3865 0.843636 0
M  V30 2132 C 215.409 4.07574 1.19032 0
M  V30 2133 O 216.433 3.43752 0.933429 0
M  V30 2134 O 215.292 5.20259 1.67312 0
M  V30 2135 H 212.386 0.775678 0.286796 0
M  V30 2136 H 214.932 1.68855 -0.169168 0
M  V30 2137 H 213.704 3.91257 -0.0581149 0
M  V30 2138 H 213.327 3.62532 1.63268 0
M  V30 2139 N 214.325 -0.140222 1.56975 0
M  V30 2140 C 215.55 -0.870414 1.88251 0
M  V30 2141 C 215.975 -1.73637 0.723312 0
M  V30 2142 O 215.333 -1.78329 -0.32689 0
M  V30 2143 C 215.381 -1.69737 3.18154 0
M  V30 2144 O 214.485 -2.80229 3.02565 0
M  V30 2145 H 213.826 -0.242025 0.61832 0
M  V30 2146 H 216.356 -0.128999 2.04193 0
M  V30 2147 H 216.366 -2.09099 3.50345 0
M  V30 2148 H 215.041 -1.06152 4.02125 0
M  V30 2149 H 213.618 -2.44224 2.81796 0
M  V30 2150 N 215.803 -1.52179 -0.40978 0
M  V30 2151 C 217.049 -1.66453 -1.15851 0
M  V30 2152 C 217.382 -0.392972 -1.90182 0
M  V30 2153 O 216.657 0.608579 -1.84734 0
M  V30 2154 C 216.94 -2.88612 -2.15349 0
M  V30 2155 C 216.793 -4.25815 -1.44918 0
M  V30 2156 C 218.112 -3.06294 -3.16026 0
M  V30 2157 H 215.231 -0.60575 -0.419805 0
M  V30 2158 H 217.873 -1.84732 -0.444314 0
M  V30 2159 H 216.023 -2.73158 -2.76255 0
M  V30 2160 H 217.695 -4.52995 -0.871365 0
M  V30 2161 H 215.938 -4.27247 -0.751159 0
M  V30 2162 H 216.609 -5.07337 -2.17516 0
M  V30 2163 H 219.085 -3.20641 -2.65195 0
M  V30 2164 H 217.961 -3.93283 -3.8291 0
M  V30 2165 H 218.222 -2.19579 -3.83715 0
M  V30 2166 N 217.281 0.66697 -1.42791 0
M  V30 2167 C 218.244 1.76211 -1.46568 0
M  V30 2168 C 219.244 1.56896 -0.352196 0
M  V30 2169 O 220.434 1.63044 -0.613364 0
M  V30 2170 C 217.566 3.14935 -1.30494 0
M  V30 2171 H 218.759 1.74247 -2.44086 0
M  V30 2172 H 216.312 0.877342 -1.29354 0
M  V30 2173 H 217.047 3.2252 -0.339301 0
M  V30 2174 H 216.832 3.30359 -2.11199 0
M  V30 2175 H 218.322 3.94821 -1.36038 0
M  V30 2176 N 218.759 1.29093 0.90403 0
M  V30 2177 C 219.722 1.1386 1.98919 0
M  V30 2178 C 220.722 0.0753457 1.60623 0
M  V30 2179 O 221.912 0.321931 1.71199 0
M  V30 2180 C 219.044 0.740198 3.32767 0
M  V30 2181 H 220.237 2.10246 2.13861 0
M  V30 2182 H 217.79 1.12218 1.08797 0
M  V30 2183 H 218.525 -0.223997 3.23525 0
M  V30 2184 H 218.31 1.50838 3.61926 0
M  V30 2185 H 219.8 0.656546 4.12407 0
M  V30 2186 N 220.237 -1.11381 1.11499 0
M  V30 2187 C 221.167 -2.19509 0.796125 0
M  V30 2188 C 222.148 -1.68458 -0.235796 0
M  V30 2189 O 223.333 -1.93947 -0.0991344 0
M  V30 2190 C 220.463 -3.46475 0.239205 0
M  V30 2191 C 219.417 -4.10744 1.20307 0
M  V30 2192 C 218.743 -5.32293 0.50683 0
M  V30 2193 C 220.043 -4.55597 2.55399 0
M  V30 2194 H 221.737 -2.46439 1.70024 0
M  V30 2195 H 219.283 -1.18446 0.818935 0
M  V30 2196 H 221.236 -4.214 0.00392006 0
M  V30 2197 H 219.96 -3.19006 -0.700206 0
M  V30 2198 H 218.619 -3.37813 1.42399 0
M  V30 2199 H 218.267 -5.01095 -0.437408 0
M  V30 2200 H 217.967 -5.76243 1.1497 0
M  V30 2201 H 219.491 -6.09956 0.280351 0
M  V30 2202 H 220.905 -5.21841 2.37391 0
M  V30 2203 H 219.302 -5.10363 3.15673 0
M  V30 2204 H 220.372 -3.69013 3.14575 0
M  V30 2205 N 221.715 -0.905404 -1.28997 0
M  V30 2206 C 222.943 -0.549846 -1.9946 0
M  V30 2207 C 223.358 0.866834 -1.67724 0
M  V30 2208 O 222.715 1.57298 -0.925404 0
M  V30 2209 C 222.766 -0.739387 -3.53858 0
M  V30 2210 O 222.487 -2.10031 -3.84472 0
M  V30 2211 C 223.988 -0.389541 -4.41585 0
M  V30 2212 H 221.208 -0.210429 -0.637151 0
M  V30 2213 H 223.752 -1.21632 -1.64396 0
M  V30 2214 H 221.907 -0.120023 -3.87214 0
M  V30 2215 H 222.321 -2.13385 -4.79132 0
M  V30 2216 H 223.795 -0.572972 -5.49018 0
M  V30 2217 H 224.272 0.673756 -4.34001 0
M  V30 2218 H 224.878 -0.986089 -4.1371 0
M  V30 2219 N 223.193 1.4272 -0.668489 0
M  V30 2220 C 224.604 1.84793 -0.266151 0
M  V30 2221 C 224.955 1.55959 1.19043 0
M  V30 2222 O 224.08 1.01622 1.91055 0
M  V30 2223 C 224.675 3.35436 -0.476271 0
M  V30 2224 C 223.234 3.76182 -0.128113 0
M  V30 2225 C 222.381 2.66344 -0.771777 0
M  V30 2226 H 225.332 1.32656 -0.871098 0
M  V30 2227 H 225.353 3.79515 0.273561 0
M  V30 2228 H 224.865 3.5639 -1.53647 0
M  V30 2229 H 222.966 3.60836 0.928891 0
M  V30 2230 H 223.079 4.75766 -0.564231 0
M  V30 2231 H 221.443 2.53885 -0.203652 0
M  V30 2232 H 222.226 2.90123 -1.83531 0
M  V30 2233 N 224.671 0.411399 1.52136 0
M  V30 2234 C 225.618 -0.412975 2.27075 0
M  V30 2235 C 226.588 -1.03912 1.29582 0
M  V30 2236 O 227.773 -1.06296 1.58448 0
M  V30 2237 C 224.913 -1.52247 3.09701 0
M  V30 2238 C 224.026 -0.917021 4.22155 0
M  V30 2239 C 223.161 -1.9994 4.92135 0
M  V30 2240 C 222.2 -1.37101 5.96548 0
M  V30 2241 N 221.337 -2.39364 6.60038 0
M  V30 2242 H 226.177 0.232499 2.97092 0
M  V30 2243 H 223.714 0.126496 1.46555 0
M  V30 2244 H 225.672 -2.17674 3.55913 0
M  V30 2245 H 224.302 -2.13794 2.41851 0
M  V30 2246 H 223.354 -0.151742 3.80097 0
M  V30 2247 H 224.666 -0.418006 4.97045 0
M  V30 2248 H 223.82 -2.73088 5.41763 0
M  V30 2249 H 222.559 -2.53208 4.16818 0
M  V30 2250 H 221.564 -0.624873 5.46237 0
M  V30 2251 H 222.789 -0.845998 6.7381 0
M  V30 2252 H 220.735 -2.91759 5.87548 0
M  V30 2253 H 220.652 -1.9428 7.3061 0
M  V30 2254 H 221.92 -3.12074 7.14304 0
M  V30 2255 N 226.149 -1.5696 0.141893 0
M  V30 2256 C 227.112 -2.15316 -0.785587 0
M  V30 2257 C 228.112 -1.09366 -1.1788 0
M  V30 2258 O 229.302 -1.35031 -1.10056 0
M  V30 2259 C 226.434 -2.71211 -2.06537 0
M  V30 2260 H 227.627 -2.98608 -0.278041 0
M  V30 2261 H 225.18 -1.5593 -0.107519 0
M  V30 2262 H 225.915 -1.91571 -2.6167 0
M  V30 2263 H 225.7 -3.4872 -1.79268 0
M  V30 2264 H 227.19 -3.16189 -2.72789 0
M  V30 2265 N 227.627 0.131896 -1.57047 0
M  V30 2266 C 228.537 1.1815 -2.02676 0
M  V30 2267 C 229.553 1.46113 -0.944824 0
M  V30 2268 O 230.729 1.57485 -1.25541 0
M  V30 2269 C 227.794 2.49139 -2.41103 0
M  V30 2270 C 226.855 2.28688 -3.63318 0
M  V30 2271 C 226.088 3.53431 -3.99903 0
M  V30 2272 O 226.311 4.60223 -3.36973 0
M  V30 2273 O 225.245 3.45198 -4.93074 0
M  V30 2274 H 229.071 0.824069 -2.92306 0
M  V30 2275 H 226.656 0.341745 -1.45439 0
M  V30 2276 H 228.538 3.26338 -2.66611 0
M  V30 2277 H 227.213 2.84382 -1.54624 0
M  V30 2278 H 226.12 1.4939 -3.42977 0
M  V30 2279 H 227.453 1.98355 -4.50462 0
M  V30 2280 N 229.106 1.52395 0.401703 0
M  V30 2281 C 230.355 1.66044 1.14509 0
M  V30 2282 C 230.668 0.400216 1.91462 0
M  V30 2283 O 231.874 0.416632 2.68284 0
M  V30 2284 C 230.33 2.93388 2.0845 0
M  V30 2285 C 229.938 4.26545 1.36978 0
M  V30 2286 C 231.682 3.16402 2.83001 0
M  V30 2287 C 229.589 5.45007 2.29611 0
M  V30 2288 H 228.519 0.618562 0.431158 0
M  V30 2289 H 231.17 1.78886 0.40892 0
M  V30 2290 H 229.552 2.74263 2.8565 0
M  V30 2291 H 230.726 4.56179 0.650916 0
M  V30 2292 H 229.041 4.09692 0.74438 0
M  V30 2293 H 231.638 4.02085 3.52465 0
M  V30 2294 H 231.981 2.30943 3.46368 0
M  V30 2295 H 232.514 3.36034 2.12898 0
M  V30 2296 H 229.253 6.32835 1.70879 0
M  V30 2297 H 228.773 5.19702 2.9945 0
M  V30 2298 H 230.452 5.7838 2.89974 0
M  V30 2299 N 230.584 -0.659388 1.43143 0
M  V30 2300 C 231.494 -1.80167 1.50256 0
M  V30 2301 C 232.51 -1.69571 0.390106 0
M  V30 2302 O 233.686 -1.90849 0.643319 0
M  V30 2303 C 230.751 -3.16409 1.41725 0
M  V30 2304 C 229.812 -3.38848 2.63591 0
M  V30 2305 C 229.045 -4.68591 2.55458 0
M  V30 2306 O 229.268 -5.47532 1.59891 0
M  V30 2307 O 228.202 -4.92614 3.45854 0
M  V30 2308 H 232.028 -1.77121 2.46702 0
M  V30 2309 H 229.613 -0.817092 1.25076 0
M  V30 2310 H 231.495 -3.9768 1.39387 0
M  V30 2311 H 230.17 -3.20059 0.484118 0
M  V30 2312 H 229.077 -2.57366 2.71502 0
M  V30 2313 H 230.41 -3.4004 3.55856 0
M  V30 2314 N 232.062 -1.29571 -0.897171 0
M  V30 2315 C 233.31 -1.17456 -1.64464 0
M  V30 2316 C 233.631 0.273698 -1.9307 0
M  V30 2317 O 232.901 1.18684 -1.55855 0
M  V30 2318 H 231.481 -0.431706 -0.609622 0
M  V30 2319 H 234.143 -1.62531 -1.07562 0
M  V30 2320 H 233.239 -1.72648 -2.59998 0
M  V30 2321 N 233.54 1.10788 -1.12088 0
M  V30 2322 C 234.45 2.20599 -0.798338 0
M  V30 2323 C 235.466 1.72712 0.21135 0
M  V30 2324 O 236.642 2.01348 0.0458477 0
M  V30 2325 C 233.707 3.45771 -0.253674 0
M  V30 2326 C 232.768 4.08411 -1.32283 0
M  V30 2327 C 232.001 5.27608 -0.80406 0
M  V30 2328 O 232.224 5.69241 0.363478 0
M  V30 2329 O 231.158 5.8101 -1.57198 0
M  V30 2330 H 234.984 2.50614 -1.7154 0
M  V30 2331 H 232.569 1.19454 -0.897275 0
M  V30 2332 H 234.451 4.21376 0.0453691 0
M  V30 2333 H 233.126 3.1739 0.636005 0
M  V30 2334 H 232.033 3.34507 -1.67499 0
M  V30 2335 H 233.366 4.40986 -2.18614 0
M  V30 2336 N 235.018 0.912232 1.28515 0
M  V30 2337 C 236.267 0.540504 1.94323 0
M  V30 2338 C 236.58 -0.920044 1.72611 0
M  V30 2339 O 237.786 -1.39986 2.32629 0
M  V30 2340 C 236.242 0.915803 3.48053 0
M  V30 2341 C 235.85 2.39598 3.78546 0
M  V30 2342 C 237.594 0.614588 4.20027 0
M  V30 2343 C 235.501 2.71148 5.25578 0
M  V30 2344 H 234.431 0.198418 0.727424 0
M  V30 2345 H 237.082 1.11094 1.46049 0
M  V30 2346 H 235.464 0.274168 3.9505 0
M  V30 2347 H 236.638 3.08422 3.42364 0
M  V30 2348 H 234.953 2.66749 3.1974 0
M  V30 2349 H 237.55 0.827002 5.28266 0
M  V30 2350 H 237.893 -0.447531 4.13887 0
M  V30 2351 H 238.426 1.21462 3.78803 0
M  V30 2352 H 235.165 3.76207 5.36794 0
M  V30 2353 H 234.685 2.0696 5.62963 0
M  V30 2354 H 236.364 2.58072 5.93302 0
M  V30 2355 N 236.496 -1.42363 0.676048 0
M  V30 2356 C 237.744 -2.01123 0.198437 0
M  V30 2357 C 238.065 -1.53731 -1.19966 0
M  V30 2358 O 237.335 -0.759518 -1.80577 0
M  V30 2359 H 235.915 -0.743678 0.0703721 0
M  V30 2360 H 238.577 -1.74263 0.872837 0
M  V30 2361 H 237.673 -3.11454 0.200686 0
M  V30 2362 N 237.974 -0.419461 -1.51915 0
M  V30 2363 C 239.251 0.211999 -1.94448 0
M  V30 2364 C 239.631 1.61703 -1.35703 0
M  V30 2365 O 238.979 2.22102 -0.536931 0
M  V30 2366 C 239.189 0.207872 -3.4838 0
M  V30 2367 C 240.537 0.422192 -4.22496 0
M  V30 2368 O 241.561 0.286778 -3.55044 0
M  V30 2369 O 240.42 0.690009 -5.42126 0
M  V30 2370 H 237.514 0.139586 -0.815135 0
M  V30 2371 H 240.06 -0.476151 -1.62883 0
M  V30 2372 H 238.832 -0.775102 -3.83546 0
M  V30 2373 H 238.455 0.939688 -3.86336 0
M  V30 2374 N 239.452 1.56882 -0.150215 0
M  V30 2375 C 240.677 2.01027 0.510184 0
M  V30 2376 C 241.102 1.02966 1.57415 0
M  V30 2377 O 240.46 0.00590158 1.81299 0
M  V30 2378 C 240.508 3.43899 1.08472 0
M  V30 2379 O 239.612 3.4885 2.19948 0
M  V30 2380 H 238.953 0.652233 0.124451 0
M  V30 2381 H 241.483 2.03093 -0.247894 0
M  V30 2382 H 241.493 3.82766 1.41259 0
M  V30 2383 H 240.168 4.14776 0.305582 0
M  V30 2384 H 238.745 3.21827 1.88366 0
M  V30 2385 N 240.93 -0.123565 1.57115 0
M  V30 2386 C 241.88 -1.1575 1.96433 0
M  V30 2387 C 242.864 -1.37313 0.838686 0
M  V30 2388 O 244.056 -1.38482 1.10235 0
M  V30 2389 C 241.185 -2.48526 2.36833 0
M  V30 2390 C 240.271 -2.30457 3.5602 0
M  V30 2391 N 240.662 -1.8219 4.71848 0
M  V30 2392 C 238.96 -2.61129 3.61563 0
M  V30 2393 C 239.661 -1.77721 5.53886 0
M  V30 2394 N 238.637 -2.21899 4.96248 0
M  V30 2395 H 242.439 -0.776797 2.83449 0
M  V30 2396 H 239.953 -0.331364 1.58983 0
M  V30 2397 H 241.95 -3.233 2.63216 0
M  V30 2398 H 240.61 -2.87358 1.5118 0
M  V30 2399 H 241.621 -1.51805 4.95152 0
M  V30 2400 H 238.298 -3.03678 2.86507 0
M  V30 2401 H 239.688 -1.41697 6.56789 0
M  V30 2402 N 242.408 -1.52605 -0.393616 0
M  V30 2403 C 243.341 -1.71798 -1.50202 0
M  V30 2404 C 244.319 -0.565743 -1.52441 0
M  V30 2405 O 245.503 -0.794987 -1.70916 0
M  V30 2406 C 242.63 -1.7714 -2.88685 0
M  V30 2407 C 241.676 -2.98845 -3.04292 0
M  V30 2408 S 242.509 -4.58909 -2.75976 0
M  V30 2409 C 243.665 -4.6706 -4.1666 0
M  V30 2410 H 243.898 -2.65542 -1.33696 0
M  V30 2411 H 241.431 -1.42839 -0.586195 0
M  V30 2412 H 243.389 -1.80903 -3.68489 0
M  V30 2413 H 242.05 -0.844969 -3.02521 0
M  V30 2414 H 241.243 -2.99111 -4.05646 0
M  V30 2415 H 240.845 -2.9305 -2.32374 0
M  V30 2416 H 243.137 -4.45391 -5.10523 0
M  V30 2417 H 244.08 -5.6905 -4.21412 0
M  V30 2418 H 244.488 -3.95944 -4.02354 0
M  V30 2419 N 243.887 0.651787 -1.4349 0
M  V30 2420 C 245.135 1.40888 -1.44897 0
M  V30 2421 C 245.456 1.94856 -0.0749086 0
M  V30 2422 O 244.726 1.74518 0.889956 0
M  V30 2423 H 243.306 0.522887 -0.533478 0
M  V30 2424 H 245.968 0.768609 -1.79104 0
M  V30 2425 H 245.064 2.25052 -2.16236 0
M  V30 2426 N 245.365 1.30045 0.890287 0
M  V30 2427 C 246.295 1.18541 2.01172 0
M  V30 2428 C 247.276 0.0773356 1.69924 0
M  V30 2429 O 248.461 0.25845 1.92473 0
M  V30 2430 C 245.591 0.870941 3.36202 0
M  V30 2431 C 244.545 1.93637 3.81692 0
M  V30 2432 C 243.871 1.475 5.13953 0
M  V30 2433 C 245.171 3.34666 4.00994 0
M  V30 2434 H 246.865 2.12359 2.11054 0
M  V30 2435 H 244.411 1.02238 1.01407 0
M  V30 2436 H 246.364 0.777141 4.14172 0
M  V30 2437 H 245.088 -0.102926 3.26438 0
M  V30 2438 H 243.747 2.01972 3.05946 0
M  V30 2439 H 243.395 0.489551 5.00612 0
M  V30 2440 H 243.095 2.1876 5.4536 0
M  V30 2441 H 244.619 1.39489 5.94454 0
M  V30 2442 H 246.033 3.2912 4.69417 0
M  V30 2443 H 244.43 4.03966 4.43769 0
M  V30 2444 H 245.5 3.76949 3.05021 0
M  V30 2445 N 246.843 -1.10192 1.12674 0
M  V30 2446 C 247.806 -2.14786 0.799979 0
M  V30 2447 C 248.806 -1.59711 -0.18685 0
M  V30 2448 O 249.996 -1.74156 0.0392558 0
M  V30 2449 C 247.128 -3.40374 0.189228 0
M  V30 2450 H 248.321 -2.45203 1.72671 0
M  V30 2451 H 245.874 -1.25597 0.930326 0
M  V30 2452 H 246.609 -3.15577 -0.747107 0
M  V30 2453 H 246.394 -3.81637 0.899766 0
M  V30 2454 H 247.884 -4.17594 -0.0228143 0
M  V30 2455 N 248.321 -0.919034 -1.28029 0
M  V30 2456 C 249.284 -0.416182 -2.2539 0
M  V30 2457 C 250.284 0.460438 -1.54067 0
M  V30 2458 O 251.474 0.262744 -1.72207 0
M  V30 2459 C 248.606 0.402707 -3.38513 0
M  V30 2460 H 249.799 -1.27629 -2.71387 0
M  V30 2461 H 247.352 -0.698919 -1.39803 0
M  V30 2462 H 248.087 1.282 -2.97885 0
M  V30 2463 H 247.872 -0.225698 -3.9145 0
M  V30 2464 H 249.362 0.745191 -4.10897 0
M  V30 2465 N 249.799 1.42003 -0.683588 0
M  V30 2466 C 251.215 1.55625 -0.353976 0
M  V30 2467 C 251.415 1.66151 1.14 0
M  V30 2468 O 250.471 1.63329 1.92561 0
M  V30 2469 C 251.784 2.80171 -1.092 0
M  V30 2470 C 253.332 2.93954 -1.07518 0
M  V30 2471 C 253.807 4.21372 -1.79471 0
M  V30 2472 N 255.298 4.28303 -1.76381 0
M  V30 2473 C 256.033 5.25729 -2.28904 0
M  V30 2474 N 255.529 6.29254 -2.89846 0
M  V30 2475 N 257.322 5.17586 -2.19228 0
M  V30 2476 H 249.473 1.33415 -1.6527 0
M  V30 2477 H 251.736 0.64282 -0.696769 0
M  V30 2478 H 251.442 2.78561 -2.14701 0
M  V30 2479 H 251.316 3.7133 -0.662862 0
M  V30 2480 H 253.703 2.95086 -0.028475 0
M  V30 2481 H 253.784 2.04002 -1.54328 0
M  V30 2482 H 253.428 4.21001 -2.84114 0
M  V30 2483 H 253.358 5.10275 -1.30104 0
M  V30 2484 H 255.849 3.54119 -1.31939 0
M  V30 2485 H 256.162 6.99964 -3.27522 0
M  V30 2486 H 254.507 6.29791 -2.93919 0
M  V30 2487 H 257.698 4.35631 -1.71299 0
M  V30 2488 H 257.871 5.93348 -2.60466 0
M  V30 2489 N 251.277 0.427512 1.51691 0
M  V30 2490 C 252.21 -0.433876 2.24037 0
M  V30 2491 C 253.188 -1.03287 1.25581 0
M  V30 2492 O 254.372 -1.07722 1.54688 0
M  V30 2493 C 251.499 -1.60385 2.98319 0
M  V30 2494 C 250.545 -1.12648 4.11355 0
M  V30 2495 S 251.378 -0.076543 5.35445 0
M  V30 2496 C 252.534 -1.25141 6.13262 0
M  V30 2497 H 252.767 0.180367 2.96752 0
M  V30 2498 H 250.3 0.211946 1.52938 0
M  V30 2499 H 252.258 -2.27462 3.41718 0
M  V30 2500 H 250.919 -2.18948 2.25213 0
M  V30 2501 H 250.112 -2.0011 4.62571 0
M  V30 2502 H 249.714 -0.534088 3.70167 0
M  V30 2503 H 252.006 -2.17162 6.41753 0
M  V30 2504 H 252.949 -0.779411 7.03797 0
M  V30 2505 H 253.357 -1.48553 5.44603 0
M  V30 2506 N 252.755 -1.56801 0.158532 0
M  V30 2507 C 253.688 -2.13148 -0.815065 0
M  V30 2508 C 254.666 -1.0581 -1.23462 0
M  V30 2509 O 255.85 -1.3371 -1.32868 0
M  V30 2510 C 252.977 -2.6606 -2.09594 0
M  V30 2511 C 252.023 -3.85651 -1.82141 0
M  V30 2512 S 252.856 -5.26041 -1.00207 0
M  V30 2513 C 254.012 -5.8235 -2.29389 0
M  V30 2514 H 254.245 -2.95396 -0.335937 0
M  V30 2515 H 251.778 -1.54299 -0.0559391 0
M  V30 2516 H 253.736 -2.97195 -2.8317 0
M  V30 2517 H 252.397 -1.83921 -2.54621 0
M  V30 2518 H 251.59 -4.20958 -2.77147 0
M  V30 2519 H 251.192 -3.55338 -1.16667 0
M  V30 2520 H 253.484 -5.94485 -3.24952 0
M  V30 2521 H 254.427 -6.79688 -1.9857 0
M  V30 2522 H 254.835 -5.10675 -2.40564 0
M  V30 2523 N 254.233 0.115231 -1.57178 0
M  V30 2524 C 255.458 0.840354 -1.89612 0
M  V30 2525 C 255.883 1.72464 -0.750845 0
M  V30 2526 O 255.241 1.78826 0.298478 0
M  V30 2527 C 255.289 1.64654 -3.20814 0
M  V30 2528 O 254.393 2.7538 -3.06985 0
M  V30 2529 H 253.734 0.232158 -0.622092 0
M  V30 2530 H 256.264 0.0964977 -2.04372 0
M  V30 2531 H 256.274 2.03499 -3.53627 0
M  V30 2532 H 254.949 0.997416 -4.03763 0
M  V30 2533 H 253.526 2.3971 -2.85646 0
M  V30 2534 N 255.711 1.52812 0.385517 0
M  V30 2535 C 256.643 1.74096 1.49074 0
M  V30 2536 C 257.656 0.621462 1.50472 0
M  V30 2537 O 258.845 0.897245 1.54311 0
M  V30 2538 C 255.945 1.78774 2.87911 0
M  V30 2539 C 255.118 3.08134 3.10439 0
M  V30 2540 C 254.177 3.04313 4.29278 0
M  V30 2541 O 253.203 3.78168 4.25415 0
M  V30 2542 N 254.405 2.23741 5.35649 0
M  V30 2543 H 257.17 2.69455 1.31202 0
M  V30 2544 H 254.731 1.51343 0.575065 0
M  V30 2545 H 256.723 1.73721 3.65518 0
M  V30 2546 H 255.293 0.907869 2.99126 0
M  V30 2547 H 254.513 3.26649 2.20667 0
M  V30 2548 H 255.801 3.93662 3.22347 0
M  V30 2549 H 255.199 1.63211 5.41645 0
M  V30 2550 H 253.756 2.24524 6.11909 0
M  V30 2551 N 257.189 -0.644168 1.43834 0
M  V30 2552 C 258.152 -1.73857 1.49353 0
M  V30 2553 C 259.152 -1.56315 0.377112 0
M  V30 2554 O 260.342 -1.62048 0.639226 0
M  V30 2555 C 257.474 -3.12819 1.35488 0
M  V30 2556 H 258.667 -1.70342 2.46827 0
M  V30 2557 H 256.22 -0.856652 1.30733 0
M  V30 2558 H 256.955 -3.2194 0.390569 0
M  V30 2559 H 256.74 -3.26958 2.16428 0
M  V30 2560 H 258.23 -3.92606 1.42302 0
M  V30 2561 N 258.668 -1.30515 -0.883378 0
M  V30 2562 C 259.601 -1.11359 -1.99184 0
M  V30 2563 C 260.579 -0.0207858 -1.62587 0
M  V30 2564 O 261.763 -0.174646 -1.87689 0
M  V30 2565 C 258.89 -0.69871 -3.31415 0
M  V30 2566 C 257.936 -1.79261 -3.86998 0
M  V30 2567 S 258.769 -3.39536 -4.14096 0
M  V30 2568 C 259.925 -2.99954 -5.49344 0
M  V30 2569 H 260.158 -2.052 -2.15128 0
M  V30 2570 H 257.691 -1.14847 -1.03196 0
M  V30 2571 H 259.649 -0.466075 -4.07846 0
M  V30 2572 H 258.31 0.220368 -3.13326 0
M  V30 2573 H 257.503 -1.45464 -4.82552 0
M  V30 2574 H 257.105 -1.97961 -3.17313 0
M  V30 2575 H 259.397 -2.48013 -6.30473 0
M  V30 2576 H 260.34 -3.9442 -5.8808 0
M  V30 2577 H 260.748 -2.37775 -5.1198 0
M  V30 2578 N 260.146 1.09593 -1.13257 0
M  V30 2579 C 261.562 1.33775 -0.870423 0
M  V30 2580 C 261.762 1.95327 0.494926 0
M  V30 2581 O 260.818 2.19853 1.2418 0
M  V30 2582 C 262.131 2.25106 -1.99369 0
M  V30 2583 C 263.679 2.3862 -2.02558 0
M  V30 2584 C 264.154 3.33285 -3.14142 0
M  V30 2585 N 265.645 3.40857 -3.13641 0
M  V30 2586 C 266.38 4.14101 -3.96621 0
M  V30 2587 N 265.876 4.90157 -4.8961 0
M  V30 2588 N 267.669 4.09808 -3.84726 0
M  V30 2589 H 259.82 0.680136 -2.01216 0
M  V30 2590 H 262.083 0.362133 -0.876107 0
M  V30 2591 H 261.789 1.87103 -2.97801 0
M  V30 2592 H 261.663 3.25481 -1.90635 0
M  V30 2593 H 264.05 2.75887 -1.0474 0
M  V30 2594 H 264.131 1.38028 -2.15364 0
M  V30 2595 H 263.775 2.96741 -4.12198 0
M  V30 2596 H 263.705 4.33776 -2.98574 0
M  V30 2597 H 266.196 2.86624 -2.46282 0
M  V30 2598 H 266.509 5.4347 -5.49418 0
M  V30 2599 H 264.854 4.89251 -4.93617 0
M  V30 2600 H 268.045 3.4949 -3.11408 0
M  V30 2601 H 268.218 4.66629 -4.49623 0
M  V30 2602 N 261.624 0.925811 1.2754 0
M  V30 2603 C 262.571 0.422045 2.26908 0
M  V30 2604 C 263.541 -0.510029 1.58076 0
M  V30 2605 O 264.726 -0.429599 1.85901 0
M  V30 2606 C 261.866 -0.320837 3.43605 0
M  V30 2607 C 260.979 0.64513 4.27156 0
M  V30 2608 C 260.114 -0.117405 5.3107 0
M  V30 2609 C 259.153 0.841391 6.0629 0
M  V30 2610 N 258.29 0.111604 7.02011 0
M  V30 2611 H 263.13 1.27441 2.69375 0
M  V30 2612 H 260.667 0.639697 1.32462 0
M  V30 2613 H 262.625 -0.76785 4.10073 0
M  V30 2614 H 261.255 -1.13745 3.02096 0
M  V30 2615 H 260.307 1.21067 3.6062 0
M  V30 2616 H 261.619 1.37797 4.79389 0
M  V30 2617 H 260.773 -0.624422 6.03478 0
M  V30 2618 H 259.512 -0.883219 4.79636 0
M  V30 2619 H 258.517 1.35967 5.32722 0
M  V30 2620 H 259.742 1.60696 6.59813 0
M  V30 2621 H 257.688 -0.635999 6.5291 0
M  V30 2622 H 257.605 0.784044 7.51923 0
M  V30 2623 H 258.873 -0.374823 7.78598 0
M  V30 2624 N 263.102 -1.41638 0.69111 0
M  V30 2625 C 264.032 -2.3347 0.037248 0
M  V30 2626 C 265.013 -1.51575 -0.771947 0
M  V30 2627 O 266.198 -1.80126 -0.72582 0
M  V30 2628 C 263.328 -3.35354 -0.903064 0
M  V30 2629 C 262.282 -4.27526 -0.201288 0
M  V30 2630 C 261.608 -5.19747 -1.25565 0
M  V30 2631 C 262.908 -5.13959 0.929689 0
M  V30 2632 H 264.602 -2.88397 0.804227 0
M  V30 2633 H 262.148 -1.38669 0.388189 0
M  V30 2634 H 264.101 -3.98519 -1.36969 0
M  V30 2635 H 262.825 -2.78767 -1.70166 0
M  V30 2636 H 261.484 -3.65779 0.245265 0
M  V30 2637 H 261.132 -4.59479 -2.04666 0
M  V30 2638 H 260.832 -5.8225 -0.791128 0
M  V30 2639 H 262.356 -5.85789 -1.72288 0
M  V30 2640 H 263.77 -5.70718 0.543546 0
M  V30 2641 H 262.167 -5.85379 1.32103 0
M  V30 2642 H 263.237 -4.51389 1.77133 0
M  V30 2643 N 264.58 -0.43555 -1.51462 0
M  V30 2644 C 265.543 0.365137 -2.26273 0
M  V30 2645 C 266.543 0.951227 -1.29647 0
M  V30 2646 O 267.733 0.825958 -1.53374 0
M  V30 2647 C 264.865 1.51645 -3.05314 0
M  V30 2648 H 266.058 -0.290474 -2.9849 0
M  V30 2649 H 263.611 -0.188676 -1.55157 0
M  V30 2650 H 264.346 2.20816 -2.3751 0
M  V30 2651 H 264.131 1.10238 -3.76284 0
M  V30 2652 H 265.621 2.08218 -3.61987 0
M  V30 2653 N 266.058 1.56714 -0.166846 0
M  V30 2654 C 267.306 1.96358 0.478305 0
M  V30 2655 C 267.627 1.0537 1.6408 0
M  V30 2656 O 266.897 0.119154 1.95537 0
M  V30 2657 H 265.477 0.725065 0.179692 0
M  V30 2658 H 268.139 1.93329 -0.246985 0
M  V30 2659 H 267.235 3.00547 0.841292 0
M  V30 2660 N 267.536 -0.106894 1.57237 0
M  V30 2661 C 268.484 -1.14944 2.02215 0
M  V30 2662 C 269.478 -1.42167 0.92114 0
M  V30 2663 O 270.684 -1.41987 1.10634 0
M  V30 2664 H 267.059 -0.387841 0.64427 0
M  V30 2665 H 269.03 -0.743683 2.88984 0
M  V30 2666 C 267.779 -2.4647 2.4525 0
M  V30 2667 H 267.102 -2.26363 3.29545 0
M  V30 2668 H 268.542 -3.17948 2.80508 0
M  V30 2669 C 267.001 -3.09921 1.321 0
M  V30 2670 O 267.531 -3.9651 0.643622 0
M  V30 2671 N 265.737 -2.69986 1.07497 0
M  V30 2672 H 265.284 -1.99667 1.62761 0
M  V30 2673 H 265.242 -3.12769 0.319876 0
M  V30 2674 N 269.014 -1.53014 -0.377408 0
M  V30 2675 C 269.944 -1.81589 -1.46791 0
M  V30 2676 C 270.925 -0.668622 -1.56408 0
M  V30 2677 O 272.11 -0.917337 -1.71168 0
M  V30 2678 C 269.24 -1.99519 -2.8427 0
M  V30 2679 C 268.194 -3.15249 -2.89486 0
M  V30 2680 C 267.52 -3.18451 -4.29527 0
M  V30 2681 C 268.82 -4.54084 -2.58079 0
M  V30 2682 H 270.514 -2.7291 -1.23127 0
M  V30 2683 H 268.06 -1.31319 -0.590883 0
M  V30 2684 H 270.013 -2.18092 -3.60575 0
M  V30 2685 H 268.737 -1.04897 -3.09296 0
M  V30 2686 H 267.396 -2.96477 -2.15631 0
M  V30 2687 H 267.044 -2.2149 -4.5161 0
M  V30 2688 H 266.744 -3.962 -4.33934 0
M  V30 2689 H 268.268 -3.39193 -5.07721 0
M  V30 2690 H 269.682 -4.72899 -3.24098 0
M  V30 2691 H 268.079 -5.33987 -2.7382 0
M  V30 2692 H 269.149 -4.60006 -1.53372 0
M  V30 2693 N 270.492 0.636531 -1.44174 0
M  V30 2694 C 271.439 1.74875 -1.50624 0
M  V30 2695 C 272.409 1.62275 -0.35442 0
M  V30 2696 O 273.594 1.82276 -0.563908 0
M  V30 2697 C 270.734 3.13102 -1.45125 0
M  V30 2698 C 269.847 3.36717 -2.7064 0
M  V30 2699 C 268.982 4.64885 -2.57013 0
M  V30 2700 C 268.021 4.8166 -3.77717 0
M  V30 2701 N 267.158 6.01101 -3.62798 0
M  V30 2702 H 271.998 1.68697 -2.45653 0
M  V30 2703 H 269.535 0.823004 -1.21922 0
M  V30 2704 H 271.493 3.93034 -1.39929 0
M  V30 2705 H 270.123 3.18308 -0.536671 0
M  V30 2706 H 269.175 2.50763 -2.86046 0
M  V30 2707 H 270.487 3.44993 -3.60252 0
M  V30 2708 H 269.641 5.52969 -2.49619 0
M  V30 2709 H 268.38 4.58957 -1.64953 0
M  V30 2710 H 267.385 3.92007 -3.85501 0
M  V30 2711 H 268.61 4.89406 -4.70807 0
M  V30 2712 H 266.556 5.96273 -2.73486 0
M  V30 2713 H 266.473 6.10409 -4.46023 0
M  V30 2714 H 267.741 6.91761 -3.59286 0
M  V30 2715 N 271.97 1.30982 0.876444 0
M  V30 2716 C 272.902 1.13902 1.98894 0
M  V30 2717 C 273.915 0.0798815 1.62604 0
M  V30 2718 O 275.104 0.326743 1.75484 0
M  V30 2719 C 272.204 0.716699 3.31235 0
M  V30 2720 C 271.377 1.85945 3.95908 0
M  V30 2721 C 270.436 1.42426 5.06558 0
M  V30 2722 O 269.462 2.13287 5.27729 0
M  V30 2723 N 270.664 0.308025 5.79682 0
M  V30 2724 H 273.429 2.09724 2.14094 0
M  V30 2725 H 270.99 1.2323 1.05004 0
M  V30 2726 H 272.982 0.408403 4.02634 0
M  V30 2727 H 271.552 -0.149719 3.12241 0
M  V30 2728 H 270.772 2.33541 3.17573 0
M  V30 2729 H 272.06 2.62503 4.35855 0
M  V30 2730 H 271.458 -0.282241 5.64995 0
M  V30 2731 H 270.015 0.0592282 6.51773 0
M  V30 2732 N 273.449 -1.08991 1.13837 0
M  V30 2733 C 274.674 -1.85551 0.926585 0
M  V30 2734 C 275.099 -1.80782 -0.519566 0
M  V30 2735 O 274.457 -1.18855 -1.36906 0
M  V30 2736 C 274.505 -3.31266 1.42462 0
M  V30 2737 O 273.609 -4.07822 0.612789 0
M  V30 2738 H 272.95 -0.575192 0.331738 0
M  V30 2739 H 275.48 -1.37604 1.51414 0
M  V30 2740 H 275.49 -3.82112 1.43019 0
M  V30 2741 H 274.165 -3.34052 2.47754 0
M  V30 2742 H 272.742 -3.66731 0.675463 0
M  V30 2743 N 274.927 -0.932562 -1.27047 0
M  V30 2744 C 275.875 -0.42603 -2.28665 0
M  V30 2745 C 276.869 0.49219 -1.62092 0
M  V30 2746 O 278.075 0.371355 -1.76128 0
M  V30 2747 H 274.45 -0.119213 -0.742491 0
M  V30 2748 H 276.421 -1.29579 -2.68797 0
M  V30 2749 C 275.17 0.301426 -3.46391 0
M  V30 2750 H 274.493 -0.39595 -3.97834 0
M  V30 2751 H 275.933 0.6202 -4.1944 0
M  V30 2752 C 274.392 1.51616 -3.00856 0
M  V30 2753 O 274.922 2.61476 -3.04948 0
M  V30 2754 N 273.128 1.36969 -2.56296 0
M  V30 2755 H 272.675 0.475873 -2.53166 0
M  V30 2756 H 272.633 2.18368 -2.26192 0
M  V30 2757 N 276.405 1.4127 -0.698611 0
M  V30 2758 C 277.633 2.05503 -0.239992 0
M  V30 2759 C 278.048 1.52584 1.11191 0
M  V30 2760 O 277.405 0.675323 1.69545 0
M  V30 2761 C 277.456 3.60987 -0.192429 0
M  V30 2762 O 277.177 4.1195 -1.49094 0
M  V30 2763 C 278.678 4.42371 0.28681 0
M  V30 2764 H 275.898 0.661748 -0.111045 0
M  V30 2765 H 278.442 1.80987 -0.95205 0
M  V30 2766 H 276.597 3.84533 0.470472 0
M  V30 2767 H 277.011 5.06018 -1.38007 0
M  V30 2768 H 278.485 5.51344 0.26896 0
M  V30 2769 H 278.962 4.18699 1.32619 0
M  V30 2770 H 279.568 4.23897 -0.345201 0
M  V30 2771 N 277.883 0.443576 1.51229 0
M  V30 2772 C 278.813 -0.355142 2.30783 0
M  V30 2773 C 279.794 -1.0154 1.36468 0
M  V30 2774 O 280.979 -1.01785 1.65389 0
M  V30 2775 C 278.109 -1.45312 3.15439 0
M  V30 2776 C 277.063 -0.916002 4.18083 0
M  V30 2777 C 276.389 -2.1102 4.91299 0
M  V30 2778 C 277.689 0.0538602 5.22272 0
M  V30 2779 H 279.383 0.308767 2.97804 0
M  V30 2780 H 276.929 0.149937 1.43217 0
M  V30 2781 H 278.882 -2.01914 3.69876 0
M  V30 2782 H 277.606 -2.14541 2.46252 0
M  V30 2783 H 276.265 -0.372145 3.64706 0
M  V30 2784 H 275.913 -2.78882 4.18609 0
M  V30 2785 H 275.613 -1.75717 5.60712 0
M  V30 2786 H 277.137 -2.68164 5.48562 0
M  V30 2787 H 278.551 -0.422069 5.71744 0
M  V30 2788 H 276.948 0.319776 5.99247 0
M  V30 2789 H 278.018 0.98858 4.74716 0
M  V30 2790 N 279.361 -1.56624 0.175154 0
M  V30 2791 C 280.291 -2.21155 -0.749195 0
M  V30 2792 C 281.272 -1.16836 -1.23626 0
M  V30 2793 O 282.457 -1.45277 -1.28873 0
M  V30 2794 C 279.587 -2.8553 -1.97711 0
M  V30 2795 C 278.541 -3.95921 -1.62575 0
M  V30 2796 C 277.867 -4.47365 -2.92864 0
M  V30 2797 C 279.167 -5.15323 -0.850838 0
M  V30 2798 H 280.861 -2.98653 -0.211295 0
M  V30 2799 H 278.407 -1.43651 -0.100188 0
M  V30 2800 H 280.36 -3.2935 -2.62881 0
M  V30 2801 H 279.084 -2.05406 -2.53921 0
M  V30 2802 H 277.743 -3.52762 -0.997719 0
M  V30 2803 H 277.391 -3.64027 -3.47122 0
M  V30 2804 H 277.091 -5.21839 -2.70106 0
M  V30 2805 H 278.615 -4.93873 -3.59056 0
M  V30 2806 H 280.029 -5.55812 -1.40521 0
M  V30 2807 H 278.426 -5.95739 -0.722154 0
M  V30 2808 H 279.496 -4.84661 0.152082 0
M  V30 2809 N 280.839 0.0985539 -1.57292 0
M  V30 2810 C 282.088 0.801358 -1.85098 0
M  V30 2811 C 282.401 1.80066 -0.763902 0
M  V30 2812 O 283.607 2.55112 -0.928981 0
M  V30 2813 C 282.063 1.47599 -3.28242 0
M  V30 2814 C 281.671 0.516624 -4.45011 0
M  V30 2815 C 283.415 2.16272 -3.65276 0
M  V30 2816 C 281.322 1.19564 -5.79188 0
M  V30 2817 H 280.252 0.303022 -0.69043 0
M  V30 2818 H 282.903 0.0542623 -1.8342 0
M  V30 2819 H 281.285 2.27042 -3.2445 0
M  V30 2820 H 282.459 -0.246065 -4.60143 0
M  V30 2821 H 280.774 -0.064227 -4.1635 0
M  V30 2822 H 283.371 2.67802 -4.62803 0
M  V30 2823 H 283.714 2.95009 -2.93727 0
M  V30 2824 H 284.247 1.43693 -3.70941 0
M  V30 2825 H 280.986 0.449157 -6.53959 0
M  V30 2826 H 280.506 1.92984 -5.67906 0
M  V30 2827 H 282.185 1.7231 -6.23633 0
M  V30 2828 N 282.317 1.53212 0.369288 0
M  V30 2829 C 283.564 1.69215 1.11232 0
M  V30 2830 C 283.892 0.442048 1.8941 0
M  V30 2831 O 283.147 -0.575944 1.87033 0
M  V30 2832 C 283.446 2.89101 2.10132 0
M  V30 2833 C 283.112 4.25758 1.48463 0
M  V30 2834 C 281.774 4.6292 1.31372 0
M  V30 2835 C 284.126 5.10757 1.03811 0
M  V30 2836 C 281.454 5.82722 0.68207 0
M  V30 2837 C 283.806 6.31201 0.420487 0
M  V30 2838 C 282.47 6.67079 0.237038 0
M  V30 2839 H 281.74 0.619201 0.407027 0
M  V30 2840 H 284.387 1.87391 0.394552 0
M  V30 2841 H 282.692 2.65421 2.88199 0
M  V30 2842 H 284.389 2.98676 2.6757 0
M  V30 2843 H 280.979 3.96494 1.62758 0
M  V30 2844 H 285.163 4.82599 1.1581 0
M  V30 2845 H 280.419 6.09113 0.528316 0
M  V30 2846 H 284.593 6.96368 0.0662874 0
M  V30 2847 H 282.22 7.59774 -0.254477 0
M  V30 2848 N 283.795 -0.628877 1.44509 0
M  V30 2849 C 285.044 -1.38437 1.4669 0
M  V30 2850 C 285.357 -1.95322 0.104272 0
M  V30 2851 O 286.563 -2.715 0.00362163 0
M  V30 2852 C 285.019 -2.50659 2.5826 0
M  V30 2853 C 284.627 -2.00277 4.0074 0
M  V30 2854 C 286.371 -3.27844 2.69664 0
M  V30 2855 C 284.278 -3.09854 5.0373 0
M  V30 2856 H 283.208 -0.520245 0.545766 0
M  V30 2857 H 285.859 -0.676313 1.70582 0
M  V30 2858 H 284.241 -3.2405 2.27612 0
M  V30 2859 H 285.415 -1.33736 4.40966 0
M  V30 2860 H 283.73 -1.35901 3.93599 0
M  V30 2861 H 286.327 -4.09534 3.43781 0
M  V30 2862 H 286.67 -3.77471 1.75559 0
M  V30 2863 H 287.203 -2.61543 2.99733 0
M  V30 2864 H 283.942 -2.65168 5.99472 0
M  V30 2865 H 283.462 -3.7503 4.68095 0
M  V30 2866 H 285.141 -3.74592 5.27532 0
M  V30 2867 N 285.273 -1.31445 -0.869486 0
M  V30 2868 C 286.221 -1.19067 -1.99814 0
M  V30 2869 C 287.215 -0.0988569 -1.69111 0
M  V30 2870 O 288.421 -0.260781 -1.78101 0
M  V30 2871 H 284.796 -0.368677 -0.655425 0
M  V30 2872 H 286.767 -2.14555 -2.07385 0
M  V30 2873 C 285.516 -0.915323 -3.35436 0
M  V30 2874 H 284.839 -1.74759 -3.59582 0
M  V30 2875 H 286.279 -0.868895 -4.15001 0
M  V30 2876 C 284.738 0.381928 -3.34728 0
M  V30 2877 O 285.268 1.39857 -3.76567 0
M  V30 2878 N 283.474 0.398633 -2.87853 0
M  V30 2879 H 283.021 -0.429186 -2.54 0
M  V30 2880 H 282.979 1.26651 -2.87762 0
M  V30 2881 N 286.751 1.08385 -1.14413 0
M  V30 2882 C 287.683 2.1519 -0.789036 0
M  V30 2883 C 288.696 1.61638 0.19417 0
M  V30 2884 O 289.885 1.78479 -0.0275711 0
M  V30 2885 C 286.985 3.38565 -0.15058 0
M  V30 2886 C 286.158 4.21501 -1.16857 0
M  V30 2887 C 285.217 5.23277 -0.553832 0
M  V30 2888 O 284.243 5.56041 -1.21686 0
M  V30 2889 N 285.445 5.76629 0.669296 0
M  V30 2890 H 288.21 2.46257 -1.70814 0
M  V30 2891 H 285.771 1.24198 -1.03858 0
M  V30 2892 H 287.763 4.03777 0.273181 0
M  V30 2893 H 286.333 3.05299 0.671667 0
M  V30 2894 H 285.553 3.52265 -1.76926 0
M  V30 2895 H 286.841 4.73731 -1.85624 0
M  V30 2896 H 286.239 5.52243 1.22654 0
M  V30 2897 H 284.796 6.43521 1.03556 0
M  V30 2898 N 288.23 0.939286 1.26551 0
M  V30 2899 C 289.479 0.581601 1.93133 0
M  V30 2900 C 289.792 -0.883224 1.74524 0
M  V30 2901 O 290.998 -1.3502 2.35546 0
M  V30 2902 C 289.454 0.989425 3.46032 0
M  V30 2903 C 289.062 2.47573 3.73379 0
M  V30 2904 C 290.806 0.703544 4.18629 0
M  V30 2905 C 288.713 2.82235 5.19709 0
M  V30 2906 H 287.643 0.213803 0.723052 0
M  V30 2907 H 290.294 1.14167 1.4366 0
M  V30 2908 H 288.676 0.357902 3.94379 0
M  V30 2909 H 289.85 3.15614 3.35744 0
M  V30 2910 H 288.165 2.73471 3.1401 0
M  V30 2911 H 290.762 0.938869 5.26393 0
M  V30 2912 H 291.105 -0.359639 4.14744 0
M  V30 2913 H 291.638 1.2947 3.76141 0
M  V30 2914 H 288.377 3.87509 5.28694 0
M  V30 2915 H 287.897 2.18854 5.58447 0
M  V30 2916 H 289.576 2.70599 5.87695 0
M  V30 2917 N 289.708 -1.40897 0.706093 0
M  V30 2918 C 291.124 -1.55042 0.37869 0
M  V30 2919 C 291.324 -1.67944 -1.11342 0
M  V30 2920 O 290.38 -1.66372 -1.89938 0
M  V30 2921 C 291.693 -2.78398 1.13643 0
M  V30 2922 C 293.241 -2.92206 1.12181 0
M  V30 2923 C 293.716 -4.18463 1.86152 0
M  V30 2924 N 295.207 -4.25443 1.83173 0
M  V30 2925 C 295.942 -5.2202 2.37239 0
M  V30 2926 N 295.438 -6.24563 2.99821 0
M  V30 2927 N 297.231 -5.14033 2.27435 0
M  V30 2928 H 289.382 -1.30769 1.67372 0
M  V30 2929 H 291.645 -0.631653 0.706907 0
M  V30 2930 H 291.351 -2.7511 2.19106 0
M  V30 2931 H 291.225 -3.70228 0.721853 0
M  V30 2932 H 293.612 -2.95004 0.0754171 0
M  V30 2933 H 293.693 -2.01521 1.57554 0
M  V30 2934 H 293.337 -4.16427 2.90776 0
M  V30 2935 H 293.267 -5.08141 1.38206 0
M  V30 2936 H 295.758 -3.51976 1.37556 0
M  V30 2937 H 296.071 -6.94665 3.38616 0
M  V30 2938 H 294.416 -6.25035 3.03902 0
M  V30 2939 H 297.607 -4.3285 1.78208 0
M  V30 2940 H 297.78 -5.89129 2.69873 0
M  V30 2941 N 291.186 -0.45159 -1.50991 0
M  V30 2942 C 292.119 0.398179 -2.24699 0
M  V30 2943 C 293.097 1.01276 -1.27208 0
M  V30 2944 O 294.281 1.05247 -1.56382 0
M  V30 2945 C 291.408 1.55618 -3.00833 0
M  V30 2946 C 290.454 1.0609 -4.13095 0
M  V30 2947 S 291.287 -0.00865136 -5.35499 0
M  V30 2948 C 292.443 1.15369 -6.15175 0
M  V30 2949 H 292.676 -0.227555 -2.96428 0
M  V30 2950 H 290.209 -0.236251 -1.52582 0
M  V30 2951 H 292.167 2.21997 -3.45293 0
M  V30 2952 H 290.828 2.15337 -2.28667 0
M  V30 2953 H 290.021 1.92726 -4.65696 0
M  V30 2954 H 289.623 0.47513 -3.7097 0
M  V30 2955 H 291.915 2.06925 -6.45126 0
M  V30 2956 H 292.858 0.667344 -7.04948 0
M  V30 2957 H 293.266 1.3987 -5.46897 0
M  V30 2958 N 292.664 1.56529 -0.183458 0
M  V30 2959 C 293.611 2.18546 0.742055 0
M  V30 2960 C 294.581 1.12912 1.2182 0
M  V30 2961 O 295.766 1.41115 1.28418 0
M  V30 2962 C 292.906 2.83977 1.96089 0
M  V30 2963 C 292.019 4.04105 1.52719 0
M  V30 2964 C 291.154 4.57427 2.70063 0
M  V30 2965 C 290.193 5.69938 2.23243 0
M  V30 2966 N 289.33 6.17717 3.33722 0
M  V30 2967 H 294.17 2.97284 0.206432 0
M  V30 2968 H 291.707 1.46823 0.0901571 0
M  V30 2969 H 293.665 3.20077 2.67594 0
M  V30 2970 H 292.295 2.07822 2.47002 0
M  V30 2971 H 291.347 3.73745 0.708436 0
M  V30 2972 H 292.659 4.85513 1.1436 0
M  V30 2973 H 291.813 4.95772 3.49708 0
M  V30 2974 H 290.552 3.75101 3.11689 0
M  V30 2975 H 289.557 5.31133 1.42048 0
M  V30 2976 H 290.782 6.54073 1.82661 0
M  V30 2977 H 288.728 5.38317 3.74902 0
M  V30 2978 H 288.645 6.94146 2.99495 0
M  V30 2979 H 289.913 6.60713 4.13616 0
M  V30 2980 N 294.142 -0.090211 1.57342 0
M  V30 2981 C 295.391 -0.791531 1.8552 0
M  V30 2982 C 295.704 -1.79659 0.773441 0
M  V30 2983 O 296.91 -2.54616 0.942497 0
M  V30 2984 C 295.366 -1.45856 3.2902 0
M  V30 2985 C 294.974 -0.493017 4.45279 0
M  V30 2986 C 296.718 -2.14332 3.66418 0
M  V30 2987 C 294.625 -1.16491 5.79814 0
M  V30 2988 H 293.555 -0.299356 0.692027 0
M  V30 2989 H 296.206 -0.0445343 1.83446 0
M  V30 2990 H 294.588 -2.25318 3.2565 0
M  V30 2991 H 295.762 0.270464 4.60006 0
M  V30 2992 H 294.077 0.0863061 4.16311 0
M  V30 2993 H 296.674 -2.65344 4.64216 0
M  V30 2994 H 297.017 -2.93447 2.95287 0
M  V30 2995 H 297.55 -1.41724 3.71698 0
M  V30 2996 H 294.289 -0.41447 6.54188 0
M  V30 2997 H 293.809 -1.8997 5.68921 0
M  V30 2998 H 295.488 -1.69001 6.24538 0
M  V30 2999 N 295.62 -1.53406 -0.361157 0
M  V30 3000 C 296.868 -1.69467 -1.10115 0
M  V30 3001 C 297.189 -0.451352 -1.89705 0
M  V30 3002 O 296.459 0.534636 -1.88463 0
M  V30 3003 H 295.039 -0.624749 -0.409508 0
M  V30 3004 H 297.701 -1.90609 -0.406699 0
M  V30 3005 H 296.797 -2.55774 -1.78847 0
M  V30 3006 N 297.098 0.621204 -1.44841 0
M  V30 3007 C 298.344 1.3826 -1.48365 0
M  V30 3008 C 298.677 1.93831 -0.119624 0
M  V30 3009 O 297.952 1.74251 0.864111 0
M  V30 3010 C 298.235 2.54058 -2.55199 0
M  V30 3011 C 298.088 2.03772 -4.00995 0
M  V30 3012 C 299.407 3.56225 -2.58442 0
M  V30 3013 H 296.526 0.501374 -0.540179 0
M  V30 3014 H 299.168 0.7015 -1.76576 0
M  V30 3015 H 297.318 3.12162 -2.31274 0
M  V30 3016 H 298.99 1.50423 -4.36086 0
M  V30 3017 H 297.233 1.34876 -4.12299 0
M  V30 3018 H 297.904 2.87185 -4.71411 0
M  V30 3019 H 300.38 3.07939 -2.79844 0
M  V30 3020 H 299.256 4.34756 -3.3508 0
M  V30 3021 H 299.517 4.10949 -1.63013 0
M  V30 3022 N 298.576 1.31904 0.862503 0
M  V30 3023 C 299.509 1.14514 1.97388 0
M  V30 3024 C 300.487 0.0466493 1.62533 0
M  V30 3025 O 301.671 0.204484 1.87388 0
M  V30 3026 C 298.798 0.751347 3.30261 0
M  V30 3027 C 297.844 1.85395 3.84098 0
M  V30 3028 S 298.677 3.46081 4.08642 0
M  V30 3029 C 299.833 3.08655 5.44502 0
M  V30 3030 H 300.066 2.08597 2.11836 0
M  V30 3031 H 297.599 1.16475 1.01356 0
M  V30 3032 H 299.557 0.530901 4.07052 0
M  V30 3033 H 298.218 -0.170493 3.13637 0
M  V30 3034 H 297.411 1.53122 4.80177 0
M  V30 3035 H 297.013 2.02984 3.14123 0
M  V30 3036 H 299.305 2.58012 6.26447 0
M  V30 3037 H 300.248 4.03726 5.81731 0
M  V30 3038 H 300.656 2.45891 5.08132 0
M  V30 3039 N 300.054 -1.07777 1.14986 0
M  V30 3040 C 301.301 -1.8029 0.922056 0
M  V30 3041 C 301.629 -1.86531 -0.55105 0
M  V30 3042 O 300.884 -1.34189 -1.42449 0
M  V30 3043 C 301.183 -3.25495 1.47608 0
M  V30 3044 C 300.849 -3.39361 2.96893 0
M  V30 3045 C 299.511 -3.42852 3.37647 0
M  V30 3046 C 301.863 -3.42512 3.92854 0
M  V30 3047 C 299.191 -3.47094 4.73015 0
M  V30 3048 C 301.543 -3.4829 5.28088 0
M  V30 3049 C 300.207 -3.50058 5.68345 0
M  V30 3050 H 299.477 -0.659727 0.337404 0
M  V30 3051 H 302.124 -1.26854 1.43459 0
M  V30 3052 H 300.429 -3.81683 0.88463 0
M  V30 3053 H 302.126 -3.80168 1.27568 0
M  V30 3054 H 298.716 -3.37339 2.64387 0
M  V30 3055 H 302.9 -3.3904 3.62444 0
M  V30 3056 H 298.156 -3.46758 5.03556 0
M  V30 3057 H 302.33 -3.49675 6.02246 0
M  V30 3058 H 299.957 -3.53097 6.73221 0
M  V30 3059 N 301.532 -0.945985 -1.26051 0
M  V30 3060 C 302.78 -0.594941 -1.93145 0
M  V30 3061 C 303.101 0.86953 -1.7454 0
M  V30 3062 O 302.371 1.61838 -1.10387 0
M  V30 3063 H 300.951 -0.217044 -0.714773 0
M  V30 3064 H 303.613 -1.20235 -1.53393 0
M  V30 3065 H 302.709 -0.816835 -3.01221 0
M  V30 3066 N 303.011 1.40521 -0.713556 0
M  V30 3067 C 303.959 2.32549 -0.0485227 0
M  V30 3068 C 304.953 1.51931 0.74922 0
M  V30 3069 O 306.159 1.67745 0.652816 0
M  V30 3070 H 302.534 0.751994 0.00311138 0
M  V30 3071 H 304.505 2.86291 -0.841443 0
M  V30 3072 C 303.254 3.36879 0.860687 0
M  V30 3073 H 302.577 3.98978 0.256246 0
M  V30 3074 H 304.017 4.03772 1.294 0
M  V30 3075 C 302.476 2.72197 1.9852 0
M  V30 3076 O 303.006 2.5837 3.07584 0
M  V30 3077 N 301.212 2.30612 1.76823 0
M  V30 3078 H 300.759 2.42059 0.881217 0
M  V30 3079 H 300.717 1.87672 2.52243 0
M  V30 3080 N 304.489 0.459591 1.5075 0
M  V30 3081 C 305.9 0.00171547 1.867 0
M  V30 3082 C 306.251 -1.39934 1.37525 0
M  V30 3083 O 305.376 -2.03523 0.735349 0
M  V30 3084 C 305.971 -0.00366298 3.388 0
M  V30 3085 C 304.53 -0.406026 3.74204 0
M  V30 3086 C 303.677 0.38673 2.7459 0
M  V30 3087 H 306.628 0.674413 1.43657 0
M  V30 3088 H 306.649 -0.808371 3.71814 0
M  V30 3089 H 306.161 1.01617 3.74561 0
M  V30 3090 H 304.262 -1.43063 3.4404 0
M  V30 3091 H 304.375 -0.115362 4.78961 0
M  V30 3092 H 302.739 -0.158019 2.54209 0
M  V30 3093 H 303.522 1.40585 3.13194 0
M  V30 3094 N 305.967 -1.56429 0.191757 0
M  V30 3095 C 306.877 -2.22541 -0.742481 0
M  V30 3096 C 307.893 -1.22342 -1.23727 0
M  V30 3097 O 309.069 -1.55069 -1.28513 0
M  V30 3098 C 306.134 -2.8692 -1.94623 0
M  V30 3099 C 305.195 -4.02378 -1.49633 0
M  V30 3100 C 304.428 -4.63678 -2.6427 0
M  V30 3101 O 304.651 -4.23895 -3.81666 0
M  V30 3102 O 303.585 -5.53202 -2.37174 0
M  V30 3103 H 307.411 -3.02977 -0.209462 0
M  V30 3104 H 304.996 -1.49353 -0.0373832 0
M  V30 3105 H 306.878 -3.27663 -2.64982 0
M  V30 3106 H 305.553 -2.09466 -2.46791 0
M  V30 3107 H 304.46 -3.66265 -0.761636 0
M  V30 3108 H 305.793 -4.81487 -1.02134 0
M  V30 3109 N 307.445 0.0818655 -1.57387 0
M  V30 3110 C 308.673 0.796108 -1.9097 0
M  V30 3111 C 309.088 1.71626 -0.786757 0
M  V30 3112 O 308.445 1.80908 0.240513 0
M  V30 3113 C 308.496 1.59829 -3.24248 0
M  V30 3114 O 308.217 0.715131 -4.32224 0
M  V30 3115 C 309.718 2.41442 -3.7178 0
M  V30 3116 H 306.938 0.22691 -0.631469 0
M  V30 3117 H 309.482 0.0551439 -2.04426 0
M  V30 3118 H 307.637 2.29163 -3.12351 0
M  V30 3119 H 308.051 1.27205 -5.08841 0
M  V30 3120 H 309.525 2.932 -4.67694 0
M  V30 3121 H 310.002 3.2051 -3.00283 0
M  V30 3122 H 310.608 1.77283 -3.86589 0
M  V30 3123 N 308.923 1.53595 0.353017 0
M  V30 3124 C 310.151 1.74311 1.1146 0
M  V30 3125 C 310.566 0.477854 1.82653 0
M  V30 3126 O 309.923 -0.549977 1.74016 0
M  V30 3127 C 309.974 2.91694 2.13534 0
M  V30 3128 O 309.695 4.13325 1.45238 0
M  V30 3129 C 311.196 3.24384 3.02142 0
M  V30 3130 H 308.416 0.582669 0.332773 0
M  V30 3131 H 310.96 2.00386 0.408107 0
M  V30 3132 H 309.115 2.67977 2.79763 0
M  V30 3133 H 309.529 4.79148 2.13349 0
M  V30 3134 H 311.003 4.09893 3.69718 0
M  V30 3135 H 311.48 2.40282 3.67643 0
M  V30 3136 H 312.086 3.50073 2.41514 0
M  V30 3137 N 310.401 -0.613514 1.45168 0
M  V30 3138 C 311.629 -1.39946 1.5239 0
M  V30 3139 C 312.044 -1.88167 0.154531 0
M  V30 3140 O 311.401 -1.61872 -0.842843 0
M  V30 3141 C 311.452 -2.60795 2.50337 0
M  V30 3142 O 311.173 -2.1458 3.81952 0
M  V30 3143 C 312.674 -3.53723 2.67198 0
M  V30 3144 H 309.894 -0.428593 0.516284 0
M  V30 3145 H 312.438 -0.748753 1.903 0
M  V30 3146 H 310.593 -3.21919 2.15515 0
M  V30 3147 H 311.007 -2.93055 4.34993 0
M  V30 3148 H 312.481 -4.35079 3.39721 0
M  V30 3149 H 312.958 -4.0368 1.73029 0
M  V30 3150 H 313.564 -2.98456 3.02992 0
M  V30 3151 N 311.879 -1.3236 -0.855495 0
M  V30 3152 C 313.127 -1.22629 -1.60644 0
M  V30 3153 C 313.448 0.212136 -1.93843 0
M  V30 3154 O 312.718 1.13666 -1.59552 0
M  V30 3155 H 311.298 -0.450882 -0.595579 0
M  V30 3156 H 313.96 -1.65871 -1.02337 0
M  V30 3157 H 313.056 -1.80832 -2.54374 0
M  V30 3158 N 313.357 1.07166 -1.15556 0
M  V30 3159 C 314.605 1.79443 -0.929764 0
M  V30 3160 C 314.926 1.87246 0.544414 0
M  V30 3161 O 314.196 1.37473 1.39564 0
M  V30 3162 H 312.776 0.664625 -0.341003 0
M  V30 3163 H 315.438 1.29499 -1.45657 0
M  V30 3164 H 314.534 2.81832 -1.34079 0
M  V30 3165 N 314.835 0.952656 1.25548 0
M  V30 3166 C 315.783 0.462354 2.27958 0
M  V30 3167 C 316.777 -0.46634 1.62855 0
M  V30 3168 O 317.983 -0.343287 1.76696 0
M  V30 3169 H 314.358 0.13101 0.7405 0
M  V30 3170 H 316.329 1.33839 2.66702 0
M  V30 3171 C 315.078 -0.24628 3.46827 0
M  V30 3172 H 314.401 0.459192 3.97154 0
M  V30 3173 H 315.841 -0.553393 4.20373 0
M  V30 3174 C 314.3 -1.4681 3.0323 0
M  V30 3175 O 314.83 -2.56591 3.09069 0
M  V30 3176 N 313.036 -1.32874 2.58443 0
M  V30 3177 H 312.583 -0.435536 2.53891 0
M  V30 3178 H 312.541 -2.14742 2.29637 0
M  V30 3179 N 316.313 -1.40141 0.720998 0
M  V30 3180 C 317.276 -2.29058 0.0805834 0
M  V30 3181 C 318.276 -1.45632 -0.681758 0
M  V30 3182 O 319.466 -1.6648 -0.512856 0
M  V30 3183 C 316.598 -3.28925 -0.895593 0
M  V30 3184 H 317.791 -2.87191 0.863793 0
M  V30 3185 H 315.344 -1.48553 0.485975 0
M  V30 3186 H 316.079 -2.75822 -1.70566 0
M  V30 3187 H 315.864 -3.90519 -0.351766 0
M  V30 3188 H 317.354 -3.95494 -1.34069 0
M  V30 3189 N 317.792 -0.46758 -1.50504 0
M  V30 3190 C 318.722 0.318381 -2.31319 0
M  V30 3191 C 319.703 0.993564 -1.38066 0
M  V30 3192 O 320.888 0.991411 -1.66987 0
M  V30 3193 C 318.018 1.40275 -3.17711 0
M  V30 3194 C 316.972 0.849373 -4.19487 0
M  V30 3195 C 316.298 2.03177 -4.94594 0
M  V30 3196 C 317.598 -0.136942 -5.2212 0
M  V30 3197 H 319.292 -0.356106 -2.97275 0
M  V30 3198 H 316.838 -0.172703 -1.42961 0
M  V30 3199 H 318.791 1.96004 -3.73042 0
M  V30 3200 H 317.515 2.10596 -2.49634 0
M  V30 3201 H 316.174 0.314076 -3.65252 0
M  V30 3202 H 315.822 2.72187 -4.22993 0
M  V30 3203 H 315.522 1.66774 -5.63436 0
M  V30 3204 H 317.046 2.59403 -5.52759 0
M  V30 3205 H 318.46 0.331056 -5.72343 0
M  V30 3206 H 316.857 -0.41507 -5.98663 0
M  V30 3207 H 317.927 -1.06398 -4.73083 0
M  V30 3208 N 319.27 1.56325 -0.20005 0
M  V30 3209 C 320.217 2.1932 0.718833 0
M  V30 3210 C 321.187 1.14198 1.20615 0
M  V30 3211 O 322.372 1.42469 1.26914 0
M  V30 3212 C 319.512 2.86041 1.93066 0
M  V30 3213 C 318.625 4.05702 1.48425 0
M  V30 3214 C 317.76 4.60266 2.65196 0
M  V30 3215 C 316.799 5.72273 2.17185 0
M  V30 3216 N 315.936 6.21221 3.27152 0
M  V30 3217 H 320.776 2.97486 0.17489 0
M  V30 3218 H 318.313 1.46911 0.0745794 0
M  V30 3219 H 320.271 3.22897 2.64184 0
M  V30 3220 H 318.901 2.1043 2.44783 0
M  V30 3221 H 317.953 3.74475 0.668755 0
M  V30 3222 H 319.265 4.86699 1.09204 0
M  V30 3223 H 318.419 4.99453 3.4443 0
M  V30 3224 H 317.158 3.78386 3.07693 0
M  V30 3225 H 316.163 5.3261 1.36407 0
M  V30 3226 H 317.388 6.55974 1.75713 0
M  V30 3227 H 315.334 5.42263 3.69171 0
M  V30 3228 H 315.251 6.97284 2.92116 0
M  V30 3229 H 316.519 6.65063 4.06585 0
M  V30 3230 N 320.748 -0.0735177 1.57428 0
M  V30 3231 C 321.995 -0.772999 1.87166 0
M  V30 3232 C 322.323 -1.77665 0.791551 0
M  V30 3233 O 321.578 -1.94541 -0.212636 0
M  V30 3234 C 321.877 -1.51799 3.23561 0
M  V30 3235 C 321.543 -0.654484 4.46125 0
M  V30 3236 C 320.205 -0.416511 4.79394 0
M  V30 3237 C 322.557 -0.0555862 5.2117 0
M  V30 3238 C 319.885 0.429869 5.85123 0
M  V30 3239 C 322.237 0.778239 6.27795 0
M  V30 3240 C 320.901 1.0261 6.59566 0
M  V30 3241 H 320.171 -0.282861 0.684888 0
M  V30 3242 H 322.818 -0.0338272 1.9147 0
M  V30 3243 H 321.123 -2.32932 3.1504 0
M  V30 3244 H 322.82 -2.06397 3.43804 0
M  V30 3245 H 319.41 -0.850091 4.20085 0
M  V30 3246 H 323.594 -0.226558 4.95783 0
M  V30 3247 H 318.85 0.630665 6.08139 0
M  V30 3248 H 323.024 1.24906 6.85107 0
M  V30 3249 H 320.651 1.68371 7.4132 0
M  V30 3250 N 322.226 -1.5378 -0.344866 0
M  V30 3251 C 323.456 -1.74646 -1.10374 0
M  V30 3252 C 323.864 -0.48491 -1.8288 0
M  V30 3253 O 323.207 0.553062 -1.75177 0
M  V30 3254 C 323.269 -2.87145 -2.16306 0
M  V30 3255 C 322.933 -4.26795 -1.63386 0
M  V30 3256 C 323.93 -5.08412 -1.08688 0
M  V30 3257 C 321.615 -4.73276 -1.68272 0
M  V30 3258 C 323.609 -6.34609 -0.595792 0
M  V30 3259 C 321.296 -5.99446 -1.18776 0
M  V30 3260 C 322.294 -6.79946 -0.645215 0
M  V30 3261 O 321.982 -8.03745 -0.157626 0
M  V30 3262 H 321.714 -0.587112 -0.335075 0
M  V30 3263 H 324.268 -2.01403 -0.403252 0
M  V30 3264 H 322.498 -2.55909 -2.89909 0
M  V30 3265 H 324.187 -2.95992 -2.77747 0
M  V30 3266 H 324.953 -4.73666 -1.04236 0
M  V30 3267 H 320.832 -4.10677 -2.09442 0
M  V30 3268 H 324.376 -6.97389 -0.171654 0
M  V30 3269 H 320.273 -6.33687 -1.22928 0
M  V30 3270 H 321.041 -8.18038 -0.275037 0
M  V30 3271 N 323.704 0.605807 -1.45491 0
M  V30 3272 C 324.667 1.69836 -1.5391 0
M  V30 3273 C 325.667 1.55261 -0.418424 0
M  V30 3274 O 326.857 1.60296 -0.681965 0
M  V30 3275 C 323.989 3.09117 -1.43734 0
M  V30 3276 H 325.182 1.63738 -2.51257 0
M  V30 3277 H 322.735 0.821689 -1.32959 0
M  V30 3278 H 323.47 3.20791 -0.475788 0
M  V30 3279 H 323.255 3.21104 -2.25021 0
M  V30 3280 H 324.745 3.88696 -1.52661 0
M  V30 3281 N 325.182 1.32811 0.848464 0
M  V30 3282 C 326.407 1.26882 1.6406 0
M  V30 3283 C 326.832 -0.15913 1.87426 0
M  V30 3284 O 326.19 -1.11258 1.43148 0
M  V30 3285 C 326.238 2.03997 2.97351 0
M  V30 3286 O 325.342 1.39201 3.88197 0
M  V30 3287 H 324.683 0.436982 0.499943 0
M  V30 3288 H 327.213 1.75224 1.0563 0
M  V30 3289 H 327.223 2.14403 3.47124 0
M  V30 3290 H 325.898 3.0783 2.79666 0
M  V30 3291 H 324.475 1.37381 3.46671 0
M  V30 3292 N 326.66 -1.06551 1.16123 0
M  V30 3293 C 327.906 -1.79567 0.94252 0
M  V30 3294 C 328.239 -1.86869 -0.528547 0
M  V30 3295 O 327.514 -1.35838 -1.39206 0
M  V30 3296 C 327.797 -3.24195 1.56747 0
M  V30 3297 C 327.65 -3.24989 3.10969 0
M  V30 3298 C 328.969 -4.21678 1.25998 0
M  V30 3299 H 326.088 -0.651883 0.343828 0
M  V30 3300 H 328.73 -1.2463 1.43413 0
M  V30 3301 H 326.88 -3.71107 1.14942 0
M  V30 3302 H 328.552 -2.86258 3.61737 0
M  V30 3303 H 326.795 -2.63716 3.44436 0
M  V30 3304 H 327.466 -4.27005 3.49815 0
M  V30 3305 H 329.942 -3.83196 1.62174 0
M  V30 3306 H 328.818 -5.21146 1.7233 0
M  V30 3307 H 329.079 -4.4174 0.178367 0
M  V30 3308 N 328.138 -0.959301 -1.25041 0
M  V30 3309 C 329.554 -0.664474 -1.4511 0
M  V30 3310 C 329.754 0.776481 -1.85938 0
M  V30 3311 O 328.81 1.55128 -1.99227 0
M  V30 3312 C 330.123 -1.64139 -2.5195 0
M  V30 3313 C 331.671 -1.65309 -2.65786 0
M  V30 3314 C 332.146 -2.61777 -3.75815 0
M  V30 3315 N 333.637 -2.60169 -3.83231 0
M  V30 3316 C 334.372 -3.31489 -4.6787 0
M  V30 3317 N 333.868 -4.12298 -5.56761 0
M  V30 3318 N 335.661 -3.20354 -4.61876 0
M  V30 3319 H 327.812 -1.89043 -0.968332 0
M  V30 3320 H 330.075 -0.813408 -0.4869 0
M  V30 3321 H 329.781 -2.67086 -2.28819 0
M  V30 3322 H 329.655 -1.40756 -3.49954 0
M  V30 3323 H 332.042 -0.630778 -2.8828 0
M  V30 3324 H 332.123 -1.92753 -1.68167 0
M  V30 3325 H 331.767 -3.64137 -3.54071 0
M  V30 3326 H 331.697 -2.31616 -4.72929 0
M  V30 3327 H 334.188 -2.01507 -3.19692 0
M  V30 3328 H 334.501 -4.63625 -6.18281 0
M  V30 3329 H 332.846 -4.16395 -5.56454 0
M  V30 3330 H 336.037 -2.56692 -3.91442 0
M  V30 3331 H 336.21 -3.76201 -5.27614 0
M  V30 3332 N 329.616 1.39756 -0.72842 0
M  V30 3333 C 330.546 2.33289 -0.0991354 0
M  V30 3334 C 331.527 1.53568 0.731489 0
M  V30 3335 O 332.712 1.81987 0.677807 0
M  V30 3336 C 329.842 3.3763 0.813834 0
M  V30 3337 C 328.796 4.2791 0.0878663 0
M  V30 3338 C 328.122 5.22894 1.11741 0
M  V30 3339 C 329.422 5.11314 -1.06563 0
M  V30 3340 H 331.116 2.86163 -0.880408 0
M  V30 3341 H 328.662 1.37591 -0.424819 0
M  V30 3342 H 330.615 4.0201 1.26355 0
M  V30 3343 H 329.339 2.83181 1.62715 0
M  V30 3344 H 327.998 3.65 -0.342159 0
M  V30 3345 H 327.646 4.64744 1.92412 0
M  V30 3346 H 327.346 5.84143 0.636477 0
M  V30 3347 H 328.87 5.90151 1.56697 0
M  V30 3348 H 330.284 5.69076 -0.694671 0
M  V30 3349 H 328.681 5.81671 -1.47577 0
M  V30 3350 H 329.751 4.46534 -1.89038 0
M  V30 3351 N 331.094 0.475555 1.50254 0
M  V30 3352 C 332.371 -0.139685 1.95101 0
M  V30 3353 C 332.751 -1.56555 1.41611 0
M  V30 3354 O 332.099 -2.19956 0.618993 0
M  V30 3355 C 332.309 -0.0784298 3.48912 0
M  V30 3356 C 333.657 -0.265095 4.23772 0
M  V30 3357 O 334.681 -0.154808 3.55863 0
M  V30 3358 O 333.54 -0.488327 5.44314 0
M  V30 3359 H 330.634 -0.109236 0.819754 0
M  V30 3360 H 333.18 0.536276 1.61004 0
M  V30 3361 H 331.952 0.916918 3.80405 0
M  V30 3362 H 331.575 -0.795655 3.89558 0
M  V30 3363 N 332.573 -1.56217 0.208337 0
M  V30 3364 C 333.822 -1.97124 -0.427204 0
M  V30 3365 C 334.135 -1.09859 -1.61835 0
M  V30 3366 O 335.341 -1.40606 -2.32255 0
M  V30 3367 C 333.797 -3.50633 -0.811442 0
M  V30 3368 C 333.405 -4.46582 0.35615 0
M  V30 3369 C 335.149 -4.00282 -1.41332 0
M  V30 3370 C 333.056 -5.91379 -0.0497852 0
M  V30 3371 H 331.986 -0.736086 -0.163381 0
M  V30 3372 H 334.637 -1.8099 0.302456 0
M  V30 3373 H 333.019 -3.62319 -1.59815 0
M  V30 3374 H 334.193 -4.46636 1.1337 0
M  V30 3375 H 332.508 -4.07202 0.870396 0
M  V30 3376 H 335.105 -5.0595 -1.72972 0
M  V30 3377 H 335.448 -3.45359 -2.32449 0
M  V30 3378 H 335.981 -3.91764 -0.690323 0
M  V30 3379 H 332.72 -6.50255 0.827529 0
M  V30 3380 H 332.24 -5.94549 -0.791926 0
M  V30 3381 H 333.919 -6.45209 -0.481042 0
M  V30 3382 N 334.051 0.0651679 -1.57465 0
M  V30 3383 C 335.467 0.420105 -1.53972 0
M  V30 3384 C 335.667 1.78782 -0.929474 0
M  V30 3385 O 334.723 2.46771 -0.534839 0
M  V30 3386 C 336.036 0.355084 -2.98596 0
M  V30 3387 C 337.584 0.434792 -3.09965 0
M  V30 3388 C 338.059 0.399609 -4.56253 0
M  V30 3389 N 339.55 0.459488 -4.60915 0
M  V30 3390 C 340.285 0.454584 -5.71595 0
M  V30 3391 N 339.781 0.404102 -6.9162 0
M  V30 3392 N 341.574 0.501635 -5.59857 0
M  V30 3393 H 333.725 -0.830328 -1.95498 0
M  V30 3394 H 335.988 -0.312244 -0.895102 0
M  V30 3395 H 335.694 -0.583357 -3.46828 0
M  V30 3396 H 335.568 1.16275 -3.58831 0
M  V30 3397 H 337.955 1.36366 -2.61703 0
M  V30 3398 H 338.036 -0.40157 -2.52628 0
M  V30 3399 H 337.68 -0.525436 -5.05175 0
M  V30 3400 H 337.61 1.25359 -5.11461 0
M  V30 3401 H 340.101 0.502482 -3.74544 0
M  V30 3402 H 340.414 0.404468 -7.71741 0
M  V30 3403 H 338.759 0.37069 -6.94011 0
M  V30 3404 H 341.95 0.538812 -4.64989 0
M  V30 3405 H 342.123 0.494345 -6.46112 0
M  V30 3406 N 335.529 1.53961 0.336706 0
M  V30 3407 C 336.945 1.44378 0.680241 0
M  V30 3408 C 337.145 0.606034 1.9217 0
M  V30 3409 O 336.201 0.099688 2.52303 0
M  V30 3410 C 337.514 2.87945 0.8665 0
M  V30 3411 C 339.062 2.97763 0.964682 0
M  V30 3412 C 339.537 4.42453 1.18321 0
M  V30 3413 N 341.028 4.46008 1.25025 0
M  V30 3414 C 341.763 5.55102 1.43697 0
M  V30 3415 N 341.259 6.7419 1.59498 0
M  V30 3416 N 343.052 5.42727 1.463 0
M  V30 3417 H 335.203 2.06918 -0.479455 0
M  V30 3418 H 337.466 0.935634 -0.152619 0
M  V30 3419 H 337.172 3.51691 0.0256937 0
M  V30 3420 H 337.046 3.33293 1.76623 0
M  V30 3421 H 339.433 2.34153 1.796 0
M  V30 3422 H 339.514 2.55766 0.041708 0
M  V30 3423 H 339.158 5.06645 0.356788 0
M  V30 3424 H 339.088 4.82048 2.11985 0
M  V30 3425 H 341.579 3.60196 1.14312 0
M  V30 3426 H 341.892 7.53095 1.734 0
M  V30 3427 H 340.237 6.77123 1.56621 0
M  V30 3428 H 343.428 4.48647 1.33543 0
M  V30 3429 H 343.601 6.27806 1.6051 0
M  V30 3430 N 337.007 -0.598083 1.45811 0
M  V30 3431 C 338.256 -1.35295 1.49594 0
M  V30 3432 C 338.569 -1.95057 0.145679 0
M  V30 3433 O 339.775 -2.71431 0.0612099 0
M  V30 3434 C 338.231 -2.45124 2.63519 0
M  V30 3435 C 337.839 -1.91732 4.04899 0
M  V30 3436 C 339.583 -3.2205 2.76558 0
M  V30 3437 C 337.49 -2.991 5.1019 0
M  V30 3438 H 336.42 -0.508552 0.556679 0
M  V30 3439 H 339.071 -0.639977 1.71978 0
M  V30 3440 H 337.453 -3.19149 2.34435 0
M  V30 3441 H 338.627 -1.24352 4.43704 0
M  V30 3442 H 336.942 -1.27522 3.96393 0
M  V30 3443 H 339.539 -4.0215 3.52391 0
M  V30 3444 H 339.882 -3.73663 1.83526 0
M  V30 3445 H 340.415 -2.55127 3.05213 0
M  V30 3446 H 337.154 -2.52393 6.04961 0
M  V30 3447 H 336.674 -3.65017 4.75944 0
M  V30 3448 H 338.353 -3.63318 5.35359 0
M  V30 3449 N 338.485 -1.33259 -0.841409 0
M  V30 3450 C 339.733 -1.24326 -1.59334 0
M  V30 3451 C 340.054 0.191564 -1.94057 0
M  V30 3452 O 339.324 1.11967 -1.60749 0
M  V30 3453 H 337.904 -0.457174 -0.590763 0
M  V30 3454 H 340.566 -1.66947 -1.00571 0
M  V30 3455 H 339.662 -1.8352 -2.52442 0
M  V30 3456 N 339.963 1.05934 -1.16686 0
M  V30 3457 C 340.926 2.11669 -0.879144 0
M  V30 3458 C 341.926 1.60294 0.127445 0
M  V30 3459 O 343.116 1.7389 -0.103865 0
M  V30 3460 C 340.248 3.39438 -0.315425 0
M  V30 3461 H 341.441 2.38626 -1.81653 0
M  V30 3462 H 338.994 1.22058 -0.976299 0
M  V30 3463 H 339.729 3.18132 0.629468 0
M  V30 3464 H 339.514 3.78034 -1.04079 0
M  V30 3465 H 341.004 4.17391 -0.132189 0
M  V30 3466 N 341.441 0.965919 1.2453 0
M  V30 3467 C 342.687 0.62776 1.92839 0
M  V30 3468 C 343.02 -0.834694 1.75347 0
M  V30 3469 O 342.295 -1.60031 1.10546 0
M  V30 3470 C 342.578 1.00109 3.45905 0
M  V30 3471 C 342.431 2.52011 3.72573 0
M  V30 3472 C 343.75 0.53435 4.36844 0
M  V30 3473 H 340.869 0.229537 0.700344 0
M  V30 3474 H 343.511 1.2046 1.46933 0
M  V30 3475 H 341.661 0.510238 3.85135 0
M  V30 3476 H 343.333 3.08559 3.42912 0
M  V30 3477 H 341.576 2.95287 3.17786 0
M  V30 3478 H 342.247 2.73183 4.79661 0
M  V30 3479 H 344.723 0.955565 4.04979 0
M  V30 3480 H 343.599 0.824152 5.42678 0
M  V30 3481 H 343.86 -0.565589 4.38467 0
M  V30 3482 N 342.919 -1.39368 0.735821 0
M  V30 3483 C 343.866 -2.30599 0.0963825 0
M  V30 3484 C 344.836 -1.49257 -0.728794 0
M  V30 3485 O 346.021 -1.77941 -0.688588 0
M  V30 3486 C 343.161 -3.35596 -0.804305 0
M  V30 3487 C 342.274 -4.31987 0.0335761 0
M  V30 3488 C 341.409 -5.24053 -0.868461 0
M  V30 3489 C 340.448 -6.12095 -0.0258776 0
M  V30 3490 N 339.585 -6.96514 -0.883893 0
M  V30 3491 H 344.425 -2.8471 0.880002 0
M  V30 3492 H 341.962 -1.40188 0.445619 0
M  V30 3493 H 343.92 -3.95062 -1.34096 0
M  V30 3494 H 342.55 -2.82938 -1.55389 0
M  V30 3495 H 341.602 -3.74133 0.68766 0
M  V30 3496 H 342.914 -4.94074 0.685036 0
M  V30 3497 H 342.068 -5.88549 -1.47293 0
M  V30 3498 H 340.807 -4.62289 -1.5537 0
M  V30 3499 H 339.812 -5.4661 0.591386 0
M  V30 3500 H 341.037 -6.75923 0.656156 0
M  V30 3501 H 338.983 -6.37318 -1.55441 0
M  V30 3502 H 338.9 -7.55448 -0.288931 0
M  V30 3503 H 340.168 -7.65439 -1.4739 0
M  V30 3504 N 344.397 -0.483516 -1.5 0
M  V30 3505 C 345.307 0.309172 -2.32554 0
M  V30 3506 C 346.323 0.984159 -1.43493 0
M  V30 3507 O 347.499 0.969399 -1.76535 0
M  V30 3508 C 344.564 1.36979 -3.18493 0
M  V30 3509 C 343.625 0.710095 -4.23387 0
M  V30 3510 C 342.858 1.72018 -5.05218 0
M  V30 3511 O 343.081 2.94813 -4.88305 0
M  V30 3512 O 342.015 1.28515 -5.8802 0
M  V30 3513 H 345.841 -0.366064 -3.01486 0
M  V30 3514 H 343.426 -0.24514 -1.47375 0
M  V30 3515 H 345.308 1.98385 -3.71781 0
M  V30 3516 H 343.983 2.02828 -2.52275 0
M  V30 3517 H 342.89 0.0567539 -3.74057 0
M  V30 3518 H 344.223 0.0943557 -4.9211 0
M  V30 3519 N 345.875 1.56104 -0.216619 0
M  V30 3520 C 347.123 1.97781 0.415593 0
M  V30 3521 C 347.444 1.10536 1.60645 0
M  V30 3522 O 346.714 0.181303 1.95059 0
M  V30 3523 H 345.294 0.730415 0.156534 0
M  V30 3524 H 347.956 1.92445 -0.308366 0
M  V30 3525 H 347.052 3.03072 0.74525 0
M  V30 3526 N 347.353 -0.0568162 1.57498 0
M  V30 3527 C 348.263 -1.08346 2.08083 0
M  V30 3528 C 349.279 -1.41439 1.01346 0
M  V30 3529 O 350.455 -1.51316 1.32912 0
M  V30 3530 C 347.52 -2.37352 2.52715 0
M  V30 3531 C 346.581 -2.11093 3.73816 0
M  V30 3532 C 345.814 -3.33949 4.1631 0
M  V30 3533 O 346.037 -4.43622 3.58547 0
M  V30 3534 O 344.971 -3.21279 5.08983 0
M  V30 3535 H 348.797 -0.683667 2.95905 0
M  V30 3536 H 346.382 -0.271965 1.46904 0
M  V30 3537 H 348.264 -3.13246 2.81877 0
M  V30 3538 H 346.939 -2.76681 1.68016 0
M  V30 3539 H 345.846 -1.32856 3.49714 0
M  V30 3540 H 347.179 -1.76637 4.59413 0
M  V30 3541 N 348.832 -1.54138 -0.328536 0
M  V30 3542 C 349.78 -1.83894 -1.42428 0
M  V30 3543 C 350.774 -0.710478 -1.53781 0
M  V30 3544 O 351.98 -0.894062 -1.56226 0
M  V30 3545 H 348.355 -0.582837 -0.475189 0
M  V30 3546 H 350.326 -2.75537 -1.14552 0
M  V30 3547 C 349.075 -2.07866 -2.78724 0
M  V30 3548 H 348.398 -2.94158 -2.7076 0
M  V30 3549 H 349.838 -2.32644 -3.54476 0
M  V30 3550 C 348.297 -0.868689 -3.25508 0
M  V30 3551 O 348.827 -0.0754908 -4.01629 0
M  V30 3552 N 347.033 -0.681711 -2.82491 0
M  V30 3553 H 346.58 -1.32838 -2.20708 0
M  V30 3554 H 346.538 0.126374 -3.14146 0
M  V30 3555 N 350.31 0.590341 -1.46126 0
M  V30 3556 C 351.556 1.35082 -1.51264 0
M  V30 3557 C 351.889 1.93534 -0.160711 0
M  V30 3558 O 351.164 1.76045 0.826956 0
M  V30 3559 C 351.447 2.48588 -2.6053 0
M  V30 3560 C 351.3 1.95221 -4.05227 0
M  V30 3561 C 352.619 3.50662 -2.6594 0
M  V30 3562 H 349.738 0.489803 -0.550692 0
M  V30 3563 H 352.38 0.663887 -1.78024 0
M  V30 3564 H 350.53 3.07186 -2.37843 0
M  V30 3565 H 352.202 1.41139 -4.39178 0
M  V30 3566 H 350.445 1.26101 -4.15068 0
M  V30 3567 H 351.116 2.77121 -4.77397 0
M  V30 3568 H 353.592 3.01934 -2.86313 0
M  V30 3569 H 352.468 4.27551 -3.44226 0
M  V30 3570 H 352.729 4.07399 -1.71694 0
M  V30 3571 N 351.788 1.33704 0.83433 0
M  V30 3572 C 353.034 1.25603 1.59222 0
M  V30 3573 C 353.367 -0.176659 1.93395 0
M  V30 3574 O 352.642 -1.11915 1.59076 0
M  V30 3575 C 352.925 2.13576 2.89926 0
M  V30 3576 C 352.778 3.65326 2.62406 0
M  V30 3577 C 354.097 2.01238 3.91397 0
M  V30 3578 H 351.216 0.457613 0.577719 0
M  V30 3579 H 353.858 1.63848 0.961972 0
M  V30 3580 H 352.008 1.8109 3.43713 0
M  V30 3581 H 353.68 4.08124 2.15017 0
M  V30 3582 H 351.923 3.8698 1.96033 0
M  V30 3583 H 352.594 4.22232 3.55562 0
M  V30 3584 H 355.07 2.29738 3.46929 0
M  V30 3585 H 353.946 2.65036 4.80673 0
M  V30 3586 H 354.207 0.985951 4.30966 0
M  V30 3587 N 353.266 -1.05314 1.17247 0
M  V30 3588 C 354.514 -1.77941 0.958194 0
M  V30 3589 C 354.835 -1.88089 -0.514556 0
M  V30 3590 O 354.105 -1.39676 -1.37359 0
M  V30 3591 H 352.685 -0.659116 0.351533 0
M  V30 3592 H 355.347 -1.27166 1.47699 0
M  V30 3593 H 354.443 -2.79663 1.38546 0
M  V30 3594 N 354.744 -0.972509 -1.24016 0
M  V30 3595 C 355.969 -0.654417 -1.96805 0
M  V30 3596 C 356.394 0.770398 -1.716 0
M  V30 3597 O 355.752 1.52361 -0.982647 0
M  V30 3598 C 355.8 -0.941031 -3.48105 0
M  V30 3599 O 354.904 -0.0289472 -4.1239 0
M  V30 3600 H 354.245 -0.24692 -0.616382 0
M  V30 3601 H 356.775 -1.30396 -1.57664 0
M  V30 3602 H 356.785 -0.87452 -3.98517 0
M  V30 3603 H 355.46 -1.97939 -3.65777 0
M  V30 3604 H 354.037 -0.149192 -3.72601 0
M  V30 3605 N 356.222 1.38976 -0.743202 0
M  V30 3606 C 357.132 2.3434 -0.110399 0
M  V30 3607 C 358.148 1.58741 0.712559 0
M  V30 3608 O 359.324 1.9099 0.639125 0
M  V30 3609 C 356.389 3.37812 0.780012 0
M  V30 3610 C 355.45 4.29263 -0.0561319 0
M  V30 3611 C 354.683 5.27793 0.791875 0
M  V30 3612 O 354.906 5.33043 2.03031 0
M  V30 3613 O 353.84 6.01512 0.216183 0
M  V30 3614 H 357.666 2.90129 -0.897714 0
M  V30 3615 H 355.251 1.40643 -0.503966 0
M  V30 3616 H 357.133 4.01194 1.28923 0
M  V30 3617 H 355.808 2.84395 1.546 0
M  V30 3618 H 354.715 3.69076 -0.611056 0
M  V30 3619 H 356.048 4.85907 -0.784531 0
M  V30 3620 N 357.7 0.491464 1.49741 0
M  V30 3621 C 358.928 -0.0535151 2.06831 0
M  V30 3622 C 359.343 -1.31683 1.35296 0
M  V30 3623 O 358.7 -1.77402 0.42836 0
M  V30 3624 C 358.751 -0.320835 3.60073 0
M  V30 3625 O 358.472 0.892394 4.28915 0
M  V30 3626 C 359.973 -0.910519 4.33848 0
M  V30 3627 H 357.193 0.0161909 0.670805 0
M  V30 3628 H 359.737 0.68609 1.92647 0
M  V30 3629 H 357.892 -1.0104 3.73991 0
M  V30 3630 H 358.306 0.649401 5.20464 0
M  V30 3631 H 359.78 -1.04721 5.41976 0
M  V30 3632 H 360.257 -1.90589 3.95692 0
M  V30 3633 H 360.863 -0.258712 4.24512 0
M  V30 3634 N 359.178 -1.55987 0.224894 0
M  V30 3635 C 360.594 -1.59066 -0.130426 0
M  V30 3636 C 360.794 -1.24176 -1.5869 0
M  V30 3637 O 359.85 -0.978592 -2.32766 0
M  V30 3638 C 361.163 -3.00042 0.198883 0
M  V30 3639 C 362.711 -3.1268 0.141391 0
M  V30 3640 C 363.186 -4.55839 0.444422 0
M  V30 3641 N 364.677 -4.6152 0.394115 0
M  V30 3642 C 365.412 -5.70231 0.602038 0
M  V30 3643 N 364.908 -6.87291 0.871914 0
M  V30 3644 N 366.701 -5.59555 0.534245 0
M  V30 3645 H 358.852 -1.76941 1.17497 0
M  V30 3646 H 361.115 -0.822604 0.471197 0
M  V30 3647 H 360.821 -3.30234 1.2099 0
M  V30 3648 H 360.695 -3.74075 -0.484535 0
M  V30 3649 H 363.082 -2.82283 -0.860265 0
M  V30 3650 H 363.163 -2.40969 0.858335 0
M  V30 3651 H 362.807 -4.86954 1.44353 0
M  V30 3652 H 362.737 -5.2578 -0.293752 0
M  V30 3653 H 365.228 -3.77405 0.193356 0
M  V30 3654 H 365.541 -7.66058 1.01858 0
M  V30 3655 H 363.886 -6.89028 0.909145 0
M  V30 3656 H 367.077 -4.6698 0.323612 0
M  V30 3657 H 367.25 -6.44211 0.699693 0
M  V30 3658 N 360.656 0.0484629 -1.57525 0
M  V30 3659 C 361.902 0.744226 -1.88651 0
M  V30 3660 C 362.235 1.76029 -0.820212 0
M  V30 3661 O 361.51 1.93782 0.166985 0
M  V30 3662 C 361.793 1.43128 -3.30434 0
M  V30 3663 C 361.646 0.43005 -4.47739 0
M  V30 3664 C 362.965 2.37031 -3.70816 0
M  V30 3665 H 360.084 0.269089 -0.68612 0
M  V30 3666 H 362.726 0.00713532 -1.89999 0
M  V30 3667 H 360.876 2.05956 -3.29415 0
M  V30 3668 H 362.548 -0.194816 -4.60888 0
M  V30 3669 H 360.791 -0.252522 -4.33064 0
M  V30 3670 H 361.462 0.948874 -5.43783 0
M  V30 3671 H 363.938 1.84263 -3.73077 0
M  V30 3672 H 362.814 2.82094 -4.70865 0
M  V30 3673 H 363.075 3.22864 -3.02012 0
M  V30 3674 N 362.134 1.5431 0.320358 0
M  V30 3675 C 363.081 1.83918 1.39438 0
M  V30 3676 C 364.051 0.686525 1.51248 0
M  V30 3677 O 365.236 0.933269 1.66417 0
M  V30 3678 C 362.376 2.075 2.75749 0
M  V30 3679 C 361.489 3.35177 2.72544 0
M  V30 3680 C 360.624 3.48704 4.00723 0
M  V30 3681 C 359.663 4.70244 3.91838 0
M  V30 3682 N 358.8 4.80679 5.11754 0
M  V30 3683 H 363.64 2.75544 1.13489 0
M  V30 3684 H 361.177 1.36459 0.549309 0
M  V30 3685 H 363.135 2.19166 3.54996 0
M  V30 3686 H 361.765 1.19163 3 0
M  V30 3687 H 360.817 3.32233 1.85271 0
M  V30 3688 H 362.129 4.24534 2.61863 0
M  V30 3689 H 361.283 3.59928 4.88402 0
M  V30 3690 H 360.022 2.57445 4.14214 0
M  V30 3691 H 359.027 4.59072 3.02544 0
M  V30 3692 H 360.252 5.6289 3.7991 0
M  V30 3693 H 358.198 3.92337 5.25745 0
M  V30 3694 H 358.115 5.64007 5.0342 0
M  V30 3695 H 359.383 4.96239 6.01138 0
M  V30 3696 N 363.613 -0.582584 1.46437 0
M  V30 3697 C 364.859 -1.34278 1.51978 0
M  V30 3698 C 365.192 -1.93446 0.170973 0
M  V30 3699 O 364.467 -1.76481 -0.817608 0
M  V30 3700 C 364.75 -2.47203 2.61845 0
M  V30 3701 C 364.603 -1.93069 4.06257 0
M  V30 3702 C 365.922 -3.49247 2.67795 0
M  V30 3703 H 363.041 -0.486876 0.553282 0
M  V30 3704 H 365.683 -0.654437 1.78374 0
M  V30 3705 H 363.833 -3.0592 2.39469 0
M  V30 3706 H 365.505 -1.38808 4.3992 0
M  V30 3707 H 363.748 -1.23898 4.1573 0
M  V30 3708 H 364.419 -2.74586 4.7886 0
M  V30 3709 H 366.895 -3.00411 2.8791 0
M  V30 3710 H 365.771 -4.25719 3.46489 0
M  V30 3711 H 366.032 -4.06482 1.73852 0
M  V30 3712 N 365.091 -1.34144 -0.827227 0
M  V30 3713 C 366.337 -1.26446 -1.58554 0
M  V30 3714 C 366.67 0.1664 -1.93486 0
M  V30 3715 O 365.945 1.1107 -1.59667 0
M  V30 3716 C 366.228 -2.15111 -2.8879 0
M  V30 3717 C 366.081 -3.66712 -2.60465 0
M  V30 3718 C 367.4 -2.03311 -3.90324 0
M  V30 3719 H 364.519 -0.46067 -0.575284 0
M  V30 3720 H 367.161 -1.64356 -0.953269 0
M  V30 3721 H 365.311 -1.8291 -3.42748 0
M  V30 3722 H 366.983 -4.09259 -2.1285 0
M  V30 3723 H 365.226 -3.88014 -1.93978 0
M  V30 3724 H 365.897 -4.24112 -3.53317 0
M  V30 3725 H 368.373 -2.31574 -3.45706 0
M  V30 3726 H 367.249 -2.67582 -4.79261 0
M  V30 3727 H 367.51 -1.00879 -4.30437 0
M  V30 3728 N 366.569 1.04691 -1.17803 0
M  V30 3729 C 367.516 2.12557 -0.899343 0
M  V30 3730 C 368.486 1.65339 0.158771 0
M  V30 3731 O 369.671 1.90789 0.0204797 0
M  V30 3732 C 366.811 3.42481 -0.424315 0
M  V30 3733 C 365.924 4.03346 -1.54713 0
M  V30 3734 C 365.059 5.21208 -1.02546 0
M  V30 3735 C 364.098 5.74089 -2.12339 0
M  V30 3736 N 363.235 6.83247 -1.61612 0
M  V30 3737 H 368.075 2.35734 -1.823 0
M  V30 3738 H 365.612 1.1564 -0.909159 0
M  V30 3739 H 367.57 4.16996 -0.130421 0
M  V30 3740 H 366.2 3.19471 0.462377 0
M  V30 3741 H 365.252 3.2622 -1.95664 0
M  V30 3742 H 366.564 4.38628 -2.37501 0
M  V30 3743 H 365.718 6.02812 -0.685718 0
M  V30 3744 H 364.457 4.87414 -0.167084 0
M  V30 3745 H 363.462 4.91111 -2.47165 0
M  V30 3746 H 364.687 6.0993 -2.98601 0
M  V30 3747 H 362.633 6.5134 -0.780533 0
M  V30 3748 H 362.55 7.17559 -2.38003 0
M  V30 3749 H 363.818 7.68491 -1.30545 0
M  V30 3750 N 368.047 0.979072 1.23499 0
M  V30 3751 C 368.995 0.510604 2.26926 0
M  V30 3752 C 369.989 -0.431691 1.63807 0
M  V30 3753 O 371.195 -0.30573 1.77385 0
M  V30 3754 H 367.57 0.146688 0.737554 0
M  V30 3755 H 369.541 1.39466 2.63803 0
M  V30 3756 C 368.29 -0.172658 3.47271 0
M  V30 3757 H 367.613 0.543331 3.96091 0
M  V30 3758 H 369.053 -0.464101 4.21452 0
M  V30 3759 C 367.512 -1.40345 3.06276 0
M  V30 3760 O 368.042 -2.49978 3.14442 0
M  V30 3761 N 366.248 -1.27362 2.61203 0
M  V30 3762 H 365.795 -0.381584 2.54758 0
M  V30 3763 H 365.753 -2.09822 2.34141 0
M  V30 3764 N 369.525 -1.3858 0.750561 0
M  V30 3765 C 370.472 -2.30483 0.120835 0
M  V30 3766 C 371.442 -1.50022 -0.712923 0
M  V30 3767 O 372.627 -1.78662 -0.669676 0
M  V30 3768 C 369.767 -3.36431 -0.768666 0
M  V30 3769 C 368.88 -4.31927 0.0793922 0
M  V30 3770 C 368.015 -5.24944 -0.81283 0
M  V30 3771 C 367.054 -6.12088 0.0390447 0
M  V30 3772 N 366.191 -6.97412 -0.809969 0
M  V30 3773 H 371.031 -2.83761 0.91015 0
M  V30 3774 H 368.568 -1.39707 0.460463 0
M  V30 3775 H 370.526 -3.96462 -1.29898 0
M  V30 3776 H 369.156 -2.8457 -1.5238 0
M  V30 3777 H 368.208 -3.73382 0.727303 0
M  V30 3778 H 369.52 -4.93319 0.737401 0
M  V30 3779 H 368.674 -5.90078 -1.41042 0
M  V30 3780 H 367.413 -4.63911 -1.50458 0
M  V30 3781 H 366.418 -5.45952 0.649328 0
M  V30 3782 H 367.643 -6.75189 0.727809 0
M  V30 3783 H 365.589 -6.38931 -1.48672 0
M  V30 3784 H 365.506 -7.55712 -0.208789 0
M  V30 3785 H 366.774 -7.66959 -1.39263 0
M  V30 3786 N 371.003 -0.499398 -1.49478 0
M  V30 3787 C 372.252 0.0475259 -2.01644 0
M  V30 3788 C 372.565 1.38195 -1.38425 0
M  V30 3789 O 373.771 2.01547 -1.8191 0
M  V30 3790 C 372.227 0.135164 -3.59646 0
M  V30 3791 C 371.835 -1.19252 -4.31837 0
M  V30 3792 C 373.579 0.632538 -4.19761 0
M  V30 3793 C 371.486 -1.06713 -5.81693 0
M  V30 3794 H 370.416 0.0215349 -0.753692 0
M  V30 3795 H 373.067 -0.638577 -1.7203 0
M  V30 3796 H 371.449 0.885681 -3.85969 0
M  V30 3797 H 372.623 -1.9562 -4.17216 0
M  V30 3798 H 370.938 -1.62321 -3.83459 0
M  V30 3799 H 373.535 0.743833 -5.29501 0
M  V30 3800 H 373.878 1.63098 -3.83021 0
M  V30 3801 H 374.411 -0.0613987 -3.97753 0
M  V30 3802 H 371.15 -2.03979 -6.22955 0
M  V30 3803 H 370.67 -0.344307 -5.98811 0
M  V30 3804 H 372.349 -0.745208 -6.42694 0
M  V30 3805 N 372.481 1.55866 -0.233164 0
M  V30 3806 C 373.444 2.1953 0.658715 0
M  V30 3807 C 374.444 1.16053 1.11303 0
M  V30 3808 O 375.634 1.41218 1.01996 0
M  V30 3809 C 372.766 2.82791 1.90373 0
M  V30 3810 H 373.959 2.99721 0.10347 0
M  V30 3811 H 371.512 1.56291 0.0164245 0
M  V30 3812 H 372.247 2.06501 2.50056 0
M  V30 3813 H 372.032 3.58578 1.58632 0
M  V30 3814 H 373.522 3.31556 2.53891 0
M  V30 3815 N 373.959 -0.0401083 1.57549 0
M  V30 3816 C 374.922 -1.02871 2.04817 0
M  V30 3817 C 375.922 -1.29708 0.950388 0
M  V30 3818 O 377.112 -1.24897 1.21435 0
M  V30 3819 C 374.244 -2.36443 2.45576 0
M  V30 3820 H 375.437 -0.620631 2.93408 0
M  V30 3821 H 372.99 -0.286667 1.53649 0
M  V30 3822 H 373.725 -2.82021 1.60108 0
M  V30 3823 H 373.51 -2.18296 3.25713 0
M  V30 3824 H 375 -3.07441 2.82612 0
M  V30 3825 N 375.437 -1.54477 -0.31217 0
M  V30 3826 C 376.848 -1.64344 -0.885891 0
M  V30 3827 C 377.199 -0.54485 -1.88483 0
M  V30 3828 O 376.324 0.320387 -2.14015 0
M  V30 3829 C 376.919 -2.97908 -1.61357 0
M  V30 3830 C 375.478 -3.09933 -2.13585 0
M  V30 3831 C 374.625 -2.59971 -0.964897 0
M  V30 3832 H 377.576 -1.58448 -0.0894528 0
M  V30 3833 H 377.597 -2.88706 -2.47848 0
M  V30 3834 H 377.109 -3.77845 -0.886277 0
M  V30 3835 H 375.21 -2.34694 -2.89395 0
M  V30 3836 H 375.323 -4.15916 -2.37804 0
M  V30 3837 H 373.687 -2.16147 -1.34731 0
M  V30 3838 H 374.47 -3.42376 -0.251742 0
M  V30 3839 N 376.915 0.57481 -1.46744 0
M  V30 3840 C 378.162 1.33272 -1.52462 0
M  V30 3841 C 378.49 1.93669 -0.179572 0
M  V30 3842 O 377.745 1.7743 0.825664 0
M  V30 3843 C 378.044 2.476 -2.57738 0
M  V30 3844 C 377.71 2.05146 -4.01529 0
M  V30 3845 C 376.372 1.93284 -4.40676 0
M  V30 3846 C 378.724 1.72506 -4.91824 0
M  V30 3847 C 376.052 1.47049 -5.67973 0
M  V30 3848 C 378.404 1.27748 -6.19567 0
M  V30 3849 C 377.068 1.14468 -6.57612 0
M  V30 3850 H 376.338 0.487678 -0.557899 0
M  V30 3851 H 378.985 0.646456 -1.80259 0
M  V30 3852 H 377.29 3.21708 -2.23632 0
M  V30 3853 H 378.987 3.05807 -2.5939 0
M  V30 3854 H 375.577 2.15316 -3.7059 0
M  V30 3855 H 379.761 1.80552 -4.62293 0
M  V30 3856 H 375.017 1.35417 -5.96215 0
M  V30 3857 H 379.191 1.01547 -6.88957 0
M  V30 3858 H 376.818 0.78419 -7.56145 0
M  V30 3859 N 378.394 1.34581 0.820102 0
M  V30 3860 C 379.341 1.2639 1.93117 0
M  V30 3861 C 380.311 0.138554 1.65521 0
M  V30 3862 O 381.496 0.320004 1.88097 0
M  V30 3863 C 378.636 1.02812 3.29429 0
M  V30 3864 C 377.749 2.24146 3.693 0
M  V30 3865 C 376.884 1.93829 4.94574 0
M  V30 3866 C 375.923 3.1129 5.27034 0
M  V30 3867 N 375.06 2.80838 6.43486 0
M  V30 3868 H 379.9 2.21408 1.99455 0
M  V30 3869 H 377.437 1.10077 0.975784 0
M  V30 3870 H 379.395 0.871788 4.0799 0
M  V30 3871 H 378.025 0.114612 3.22596 0
M  V30 3872 H 377.077 2.50691 2.86109 0
M  V30 3873 H 378.389 3.11899 3.89257 0
M  V30 3874 H 377.543 1.74948 5.80929 0
M  V30 3875 H 376.282 1.03341 4.76626 0
M  V30 3876 H 375.287 3.30764 4.39175 0
M  V30 3877 H 376.512 4.02561 5.4692 0
M  V30 3878 H 374.458 1.92929 6.26988 0
M  V30 3879 H 374.375 3.62123 6.63629 0
M  V30 3880 H 375.643 2.65467 7.32903 0
M  V30 3881 N 379.872 -1.04064 1.18357 0
M  V30 3882 C 380.804 -2.12114 0.868358 0
M  V30 3883 C 381.817 -1.62247 -0.134045 0
M  V30 3884 O 383.006 -1.78253 0.0937933 0
M  V30 3885 C 380.106 -3.37773 0.276132 0
M  V30 3886 C 379.279 -4.16874 1.3242 0
M  V30 3887 C 378.338 -5.20861 0.747662 0
M  V30 3888 O 377.364 -5.51141 1.42239 0
M  V30 3889 N 378.566 -5.78715 -0.454823 0
M  V30 3890 H 381.331 -2.39748 1.79836 0
M  V30 3891 H 378.892 -1.20258 1.08396 0
M  V30 3892 H 380.884 -4.04513 -0.123133 0
M  V30 3893 H 379.454 -3.07581 -0.557895 0
M  V30 3894 H 378.674 -3.45456 1.89878 0
M  V30 3895 H 379.962 -4.66516 2.03078 0
M  V30 3896 H 379.36 -5.56415 -1.02073 0
M  V30 3897 H 377.917 -6.46921 -0.79601 0
M  V30 3898 N 381.35 -0.985608 -1.22978 0
M  V30 3899 C 382.313 -0.535071 -2.22867 0
M  V30 3900 C 383.313 0.378123 -1.56291 0
M  V30 3901 O 384.503 0.171092 -1.73358 0
M  V30 3902 C 381.635 0.222702 -3.40172 0
M  V30 3903 H 382.828 -1.41835 -2.6424 0
M  V30 3904 H 380.381 -0.772042 -1.35901 0
M  V30 3905 H 381.116 1.12229 -3.04262 0
M  V30 3906 H 380.901 -0.43288 -3.89703 0
M  V30 3907 H 382.391 0.526335 -4.1427 0
M  V30 3908 N 382.828 1.3818 -0.7579 0
M  V30 3909 C 383.738 2.3421 -0.135247 0
M  V30 3910 C 384.754 1.59487 0.695683 0
M  V30 3911 O 385.93 1.91657 0.618832 0
M  V30 3912 C 382.995 3.3862 0.744139 0
M  V30 3913 C 382.056 4.2918 -0.101658 0
M  V30 3914 C 381.289 5.28603 0.735851 0
M  V30 3915 O 381.512 5.35166 1.97366 0
M  V30 3916 O 380.446 6.01707 0.152372 0
M  V30 3917 H 384.272 2.8916 -0.928436 0
M  V30 3918 H 381.857 1.40101 -0.518855 0
M  V30 3919 H 383.739 4.02539 1.2466 0
M  V30 3920 H 382.414 2.86019 1.51575 0
M  V30 3921 H 381.321 3.68407 -0.650167 0
M  V30 3922 H 382.654 4.85048 -0.836024 0
M  V30 3923 N 384.306 0.507319 1.49211 0
M  V30 3924 C 385.553 -0.0349529 2.0247 0
M  V30 3925 C 385.881 -1.36409 1.38647 0
M  V30 3926 O 385.136 -1.88841 0.513566 0
M  V30 3927 C 385.435 -0.229513 3.56662 0
M  V30 3928 C 385.101 1.02241 4.39156 0
M  V30 3929 C 383.763 1.36557 4.61417 0
M  V30 3930 C 386.115 1.85428 4.871 0
M  V30 3931 C 383.443 2.53999 5.28868 0
M  V30 3932 C 385.795 3.02028 5.55843 0
M  V30 3933 C 384.459 3.36717 5.76349 0
M  V30 3934 H 383.729 -0.0127902 0.74089 0
M  V30 3935 H 386.376 0.668756 1.79443 0
M  V30 3936 H 384.681 -1.0158 3.78403 0
M  V30 3937 H 386.378 -0.663641 3.9547 0
M  V30 3938 H 382.968 0.745124 4.22073 0
M  V30 3939 H 387.152 1.6023 4.69723 0
M  V30 3940 H 382.408 2.81105 5.42946 0
M  V30 3941 H 386.582 3.66808 5.91967 0
M  V30 3942 H 384.209 4.27821 6.28389 0
M  V30 3943 N 385.784 -1.5574 0.241426 0
M  V30 3944 C 386.716 -2.18469 -0.693091 0
M  V30 3945 C 387.729 -1.15942 -1.14286 0
M  V30 3946 O 388.918 -1.42832 -1.07058 0
M  V30 3947 C 386.018 -2.7696 -1.95311 0
M  V30 3948 C 385.191 -4.04853 -1.65568 0
M  V30 3949 C 384.25 -4.47715 -2.76474 0
M  V30 3950 O 383.276 -5.14205 -2.44094 0
M  V30 3951 N 384.478 -4.15044 -4.05855 0
M  V30 3952 H 387.243 -2.99292 -0.156388 0
M  V30 3953 H 384.804 -1.61784 0.0611752 0
M  V30 3954 H 386.796 -3.02594 -2.68736 0
M  V30 3955 H 385.366 -2.00326 -2.39975 0
M  V30 3956 H 384.586 -3.86865 -0.756886 0
M  V30 3957 H 385.874 -4.88246 -1.43153 0
M  V30 3958 H 385.272 -3.61654 -4.34998 0
M  V30 3959 H 383.829 -4.45526 -4.75762 0
M  V30 3960 N 387.262 0.0317525 -1.57568 0
M  V30 3961 C 388.511 0.722131 -1.8833 0
M  V30 3962 C 388.824 1.76664 -0.839587 0
M  V30 3963 O 390.03 2.50942 -1.03635 0
M  V30 3964 C 388.486 1.33544 -3.34207 0
M  V30 3965 C 388.094 0.327415 -4.46802 0
M  V30 3966 C 389.838 2.00585 -3.7412 0
M  V30 3967 C 387.745 0.948915 -5.83738 0
M  V30 3968 H 386.675 0.273466 -0.702661 0
M  V30 3969 H 389.326 -0.0235811 -1.83485 0
M  V30 3970 H 387.708 2.13077 -3.33788 0
M  V30 3971 H 388.882 -0.441006 -4.58685 0
M  V30 3972 H 387.197 -0.240758 -4.15703 0
M  V30 3973 H 389.794 2.47932 -4.73744 0
M  V30 3974 H 390.137 2.82285 -3.05975 0
M  V30 3975 H 390.67 1.27831 -3.76702 0
M  V30 3976 H 387.409 0.171387 -6.55276 0
M  V30 3977 H 386.929 1.68724 -5.7558 0
M  V30 3978 H 388.608 1.45705 -6.3038 0
M  V30 3979 N 388.74 1.54641 0.303973 0
M  V30 3980 C 389.67 1.88386 1.3796 0
M  V30 3981 C 390.651 0.742485 1.5304 0
M  V30 3982 O 391.836 0.997959 1.66597 0
M  V30 3983 C 388.966 2.12854 2.74427 0
M  V30 3984 C 387.92 3.28702 2.74115 0
M  V30 3985 C 387.246 3.38582 4.13844 0
M  V30 3986 C 388.546 4.65881 2.3612 0
M  V30 3987 H 390.24 2.78474 1.09966 0
M  V30 3988 H 387.786 1.33988 0.527556 0
M  V30 3989 H 389.739 2.35047 3.49758 0
M  V30 3990 H 388.463 1.19535 3.03939 0
M  V30 3991 H 387.122 3.06428 2.0124 0
M  V30 3992 H 386.77 2.42784 4.40528 0
M  V30 3993 H 386.47 4.16453 4.14537 0
M  V30 3994 H 387.994 3.63031 4.90959 0
M  V30 3995 H 389.408 4.87823 3.01167 0
M  V30 3996 H 387.805 5.46444 2.48031 0
M  V30 3997 H 388.875 4.66799 1.3125 0
M  V30 3998 N 390.218 -0.567019 1.47046 0
M  V30 3999 C 391.448 -1.34831 1.56538 0
M  V30 4000 C 391.856 -1.8802 0.21101 0
M  V30 4001 O 391.199 -1.65152 -0.804387 0
M  V30 4002 C 391.261 -2.56139 2.52256 0
M  V30 4003 C 390.925 -2.24307 3.98165 0
M  V30 4004 C 391.922 -1.82192 4.86931 0
M  V30 4005 C 389.607 -2.35968 4.43423 0
M  V30 4006 C 391.601 -1.52153 6.18973 0
M  V30 4007 C 389.288 -2.05542 5.75496 0
M  V30 4008 C 390.286 -1.63701 6.63092 0
M  V30 4009 O 389.974 -1.33657 7.92711 0
M  V30 4010 H 389.706 -0.417683 0.531523 0
M  V30 4011 H 392.26 -0.694726 1.93294 0
M  V30 4012 H 390.49 -3.24356 2.10548 0
M  V30 4013 H 392.179 -3.18214 2.51982 0
M  V30 4014 H 392.945 -1.72684 4.53217 0
M  V30 4015 H 388.824 -2.67495 3.75456 0
M  V30 4016 H 392.368 -1.19421 6.87302 0
M  V30 4017 H 388.265 -2.14679 6.08755 0
M  V30 4018 H 389.033 -1.4737 8.05124 0
M  V30 4019 N 391.696 -1.35014 -0.812953 0
M  V30 4020 C 392.944 -1.27678 -1.56661 0
M  V30 4021 C 393.265 0.150359 -1.94419 0
M  V30 4022 O 392.535 1.08532 -1.63088 0
M  V30 4023 H 391.115 -0.469602 -0.580933 0
M  V30 4024 H 393.777 -1.69043 -0.970076 0
M  V30 4025 H 392.873 -1.88833 -2.48492 0
M  V30 4026 N 393.175 1.03435 -1.18907 0
M  V30 4027 C 394.085 2.15075 -0.937015 0
M  V30 4028 C 395.101 1.73706 0.101085 0
M  V30 4029 O 396.277 2.01232 -0.0822948 0
M  V30 4030 C 393.342 3.43458 -0.473057 0
M  V30 4031 C 392.403 3.99172 -1.57989 0
M  V30 4032 C 391.636 5.21427 -1.13797 0
M  V30 4033 O 391.859 5.704 0.000725941 0
M  V30 4034 O 390.793 5.69837 -1.9383 0
M  V30 4035 H 394.619 2.39198 -1.87131 0
M  V30 4036 H 392.204 1.13506 -0.971427 0
M  V30 4037 H 394.086 4.20811 -0.222702 0
M  V30 4038 H 392.761 3.20793 0.432869 0
M  V30 4039 H 391.668 3.23178 -1.88433 0
M  V30 4040 H 393.001 4.2619 -2.46217 0
M  V30 4041 N 394.653 0.992116 1.22453 0
M  V30 4042 C 395.901 0.666215 1.90804 0
M  V30 4043 C 396.222 -0.804152 1.77647 0
M  V30 4044 O 395.492 -1.57629 1.16318 0
M  V30 4045 H 394.072 0.243423 0.706225 0
M  V30 4046 H 396.734 1.25845 1.48825 0
M  V30 4047 H 395.83 0.928069 2.97982 0
M  V30 4048 N 396.131 -1.37776 0.765217 0
M  V30 4049 C 397.38 -1.99092 0.323307 0
M  V30 4050 C 397.693 -1.61434 -1.10446 0
M  V30 4051 O 398.899 -2.15805 -1.64743 0
M  V30 4052 C 397.355 -3.56019 0.527098 0
M  V30 4053 C 396.963 -4.0262 1.96471 0
M  V30 4054 C 398.707 -4.2424 0.148483 0
M  V30 4055 C 396.614 -5.52233 2.11644 0
M  V30 4056 H 395.544 -0.744846 0.117137 0
M  V30 4057 H 398.195 -1.57391 0.943417 0
M  V30 4058 H 396.577 -3.95667 -0.162372 0
M  V30 4059 H 397.751 -3.74234 2.68859 0
M  V30 4060 H 396.066 -3.47161 2.29931 0
M  V30 4061 H 398.663 -5.34159 0.240456 0
M  V30 4062 H 399.006 -4.06446 -0.900422 0
M  V30 4063 H 399.539 -3.89872 0.79025 0
M  V30 4064 H 396.278 -5.74945 3.1483 0
M  V30 4065 H 395.798 -5.82324 1.4373 0
M  V30 4066 H 397.477 -6.18106 1.91193 0
M  V30 4067 N 397.609 -0.515225 -1.4894 0
M  V30 4068 C 398.557 0.269115 -2.31038 0
M  V30 4069 C 399.551 0.949443 -1.40292 0
M  V30 4070 O 400.757 0.87551 -1.57273 0
M  V30 4071 H 397.132 0.10565 -0.744542 0
M  V30 4072 H 399.103 -0.443096 -2.95092 0
M  V30 4073 C 397.852 1.31213 -3.21991 0
M  V30 4074 H 397.175 0.798034 -3.91754 0
M  V30 4075 H 398.615 1.83263 -3.82349 0
M  V30 4076 C 397.074 2.33791 -2.42576 0
M  V30 4077 O 397.604 3.3995 -2.14003 0
M  V30 4078 N 395.81 2.06625 -2.0434 0
M  V30 4079 H 395.357 1.20314 -2.27777 0
M  V30 4080 H 395.315 2.75483 -1.51514 0
M  V30 4081 N 399.087 1.5561 -0.249682 0
M  V30 4082 C 400.334 1.99011 0.374287 0
M  V30 4083 C 400.662 1.13785 1.57744 0
M  V30 4084 O 399.917 0.189326 1.94782 0
M  V30 4085 C 400.216 3.4775 0.824887 0
M  V30 4086 C 399.882 4.50086 -0.270819 0
M  V30 4087 C 398.544 4.77791 -0.571746 0
M  V30 4088 C 400.896 5.11312 -1.01041 0
M  V30 4089 C 398.224 5.63997 -1.61629 0
M  V30 4090 C 400.576 5.98651 -2.0445 0
M  V30 4091 C 399.24 6.24688 -2.35204 0
M  V30 4092 H 398.51 0.728233 0.136961 0
M  V30 4093 H 401.157 1.88122 -0.358087 0
M  V30 4094 H 399.462 3.55985 1.63651 0
M  V30 4095 H 401.159 3.78721 1.31799 0
M  V30 4096 H 397.749 4.28592 -0.026136 0
M  V30 4097 H 401.933 4.89953 -0.791177 0
M  V30 4098 H 397.189 5.82425 -1.85988 0
M  V30 4099 H 401.363 6.45135 -2.62248 0
M  V30 4100 H 398.99 6.91281 -3.16282 0
M  V30 4101 N 400.565 -0.0233959 1.57583 0
M  V30 4102 C 401.795 -0.723631 1.93513 0
M  V30 4103 C 402.203 -1.69115 0.848333 0
M  V30 4104 O 401.546 -1.82781 -0.183484 0
M  V30 4105 C 401.608 -1.53075 3.25282 0
M  V30 4106 C 401.272 -0.727388 4.51174 0
M  V30 4107 C 402.269 -0.0251924 5.19894 0
M  V30 4108 C 399.954 -0.680256 4.97672 0
M  V30 4109 C 401.948 0.713374 6.33395 0
M  V30 4110 C 399.635 0.0620523 6.11068 0
M  V30 4111 C 400.633 0.757622 6.78785 0
M  V30 4112 O 400.321 1.48787 7.90011 0
M  V30 4113 H 400.053 -0.208051 0.643188 0
M  V30 4114 H 402.607 0.0167489 2.05393 0
M  V30 4115 H 400.837 -2.31508 3.09744 0
M  V30 4116 H 402.526 -2.11413 3.46496 0
M  V30 4117 H 403.292 -0.0526003 4.84971 0
M  V30 4118 H 399.171 -1.21116 4.44805 0
M  V30 4119 H 402.715 1.25683 6.86185 0
M  V30 4120 H 398.612 0.0913634 6.45435 0
M  V30 4121 H 399.38 1.40213 8.06401 0
M  V30 4122 N 402.043 -1.548 -0.295768 0
M  V30 4123 C 403.291 -1.73985 -1.02828 0
M  V30 4124 C 403.612 -0.531406 -1.87619 0
M  V30 4125 O 402.882 0.454221 -1.90561 0
M  V30 4126 H 401.462 -0.641556 -0.382642 0
M  V30 4127 H 404.124 -1.92163 -0.325489 0
M  V30 4128 H 403.22 -2.63129 -1.67838 0
M  V30 4129 N 403.521 0.559213 -1.47345 0
M  V30 4130 C 404.431 1.69388 -1.62311 0
M  V30 4131 C 405.447 1.6648 -0.505993 0
M  V30 4132 O 406.623 1.85964 -0.773262 0
M  V30 4133 C 403.688 3.05894 -1.63185 0
M  V30 4134 C 402.749 3.19885 -2.86307 0
M  V30 4135 C 401.982 4.49879 -2.87131 0
M  V30 4136 O 402.205 5.35217 -1.97229 0
M  V30 4137 O 401.139 4.67618 -3.78968 0
M  V30 4138 H 404.965 1.59706 -2.58317 0
M  V30 4139 H 402.55 0.728989 -1.30407 0
M  V30 4140 H 404.432 3.87133 -1.66451 0
M  V30 4141 H 403.107 3.15964 -0.70345 0
M  V30 4142 H 402.014 2.38052 -2.88587 0
M  V30 4143 H 403.347 3.14718 -3.78435 0
M  V30 4144 N 404.999 1.35443 0.805782 0
M  V30 4145 C 405.929 1.31095 1.93226 0
M  V30 4146 C 406.91 0.185244 1.69088 0
M  V30 4147 O 408.095 0.380332 1.90439 0
M  V30 4148 C 405.225 1.08299 3.29983 0
M  V30 4149 C 404.179 2.17519 3.68605 0
M  V30 4150 C 403.505 1.79887 5.03532 0
M  V30 4151 C 404.805 3.5949 3.78898 0
M  V30 4152 H 406.499 2.25352 1.97122 0
M  V30 4153 H 404.045 1.0848 0.946996 0
M  V30 4154 H 405.998 1.03897 4.08391 0
M  V30 4155 H 404.722 0.104885 3.26432 0
M  V30 4156 H 403.381 2.2102 2.92482 0
M  V30 4157 H 403.029 0.80693 4.96485 0
M  V30 4158 H 402.729 2.53001 5.30344 0
M  V30 4159 H 404.253 1.77011 5.84379 0
M  V30 4160 H 405.667 3.58307 4.47536 0
M  V30 4161 H 404.064 4.31371 4.1718 0
M  V30 4162 H 405.134 3.95584 2.80431 0
M  V30 4163 N 406.477 -1.02803 1.19454 0
M  V30 4164 C 407.723 -1.76478 0.999171 0
M  V30 4165 C 408.056 -1.88456 -0.468828 0
M  V30 4166 O 407.331 -1.40198 -1.34814 0
M  V30 4167 C 407.614 -3.19044 1.66981 0
M  V30 4168 C 407.467 -3.14932 3.21151 0
M  V30 4169 C 408.786 -4.17456 1.39349 0
M  V30 4170 H 405.905 -0.640614 0.364393 0
M  V30 4171 H 408.547 -1.20005 1.47305 0
M  V30 4172 H 406.697 -3.67263 1.2669 0
M  V30 4173 H 408.369 -2.74605 3.70661 0
M  V30 4174 H 406.612 -2.52625 3.52652 0
M  V30 4175 H 407.283 -4.1566 3.63223 0
M  V30 4176 H 409.759 -3.77842 1.74283 0
M  V30 4177 H 408.635 -5.154 1.88823 0
M  V30 4178 H 408.896 -4.40949 0.318813 0
M  V30 4179 N 407.956 -0.998596 -1.21925 0
M  V30 4180 C 409.233 -0.593401 -1.86382 0
M  V30 4181 C 409.613 0.92916 -1.89552 0
M  V30 4182 O 408.961 1.81347 -1.39017 0
M  V30 4183 C 409.171 -1.22039 -3.26967 0
M  V30 4184 C 410.519 -1.32449 -4.03413 0
M  V30 4185 O 411.543 -1.17522 -3.36254 0
M  V30 4186 O 410.402 -1.56395 -5.23644 0
M  V30 4187 H 407.496 -0.202385 -0.801854 0
M  V30 4188 H 410.042 -1.09484 -1.29659 0
M  V30 4189 H 408.814 -2.26158 -3.19325 0
M  V30 4190 H 408.437 -0.704906 -3.91301 0
M  V30 4191 N 409.434 1.37368 -0.772513 0
M  V30 4192 C 410.364 2.32856 -0.173304 0
M  V30 4193 C 411.345 1.55818 0.682262 0
M  V30 4194 O 412.53 1.84052 0.619566 0
M  V30 4195 C 409.66 3.40048 0.706007 0
M  V30 4196 C 408.614 4.27973 -0.0483144 0
M  V30 4197 C 407.94 5.26184 0.950491 0
M  V30 4198 C 409.24 5.07665 -1.22776 0
M  V30 4199 H 410.934 2.83217 -0.971002 0
M  V30 4200 H 408.48 1.3617 -0.468377 0
M  V30 4201 H 410.433 4.05827 1.13501 0
M  V30 4202 H 409.157 2.88214 1.53623 0
M  V30 4203 H 407.816 3.63726 -0.458107 0
M  V30 4204 H 407.464 4.7063 1.77529 0
M  V30 4205 H 407.164 5.85872 0.450314 0
M  V30 4206 H 408.688 5.94838 1.37842 0
M  V30 4207 H 410.102 5.66578 -0.875366 0
M  V30 4208 H 408.499 5.76681 -1.66007 0
M  V30 4209 H 409.569 4.40294 -2.03149 0
M  V30 4210 N 410.912 0.523116 1.48665 0
M  V30 4211 C 412.16 -0.0134497 2.02096 0
M  V30 4212 C 412.481 -1.35418 1.40311 0
M  V30 4213 O 411.751 -1.87543 0.566074 0
M  V30 4214 H 410.331 -0.00795915 0.746958 0
M  V30 4215 H 412.993 0.685388 1.82451 0
M  V30 4216 H 412.089 -0.126849 3.11842 0
M  V30 4217 N 412.39 -1.55475 0.257931 0
M  V30 4218 C 413.636 -1.99502 -0.364266 0
M  V30 4219 C 413.969 -1.146 -1.56782 0
M  V30 4220 O 413.244 -0.211968 -1.93342 0
M  V30 4221 C 413.527 -3.51917 -0.763333 0
M  V30 4222 C 413.38 -4.4758 0.446371 0
M  V30 4223 C 414.699 -4.09742 -1.60623 0
M  V30 4224 H 411.818 -0.725277 -0.130929 0
M  V30 4225 H 414.46 -1.8653 0.361446 0
M  V30 4226 H 412.61 -3.63101 -1.38166 0
M  V30 4227 H 414.282 -4.48362 1.08487 0
M  V30 4228 H 412.525 -4.19947 1.08753 0
M  V30 4229 H 413.196 -5.51862 0.123645 0
M  V30 4230 H 415.672 -4.01727 -1.08418 0
M  V30 4231 H 414.548 -5.16631 -1.85429 0
M  V30 4232 H 414.809 -3.58889 -2.58169 0
M  V30 4233 N 413.868 0.0150385 -1.57593 0
M  V30 4234 C 414.815 1.01126 -2.07466 0
M  V30 4235 C 415.785 1.35064 -0.966794 0
M  V30 4236 O 416.97 1.4516 -1.23827 0
M  V30 4237 C 414.11 2.30276 -2.57035 0
M  V30 4238 C 413.223 2.02373 -3.81666 0
M  V30 4239 C 412.358 3.25496 -4.19793 0
M  V30 4240 C 411.397 2.93211 -5.37303 0
M  V30 4241 N 410.534 4.08826 -5.70794 0
M  V30 4242 H 415.374 0.57901 -2.92321 0
M  V30 4243 H 412.911 0.27426 -1.44521 0
M  V30 4244 H 414.869 3.05757 -2.83846 0
M  V30 4245 H 413.499 2.71197 -1.75077 0
M  V30 4246 H 412.551 1.17327 -3.61854 0
M  V30 4247 H 413.863 1.74567 -4.67256 0
M  V30 4248 H 413.017 4.09333 -4.47807 0
M  V30 4249 H 411.756 3.56428 -3.32882 0
M  V30 4250 H 410.761 2.07777 -5.09027 0
M  V30 4251 H 411.986 2.63542 -6.25877 0
M  V30 4252 H 409.932 4.39682 -4.86842 0
M  V30 4253 H 409.849 3.84491 -6.50924 0
M  V30 4254 H 411.117 4.93496 -6.03392 0
M  V30 4255 N 415.346 1.54954 0.287554 0
M  V30 4256 C 416.256 1.8991 1.37736 0
M  V30 4257 C 417.272 0.794701 1.54792 0
M  V30 4258 O 418.448 1.09243 1.69198 0
M  V30 4259 C 415.513 2.15108 2.71899 0
M  V30 4260 C 414.574 3.38752 2.63715 0
M  V30 4261 C 413.807 3.62739 3.91479 0
M  V30 4262 O 414.03 2.89492 4.91478 0
M  V30 4263 O 412.964 4.56267 3.92561 0
M  V30 4264 H 416.79 2.82652 1.11092 0
M  V30 4265 H 414.375 1.41315 0.484807 0
M  V30 4266 H 416.257 2.32806 3.51254 0
M  V30 4267 H 414.932 1.25551 2.9836 0
M  V30 4268 H 413.839 3.26405 1.82786 0
M  V30 4269 H 415.172 4.28483 2.42205 0
M  V30 4270 N 416.824 -0.551391 1.4764 0
M  V30 4271 C 417.771 -1.65796 1.60563 0
M  V30 4272 C 418.741 -1.59932 0.448428 0
M  V30 4273 O 419.926 -1.78679 0.669222 0
M  V30 4274 C 417.066 -3.04108 1.63133 0
M  V30 4275 C 416.179 -3.20365 2.89811 0
M  V30 4276 C 415.314 -4.49109 2.8368 0
M  V30 4277 C 414.353 -4.58819 4.05156 0
M  V30 4278 N 413.49 -5.78926 3.97227 0
M  V30 4279 H 418.33 -1.54088 2.5507 0
M  V30 4280 H 415.867 -0.75052 1.26513 0
M  V30 4281 H 417.825 -3.84207 1.62606 0
M  V30 4282 H 416.455 -3.14637 0.721341 0
M  V30 4283 H 415.507 -2.33659 3.00179 0
M  V30 4284 H 416.819 -3.23402 3.79753 0
M  V30 4285 H 415.973 -5.37475 2.81434 0
M  V30 4286 H 414.712 -4.4856 1.91431 0
M  V30 4287 H 413.717 -3.68864 4.077 0
M  V30 4288 H 414.942 -4.61124 4.98539 0
M  V30 4289 H 412.888 -5.79314 3.07785 0
M  V30 4290 H 412.805 -5.83367 4.80853 0
M  V30 4291 H 414.073 -6.69637 3.99007 0
M  V30 4292 N 418.302 -1.35869 -0.798587 0
M  V30 4293 C 419.232 -1.32118 -1.92528 0
M  V30 4294 C 420.213 -0.194209 -1.68988 0
M  V30 4295 O 421.398 -0.390426 -1.90235 0
M  V30 4296 C 418.528 -1.10047 -3.29404 0
M  V30 4297 C 417.482 -2.19471 -3.67446 0
M  V30 4298 C 416.808 -1.82555 -5.02571 0
M  V30 4299 C 418.108 -3.61495 -3.76987 0
M  V30 4300 H 419.802 -2.26394 -1.95924 0
M  V30 4301 H 417.348 -1.08981 -0.94123 0
M  V30 4302 H 419.301 -1.06061 -4.07835 0
M  V30 4303 H 418.025 -0.122195 -3.26371 0
M  V30 4304 H 416.684 -2.22568 -2.91306 0
M  V30 4305 H 416.332 -0.833249 -4.9605 0
M  V30 4306 H 416.032 -2.5581 -5.28995 0
M  V30 4307 H 417.556 -1.80108 -5.83432 0
M  V30 4308 H 418.97 -3.60676 -4.4563 0
M  V30 4309 H 417.367 -4.33577 -4.14887 0
M  V30 4310 H 418.437 -3.97065 -2.78329 0
M  V30 4311 N 419.78 1.02168 -1.19998 0
M  V30 4312 C 421.029 1.75091 -1.0013 0
M  V30 4313 C 421.342 1.89923 0.467835 0
M  V30 4314 O 422.548 2.59888 0.785515 0
M  V30 4315 C 421.004 3.14892 -1.74273 0
M  V30 4316 C 420.612 3.0809 -3.25245 0
M  V30 4317 C 422.356 3.9206 -1.62755 0
M  V30 4318 C 420.263 4.42867 -3.91948 0
M  V30 4319 H 419.193 0.656394 -0.37103 0
M  V30 4320 H 421.844 1.14284 -1.43567 0
M  V30 4321 H 420.226 3.7621 -1.2362 0
M  V30 4322 H 421.4 2.5611 -3.83072 0
M  V30 4323 H 419.715 2.44416 -3.3712 0
M  V30 4324 H 422.312 4.91764 -2.09934 0
M  V30 4325 H 422.655 4.12199 -0.582894 0
M  V30 4326 H 423.188 3.37359 -2.10793 0
M  V30 4327 H 419.927 4.27931 -4.96543 0
M  V30 4328 H 419.447 4.94874 -3.3891 0
M  V30 4329 H 421.126 5.11728 -3.95909 0
M  V30 4330 N 421.258 1.00505 1.21394 0
M  V30 4331 C 422.168 0.574806 2.27449 0
M  V30 4332 C 423.184 -0.382206 1.6975 0
M  V30 4333 O 424.36 -0.246027 1.99892 0
M  V30 4334 C 421.425 -0.0917414 3.46579 0
M  V30 4335 C 420.486 0.909758 4.1955 0
M  V30 4336 C 419.719 0.274924 5.32991 0
M  V30 4337 O 419.942 -0.928254 5.62796 0
M  V30 4338 O 418.876 0.985877 5.93771 0
M  V30 4339 H 422.702 1.45744 2.66444 0
M  V30 4340 H 420.287 0.773923 1.27792 0
M  V30 4341 H 422.169 -0.464551 4.18832 0
M  V30 4342 H 420.844 -0.948755 3.09484 0
M  V30 4343 H 419.751 1.33372 3.49518 0
M  V30 4344 H 421.084 1.73636 4.60555 0
M  V30 4345 N 422.737 -1.36956 0.779787 0
M  V30 4346 C 423.684 -2.30175 0.169697 0
M  V30 4347 C 424.654 -1.51501 -0.68094 0
M  V30 4348 O 425.839 -1.80042 -0.631629 0
M  V30 4349 C 422.979 -3.37985 -0.697131 0
M  V30 4350 C 422.092 -4.31661 0.170992 0
M  V30 4351 C 421.227 -5.2655 -0.701298 0
M  V30 4352 C 420.266 -6.11867 0.168869 0
M  V30 4353 N 419.403 -6.98973 -0.661855 0
M  V30 4354 H 424.243 -2.81767 0.970135 0
M  V30 4355 H 421.78 -1.38699 0.489994 0
M  V30 4356 H 423.738 -3.99128 -1.2146 0
M  V30 4357 H 422.368 -2.87739 -1.46309 0
M  V30 4358 H 421.42 -3.71756 0.80634 0
M  V30 4359 H 422.732 -4.91644 0.841875 0
M  V30 4360 H 421.886 -5.92937 -1.28494 0
M  V30 4361 H 420.625 -4.66998 -1.40584 0
M  V30 4362 H 419.63 -5.44452 0.764986 0
M  V30 4363 H 420.855 -6.73493 0.870863 0
M  V30 4364 H 418.801 -6.41941 -1.35086 0
M  V30 4365 H 418.718 -7.55984 -0.0484447 0
M  V30 4366 H 419.986 -7.6974 -1.22963 0
M  V30 4367 N 424.215 -0.530993 -1.48385 0
M  V30 4368 C 425.178 0.220497 -2.28137 0
M  V30 4369 C 426.178 0.866851 -1.35434 0
M  V30 4370 O 427.368 0.726746 -1.58316 0
M  V30 4371 C 424.5 1.31921 -3.1434 0
M  V30 4372 H 425.693 -0.479714 -2.96038 0
M  V30 4373 H 423.246 -0.286968 -1.53643 0
M  V30 4374 H 423.981 2.05264 -2.51072 0
M  V30 4375 H 423.766 0.86085 -3.82533 0
M  V30 4376 H 425.256 1.84776 -3.74497 0
M  V30 4377 N 425.693 1.55336 -0.266172 0
M  V30 4378 C 426.941 1.99003 0.35246 0
M  V30 4379 C 427.262 1.15591 1.57047 0
M  V30 4380 O 426.532 0.243268 1.94384 0
M  V30 4381 H 425.112 0.735025 0.133217 0
M  V30 4382 H 427.774 1.91367 -0.369434 0
M  V30 4383 H 426.87 3.05289 0.648453 0
M  V30 4384 N 427.171 -0.0066808 1.57599 0
M  V30 4385 C 428.134 -0.985035 2.06953 0
M  V30 4386 C 429.134 -1.27663 0.977687 0
M  V30 4387 O 430.324 -1.22293 1.24057 0
M  V30 4388 C 427.456 -2.3118 2.50536 0
M  V30 4389 H 428.649 -0.558255 2.94658 0
M  V30 4390 H 426.202 -0.254011 1.54222 0
M  V30 4391 H 426.937 -2.78561 1.66054 0
M  V30 4392 H 426.722 -2.11338 3.3027 0
M  V30 4393 H 428.212 -3.01377 2.8907 0
M  V30 4394 N 428.649 -1.55105 -0.279332 0
M  V30 4395 C 429.895 -1.76597 -1.00921 0
M  V30 4396 C 430.25 -0.556831 -1.84166 0
M  V30 4397 O 429.543 0.450573 -1.86227 0
M  V30 4398 C 429.737 -3.0086 -1.92919 0
M  V30 4399 C 429.566 -4.33744 -1.18728 0
M  V30 4400 C 428.336 -4.9712 -0.905545 0
M  V30 4401 C 430.534 -5.11009 -0.580857 0
M  V30 4402 N 428.516 -6.13749 -0.136169 0
M  V30 4403 C 429.887 -6.19976 0.0546661 0
M  V30 4404 C 431.942 -4.95502 -0.488067 0
M  V30 4405 C 430.645 -7.15123 0.774028 0
M  V30 4406 C 432.671 -5.90999 0.217688 0
M  V30 4407 C 432.033 -6.9935 0.841975 0
M  V30 4408 H 428.132 -0.698553 -0.351493 0
M  V30 4409 H 430.716 -1.92595 -0.285531 0
M  V30 4410 H 428.887 -2.86249 -2.62519 0
M  V30 4411 H 430.619 -3.10784 -2.59221 0
M  V30 4412 H 427.374 -4.57903 -1.20921 0
M  V30 4413 H 427.798 -6.7659 0.235665 0
M  V30 4414 H 432.44 -4.11841 -0.956406 0
M  V30 4415 H 430.158 -7.9831 1.25407 0
M  V30 4416 H 433.744 -5.81078 0.289717 0
M  V30 4417 H 432.624 -7.71973 1.37939 0
M  V30 4418 N 430.127 0.543554 -1.4793 0
M  V30 4419 C 431.357 1.32324 -1.58663 0
M  V30 4420 C 431.765 1.8766 -0.240896 0
M  V30 4421 O 431.108 1.66411 0.778011 0
M  V30 4422 C 431.17 2.52094 -2.56299 0
M  V30 4423 C 430.834 2.17944 -4.01683 0
M  V30 4424 C 431.831 1.74422 -4.89768 0
M  V30 4425 C 429.516 2.28884 -4.47121 0
M  V30 4426 C 431.51 1.42287 -6.21316 0
M  V30 4427 C 429.197 1.96361 -5.78693 0
M  V30 4428 C 430.195 1.53132 -6.65612 0
M  V30 4429 O 429.883 1.21029 -7.94737 0
M  V30 4430 H 429.615 0.409174 -0.538101 0
M  V30 4431 H 432.169 0.663887 -1.94375 0
M  V30 4432 H 430.399 3.20965 -2.15681 0
M  V30 4433 H 432.088 3.14165 -2.57012 0
M  V30 4434 H 432.854 1.65452 -4.55907 0
M  V30 4435 H 428.733 2.61488 -3.79664 0
M  V30 4436 H 432.277 1.08472 -6.89115 0
M  V30 4437 H 428.174 2.04967 -6.12094 0
M  V30 4438 H 428.942 1.34543 -8.07366 0
M  V30 4439 N 431.605 1.3629 0.791371 0
M  V30 4440 C 432.83 1.33726 1.58531 0
M  V30 4441 C 433.255 -0.0794933 1.87932 0
M  V30 4442 O 432.613 -1.05087 1.47738 0
M  V30 4443 C 432.661 2.16425 2.88431 0
M  V30 4444 O 431.765 1.5554 3.81944 0
M  V30 4445 H 431.106 0.457793 0.480959 0
M  V30 4446 H 433.636 1.79547 0.981031 0
M  V30 4447 H 433.646 2.28933 3.37718 0
M  V30 4448 H 432.321 3.19415 2.66359 0
M  V30 4449 H 430.898 1.51961 3.40532 0
M  V30 4450 N 433.083 -1.0153 1.20538 0
M  V30 4451 C 434.313 -1.78487 1.04048 0
M  V30 4452 C 434.721 -1.84631 -0.413292 0
M  V30 4453 O 434.064 -1.29919 -1.29872 0
M  V30 4454 C 434.126 -3.24367 1.55003 0
M  V30 4455 C 433.79 -3.41827 3.0332 0
M  V30 4456 C 434.787 -3.30941 4.00966 0
M  V30 4457 C 432.472 -3.67602 3.42307 0
M  V30 4458 C 434.466 -3.45577 5.35589 0
M  V30 4459 C 432.153 -3.81881 4.77085 0
M  V30 4460 C 433.151 -3.70874 5.73534 0
M  V30 4461 O 432.839 -3.84714 7.05868 0
M  V30 4462 H 432.571 -0.568108 0.366373 0
M  V30 4463 H 435.125 -1.28677 1.60098 0
M  V30 4464 H 433.355 -3.75266 0.933397 0
M  V30 4465 H 435.044 -3.82963 1.34514 0
M  V30 4466 H 435.81 -3.10964 3.72191 0
M  V30 4467 H 431.689 -3.75256 2.67776 0
M  V30 4468 H 435.233 -3.36902 6.10854 0
M  V30 4469 H 431.13 -4.01359 5.0555 0
M  V30 4470 H 431.898 -4.01724 7.13134 0
M  V30 4471 N 434.561 -1.01147 -1.20859 0
M  V30 4472 C 435.508 -0.577354 -2.23462 0
M  V30 4473 C 436.478 0.399922 -1.61214 0
M  V30 4474 O 437.663 0.300515 -1.88419 0
M  V30 4475 C 434.803 0.083372 -3.44999 0
M  V30 4476 C 433.916 -0.937856 -4.21697 0
M  V30 4477 C 433.051 -0.248717 -5.30617 0
M  V30 4478 C 432.09 -1.25705 -5.99053 0
M  V30 4479 N 431.227 -0.594939 -6.99575 0
M  V30 4480 H 436.067 -1.45695 -2.59956 0
M  V30 4481 H 433.604 -0.729428 -1.27741 0
M  V30 4482 H 435.562 0.483535 -4.14388 0
M  V30 4483 H 434.192 0.926645 -3.09214 0
M  V30 4484 H 433.244 -1.45622 -3.51423 0
M  V30 4485 H 434.556 -1.70493 -4.68757 0
M  V30 4486 H 433.71 0.207215 -6.06346 0
M  V30 4487 H 432.449 0.55071 -4.84581 0
M  V30 4488 H 431.454 -1.72343 -5.2209 0
M  V30 4489 H 432.679 -2.05767 -6.47176 0
M  V30 4490 H 430.625 0.184713 -6.5574 0
M  V30 4491 H 430.542 -1.30017 -7.44736 0
M  V30 4492 H 431.81 -0.162427 -7.79331 0
M  V30 4493 N 436.039 1.36541 -0.78704 0
M  V30 4494 C 437.287 1.98911 -0.357633 0
M  V30 4495 C 437.608 1.62778 1.07371 0
M  V30 4496 O 436.878 0.900612 1.73971 0
M  V30 4497 H 435.458 0.735734 -0.129246 0
M  V30 4498 H 438.12 1.66776 -1.00855 0
M  V30 4499 H 437.216 3.08874 -0.447549 0
M  V30 4500 N 437.518 0.538854 1.48102 0
M  V30 4501 C 438.428 -0.222648 2.33541 0
M  V30 4502 C 439.444 -0.930225 1.47047 0
M  V30 4503 O 440.62 -0.903211 1.80011 0
M  V30 4504 C 437.685 -1.25064 3.23357 0
M  V30 4505 C 436.746 -0.552469 4.2573 0
M  V30 4506 C 435.979 -1.53149 5.11254 0
M  V30 4507 O 436.202 -2.76487 4.9891 0
M  V30 4508 O 435.136 -1.06602 5.92385 0
M  V30 4509 H 438.962 0.477707 2.99919 0
M  V30 4510 H 436.547 0.299669 1.46364 0
M  V30 4511 H 438.429 -1.8445 3.78888 0
M  V30 4512 H 437.104 -1.93325 2.59629 0
M  V30 4513 H 436.011 0.082114 3.7401 0
M  V30 4514 H 437.344 0.0883526 4.92121 0
M  V30 4515 N 438.996 -1.55193 0.274407 0
M  V30 4516 C 439.943 -2.225 -0.613374 0
M  V30 4517 C 440.913 -1.19823 -1.15029 0
M  V30 4518 O 442.098 -1.48362 -1.19973 0
M  V30 4519 C 439.238 -2.94927 -1.79199 0
M  V30 4520 C 438.351 -4.12322 -1.28899 0
M  V30 4521 C 437.486 -4.72394 -2.42934 0
M  V30 4522 C 436.525 -5.81984 -1.89634 0
M  V30 4523 N 435.662 -6.36123 -2.9714 0
M  V30 4524 H 440.502 -2.97982 -0.032756 0
M  V30 4525 H 438.039 -1.47099 -0.00440146 0
M  V30 4526 H 439.997 -3.35134 -2.48478 0
M  V30 4527 H 438.627 -2.2187 -2.34465 0
M  V30 4528 H 437.679 -3.7724 -0.489327 0
M  V30 4529 H 438.991 -4.91355 -0.858587 0
M  V30 4530 H 438.145 -5.15317 -3.20208 0
M  V30 4531 H 436.884 -3.92636 -2.8929 0
M  V30 4532 H 435.889 -5.38511 -1.1084 0
M  V30 4533 H 437.114 -6.6361 -1.44215 0
M  V30 4534 H 435.06 -5.59259 -3.42878 0
M  V30 4535 H 434.977 -7.10427 -2.58515 0
M  V30 4536 H 436.245 -6.83704 -3.74391 0
M  V30 4537 N 440.474 -0.00167713 -1.576 0
M  V30 4538 C 441.723 0.682021 -1.89819 0
M  V30 4539 C 442.036 1.74844 -0.876871 0
M  V30 4540 O 443.242 2.48688 -1.08934 0
M  V30 4541 C 441.698 1.26425 -3.36964 0
M  V30 4542 C 441.306 0.232568 -4.47396 0
M  V30 4543 C 443.05 1.92604 -3.78291 0
M  V30 4544 C 440.957 0.824882 -5.85619 0
M  V30 4545 H 439.887 0.258499 -0.708304 0
M  V30 4546 H 442.538 -0.0624957 -1.83394 0
M  V30 4547 H 440.92 2.05949 -3.38232 0
M  V30 4548 H 442.094 -0.5382 -4.57646 0
M  V30 4549 H 440.409 -0.32888 -4.15099 0
M  V30 4550 H 443.006 2.37827 -4.78897 0
M  V30 4551 H 443.349 2.75732 -3.11894 0
M  V30 4552 H 443.882 1.19812 -3.79328 0
M  V30 4553 H 440.621 0.0323542 -6.55492 0
M  V30 4554 H 440.141 1.56477 -5.79029 0
M  V30 4555 H 441.82 1.32301 -6.33329 0
M  V30 4556 N 441.952 1.55251 0.271103 0
M  V30 4557 C 443.2 1.75599 1.00047 0
M  V30 4558 C 443.521 0.561188 1.8675 0
M  V30 4559 O 442.791 -0.423846 1.9126 0
M  V30 4560 H 441.371 0.647562 0.372387 0
M  V30 4561 H 444.033 1.92656 0.294876 0
M  V30 4562 H 443.129 2.65766 1.6363 0
M  V30 4563 N 443.43 -0.535701 1.48216 0
M  V30 4564 C 444.362 -1.65662 1.58394 0
M  V30 4565 C 445.375 -1.5591 0.468607 0
M  V30 4566 O 446.564 -1.62475 0.7392 0
M  V30 4567 C 443.664 -3.04276 1.4923 0
M  V30 4568 C 442.837 -3.39567 2.75705 0
M  V30 4569 C 441.896 -4.57436 2.60075 0
M  V30 4570 O 440.922 -4.60942 3.33948 0
M  V30 4571 N 442.124 -5.55259 1.69315 0
M  V30 4572 H 444.889 -1.5737 2.55058 0
M  V30 4573 H 442.45 -0.722845 1.44867 0
M  V30 4574 H 444.442 -3.80994 1.36477 0
M  V30 4575 H 443.012 -3.06677 0.605632 0
M  V30 4576 H 442.232 -2.52083 3.03064 0
M  V30 4577 H 443.52 -3.59929 3.59623 0
M  V30 4578 H 442.918 -5.552 1.08489 0
M  V30 4579 H 441.475 -6.31218 1.62504 0
M  V30 4580 N 444.908 -1.36708 -0.784132 0
M  V30 4581 C 446.156 -1.30972 -1.53918 0
M  V30 4582 C 446.477 0.109086 -1.94695 0
M  V30 4583 O 445.747 1.05048 -1.65353 0
M  V30 4584 H 444.327 -0.481819 -0.570841 0
M  V30 4585 H 446.989 -1.71063 -0.934002 0
M  V30 4586 H 446.085 -1.94061 -2.44431 0
M  V30 4587 N 446.386 1.0089 -1.21074 0
M  V30 4588 C 447.333 2.09588 -0.966512 0
M  V30 4589 C 448.303 1.65761 0.106089 0
M  V30 4590 O 449.488 1.90758 -0.0402287 0
M  V30 4591 C 446.628 3.40958 -0.533058 0
M  V30 4592 C 445.741 3.9822 -1.67467 0
M  V30 4593 C 444.876 5.17682 -1.19076 0
M  V30 4594 C 443.915 5.67043 -2.30496 0
M  V30 4595 N 443.052 6.77759 -1.83267 0
M  V30 4596 H 447.892 2.29815 -1.89708 0
M  V30 4597 H 445.429 1.12689 -0.945489 0
M  V30 4598 H 447.387 4.1637 -0.263019 0
M  V30 4599 H 446.017 3.20781 0.360505 0
M  V30 4600 H 445.069 3.1983 -2.05944 0
M  V30 4601 H 446.381 4.3085 -2.51336 0
M  V30 4602 H 445.535 6.00326 -0.877151 0
M  V30 4603 H 444.274 4.86635 -0.322066 0
M  V30 4604 H 443.279 4.82999 -2.62664 0
M  V30 4605 H 444.504 6.00121 -3.17855 0
M  V30 4606 H 442.45 6.48527 -0.987356 0
M  V30 4607 H 442.367 7.09624 -2.60711 0
M  V30 4608 H 443.635 7.63949 -1.54928 0
M  V30 4609 N 447.864 1.01787 1.20321 0
M  V30 4610 C 448.827 0.593972 2.2137 0
M  V30 4611 C 449.827 -0.336553 1.57239 0
M  V30 4612 O 451.017 -0.125069 1.7375 0
M  V30 4613 C 448.149 -0.132433 3.40643 0
M  V30 4614 H 449.342 1.48791 2.60387 0
M  V30 4615 H 446.895 0.807803 1.33807 0
M  V30 4616 H 447.63 -1.04123 3.0713 0
M  V30 4617 H 447.415 0.53605 3.88418 0
M  V30 4618 H 448.905 -0.416314 4.1552 0
M  V30 4619 N 449.342 -1.36122 0.79427 0
M  V30 4620 C 450.29 -2.31871 0.184023 0
M  V30 4621 C 451.284 -1.56041 -0.659365 0
M  V30 4622 O 452.49 -1.71266 -0.553906 0
M  V30 4623 H 448.865 -0.750896 0.0407373 0
M  V30 4624 H 450.836 -2.80898 1.00693 0
M  V30 4625 C 449.585 -3.41324 -0.662813 0
M  V30 4626 H 448.908 -3.99793 -0.0231944 0
M  V30 4627 H 450.348 -4.10629 -1.05639 0
M  V30 4628 C 448.807 -2.83308 -1.82313 0
M  V30 4629 O 449.337 -2.75863 -2.91997 0
M  V30 4630 N 447.543 -2.40529 -1.63077 0
M  V30 4631 H 447.09 -2.46785 -0.738591 0
M  V30 4632 H 447.048 -2.02059 -2.40872 0
M  V30 4633 N 450.82 -0.546701 -1.47814 0
M  V30 4634 C 451.783 0.196287 -2.28358 0
M  V30 4635 C 452.783 0.852437 -1.36346 0
M  V30 4636 O 453.973 0.709913 -1.59078 0
M  V30 4637 C 451.105 1.28579 -3.15722 0
M  V30 4638 H 452.298 -0.511086 -2.95513 0
M  V30 4639 H 449.851 -0.303248 -1.5333 0
M  V30 4640 H 450.586 2.0259 -2.53235 0
M  V30 4641 H 450.371 0.820229 -3.83425 0
M  V30 4642 H 451.861 1.80793 -3.76435 0
M  V30 4643 N 452.299 1.55045 -0.282633 0
M  V30 4644 C 453.527 2.04168 0.33512 0
M  V30 4645 C 453.942 1.16071 1.48906 0
M  V30 4646 O 453.299 0.182391 1.81586 0
M  V30 4647 C 453.35 3.52332 0.808957 0
M  V30 4648 O 453.071 4.37078 -0.299038 0
M  V30 4649 C 454.572 4.17375 1.49375 0
M  V30 4650 H 451.792 0.666744 0.0754543 0
M  V30 4651 H 454.336 2.00205 -0.416918 0
M  V30 4652 H 452.491 3.56715 1.51106 0
M  V30 4653 H 452.905 5.24458 0.0665514 0
M  V30 4654 H 454.379 5.22627 1.77664 0
M  V30 4655 H 454.856 3.65999 2.42778 0
M  V30 4656 H 455.462 4.17016 0.835305 0
M  V30 4657 N 453.777 0.010035 1.57597 0
M  V30 4658 C 454.74 -0.963029 2.07986 0
M  V30 4659 C 455.74 -1.26619 0.991173 0
M  V30 4660 O 456.93 -1.2097 1.25347 0
M  V30 4661 C 454.062 -2.2851 2.52974 0
M  V30 4662 H 455.255 -0.526971 2.95234 0
M  V30 4663 H 452.808 -0.237639 1.54483 0
M  V30 4664 H 453.543 -2.76784 1.69 0
M  V30 4665 H 453.328 -2.07824 3.32493 0
M  V30 4666 H 454.818 -2.98294 2.9225 0
M  V30 4667 N 455.255 -1.55392 -0.262866 0
M  V30 4668 C 456.501 -1.77657 -0.990424 0
M  V30 4669 C 456.856 -0.576333 -1.83565 0
M  V30 4670 O 456.149 0.430795 -1.86694 0
M  V30 4671 C 456.343 -3.02889 -1.89718 0
M  V30 4672 C 456.172 -4.34979 -1.14121 0
M  V30 4673 C 454.942 -4.98052 -0.852768 0
M  V30 4674 C 457.14 -5.11597 -0.526625 0
M  V30 4675 N 455.122 -6.13859 -0.0710649 0
M  V30 4676 C 456.493 -6.19883 0.12042 0
M  V30 4677 C 458.548 -4.95992 -0.435485 0
M  V30 4678 C 457.251 -7.14262 0.849833 0
M  V30 4679 C 459.277 -5.90735 0.280359 0
M  V30 4680 C 458.639 -6.98417 0.916103 0
M  V30 4681 H 454.738 -0.702242 -0.344064 0
M  V30 4682 H 457.322 -1.92887 -0.265088 0
M  V30 4683 H 455.493 -2.89017 -2.59468 0
M  V30 4684 H 457.225 -3.13516 -2.5591 0
M  V30 4685 H 453.98 -4.5916 -1.16058 0
M  V30 4686 H 454.404 -6.76302 0.307413 0
M  V30 4687 H 459.046 -4.12832 -0.912671 0
M  V30 4688 H 456.764 -7.96935 1.33867 0
M  V30 4689 H 460.35 -5.80738 0.351332 0
M  V30 4690 H 459.23 -7.70467 1.46119 0
M  V30 4691 N 456.733 0.527833 -1.48498 0
M  V30 4692 C 457.663 1.64136 -1.66077 0
M  V30 4693 C 458.644 1.62286 -0.509625 0
M  V30 4694 O 459.829 1.79449 -0.742413 0
M  V30 4695 C 456.959 3.02717 -1.70234 0
M  V30 4696 C 455.913 3.19426 -2.8487 0
M  V30 4697 C 455.239 4.5909 -2.74118 0
M  V30 4698 C 456.539 3.01993 -4.26142 0
M  V30 4699 H 458.233 1.4968 -2.593 0
M  V30 4700 H 455.779 0.718654 -1.24785 0
M  V30 4701 H 457.732 3.80491 -1.8112 0
M  V30 4702 H 456.456 3.18201 -0.735911 0
M  V30 4703 H 455.115 2.4407 -2.73542 0
M  V30 4704 H 454.763 4.71413 -1.7544 0
M  V30 4705 H 454.463 4.71214 -3.51042 0
M  V30 4706 H 455.987 5.3896 -2.86974 0
M  V30 4707 H 457.401 3.69558 -4.38292 0
M  V30 4708 H 455.798 3.2561 -5.04082 0
M  V30 4709 H 456.868 1.98396 -4.42456 0
M  V30 4710 N 458.211 1.37122 0.776871 0
M  V30 4711 C 459.158 1.3247 1.88998 0
M  V30 4712 C 460.128 0.191143 1.64997 0
M  V30 4713 O 461.313 0.379683 1.86984 0
M  V30 4714 C 458.453 1.13241 3.25992 0
M  V30 4715 C 457.566 2.35782 3.61982 0
M  V30 4716 C 456.701 2.09465 4.88158 0
M  V30 4717 C 455.74 3.279 5.16864 0
M  V30 4718 N 454.877 3.01167 6.34226 0
M  V30 4719 H 459.717 2.27642 1.9231 0
M  V30 4720 H 457.254 1.13125 0.94027 0
M  V30 4721 H 459.212 1.00115 4.0501 0
M  V30 4722 H 457.842 0.217186 3.22069 0
M  V30 4723 H 456.894 2.59666 2.77989 0
M  V30 4724 H 458.206 3.24125 3.79137 0
M  V30 4725 H 457.36 1.93341 5.75069 0
M  V30 4726 H 456.099 1.18452 4.73097 0
M  V30 4727 H 455.104 3.44569 4.2843 0
M  V30 4728 H 456.329 4.19757 5.33836 0
M  V30 4729 H 454.275 2.12779 6.20533 0
M  V30 4730 H 454.192 3.83052 6.51772 0
M  V30 4731 H 455.46 2.88649 7.24087 0
M  V30 4732 N 459.689 -1.00246 1.21608 0
M  V30 4733 C 460.966 -1.71336 0.943568 0
M  V30 4734 C 461.346 -2.03972 -0.543943 0
M  V30 4735 O 460.694 -1.71545 -1.50946 0
M  V30 4736 C 460.904 -2.97094 1.83128 0
M  V30 4737 C 462.252 -3.70071 2.08165 0
M  V30 4738 O 463.276 -3.07081 1.80498 0
M  V30 4739 O 462.135 -4.83376 2.54971 0
M  V30 4740 H 459.229 -0.747386 0.354039 0
M  V30 4741 H 461.775 -1.05967 1.32549 0
M  V30 4742 H 460.547 -2.69407 2.83788 0
M  V30 4743 H 460.17 -3.70204 1.45034 0
M  V30 4744 N 461.167 -1.02423 -1.1978 0
M  V30 4745 C 462.115 -0.594474 -2.24875 0
M  V30 4746 C 463.109 0.370598 -1.65296 0
M  V30 4747 O 464.315 0.239684 -1.78397 0
M  V30 4748 H 460.69 -0.173961 -0.731602 0
M  V30 4749 H 462.661 -1.4916 -2.58445 0
M  V30 4750 C 461.41 0.0436512 -3.47673 0
M  V30 4751 H 460.733 -0.689963 -3.93801 0
M  V30 4752 H 462.173 0.307362 -4.22884 0
M  V30 4753 C 460.632 1.28881 -3.11274 0
M  V30 4754 O 461.162 2.38135 -3.23503 0
M  V30 4755 N 459.368 1.1758 -2.6575 0
M  V30 4756 H 458.915 0.286769 -2.55999 0
M  V30 4757 H 458.873 2.00988 -2.41767 0
M  V30 4758 N 462.645 1.35699 -0.801477 0
M  V30 4759 C 464.056 1.81415 -0.441073 0
M  V30 4760 C 464.407 1.66595 1.03636 0
M  V30 4761 O 463.532 1.19369 1.80499 0
M  V30 4762 C 464.127 3.29369 -0.793819 0
M  V30 4763 C 462.686 3.73248 -0.486083 0
M  V30 4764 C 461.833 2.57775 -1.02213 0
M  V30 4765 H 464.784 1.23749 -0.993572 0
M  V30 4766 H 464.805 3.80395 -0.0894158 0
M  V30 4767 H 464.317 3.40123 -1.86917 0
M  V30 4768 H 462.418 3.68046 0.580735 0
M  V30 4769 H 462.531 4.68222 -1.01513 0
M  V30 4770 H 460.895 2.50788 -0.444712 0
M  V30 4771 H 461.678 2.71309 -2.10348 0
M  V30 4772 N 464.123 0.554532 1.47522 0
M  V30 4773 C 465.033 -0.197865 2.33764 0
M  V30 4774 C 466.049 -0.914576 1.48025 0
M  V30 4775 O 467.225 -0.884067 1.80959 0
M  V30 4776 C 464.29 -1.21628 3.24665 0
M  V30 4777 C 463.351 -0.507283 4.26292 0
M  V30 4778 C 462.584 -1.47718 5.1285 0
M  V30 4779 O 462.807 -2.7118 5.01814 0
M  V30 4780 O 461.741 -1.00313 5.93482 0
M  V30 4781 H 465.567 0.50949 2.99396 0
M  V30 4782 H 463.152 0.315176 1.46038 0
M  V30 4783 H 465.034 -1.80421 3.80823 0
M  V30 4784 H 463.709 -1.9056 2.61665 0
M  V30 4785 H 462.616 0.121778 3.73902 0
M  V30 4786 H 463.949 0.140544 4.91999 0
M  V30 4787 N 465.601 -1.54893 0.290851 0
M  V30 4788 C 466.829 -2.04343 -0.324288 0
M  V30 4789 C 467.244 -1.16859 -1.48289 0
M  V30 4790 O 466.601 -0.192018 -1.81487 0
M  V30 4791 C 466.652 -3.52756 -0.79026 0
M  V30 4792 O 466.373 -4.36913 0.322213 0
M  V30 4793 C 467.874 -4.18161 -1.4716 0
M  V30 4794 H 465.094 -0.667135 -0.0719173 0
M  V30 4795 H 467.638 -1.99981 0.427529 0
M  V30 4796 H 465.793 -3.57511 -1.49213 0
M  V30 4797 H 466.207 -5.24486 -0.0387372 0
M  V30 4798 H 467.681 -5.23562 -1.7489 0
M  V30 4799 H 468.158 -3.67282 -2.40834 0
M  V30 4800 H 468.764 -4.17454 -0.813178 0
M  V30 4801 N 467.08 -0.0183926 -1.57589 0
M  V30 4802 C 468.043 0.951986 -2.08494 0
M  V30 4803 C 469.043 1.26092 -0.997874 0
M  V30 4804 O 470.233 1.20304 -1.25987 0
M  V30 4805 C 467.365 2.27165 -2.54182 0
M  V30 4806 H 468.558 0.511307 -2.95509 0
M  V30 4807 H 466.111 0.229444 -1.54607 0
M  V30 4808 H 466.846 2.75884 -1.70465 0
M  V30 4809 H 466.631 2.06057 -3.33591 0
M  V30 4810 H 468.121 2.9674 -2.93828 0
M  V30 4811 N 468.558 1.5553 0.254621 0
M  V30 4812 C 469.505 1.89666 1.31512 0
M  V30 4813 C 470.475 0.750057 1.482 0
M  V30 4814 O 471.66 1.00301 1.62309 0
M  V30 4815 C 468.8 2.19009 2.667 0
M  V30 4816 C 467.913 3.46435 2.58083 0
M  V30 4817 C 467.048 3.65386 3.85573 0
M  V30 4818 C 466.087 4.8644 3.71541 0
M  V30 4819 N 465.224 5.01952 4.90906 0
M  V30 4820 H 470.064 2.80109 1.017 0
M  V30 4821 H 467.601 1.38666 0.490938 0
M  V30 4822 H 469.559 2.34025 3.45381 0
M  V30 4823 H 468.189 1.31779 2.94676 0
M  V30 4824 H 467.241 3.39792 1.71013 0
M  V30 4825 H 468.553 4.35258 2.43622 0
M  V30 4826 H 467.707 3.80319 4.72697 0
M  V30 4827 H 466.446 2.74781 4.02922 0
M  V30 4828 H 465.451 4.71491 2.82801 0
M  V30 4829 H 466.676 5.78497 3.55694 0
M  V30 4830 H 464.622 4.14283 5.08631 0
M  V30 4831 H 464.539 5.84851 4.79046 0
M  V30 4832 H 465.807 5.21289 5.7955 0
M  V30 4833 N 470.036 -0.519951 1.48776 0
M  V30 4834 C 470.946 -1.65025 1.66745 0
M  V30 4835 C 471.962 -1.6508 0.549954 0
M  V30 4836 O 473.138 -1.83848 0.822295 0
M  V30 4837 C 470.203 -3.0146 1.71238 0
M  V30 4838 C 469.264 -3.12182 2.94688 0
M  V30 4839 C 468.497 -4.42109 2.98958 0
M  V30 4840 O 468.72 -5.29799 2.1135 0
M  V30 4841 O 467.654 -4.57406 3.91233 0
M  V30 4842 H 471.48 -1.52801 2.62461 0
M  V30 4843 H 469.065 -0.694157 1.32294 0
M  V30 4844 H 470.947 -3.82584 1.76657 0
M  V30 4845 H 469.622 -3.13988 0.786975 0
M  V30 4846 H 468.529 -2.30316 2.94797 0
M  V30 4847 H 469.862 -3.04574 3.86646 0
M  V30 4848 N 471.514 -1.37532 -0.769588 0
M  V30 4849 C 472.763 -1.32183 -1.5235 0
M  V30 4850 C 473.076 0.0906555 -1.9539 0
M  V30 4851 O 474.282 0.266628 -2.70188 0
M  V30 4852 C 472.738 -2.32029 -2.75119 0
M  V30 4853 C 472.346 -3.78816 -2.3917 0
M  V30 4854 C 474.09 -2.35694 -3.53056 0
M  V30 4855 C 471.997 -4.70388 -3.58453 0
M  V30 4856 H 470.927 -0.491275 -0.571984 0
M  V30 4857 H 473.578 -1.63004 -0.842739 0
M  V30 4858 H 471.96 -1.94229 -3.45096 0
M  V30 4859 H 473.134 -4.25466 -1.76962 0
M  V30 4860 H 471.449 -3.78117 -1.74402 0
M  V30 4861 H 474.046 -3.01312 -4.41718 0
M  V30 4862 H 474.389 -1.37117 -3.93071 0
M  V30 4863 H 474.922 -2.72212 -2.90078 0
M  V30 4864 H 471.661 -5.70102 -3.23518 0
M  V30 4865 H 471.181 -4.28442 -4.19758 0
M  V30 4866 H 472.86 -4.87628 -4.25239 0
M  V30 4867 N 472.992 0.995999 -1.22138 0
M  V30 4868 C 473.902 2.11985 -1.00496 0
M  V30 4869 C 474.918 1.7394 0.0457701 0
M  V30 4870 O 476.094 2.00868 -0.146273 0
M  V30 4871 C 473.159 3.41779 -0.582086 0
M  V30 4872 C 472.22 3.93943 -1.70608 0
M  V30 4873 C 471.453 5.17542 -1.30328 0
M  V30 4874 O 471.676 5.70114 -0.180743 0
M  V30 4875 O 470.61 5.63382 -2.11861 0
M  V30 4876 H 474.436 2.33123 -1.94647 0
M  V30 4877 H 472.021 1.10358 -1.00705 0
M  V30 4878 H 473.903 4.1989 -0.356467 0
M  V30 4879 H 472.578 3.22007 0.330592 0
M  V30 4880 H 471.485 3.17019 -1.98619 0
M  V30 4881 H 472.818 4.18141 -2.59651 0
M  V30 4882 N 474.47 1.03057 1.19235 0
M  V30 4883 C 475.417 0.612832 2.22515 0
M  V30 4884 C 476.387 -0.374224 1.61829 0
M  V30 4885 O 477.572 -0.270501 1.88873 0
M  V30 4886 C 474.712 -0.028475 3.45088 0
M  V30 4887 C 473.825 1.00483 4.20151 0
M  V30 4888 C 472.96 0.333102 5.30155 0
M  V30 4889 C 471.999 1.3522 5.96977 0
M  V30 4890 N 471.136 0.70616 6.9854 0
M  V30 4891 H 475.976 1.49812 2.57605 0
M  V30 4892 H 473.513 0.749658 1.26564 0
M  V30 4893 H 475.471 -0.417548 4.15105 0
M  V30 4894 H 474.101 -0.877334 3.10649 0
M  V30 4895 H 473.153 1.51194 3.49062 0
M  V30 4896 H 474.465 1.77929 4.65986 0
M  V30 4897 H 473.619 -0.110725 6.06599 0
M  V30 4898 H 472.358 -0.473547 4.85396 0
M  V30 4899 H 471.363 1.80627 5.19282 0
M  V30 4900 H 472.588 2.16037 6.4382 0
M  V30 4901 H 470.534 -0.0803667 6.55951 0
M  V30 4902 H 470.451 1.41848 7.42573 0
M  V30 4903 H 471.719 0.286391 7.78974 0
M  V30 4904 N 475.948 -1.35272 0.808662 0
M  V30 4905 C 476.895 -2.29764 0.218482 0
M  V30 4906 C 477.865 -1.52911 -0.648652 0
M  V30 4907 O 479.05 -1.81341 -0.593297 0
M  V30 4908 C 476.19 -3.39388 -0.625282 0
M  V30 4909 C 475.303 -4.31202 0.262516 0
M  V30 4910 C 474.438 -5.27919 -0.589451 0
M  V30 4911 C 473.477 -6.11371 0.298617 0
M  V30 4912 N 472.614 -7.0022 -0.513443 0
M  V30 4913 H 477.454 -2.79645 1.02968 0
M  V30 4914 H 474.991 -1.37629 0.519303 0
M  V30 4915 H 476.949 -4.01615 -1.12966 0
M  V30 4916 H 475.579 -2.90777 -1.40173 0
M  V30 4917 H 474.631 -3.69962 0.885013 0
M  V30 4918 H 475.943 -4.89748 0.945971 0
M  V30 4919 H 475.097 -5.95529 -1.15888 0
M  V30 4920 H 473.836 -4.69875 -1.30647 0
M  V30 4921 H 472.841 -5.42707 0.880301 0
M  V30 4922 H 474.066 -6.71494 1.01352 0
M  V30 4923 H 472.012 -6.44662 -1.21439 0
M  V30 4924 H 471.929 -7.55917 0.111922 0
M  V30 4925 H 473.197 -7.72175 -1.06608 0
M  V30 4926 N 477.426 -0.562348 -1.47226 0
M  V30 4927 C 478.672 -0.0402761 -2.0276 0
M  V30 4928 C 479.005 1.30823 -1.43523 0
M  V30 4929 O 478.28 1.85249 -0.592705 0
M  V30 4930 C 478.563 0.047311 -3.60069 0
M  V30 4931 C 478.416 -1.32865 -4.29729 0
M  V30 4932 C 479.735 0.758182 -4.3352 0
M  V30 4933 H 476.854 -0.0161105 -0.736824 0
M  V30 4934 H 479.496 -0.725628 -1.75598 0
M  V30 4935 H 477.646 0.630986 -3.83342 0
M  V30 4936 H 479.318 -1.95593 -4.17781 0
M  V30 4937 H 477.561 -1.90195 -3.89882 0
M  V30 4938 H 478.232 -1.22004 -5.38349 0
M  V30 4939 H 480.708 0.262546 -4.15271 0
M  V30 4940 H 479.584 0.78844 -5.43208 0
M  V30 4941 H 479.845 1.81537 -4.03109 0
M  V30 4942 N 478.904 1.54736 -0.299062 0
M  V30 4943 C 480.32 1.59507 0.0543849 0
M  V30 4944 C 480.52 1.31606 1.52585 0
M  V30 4945 O 479.576 1.08853 2.27832 0
M  V30 4946 C 480.889 2.98751 -0.34181 0
M  V30 4947 C 482.437 3.1165 -0.290414 0
M  V30 4948 C 482.912 4.53199 -0.661402 0
M  V30 4949 N 484.403 4.59114 -0.613863 0
M  V30 4950 C 485.138 5.66709 -0.873417 0
M  V30 4951 N 484.634 6.82349 -1.19884 0
M  V30 4952 N 486.427 5.56369 -0.800608 0
M  V30 4953 H 478.578 1.71133 -1.25806 0
M  V30 4954 H 480.841 0.799186 -0.509908 0
M  V30 4955 H 480.547 3.24085 -1.36608 0
M  V30 4956 H 480.421 3.75961 0.305508 0
M  V30 4957 H 482.808 2.86066 0.724605 0
M  V30 4958 H 482.889 2.366 -0.972327 0
M  V30 4959 H 482.533 4.79513 -1.67422 0
M  V30 4960 H 482.463 5.26583 0.0425612 0
M  V30 4961 H 484.954 3.76053 -0.3732 0
M  V30 4962 H 485.267 7.60326 -1.38291 0
M  V30 4963 H 483.612 6.83906 -1.23685 0
M  V30 4964 H 486.803 4.64904 -0.546045 0
M  V30 4965 H 486.976 6.40139 -1.00626 0
M  V30 4966 N 480.382 0.0267497 1.57577 0
M  V30 4967 C 481.292 -0.971633 2.13533 0
M  V30 4968 C 482.308 -1.35868 1.08701 0
M  V30 4969 O 483.484 -1.44058 1.40746 0
M  V30 4970 C 480.549 -2.23622 2.64941 0
M  V30 4971 C 479.61 -1.90982 3.8448 0
M  V30 4972 C 478.843 -3.11411 4.33427 0
M  V30 4973 O 479.066 -4.23992 3.81558 0
M  V30 4974 O 478 -2.93848 5.25297 0
M  V30 4975 H 481.826 -0.525853 2.99113 0
M  V30 4976 H 479.411 -0.193712 1.48139 0
M  V30 4977 H 481.293 -2.97864 2.98086 0
M  V30 4978 H 479.968 -2.67386 1.82446 0
M  V30 4979 H 478.875 -1.14132 3.56265 0
M  V30 4980 H 480.208 -1.52036 4.6813 0
M  V30 4981 N 481.861 -1.55662 -0.24637 0
M  V30 4982 C 482.791 -1.93377 -1.30873 0
M  V30 4983 C 483.772 -0.798773 -1.50179 0
M  V30 4984 O 484.957 -1.0591 -1.62778 0
M  V30 4985 C 482.087 -2.22893 -2.66338 0
M  V30 4986 C 481.041 -3.38649 -2.61727 0
M  V30 4987 C 480.367 -3.53708 -4.00992 0
M  V30 4988 C 481.667 -4.74323 -2.18666 0
M  V30 4989 H 483.361 -2.82363 -0.995552 0
M  V30 4990 H 480.907 -1.35854 -0.477464 0
M  V30 4991 H 482.86 -2.47866 -3.40794 0
M  V30 4992 H 481.584 -1.30733 -2.99293 0
M  V30 4993 H 480.243 -3.13685 -1.89729 0
M  V30 4994 H 479.891 -2.58967 -4.31214 0
M  V30 4995 H 479.591 -4.31551 -3.98795 0
M  V30 4996 H 481.115 -3.81003 -4.77147 0
M  V30 4997 H 482.529 -4.98665 -2.82854 0
M  V30 4998 H 480.926 -5.55273 -2.27579 0
M  V30 4999 H 481.996 -4.71349 -1.13834 0
M  V30 5000 N 483.339 0.512053 -1.4905 0
M  V30 5001 C 484.269 1.62365 -1.67809 0
M  V30 5002 C 485.25 1.61737 -0.526809 0
M  V30 5003 O 486.435 1.78651 -0.761404 0
M  V30 5004 C 483.565 3.00895 -1.73435 0
M  V30 5005 C 482.519 3.16387 -2.88242 0
M  V30 5006 C 481.845 4.56157 -2.78971 0
M  V30 5007 C 483.145 2.97457 -4.29321 0
M  V30 5008 H 484.839 1.46921 -2.60873 0
M  V30 5009 H 482.385 0.705379 -1.2554 0
M  V30 5010 H 484.338 3.78549 -1.85145 0
M  V30 5011 H 483.062 3.17403 -0.769619 0
M  V30 5012 H 481.721 2.41155 -2.76116 0
M  V30 5013 H 481.369 4.69525 -1.8043 0
M  V30 5014 H 481.069 4.67465 -3.5602 0
M  V30 5015 H 482.593 5.35886 -2.92675 0
M  V30 5016 H 484.007 3.64888 -4.42187 0
M  V30 5017 H 482.404 3.20245 -5.07507 0
M  V30 5018 H 483.474 1.93692 -4.44535 0
M  V30 5019 N 484.817 1.37938 0.762283 0
M  V30 5020 C 485.747 1.37176 1.88958 0
M  V30 5021 C 486.728 0.238945 1.68413 0
M  V30 5022 O 487.913 0.440726 1.89133 0
M  V30 5023 C 485.043 1.18742 3.2637 0
M  V30 5024 C 483.997 2.29136 3.61498 0
M  V30 5025 C 483.323 1.95816 4.97554 0
M  V30 5026 C 484.623 3.71363 3.6727 0
M  V30 5027 H 486.317 2.31509 1.89853 0
M  V30 5028 H 483.863 1.11438 0.912005 0
M  V30 5029 H 485.816 1.16837 4.04879 0
M  V30 5030 H 484.54 0.208683 3.25933 0
M  V30 5031 H 483.199 2.30213 2.85303 0
M  V30 5032 H 482.847 0.964475 4.93667 0
M  V30 5033 H 482.547 2.69745 5.22026 0
M  V30 5034 H 484.071 1.95513 5.78452 0
M  V30 5035 H 485.485 3.72364 4.35911 0
M  V30 5036 H 483.882 4.44425 4.03245 0
M  V30 5037 H 484.952 4.04305 2.67704 0
M  V30 5038 N 486.295 -0.989507 1.22664 0
M  V30 5039 C 487.52 -1.77031 1.08051 0
M  V30 5040 C 487.945 -1.84535 -0.364483 0
M  V30 5041 O 487.303 -1.3003 -1.2634 0
M  V30 5042 C 487.351 -3.18 1.70024 0
M  V30 5043 O 486.455 -4.01161 0.956216 0
M  V30 5044 H 485.796 -0.545008 0.379292 0
M  V30 5045 H 488.326 -1.24277 1.62531 0
M  V30 5046 H 488.336 -3.68616 1.74888 0
M  V30 5047 H 487.011 -3.11853 2.75174 0
M  V30 5048 H 485.588 -3.59687 0.98384 0
M  V30 5049 N 487.773 -1.03688 -1.18687 0
M  V30 5050 C 488.721 -0.618292 -2.24232 0
M  V30 5051 C 489.715 0.353045 -1.6568 0
M  V30 5052 O 490.921 0.220749 -1.78641 0
M  V30 5053 H 487.296 -0.181711 -0.729716 0
M  V30 5054 H 489.267 -1.51893 -2.56848 0
M  V30 5055 C 488.016 0.00677342 -3.47699 0
M  V30 5056 H 487.339 -0.731692 -3.93047 0
M  V30 5057 H 488.779 0.262492 -4.23187 0
M  V30 5058 C 487.238 1.25572 -3.12623 0
M  V30 5059 O 487.768 2.34691 -3.26011 0
M  V30 5060 N 485.974 1.14755 -2.66982 0
M  V30 5061 H 485.521 0.259601 -2.56289 0
M  V30 5062 H 485.479 1.98412 -2.43885 0
M  V30 5063 N 489.251 1.34841 -0.815825 0
M  V30 5064 C 490.662 1.80937 -0.46029 0
M  V30 5065 C 491.013 1.67685 1.01863 0
M  V30 5066 O 490.138 1.21277 1.79223 0
M  V30 5067 C 490.733 3.28509 -0.828708 0
M  V30 5068 C 489.292 3.72712 -0.525644 0
M  V30 5069 C 488.439 2.56676 -1.04941 0
M  V30 5070 H 491.39 1.22688 -1.00664 0
M  V30 5071 H 491.411 3.80279 -0.129757 0
M  V30 5072 H 490.923 3.38122 -1.90513 0
M  V30 5073 H 489.024 3.68642 0.541666 0
M  V30 5074 H 489.137 4.67119 -1.06474 0
M  V30 5075 H 487.501 2.50302 -0.471286 0
M  V30 5076 H 488.284 2.69063 -2.13214 0
M  V30 5077 N 490.729 0.570148 1.46925 0
M  V30 5078 C 491.677 -0.183181 2.31878 0
M  V30 5079 C 492.671 -0.896721 1.43719 0
M  V30 5080 O 493.877 -0.816536 1.60414 0
M  V30 5081 H 490.252 -0.077944 0.74795 0
M  V30 5082 H 492.223 0.552312 2.93244 0
M  V30 5083 C 490.972 -1.19172 3.2664 0
M  V30 5084 H 490.295 -0.652088 3.94446 0
M  V30 5085 H 491.735 -1.68946 3.88887 0
M  V30 5086 C 490.194 -2.24627 2.51086 0
M  V30 5087 O 490.724 -3.31773 2.26472 0
M  V30 5088 N 488.93 -1.98898 2.11867 0
M  V30 5089 H 488.477 -1.11777 2.32086 0
M  V30 5090 H 488.435 -2.6967 1.61634 0
M  V30 5091 N 492.207 -1.54576 0.307264 0
M  V30 5092 C 493.432 -2.05139 -0.305379 0
M  V30 5093 C 493.857 -1.18278 -1.46259 0
M  V30 5094 O 493.215 -0.188243 -1.8032 0
M  V30 5095 C 493.263 -3.53066 -0.733283 0
M  V30 5096 O 492.367 -3.69206 -1.83741 0
M  V30 5097 H 491.708 -0.661444 -0.0582105 0
M  V30 5098 H 494.238 -1.99569 0.450931 0
M  V30 5099 H 494.248 -3.95034 -1.02039 0
M  V30 5100 H 492.923 -4.15746 0.113198 0
M  V30 5101 H 491.5 -3.39143 -1.55037 0
M  V30 5102 N 493.685 -0.035106 -1.57561 0
M  V30 5103 C 494.913 0.652258 -1.9635 0
M  V30 5104 C 495.328 1.65317 -0.911897 0
M  V30 5105 O 494.685 1.82194 0.105657 0
M  V30 5106 C 494.736 1.35337 -3.35211 0
M  V30 5107 O 494.457 0.392548 -4.36338 0
M  V30 5108 C 495.958 2.13199 -3.88666 0
M  V30 5109 H 493.178 0.179444 -0.646561 0
M  V30 5110 H 495.722 -0.0966459 -2.04271 0
M  V30 5111 H 493.877 2.05362 -3.28489 0
M  V30 5112 H 494.291 0.891097 -5.16875 0
M  V30 5113 H 495.765 2.577 -4.88154 0
M  V30 5114 H 496.242 2.97353 -3.23231 0
M  V30 5115 H 496.848 1.48118 -3.98674 0
M  V30 5116 N 495.163 1.55791 0.238111 0
M  V30 5117 C 496.574 1.68383 0.806472 0
M  V30 5118 C 496.925 0.634157 1.85669 0
M  V30 5119 O 496.05 -0.217913 2.153 0
M  V30 5120 C 496.645 3.05268 1.46959 0
M  V30 5121 C 495.204 3.1977 1.98555 0
M  V30 5122 C 494.351 2.64279 0.839763 0
M  V30 5123 H 497.302 1.58694 0.0137535 0
M  V30 5124 H 497.323 3.00203 2.33792 0
M  V30 5125 H 496.835 3.81643 0.704993 0
M  V30 5126 H 494.936 2.48234 2.77868 0
M  V30 5127 H 495.049 4.26788 2.17689 0
M  V30 5128 H 493.413 2.22329 1.24265 0
M  V30 5129 H 494.196 3.43187 0.0881032 0
M  V30 5130 N 496.642 -0.504142 1.49319 0
M  V30 5131 C 497.919 -1.26548 1.49147 0
M  V30 5132 C 498.299 -2.09977 0.21744 0
M  V30 5133 O 497.647 -2.14028 -0.800269 0
M  V30 5134 C 497.857 -2.12489 2.76857 0
M  V30 5135 C 499.205 -2.7178 3.26222 0
M  V30 5136 O 500.229 -2.22758 2.77952 0
M  V30 5137 O 499.088 -3.61015 4.10281 0
M  V30 5138 H 496.182 -0.572495 0.596806 0
M  V30 5139 H 498.728 -0.51867 1.61579 0
M  V30 5140 H 497.5 -1.50796 3.61077 0
M  V30 5141 H 497.123 -2.94368 2.6727 0
M  V30 5142 N 498.12 -1.38341 -0.754957 0
M  V30 5143 C 499.367 -1.34473 -1.51404 0
M  V30 5144 C 499.695 0.0656458 -1.94389 0
M  V30 5145 O 498.95 1.04244 -1.65625 0
M  V30 5146 C 499.249 -2.2452 -2.78075 0
M  V30 5147 C 498.915 -3.72512 -2.54059 0
M  V30 5148 C 497.577 -4.1284 -2.47218 0
M  V30 5149 C 499.929 -4.66197 -2.33044 0
M  V30 5150 C 497.257 -5.44945 -2.17376 0
M  V30 5151 C 499.609 -5.98558 -2.04723 0
M  V30 5152 C 498.273 -6.37972 -1.96337 0
M  V30 5153 H 497.543 -0.492072 -0.554027 0
M  V30 5154 H 500.19 -1.70687 -0.868223 0
M  V30 5155 H 498.495 -1.81357 -3.473 0
M  V30 5156 H 500.192 -2.18832 -3.36026 0
M  V30 5157 H 496.782 -3.40538 -2.60253 0
M  V30 5158 H 500.966 -4.35888 -2.37309 0
M  V30 5159 H 496.222 -5.74426 -2.09391 0
M  V30 5160 H 500.396 -6.70693 -1.87465 0
M  V30 5161 H 498.023 -7.40258 -1.72978 0
M  V30 5162 N 499.598 0.982988 -1.23187 0
M  V30 5163 C 500.823 1.76455 -1.08988 0
M  V30 5164 C 501.248 1.84726 0.354691 0
M  V30 5165 O 500.606 1.30699 1.25649 0
M  V30 5166 C 500.654 3.17094 -1.71708 0
M  V30 5167 O 499.758 4.00648 -0.977477 0
M  V30 5168 H 499.099 0.542988 -0.382177 0
M  V30 5169 H 501.629 1.23413 -1.63188 0
M  V30 5170 H 501.639 3.67684 -1.76841 0
M  V30 5171 H 500.314 3.10389 -2.76823 0
M  V30 5172 H 498.891 3.59161 -1.0029 0
M  V30 5173 N 501.076 1.04316 1.18135 0
M  V30 5174 C 502.322 0.749128 1.88457 0
M  V30 5175 C 502.655 -0.72149 1.803 0
M  V30 5176 O 501.93 -1.52676 1.205 0
M  V30 5177 C 502.213 1.21905 3.38838 0
M  V30 5178 C 502.066 2.75195 3.55792 0
M  V30 5179 C 503.385 0.811085 4.32561 0
M  V30 5180 H 500.504 0.273611 0.684329 0
M  V30 5181 H 503.146 1.29561 1.38975 0
M  V30 5182 H 501.296 0.754137 3.8111 0
M  V30 5183 H 502.968 3.29743 3.22595 0
M  V30 5184 H 501.211 3.14899 2.98364 0
M  V30 5185 H 501.882 3.03135 4.61317 0
M  V30 5186 H 504.358 1.21118 3.98082 0
M  V30 5187 H 503.234 1.16761 5.36338 0
M  V30 5188 H 503.495 -0.285596 4.41177 0
M  V30 5189 N 502.554 -1.34406 0.822964 0
M  V30 5190 C 503.831 -1.92733 0.333641 0
M  V30 5191 C 504.211 -1.75107 -1.17901 0
M  V30 5192 O 503.559 -1.12983 -1.98613 0
M  V30 5193 C 503.769 -3.40557 0.763023 0
M  V30 5194 C 505.117 -4.17709 0.761879 0
M  V30 5195 O 506.141 -3.49141 0.705606 0
M  V30 5196 O 505 -5.40082 0.835109 0
M  V30 5197 H 502.094 -0.821964 0.0911249 0
M  V30 5198 H 504.64 -1.4338 0.907757 0
M  V30 5199 H 503.412 -3.47187 1.8049 0
M  V30 5200 H 503.035 -3.97259 0.164605 0
M  V30 5201 N 504.032 -0.577932 -1.46621 0
M  V30 5202 C 505.309 0.00495287 -1.95599 0
M  V30 5203 C 505.689 1.46428 -1.5206 0
M  V30 5204 O 505.037 2.1517 -0.769046 0
M  V30 5205 C 505.247 -0.162114 -3.48623 0
M  V30 5206 C 506.595 -0.0274623 -4.24591 0
M  V30 5207 O 507.619 -0.0907067 -3.56084 0
M  V30 5208 O 506.478 0.1122 -5.46385 0
M  V30 5209 H 503.572 0.0525057 -0.825332 0
M  V30 5210 H 506.118 -0.645914 -1.56927 0
M  V30 5211 H 504.89 -1.17679 -3.73185 0
M  V30 5212 H 504.513 0.525407 -3.94113 0
M  V30 5213 N 505.51 1.54411 -0.315457 0
M  V30 5214 C 506.735 2.05299 0.294496 0
M  V30 5215 C 507.16 1.19052 1.4563 0
M  V30 5216 O 506.518 0.197804 1.80218 0
M  V30 5217 C 506.566 3.5345 0.714549 0
M  V30 5218 O 505.67 3.70175 1.81781 0
M  V30 5219 H 505.011 0.661743 0.0547019 0
M  V30 5220 H 507.541 1.99327 -0.461508 0
M  V30 5221 H 507.551 3.9557 0.999426 0
M  V30 5222 H 506.226 4.1568 -0.135244 0
M  V30 5223 H 504.803 3.3996 1.53236 0
M  V30 5224 N 506.988 0.0434614 1.5754 0
M  V30 5225 C 507.898 -0.94893 2.14552 0
M  V30 5226 C 508.914 -1.34707 1.10136 0
M  V30 5227 O 510.09 -1.42557 1.42266 0
M  V30 5228 C 507.155 -2.208 2.67298 0
M  V30 5229 C 506.216 -1.86893 3.86484 0
M  V30 5230 C 505.449 -3.06797 4.36705 0
M  V30 5231 O 505.672 -4.19921 3.86034 0
M  V30 5232 O 504.606 -2.8826 5.28384 0
M  V30 5233 H 508.432 -0.494099 2.99654 0
M  V30 5234 H 506.017 -0.177989 1.48336 0
M  V30 5235 H 507.899 -2.94686 3.01228 0
M  V30 5236 H 506.574 -2.65436 1.85272 0
M  V30 5237 H 505.481 -1.10347 3.57455 0
M  V30 5238 H 506.814 -1.47062 4.69716 0
M  V30 5239 N 508.466 -1.55915 -0.229846 0
M  V30 5240 C 509.714 -1.7819 -0.953565 0
M  V30 5241 C 510.035 -0.610504 -1.85197 0
M  V30 5242 O 509.305 0.372988 -1.92316 0
M  V30 5243 H 507.885 -0.657208 -0.355087 0
M  V30 5244 H 510.547 -1.9337 -0.243693 0
M  V30 5245 H 509.643 -2.70011 -1.56527 0
M  V30 5246 N 509.944 0.496216 -1.49584 0
M  V30 5247 C 511.19 1.25189 -1.59548 0
M  V30 5248 C 511.523 1.9212 -0.283466 0
M  V30 5249 O 510.798 1.80947 0.713324 0
M  V30 5250 C 511.081 2.31516 -2.75812 0
M  V30 5251 C 510.934 1.69054 -4.16822 0
M  V30 5252 C 512.253 3.3304 -2.87702 0
M  V30 5253 H 509.372 0.45379 -0.580727 0
M  V30 5254 H 512.014 0.549327 -1.81886 0
M  V30 5255 H 510.164 2.91438 -2.56897 0
M  V30 5256 H 511.836 1.12923 -4.47265 0
M  V30 5257 H 510.079 0.994485 -4.22247 0
M  V30 5258 H 510.75 2.462 -4.94054 0
M  V30 5259 H 513.226 2.83114 -3.04936 0
M  V30 5260 H 512.102 4.04794 -3.7072 0
M  V30 5261 H 512.363 3.95655 -1.97255 0
M  V30 5262 N 511.423 1.38739 0.74761 0
M  V30 5263 C 512.386 1.36241 1.84312 0
M  V30 5264 C 513.386 0.261811 1.58654 0
M  V30 5265 O 514.576 0.519031 1.66288 0
M  V30 5266 C 511.708 1.12253 3.21888 0
M  V30 5267 H 512.901 2.33712 1.87933 0
M  V30 5268 H 510.454 1.2412 0.949946 0
M  V30 5269 H 511.189 0.154133 3.23934 0
M  V30 5270 H 510.974 1.91943 3.41907 0
M  V30 5271 H 512.464 1.13215 4.0196 0
M  V30 5272 N 512.901 -0.976442 1.23707 0
M  V30 5273 C 513.811 -2.10359 1.03856 0
M  V30 5274 C 514.827 -1.73991 -0.0180919 0
M  V30 5275 O 516.003 -2.0061 0.178211 0
M  V30 5276 C 513.068 -3.40809 0.636387 0
M  V30 5277 C 512.129 -3.91179 1.76854 0
M  V30 5278 C 511.362 -5.15404 1.38546 0
M  V30 5279 O 511.585 -5.69754 0.27142 0
M  V30 5280 O 510.519 -5.5994 2.20797 0
M  V30 5281 H 514.345 -2.29997 1.98331 0
M  V30 5282 H 511.93 -1.08742 1.02448 0
M  V30 5283 H 513.812 -4.19269 0.423223 0
M  V30 5284 H 512.487 -3.22493 -0.279322 0
M  V30 5285 H 511.394 -3.13819 2.03638 0
M  V30 5286 H 512.727 -4.13958 2.6627 0
M  V30 5287 N 514.379 -1.04941 -1.1758 0
M  V30 5288 C 515.607 -0.778294 -1.91703 0
M  V30 5289 C 516.022 0.665697 -1.76675 0
M  V30 5290 O 515.379 1.45456 -1.10222 0
M  V30 5291 C 515.43 -1.14628 -3.42845 0
M  V30 5292 O 515.151 -2.53359 -3.57409 0
M  V30 5293 C 516.652 -0.900931 -4.34049 0
M  V30 5294 H 513.872 -0.283167 -0.608323 0
M  V30 5295 H 516.416 -1.39942 -1.49119 0
M  V30 5296 H 514.571 -0.569953 -3.83184 0
M  V30 5297 H 514.985 -2.67709 -4.51035 0
M  V30 5298 H 516.459 -1.20817 -5.38616 0
M  V30 5299 H 516.936 0.163966 -4.38894 0
M  V30 5300 H 517.542 -1.46097 -3.99419 0
M  V30 5301 N 515.857 1.33968 -0.830081 0
M  V30 5302 C 516.805 2.31301 -0.245435 0
M  V30 5303 C 517.799 1.57734 0.617762 0
M  V30 5304 O 519.005 1.72674 0.508303 0
M  V30 5305 H 515.38 0.749552 -0.0606316 0
M  V30 5306 H 517.351 2.78129 -1.08105 0
M  V30 5307 C 516.1 3.42961 0.572084 0
M  V30 5308 H 515.423 3.99714 -0.0828118 0
M  V30 5309 H 516.863 4.13286 0.94715 0
M  V30 5310 C 515.322 2.88043 1.74737 0
M  V30 5311 O 515.852 2.83508 2.8458 0
M  V30 5312 N 514.058 2.44768 1.56642 0
M  V30 5313 H 513.605 2.48656 0.672901 0
M  V30 5314 H 513.563 2.08375 2.3543 0
M  V30 5315 N 517.335 0.585699 1.46312 0
M  V30 5316 C 518.245 -0.148236 2.34131 0
M  V30 5317 C 519.261 -0.882972 1.49932 0
M  V30 5318 O 520.437 -0.845484 1.82794 0
M  V30 5319 C 517.502 -1.14714 3.27172 0
M  V30 5320 C 516.563 -0.416746 4.27272 0
M  V30 5321 C 515.796 -1.36806 5.15868 0
M  V30 5322 O 516.019 -2.60475 5.07454 0
M  V30 5323 O 514.953 -0.877018 5.95476 0
M  V30 5324 H 518.779 0.572882 2.98248 0
M  V30 5325 H 516.364 0.346082 1.45336 0
M  V30 5326 H 518.246 -1.72303 3.84564 0
M  V30 5327 H 516.921 -1.84967 2.65648 0
M  V30 5328 H 515.828 0.201061 3.73559 0
M  V30 5329 H 517.161 0.244872 4.9159 0
M  V30 5330 N 518.813 -1.54241 0.323641 0
M  V30 5331 C 520.09 -1.92741 -0.333181 0
M  V30 5332 C 520.47 -1.25326 -1.69872 0
M  V30 5333 O 519.818 -0.396991 -2.25025 0
M  V30 5334 C 520.028 -3.46399 -0.425322 0
M  V30 5335 C 521.376 -4.19029 -0.68557 0
M  V30 5336 O 522.4 -3.52555 -0.50824 0
M  V30 5337 O 521.259 -5.36751 -1.02767 0
M  V30 5338 H 518.353 -0.804811 -0.190286 0
M  V30 5339 H 520.899 -1.65542 0.373361 0
M  V30 5340 H 519.671 -3.87643 0.533737 0
M  V30 5341 H 519.294 -3.79704 -1.17944 0
M  V30 5342 N 520.291 -0.0518155 -1.57515 0
M  V30 5343 C 521.538 0.621823 -1.92716 0
M  V30 5344 C 521.866 1.70813 -0.930229 0
M  V30 5345 O 521.121 1.95616 0.0573708 0
M  V30 5346 C 521.42 1.25607 -3.34601 0
M  V30 5347 C 521.086 0.297901 -4.49915 0
M  V30 5348 C 519.748 0.034243 -4.81188 0
M  V30 5349 C 522.1 -0.358738 -5.19964 0
M  V30 5350 C 519.428 -0.893479 -5.79857 0
M  V30 5351 C 521.78 -1.27466 -6.19625 0
M  V30 5352 C 520.444 -1.54698 -6.49326 0
M  V30 5353 H 519.714 0.227541 -0.705199 0
M  V30 5354 H 522.361 -0.118432 -1.91133 0
M  V30 5355 H 520.666 2.07161 -3.32553 0
M  V30 5356 H 522.363 1.78424 -3.59118 0
M  V30 5357 H 518.953 0.513581 -4.25512 0
M  V30 5358 H 523.137 -0.168133 -4.96015 0
M  V30 5359 H 518.393 -1.11193 -6.01204 0
M  V30 5360 H 522.567 -1.78953 -6.73015 0
M  V30 5361 H 520.194 -2.26748 -7.25596 0
M  V30 5362 O 521.808 1.61253 0.0892961 0
M  V30 5363 H 522.499 1.79931 0.717249 0
M  V30 END ATOM
M  V30 BEGIN BOND
M  V30 END BOND
M  V30 END CTAB
M  END
$$$$
