drugbank_target|P0A7S9 30S ribosomal protein S13 (DB00560)
 OpenBabel12092120373D

  0  0  0     0  0            999 V3000
M  V30 BEGIN CTAB
M  V30 COUNTS 1908 1917 0 0 0
M  V30 BEGIN ATOM
M  V30 1 H -0.908 1.98254 -0.117106 0
M  V30 2 N 0 1.576 0 0
M  V30 3 C 0.933 2.03868 1.02534 0
M  V30 4 C 1.911 0.928543 1.3348 0
M  V30 5 O 3.095 1.19667 1.45644 0
M  V30 6 C 0.222 2.43627 2.35294 0
M  V30 7 C -0.732 3.65373 2.2001 0
M  V30 8 S 0.101 5.13292 1.52614 0
M  V30 9 C 1.257 5.56322 2.86805 0
M  V30 10 H 1.49 2.90518 0.631377 0
M  V30 11 H -0.977 1.52953 0.210867 0
M  V30 12 H 0.981 2.67203 3.11629 0
M  V30 13 H -0.358 1.57376 2.7183 0
M  V30 14 H -1.165 3.90944 3.18086 0
M  V30 15 H -1.563 3.418 1.51819 0
M  V30 16 H 0.729 5.58782 3.83104 0
M  V30 17 H 1.672 6.56266 2.65933 0
M  V30 18 H 2.08 4.83886 2.90714 0
M  V30 19 N 1.4781 -0.272755 1.55222 0
M  V30 20 C 2.4411 -1.32041 1.87344 0
M  V30 21 C 3.4411 -1.42342 0.74803 0
M  V30 22 O 4.6311 -1.41488 1.0162 0
M  V30 23 C 1.7631 -2.70173 2.07893 0
M  V30 24 H 2.9561 -1.04789 2.80997 0
M  V30 25 H 0.5091 -0.51083 1.47717 0
M  V30 26 H 1.2441 -3.02605 1.16622 0
M  V30 27 H 1.0291 -2.64082 2.89833 0
M  V30 28 H 2.5191 -3.45869 2.34017 0
M  V30 29 N 2.9562 -1.48159 -0.537278 0
M  V30 30 C 4.3722 -1.34118 -0.865129 0
M  V30 31 C 4.5722 -0.346678 -1.98495 0
M  V30 32 O 3.6282 0.234715 -2.51407 0
M  V30 33 C 4.9412 -2.73963 -1.23954 0
M  V30 34 C 6.4892 -2.82397 -1.34984 0
M  V30 35 C 6.9642 -4.22928 -1.75772 0
M  V30 36 N 8.4552 -4.25566 -1.82887 0
M  V30 37 C 9.1902 -5.31235 -2.15817 0
M  V30 38 N 8.6862 -6.47189 -2.47222 0
M  V30 39 N 10.4792 -5.18624 -2.16761 0
M  V30 40 H 2.6302 -2.1144 0.201715 0
M  V30 41 H 4.8932 -0.947598 0.0275949 0
M  V30 42 H 4.5992 -3.48264 -0.490381 0
M  V30 43 H 4.4732 -3.0702 -2.19132 0
M  V30 44 H 6.8602 -2.08356 -2.08978 0
M  V30 45 H 6.9412 -2.5297 -0.379448 0
M  V30 46 H 6.5852 -4.97482 -1.02341 0
M  V30 47 H 6.5152 -4.49794 -2.73848 0
M  V30 48 H 9.0062 -3.41924 -1.60924 0
M  V30 49 H 9.3192 -7.23564 -2.71433 0
M  V30 50 H 7.6642 -6.50476 -2.44757 0
M  V30 51 H 10.8552 -4.27056 -1.91679 0
M  V30 52 H 11.0282 -6.01078 -2.42093 0
M  V30 53 N 4.4343 0.785586 -1.36625 0
M  V30 54 C 5.6833 1.53883 -1.30396 0
M  V30 55 C 5.9963 1.95271 0.113452 0
M  V30 56 O 7.2023 2.69858 0.298142 0
M  V30 57 C 5.6583 2.77808 -2.28802 0
M  V30 58 C 5.2663 2.43574 -3.75999 0
M  V30 59 C 7.0103 3.55783 -2.31558 0
M  V30 60 C 4.9173 3.63919 -4.66173 0
M  V30 61 H 3.8473 0.577678 -0.484566 0
M  V30 62 H 6.4983 0.861705 -1.62009 0
M  V30 63 H 4.8803 3.47339 -1.90188 0
M  V30 64 H 6.0543 1.81916 -4.23371 0
M  V30 65 H 4.3693 1.78803 -3.76056 0
M  V30 66 H 6.9663 4.45205 -2.96137 0
M  V30 67 H 7.3093 3.94644 -1.3252 0
M  V30 68 H 7.8423 2.93235 -2.68809 0
M  V30 69 H 4.5813 3.3015 -5.66287 0
M  V30 70 H 4.1013 4.2473 -4.23515 0
M  V30 71 H 5.7803 4.30901 -4.82632 0
M  V30 72 N 5.9124 1.20967 1.01018 0
M  V30 73 C 6.8754 0.965918 2.07853 0
M  V30 74 C 7.8754 -0.0610545 1.60684 0
M  V30 75 O 9.0654 0.175681 1.73312 0
M  V30 76 C 6.1974 0.455513 3.37843 0
M  V30 77 H 7.3904 1.91365 2.3091 0
M  V30 78 H 4.9434 1.02594 1.17916 0
M  V30 79 H 5.6784 -0.497381 3.20463 0
M  V30 80 H 5.4634 1.19622 3.73407 0
M  V30 81 H 6.9534 0.304667 4.16487 0
M  V30 82 N 7.3905 -1.2043 1.01659 0
M  V30 83 C 8.6385 -1.89423 0.704522 0
M  V30 84 C 8.9595 -1.79231 -0.768197 0
M  V30 85 O 8.2295 -1.1947 -1.55254 0
M  V30 86 H 6.8095 -0.701178 0.257602 0
M  V30 87 H 9.4715 -1.4626 1.28818 0
M  V30 88 H 8.5675 -2.96052 0.987916 0
M  V30 89 N 8.8686 -0.792821 -1.36206 0
M  V30 90 C 10.1176 -0.363353 -1.984 0
M  V30 91 C 10.4306 1.07172 -1.63626 0
M  V30 92 O 11.6366 1.60362 -2.19081 0
M  V30 93 C 10.0926 -0.59872 -3.54885 0
M  V30 94 C 9.7006 -2.04543 -3.9858 0
M  V30 95 C 11.4446 -0.233926 -4.23855 0
M  V30 96 C 9.3516 -2.22727 -5.47856 0
M  V30 97 H 8.2816 -0.13212 -0.742334 0
M  V30 98 H 10.9326 -0.974935 -1.55458 0
M  V30 99 H 9.3146 0.0826222 -3.95914 0
M  V30 100 H 10.4886 -2.76345 -3.68741 0
M  V30 101 H 8.8036 -2.36879 -3.42458 0
M  V30 102 H 11.4006 -0.348027 -5.33566 0
M  V30 103 H 11.7436 0.818351 -4.08177 0
M  V30 104 H 12.2766 -0.868639 -3.882 0
M  V30 105 H 9.0156 -3.2635 -5.68486 0
M  V30 106 H 8.5356 -1.55434 -5.7931 0
M  V30 107 H 10.2146 -2.03607 -6.14128 0
M  V30 108 N 10.3467 1.47872 -0.545128 0
M  V30 109 C 11.2947 2.31533 0.222512 0
M  V30 110 C 12.2887 1.42177 0.920985 0
M  V30 111 O 13.4947 1.59005 0.843645 0
M  V30 112 H 9.8697 0.746519 0.0906278 0
M  V30 113 H 11.8407 2.94139 -0.50246 0
M  V30 114 C 10.5897 3.2457 1.24699 0
M  V30 115 H 9.9127 3.93283 0.718944 0
M  V30 116 H 11.3527 3.85963 1.75523 0
M  V30 117 C 9.8117 2.47237 2.28856 0
M  V30 118 O 10.3417 2.20808 3.35569 0
M  V30 119 N 8.5477 2.08461 2.02466 0
M  V30 120 H 8.0947 2.30155 1.157 0
M  V30 121 H 8.0527 1.57033 2.72375 0
M  V30 122 N 11.8248 0.280983 1.55075 0
M  V30 123 C 13.0738 -0.334784 1.98902 0
M  V30 124 C 13.3868 -1.56534 1.17288 0
M  V30 125 O 14.5928 -2.25443 1.51287 0
M  V30 126 C 13.0488 -0.646994 3.54037 0
M  V30 127 C 12.6568 0.564085 4.44435 0
M  V30 128 C 14.4008 -1.22506 4.06439 0
M  V30 129 C 12.3078 0.226137 5.90967 0
M  V30 130 H 11.2378 -0.128866 0.742906 0
M  V30 131 H 13.8888 0.386556 1.79382 0
M  V30 132 H 12.2708 -1.42739 3.6938 0
M  V30 133 H 13.4448 1.34082 4.40861 0
M  V30 134 H 11.7598 1.0594 4.02698 0
M  V30 135 H 14.3568 -1.49182 5.13468 0
M  V30 136 H 14.6998 -2.16085 3.55827 0
M  V30 137 H 15.2328 -0.50682 3.94558 0
M  V30 138 H 11.9718 1.12996 6.45687 0
M  V30 139 H 11.4918 -0.513717 5.97596 0
M  V30 140 H 13.1708 -0.179539 6.46751 0
M  V30 141 N 13.3029 -1.57598 0.00835791 0
M  V30 142 C 14.7139 -1.7892 -0.53333 0
M  V30 143 C 15.0649 -0.916609 -1.73473 0
M  V30 144 O 14.1899 -0.121336 -2.1606 0
M  V30 145 C 14.7849 -3.24488 -0.974313 0
M  V30 146 C 13.3439 -3.46878 -1.46125 0
M  V30 147 C 12.4909 -2.74157 -0.416302 0
M  V30 148 H 15.4419 -1.56958 0.234495 0
M  V30 149 H 15.4629 -3.3306 -1.83988 0
M  V30 150 H 14.9749 -3.87972 -0.099718 0
M  V30 151 H 13.0759 -2.8862 -2.35646 0
M  V30 152 H 13.1889 -4.55572 -1.48295 0
M  V30 153 H 11.5529 -2.39022 -0.87981 0
M  V30 154 H 12.3359 -3.40345 0.44947 0
M  V30 155 N 14.781 0.264519 -1.55364 0
M  V30 156 C 16.058 1.01677 -1.67096 0
M  V30 157 C 16.438 2.03996 -0.543015 0
M  V30 158 O 15.786 2.23907 0.45585 0
M  V30 159 C 15.996 1.66596 -3.0667 0
M  V30 160 C 17.344 2.17442 -3.64697 0
M  V30 161 O 18.368 1.76568 -3.09358 0
M  V30 162 O 17.227 2.92439 -4.61673 0
M  V30 163 H 14.321 0.472161 -0.678965 0
M  V30 164 H 16.867 0.259703 -1.67701 0
M  V30 165 H 15.639 0.924962 -3.80211 0
M  V30 166 H 15.262 2.48968 -3.10001 0
M  V30 167 N 16.2591 1.48442 0.529413 0
M  V30 168 C 17.2091 1.59407 1.63014 0
M  V30 169 C 18.1931 0.451166 1.54445 0
M  V30 170 O 19.3851 0.702635 1.62456 0
M  V30 171 C 16.5141 1.63746 3.01732 0
M  V30 172 C 15.6001 2.83518 3.15402 0
M  V30 173 N 15.9911 4.07929 2.99045 0
M  V30 174 C 14.2891 2.80862 3.46457 0
M  V30 175 C 14.9901 4.8829 3.16146 0
M  V30 176 N 13.9661 4.21117 3.43746 0
M  V30 177 H 17.7681 2.53343 1.48978 0
M  V30 178 H 15.2821 1.44821 0.734885 0
M  V30 179 H 17.2791 1.69695 3.80801 0
M  V30 180 H 15.9391 0.709264 3.16859 0
M  V30 181 H 16.9501 4.38357 2.75796 0
M  V30 182 H 13.6271 1.97301 3.67938 0
M  V30 183 H 15.0171 5.97028 3.08232 0
M  V30 184 N 17.7372 -0.778329 1.37039 0
M  V30 185 C 18.6842 -1.89139 1.32269 0
M  V30 186 C 19.6542 -1.65017 0.189387 0
M  V30 187 O 20.8392 -1.87024 0.377693 0
M  V30 188 C 17.9792 -3.26112 1.12894 0
M  V30 189 C 17.0922 -3.62233 2.35396 0
M  V30 190 C 16.2272 -4.8838 2.08946 0
M  V30 191 C 15.2662 -5.17212 3.2735 0
M  V30 192 N 14.4032 -6.34546 3.00492 0
M  V30 193 H 19.2432 -1.92552 2.27437 0
M  V30 194 H 16.7802 -0.941473 1.13025 0
M  V30 195 H 18.7382 -4.05116 0.996835 0
M  V30 196 H 17.3682 -3.22091 0.213758 0
M  V30 197 H 16.4202 -2.78265 2.5937 0
M  V30 198 H 17.7322 -3.79481 3.23721 0
M  V30 199 H 16.8862 -5.75274 1.92729 0
M  V30 200 H 15.6252 -4.73222 1.17949 0
M  V30 201 H 14.6302 -4.28796 3.44113 0
M  V30 202 H 15.8552 -5.34283 4.19188 0
M  V30 203 H 13.8012 -6.20759 2.12118 0
M  V30 204 H 13.7182 -6.52179 3.82358 0
M  V30 205 H 14.9862 -7.24394 2.87879 0
M  V30 206 N 19.2153 -1.21501 -1.00376 0
M  V30 207 C 20.1653 -0.942843 -2.07592 0
M  V30 208 C 21.1493 0.102384 -1.60574 0
M  V30 209 O 22.3413 -0.10671 -1.76678 0
M  V30 210 C 19.4703 -0.510729 -3.3948 0
M  V30 211 C 18.5563 -1.59009 -3.93163 0
M  V30 212 N 18.9473 -2.81544 -4.20198 0
M  V30 213 C 17.2453 -1.45925 -4.21452 0
M  V30 214 C 17.9463 -3.51261 -4.63671 0
M  V30 215 N 16.9223 -2.78703 -4.66718 0
M  V30 216 H 20.7243 -1.87378 -2.26421 0
M  V30 217 H 18.2383 -1.11093 -1.18458 0
M  V30 218 H 20.2353 -0.297101 -4.1584 0
M  V30 219 H 18.8953 0.413436 -3.22057 0
M  V30 220 H 19.9063 -3.18075 -4.08716 0
M  V30 221 H 16.5833 -0.600467 -4.13159 0
M  V30 222 H 17.9733 -4.56183 -4.93302 0
M  V30 223 N 20.6934 1.19889 -1.02296 0
M  V30 224 C 21.6564 2.21116 -0.603351 0
M  V30 225 C 22.6564 1.5738 0.329884 0
M  V30 226 O 23.8464 1.73802 0.117702 0
M  V30 227 C 20.9784 3.40696 0.117992 0
M  V30 228 H 22.1714 2.59754 -1.49893 0
M  V30 229 H 19.7244 1.33463 -0.813468 0
M  V30 230 H 20.4594 3.07569 1.0282 0
M  V30 231 H 20.2444 3.88188 -0.552511 0
M  V30 232 H 21.7344 4.15692 0.398696 0
M  V30 233 N 22.1715 0.800033 1.35784 0
M  V30 234 C 23.4175 0.377901 1.99248 0
M  V30 235 C 23.7505 -1.05052 1.63333 0
M  V30 236 O 23.0255 -1.72768 0.893385 0
M  V30 237 C 23.3085 0.553922 3.55814 0
M  V30 238 C 23.1615 2.0268 4.01548 0
M  V30 239 C 24.4805 -0.0244802 4.40093 0
M  V30 240 H 21.5995 0.138782 0.723815 0
M  V30 241 H 24.2415 1.00835 1.61035 0
M  V30 242 H 22.3915 0.0172398 3.88496 0
M  V30 243 H 24.0635 2.62536 3.79305 0
M  V30 244 H 22.3065 2.5256 3.52698 0
M  V30 245 H 22.9775 2.10087 5.10458 0
M  V30 246 H 25.4535 0.433775 4.13833 0
M  V30 247 H 24.3295 0.128637 5.48749 0
M  V30 248 H 24.5905 -1.11758 4.27741 0
M  V30 249 N 23.6496 -1.47581 0.552962 0
M  V30 250 C 24.8986 -2.01684 0.0251995 0
M  V30 251 C 25.2116 -1.43317 -1.33115 0
M  V30 252 O 26.4176 -1.89057 -1.94858 0
M  V30 253 C 24.8736 -3.599 -0.00542052 0
M  V30 254 C 24.4816 -4.27257 1.34742 0
M  V30 255 C 26.2256 -4.21768 -0.4808 0
M  V30 256 C 24.1326 -5.77467 1.27614 0
M  V30 257 H 23.0626 -0.753979 0.00565033 0
M  V30 258 H 25.7136 -1.69616 0.70018 0
M  V30 259 H 24.0956 -3.88911 -0.745961 0
M  V30 260 H 25.2696 -4.09893 2.10534 0
M  V30 261 H 23.5846 -3.77358 1.76039 0
M  V30 262 H 26.1816 -5.31838 -0.55246 0
M  V30 263 H 26.5246 -3.88651 -1.49184 0
M  V30 264 H 27.0576 -3.97273 0.204752 0
M  V30 265 H 23.7966 -6.15196 2.26304 0
M  V30 266 H 23.3166 -5.9718 0.55996 0
M  V30 267 H 24.9956 -6.3959 0.976421 0
M  V30 268 N 25.1277 -0.289203 -1.54924 0
M  V30 269 C 26.0907 0.579144 -2.21762 0
M  V30 270 C 27.0907 1.07047 -1.1999 0
M  V30 271 O 28.2807 0.968384 -1.44803 0
M  V30 272 C 25.4127 1.80055 -2.8947 0
M  V30 273 H 26.6057 -0.00464908 -2.999 0
M  V30 274 H 24.1587 -0.0399306 -1.56249 0
M  V30 275 H 24.8937 2.42449 -2.15381 0
M  V30 276 H 24.6787 1.45602 -3.64064 0
M  V30 277 H 26.1687 2.41773 -3.40493 0
M  V30 278 N 26.6058 1.57591 -0.0167156 0
M  V30 279 C 27.5358 2.12496 0.967858 0
M  V30 280 C 28.5168 1.03807 1.34752 0
M  V30 281 O 29.7018 1.31577 1.42833 0
M  V30 282 C 26.8318 2.64194 2.25431 0
M  V30 283 C 25.7858 3.77559 2.01576 0
M  V30 284 C 25.1118 4.15636 3.36379 0
M  V30 285 C 26.4118 5.04151 1.36489 0
M  V30 286 H 28.1058 2.95013 0.510643 0
M  V30 287 H 25.6518 1.41915 0.244181 0
M  V30 288 H 27.6048 3.01236 2.94678 0
M  V30 289 H 26.3288 1.78821 2.73296 0
M  V30 290 H 24.9878 3.40937 1.34751 0
M  V30 291 H 24.6358 3.27263 3.81979 0
M  V30 292 H 24.3358 4.92022 3.21229 0
M  V30 293 H 25.8598 4.5525 4.06915 0
M  V30 294 H 27.2738 5.38857 1.95718 0
M  V30 295 H 25.6708 5.85453 1.31776 0
M  V30 296 H 26.7408 4.83733 0.336219 0
M  V30 297 N 28.0839 -0.256276 1.55502 0
M  V30 298 C 29.3119 -1.00342 1.8094 0
M  V30 299 C 29.7269 -1.79307 0.59114 0
M  V30 300 O 29.0839 -1.77114 -0.440081 0
M  V30 301 C 29.1349 -1.94875 3.04476 0
M  V30 302 O 28.8559 -1.19107 4.21598 0
M  V30 303 C 30.3569 -2.81266 3.42644 0
M  V30 304 H 27.5769 -0.295685 0.602338 0
M  V30 305 H 30.1209 -0.281998 2.02546 0
M  V30 306 H 28.2759 -2.62457 2.84947 0
M  V30 307 H 28.6899 -1.82969 4.91551 0
M  V30 308 H 30.1639 -3.43362 4.32211 0
M  V30 309 H 30.6409 -3.51897 2.62802 0
M  V30 310 H 31.2469 -2.1915 3.64491 0
M  V30 311 N 29.562 -1.4872 -0.521534 0
M  V30 312 C 30.787 -1.61101 -1.30618 0
M  V30 313 C 31.212 -0.274611 -1.86085 0
M  V30 314 O 30.57 0.754937 -1.64834 0
M  V30 315 C 30.618 -2.66709 -2.4269 0
M  V30 316 O 29.722 -2.24456 -3.45967 0
M  V30 317 H 29.063 -0.539921 -0.386499 0
M  V30 318 H 31.593 -1.94767 -0.626645 0
M  V30 319 H 31.603 -2.88245 -2.88754 0
M  V30 320 H 30.278 -3.63727 -2.01682 0
M  V30 321 H 28.855 -2.13168 -3.05964 0
M  V30 322 N 31.0401 0.771051 -1.3745 0
M  V30 323 C 32.2891 1.52491 -1.3202 0
M  V30 324 C 32.6021 1.9538 0.0927347 0
M  V30 325 O 33.8081 2.70159 0.269503 0
M  V30 326 C 32.2641 2.75366 -2.31736 0
M  V30 327 C 31.8721 2.39573 -3.78562 0
M  V30 328 C 33.6161 3.53307 -2.35318 0
M  V30 329 C 31.5231 3.58954 -4.70007 0
M  V30 330 H 30.4531 0.572506 -0.490666 0
M  V30 331 H 33.1041 0.844474 -1.62914 0
M  V30 332 H 31.4861 3.45303 -1.93861 0
M  V30 333 H 32.6601 1.77415 -4.25277 0
M  V30 334 H 30.9751 1.74805 -3.77932 0
M  V30 335 H 33.5721 4.42039 -3.00842 0
M  V30 336 H 33.9151 3.93217 -1.36698 0
M  V30 337 H 34.4481 2.90367 -2.71904 0
M  V30 338 H 31.1871 3.24125 -5.69757 0
M  V30 339 H 30.7071 4.20214 -4.27996 0
M  V30 340 H 32.3861 4.25758 -4.87175 0
M  V30 341 N 32.5182 1.22032 0.997298 0
M  V30 342 C 33.7482 1.06686 1.76923 0
M  V30 343 C 34.1562 -0.385838 1.85224 0
M  V30 344 O 33.4992 -1.27929 1.31833 0
M  V30 345 C 33.5612 1.59802 3.22031 0
M  V30 346 C 33.2252 3.08362 3.37286 0
M  V30 347 C 34.2222 4.05835 3.24952 0
M  V30 348 C 31.9072 3.47727 3.6248 0
M  V30 349 C 33.9012 5.4066 3.37588 0
M  V30 350 C 31.5882 4.82701 3.74757 0
M  V30 351 C 32.5862 5.78977 3.62319 0
M  V30 352 O 32.2742 7.11502 3.74193 0
M  V30 353 H 32.0062 0.374767 0.562606 0
M  V30 354 H 34.5602 1.61991 1.26286 0
M  V30 355 H 32.7902 0.989003 3.73839 0
M  V30 356 H 34.4792 1.40184 3.80924 0
M  V30 357 H 35.2452 3.76766 3.05405 0
M  V30 358 H 31.1242 2.73317 3.7124 0
M  V30 359 H 34.6682 6.15788 3.27796 0
M  V30 360 H 30.5652 5.11453 3.9381 0
M  V30 361 H 31.3332 7.19019 3.91093 0
M  V30 362 N 33.9963 -1.19345 1.0293 0
M  V30 363 C 35.2443 -1.88665 0.724574 0
M  V30 364 C 35.5653 -1.80036 -0.749144 0
M  V30 365 O 34.8353 -1.2111 -1.53978 0
M  V30 366 H 33.4153 -0.698406 0.265025 0
M  V30 367 H 36.0773 -1.44885 1.30362 0
M  V30 368 H 35.1733 -2.94987 1.01926 0
M  V30 369 N 35.4744 -0.807222 -1.35358 0
M  V30 370 C 36.7204 -0.388463 -1.99045 0
M  V30 371 C 37.0534 1.04184 -1.63888 0
M  V30 372 O 36.3284 1.72292 -0.902535 0
M  V30 373 C 36.6114 -0.572783 -3.55515 0
M  V30 374 C 36.4644 -2.04807 -4.00468 0
M  V30 375 C 37.7834 0.00114064 -4.401 0
M  V30 376 H 34.9024 -0.142619 -0.723069 0
M  V30 377 H 37.5444 -1.01687 -1.60498 0
M  V30 378 H 35.6944 -0.0378425 -3.88482 0
M  V30 379 H 37.3664 -2.64544 -3.77908 0
M  V30 380 H 35.6094 -2.54427 -3.51353 0
M  V30 381 H 36.2804 -2.12792 -5.09337 0
M  V30 382 H 38.7564 -0.455716 -4.13597 0
M  V30 383 H 37.6324 -0.157737 -5.48673 0
M  V30 384 H 37.8934 1.09488 -4.28328 0
M  V30 385 N 36.9525 1.47285 -0.560781 0
M  V30 386 C 38.2005 2.02064 -0.0379868 0
M  V30 387 C 38.5215 1.43711 1.31803 0
M  V30 388 O 37.7915 0.61362 1.86042 0
M  V30 389 H 36.3715 0.746918 -0.0110531 0
M  V30 390 H 39.0335 1.80648 -0.731598 0
M  V30 391 H 38.1295 3.12064 0.0474463 0
M  V30 392 N 38.4306 0.297415 1.54768 0
M  V30 393 C 39.3776 -0.580276 2.23386 0
M  V30 394 C 40.3476 -1.13238 1.21517 0
M  V30 395 O 41.5326 -1.17757 1.50126 0
M  V30 396 C 38.6726 -1.74801 2.97555 0
M  V30 397 C 37.7856 -1.22764 4.1419 0
M  V30 398 C 36.9206 -2.35895 4.75949 0
M  V30 399 C 35.9596 -1.80974 5.84735 0
M  V30 400 N 35.0966 -2.87664 6.40464 0
M  V30 401 H 39.9366 0.0114833 2.97998 0
M  V30 402 H 37.4736 0.0174361 1.4709 0
M  V30 403 H 39.4316 -2.43475 3.38786 0
M  V30 404 H 38.0616 -2.31145 2.25326 0
M  V30 405 H 37.1136 -0.433271 3.77924 0
M  V30 406 H 38.4256 -0.785551 4.92575 0
M  V30 407 H 37.5796 -3.12523 5.20014 0
M  V30 408 H 36.3186 -2.83429 3.96887 0
M  V30 409 H 35.3236 -1.02834 5.40097 0
M  V30 410 H 36.5486 -1.34348 6.65678 0
M  V30 411 H 34.4946 -3.34538 5.64287 0
M  V30 412 H 34.4116 -2.4794 7.14186 0
M  V30 413 H 35.6796 -3.642 6.89187 0
M  V30 414 N 39.9087 -1.5758 0.0250728 0
M  V30 415 C 41.1367 -1.9593 -0.664747 0
M  V30 416 C 41.5517 -0.901352 -1.65895 0
M  V30 417 O 40.9087 0.117255 -1.82123 0
M  V30 418 C 40.9597 -3.34342 -1.37468 0
M  V30 419 O 40.6807 -4.36079 -0.420324 0
M  V30 420 C 42.1817 -3.873 -2.1567 0
M  V30 421 H 39.4017 -0.645405 -0.183557 0
M  V30 422 H 41.9457 -2.04329 0.0836372 0
M  V30 423 H 40.1007 -3.27175 -2.0745 0
M  V30 424 H 40.5147 -5.16297 -0.923991 0
M  V30 425 H 41.9887 -4.86504 -2.60803 0
M  V30 426 H 42.4657 -3.21331 -2.99405 0
M  V30 427 H 43.0717 -3.97723 -1.50654 0
M  V30 428 N 41.3868 0.248026 -1.55636 0
M  V30 429 C 42.8028 0.596483 -1.48035 0
M  V30 430 C 43.0028 1.88386 -0.715039 0
M  V30 431 O 42.0588 2.51319 -0.243944 0
M  V30 432 C 43.3718 0.700258 -2.92433 0
M  V30 433 C 44.9198 0.792659 -3.02797 0
M  V30 434 C 45.3948 0.928005 -4.485 0
M  V30 435 N 46.8858 0.992903 -4.52433 0
M  V30 436 C 47.6208 1.11687 -5.62418 0
M  V30 437 N 47.1168 1.20645 -6.82214 0
M  V30 438 N 48.9098 1.14994 -5.50212 0
M  V30 439 H 41.0608 -0.597109 -2.03834 0
M  V30 440 H 43.3238 -0.205925 -0.925364 0
M  V30 441 H 43.0298 -0.175658 -3.51261 0
M  V30 442 H 42.9038 1.57255 -3.42857 0
M  V30 443 H 45.2908 1.65903 -2.4405 0
M  V30 444 H 45.3718 -0.104762 -2.55585 0
M  V30 445 H 45.0158 0.0661971 -5.07857 0
M  V30 446 H 44.9458 1.84045 -4.93391 0
M  V30 447 H 47.4368 0.935064 -3.66149 0
M  V30 448 H 47.7498 1.30008 -7.61786 0
M  V30 449 H 46.0948 1.17605 -6.84977 0
M  V30 450 H 49.2858 1.07643 -4.55555 0
M  V30 451 H 49.4588 1.24311 -6.35965 0
M  V30 452 N 42.8649 1.48995 0.513639 0
M  V30 453 C 44.0899 1.61792 1.29762 0
M  V30 454 C 44.5149 0.284475 1.85936 0
M  V30 455 O 43.8729 -0.746185 1.65232 0
M  V30 456 C 43.9209 2.67993 2.41272 0
M  V30 457 O 43.0249 2.26287 3.44772 0
M  V30 458 H 42.3659 0.541963 0.38363 0
M  V30 459 H 44.8959 1.95097 0.616307 0
M  V30 460 H 44.9059 2.89772 2.87221 0
M  V30 461 H 43.5809 3.64791 1.9975 0
M  V30 462 H 42.1579 2.14788 3.04829 0
M  V30 463 N 44.343 -0.763751 1.37857 0
M  V30 464 C 45.29 -1.87726 1.34267 0
M  V30 465 C 46.26 -1.64807 0.206879 0
M  V30 466 O 47.445 -1.86613 0.397508 0
M  V30 467 C 44.585 -3.24896 1.16346 0
M  V30 468 C 43.698 -3.59716 2.39225 0
M  V30 469 C 42.833 -4.86137 2.14114 0
M  V30 470 C 41.872 -5.13711 3.32817 0
M  V30 471 N 41.009 -6.31323 3.07206 0
M  V30 472 H 45.849 -1.90129 2.29466 0
M  V30 473 H 43.386 -0.929433 1.14017 0
M  V30 474 H 45.344 -4.04036 1.03975 0
M  V30 475 H 43.974 -3.21847 0.247909 0
M  V30 476 H 43.026 -2.75498 2.62307 0
M  V30 477 H 44.338 -3.76027 3.27728 0
M  V30 478 H 43.492 -5.73198 1.9882 0
M  V30 479 H 42.231 -4.71945 1.22961 0
M  V30 480 H 41.236 -4.25123 3.48641 0
M  V30 481 H 42.461 -5.29807 4.24832 0
M  V30 482 H 40.407 -6.18474 2.1869 0
M  V30 483 H 40.324 -6.48087 3.89254 0
M  V30 484 H 41.592 -7.213 2.95546 0
M  V30 485 N 45.8211 -1.22559 -0.990812 0
M  V30 486 C 46.7841 -0.998863 -2.0629 0
M  V30 487 C 47.7841 0.0354834 -1.60761 0
M  V30 488 O 48.9741 -0.203231 -1.7301 0
M  V30 489 C 46.1061 -0.509203 -3.37076 0
M  V30 490 H 47.2991 -1.95014 -2.27837 0
M  V30 491 H 44.8521 -1.04456 -1.16269 0
M  V30 492 H 45.5871 0.446335 -3.21214 0
M  V30 493 H 45.3721 -1.25547 -3.71457 0
M  V30 494 H 46.8621 -0.370888 -4.1595 0
M  V30 495 N 47.2992 1.18797 -1.03562 0
M  V30 496 C 48.5482 1.87978 -0.731235 0
M  V30 497 C 48.8612 1.80911 0.743671 0
M  V30 498 O 50.0672 2.45407 1.16137 0
M  V30 499 C 48.5232 3.3721 -1.25768 0
M  V30 500 C 48.1312 3.52818 -2.76085 0
M  V30 501 C 49.8752 4.11825 -1.0296 0
M  V30 502 C 47.7822 4.9598 -3.22114 0
M  V30 503 H 46.7122 0.704063 -0.269835 0
M  V30 504 H 49.3632 1.34266 -1.25079 0
M  V30 505 H 47.7452 3.90359 -0.666011 0
M  V30 506 H 48.9192 3.09965 -3.40966 0
M  V30 507 H 47.2342 2.91602 -2.97249 0
M  V30 508 H 49.8312 5.17411 -1.34869 0
M  V30 509 H 50.1742 4.16287 0.0333546 0
M  V30 510 H 50.7072 3.64833 -1.58562 0
M  V30 511 H 47.4462 4.96684 -4.27768 0
M  V30 512 H 46.9662 5.39569 -2.61965 0
M  V30 513 H 48.6452 5.6467 -3.15844 0
M  V30 514 N 48.7773 0.814389 1.34928 0
M  V30 515 C 49.7073 0.244827 2.32213 0
M  V30 516 C 50.6883 -0.634024 1.57842 0
M  V30 517 O 51.8733 -0.562676 1.8587 0
M  V30 518 C 49.0033 -0.601106 3.42058 0
M  V30 519 C 47.9573 0.179896 4.27622 0
M  V30 520 C 47.2833 -0.788237 5.28858 0
M  V30 521 C 48.5833 1.38329 5.03649 0
M  V30 522 H 50.2773 1.05763 2.80097 0
M  V30 523 H 47.8233 0.510029 1.34665 0
M  V30 524 H 49.7763 -1.00968 4.09125 0
M  V30 525 H 48.5003 -1.44688 2.92802 0
M  V30 526 H 47.1593 0.569739 3.62146 0
M  V30 527 H 46.8073 -1.62973 4.75866 0
M  V30 528 H 46.5073 -0.269942 5.8698 0
M  V30 529 H 48.0313 -1.19485 5.98795 0
M  V30 530 H 49.4453 1.04918 5.63618 0
M  V30 531 H 47.8423 1.83662 5.71304 0
M  V30 532 H 48.9123 2.16592 4.33839 0
M  V30 533 N 50.2554 -1.46986 0.568584 0
M  V30 534 C 51.2184 -2.28624 -0.162366 0
M  V30 535 C 52.2184 -1.37596 -0.832103 0
M  V30 536 O 53.4084 -1.60115 -0.68622 0
M  V30 537 C 50.5404 -3.17596 -1.23878 0
M  V30 538 H 51.7334 -2.94722 0.554899 0
M  V30 539 H 49.2864 -1.52863 0.325976 0
M  V30 540 H 50.0214 -2.56214 -1.98808 0
M  V30 541 H 49.8064 -3.846 -0.763219 0
M  V30 542 H 51.2964 -3.79078 -1.75185 0
M  V30 543 N 51.7335 -0.305618 -1.54608 0
M  V30 544 C 52.6965 0.555591 -2.22364 0
M  V30 545 C 53.6965 1.05768 -1.21119 0
M  V30 546 O 54.8865 0.952972 -1.45822 0
M  V30 547 C 52.0185 1.76974 -2.91364 0
M  V30 548 H 53.2115 -0.0364572 -2.99878 0
M  V30 549 H 50.7645 -0.0565007 -1.56198 0
M  V30 550 H 51.4995 2.40151 -2.17941 0
M  V30 551 H 51.2845 1.41732 -3.65588 0
M  V30 552 H 52.7745 2.38148 -3.43038 0
M  V30 553 N 53.2116 1.57565 -0.0334293 0
M  V30 554 C 54.1746 2.09393 0.932048 0
M  V30 555 C 55.1746 1.00986 1.25134 0
M  V30 556 O 56.3646 1.27129 1.19096 0
M  V30 557 C 53.4966 2.56338 2.2473 0
M  V30 558 H 54.6896 2.95984 0.483085 0
M  V30 559 H 52.2426 1.54819 0.21468 0
M  V30 560 H 52.9776 1.7309 2.74245 0
M  V30 561 H 52.7626 3.35542 2.02865 0
M  V30 562 H 54.2526 2.96646 2.93923 0
M  V30 563 N 54.6897 -0.239769 1.55765 0
M  V30 564 C 55.9377 -0.964892 1.77579 0
M  V30 565 C 56.2587 -1.85582 0.598699 0
M  V30 566 O 55.5287 -1.92075 -0.385226 0
M  V30 567 H 54.1087 -0.359265 0.654933 0
M  V30 568 H 56.7707 -0.256001 1.93211 0
M  V30 569 H 55.8667 -1.58243 2.69009 0
M  V30 570 N 56.1678 -1.49265 -0.50573 0
M  V30 571 C 57.4168 -1.57761 -1.25675 0
M  V30 572 C 57.7298 -0.267371 -1.93764 0
M  V30 573 O 58.9358 -0.230827 -2.70517 0
M  V30 574 C 57.3918 -2.78332 -2.28165 0
M  V30 575 C 56.9998 -4.16096 -1.66037 0
M  V30 576 C 58.7438 -2.96155 -3.04125 0
M  V30 577 C 56.6508 -5.27895 -2.6661 0
M  V30 578 H 55.5808 -0.587391 -0.472745 0
M  V30 579 H 58.2318 -1.75644 -0.53118 0
M  V30 580 H 56.6138 -2.53934 -3.03865 0
M  V30 581 H 57.7878 -4.50612 -0.963622 0
M  V30 582 H 56.1028 -4.03591 -1.02484 0
M  V30 583 H 58.6998 -3.76849 -3.79327 0
M  V30 584 H 59.0428 -2.06534 -3.61455 0
M  V30 585 H 59.5758 -3.2057 -2.35541 0
M  V30 586 H 56.3148 -6.1956 -2.14068 0
M  V30 587 H 55.8348 -4.97839 -3.34539 0
M  V30 588 H 57.5138 -5.57031 -3.29129 0
M  V30 589 N 57.6459 0.756429 -1.3826 0
M  V30 590 C 58.6089 1.85176 -1.35065 0
M  V30 591 C 59.6089 1.58818 -0.251703 0
M  V30 592 O 60.7989 1.66615 -0.508433 0
M  V30 593 C 57.9309 3.22596 -1.10201 0
M  V30 594 H 59.1239 1.89417 -2.3251 0
M  V30 595 H 56.6769 0.95783 -1.23512 0
M  V30 596 H 57.4119 3.24025 -0.133504 0
M  V30 597 H 57.1969 3.43122 -1.89762 0
M  V30 598 H 58.6869 4.02673 -1.10654 0
M  V30 599 N 59.124 1.23083 0.984299 0
M  V30 600 C 60.034 1.02515 2.11016 0
M  V30 601 C 61.05 -0.0291702 1.73976 0
M  V30 602 O 62.226 0.165434 2.00719 0
M  V30 603 C 59.291 0.614673 3.41208 0
M  V30 604 C 58.352 1.74359 3.92297 0
M  V30 605 C 57.585 1.35261 5.16275 0
M  V30 606 O 57.808 0.235136 5.69915 0
M  V30 607 O 56.742 2.17227 5.61334 0
M  V30 608 H 60.568 1.96862 2.31255 0
M  V30 609 H 58.153 1.01753 1.09392 0
M  V30 610 H 60.035 0.396518 4.1953 0
M  V30 611 H 58.71 -0.299851 3.22308 0
M  V30 612 H 57.617 2.01635 3.1511 0
M  V30 613 H 58.95 2.63629 4.15645 0
M  V30 614 N 60.6021 -1.18246 1.0419 0
M  V30 615 C 61.8791 -1.84121 0.660208 0
M  V30 616 C 62.2591 -1.92778 -0.860221 0
M  V30 617 O 61.6071 -1.45464 -1.76217 0
M  V30 618 C 61.8171 -3.22355 1.33747 0
M  V30 619 C 63.1651 -3.98376 1.46906 0
M  V30 620 O 64.1891 -3.31799 1.29568 0
M  V30 621 O 63.0481 -5.17665 1.75171 0
M  V30 622 H 60.1421 -0.794036 0.231161 0
M  V30 623 H 62.6881 -1.25628 1.14087 0
M  V30 624 H 61.4601 -3.10964 2.37522 0
M  V30 625 H 61.0831 -3.88506 0.845515 0
M  V30 626 N 62.0802 -0.821533 -1.34494 0
M  V30 627 C 63.3262 -0.409552 -1.98622 0
M  V30 628 C 63.6592 1.0244 -1.64984 0
M  V30 629 O 62.9342 1.71325 -0.920758 0
M  V30 630 C 63.2172 -0.610458 -3.54888 0
M  V30 631 C 63.0702 -2.09043 -3.98273 0
M  V30 632 C 64.3892 -0.0455379 -4.40076 0
M  V30 633 H 61.5082 -0.15028 -0.721516 0
M  V30 634 H 64.1502 -1.03384 -1.59411 0
M  V30 635 H 62.3002 -0.079044 -3.8842 0
M  V30 636 H 63.9722 -2.68537 -3.75081 0
M  V30 637 H 62.2152 -2.58139 -3.48635 0
M  V30 638 H 62.8862 -2.18182 -5.07051 0
M  V30 639 H 65.3622 -0.499557 -4.1309 0
M  V30 640 H 64.2382 -0.215922 -5.48475 0
M  V30 641 H 64.4992 1.04939 -4.29465 0
M  V30 642 N 63.5583 1.46682 -0.576371 0
M  V30 643 C 64.5053 2.30241 0.160499 0
M  V30 644 C 65.4753 1.40233 0.890162 0
M  V30 645 O 66.6603 1.69186 0.882084 0
M  V30 646 C 63.8003 3.24578 1.1723 0
M  V30 647 C 62.9133 4.29684 0.446736 0
M  V30 648 C 62.0483 5.11154 1.44551 0
M  V30 649 C 61.0873 6.08015 0.70599 0
M  V30 650 N 60.2243 6.82376 1.65251 0
M  V30 651 H 65.0643 2.92727 -0.558127 0
M  V30 652 H 62.6013 1.44272 -0.287056 0
M  V30 653 H 64.5593 3.77711 1.77172 0
M  V30 654 H 63.1893 2.63916 1.85872 0
M  V30 655 H 62.2413 3.79458 -0.267594 0
M  V30 656 H 63.5533 4.98626 -0.131686 0
M  V30 657 H 62.7073 5.68533 2.11791 0
M  V30 658 H 61.4463 4.42158 2.05786 0
M  V30 659 H 60.4513 5.49796 0.0197725 0
M  V30 660 H 61.6763 6.79028 0.09912 0
M  V30 661 H 59.6223 6.16094 2.25308 0
M  V30 662 H 59.5393 7.47556 1.12673 0
M  V30 663 H 60.8073 7.44316 2.31546 0
M  V30 664 N 65.0364 0.313813 1.54444 0
M  V30 665 C 66.2854 -0.292519 1.99568 0
M  V30 666 C 66.5984 -1.54011 1.20582 0
M  V30 667 O 67.8044 -2.22183 1.56035 0
M  V30 668 C 66.2604 -0.571752 3.55329 0
M  V30 669 C 65.8684 0.658229 4.43138 0
M  V30 670 C 67.6124 -1.13857 4.08946 0
M  V30 671 C 65.5194 0.351439 5.90355 0
M  V30 672 H 64.4494 -0.113079 0.745472 0
M  V30 673 H 67.1004 0.424518 1.78522 0
M  V30 674 H 65.4824 -1.34872 3.72325 0
M  V30 675 H 66.6564 1.43403 4.37918 0
M  V30 676 H 64.9714 1.14458 4.0036 0
M  V30 677 H 67.5684 -1.38257 5.16516 0
M  V30 678 H 67.9114 -2.08489 3.6033 0
M  V30 679 H 68.4444 -0.423015 3.95544 0
M  V30 680 H 65.1834 1.26667 6.43145 0
M  V30 681 H 64.7034 -0.386842 5.98551 0
M  V30 682 H 66.3824 -0.0423134 6.46986 0
M  V30 683 N 66.5145 -1.57545 0.0417849 0
M  V30 684 C 67.7395 -1.97035 -0.647455 0
M  V30 685 C 68.1645 -0.918775 -1.64135 0
M  V30 686 O 67.5225 0.119006 -1.80909 0
M  V30 687 C 67.5705 -3.35609 -1.31905 0
M  V30 688 O 66.6745 -3.3287 -2.43457 0
M  V30 689 H 66.0155 -0.64211 -0.169086 0
M  V30 690 H 68.5455 -2.04318 0.107399 0
M  V30 691 H 68.5555 -3.72126 -1.67291 0
M  V30 692 H 67.2305 -4.11685 -0.590586 0
M  V30 693 H 65.8075 -3.08087 -2.10088 0
M  V30 694 N 67.9926 0.231505 -1.5589 0
M  V30 695 C 68.9026 1.308 -1.94752 0
M  V30 696 C 69.9186 1.51826 -0.849989 0
M  V30 697 O 71.0946 1.6515 -1.15271 0
M  V30 698 C 68.1596 2.63968 -2.24771 0
M  V30 699 C 67.2206 2.51331 -3.48039 0
M  V30 700 C 66.4536 3.78148 -3.76616 0
M  V30 701 O 66.6766 4.80722 -3.07022 0
M  V30 702 O 65.6106 3.75857 -4.70123 0
M  V30 703 H 69.4366 1.0083 -2.86474 0
M  V30 704 H 67.0216 0.433547 -1.42971 0
M  V30 705 H 68.9036 3.42633 -2.45318 0
M  V30 706 H 67.5786 2.9364 -1.36225 0
M  V30 707 H 66.4856 1.709 -3.32782 0
M  V30 708 H 67.8186 2.26601 -4.36936 0
M  V30 709 N 69.4707 1.49531 0.497807 0
M  V30 710 C 70.4007 1.6935 1.60757 0
M  V30 711 C 71.3817 0.542218 1.61227 0
M  V30 712 O 72.5667 0.778417 1.77917 0
M  V30 713 C 69.6967 1.76298 2.99226 0
M  V30 714 C 68.6507 2.91248 3.13622 0
M  V30 715 C 67.9767 2.83312 4.53474 0
M  V30 716 C 69.2767 4.3214 2.93346 0
M  V30 717 H 70.9707 2.62263 1.44425 0
M  V30 718 H 68.5167 1.26208 0.693367 0
M  V30 719 H 70.4697 1.88749 3.76765 0
M  V30 720 H 69.1937 0.799871 3.16654 0
M  V30 721 H 67.8527 2.78404 2.38509 0
M  V30 722 H 67.5007 1.84902 4.67782 0
M  V30 723 H 67.2007 3.60465 4.64046 0
M  V30 724 H 68.7247 2.97775 5.33069 0
M  V30 725 H 70.1387 4.45649 3.60652 0
M  V30 726 H 68.5357 5.1054 3.15387 0
M  V30 727 H 69.6057 4.46363 1.89441 0
M  V30 728 N 70.9488 -0.749086 1.3866 0
M  V30 729 C 72.1738 -1.54344 1.38538 0
M  V30 730 C 72.5988 -1.88088 -0.0216655 0
M  V30 731 O 71.9568 -1.50899 -1.00494 0
M  V30 732 C 72.0048 -2.8164 2.25192 0
M  V30 733 O 71.1088 -3.7698 1.67212 0
M  V30 734 H 70.4498 -0.466654 0.472367 0
M  V30 735 H 72.9798 -0.925355 1.82478 0
M  V30 736 H 72.9898 -3.30519 2.3921 0
M  V30 737 H 71.6648 -2.56411 3.27454 0
M  V30 738 H 70.2418 -3.35699 1.6236 0
M  V30 739 N 72.4269 -1.23603 -0.977757 0
M  V30 740 C 73.3369 -1.03632 -2.1047 0
M  V30 741 C 74.3529 0.0199435 -1.73989 0
M  V30 742 O 75.5289 -0.176076 -2.00629 0
M  V30 743 C 72.5939 -0.63276 -3.40877 0
M  V30 744 C 71.6549 -1.76437 -3.91367 0
M  V30 745 C 70.8879 -1.37997 -5.15551 0
M  V30 746 O 71.1109 -0.265357 -5.69782 0
M  V30 747 O 70.0449 -2.20201 -5.60174 0
M  V30 748 H 73.8709 -1.98086 -2.30208 0
M  V30 749 H 71.4559 -1.02332 -1.08851 0
M  V30 750 H 73.3379 -0.418761 -4.19314 0
M  V30 751 H 72.0129 0.282754 -3.22463 0
M  V30 752 H 70.9199 -2.03304 -3.14036 0
M  V30 753 H 72.2529 -2.6583 -4.14241 0
M  V30 754 N 73.905 1.17692 -1.04816 0
M  V30 755 C 75.153 1.87488 -0.754497 0
M  V30 756 C 75.474 1.81205 0.720407 0
M  V30 757 O 74.744 1.23544 1.52032 0
M  V30 758 H 73.324 0.694101 -0.276102 0
M  V30 759 H 75.986 1.42793 -1.32651 0
M  V30 760 H 75.082 2.93328 -1.06606 0
M  V30 761 N 75.3831 0.828654 1.34056 0
M  V30 762 C 76.3151 0.212052 2.28217 0
M  V30 763 C 77.3281 -0.601362 1.51286 0
M  V30 764 O 78.5171 -0.430104 1.73241 0
M  V30 765 C 75.6171 -0.72088 3.31144 0
M  V30 766 C 74.7901 0.0509587 4.3737 0
M  V30 767 C 73.8491 -0.803766 5.20025 0
M  V30 768 O 72.8751 -0.246667 5.68665 0
M  V30 769 N 74.0771 -2.1227 5.40298 0
M  V30 770 H 76.8421 1.02105 2.81771 0
M  V30 771 H 74.4031 0.686153 1.46641 0
M  V30 772 H 76.3951 -1.29742 3.8334 0
M  V30 773 H 74.9651 -1.43061 2.77943 0
M  V30 774 H 74.1851 0.808831 3.85813 0
M  V30 775 H 75.4731 0.582065 5.0546 0
M  V30 776 H 74.8711 -2.59898 5.02464 0
M  V30 777 H 73.4281 -2.64796 5.95589 0
M  V30 778 N 76.8612 -1.46375 0.584142 0
M  V30 779 C 78.1102 -2.01585 0.0679741 0
M  V30 780 C 78.4232 -1.46109 -1.30045 0
M  V30 781 O 79.6292 -1.93148 -1.90804 0
M  V30 782 C 78.0852 -3.5983 0.0709207 0
M  V30 783 C 77.6932 -4.24303 1.43775 0
M  V30 784 C 79.4372 -4.22693 -0.391228 0
M  V30 785 C 77.3442 -5.74631 1.39834 0
M  V30 786 H 76.2742 -0.753689 0.0216421 0
M  V30 787 H 78.9252 -1.68093 0.736001 0
M  V30 788 H 77.3072 -3.90405 -0.663299 0
M  V30 789 H 78.4812 -4.05335 2.19181 0
M  V30 790 H 76.7962 -3.73539 1.84004 0
M  V30 791 H 79.3932 -5.3289 -0.439524 0
M  V30 792 H 79.7362 -3.91728 -1.40906 0
M  V30 793 H 80.2692 -3.96749 0.288974 0
M  V30 794 H 77.0082 -6.10258 2.39303 0
M  V30 795 H 76.5282 -5.95858 0.686505 0
M  V30 796 H 78.2072 -6.37375 1.11187 0
M  V30 797 N 78.3393 -0.321999 -1.54275 0
M  V30 798 C 79.6163 0.335232 -1.92706 0
M  V30 799 C 79.9963 1.70006 -1.25145 0
M  V30 800 O 79.3443 2.25067 -0.394596 0
M  V30 801 C 79.5543 0.429008 -3.46353 0
M  V30 802 C 80.9023 0.690029 -4.18956 0
M  V30 803 O 81.9263 0.511992 -3.52501 0
M  V30 804 O 80.7853 1.03338 -5.36641 0
M  V30 805 H 77.8793 0.191143 -0.804608 0
M  V30 806 H 80.4253 -0.3716 -1.65581 0
M  V30 807 H 79.1973 -0.529611 -3.87699 0
M  V30 808 H 78.8203 1.18348 -3.79578 0
M  V30 809 N 79.8174 1.5752 -0.0501392 0
M  V30 810 C 81.0454 1.96963 0.633492 0
M  V30 811 C 81.4604 0.927631 1.6444 0
M  V30 812 O 80.8174 -0.0882665 1.82286 0
M  V30 813 C 80.8684 3.36487 1.32132 0
M  V30 814 O 80.5894 4.36693 0.350894 0
M  V30 815 C 82.0904 3.90682 2.09481 0
M  V30 816 H 79.3104 0.648244 0.173266 0
M  V30 817 H 81.8544 2.0417 -0.116134 0
M  V30 818 H 80.0094 3.30434 2.02218 0
M  V30 819 H 80.4234 5.17702 0.841735 0
M  V30 820 H 81.8974 4.90591 2.5303 0
M  V30 821 H 82.3744 3.26053 2.94255 0
M  V30 822 H 82.9804 4.00069 1.44307 0
M  V30 823 N 81.2955 -0.223234 1.56011 0
M  V30 824 C 82.2255 -1.27988 1.95298 0
M  V30 825 C 83.2065 -1.48976 0.820979 0
M  V30 826 O 84.3915 -1.61188 1.08315 0
M  V30 827 C 81.5215 -2.63 2.26822 0
M  V30 828 C 80.4755 -2.56671 3.42497 0
M  V30 829 C 79.8015 -3.95697 3.59622 0
M  V30 830 C 81.1015 -2.11601 4.77517 0
M  V30 831 H 82.7955 -0.953525 2.8381 0
M  V30 832 H 80.3415 -0.457244 1.36548 0
M  V30 833 H 82.2945 -3.37077 2.52898 0
M  V30 834 H 81.0185 -2.9732 1.35161 0
M  V30 835 H 79.6775 -1.85051 3.16467 0
M  V30 836 H 79.3255 -4.27322 2.6534 0
M  V30 837 H 79.0255 -3.92345 4.37424 0
M  V30 838 H 80.5495 -4.71438 3.88044 0
M  V30 839 H 81.9635 -2.7542 5.02809 0
M  V30 840 H 80.3605 -2.19311 5.5859 0
M  V30 841 H 81.4305 -1.06824 4.72987 0
M  V30 842 N 82.7736 -1.49793 -0.48987 0
M  V30 843 C 84.1896 -1.36803 -0.822022 0
M  V30 844 C 84.3896 -0.409652 -1.97292 0
M  V30 845 O 83.4456 0.154614 -2.52026 0
M  V30 846 C 84.7586 -2.77768 -1.15175 0
M  V30 847 C 86.3066 -2.86549 -1.25931 0
M  V30 848 C 86.7816 -4.28306 -1.62228 0
M  V30 849 N 88.2726 -4.31169 -1.69256 0
M  V30 850 C 89.0076 -5.37832 -1.98807 0
M  V30 851 N 88.5036 -6.54726 -2.26507 0
M  V30 852 N 90.2966 -5.25258 -2.00152 0
M  V30 853 H 82.4476 -2.10691 0.268881 0
M  V30 854 H 84.7106 -0.946241 0.057728 0
M  V30 855 H 84.4166 -3.49648 -0.379335 0
M  V30 856 H 84.2906 -3.13836 -2.09253 0
M  V30 857 H 86.6776 -2.14899 -2.02243 0
M  V30 858 H 86.7586 -2.54049 -0.298776 0
M  V30 859 H 86.4026 -5.00486 -0.864622 0
M  V30 860 H 86.3326 -4.58279 -2.594 0
M  V30 861 H 88.8236 -3.4687 -1.49965 0
M  V30 862 H 89.1366 -7.31833 -2.48276 0
M  V30 863 H 87.4816 -6.57933 -2.23939 0
M  V30 864 H 90.6726 -4.32938 -1.77996 0
M  V30 865 H 90.8456 -6.08476 -2.22848 0
M  V30 866 N 84.2517 0.741722 -1.39055 0
M  V30 867 C 85.5287 1.49252 -1.26425 0
M  V30 868 C 85.9087 2.10705 0.129144 0
M  V30 869 O 85.2567 1.98045 1.13976 0
M  V30 870 C 85.4667 2.54934 -2.38347 0
M  V30 871 C 86.8147 3.21506 -2.77343 0
M  V30 872 O 87.8387 2.65245 -2.37747 0
M  V30 873 O 86.6977 4.23294 -3.45665 0
M  V30 874 H 83.7917 0.662451 -0.495064 0
M  V30 875 H 86.3377 0.776121 -1.50912 0
M  V30 876 H 85.1097 2.07857 -3.31529 0
M  V30 877 H 84.7327 3.34141 -2.15489 0
M  V30 878 N 85.7298 1.2412 0.971189 0
M  V30 879 C 86.6398 1.04747 2.09917 0
M  V30 880 C 87.6558 -0.0107162 1.73997 0
M  V30 881 O 88.8318 0.186714 2.00533 0
M  V30 882 C 85.8968 0.650828 3.40537 0
M  V30 883 C 84.9578 1.7851 3.90426 0
M  V30 884 C 84.1908 1.40729 5.14812 0
M  V30 885 O 84.4138 0.29557 5.69634 0
M  V30 886 O 83.3478 2.23168 5.58999 0
M  V30 887 H 87.1738 1.99304 2.29154 0
M  V30 888 H 84.7588 1.02908 1.08307 0
M  V30 889 H 86.6408 0.440992 4.19086 0
M  V30 890 H 85.3158 -0.265649 3.22608 0
M  V30 891 H 84.2228 2.04966 3.12953 0
M  V30 892 H 85.5558 2.68023 4.12825 0
M  V30 893 N 87.2079 -1.17134 1.05439 0
M  V30 894 C 88.4539 -1.87733 0.767077 0
M  V30 895 C 88.7869 -1.8098 -0.704253 0
M  V30 896 O 88.0619 -1.21951 -1.5152 0
M  V30 897 C 88.3449 -3.37659 1.25133 0
M  V30 898 C 88.1979 -3.53149 2.78578 0
M  V30 899 C 89.5169 -4.31768 0.852324 0
M  V30 900 H 86.6359 -0.681687 0.280129 0
M  V30 901 H 89.2779 -1.37732 1.30881 0
M  V30 902 H 87.4279 -3.80373 0.790469 0
M  V30 903 H 89.0999 -3.19434 3.32806 0
M  V30 904 H 87.3429 -2.95345 3.17732 0
M  V30 905 H 88.0139 -4.58403 3.07523 0
M  V30 906 H 90.4899 -3.96909 1.24911 0
M  V30 907 H 89.3659 -5.35199 1.21873 0
M  V30 908 H 89.6269 -4.41429 -0.243485 0
M  V30 909 N 88.686 -0.835752 -1.33615 0
M  V30 910 C 89.649 -0.272 -2.2758 0
M  V30 911 C 90.649 0.557487 -1.50827 0
M  V30 912 O 91.839 0.37173 -1.70188 0
M  V30 913 C 88.971 0.617173 -3.35267 0
M  V30 914 H 90.164 -1.10111 -2.78954 0
M  V30 915 H 87.717 -0.608594 -1.43965 0
M  V30 916 H 88.452 1.46884 -2.89129 0
M  V30 917 H 88.237 0.0237066 -3.92093 0
M  V30 918 H 89.727 1.005 -4.05326 0
M  V30 919 N 90.1641 1.46063 -0.591896 0
M  V30 920 C 91.1111 2.30399 0.136069 0
M  V30 921 C 92.0811 1.41169 0.875238 0
M  V30 922 O 93.2661 1.70112 0.86409 0
M  V30 923 C 90.4061 3.25804 1.13781 0
M  V30 924 C 89.5191 4.30134 0.401137 0
M  V30 925 C 88.6541 5.12659 1.39121 0
M  V30 926 C 87.6931 6.0873 0.641462 0
M  V30 927 N 86.8301 6.8409 1.58004 0
M  V30 928 H 91.6701 2.92118 -0.589144 0
M  V30 929 H 89.2071 1.43959 -0.302342 0
M  V30 930 H 91.1651 3.79569 1.73156 0
M  V30 931 H 89.7951 2.65872 1.83062 0
M  V30 932 H 88.8471 3.79152 -0.307826 0
M  V30 933 H 90.1591 4.98458 -0.184565 0
M  V30 934 H 89.3131 5.70747 2.05749 0
M  V30 935 H 88.0521 4.44316 2.01084 0
M  V30 936 H 87.0571 5.49786 -0.0385419 0
M  V30 937 H 88.2821 6.79095 0.0270945 0
M  V30 938 H 86.2281 6.18449 2.18761 0
M  V30 939 H 86.1451 7.48709 1.04738 0
M  V30 940 H 87.4131 7.4673 2.23639 0
M  V30 941 N 91.6422 0.330177 1.54103 0
M  V30 942 C 92.8892 -0.270405 2.00686 0
M  V30 943 C 93.2172 -1.51621 1.21825 0
M  V30 944 O 92.4722 -1.93536 0.29025 0
M  V30 945 C 92.7712 -0.643134 3.51566 0
M  V30 946 C 92.4372 0.504251 4.48072 0
M  V30 947 C 91.0992 0.819163 4.74176 0
M  V30 948 C 93.4512 1.27465 5.05373 0
M  V30 949 C 90.7792 1.90708 5.5484 0
M  V30 950 C 93.1312 2.35271 5.87223 0
M  V30 951 C 91.7952 2.67336 6.11627 0
M  V30 952 H 91.0652 -0.0989482 0.734364 0
M  V30 953 H 93.7122 0.455324 1.86008 0
M  V30 954 H 92.0172 -1.44938 3.64006 0
M  V30 955 H 93.7142 -1.11949 3.85056 0
M  V30 956 H 90.3042 0.248733 4.27878 0
M  V30 957 H 94.4882 1.04462 4.85182 0
M  V30 958 H 89.7442 2.15991 5.71977 0
M  V30 959 H 93.9182 2.95405 6.30641 0
M  V30 960 H 91.5452 3.51763 6.73919 0
M  V30 961 N 93.1203 -1.57491 0.0584922 0
M  V30 962 C 94.3663 -1.93264 -0.614558 0
M  V30 963 C 94.6993 -0.937717 -1.7006 0
M  V30 964 O 93.9743 0.0351652 -1.94468 0
M  V30 965 C 94.2573 -3.3938 -1.20386 0
M  V30 966 C 94.1103 -4.49625 -0.125375 0
M  V30 967 C 95.4293 -3.86039 -2.11334 0
M  V30 968 H 92.5483 -0.702791 -0.221933 0
M  V30 969 H 95.1903 -1.8961 0.12175 0
M  V30 970 H 93.3403 -3.42626 -1.83139 0
M  V30 971 H 95.0123 -4.58506 0.506971 0
M  V30 972 H 93.2553 -4.30354 0.545672 0
M  V30 973 H 93.9263 -5.48967 -0.577861 0
M  V30 974 H 96.4023 -3.84716 -1.58534 0
M  V30 975 H 95.2783 -4.88914 -2.49507 0
M  V30 976 H 95.5393 -3.23215 -3.01636 0
M  V30 977 N 94.5984 0.214957 -1.56127 0
M  V30 978 C 95.8444 0.939762 -1.79712 0
M  V30 979 C 96.1774 1.83723 -0.629247 0
M  V30 980 O 95.4524 1.90925 0.371197 0
M  V30 981 C 95.7354 1.77306 -3.13424 0
M  V30 982 C 95.5884 0.90164 -4.40671 0
M  V30 983 C 96.9074 2.74956 -3.43638 0
M  V30 984 H 94.0264 0.340214 -0.653776 0
M  V30 985 H 96.6684 0.20824 -1.88855 0
M  V30 986 H 94.8184 2.39673 -3.0576 0
M  V30 987 H 96.4904 0.294206 -4.60361 0
M  V30 988 H 94.7334 0.207368 -4.33304 0
M  V30 989 H 95.4044 1.51923 -5.30682 0
M  V30 990 H 97.8804 2.22724 -3.51473 0
M  V30 991 H 96.7564 3.30358 -4.38355 0
M  V30 992 H 97.0174 3.53023 -2.66134 0
M  V30 993 N 96.0765 1.50051 0.48192 0
M  V30 994 C 96.9865 1.7089 1.60728 0
M  V30 995 C 98.0025 0.591788 1.63627 0
M  V30 996 O 99.1785 0.868817 1.81696 0
M  V30 997 C 96.2435 1.78855 2.97005 0
M  V30 998 C 95.3045 3.02537 3.04581 0
M  V30 999 C 94.5375 3.10112 4.34357 0
M  V30 1000 O 94.7605 2.24765 5.24249 0
M  V30 1001 O 93.6945 4.02747 4.47301 0
M  V30 1002 H 97.5205 2.66264 1.46072 0
M  V30 1003 H 95.1055 1.34018 0.660264 0
M  V30 1004 H 96.9875 1.86336 3.77964 0
M  V30 1005 H 95.6625 0.866628 3.11883 0
M  V30 1006 H 94.5695 3.00563 2.22739 0
M  V30 1007 H 95.9025 3.94272 2.94636 0
M  V30 1008 N 97.5546 -0.734337 1.39446 0
M  V30 1009 C 98.8026 -1.49096 1.36436 0
M  V30 1010 C 99.1236 -1.94961 -0.0388255 0
M  V30 1011 O 98.3936 -1.69033 -0.990191 0
M  V30 1012 H 96.9736 -0.5531 0.502085 0
M  V30 1013 H 99.6356 -0.871725 1.74319 0
M  V30 1014 H 98.7316 -2.37276 2.02747 0
M  V30 1015 N 99.0327 -1.24633 -0.964593 0
M  V30 1016 C 100.31 -0.995809 -1.68354 0
M  V30 1017 C 100.69 0.480964 -2.05548 0
M  V30 1018 O 100.038 1.45599 -1.76105 0
M  V30 1019 C 100.248 -1.92177 -2.91323 0
M  V30 1020 C 101.596 -2.19446 -3.63495 0
M  V30 1021 O 102.62 -1.89855 -3.01386 0
M  V30 1022 O 101.479 -2.69714 -4.75307 0
M  V30 1023 H 98.5727 -0.376854 -0.736146 0
M  V30 1024 H 101.119 -1.35745 -1.0184 0
M  V30 1025 H 99.8907 -2.91938 -2.60553 0
M  V30 1026 H 99.5137 -1.56349 -3.65569 0
M  V30 1027 N 100.511 1.16574 -1.06058 0
M  V30 1028 C 101.441 2.23057 -0.690488 0
M  V30 1029 C 102.422 1.67141 0.315901 0
M  V30 1030 O 103.607 1.93253 0.191556 0
M  V30 1031 C 100.737 3.47222 -0.073625 0
M  V30 1032 C 99.6908 4.16016 -1.00573 0
M  V30 1033 C 99.0168 5.34104 -0.252289 0
M  V30 1034 C 100.317 4.67264 -2.33371 0
M  V30 1035 H 102.011 2.54271 -1.58072 0
M  V30 1036 H 99.5568 1.22218 -0.76149 0
M  V30 1037 H 101.51 4.20939 0.19714 0
M  V30 1038 H 100.234 3.15302 0.85161 0
M  V30 1039 H 98.8928 3.44223 -1.2612 0
M  V30 1040 H 98.5408 4.98437 0.675988 0
M  V30 1041 H 98.2408 5.81072 -0.873455 0
M  V30 1042 H 99.7648 6.10599 0.0109857 0
M  V30 1043 H 101.179 5.32573 -2.12223 0
M  V30 1044 H 99.5758 5.24843 -2.90963 0
M  V30 1045 H 100.646 3.83602 -2.96611 0
M  V30 1046 N 101.989 0.842826 1.3317 0
M  V30 1047 C 103.405 0.531128 1.50503 0
M  V30 1048 C 103.605 -0.940734 1.78192 0
M  V30 1049 O 102.661 -1.72436 1.84451 0
M  V30 1050 C 103.974 1.40789 2.65705 0
M  V30 1051 C 105.522 1.40708 2.79589 0
M  V30 1052 C 105.997 2.26878 3.97857 0
M  V30 1053 N 107.488 2.24609 4.05099 0
M  V30 1054 C 108.223 2.88019 4.95815 0
M  V30 1055 N 107.719 3.60496 5.9162 0
M  V30 1056 N 109.512 2.77469 4.88843 0
M  V30 1057 H 101.663 1.79557 1.1346 0
M  V30 1058 H 103.926 0.766267 0.558156 0
M  V30 1059 H 103.632 2.454 2.51936 0
M  V30 1060 H 103.506 1.08677 3.61205 0
M  V30 1061 H 105.893 0.368668 2.92788 0
M  V30 1062 H 105.974 1.76829 1.84838 0
M  V30 1063 H 105.618 3.3078 3.85418 0
M  V30 1064 H 105.548 1.88096 4.91861 0
M  V30 1065 H 108.039 1.71906 3.36536 0
M  V30 1066 H 108.352 4.06076 6.57512 0
M  V30 1067 H 106.697 3.64604 5.91683 0
M  V30 1068 H 109.888 2.20406 4.12963 0
M  V30 1069 H 110.061 3.2717 5.59342 0
M  V30 1070 N 103.467 -1.45747 0.599634 0
M  V30 1071 C 104.883 -1.57424 0.26264 0
M  V30 1072 C 105.083 -1.59222 -1.23493 0
M  V30 1073 O 104.139 -1.51825 -2.01756 0
M  V30 1074 C 105.452 -2.86061 0.926795 0
M  V30 1075 C 107 -2.99722 0.901967 0
M  V30 1076 C 107.475 -4.31119 1.54598 0
M  V30 1077 N 108.966 -4.37858 1.5111 0
M  V30 1078 C 109.701 -5.3818 1.97863 0
M  V30 1079 N 109.197 -6.45083 2.52666 0
M  V30 1080 N 110.99 -5.29487 1.88679 0
M  V30 1081 H 103.141 -1.42823 1.57211 0
M  V30 1082 H 105.404 -0.68235 0.658105 0
M  V30 1083 H 105.11 -2.90605 1.98095 0
M  V30 1084 H 104.984 -3.74563 0.445238 0
M  V30 1085 H 107.371 -2.9475 -0.143617 0
M  V30 1086 H 107.452 -2.12652 1.42171 0
M  V30 1087 H 107.096 -4.36849 2.59085 0
M  V30 1088 H 107.026 -5.16992 1.00132 0
M  V30 1089 H 109.517 -3.61209 1.11068 0
M  V30 1090 H 109.83 -7.17869 2.86155 0
M  V30 1091 H 108.175 -6.45856 2.56701 0
M  V30 1092 H 111.366 -4.44877 1.4561 0
M  V30 1093 H 111.539 -6.07524 2.25429 0
M  V30 1094 N 104.945 -0.338344 -1.53925 0
M  V30 1095 C 105.855 0.529421 -2.28548 0
M  V30 1096 C 106.871 1.11645 -1.3346 0
M  V30 1097 O 108.047 1.13325 -1.66492 0
M  V30 1098 C 105.112 1.66713 -3.03987 0
M  V30 1099 C 104.173 1.11041 -4.14691 0
M  V30 1100 C 103.406 2.19389 -4.86522 0
M  V30 1101 O 103.629 3.40013 -4.57982 0
M  V30 1102 O 102.563 1.83976 -5.73094 0
M  V30 1103 H 106.389 -0.0770399 -3.03602 0
M  V30 1104 H 103.974 -0.103555 -1.49041 0
M  V30 1105 H 105.856 2.32918 -3.5118 0
M  V30 1106 H 104.531 2.25949 -2.31794 0
M  V30 1107 H 103.438 0.413024 -3.71813 0
M  V30 1108 H 104.771 0.562975 -4.8897 0
M  V30 1109 N 106.423 1.57458 -0.0668435 0
M  V30 1110 C 107.672 1.92477 0.602947 0
M  V30 1111 C 107.985 0.948419 1.71068 0
M  V30 1112 O 109.191 1.19124 2.43971 0
M  V30 1113 C 107.647 3.41903 1.12383 0
M  V30 1114 C 107.255 4.47975 0.04737 0
M  V30 1115 C 108.999 3.85931 1.76797 0
M  V30 1116 C 106.906 5.88529 0.582022 0
M  V30 1117 H 105.836 0.718387 0.22899 0
M  V30 1118 H 108.487 1.82978 -0.138276 0
M  V30 1119 H 106.869 3.46459 1.91787 0
M  V30 1120 H 108.043 4.55029 -0.726978 0
M  V30 1121 H 106.358 4.13384 -0.500243 0
M  V30 1122 H 108.955 4.88322 2.17821 0
M  V30 1123 H 109.298 3.23029 2.62599 0
M  V30 1124 H 109.831 3.83958 1.04024 0
M  V30 1125 H 106.57 6.55065 -0.238721 0
M  V30 1126 H 106.09 5.85004 1.324 0
M  V30 1127 H 107.769 6.38258 1.05999 0
M  V30 1128 N 107.901 -0.206675 1.56239 0
M  V30 1129 C 109.126 -0.949474 1.8439 0
M  V30 1130 C 109.551 -1.76549 0.649016 0
M  V30 1131 O 108.909 -1.76782 -0.402231 0
M  V30 1132 C 108.957 -1.83078 3.10668 0
M  V30 1133 O 108.061 -2.9281 2.90407 0
M  V30 1134 H 107.402 -0.268033 0.607499 0
M  V30 1135 H 109.932 -0.215488 2.03462 0
M  V30 1136 H 109.942 -2.2377 3.41161 0
M  V30 1137 H 108.617 -1.23112 3.97261 0
M  V30 1138 H 107.194 -2.55956 2.71184 0
M  V30 1139 N 109.379 -1.50304 -0.473955 0
M  V30 1140 C 110.312 -1.63595 -1.59097 0
M  V30 1141 C 111.29 -0.484142 -1.55225 0
M  V30 1142 O 112.474 -0.703271 -1.7489 0
M  V30 1143 C 109.601 -1.61589 -2.97669 0
M  V30 1144 C 108.647 -2.82295 -3.19705 0
M  V30 1145 S 109.48 -4.43635 -2.99913 0
M  V30 1146 C 110.636 -4.44317 -4.40832 0
M  V30 1147 H 110.869 -2.58082 -1.47583 0
M  V30 1148 H 108.402 -1.39531 -0.661087 0
M  V30 1149 H 110.36 -1.61116 -3.7756 0
M  V30 1150 H 109.021 -0.683421 -3.06575 0
M  V30 1151 H 108.214 -2.77188 -4.20931 0
M  V30 1152 H 107.816 -2.8032 -2.47582 0
M  V30 1153 H 110.108 -4.17703 -5.33414 0
M  V30 1154 H 111.051 -5.45911 -4.50984 0
M  V30 1155 H 111.459 -3.74059 -4.22777 0
M  V30 1156 N 110.857 0.726932 -1.39834 0
M  V30 1157 C 112.082 1.52121 -1.40976 0
M  V30 1158 C 112.507 1.88098 -0.00826029 0
M  V30 1159 O 111.865 1.52479 0.980807 0
M  V30 1160 C 111.913 2.78021 -2.29644 0
M  V30 1161 O 111.017 3.74272 -1.73188 0
M  V30 1162 H 110.358 0.45908 -0.479731 0
M  V30 1163 H 112.888 0.896207 -1.83927 0
M  V30 1164 H 112.898 3.26671 -2.44438 0
M  V30 1165 H 111.573 2.51169 -3.31492 0
M  V30 1166 H 110.15 3.33073 -1.6768 0
M  V30 1167 N 112.336 1.25143 0.95797 0
M  V30 1168 C 113.585 1.0909 1.69654 0
M  V30 1169 C 113.898 -0.368548 1.92097 0
M  V30 1170 O 115.104 -0.649455 2.63618 0
M  V30 1171 C 113.56 1.90395 3.05414 0
M  V30 1172 C 113.168 3.4081 2.90779 0
M  V30 1173 C 114.912 1.82901 3.83076 0
M  V30 1174 C 112.819 4.14423 4.21909 0
M  V30 1175 H 111.749 0.404625 0.636235 0
M  V30 1176 H 114.4 1.4931 1.06672 0
M  V30 1177 H 112.782 1.42996 3.69281 0
M  V30 1178 H 113.956 3.95859 2.35865 0
M  V30 1179 H 112.271 3.49361 2.26575 0
M  V30 1180 H 114.868 2.35196 4.80195 0
M  V30 1181 H 115.211 0.796224 4.08615 0
M  V30 1182 H 115.744 2.28033 3.25954 0
M  V30 1183 H 112.483 5.18102 4.01561 0
M  V30 1184 H 112.003 3.64159 4.76601 0
M  V30 1185 H 113.682 4.21956 4.90471 0
M  V30 1186 N 113.814 -1.1601 1.06675 0
M  V30 1187 C 114.761 -2.20525 0.680967 0
M  V30 1188 C 115.731 -1.62904 -0.324283 0
M  V30 1189 O 116.916 -1.89615 -0.212294 0
M  V30 1190 C 114.056 -3.45013 0.0776551 0
M  V30 1191 C 113.169 -4.16863 1.13355 0
M  V30 1192 C 112.304 -5.2888 0.49597 0
M  V30 1193 C 111.343 -5.92537 1.53513 0
M  V30 1194 N 110.48 -6.96038 0.920631 0
M  V30 1195 H 115.32 -2.52876 1.57663 0
M  V30 1196 H 112.857 -1.24199 0.788223 0
M  V30 1197 H 114.815 -4.16193 -0.289704 0
M  V30 1198 H 113.445 -3.132 -0.781393 0
M  V30 1199 H 112.497 -3.44248 1.61857 0
M  V30 1200 H 113.809 -4.60294 1.92174 0
M  V30 1201 H 112.963 -6.06653 0.0758604 0
M  V30 1202 H 111.702 -4.86622 -0.324062 0
M  V30 1203 H 110.707 -5.13482 1.9651 0
M  V30 1204 H 111.932 -6.36873 2.35733 0
M  V30 1205 H 109.878 -6.55888 0.12138 0
M  V30 1206 H 109.795 -7.3786 1.64616 0
M  V30 1207 H 111.063 -7.77725 0.525795 0
M  V30 1208 N 115.292 -0.849877 -1.32721 0
M  V30 1209 C 116.708 -0.539102 -1.50219 0
M  V30 1210 C 116.908 0.931271 -1.78689 0
M  V30 1211 O 115.964 1.71455 -1.85363 0
M  V30 1212 C 117.277 -1.42196 -2.64954 0
M  V30 1213 C 118.825 -1.42189 -2.78839 0
M  V30 1214 C 119.3 -2.28985 -3.96648 0
M  V30 1215 N 120.791 -2.26754 -4.03902 0
M  V30 1216 C 121.526 -2.90644 -4.94281 0
M  V30 1217 N 121.022 -3.63629 -5.897 0
M  V30 1218 N 122.815 -2.80057 -4.87365 0
M  V30 1219 H 114.966 -1.80156 -1.12506 0
M  V30 1220 H 117.229 -0.769217 -0.554085 0
M  V30 1221 H 116.935 -2.46733 -2.50631 0
M  V30 1222 H 116.809 -1.10591 -3.60624 0
M  V30 1223 H 119.196 -0.38419 -2.92588 0
M  V30 1224 H 119.277 -1.77807 -1.83898 0
M  V30 1225 H 118.921 -3.32819 -3.83658 0
M  V30 1226 H 118.851 -1.90702 -4.90857 0
M  V30 1227 H 121.342 -1.73688 -3.3562 0
M  V30 1228 H 121.655 -4.09558 -6.55349 0
M  V30 1229 H 120 -3.67737 -5.89741 0
M  V30 1230 H 123.191 -2.22593 -4.11789 0
M  V30 1231 H 123.364 -3.30132 -5.57599 0
M  V30 1232 N 116.77 1.45427 -0.607355 0
M  V30 1233 C 117.7 2.3329 0.0989352 0
M  V30 1234 C 118.681 1.46816 0.859007 0
M  V30 1235 O 119.866 1.75588 0.829604 0
M  V30 1236 C 116.996 3.29518 1.09705 0
M  V30 1237 C 115.95 4.25626 0.450206 0
M  V30 1238 C 115.276 5.11542 1.55655 0
M  V30 1239 C 116.576 5.18505 -0.628455 0
M  V30 1240 H 118.27 2.92595 -0.634716 0
M  V30 1241 H 115.816 1.40696 -0.306681 0
M  V30 1242 H 117.769 3.89855 1.59971 0
M  V30 1243 H 116.493 2.68372 1.86129 0
M  V30 1244 H 115.152 3.66586 -0.0315886 0
M  V30 1245 H 114.8 4.46765 2.31107 0
M  V30 1246 H 114.5 5.76647 1.12925 0
M  V30 1247 H 116.024 5.74748 2.06148 0
M  V30 1248 H 117.438 5.72916 -0.209877 0
M  V30 1249 H 115.835 5.92085 -0.977489 0
M  V30 1250 H 116.905 4.60948 -1.50514 0
M  V30 1251 N 118.248 0.346503 1.53744 0
M  V30 1252 C 119.181 -0.552023 2.21423 0
M  V30 1253 C 120.159 -1.09798 1.19929 0
M  V30 1254 O 121.343 -1.1577 1.4876 0
M  V30 1255 C 118.47 -1.75972 2.89398 0
M  V30 1256 C 117.516 -1.34295 4.04805 0
M  V30 1257 S 118.349 -0.360263 5.34287 0
M  V30 1258 C 119.505 -1.57473 6.05767 0
M  V30 1259 H 119.738 0.0228119 2.97291 0
M  V30 1260 H 117.271 0.130579 1.53847 0
M  V30 1261 H 119.229 -2.45256 3.2918 0
M  V30 1262 H 117.89 -2.30578 2.1329 0
M  V30 1263 H 117.083 -2.24349 4.51313 0
M  V30 1264 H 116.685 -0.729555 3.66815 0
M  V30 1265 H 118.977 -2.50875 6.29339 0
M  V30 1266 H 119.92 -1.15138 6.98676 0
M  V30 1267 H 120.328 -1.77212 5.35963 0
M  V30 1268 N 119.726 -1.57421 0.075193 0
M  V30 1269 C 121.003 -1.85029 -0.634329 0
M  V30 1270 C 121.383 -0.968305 -1.87582 0
M  V30 1271 O 120.731 -0.0354749 -2.28472 0
M  V30 1272 C 120.941 -3.35286 -0.968742 0
M  V30 1273 C 122.289 -4.02875 -1.34077 0
M  V30 1274 O 123.313 -3.40051 -1.06037 0
M  V30 1275 O 122.172 -5.13691 -1.86506 0
M  V30 1276 H 119.266 -0.7645 -0.315387 0
M  V30 1277 H 121.812 -1.69366 0.106382 0
M  V30 1278 H 120.584 -3.91203 -0.0871376 0
M  V30 1279 H 120.207 -3.56223 -1.7661 0
M  V30 1280 N 121.204 0.198386 -1.56346 0
M  V30 1281 C 122.134 1.24865 -1.9731 0
M  V30 1282 C 123.115 1.47651 -0.844576 0
M  V30 1283 O 124.3 1.59444 -1.10866 0
M  V30 1284 C 121.43 2.59358 -2.30977 0
M  V30 1285 C 120.384 2.5119 -3.46537 0
M  V30 1286 C 119.71 3.89926 -3.65871 0
M  V30 1287 C 121.01 2.03977 -4.80823 0
M  V30 1288 H 122.704 0.908252 -2.85291 0
M  V30 1289 H 120.25 0.435462 -1.37258 0
M  V30 1290 H 122.203 3.33011 -2.58228 0
M  V30 1291 H 120.927 2.95132 -1.39874 0
M  V30 1292 H 119.586 1.79993 -3.19371 0
M  V30 1293 H 119.234 4.23046 -2.72105 0
M  V30 1294 H 118.934 3.85336 -4.4361 0
M  V30 1295 H 120.458 4.65205 -3.95495 0
M  V30 1296 H 121.872 2.67386 -5.07127 0
M  V30 1297 H 120.269 2.10397 -5.62008 0
M  V30 1298 H 121.339 0.992861 -4.74626 0
M  V30 1299 N 122.682 1.50554 0.465978 0
M  V30 1300 C 123.93 1.61479 1.21528 0
M  V30 1301 C 124.251 0.319596 1.92363 0
M  V30 1302 O 123.521 -0.663194 1.84333 0
M  V30 1303 H 122.101 0.595055 0.451573 0
M  V30 1304 H 124.763 1.87355 0.53704 0
M  V30 1305 H 123.859 2.42846 1.96042 0
M  V30 1306 N 124.16 -0.719506 1.40217 0
M  V30 1307 C 125.4 -1.49181 1.39729 0
M  V30 1308 C 125.764 -1.92 -0.00250614 0
M  V30 1309 O 126.965 -2.68473 -0.132479 0
M  V30 1310 C 125.236 -2.68767 2.35582 0
M  V30 1311 S 126.795 -3.58224 2.53418 0
M  V30 1312 H 123.613 -0.510091 0.495307 0
M  V30 1313 H 126.215 -0.841724 1.76452 0
M  V30 1314 H 124.919 -2.35475 3.36124 0
M  V30 1315 H 124.45 -3.38691 2.0013 0
M  V30 1316 H 126.465 -4.63033 1.78367 0
M  V30 1317 N 125.638 -1.25649 -0.95132 0
M  V30 1318 C 126.868 -1.13179 -1.72841 0
M  V30 1319 C 127.276 0.316827 -1.86528 0
M  V30 1320 O 126.619 1.22948 -1.3649 0
M  V30 1321 C 126.681 -1.71644 -3.15878 0
M  V30 1322 C 126.345 -3.20667 -3.25609 0
M  V30 1323 C 127.342 -4.17616 -3.09666 0
M  V30 1324 C 125.027 -3.6094 -3.49324 0
M  V30 1325 C 127.021 -5.52817 -3.17289 0
M  V30 1326 C 124.708 -4.96278 -3.56584 0
M  V30 1327 C 125.706 -5.92025 -3.40581 0
M  V30 1328 O 125.394 -7.24899 -3.47528 0
M  V30 1329 H 125.126 -0.395389 -0.54831 0
M  V30 1330 H 127.68 -1.66566 -1.20187 0
M  V30 1331 H 125.91 -1.12707 -3.69911 0
M  V30 1332 H 127.599 -1.54225 -3.75459 0
M  V30 1333 H 128.365 -3.87842 -2.91211 0
M  V30 1334 H 124.244 -2.86907 -3.6084 0
M  V30 1335 H 127.788 -6.2753 -3.04716 0
M  V30 1336 H 123.685 -5.25716 -3.74556 0
M  V30 1337 H 124.453 -7.33039 -3.64138 0
M  V30 1338 N 127.117 1.15442 -1.07289 0
M  V30 1339 C 128.533 1.38201 -0.798288 0
M  V30 1340 C 128.733 1.92429 0.597769 0
M  V30 1341 O 127.789 2.12962 1.3566 0
M  V30 1342 C 129.102 2.35357 -1.87156 0
M  V30 1343 C 130.65 2.49021 -1.89624 0
M  V30 1344 C 131.125 3.49468 -2.96034 0
M  V30 1345 N 132.616 3.57003 -2.95132 0
M  V30 1346 C 133.351 4.34543 -3.74112 0
M  V30 1347 N 132.847 5.15421 -4.6294 0
M  V30 1348 N 134.64 4.29625 -3.62462 0
M  V30 1349 H 126.791 0.78584 -1.97328 0
M  V30 1350 H 129.054 0.408065 -0.855679 0
M  V30 1351 H 128.76 2.02626 -2.87464 0
M  V30 1352 H 128.634 3.35129 -1.73114 0
M  V30 1353 H 131.021 2.81051 -0.899687 0
M  V30 1354 H 131.102 1.4925 -2.07745 0
M  V30 1355 H 130.746 3.18173 -3.95889 0
M  V30 1356 H 130.676 4.48992 -2.75161 0
M  V30 1357 H 133.167 2.99276 -2.30743 0
M  V30 1358 H 133.48 5.7183 -5.19837 0
M  V30 1359 H 131.825 5.14729 -4.66989 0
M  V30 1360 H 135.016 3.65505 -2.92444 0
M  V30 1361 H 135.189 4.89807 -4.24256 0
M  V30 1362 N 128.595 0.856903 1.32268 0
M  V30 1363 C 129.843 0.460474 1.96784 0
M  V30 1364 C 130.164 -0.987701 1.68135 0
M  V30 1365 O 129.434 -1.69058 0.989765 0
M  V30 1366 H 128.014 0.167289 0.728027 0
M  V30 1367 H 130.676 1.09383 1.61312 0
M  V30 1368 H 129.772 0.60739 3.06133 0
M  V30 1369 N 130.073 -1.45103 0.615059 0
M  V30 1370 C 131.003 -2.33339 -0.0865619 0
M  V30 1371 C 131.984 -1.4727 -0.851209 0
M  V30 1372 O 133.169 -1.76026 -0.820281 0
M  V30 1373 C 130.299 -3.30095 -1.07956 0
M  V30 1374 C 129.253 -4.25858 -0.427628 0
M  V30 1375 C 128.579 -5.12361 -1.5294 0
M  V30 1376 C 129.879 -5.18165 0.655944 0
M  V30 1377 H 131.573 -2.92254 0.650224 0
M  V30 1378 H 129.119 -1.40532 0.314138 0
M  V30 1379 H 131.072 -3.90698 -1.57901 0
M  V30 1380 H 129.796 -2.69355 -1.84703 0
M  V30 1381 H 128.455 -3.66564 0.0510292 0
M  V30 1382 H 128.103 -4.47984 -2.28734 0
M  V30 1383 H 127.803 -5.77238 -1.09865 0
M  V30 1384 H 129.327 -5.75833 -2.03098 0
M  V30 1385 H 130.741 -5.72796 0.240257 0
M  V30 1386 H 129.138 -5.91559 1.00888 0
M  V30 1387 H 130.208 -4.60144 1.52957 0
M  V30 1388 N 131.551 -0.354651 -1.53558 0
M  V30 1389 C 132.967 -0.00315426 -1.596 0
M  V30 1390 C 133.167 1.47741 -1.37021 0
M  V30 1391 O 132.223 2.23759 -1.16996 0
M  V30 1392 C 133.536 -0.44929 -2.97325 0
M  V30 1393 C 135.084 -0.402578 -3.104 0
M  V30 1394 C 135.559 -0.824355 -4.5052 0
M  V30 1395 N 137.05 -0.778979 -4.56603 0
M  V30 1396 C 137.785 -1.07715 -5.63192 0
M  V30 1397 N 137.281 -1.44405 -6.77583 0
M  V30 1398 N 139.074 -1.00066 -5.53121 0
M  V30 1399 H 131.225 -1.31893 -1.66487 0
M  V30 1400 H 133.488 -0.538388 -0.780284 0
M  V30 1401 H 133.194 -1.48202 -3.1895 0
M  V30 1402 H 133.068 0.169772 -3.76818 0
M  V30 1403 H 135.455 0.621004 -2.88492 0
M  V30 1404 H 135.536 -1.05699 -2.32941 0
M  V30 1405 H 135.18 -1.846 -4.73165 0
M  V30 1406 H 135.11 -0.147304 -5.26394 0
M  V30 1407 H 137.601 -0.508528 -3.74463 0
M  V30 1408 H 137.914 -1.65612 -7.54846 0
M  V30 1409 H 136.259 -1.4826 -6.79002 0
M  V30 1410 H 139.45 -0.713293 -4.62633 0
M  V30 1411 H 139.623 -1.23638 -6.36096 0
M  V30 1412 N 133.029 1.57378 -0.0835403 0
M  V30 1413 C 133.979 2.09916 0.889905 0
M  V30 1414 C 134.963 1.01151 1.25129 0
M  V30 1415 O 136.155 1.27443 1.2283 0
M  V30 1416 C 133.284 2.67379 2.15322 0
M  V30 1417 C 132.37 3.83167 1.81779 0
M  V30 1418 N 132.761 4.91665 1.18739 0
M  V30 1419 C 131.059 3.92685 2.11459 0
M  V30 1420 C 131.76 5.72409 1.0355 0
M  V30 1421 N 130.736 5.21062 1.54906 0
M  V30 1422 H 134.538 2.91188 0.398378 0
M  V30 1423 H 132.052 1.61956 0.120013 0
M  V30 1424 H 134.049 3.0334 2.8599 0
M  V30 1425 H 132.709 1.87558 2.65051 0
M  V30 1426 H 133.72 5.10784 0.855604 0
M  V30 1427 H 130.397 3.23856 2.63483 0
M  V30 1428 H 131.787 6.69699 0.543425 0
M  V30 1429 N 134.507 -0.190092 1.56449 0
M  V30 1430 C 135.923 -0.54113 1.50146 0
M  V30 1431 C 136.123 -1.85603 0.784465 0
M  V30 1432 O 135.179 -2.5024 0.337051 0
M  V30 1433 C 136.492 -0.591241 2.9483 0
M  V30 1434 C 138.04 -0.679732 3.0553 0
M  V30 1435 C 138.515 -0.760908 4.51635 0
M  V30 1436 N 140.006 -0.824302 4.55806 0
M  V30 1437 C 140.741 -0.907365 5.66175 0
M  V30 1438 N 140.237 -0.952422 6.86222 0
M  V30 1439 N 142.03 -0.94494 5.541 0
M  V30 1440 H 134.181 0.67235 2.01478 0
M  V30 1441 H 136.444 0.240127 0.917084 0
M  V30 1442 H 136.15 0.305905 3.50367 0
M  V30 1443 H 136.024 -1.44422 3.48457 0
M  V30 1444 H 138.411 -1.56731 2.50039 0
M  V30 1445 H 138.492 0.199549 2.5502 0
M  V30 1446 H 138.136 0.122336 5.07753 0
M  V30 1447 H 138.066 -1.65606 4.99882 0
M  V30 1448 H 140.557 -0.798526 3.69367 0
M  V30 1449 H 140.87 -1.01645 7.66086 0
M  V30 1450 H 139.215 -0.921014 6.8887 0
M  V30 1451 H 142.406 -0.906612 4.59236 0
M  V30 1452 H 142.579 -1.00622 6.4014 0
M  V30 1453 N 135.985 -1.50799 -0.457987 0
M  V30 1454 C 137.401 -1.38515 -0.792819 0
M  V30 1455 C 137.601 -0.451409 -1.96379 0
M  V30 1456 O 136.657 0.10112 -2.52297 0
M  V30 1457 C 137.97 -2.80149 -1.09258 0
M  V30 1458 C 139.518 -2.89156 -1.19825 0
M  V30 1459 C 139.993 -4.31651 -1.53106 0
M  V30 1460 N 141.484 -4.34662 -1.60072 0
M  V30 1461 C 142.219 -5.41928 -1.87354 0
M  V30 1462 N 141.715 -6.59384 -2.12568 0
M  V30 1463 N 143.508 -5.29385 -1.88965 0
M  V30 1464 H 135.659 -2.10073 0.313511 0
M  V30 1465 H 137.922 -0.944803 0.0777862 0
M  V30 1466 H 137.628 -3.50374 -0.305084 0
M  V30 1467 H 137.502 -3.18204 -2.02549 0
M  V30 1468 H 139.889 -2.19141 -1.97639 0
M  V30 1469 H 139.97 -2.54626 -0.244821 0
M  V30 1470 H 139.614 -5.02208 -0.758266 0
M  V30 1471 H 139.544 -4.63678 -2.49621 0
M  V30 1472 H 142.035 -3.49973 -1.42573 0
M  V30 1473 H 142.348 -7.36934 -2.32696 0
M  V30 1474 H 140.693 -6.62535 -2.09933 0
M  V30 1475 H 143.884 -4.36616 -1.68772 0
M  V30 1476 H 144.057 -6.13066 -2.09891 0
M  V30 1477 N 137.463 0.71206 -1.40597 0
M  V30 1478 C 138.711 1.46907 -1.38791 0
M  V30 1479 C 139.032 1.94998 0.00780391 0
M  V30 1480 O 138.302 1.70587 0.963174 0
M  V30 1481 H 136.882 0.545043 -0.51082 0
M  V30 1482 H 139.544 0.843882 -1.75683 0
M  V30 1483 H 138.64 2.34021 -2.06496 0
M  V30 1484 N 138.941 1.26152 0.944643 0
M  V30 1485 C 139.871 1.09902 2.06019 0
M  V30 1486 C 140.852 0.00519538 1.70099 0
M  V30 1487 O 142.037 0.176583 1.93396 0
M  V30 1488 C 139.167 0.727562 3.39594 0
M  V30 1489 C 138.121 1.77274 3.89561 0
M  V30 1490 C 137.447 1.25569 5.19747 0
M  V30 1491 C 138.747 3.17357 4.14827 0
M  V30 1492 H 140.441 2.03217 2.19871 0
M  V30 1493 H 137.987 0.978452 1.05652 0
M  V30 1494 H 139.94 0.600777 4.17095 0
M  V30 1495 H 138.664 -0.241287 3.25707 0
M  V30 1496 H 137.323 1.88814 3.14237 0
M  V30 1497 H 136.971 0.276783 5.02238 0
M  V30 1498 H 136.671 1.95433 5.54148 0
M  V30 1499 H 138.195 1.1415 5.99835 0
M  V30 1500 H 139.609 3.08914 4.82954 0
M  V30 1501 H 138.006 3.84781 4.60504 0
M  V30 1502 H 139.076 3.63673 3.20734 0
M  V30 1503 N 140.419 -1.14872 1.07899 0
M  V30 1504 C 141.83 -1.67367 0.827363 0
M  V30 1505 C 142.181 -1.85236 -0.646693 0
M  V30 1506 O 141.306 -1.55974 -1.50004 0
M  V30 1507 C 141.901 -3.04016 1.49532 0
M  V30 1508 C 140.46 -3.53566 1.29106 0
M  V30 1509 C 139.607 -2.29161 1.56143 0
M  V30 1510 H 142.558 -0.990083 1.24028 0
M  V30 1511 H 142.579 -3.69219 0.919643 0
M  V30 1512 H 142.091 -2.90978 2.56814 0
M  V30 1513 H 140.192 -3.71835 0.238713 0
M  V30 1514 H 140.305 -4.34661 2.01511 0
M  V30 1515 H 138.669 -2.34978 0.982717 0
M  V30 1516 H 139.452 -2.18705 2.64619 0
M  V30 1517 N 141.898 -0.863906 -1.31812 0
M  V30 1518 C 143.144 -0.472535 -1.97218 0
M  V30 1519 C 143.477 0.971394 -1.68159 0
M  V30 1520 O 142.752 1.68309 -0.974798 0
M  V30 1521 C 143.035 -0.723054 -3.52766 0
M  V30 1522 C 142.888 -2.21608 -3.91421 0
M  V30 1523 C 144.207 -0.185522 -4.39709 0
M  V30 1524 H 141.326 -0.173158 -0.71637 0
M  V30 1525 H 143.968 -1.08403 -1.56041 0
M  V30 1526 H 142.118 -0.202577 -3.87971 0
M  V30 1527 H 143.79 -2.80334 -3.66347 0
M  V30 1528 H 142.033 -2.691 -3.40246 0
M  V30 1529 H 142.704 -2.34203 -4.99853 0
M  V30 1530 H 145.18 -0.630726 -4.11292 0
M  V30 1531 H 144.056 -0.390306 -5.47511 0
M  V30 1532 H 144.317 0.912229 -4.32586 0
M  V30 1533 N 143.376 1.44774 -0.622745 0
M  V30 1534 C 144.792 1.56986 -0.287652 0
M  V30 1535 C 144.992 1.61167 1.20944 0
M  V30 1536 O 144.048 1.55015 1.99315 0
M  V30 1537 C 145.361 2.84551 -0.972188 0
M  V30 1538 C 146.909 2.9825 -0.949536 0
M  V30 1539 C 147.384 4.28605 -1.61437 0
M  V30 1540 N 148.875 4.35399 -1.58057 0
M  V30 1541 C 149.61 5.34964 -2.064 0
M  V30 1542 N 149.106 6.40981 -2.62897 0
M  V30 1543 N 150.899 5.26419 -1.97078 0
M  V30 1544 H 143.05 1.40304 -1.59463 0
M  V30 1545 H 145.313 0.671794 -0.668878 0
M  V30 1546 H 145.019 2.87417 -2.02693 0
M  V30 1547 H 144.893 3.73807 -0.504771 0
M  V30 1548 H 147.28 2.94941 0.0967067 0
M  V30 1549 H 147.361 2.10364 -1.45536 0
M  V30 1550 H 147.005 4.32672 -2.66002 0
M  V30 1551 H 146.935 5.15334 -1.08344 0
M  V30 1552 H 149.426 3.59397 -1.16801 0
M  V30 1553 H 149.739 7.13225 -2.97539 0
M  V30 1554 H 148.084 6.4169 -2.66943 0
M  V30 1555 H 151.275 4.42504 -1.52669 0
M  V30 1556 H 151.448 6.03861 -2.35066 0
M  V30 1557 N 144.854 0.36279 1.53368 0
M  V30 1558 C 146.102 -0.227326 2.00817 0
M  V30 1559 C 146.423 -1.49511 1.25186 0
M  V30 1560 O 145.693 -1.92482 0.364348 0
M  V30 1561 H 144.273 -0.0869923 0.741917 0
M  V30 1562 H 146.935 0.488381 1.88682 0
M  V30 1563 H 146.031 -0.456273 3.08747 0
M  V30 1564 N 146.332 -1.57332 0.0918853 0
M  V30 1565 C 147.264 -2.10869 -0.898168 0
M  V30 1566 C 148.277 -1.04521 -1.24817 0
M  V30 1567 O 149.466 -1.31977 -1.20184 0
M  V30 1568 C 146.566 -2.57083 -2.2082 0
M  V30 1569 C 145.739 -3.87229 -2.03402 0
M  V30 1570 C 144.798 -4.19324 -3.17889 0
M  V30 1571 O 143.824 -4.88598 -2.91994 0
M  V30 1572 N 145.026 -3.74471 -4.43567 0
M  V30 1573 H 147.791 -2.96439 -0.440943 0
M  V30 1574 H 145.352 -1.61631 -0.0933064 0
M  V30 1575 H 147.344 -2.75602 -2.96354 0
M  V30 1576 H 145.914 -1.76541 -2.57977 0
M  V30 1577 H 145.134 -3.7789 -1.12218 0
M  V30 1578 H 146.422 -4.72379 -1.89038 0
M  V30 1579 H 145.82 -3.18546 -4.67488 0
M  V30 1580 H 144.377 -3.98151 -5.16061 0
M  V30 1581 N 147.81 0.181792 -1.56548 0
M  V30 1582 C 149.226 0.53316 -1.50431 0
M  V30 1583 C 149.426 1.85184 -0.794297 0
M  V30 1584 O 148.482 2.50058 -0.350318 0
M  V30 1585 C 149.795 0.575597 -2.9514 0
M  V30 1586 C 151.343 0.663519 -3.05886 0
M  V30 1587 C 151.818 0.736946 -4.52032 0
M  V30 1588 N 153.309 0.800118 -4.56237 0
M  V30 1589 C 154.044 0.877327 -5.66649 0
M  V30 1590 N 153.54 0.916016 -6.86718 0
M  V30 1591 N 155.333 0.915542 -5.54594 0
M  V30 1592 H 147.484 -0.683025 -2.01118 0
M  V30 1593 H 149.747 -0.244988 -0.915797 0
M  V30 1594 H 149.453 -0.324482 -3.502 0
M  V30 1595 H 149.327 1.42572 -3.49218 0
M  V30 1596 H 151.714 1.55403 -2.50867 0
M  V30 1597 H 151.795 -0.21307 -2.54911 0
M  V30 1598 H 151.439 -0.149262 -5.07681 0
M  V30 1599 H 151.369 1.62953 -5.00753 0
M  V30 1600 H 153.86 0.778926 -3.69785 0
M  V30 1601 H 154.173 0.975813 -7.66614 0
M  V30 1602 H 152.518 0.884469 -6.89349 0
M  V30 1603 H 155.709 0.882245 -4.59711 0
M  V30 1604 H 155.882 0.972253 -6.40665 0
M  V30 1605 N 149.288 1.51039 0.449983 0
M  V30 1606 C 150.516 1.66869 1.2232 0
M  V30 1607 C 150.931 0.360727 1.85322 0
M  V30 1608 O 150.288 -0.659531 1.70166 0
M  V30 1609 C 150.339 2.77524 2.31652 0
M  V30 1610 O 150.06 4.03252 1.7123 0
M  V30 1611 C 151.561 3.04512 3.2216 0
M  V30 1612 H 148.781 0.560326 0.369155 0
M  V30 1613 H 151.325 1.97385 0.534719 0
M  V30 1614 H 149.48 2.49642 2.96239 0
M  V30 1615 H 149.894 4.64609 2.43389 0
M  V30 1616 H 151.368 3.85551 3.95038 0
M  V30 1617 H 151.845 2.16415 3.8218 0
M  V30 1618 H 152.451 3.34005 2.63288 0
M  V30 1619 N 150.766 -0.704594 1.40972 0
M  V30 1620 C 151.713 -1.81862 1.42109 0
M  V30 1621 C 152.683 -1.63781 0.276593 0
M  V30 1622 O 153.868 -1.84759 0.4763 0
M  V30 1623 C 151.008 -3.19669 1.30022 0
M  V30 1624 C 150.121 -3.49246 2.54267 0
M  V30 1625 C 149.256 -4.76618 2.3454 0
M  V30 1626 C 148.295 -4.99133 3.54306 0
M  V30 1627 N 147.432 -6.17726 3.33706 0
M  V30 1628 H 152.272 -1.80226 2.37324 0
M  V30 1629 H 149.809 -0.880238 1.17857 0
M  V30 1630 H 151.767 -3.99263 1.21018 0
M  V30 1631 H 150.397 -3.20506 0.384192 0
M  V30 1632 H 149.449 -2.64125 2.73756 0
M  V30 1633 H 150.761 -3.61788 3.43381 0
M  V30 1634 H 149.915 -5.64249 2.22952 0
M  V30 1635 H 148.654 -4.66305 1.42867 0
M  V30 1636 H 147.659 -4.09953 3.66359 0
M  V30 1637 H 148.884 -5.11311 4.4692 0
M  V30 1638 H 146.83 -6.08642 2.44725 0
M  V30 1639 H 146.747 -6.30995 4.16391 0
M  V30 1640 H 148.015 -7.08115 3.25873 0
M  V30 1641 N 152.244 -1.26651 -0.937939 0
M  V30 1642 C 153.472 -1.15173 -1.7188 0
M  V30 1643 C 153.887 0.292668 -1.86518 0
M  V30 1644 O 153.244 1.20014 -1.37488 0
M  V30 1645 C 153.295 -1.81925 -3.12387 0
M  V30 1646 O 153.016 -3.2072 -2.98446 0
M  V30 1647 C 154.517 -1.76442 -4.06673 0
M  V30 1648 H 151.737 -0.400911 -0.538063 0
M  V30 1649 H 154.281 -1.67332 -1.1756 0
M  V30 1650 H 152.436 -1.33696 -3.63599 0
M  V30 1651 H 152.85 -3.53802 -3.872 0
M  V30 1652 H 154.324 -2.27781 -5.02812 0
M  V30 1653 H 154.801 -0.731608 -4.33064 0
M  V30 1654 H 155.407 -2.24238 -3.61382 0
M  V30 1655 N 153.722 1.14298 -1.08507 0
M  V30 1656 C 154.67 2.21483 -0.710483 0
M  V30 1657 C 155.664 1.66998 0.284234 0
M  V30 1658 O 156.87 1.79401 0.146692 0
M  V30 1659 H 153.245 0.721578 -0.211729 0
M  V30 1660 H 155.216 2.50348 -1.62384 0
M  V30 1661 C 153.965 3.4743 -0.137007 0
M  V30 1662 H 153.288 3.89686 -0.893592 0
M  V30 1663 H 154.728 4.2391 0.0872789 0
M  V30 1664 C 153.187 3.17548 1.12538 0
M  V30 1665 O 153.717 3.35437 2.21009 0
M  V30 1666 N 151.923 2.71499 1.03617 0
M  V30 1667 H 151.47 2.57143 0.153403 0
M  V30 1668 H 151.428 2.51881 1.88158 0
M  V30 1669 N 155.201 0.870884 1.31352 0
M  V30 1670 C 156.164 0.332243 2.26779 0
M  V30 1671 C 157.164 -0.517302 1.52252 0
M  V30 1672 O 158.354 -0.326477 1.71113 0
M  V30 1673 C 155.486 -0.528066 3.36785 0
M  V30 1674 H 156.679 1.17469 2.75937 0
M  V30 1675 H 154.232 0.64655 1.423 0
M  V30 1676 H 154.967 -1.39167 2.92922 0
M  V30 1677 H 154.752 0.0802582 3.92018 0
M  V30 1678 H 156.242 -0.897179 4.07849 0
M  V30 1679 N 156.679 -1.44442 0.630414 0
M  V30 1680 C 158.095 -1.56832 0.295973 0
M  V30 1681 C 158.295 -1.61806 -1.20088 0
M  V30 1682 O 157.351 -1.5607 -1.9849 0
M  V30 1683 C 158.664 -2.84031 0.987264 0
M  V30 1684 C 160.212 -2.97742 0.96534 0
M  V30 1685 C 160.687 -4.27743 1.63708 0
M  V30 1686 N 162.178 -4.34555 1.60364 0
M  V30 1687 C 162.913 -5.33862 2.09234 0
M  V30 1688 N 162.409 -6.39578 2.66292 0
M  V30 1689 N 164.202 -5.25366 1.99867 0
M  V30 1690 H 156.353 -1.39457 1.60205 0
M  V30 1691 H 158.616 -0.668237 0.672431 0
M  V30 1692 H 158.322 -2.86338 2.04215 0
M  V30 1693 H 158.196 -3.73534 0.524588 0
M  V30 1694 H 160.583 -2.94989 -0.0810639 0
M  V30 1695 H 160.664 -2.09589 1.4665 0
M  V30 1696 H 160.308 -4.31255 2.68293 0
M  V30 1697 H 160.238 -5.14752 1.11076 0
M  V30 1698 H 162.729 -3.58772 1.18705 0
M  V30 1699 H 163.042 -7.11637 3.01317 0
M  V30 1700 H 161.387 -6.40265 2.70343 0
M  V30 1701 H 164.578 -4.41688 1.55013 0
M  V30 1702 H 164.751 -6.02606 2.38265 0
M  V30 1703 N 158.157 -0.370918 -1.53173 0
M  V30 1704 C 159.385 0.217704 -2.05751 0
M  V30 1705 C 159.8 1.42018 -1.24404 0
M  V30 1706 O 159.157 1.80245 -0.286033 0
M  V30 1707 C 159.208 0.605954 -3.56385 0
M  V30 1708 O 158.929 -0.548734 -4.3465 0
M  V30 1709 C 160.43 1.2524 -4.25241 0
M  V30 1710 H 157.65 0.0371659 -0.66997 0
M  V30 1711 H 160.194 -0.530832 -1.9749 0
M  V30 1712 H 158.349 1.3044 -3.6478 0
M  V30 1713 H 158.763 -0.23376 -5.23979 0
M  V30 1714 H 160.237 1.47458 -5.3194 0
M  V30 1715 H 160.714 2.2143 -3.79296 0
M  V30 1716 H 161.32 0.595233 -4.21114 0
M  V30 1717 N 159.635 1.57281 -0.100228 0
M  V30 1718 C 161.051 1.57527 0.256416 0
M  V30 1719 C 161.251 1.11173 1.68056 0
M  V30 1720 O 160.307 0.79053 2.39806 0
M  V30 1721 C 161.62 3.00673 0.0401747 0
M  V30 1722 C 163.168 3.12815 0.107528 0
M  V30 1723 C 163.643 4.57929 -0.0807834 0
M  V30 1724 N 165.134 4.63193 -0.0261207 0
M  V30 1725 C 165.869 5.73212 -0.146999 0
M  V30 1726 N 165.365 6.92047 -0.322999 0
M  V30 1727 N 167.158 5.62031 -0.0879044 0
M  V30 1728 H 159.309 1.85718 -1.03065 0
M  V30 1729 H 161.572 0.857446 -0.404339 0
M  V30 1730 H 161.278 3.38804 -0.943649 0
M  V30 1731 H 161.152 3.69042 0.780262 0
M  V30 1732 H 163.539 2.74554 1.08186 0
M  V30 1733 H 163.62 2.47028 -0.664134 0
M  V30 1734 H 163.264 4.96886 -1.05201 0
M  V30 1735 H 163.194 5.21783 0.710635 0
M  V30 1736 H 165.685 3.77748 0.107161 0
M  V30 1737 H 165.998 7.7173 -0.406608 0
M  V30 1738 H 164.343 6.94074 -0.358733 0
M  V30 1739 H 167.534 4.68075 0.048498 0
M  V30 1740 H 167.707 6.47734 -0.185557 0
M  V30 1741 N 161.113 -0.173488 1.56642 0
M  V30 1742 C 162.06 -1.21482 1.96242 0
M  V30 1743 C 163.03 -1.44104 0.826027 0
M  V30 1744 O 164.215 -1.5688 1.08597 0
M  V30 1745 C 161.355 -2.54964 2.32567 0
M  V30 1746 C 160.468 -2.39739 3.59373 0
M  V30 1747 C 159.603 -3.66072 3.84921 0
M  V30 1748 C 158.642 -3.45771 5.05083 0
M  V30 1749 N 157.779 -4.64169 5.26775 0
M  V30 1750 H 162.619 -0.870123 2.85014 0
M  V30 1751 H 160.156 -0.418245 1.41029 0
M  V30 1752 H 162.114 -3.32758 2.5165 0
M  V30 1753 H 160.744 -2.87433 1.46908 0
M  V30 1754 H 159.796 -1.53131 3.48217 0
M  V30 1755 H 161.108 -2.20683 4.47326 0
M  V30 1756 H 160.262 -4.52303 4.0436 0
M  V30 1757 H 159.001 -3.88105 2.9534 0
M  V30 1758 H 158.006 -2.57927 4.85545 0
M  V30 1759 H 159.231 -3.25163 5.96193 0
M  V30 1760 H 157.177 -4.86425 4.40144 0
M  V30 1761 H 157.094 -4.48019 6.08946 0
M  V30 1762 H 158.362 -5.51689 5.5069 0
M  V30 1763 N 162.591 -1.51276 -0.441967 0
M  V30 1764 C 163.839 -1.63392 -1.18943 0
M  V30 1765 C 164.16 -0.350159 -1.9183 0
M  V30 1766 O 163.43 0.633784 -1.85364 0
M  V30 1767 H 162.01 -0.602164 -0.442049 0
M  V30 1768 H 164.672 -1.88186 -0.507165 0
M  V30 1769 H 163.768 -2.45934 -1.92154 0
M  V30 1770 N 164.069 0.697108 -1.41344 0
M  V30 1771 C 165.48 1.27697 -1.36199 0
M  V30 1772 C 165.831 1.9615 -0.0443463 0
M  V30 1773 O 164.956 1.98689 0.857419 0
M  V30 1774 C 165.551 2.32223 -2.46694 0
M  V30 1775 C 164.11 2.8579 -2.44952 0
M  V30 1776 C 163.257 1.59807 -2.26621 0
M  V30 1777 H 166.208 0.491968 -1.50882 0
M  V30 1778 H 166.229 3.1348 -2.15664 0
M  V30 1779 H 165.741 1.82373 -3.42581 0
M  V30 1780 H 163.842 3.3982 -1.52817 0
M  V30 1781 H 163.955 3.36325 -3.41207 0
M  V30 1782 H 162.319 1.8556 -1.7447 0
M  V30 1783 H 163.102 1.11956 -3.24532 0
M  V30 1784 N 165.547 1.27147 0.931209 0
M  V30 1785 C 166.963 1.04475 1.20653 0
M  V30 1786 C 167.163 -0.223885 2.00252 0
M  V30 1787 O 166.219 -0.930332 2.34736 0
M  V30 1788 C 167.532 2.28209 1.95809 0
M  V30 1789 C 169.08 2.33211 2.08762 0
M  V30 1790 C 169.555 3.56665 2.87323 0
M  V30 1791 N 171.046 3.57201 2.94892 0
M  V30 1792 C 171.781 4.49395 3.56134 0
M  V30 1793 N 171.277 5.51889 4.18796 0
M  V30 1794 N 173.07 4.37026 3.53504 0
M  V30 1795 H 165.221 2.08612 0.399333 0
M  V30 1796 H 167.484 0.917312 0.239253 0
M  V30 1797 H 167.19 3.20538 1.44736 0
M  V30 1798 H 167.064 2.33247 2.96438 0
M  V30 1799 H 169.451 1.41391 2.59023 0
M  V30 1800 H 169.532 2.32178 1.07364 0
M  V30 1801 H 169.176 4.4882 2.37746 0
M  V30 1802 H 169.106 3.54948 3.88998 0
M  V30 1803 H 171.597 2.83074 2.50354 0
M  V30 1804 H 171.91 6.18409 4.63454 0
M  V30 1805 H 170.255 5.55735 4.17353 0
M  V30 1806 H 173.446 3.56166 3.03749 0
M  V30 1807 H 173.619 5.09067 4.00942 0
M  V30 1808 N 167.025 -1.13721 1.09112 0
M  V30 1809 C 167.972 -2.19031 0.727591 0
M  V30 1810 C 168.942 -1.63555 -0.289656 0
M  V30 1811 O 170.127 -1.90023 -0.172026 0
M  V30 1812 C 167.267 -3.4477 0.15082 0
M  V30 1813 C 166.38 -4.14365 1.22172 0
M  V30 1814 C 165.515 -5.27709 0.608042 0
M  V30 1815 C 164.554 -5.89147 1.66047 0
M  V30 1816 N 163.691 -6.93929 1.06806 0
M  V30 1817 H 168.531 -2.49475 1.62991 0
M  V30 1818 H 166.068 -1.22499 0.81439 0
M  V30 1819 H 168.026 -4.16714 -0.201358 0
M  V30 1820 H 166.656 -3.14787 -0.714783 0
M  V30 1821 H 165.708 -3.40737 1.69122 0
M  V30 1822 H 167.02 -4.56114 2.01895 0
M  V30 1823 H 166.174 -6.06355 0.204523 0
M  V30 1824 H 164.913 -4.872 -0.220769 0
M  V30 1825 H 163.918 -5.09198 2.07357 0
M  V30 1826 H 165.143 -6.31729 2.49189 0
M  V30 1827 H 163.089 -6.55483 0.260476 0
M  V30 1828 H 163.006 -7.34202 1.8023 0
M  V30 1829 H 164.274 -7.76434 0.690644 0
M  V30 1830 N 168.503 -0.877838 -1.30888 0
M  V30 1831 C 169.914 -0.544193 -1.78593 0
M  V30 1832 C 170.265 0.939301 -1.72254 0
M  V30 1833 O 169.39 1.7337 -1.29505 0
M  V30 1834 C 169.985 -0.98105 -3.24285 0
M  V30 1835 C 168.544 -0.698935 -3.69854 0
M  V30 1836 C 167.691 -1.168 -2.51502 0
M  V30 1837 H 170.642 -1.06278 -1.17859 0
M  V30 1838 H 170.663 -0.307009 -3.79259 0
M  V30 1839 H 170.175 -2.06079 -3.28866 0
M  V30 1840 H 168.276 0.369112 -3.70767 0
M  V30 1841 H 168.389 -1.28148 -4.61644 0
M  V30 1842 H 166.753 -0.587535 -2.47831 0
M  V30 1843 H 167.536 -2.25533 -2.58824 0
M  V30 1844 N 169.982 1.44106 -0.638065 0
M  V30 1845 C 171.231 2.01194 -0.142744 0
M  V30 1846 C 171.544 1.50835 1.24532 0
M  V30 1847 O 172.75 2.00096 1.83504 0
M  V30 1848 C 171.206 3.59319 -0.20442 0
M  V30 1849 C 170.814 4.18674 -1.59423 0
M  V30 1850 C 172.558 4.23854 0.234079 0
M  V30 1851 C 170.465 5.69045 -1.61065 0
M  V30 1852 H 169.395 0.752367 -0.0495998 0
M  V30 1853 H 172.046 1.65246 -0.797881 0
M  V30 1854 H 170.428 3.92598 0.517946 0
M  V30 1855 H 171.602 3.96921 -2.34074 0
M  V30 1856 H 169.917 3.66453 -1.97741 0
M  V30 1857 H 172.514 5.34155 0.241443 0
M  V30 1858 H 172.857 3.96688 1.2627 0
M  V30 1859 H 173.39 3.95403 -0.436025 0
M  V30 1860 H 170.129 6.00956 -2.61787 0
M  V30 1861 H 169.649 5.929 -0.90718 0
M  V30 1862 H 171.328 6.32809 -1.34766 0
M  V30 1863 N 171.46 0.379036 1.52974 0
M  V30 1864 C 172.407 -0.461048 2.26148 0
M  V30 1865 C 173.377 -1.06637 1.27349 0
M  V30 1866 O 174.562 -1.09633 1.56157 0
M  V30 1867 C 171.702 -1.58782 3.06402 0
M  V30 1868 C 170.815 -1.00636 4.20115 0
M  V30 1869 C 169.95 -2.10334 4.87784 0
M  V30 1870 C 168.989 -1.49724 5.93506 0
M  V30 1871 N 168.126 -2.5331 6.54812 0
M  V30 1872 H 172.966 0.169429 2.97518 0
M  V30 1873 H 170.503 0.0953806 1.4679 0
M  V30 1874 H 172.461 -2.25174 3.51215 0
M  V30 1875 H 171.091 -2.18876 2.37261 0
M  V30 1876 H 170.143 -0.232332 3.7969 0
M  V30 1877 H 171.455 -0.523343 4.96047 0
M  V30 1878 H 170.609 -2.84519 5.35849 0
M  V30 1879 H 169.348 -2.61992 4.11353 0
M  V30 1880 H 168.353 -0.740598 5.44789 0
M  V30 1881 H 169.578 -0.988732 6.71864 0
M  V30 1882 H 167.524 -3.04156 5.81227 0
M  V30 1883 H 167.441 -2.09734 7.26325 0
M  V30 1884 H 168.709 -3.27155 7.07524 0
M  V30 1885 N 172.938 -1.57226 0.108567 0
M  V30 1886 C 173.885 -2.14756 -0.845481 0
M  V30 1887 C 174.855 -1.06971 -1.27068 0
M  V30 1888 O 176.04 -1.34827 -1.35005 0
M  V30 1889 C 173.18 -2.74298 -2.09415 0
M  V30 1890 C 172.293 -3.96358 -1.71826 0
M  V30 1891 C 171.428 -4.44021 -2.9158 0
M  V30 1892 C 170.467 -5.58637 -2.50181 0
M  V30 1893 N 169.604 -6.01091 -3.62814 0
M  V30 1894 H 174.444 -2.95961 -0.348035 0
M  V30 1895 H 171.981 -1.46226 -0.160106 0
M  V30 1896 H 173.939 -3.06945 -2.82561 0
M  V30 1897 H 172.569 -1.95801 -2.56636 0
M  V30 1898 H 171.621 -3.69939 -0.885947 0
M  V30 1899 H 172.933 -4.79504 -1.37394 0
M  V30 1900 H 172.087 -4.78522 -3.72963 0
M  V30 1901 H 170.826 -3.59803 -3.29231 0
M  V30 1902 H 169.831 -5.23751 -1.67228 0
M  V30 1903 H 171.056 -6.44613 -2.13659 0
M  V30 1904 H 169.002 -5.19817 -4.00158 0
M  V30 1905 H 168.919 -6.79066 -3.32273 0
M  V30 1906 H 170.187 -6.40227 -4.44668 0
M  V30 1907 O 174.455 0.0311049 -1.6147 0
M  V30 1908 H 175.146 0.651916 -1.824 0
M  V30 END ATOM
M  V30 BEGIN BOND
M  V30 END BOND
M  V30 END CTAB
M  END
$$$$
