drugbank_target|P0A745 Peptide methionine sulfoxide reductase MsrA (DB03963)
 OpenBabel12092119573D

  0  0  0     0  0            999 V3000
M  V30 BEGIN CTAB
M  V30 COUNTS 3177 3227 0 0 0
M  V30 BEGIN ATOM
M  V30 1 H -0.908 1.98254 -0.117106 0
M  V30 2 N 0 1.576 0 0
M  V30 3 C 0.933 2.03868 1.02534 0
M  V30 4 C 1.911 0.928543 1.3348 0
M  V30 5 O 3.095 1.19667 1.45644 0
M  V30 6 C 0.222 2.43627 2.35294 0
M  V30 7 C -0.732 3.65373 2.2001 0
M  V30 8 S 0.101 5.13292 1.52614 0
M  V30 9 C 1.257 5.56322 2.86805 0
M  V30 10 H 1.49 2.90518 0.631377 0
M  V30 11 H -0.977 1.52953 0.210867 0
M  V30 12 H 0.981 2.67203 3.11629 0
M  V30 13 H -0.358 1.57376 2.7183 0
M  V30 14 H -1.165 3.90944 3.18086 0
M  V30 15 H -1.563 3.418 1.51819 0
M  V30 16 H 0.729 5.58782 3.83104 0
M  V30 17 H 1.672 6.56266 2.65933 0
M  V30 18 H 2.08 4.83886 2.90714 0
M  V30 19 N 1.4781 -0.272755 1.55222 0
M  V30 20 C 2.7031 -1.02683 1.80197 0
M  V30 21 C 3.1281 -1.79142 0.573551 0
M  V30 22 O 2.4861 -1.74917 -0.476849 0
M  V30 23 C 2.5341 -1.9609 3.02624 0
M  V30 24 O 1.6381 -3.04863 2.77727 0
M  V30 25 H 0.9791 -0.293557 0.595584 0
M  V30 26 H 3.5091 -0.30159 2.02365 0
M  V30 27 H 3.5191 -2.38039 3.31363 0
M  V30 28 H 2.1941 -1.39851 3.91682 0
M  V30 29 H 0.7711 -2.67228 2.60084 0
M  V30 30 N 2.9562 -1.48159 -0.537278 0
M  V30 31 C 3.8862 -1.65029 -1.6519 0
M  V30 32 C 4.8672 -0.499281 -1.62607 0
M  V30 33 O 6.0522 -0.730972 -1.79918 0
M  V30 34 C 3.1822 -1.68303 -3.03795 0
M  V30 35 C 2.1362 -2.8283 -3.21234 0
M  V30 36 C 1.4622 -2.71189 -4.60826 0
M  V30 37 C 2.7622 -4.24211 -3.04701 0
M  V30 38 H 4.4562 -2.58341 -1.51328 0
M  V30 39 H 2.0022 -1.24325 -0.726585 0
M  V30 40 H 3.9552 -1.78693 -3.81637 0
M  V30 41 H 2.6792 -0.715635 -3.18663 0
M  V30 42 H 1.3382 -2.71983 -2.45807 0
M  V30 43 H 0.9862 -1.72435 -4.7252 0
M  V30 44 H 0.6862 -3.48035 -4.7344 0
M  V30 45 H 2.2102 -2.83537 -5.40777 0
M  V30 46 H 3.6242 -4.3593 -3.72341 0
M  V30 47 H 2.0212 -5.01998 -3.28813 0
M  V30 48 H 3.0912 -4.41184 -2.01209 0
M  V30 49 N 4.4343 0.785586 -1.36625 0
M  V30 50 C 5.6813 1.54362 -1.31067 0
M  V30 51 C 6.0093 1.94195 0.10893 0
M  V30 52 O 5.2643 1.63262 1.07908 0
M  V30 53 C 5.5633 2.83007 -2.1827 0
M  V30 54 C 5.2293 2.62294 -3.6676 0
M  V30 55 C 3.8913 2.56353 -4.0723 0
M  V30 56 C 6.2433 2.43371 -4.6089 0
M  V30 57 C 3.5713 2.29461 -5.39967 0
M  V30 58 C 5.9233 2.18005 -5.93849 0
M  V30 59 C 4.5873 2.105 -6.3344 0
M  V30 60 H 3.8573 0.564851 -0.479609 0
M  V30 61 H 6.5043 0.906028 -1.68711 0
M  V30 62 H 4.8093 3.51253 -1.73576 0
M  V30 63 H 6.5063 3.40817 -2.11292 0
M  V30 64 H 3.0963 2.67774 -3.34656 0
M  V30 65 H 7.2803 2.46959 -4.30494 0
M  V30 66 H 2.5363 2.22135 -5.69619 0
M  V30 67 H 6.7103 2.02359 -6.66351 0
M  V30 68 H 4.3373 1.89425 -7.36222 0
M  V30 69 N 5.9124 1.20967 1.01018 0
M  V30 70 C 7.1894 0.93264 1.71934 0
M  V30 71 C 7.5694 -0.55692 2.03621 0
M  V30 72 O 6.9174 -1.52035 1.7058 0
M  V30 73 C 7.1274 1.81233 2.98254 0
M  V30 74 C 8.4754 2.05804 3.71389 0
M  V30 75 O 9.4994 1.78539 3.08225 0
M  V30 76 O 8.3584 2.51888 4.84989 0
M  V30 77 H 5.4524 0.349272 0.749625 0
M  V30 78 H 7.9984 1.31871 1.06808 0
M  V30 79 H 6.7704 2.82067 2.71208 0
M  V30 80 H 6.3934 1.42674 3.7112 0
M  V30 81 N 7.3905 -1.2043 1.01659 0
M  V30 82 C 8.3375 -2.23215 0.586822 0
M  V30 83 C 9.3075 -1.61382 -0.393085 0
M  V30 84 O 10.4925 -1.88544 -0.292525 0
M  V30 85 C 7.6325 -3.45032 -0.0687464 0
M  V30 86 C 6.7455 -4.21296 0.955724 0
M  V30 87 C 5.8805 -5.30507 0.271208 0
M  V30 88 C 4.9195 -5.98515 1.28244 0
M  V30 89 N 4.0565 -6.99316 0.62459 0
M  V30 90 H 8.8965 -2.59336 1.46796 0
M  V30 91 H 6.4335 -1.27431 0.734836 0
M  V30 92 H 8.3915 -4.1459 -0.465965 0
M  V30 93 H 7.0215 -3.09604 -0.913529 0
M  V30 94 H 6.0735 -3.50803 1.4711 0
M  V30 95 H 7.3855 -4.6803 1.72479 0
M  V30 96 H 6.5395 -6.06428 -0.18151 0
M  V30 97 H 5.2785 -4.8481 -0.530163 0
M  V30 98 H 4.2835 -5.21355 1.74554 0
M  V30 99 H 5.5085 -6.46298 2.08509 0
M  V30 100 H 3.4545 -6.55812 -0.156914 0
M  V30 101 H 3.3715 -7.44178 1.33172 0
M  V30 102 H 4.6395 -7.79255 0.195462 0
M  V30 103 N 8.8686 -0.792821 -1.36206 0
M  V30 104 C 9.8156 -0.191653 -2.30003 0
M  V30 105 C 10.7856 0.666453 -1.52143 0
M  V30 106 O 11.9706 0.61442 -1.80636 0
M  V30 107 C 9.1106 0.664848 -3.38635 0
M  V30 108 C 8.2236 -0.212175 -4.31479 0
M  V30 109 C 7.3586 0.651022 -5.27196 0
M  V30 110 C 6.3976 -0.227247 -6.11678 0
M  V30 111 N 5.5346 0.595127 -6.99573 0
M  V30 112 H 10.3746 -0.996978 -2.80828 0
M  V30 113 H 7.9116 -0.503206 -1.38225 0
M  V30 114 H 9.8696 1.17645 -4.00269 0
M  V30 115 H 8.4996 1.43557 -2.89122 0
M  V30 116 H 7.5516 -0.841777 -3.70969 0
M  V30 117 H 8.8636 -0.888751 -4.90818 0
M  V30 118 H 8.0176 1.2283 -5.94136 0
M  V30 119 H 6.7566 1.36121 -4.68319 0
M  V30 120 H 5.7616 -0.816904 -5.43697 0
M  V30 121 H 6.9866 -0.93509 -6.72631 0
M  V30 122 H 4.9326 1.28955 -6.432 0
M  V30 123 H 4.8496 -0.0236952 -7.55996 0
M  V30 124 H 6.1176 1.15613 -7.70879 0
M  V30 125 N 10.3467 1.47872 -0.545128 0
M  V30 126 C 11.2967 2.26842 0.229456 0
M  V30 127 C 12.2807 1.33626 0.896267 0
M  V30 128 O 13.4727 1.58063 0.79657 0
M  V30 129 C 10.6017 3.19089 1.26638 0
M  V30 130 C 9.6877 4.19783 0.603598 0
M  V30 131 N 10.0787 5.0479 -0.319405 0
M  V30 132 C 8.3767 4.3765 0.858989 0
M  V30 133 C 9.0777 5.77433 -0.703241 0
M  V30 134 N 8.0537 5.43566 -0.0608309 0
M  V30 135 H 11.8557 2.89947 -0.480391 0
M  V30 136 H 9.3697 1.58263 -0.364209 0
M  V30 137 H 11.3667 3.74337 1.83515 0
M  V30 138 H 10.0267 2.5754 1.97745 0
M  V30 139 H 11.0377 5.13244 -0.692889 0
M  V30 140 H 7.7147 3.87281 1.55948 0
M  V30 141 H 9.1047 6.55824 -1.46098 0
M  V30 142 N 11.8248 0.280983 1.55075 0
M  V30 143 C 12.7548 -0.597469 2.25727 0
M  V30 144 C 13.7358 -1.15417 1.24952 0
M  V30 145 O 14.9208 -1.18722 1.53684 0
M  V30 146 C 12.0508 -1.7789 2.98283 0
M  V30 147 C 11.0048 -1.35347 4.06036 0
M  V30 148 C 10.3308 -2.61846 4.66198 0
M  V30 149 C 11.6308 -0.499354 5.19907 0
M  V30 150 H 13.3248 -0.00824265 2.99399 0
M  V30 151 H 10.8708 -0.0025244 1.44 0
M  V30 152 H 12.8238 -2.39937 3.46422 0
M  V30 153 H 11.5478 -2.39405 2.22155 0
M  V30 154 H 10.2068 -0.756156 3.58717 0
M  V30 155 H 9.8548 -3.21632 3.86732 0
M  V30 156 H 9.5548 -2.3409 5.38958 0
M  V30 157 H 11.0788 -3.24732 5.1709 0
M  V30 158 H 12.4928 -1.02498 5.64063 0
M  V30 159 H 10.8898 -0.316424 5.99265 0
M  V30 160 H 11.9598 0.480459 4.82514 0
M  V30 161 N 13.3029 -1.57598 0.00835791 0
M  V30 162 C 14.5489 -1.91211 -0.675732 0
M  V30 163 C 14.8819 -0.883139 -1.72958 0
M  V30 164 O 14.1569 0.097016 -1.94258 0
M  V30 165 C 14.4399 -3.35379 -1.31123 0
M  V30 166 C 14.2929 -4.48999 -0.268356 0
M  V30 167 C 15.6119 -3.7912 -2.23508 0
M  V30 168 H 12.7309 -0.695374 -0.244179 0
M  V30 169 H 15.3729 -1.89901 0.0613655 0
M  V30 170 H 13.5229 -3.36626 -1.93946 0
M  V30 171 H 15.1949 -4.59887 0.360844 0
M  V30 172 H 13.4379 -4.31873 0.408482 0
M  V30 173 H 14.1089 -5.46851 -0.752218 0
M  V30 174 H 16.5849 -3.79477 -1.70693 0
M  V30 175 H 15.4609 -4.80729 -2.64936 0
M  V30 176 H 15.7219 -3.13455 -3.11766 0
M  V30 177 N 14.781 0.264519 -1.55364 0
M  V30 178 C 16.006 1.01726 -1.80739 0
M  V30 179 C 16.431 1.78836 -0.583044 0
M  V30 180 O 15.789 1.75167 0.467566 0
M  V30 181 C 15.837 1.94482 -3.03659 0
M  V30 182 O 14.941 3.03386 -2.7934 0
M  V30 183 H 14.282 0.290395 -0.597132 0
M  V30 184 H 16.812 0.290854 -2.02522 0
M  V30 185 H 16.822 2.36278 -3.32621 0
M  V30 186 H 15.497 1.37772 -3.92418 0
M  V30 187 H 14.074 2.65844 -2.61498 0
M  V30 188 N 16.2591 1.48442 0.529413 0
M  V30 189 C 17.6701 1.5002 1.11134 0
M  V30 190 C 18.0211 0.27031 1.94329 0
M  V30 191 O 17.1461 -0.622507 2.07253 0
M  V30 192 C 17.7411 2.71834 2.02217 0
M  V30 193 C 16.3001 2.76283 2.55627 0
M  V30 194 C 15.4471 2.43542 1.326 0
M  V30 195 H 18.3981 1.5555 0.314641 0
M  V30 196 H 18.4191 2.50384 2.8651 0
M  V30 197 H 17.9311 3.61331 1.41639 0
M  V30 198 H 16.0321 1.90995 3.19924 0
M  V30 199 H 16.1451 3.77725 2.94721 0
M  V30 200 H 14.5091 1.94709 1.64196 0
M  V30 201 H 15.2921 3.3528 0.737734 0
M  V30 202 N 17.7372 -0.778329 1.37039 0
M  V30 203 C 18.7002 -1.87301 1.32102 0
M  V30 204 C 19.7002 -1.59198 0.226405 0
M  V30 205 O 20.8902 -1.67403 0.481861 0
M  V30 206 C 18.0222 -3.24309 1.05055 0
M  V30 207 H 19.2152 -1.93093 2.29467 0
M  V30 208 H 16.7682 -0.977358 1.21973 0
M  V30 209 H 17.5032 -3.24196 0.0819373 0
M  V30 210 H 17.2882 -3.46098 1.84279 0
M  V30 211 H 18.7782 -4.04382 1.04234 0
M  V30 212 N 19.2153 -1.21501 -1.00376 0
M  V30 213 C 20.4923 -0.941745 -1.71437 0
M  V30 214 C 20.8723 0.546114 -2.03914 0
M  V30 215 O 20.2203 1.51128 -1.71384 0
M  V30 216 C 20.4303 -1.82812 -2.97289 0
M  V30 217 C 21.7783 -2.07771 -3.70292 0
M  V30 218 O 22.8023 -1.80171 -3.07273 0
M  V30 219 O 21.6613 -2.54456 -4.83647 0
M  V30 220 H 18.7553 -0.353243 -0.747762 0
M  V30 221 H 21.3013 -1.32436 -1.06108 0
M  V30 222 H 20.0733 -2.83501 -2.69709 0
M  V30 223 H 19.6963 -1.4464 -3.70358 0
M  V30 224 N 20.6934 1.19889 -1.02296 0
M  V30 225 C 21.6564 2.21116 -0.603351 0
M  V30 226 C 22.6564 1.5738 0.329884 0
M  V30 227 O 23.8464 1.73802 0.117702 0
M  V30 228 C 20.9784 3.40696 0.117992 0
M  V30 229 H 22.1714 2.59754 -1.49893 0
M  V30 230 H 19.7244 1.33463 -0.813468 0
M  V30 231 H 20.4594 3.07569 1.0282 0
M  V30 232 H 20.2444 3.88188 -0.552511 0
M  V30 233 H 21.7344 4.15692 0.398696 0
M  V30 234 N 22.1715 0.800033 1.35784 0
M  V30 235 C 23.1015 0.220184 2.3246 0
M  V30 236 C 24.0825 -0.65073 1.57161 0
M  V30 237 O 25.2675 -0.582359 1.85263 0
M  V30 238 C 22.3975 -0.637353 3.41402 0
M  V30 239 C 21.3515 0.134531 4.27789 0
M  V30 240 C 20.6775 -0.844285 5.27992 0
M  V30 241 C 21.9775 1.32979 5.05088 0
M  V30 242 H 23.6715 1.02787 2.81203 0
M  V30 243 H 21.2175 0.495717 1.35199 0
M  V30 244 H 23.1705 -1.05302 4.08031 0
M  V30 245 H 21.8945 -1.47785 2.91251 0
M  V30 246 H 20.5535 0.531296 3.6273 0
M  V30 247 H 20.2015 -1.68011 4.74111 0
M  V30 248 H 19.9015 -0.332184 5.8666 0
M  V30 249 H 21.4255 -1.2583 5.97494 0
M  V30 250 H 22.8395 0.98934 5.64699 0
M  V30 251 H 21.2365 1.77593 5.7322 0
M  V30 252 H 22.3065 2.11978 4.36111 0
M  V30 253 N 23.6496 -1.47581 0.552962 0
M  V30 254 C 25.0606 -1.86324 0.118463 0
M  V30 255 C 25.4116 -1.46006 -1.3106 0
M  V30 256 O 24.5366 -0.861182 -1.98526 0
M  V30 257 C 25.1316 -3.3816 0.20821 0
M  V30 258 C 23.6906 -3.7601 -0.171226 0
M  V30 259 C 22.8376 -2.71634 0.557686 0
M  V30 260 H 25.7886 -1.39159 0.762928 0
M  V30 261 H 25.8096 -3.76141 -0.574278 0
M  V30 262 H 25.3216 -3.67473 1.24841 0
M  V30 263 H 23.4226 -3.52313 -1.21269 0
M  V30 264 H 23.5356 -4.78745 0.184379 0
M  V30 265 H 21.8996 -2.547 0.00125792 0
M  V30 266 H 22.6826 -3.0379 1.59896 0
M  V30 267 N 25.1277 -0.289203 -1.54924 0
M  V30 268 C 26.3757 0.322879 -1.99504 0
M  V30 269 C 26.6967 1.55313 -1.1791 0
M  V30 270 O 25.9667 1.94001 -0.272097 0
M  V30 271 H 24.5467 0.122291 -0.736922 0
M  V30 272 H 27.2087 -0.397802 -1.90797 0
M  V30 273 H 26.3047 0.603061 -3.06218 0
M  V30 274 N 26.6058 1.57591 -0.0167156 0
M  V30 275 C 28.0218 1.55946 0.339557 0
M  V30 276 C 28.2218 1.02109 1.73713 0
M  V30 277 O 27.2778 0.662303 2.43659 0
M  V30 278 C 28.5908 3.00037 0.199499 0
M  V30 279 C 30.1388 3.11805 0.273193 0
M  V30 280 C 30.6138 4.57713 0.162068 0
M  V30 281 N 32.1048 4.6268 0.219444 0
M  V30 282 C 32.8398 5.73185 0.157054 0
M  V30 283 N 32.3358 6.92786 0.0442936 0
M  V30 284 N 34.1288 5.61707 0.21014 0
M  V30 285 H 26.2798 1.90921 -0.930758 0
M  V30 286 H 28.5428 0.877674 -0.358319 0
M  V30 287 H 28.2488 3.4333 -0.76273 0
M  V30 288 H 28.1228 3.64387 0.974786 0
M  V30 289 H 30.5098 2.68433 1.22587 0
M  V30 290 H 30.5908 2.50201 -0.532256 0
M  V30 291 H 30.2348 5.01763 -0.78714 0
M  V30 292 H 30.1648 5.17283 0.986222 0
M  V30 293 H 32.6558 3.76649 0.307246 0
M  V30 294 H 32.9688 7.728 0.00304069 0
M  V30 295 H 31.3138 6.94999 0.00968457 0
M  V30 296 H 34.5048 4.6716 0.296546 0
M  V30 297 H 34.6778 6.47807 0.158054 0
M  V30 298 N 28.0839 -0.256276 1.55502 0
M  V30 299 C 29.0319 -1.33694 1.90338 0
M  V30 300 C 30.0259 -1.50299 0.781441 0
M  V30 301 O 31.2319 -1.51885 0.965966 0
M  V30 302 H 27.6069 -0.447483 0.60437 0
M  V30 303 H 29.5779 -1.01574 2.8058 0
M  V30 304 C 28.3269 -2.68724 2.20642 0
M  V30 305 H 27.6499 -2.56743 3.06469 0
M  V30 306 H 29.0899 -3.43237 2.48926 0
M  V30 307 C 27.5489 -3.21101 1.01959 0
M  V30 308 O 28.0789 -4.0084 0.262762 0
M  V30 309 N 26.2849 -2.79003 0.812746 0
M  V30 310 H 25.8319 -2.14271 1.42989 0
M  V30 311 H 25.7899 -3.14393 0.0203076 0
M  V30 312 N 29.562 -1.4872 -0.521534 0
M  V30 313 C 30.79 -1.60843 -1.30142 0
M  V30 314 C 31.205 -0.271897 -1.86832 0
M  V30 315 O 30.562 0.739969 -1.66825 0
M  V30 316 C 30.613 -2.66155 -2.4463 0
M  V30 317 O 30.334 -3.94623 -1.90275 0
M  V30 318 C 31.835 -2.88795 -3.36322 0
M  V30 319 H 29.055 -0.542075 -0.395468 0
M  V30 320 H 31.599 -1.94609 -0.628285 0
M  V30 321 H 29.754 -2.35224 -3.07812 0
M  V30 322 H 30.168 -4.52468 -2.65279 0
M  V30 323 H 31.642 -3.66264 -4.12983 0
M  V30 324 H 32.119 -1.97934 -3.9207 0
M  V30 325 H 32.725 -3.21063 -2.78924 0
M  V30 326 N 31.0401 0.771051 -1.3745 0
M  V30 327 C 32.4511 1.34737 -1.29239 0
M  V30 328 C 32.8021 1.96109 0.0596908 0
M  V30 329 O 31.9271 1.93865 0.961534 0
M  V30 330 C 32.5221 2.44973 -2.34037 0
M  V30 331 C 31.0811 2.98372 -2.29458 0
M  V30 332 C 30.2281 1.71595 -2.17831 0
M  V30 333 H 33.1791 0.571256 -1.48062 0
M  V30 334 H 33.2001 3.24471 -1.98744 0
M  V30 335 H 32.7121 2.00276 -3.32432 0
M  V30 336 H 30.8131 3.47443 -1.34589 0
M  V30 337 H 30.9261 3.53939 -3.229 0
M  V30 338 H 29.2901 1.94547 -1.64388 0
M  V30 339 H 30.0731 1.29001 -3.18141 0
M  V30 340 N 32.5182 1.22032 0.997298 0
M  V30 341 C 33.4512 0.929735 2.08401 0
M  V30 342 C 34.4292 -0.125681 1.62114 0
M  V30 343 O 35.6132 0.00495409 1.88499 0
M  V30 344 C 32.7402 0.397488 3.3636 0
M  V30 345 C 31.7862 1.4369 4.01566 0
M  V30 346 S 32.6192 3.00874 4.42984 0
M  V30 347 C 33.7752 2.49276 5.74119 0
M  V30 348 H 34.0082 1.84998 2.32729 0
M  V30 349 H 31.5412 1.0509 1.13117 0
M  V30 350 H 33.4992 0.0969846 4.10385 0
M  V30 351 H 32.1602 -0.501571 3.10069 0
M  V30 352 H 31.3532 1.01427 4.93689 0
M  V30 353 H 30.9552 1.68588 3.33847 0
M  V30 354 H 33.2472 1.90242 6.50242 0
M  V30 355 H 34.1902 3.39872 6.21203 0
M  V30 356 H 34.5982 1.90714 5.31308 0
M  V30 357 N 33.9963 -1.19345 1.0293 0
M  V30 358 C 35.4073 -1.70725 0.755633 0
M  V30 359 C 35.7583 -1.82326 -0.724676 0
M  V30 360 O 34.8833 -1.49471 -1.56484 0
M  V30 361 C 35.4783 -3.10084 1.36503 0
M  V30 362 C 34.0373 -3.58723 1.13994 0
M  V30 363 C 33.1843 -2.35577 1.46283 0
M  V30 364 H 36.1353 -1.0418 1.19718 0
M  V30 365 H 36.1563 -3.72787 0.762217 0
M  V30 366 H 35.6683 -3.01609 2.44241 0
M  V30 367 H 33.7693 -3.72512 0.0807901 0
M  V30 368 H 33.8823 -4.42816 1.82894 0
M  V30 369 H 32.2463 -2.38935 0.88217 0
M  V30 370 H 33.0293 -2.29731 2.55105 0
M  V30 371 N 35.4744 -0.807222 -1.35358 0
M  V30 372 C 36.7204 -0.388463 -1.99045 0
M  V30 373 C 37.0534 1.04184 -1.63888 0
M  V30 374 O 36.3284 1.72292 -0.902535 0
M  V30 375 C 36.6114 -0.572783 -3.55515 0
M  V30 376 C 36.4644 -2.04807 -4.00468 0
M  V30 377 C 37.7834 0.00114064 -4.401 0
M  V30 378 H 34.9024 -0.142619 -0.723069 0
M  V30 379 H 37.5444 -1.01687 -1.60498 0
M  V30 380 H 35.6944 -0.0378425 -3.88482 0
M  V30 381 H 37.3664 -2.64544 -3.77908 0
M  V30 382 H 35.6094 -2.54427 -3.51353 0
M  V30 383 H 36.2804 -2.12792 -5.09337 0
M  V30 384 H 38.7564 -0.455716 -4.13597 0
M  V30 385 H 37.6324 -0.157737 -5.48673 0
M  V30 386 H 37.8934 1.09488 -4.28328 0
M  V30 387 N 36.9525 1.47285 -0.560781 0
M  V30 388 C 37.9155 2.28535 0.174488 0
M  V30 389 C 38.9155 1.37153 0.839388 0
M  V30 390 O 40.1055 1.59748 0.694702 0
M  V30 391 C 37.2375 3.16934 1.25561 0
M  V30 392 H 38.4305 2.95012 -0.539262 0
M  V30 393 H 35.9835 1.53034 -0.317865 0
M  V30 394 H 36.7185 2.55157 2.00164 0
M  V30 395 H 36.5035 3.8419 0.783604 0
M  V30 396 H 37.9935 3.78143 1.77193 0
M  V30 397 N 38.4306 0.297415 1.54768 0
M  V30 398 C 39.6586 -0.315623 2.04478 0
M  V30 399 C 40.0736 -1.47792 1.17486 0
M  V30 400 O 39.4306 -1.81404 0.19971 0
M  V30 401 C 39.4816 -0.7753 3.53088 0
M  V30 402 O 39.2026 0.340732 4.36773 0
M  V30 403 C 40.7036 -1.45386 4.18781 0
M  V30 404 H 37.9236 -0.0690887 0.667434 0
M  V30 405 H 40.4676 0.436003 1.99798 0
M  V30 406 H 38.6226 -1.47696 3.58141 0
M  V30 407 H 39.0366 -0.0165035 5.24497 0
M  V30 408 H 40.5106 -1.72669 5.24299 0
M  V30 409 H 40.9876 -2.39275 3.68299 0
M  V30 410 H 41.5936 -0.795475 4.17795 0
M  V30 411 N 39.9087 -1.5758 0.0250728 0
M  V30 412 C 40.8387 -2.13007 -0.956575 0
M  V30 413 C 41.8197 -1.0452 -1.342 0
M  V30 414 O 43.0047 -1.32332 -1.42133 0
M  V30 415 C 40.1347 -2.65386 -2.24026 0
M  V30 416 C 39.0887 -3.78623 -1.99571 0
M  V30 417 C 38.4147 -4.17414 -3.3417 0
M  V30 418 C 39.7147 -5.04867 -1.33814 0
M  V30 419 H 41.4087 -2.9528 -0.494991 0
M  V30 420 H 38.9547 -1.42042 -0.236651 0
M  V30 421 H 40.9077 -3.02794 -2.93076 0
M  V30 422 H 39.6317 -1.80268 -2.72343 0
M  V30 423 H 38.2907 -3.41646 -1.32941 0
M  V30 424 H 37.9387 -3.29284 -3.80238 0
M  V30 425 H 37.6387 -4.93719 -3.18615 0
M  V30 426 H 39.1627 -4.57402 -4.04495 0
M  V30 427 H 40.5767 -5.39888 -1.92857 0
M  V30 428 H 38.9737 -5.86144 -1.28669 0
M  V30 429 H 40.0437 -4.83904 -0.310561 0
M  V30 430 N 41.3868 0.248026 -1.55636 0
M  V30 431 C 42.3368 1.30994 -1.86614 0
M  V30 432 C 43.3208 1.43543 -0.726918 0
M  V30 433 O 44.5128 1.46804 -0.988818 0
M  V30 434 C 41.6418 2.6656 -2.16335 0
M  V30 435 C 40.7278 2.58019 -3.36581 0
M  V30 436 N 41.1188 2.1911 -4.55878 0
M  V30 437 C 39.4168 2.89035 -3.39669 0
M  V30 438 C 40.1178 2.21174 -5.38012 0
M  V30 439 N 39.0938 2.60632 -4.77045 0
M  V30 440 H 42.8958 0.999583 -2.76379 0
M  V30 441 H 40.4098 0.456652 -1.55848 0
M  V30 442 H 42.4068 3.43194 -2.36692 0
M  V30 443 H 41.0668 2.98463 -1.27867 0
M  V30 444 H 42.0778 1.90672 -4.81523 0
M  V30 445 H 38.7548 3.25485 -2.61469 0
M  V30 446 H 40.1448 1.9344 -6.43452 0
M  V30 447 N 42.8649 1.48995 0.513639 0
M  V30 448 C 43.8279 1.64229 1.59879 0
M  V30 449 C 44.8279 0.514696 1.5234 0
M  V30 450 O 46.0179 0.78087 1.55718 0
M  V30 451 C 43.1499 1.62783 2.99524 0
M  V30 452 H 44.3429 2.61004 1.47705 0
M  V30 453 H 41.8959 1.37837 0.736936 0
M  V30 454 H 42.6309 0.675461 3.17188 0
M  V30 455 H 42.4159 2.4466 3.06404 0
M  V30 456 H 43.9059 1.76669 3.78388 0
M  V30 457 N 44.343 -0.763751 1.37857 0
M  V30 458 C 45.589 -1.52483 1.33704 0
M  V30 459 C 45.922 -1.94051 -0.0759612 0
M  V30 460 O 45.197 -1.64675 -1.03501 0
M  V30 461 C 45.48 -2.78441 2.28348 0
M  V30 462 C 45.333 -2.43075 3.78463 0
M  V30 463 C 46.652 -3.80415 2.21298 0
M  V30 464 H 43.771 -0.553169 0.487005 0
M  V30 465 H 46.413 -0.875562 1.68624 0
M  V30 466 H 44.563 -3.33842 1.987 0
M  V30 467 H 46.235 -1.93527 4.18742 0
M  V30 468 H 44.478 -1.75666 3.96641 0
M  V30 469 H 45.149 -3.33149 4.40132 0
M  V30 470 H 47.625 -3.34527 2.47449 0
M  V30 471 H 46.501 -4.66257 2.89647 0
M  V30 472 H 46.762 -4.25262 1.20849 0
M  V30 473 N 45.8211 -1.22559 -0.990812 0
M  V30 474 C 46.7691 -0.994798 -2.10253 0
M  V30 475 C 47.7631 0.0627798 -1.69284 0
M  V30 476 O 48.9691 -0.0898392 -1.79776 0
M  V30 477 H 45.3441 -0.304527 -0.687581 0
M  V30 478 H 47.3151 -1.93812 -2.26891 0
M  V30 479 C 46.0641 -0.591439 -3.42633 0
M  V30 480 H 45.3871 -1.3969 -3.74602 0
M  V30 481 H 46.8271 -0.469385 -4.21394 0
M  V30 482 C 45.2861 0.699232 -3.29564 0
M  V30 483 O 45.8161 1.75112 -3.61523 0
M  V30 484 N 44.0221 0.671182 -2.82743 0
M  V30 485 H 43.5691 -0.185136 -2.56934 0
M  V30 486 H 43.5271 1.53502 -2.7438 0
M  V30 487 N 47.2992 1.18797 -1.03562 0
M  V30 488 C 48.5472 1.88278 -0.734569 0
M  V30 489 C 48.8682 1.8043 0.739586 0
M  V30 490 O 48.1382 1.21925 1.53333 0
M  V30 491 H 46.7182 0.696991 -0.268725 0
M  V30 492 H 49.3802 1.44192 -1.31129 0
M  V30 493 H 48.4762 2.94443 -1.03489 0
M  V30 494 N 48.7773 0.814389 1.34928 0
M  V30 495 C 49.7273 0.202752 2.27097 0
M  V30 496 C 50.7113 -0.62799 1.48139 0
M  V30 497 O 51.9033 -0.483969 1.70255 0
M  V30 498 C 49.0323 -0.64146 3.37254 0
M  V30 499 C 48.1183 0.19944 4.23631 0
M  V30 500 N 48.5093 1.26628 4.89693 0
M  V30 501 C 46.8073 -0.0176433 4.45997 0
M  V30 502 C 47.5083 1.78031 5.53787 0
M  V30 503 N 46.4843 1.08553 5.32651 0
M  V30 504 H 50.2863 1.01893 2.75672 0
M  V30 505 H 47.8003 0.656332 1.48546 0
M  V30 506 H 49.7973 -1.09575 4.02243 0
M  V30 507 H 48.4573 -1.4559 2.9023 0
M  V30 508 H 49.4683 1.64901 4.90946 0
M  V30 509 H 46.1453 -0.800601 4.09752 0
M  V30 510 H 47.5353 2.67236 6.16469 0
M  V30 511 N 50.2554 -1.46986 0.568584 0
M  V30 512 C 51.4804 -2.07335 0.0520528 0
M  V30 513 C 51.9054 -1.41675 -1.23733 0
M  V30 514 O 51.2634 -0.495623 -1.74394 0
M  V30 515 C 51.3114 -3.60417 -0.11501 0
M  V30 516 O 50.4154 -3.95309 -1.17492 0
M  V30 517 H 49.7564 -0.661597 0.0564385 0
M  V30 518 H 52.2864 -1.88837 0.787507 0
M  V30 519 H 52.2964 -4.06698 -0.325644 0
M  V30 520 H 50.9714 -4.07601 0.826675 0
M  V30 521 H 49.5484 -3.60757 -0.943869 0
M  V30 522 N 51.7335 -0.305618 -1.54608 0
M  V30 523 C 52.6665 0.610536 -2.19881 0
M  V30 524 C 53.6445 1.1294 -1.16976 0
M  V30 525 O 54.8285 1.19673 -1.45638 0
M  V30 526 C 51.9555 1.83583 -2.84631 0
M  V30 527 C 51.0015 1.4498 -4.01102 0
M  V30 528 S 51.8345 0.501793 -5.33144 0
M  V30 529 C 52.9905 1.73478 -6.01379 0
M  V30 530 H 53.2235 0.0560177 -2.97247 0
M  V30 531 H 50.7565 -0.0897434 -1.54139 0
M  V30 532 H 52.7145 2.53898 -3.22562 0
M  V30 533 H 51.3755 2.36152 -2.07102 0
M  V30 534 H 50.5685 2.36236 -4.45206 0
M  V30 535 H 50.1705 0.826553 -3.64752 0
M  V30 536 H 52.4625 2.67473 -6.22467 0
M  V30 537 H 53.4055 1.33622 -6.95378 0
M  V30 538 H 53.8135 1.9136 -5.31076 0
M  V30 539 N 53.2116 1.57565 -0.0334293 0
M  V30 540 C 54.4396 1.9628 0.654347 0
M  V30 541 C 54.8546 0.910138 1.65414 0
M  V30 542 O 54.2116 -0.107595 1.82183 0
M  V30 543 C 54.2626 3.35067 1.35693 0
M  V30 544 O 53.9836 4.36296 0.397191 0
M  V30 545 C 55.4846 3.88439 2.13613 0
M  V30 546 H 52.7046 0.646369 0.180132 0
M  V30 547 H 55.2486 2.04282 -0.0944721 0
M  V30 548 H 53.4036 3.2827 2.05712 0
M  V30 549 H 53.8176 5.1678 0.896597 0
M  V30 550 H 55.2916 4.8788 2.58219 0
M  V30 551 H 55.7686 3.22914 2.97696 0
M  V30 552 H 56.3746 3.98516 1.48543 0
M  V30 553 N 54.6897 -0.239769 1.55765 0
M  V30 554 C 55.6377 -1.31668 1.91745 0
M  V30 555 C 56.6317 -1.49462 0.797338 0
M  V30 556 O 57.8377 -1.50852 0.982021 0
M  V30 557 H 54.2127 -0.441048 0.609082 0
M  V30 558 H 56.1837 -0.985923 2.81642 0
M  V30 559 C 54.9327 -2.66368 2.2348 0
M  V30 560 H 54.2557 -2.53478 3.09175 0
M  V30 561 H 55.6957 -3.40578 2.52553 0
M  V30 562 C 54.1547 -3.20002 1.05359 0
M  V30 563 O 54.6847 -4.00538 0.305261 0
M  V30 564 N 52.8907 -2.78126 0.842292 0
M  V30 565 H 52.4377 -2.12742 1.45253 0
M  V30 566 H 52.3957 -3.14354 0.053652 0
M  V30 567 N 56.1678 -1.49265 -0.50573 0
M  V30 568 C 57.4138 -1.58748 -1.26202 0
M  V30 569 C 57.7468 -0.271227 -1.92297 0
M  V30 570 O 57.0218 0.724831 -1.80489 0
M  V30 571 C 57.3048 -2.74332 -2.33268 0
M  V30 572 C 57.1578 -4.15737 -1.71705 0
M  V30 573 C 58.4768 -2.85576 -3.34865 0
M  V30 574 H 55.5958 -0.577826 -0.457478 0
M  V30 575 H 58.2378 -1.81532 -0.560897 0
M  V30 576 H 56.3878 -2.55036 -2.93068 0
M  V30 577 H 58.0598 -4.46537 -1.15769 0
M  V30 578 H 56.3028 -4.21605 -1.02135 0
M  V30 579 H 56.9738 -4.92477 -2.49341 0
M  V30 580 H 59.4498 -3.03127 -2.8505 0
M  V30 581 H 58.3258 -3.68135 -4.07146 0
M  V30 582 H 58.5868 -1.94732 -3.96903 0
M  V30 583 N 57.6459 0.756429 -1.3826 0
M  V30 584 C 59.0569 1.33359 -1.30661 0
M  V30 585 C 59.4079 1.96161 0.0388875 0
M  V30 586 O 58.5329 1.94874 0.940918 0
M  V30 587 C 59.1279 2.42477 -2.36622 0
M  V30 588 C 57.6869 2.95922 -2.3261 0
M  V30 589 C 56.8339 1.69275 -2.19639 0
M  V30 590 H 59.7849 0.55552 -1.4866 0
M  V30 591 H 59.8059 3.22345 -2.02174 0
M  V30 592 H 59.3179 1.96739 -3.34538 0
M  V30 593 H 57.4189 3.45996 -1.38267 0
M  V30 594 H 57.5319 3.50494 -3.26636 0
M  V30 595 H 55.8959 1.92793 -1.66442 0
M  V30 596 H 56.6789 1.25619 -3.19491 0
M  V30 597 N 59.124 1.23083 0.984299 0
M  V30 598 C 60.401 0.9689 1.69917 0
M  V30 599 C 60.781 -0.513604 2.04757 0
M  V30 600 O 60.129 -1.48383 1.73767 0
M  V30 601 C 60.339 1.87518 2.94343 0
M  V30 602 C 61.687 2.13636 3.6694 0
M  V30 603 O 62.711 1.85036 3.04368 0
M  V30 604 O 61.57 2.62119 4.79537 0
M  V30 605 H 58.664 0.365095 0.742048 0
M  V30 606 H 61.21 1.34107 1.03987 0
M  V30 607 H 59.982 2.87756 2.65164 0
M  V30 608 H 59.605 1.50514 3.6801 0
M  V30 609 N 60.6021 -1.18246 1.0419 0
M  V30 610 C 61.8501 -1.87886 0.744543 0
M  V30 611 C 62.1711 -1.8082 -0.730006 0
M  V30 612 O 61.4411 -1.22736 -1.52685 0
M  V30 613 H 60.0211 -0.695556 0.272417 0
M  V30 614 H 62.6831 -1.43494 1.31892 0
M  V30 615 H 61.7791 -2.9389 1.05049 0
M  V30 616 N 62.0802 -0.821533 -1.34494 0
M  V30 617 C 63.0132 -0.187704 -2.27427 0
M  V30 618 C 63.9912 0.65507 -1.48821 0
M  V30 619 O 65.1752 0.619111 -1.78043 0
M  V30 620 C 62.3022 0.737996 -3.30562 0
M  V30 621 C 61.3482 -0.0270713 -4.26491 0
M  V30 622 S 62.1812 -1.37329 -5.17592 0
M  V30 623 C 63.3372 -0.452427 -6.24263 0
M  V30 624 H 63.5702 -0.975598 -2.80837 0
M  V30 625 H 61.1032 -0.61736 -1.4152 0
M  V30 626 H 63.0612 1.26654 -3.90473 0
M  V30 627 H 61.7222 1.4994 -2.76001 0
M  V30 628 H 60.9152 0.6766 -4.99438 0
M  V30 629 H 60.5172 -0.48612 -3.70827 0
M  V30 630 H 62.8092 0.356557 -6.76561 0
M  V30 631 H 63.7522 -1.15153 -6.98674 0
M  V30 632 H 64.1602 -0.0414755 -5.64485 0
M  V30 633 N 63.5583 1.46682 -0.576371 0
M  V30 634 C 64.4683 2.34032 0.163141 0
M  V30 635 C 65.4843 1.49367 0.892501 0
M  V30 636 O 66.6603 1.82252 0.857106 0
M  V30 637 C 63.7253 3.26435 1.16795 0
M  V30 638 C 62.7863 4.26998 0.443944 0
M  V30 639 C 62.0193 5.14986 1.40088 0
M  V30 640 O 62.2423 5.05785 2.637 0
M  V30 641 O 61.1763 5.94906 0.914917 0
M  V30 642 H 65.0023 2.98607 -0.55388 0
M  V30 643 H 62.5873 1.45554 -0.336821 0
M  V30 644 H 64.4693 3.83459 1.74748 0
M  V30 645 H 63.1443 2.64465 1.86655 0
M  V30 646 H 62.0513 3.7368 -0.177271 0
M  V30 647 H 63.3843 4.91736 -0.213566 0
M  V30 648 N 65.0364 0.313813 1.54444 0
M  V30 649 C 66.2854 -0.292519 1.99568 0
M  V30 650 C 66.5984 -1.54011 1.20582 0
M  V30 651 O 67.8044 -2.22183 1.56035 0
M  V30 652 C 66.2604 -0.571752 3.55329 0
M  V30 653 C 65.8684 0.658229 4.43138 0
M  V30 654 C 67.6124 -1.13857 4.08946 0
M  V30 655 C 65.5194 0.351439 5.90355 0
M  V30 656 H 64.4494 -0.113079 0.745472 0
M  V30 657 H 67.1004 0.424518 1.78522 0
M  V30 658 H 65.4824 -1.34872 3.72325 0
M  V30 659 H 66.6564 1.43403 4.37918 0
M  V30 660 H 64.9714 1.14458 4.0036 0
M  V30 661 H 67.5684 -1.38257 5.16516 0
M  V30 662 H 67.9114 -2.08489 3.6033 0
M  V30 663 H 68.4444 -0.423015 3.95544 0
M  V30 664 H 65.1834 1.26667 6.43145 0
M  V30 665 H 64.7034 -0.386842 5.98551 0
M  V30 666 H 66.3824 -0.0423134 6.46986 0
M  V30 667 N 66.5145 -1.57545 0.0417849 0
M  V30 668 C 67.4775 -2.09885 -0.92093 0
M  V30 669 C 68.4775 -1.01648 -1.24596 0
M  V30 670 O 69.6675 -1.27759 -1.1842 0
M  V30 671 C 66.7995 -2.57527 -2.23367 0
M  V30 672 H 67.9925 -2.96236 -0.467382 0
M  V30 673 H 65.5455 -1.5493 -0.206467 0
M  V30 674 H 66.2805 -1.74542 -2.73323 0
M  V30 675 H 66.0655 -3.36613 -2.01083 0
M  V30 676 H 67.5555 -2.98201 -2.92346 0
M  V30 677 N 67.9926 0.231505 -1.5589 0
M  V30 678 C 69.2416 0.955346 -1.7764 0
M  V30 679 C 69.5546 1.85893 -0.608546 0
M  V30 680 O 70.7606 2.62067 -0.70943 0
M  V30 681 C 69.2166 1.74886 -3.14552 0
M  V30 682 C 68.8246 0.891915 -4.39032 0
M  V30 683 C 70.5686 2.46452 -3.45633 0
M  V30 684 C 68.4756 1.68221 -5.66971 0
M  V30 685 H 67.4056 0.360446 -0.662265 0
M  V30 686 H 70.0566 0.209516 -1.823 0
M  V30 687 H 68.4386 2.53723 -3.04041 0
M  V30 688 H 69.6126 0.144793 -4.60572 0
M  V30 689 H 67.9276 0.288863 -4.15397 0
M  V30 690 H 70.5246 3.06061 -4.38441 0
M  V30 691 H 70.8676 3.18841 -2.67668 0
M  V30 692 H 71.4006 1.74613 -3.57428 0
M  V30 693 H 68.1396 1.00178 -6.478 0
M  V30 694 H 67.6596 2.4042 -5.49507 0
M  V30 695 H 69.3386 2.24544 -6.06786 0
M  V30 696 N 69.4707 1.49531 0.497807 0
M  V30 697 C 70.7177 1.59179 1.25173 0
M  V30 698 C 71.0457 0.279932 1.92475 0
M  V30 699 O 70.3007 -0.732383 1.81479 0
M  V30 700 C 70.5997 2.70252 2.33878 0
M  V30 701 C 70.2657 4.11644 1.84012 0
M  V30 702 C 68.9277 4.50121 1.70132 0
M  V30 703 C 71.2797 5.00121 1.46725 0
M  V30 704 C 68.6077 5.74845 1.17348 0
M  V30 705 C 70.9597 6.25366 0.95392 0
M  V30 706 C 69.6237 6.6267 0.801538 0
M  V30 707 H 68.8937 0.582478 0.45804 0
M  V30 708 H 71.5407 1.83373 0.551948 0
M  V30 709 H 69.8457 2.40041 3.09657 0
M  V30 710 H 71.5427 2.74925 2.9192 0
M  V30 711 H 68.1327 3.81274 1.95775 0
M  V30 712 H 72.3167 4.71048 1.56294 0
M  V30 713 H 67.5727 6.02444 1.04264 0
M  V30 714 H 71.7467 6.93301 0.656225 0
M  V30 715 H 69.3737 7.59197 0.390351 0
M  V30 716 N 70.9488 -0.749086 1.3866 0
M  V30 717 C 71.9118 -1.84457 1.36045 0
M  V30 718 C 72.9118 -1.58682 0.260122 0
M  V30 719 O 74.1018 -1.66343 0.517261 0
M  V30 720 C 71.2338 -3.22008 1.11911 0
M  V30 721 H 72.4268 -1.88182 2.33512 0
M  V30 722 H 69.9798 -0.951266 1.24019 0
M  V30 723 H 70.7148 -3.2395 0.150686 0
M  V30 724 H 70.4998 -3.42111 1.91579 0
M  V30 725 H 71.9898 -4.0208 1.12788 0
M  V30 726 N 72.4269 -1.23603 -0.977757 0
M  V30 727 C 73.3599 -0.962772 -2.06896 0
M  V30 728 C 74.3379 0.0998743 -1.62293 0
M  V30 729 O 75.5219 -0.0349421 -1.88468 0
M  V30 730 C 72.6489 -0.45095 -3.35685 0
M  V30 731 C 71.6949 -1.50061 -3.99229 0
M  V30 732 S 72.5279 -3.07884 -4.38142 0
M  V30 733 C 73.6839 -2.58378 -5.7008 0
M  V30 734 H 73.9169 -1.88677 -2.29757 0
M  V30 735 H 71.4499 -1.06876 -1.11431 0
M  V30 736 H 73.4079 -0.162261 -4.10179 0
M  V30 737 H 72.0689 0.452179 -3.10828 0
M  V30 738 H 71.2619 -1.09269 -4.92013 0
M  V30 739 H 70.8639 -1.73878 -3.31123 0
M  V30 740 H 73.1559 -2.00563 -6.47133 0
M  V30 741 H 74.0989 -3.49711 -6.15717 0
M  V30 742 H 74.5069 -1.99143 -5.28207 0
M  V30 743 N 73.905 1.17692 -1.04816 0
M  V30 744 C 75.153 1.87488 -0.754497 0
M  V30 745 C 75.474 1.81205 0.720407 0
M  V30 746 O 74.744 1.23544 1.52032 0
M  V30 747 H 73.324 0.694101 -0.276102 0
M  V30 748 H 75.986 1.42793 -1.32651 0
M  V30 749 H 75.082 2.93328 -1.06606 0
M  V30 750 N 75.3831 0.828654 1.34056 0
M  V30 751 C 76.6231 0.425394 1.99924 0
M  V30 752 C 76.9871 -0.994294 1.64249 0
M  V30 753 O 78.1881 -1.50074 2.23005 0
M  V30 754 C 76.4591 0.628071 3.51838 0
M  V30 755 S 78.0181 0.318511 4.37642 0
M  V30 756 H 74.8361 0.160465 0.692656 0
M  V30 757 H 77.4381 1.07572 1.63244 0
M  V30 758 H 76.1421 1.66089 3.7529 0
M  V30 759 H 75.6731 -0.0367799 3.93383 0
M  V30 760 H 77.6881 -0.865632 4.88591 0
M  V30 761 N 76.8612 -1.46375 0.584142 0
M  V30 762 C 78.1082 -2.02378 0.0702675 0
M  V30 763 C 78.4362 -1.45545 -1.29023 0
M  V30 764 O 77.6912 -0.610967 -1.85918 0
M  V30 765 C 77.9902 -3.57373 -0.0439342 0
M  V30 766 C 77.6562 -4.33252 1.24915 0
M  V30 767 C 76.3182 -4.53701 1.60341 0
M  V30 768 C 78.6702 -4.7681 2.1048 0
M  V30 769 C 75.9982 -5.1496 2.81128 0
M  V30 770 C 78.3502 -5.39404 3.30494 0
M  V30 771 C 77.0142 -5.5808 3.66201 0
M  V30 772 H 76.2842 -0.740554 0.0257127 0
M  V30 773 H 78.9312 -1.75727 0.761065 0
M  V30 774 H 77.2362 -3.83169 -0.817869 0
M  V30 775 H 78.9332 -3.98384 -0.457318 0
M  V30 776 H 75.5232 -4.17633 0.963364 0
M  V30 777 H 79.7072 -4.60766 1.84414 0
M  V30 778 H 74.9632 -5.27611 3.08928 0
M  V30 779 H 79.1372 -5.72114 3.97063 0
M  V30 780 H 76.7642 -6.05318 4.59885 0
M  V30 781 N 78.3393 -0.321999 -1.54275 0
M  V30 782 C 79.5853 0.274234 -2.01543 0
M  V30 783 C 79.9403 1.499 -1.20614 0
M  V30 784 O 79.2333 1.89546 -0.279804 0
M  V30 785 C 79.4273 0.661769 -3.5122 0
M  V30 786 C 79.2563 -0.523892 -4.46638 0
M  V30 787 C 78.0263 -1.02251 -4.94846 0
M  V30 788 C 80.2243 -1.37558 -4.95563 0
M  V30 789 N 78.2063 -2.17274 -5.74165 0
M  V30 790 C 79.5773 -2.37301 -5.7279 0
M  V30 791 C 81.6323 -1.40353 -4.77709 0
M  V30 792 C 80.3353 -3.3964 -6.34064 0
M  V30 793 C 82.3613 -2.41562 -5.39817 0
M  V30 794 C 81.7233 -3.40031 -6.16894 0
M  V30 795 H 77.8223 0.0642367 -0.779357 0
M  V30 796 H 80.4063 -0.456683 -1.89268 0
M  V30 797 H 78.5773 1.36182 -3.63743 0
M  V30 798 H 80.3093 1.23934 -3.85256 0
M  V30 799 H 77.0643 -0.594046 -4.6986 0
M  V30 800 H 77.4883 -2.75289 -6.18502 0
M  V30 801 H 82.1303 -0.655907 -4.17681 0
M  V30 802 H 79.8483 -4.15309 -6.93213 0
M  V30 803 H 83.4343 -2.44524 -5.2792 0
M  V30 804 H 82.3143 -4.17063 -6.64099 0
M  V30 805 N 79.8174 1.5752 -0.0501392 0
M  V30 806 C 81.0654 1.9227 0.622642 0
M  V30 807 C 81.3864 0.929083 1.71444 0
M  V30 808 O 80.6564 -0.0262186 1.95882 0
M  V30 809 H 79.2364 0.709739 0.232981 0
M  V30 810 H 81.8984 1.94628 -0.102898 0
M  V30 811 H 80.9944 2.93479 1.06191 0
M  V30 812 N 81.2955 -0.223234 1.56011 0
M  V30 813 C 82.5415 -0.949279 1.79211 0
M  V30 814 C 82.8745 -1.84054 0.619494 0
M  V30 815 O 82.1495 -1.90726 -0.381317 0
M  V30 816 C 82.4325 -1.78965 3.12479 0
M  V30 817 C 82.2855 -0.924997 4.40186 0
M  V30 818 C 83.6045 -2.76774 3.42175 0
M  V30 819 H 80.7235 -0.343676 0.651963 0
M  V30 820 H 83.3655 -0.218253 1.88742 0
M  V30 821 H 81.5155 -2.41291 3.04485 0
M  V30 822 H 83.1875 -0.318615 4.60198 0
M  V30 823 H 81.4305 -0.230344 4.33188 0
M  V30 824 H 82.1015 -1.54735 5.29869 0
M  V30 825 H 84.5775 -2.24584 3.50287 0
M  V30 826 H 83.4535 -3.32678 4.36597 0
M  V30 827 H 83.7145 -3.54429 2.64258 0
M  V30 828 N 82.7736 -1.49793 -0.48987 0
M  V30 829 C 83.6836 -1.70036 -1.61632 0
M  V30 830 C 84.6996 -0.583102 -1.63939 0
M  V30 831 O 85.8756 -0.859169 -1.82154 0
M  V30 832 C 82.9406 -1.77277 -2.97949 0
M  V30 833 C 82.0016 -3.00918 -3.06181 0
M  V30 834 C 81.2346 -3.07804 -4.35996 0
M  V30 835 O 81.4576 -2.21982 -5.25433 0
M  V30 836 O 80.3916 -4.00369 -4.49431 0
M  V30 837 H 84.2176 -2.65486 -1.47482 0
M  V30 838 H 81.8026 -1.33666 -0.667362 0
M  V30 839 H 83.6846 -1.84329 -3.78947 0
M  V30 840 H 82.3596 -0.850076 -3.12339 0
M  V30 841 H 81.2666 -2.99377 -2.2433 0
M  V30 842 H 82.5996 -3.92704 -2.96723 0
M  V30 843 N 84.2517 0.741722 -1.39055 0
M  V30 844 C 85.6677 1.04638 -1.20512 0
M  V30 845 C 85.8677 2.01405 -0.0620218 0
M  V30 846 O 84.9237 2.45547 0.588457 0
M  V30 847 C 86.2367 1.6151 -2.53643 0
M  V30 848 C 87.7847 1.73623 -2.6043 0
M  V30 849 C 88.2597 2.33906 -3.93767 0
M  V30 850 N 89.7507 2.41323 -3.9537 0
M  V30 851 C 90.4857 2.88888 -4.95309 0
M  V30 852 N 89.9817 3.36401 -6.05645 0
M  V30 853 N 91.7747 2.88037 -4.82692 0
M  V30 854 H 83.9257 0.0998155 -2.12165 0
M  V30 855 H 86.1887 0.106907 -0.941953 0
M  V30 856 H 85.8947 0.978739 -3.37807 0
M  V30 857 H 85.7687 2.60411 -2.72885 0
M  V30 858 H 88.1557 2.36384 -1.76655 0
M  V30 859 H 88.2367 0.733945 -2.45045 0
M  V30 860 H 87.8807 1.71776 -4.7797 0
M  V30 861 H 87.8107 3.34799 -4.06469 0
M  V30 862 H 90.3017 2.07734 -3.15682 0
M  V30 863 H 90.6147 3.71186 -6.77821 0
M  V30 864 H 88.9597 3.34427 -6.09248 0
M  V30 865 H 92.1507 2.50237 -3.95599 0
M  V30 866 H 92.3237 3.24792 -5.60726 0
M  V30 867 N 85.7298 1.2412 0.971189 0
M  V30 868 C 86.6598 1.05508 2.08304 0
M  V30 869 C 87.6408 -0.0308864 1.70072 0
M  V30 870 O 88.8258 0.135521 1.93727 0
M  V30 871 C 85.9558 0.655365 3.4106 0
M  V30 872 C 84.9098 1.68971 3.93234 0
M  V30 873 C 84.2358 1.14516 5.22293 0
M  V30 874 C 85.5358 3.08487 4.21465 0
M  V30 875 H 87.2298 1.98507 2.24132 0
M  V30 876 H 84.7758 0.955821 1.07704 0
M  V30 877 H 86.7288 0.51217 4.18276 0
M  V30 878 H 85.4528 -0.31032 3.25122 0
M  V30 879 H 84.1118 1.82106 3.18171 0
M  V30 880 H 83.7598 0.170189 5.02712 0
M  V30 881 H 83.4598 1.83635 5.58168 0
M  V30 882 H 84.9838 1.01401 6.02121 0
M  V30 883 H 86.3978 2.98601 4.89398 0
M  V30 884 H 84.7948 3.74926 4.68562 0
M  V30 885 H 85.8648 3.56787 3.28376 0
M  V30 886 N 87.2079 -1.17134 1.05439 0
M  V30 887 C 88.4549 -1.87456 0.765942 0
M  V30 888 C 88.7829 -1.81189 -0.707153 0
M  V30 889 O 88.0379 -1.21633 -1.5331 0
M  V30 890 C 88.3369 -3.36833 1.19491 0
M  V30 891 C 88.0029 -3.63301 2.67063 0
M  V30 892 C 86.6649 -3.70234 3.07376 0
M  V30 893 C 89.0169 -3.74575 3.62413 0
M  V30 894 C 86.3449 -3.85933 4.41896 0
M  V30 895 C 88.6969 -3.91793 4.9667 0
M  V30 896 C 87.3609 -3.96966 5.36633 0
M  V30 897 H 86.6309 -0.685948 0.280278 0
M  V30 898 H 89.2779 -1.38556 1.32192 0
M  V30 899 H 87.5829 -3.87807 0.557969 0
M  V30 900 H 89.2799 -3.89611 0.948893 0
M  V30 901 H 85.8699 -3.58532 2.34846 0
M  V30 902 H 90.0539 -3.68537 3.32406 0
M  V30 903 H 85.3099 -3.88187 4.72357 0
M  V30 904 H 89.4839 -3.99458 5.70444 0
M  V30 905 H 87.1109 -4.08883 6.40874 0
M  V30 906 N 88.686 -0.835752 -1.33615 0
M  V30 907 C 89.932 -0.439817 -1.98588 0
M  V30 908 C 90.287 0.989274 -1.65019 0
M  V30 909 O 89.58 1.68168 -0.918159 0
M  V30 910 C 89.774 -0.593925 -3.52431 0
M  V30 911 C 89.603 -2.03644 -4.00948 0
M  V30 912 C 88.373 -2.67103 -4.28934 0
M  V30 913 C 90.571 -3.00479 -4.17393 0
M  V30 914 N 88.553 -4.02462 -4.6357 0
M  V30 915 C 89.924 -4.20777 -4.55353 0
M  V30 916 C 91.979 -2.96926 -3.99674 0
M  V30 917 C 90.682 -5.37994 -4.77447 0
M  V30 918 C 92.708 -4.1337 -4.22941 0
M  V30 919 C 92.07 -5.32422 -4.61201 0
M  V30 920 H 88.169 -0.209303 -0.75347 0
M  V30 921 H 90.753 -1.08316 -1.61789 0
M  V30 922 H 88.924 0.019599 -3.88395 0
M  V30 923 H 90.656 -0.169738 -4.04344 0
M  V30 924 H 87.411 -2.18259 -4.20309 0
M  V30 925 H 87.835 -4.72232 -4.85104 0
M  V30 926 H 92.477 -2.06015 -3.69212 0
M  V30 927 H 90.195 -6.29451 -5.06771 0
M  V30 928 H 93.781 -4.12034 -4.10754 0
M  V30 929 H 92.661 -6.21027 -4.78848 0
M  V30 930 N 90.1641 1.46063 -0.591896 0
M  V30 931 C 91.0961 2.28539 0.174001 0
M  V30 932 C 92.1091 1.39047 0.846753 0
M  V30 933 O 93.2981 1.63564 0.714774 0
M  V30 934 C 90.3981 3.14347 1.26645 0
M  V30 935 C 89.5711 4.32021 0.683856 0
M  V30 936 C 88.6301 4.99157 1.66518 0
M  V30 937 O 87.6561 5.56458 1.19763 0
M  V30 938 N 88.8581 4.97005 2.99943 0
M  V30 939 H 91.6231 2.94911 -0.533633 0
M  V30 940 H 89.1841 1.56077 -0.430294 0
M  V30 941 H 91.1761 3.56125 1.92242 0
M  V30 942 H 89.7461 2.49988 1.87682 0
M  V30 943 H 88.9661 3.93915 -0.1498 0
M  V30 944 H 90.2541 5.08059 0.274567 0
M  V30 945 H 89.6521 4.51714 3.40545 0
M  V30 946 H 88.2091 5.42696 3.61004 0
M  V30 947 N 91.6422 0.330177 1.54103 0
M  V30 948 C 92.5722 -0.525353 2.27513 0
M  V30 949 C 93.5532 -1.11383 1.2856 0
M  V30 950 O 94.7382 -1.13773 1.57383 0
M  V30 951 C 91.8682 -1.6831 3.03791 0
M  V30 952 C 90.8222 -1.2236 4.10137 0
M  V30 953 C 90.1482 -2.46882 4.74293 0
M  V30 954 C 91.4482 -0.333697 5.21233 0
M  V30 955 H 93.1422 0.087013 2.99274 0
M  V30 956 H 90.6882 0.0432893 1.43935 0
M  V30 957 H 92.6412 -2.28795 3.5388 0
M  V30 958 H 91.3652 -2.32216 2.29659 0
M  V30 959 H 90.0242 -0.64165 3.60941 0
M  V30 960 H 89.6722 -3.09165 3.96769 0
M  V30 961 H 89.3722 -2.16825 5.46133 0
M  V30 962 H 90.8962 -3.08117 5.27159 0
M  V30 963 H 92.3102 -0.845013 5.67038 0
M  V30 964 H 90.7072 -0.125612 5.99969 0
M  V30 965 H 91.7772 0.633724 4.80741 0
M  V30 966 N 93.1203 -1.57491 0.0584922 0
M  V30 967 C 94.5313 -1.80526 -0.476138 0
M  V30 968 C 94.8823 -0.971334 -1.70469 0
M  V30 969 O 94.0073 -0.190012 -2.15564 0
M  V30 970 C 94.6023 -3.27424 -0.870587 0
M  V30 971 C 93.1613 -3.51351 -1.35015 0
M  V30 972 C 92.3083 -2.75343 -0.32887 0
M  V30 973 H 95.2593 -1.56133 0.284312 0
M  V30 974 H 95.2803 -3.38745 -1.73299 0
M  V30 975 H 94.7923 -3.88093 0.0237627 0
M  V30 976 H 92.8933 -2.95971 -2.26345 0
M  V30 977 H 93.0063 -4.60059 -1.33726 0
M  V30 978 H 91.3703 -2.417 -0.803321 0
M  V30 979 H 92.1533 -3.38743 0.557521 0
M  V30 980 N 94.5984 0.214957 -1.56127 0
M  V30 981 C 95.8464 0.936518 -1.79091 0
M  V30 982 C 96.1674 1.84606 -0.628148 0
M  V30 983 O 95.4374 1.92664 0.35462 0
M  V30 984 H 94.0174 0.3488 -0.660566 0
M  V30 985 H 96.6794 0.22523 -1.93594 0
M  V30 986 H 95.7754 1.53943 -2.71492 0
M  V30 987 N 96.0765 1.50051 0.48192 0
M  V30 988 C 97.3225 1.60736 1.2366 0
M  V30 989 C 97.6555 0.301786 1.91841 0
M  V30 990 O 96.9305 -0.696025 1.8162 0
M  V30 991 C 97.2135 2.78009 2.28874 0
M  V30 992 C 97.0665 4.18416 1.65069 0
M  V30 993 C 98.3855 2.90867 3.30279 0
M  V30 994 H 95.5045 0.585031 0.448228 0
M  V30 995 H 98.1465 1.82402 0.531946 0
M  V30 996 H 96.2965 2.59667 2.88973 0
M  V30 997 H 97.9685 4.48322 1.0865 0
M  V30 998 H 96.2115 4.23177 0.954148 0
M  V30 999 H 96.8825 4.96381 2.41474 0
M  V30 1000 H 99.3585 3.07623 2.80191 0
M  V30 1001 H 98.2345 3.74566 4.01238 0
M  V30 1002 H 98.4955 2.01021 3.93755 0
M  V30 1003 N 97.5546 -0.734337 1.39446 0
M  V30 1004 C 98.7846 -1.52137 1.39778 0
M  V30 1005 C 99.1926 -1.89198 -0.00929312 0
M  V30 1006 O 98.5356 -1.54666 -0.991168 0
M  V30 1007 C 98.5976 -2.83762 2.20724 0
M  V30 1008 C 98.2616 -2.69131 3.69347 0
M  V30 1009 C 99.2586 -2.37635 4.62413 0
M  V30 1010 C 96.9436 -2.85982 4.1294 0
M  V30 1011 C 98.9376 -2.23172 5.97054 0
M  V30 1012 C 96.6246 -2.71137 5.47657 0
M  V30 1013 C 97.6226 -2.39777 6.39528 0
M  V30 1014 O 97.3106 -2.25026 7.71763 0
M  V30 1015 H 97.0426 -0.476717 0.479288 0
M  V30 1016 H 99.5966 -0.915012 1.83893 0
M  V30 1017 H 97.8266 -3.4666 1.71359 0
M  V30 1018 H 99.5156 -3.45383 2.13226 0
M  V30 1019 H 100.282 -2.24267 4.30034 0
M  V30 1020 H 96.1606 -3.09383 3.41765 0
M  V30 1021 H 99.7046 -1.98617 6.68728 0
M  V30 1022 H 95.6016 -2.84083 5.79626 0
M  V30 1023 H 96.3696 -2.40091 7.82495 0
M  V30 1024 N 99.0327 -1.24633 -0.964593 0
M  V30 1025 C 100.258 -1.11596 -1.74818 0
M  V30 1026 C 100.683 0.32723 -1.85232 0
M  V30 1027 O 100.041 1.23695 -1.32549 0
M  V30 1028 C 100.089 -1.76397 -3.1451 0
M  V30 1029 O 99.1927 -1.03685 -3.99153 0
M  V30 1030 H 98.5337 -0.390196 -0.537255 0
M  V30 1031 H 101.064 -1.65002 -1.20977 0
M  V30 1032 H 101.074 -1.8228 -3.65018 0
M  V30 1033 H 99.7487 -2.81401 -3.06246 0
M  V30 1034 H 98.3257 -1.05611 -3.57632 0
M  V30 1035 N 100.511 1.16574 -1.06058 0
M  V30 1036 C 101.739 1.90952 -0.796552 0
M  V30 1037 C 102.154 1.77302 0.648808 0
M  V30 1038 O 101.511 1.11605 1.44397 0
M  V30 1039 C 101.562 3.41736 -1.17894 0
M  V30 1040 O 101.283 3.54975 -2.56758 0
M  V30 1041 C 102.784 4.33169 -0.942308 0
M  V30 1042 H 100.004 0.605594 -0.288959 0
M  V30 1043 H 102.548 1.47777 -1.41358 0
M  V30 1044 H 100.703 3.82623 -0.606491 0
M  V30 1045 H 101.117 4.4846 -2.72 0
M  V30 1046 H 102.591 5.37439 -1.25952 0
M  V30 1047 H 103.068 4.3903 0.122078 0
M  V30 1048 H 103.674 3.98007 -1.49902 0
M  V30 1049 N 101.989 0.842826 1.3317 0
M  V30 1050 C 102.952 0.284065 2.27433 0
M  V30 1051 C 103.952 -0.54948 1.5112 0
M  V30 1052 O 105.142 -0.362699 1.70382 0
M  V30 1053 C 102.274 -0.599384 3.35589 0
M  V30 1054 H 103.467 1.11589 2.78366 0
M  V30 1055 H 101.02 0.616221 1.4364 0
M  V30 1056 H 101.755 -1.45349 2.89904 0
M  V30 1057 H 101.54 -0.00291266 3.921 0
M  V30 1058 H 103.03 -0.983488 4.05854 0
M  V30 1059 N 103.467 -1.45747 0.599634 0
M  V30 1060 C 104.43 -2.28917 -0.113835 0
M  V30 1061 C 105.43 -1.3933 -0.802729 0
M  V30 1062 O 106.62 -1.61534 -0.652103 0
M  V30 1063 C 103.752 -3.20152 -1.17114 0
M  V30 1064 H 104.945 -2.93478 0.617289 0
M  V30 1065 H 102.498 -1.52137 0.358327 0
M  V30 1066 H 103.233 -2.60374 -1.93329 0
M  V30 1067 H 103.018 -3.86133 -0.681468 0
M  V30 1068 H 104.508 -3.82708 -1.67105 0
M  V30 1069 N 104.945 -0.338344 -1.53925 0
M  V30 1070 C 106.193 0.259245 -2.0043 0
M  V30 1071 C 106.514 1.51484 -1.22791 0
M  V30 1072 O 105.784 1.93037 -0.33368 0
M  V30 1073 H 104.364 0.0987845 -0.740439 0
M  V30 1074 H 107.026 -0.458302 -1.89435 0
M  V30 1075 H 106.122 0.505334 -3.07982 0
M  V30 1076 N 106.423 1.57458 -0.0668435 0
M  V30 1077 C 107.653 1.97337 0.611677 0
M  V30 1078 C 108.061 0.943744 1.63982 0
M  V30 1079 O 107.404 -0.0785584 1.83532 0
M  V30 1080 C 107.466 3.33511 1.34205 0
M  V30 1081 C 107.13 4.54598 0.467941 0
M  V30 1082 C 108.127 5.19186 -0.272439 0
M  V30 1083 C 105.812 5.0075 0.39427 0
M  V30 1084 C 107.806 6.28274 -1.07476 0
M  V30 1085 C 105.493 6.09711 -0.411729 0
M  V30 1086 C 106.491 6.73335 -1.14492 0
M  V30 1087 O 106.179 7.80199 -1.93763 0
M  V30 1088 H 105.911 0.654042 0.170893 0
M  V30 1089 H 108.465 2.04961 -0.134289 0
M  V30 1090 H 106.695 3.22487 2.13398 0
M  V30 1091 H 108.384 3.58029 1.91233 0
M  V30 1092 H 109.15 4.84477 -0.225086 0
M  V30 1093 H 105.029 4.51009 0.954569 0
M  V30 1094 H 108.573 6.77866 -1.64755 0
M  V30 1095 H 104.47 6.43854 -0.460664 0
M  V30 1096 H 105.238 7.97053 -1.86142 0
M  V30 1097 N 107.901 -0.206675 1.56239 0
M  V30 1098 C 109.129 -0.945345 1.8404 0
M  V30 1099 C 109.544 -1.77336 0.647885 0
M  V30 1100 O 108.901 -1.78425 -0.383511 0
M  V30 1101 C 108.952 -1.8509 3.10522 0
M  V30 1102 O 108.673 -1.05634 4.25174 0
M  V30 1103 C 110.174 -2.70222 3.51418 0
M  V30 1104 H 107.394 -0.276372 0.61144 0
M  V30 1105 H 109.938 -0.217417 2.03341 0
M  V30 1106 H 108.093 -2.53259 2.93153 0
M  V30 1107 H 108.507 -1.67238 4.97124 0
M  V30 1108 H 109.981 -3.29438 4.42916 0
M  V30 1109 H 110.458 -3.43358 2.73864 0
M  V30 1110 H 111.064 -2.07443 3.71278 0
M  V30 1111 N 109.379 -1.50304 -0.473955 0
M  V30 1112 C 110.627 -1.60832 -1.22382 0
M  V30 1113 C 110.948 -0.30939 -1.9253 0
M  V30 1114 O 110.218 0.67296 -1.83978 0
M  V30 1115 H 108.798 -0.592652 -0.454723 0
M  V30 1116 H 111.46 -1.87068 -0.546968 0
M  V30 1117 H 110.556 -2.41803 -1.97327 0
M  V30 1118 N 110.857 0.726932 -1.39834 0
M  V30 1119 C 112.105 1.4837 -1.37225 0
M  V30 1120 C 112.426 1.94979 0.0284857 0
M  V30 1121 O 111.696 1.69555 0.981213 0
M  V30 1122 H 110.276 0.55043 -0.505011 0
M  V30 1123 H 112.938 0.862468 -1.74778 0
M  V30 1124 H 112.034 2.36198 -2.04003 0
M  V30 1125 N 112.336 1.25143 0.95797 0
M  V30 1126 C 113.566 1.12261 1.73439 0
M  V30 1127 C 113.974 -0.326715 1.86358 0
M  V30 1128 O 113.317 -1.2367 1.35836 0
M  V30 1129 C 113.379 1.69966 3.16784 0
M  V30 1130 C 113.043 3.18936 3.27305 0
M  V30 1131 C 114.04 4.15968 3.11877 0
M  V30 1132 C 111.725 3.59083 3.51234 0
M  V30 1133 C 113.719 5.51126 3.20217 0
M  V30 1134 C 111.406 4.9438 3.5921 0
M  V30 1135 C 112.404 5.90211 3.43716 0
M  V30 1136 O 112.092 7.23046 3.51368 0
M  V30 1137 H 111.824 0.392476 0.550399 0
M  V30 1138 H 114.378 1.65927 1.21068 0
M  V30 1139 H 112.608 1.10744 3.70503 0
M  V30 1140 H 114.297 1.52232 3.76272 0
M  V30 1141 H 115.063 3.86292 2.93264 0
M  V30 1142 H 110.942 2.84989 3.62356 0
M  V30 1143 H 114.486 6.25905 3.0804 0
M  V30 1144 H 110.383 5.23723 3.77339 0
M  V30 1145 H 111.151 7.31097 3.6802 0
M  V30 1146 N 113.814 -1.1601 1.06675 0
M  V30 1147 C 115.042 -1.90527 0.806667 0
M  V30 1148 C 115.457 -1.77643 -0.639396 0
M  V30 1149 O 114.814 -1.12369 -1.43803 0
M  V30 1150 C 114.865 -3.41106 1.19705 0
M  V30 1151 O 114.586 -3.53608 2.58636 0
M  V30 1152 C 116.087 -4.32663 0.965266 0
M  V30 1153 H 113.307 -0.604053 0.292166 0
M  V30 1154 H 115.851 -1.47026 1.4214 0
M  V30 1155 H 114.006 -3.82296 0.626774 0
M  V30 1156 H 114.42 -4.47011 2.74375 0
M  V30 1157 H 115.894 -5.36763 1.288 0
M  V30 1158 H 116.371 -4.39089 -0.0987936 0
M  V30 1159 H 116.977 -3.97206 1.52011 0
M  V30 1160 N 115.292 -0.849877 -1.32721 0
M  V30 1161 C 116.703 -0.506188 -1.79707 0
M  V30 1162 C 117.054 0.975627 -1.70223 0
M  V30 1163 O 116.179 1.76078 -1.25799 0
M  V30 1164 C 116.774 -0.912044 -3.26293 0
M  V30 1165 C 115.333 -0.620326 -3.71253 0
M  V30 1166 C 114.48 -1.11439 -2.53922 0
M  V30 1167 H 117.431 -1.03754 -1.20087 0
M  V30 1168 H 117.452 -0.226493 -3.79825 0
M  V30 1169 H 116.964 -1.99057 -3.33164 0
M  V30 1170 H 115.065 0.447674 -3.69901 0
M  V30 1171 H 115.178 -1.18327 -4.64258 0
M  V30 1172 H 113.542 -0.534834 -2.49021 0
M  V30 1173 H 114.325 -2.19992 -2.6355 0
M  V30 1174 N 116.77 1.45427 -0.607355 0
M  V30 1175 C 117.718 2.32269 0.12411 0
M  V30 1176 C 118.712 1.45955 0.859854 0
M  V30 1177 O 119.918 1.6244 0.775447 0
M  V30 1178 H 116.293 0.749691 0.0588839 0
M  V30 1179 H 118.264 2.91743 -0.626762 0
M  V30 1180 C 117.013 3.29567 1.1082 0
M  V30 1181 H 116.336 3.95978 0.551492 0
M  V30 1182 H 117.776 3.93061 1.58995 0
M  V30 1183 C 116.235 2.56722 2.18164 0
M  V30 1184 O 116.765 2.34842 3.25902 0
M  V30 1185 N 114.971 2.16861 1.93442 0
M  V30 1186 H 114.518 2.34855 1.05834 0
M  V30 1187 H 114.476 1.68444 2.65469 0
M  V30 1188 N 118.248 0.346503 1.53744 0
M  V30 1189 C 119.659 -0.136779 1.86198 0
M  V30 1190 C 120.01 -1.49749 1.26766 0
M  V30 1191 O 119.135 -2.08417 0.582355 0
M  V30 1192 C 119.73 -0.254966 3.37839 0
M  V30 1193 C 118.289 -0.682482 3.70161 0
M  V30 1194 C 117.436 0.181981 2.76702 0
M  V30 1195 H 120.387 0.565994 1.48264 0
M  V30 1196 H 120.408 -1.08195 3.64793 0
M  V30 1197 H 119.92 0.735526 3.81066 0
M  V30 1198 H 118.021 -1.68189 3.3248 0
M  V30 1199 H 118.134 -0.470326 4.76786 0
M  V30 1200 H 116.498 -0.34615 2.52337 0
M  V30 1201 H 117.281 1.16966 3.2276 0
M  V30 1202 N 119.726 -1.57421 0.075193 0
M  V30 1203 C 120.954 -1.97946 -0.602076 0
M  V30 1204 C 121.369 -0.953674 -1.62943 0
M  V30 1205 O 120.726 0.0592551 -1.82404 0
M  V30 1206 C 120.777 -3.38546 -1.26762 0
M  V30 1207 O 120.498 -4.37195 -0.281376 0
M  V30 1208 C 121.999 -3.93966 -2.03239 0
M  V30 1209 H 119.219 -0.650918 -0.162931 0
M  V30 1210 H 121.763 -2.03959 0.148601 0
M  V30 1211 H 119.918 -3.33609 -1.96936 0
M  V30 1212 H 120.332 -5.18975 -0.759267 0
M  V30 1213 H 121.806 -4.94555 -2.45193 0
M  V30 1214 H 122.283 -3.30693 -2.8903 0
M  V30 1215 H 122.889 -4.02315 -1.37924 0
M  V30 1216 N 121.204 0.198386 -1.56346 0
M  V30 1217 C 122.434 0.934215 -1.84271 0
M  V30 1218 C 122.842 1.77496 -0.655125 0
M  V30 1219 O 122.185 1.7961 0.385488 0
M  V30 1220 C 122.247 1.88278 -3.06254 0
M  V30 1221 C 121.911 1.22431 -4.40295 0
M  V30 1222 C 122.908 0.602839 -5.16393 0
M  V30 1223 C 120.593 1.22915 -4.87029 0
M  V30 1224 C 122.587 -0.0050083 -6.374 0
M  V30 1225 C 120.274 0.617465 -6.07973 0
M  V30 1226 C 121.272 0.00146341 -6.83 0
M  V30 1227 O 120.96 -0.600642 -8.01653 0
M  V30 1228 H 120.692 0.278245 -0.616081 0
M  V30 1229 H 123.246 0.211626 -2.04307 0
M  V30 1230 H 121.476 2.64498 -2.82095 0
M  V30 1231 H 123.165 2.48612 -3.20853 0
M  V30 1232 H 123.931 0.591265 -4.81382 0
M  V30 1233 H 119.81 1.69801 -4.28589 0
M  V30 1234 H 123.354 -0.48643 -6.95902 0
M  V30 1235 H 119.251 0.62653 -6.42452 0
M  V30 1236 H 120.019 -0.497225 -8.16988 0
M  V30 1237 N 122.682 1.50554 0.465978 0
M  V30 1238 C 124.098 1.38093 0.800154 0
M  V30 1239 C 124.298 0.440988 1.96615 0
M  V30 1240 O 123.354 -0.114499 2.5224 0
M  V30 1241 C 124.667 2.79565 1.10742 0
M  V30 1242 C 126.215 2.88516 1.21357 0
M  V30 1243 C 126.69 4.30833 1.55393 0
M  V30 1244 N 128.181 4.33807 1.62375 0
M  V30 1245 C 128.916 5.40927 1.90225 0
M  V30 1246 N 128.412 6.58247 2.16062 0
M  V30 1247 N 130.205 5.28376 1.9177 0
M  V30 1248 H 122.356 2.10237 -0.302366 0
M  V30 1249 H 124.619 0.945203 -0.0727746 0
M  V30 1250 H 124.325 3.50208 0.323661 0
M  V30 1251 H 124.199 3.17125 2.04234 0
M  V30 1252 H 126.586 2.1809 1.98799 0
M  V30 1253 H 126.667 2.54492 0.258321 0
M  V30 1254 H 126.311 5.01799 0.784889 0
M  V30 1255 H 126.241 4.62347 2.52076 0
M  V30 1256 H 128.732 3.49212 1.44427 0
M  V30 1257 H 129.045 7.3569 2.36601 0
M  V30 1258 H 127.39 6.61413 2.13444 0
M  V30 1259 H 130.581 4.35715 1.71085 0
M  V30 1260 H 130.754 6.11944 2.13139 0
M  V30 1261 N 124.16 -0.719506 1.40217 0
M  V30 1262 C 125.07 -1.86378 1.42479 0
M  V30 1263 C 126.086 -1.71073 0.317834 0
M  V30 1264 O 127.262 -1.93406 0.561794 0
M  V30 1265 C 124.327 -3.22136 1.28178 0
M  V30 1266 C 123.388 -3.49723 2.48982 0
M  V30 1267 C 122.621 -4.79004 2.35353 0
M  V30 1268 O 122.844 -5.53821 1.36524 0
M  V30 1269 O 121.778 -5.06839 3.2465 0
M  V30 1270 H 125.604 -1.87425 2.38968 0
M  V30 1271 H 123.189 -0.869405 1.21498 0
M  V30 1272 H 125.071 -4.03234 1.22395 0
M  V30 1273 H 123.746 -3.21825 0.347934 0
M  V30 1274 H 122.653 -2.6865 2.60342 0
M  V30 1275 H 123.986 -3.54828 3.41113 0
M  V30 1276 N 125.638 -1.25649 -0.95132 0
M  V30 1277 C 126.884 -1.10757 -1.69884 0
M  V30 1278 C 127.217 0.350061 -1.91019 0
M  V30 1279 O 126.492 1.25783 -1.48354 0
M  V30 1280 C 126.775 -1.86606 -3.07978 0
M  V30 1281 C 126.628 -3.40217 -2.94232 0
M  V30 1282 C 127.947 -1.65182 -4.07925 0
M  V30 1283 H 125.066 -0.40374 -0.616574 0
M  V30 1284 H 127.708 -1.54521 -1.10558 0
M  V30 1285 H 125.858 -1.49409 -3.58621 0
M  V30 1286 H 127.53 -3.87108 -2.50889 0
M  V30 1287 H 125.773 -3.67759 -2.30078 0
M  V30 1288 H 126.444 -3.88505 -3.92133 0
M  V30 1289 H 128.92 -1.9757 -3.66204 0
M  V30 1290 H 127.796 -2.20683 -5.02583 0
M  V30 1291 H 128.057 -0.593933 -4.38092 0
M  V30 1292 N 127.117 1.15442 -1.07289 0
M  V30 1293 C 128.357 1.8788 -0.805012 0
M  V30 1294 C 128.721 1.80413 0.656907 0
M  V30 1295 O 129.922 2.47874 1.0398 0
M  V30 1296 C 128.193 3.3298 -1.29843 0
M  V30 1297 S 129.752 4.23158 -1.16114 0
M  V30 1298 H 126.57 0.64839 -0.291739 0
M  V30 1299 H 129.172 1.39285 -1.37186 0
M  V30 1300 H 127.876 3.35958 -2.35712 0
M  V30 1301 H 127.407 3.86629 -0.726767 0
M  V30 1302 H 129.422 4.96103 -0.0982778 0
M  V30 1303 N 128.595 0.856903 1.32268 0
M  V30 1304 C 129.82 0.474569 2.01897 0
M  V30 1305 C 130.245 -0.921766 1.63967 0
M  V30 1306 O 129.603 -1.60589 0.84148 0
M  V30 1307 C 129.651 0.623799 3.55164 0
M  V30 1308 O 128.755 -0.342459 4.10976 0
M  V30 1309 H 128.096 0.190422 0.63611 0
M  V30 1310 H 130.626 1.15672 1.68764 0
M  V30 1311 H 130.636 0.512169 4.04773 0
M  V30 1312 H 129.311 1.64202 3.82113 0
M  V30 1313 H 127.888 -0.18688 3.72431 0
M  V30 1314 N 130.073 -1.45103 0.615059 0
M  V30 1315 C 131.321 -2.01784 0.112955 0
M  V30 1316 C 131.642 -1.48504 -1.26378 0
M  V30 1317 O 130.912 -0.682245 -1.83636 0
M  V30 1318 H 129.492 -0.745993 0.0387668 0
M  V30 1319 H 132.154 -1.77808 0.798141 0
M  V30 1320 H 131.25 -3.12025 0.0684069 0
M  V30 1321 N 131.551 -0.354651 -1.53558 0
M  V30 1322 C 132.828 0.294281 -1.93374 0
M  V30 1323 C 133.208 1.67313 -1.28723 0
M  V30 1324 O 132.556 2.24179 -0.442247 0
M  V30 1325 C 132.766 0.355445 -3.47185 0
M  V30 1326 C 134.114 0.601007 -4.20325 0
M  V30 1327 O 135.138 0.437106 -3.53508 0
M  V30 1328 O 133.997 0.919322 -5.38712 0
M  V30 1329 H 131.091 0.174033 -0.808481 0
M  V30 1330 H 133.637 -0.406638 -1.64756 0
M  V30 1331 H 132.409 -0.611729 -3.86489 0
M  V30 1332 H 132.032 1.1027 -3.82003 0
M  V30 1333 N 133.029 1.57378 -0.0835403 0
M  V30 1334 C 134.257 1.98263 0.59157 0
M  V30 1335 C 134.672 0.962302 1.62435 0
M  V30 1336 O 134.029 -0.049581 1.82433 0
M  V30 1337 C 134.08 3.39214 1.24965 0
M  V30 1338 O 133.801 4.37339 0.258186 0
M  V30 1339 C 135.302 3.95038 2.01147 0
M  V30 1340 H 132.522 0.651773 0.159477 0
M  V30 1341 H 135.066 2.03878 -0.159415 0
M  V30 1342 H 133.221 3.34649 1.95164 0
M  V30 1343 H 133.635 5.19371 0.731734 0
M  V30 1344 H 135.109 4.95848 2.42567 0
M  V30 1345 H 135.586 3.32222 2.87272 0
M  V30 1346 H 136.192 4.0304 1.35789 0
M  V30 1347 N 134.507 -0.190092 1.56449 0
M  V30 1348 C 135.755 -0.907908 1.80559 0
M  V30 1349 C 136.076 -1.83583 0.657438 0
M  V30 1350 O 135.346 -1.93203 -0.323924 0
M  V30 1351 H 133.926 -0.338247 0.666032 0
M  V30 1352 H 136.588 -0.194403 1.93928 0
M  V30 1353 H 135.684 -1.49604 2.73907 0
M  V30 1354 N 135.985 -1.50799 -0.457987 0
M  V30 1355 C 136.935 -1.67003 -1.55222 0
M  V30 1356 C 137.919 -0.52434 -1.52117 0
M  V30 1357 O 139.111 -0.779345 -1.58919 0
M  V30 1358 C 136.24 -1.77956 -2.93576 0
M  V30 1359 C 135.326 -2.98243 -3.01516 0
M  V30 1360 N 135.717 -4.21732 -2.79241 0
M  V30 1361 C 134.015 -2.97072 -3.32662 0
M  V30 1362 C 134.716 -5.02817 -2.92489 0
M  V30 1363 N 133.692 -4.37038 -3.23262 0
M  V30 1364 H 137.494 -2.60163 -1.36721 0
M  V30 1365 H 135.008 -1.48163 -0.664952 0
M  V30 1366 H 137.005 -1.87671 -3.72271 0
M  V30 1367 H 135.665 -0.859634 -3.13114 0
M  V30 1368 H 136.676 -4.51016 -2.54567 0
M  V30 1369 H 133.353 -2.14631 -3.58106 0
M  V30 1370 H 134.743 -6.11054 -2.79396 0
M  V30 1371 N 137.463 0.71206 -1.40597 0
M  V30 1372 C 138.426 1.80785 -1.40888 0
M  V30 1373 C 139.426 1.57937 -0.302103 0
M  V30 1374 O 140.616 1.64913 -0.561182 0
M  V30 1375 C 137.748 3.18927 -1.20409 0
M  V30 1376 H 138.941 1.81924 -2.38419 0
M  V30 1377 H 136.494 0.91805 -1.26497 0
M  V30 1378 H 137.229 3.23436 -0.236522 0
M  V30 1379 H 137.014 3.36911 -2.00582 0
M  V30 1380 H 138.504 3.98949 -1.23408 0
M  V30 1381 N 138.941 1.26152 0.944643 0
M  V30 1382 C 139.851 1.09176 2.07648 0
M  V30 1383 C 140.867 0.0261935 1.7398 0
M  V30 1384 O 142.043 0.229208 2.00091 0
M  V30 1385 C 139.108 0.722915 3.39079 0
M  V30 1386 C 138.169 1.86752 3.86552 0
M  V30 1387 C 137.402 1.51617 5.11711 0
M  V30 1388 O 137.625 0.416331 5.68879 0
M  V30 1389 O 136.559 2.34975 5.54139 0
M  V30 1390 H 140.385 2.0412 2.24875 0
M  V30 1391 H 137.97 1.05182 1.061 0
M  V30 1392 H 139.852 0.529787 4.18056 0
M  V30 1393 H 138.527 -0.197159 3.23099 0
M  V30 1394 H 137.434 2.11558 3.08535 0
M  V30 1395 H 138.767 2.76719 4.07047 0
M  V30 1396 N 140.419 -1.14872 1.07899 0
M  V30 1397 C 141.382 -2.17986 0.708161 0
M  V30 1398 C 142.382 -1.58775 -0.25442 0
M  V30 1399 O 143.572 -1.74166 -0.034645 0
M  V30 1400 C 140.704 -3.40871 0.0446929 0
M  V30 1401 H 141.897 -2.52306 1.62116 0
M  V30 1402 H 139.45 -1.2943 0.876218 0
M  V30 1403 H 140.185 -3.12124 -0.880281 0
M  V30 1404 H 139.97 -3.8511 0.737091 0
M  V30 1405 H 141.46 -4.17121 -0.19991 0
M  V30 1406 N 141.898 -0.863906 -1.31812 0
M  V30 1407 C 143.144 -0.472535 -1.97218 0
M  V30 1408 C 143.477 0.971394 -1.68159 0
M  V30 1409 O 142.752 1.68309 -0.974798 0
M  V30 1410 C 143.035 -0.723054 -3.52766 0
M  V30 1411 C 142.888 -2.21608 -3.91421 0
M  V30 1412 C 144.207 -0.185522 -4.39709 0
M  V30 1413 H 141.326 -0.173158 -0.71637 0
M  V30 1414 H 143.968 -1.08403 -1.56041 0
M  V30 1415 H 142.118 -0.202577 -3.87971 0
M  V30 1416 H 143.79 -2.80334 -3.66347 0
M  V30 1417 H 142.033 -2.691 -3.40246 0
M  V30 1418 H 142.704 -2.34203 -4.99853 0
M  V30 1419 H 145.18 -0.630726 -4.11292 0
M  V30 1420 H 144.056 -0.390306 -5.47511 0
M  V30 1421 H 144.317 0.912229 -4.32586 0
M  V30 1422 N 143.376 1.44774 -0.622745 0
M  V30 1423 C 144.792 1.56986 -0.287652 0
M  V30 1424 C 144.992 1.61167 1.20944 0
M  V30 1425 O 144.048 1.55015 1.99315 0
M  V30 1426 C 145.361 2.84551 -0.972188 0
M  V30 1427 C 146.909 2.9825 -0.949536 0
M  V30 1428 C 147.384 4.28605 -1.61437 0
M  V30 1429 N 148.875 4.35399 -1.58057 0
M  V30 1430 C 149.61 5.34964 -2.064 0
M  V30 1431 N 149.106 6.40981 -2.62897 0
M  V30 1432 N 150.899 5.26419 -1.97078 0
M  V30 1433 H 143.05 1.40304 -1.59463 0
M  V30 1434 H 145.313 0.671794 -0.668878 0
M  V30 1435 H 145.019 2.87417 -2.02693 0
M  V30 1436 H 144.893 3.73807 -0.504771 0
M  V30 1437 H 147.28 2.94941 0.0967067 0
M  V30 1438 H 147.361 2.10364 -1.45536 0
M  V30 1439 H 147.005 4.32672 -2.66002 0
M  V30 1440 H 146.935 5.15334 -1.08344 0
M  V30 1441 H 149.426 3.59397 -1.16801 0
M  V30 1442 H 149.739 7.13225 -2.97539 0
M  V30 1443 H 148.084 6.4169 -2.66943 0
M  V30 1444 H 151.275 4.42504 -1.52669 0
M  V30 1445 H 151.448 6.03861 -2.35066 0
M  V30 1446 N 144.854 0.36279 1.53368 0
M  V30 1447 C 146.103 -0.22888 2.00397 0
M  V30 1448 C 146.416 -1.50096 1.25421 0
M  V30 1449 O 147.622 -2.17106 1.63025 0
M  V30 1450 C 146.078 -0.458417 3.56969 0
M  V30 1451 C 145.686 0.798877 4.4082 0
M  V30 1452 C 147.43 -1.00789 4.12361 0
M  V30 1453 C 145.337 0.539078 5.88938 0
M  V30 1454 H 144.267 -0.089305 0.748693 0
M  V30 1455 H 146.918 0.481099 1.77081 0
M  V30 1456 H 145.3 -1.22959 3.76427 0
M  V30 1457 H 146.474 1.57262 4.33134 0
M  V30 1458 H 144.789 1.27137 3.96516 0
M  V30 1459 H 147.386 -1.21754 5.20653 0
M  V30 1460 H 147.729 -1.9692 3.66781 0
M  V30 1461 H 148.262 -0.296961 3.9669 0
M  V30 1462 H 145.001 1.47064 6.3879 0
M  V30 1463 H 144.521 -0.196222 5.99479 0
M  V30 1464 H 146.2 0.163542 6.46793 0
M  V30 1465 N 146.332 -1.57332 0.0918853 0
M  V30 1466 C 147.578 -1.94524 -0.573425 0
M  V30 1467 C 147.911 -0.973578 -1.68033 0
M  V30 1468 O 147.186 -0.00609226 -1.94499 0
M  V30 1469 C 147.469 -3.41858 -1.13161 0
M  V30 1470 C 147.322 -4.4979 -0.0299747 0
M  V30 1471 C 148.641 -3.90435 -2.03098 0
M  V30 1472 H 145.76 -0.70734 -0.206975 0
M  V30 1473 H 148.402 -1.89309 0.161942 0
M  V30 1474 H 146.552 -3.46433 -1.7583 0
M  V30 1475 H 148.224 -4.57327 0.604112 0
M  V30 1476 H 146.467 -4.291 0.636833 0
M  V30 1477 H 147.138 -5.50069 -0.461287 0
M  V30 1478 H 149.614 -3.87992 -1.50338 0
M  V30 1479 H 148.49 -4.94097 -2.39081 0
M  V30 1480 H 148.751 -3.29541 -2.94712 0
M  V30 1481 N 147.81 0.181792 -1.56548 0
M  V30 1482 C 149.04 0.914618 -1.85252 0
M  V30 1483 C 149.448 1.76791 -0.673914 0
M  V30 1484 O 148.791 1.80009 0.366416 0
M  V30 1485 C 148.853 1.85019 -3.08234 0
M  V30 1486 C 148.517 1.17754 -4.41569 0
M  V30 1487 C 149.514 0.548035 -5.17003 0
M  V30 1488 C 147.199 1.17742 -4.88305 0
M  V30 1489 C 149.193 -0.0726128 -6.37359 0
M  V30 1490 C 146.88 0.552946 -6.08593 0
M  V30 1491 C 147.878 -0.070978 -6.82963 0
M  V30 1492 O 147.566 -0.685635 -8.00971 0
M  V30 1493 H 147.298 0.271695 -0.618998 0
M  V30 1494 H 149.852 0.189944 -2.0452 0
M  V30 1495 H 148.082 2.61491 -2.84885 0
M  V30 1496 H 149.771 2.45195 -3.23472 0
M  V30 1497 H 150.537 0.540174 -4.81982 0
M  V30 1498 H 146.416 1.65246 -4.30366 0
M  V30 1499 H 149.96 -0.560213 -6.95347 0
M  V30 1500 H 145.857 0.558354 -6.43081 0
M  V30 1501 H 146.625 -0.58385 -8.16415 0
M  V30 1502 N 149.288 1.51039 0.449983 0
M  V30 1503 C 150.565 1.53612 1.21089 0
M  V30 1504 C 150.945 0.292997 2.09057 0
M  V30 1505 O 150.293 -0.72259 2.16774 0
M  V30 1506 C 150.503 2.84337 2.0237 0
M  V30 1507 C 151.851 3.35807 2.59843 0
M  V30 1508 O 152.875 2.85802 2.12593 0
M  V30 1509 O 151.734 4.23029 3.45989 0
M  V30 1510 H 148.828 0.617057 0.550608 0
M  V30 1511 H 151.374 1.63344 0.460082 0
M  V30 1512 H 150.146 3.66278 1.37681 0
M  V30 1513 H 149.769 2.77708 2.84542 0
M  V30 1514 N 150.766 -0.704594 1.40972 0
M  V30 1515 C 152.177 -1.28418 1.3552 0
M  V30 1516 C 152.528 -1.96171 0.0339434 0
M  V30 1517 O 151.653 -1.98231 -0.867944 0
M  V30 1518 C 152.248 -2.33528 2.45459 0
M  V30 1519 C 150.807 -2.87085 2.43433 0
M  V30 1520 C 149.954 -1.61007 2.2577 0
M  V30 1521 H 152.905 -0.499963 1.50619 0
M  V30 1522 H 152.926 -3.14619 2.13998 0
M  V30 1523 H 152.438 -1.84187 3.41609 0
M  V30 1524 H 150.539 -3.40626 1.51013 0
M  V30 1525 H 150.652 -3.3813 3.39419 0
M  V30 1526 H 149.016 -1.86482 1.73483 0
M  V30 1527 H 149.799 -1.13675 3.23933 0
M  V30 1528 N 152.244 -1.26651 -0.937939 0
M  V30 1529 C 153.469 -1.15279 -1.72411 0
M  V30 1530 C 153.894 0.287866 -1.85884 0
M  V30 1531 O 153.252 1.20855 -1.35143 0
M  V30 1532 C 153.3 -1.83028 -3.10698 0
M  V30 1533 O 152.404 -1.12128 -3.96864 0
M  V30 1534 H 151.745 -0.401504 -0.528858 0
M  V30 1535 H 154.275 -1.67531 -1.1745 0
M  V30 1536 H 154.285 -1.89981 -3.6107 0
M  V30 1537 H 152.96 -2.87833 -3.00208 0
M  V30 1538 H 151.537 -1.13173 -3.55312 0
M  V30 1539 N 153.722 1.14298 -1.08507 0
M  V30 1540 C 154.968 1.85633 -0.816581 0
M  V30 1541 C 155.301 1.82784 0.656021 0
M  V30 1542 O 154.576 1.25926 1.48233 0
M  V30 1543 C 154.859 3.34223 -1.34041 0
M  V30 1544 C 154.712 3.45639 -2.87843 0
M  V30 1545 C 156.031 4.29356 -0.9665 0
M  V30 1546 H 153.15 0.67402 -0.298104 0
M  V30 1547 H 155.792 1.34214 -1.34487 0
M  V30 1548 H 153.942 3.78144 -0.89104 0
M  V30 1549 H 155.614 3.10498 -3.41158 0
M  V30 1550 H 153.857 2.86817 -3.25451 0
M  V30 1551 H 154.528 4.50089 -3.19569 0
M  V30 1552 H 157.004 3.93457 -1.35391 0
M  V30 1553 H 155.88 5.3178 -1.3602 0
M  V30 1554 H 156.141 4.41919 0.126362 0
M  V30 1555 N 155.201 0.870884 1.31352 0
M  V30 1556 C 156.45 0.478408 1.95944 0
M  V30 1557 C 156.763 -0.974493 1.69597 0
M  V30 1558 O 157.969 -1.47316 2.28058 0
M  V30 1559 C 156.425 0.804609 3.50791 0
M  V30 1560 C 156.033 2.27433 3.85977 0
M  V30 1561 C 157.777 0.480648 4.2177 0
M  V30 1562 C 155.684 2.5429 5.33939 0
M  V30 1563 H 154.614 0.175175 0.733369 0
M  V30 1564 H 157.265 1.06391 1.4951 0
M  V30 1565 H 155.647 0.148347 3.95722 0
M  V30 1566 H 156.821 2.97373 3.52002 0
M  V30 1567 H 155.136 2.56442 3.28065 0
M  V30 1568 H 157.733 0.658519 5.30629 0
M  V30 1569 H 158.076 -0.578979 4.12254 0
M  V30 1570 H 158.609 1.09349 3.82476 0
M  V30 1571 H 155.348 3.58939 5.48491 0
M  V30 1572 H 154.868 1.88945 5.69263 0
M  V30 1573 H 156.547 2.39066 6.01212 0
M  V30 1574 N 156.679 -1.44442 0.630414 0
M  V30 1575 C 157.904 -2.06927 0.139944 0
M  V30 1576 C 158.329 -1.46795 -1.17613 0
M  V30 1577 O 157.687 -0.569144 -1.72135 0
M  V30 1578 C 157.735 -3.6058 0.0379581 0
M  V30 1579 O 156.839 -3.99937 -1.0062 0
M  V30 1580 H 156.18 -0.658608 0.0844483 0
M  V30 1581 H 158.71 -1.85327 0.866891 0
M  V30 1582 H 158.72 -4.07714 -0.152856 0
M  V30 1583 H 157.395 -4.03728 0.998809 0
M  V30 1584 H 155.972 -3.64436 -0.79001 0
M  V30 1585 N 158.157 -0.370918 -1.53173 0
M  V30 1586 C 159.387 0.217389 -2.05453 0
M  V30 1587 C 159.795 1.42568 -1.24382 0
M  V30 1588 O 159.138 1.81571 -0.278839 0
M  V30 1589 C 159.2 0.669827 -3.53205 0
M  V30 1590 C 158.864 -0.4225 -4.55043 0
M  V30 1591 C 159.861 -1.27407 -5.04047 0
M  V30 1592 C 157.546 -0.58427 -4.9889 0
M  V30 1593 C 159.54 -2.27271 -5.95505 0
M  V30 1594 C 157.227 -1.58627 -5.90153 0
M  V30 1595 C 158.225 -2.42892 -6.38351 0
M  V30 1596 O 157.913 -3.41382 -7.27814 0
M  V30 1597 H 157.645 0.0408171 -0.674767 0
M  V30 1598 H 160.199 -0.5292 -1.98466 0
M  V30 1599 H 158.429 1.4681 -3.57748 0
M  V30 1600 H 160.118 1.18173 -3.88317 0
M  V30 1601 H 160.884 -1.16031 -4.70916 0
M  V30 1602 H 156.763 0.061851 -4.60959 0
M  V30 1603 H 160.307 -2.93079 -6.33049 0
M  V30 1604 H 156.204 -1.70048 -6.22699 0
M  V30 1605 H 156.972 -3.37173 -7.45826 0
M  V30 1606 N 159.635 1.57281 -0.100228 0
M  V30 1607 C 160.545 2.17833 0.870965 0
M  V30 1608 C 161.561 1.14921 1.30649 0
M  V30 1609 O 162.737 1.47313 1.37335 0
M  V30 1610 C 159.802 2.75085 2.1102 0
M  V30 1611 C 158.863 3.9297 1.72838 0
M  V30 1612 C 158.096 4.47482 2.90854 0
M  V30 1613 O 158.319 4.00922 4.05731 0
M  V30 1614 O 157.253 5.38433 2.69023 0
M  V30 1615 H 161.079 3.0124 0.38575 0
M  V30 1616 H 158.664 1.48881 0.124397 0
M  V30 1617 H 160.546 3.11656 2.83634 0
M  V30 1618 H 159.221 1.94721 2.58584 0
M  V30 1619 H 158.128 3.61201 0.973883 0
M  V30 1620 H 159.461 4.74713 1.30033 0
M  V30 1621 N 161.113 -0.173488 1.56642 0
M  V30 1622 C 162.045 -1.23935 1.92802 0
M  V30 1623 C 163.058 -1.40589 0.820889 0
M  V30 1624 O 164.247 -1.40631 1.09933 0
M  V30 1625 C 161.347 -2.60837 2.16373 0
M  V30 1626 C 160.52 -2.6551 3.47596 0
M  V30 1627 C 159.579 -3.8376 3.60021 0
M  V30 1628 O 158.605 -3.69859 4.32658 0
M  V30 1629 N 159.807 -5.00127 2.94709 0
M  V30 1630 H 162.572 -0.932236 2.84832 0
M  V30 1631 H 160.133 -0.363268 1.57772 0
M  V30 1632 H 162.125 -3.38407 2.21952 0
M  V30 1633 H 160.695 -2.83948 1.30738 0
M  V30 1634 H 159.915 -1.74052 3.53694 0
M  V30 1635 H 161.203 -2.65641 4.33949 0
M  V30 1636 H 160.601 -5.14322 2.35563 0
M  V30 1637 H 159.158 -5.75567 3.05886 0
M  V30 1638 N 162.591 -1.51276 -0.441967 0
M  V30 1639 C 163.521 -1.752 -1.54361 0
M  V30 1640 C 164.502 -0.601682 -1.59103 0
M  V30 1641 O 165.687 -0.843913 -1.74905 0
M  V30 1642 C 162.817 -1.87282 -2.92477 0
M  V30 1643 C 161.771 -3.02687 -3.02596 0
M  V30 1644 C 161.097 -2.99947 -4.42647 0
M  V30 1645 C 162.397 -4.4273 -2.77106 0
M  V30 1646 H 164.091 -2.67442 -1.34592 0
M  V30 1647 H 161.637 -1.28694 -0.646048 0
M  V30 1648 H 163.59 -2.02602 -3.695 0
M  V30 1649 H 162.314 -0.916844 -3.13467 0
M  V30 1650 H 160.973 -2.87065 -2.28012 0
M  V30 1651 H 160.621 -2.02136 -4.60597 0
M  V30 1652 H 160.321 -3.77439 -4.50348 0
M  V30 1653 H 161.845 -3.17354 -5.2165 0
M  V30 1654 H 163.259 -4.58727 -3.43864 0
M  V30 1655 H 161.656 -5.21893 -2.96222 0
M  V30 1656 H 162.726 -4.53087 -1.72744 0
M  V30 1657 N 164.069 0.697108 -1.41344 0
M  V30 1658 C 164.999 1.82353 -1.45841 0
M  V30 1659 C 165.98 1.67115 -0.317247 0
M  V30 1660 O 167.165 1.86871 -0.528474 0
M  V30 1661 C 164.295 3.20476 -1.33838 0
M  V30 1662 C 163.249 3.50415 -2.4575 0
M  V30 1663 C 162.575 4.87878 -2.18813 0
M  V30 1664 C 163.875 3.49546 -3.88091 0
M  V30 1665 H 165.569 1.78846 -2.40113 0
M  V30 1666 H 163.115 0.859028 -1.15571 0
M  V30 1667 H 165.068 3.98988 -1.35596 0
M  V30 1668 H 163.792 3.24604 -0.360498 0
M  V30 1669 H 162.451 2.74253 -2.43271 0
M  V30 1670 H 162.099 4.8863 -1.19371 0
M  V30 1671 H 161.799 5.08875 -2.93803 0
M  V30 1672 H 163.323 5.68702 -2.22284 0
M  V30 1673 H 164.737 4.18066 -3.92293 0
M  V30 1674 H 163.134 3.82075 -4.62751 0
M  V30 1675 H 164.204 2.48552 -4.16353 0
M  V30 1676 N 165.547 1.27147 0.931209 0
M  V30 1677 C 166.479 1.05364 2.03546 0
M  V30 1678 C 167.492 0.0108438 1.62796 0
M  V30 1679 O 168.681 0.25202 1.76712 0
M  V30 1680 C 165.781 0.575566 3.33977 0
M  V30 1681 C 164.954 1.68985 4.03439 0
M  V30 1682 C 164.013 1.20813 5.12143 0
M  V30 1683 O 163.039 1.90712 5.363 0
M  V30 1684 N 164.241 0.0618851 5.80467 0
M  V30 1685 H 167.006 2.00454 2.22796 0
M  V30 1686 H 164.567 1.18666 1.10136 0
M  V30 1687 H 166.559 0.237264 4.04004 0
M  V30 1688 H 165.129 -0.282016 3.11325 0
M  V30 1689 H 164.349 2.19861 3.27192 0
M  V30 1690 H 165.637 2.4378 4.46597 0
M  V30 1691 H 165.035 -0.521621 5.6329 0
M  V30 1692 H 163.592 -0.217264 6.51438 0
M  V30 1693 N 167.025 -1.13721 1.09112 0
M  V30 1694 C 168.271 -1.85198 0.826414 0
M  V30 1695 C 168.604 -1.83129 -0.646319 0
M  V30 1696 O 167.879 -1.2671 -1.47563 0
M  V30 1697 C 168.162 -3.33507 1.35812 0
M  V30 1698 C 168.015 -3.44108 2.89672 0
M  V30 1699 C 169.334 -4.28838 0.989256 0
M  V30 1700 H 166.453 -0.67243 0.301675 0
M  V30 1701 H 169.095 -1.33499 1.35197 0
M  V30 1702 H 167.245 -3.77666 0.911082 0
M  V30 1703 H 168.917 -3.08684 3.428 0
M  V30 1704 H 167.16 -2.85087 3.26967 0
M  V30 1705 H 167.831 -4.48388 3.21951 0
M  V30 1706 H 170.307 -3.92734 1.37475 0
M  V30 1707 H 169.183 -5.31051 1.38838 0
M  V30 1708 H 169.444 -4.4198 -0.102924 0
M  V30 1709 N 168.503 -0.877838 -1.30888 0
M  V30 1710 C 169.75 -0.492696 -1.96415 0
M  V30 1711 C 170.078 0.956671 -1.69346 0
M  V30 1712 O 169.333 1.68993 -0.986913 0
M  V30 1713 C 169.632 -0.705748 -3.50363 0
M  V30 1714 C 169.298 -2.1291 -3.97467 0
M  V30 1715 C 167.96 -2.51834 -4.1004 0
M  V30 1716 C 170.312 -3.05702 -4.22132 0
M  V30 1717 C 167.64 -3.82775 -4.44635 0
M  V30 1718 C 169.992 -4.36166 -4.58194 0
M  V30 1719 C 168.656 -4.74993 -4.68975 0
M  V30 1720 H 167.926 -0.18029 -0.718733 0
M  V30 1721 H 170.573 -1.11233 -1.55883 0
M  V30 1722 H 168.878 -0.00303058 -3.918 0
M  V30 1723 H 170.575 -0.387456 -3.99124 0
M  V30 1724 H 167.165 -1.81694 -3.88182 0
M  V30 1725 H 171.349 -2.76853 -4.11906 0
M  V30 1726 H 166.605 -4.12609 -4.51181 0
M  V30 1727 H 170.779 -5.08111 -4.76231 0
M  V30 1728 H 168.406 -5.76495 -4.95537 0
M  V30 1729 N 169.982 1.44106 -0.638065 0
M  V30 1730 C 171.228 2.02815 -0.15409 0
M  V30 1731 C 171.583 1.49342 1.21304 0
M  V30 1732 O 170.876 0.670699 1.79478 0
M  V30 1733 C 171.07 3.5729 -0.0887327 0
M  V30 1734 C 170.899 4.2575 -1.44799 0
M  V30 1735 C 169.669 4.62443 -2.03653 0
M  V30 1736 C 171.867 4.55746 -2.38327 0
M  V30 1737 N 169.849 5.15903 -3.32741 0
M  V30 1738 C 171.22 5.10364 -3.52036 0
M  V30 1739 C 173.275 4.37703 -2.3732 0
M  V30 1740 C 171.978 5.48837 -4.64941 0
M  V30 1741 C 174.004 4.77229 -3.49294 0
M  V30 1742 C 173.366 5.31966 -4.61726 0
M  V30 1743 H 169.465 0.775519 -0.100466 0
M  V30 1744 H 172.049 1.755 -0.843071 0
M  V30 1745 H 170.22 3.84201 0.569548 0
M  V30 1746 H 171.952 4.02671 0.404711 0
M  V30 1747 H 168.707 4.46987 -1.56523 0
M  V30 1748 H 169.131 5.47102 -3.98758 0
M  V30 1749 H 173.773 3.94671 -1.51641 0
M  V30 1750 H 171.491 5.9082 -5.51323 0
M  V30 1751 H 175.077 4.64976 -3.49698 0
M  V30 1752 H 173.957 5.61986 -5.46939 0
M  V30 1753 N 171.46 0.379036 1.52974 0
M  V30 1754 C 172.37 -0.468639 2.29872 0
M  V30 1755 C 173.386 -1.08067 1.36373 0
M  V30 1756 O 174.562 -1.08871 1.69438 0
M  V30 1757 C 171.627 -1.58594 3.083 0
M  V30 1758 C 170.688 -1.00007 4.17489 0
M  V30 1759 C 169.921 -2.06413 4.92168 0
M  V30 1760 O 170.144 -3.27751 4.66835 0
M  V30 1761 O 169.078 -1.68717 5.7777 0
M  V30 1762 H 172.904 0.157508 3.03291 0
M  V30 1763 H 170.489 0.143035 1.48714 0
M  V30 1764 H 172.371 -2.23525 3.57232 0
M  V30 1765 H 171.046 -2.19724 2.37703 0
M  V30 1766 H 169.953 -0.314299 3.72777 0
M  V30 1767 H 171.286 -0.433135 4.90291 0
M  V30 1768 N 172.938 -1.57226 0.108567 0
M  V30 1769 C 173.886 -2.16002 -0.862885 0
M  V30 1770 C 174.88 -1.10644 -1.28274 0
M  V30 1771 O 176.086 -1.28966 -1.2557 0
M  V30 1772 H 172.461 -0.691148 -0.296342 0
M  V30 1773 H 174.432 -2.96427 -0.342575 0
M  V30 1774 C 173.181 -2.76576 -2.10716 0
M  V30 1775 H 172.504 -3.5734 -1.793 0
M  V30 1776 H 173.944 -3.21253 -2.76717 0
M  V30 1777 C 172.403 -1.73137 -2.89007 0
M  V30 1778 O 172.933 -1.17842 -3.84026 0
M  V30 1779 N 171.139 -1.43317 -2.52801 0
M  V30 1780 H 170.686 -1.88473 -1.75601 0
M  V30 1781 H 170.644 -0.743485 -3.05483 0
M  V30 1782 N 174.416 0.165178 -1.56732 0
M  V30 1783 C 175.366 1.20917 -1.93295 0
M  V30 1784 C 176.35 1.39488 -0.801985 0
M  V30 1785 O 177.542 1.41356 -1.06525 0
M  V30 1786 C 174.671 2.54718 -2.3016 0
M  V30 1787 C 173.757 2.39815 -3.49785 0
M  V30 1788 N 174.148 1.94637 -4.66851 0
M  V30 1789 C 172.446 2.70623 -3.54513 0
M  V30 1790 C 173.147 1.92344 -5.4898 0
M  V30 1791 N 172.123 2.34978 -4.9019 0
M  V30 1792 H 175.925 0.851675 -2.81289 0
M  V30 1793 H 173.439 0.373399 -1.58049 0
M  V30 1794 H 175.436 3.30165 -2.54552 0
M  V30 1795 H 174.096 2.91265 -1.43508 0
M  V30 1796 H 175.107 1.6488 -4.90953 0
M  V30 1797 H 171.784 3.11167 -2.78354 0
M  V30 1798 H 173.174 1.5906 -6.52801 0
M  V30 1799 N 175.894 1.51508 0.433938 0
M  V30 1800 C 177.171 1.54888 1.19453 0
M  V30 1801 C 177.551 0.315154 2.08734 0
M  V30 1802 O 176.899 -0.699558 2.17528 0
M  V30 1803 C 177.109 2.86467 1.99342 0
M  V30 1804 C 178.457 3.38545 2.56267 0
M  V30 1805 O 179.481 2.88041 2.0955 0
M  V30 1806 O 178.34 4.26675 3.41483 0
M  V30 1807 H 175.434 0.622863 0.544032 0
M  V30 1808 H 177.98 1.63823 0.442732 0
M  V30 1809 H 176.752 3.67718 1.33788 0
M  V30 1810 H 176.375 2.8071 2.8158 0
M  V30 1811 N 177.372 -0.689602 1.41712 0
M  V30 1812 C 178.783 -1.26973 1.36875 0
M  V30 1813 C 179.134 -1.96124 0.054748 0
M  V30 1814 O 178.259 -1.99141 -0.84687 0
M  V30 1815 C 178.854 -2.30912 2.47922 0
M  V30 1816 C 177.413 -2.84486 2.46464 0
M  V30 1817 C 176.56 -1.58603 2.27465 0
M  V30 1818 H 179.511 -0.48396 1.51141 0
M  V30 1819 H 179.532 -3.12331 2.17323 0
M  V30 1820 H 179.044 -1.80554 3.43543 0
M  V30 1821 H 177.145 -3.39005 1.54617 0
M  V30 1822 H 177.258 -3.34511 3.42986 0
M  V30 1823 H 175.622 -1.84632 1.75451 0
M  V30 1824 H 176.405 -1.10233 3.25121 0
M  V30 1825 N 178.85 -1.27639 -0.924453 0
M  V30 1826 C 179.813 -1.10681 -2.00705 0
M  V30 1827 C 180.813 -0.0497823 -1.60723 0
M  V30 1828 O 182.003 -0.294654 -1.7169 0
M  V30 1829 C 179.135 -0.687164 -3.33902 0
M  V30 1830 H 180.328 -2.06817 -2.17179 0
M  V30 1831 H 177.881 -1.10473 -1.10569 0
M  V30 1832 H 178.616 0.275439 -3.23128 0
M  V30 1833 H 178.401 -1.45061 -3.6428 0
M  V30 1834 H 179.891 -0.590853 -4.13399 0
M  V30 1835 N 180.328 1.1314 -1.09713 0
M  V30 1836 C 181.26 2.18343 -0.697056 0
M  V30 1837 C 182.273 1.60669 0.262551 0
M  V30 1838 O 183.462 1.78435 0.0481527 0
M  V30 1839 C 180.562 3.38899 -0.00684728 0
M  V30 1840 C 179.735 4.26078 -0.988741 0
M  V30 1841 C 178.794 5.25155 -0.331394 0
M  V30 1842 O 177.82 5.60701 -0.979926 0
M  V30 1843 N 179.022 5.73271 0.913261 0
M  V30 1844 H 181.787 2.5328 -1.60216 0
M  V30 1845 H 179.348 1.28491 -0.984971 0
M  V30 1846 H 181.34 4.02255 0.444191 0
M  V30 1847 H 179.91 3.02175 0.800551 0
M  V30 1848 H 179.13 3.59453 -1.61826 0
M  V30 1849 H 180.418 4.81178 -1.65364 0
M  V30 1850 H 179.816 5.46544 1.45966 0
M  V30 1851 H 178.373 6.3855 1.30757 0
M  V30 1852 N 181.806 0.884767 1.30421 0
M  V30 1853 C 183.054 0.502112 1.95763 0
M  V30 1854 C 183.375 -0.951815 1.70192 0
M  V30 1855 O 182.645 -1.6692 1.0254 0
M  V30 1856 H 181.225 0.182694 0.724315 0
M  V30 1857 H 183.887 1.1278 1.58955 0
M  V30 1858 H 182.983 0.672188 3.04775 0
M  V30 1859 N 183.284 -1.43765 0.645699 0
M  V30 1860 C 184.217 -2.2798 -0.100072 0
M  V30 1861 C 185.195 -1.39391 -0.837194 0
M  V30 1862 O 186.379 -1.68833 -0.838306 0
M  V30 1863 C 183.506 -3.18643 -1.14823 0
M  V30 1864 C 182.552 -4.2344 -0.510009 0
M  V30 1865 S 183.385 -5.30761 0.710824 0
M  V30 1866 C 184.541 -6.24992 -0.33699 0
M  V30 1867 H 184.774 -2.90884 0.614322 0
M  V30 1868 H 182.307 -1.48166 0.434304 0
M  V30 1869 H 184.265 -3.71424 -1.74799 0
M  V30 1870 H 182.926 -2.54932 -1.8349 0
M  V30 1871 H 182.119 -4.86948 -1.29991 0
M  V30 1872 H 181.721 -3.73997 0.0154577 0
M  V30 1873 H 184.013 -6.66691 -1.20537 0
M  V30 1874 H 184.956 -7.07612 0.262879 0
M  V30 1875 H 185.364 -5.60517 -0.669425 0
M  V30 1876 N 184.763 -0.387143 -1.52771 0
M  V30 1877 C 186.179 -0.037007 -1.59557 0
M  V30 1878 C 186.379 1.44801 -1.40124 0
M  V30 1879 O 185.435 2.21227 -1.21716 0
M  V30 1880 C 186.748 -0.512256 -2.96305 0
M  V30 1881 C 188.296 -0.468328 -3.09476 0
M  V30 1882 C 188.771 -0.919731 -4.4867 0
M  V30 1883 N 190.262 -0.875656 -4.54848 0
M  V30 1884 C 190.997 -1.19637 -5.6078 0
M  V30 1885 N 190.493 -1.58745 -6.74368 0
M  V30 1886 N 192.286 -1.11776 -5.50874 0
M  V30 1887 H 184.437 -1.35395 -1.63652 0
M  V30 1888 H 186.7 -0.554818 -0.768688 0
M  V30 1889 H 186.406 -1.54935 -3.15734 0
M  V30 1890 H 186.28 0.089805 -3.77093 0
M  V30 1891 H 188.667 0.559671 -2.89744 0
M  V30 1892 H 188.748 -1.10616 -2.30646 0
M  V30 1893 H 188.392 -1.94595 -4.69143 0
M  V30 1894 H 188.322 -0.258927 -5.25963 0
M  V30 1895 H 190.813 -0.587843 -3.733 0
M  V30 1896 H 191.126 -1.81586 -7.51163 0
M  V30 1897 H 189.471 -1.6263 -6.75705 0
M  V30 1898 H 192.662 -0.811264 -4.61016 0
M  V30 1899 H 192.835 -1.37103 -6.3333 0
M  V30 1900 N 186.241 1.57166 -0.116904 0
M  V30 1901 C 187.173 2.12271 0.864507 0
M  V30 1902 C 188.186 1.06494 1.23138 0
M  V30 1903 O 189.375 1.33873 1.18069 0
M  V30 1904 C 186.475 2.60564 2.16702 0
M  V30 1905 C 185.648 3.90416 1.97216 0
M  V30 1906 C 184.707 4.24329 3.11178 0
M  V30 1907 O 183.733 4.93182 2.84184 0
M  V30 1908 N 184.935 3.8148 4.37554 0
M  V30 1909 H 187.7 2.97102 0.393726 0
M  V30 1910 H 185.261 1.61759 0.0675805 0
M  V30 1911 H 187.253 2.80282 2.91932 0
M  V30 1912 H 185.823 1.80623 2.55135 0
M  V30 1913 H 185.043 3.79627 1.06192 0
M  V30 1914 H 186.331 4.75327 1.81499 0
M  V30 1915 H 185.729 3.25943 4.62361 0
M  V30 1916 H 184.286 4.06311 5.09661 0
M  V30 1917 N 187.719 -0.156864 1.56817 0
M  V30 1918 C 188.967 -0.869404 1.82444 0
M  V30 1919 C 189.288 -1.82147 0.69623 0
M  V30 1920 O 188.558 -1.93847 -0.28287 0
M  V30 1921 H 187.138 -0.324043 0.673056 0
M  V30 1922 H 189.8 -0.153224 1.94297 0
M  V30 1923 H 188.896 -1.43761 2.77019 0
M  V30 1924 N 189.197 -1.51736 -0.425897 0
M  V30 1925 C 190.145 -1.74464 -1.53834 0
M  V30 1926 C 191.139 -0.611241 -1.57988 0
M  V30 1927 O 192.345 -0.792899 -1.61596 0
M  V30 1928 H 188.72 -0.551437 -0.511293 0
M  V30 1929 H 190.691 -2.67694 -1.31843 0
M  V30 1930 C 189.44 -1.8972 -2.91379 0
M  V30 1931 H 188.763 -2.76344 -2.88919 0
M  V30 1932 H 190.203 -2.09629 -3.68553 0
M  V30 1933 C 188.662 -0.65992 -3.30374 0
M  V30 1934 O 189.192 0.180083 -4.01296 0
M  V30 1935 N 187.398 -0.500677 -2.86254 0
M  V30 1936 H 186.945 -1.18532 -2.28709 0
M  V30 1937 H 186.903 0.325903 -3.12706 0
M  V30 1938 N 190.675 0.682077 -1.42076 0
M  V30 1939 C 191.952 1.43755 -1.32642 0
M  V30 1940 C 192.332 2.11063 0.0396611 0
M  V30 1941 O 191.68 2.02701 1.05474 0
M  V30 1942 C 191.89 2.44596 -2.48946 0
M  V30 1943 C 193.238 3.09454 -2.9073 0
M  V30 1944 O 194.262 2.54922 -2.48783 0
M  V30 1945 O 193.121 4.08253 -3.63307 0
M  V30 1946 H 190.215 0.640857 -0.522715 0
M  V30 1947 H 192.761 0.711415 -1.54068 0
M  V30 1948 H 191.533 1.93609 -3.40046 0
M  V30 1949 H 191.156 3.24701 -2.29467 0
M  V30 1950 N 192.153 1.28127 0.917671 0
M  V30 1951 C 193.103 1.08361 2.00604 0
M  V30 1952 C 194.087 0.00847518 1.60898 0
M  V30 1953 O 195.279 0.228167 1.75523 0
M  V30 1954 C 192.408 0.743376 3.35155 0
M  V30 1955 C 191.494 1.85716 3.81275 0
M  V30 1956 N 191.885 3.09822 3.99805 0
M  V30 1957 C 190.183 1.74612 4.10398 0
M  V30 1958 C 190.884 3.82368 4.38372 0
M  V30 1959 N 189.86 3.10192 4.4641 0
M  V30 1960 H 193.662 2.02531 2.12975 0
M  V30 1961 H 191.176 1.18989 1.10523 0
M  V30 1962 H 193.173 0.582859 4.12805 0
M  V30 1963 H 191.833 -0.190595 3.2414 0
M  V30 1964 H 192.844 3.45475 3.85833 0
M  V30 1965 H 189.521 0.883657 4.08041 0
M  V30 1966 H 190.911 4.89082 4.60704 0
M  V30 1967 N 193.631 -1.12557 1.10312 0
M  V30 1968 C 194.879 -1.83675 0.843091 0
M  V30 1969 C 195.2 -1.84435 -0.633131 0
M  V30 1970 O 194.47 -1.30657 -1.45964 0
M  V30 1971 H 193.05 -0.680138 0.308904 0
M  V30 1972 H 195.712 -1.36301 1.39313 0
M  V30 1973 H 194.808 -2.87908 1.2048 0
M  V30 1974 N 195.109 -0.891671 -1.2995 0
M  V30 1975 C 196.337 -0.52866 -2.00032 0
M  V30 1976 C 196.752 0.884574 -1.66795 0
M  V30 1977 O 196.109 1.5827 -0.908669 0
M  V30 1978 C 196.16 -0.701814 -3.54622 0
M  V30 1979 O 195.881 -2.05942 -3.86678 0
M  V30 1980 C 197.382 -0.342683 -4.41973 0
M  V30 1981 H 194.602 -0.203659 -0.639347 0
M  V30 1982 H 197.146 -1.19881 -1.65677 0
M  V30 1983 H 195.301 -0.0789468 -3.8732 0
M  V30 1984 H 195.715 -2.08291 -4.81368 0
M  V30 1985 H 197.189 -0.514709 -5.49595 0
M  V30 1986 H 197.666 0.71975 -4.33262 0
M  V30 1987 H 198.272 -0.942154 -4.14733 0
M  V30 1988 N 196.587 1.43421 -0.653314 0
M  V30 1989 C 197.519 2.29071 0.0769134 0
M  V30 1990 C 198.532 1.42513 0.787017 0
M  V30 1991 O 199.721 1.66449 0.644757 0
M  V30 1992 C 196.821 3.19436 1.13199 0
M  V30 1993 C 195.994 4.34533 0.500006 0
M  V30 1994 C 195.053 5.05771 1.45198 0
M  V30 1995 O 194.079 5.61037 0.960538 0
M  V30 1996 N 195.281 5.0928 2.78594 0
M  V30 1997 H 198.046 2.92382 -0.658235 0
M  V30 1998 H 195.607 1.54112 -0.496104 0
M  V30 1999 H 197.599 3.63958 1.76964 0
M  V30 2000 H 196.169 2.57724 1.7691 0
M  V30 2001 H 195.389 3.92925 -0.316738 0
M  V30 2002 H 196.677 5.08766 0.0588345 0
M  V30 2003 H 196.075 4.65751 3.2108 0
M  V30 2004 H 194.632 5.57519 3.37662 0
M  V30 2005 N 198.065 0.39524 1.52563 0
M  V30 2006 C 199.295 -0.184675 2.05773 0
M  V30 2007 C 199.703 -1.40571 1.26635 0
M  V30 2008 O 199.046 -1.81105 0.30769 0
M  V30 2009 C 199.108 -0.613551 3.54226 0
M  V30 2010 C 198.772 0.49484 4.54313 0
M  V30 2011 C 199.769 1.3541 5.01956 0
M  V30 2012 C 197.454 0.663565 4.97898 0
M  V30 2013 C 199.448 2.36716 5.91814 0
M  V30 2014 C 197.135 1.67996 5.87555 0
M  V30 2015 C 198.133 2.53017 6.34406 0
M  V30 2016 O 197.821 3.52917 7.22291 0
M  V30 2017 H 197.553 -0.030077 0.675331 0
M  V30 2018 H 200.107 0.560708 1.97599 0
M  V30 2019 H 198.337 -1.411 3.60038 0
M  V30 2020 H 200.026 -1.11981 3.90148 0
M  V30 2021 H 200.792 1.23509 4.6901 0
M  V30 2022 H 196.671 0.0114913 4.60999 0
M  V30 2023 H 200.215 3.03113 6.28306 0
M  V30 2024 H 196.112 1.79933 6.19915 0
M  V30 2025 H 196.88 3.48996 7.40367 0
M  V30 2026 N 199.544 -1.57102 0.125237 0
M  V30 2027 C 200.96 -1.57915 -0.231322 0
M  V30 2028 C 201.16 -1.13833 -1.66266 0
M  V30 2029 O 200.216 -0.828581 -2.38518 0
M  V30 2030 C 201.529 -3.00699 0.00766489 0
M  V30 2031 C 203.077 -3.12947 -0.0577483 0
M  V30 2032 C 203.552 -4.57742 0.153626 0
M  V30 2033 N 205.043 -4.63092 0.0998073 0
M  V30 2034 C 205.778 -5.72905 0.238174 0
M  V30 2035 N 205.274 -6.91445 0.433057 0
M  V30 2036 N 207.067 -5.6182 0.177308 0
M  V30 2037 H 199.218 -1.84055 1.06007 0
M  V30 2038 H 201.481 -0.850905 0.417929 0
M  V30 2039 H 201.187 -3.3726 0.997431 0
M  V30 2040 H 201.061 -3.70236 -0.721452 0
M  V30 2041 H 203.448 -2.7624 -1.03804 0
M  V30 2042 H 203.529 -2.4594 0.70335 0
M  V30 2043 H 203.173 -4.95149 1.13092 0
M  V30 2044 H 203.103 -5.22848 -0.627534 0
M  V30 2045 H 205.594 -3.77871 -0.047051 0
M  V30 2046 H 205.907 -7.70985 0.529332 0
M  V30 2047 H 204.252 -6.93415 0.469109 0
M  V30 2048 H 207.443 -4.68093 0.0259748 0
M  V30 2049 H 207.616 -6.47357 0.288582 0
M  V30 2050 N 201.022 0.148545 -1.56898 0
M  V30 2051 C 202.247 0.880385 -1.87787 0
M  V30 2052 C 202.672 1.74018 -0.714093 0
M  V30 2053 O 202.03 1.78153 0.336343 0
M  V30 2054 C 202.078 1.71422 -3.17249 0
M  V30 2055 O 201.182 2.8183 -3.01074 0
M  V30 2056 H 200.523 0.245301 -0.617028 0
M  V30 2057 H 203.053 0.139826 -2.04122 0
M  V30 2058 H 203.063 2.10954 -3.49231 0
M  V30 2059 H 201.738 1.08284 -4.01556 0
M  V30 2060 H 200.315 2.45715 -2.80497 0
M  V30 2061 N 202.5 1.5196 0.417844 0
M  V30 2062 C 203.463 1.74065 1.49111 0
M  V30 2063 C 204.463 0.610537 1.48758 0
M  V30 2064 O 205.653 0.87832 1.50437 0
M  V30 2065 C 202.785 1.81502 2.88565 0
M  V30 2066 H 203.978 2.69869 1.30807 0
M  V30 2067 H 201.531 1.42244 0.647785 0
M  V30 2068 H 202.266 0.875813 3.1225 0
M  V30 2069 H 202.051 2.63651 2.90225 0
M  V30 2070 H 203.541 2.00376 3.66387 0
M  V30 2071 N 203.978 -0.674533 1.42435 0
M  V30 2072 C 205.227 -1.43034 1.42212 0
M  V30 2073 C 205.54 -1.95555 0.0420788 0
M  V30 2074 O 206.746 -2.71374 -0.0827558 0
M  V30 2075 C 205.202 -2.58748 2.50155 0
M  V30 2076 C 204.81 -2.12925 3.94166 0
M  V30 2077 C 206.554 -3.36257 2.59098 0
M  V30 2078 C 204.461 -3.25723 4.93618 0
M  V30 2079 H 203.391 -0.537345 0.528939 0
M  V30 2080 H 206.042 -0.73024 1.68344 0
M  V30 2081 H 204.424 -3.31128 2.17188 0
M  V30 2082 H 205.598 -1.47697 4.36488 0
M  V30 2083 H 203.913 -1.48354 3.89076 0
M  V30 2084 H 206.51 -4.20264 3.30578 0
M  V30 2085 H 206.853 -3.82866 1.63461 0
M  V30 2086 H 207.386 -2.70947 2.9126 0
M  V30 2087 H 204.125 -2.84105 5.90732 0
M  V30 2088 H 203.645 -3.89732 4.55926 0
M  V30 2089 H 205.324 -3.91186 5.15347 0
M  V30 2090 N 205.456 -1.28612 -0.910864 0
M  V30 2091 C 206.686 -1.1862 -1.69153 0
M  V30 2092 C 207.094 0.257324 -1.87442 0
M  V30 2093 O 206.437 1.18543 -1.40332 0
M  V30 2094 C 206.499 -1.81606 -3.10257 0
M  V30 2095 C 206.163 -3.30864 -3.15243 0
M  V30 2096 C 207.16 -4.27256 -2.96223 0
M  V30 2097 C 204.845 -3.71871 -3.37664 0
M  V30 2098 C 206.839 -5.62631 -2.99541 0
M  V30 2099 C 204.526 -5.07371 -3.40614 0
M  V30 2100 C 205.524 -6.02561 -3.21573 0
M  V30 2101 O 205.212 -7.35589 -3.2429 0
M  V30 2102 H 204.944 -0.412633 -0.535453 0
M  V30 2103 H 207.498 -1.70306 -1.14827 0
M  V30 2104 H 205.728 -1.24418 -3.66138 0
M  V30 2105 H 207.417 -1.66092 -3.70362 0
M  V30 2106 H 208.183 -3.9691 -2.78725 0
M  V30 2107 H 204.062 -2.98241 -3.5153 0
M  V30 2108 H 207.606 -6.36907 -2.84597 0
M  V30 2109 H 203.503 -5.37366 -3.57642 0
M  V30 2110 H 204.271 -7.44252 -3.40633 0
M  V30 2111 N 206.934 1.1197 -1.10907 0
M  V30 2112 C 208.345 1.65114 -0.871446 0
M  V30 2113 C 208.696 1.86885 0.597353 0
M  V30 2114 O 207.821 1.59896 1.45816 0
M  V30 2115 C 208.416 2.99944 -1.5754 0
M  V30 2116 C 206.975 3.50018 -1.38435 0
M  V30 2117 C 206.122 2.24941 -1.62164 0
M  V30 2118 H 209.073 0.956851 -1.2661 0
M  V30 2119 H 209.094 3.66651 -1.01721 0
M  V30 2120 H 208.606 2.84067 -2.64438 0
M  V30 2121 H 206.707 3.71071 -0.337214 0
M  V30 2122 H 206.82 4.29165 -2.12965 0
M  V30 2123 H 205.184 2.3229 -1.04467 0
M  V30 2124 H 205.967 2.11612 -2.70324 0
M  V30 2125 N 208.412 0.89855 1.29475 0
M  V30 2126 C 209.342 0.39201 2.30186 0
M  V30 2127 C 210.323 -0.532359 1.61555 0
M  V30 2128 O 211.508 -0.443331 1.89072 0
M  V30 2129 C 208.638 -0.382353 3.45189 0
M  V30 2130 C 207.592 0.451483 4.25612 0
M  V30 2131 C 206.918 -0.450307 5.328 0
M  V30 2132 C 208.218 1.70079 4.93832 0
M  V30 2133 H 209.912 1.23362 2.72804 0
M  V30 2134 H 207.458 0.594638 1.31149 0
M  V30 2135 H 209.411 -0.747451 4.14718 0
M  V30 2136 H 208.135 -1.25774 3.01411 0
M  V30 2137 H 206.794 0.798897 3.57789 0
M  V30 2138 H 206.442 -1.32379 4.85268 0
M  V30 2139 H 206.142 0.103902 5.87508 0
M  V30 2140 H 207.666 -0.811623 6.05182 0
M  V30 2141 H 209.08 1.40549 5.55805 0
M  V30 2142 H 207.477 2.19623 5.58467 0
M  V30 2143 H 208.547 2.43744 4.19186 0
M  V30 2144 N 209.89 -1.43072 0.660911 0
M  V30 2145 C 211.118 -2.06067 0.185422 0
M  V30 2146 C 211.533 -1.49582 -1.15198 0
M  V30 2147 O 210.89 -0.630134 -1.71276 0
M  V30 2148 C 210.941 -3.61371 0.0966523 0
M  V30 2149 O 210.662 -4.15758 1.38119 0
M  V30 2150 C 212.163 -4.41455 -0.403996 0
M  V30 2151 H 209.383 -0.664459 0.0934604 0
M  V30 2152 H 211.927 -1.83447 0.90373 0
M  V30 2153 H 210.082 -3.8315 -0.572259 0
M  V30 2154 H 210.496 -5.09499 1.24542 0
M  V30 2155 H 211.97 -5.50437 -0.415045 0
M  V30 2156 H 212.447 -4.15036 -1.43674 0
M  V30 2157 H 213.053 -4.24663 0.232691 0
M  V30 2158 N 211.368 -0.403325 -1.52352 0
M  V30 2159 C 212.779 0.0675782 -1.86578 0
M  V30 2160 C 213.13 1.44941 -1.32236 0
M  V30 2161 O 212.255 2.06112 -0.659307 0
M  V30 2162 C 212.85 0.129404 -3.38553 0
M  V30 2163 C 211.409 0.544629 -3.72439 0
M  V30 2164 C 210.556 -0.284551 -2.75836 0
M  V30 2165 H 213.507 -0.620631 -1.46061 0
M  V30 2166 H 213.528 0.94581 -3.68558 0
M  V30 2167 H 213.04 -0.87645 -3.78074 0
M  V30 2168 H 211.141 1.55734 -3.38493 0
M  V30 2169 H 211.254 0.293046 -4.78203 0
M  V30 2170 H 209.618 0.252258 -2.53448 0
M  V30 2171 H 210.401 -1.28865 -3.18196 0
M  V30 2172 N 212.846 1.57033 -0.133567 0
M  V30 2173 C 213.756 2.19632 0.824564 0
M  V30 2174 C 214.772 1.17666 1.28182 0
M  V30 2175 O 215.948 1.50193 1.3418 0
M  V30 2176 C 213.013 2.79499 2.05137 0
M  V30 2177 C 212.074 3.96548 1.64464 0
M  V30 2178 C 211.307 4.5355 2.81297 0
M  V30 2179 O 211.53 4.09438 3.97136 0
M  V30 2180 O 210.464 5.44018 2.57542 0
M  V30 2181 H 214.29 3.01991 0.321766 0
M  V30 2182 H 211.875 1.49112 0.0927889 0
M  V30 2183 H 213.757 3.17602 2.7696 0
M  V30 2184 H 212.432 2.00162 2.54395 0
M  V30 2185 H 211.339 3.63186 0.897048 0
M  V30 2186 H 212.672 4.77364 1.19934 0
M  V30 2187 N 214.325 -0.140222 1.56975 0
M  V30 2188 C 215.257 -1.19818 1.95388 0
M  V30 2189 C 216.27 -1.38816 0.850525 0
M  V30 2190 O 217.459 -1.38267 1.12891 0
M  V30 2191 C 214.559 -2.56189 2.21857 0
M  V30 2192 C 213.732 -2.58077 3.5315 0
M  V30 2193 C 212.791 -3.76037 3.6808 0
M  V30 2194 O 211.817 -3.60598 4.40406 0
M  V30 2195 N 213.019 -4.93763 3.05251 0
M  V30 2196 H 215.784 -0.871609 2.86746 0
M  V30 2197 H 213.345 -0.32972 1.58507 0
M  V30 2198 H 215.337 -3.33623 2.2908 0
M  V30 2199 H 213.907 -2.81111 1.36731 0
M  V30 2200 H 213.127 -1.6651 3.57307 0
M  V30 2201 H 214.415 -2.56377 4.39486 0
M  V30 2202 H 213.813 -5.09209 2.46419 0
M  V30 2203 H 212.37 -5.68949 3.18026 0
M  V30 2204 N 215.803 -1.52179 -0.40978 0
M  V30 2205 C 217.08 -1.56769 -1.16974 0
M  V30 2206 C 217.46 -0.348322 -2.08206 0
M  V30 2207 O 216.808 0.664862 -2.18613 0
M  V30 2208 C 217.018 -2.89603 -1.9476 0
M  V30 2209 C 218.366 -3.42579 -2.50849 0
M  V30 2210 O 219.39 -2.91338 -2.04941 0
M  V30 2211 O 218.249 -4.32054 -3.34652 0
M  V30 2212 H 215.343 -0.631439 -0.534054 0
M  V30 2213 H 217.889 -1.64507 -0.416613 0
M  V30 2214 H 216.661 -3.698 -1.27921 0
M  V30 2215 H 216.284 -2.85155 -2.77079 0
M  V30 2216 N 217.281 0.66697 -1.42791 0
M  V30 2217 C 218.244 1.76211 -1.46568 0
M  V30 2218 C 219.244 1.56896 -0.352196 0
M  V30 2219 O 220.434 1.63044 -0.613364 0
M  V30 2220 C 217.566 3.14935 -1.30494 0
M  V30 2221 H 218.759 1.74247 -2.44086 0
M  V30 2222 H 216.312 0.877342 -1.29354 0
M  V30 2223 H 217.047 3.2252 -0.339301 0
M  V30 2224 H 216.832 3.30359 -2.11199 0
M  V30 2225 H 218.322 3.94821 -1.36038 0
M  V30 2226 N 218.759 1.29093 0.90403 0
M  V30 2227 C 219.722 1.1386 1.98919 0
M  V30 2228 C 220.722 0.0753457 1.60623 0
M  V30 2229 O 221.912 0.321931 1.71199 0
M  V30 2230 C 219.044 0.740198 3.32767 0
M  V30 2231 H 220.237 2.10246 2.13861 0
M  V30 2232 H 217.79 1.12218 1.08797 0
M  V30 2233 H 218.525 -0.223997 3.23525 0
M  V30 2234 H 218.31 1.50838 3.61926 0
M  V30 2235 H 219.8 0.656546 4.12407 0
M  V30 2236 N 220.237 -1.11381 1.11499 0
M  V30 2237 C 221.2 -2.15622 0.777153 0
M  V30 2238 C 222.2 -1.59504 -0.203779 0
M  V30 2239 O 223.39 -1.74188 0.020782 0
M  V30 2240 C 220.522 -3.40556 0.153116 0
M  V30 2241 H 221.715 -2.47021 1.70061 0
M  V30 2242 H 219.268 -1.26577 0.916952 0
M  V30 2243 H 220.003 -3.14767 -0.780536 0
M  V30 2244 H 219.788 -3.8257 0.859238 0
M  V30 2245 H 221.278 -4.17546 -0.0671044 0
M  V30 2246 N 221.715 -0.905404 -1.28997 0
M  V30 2247 C 223.131 -0.60233 -1.47798 0
M  V30 2248 C 223.331 0.854645 -1.82478 0
M  V30 2249 O 222.387 1.63439 -1.92468 0
M  V30 2250 C 223.7 -1.53306 -2.58685 0
M  V30 2251 C 225.248 -1.53887 -2.72558 0
M  V30 2252 C 225.723 -2.45602 -3.86579 0
M  V30 2253 N 227.214 -2.43681 -3.93921 0
M  V30 2254 C 227.949 -3.11347 -4.81509 0
M  V30 2255 N 227.445 -3.88313 -5.73746 0
M  V30 2256 N 229.238 -3.00476 -4.75048 0
M  V30 2257 H 221.389 -1.84765 -1.04764 0
M  V30 2258 H 223.652 -0.792025 -0.520961 0
M  V30 2259 H 223.358 -2.57141 -2.39941 0
M  V30 2260 H 223.232 -1.25787 -3.55609 0
M  V30 2261 H 225.619 -0.507941 -2.90696 0
M  V30 2262 H 225.7 -1.85447 -1.76191 0
M  V30 2263 H 225.344 -3.48792 -3.69197 0
M  V30 2264 H 225.274 -2.11349 -4.82327 0
M  V30 2265 H 227.765 -1.87767 -3.27951 0
M  V30 2266 H 228.078 -4.36985 -6.37389 0
M  V30 2267 H 226.423 -3.92419 -5.73614 0
M  V30 2268 H 229.614 -2.39858 -4.01977 0
M  V30 2269 H 229.787 -3.53485 -5.43095 0
M  V30 2270 N 223.193 1.4272 -0.668489 0
M  V30 2271 C 224.156 2.292 0.00448567 0
M  V30 2272 C 225.156 1.43001 0.735339 0
M  V30 2273 O 226.346 1.64461 0.57429 0
M  V30 2274 C 223.478 3.25375 1.01705 0
M  V30 2275 H 224.671 2.90199 -0.756608 0
M  V30 2276 H 222.224 1.50254 -0.430506 0
M  V30 2277 H 222.959 2.69301 1.80686 0
M  V30 2278 H 222.744 3.88944 0.496463 0
M  V30 2279 H 224.234 3.90245 1.48655 0
M  V30 2280 N 224.671 0.411399 1.52136 0
M  V30 2281 C 225.896 -0.165538 2.06738 0
M  V30 2282 C 226.321 -1.379 1.27926 0
M  V30 2283 O 225.679 -1.78628 0.310114 0
M  V30 2284 C 225.727 -0.492124 3.57226 0
M  V30 2285 O 224.831 -1.58276 3.80818 0
M  V30 2286 H 224.172 -0.0132132 0.663869 0
M  V30 2287 H 226.702 0.585253 1.96051 0
M  V30 2288 H 226.712 -0.750104 4.01045 0
M  V30 2289 H 225.387 0.394922 4.14021 0
M  V30 2290 H 223.964 -1.31677 3.48877 0
M  V30 2291 N 226.149 -1.5696 0.141893 0
M  V30 2292 C 227.079 -2.19516 -0.795936 0
M  V30 2293 C 228.06 -1.14187 -1.26077 0
M  V30 2294 O 229.245 -1.42511 -1.31925 0
M  V30 2295 C 226.375 -2.81272 -2.03723 0
M  V30 2296 C 225.329 -3.92384 -1.70936 0
M  V30 2297 C 224.655 -4.41052 -3.02287 0
M  V30 2298 C 225.955 -5.13403 -0.959954 0
M  V30 2299 H 227.649 -2.98138 -0.274596 0
M  V30 2300 H 225.195 -1.43406 -0.130636 0
M  V30 2301 H 227.148 -3.237 -2.69808 0
M  V30 2302 H 225.872 -1.99973 -2.58221 0
M  V30 2303 H 224.531 -3.50566 -1.07232 0
M  V30 2304 H 224.179 -3.56582 -3.54765 0
M  V30 2305 H 223.879 -5.15993 -2.81114 0
M  V30 2306 H 225.403 -4.86146 -3.69451 0
M  V30 2307 H 226.817 -5.52706 -1.52279 0
M  V30 2308 H 225.214 -5.94073 -0.848357 0
M  V30 2309 H 226.284 -4.84875 0.0492434 0
M  V30 2310 N 227.627 0.131896 -1.57047 0
M  V30 2311 C 228.537 1.1815 -2.02676 0
M  V30 2312 C 229.553 1.46113 -0.944824 0
M  V30 2313 O 230.729 1.57485 -1.25541 0
M  V30 2314 C 227.794 2.49139 -2.41103 0
M  V30 2315 C 226.855 2.28688 -3.63318 0
M  V30 2316 C 226.088 3.53431 -3.99903 0
M  V30 2317 O 226.311 4.60223 -3.36973 0
M  V30 2318 O 225.245 3.45198 -4.93074 0
M  V30 2319 H 229.071 0.824069 -2.92306 0
M  V30 2320 H 226.656 0.341745 -1.45439 0
M  V30 2321 H 228.538 3.26338 -2.66611 0
M  V30 2322 H 227.213 2.84382 -1.54624 0
M  V30 2323 H 226.12 1.4939 -3.42977 0
M  V30 2324 H 227.453 1.98355 -4.50462 0
M  V30 2325 N 229.106 1.52395 0.401703 0
M  V30 2326 C 230.522 1.41363 0.740864 0
M  V30 2327 C 230.722 0.523982 1.94568 0
M  V30 2328 O 229.778 -0.00741204 2.52499 0
M  V30 2329 C 231.091 2.84011 0.987847 0
M  V30 2330 C 232.639 2.93404 1.09011 0
M  V30 2331 C 233.114 4.37036 1.3698 0
M  V30 2332 N 234.605 4.40304 1.43829 0
M  V30 2333 C 235.34 5.48508 1.67112 0
M  V30 2334 N 234.836 6.66819 1.87949 0
M  V30 2335 N 236.629 5.36034 1.69187 0
M  V30 2336 H 228.78 2.08765 -0.391262 0
M  V30 2337 H 231.043 0.941265 -0.112798 0
M  V30 2338 H 230.749 3.51265 0.174835 0
M  V30 2339 H 230.623 3.25502 1.906 0
M  V30 2340 H 233.01 2.26325 1.8937 0
M  V30 2341 H 233.091 2.55359 0.15015 0
M  V30 2342 H 232.735 5.04676 0.571353 0
M  V30 2343 H 232.665 4.72623 2.3224 0
M  V30 2344 H 235.156 3.55024 1.29486 0
M  V30 2345 H 235.469 7.45063 2.05185 0
M  V30 2346 H 233.814 6.6987 1.85199 0
M  V30 2347 H 237.005 4.42579 1.52451 0
M  V30 2348 H 237.178 6.20434 1.86993 0
M  V30 2349 N 230.584 -0.659388 1.43143 0
M  V30 2350 C 231.831 -1.41935 1.44433 0
M  V30 2351 C 232.159 -1.94387 0.0663522 0
M  V30 2352 O 231.414 -1.72314 -0.927706 0
M  V30 2353 C 231.713 -2.62206 2.42864 0
M  V30 2354 C 231.379 -2.28208 3.88886 0
M  V30 2355 C 230.041 -2.18647 4.28657 0
M  V30 2356 C 232.393 -2.00887 4.8093 0
M  V30 2357 C 229.721 -1.79914 5.58433 0
M  V30 2358 C 232.073 -1.63653 6.11065 0
M  V30 2359 C 230.737 -1.52614 6.49819 0
M  V30 2360 H 230.007 -0.519376 0.528517 0
M  V30 2361 H 232.654 -0.750453 1.76183 0
M  V30 2362 H 230.959 -3.34199 2.04495 0
M  V30 2363 H 232.656 -3.2041 2.41119 0
M  V30 2364 H 229.246 -2.36557 3.57406 0
M  V30 2365 H 233.43 -2.07198 4.5098 0
M  V30 2366 H 228.686 -1.69948 5.87305 0
M  V30 2367 H 232.86 -1.41543 6.81864 0
M  V30 2368 H 230.487 -1.22371 7.50286 0
M  V30 2369 N 232.062 -1.29571 -0.897171 0
M  V30 2370 C 232.994 -1.10724 -2.00681 0
M  V30 2371 C 234.007 -0.0540026 -1.6271 0
M  V30 2372 O 235.196 -0.298783 -1.75982 0
M  V30 2373 C 232.296 -0.663912 -3.32333 0
M  V30 2374 C 231.469 -1.79622 -3.98816 0
M  V30 2375 C 230.528 -1.34349 -5.0876 0
M  V30 2376 O 229.554 -2.04864 -5.31055 0
M  V30 2377 N 230.756 -0.215764 -5.80099 0
M  V30 2378 H 233.521 -2.06291 -2.17403 0
M  V30 2379 H 231.082 -1.21544 -1.06951 0
M  V30 2380 H 233.074 -0.344295 -4.03233 0
M  V30 2381 H 231.644 0.199375 -3.11964 0
M  V30 2382 H 230.864 -2.28459 -3.21248 0
M  V30 2383 H 232.152 -2.55535 -4.39976 0
M  V30 2384 H 231.55 0.372091 -5.64475 0
M  V30 2385 H 230.107 0.0444707 -6.51785 0
M  V30 2386 N 233.54 1.10788 -1.12088 0
M  V30 2387 C 234.503 2.15207 -0.788577 0
M  V30 2388 C 235.503 1.59609 0.195317 0
M  V30 2389 O 236.693 1.74174 -0.0300193 0
M  V30 2390 C 233.825 3.4047 -0.171174 0
M  V30 2391 H 235.018 2.46116 -1.71368 0
M  V30 2392 H 232.571 1.26089 -0.923652 0
M  V30 2393 H 233.306 3.15176 0.763832 0
M  V30 2394 H 233.091 3.82109 -0.879514 0
M  V30 2395 H 234.581 4.17576 0.04496 0
M  V30 2396 N 235.018 0.912232 1.28515 0
M  V30 2397 C 235.981 0.404223 2.25607 0
M  V30 2398 C 236.981 -0.468602 1.53821 0
M  V30 2399 O 238.171 -0.271873 1.72065 0
M  V30 2400 C 235.303 -0.420653 3.38295 0
M  V30 2401 H 236.496 1.26188 2.7206 0
M  V30 2402 H 234.049 0.691495 1.40171 0
M  V30 2403 H 234.784 -1.29777 2.97201 0
M  V30 2404 H 234.569 0.204935 3.91564 0
M  V30 2405 H 236.059 -0.766971 4.10496 0
M  V30 2406 N 236.496 -1.42363 0.676048 0
M  V30 2407 C 237.429 -2.28141 -0.0516916 0
M  V30 2408 C 238.407 -1.41135 -0.807439 0
M  V30 2409 O 239.591 -1.70573 -0.802305 0
M  V30 2410 C 236.718 -3.21007 -1.08039 0
M  V30 2411 C 235.764 -4.24426 -0.420076 0
M  V30 2412 S 236.597 -5.29134 0.823246 0
M  V30 2413 C 237.753 -6.25566 -0.204344 0
M  V30 2414 H 237.986 -2.89515 0.675884 0
M  V30 2415 H 235.519 -1.47211 0.465635 0
M  V30 2416 H 237.477 -3.75048 -1.66881 0
M  V30 2417 H 236.138 -2.58766 -1.78042 0
M  V30 2418 H 235.331 -4.89596 -1.19633 0
M  V30 2419 H 234.933 -3.7388 0.0947845 0
M  V30 2420 H 237.225 -6.69098 -1.06369 0
M  V30 2421 H 238.168 -7.06895 0.412915 0
M  V30 2422 H 238.576 -5.61811 -0.55038 0
M  V30 2423 N 237.974 -0.419461 -1.51915 0
M  V30 2424 C 238.904 0.391813 -2.30189 0
M  V30 2425 C 239.885 1.03699 -1.34836 0
M  V30 2426 O 241.07 1.04403 -1.63748 0
M  V30 2427 C 238.2 1.50312 -3.13087 0
M  V30 2428 C 237.154 0.9824 -4.16573 0
M  V30 2429 C 236.48 2.18809 -4.8788 0
M  V30 2430 C 237.78 0.0292356 -5.22292 0
M  V30 2431 H 239.474 -0.26135 -2.98257 0
M  V30 2432 H 237.02 -0.127134 -1.43438 0
M  V30 2433 H 238.973 2.07773 -3.66617 0
M  V30 2434 H 237.697 2.18431 -2.42807 0
M  V30 2435 H 236.356 0.430119 -3.64068 0
M  V30 2436 H 236.004 2.85507 -4.14119 0
M  V30 2437 H 235.704 1.84615 -5.57845 0
M  V30 2438 H 237.228 2.76858 -5.44226 0
M  V30 2439 H 238.642 0.512976 -5.71 0
M  V30 2440 H 237.039 -0.2244 -5.9968 0
M  V30 2441 H 238.109 -0.912931 -4.76228 0
M  V30 2442 N 239.452 1.56882 -0.150215 0
M  V30 2443 C 240.415 2.1573 0.774157 0
M  V30 2444 C 241.415 1.0999 1.17298 0
M  V30 2445 O 242.605 1.35613 1.09338 0
M  V30 2446 C 239.737 2.72302 2.05096 0
M  V30 2447 H 240.93 2.98752 0.262201 0
M  V30 2448 H 238.483 1.55985 0.099248 0
M  V30 2449 H 239.218 1.92956 2.6065 0
M  V30 2450 H 239.003 3.49665 1.77416 0
M  V30 2451 H 240.493 3.17632 2.71109 0
M  V30 2452 N 240.93 -0.123565 1.57115 0
M  V30 2453 C 241.893 -1.13583 1.99076 0
M  V30 2454 C 242.893 -1.34564 0.880296 0
M  V30 2455 O 244.083 -1.31158 1.14644 0
M  V30 2456 C 241.215 -2.49128 2.32698 0
M  V30 2457 H 242.408 -0.775287 2.89706 0
M  V30 2458 H 239.961 -0.36771 1.51913 0
M  V30 2459 H 240.696 -2.90111 1.44934 0
M  V30 2460 H 240.481 -2.35255 3.13684 0
M  V30 2461 H 241.971 -3.2199 2.65918 0
M  V30 2462 N 242.408 -1.52605 -0.393616 0
M  V30 2463 C 243.685 -1.58001 -1.15304 0
M  V30 2464 C 244.065 -0.370385 -2.07825 0
M  V30 2465 O 243.413 0.641638 -2.19306 0
M  V30 2466 C 243.623 -2.91652 -1.91677 0
M  V30 2467 C 244.971 -3.4522 -2.47201 0
M  V30 2468 O 245.995 -2.93495 -2.01839 0
M  V30 2469 O 244.854 -4.35579 -3.3005 0
M  V30 2470 H 241.948 -0.637068 -0.527327 0
M  V30 2471 H 244.494 -1.64939 -0.399141 0
M  V30 2472 H 243.266 -3.71136 -1.23992 0
M  V30 2473 H 242.889 -2.88077 -2.74039 0
M  V30 2474 N 243.887 0.651787 -1.4349 0
M  V30 2475 C 245.164 1.40909 -1.35661 0
M  V30 2476 C 245.544 2.11099 -0.00511733 0
M  V30 2477 O 244.892 2.04892 1.0115 0
M  V30 2478 C 245.102 2.3926 -2.54078 0
M  V30 2479 C 246.45 3.03217 -2.97228 0
M  V30 2480 O 247.474 2.49588 -2.54135 0
M  V30 2481 O 246.333 4.00455 -3.71885 0
M  V30 2482 H 243.427 0.629625 -0.536191 0
M  V30 2483 H 245.973 0.678575 -1.55542 0
M  V30 2484 H 244.745 1.86352 -3.44076 0
M  V30 2485 H 244.368 3.1976 -2.36303 0
M  V30 2486 N 245.365 1.30045 0.890287 0
M  V30 2487 C 246.642 1.09227 1.62262 0
M  V30 2488 C 247.022 -0.360305 2.08002 0
M  V30 2489 O 246.37 -1.35084 1.84295 0
M  V30 2490 C 246.58 2.08835 2.79623 0
M  V30 2491 C 247.928 2.40266 3.50082 0
M  V30 2492 O 248.952 2.07104 2.89804 0
M  V30 2493 O 247.811 2.96967 4.58773 0
M  V30 2494 H 244.905 0.419132 0.712922 0
M  V30 2495 H 247.451 1.41451 0.937529 0
M  V30 2496 H 246.223 3.06633 2.43089 0
M  V30 2497 H 245.846 1.77397 3.55832 0
M  V30 2498 N 246.843 -1.10192 1.12674 0
M  V30 2499 C 248.259 -1.34235 0.863317 0
M  V30 2500 C 248.459 -1.95062 -0.505277 0
M  V30 2501 O 247.515 -2.19192 -1.25345 0
M  V30 2502 C 248.828 -2.2616 1.98172 0
M  V30 2503 C 250.376 -2.3969 2.0129 0
M  V30 2504 C 250.851 -3.34946 3.1237 0
M  V30 2505 N 252.342 -3.42515 3.11829 0
M  V30 2506 C 253.077 -4.16199 3.94419 0
M  V30 2507 N 252.573 -4.92747 4.87004 0
M  V30 2508 N 254.366 -4.11843 3.82547 0
M  V30 2509 H 246.517 -0.690798 2.00853 0
M  V30 2510 H 248.78 -0.366774 0.874174 0
M  V30 2511 H 248.486 -1.8868 2.96804 0
M  V30 2512 H 248.36 -3.26488 1.88906 0
M  V30 2513 H 250.747 -2.76438 1.03276 0
M  V30 2514 H 250.828 -1.39169 2.14629 0
M  V30 2515 H 250.472 -2.98923 4.10619 0
M  V30 2516 H 250.402 -4.35353 2.96269 0
M  V30 2517 H 252.893 -2.87926 2.44759 0
M  V30 2518 H 253.206 -5.46376 5.46528 0
M  V30 2519 H 251.551 -4.91862 4.91016 0
M  V30 2520 H 254.742 -3.51136 3.0955 0
M  V30 2521 H 254.915 -4.69007 4.47142 0
M  V30 2522 N 248.321 -0.919034 -1.28029 0
M  V30 2523 C 249.271 -0.382574 -2.24767 0
M  V30 2524 C 250.255 0.508286 -1.52661 0
M  V30 2525 O 251.447 0.347145 -1.73562 0
M  V30 2526 C 248.576 0.371432 -3.41285 0
M  V30 2527 C 247.662 -0.535449 -4.20706 0
M  V30 2528 N 248.053 -1.65141 -4.78082 0
M  V30 2529 C 246.351 -0.336824 -4.44726 0
M  V30 2530 C 247.052 -2.21475 -5.37888 0
M  V30 2531 N 246.028 -1.50537 -5.22341 0
M  V30 2532 H 249.83 -1.23477 -2.66703 0
M  V30 2533 H 247.344 -0.772299 -1.42861 0
M  V30 2534 H 249.341 0.772638 -4.09678 0
M  V30 2535 H 248.001 1.22066 -3.00882 0
M  V30 2536 H 249.012 -2.03392 -4.7629 0
M  V30 2537 H 245.689 0.47246 -4.14818 0
M  V30 2538 H 247.079 -3.15379 -5.93284 0
M  V30 2539 N 249.799 1.42003 -0.683588 0
M  V30 2540 C 251.048 2.00638 -0.206681 0
M  V30 2541 C 251.361 1.5472 1.19671 0
M  V30 2542 O 252.567 2.05833 1.77045 0
M  V30 2543 C 251.023 3.58487 -0.318632 0
M  V30 2544 C 250.631 4.1339 -1.72663 0
M  V30 2545 C 252.375 4.24384 0.0991141 0
M  V30 2546 C 250.282 5.63633 -1.79087 0
M  V30 2547 H 249.212 0.750408 -0.0735107 0
M  V30 2548 H 251.863 1.62624 -0.850048 0
M  V30 2549 H 250.245 3.94047 0.392781 0
M  V30 2550 H 251.419 3.89273 -2.46583 0
M  V30 2551 H 249.734 3.59976 -2.09299 0
M  V30 2552 H 252.331 5.34652 0.0713833 0
M  V30 2553 H 252.674 4.00505 1.13586 0
M  V30 2554 H 253.207 3.93816 -0.561599 0
M  V30 2555 H 249.946 5.92323 -2.80774 0
M  V30 2556 H 249.466 5.89714 -1.09535 0
M  V30 2557 H 251.145 6.28201 -1.5483 0
M  V30 2558 N 251.277 0.427512 1.51691 0
M  V30 2559 C 252.505 -0.141191 2.06418 0
M  V30 2560 C 252.92 -1.37303 1.29589 0
M  V30 2561 O 252.277 -1.79059 0.352732 0
M  V30 2562 C 252.328 -0.473266 3.58389 0
M  V30 2563 O 252.049 0.709673 4.32314 0
M  V30 2564 C 253.55 -1.09371 4.29596 0
M  V30 2565 H 250.77 -0.0122747 0.670888 0
M  V30 2566 H 253.314 0.603764 1.95384 0
M  V30 2567 H 251.469 -1.16812 3.69369 0
M  V30 2568 H 251.883 0.42807 5.2275 0
M  V30 2569 H 253.357 -1.27613 5.37046 0
M  V30 2570 H 253.834 -2.072 3.87253 0
M  V30 2571 H 254.44 -0.43853 4.23033 0
M  V30 2572 N 252.755 -1.56801 0.158532 0
M  V30 2573 C 253.983 -2.00859 -0.496303 0
M  V30 2574 C 254.398 -1.03871 -1.57659 0
M  V30 2575 O 253.755 -0.0375165 -1.82461 0
M  V30 2576 C 253.806 -3.4479 -1.08638 0
M  V30 2577 O 253.527 -4.38072 -0.0492322 0
M  V30 2578 C 255.028 -4.04185 -1.8207 0
M  V30 2579 H 252.248 -0.65864 -0.128199 0
M  V30 2580 H 254.792 -2.02885 0.256506 0
M  V30 2581 H 252.947 -3.43579 -1.78975 0
M  V30 2582 H 253.361 -5.2227 -0.483102 0
M  V30 2583 H 254.835 -5.06857 -2.18633 0
M  V30 2584 H 255.312 -3.45549 -2.71095 0
M  V30 2585 H 255.918 -4.0906 -1.16405 0
M  V30 2586 N 254.233 0.115231 -1.57178 0
M  V30 2587 C 255.143 1.15994 -2.03918 0
M  V30 2588 C 256.159 1.45103 -0.960268 0
M  V30 2589 O 257.335 1.56144 -1.27204 0
M  V30 2590 C 254.4 2.46568 -2.43732 0
M  V30 2591 C 253.461 2.24822 -3.65723 0
M  V30 2592 C 252.694 3.4917 -4.03629 0
M  V30 2593 O 252.917 4.56623 -3.41835 0
M  V30 2594 O 251.851 3.39949 -4.96708 0
M  V30 2595 H 255.677 0.793019 -2.93164 0
M  V30 2596 H 253.262 0.3263 -1.45793 0
M  V30 2597 H 255.144 3.23492 -2.70057 0
M  V30 2598 H 253.819 2.82726 -1.57631 0
M  V30 2599 H 252.726 1.45744 -3.44542 0
M  V30 2600 H 254.059 1.93566 -4.52541 0
M  V30 2601 N 255.711 1.52812 0.385517 0
M  V30 2602 C 256.96 1.67249 1.12741 0
M  V30 2603 C 257.273 0.4205 1.91027 0
M  V30 2604 O 258.479 0.445064 2.67827 0
M  V30 2605 C 256.935 2.95583 2.05326 0
M  V30 2606 C 256.543 4.27974 1.32447 0
M  V30 2607 C 258.287 3.19386 2.7963 0
M  V30 2608 C 256.194 5.47412 2.23818 0
M  V30 2609 H 255.124 0.6231 0.424573 0
M  V30 2610 H 257.775 1.79309 0.389924 0
M  V30 2611 H 256.157 2.77277 2.82725 0
M  V30 2612 H 257.331 4.56844 0.602495 0
M  V30 2613 H 255.646 4.10459 0.700885 0
M  V30 2614 H 258.243 4.05801 3.48181 0
M  V30 2615 H 258.586 2.34604 3.43899 0
M  V30 2616 H 259.119 3.38274 2.09322 0
M  V30 2617 H 255.858 6.34612 1.64157 0
M  V30 2618 H 255.378 5.22849 2.93921 0
M  V30 2619 H 257.057 5.81423 2.83824 0
M  V30 2620 N 257.189 -0.644168 1.43834 0
M  V30 2621 C 258.152 -1.73857 1.49353 0
M  V30 2622 C 259.152 -1.56315 0.377112 0
M  V30 2623 O 260.342 -1.62048 0.639226 0
M  V30 2624 C 257.474 -3.12819 1.35488 0
M  V30 2625 H 258.667 -1.70342 2.46827 0
M  V30 2626 H 256.22 -0.856652 1.30733 0
M  V30 2627 H 256.955 -3.2194 0.390569 0
M  V30 2628 H 256.74 -3.26958 2.16428 0
M  V30 2629 H 258.23 -3.92606 1.42302 0
M  V30 2630 N 258.668 -1.30515 -0.883378 0
M  V30 2631 C 259.616 -1.16941 -2.01066 0
M  V30 2632 C 260.61 -0.0809148 -1.69207 0
M  V30 2633 O 261.816 -0.241877 -1.78367 0
M  V30 2634 H 258.191 -0.361705 -0.659298 0
M  V30 2635 H 260.162 -2.12344 -2.09649 0
M  V30 2636 C 258.911 -0.879694 -3.36388 0
M  V30 2637 H 258.234 -1.70936 -3.61415 0
M  V30 2638 H 259.674 -0.82483 -4.159 0
M  V30 2639 C 258.133 0.417409 -3.34304 0
M  V30 2640 O 258.663 1.43843 -3.75063 0
M  V30 2641 N 256.869 0.429141 -2.87414 0
M  V30 2642 H 256.416 -0.402222 -2.5444 0
M  V30 2643 H 256.374 1.29696 -2.86403 0
M  V30 2644 N 260.146 1.09593 -1.13257 0
M  V30 2645 C 261.109 2.14359 -0.811358 0
M  V30 2646 C 262.109 1.59808 0.178377 0
M  V30 2647 O 263.299 1.74132 -0.0484911 0
M  V30 2648 C 260.431 3.40269 -0.207276 0
M  V30 2649 H 261.624 2.44284 -1.73969 0
M  V30 2650 H 259.177 1.25102 -0.936973 0
M  V30 2651 H 259.912 3.15969 0.73036 0
M  V30 2652 H 259.697 3.81154 -0.919992 0
M  V30 2653 H 261.187 4.176 0.000667944 0
M  V30 2654 N 261.624 0.925811 1.2754 0
M  V30 2655 C 262.852 0.581509 1.9856 0
M  V30 2656 C 263.267 -0.840041 1.69082 0
M  V30 2657 O 262.624 -1.55805 0.950312 0
M  V30 2658 C 262.675 0.795589 3.52637 0
M  V30 2659 O 262.396 2.16121 3.81082 0
M  V30 2660 C 263.897 0.459744 4.4091 0
M  V30 2661 H 261.117 0.220538 0.633722 0
M  V30 2662 H 263.661 1.24232 1.6244 0
M  V30 2663 H 261.816 0.18161 3.86974 0
M  V30 2664 H 262.23 2.2098 4.75676 0
M  V30 2665 H 263.704 0.660244 5.48037 0
M  V30 2666 H 264.181 -0.604625 4.35018 0
M  V30 2667 H 264.787 1.05178 4.12089 0
M  V30 2668 N 263.102 -1.41638 0.69111 0
M  V30 2669 C 264.513 -1.84346 0.295517 0
M  V30 2670 C 264.864 -1.57833 -1.16547 0
M  V30 2671 O 263.989 -1.04648 -1.89414 0
M  V30 2672 C 264.584 -3.34636 0.529575 0
M  V30 2673 C 263.143 -3.7593 0.187944 0
M  V30 2674 C 262.29 -2.65082 0.814052 0
M  V30 2675 H 265.241 -1.31253 0.892092 0
M  V30 2676 H 265.262 -3.79903 -0.213148 0
M  V30 2677 H 264.774 -3.53901 1.59297 0
M  V30 2678 H 262.875 -3.62268 -0.871367 0
M  V30 2679 H 262.988 -4.74808 0.63985 0
M  V30 2680 H 261.352 -2.53528 0.244017 0
M  V30 2681 H 262.135 -2.87167 1.88123 0
M  V30 2682 N 264.58 -0.43555 -1.51462 0
M  V30 2683 C 265.827 0.131514 -2.02072 0
M  V30 2684 C 266.155 1.42868 -1.31981 0
M  V30 2685 O 265.41 1.91076 -0.422883 0
M  V30 2686 C 265.709 0.39942 -3.55161 0
M  V30 2687 C 265.375 -0.81172 -4.43533 0
M  V30 2688 C 264.037 -1.14387 -4.67407 0
M  V30 2689 C 266.389 -1.61976 -4.95392 0
M  V30 2690 C 263.717 -2.28477 -5.40384 0
M  V30 2691 C 266.069 -2.75164 -5.6962 0
M  V30 2692 C 264.733 -3.08835 -5.91758 0
M  V30 2693 H 264.003 0.0481244 -0.739436 0
M  V30 2694 H 266.65 -0.58238 -1.8243 0
M  V30 2695 H 264.955 1.19519 -3.73125 0
M  V30 2696 H 266.652 0.85157 -3.91854 0
M  V30 2697 H 263.242 -0.542898 -4.25148 0
M  V30 2698 H 267.426 -1.37637 -4.76833 0
M  V30 2699 H 262.682 -2.5488 -5.55739 0
M  V30 2700 H 266.856 -3.38147 -6.08793 0
M  V30 2701 H 264.483 -3.97353 -6.48086 0
M  V30 2702 N 266.058 1.56714 -0.166846 0
M  V30 2703 C 267.288 2.00828 0.48494 0
M  V30 2704 C 267.696 1.04612 1.57648 0
M  V30 2705 O 267.039 0.0383201 1.8366 0
M  V30 2706 C 267.101 3.4137 1.12723 0
M  V30 2707 C 266.765 4.56654 0.177886 0
M  V30 2708 C 267.762 5.16402 -0.60207 0
M  V30 2709 C 265.447 5.02244 0.0750139 0
M  V30 2710 C 267.441 6.20167 -1.47215 0
M  V30 2711 C 265.128 6.05859 -0.798649 0
M  V30 2712 C 266.126 6.64691 -1.57082 0
M  V30 2713 O 265.814 7.66297 -2.42989 0
M  V30 2714 H 265.546 0.663587 0.128953 0
M  V30 2715 H 268.1 2.03692 -0.264365 0
M  V30 2716 H 266.33 3.35406 1.92457 0
M  V30 2717 H 268.019 3.69466 1.68076 0
M  V30 2718 H 268.785 4.82065 -0.53274 0
M  V30 2719 H 264.664 4.56167 0.665812 0
M  V30 2720 H 268.208 6.66016 -2.07531 0
M  V30 2721 H 264.105 6.39621 -0.869199 0
M  V30 2722 H 264.873 7.83601 -2.36455 0
M  V30 2723 N 267.536 -0.106894 1.57237 0
M  V30 2724 C 268.766 -0.825191 1.89405 0
M  V30 2725 C 269.174 -1.73374 0.757496 0
M  V30 2726 O 268.517 -1.81552 -0.280115 0
M  V30 2727 C 268.579 -1.70102 3.1671 0
M  V30 2728 C 268.243 -0.965523 4.46684 0
M  V30 2729 C 269.24 -0.300741 5.19029 0
M  V30 2730 C 266.925 -0.943105 4.93367 0
M  V30 2731 C 268.919 0.376622 6.36286 0
M  V30 2732 C 266.606 -0.261949 6.10538 0
M  V30 2733 C 267.604 0.396748 6.81847 0
M  V30 2734 O 267.292 1.06701 7.96787 0
M  V30 2735 H 267.024 -0.241852 0.631255 0
M  V30 2736 H 269.578 -0.0921491 2.05193 0
M  V30 2737 H 267.808 -2.47601 2.97036 0
M  V30 2738 H 269.497 -2.29483 3.34802 0
M  V30 2739 H 270.263 -0.309599 4.84011 0
M  V30 2740 H 266.142 -1.44524 4.3776 0
M  V30 2741 H 269.686 0.891334 6.91882 0
M  V30 2742 H 265.583 -0.250896 6.45012 0
M  V30 2743 H 266.351 0.972707 8.127 0
M  V30 2744 N 269.014 -1.53014 -0.377408 0
M  V30 2745 C 269.977 -1.77957 -1.44444 0
M  V30 2746 C 270.977 -0.649763 -1.47087 0
M  V30 2747 O 272.167 -0.917897 -1.48055 0
M  V30 2748 C 269.299 -1.89089 -2.83651 0
M  V30 2749 H 270.492 -2.73243 -1.23606 0
M  V30 2750 H 268.045 -1.43912 -0.609844 0
M  V30 2751 H 268.78 -0.958293 -3.09818 0
M  V30 2752 H 268.565 -2.71254 -2.83132 0
M  V30 2753 H 270.055 -2.1002 -3.60945 0
M  V30 2754 N 270.492 0.636531 -1.44174 0
M  V30 2755 C 271.402 1.77754 -1.53103 0
M  V30 2756 C 272.418 1.68928 -0.417034 0
M  V30 2757 O 273.594 1.89801 -0.6736 0
M  V30 2758 C 270.659 3.14115 -1.46741 0
M  V30 2759 C 269.72 3.34612 -2.68948 0
M  V30 2760 C 268.953 4.64467 -2.6288 0
M  V30 2761 O 269.176 5.44919 -1.68581 0
M  V30 2762 O 268.11 4.87049 -3.53648 0
M  V30 2763 H 271.936 1.73174 -2.49489 0
M  V30 2764 H 269.521 0.79709 -1.2636 0
M  V30 2765 H 271.403 3.95412 -1.45696 0
M  V30 2766 H 270.078 3.19249 -0.534975 0
M  V30 2767 H 268.985 2.53014 -2.75562 0
M  V30 2768 H 270.318 3.34336 -3.61221 0
M  V30 2769 N 271.97 1.30982 0.876444 0
M  V30 2770 C 273.247 1.10942 1.61094 0
M  V30 2771 C 273.627 -0.338223 2.08373 0
M  V30 2772 O 272.975 -1.33122 1.85717 0
M  V30 2773 C 273.185 2.11789 2.77392 0
M  V30 2774 C 274.533 2.43965 3.47514 0
M  V30 2775 O 275.557 2.10166 2.87591 0
M  V30 2776 O 274.416 3.01817 4.55597 0
M  V30 2777 H 271.51 0.42667 0.708436 0
M  V30 2778 H 274.056 1.42438 0.922474 0
M  V30 2779 H 272.828 3.09194 2.39823 0
M  V30 2780 H 272.451 1.81161 3.5393 0
M  V30 2781 N 273.449 -1.08991 1.13837 0
M  V30 2782 C 274.726 -1.77863 0.813876 0
M  V30 2783 C 275.106 -1.99375 -0.693746 0
M  V30 2784 O 274.454 -1.59875 -1.63255 0
M  V30 2785 C 274.664 -3.0986 1.60586 0
M  V30 2786 C 276.012 -3.84493 1.8014 0
M  V30 2787 O 277.036 -3.19624 1.57222 0
M  V30 2788 O 275.895 -5.00957 2.18413 0
M  V30 2789 H 272.989 -0.771589 0.297624 0
M  V30 2790 H 275.535 -1.15507 1.24323 0
M  V30 2791 H 274.307 -2.89715 2.63022 0
M  V30 2792 H 273.93 -3.79942 1.17173 0
M  V30 2793 N 274.927 -0.932562 -1.27047 0
M  V30 2794 C 275.877 -0.406392 -2.24349 0
M  V30 2795 C 276.861 0.492066 -1.53191 0
M  V30 2796 O 278.053 0.328717 -1.73921 0
M  V30 2797 C 275.182 0.335214 -3.41659 0
M  V30 2798 C 274.268 -0.58004 -4.20115 0
M  V30 2799 N 274.659 -1.70203 -4.76303 0
M  V30 2800 C 272.957 -0.383974 -4.44344 0
M  V30 2801 C 273.658 -2.27167 -5.35509 0
M  V30 2802 N 272.634 -1.56068 -5.20715 0
M  V30 2803 H 276.436 -1.26299 -2.65378 0
M  V30 2804 H 273.95 -0.787408 -1.42034 0
M  V30 2805 H 275.947 0.729142 -4.10474 0
M  V30 2806 H 274.607 1.18868 -3.0216 0
M  V30 2807 H 275.618 -2.08433 -4.74106 0
M  V30 2808 H 272.295 0.428436 -4.15296 0
M  V30 2809 H 273.685 -3.21654 -5.89905 0
M  V30 2810 N 276.405 1.4127 -0.698611 0
M  V30 2811 C 277.337 2.292 0.00399731 0
M  V30 2812 C 278.35 1.44944 0.741279 0
M  V30 2813 O 279.539 1.68416 0.591477 0
M  V30 2814 C 276.639 3.22875 1.02979 0
M  V30 2815 C 275.812 4.35904 0.36151 0
M  V30 2816 C 274.871 5.10134 1.29033 0
M  V30 2817 O 273.897 5.63809 0.781562 0
M  V30 2818 N 275.099 5.17885 2.6225 0
M  V30 2819 H 277.864 2.9014 -0.750921 0
M  V30 2820 H 275.425 1.52455 -0.544882 0
M  V30 2821 H 277.417 3.69404 1.65296 0
M  V30 2822 H 275.987 2.63221 1.68622 0
M  V30 2823 H 275.207 3.91719 -0.441584 0
M  V30 2824 H 276.495 5.08696 -0.103055 0
M  V30 2825 H 275.893 4.7573 3.061 0
M  V30 2826 H 274.45 5.6798 3.19754 0
M  V30 2827 N 277.883 0.443576 1.51229 0
M  V30 2828 C 278.815 -0.400608 2.25672 0
M  V30 2829 C 279.828 -0.980945 1.29928 0
M  V30 2830 O 281.017 -0.874024 1.55638 0
M  V30 2831 C 278.117 -1.57304 3.00181 0
M  V30 2832 C 277.29 -1.11046 4.23069 0
M  V30 2833 C 276.349 -2.15374 4.80105 0
M  V30 2834 O 275.375 -1.74554 5.41774 0
M  V30 2835 N 276.577 -3.47922 4.64683 0
M  V30 2836 H 279.342 0.23745 2.98758 0
M  V30 2837 H 276.903 0.272809 1.59585 0
M  V30 2838 H 278.895 -2.26733 3.35223 0
M  V30 2839 H 277.465 -2.11632 2.30066 0
M  V30 2840 H 276.685 -0.243019 3.9345 0
M  V30 2841 H 277.973 -0.778888 5.02803 0
M  V30 2842 H 277.371 -3.83815 4.15575 0
M  V30 2843 H 275.928 -4.13228 5.0407 0
M  V30 2844 N 279.361 -1.56624 0.175154 0
M  V30 2845 C 280.591 -2.01082 -0.474283 0
M  V30 2846 C 280.999 -1.05447 -1.57091 0
M  V30 2847 O 280.342 -0.0480595 -1.83637 0
M  V30 2848 C 280.404 -3.41963 -1.10911 0
M  V30 2849 C 280.068 -4.56742 -0.153666 0
M  V30 2850 C 281.065 -5.16076 0.629448 0
M  V30 2851 C 278.75 -5.02277 -0.0483776 0
M  V30 2852 C 280.744 -6.19377 1.50501 0
M  V30 2853 C 278.431 -6.05427 0.830768 0
M  V30 2854 C 279.429 -6.63849 1.60605 0
M  V30 2855 O 279.117 -7.64998 2.47049 0
M  V30 2856 H 278.849 -0.664261 -0.125432 0
M  V30 2857 H 281.403 -2.03549 0.275163 0
M  V30 2858 H 279.633 -3.36422 -1.90676 0
M  V30 2859 H 281.322 -3.70352 -1.66114 0
M  V30 2860 H 282.088 -4.81776 0.558297 0
M  V30 2861 H 277.967 -4.56513 -0.641611 0
M  V30 2862 H 281.511 -6.64906 2.1106 0
M  V30 2863 H 277.408 -6.39151 0.903107 0
M  V30 2864 H 278.176 -7.82336 2.40607 0
M  V30 2865 N 280.839 0.0985539 -1.57292 0
M  V30 2866 C 281.769 1.12064 -2.04851 0
M  V30 2867 C 282.75 1.41981 -0.936767 0
M  V30 2868 O 283.935 1.52071 -1.20781 0
M  V30 2869 C 281.065 2.44144 -2.47004 0
M  V30 2870 C 280.019 2.28643 -3.6181 0
M  V30 2871 C 279.345 3.65869 -3.89929 0
M  V30 2872 C 280.645 1.72986 -4.92822 0
M  V30 2873 H 282.339 0.724979 -2.9049 0
M  V30 2874 H 279.885 0.34729 -1.39749 0
M  V30 2875 H 281.838 3.15914 -2.78884 0
M  V30 2876 H 280.562 2.85639 -1.5836 0
M  V30 2877 H 279.221 1.59318 -3.30172 0
M  V30 2878 H 278.869 4.04885 -2.98458 0
M  V30 2879 H 278.569 3.56344 -4.67218 0
M  V30 2880 H 280.093 4.39112 -4.2428 0
M  V30 2881 H 281.507 2.34593 -5.23105 0
M  V30 2882 H 279.904 1.74229 -5.74251 0
M  V30 2883 H 280.974 0.689007 -4.7998 0
M  V30 2884 N 282.317 1.53212 0.369288 0
M  V30 2885 C 283.267 1.75769 1.45222 0
M  V30 2886 C 284.251 0.612136 1.48801 0
M  V30 2887 O 285.443 0.870674 1.54105 0
M  V30 2888 C 282.572 1.94769 2.82701 0
M  V30 2889 C 281.658 3.15315 2.83615 0
M  V30 2890 N 282.049 4.37295 2.54178 0
M  V30 2891 C 280.347 3.15962 3.14776 0
M  V30 2892 C 281.048 5.19015 2.62675 0
M  V30 2893 N 280.024 4.55142 2.97232 0
M  V30 2894 H 283.826 2.67691 1.2132 0
M  V30 2895 H 281.34 1.51787 0.577438 0
M  V30 2896 H 283.337 2.09056 3.60696 0
M  V30 2897 H 281.997 1.04073 3.07569 0
M  V30 2898 H 283.008 4.65091 2.27839 0
M  V30 2899 H 279.685 2.35144 3.44983 0
M  V30 2900 H 281.075 6.26305 2.43294 0
M  V30 2901 N 283.795 -0.628877 1.44509 0
M  V30 2902 C 284.742 -1.74074 1.51549 0
M  V30 2903 C 285.712 -1.62084 0.363021 0
M  V30 2904 O 286.897 -1.81975 0.573567 0
M  V30 2905 C 284.037 -3.12328 1.46784 0
M  V30 2906 C 283.15 -3.35277 2.72422 0
M  V30 2907 C 282.285 -4.63515 2.59475 0
M  V30 2908 C 281.324 -4.7965 3.80266 0
M  V30 2909 N 280.461 -5.99168 3.65981 0
M  V30 2910 H 285.301 -1.67392 2.46544 0
M  V30 2911 H 282.838 -0.816527 1.22357 0
M  V30 2912 H 284.796 -3.92286 1.42012 0
M  V30 2913 H 283.426 -3.18018 0.553544 0
M  V30 2914 H 282.478 -2.49242 2.87372 0
M  V30 2915 H 283.79 -3.43078 3.62076 0
M  V30 2916 H 282.944 -5.51638 2.52548 0
M  V30 2917 H 281.683 -4.58076 1.67384 0
M  V30 2918 H 280.688 -3.89957 3.87574 0
M  V30 2919 H 281.913 -4.86902 4.73395 0
M  V30 2920 H 279.859 -5.94814 2.76644 0
M  V30 2921 H 279.776 -6.08035 4.49254 0
M  V30 2922 H 281.044 -6.89846 3.6295 0
M  V30 2923 N 285.273 -1.31445 -0.869486 0
M  V30 2924 C 286.221 -1.19067 -1.99814 0
M  V30 2925 C 287.215 -0.0988569 -1.69111 0
M  V30 2926 O 288.421 -0.260781 -1.78101 0
M  V30 2927 H 284.796 -0.368677 -0.655425 0
M  V30 2928 H 286.767 -2.14555 -2.07385 0
M  V30 2929 C 285.516 -0.915323 -3.35436 0
M  V30 2930 H 284.839 -1.74759 -3.59582 0
M  V30 2931 H 286.279 -0.868895 -4.15001 0
M  V30 2932 C 284.738 0.381928 -3.34728 0
M  V30 2933 O 285.268 1.39857 -3.76567 0
M  V30 2934 N 283.474 0.398633 -2.87853 0
M  V30 2935 H 283.021 -0.429186 -2.54 0
M  V30 2936 H 282.979 1.26651 -2.87762 0
M  V30 2937 N 286.751 1.08385 -1.14413 0
M  V30 2938 C 288.162 1.62258 -0.923535 0
M  V30 2939 C 288.513 1.88691 0.537595 0
M  V30 2940 O 287.638 1.64454 1.40655 0
M  V30 2941 C 288.233 2.94781 -1.67002 0
M  V30 2942 C 286.792 3.45437 -1.495 0
M  V30 2943 C 285.939 2.19668 -1.69238 0
M  V30 2944 H 288.89 0.916086 -1.2959 0
M  V30 2945 H 288.911 3.63229 -1.13334 0
M  V30 2946 H 288.423 2.7551 -2.73342 0
M  V30 2947 H 286.524 3.6981 -0.455097 0
M  V30 2948 H 286.637 4.22173 -2.2651 0
M  V30 2949 H 285.001 2.28849 -1.11804 0
M  V30 2950 H 285.784 2.02905 -2.7692 0
M  V30 2951 N 288.23 0.939286 1.26551 0
M  V30 2952 C 289.46 0.601663 1.97645 0
M  V30 2953 C 289.868 -0.827206 1.70159 0
M  V30 2954 O 289.211 -1.56291 0.965338 0
M  V30 2955 C 289.273 0.761725 3.51337 0
M  V30 2956 C 288.937 2.16487 4.0247 0
M  V30 2957 C 289.934 3.14016 4.14355 0
M  V30 2958 C 287.619 2.48494 4.36527 0
M  V30 2959 C 289.613 4.41654 4.59587 0
M  V30 2960 C 287.3 3.76364 4.81449 0
M  V30 2961 C 288.298 4.72758 4.92939 0
M  V30 2962 O 287.986 5.98352 5.36871 0
M  V30 2963 H 287.718 0.225758 0.637189 0
M  V30 2964 H 290.272 1.26178 1.62075 0
M  V30 2965 H 288.502 0.0444808 3.86674 0
M  V30 2966 H 290.191 0.427442 4.03643 0
M  V30 2967 H 290.957 2.90613 3.8829 0
M  V30 2968 H 286.836 1.74202 4.26819 0
M  V30 2969 H 290.38 5.16896 4.68471 0
M  V30 2970 H 286.277 3.99582 5.06956 0
M  V30 2971 H 287.045 6.01507 5.55096 0
M  V30 2972 N 289.708 -1.40897 0.706093 0
M  V30 2973 C 290.956 -2.00657 0.241054 0
M  V30 2974 C 291.277 -1.56241 -1.16678 0
M  V30 2975 O 290.547 -0.79765 -1.78926 0
M  V30 2976 H 289.127 -0.742018 0.0861308 0
M  V30 2977 H 291.789 -1.72372 0.909604 0
M  V30 2978 H 290.885 -3.10958 0.266705 0
M  V30 2979 N 291.186 -0.45159 -1.50991 0
M  V30 2980 C 292.416 0.108177 -2.06317 0
M  V30 2981 C 292.824 1.35774 -1.31765 0
M  V30 2982 O 292.167 1.79838 -0.374694 0
M  V30 2983 C 292.229 0.481659 -3.56259 0
M  V30 2984 C 291.893 -0.663114 -4.52163 0
M  V30 2985 C 292.89 -1.53947 -4.96585 0
M  V30 2986 C 290.575 -0.8479 -4.95092 0
M  V30 2987 C 292.569 -2.58518 -5.82621 0
M  V30 2988 C 290.256 -1.89686 -5.80915 0
M  V30 2989 C 291.254 -2.76388 -6.24579 0
M  V30 2990 O 290.942 -3.79482 -7.08695 0
M  V30 2991 H 290.674 0.00499183 -0.675982 0
M  V30 2992 H 293.228 -0.633659 -1.95381 0
M  V30 2993 H 291.458 1.27641 -3.65027 0
M  V30 2994 H 293.147 0.974233 -3.94035 0
M  V30 2995 H 293.913 -1.4083 -4.64103 0
M  V30 2996 H 289.792 -0.18258 -4.60638 0
M  V30 2997 H 293.336 -3.26224 -6.16623 0
M  V30 2998 H 289.233 -2.02817 -6.12809 0
M  V30 2999 H 290.001 -3.76234 -7.26905 0
M  V30 3000 N 292.664 1.56529 -0.183458 0
M  V30 3001 C 293.904 1.99141 0.460667 0
M  V30 3002 C 294.268 1.06736 1.59597 0
M  V30 3003 O 295.469 1.38538 2.30349 0
M  V30 3004 C 293.74 3.45358 0.919939 0
M  V30 3005 S 295.299 4.09999 1.56354 0
M  V30 3006 H 292.117 0.695479 0.147748 0
M  V30 3007 H 294.719 1.93429 -0.283782 0
M  V30 3008 H 293.423 4.10315 0.0834208 0
M  V30 3009 H 292.954 3.54862 1.69814 0
M  V30 3010 H 294.969 4.06046 2.85203 0
M  V30 3011 N 294.142 -0.090211 1.57342 0
M  V30 3012 C 295.39 -0.791241 1.85967 0
M  V30 3013 C 295.711 -1.7903 0.772859 0
M  V30 3014 O 294.981 -1.94872 -0.200398 0
M  V30 3015 H 293.561 -0.295205 0.686195 0
M  V30 3016 H 296.223 -0.0706782 1.94772 0
M  V30 3017 H 295.319 -1.31882 2.82867 0
M  V30 3018 N 295.62 -1.53406 -0.361157 0
M  V30 3019 C 296.869 -1.69022 -1.10066 0
M  V30 3020 C 297.182 -0.450838 -1.90333 0
M  V30 3021 O 298.388 -0.487617 -2.67085 0
M  V30 3022 C 296.844 -2.98812 -2.00598 0
M  V30 3023 C 296.452 -4.30027 -1.25621 0
M  V30 3024 C 298.196 -3.23795 -2.74513 0
M  V30 3025 C 296.103 -5.50903 -2.1508 0
M  V30 3026 H 295.033 -0.629776 -0.414606 0
M  V30 3027 H 297.684 -1.79907 -0.361348 0
M  V30 3028 H 296.066 -2.8174 -2.78278 0
M  V30 3029 H 297.24 -4.57745 -0.529739 0
M  V30 3030 H 295.555 -4.11522 -0.635496 0
M  V30 3031 H 298.152 -4.11289 -3.41681 0
M  V30 3032 H 298.495 -2.40045 -3.40123 0
M  V30 3033 H 299.028 -3.41561 -2.03914 0
M  V30 3034 H 295.767 -6.37143 -1.54041 0
M  V30 3035 H 295.287 -5.27459 -2.85565 0
M  V30 3036 H 296.966 -5.85865 -2.74538 0
M  V30 3037 N 297.098 0.621204 -1.44841 0
M  V30 3038 C 298.346 1.37783 -1.47852 0
M  V30 3039 C 298.667 1.94653 -0.116224 0
M  V30 3040 O 297.937 1.76367 0.852737 0
M  V30 3041 H 296.517 0.511453 -0.544449 0
M  V30 3042 H 299.179 0.730446 -1.80694 0
M  V30 3043 H 298.275 2.20414 -2.20961 0
M  V30 3044 N 298.576 1.31904 0.862503 0
M  V30 3045 C 299.824 1.21776 1.61292 0
M  V30 3046 C 300.145 -0.222413 1.93727 0
M  V30 3047 O 299.415 -1.1451 1.58947 0
M  V30 3048 H 297.995 0.447717 0.597962 0
M  V30 3049 H 300.657 1.65326 1.03215 0
M  V30 3050 H 299.753 1.7948 2.5533 0
M  V30 3051 N 300.054 -1.07777 1.14986 0
M  V30 3052 C 301.303 -1.79669 0.916617 0
M  V30 3053 C 301.616 -1.87474 -0.557917 0
M  V30 3054 O 302.822 -2.55845 -0.908617 0
M  V30 3055 C 301.278 -3.22848 1.59051 0
M  V30 3056 C 300.886 -3.23257 3.10176 0
M  V30 3057 C 302.63 -3.99379 1.43864 0
M  V30 3058 C 300.537 -4.61063 3.70372 0
M  V30 3059 H 299.467 -0.673349 0.33929 0
M  V30 3060 H 302.118 -1.21003 1.37951 0
M  V30 3061 H 300.5 -3.8168 1.0553 0
M  V30 3062 H 301.674 -2.74095 3.70417 0
M  V30 3063 H 299.989 -2.60222 3.25074 0
M  V30 3064 H 302.586 -5.0122 1.86232 0
M  V30 3065 H 302.929 -4.14511 0.385564 0
M  V30 3066 H 303.462 -3.47032 1.94457 0
M  V30 3067 H 300.201 -4.51135 4.7556 0
M  V30 3068 H 299.721 -5.1048 3.14913 0
M  V30 3069 H 301.4 -5.30034 3.71043 0
M  V30 3070 N 301.532 -0.945985 -1.26051 0
M  V30 3071 C 302.78 -0.594941 -1.93145 0
M  V30 3072 C 303.101 0.86953 -1.7454 0
M  V30 3073 O 302.371 1.61838 -1.10387 0
M  V30 3074 H 300.951 -0.217044 -0.714773 0
M  V30 3075 H 303.613 -1.20235 -1.53393 0
M  V30 3076 H 302.709 -0.816835 -3.01221 0
M  V30 3077 N 303.011 1.40521 -0.713556 0
M  V30 3078 C 304.257 2.01221 -0.252564 0
M  V30 3079 C 304.59 1.56444 1.1506 0
M  V30 3080 O 303.865 0.783597 1.78017 0
M  V30 3081 C 304.148 3.58582 -0.330332 0
M  V30 3082 C 304.001 4.13437 -1.77173 0
M  V30 3083 C 305.32 4.39079 0.299641 0
M  V30 3084 H 302.439 0.731077 -0.0932471 0
M  V30 3085 H 305.081 1.67026 -0.905673 0
M  V30 3086 H 303.231 3.87844 0.225737 0
M  V30 3087 H 304.903 3.9498 -2.38303 0
M  V30 3088 H 303.146 3.67801 -2.3001 0
M  V30 3089 H 303.817 5.22597 -1.77755 0
M  V30 3090 H 306.293 4.15735 -0.174139 0
M  V30 3091 H 305.169 5.4848 0.214771 0
M  V30 3092 H 305.43 4.19915 1.38288 0
M  V30 3093 N 304.489 0.459591 1.5075 0
M  V30 3094 C 305.729 -0.09824 2.04164 0
M  V30 3095 C 306.093 -1.3801 1.33481 0
M  V30 3096 O 307.294 -2.01959 1.77387 0
M  V30 3097 C 305.565 -0.289467 3.56226 0
M  V30 3098 S 307.124 -0.807507 4.31306 0
M  V30 3099 H 303.942 -0.0213845 0.710678 0
M  V30 3100 H 306.544 0.624098 1.85271 0
M  V30 3101 H 305.248 0.649461 4.05229 0
M  V30 3102 H 304.779 -1.03825 3.79452 0
M  V30 3103 H 306.794 -2.0824 4.50389 0
M  V30 3104 N 305.967 -1.56429 0.191757 0
M  V30 3105 C 306.897 -2.21937 -0.725696 0
M  V30 3106 C 307.878 -1.1814 -1.2238 0
M  V30 3107 O 309.063 -1.46636 -1.27325 0
M  V30 3108 C 306.193 -2.87611 -1.94672 0
M  V30 3109 C 305.147 -3.97623 -1.58366 0
M  V30 3110 C 304.473 -4.50446 -2.88102 0
M  V30 3111 C 305.773 -5.16197 -0.796133 0
M  V30 3112 H 307.467 -2.98861 -0.179606 0
M  V30 3113 H 305.013 -1.43749 -0.0849464 0
M  V30 3114 H 306.966 -3.3212 -2.59373 0
M  V30 3115 H 305.69 -2.08087 -2.51728 0
M  V30 3116 H 304.349 -3.53801 -0.960247 0
M  V30 3117 H 303.997 -3.67688 -3.43241 0
M  V30 3118 H 303.697 -5.24675 -2.64556 0
M  V30 3119 H 305.221 -4.97654 -3.53798 0
M  V30 3120 H 306.635 -5.57271 -1.34618 0
M  V30 3121 H 305.032 -5.96471 -0.658928 0
M  V30 3122 H 306.102 -4.84473 0.203478 0
M  V30 3123 N 307.445 0.0818655 -1.57387 0
M  V30 3124 C 308.856 0.634871 -1.75574 0
M  V30 3125 C 309.207 1.78435 -0.815809 0
M  V30 3126 O 308.332 2.164 0.0025366 0
M  V30 3127 C 308.927 1.15845 -3.18379 0
M  V30 3128 C 307.486 1.65741 -3.37945 0
M  V30 3129 C 306.633 0.572549 -2.71325 0
M  V30 3130 H 309.584 -0.144268 -1.58043 0
M  V30 3131 H 309.605 2.02751 -3.21982 0
M  V30 3132 H 309.117 0.321631 -3.86765 0
M  V30 3133 H 307.218 2.51781 -2.74658 0
M  V30 3134 H 307.331 1.74129 -4.46336 0
M  V30 3135 H 305.695 1.01518 -2.33594 0
M  V30 3136 H 306.478 -0.253918 -3.4236 0
M  V30 3137 N 308.923 1.53595 0.353017 0
M  V30 3138 C 310.334 1.61937 0.929153 0
M  V30 3139 C 310.685 0.494686 1.89861 0
M  V30 3140 O 309.81 -0.377017 2.1309 0
M  V30 3141 C 310.405 2.93526 1.69199 0
M  V30 3142 C 308.964 3.04161 2.21727 0
M  V30 3143 C 308.111 2.57322 1.03348 0
M  V30 3144 H 311.062 1.58155 0.131431 0
M  V30 3145 H 311.083 2.82034 2.55416 0
M  V30 3146 H 310.595 3.75362 0.986144 0
M  V30 3147 H 308.696 2.26938 2.95516 0
M  V30 3148 H 308.809 4.09465 2.48748 0
M  V30 3149 H 307.173 2.12499 1.40414 0
M  V30 3150 H 307.956 3.41588 0.342428 0
M  V30 3151 N 310.401 -0.613514 1.45168 0
M  V30 3152 C 311.311 -1.75296 1.55912 0
M  V30 3153 C 312.327 -1.68244 0.443856 0
M  V30 3154 O 313.503 -1.88706 0.70371 0
M  V30 3155 C 310.568 -3.1174 1.5172 0
M  V30 3156 C 309.629 -3.30291 2.74238 0
M  V30 3157 C 308.862 -4.60226 2.70236 0
M  V30 3158 O 309.085 -5.42168 1.77229 0
M  V30 3159 O 308.019 -4.81361 3.61352 0
M  V30 3160 H 311.845 -1.69183 2.52212 0
M  V30 3161 H 309.43 -0.776886 1.27612 0
M  V30 3162 H 311.312 -3.93044 1.51968 0
M  V30 3163 H 309.987 -3.18357 0.585697 0
M  V30 3164 H 308.894 -2.48598 2.79553 0
M  V30 3165 H 310.227 -3.28547 3.66494 0
M  V30 3166 N 311.879 -1.3236 -0.855495 0
M  V30 3167 C 312.842 -1.21164 -1.94556 0
M  V30 3168 C 313.842 -0.134908 -1.60233 0
M  V30 3169 O 315.032 -0.385249 -1.69887 0
M  V30 3170 C 312.164 -0.863192 -3.29791 0
M  V30 3171 H 313.357 -2.18038 -2.05911 0
M  V30 3172 H 310.91 -1.16179 -1.04557 0
M  V30 3173 H 311.645 0.103769 -3.24134 0
M  V30 3174 H 311.43 -1.64166 -3.56078 0
M  V30 3175 H 312.92 -0.809156 -4.09686 0
M  V30 3176 O 313.396 0.992737 -1.27385 0
M  V30 3177 H 314.087 1.61512 -1.06928 0
M  V30 END ATOM
M  V30 BEGIN BOND
M  V30 END BOND
M  V30 END CTAB
M  END
$$$$
