drugbank_target|P0A733 Methylglyoxal synthase (DB01942; DB02726; DB03026)
 OpenBabel12092120013D

  0  0  0     0  0            999 V3000
M  V30 BEGIN CTAB
M  V30 COUNTS 2388 2416 0 0 0
M  V30 BEGIN ATOM
M  V30 1 H -0.908 1.98254 -0.117106 0
M  V30 2 N 0 1.576 0 0
M  V30 3 C 0.933 2.03868 1.02534 0
M  V30 4 C 1.911 0.928543 1.3348 0
M  V30 5 O 3.095 1.19667 1.45644 0
M  V30 6 C 0.222 2.43627 2.35294 0
M  V30 7 C -0.732 3.65373 2.2001 0
M  V30 8 S 0.101 5.13292 1.52614 0
M  V30 9 C 1.257 5.56322 2.86805 0
M  V30 10 H 1.49 2.90518 0.631377 0
M  V30 11 H -0.977 1.52953 0.210867 0
M  V30 12 H 0.981 2.67203 3.11629 0
M  V30 13 H -0.358 1.57376 2.7183 0
M  V30 14 H -1.165 3.90944 3.18086 0
M  V30 15 H -1.563 3.418 1.51819 0
M  V30 16 H 0.729 5.58782 3.83104 0
M  V30 17 H 1.672 6.56266 2.65933 0
M  V30 18 H 2.08 4.83886 2.90714 0
M  V30 19 N 1.4781 -0.272755 1.55222 0
M  V30 20 C 2.3881 -1.35918 1.91216 0
M  V30 21 C 3.4041 -1.54026 0.809436 0
M  V30 22 O 4.5801 -1.68148 1.10852 0
M  V30 23 C 1.6451 -2.69834 2.17693 0
M  V30 24 C 0.7061 -2.6047 3.41253 0
M  V30 25 C -0.0609 -3.88 3.66458 0
M  V30 26 O 0.1621 -4.88693 2.94169 0
M  V30 27 O -0.9039 -3.88189 4.59992 0
M  V30 28 H 2.9221 -1.0839 2.83699 0
M  V30 29 H 0.5071 -0.471301 1.41771 0
M  V30 30 H 2.3891 -3.49017 2.36147 0
M  V30 31 H 1.0641 -2.97148 1.28392 0
M  V30 32 H -0.0289 -1.79663 3.28134 0
M  V30 33 H 1.3041 -2.38106 4.30774 0
M  V30 34 N 2.9562 -1.48159 -0.537278 0
M  V30 35 C 3.8862 -1.65029 -1.6519 0
M  V30 36 C 4.8672 -0.499281 -1.62607 0
M  V30 37 O 6.0522 -0.730972 -1.79918 0
M  V30 38 C 3.1822 -1.68303 -3.03795 0
M  V30 39 C 2.1362 -2.8283 -3.21234 0
M  V30 40 C 1.4622 -2.71189 -4.60826 0
M  V30 41 C 2.7622 -4.24211 -3.04701 0
M  V30 42 H 4.4562 -2.58341 -1.51328 0
M  V30 43 H 2.0022 -1.24325 -0.726585 0
M  V30 44 H 3.9552 -1.78693 -3.81637 0
M  V30 45 H 2.6792 -0.715635 -3.18663 0
M  V30 46 H 1.3382 -2.71983 -2.45807 0
M  V30 47 H 0.9862 -1.72435 -4.7252 0
M  V30 48 H 0.6862 -3.48035 -4.7344 0
M  V30 49 H 2.2102 -2.83537 -5.40777 0
M  V30 50 H 3.6242 -4.3593 -3.72341 0
M  V30 51 H 2.0212 -5.01998 -3.28813 0
M  V30 52 H 3.0912 -4.41184 -2.01209 0
M  V30 53 N 4.4343 0.785586 -1.36625 0
M  V30 54 C 5.6623 1.57448 -1.3423 0
M  V30 55 C 6.0773 1.88649 0.0755653 0
M  V30 56 O 5.4343 1.50414 1.03354 0
M  V30 57 C 5.4853 2.89316 -2.16745 0
M  V30 58 O 5.2063 2.59459 -3.53005 0
M  V30 59 C 6.7073 3.83606 -2.22174 0
M  V30 60 H 3.9273 0.488226 -0.4603 0
M  V30 61 H 6.4713 0.974733 -1.79775 0
M  V30 62 H 4.6263 3.4575 -1.74745 0
M  V30 63 H 5.0403 3.43804 -3.96105 0
M  V30 64 H 6.5143 4.73181 -2.8426 0
M  V30 65 H 6.9913 4.21734 -1.22627 0
M  V30 66 H 7.5973 3.33104 -2.64427 0
M  V30 67 N 5.9124 1.20967 1.01018 0
M  V30 68 C 7.1404 1.04956 1.78303 0
M  V30 69 C 7.5554 -0.400915 1.84494 0
M  V30 70 O 6.9124 -1.27826 1.30257 0
M  V30 71 C 6.9634 1.63403 3.22462 0
M  V30 72 O 6.6844 3.02775 3.16637 0
M  V30 73 C 8.1854 1.52432 4.16268 0
M  V30 74 H 5.4054 0.368858 0.560522 0
M  V30 75 H 7.9494 1.60193 1.27116 0
M  V30 76 H 6.1044 1.1227 3.70775 0
M  V30 77 H 6.5184 3.30626 4.07169 0
M  V30 78 H 7.9924 1.98078 5.15237 0
M  V30 79 H 8.4694 0.477875 4.36592 0
M  V30 80 H 9.0754 2.02787 3.73841 0
M  V30 81 N 7.3905 -1.2043 1.01659 0
M  V30 82 C 8.8065 -1.41852 0.731442 0
M  V30 83 C 9.0065 -1.89358 -0.688898 0
M  V30 84 O 8.0625 -2.06247 -1.45666 0
M  V30 85 C 9.3755 -2.44019 1.75714 0
M  V30 86 C 10.9235 -2.57785 1.77527 0
M  V30 87 C 11.3985 -3.63194 2.79023 0
M  V30 88 N 12.8895 -3.70678 2.77763 0
M  V30 89 C 13.6245 -4.51897 3.52954 0
M  V30 90 N 13.1205 -5.36921 4.37821 0
M  V30 91 N 14.9135 -4.4643 3.41551 0
M  V30 92 H 7.0645 -0.879093 1.93354 0
M  V30 93 H 9.3275 -0.448425 0.835236 0
M  V30 94 H 9.0335 -2.1611 2.77469 0
M  V30 95 H 8.9075 -3.43007 1.56927 0
M  V30 96 H 11.2945 -2.85023 0.764569 0
M  V30 97 H 11.3755 -1.58992 2.00387 0
M  V30 98 H 11.0195 -3.36699 3.80258 0
M  V30 99 H 10.9495 -4.61609 2.53425 0
M  V30 100 H 13.4405 -3.09944 2.16201 0
M  V30 101 H 13.7535 -5.95981 4.91962 0
M  V30 102 H 12.0985 -5.36424 4.41899 0
M  V30 103 H 15.2895 -3.79042 2.74672 0
M  V30 104 H 15.4625 -5.09491 4.00404 0
M  V30 105 N 8.8686 -0.792821 -1.36206 0
M  V30 106 C 10.0966 -0.378825 -2.03402 0
M  V30 107 C 10.5116 1.00586 -1.59774 0
M  V30 108 O 9.8686 1.64574 -0.788764 0
M  V30 109 C 9.9196 -0.43683 -3.58851 0
M  V30 110 O 9.6406 -1.76691 -4.00889 0
M  V30 111 C 11.1416 -0.0138943 -4.43298 0
M  V30 112 H 8.3616 -0.155673 -0.652692 0
M  V30 113 H 10.9056 -1.07261 -1.74113 0
M  V30 114 H 9.0606 0.208575 -3.86838 0
M  V30 115 H 9.4746 -1.72011 -4.95492 0
M  V30 116 H 10.9486 -0.105615 -5.51899 0
M  V30 117 H 11.4256 1.03915 -4.2673 0
M  V30 118 H 12.0316 -0.63192 -4.20579 0
M  V30 119 N 10.3467 1.47872 -0.545128 0
M  V30 120 C 11.2767 2.32661 0.197793 0
M  V30 121 C 12.2577 1.43041 0.920504 0
M  V30 122 O 13.4427 1.71912 0.90333 0
M  V30 123 C 10.5727 3.24569 1.23582 0
M  V30 124 C 9.5267 4.23333 0.630323 0
M  V30 125 C 8.8527 5.0448 1.77211 0
M  V30 126 C 10.1527 5.20704 -0.407974 0
M  V30 127 H 11.8467 2.95024 -0.510045 0
M  V30 128 H 9.3927 1.4187 -0.246731 0
M  V30 129 H 11.3457 3.8272 1.76362 0
M  V30 130 H 10.0697 2.60236 1.97344 0
M  V30 131 H 8.7287 3.6639 0.123922 0
M  V30 132 H 8.3767 4.36561 2.49847 0
M  V30 133 H 8.0767 5.71339 1.37281 0
M  V30 134 H 9.6007 5.65487 2.3034 0
M  V30 135 H 11.0147 5.7329 0.033305 0
M  V30 136 H 9.4117 5.95699 -0.725486 0
M  V30 137 H 10.4817 4.66917 -1.30828 0
M  V30 138 N 11.8248 0.280983 1.55075 0
M  V30 139 C 13.2358 -0.215629 1.85451 0
M  V30 140 C 13.5868 -1.54991 1.203 0
M  V30 141 O 12.7118 -2.10699 0.493435 0
M  V30 142 C 13.3068 -0.398026 3.36454 0
M  V30 143 C 11.8658 -0.838866 3.66933 0
M  V30 144 C 11.0128 0.064458 2.77225 0
M  V30 145 H 13.9638 0.502601 1.50531 0
M  V30 146 H 13.9848 -1.23569 3.59876 0
M  V30 147 H 13.4968 0.573241 3.83843 0
M  V30 148 H 11.5978 -1.8214 3.25048 0
M  V30 149 H 11.7108 -0.672123 4.74362 0
M  V30 150 H 10.0748 -0.452863 2.50642 0
M  V30 151 H 10.8578 1.03172 3.2743 0
M  V30 152 N 13.3029 -1.57598 0.00835791 0
M  V30 153 C 14.2659 -2.07884 -0.965242 0
M  V30 154 C 15.2659 -0.989825 -1.26725 0
M  V30 155 O 16.4559 -1.25218 -1.21104 0
M  V30 156 C 13.5879 -2.52731 -2.28779 0
M  V30 157 H 14.7809 -2.95178 -0.530112 0
M  V30 158 H 12.3339 -1.54458 -0.239283 0
M  V30 159 H 13.0689 -1.68705 -2.76964 0
M  V30 160 H 12.8539 -3.32272 -2.08177 0
M  V30 161 H 14.3439 -2.91933 -2.98605 0
M  V30 162 N 14.781 0.264519 -1.55364 0
M  V30 163 C 16.197 0.61215 -1.47394 0
M  V30 164 C 16.397 1.89134 -0.695018 0
M  V30 165 O 15.453 2.51563 -0.217275 0
M  V30 166 C 16.766 0.731235 -2.91674 0
M  V30 167 C 18.314 0.82473 -3.01939 0
M  V30 168 C 18.789 0.975522 -4.4749 0
M  V30 169 N 20.28 1.04083 -4.51354 0
M  V30 170 C 21.015 1.17646 -5.61201 0
M  V30 171 N 20.511 1.27874 -6.80896 0
M  V30 172 N 22.304 1.20823 -5.48961 0
M  V30 173 H 14.455 -0.575456 -2.04456 0
M  V30 174 H 16.718 -0.196099 -0.927496 0
M  V30 175 H 16.424 -0.138392 -3.51428 0
M  V30 176 H 16.298 1.60883 -3.41169 0
M  V30 177 H 18.685 1.68482 -2.42276 0
M  V30 178 H 18.766 -0.0776479 -2.55682 0
M  V30 179 H 18.41 0.120058 -5.07758 0
M  V30 180 H 18.34 1.89268 -4.91412 0
M  V30 181 H 20.831 0.973846 -3.65136 0
M  V30 182 H 21.144 1.38081 -7.60364 0
M  V30 183 H 19.489 1.24863 -6.83692 0
M  V30 184 H 22.68 1.12469 -4.54388 0
M  V30 185 H 22.853 1.31049 -6.3461 0
M  V30 186 N 16.2591 1.48442 0.529413 0
M  V30 187 C 17.2061 1.63007 1.63394 0
M  V30 188 C 18.1761 0.47212 1.59249 0
M  V30 189 O 19.3611 0.695673 1.77666 0
M  V30 190 C 16.5011 1.6763 3.01653 0
M  V30 191 C 15.6141 2.94535 3.16027 0
M  V30 192 C 14.7491 2.90316 4.44849 0
M  V30 193 C 13.7881 4.11923 4.52754 0
M  V30 194 N 12.9251 4.05777 5.72965 0
M  V30 195 H 17.7651 2.5733 1.50285 0
M  V30 196 H 15.3021 1.27613 0.731656 0
M  V30 197 H 17.2601 1.68292 3.81751 0
M  V30 198 H 15.8901 0.76797 3.13532 0
M  V30 199 H 14.9421 3.03615 2.29177 0
M  V30 200 H 16.2541 3.84512 3.17729 0
M  V30 201 H 15.4081 2.89382 5.33238 0
M  V30 202 H 14.1471 1.98068 4.45668 0
M  V30 203 H 13.1521 4.13131 3.62771 0
M  V30 204 H 14.3771 5.0533 4.53672 0
M  V30 205 H 12.3231 3.16351 5.74681 0
M  V30 206 H 12.2401 4.8946 5.76164 0
M  V30 207 H 13.5081 4.08904 6.6364 0
M  V30 208 N 17.7372 -0.778329 1.37039 0
M  V30 209 C 18.6872 -1.88142 1.28789 0
M  V30 210 C 19.6712 -1.59923 0.177063 0
M  V30 211 O 20.8632 -1.72165 0.410873 0
M  V30 212 C 17.9922 -3.25518 1.09055 0
M  V30 213 C 17.0782 -3.5971 2.24654 0
M  V30 214 N 17.4692 -3.65131 3.50018 0
M  V30 215 C 15.7672 -3.89837 2.16663 0
M  V30 216 C 16.4682 -3.95882 4.26207 0
M  V30 217 N 15.4442 -4.11441 3.55271 0
M  V30 218 H 19.2462 -1.90575 2.23737 0
M  V30 219 H 16.7602 -0.974435 1.29917 0
M  V30 220 H 18.7572 -4.04423 1.0123 0
M  V30 221 H 17.4172 -3.24353 0.15018 0
M  V30 222 H 18.4282 -3.475 3.84011 0
M  V30 223 H 15.1052 -3.96533 1.30645 0
M  V30 224 H 16.4952 -4.06907 5.34674 0
M  V30 225 N 19.2153 -1.21501 -1.00376 0
M  V30 226 C 20.4643 -1.02718 -1.73586 0
M  V30 227 C 20.7773 0.439589 -1.90596 0
M  V30 228 O 21.9833 0.746848 -2.61026 0
M  V30 229 C 20.4393 -1.78929 -3.1227 0
M  V30 230 C 20.0473 -3.29783 -3.03228 0
M  V30 231 C 21.7913 -1.68557 -3.89601 0
M  V30 232 C 19.6983 -3.98479 -4.36999 0
M  V30 233 H 18.6283 -0.380733 -0.650814 0
M  V30 234 H 21.2793 -1.45248 -1.1214 0
M  V30 235 H 19.6613 -1.29192 -3.74333 0
M  V30 236 H 20.8353 -3.86832 -2.50395 0
M  V30 237 H 19.1503 -3.40711 -2.39385 0
M  V30 238 H 21.7473 -2.17211 -4.88593 0
M  V30 239 H 22.0903 -0.644021 -4.11288 0
M  V30 240 H 22.6233 -2.15778 -3.34193 0
M  V30 241 H 19.3623 -5.02841 -4.20513 0
M  V30 242 H 18.8823 -3.46219 -4.89788 0
M  V30 243 H 20.5613 -4.03462 -5.05794 0
M  V30 244 N 20.6934 1.19889 -1.02296 0
M  V30 245 C 21.6564 2.21116 -0.603351 0
M  V30 246 C 22.6564 1.5738 0.329884 0
M  V30 247 O 23.8464 1.73802 0.117702 0
M  V30 248 C 20.9784 3.40696 0.117992 0
M  V30 249 H 22.1714 2.59754 -1.49893 0
M  V30 250 H 19.7244 1.33463 -0.813468 0
M  V30 251 H 20.4594 3.07569 1.0282 0
M  V30 252 H 20.2444 3.88188 -0.552511 0
M  V30 253 H 21.7344 4.15692 0.398696 0
M  V30 254 N 22.1715 0.800033 1.35784 0
M  V30 255 C 23.1015 0.220184 2.3246 0
M  V30 256 C 24.0825 -0.65073 1.57161 0
M  V30 257 O 25.2675 -0.582359 1.85263 0
M  V30 258 C 22.3975 -0.637353 3.41402 0
M  V30 259 C 21.3515 0.134531 4.27789 0
M  V30 260 C 20.6775 -0.844285 5.27992 0
M  V30 261 C 21.9775 1.32979 5.05088 0
M  V30 262 H 23.6715 1.02787 2.81203 0
M  V30 263 H 21.2175 0.495717 1.35199 0
M  V30 264 H 23.1705 -1.05302 4.08031 0
M  V30 265 H 21.8945 -1.47785 2.91251 0
M  V30 266 H 20.5535 0.531296 3.6273 0
M  V30 267 H 20.2015 -1.68011 4.74111 0
M  V30 268 H 19.9015 -0.332184 5.8666 0
M  V30 269 H 21.4255 -1.2583 5.97494 0
M  V30 270 H 22.8395 0.98934 5.64699 0
M  V30 271 H 21.2365 1.77593 5.7322 0
M  V30 272 H 22.3065 2.11978 4.36111 0
M  V30 273 N 23.6496 -1.47581 0.552962 0
M  V30 274 C 24.8956 -2.02782 0.0273648 0
M  V30 275 C 25.2286 -1.42687 -1.31734 0
M  V30 276 O 24.5036 -0.580897 -1.85623 0
M  V30 277 C 24.7866 -3.60031 -0.0702371 0
M  V30 278 C 24.6396 -4.30566 1.30126 0
M  V30 279 C 25.9586 -4.33028 -0.785771 0
M  V30 280 H 23.0776 -0.736912 0.0114185 0
M  V30 281 H 25.7196 -1.76056 0.714432 0
M  V30 282 H 23.8696 -3.82932 -0.655382 0
M  V30 283 H 25.5416 -4.19018 1.92929 0
M  V30 284 H 23.7846 -3.91086 1.87709 0
M  V30 285 H 24.4556 -5.39114 1.18573 0
M  V30 286 H 26.9316 -4.15095 -0.288982 0
M  V30 287 H 25.8076 -5.42695 -0.823013 0
M  V30 288 H 26.0686 -4.01945 -1.841 0
M  V30 289 N 25.1277 -0.289203 -1.54924 0
M  V30 290 C 26.0907 0.579144 -2.21762 0
M  V30 291 C 27.0907 1.07047 -1.1999 0
M  V30 292 O 28.2807 0.968384 -1.44803 0
M  V30 293 C 25.4127 1.80055 -2.8947 0
M  V30 294 H 26.6057 -0.00464908 -2.999 0
M  V30 295 H 24.1587 -0.0399306 -1.56249 0
M  V30 296 H 24.8937 2.42449 -2.15381 0
M  V30 297 H 24.6787 1.45602 -3.64064 0
M  V30 298 H 26.1687 2.41773 -3.40493 0
M  V30 299 N 26.6058 1.57591 -0.0167156 0
M  V30 300 C 27.5558 2.05953 0.978137 0
M  V30 301 C 28.5398 0.957532 1.29306 0
M  V30 302 O 29.7318 1.22119 1.28125 0
M  V30 303 C 26.8608 2.58006 2.26468 0
M  V30 304 C 25.9468 3.75113 1.97867 0
M  V30 305 N 26.3378 4.86187 1.39486 0
M  V30 306 C 24.6358 3.83363 2.27924 0
M  V30 307 C 25.3368 5.67502 1.27735 0
M  V30 308 N 24.3128 5.14023 1.76866 0
M  V30 309 H 28.1148 2.89236 0.521522 0
M  V30 310 H 25.6288 1.61301 0.188596 0
M  V30 311 H 27.6258 2.90937 2.98599 0
M  V30 312 H 26.2858 1.76148 2.72767 0
M  V30 313 H 27.2968 5.06695 1.07147 0
M  V30 314 H 23.9738 3.1239 2.76982 0
M  V30 315 H 25.3638 6.66791 0.826978 0
M  V30 316 N 28.0839 -0.256276 1.55502 0
M  V30 317 C 29.3609 -1.00789 1.67633 0
M  V30 318 C 29.7409 -2.03706 0.553826 0
M  V30 319 O 29.0889 -2.24145 -0.443969 0
M  V30 320 C 29.2989 -1.64968 3.07549 0
M  V30 321 C 30.6469 -2.15505 3.65845 0
M  V30 322 O 31.6709 -1.74925 3.1029 0
M  V30 323 O 30.5299 -2.89986 4.63217 0
M  V30 324 H 27.6239 -0.468553 0.681459 0
M  V30 325 H 30.1699 -0.250806 1.67836 0
M  V30 326 H 28.9419 -0.904785 3.80696 0
M  V30 327 H 28.5649 -2.47321 3.11317 0
M  V30 328 N 29.562 -1.4872 -0.521534 0
M  V30 329 C 30.512 -1.60269 -1.62166 0
M  V30 330 C 31.496 -0.45935 -1.54204 0
M  V30 331 O 32.688 -0.711241 -1.62081 0
M  V30 332 C 29.817 -1.65344 -3.00859 0
M  V30 333 C 28.903 -2.85187 -3.13894 0
M  V30 334 N 29.294 -4.09509 -2.96877 0
M  V30 335 C 27.592 -2.82695 -3.44963 0
M  V30 336 C 28.293 -4.89959 -3.13552 0
M  V30 337 N 27.269 -4.22934 -3.41508 0
M  V30 338 H 31.071 -2.5413 -1.47632 0
M  V30 339 H 28.585 -1.45209 -0.727194 0
M  V30 340 H 30.582 -1.71713 -3.79895 0
M  V30 341 H 29.242 -0.726058 -3.16478 0
M  V30 342 H 30.253 -4.39814 -2.73467 0
M  V30 343 H 26.93 -1.99249 -3.66887 0
M  V30 344 H 28.32 -5.98654 -3.05061 0
M  V30 345 N 31.0401 0.771051 -1.3745 0
M  V30 346 C 32.2801 1.54264 -1.34096 0
M  V30 347 C 32.6441 1.91858 0.0737639 0
M  V30 348 O 33.8451 2.67797 0.23203 0
M  V30 349 C 32.1161 2.77326 -2.25445 0
M  V30 350 S 33.6751 3.67383 -2.39948 0
M  V30 351 H 30.4931 0.528122 -0.476034 0
M  V30 352 H 33.0951 0.906633 -1.73206 0
M  V30 353 H 31.7991 2.47788 -3.27153 0
M  V30 354 H 31.3301 3.45886 -1.87421 0
M  V30 355 H 33.3451 4.69334 -1.61059 0
M  V30 356 N 32.5182 1.22032 0.997298 0
M  V30 357 C 33.4652 0.986467 2.08656 0
M  V30 358 C 34.4352 -0.0902671 1.65855 0
M  V30 359 O 35.6202 0.0584294 1.90711 0
M  V30 360 C 32.7602 0.565569 3.40434 0
M  V30 361 C 31.8732 1.71259 3.96604 0
M  V30 362 C 31.0082 1.24011 5.16522 0
M  V30 363 C 30.0472 2.35896 5.64818 0
M  V30 364 N 29.1842 1.89726 6.7598 0
M  V30 365 H 34.0242 1.91892 2.27994 0
M  V30 366 H 31.5612 0.956199 1.11782 0
M  V30 367 H 33.5192 0.302738 4.161 0
M  V30 368 H 32.1492 -0.329879 3.2111 0
M  V30 369 H 31.2012 2.08986 3.17851 0
M  V30 370 H 32.5132 2.55436 4.28432 0
M  V30 371 H 31.6672 0.934395 5.99461 0
M  V30 372 H 30.4062 0.368487 4.86306 0
M  V30 373 H 29.4112 2.67261 4.8047 0
M  V30 374 H 30.6362 3.23567 5.97061 0
M  V30 375 H 28.5822 1.0492 6.47555 0
M  V30 376 H 28.4992 2.67471 7.07103 0
M  V30 377 H 29.7672 1.62211 7.62435 0
M  V30 378 N 33.9963 -1.19345 1.0293 0
M  V30 379 C 34.9283 -2.22036 0.56857 0
M  V30 380 C 35.9413 -1.58865 -0.355779 0
M  V30 381 O 37.1303 -1.77851 -0.152103 0
M  V30 382 C 34.2303 -3.38363 -0.190752 0
M  V30 383 C 33.4033 -4.31118 0.738643 0
M  V30 384 C 32.4623 -5.26194 0.0246497 0
M  V30 385 O 31.4883 -5.65461 0.651354 0
M  V30 386 N 32.6903 -5.66971 -1.24594 0
M  V30 387 H 35.4553 -2.6219 1.45177 0
M  V30 388 H 33.0163 -1.34015 0.908381 0
M  V30 389 H 35.0083 -3.98981 -0.677961 0
M  V30 390 H 33.5783 -2.96994 -0.975366 0
M  V30 391 H 32.7983 -3.68276 1.40593 0
M  V30 392 H 34.0863 -4.90001 1.37029 0
M  V30 393 H 33.4843 -5.37104 -1.77583 0
M  V30 394 H 32.0413 -6.2984 -1.67764 0
M  V30 395 N 35.4744 -0.807222 -1.35358 0
M  V30 396 C 36.4074 -0.163572 -2.27613 0
M  V30 397 C 37.3854 0.670817 -1.48118 0
M  V30 398 O 38.5694 0.63796 -1.77376 0
M  V30 399 C 35.6964 0.773015 -3.29761 0
M  V30 400 C 34.7424 0.0181653 -4.26496 0
M  V30 401 S 35.5754 -1.31831 -5.19019 0
M  V30 402 C 36.7314 -0.38619 -6.24707 0
M  V30 403 H 36.9644 -0.945757 -2.81856 0
M  V30 404 H 34.4974 -0.602315 -1.42167 0
M  V30 405 H 36.4554 1.30788 -3.89108 0
M  V30 406 H 35.1164 1.52859 -2.74396 0
M  V30 407 H 34.3094 0.729534 -4.98692 0
M  V30 408 H 33.9114 -0.446761 -3.71322 0
M  V30 409 H 36.2034 0.428295 -6.76145 0
M  V30 410 H 37.1464 -1.07736 -6.99856 0
M  V30 411 H 37.5544 0.018398 -5.64497 0
M  V30 412 N 36.9525 1.47285 -0.560781 0
M  V30 413 C 37.8825 2.32857 0.173105 0
M  V30 414 C 38.8635 1.44009 0.905281 0
M  V30 415 O 40.0485 1.7286 0.885046 0
M  V30 416 C 37.1785 3.25861 1.20133 0
M  V30 417 C 36.1325 4.23978 0.585388 0
M  V30 418 C 35.4585 5.06332 1.7185 0
M  V30 419 C 36.7585 5.20242 -0.463178 0
M  V30 420 H 38.4525 2.94466 -0.541307 0
M  V30 421 H 35.9985 1.41601 -0.261764 0
M  V30 422 H 37.9515 3.84569 1.72293 0
M  V30 423 H 36.6755 2.62315 1.94573 0
M  V30 424 H 35.3345 3.66501 0.085054 0
M  V30 425 H 34.9825 4.39186 2.45203 0
M  V30 426 H 34.6825 5.72762 1.31213 0
M  V30 427 H 36.2065 5.67899 2.24329 0
M  V30 428 H 37.6205 5.73293 -0.027502 0
M  V30 429 H 36.0175 5.94896 -0.788627 0
M  V30 430 H 37.0875 4.65504 -1.35773 0
M  V30 431 N 38.4306 0.297415 1.54768 0
M  V30 432 C 39.3636 -0.622188 2.19554 0
M  V30 433 C 40.3416 -1.13558 1.16376 0
M  V30 434 O 41.5256 -1.20444 1.45002 0
M  V30 435 C 38.6526 -1.8509 2.83653 0
M  V30 436 C 37.6986 -1.47106 4.00328 0
M  V30 437 S 38.5316 -0.53006 5.3287 0
M  V30 438 C 39.6876 -1.76665 6.0045 0
M  V30 439 H 39.9206 -0.0717806 2.97213 0
M  V30 440 H 37.4536 0.0815678 1.54184 0
M  V30 441 H 39.4116 -2.55605 3.21211 0
M  V30 442 H 38.0726 -2.37247 2.05846 0
M  V30 443 H 37.2656 -2.38594 4.43947 0
M  V30 444 H 36.8676 -0.845885 3.64309 0
M  V30 445 H 39.1596 -2.7077 6.21039 0
M  V30 446 H 40.1026 -1.37308 6.9466 0
M  V30 447 H 40.5106 -1.94174 5.30054 0
M  V30 448 N 39.9087 -1.5758 0.0250728 0
M  V30 449 C 41.1337 -1.96337 -0.668317 0
M  V30 450 C 41.5587 -0.901314 -1.651 0
M  V30 451 O 40.9167 0.138187 -1.80773 0
M  V30 452 C 40.9647 -3.34191 -1.35457 0
M  V30 453 O 40.0687 -3.30269 -2.46974 0
M  V30 454 H 39.4097 -0.640281 -0.175887 0
M  V30 455 H 41.9397 -2.0442 0.0857224 0
M  V30 456 H 41.9497 -3.70331 -1.71228 0
M  V30 457 H 40.6247 -4.11036 -0.634218 0
M  V30 458 H 39.2017 -3.05841 -2.13344 0
M  V30 459 N 41.3868 0.248026 -1.55636 0
M  V30 460 C 42.6328 0.973427 -1.78594 0
M  V30 461 C 42.9878 1.83007 -0.593823 0
M  V30 462 O 42.2808 1.87097 0.412961 0
M  V30 463 C 42.4748 1.86819 -3.04686 0
M  V30 464 C 42.3038 1.09965 -4.36048 0
M  V30 465 C 41.0738 0.805204 -4.98843 0
M  V30 466 C 43.2718 0.477783 -5.12076 0
M  V30 467 N 41.2538 0.0124859 -6.13899 0
M  V30 468 C 42.6248 -0.179565 -6.1974 0
M  V30 469 C 44.6798 0.388136 -4.96385 0
M  V30 470 C 43.3828 -0.91795 -7.13419 0
M  V30 471 C 45.4088 -0.336716 -5.90441 0
M  V30 472 C 44.7708 -0.982705 -6.97511 0
M  V30 473 H 40.8698 0.337348 -0.705493 0
M  V30 474 H 43.4538 0.24667 -1.93131 0
M  V30 475 H 41.6248 2.56698 -2.9148 0
M  V30 476 H 43.3568 2.52907 -3.15944 0
M  V30 477 H 40.1118 1.11671 -4.60246 0
M  V30 478 H 40.5358 -0.371933 -6.75978 0
M  V30 479 H 45.1778 0.873237 -4.13684 0
M  V30 480 H 42.8958 -1.41466 -7.95621 0
M  V30 481 H 46.4818 -0.406731 -5.80377 0
M  V30 482 H 45.3618 -1.53464 -7.69037 0
M  V30 483 N 42.8649 1.48995 0.513639 0
M  V30 484 C 44.1109 1.58076 1.27042 0
M  V30 485 C 44.4439 0.261026 1.92438 0
M  V30 486 O 43.7189 -0.734393 1.80103 0
M  V30 487 C 44.0019 2.73091 2.34719 0
M  V30 488 C 43.8549 4.14821 1.73907 0
M  V30 489 C 45.1739 2.83796 3.36375 0
M  V30 490 H 42.2929 0.575391 0.460536 0
M  V30 491 H 44.9349 1.81232 0.570516 0
M  V30 492 H 43.0849 2.53479 2.94416 0
M  V30 493 H 44.7569 4.45917 1.18135 0
M  V30 494 H 42.9999 4.21058 1.0437 0
M  V30 495 H 43.6709 4.91147 2.51949 0
M  V30 496 H 46.1469 3.01611 2.86653 0
M  V30 497 H 45.0229 3.65971 4.09093 0
M  V30 498 H 45.2839 1.92624 3.9793 0
M  V30 499 N 44.343 -0.763751 1.37857 0
M  V30 500 C 45.253 -1.90817 1.36478 0
M  V30 501 C 46.269 -1.71997 0.263248 0
M  V30 502 O 47.445 -1.95095 0.499979 0
M  V30 503 C 44.51 -3.2605 1.17864 0
M  V30 504 C 43.571 -3.57467 2.3773 0
M  V30 505 C 42.804 -4.86249 2.19995 0
M  V30 506 O 43.027 -5.57884 1.18836 0
M  V30 507 O 41.961 -5.16911 3.08361 0
M  V30 508 H 45.787 -1.94933 2.32884 0
M  V30 509 H 43.372 -0.907619 1.1867 0
M  V30 510 H 45.254 -4.06924 1.09504 0
M  V30 511 H 43.929 -3.22769 0.245372 0
M  V30 512 H 42.836 -2.76796 2.51664 0
M  V30 513 H 44.169 -3.655 3.29652 0
M  V30 514 N 45.8211 -1.22559 -0.990812 0
M  V30 515 C 47.2371 -0.985996 -1.255 0
M  V30 516 C 47.4371 0.319173 -1.98956 0
M  V30 517 O 46.4931 1.04127 -2.3003 0
M  V30 518 C 47.8061 -2.18607 -2.06474 0
M  V30 519 C 49.3541 -2.22985 -2.19651 0
M  V30 520 C 49.8291 -3.4255 -3.04012 0
M  V30 521 N 51.3201 -3.42725 -3.11599 0
M  V30 522 C 52.0551 -4.31892 -3.7717 0
M  V30 523 N 51.5511 -5.31279 -4.44651 0
M  V30 524 N 53.3441 -4.19662 -3.73952 0
M  V30 525 H 45.4951 -2.06469 -0.49841 0
M  V30 526 H 47.7581 -0.904853 -0.282747 0
M  V30 527 H 47.4641 -3.13267 -1.59865 0
M  V30 528 H 47.3381 -2.18838 -3.07229 0
M  V30 529 H 49.7251 -1.28871 -2.65474 0
M  V30 530 H 49.8061 -2.26791 -1.18319 0
M  V30 531 H 49.4501 -4.36965 -2.58889 0
M  V30 532 H 49.3801 -3.35984 -4.0549 0
M  V30 533 H 51.8711 -2.70807 -2.63575 0
M  V30 534 H 52.1841 -5.95593 -4.92431 0
M  V30 535 H 50.5291 -5.3519 -4.43392 0
M  V30 536 H 53.7201 -3.41268 -3.20396 0
M  V30 537 H 53.8931 -4.89358 -4.24774 0
M  V30 538 N 47.2992 1.18797 -1.03562 0
M  V30 539 C 48.2492 2.20161 -0.592724 0
M  V30 540 C 49.2332 1.56772 0.362133 0
M  V30 541 O 50.4252 1.76062 0.182009 0
M  V30 542 C 47.5542 3.43266 0.0481024 0
M  V30 543 C 46.6402 4.13786 -0.9296 0
M  V30 544 N 47.0312 4.60388 -2.09467 0
M  V30 545 C 45.3292 4.39572 -0.754499 0
M  V30 546 C 46.0302 5.14619 -2.71187 0
M  V30 547 N 45.0062 5.05826 -1.991 0
M  V30 548 H 48.8082 2.53877 -1.48066 0
M  V30 549 H 46.3222 1.34946 -0.903514 0
M  V30 550 H 48.3192 4.15136 0.383058 0
M  V30 551 H 46.9792 3.11048 0.931636 0
M  V30 552 H 47.9902 4.54999 -2.47379 0
M  V30 553 H 44.6672 4.17425 0.0793713 0
M  V30 554 H 46.0572 5.60917 -3.69895 0
M  V30 555 N 48.7773 0.814389 1.34928 0
M  V30 556 C 49.7093 0.187834 2.28429 0
M  V30 557 C 50.7223 -0.617374 1.5064 0
M  V30 558 O 51.9113 -0.448454 1.72775 0
M  V30 559 C 49.0113 -0.755962 3.30361 0
M  V30 560 C 48.1843 0.00456686 4.374 0
M  V30 561 C 47.2433 -0.858876 5.19143 0
M  V30 562 O 46.2693 -0.306968 5.68372 0
M  V30 563 N 47.4713 -2.17988 5.38016 0
M  V30 564 H 50.2363 0.991105 2.82838 0
M  V30 565 H 47.7973 0.670561 1.4736 0
M  V30 566 H 49.7893 -1.338 3.81942 0
M  V30 567 H 48.3593 -1.46001 2.7641 0
M  V30 568 H 47.5793 0.767865 3.86649 0
M  V30 569 H 48.8673 0.528422 5.06049 0
M  V30 570 H 48.2653 -2.65212 4.99679 0
M  V30 571 H 46.8223 -2.71098 5.92747 0
M  V30 572 N 50.2554 -1.46986 0.568584 0
M  V30 573 C 51.6664 -1.86188 0.138219 0
M  V30 574 C 52.0174 -1.47388 -1.29504 0
M  V30 575 O 51.1424 -0.88219 -1.97602 0
M  V30 576 C 51.7374 -3.3792 0.244065 0
M  V30 577 C 50.2964 -3.76171 -0.131335 0
M  V30 578 C 49.4434 -2.71027 0.586465 0
M  V30 579 H 52.3944 -1.38342 0.777645 0
M  V30 580 H 52.4154 -3.76729 -0.534351 0
M  V30 581 H 51.9274 -3.66128 1.28731 0
M  V30 582 H 50.0284 -3.5358 -1.17526 0
M  V30 583 H 50.1414 -4.78523 0.235146 0
M  V30 584 H 48.5054 -2.54684 0.0282722 0
M  V30 585 H 49.2884 -3.02077 1.63109 0
M  V30 586 N 51.7335 -0.305618 -1.54608 0
M  V30 587 C 52.6635 0.561482 -2.26649 0
M  V30 588 C 53.6445 1.13415 -1.26772 0
M  V30 589 O 54.8295 1.16262 -1.55553 0
M  V30 590 C 51.9595 1.73122 -3.01075 0
M  V30 591 C 50.9135 1.2887 -4.08138 0
M  V30 592 C 50.2395 2.54396 -4.70305 0
M  V30 593 C 51.5395 0.416578 -5.20636 0
M  V30 594 H 53.2335 -0.0393902 -2.99374 0
M  V30 595 H 50.7795 -0.020385 -1.43986 0
M  V30 596 H 52.7325 2.34396 -3.50195 0
M  V30 597 H 51.4565 2.3584 -2.25936 0
M  V30 598 H 50.1155 0.698991 -3.59875 0
M  V30 599 H 49.7635 3.15439 -3.918 0
M  V30 600 H 49.4635 2.25486 -5.42614 0
M  V30 601 H 50.9875 3.16464 -5.2219 0
M  V30 602 H 52.4015 0.935116 -5.65622 0
M  V30 603 H 50.7985 0.221046 -5.99693 0
M  V30 604 H 51.8685 -0.557162 -4.81688 0
M  V30 605 N 53.2116 1.57565 -0.0334293 0
M  V30 606 C 54.1416 2.13511 0.945265 0
M  V30 607 C 55.1226 1.05231 1.33643 0
M  V30 608 O 56.3076 1.33084 1.41429 0
M  V30 609 C 53.4376 2.6657 2.22616 0
M  V30 610 C 52.3916 3.79676 1.97561 0
M  V30 611 C 51.7176 4.1918 3.31952 0
M  V30 612 C 53.0176 5.0557 1.31135 0
M  V30 613 H 54.7116 2.95538 0.479325 0
M  V30 614 H 52.2576 1.42166 0.229115 0
M  V30 615 H 54.2106 3.04344 2.91466 0
M  V30 616 H 52.9346 1.8171 2.71384 0
M  V30 617 H 51.5936 3.42347 1.31127 0
M  V30 618 H 51.2416 3.31296 3.78487 0
M  V30 619 H 50.9416 4.95402 3.15992 0
M  V30 620 H 52.4656 4.59541 4.02063 0
M  V30 621 H 53.8796 5.40903 1.89992 0
M  V30 622 H 52.2766 5.86818 1.25559 0
M  V30 623 H 53.3466 4.84062 0.284894 0
M  V30 624 N 54.6897 -0.239769 1.55765 0
M  V30 625 C 55.5997 -1.31831 1.94056 0
M  V30 626 C 56.6157 -1.52275 0.841925 0
M  V30 627 O 57.7917 -1.65759 1.14394 0
M  V30 628 C 54.8567 -2.65156 2.23368 0
M  V30 629 C 53.9177 -2.53173 3.46701 0
M  V30 630 C 53.1507 -3.8014 3.74606 0
M  V30 631 O 53.3737 -4.82343 3.04469 0
M  V30 632 O 52.3077 -3.78344 4.68123 0
M  V30 633 H 56.1337 -1.02347 2.85935 0
M  V30 634 H 53.7187 -0.441123 1.42739 0
M  V30 635 H 55.6007 -3.43929 2.43497 0
M  V30 636 H 54.2757 -2.94358 1.34666 0
M  V30 637 H 53.1827 -1.72662 3.31871 0
M  V30 638 H 54.5157 -2.28915 4.35728 0
M  V30 639 N 56.1678 -1.49265 -0.50573 0
M  V30 640 C 57.0998 -1.617 -1.62437 0
M  V30 641 C 58.1128 -0.499924 -1.54934 0
M  V30 642 O 59.3018 -0.771785 -1.60953 0
M  V30 643 C 56.4018 -1.5533 -3.01207 0
M  V30 644 C 55.5748 -2.8249 -3.33943 0
M  V30 645 C 54.6338 -2.69238 -4.52103 0
M  V30 646 O 53.6598 -3.43167 -4.5412 0
M  V30 647 N 54.8618 -1.80468 -5.51735 0
M  V30 648 H 57.6268 -2.58177 -1.52199 0
M  V30 649 H 55.1878 -1.46294 -0.693511 0
M  V30 650 H 57.1798 -1.44125 -3.78167 0
M  V30 651 H 55.7498 -0.667297 -3.05395 0
M  V30 652 H 54.9698 -3.08081 -2.45926 0
M  V30 653 H 56.2578 -3.66802 -3.5261 0
M  V30 654 H 55.6558 -1.19653 -5.52901 0
M  V30 655 H 54.2128 -1.75188 -6.27816 0
M  V30 656 N 57.6459 0.756429 -1.3826 0
M  V30 657 C 58.5959 1.86069 -1.31766 0
M  V30 658 C 59.5799 1.59621 -0.202483 0
M  V30 659 O 60.7719 1.7149 -0.438211 0
M  V30 660 C 57.9009 3.23742 -1.1422 0
M  V30 661 C 56.9869 3.56091 -2.30348 0
M  V30 662 N 57.3779 3.59517 -3.55783 0
M  V30 663 C 55.6759 3.86341 -2.22838 0
M  V30 664 C 56.3769 3.89052 -4.32451 0
M  V30 665 N 55.3529 4.05736 -3.61772 0
M  V30 666 H 59.1549 1.86992 -2.26741 0
M  V30 667 H 56.6689 0.953643 -1.31451 0
M  V30 668 H 58.6659 4.02761 -1.07652 0
M  V30 669 H 57.3259 3.24073 -0.201763 0
M  V30 670 H 58.3369 3.41347 -3.89491 0
M  V30 671 H 55.0139 3.94404 -1.36937 0
M  V30 672 H 56.4039 3.98349 -5.4108 0
M  V30 673 N 59.124 1.23083 0.984299 0
M  V30 674 C 60.37 1.06214 1.72761 0
M  V30 675 C 60.703 -0.400584 1.90024 0
M  V30 676 O 59.978 -1.29672 1.44967 0
M  V30 677 C 60.261 1.78375 3.12817 0
M  V30 678 C 60.114 3.32296 3.03149 0
M  V30 679 C 61.433 1.54309 4.12161 0
M  V30 680 H 58.552 0.387251 0.627061 0
M  V30 681 H 61.194 1.51536 1.14616 0
M  V30 682 H 59.344 1.39848 3.62457 0
M  V30 683 H 61.016 3.8032 2.61064 0
M  V30 684 H 59.259 3.6153 2.39747 0
M  V30 685 H 59.93 3.77972 4.02295 0
M  V30 686 H 62.406 1.87791 3.71314 0
M  V30 687 H 61.282 2.07281 5.08258 0
M  V30 688 H 61.543 0.477572 4.39513 0
M  V30 689 N 60.6021 -1.18246 1.0419 0
M  V30 690 C 61.5321 -2.24127 0.654914 0
M  V30 691 C 62.5131 -1.66617 -0.342451 0
M  V30 692 O 63.6981 -1.92924 -0.222277 0
M  V30 693 C 60.8281 -3.47295 0.0183757 0
M  V30 694 C 59.7821 -4.17563 0.939414 0
M  V30 695 C 59.1081 -5.34438 0.167286 0
M  V30 696 C 60.4081 -4.70917 2.25908 0
M  V30 697 H 62.1021 -2.56753 1.54007 0
M  V30 698 H 59.6481 -1.23414 0.74195 0
M  V30 699 H 61.6011 -4.20572 -0.264082 0
M  V30 700 H 60.3251 -3.13907 -0.901664 0
M  V30 701 H 58.9841 -3.46186 1.20628 0
M  V30 702 H 58.6321 -4.97298 -0.7552 0
M  V30 703 H 58.3321 -5.82388 0.780901 0
M  V30 704 H 59.8561 -6.10504 -0.108125 0
M  V30 705 H 61.2701 -5.35882 2.03724 0
M  V30 706 H 59.6671 -5.29406 2.82577 0
M  V30 707 H 60.7371 -3.88272 2.9047 0
M  V30 708 N 62.0802 -0.821533 -1.34494 0
M  V30 709 C 63.3102 -0.421272 -2.02259 0
M  V30 710 C 63.7182 0.977047 -1.6202 0
M  V30 711 O 63.0612 1.64348 -0.820703 0
M  V30 712 C 63.1232 -0.44231 -3.56769 0
M  V30 713 C 62.7872 -1.79372 -4.20327 0
M  V30 714 C 63.7842 -2.75435 -4.40944 0
M  V30 715 C 61.4692 -2.08182 -4.57127 0
M  V30 716 C 63.4632 -3.98482 -4.97484 0
M  V30 717 C 61.1502 -3.31489 -5.13379 0
M  V30 718 C 62.1482 -4.26457 -5.33501 0
M  V30 719 O 61.8362 -5.47585 -5.88562 0
M  V30 720 H 61.5682 -0.167473 -0.654927 0
M  V30 721 H 64.1222 -1.11073 -1.72777 0
M  V30 722 H 62.3522 0.303836 -3.85505 0
M  V30 723 H 64.0412 -0.0622925 -4.05852 0
M  V30 724 H 64.8072 -2.54473 -4.12878 0
M  V30 725 H 60.6862 -1.35066 -4.4077 0
M  V30 726 H 64.2302 -4.72618 -5.13106 0
M  V30 727 H 60.1272 -3.52316 -5.40873 0
M  V30 728 H 60.8952 -5.49086 -6.06998 0
M  V30 729 N 63.5583 1.46682 -0.576371 0
M  V30 730 C 64.5213 2.28707 0.150239 0
M  V30 731 C 65.5213 1.38035 0.824794 0
M  V30 732 O 66.7113 1.60476 0.677719 0
M  V30 733 C 63.8433 3.18248 1.22192 0
M  V30 734 H 65.0363 2.94423 -0.570521 0
M  V30 735 H 62.5893 1.52688 -0.334078 0
M  V30 736 H 63.3243 2.57265 1.97447 0
M  V30 737 H 63.1093 3.85 0.742812 0
M  V30 738 H 64.5993 3.80001 1.73172 0
M  V30 739 N 65.0364 0.313813 1.54444 0
M  V30 740 C 66.2644 -0.293918 2.04802 0
M  V30 741 C 66.6794 -1.46537 1.19047 0
M  V30 742 O 66.0364 -1.81182 0.218939 0
M  V30 743 C 66.0874 -0.737806 3.53891 0
M  V30 744 O 65.8084 0.387038 4.36387 0
M  V30 745 C 67.3094 -1.40936 4.203 0
M  V30 746 H 64.5294 -0.0620057 0.668129 0
M  V30 747 H 67.0734 0.457169 1.99324 0
M  V30 748 H 65.2284 -1.43889 3.59687 0
M  V30 749 H 65.6424 0.0391274 5.24485 0
M  V30 750 H 67.1164 -1.67099 5.26101 0
M  V30 751 H 67.5934 -2.35355 3.70816 0
M  V30 752 H 68.1994 -0.751117 4.18615 0
M  V30 753 N 66.5145 -1.57545 0.0417849 0
M  V30 754 C 67.7625 -1.91937 -0.632829 0
M  V30 755 C 68.0835 -0.919978 -1.71934 0
M  V30 756 O 67.3535 0.0366064 -1.95866 0
M  V30 757 H 65.9335 -0.708493 -0.236742 0
M  V30 758 H 68.5955 -1.9468 0.0925745 0
M  V30 759 H 67.6915 -2.92912 -1.07746 0
M  V30 760 N 67.9926 0.231505 -1.5589 0
M  V30 761 C 69.2206 0.974505 -1.82513 0
M  V30 762 C 69.6356 1.78344 -0.619591 0
M  V30 763 O 68.9926 1.77792 0.411848 0
M  V30 764 C 69.0436 1.90007 -3.07538 0
M  V30 765 O 68.7646 1.12385 -4.2344 0
M  V30 766 C 70.2656 2.75779 -3.47075 0
M  V30 767 H 67.4856 0.286065 -0.606966 0
M  V30 768 H 70.0296 0.249739 -2.02969 0
M  V30 769 H 68.1846 2.57891 -2.89086 0
M  V30 770 H 68.5986 1.75125 -4.944 0
M  V30 771 H 70.0726 3.36443 -4.37619 0
M  V30 772 H 70.5496 3.47672 -2.68367 0
M  V30 773 H 71.1556 2.13323 -3.67931 0
M  V30 774 N 69.4707 1.49531 0.497807 0
M  V30 775 C 70.6987 1.62893 1.27567 0
M  V30 776 C 71.1137 0.301585 1.86376 0
M  V30 777 O 70.4707 -0.713335 1.67982 0
M  V30 778 C 70.5217 2.70013 2.40364 0
M  V30 779 O 70.2427 3.976 1.83972 0
M  V30 780 C 71.7437 2.94109 3.31685 0
M  V30 781 H 68.9637 0.548298 0.386794 0
M  V30 782 H 71.5077 1.95584 0.597245 0
M  V30 783 H 69.6627 2.40092 3.04031 0
M  V30 784 H 70.0767 4.56631 2.58047 0
M  V30 785 H 71.5507 3.72788 4.07104 0
M  V30 786 H 72.0277 2.04147 3.88871 0
M  V30 787 H 72.6337 3.2546 2.73781 0
M  V30 788 N 70.9488 -0.749086 1.3866 0
M  V30 789 C 72.1968 -1.50535 1.34847 0
M  V30 790 C 72.5178 -1.94909 -0.0595016 0
M  V30 791 O 71.7878 -1.67973 -1.00806 0
M  V30 792 H 70.3678 -0.558395 0.49619 0
M  V30 793 H 73.0298 -0.890165 1.73384 0
M  V30 794 H 72.1258 -2.39413 2.00219 0
M  V30 795 N 72.4269 -1.23603 -0.977757 0
M  V30 796 C 73.3749 -1.01704 -2.09187 0
M  V30 797 C 74.3689 0.0448214 -1.69341 0
M  V30 798 O 75.5749 -0.108902 -1.7967 0
M  V30 799 H 71.9499 -0.311803 -0.684312 0
M  V30 800 H 73.9209 -1.96207 -2.24823 0
M  V30 801 C 72.6699 -0.627746 -3.41986 0
M  V30 802 H 71.9929 -1.43656 -3.73099 0
M  V30 803 H 73.4329 -0.514053 -4.20872 0
M  V30 804 C 71.8919 0.664238 -3.30287 0
M  V30 805 O 72.4219 1.71268 -3.6336 0
M  V30 806 N 70.6279 0.641156 -2.83439 0
M  V30 807 H 70.1749 -0.212376 -2.56723 0
M  V30 808 H 70.1329 1.50583 -2.75993 0
M  V30 809 N 73.905 1.17692 -1.04816 0
M  V30 810 C 74.835 2.23777 -0.666791 0
M  V30 811 C 75.816 1.66796 0.33361 0
M  V30 812 O 77.001 1.93039 0.212042 0
M  V30 813 C 74.131 3.47281 -0.0367933 0
M  V30 814 C 73.085 4.17059 -0.961546 0
M  V30 815 C 72.411 5.34342 -0.195626 0
M  V30 816 C 73.711 4.69713 -2.28402 0
M  V30 817 H 75.405 2.55933 -1.55367 0
M  V30 818 H 72.951 1.23019 -0.748484 0
M  V30 819 H 74.904 4.20706 0.241775 0
M  V30 820 H 73.628 3.14381 0.885004 0
M  V30 821 H 72.287 3.45541 -1.22462 0
M  V30 822 H 71.935 4.97692 0.728816 0
M  V30 823 H 71.635 5.81966 -0.811775 0
M  V30 824 H 73.159 6.10553 0.0757473 0
M  V30 825 H 74.573 5.34794 -2.06563 0
M  V30 826 H 72.97 5.279 -2.8538 0
M  V30 827 H 74.04 3.86726 -2.92525 0
M  V30 828 N 75.3831 0.828654 1.34056 0
M  V30 829 C 76.6321 0.415828 1.97367 0
M  V30 830 C 76.9451 -1.02796 1.6641 0
M  V30 831 O 78.1511 -1.54497 2.23255 0
M  V30 832 C 76.6071 0.692601 3.53173 0
M  V30 833 C 76.2151 2.15038 3.93017 0
M  V30 834 C 77.9591 0.346222 4.23086 0
M  V30 835 C 75.8661 2.37174 5.41758 0
M  V30 836 H 74.7961 0.151755 0.738571 0
M  V30 837 H 77.4471 1.01581 1.52819 0
M  V30 838 H 75.8291 0.0223764 3.95994 0
M  V30 839 H 77.0031 2.86024 3.61285 0
M  V30 840 H 75.3181 2.45875 3.36057 0
M  V30 841 H 77.9151 0.48937 5.32456 0
M  V30 842 H 78.2581 -0.709842 4.10204 0
M  V30 843 H 78.7911 0.971258 3.85761 0
M  V30 844 H 75.5301 3.41308 5.59633 0
M  V30 845 H 75.0501 1.70738 5.74986 0
M  V30 846 H 76.7291 2.19818 6.08514 0
M  V30 847 N 76.8612 -1.46375 0.584142 0
M  V30 848 C 78.0862 -2.07268 0.0740405 0
M  V30 849 C 78.5112 -1.42979 -1.22223 0
M  V30 850 O 77.8692 -0.514092 -1.73859 0
M  V30 851 C 77.9172 -3.60518 -0.0767769 0
M  V30 852 O 77.0212 -3.96533 -1.13292 0
M  V30 853 H 76.3622 -0.660961 0.0634524 0
M  V30 854 H 78.8922 -1.87991 0.807492 0
M  V30 855 H 78.9022 -4.07021 -0.282489 0
M  V30 856 H 77.5772 -4.06702 0.86986 0
M  V30 857 H 76.1542 -3.61738 -0.905553 0
M  V30 858 N 78.3393 -0.321999 -1.54275 0
M  V30 859 C 79.7553 0.0306999 -1.5957 0
M  V30 860 C 79.9553 1.50614 -1.33857 0
M  V30 861 O 79.0113 2.2619 -1.12223 0
M  V30 862 C 80.3243 -0.386122 -2.98211 0
M  V30 863 C 81.8723 -0.336647 -3.11184 0
M  V30 864 C 82.3473 -0.728607 -4.52167 0
M  V30 865 N 83.8383 -0.681952 -4.58152 0
M  V30 866 C 84.5733 -0.957449 -5.6535 0
M  V30 867 N 84.0693 -1.3 -6.80494 0
M  V30 868 N 85.8623 -0.883113 -5.55119 0
M  V30 869 H 78.0133 -1.28332 -1.69247 0
M  V30 870 H 80.2763 -0.521716 -0.791528 0
M  V30 871 H 79.9823 -1.41404 -3.22022 0
M  V30 872 H 79.8563 0.249662 -3.76373 0
M  V30 873 H 82.2433 0.682058 -2.8711 0
M  V30 874 H 82.3243 -1.00734 -2.3513 0
M  V30 875 H 81.9683 -1.74522 -4.76974 0
M  V30 876 H 81.8983 -0.0356152 -5.26588 0
M  V30 877 H 84.3893 -0.428985 -3.75457 0
M  V30 878 H 84.7023 -1.49563 -7.58189 0
M  V30 879 H 83.0473 -1.33824 -6.81994 0
M  V30 880 H 86.2383 -0.615001 -4.64042 0
M  V30 881 H 86.4113 -1.10118 -6.38575 0
M  V30 882 N 79.8174 1.5752 -0.0501392 0
M  V30 883 C 80.7804 2.1037 0.909786 0
M  V30 884 C 81.7804 1.02308 1.24056 0
M  V30 885 O 82.9704 1.28385 1.17741 0
M  V30 886 C 80.1024 2.58708 2.21998 0
M  V30 887 H 81.2954 2.96479 0.451665 0
M  V30 888 H 78.8484 1.55038 0.198248 0
M  V30 889 H 79.5834 1.75989 2.72394 0
M  V30 890 H 79.3684 3.37675 1.99295 0
M  V30 891 H 80.8584 2.99747 2.9076 0
M  V30 892 N 81.2955 -0.223234 1.56011 0
M  V30 893 C 82.5235 -0.964812 1.83027 0
M  V30 894 C 82.9385 -1.78013 0.62904 0
M  V30 895 O 82.2955 -1.78008 -0.402414 0
M  V30 896 C 82.3465 -1.88373 3.08542 0
M  V30 897 O 82.0675 -1.10137 4.2403 0
M  V30 898 C 83.5685 -2.73934 3.48533 0
M  V30 899 H 80.7885 -0.282842 0.608475 0
M  V30 900 H 83.3325 -0.238971 2.03099 0
M  V30 901 H 81.4875 -2.56354 2.9045 0
M  V30 902 H 81.9015 -1.72501 4.95322 0
M  V30 903 H 83.3755 -3.34117 4.39397 0
M  V30 904 H 83.8525 -3.46244 2.70207 0
M  V30 905 H 84.4585 -2.11369 3.69057 0
M  V30 906 N 82.7736 -1.49793 -0.48987 0
M  V30 907 C 84.0216 -1.59525 -1.24081 0
M  V30 908 C 84.3426 -0.288953 -1.92847 0
M  V30 909 O 83.6126 0.692436 -1.83254 0
M  V30 910 H 82.1926 -0.587796 -0.460983 0
M  V30 911 H 84.8546 -1.86477 -0.566778 0
M  V30 912 H 83.9506 -2.39696 -1.99881 0
M  V30 913 N 84.2517 0.741722 -1.39055 0
M  V30 914 C 85.1847 1.86416 -1.31622 0
M  V30 915 C 86.1627 1.61473 -0.191076 0
M  V30 916 O 87.3467 1.84825 -0.370399 0
M  V30 917 C 84.4737 3.22266 -1.04221 0
M  V30 918 C 83.5197 3.66079 -2.18834 0
M  V30 919 S 84.3527 3.7623 -3.81066 0
M  V30 920 C 85.5087 5.14881 -3.55877 0
M  V30 921 H 85.7417 1.92437 -2.26617 0
M  V30 922 H 83.2747 0.905907 -1.25031 0
M  V30 923 H 85.2327 4.00714 -0.890964 0
M  V30 924 H 83.8937 3.1391 -0.109237 0
M  V30 925 H 83.0867 4.64648 -1.95238 0
M  V30 926 H 82.6887 2.94817 -2.30128 0
M  V30 927 H 84.9807 6.01006 -3.12726 0
M  V30 928 H 85.9237 5.43503 -4.53884 0
M  V30 929 H 86.3317 4.84239 -2.90126 0
M  V30 930 N 85.7298 1.2412 0.971189 0
M  V30 931 C 86.6778 1.02812 2.08644 0
M  V30 932 C 87.6718 -0.0358403 1.69362 0
M  V30 933 O 88.8778 0.118429 1.7961 0
M  V30 934 H 85.2528 0.315428 0.682649 0
M  V30 935 H 87.2238 1.97397 2.23779 0
M  V30 936 C 85.9728 0.645874 3.41649 0
M  V30 937 H 85.2958 1.45632 3.72332 0
M  V30 938 H 86.7358 0.536366 4.20594 0
M  V30 939 C 85.1948 -0.646713 3.30635 0
M  V30 940 O 85.7248 -1.69338 3.64263 0
M  V30 941 N 83.9308 -0.626115 2.83775 0
M  V30 942 H 83.4778 0.225988 2.56607 0
M  V30 943 H 83.4358 -1.49117 2.76788 0
M  V30 944 N 87.2079 -1.17134 1.05439 0
M  V30 945 C 88.4539 -1.87733 0.767077 0
M  V30 946 C 88.7869 -1.8098 -0.704253 0
M  V30 947 O 88.0619 -1.21951 -1.5152 0
M  V30 948 C 88.3449 -3.37659 1.25133 0
M  V30 949 C 88.1979 -3.53149 2.78578 0
M  V30 950 C 89.5169 -4.31768 0.852324 0
M  V30 951 H 86.6359 -0.681687 0.280129 0
M  V30 952 H 89.2779 -1.37732 1.30881 0
M  V30 953 H 87.4279 -3.80373 0.790469 0
M  V30 954 H 89.0999 -3.19434 3.32806 0
M  V30 955 H 87.3429 -2.95345 3.17732 0
M  V30 956 H 88.0139 -4.58403 3.07523 0
M  V30 957 H 90.4899 -3.96909 1.24911 0
M  V30 958 H 89.3659 -5.35199 1.21873 0
M  V30 959 H 89.6269 -4.41429 -0.243485 0
M  V30 960 N 88.686 -0.835752 -1.33615 0
M  V30 961 C 89.634 -0.255238 -2.31195 0
M  V30 962 C 90.628 0.61107 -1.57995 0
M  V30 963 O 91.834 0.500979 -1.72888 0
M  V30 964 H 88.209 -0.0638085 -0.749288 0
M  V30 965 H 90.18 -1.09283 -2.77669 0
M  V30 966 C 88.929 0.55754 -3.43201 0
M  V30 967 H 88.252 -0.0997553 -3.99676 0
M  V30 968 H 89.692 0.929622 -4.13683 0
M  V30 969 C 88.151 1.73515 -2.88781 0
M  V30 970 O 88.681 2.83376 -2.84712 0
M  V30 971 N 86.887 1.55603 -2.4543 0
M  V30 972 H 86.434 0.662354 -2.48939 0
M  V30 973 H 86.392 2.34545 -2.09371 0
M  V30 974 N 90.1641 1.46063 -0.591896 0
M  V30 975 C 91.1271 2.28854 0.125973 0
M  V30 976 C 92.1271 1.38903 0.810107 0
M  V30 977 O 93.3171 1.61186 0.66066 0
M  V30 978 C 90.4491 3.19526 1.1881 0
M  V30 979 H 91.6421 2.93802 -0.601717 0
M  V30 980 H 89.1951 1.52325 -0.350254 0
M  V30 981 H 89.9301 2.59345 1.94707 0
M  V30 982 H 89.7151 3.85766 0.701936 0
M  V30 983 H 91.2051 3.81817 1.69132 0
M  V30 984 N 91.6422 0.330177 1.54103 0
M  V30 985 C 92.5752 -0.575477 2.20825 0
M  V30 986 C 93.5532 -1.11064 1.18758 0
M  V30 987 O 94.7372 -1.17341 1.47524 0
M  V30 988 C 91.8642 -1.79032 2.87516 0
M  V30 989 C 90.9102 -1.38581 4.03358 0
M  V30 990 S 91.7432 -0.416911 5.33875 0
M  V30 991 C 92.8992 -1.63889 6.04062 0
M  V30 992 H 93.1322 -0.00872114 2.97299 0
M  V30 993 H 90.6652 0.114254 1.53977 0
M  V30 994 H 92.6232 -2.48734 3.2656 0
M  V30 995 H 91.2842 -2.32827 2.10832 0
M  V30 996 H 90.4772 -2.29123 4.48908 0
M  V30 997 H 90.0792 -0.768419 3.66021 0
M  V30 998 H 92.3712 -2.57536 6.26643 0
M  V30 999 H 93.3142 -1.22542 6.97416 0
M  V30 1000 H 93.7222 -1.82887 5.34053 0
M  V30 1001 N 93.1203 -1.57491 0.0584922 0
M  V30 1002 C 94.0503 -2.14988 -0.911178 0
M  V30 1003 C 95.0313 -1.07343 -1.31952 0
M  V30 1004 O 96.2163 -1.35318 -1.39294 0
M  V30 1005 C 93.3463 -2.70078 -2.18347 0
M  V30 1006 C 92.3003 -3.82771 -1.91495 0
M  V30 1007 C 91.6263 -4.24408 -3.25241 0
M  V30 1008 C 92.9263 -5.07592 -1.23075 0
M  V30 1009 H 94.6203 -2.96263 -0.432246 0
M  V30 1010 H 92.1663 -1.42512 -0.206469 0
M  V30 1011 H 94.1193 -3.08943 -2.86587 0
M  V30 1012 H 92.8433 -1.86005 -2.68458 0
M  V30 1013 H 91.5023 -3.44389 -1.25664 0
M  V30 1014 H 91.1503 -3.37275 -3.73168 0
M  V30 1015 H 90.8503 -5.00366 -3.08071 0
M  V30 1016 H 92.3743 -4.65879 -3.94701 0
M  V30 1017 H 93.7883 -5.43857 -1.81362 0
M  V30 1018 H 92.1853 -5.88741 -1.16207 0
M  V30 1019 H 93.2553 -4.84454 -0.207847 0
M  V30 1020 N 94.5984 0.214957 -1.56127 0
M  V30 1021 C 95.8234 0.95924 -1.83884 0
M  V30 1022 C 96.2484 1.7689 -0.639644 0
M  V30 1023 O 95.6064 1.76566 0.411601 0
M  V30 1024 C 95.6544 1.84723 -3.09693 0
M  V30 1025 O 94.7584 2.94346 -2.8885 0
M  V30 1026 H 94.0994 0.27125 -0.606069 0
M  V30 1027 H 96.6294 0.226276 -2.03345 0
M  V30 1028 H 96.6394 2.25576 -3.39969 0
M  V30 1029 H 95.3144 1.25218 -3.96602 0
M  V30 1030 H 93.8914 2.57391 -2.69823 0
M  V30 1031 N 96.0765 1.50051 0.48192 0
M  V30 1032 C 97.3245 1.60181 1.23234 0
M  V30 1033 C 97.6455 0.299176 1.92691 0
M  V30 1034 O 96.9155 -0.682708 1.83619 0
M  V30 1035 H 95.4955 0.590232 0.457859 0
M  V30 1036 H 98.1575 1.86775 0.556881 0
M  V30 1037 H 97.2535 2.40753 1.98607 0
M  V30 1038 N 97.5546 -0.734337 1.39446 0
M  V30 1039 C 98.9656 -1.31264 1.32766 0
M  V30 1040 C 99.3166 -1.96198 -0.00767497 0
M  V30 1041 O 98.4416 -1.96346 -0.909796 0
M  V30 1042 C 99.0366 -2.38682 2.4045 0
M  V30 1043 C 97.5956 -2.92184 2.37288 0
M  V30 1044 C 96.7426 -1.6576 2.22304 0
M  V30 1045 H 99.6936 -0.531799 1.49525 0
M  V30 1046 H 99.7146 -3.19087 2.07276 0
M  V30 1047 H 99.2266 -1.91392 3.37625 0
M  V30 1048 H 97.3276 -3.43752 1.43754 0
M  V30 1049 H 97.4406 -3.45253 3.3217 0
M  V30 1050 H 95.8046 -1.9012 1.69489 0
M  V30 1051 H 96.5876 -1.20521 3.21449 0
M  V30 1052 N 99.0327 -1.24633 -0.964593 0
M  V30 1053 C 99.9657 -0.984662 -2.05863 0
M  V30 1054 C 100.944 0.0826554 -1.6239 0
M  V30 1055 O 102.128 -0.0549296 -1.8842 0
M  V30 1056 C 99.2547 -0.486529 -3.35187 0
M  V30 1057 C 98.3007 -1.54286 -3.97615 0
M  V30 1058 S 99.1337 -3.12513 -4.34851 0
M  V30 1059 C 100.29 -2.6441 -5.67308 0
M  V30 1060 H 100.523 -1.91104 -2.27743 0
M  V30 1061 H 98.0557 -1.08052 -1.10291 0
M  V30 1062 H 100.014 -0.205757 -4.09984 0
M  V30 1063 H 98.6747 0.419186 -3.1129 0
M  V30 1064 H 97.8677 -1.14481 -4.90826 0
M  V30 1065 H 97.4697 -1.7738 -3.2926 0
M  V30 1066 H 99.7617 -2.07416 -6.44969 0
M  V30 1067 H 100.705 -3.56222 -6.11973 0
M  V30 1068 H 101.113 -2.04734 -5.26065 0
M  V30 1069 N 100.511 1.16574 -1.06058 0
M  V30 1070 C 101.759 1.86677 -0.77434 0
M  V30 1071 C 102.08 1.81959 0.701147 0
M  V30 1072 O 101.35 1.2515 1.50713 0
M  V30 1073 H 99.9298 0.691134 -0.283449 0
M  V30 1074 H 102.592 1.41378 -1.34158 0
M  V30 1075 H 101.688 2.92181 -1.09711 0
M  V30 1076 N 101.989 0.842826 1.3317 0
M  V30 1077 C 103.237 0.439577 1.97262 0
M  V30 1078 C 103.558 -1.00548 1.67078 0
M  V30 1079 O 102.828 -1.70098 0.971779 0
M  V30 1080 H 101.408 0.159558 0.72976 0
M  V30 1081 H 104.07 1.07665 1.62463 0
M  V30 1082 H 103.166 0.574886 3.0676 0
M  V30 1083 N 103.467 -1.45747 0.599634 0
M  V30 1084 C 104.744 -1.95585 0.0240846 0
M  V30 1085 C 105.124 -1.54217 -1.44154 0
M  V30 1086 O 104.472 -0.800903 -2.14004 0
M  V30 1087 C 104.682 -3.48344 0.21385 0
M  V30 1088 C 106.03 -4.24504 0.0904902 0
M  V30 1089 O 107.054 -3.55911 0.143558 0
M  V30 1090 O 105.913 -5.46491 -0.0310766 0
M  V30 1091 H 103.007 -0.82602 -0.0402478 0
M  V30 1092 H 105.553 -1.55951 0.669139 0
M  V30 1093 H 104.325 -3.71397 1.23206 0
M  V30 1094 H 103.948 -3.9485 -0.466842 0
M  V30 1095 N 104.945 -0.338344 -1.53925 0
M  V30 1096 C 105.877 0.555117 -2.22376 0
M  V30 1097 C 106.89 1.06812 -1.22862 0
M  V30 1098 O 108.079 0.979163 -1.49247 0
M  V30 1099 C 105.179 1.77609 -2.88631 0
M  V30 1100 C 104.352 1.39927 -4.14414 0
M  V30 1101 C 103.411 2.47936 -4.64127 0
M  V30 1102 O 102.437 2.11461 -5.28463 0
M  V30 1103 N 103.639 3.79107 -4.39612 0
M  V30 1104 H 106.404 -0.0310778 -2.99684 0
M  V30 1105 H 103.965 -0.162226 -1.61085 0
M  V30 1106 H 105.957 2.49287 -3.18807 0
M  V30 1107 H 104.527 2.26978 -2.14941 0
M  V30 1108 H 103.747 0.513481 -3.90841 0
M  V30 1109 H 105.035 1.12341 -4.96243 0
M  V30 1110 H 104.433 4.11531 -3.88148 0
M  V30 1111 H 102.99 4.4697 -4.74406 0
M  V30 1112 N 106.423 1.57458 -0.0668435 0
M  V30 1113 C 107.355 2.09413 0.931601 0
M  V30 1114 C 108.368 1.02522 1.26464 0
M  V30 1115 O 109.557 1.30049 1.22269 0
M  V30 1116 C 106.657 2.53537 2.24882 0
M  V30 1117 C 105.83 3.83944 2.09537 0
M  V30 1118 C 104.889 4.14214 3.2452 0
M  V30 1119 O 103.915 4.83891 2.9973 0
M  V30 1120 N 105.117 3.67367 4.49469 0
M  V30 1121 H 107.882 2.95699 0.488048 0
M  V30 1122 H 105.443 1.61462 0.119009 0
M  V30 1123 H 107.435 2.70853 3.00701 0
M  V30 1124 H 106.005 1.72415 2.60753 0
M  V30 1125 H 105.225 3.76057 1.18215 0
M  V30 1126 H 106.513 4.69312 1.96529 0
M  V30 1127 H 105.911 3.11068 4.72497 0
M  V30 1128 H 104.468 3.89891 5.2233 0
M  V30 1129 N 107.901 -0.206675 1.56239 0
M  V30 1130 C 109.147 -0.930218 1.80208 0
M  V30 1131 C 109.48 -1.83387 0.638981 0
M  V30 1132 O 108.755 -1.91119 -0.361066 0
M  V30 1133 C 109.038 -1.75641 3.1436 0
M  V30 1134 C 108.891 -0.878257 4.41142 0
M  V30 1135 C 110.21 -2.73129 3.45092 0
M  V30 1136 H 107.329 -0.336742 0.655571 0
M  V30 1137 H 109.971 -0.198222 1.88963 0
M  V30 1138 H 108.121 -2.38048 3.07027 0
M  V30 1139 H 109.793 -0.269787 4.6051 0
M  V30 1140 H 108.036 -0.184385 4.33408 0
M  V30 1141 H 108.707 -1.49106 5.3148 0
M  V30 1142 H 111.183 -2.20856 3.52649 0
M  V30 1143 H 110.059 -3.28028 4.40101 0
M  V30 1144 H 110.32 -3.51606 2.68003 0
M  V30 1145 N 109.379 -1.50304 -0.473955 0
M  V30 1146 C 110.627 -1.60832 -1.22382 0
M  V30 1147 C 110.948 -0.30939 -1.9253 0
M  V30 1148 O 110.218 0.67296 -1.83978 0
M  V30 1149 H 108.798 -0.592652 -0.454723 0
M  V30 1150 H 111.46 -1.87068 -0.546968 0
M  V30 1151 H 110.556 -2.41803 -1.97327 0
M  V30 1152 N 110.857 0.726932 -1.39834 0
M  V30 1153 C 111.82 1.82269 -1.38962 0
M  V30 1154 C 112.82 1.58248 -0.285334 0
M  V30 1155 O 114.01 1.65499 -0.54366 0
M  V30 1156 C 111.142 3.20186 -1.17019 0
M  V30 1157 H 112.335 1.84443 -2.36476 0
M  V30 1158 H 109.888 0.931416 -1.25516 0
M  V30 1159 H 110.623 3.23669 -0.202204 0
M  V30 1160 H 110.408 3.3902 -1.96998 0
M  V30 1161 H 111.898 4.00235 -1.1917 0
M  V30 1162 N 112.336 1.25143 0.95797 0
M  V30 1163 C 113.266 1.07711 2.07173 0
M  V30 1164 C 114.247 -0.0128462 1.70095 0
M  V30 1165 O 115.432 0.156061 1.93572 0
M  V30 1166 C 112.562 0.691503 3.40346 0
M  V30 1167 C 111.516 1.73132 3.9142 0
M  V30 1168 C 110.842 1.20049 5.21049 0
M  V30 1169 C 112.142 3.1294 4.1817 0
M  V30 1170 H 113.836 2.00873 2.22014 0
M  V30 1171 H 111.382 0.967191 1.06684 0
M  V30 1172 H 113.335 0.556505 4.17709 0
M  V30 1173 H 112.059 -0.275819 3.25433 0
M  V30 1174 H 110.718 1.8547 3.16222 0
M  V30 1175 H 110.366 0.223499 5.02503 0
M  V30 1176 H 110.066 1.89545 5.56189 0
M  V30 1177 H 111.59 1.07782 6.01012 0
M  V30 1178 H 113.004 3.03775 4.86203 0
M  V30 1179 H 111.401 3.79875 4.64559 0
M  V30 1180 H 112.471 3.6025 3.24573 0
M  V30 1181 N 113.814 -1.1601 1.06675 0
M  V30 1182 C 115.063 -1.85973 0.780818 0
M  V30 1183 C 115.376 -1.82819 -0.695444 0
M  V30 1184 O 116.582 -2.484 -1.09589 0
M  V30 1185 C 115.038 -3.33757 1.34665 0
M  V30 1186 C 114.646 -3.45374 2.85343 0
M  V30 1187 C 116.39 -4.0895 1.13843 0
M  V30 1188 C 114.297 -4.87266 3.35151 0
M  V30 1189 H 113.227 -0.696661 0.288407 0
M  V30 1190 H 115.878 -1.30903 1.28595 0
M  V30 1191 H 114.26 -3.88456 0.769274 0
M  V30 1192 H 115.434 -3.00816 3.49065 0
M  V30 1193 H 113.749 -2.83619 3.04876 0
M  V30 1194 H 116.346 -5.13654 1.4854 0
M  V30 1195 H 116.689 -4.16229 0.0770282 0
M  V30 1196 H 117.222 -3.605 1.68179 0
M  V30 1197 H 113.961 -4.85168 4.40786 0
M  V30 1198 H 113.481 -5.32433 2.76179 0
M  V30 1199 H 115.16 -5.56097 3.30704 0
M  V30 1200 N 115.292 -0.849877 -1.32721 0
M  V30 1201 C 116.517 -0.463856 -2.02146 0
M  V30 1202 C 116.942 0.930449 -1.63476 0
M  V30 1203 O 116.3 1.61033 -0.832952 0
M  V30 1204 C 116.348 -0.604955 -3.55489 0
M  V30 1205 O 115.452 0.36425 -4.10788 0
M  V30 1206 H 114.793 -0.187046 -0.637111 0
M  V30 1207 H 117.323 -1.14775 -1.69375 0
M  V30 1208 H 117.333 -0.490696 -4.05038 0
M  V30 1209 H 116.008 -1.62174 -3.82978 0
M  V30 1210 H 114.585 0.206628 -3.72327 0
M  V30 1211 N 116.77 1.45427 -0.607355 0
M  V30 1212 C 117.68 2.34325 0.113463 0
M  V30 1213 C 118.696 1.51226 0.860617 0
M  V30 1214 O 119.872 1.84029 0.818255 0
M  V30 1215 C 116.937 3.28839 1.09844 0
M  V30 1216 C 115.998 4.27844 0.353271 0
M  V30 1217 C 115.231 5.17842 1.29133 0
M  V30 1218 O 115.454 5.11264 2.52913 0
M  V30 1219 O 114.388 5.96713 0.788523 0
M  V30 1220 H 118.214 2.97364 -0.617094 0
M  V30 1221 H 115.799 1.44807 -0.367619 0
M  V30 1222 H 117.681 3.8708 1.66575 0
M  V30 1223 H 116.356 2.68365 1.81003 0
M  V30 1224 H 115.263 3.7322 -0.256494 0
M  V30 1225 H 116.596 4.91173 -0.317822 0
M  V30 1226 N 118.248 0.346503 1.53744 0
M  V30 1227 C 119.496 -0.248612 2.00565 0
M  V30 1228 C 119.817 -1.5083 1.23593 0
M  V30 1229 O 119.087 -1.92858 0.343912 0
M  V30 1230 H 117.667 -0.0948564 0.740953 0
M  V30 1231 H 120.329 0.468341 1.89189 0
M  V30 1232 H 119.425 -0.488994 3.08245 0
M  V30 1233 N 119.726 -1.57421 0.075193 0
M  V30 1234 C 120.673 -2.12915 -0.890843 0
M  V30 1235 C 121.643 -1.04252 -1.29309 0
M  V30 1236 O 122.828 -1.31933 -1.37834 0
M  V30 1237 C 119.968 -2.69795 -2.15186 0
M  V30 1238 C 119.081 -3.92624 -1.80194 0
M  V30 1239 C 118.216 -4.37736 -3.00933 0
M  V30 1240 C 117.255 -5.53205 -2.61974 0
M  V30 1241 N 116.392 -5.9326 -3.75483 0
M  V30 1242 H 121.232 -2.95156 -0.410735 0
M  V30 1243 H 118.769 -1.45854 -0.191086 0
M  V30 1244 H 120.727 -3.00883 -2.89008 0
M  V30 1245 H 119.357 -1.90313 -2.60731 0
M  V30 1246 H 118.409 -3.67977 -0.964218 0
M  V30 1247 H 119.721 -4.76482 -1.47534 0
M  V30 1248 H 118.875 -4.70503 -3.8303 0
M  V30 1249 H 117.614 -3.52739 -3.36789 0
M  V30 1250 H 116.619 -5.20086 -1.783 0
M  V30 1251 H 117.844 -6.39936 -2.27284 0
M  V30 1252 H 115.79 -5.11212 -4.11094 0
M  V30 1253 H 115.707 -6.71865 -3.46602 0
M  V30 1254 H 116.975 -6.30651 -4.58148 0
M  V30 1255 N 121.204 0.198386 -1.56346 0
M  V30 1256 C 122.453 0.917451 -1.79627 0
M  V30 1257 C 122.766 1.8456 -0.64784 0
M  V30 1258 O 123.972 2.60504 -0.764859 0
M  V30 1259 C 122.428 1.68175 -3.18191 0
M  V30 1260 C 122.036 0.798589 -4.40825 0
M  V30 1261 C 123.78 2.39065 -3.50782 0
M  V30 1262 C 121.687 1.56157 -5.70411 0
M  V30 1263 H 120.617 0.346317 -0.669762 0
M  V30 1264 H 123.268 0.170801 -1.82703 0
M  V30 1265 H 121.65 2.47216 -3.09354 0
M  V30 1266 H 122.824 0.0470665 -4.60776 0
M  V30 1267 H 121.139 0.200686 -4.15916 0
M  V30 1268 H 123.736 2.96692 -4.44835 0
M  V30 1269 H 124.079 3.13091 -2.74371 0
M  V30 1270 H 124.612 1.66993 -3.61052 0
M  V30 1271 H 121.351 0.864142 -6.49779 0
M  V30 1272 H 120.871 2.2871 -5.54483 0
M  V30 1273 H 122.55 2.11622 -6.11412 0
M  V30 1274 N 122.682 1.50554 0.465978 0
M  V30 1275 C 123.959 1.5232 1.22712 0
M  V30 1276 C 124.339 0.270807 2.09356 0
M  V30 1277 O 123.687 -0.745541 2.15995 0
M  V30 1278 C 123.897 2.82175 2.05374 0
M  V30 1279 C 125.245 3.33033 2.6339 0
M  V30 1280 O 126.269 2.83531 2.15612 0
M  V30 1281 O 125.128 4.19336 3.50456 0
M  V30 1282 H 122.222 0.611183 0.557122 0
M  V30 1283 H 124.768 1.62847 0.477381 0
M  V30 1284 H 123.54 3.64797 1.41558 0
M  V30 1285 H 123.163 2.74675 2.87471 0
M  V30 1286 N 124.16 -0.719506 1.40217 0
M  V30 1287 C 125.406 -1.48152 1.38488 0
M  V30 1288 C 125.739 -1.94195 -0.0141867 0
M  V30 1289 O 125.014 -1.67884 -0.982096 0
M  V30 1290 C 125.297 -2.71035 2.37091 0
M  V30 1291 C 125.15 -2.30912 3.86005 0
M  V30 1292 C 126.469 -3.73182 2.33288 0
M  V30 1293 H 123.588 -0.537395 0.504357 0
M  V30 1294 H 126.23 -0.821472 1.71324 0
M  V30 1295 H 124.38 -3.27352 2.0922 0
M  V30 1296 H 126.052 -1.80107 4.24687 0
M  V30 1297 H 124.295 -1.62958 4.02029 0
M  V30 1298 H 124.966 -3.18978 4.50508 0
M  V30 1299 H 127.442 -3.26485 2.57966 0
M  V30 1300 H 126.318 -4.56806 3.04334 0
M  V30 1301 H 126.579 -4.21202 1.34317 0
M  V30 1302 N 125.638 -1.25649 -0.95132 0
M  V30 1303 C 126.568 -1.08808 -2.06599 0
M  V30 1304 C 127.549 0.00382547 -1.701 0
M  V30 1305 O 128.734 -0.166325 -1.93486 0
M  V30 1306 C 125.864 -0.709542 -3.39975 0
M  V30 1307 C 124.818 -1.75206 -3.90496 0
M  V30 1308 C 124.144 -1.22811 -5.20405 0
M  V30 1309 C 125.444 -3.15153 -4.16504 0
M  V30 1310 H 127.138 -2.02048 -2.20946 0
M  V30 1311 H 124.684 -0.972835 -1.06169 0
M  V30 1312 H 126.637 -0.578649 -4.17408 0
M  V30 1313 H 125.361 0.258556 -3.25575 0
M  V30 1314 H 124.02 -1.87145 -3.15234 0
M  V30 1315 H 123.668 -0.250145 -5.02378 0
M  V30 1316 H 123.368 -1.92492 -5.55176 0
M  V30 1317 H 124.892 -1.10968 -6.00432 0
M  V30 1318 H 126.306 -3.06349 -4.84586 0
M  V30 1319 H 124.703 -3.82333 -4.62538 0
M  V30 1320 H 125.773 -3.61966 -3.22658 0
M  V30 1321 N 127.117 1.15442 -1.07289 0
M  V30 1322 C 128.366 1.85557 -0.790669 0
M  V30 1323 C 128.679 1.83186 0.685739 0
M  V30 1324 O 129.885 2.48977 1.0827 0
M  V30 1325 C 128.341 3.33038 -1.36433 0
M  V30 1326 C 127.949 3.43856 -2.8717 0
M  V30 1327 C 129.693 4.0834 -1.1601 0
M  V30 1328 C 127.6 4.85482 -3.3773 0
M  V30 1329 H 126.53 0.695122 -0.292098 0
M  V30 1330 H 129.181 1.30219 -1.29287 0
M  V30 1331 H 127.563 3.88043 -0.789864 0
M  V30 1332 H 128.737 2.98961 -3.50655 0
M  V30 1333 H 127.052 2.81998 -3.06376 0
M  V30 1334 H 129.649 5.12859 -1.51262 0
M  V30 1335 H 129.992 4.16182 -0.0991007 0
M  V30 1336 H 130.525 3.59603 -1.70089 0
M  V30 1337 H 127.264 4.82823 -4.43353 0
M  V30 1338 H 126.784 5.30961 -2.78999 0
M  V30 1339 H 128.463 5.54335 -3.33648 0
M  V30 1340 N 128.595 0.856903 1.32268 0
M  V30 1341 C 129.842 0.461386 1.97174 0
M  V30 1342 C 130.17 -0.983491 1.67803 0
M  V30 1343 O 129.425 -1.70541 0.959903 0
M  V30 1344 C 129.724 0.649919 3.51441 0
M  V30 1345 C 129.39 2.0656 4.00804 0
M  V30 1346 C 128.052 2.45279 4.13995 0
M  V30 1347 C 130.404 2.98947 4.26943 0
M  V30 1348 C 127.732 3.75653 4.50668 0
M  V30 1349 C 130.084 4.28822 4.65075 0
M  V30 1350 C 128.748 4.67472 4.76472 0
M  V30 1351 H 128.018 0.168833 0.72151 0
M  V30 1352 H 130.665 1.08739 1.57633 0
M  V30 1353 H 128.97 -0.0593018 3.91755 0
M  V30 1354 H 130.667 0.32391 3.9969 0
M  V30 1355 H 127.257 1.75495 3.91024 0
M  V30 1356 H 131.441 2.70265 4.16258 0
M  V30 1357 H 126.697 4.05379 4.57688 0
M  V30 1358 H 130.871 5.0047 4.84255 0
M  V30 1359 H 128.498 5.68539 5.04646 0
M  V30 1360 N 130.073 -1.45103 0.615059 0
M  V30 1361 C 131.32 -2.02183 0.113179 0
M  V30 1362 C 131.648 -1.48249 -1.25906 0
M  V30 1363 O 130.903 -0.650265 -1.84581 0
M  V30 1364 C 131.202 -3.57386 0.0318797 0
M  V30 1365 C 130.868 -4.30505 1.34077 0
M  V30 1366 C 129.53 -4.50197 1.69929 0
M  V30 1367 C 131.882 -4.72238 2.20546 0
M  V30 1368 C 129.21 -5.08881 2.91988 0
M  V30 1369 C 131.562 -5.32272 3.41861 0
M  V30 1370 C 130.226 -5.50187 3.77956 0
M  V30 1371 H 129.496 -0.739842 0.0414151 0
M  V30 1372 H 132.143 -1.74073 0.798168 0
M  V30 1373 H 130.448 -3.84817 -0.736409 0
M  V30 1374 H 132.145 -3.99264 -0.372712 0
M  V30 1375 H 128.735 -4.15496 1.05173 0
M  V30 1376 H 132.919 -4.56751 1.94146 0
M  V30 1377 H 128.175 -5.20939 3.2005 0
M  V30 1378 H 132.349 -5.63563 4.09109 0
M  V30 1379 H 129.976 -5.95427 4.72622 0
M  V30 1380 N 131.551 -0.354651 -1.53558 0
M  V30 1381 C 132.797 0.231422 -2.02079 0
M  V30 1382 C 133.152 1.47308 -1.23767 0
M  V30 1383 O 132.445 1.8891 -0.319947 0
M  V30 1384 C 132.639 0.587121 -3.52545 0
M  V30 1385 C 132.468 -0.618513 -4.45426 0
M  V30 1386 C 131.238 -1.12724 -4.92566 0
M  V30 1387 C 133.436 -1.48039 -4.92533 0
M  V30 1388 N 131.418 -2.29404 -5.69427 0
M  V30 1389 C 132.789 -2.49397 -5.67628 0
M  V30 1390 C 134.844 -1.50454 -4.74624 0
M  V30 1391 C 133.547 -3.53013 -6.26717 0
M  V30 1392 C 135.573 -2.52958 -5.34571 0
M  V30 1393 C 134.935 -3.5304 -6.09543 0
M  V30 1394 H 131.034 0.0476909 -0.780544 0
M  V30 1395 H 133.618 -0.496727 -1.88257 0
M  V30 1396 H 131.789 1.28436 -3.6655 0
M  V30 1397 H 133.521 1.15734 -3.87799 0
M  V30 1398 H 130.276 -0.693577 -4.68494 0
M  V30 1399 H 130.7 -2.88347 -6.12524 0
M  V30 1400 H 135.342 -0.744356 -4.16196 0
M  V30 1401 H 133.06 -4.2992 -6.84247 0
M  V30 1402 H 136.646 -2.55667 -5.22614 0
M  V30 1403 H 135.526 -4.31056 -6.55103 0
M  V30 1404 N 133.029 1.57378 -0.0835403 0
M  V30 1405 C 134.306 1.85363 0.624507 0
M  V30 1406 C 134.686 0.978239 1.87066 0
M  V30 1407 O 134.034 0.0475908 2.2845 0
M  V30 1408 C 134.244 3.35795 0.950947 0
M  V30 1409 C 135.592 4.03581 1.31939 0
M  V30 1410 O 136.616 3.40609 1.04232 0
M  V30 1411 O 135.475 5.14672 1.83779 0
M  V30 1412 H 132.569 0.766162 0.311329 0
M  V30 1413 H 135.115 1.69307 -0.115362 0
M  V30 1414 H 133.887 3.91244 0.0663899 0
M  V30 1415 H 133.51 3.57154 1.74719 0
M  V30 1416 N 134.507 -0.190092 1.56449 0
M  V30 1417 C 135.918 -0.754312 1.70784 0
M  V30 1418 C 136.269 -1.83631 0.690951 0
M  V30 1419 O 135.394 -2.15868 -0.151604 0
M  V30 1420 C 135.989 -1.37503 3.09642 0
M  V30 1421 C 134.548 -1.88628 3.25725 0
M  V30 1422 C 133.695 -0.758098 2.66736 0
M  V30 1423 H 136.646 0.0350524 1.58661 0
M  V30 1424 H 136.667 -2.2445 3.0725 0
M  V30 1425 H 136.179 -0.587302 3.83631 0
M  V30 1426 H 134.28 -2.70103 2.56661 0
M  V30 1427 H 134.393 -2.04462 4.3328 0
M  V30 1428 H 132.757 -1.17369 2.26046 0
M  V30 1429 H 133.54 0.0174705 3.43296 0
M  V30 1430 N 135.985 -1.50799 -0.457987 0
M  V30 1431 C 136.915 -1.73553 -1.5621 0
M  V30 1432 C 137.896 -0.584774 -1.59732 0
M  V30 1433 O 139.081 -0.825314 -1.7579 0
M  V30 1434 C 136.211 -1.84169 -2.94447 0
M  V30 1435 C 135.165 -2.99461 -3.0579 0
M  V30 1436 C 134.491 -2.95235 -4.45803 0
M  V30 1437 C 135.791 -4.39766 -2.81786 0
M  V30 1438 H 137.485 -2.66 -1.37421 0
M  V30 1439 H 135.031 -1.28002 -0.659662 0
M  V30 1440 H 136.984 -1.98672 -3.71628 0
M  V30 1441 H 135.708 -0.883545 -3.14422 0
M  V30 1442 H 134.367 -2.8463 -2.31044 0
M  V30 1443 H 134.015 -1.97239 -4.62715 0
M  V30 1444 H 133.715 -3.72642 -4.54326 0
M  V30 1445 H 135.239 -3.11803 -5.24987 0
M  V30 1446 H 136.653 -4.55054 -3.4871 0
M  V30 1447 H 135.05 -5.18722 -3.0174 0
M  V30 1448 H 136.12 -4.51229 -1.7754 0
M  V30 1449 N 137.463 0.71206 -1.40597 0
M  V30 1450 C 138.411 1.84746 -1.41321 0
M  V30 1451 C 139.405 1.66842 -0.293268 0
M  V30 1452 O 140.611 1.73904 -0.464481 0
M  V30 1453 H 136.986 0.608522 -0.441819 0
M  V30 1454 H 138.957 1.81252 -2.37045 0
M  V30 1455 C 137.706 3.22638 -1.29614 0
M  V30 1456 H 137.029 3.37023 -2.15071 0
M  V30 1457 H 138.469 4.02209 -1.3418 0
M  V30 1458 C 136.928 3.36899 -0.00673121 0
M  V30 1459 O 137.458 3.90186 0.954859 0
M  V30 1460 N 135.664 2.9053 0.0639327 0
M  V30 1461 H 135.211 2.47353 -0.719311 0
M  V30 1462 H 135.169 3.0045 0.926118 0
M  V30 1463 N 138.941 1.26152 0.944643 0
M  V30 1464 C 139.904 1.07474 2.0244 0
M  V30 1465 C 140.904 0.0242064 1.60782 0
M  V30 1466 O 142.094 0.267302 1.72137 0
M  V30 1467 C 139.226 0.633956 3.34953 0
M  V30 1468 H 140.419 2.03336 2.20442 0
M  V30 1469 H 137.972 1.087 1.12312 0
M  V30 1470 H 138.707 -0.326811 3.22649 0
M  V30 1471 H 138.492 1.39247 3.66542 0
M  V30 1472 H 139.982 0.52501 4.14287 0
M  V30 1473 N 140.419 -1.14872 1.07899 0
M  V30 1474 C 141.665 -1.86064 0.806725 0
M  V30 1475 C 141.998 -1.82434 -0.665706 0
M  V30 1476 O 141.273 -1.25138 -1.48899 0
M  V30 1477 C 141.556 -3.34929 1.32267 0
M  V30 1478 C 141.409 -3.47161 2.86006 0
M  V30 1479 C 142.728 -4.29863 0.943717 0
M  V30 1480 H 139.847 -0.675591 0.294526 0
M  V30 1481 H 142.489 -1.34925 1.33773 0
M  V30 1482 H 140.639 -3.78611 0.870974 0
M  V30 1483 H 142.311 -3.12302 3.39507 0
M  V30 1484 H 140.554 -2.88539 3.23925 0
M  V30 1485 H 141.225 -4.51777 3.17177 0
M  V30 1486 H 143.701 -3.9417 1.33302 0
M  V30 1487 H 142.577 -5.32494 1.33198 0
M  V30 1488 H 142.838 -4.41846 -0.149796 0
M  V30 1489 N 141.898 -0.863906 -1.31812 0
M  V30 1490 C 143.309 -0.52522 -1.7916 0
M  V30 1491 C 143.66 0.957518 -1.71248 0
M  V30 1492 O 142.785 1.74734 -1.27659 0
M  V30 1493 C 143.38 -0.9466 -3.25307 0
M  V30 1494 C 141.939 -0.659668 -3.70574 0
M  V30 1495 C 141.086 -1.14126 -2.52726 0
M  V30 1496 H 144.037 -1.05022 -1.1898 0
M  V30 1497 H 144.058 -0.266766 -3.79564 0
M  V30 1498 H 143.57 -2.02579 -3.31034 0
M  V30 1499 H 141.671 0.408416 -3.70355 0
M  V30 1500 H 141.784 -1.23245 -4.62977 0
M  V30 1501 H 140.148 -0.561216 -2.4844 0
M  V30 1502 H 140.931 -2.22775 -2.61201 0
M  V30 1503 N 143.376 1.44774 -0.622745 0
M  V30 1504 C 144.326 2.2774 0.108889 0
M  V30 1505 C 145.31 1.38189 0.824175 0
M  V30 1506 O 146.502 1.62063 0.711664 0
M  V30 1507 C 143.631 3.25353 1.09546 0
M  V30 1508 C 142.717 4.22392 0.380232 0
M  V30 1509 N 143.108 5.02388 -0.586535 0
M  V30 1510 C 141.406 4.41588 0.625792 0
M  V30 1511 C 142.107 5.72894 -1.00834 0
M  V30 1512 N 141.083 5.42479 -0.348878 0
M  V30 1513 H 144.885 2.86993 -0.63341 0
M  V30 1514 H 142.399 1.5611 -0.447589 0
M  V30 1515 H 144.396 3.83538 1.63414 0
M  V30 1516 H 143.056 2.6766 1.83815 0
M  V30 1517 H 144.067 5.0885 -0.963975 0
M  V30 1518 H 140.744 3.95003 1.352 0
M  V30 1519 H 142.134 6.47158 -1.80656 0
M  V30 1520 N 144.854 0.36279 1.53368 0
M  V30 1521 C 146.131 -0.284021 1.93527 0
M  V30 1522 C 146.511 -1.66628 1.29608 0
M  V30 1523 O 145.859 -2.23942 0.45413 0
M  V30 1524 C 146.069 -0.337028 3.47369 0
M  V30 1525 C 147.417 -0.578708 4.20638 0
M  V30 1526 O 148.441 -0.418352 3.53735 0
M  V30 1527 O 147.3 -0.89074 5.39192 0
M  V30 1528 H 144.394 -0.169743 0.809393 0
M  V30 1529 H 146.94 0.41537 1.64538 0
M  V30 1530 H 145.712 0.632217 3.86159 0
M  V30 1531 H 145.335 -1.08243 3.82582 0
M  V30 1532 N 146.332 -1.57332 0.0918853 0
M  V30 1533 C 147.743 -1.81496 -0.437739 0
M  V30 1534 C 148.094 -1.00727 -1.6837 0
M  V30 1535 O 147.219 -0.235694 -2.15113 0
M  V30 1536 C 147.814 -3.29197 -0.800939 0
M  V30 1537 C 146.373 -3.54136 -1.27532 0
M  V30 1538 C 145.52 -2.75979 -0.270392 0
M  V30 1539 H 148.471 -1.55494 0.317366 0
M  V30 1540 H 148.492 -3.42344 -1.66074 0
M  V30 1541 H 148.004 -3.87955 0.106078 0
M  V30 1542 H 146.105 -3.00705 -2.20016 0
M  V30 1543 H 146.218 -4.62792 -1.23938 0
M  V30 1544 H 144.582 -2.43349 -0.751872 0
M  V30 1545 H 145.365 -3.37484 0.629248 0
M  V30 1546 N 147.81 0.181792 -1.56548 0
M  V30 1547 C 149.087 0.926765 -1.72251 0
M  V30 1548 C 149.467 2.00831 -0.650386 0
M  V30 1549 O 148.815 2.26008 0.336521 0
M  V30 1550 C 149.025 1.50106 -3.1507 0
M  V30 1551 C 150.373 1.97805 -3.75711 0
M  V30 1552 O 151.397 1.59922 -3.18282 0
M  V30 1553 O 150.256 2.67555 -4.76525 0
M  V30 1554 H 147.35 0.435506 -0.703039 0
M  V30 1555 H 149.896 0.170443 -1.68842 0
M  V30 1556 H 148.668 0.72212 -3.84579 0
M  V30 1557 H 148.291 2.32186 -3.22763 0
M  V30 1558 N 149.288 1.51039 0.449983 0
M  V30 1559 C 150.534 1.63322 1.20223 0
M  V30 1560 C 150.867 0.34241 1.91158 0
M  V30 1561 O 150.142 -0.657344 1.83055 0
M  V30 1562 C 150.425 2.82801 2.22925 0
M  V30 1563 C 150.278 4.21823 1.56157 0
M  V30 1564 C 151.597 2.97807 3.24035 0
M  V30 1565 H 148.716 0.594407 0.435718 0
M  V30 1566 H 151.358 1.83489 0.493136 0
M  V30 1567 H 149.508 2.65738 2.834 0
M  V30 1568 H 151.18 4.50526 0.991162 0
M  V30 1569 H 149.423 4.25105 0.864172 0
M  V30 1570 H 150.094 5.01391 2.30891 0
M  V30 1571 H 152.57 3.13497 2.73603 0
M  V30 1572 H 151.446 3.82992 3.93202 0
M  V30 1573 H 151.707 2.09328 3.89402 0
M  V30 1574 N 150.766 -0.704594 1.40972 0
M  V30 1575 C 151.713 -1.81862 1.42109 0
M  V30 1576 C 152.683 -1.63781 0.276593 0
M  V30 1577 O 153.868 -1.84759 0.4763 0
M  V30 1578 C 151.008 -3.19669 1.30022 0
M  V30 1579 C 150.121 -3.49246 2.54267 0
M  V30 1580 C 149.256 -4.76618 2.3454 0
M  V30 1581 C 148.295 -4.99133 3.54306 0
M  V30 1582 N 147.432 -6.17726 3.33706 0
M  V30 1583 H 152.272 -1.80226 2.37324 0
M  V30 1584 H 149.809 -0.880238 1.17857 0
M  V30 1585 H 151.767 -3.99263 1.21018 0
M  V30 1586 H 150.397 -3.20506 0.384192 0
M  V30 1587 H 149.449 -2.64125 2.73756 0
M  V30 1588 H 150.761 -3.61788 3.43381 0
M  V30 1589 H 149.915 -5.64249 2.22952 0
M  V30 1590 H 148.654 -4.66305 1.42867 0
M  V30 1591 H 147.659 -4.09953 3.66359 0
M  V30 1592 H 148.884 -5.11311 4.4692 0
M  V30 1593 H 146.83 -6.08642 2.44725 0
M  V30 1594 H 146.747 -6.30995 4.16391 0
M  V30 1595 H 148.015 -7.08115 3.25873 0
M  V30 1596 N 152.244 -1.26651 -0.937939 0
M  V30 1597 C 153.207 -1.08546 -2.01867 0
M  V30 1598 C 154.207 -0.0327327 -1.60767 0
M  V30 1599 O 155.397 -0.276427 -1.71993 0
M  V30 1600 C 152.529 -0.651711 -3.34613 0
M  V30 1601 H 153.722 -2.04502 -2.1936 0
M  V30 1602 H 151.275 -1.09294 -1.11734 0
M  V30 1603 H 152.01 0.309696 -3.22818 0
M  V30 1604 H 151.795 -1.41189 -3.65798 0
M  V30 1605 H 153.285 -0.546973 -4.14002 0
M  V30 1606 N 153.722 1.14298 -1.08507 0
M  V30 1607 C 154.652 2.21542 -0.737646 0
M  V30 1608 C 155.633 1.67773 0.280377 0
M  V30 1609 O 156.818 1.93616 0.150521 0
M  V30 1610 C 153.948 3.46988 -0.147259 0
M  V30 1611 C 152.902 4.13789 -1.09374 0
M  V30 1612 C 152.228 5.33449 -0.365524 0
M  V30 1613 C 153.528 4.62208 -2.4323 0
M  V30 1614 H 155.222 2.5086 -1.6343 0
M  V30 1615 H 152.768 1.20576 -0.787243 0
M  V30 1616 H 154.721 4.21262 0.107808 0
M  V30 1617 H 153.445 3.17037 0.784538 0
M  V30 1618 H 152.104 3.4147 -1.33393 0
M  V30 1619 H 151.752 4.99759 0.57011 0
M  V30 1620 H 151.452 5.79088 -0.996512 0
M  V30 1621 H 152.976 6.10485 -0.118534 0
M  V30 1622 H 154.39 5.27952 -2.23472 0
M  V30 1623 H 152.787 5.18553 -3.02031 0
M  V30 1624 H 153.857 3.77224 -3.04681 0
M  V30 1625 N 155.201 0.870884 1.31352 0
M  V30 1626 C 156.131 0.343096 2.30966 0
M  V30 1627 C 157.112 -0.566507 1.60389 0
M  V30 1628 O 158.297 -0.483336 1.88089 0
M  V30 1629 C 155.427 -0.455487 3.443 0
M  V30 1630 C 154.381 0.361103 4.26474 0
M  V30 1631 C 153.707 -0.563221 5.31725 0
M  V30 1632 C 155.007 1.59566 4.97329 0
M  V30 1633 H 156.701 1.17548 2.75359 0
M  V30 1634 H 154.247 0.566686 1.32381 0
M  V30 1635 H 156.2 -0.83525 4.13039 0
M  V30 1636 H 154.924 -1.32139 2.98675 0
M  V30 1637 H 153.583 0.722825 3.59403 0
M  V30 1638 H 153.231 -1.42643 4.82351 0
M  V30 1639 H 152.931 -0.0207409 5.87596 0
M  V30 1640 H 154.455 -0.939808 6.03324 0
M  V30 1641 H 155.869 1.28728 5.58661 0
M  V30 1642 H 154.266 2.07728 5.63 0
M  V30 1643 H 155.336 2.34798 4.24262 0
M  V30 1644 N 156.679 -1.44442 0.630414 0
M  V30 1645 C 158.095 -1.56832 0.295973 0
M  V30 1646 C 158.295 -1.61806 -1.20088 0
M  V30 1647 O 157.351 -1.5607 -1.9849 0
M  V30 1648 C 158.664 -2.84031 0.987264 0
M  V30 1649 C 160.212 -2.97742 0.96534 0
M  V30 1650 C 160.687 -4.27743 1.63708 0
M  V30 1651 N 162.178 -4.34555 1.60364 0
M  V30 1652 C 162.913 -5.33862 2.09234 0
M  V30 1653 N 162.409 -6.39578 2.66292 0
M  V30 1654 N 164.202 -5.25366 1.99867 0
M  V30 1655 H 156.353 -1.39457 1.60205 0
M  V30 1656 H 158.616 -0.668237 0.672431 0
M  V30 1657 H 158.322 -2.86338 2.04215 0
M  V30 1658 H 158.196 -3.73534 0.524588 0
M  V30 1659 H 160.583 -2.94989 -0.0810639 0
M  V30 1660 H 160.664 -2.09589 1.4665 0
M  V30 1661 H 160.308 -4.31255 2.68293 0
M  V30 1662 H 160.238 -5.14752 1.11076 0
M  V30 1663 H 162.729 -3.58772 1.18705 0
M  V30 1664 H 163.042 -7.11637 3.01317 0
M  V30 1665 H 161.387 -6.40265 2.70343 0
M  V30 1666 H 164.578 -4.41688 1.55013 0
M  V30 1667 H 164.751 -6.02606 2.38265 0
M  V30 1668 N 158.157 -0.370918 -1.53173 0
M  V30 1669 C 159.087 0.464847 -2.28826 0
M  V30 1670 C 160.068 1.07936 -1.31468 0
M  V30 1671 O 161.253 1.0956 -1.60344 0
M  V30 1672 C 158.383 1.60196 -3.08147 0
M  V30 1673 C 157.337 1.11443 -4.13237 0
M  V30 1674 C 156.663 2.3422 -4.80672 0
M  V30 1675 C 157.963 0.195384 -5.21934 0
M  V30 1676 H 159.657 -0.166329 -2.98938 0
M  V30 1677 H 157.203 -0.0814359 -1.4377 0
M  V30 1678 H 159.156 2.19332 -3.59822 0
M  V30 1679 H 157.88 2.26045 -2.35735 0
M  V30 1680 H 156.539 0.545727 -3.62515 0
M  V30 1681 H 156.187 2.98537 -4.04827 0
M  V30 1682 H 155.887 2.02269 -5.51689 0
M  V30 1683 H 157.411 2.94032 -5.35143 0
M  V30 1684 H 158.825 0.694375 -5.69079 0
M  V30 1685 H 157.222 -0.0335027 -6.00091 0
M  V30 1686 H 158.292 -0.760961 -4.78892 0
M  V30 1687 N 159.635 1.57281 -0.100228 0
M  V30 1688 C 160.598 2.13158 0.842398 0
M  V30 1689 C 161.598 1.06202 1.20738 0
M  V30 1690 O 162.788 1.32066 1.13597 0
M  V30 1691 C 159.92 2.65639 2.13655 0
M  V30 1692 H 161.113 2.97766 0.357114 0
M  V30 1693 H 158.666 1.5559 0.148823 0
M  V30 1694 H 159.401 1.84566 2.66657 0
M  V30 1695 H 159.186 3.43844 1.88451 0
M  V30 1696 H 160.676 3.08846 2.81077 0
M  V30 1697 N 161.113 -0.173488 1.56642 0
M  V30 1698 C 162.341 -0.906095 1.86004 0
M  V30 1699 C 162.756 -1.75921 0.685355 0
M  V30 1700 O 162.113 -1.79198 -0.345578 0
M  V30 1701 C 162.164 -1.78462 3.14378 0
M  V30 1702 O 161.885 -0.965914 4.27319 0
M  V30 1703 C 163.386 -2.62707 3.57071 0
M  V30 1704 H 160.606 -0.263341 0.617165 0
M  V30 1705 H 163.15 -0.174236 2.03756 0
M  V30 1706 H 161.305 -2.46984 2.98459 0
M  V30 1707 H 161.719 -1.56655 5.00559 0
M  V30 1708 H 163.193 -3.19969 4.49804 0
M  V30 1709 H 163.67 -3.37472 2.81086 0
M  V30 1710 H 164.276 -1.99521 3.75595 0
M  V30 1711 N 162.591 -1.51276 -0.441967 0
M  V30 1712 C 163.837 -1.63958 -1.19355 0
M  V30 1713 C 164.17 -0.352543 -1.90973 0
M  V30 1714 O 163.445 0.647627 -1.83401 0
M  V30 1715 C 163.728 -2.83979 -2.21422 0
M  V30 1716 C 163.581 -4.22646 -1.53918 0
M  V30 1717 C 164.9 -2.99521 -3.22451 0
M  V30 1718 H 162.019 -0.596709 -0.432559 0
M  V30 1719 H 164.661 -1.83748 -0.483398 0
M  V30 1720 H 162.811 -2.67237 -2.81987 0
M  V30 1721 H 164.483 -4.51045 -0.967256 0
M  V30 1722 H 162.726 -4.25558 -0.841615 0
M  V30 1723 H 163.397 -5.02609 -2.28229 0
M  V30 1724 H 165.873 -3.14944 -2.71937 0
M  V30 1725 H 164.749 -3.85072 -3.91166 0
M  V30 1726 H 165.01 -2.11391 -3.88287 0
M  V30 1727 N 164.069 0.697108 -1.41344 0
M  V30 1728 C 165.315 1.45796 -1.41828 0
M  V30 1729 C 165.67 1.92382 -0.0261743 0
M  V30 1730 O 164.963 1.66522 0.947688 0
M  V30 1731 C 165.157 2.68553 -2.35826 0
M  V30 1732 C 164.986 2.33975 -3.84039 0
M  V30 1733 C 163.756 2.24414 -4.52732 0
M  V30 1734 C 165.954 1.97048 -4.75054 0
M  V30 1735 N 163.936 1.82705 -5.86082 0
M  V30 1736 C 165.307 1.66086 -5.9734 0
M  V30 1737 C 167.362 1.83845 -4.62715 0
M  V30 1738 C 166.065 1.23246 -7.08663 0
M  V30 1739 C 168.091 1.4241 -5.73998 0
M  V30 1740 C 167.453 1.12357 -6.95381 0
M  V30 1741 H 163.552 0.530859 -0.574206 0
M  V30 1742 H 166.136 0.806674 -1.77203 0
M  V30 1743 H 164.307 3.31404 -2.02549 0
M  V30 1744 H 166.039 3.35015 -2.2704 0
M  V30 1745 H 162.794 2.4276 -4.0665 0
M  V30 1746 H 163.218 1.64337 -6.56751 0
M  V30 1747 H 167.86 2.05734 -3.69369 0
M  V30 1748 H 165.578 1.00102 -8.01876 0
M  V30 1749 H 169.164 1.32746 -5.66454 0
M  V30 1750 H 168.044 0.807795 -7.80028 0
M  V30 1751 N 165.547 1.27147 0.931209 0
M  V30 1752 C 166.495 1.09398 2.05268 0
M  V30 1753 C 167.489 0.0180591 1.6939 0
M  V30 1754 O 168.695 0.17551 1.79142 0
M  V30 1755 H 165.07 0.336986 0.672268 0
M  V30 1756 H 167.041 2.04416 2.17386 0
M  V30 1757 C 165.79 0.75424 3.39421 0
M  V30 1758 H 165.113 1.57404 3.67511 0
M  V30 1759 H 166.553 0.669903 4.18674 0
M  V30 1760 C 165.012 -0.541197 3.32525 0
M  V30 1761 O 165.542 -1.57664 3.69466 0
M  V30 1762 N 163.748 -0.535517 2.85623 0
M  V30 1763 H 163.295 0.307511 2.55758 0
M  V30 1764 H 163.253 -1.40236 2.81392 0
M  V30 1765 N 167.025 -1.13721 1.09112 0
M  V30 1766 C 168.274 -1.84275 0.82009 0
M  V30 1767 C 168.587 -1.84253 -0.656509 0
M  V30 1768 O 169.793 -2.50668 -1.04296 0
M  V30 1769 C 168.249 -3.30825 1.41714 0
M  V30 1770 C 167.857 -3.39244 2.92605 0
M  V30 1771 C 169.601 -4.06443 1.22492 0
M  V30 1772 C 167.508 -4.80047 3.45411 0
M  V30 1773 H 166.438 -0.690387 0.30312 0
M  V30 1774 H 169.089 -1.28146 1.31343 0
M  V30 1775 H 167.471 -3.86737 0.851498 0
M  V30 1776 H 168.645 -2.93344 3.55367 0
M  V30 1777 H 166.96 -2.77088 3.10823 0
M  V30 1778 H 169.557 -5.10387 1.59402 0
M  V30 1779 H 169.9 -4.15972 0.165299 0
M  V30 1780 H 170.433 -3.56852 1.75788 0
M  V30 1781 H 167.172 -4.75709 4.50978 0
M  V30 1782 H 166.692 -5.26455 2.87411 0
M  V30 1783 H 168.371 -5.48957 3.42425 0
M  V30 1784 N 168.503 -0.877838 -1.30888 0
M  V30 1785 C 169.914 -0.544193 -1.78593 0
M  V30 1786 C 170.265 0.939301 -1.72254 0
M  V30 1787 O 169.39 1.7337 -1.29505 0
M  V30 1788 C 169.985 -0.98105 -3.24285 0
M  V30 1789 C 168.544 -0.698935 -3.69854 0
M  V30 1790 C 167.691 -1.168 -2.51502 0
M  V30 1791 H 170.642 -1.06278 -1.17859 0
M  V30 1792 H 170.663 -0.307009 -3.79259 0
M  V30 1793 H 170.175 -2.06079 -3.28866 0
M  V30 1794 H 168.276 0.369112 -3.70767 0
M  V30 1795 H 168.389 -1.28148 -4.61644 0
M  V30 1796 H 166.753 -0.587535 -2.47831 0
M  V30 1797 H 167.536 -2.25533 -2.58824 0
M  V30 1798 N 169.982 1.44106 -0.638065 0
M  V30 1799 C 171.228 2.02277 -0.145546 0
M  V30 1800 C 171.561 1.50125 1.23191 0
M  V30 1801 O 170.836 0.688133 1.8192 0
M  V30 1802 C 171.119 3.59829 -0.139791 0
M  V30 1803 C 170.972 4.22247 -1.55008 0
M  V30 1804 C 172.291 4.36873 0.531966 0
M  V30 1805 H 169.41 0.734992 -0.0543632 0
M  V30 1806 H 172.052 1.71592 -0.815863 0
M  V30 1807 H 170.202 3.86102 0.431007 0
M  V30 1808 H 171.874 4.07057 -2.1703 0
M  V30 1809 H 170.117 3.79476 -2.10191 0
M  V30 1810 H 170.788 5.31284 -1.49804 0
M  V30 1811 H 173.264 4.16074 0.0464781 0
M  V30 1812 H 172.14 5.4657 0.505206 0
M  V30 1813 H 172.401 4.11995 1.60352 0
M  V30 1814 N 171.46 0.379036 1.52974 0
M  V30 1815 C 172.423 -0.448865 2.24762 0
M  V30 1816 C 173.423 -0.998689 1.26027 0
M  V30 1817 O 174.613 -0.882313 1.50203 0
M  V30 1818 C 171.745 -1.62872 2.99476 0
M  V30 1819 H 172.938 0.179491 2.99362 0
M  V30 1820 H 170.491 0.13096 1.5575 0
M  V30 1821 H 171.226 -2.29479 2.29151 0
M  V30 1822 H 171.011 -1.24128 3.71934 0
M  V30 1823 H 172.501 -2.2151 3.5401 0
M  V30 1824 N 172.938 -1.57226 0.108567 0
M  V30 1825 C 174.166 -1.99179 -0.559954 0
M  V30 1826 C 174.581 -0.988022 -1.60884 0
M  V30 1827 O 173.938 0.0205512 -1.82488 0
M  V30 1828 C 173.989 -3.41159 -1.19552 0
M  V30 1829 O 173.71 -4.37694 -0.188577 0
M  V30 1830 C 175.211 -3.98188 -1.94837 0
M  V30 1831 H 172.431 -0.654228 -0.149088 0
M  V30 1832 H 174.975 -2.03598 0.19183 0
M  V30 1833 H 173.13 -3.37711 -1.89815 0
M  V30 1834 H 173.544 -5.20469 -0.649014 0
M  V30 1835 H 175.018 -4.99644 -2.34648 0
M  V30 1836 H 175.495 -3.3675 -2.81951 0
M  V30 1837 H 176.101 -4.0515 -1.2936 0
M  V30 1838 N 174.416 0.165178 -1.56732 0
M  V30 1839 C 175.364 1.22369 -1.97809 0
M  V30 1840 C 176.358 1.45488 -0.867741 0
M  V30 1841 O 177.564 1.45995 -1.05288 0
M  V30 1842 H 173.939 0.411486 -0.629431 0
M  V30 1843 H 175.91 0.850425 -2.86025 0
M  V30 1844 C 174.659 2.55403 -2.35934 0
M  V30 1845 H 173.982 2.38438 -3.20916 0
M  V30 1846 H 175.422 3.2814 -2.68514 0
M  V30 1847 C 173.881 3.14611 -1.20506 0
M  V30 1848 O 174.411 3.98626 -0.496016 0
M  V30 1849 N 172.617 2.7379 -0.97403 0
M  V30 1850 H 172.164 2.0557 -1.55238 0
M  V30 1851 H 172.122 3.1374 -0.203573 0
M  V30 1852 N 175.894 1.51508 0.433938 0
M  V30 1853 C 177.14 1.64588 1.18484 0
M  V30 1854 C 177.473 0.362666 1.90784 0
M  V30 1855 O 176.748 -0.637892 1.83742 0
M  V30 1856 C 177.031 2.85149 2.19913 0
M  V30 1857 C 176.884 4.23456 1.51674 0
M  V30 1858 C 178.203 3.01227 3.20858 0
M  V30 1859 H 175.322 0.598994 0.429389 0
M  V30 1860 H 177.964 1.84002 0.473647 0
M  V30 1861 H 176.114 2.68729 2.80566 0
M  V30 1862 H 177.786 4.51552 0.943322 0
M  V30 1863 H 176.029 4.25998 0.819035 0
M  V30 1864 H 176.7 5.03812 2.2556 0
M  V30 1865 H 179.176 3.16382 2.70263 0
M  V30 1866 H 178.052 3.87141 3.89118 0
M  V30 1867 H 178.313 2.13447 3.8716 0
M  V30 1868 N 177.372 -0.689602 1.41712 0
M  V30 1869 C 178.335 -1.78521 1.43746 0
M  V30 1870 C 179.335 -1.57436 0.327191 0
M  V30 1871 O 180.525 -1.64 0.587348 0
M  V30 1872 C 177.657 -3.16971 1.25467 0
M  V30 1873 H 178.85 -1.78108 2.41283 0
M  V30 1874 H 176.403 -0.89781 1.27942 0
M  V30 1875 H 177.138 -3.23019 0.287948 0
M  V30 1876 H 176.923 -3.33678 2.05917 0
M  V30 1877 H 178.413 -3.96935 1.2974 0
M  V30 1878 N 178.85 -1.27639 -0.924453 0
M  V30 1879 C 180.078 -1.16989 -1.70649 0
M  V30 1880 C 180.493 0.272869 -1.86818 0
M  V30 1881 O 179.85 1.18549 -1.38753 0
M  V30 1882 C 179.901 -1.85229 -3.10439 0
M  V30 1883 O 179.622 -3.23868 -2.95028 0
M  V30 1884 C 181.123 -1.80746 -4.04779 0
M  V30 1885 H 178.343 -0.406595 -0.53378 0
M  V30 1886 H 180.887 -1.68569 -1.15778 0
M  V30 1887 H 179.042 -1.37545 -3.6216 0
M  V30 1888 H 179.456 -3.57889 -3.83426 0
M  V30 1889 H 180.93 -2.33101 -5.00368 0
M  V30 1890 H 181.407 -0.777499 -4.32263 0
M  V30 1891 H 182.013 -2.28059 -3.58984 0
M  V30 1892 N 180.328 1.1314 -1.09713 0
M  V30 1893 C 181.291 2.16831 -0.742751 0
M  V30 1894 C 182.291 1.59159 0.229129 0
M  V30 1895 O 183.481 1.74199 0.00693237 0
M  V30 1896 C 180.613 3.40756 -0.0989168 0
M  V30 1897 H 181.806 2.49695 -1.66109 0
M  V30 1898 H 179.359 1.2802 -0.896699 0
M  V30 1899 H 180.094 3.13485 0.830514 0
M  V30 1900 H 179.879 3.83888 -0.798265 0
M  V30 1901 H 181.369 4.17386 0.133524 0
M  V30 1902 N 181.806 0.884767 1.30421 0
M  V30 1903 C 183.083 0.423185 1.90967 0
M  V30 1904 C 183.463 -1.09605 1.80416 0
M  V30 1905 O 182.811 -1.93126 1.22125 0
M  V30 1906 C 183.021 0.921056 3.36627 0
M  V30 1907 C 184.369 0.955903 4.137 0
M  V30 1908 O 185.393 0.867706 3.4547 0
M  V30 1909 O 184.252 1.08614 5.35598 0
M  V30 1910 H 181.346 0.129369 0.816819 0
M  V30 1911 H 183.892 0.973653 1.3899 0
M  V30 1912 H 182.664 1.96489 3.3839 0
M  V30 1913 H 182.287 0.349741 3.96059 0
M  V30 1914 N 183.284 -1.43765 0.645699 0
M  V30 1915 C 184.531 -2.01898 0.15604 0
M  V30 1916 C 184.859 -1.50887 -1.22733 0
M  V30 1917 O 184.114 -0.689271 -1.8316 0
M  V30 1918 C 184.413 -3.57238 0.107679 0
M  V30 1919 C 184.079 -4.27564 1.43178 0
M  V30 1920 C 182.741 -4.46492 1.7944 0
M  V30 1921 C 185.093 -4.67454 2.30513 0
M  V30 1922 C 182.421 -5.02573 3.02716 0
M  V30 1923 C 184.773 -5.24901 3.53074 0
M  V30 1924 C 183.437 -5.42046 3.89541 0
M  V30 1925 H 182.707 -0.738797 0.057099 0
M  V30 1926 H 185.354 -1.72341 0.834912 0
M  V30 1927 H 183.659 -3.86293 -0.654618 0
M  V30 1928 H 185.356 -3.99965 -0.287938 0
M  V30 1929 H 181.946 -4.13171 1.13963 0
M  V30 1930 H 186.13 -4.5253 2.0379 0
M  V30 1931 H 181.386 -5.14033 3.31028 0
M  V30 1932 H 185.56 -5.54758 4.20971 0
M  V30 1933 H 183.187 -5.85268 4.85145 0
M  V30 1934 N 184.763 -0.387143 -1.52771 0
M  V30 1935 C 186.012 0.19697 -2.00736 0
M  V30 1936 C 186.325 1.48082 -1.27793 0
M  V30 1937 O 187.531 2.14485 -1.66458 0
M  V30 1938 C 185.987 0.401568 -3.57653 0
M  V30 1939 C 185.595 -0.868907 -4.39493 0
M  V30 1940 C 187.339 0.942164 -4.13912 0
M  V30 1941 C 185.246 -0.632705 -5.88006 0
M  V30 1942 H 184.176 0.0773827 -0.750019 0
M  V30 1943 H 186.827 -0.50921 -1.76293 0
M  V30 1944 H 185.209 1.16954 -3.78335 0
M  V30 1945 H 186.383 -1.64133 -4.30577 0
M  V30 1946 H 184.698 -1.33429 -3.94443 0
M  V30 1947 H 187.295 1.13455 -5.22525 0
M  V30 1948 H 187.638 1.9106 -3.69867 0
M  V30 1949 H 188.171 0.233814 -3.97112 0
M  V30 1950 H 184.91 -1.57208 -6.36369 0
M  V30 1951 H 184.43 0.100825 -5.99715 0
M  V30 1952 H 186.109 -0.26642 -6.46451 0
M  V30 1953 N 186.241 1.57166 -0.116904 0
M  V30 1954 C 187.49 1.94298 0.541407 0
M  V30 1955 C 187.803 1.00236 1.67964 0
M  V30 1956 O 189.009 1.26826 2.40057 0
M  V30 1957 C 187.465 3.45306 1.01449 0
M  V30 1958 C 187.073 4.47899 -0.0951738 0
M  V30 1959 C 188.817 3.91361 1.6443 0
M  V30 1960 C 186.724 5.90083 0.394491 0
M  V30 1961 H 185.654 0.725308 0.206019 0
M  V30 1962 H 188.305 1.82446 -0.196419 0
M  V30 1963 H 186.687 3.52385 1.80667 0
M  V30 1964 H 187.861 4.52486 -0.871374 0
M  V30 1965 H 186.176 4.11583 -0.631505 0
M  V30 1966 H 188.773 4.95004 2.02176 0
M  V30 1967 H 189.116 3.3122 2.52189 0
M  V30 1968 H 189.649 3.87073 0.917559 0
M  V30 1969 H 186.388 6.53974 -0.447004 0
M  V30 1970 H 185.908 5.88921 1.13722 0
M  V30 1971 H 187.587 6.41307 0.856399 0
M  V30 1972 N 187.719 -0.156864 1.56817 0
M  V30 1973 C 188.651 -1.21883 1.94106 0
M  V30 1974 C 189.664 -1.3971 0.835754 0
M  V30 1975 O 190.853 -1.39457 1.11418 0
M  V30 1976 C 187.953 -2.58527 2.19127 0
M  V30 1977 C 187.126 -2.61809 3.50393 0
M  V30 1978 C 186.185 -3.7992 3.64071 0
M  V30 1979 O 185.211 -3.65249 4.36557 0
M  V30 1980 N 186.413 -4.96973 2.99997 0
M  V30 1981 H 189.178 -0.901974 2.85805 0
M  V30 1982 H 186.739 -0.346513 1.58148 0
M  V30 1983 H 188.731 -3.36034 2.25529 0
M  V30 1984 H 187.301 -2.82545 1.33742 0
M  V30 1985 H 186.521 -1.7029 3.5552 0
M  V30 1986 H 187.809 -2.61024 4.36742 0
M  V30 1987 H 187.207 -5.11794 2.41004 0
M  V30 1988 H 185.764 -5.7229 3.11974 0
M  V30 1989 N 189.197 -1.51736 -0.425897 0
M  V30 1990 C 190.422 -1.69082 -1.20108 0
M  V30 1991 C 190.847 -0.392398 -1.83962 0
M  V30 1992 O 190.205 0.64858 -1.69302 0
M  V30 1993 C 190.253 -2.81604 -2.25237 0
M  V30 1994 O 189.357 -2.46004 -3.30992 0
M  V30 1995 H 188.698 -0.563408 -0.35138 0
M  V30 1996 H 191.228 -1.98358 -0.501512 0
M  V30 1997 H 191.238 -3.06025 -2.69838 0
M  V30 1998 H 189.913 -3.75817 -1.78142 0
M  V30 1999 H 188.49 -2.32195 -2.91787 0
M  V30 2000 N 190.675 0.682077 -1.42076 0
M  V30 2001 C 192.086 1.26246 -1.37546 0
M  V30 2002 C 192.437 1.96092 -0.0651481 0
M  V30 2003 O 191.562 1.99587 0.836297 0
M  V30 2004 C 192.157 2.29594 -2.49143 0
M  V30 2005 C 190.716 2.83175 -2.47969 0
M  V30 2006 C 189.863 1.57395 -2.28303 0
M  V30 2007 H 192.814 0.475937 -1.51395 0
M  V30 2008 H 192.835 3.11175 -2.18976 0
M  V30 2009 H 192.347 1.78729 -3.44496 0
M  V30 2010 H 190.448 3.3818 -1.56413 0
M  V30 2011 H 190.561 3.32687 -3.44755 0
M  V30 2012 H 188.925 1.83699 -1.76428 0
M  V30 2013 H 189.708 1.08507 -3.25701 0
M  V30 2014 N 192.153 1.28127 0.917671 0
M  V30 2015 C 193.103 1.08361 2.00604 0
M  V30 2016 C 194.087 0.00847518 1.60898 0
M  V30 2017 O 195.279 0.228167 1.75523 0
M  V30 2018 C 192.408 0.743376 3.35155 0
M  V30 2019 C 191.494 1.85716 3.81275 0
M  V30 2020 N 191.885 3.09822 3.99805 0
M  V30 2021 C 190.183 1.74612 4.10398 0
M  V30 2022 C 190.884 3.82368 4.38372 0
M  V30 2023 N 189.86 3.10192 4.4641 0
M  V30 2024 H 193.662 2.02531 2.12975 0
M  V30 2025 H 191.176 1.18989 1.10523 0
M  V30 2026 H 193.173 0.582859 4.12805 0
M  V30 2027 H 191.833 -0.190595 3.2414 0
M  V30 2028 H 192.844 3.45475 3.85833 0
M  V30 2029 H 189.521 0.883657 4.08041 0
M  V30 2030 H 190.911 4.89082 4.60704 0
M  V30 2031 N 193.631 -1.12557 1.10312 0
M  V30 2032 C 194.878 -1.84038 0.844759 0
M  V30 2033 C 195.206 -1.84026 -0.629668 0
M  V30 2034 O 194.461 -1.28026 -1.48013 0
M  V30 2035 C 194.76 -3.31462 1.33669 0
M  V30 2036 C 194.426 -3.51647 2.82232 0
M  V30 2037 C 193.088 -3.56864 3.22802 0
M  V30 2038 C 195.44 -3.58867 3.77974 0
M  V30 2039 C 192.768 -3.66844 4.57867 0
M  V30 2040 C 195.12 -3.70375 5.1284 0
M  V30 2041 C 193.784 -3.73848 5.52986 0
M  V30 2042 H 193.054 -0.673444 0.309119 0
M  V30 2043 H 195.701 -1.32824 1.37949 0
M  V30 2044 H 194.006 -3.85091 0.721949 0
M  V30 2045 H 195.703 -3.85236 1.11329 0
M  V30 2046 H 192.293 -3.48249 2.49842 0
M  V30 2047 H 196.477 -3.54107 3.47738 0
M  V30 2048 H 191.733 -3.67804 4.88396 0
M  V30 2049 H 195.907 -3.74904 5.86873 0
M  V30 2050 H 193.534 -3.81333 6.57639 0
M  V30 2051 N 195.109 -0.891671 -1.2995 0
M  V30 2052 C 196.057 -0.353066 -2.29905 0
M  V30 2053 C 197.051 0.543509 -1.60444 0
M  V30 2054 O 198.257 0.4272 -1.74857 0
M  V30 2055 H 194.632 -0.095531 -0.745907 0
M  V30 2056 H 196.603 -1.20961 -2.72784 0
M  V30 2057 C 195.352 0.411475 -3.45257 0
M  V30 2058 H 194.675 -0.269182 -3.98893 0
M  V30 2059 H 196.115 0.753328 -4.17254 0
M  V30 2060 C 194.574 1.6111 -2.9588 0
M  V30 2061 O 195.104 2.71045 -2.96475 0
M  V30 2062 N 193.31 1.45054 -2.51809 0
M  V30 2063 H 192.857 0.556175 -2.51524 0
M  V30 2064 H 192.815 2.25453 -2.1913 0
M  V30 2065 N 196.587 1.43421 -0.653314 0
M  V30 2066 C 197.864 1.95361 -0.0966581 0
M  V30 2067 C 198.244 1.59461 1.38331 0
M  V30 2068 O 197.592 0.879777 2.10884 0
M  V30 2069 C 197.802 3.47311 -0.342988 0
M  V30 2070 C 199.15 4.23875 -0.24798 0
M  V30 2071 O 200.174 3.55133 -0.275553 0
M  V30 2072 O 199.033 5.4623 -0.171771 0
M  V30 2073 H 196.127 0.826945 0.00956291 0
M  V30 2074 H 198.673 1.5336 -0.726558 0
M  V30 2075 H 197.445 3.66569 -1.36906 0
M  V30 2076 H 197.068 3.9631 0.319975 0
M  V30 2077 N 198.065 0.39524 1.52563 0
M  V30 2078 C 199.028 -0.425001 2.25225 0
M  V30 2079 C 200.028 -0.985266 1.27079 0
M  V30 2080 O 201.218 -0.866332 1.5113 0
M  V30 2081 C 198.35 -1.59686 3.01186 0
M  V30 2082 H 199.543 0.211233 2.99155 0
M  V30 2083 H 197.096 0.147472 1.55603 0
M  V30 2084 H 197.831 -2.27035 2.31572 0
M  V30 2085 H 197.616 -1.20176 3.73229 0
M  V30 2086 H 199.106 -2.17743 3.5634 0
M  V30 2087 N 199.544 -1.57102 0.125237 0
M  V30 2088 C 200.79 -1.95697 -0.532035 0
M  V30 2089 C 201.123 -1.009 -1.6593 0
M  V30 2090 O 200.398 -0.047347 -1.94442 0
M  V30 2091 C 200.681 -3.44181 -1.05884 0
M  V30 2092 C 200.534 -4.49752 0.0654392 0
M  V30 2093 C 201.853 -3.94655 -1.9477 0
M  V30 2094 H 198.972 -0.711571 -0.191925 0
M  V30 2095 H 201.614 -1.88923 0.20206 0
M  V30 2096 H 199.764 -3.50085 -1.68442 0
M  V30 2097 H 201.436 -4.55943 0.700982 0
M  V30 2098 H 199.679 -4.27653 0.727709 0
M  V30 2099 H 200.35 -5.50924 -0.344505 0
M  V30 2100 H 202.826 -3.91094 -1.42074 0
M  V30 2101 H 201.702 -4.99057 -2.28546 0
M  V30 2102 H 201.963 -3.35718 -2.87656 0
M  V30 2103 N 201.022 0.148545 -1.56898 0
M  V30 2104 C 202.299 0.890019 -1.74178 0
M  V30 2105 C 202.679 1.99407 -0.692839 0
M  V30 2106 O 202.027 2.26671 0.288505 0
M  V30 2107 C 202.237 1.43389 -3.18183 0
M  V30 2108 C 203.585 1.89791 -3.79822 0
M  V30 2109 O 204.609 1.53134 -3.21603 0
M  V30 2110 O 203.468 2.57387 -4.82093 0
M  V30 2111 H 200.562 0.420496 -0.712118 0
M  V30 2112 H 203.108 0.134591 -1.69165 0
M  V30 2113 H 201.88 0.640383 -3.86024 0
M  V30 2114 H 201.503 2.25287 -3.27615 0
M  V30 2115 N 202.5 1.5196 0.417844 0
M  V30 2116 C 203.749 1.6482 1.16264 0
M  V30 2117 C 204.062 0.379886 1.91876 0
M  V30 2118 O 205.268 0.388154 2.68711 0
M  V30 2119 C 203.724 2.91161 2.1155 0
M  V30 2120 C 203.332 4.25068 1.41495 0
M  V30 2121 C 205.076 3.13383 2.86341 0
M  V30 2122 C 202.983 5.42541 2.35379 0
M  V30 2123 H 201.913 0.613954 0.437694 0
M  V30 2124 H 204.564 1.78442 0.427871 0
M  V30 2125 H 202.946 2.71218 2.88543 0
M  V30 2126 H 204.12 4.55463 0.699263 0
M  V30 2127 H 202.435 4.0888 0.787792 0
M  V30 2128 H 205.032 3.98324 3.5671 0
M  V30 2129 H 205.375 2.27256 3.48798 0
M  V30 2130 H 205.908 3.33757 2.1645 0
M  V30 2131 H 202.647 6.30987 1.77582 0
M  V30 2132 H 202.167 5.16497 3.04945 0
M  V30 2133 H 203.846 5.75272 2.96093 0
M  V30 2134 N 203.978 -0.674533 1.42435 0
M  V30 2135 C 204.908 -1.80009 1.48724 0
M  V30 2136 C 205.889 -1.6659 0.343793 0
M  V30 2137 O 207.074 -1.86007 0.558137 0
M  V30 2138 C 204.204 -3.18306 1.38919 0
M  V30 2139 C 203.158 -3.46461 2.51294 0
M  V30 2140 C 202.484 -4.84335 2.26547 0
M  V30 2141 C 203.784 -3.43328 3.93603 0
M  V30 2142 H 205.478 -1.75004 2.42928 0
M  V30 2143 H 203.024 -0.840533 1.16923 0
M  V30 2144 H 204.977 -3.9678 1.41927 0
M  V30 2145 H 203.701 -3.2399 0.412094 0
M  V30 2146 H 202.36 -2.70348 2.47604 0
M  V30 2147 H 202.008 -4.86669 1.2713 0
M  V30 2148 H 201.708 -5.04136 3.01861 0
M  V30 2149 H 203.232 -5.65094 2.31304 0
M  V30 2150 H 204.646 -4.11772 3.98894 0
M  V30 2151 H 203.043 -3.74664 4.68771 0
M  V30 2152 H 204.113 -2.41897 4.20255 0
M  V30 2153 N 205.456 -1.28612 -0.910864 0
M  V30 2154 C 206.705 -1.15311 -1.65488 0
M  V30 2155 C 207.018 0.296999 -1.93332 0
M  V30 2156 O 208.224 0.551168 -2.65847 0
M  V30 2157 C 206.68 -2.01599 -2.98137 0
M  V30 2158 C 206.288 -3.51367 -2.7793 0
M  V30 2159 C 208.032 -1.96993 -3.76024 0
M  V30 2160 C 205.939 -4.29797 -4.06237 0
M  V30 2161 H 204.869 -0.42796 -0.620779 0
M  V30 2162 H 207.52 -1.53166 -1.01057 0
M  V30 2163 H 205.902 -1.56603 -3.63719 0
M  V30 2164 H 207.076 -4.0434 -2.21011 0
M  V30 2165 H 205.391 -3.57529 -2.13452 0
M  V30 2166 H 207.988 -2.52856 -4.71135 0
M  V30 2167 H 208.331 -0.94733 -4.05378 0
M  V30 2168 H 208.864 -2.39973 -3.17266 0
M  V30 2169 H 205.603 -5.32648 -3.82055 0
M  V30 2170 H 205.123 -3.81596 -4.62757 0
M  V30 2171 H 206.802 -4.39869 -4.74473 0
M  V30 2172 N 206.934 1.1197 -1.10907 0
M  V30 2173 C 208.345 1.65114 -0.871446 0
M  V30 2174 C 208.696 1.86885 0.597353 0
M  V30 2175 O 207.821 1.59896 1.45816 0
M  V30 2176 C 208.416 2.99944 -1.5754 0
M  V30 2177 C 206.975 3.50018 -1.38435 0
M  V30 2178 C 206.122 2.24941 -1.62164 0
M  V30 2179 H 209.073 0.956851 -1.2661 0
M  V30 2180 H 209.094 3.66651 -1.01721 0
M  V30 2181 H 208.606 2.84067 -2.64438 0
M  V30 2182 H 206.707 3.71071 -0.337214 0
M  V30 2183 H 206.82 4.29165 -2.12965 0
M  V30 2184 H 205.184 2.3229 -1.04467 0
M  V30 2185 H 205.967 2.11612 -2.70324 0
M  V30 2186 N 208.412 0.89855 1.29475 0
M  V30 2187 C 209.689 0.443416 1.90508 0
M  V30 2188 C 210.069 -1.07685 1.81569 0
M  V30 2189 O 209.417 -1.9182 1.24166 0
M  V30 2190 C 209.627 0.956708 3.35631 0
M  V30 2191 C 210.975 0.999728 4.12663 0
M  V30 2192 O 211.999 0.904299 3.4453 0
M  V30 2193 O 210.858 1.14289 5.34416 0
M  V30 2194 H 207.952 0.138025 0.815401 0
M  V30 2195 H 210.498 0.98834 1.37949 0
M  V30 2196 H 209.27 2.00067 3.36287 0
M  V30 2197 H 208.893 0.391728 3.95666 0
M  V30 2198 N 209.89 -1.43072 0.660911 0
M  V30 2199 C 211.12 -2.05769 0.185153 0
M  V30 2200 C 211.528 -1.49668 -1.15742 0
M  V30 2201 O 210.871 -0.625649 -1.72717 0
M  V30 2202 C 210.933 -3.59489 0.0278237 0
M  V30 2203 C 210.597 -4.38212 1.2969 0
M  V30 2204 C 211.594 -4.69772 2.22734 0
M  V30 2205 C 209.279 -4.7809 1.54063 0
M  V30 2206 C 211.273 -5.40129 3.38437 0
M  V30 2207 C 208.96 -5.4819 2.70058 0
M  V30 2208 C 209.958 -5.79132 3.62071 0
M  V30 2209 O 209.646 -6.47798 4.76039 0
M  V30 2210 H 209.378 -0.669873 0.0908086 0
M  V30 2211 H 211.932 -1.84436 0.90402 0
M  V30 2212 H 210.162 -3.79426 -0.746489 0
M  V30 2213 H 211.851 -4.03862 -0.406275 0
M  V30 2214 H 212.617 -4.39476 2.05149 0
M  V30 2215 H 208.496 -4.53408 0.833215 0
M  V30 2216 H 212.04 -5.64198 4.10277 0
M  V30 2217 H 207.937 -5.77902 2.87574 0
M  V30 2218 H 208.705 -6.66283 4.75404 0
M  V30 2219 N 211.368 -0.403325 -1.52352 0
M  V30 2220 C 212.3 0.4603 -2.2453 0
M  V30 2221 C 213.313 1.01505 -1.27282 0
M  V30 2222 O 214.502 0.914982 -1.53266 0
M  V30 2223 C 211.602 1.65208 -2.95905 0
M  V30 2224 C 210.775 1.22224 -4.19976 0
M  V30 2225 C 209.834 2.28028 -4.74226 0
M  V30 2226 O 208.86 1.88857 -5.36956 0
M  V30 2227 N 210.062 3.6012 -4.55295 0
M  V30 2228 H 212.827 -0.158156 -2.99282 0
M  V30 2229 H 210.388 -0.230402 -1.60252 0
M  V30 2230 H 212.38 2.35541 -3.29093 0
M  V30 2231 H 210.95 2.17658 -2.24374 0
M  V30 2232 H 210.17 0.34725 -3.92668 0
M  V30 2233 H 211.458 0.911924 -5.00561 0
M  V30 2234 H 210.856 3.94698 -4.05253 0
M  V30 2235 H 209.413 4.26447 -4.92936 0
M  V30 2236 N 212.846 1.57033 -0.133567 0
M  V30 2237 C 214.262 1.58035 0.222944 0
M  V30 2238 C 214.462 1.14713 1.6566 0
M  V30 2239 O 213.518 0.841218 2.38075 0
M  V30 2240 C 214.831 3.00691 -0.0236116 0
M  V30 2241 C 216.379 3.12973 0.0411512 0
M  V30 2242 C 216.854 4.57654 -0.177899 0
M  V30 2243 N 218.345 4.63033 -0.124365 0
M  V30 2244 C 219.08 5.72771 -0.268553 0
M  V30 2245 N 218.576 6.91206 -0.46972 0
M  V30 2246 N 220.369 5.61718 -0.2071 0
M  V30 2247 H 212.52 1.8349 -1.06981 0
M  V30 2248 H 214.783 0.848677 -0.422436 0
M  V30 2249 H 214.489 3.36726 -1.0153 0
M  V30 2250 H 214.363 3.70614 0.701808 0
M  V30 2251 H 216.75 2.76787 1.02338 0
M  V30 2252 H 216.831 2.45564 -0.716383 0
M  V30 2253 H 216.475 4.94542 -1.15717 0
M  V30 2254 H 216.405 5.23173 0.599797 0
M  V30 2255 H 218.896 3.7789 0.027011 0
M  V30 2256 H 219.209 7.70693 -0.570212 0
M  V30 2257 H 217.554 6.93156 -0.505876 0
M  V30 2258 H 220.745 4.68072 -0.0507986 0
M  V30 2259 H 220.918 6.47195 -0.322909 0
M  V30 2260 N 214.325 -0.140222 1.56975 0
M  V30 2261 C 215.555 -0.865181 1.87612 0
M  V30 2262 C 215.963 -1.74942 0.72055 0
M  V30 2263 O 215.306 -1.80917 -0.318561 0
M  V30 2264 C 215.368 -1.76782 3.13031 0
M  V30 2265 C 215.032 -1.06005 4.44536 0
M  V30 2266 C 216.029 -0.410768 5.18275 0
M  V30 2267 C 213.714 -1.04754 4.91255 0
M  V30 2268 C 215.708 0.241572 6.36942 0
M  V30 2269 C 213.395 -0.391394 6.09845 0
M  V30 2270 C 214.393 0.252029 6.82535 0
M  V30 2271 O 214.081 0.897757 7.98871 0
M  V30 2272 H 213.813 -0.255188 0.625983 0
M  V30 2273 H 216.367 -0.135653 2.04952 0
M  V30 2274 H 214.597 -2.53846 2.91718 0
M  V30 2275 H 216.286 -2.36533 3.29859 0
M  V30 2276 H 217.052 -0.412195 4.83245 0
M  V30 2277 H 212.931 -1.53777 4.34596 0
M  V30 2278 H 216.475 0.744375 6.93617 0
M  V30 2279 H 212.372 -0.387656 6.44335 0
M  V30 2280 H 213.14 0.800102 8.1458 0
M  V30 2281 N 215.803 -1.52179 -0.40978 0
M  V30 2282 C 216.733 -1.78435 -1.5061 0
M  V30 2283 C 217.714 -0.635295 -1.57791 0
M  V30 2284 O 218.899 -0.880823 -1.73076 0
M  V30 2285 C 216.029 -1.93444 -2.88439 0
M  V30 2286 C 214.983 -3.09038 -2.96108 0
M  V30 2287 C 214.309 -3.09268 -4.36185 0
M  V30 2288 C 215.609 -4.48508 -2.67652 0
M  V30 2289 H 217.303 -2.70237 -1.28889 0
M  V30 2290 H 214.849 -1.30036 -0.618605 0
M  V30 2291 H 216.802 -2.10394 -3.65119 0
M  V30 2292 H 215.526 -0.983129 -3.11452 0
M  V30 2293 H 214.185 -2.91837 -2.21872 0
M  V30 2294 H 213.833 -2.11861 -4.56206 0
M  V30 2295 H 213.533 -3.86907 -4.42241 0
M  V30 2296 H 215.057 -3.28348 -5.14801 0
M  V30 2297 H 216.471 -4.65918 -3.34056 0
M  V30 2298 H 214.868 -5.28059 -2.85085 0
M  V30 2299 H 215.938 -4.56649 -1.63095 0
M  V30 2300 N 217.281 0.66697 -1.42791 0
M  V30 2301 C 218.244 1.76211 -1.46568 0
M  V30 2302 C 219.244 1.56896 -0.352196 0
M  V30 2303 O 220.434 1.63044 -0.613364 0
M  V30 2304 C 217.566 3.14935 -1.30494 0
M  V30 2305 H 218.759 1.74247 -2.44086 0
M  V30 2306 H 216.312 0.877342 -1.29354 0
M  V30 2307 H 217.047 3.2252 -0.339301 0
M  V30 2308 H 216.832 3.30359 -2.11199 0
M  V30 2309 H 218.322 3.94821 -1.36038 0
M  V30 2310 N 218.759 1.29093 0.90403 0
M  V30 2311 C 220.036 1.075 1.63411 0
M  V30 2312 C 220.416 -0.382346 2.07609 0
M  V30 2313 O 219.764 -1.37031 1.82851 0
M  V30 2314 C 219.974 2.05858 2.81822 0
M  V30 2315 C 221.322 2.36539 3.52611 0
M  V30 2316 O 222.346 2.04019 2.91984 0
M  V30 2317 O 221.205 2.92085 4.61897 0
M  V30 2318 H 218.299 0.411547 0.717327 0
M  V30 2319 H 220.845 1.40449 0.952479 0
M  V30 2320 H 219.617 3.04037 2.46327 0
M  V30 2321 H 219.24 1.73613 3.57693 0
M  V30 2322 N 220.237 -1.11381 1.11499 0
M  V30 2323 C 221.653 -1.35143 0.849031 0
M  V30 2324 C 221.853 -1.94515 -0.525938 0
M  V30 2325 O 220.909 -2.1785 -1.27662 0
M  V30 2326 C 222.222 -2.28249 1.95762 0
M  V30 2327 C 223.77 -2.41812 1.98736 0
M  V30 2328 C 224.245 -3.3824 3.088 0
M  V30 2329 N 225.736 -3.45803 3.08179 0
M  V30 2330 C 226.471 -4.20358 3.89982 0
M  V30 2331 N 225.967 -4.97884 4.8175 0
M  V30 2332 N 227.76 -4.15877 3.78157 0
M  V30 2333 H 219.911 -0.712062 2.00109 0
M  V30 2334 H 222.174 -0.376025 0.870235 0
M  V30 2335 H 221.88 -1.91817 2.94787 0
M  V30 2336 H 221.754 -3.28473 1.85433 0
M  V30 2337 H 224.141 -2.77518 1.00338 0
M  V30 2338 H 224.222 -1.41437 2.13141 0
M  V30 2339 H 223.866 -3.03261 4.07425 0
M  V30 2340 H 223.796 -4.38471 2.91635 0
M  V30 2341 H 226.287 -2.90506 2.41691 0
M  V30 2342 H 226.6 -5.52142 5.40702 0
M  V30 2343 H 224.945 -4.97043 4.85771 0
M  V30 2344 H 228.136 -3.544 3.05808 0
M  V30 2345 H 228.309 -4.73723 4.42143 0
M  V30 2346 N 221.715 -0.905404 -1.28997 0
M  V30 2347 C 222.645 -0.404212 -2.29975 0
M  V30 2348 C 223.626 0.523784 -1.61835 0
M  V30 2349 O 224.811 0.433298 -1.89304 0
M  V30 2350 C 221.941 0.364042 -3.45387 0
M  V30 2351 C 220.895 -0.474048 -4.25367 0
M  V30 2352 C 220.221 0.422045 -5.33032 0
M  V30 2353 C 221.521 -1.72696 -4.92923 0
M  V30 2354 H 223.215 -1.24807 -2.72146 0
M  V30 2355 H 220.761 -0.601585 -1.30832 0
M  V30 2356 H 222.714 0.725447 -4.15109 0
M  V30 2357 H 221.438 1.24174 -3.02074 0
M  V30 2358 H 220.097 -0.81786 -3.57361 0
M  V30 2359 H 219.745 1.29804 -4.85963 0
M  V30 2360 H 219.445 -0.135057 -5.87445 0
M  V30 2361 H 220.969 0.779517 -6.05604 0
M  V30 2362 H 222.383 -1.43495 -5.55051 0
M  V30 2363 H 220.78 -2.22582 -5.57295 0
M  V30 2364 H 221.85 -2.45964 -4.17887 0
M  V30 2365 N 223.193 1.4272 -0.668489 0
M  V30 2366 C 224.14 2.30796 0.0137489 0
M  V30 2367 C 225.11 1.4561 0.799177 0
M  V30 2368 O 226.295 1.74453 0.772702 0
M  V30 2369 C 223.435 3.31377 0.963507 0
M  V30 2370 C 222.548 4.31655 0.172569 0
M  V30 2371 C 221.683 5.19312 1.1175 0
M  V30 2372 C 220.722 6.11274 0.317886 0
M  V30 2373 N 219.859 6.91504 1.2152 0
M  V30 2374 H 224.699 2.88585 -0.743161 0
M  V30 2375 H 222.236 1.42154 -0.378226 0
M  V30 2376 H 224.194 3.88214 1.52792 0
M  V30 2377 H 222.824 2.75202 1.68712 0
M  V30 2378 H 221.876 3.76988 -0.508374 0
M  V30 2379 H 223.188 4.96779 -0.448527 0
M  V30 2380 H 222.342 5.80851 1.75206 0
M  V30 2381 H 221.081 4.5435 1.77249 0
M  V30 2382 H 220.086 5.48809 -0.329918 0
M  V30 2383 H 221.311 6.78283 -0.332917 0
M  V30 2384 H 219.257 6.29176 1.85671 0
M  V30 2385 H 219.174 7.53209 0.649036 0
M  V30 2386 H 220.442 7.57535 1.83742 0
M  V30 2387 O 224.71 0.553536 1.51718 0
M  V30 2388 H 225.401 0.050045 1.93635 0
M  V30 END ATOM
M  V30 BEGIN BOND
M  V30 END BOND
M  V30 END CTAB
M  END
$$$$
