drugbank_target|P0A805 Ribosome-recycling factor (DB04082)
 OpenBabel12092120453D

  0  0  0     0  0            999 V3000
M  V30 BEGIN CTAB
M  V30 COUNTS 2937 2949 0 0 0
M  V30 BEGIN ATOM
M  V30 1 H -0.908 1.98254 -0.117106 0
M  V30 2 N 0 1.576 0 0
M  V30 3 C 0.933 2.03868 1.02534 0
M  V30 4 C 1.911 0.928543 1.3348 0
M  V30 5 O 3.095 1.19667 1.45644 0
M  V30 6 C 0.222 2.43627 2.35294 0
M  V30 7 C -0.732 3.65373 2.2001 0
M  V30 8 S 0.101 5.13292 1.52614 0
M  V30 9 C 1.257 5.56322 2.86805 0
M  V30 10 H 1.49 2.90518 0.631377 0
M  V30 11 H -0.977 1.52953 0.210867 0
M  V30 12 H 0.981 2.67203 3.11629 0
M  V30 13 H -0.358 1.57376 2.7183 0
M  V30 14 H -1.165 3.90944 3.18086 0
M  V30 15 H -1.563 3.418 1.51819 0
M  V30 16 H 0.729 5.58782 3.83104 0
M  V30 17 H 1.672 6.56266 2.65933 0
M  V30 18 H 2.08 4.83886 2.90714 0
M  V30 19 N 1.4781 -0.272755 1.55222 0
M  V30 20 C 2.7271 -1.00211 1.75045 0
M  V30 21 C 3.0401 -1.87441 0.559046 0
M  V30 22 O 4.2461 -2.63856 0.639698 0
M  V30 23 C 2.7021 -1.83165 3.09804 0
M  V30 24 C 2.3101 -1.008 4.36513 0
M  V30 25 C 4.0541 -2.55529 3.38977 0
M  V30 26 C 1.9611 -1.83194 5.62311 0
M  V30 27 H 0.8911 -0.377878 0.652476 0
M  V30 28 H 3.5421 -0.257776 1.8168 0
M  V30 29 H 1.9241 -2.61694 2.97207 0
M  V30 30 H 3.0981 -0.266855 4.60027 0
M  V30 31 H 1.4131 -0.398897 4.14485 0
M  V30 32 H 4.0101 -3.17578 4.30172 0
M  V30 33 H 4.3531 -3.25825 2.59121 0
M  V30 34 H 4.8861 -1.84029 3.52673 0
M  V30 35 H 1.6251 -1.17318 6.44916 0
M  V30 36 H 1.1451 -2.54905 5.4294 0
M  V30 37 H 2.8241 -2.40552 6.00619 0
M  V30 38 N 2.9562 -1.48159 -0.537278 0
M  V30 39 C 4.1812 -1.59707 -1.32319 0
M  V30 40 C 4.6062 -0.254859 -1.86365 0
M  V30 41 O 3.9642 0.772378 -1.64024 0
M  V30 42 C 4.0122 -2.6412 -2.45505 0
M  V30 43 O 3.1162 -2.20774 -3.48328 0
M  V30 44 H 2.4572 -0.535791 -0.392204 0
M  V30 45 H 4.9872 -1.94092 -0.647268 0
M  V30 46 H 4.9972 -2.85166 -2.91795 0
M  V30 47 H 3.6722 -3.61567 -2.05528 0
M  V30 48 H 2.2492 -2.09911 -3.08207 0
M  V30 49 N 4.4343 0.785586 -1.36625 0
M  V30 50 C 5.7113 1.53198 -1.21613 0
M  V30 51 C 6.0913 2.10187 0.196113 0
M  V30 52 O 5.4393 1.94318 1.20219 0
M  V30 53 C 5.6493 2.62388 -2.30116 0
M  V30 54 C 6.9973 3.30167 -2.66974 0
M  V30 55 O 8.0213 2.72674 -2.29188 0
M  V30 56 O 6.8803 4.34077 -3.32023 0
M  V30 57 H 3.9743 0.677865 -0.473738 0
M  V30 58 H 6.5203 0.823739 -1.48367 0
M  V30 59 H 5.2923 2.18299 -3.24748 0
M  V30 60 H 4.9153 3.40827 -2.0475 0
M  V30 61 N 5.9124 1.20967 1.01018 0
M  V30 62 C 7.1614 1.01796 1.74128 0
M  V30 63 C 7.4744 -0.449691 1.90361 0
M  V30 64 O 8.6804 -0.76068 2.60626 0
M  V30 65 C 7.1364 1.7727 3.13215 0
M  V30 66 C 6.7444 3.28171 3.04972 0
M  V30 67 C 8.4884 1.66489 3.90489 0
M  V30 68 C 6.3954 3.96156 4.39107 0
M  V30 69 H 5.3254 0.377276 0.652824 0
M  V30 70 H 7.9764 1.44651 1.12909 0
M  V30 71 H 6.3584 1.27205 3.75013 0
M  V30 72 H 7.5324 3.85499 2.52443 0
M  V30 73 H 5.8474 3.39437 2.41188 0
M  V30 74 H 8.4444 2.14617 4.89738 0
M  V30 75 H 8.7874 0.6222 4.11624 0
M  V30 76 H 9.3204 2.14003 3.35332 0
M  V30 77 H 6.0594 5.00604 4.23174 0
M  V30 78 H 5.5794 3.43617 4.91617 0
M  V30 79 H 7.2584 4.00774 5.07926 0
M  V30 80 N 7.3905 -1.2043 1.01659 0
M  V30 81 C 8.8065 -1.41852 0.731442 0
M  V30 82 C 9.0065 -1.89358 -0.688898 0
M  V30 83 O 8.0625 -2.06247 -1.45666 0
M  V30 84 C 9.3755 -2.44019 1.75714 0
M  V30 85 C 10.9235 -2.57785 1.77527 0
M  V30 86 C 11.3985 -3.63194 2.79023 0
M  V30 87 N 12.8895 -3.70678 2.77763 0
M  V30 88 C 13.6245 -4.51897 3.52954 0
M  V30 89 N 13.1205 -5.36921 4.37821 0
M  V30 90 N 14.9135 -4.4643 3.41551 0
M  V30 91 H 7.0645 -0.879093 1.93354 0
M  V30 92 H 9.3275 -0.448425 0.835236 0
M  V30 93 H 9.0335 -2.1611 2.77469 0
M  V30 94 H 8.9075 -3.43007 1.56927 0
M  V30 95 H 11.2945 -2.85023 0.764569 0
M  V30 96 H 11.3755 -1.58992 2.00387 0
M  V30 97 H 11.0195 -3.36699 3.80258 0
M  V30 98 H 10.9495 -4.61609 2.53425 0
M  V30 99 H 13.4405 -3.09944 2.16201 0
M  V30 100 H 13.7535 -5.95981 4.91962 0
M  V30 101 H 12.0985 -5.36424 4.41899 0
M  V30 102 H 15.2895 -3.79042 2.74672 0
M  V30 103 H 15.4625 -5.09491 4.00404 0
M  V30 104 N 8.8686 -0.792821 -1.36206 0
M  V30 105 C 9.8156 -0.191653 -2.30003 0
M  V30 106 C 10.7856 0.666453 -1.52143 0
M  V30 107 O 11.9706 0.61442 -1.80636 0
M  V30 108 C 9.1106 0.664848 -3.38635 0
M  V30 109 C 8.2236 -0.212175 -4.31479 0
M  V30 110 C 7.3586 0.651022 -5.27196 0
M  V30 111 C 6.3976 -0.227247 -6.11678 0
M  V30 112 N 5.5346 0.595127 -6.99573 0
M  V30 113 H 10.3746 -0.996978 -2.80828 0
M  V30 114 H 7.9116 -0.503206 -1.38225 0
M  V30 115 H 9.8696 1.17645 -4.00269 0
M  V30 116 H 8.4996 1.43557 -2.89122 0
M  V30 117 H 7.5516 -0.841777 -3.70969 0
M  V30 118 H 8.8636 -0.888751 -4.90818 0
M  V30 119 H 8.0176 1.2283 -5.94136 0
M  V30 120 H 6.7566 1.36121 -4.68319 0
M  V30 121 H 5.7616 -0.816904 -5.43697 0
M  V30 122 H 6.9866 -0.93509 -6.72631 0
M  V30 123 H 4.9326 1.28955 -6.432 0
M  V30 124 H 4.8496 -0.0236952 -7.55996 0
M  V30 125 H 6.1176 1.15613 -7.70879 0
M  V30 126 N 10.3467 1.47872 -0.545128 0
M  V30 127 C 11.6237 1.9554 0.0485222 0
M  V30 128 C 12.0037 1.4876 1.49779 0
M  V30 129 O 11.3517 0.720925 2.16829 0
M  V30 130 C 11.5617 3.48898 -0.084417 0
M  V30 131 C 12.9097 4.24547 0.0671239 0
M  V30 132 O 13.9337 3.56198 -0.0113649 0
M  V30 133 O 12.7927 5.45999 0.233882 0
M  V30 134 H 9.8867 0.823957 0.0708773 0
M  V30 135 H 12.4327 1.58327 -0.610798 0
M  V30 136 H 11.2047 3.75714 -1.09337 0
M  V30 137 H 10.8277 3.92845 0.613066 0
M  V30 138 N 11.8248 0.280983 1.55075 0
M  V30 139 C 12.7878 -0.590896 2.21452 0
M  V30 140 C 13.7878 -1.07682 1.19421 0
M  V30 141 O 14.9778 -0.97605 1.44288 0
M  V30 142 C 12.1098 -1.81587 2.88511 0
M  V30 143 H 13.3028 -0.0112554 2.99898 0
M  V30 144 H 10.8558 0.0316438 1.56268 0
M  V30 145 H 11.5908 -2.43587 2.14093 0
M  V30 146 H 11.3758 -1.4753 3.63287 0
M  V30 147 H 12.8658 -2.43575 3.39206 0
M  V30 148 N 13.3029 -1.57598 0.00835791 0
M  V30 149 C 14.2129 -2.12385 -0.996487 0
M  V30 150 C 15.2289 -1.07108 -1.37127 0
M  V30 151 O 16.4049 -1.39055 -1.4569 0
M  V30 152 C 13.4699 -2.62314 -2.26699 0
M  V30 153 C 12.5309 -3.82225 -1.95456 0
M  V30 154 C 11.7639 -4.29763 -3.16449 0
M  V30 155 O 11.9869 -3.76584 -4.28416 0
M  V30 156 O 10.9209 -5.21832 -2.99958 0
M  V30 157 H 14.7469 -2.98479 -0.560725 0
M  V30 158 H 12.3319 -1.47903 -0.210987 0
M  V30 159 H 14.2139 -2.94589 -3.01322 0
M  V30 160 H 12.8889 -1.79313 -2.69497 0
M  V30 161 H 11.7959 -3.54909 -1.18282 0
M  V30 162 H 13.1289 -4.66324 -1.57489 0
M  V30 163 N 14.781 0.264519 -1.55364 0
M  V30 164 C 16.027 0.99646 -1.76631 0
M  V30 165 C 16.36 1.85632 -0.570478 0
M  V30 166 O 15.635 1.89647 0.43175 0
M  V30 167 C 15.918 1.87187 -3.07625 0
M  V30 168 C 15.771 1.04138 -4.37579 0
M  V30 169 C 17.09 2.85749 -3.34717 0
M  V30 170 H 14.209 0.360841 -0.642622 0
M  V30 171 H 16.851 0.268218 -1.88097 0
M  V30 172 H 15.001 2.49279 -2.9798 0
M  V30 173 H 16.673 0.440517 -4.59192 0
M  V30 174 H 14.916 0.345115 -4.32425 0
M  V30 175 H 15.587 1.68729 -5.2558 0
M  V30 176 H 18.063 2.33793 -3.4421 0
M  V30 177 H 16.939 3.44136 -4.27623 0
M  V30 178 H 17.2 3.61311 -2.54768 0
M  V30 179 N 16.2591 1.48442 0.529413 0
M  V30 180 C 17.6751 1.34575 0.858004 0
M  V30 181 C 17.8751 0.3572 1.98309 0
M  V30 182 O 16.9311 -0.221379 2.51528 0
M  V30 183 C 18.2441 2.74617 1.22499 0
M  V30 184 C 19.7921 2.83109 1.33484 0
M  V30 185 C 20.2671 4.23854 1.73526 0
M  V30 186 N 21.7581 4.2653 1.80628 0
M  V30 187 C 22.4931 5.32372 2.12997 0
M  V30 188 N 21.9891 6.48491 2.43786 0
M  V30 189 N 23.7821 5.19766 2.14008 0
M  V30 190 H 15.9331 2.1133 -0.212925 0
M  V30 191 H 18.1961 0.947439 -0.0326199 0
M  V30 192 H 17.9021 3.4852 0.471905 0
M  V30 193 H 17.7761 3.08177 2.17501 0
M  V30 194 H 20.1631 2.09462 2.0787 0
M  V30 195 H 20.2441 2.53168 0.366027 0
M  V30 196 H 19.8881 4.98018 0.997013 0
M  V30 197 H 19.8181 4.5124 2.71459 0
M  V30 198 H 22.3091 3.42772 1.59108 0
M  V30 199 H 22.6221 7.24993 2.67592 0
M  V30 200 H 20.9671 6.51765 2.41304 0
M  V30 201 H 24.1581 4.28066 1.89412 0
M  V30 202 H 24.3311 6.02354 2.38902 0
M  V30 203 N 17.7372 -0.778329 1.37039 0
M  V30 204 C 18.6702 -1.8984 1.26633 0
M  V30 205 C 19.6482 -1.61923 0.148197 0
M  V30 206 O 20.8322 -1.85742 0.321265 0
M  V30 207 C 17.9592 -3.24916 0.956403 0
M  V30 208 C 17.0052 -3.71752 2.09051 0
M  V30 209 S 17.8382 -3.86201 3.70957 0
M  V30 210 C 18.9942 -5.24135 3.42101 0
M  V30 211 H 19.2272 -1.98377 2.21436 0
M  V30 212 H 16.7602 -0.938738 1.22585 0
M  V30 213 H 18.7182 -4.02936 0.784409 0
M  V30 214 H 17.3792 -3.14089 0.0259713 0
M  V30 215 H 16.5722 -4.69661 1.8285 0
M  V30 216 H 16.1742 -3.00815 2.2223 0
M  V30 217 H 18.4662 -6.09086 2.96682 0
M  V30 218 H 19.4092 -5.55346 4.39314 0
M  V30 219 H 19.8172 -4.91761 2.77185 0
M  V30 220 N 19.2153 -1.21501 -1.00376 0
M  V30 221 C 20.4923 -0.941745 -1.71437 0
M  V30 222 C 20.8723 0.546114 -2.03914 0
M  V30 223 O 20.2203 1.51128 -1.71384 0
M  V30 224 C 20.4303 -1.82812 -2.97289 0
M  V30 225 C 21.7783 -2.07771 -3.70292 0
M  V30 226 O 22.8023 -1.80171 -3.07273 0
M  V30 227 O 21.6613 -2.54456 -4.83647 0
M  V30 228 H 18.7553 -0.353243 -0.747762 0
M  V30 229 H 21.3013 -1.32436 -1.06108 0
M  V30 230 H 20.0733 -2.83501 -2.69709 0
M  V30 231 H 19.6963 -1.4464 -3.70358 0
M  V30 232 N 20.6934 1.19889 -1.02296 0
M  V30 233 C 21.6404 2.22901 -0.598651 0
M  V30 234 C 22.6104 1.61588 0.384521 0
M  V30 235 O 23.7954 1.88697 0.282522 0
M  V30 236 C 20.9354 3.45063 0.0504476 0
M  V30 237 C 20.0484 4.20783 -0.978053 0
M  V30 238 C 19.1834 5.30356 -0.299338 0
M  V30 239 C 18.2224 5.97826 -1.31416 0
M  V30 240 N 17.3594 6.98975 -0.661667 0
M  V30 241 H 22.1994 2.58554 -1.48169 0
M  V30 242 H 19.7364 1.27039 -0.741584 0
M  V30 243 H 21.6944 4.14831 0.443971 0
M  V30 244 H 20.3244 3.10084 0.897097 0
M  V30 245 H 19.3764 3.50018 -1.48969 0
M  V30 246 H 20.6884 4.67109 -1.74958 0
M  V30 247 H 19.8424 6.06516 0.149347 0
M  V30 248 H 18.5814 4.85084 0.504445 0
M  V30 249 H 17.5864 5.20422 -1.77317 0
M  V30 250 H 18.8114 6.45183 -2.11933 0
M  V30 251 H 16.7574 6.55886 0.122132 0
M  V30 252 H 16.6744 7.43461 -1.37117 0
M  V30 253 H 17.9424 7.7914 -0.236785 0
M  V30 254 N 22.1715 0.800033 1.35784 0
M  V30 255 C 23.4115 0.382891 2.00782 0
M  V30 256 C 23.7755 -1.02891 1.62103 0
M  V30 257 O 24.9765 -1.54771 2.19771 0
M  V30 258 C 23.2475 0.553299 3.53091 0
M  V30 259 S 24.8065 0.225608 4.3822 0
M  V30 260 H 21.6245 0.145737 0.695904 0
M  V30 261 H 24.2265 1.04085 1.65489 0
M  V30 262 H 22.9305 1.58091 3.78729 0
M  V30 263 H 22.4615 -0.120214 3.93216 0
M  V30 264 H 24.4765 -0.969074 4.86645 0
M  V30 265 N 23.6496 -1.47581 0.552962 0
M  V30 266 C 24.8956 -2.02782 0.0273648 0
M  V30 267 C 25.2286 -1.42687 -1.31734 0
M  V30 268 O 24.5036 -0.580897 -1.85623 0
M  V30 269 C 24.7866 -3.60031 -0.0702371 0
M  V30 270 C 24.6396 -4.30566 1.30126 0
M  V30 271 C 25.9586 -4.33028 -0.785771 0
M  V30 272 H 23.0776 -0.736912 0.0114185 0
M  V30 273 H 25.7196 -1.76056 0.714432 0
M  V30 274 H 23.8696 -3.82932 -0.655382 0
M  V30 275 H 25.5416 -4.19018 1.92929 0
M  V30 276 H 23.7846 -3.91086 1.87709 0
M  V30 277 H 24.4556 -5.39114 1.18573 0
M  V30 278 H 26.9316 -4.15095 -0.288982 0
M  V30 279 H 25.8076 -5.42695 -0.823013 0
M  V30 280 H 26.0686 -4.01945 -1.841 0
M  V30 281 N 25.1277 -0.289203 -1.54924 0
M  V30 282 C 26.0377 0.601863 -2.26748 0
M  V30 283 C 27.0537 1.15834 -1.2984 0
M  V30 284 O 28.2297 1.18564 -1.62802 0
M  V30 285 C 25.2947 1.76299 -2.98529 0
M  V30 286 C 24.3557 1.24178 -4.10948 0
M  V30 287 C 23.5887 2.34757 -4.79296 0
M  V30 288 O 23.8117 3.54411 -4.46933 0
M  V30 289 O 22.7457 2.02115 -5.66951 0
M  V30 290 H 26.5717 0.0195879 -3.03694 0
M  V30 291 H 24.1567 -0.0560868 -1.49295 0
M  V30 292 H 26.0387 2.43973 -3.43592 0
M  V30 293 H 24.7137 2.33209 -2.24488 0
M  V30 294 H 23.6207 0.531104 -3.70311 0
M  V30 295 H 24.9537 0.718252 -4.86931 0
M  V30 296 N 26.6058 1.57591 -0.0167156 0
M  V30 297 C 27.5688 2.08393 0.954204 0
M  V30 298 C 28.5688 0.996531 1.26198 0
M  V30 299 O 29.7588 1.25858 1.20438 0
M  V30 300 C 26.8908 2.5394 2.27436 0
M  V30 301 H 28.0838 2.95455 0.514451 0
M  V30 302 H 25.6368 1.54582 0.231089 0
M  V30 303 H 26.3718 1.70171 2.76066 0
M  V30 304 H 26.1568 3.33371 2.06412 0
M  V30 305 H 27.6468 2.93512 2.97053 0
M  V30 306 N 28.0839 -0.256276 1.55502 0
M  V30 307 C 29.3309 -0.985619 1.76895 0
M  V30 308 C 29.6589 -1.85671 0.579355 0
M  V30 309 O 28.9139 -1.90744 -0.437651 0
M  V30 310 C 29.2129 -1.88432 3.03691 0
M  V30 311 C 28.8789 -1.16936 4.35473 0
M  V30 312 C 27.5409 -0.97173 4.71286 0
M  V30 313 C 29.8929 -0.661889 5.1698 0
M  V30 314 C 27.2209 -0.254179 5.86149 0
M  V30 315 C 29.5729 0.042149 6.32586 0
M  V30 316 C 28.2369 0.25134 6.67027 0
M  V30 317 H 27.5069 -0.360663 0.647304 0
M  V30 318 H 30.1539 -0.256483 1.89775 0
M  V30 319 H 28.4589 -2.68021 2.85783 0
M  V30 320 H 30.1559 -2.45015 3.1744 0
M  V30 321 H 26.7459 -1.33332 4.07333 0
M  V30 322 H 30.9299 -0.802145 4.89775 0
M  V30 323 H 26.1859 -0.0815408 6.11346 0
M  V30 324 H 30.3599 0.443049 6.94989 0
M  V30 325 H 27.9869 0.809314 7.5588 0
M  V30 326 N 29.562 -1.4872 -0.521534 0
M  V30 327 C 30.509 -1.63871 -1.62527 0
M  V30 328 C 31.479 -0.480559 -1.58996 0
M  V30 329 O 32.664 -0.705085 -1.77294 0
M  V30 330 C 29.804 -1.69227 -3.00759 0
M  V30 331 C 28.917 -2.96207 -3.14461 0
M  V30 332 C 28.052 -2.92671 -4.43303 0
M  V30 333 C 27.091 -4.14318 -4.50563 0
M  V30 334 N 26.228 -4.0881 -5.70805 0
M  V30 335 H 31.068 -2.58123 -1.48918 0
M  V30 336 H 28.605 -1.28 -0.724878 0
M  V30 337 H 30.563 -1.70314 -3.80853 0
M  V30 338 H 29.193 -0.784586 -3.1312 0
M  V30 339 H 28.245 -3.04826 -2.27564 0
M  V30 340 H 29.557 -3.86192 -3.15686 0
M  V30 341 H 28.711 -2.92206 -5.31696 0
M  V30 342 H 27.45 -2.00429 -4.44612 0
M  V30 343 H 26.455 -4.15049 -3.60575 0
M  V30 344 H 27.68 -5.07729 -4.50986 0
M  V30 345 H 25.626 -3.19394 -5.72995 0
M  V30 346 H 25.543 -4.92509 -5.7356 0
M  V30 347 H 26.811 -4.12418 -6.61462 0
M  V30 348 N 31.0401 0.771051 -1.3745 0
M  V30 349 C 32.2681 1.56015 -1.35893 0
M  V30 350 C 32.6831 1.88718 0.0555523 0
M  V30 351 O 32.0401 1.51502 1.01752 0
M  V30 352 C 32.0911 2.87001 -2.19801 0
M  V30 353 O 31.8121 2.557 -3.55738 0
M  V30 354 C 33.3131 3.81228 -2.26231 0
M  V30 355 H 30.5331 0.483317 -0.465453 0
M  V30 356 H 33.0771 0.955611 -1.80799 0
M  V30 357 H 31.2321 3.43877 -1.78402 0
M  V30 358 H 31.6461 3.39584 -3.99729 0
M  V30 359 H 33.1201 4.70139 -2.89263 0
M  V30 360 H 33.5971 4.20409 -1.27093 0
M  V30 361 H 34.2031 3.30281 -2.67945 0
M  V30 362 N 32.5182 1.22032 0.997298 0
M  V30 363 C 33.4502 0.944263 2.08845 0
M  V30 364 C 34.4632 -0.0754663 1.62625 0
M  V30 365 O 35.6522 0.157994 1.77799 0
M  V30 366 C 32.7522 0.397723 3.36558 0
M  V30 367 C 31.9252 1.47362 4.11829 0
M  V30 368 C 30.9842 0.934951 5.17827 0
M  V30 369 O 30.0102 1.62016 5.45655 0
M  V30 370 N 31.2122 -0.245895 5.79979 0
M  V30 371 H 33.9772 1.88363 2.33109 0
M  V30 372 H 31.5382 1.12661 1.16272 0
M  V30 373 H 33.5302 0.0227771 4.04694 0
M  V30 374 H 32.1002 -0.446646 3.09393 0
M  V30 375 H 31.3202 2.02208 3.38386 0
M  V30 376 H 32.6082 2.19764 4.58891 0
M  V30 377 H 32.0062 -0.819475 5.59733 0
M  V30 378 H 30.5632 -0.562272 6.4937 0
M  V30 379 N 33.9963 -1.19345 1.0293 0
M  V30 380 C 35.2453 -1.88363 0.721256 0
M  V30 381 C 35.5583 -1.80514 -0.753254 0
M  V30 382 O 36.7643 -2.44788 -1.17436 0
M  V30 383 C 35.2203 -3.37872 1.23978 0
M  V30 384 C 34.8283 -3.54278 2.74211 0
M  V30 385 C 36.5723 -4.12365 1.00775 0
M  V30 386 C 34.4793 -4.97682 3.19479 0
M  V30 387 H 33.4093 -0.705484 0.266098 0
M  V30 388 H 36.0603 -1.34928 1.24365 0
M  V30 389 H 34.4423 -3.90707 0.6453 0
M  V30 390 H 35.6163 -3.11769 3.39318 0
M  V30 391 H 33.9313 -2.93174 2.95699 0
M  V30 392 H 36.5283 -5.18119 1.32123 0
M  V30 393 H 36.8713 -4.16263 -0.0554308 0
M  V30 394 H 37.4043 -3.65668 1.56625 0
M  V30 395 H 34.1433 -4.98945 4.25128 0
M  V30 396 H 33.6633 -5.4095 2.591 0
M  V30 397 H 35.3423 -5.66337 3.12845 0
M  V30 398 N 35.4744 -0.807222 -1.35358 0
M  V30 399 C 36.6994 -0.399309 -2.0352 0
M  V30 400 C 37.1244 0.981986 -1.60433 0
M  V30 401 O 36.4824 1.63601 -0.781299 0
M  V30 402 C 36.5304 -0.491552 -3.57234 0
M  V30 403 O 35.6344 0.494754 -4.09421 0
M  V30 404 H 34.9754 -0.166682 -0.642739 0
M  V30 405 H 37.5054 -1.09328 -1.72941 0
M  V30 406 H 37.5154 -0.361588 -4.06395 0
M  V30 407 H 36.1904 -1.49907 -3.87944 0
M  V30 408 H 34.7674 0.324977 -3.71481 0
M  V30 409 N 36.9525 1.47285 -0.560781 0
M  V30 410 C 37.8995 2.30058 0.18491 0
M  V30 411 C 38.8695 1.39281 0.904986 0
M  V30 412 O 40.0545 1.68241 0.899979 0
M  V30 413 C 37.1945 3.23317 1.20666 0
M  V30 414 C 36.3075 4.29186 0.492285 0
M  V30 415 C 35.4425 5.09592 1.49964 0
M  V30 416 C 34.4815 6.07232 0.770439 0
M  V30 417 N 33.6185 6.80584 1.72479 0
M  V30 418 H 38.4585 2.93302 -0.527048 0
M  V30 419 H 35.9955 1.44568 -0.271738 0
M  V30 420 H 37.9535 3.75811 1.81168 0
M  V30 421 H 36.5835 2.61929 1.88661 0
M  V30 422 H 35.6355 3.7972 -0.227333 0
M  V30 423 H 36.9475 4.98738 -0.0787929 0
M  V30 424 H 36.1015 5.66254 2.17809 0
M  V30 425 H 34.8405 4.3995 2.10464 0
M  V30 426 H 33.8455 5.49745 0.0780846 0
M  V30 427 H 35.0705 6.78884 0.171134 0
M  V30 428 H 33.0165 6.1367 2.3183 0
M  V30 429 H 32.9335 7.46319 1.20596 0
M  V30 430 H 34.2015 7.41818 2.39428 0
M  V30 431 N 38.4306 0.297415 1.54768 0
M  V30 432 C 39.6796 -0.313669 1.99246 0
M  V30 433 C 39.9926 -1.55281 1.18942 0
M  V30 434 O 41.1986 -2.23825 1.5367 0
M  V30 435 C 39.6546 -0.609407 3.54703 0
M  V30 436 C 39.2626 0.611192 4.43811 0
M  V30 437 C 41.0066 -1.18188 4.07715 0
M  V30 438 C 38.9136 0.288805 5.90694 0
M  V30 439 H 37.8436 -0.120979 0.744231 0
M  V30 440 H 40.4946 0.40556 1.78962 0
M  V30 441 H 38.8766 -1.38813 3.70873 0
M  V30 442 H 40.0506 1.3875 4.39414 0
M  V30 443 H 38.3656 1.10205 4.01552 0
M  V30 444 H 40.9626 -1.43727 5.15021 0
M  V30 445 H 41.3056 -2.12299 3.58099 0
M  V30 446 H 41.8386 -0.464944 3.95074 0
M  V30 447 H 38.5776 1.19838 6.44453 0
M  V30 448 H 38.0976 -0.450305 5.98107 0
M  V30 449 H 39.7766 -0.110933 6.46905 0
M  V30 450 N 39.9087 -1.5758 0.0250728 0
M  V30 451 C 41.3247 -1.56124 -0.331282 0
M  V30 452 C 41.5247 -1.03029 -1.73169 0
M  V30 453 O 40.5807 -0.675215 -2.43305 0
M  V30 454 C 41.8937 -3.00139 -0.183584 0
M  V30 455 C 43.4417 -3.11946 -0.256654 0
M  V30 456 C 43.9167 -4.57793 -0.137792 0
M  V30 457 N 45.4077 -4.6279 -0.194904 0
M  V30 458 C 46.1427 -5.7326 -0.126655 0
M  V30 459 N 45.6387 -6.928 -0.00755288 0
M  V30 460 N 47.4317 -5.61811 -0.180348 0
M  V30 461 H 39.5827 -1.90424 0.94087 0
M  V30 462 H 41.8457 -0.875761 0.362968 0
M  V30 463 H 41.5517 -3.4292 0.780927 0
M  V30 464 H 41.4257 -3.64899 -0.955448 0
M  V30 465 H 43.8127 -2.69079 -1.21162 0
M  V30 466 H 43.8937 -2.49915 0.545517 0
M  V30 467 H 43.5377 -5.01339 0.813739 0
M  V30 468 H 43.4677 -5.17798 -0.958775 0
M  V30 469 H 45.9587 -3.76807 -0.287267 0
M  V30 470 H 46.2717 -7.72791 0.0379428 0
M  V30 471 H 44.6167 -6.94995 0.0271731 0
M  V30 472 H 47.8077 -4.6731 -0.271767 0
M  V30 473 H 47.9807 -6.47882 -0.123697 0
M  V30 474 N 41.3868 0.248026 -1.55636 0
M  V30 475 C 42.6148 0.993808 -1.81469 0
M  V30 476 C 43.0298 1.78991 -0.60064 0
M  V30 477 O 42.3868 1.77345 0.430682 0
M  V30 478 C 42.4378 1.93258 -3.05506 0
M  V30 479 O 42.1588 1.16869 -4.22224 0
M  V30 480 C 43.6598 2.79444 -3.4413 0
M  V30 481 H 40.8798 0.292486 -0.603898 0
M  V30 482 H 43.4238 0.271253 -2.02693 0
M  V30 483 H 41.5788 2.60943 -2.86335 0
M  V30 484 H 41.9928 1.80359 -4.92515 0
M  V30 485 H 43.4668 3.41066 -4.34026 0
M  V30 486 H 43.9438 3.50499 -2.64665 0
M  V30 487 H 44.5498 2.17214 -3.65648 0
M  V30 488 N 42.8649 1.48995 0.513639 0
M  V30 489 C 44.1129 1.57531 1.26604 0
M  V30 490 C 44.4339 0.258236 1.93283 0
M  V30 491 O 43.7039 -0.721502 1.8213 0
M  V30 492 H 42.2839 0.580387 0.470276 0
M  V30 493 H 44.9459 1.85552 0.596373 0
M  V30 494 H 44.0419 2.36486 2.03669 0
M  V30 495 N 44.343 -0.763751 1.37857 0
M  V30 496 C 45.759 -1.06542 1.18832 0
M  V30 497 C 45.959 -2.01478 0.0299722 0
M  V30 498 O 45.015 -2.4458 -0.627447 0
M  V30 499 C 46.328 -1.65525 2.51042 0
M  V30 500 C 47.876 -1.77745 2.57635 0
M  V30 501 C 48.351 -2.4014 3.89996 0
M  V30 502 N 49.842 -2.47582 3.91481 0
M  V30 503 C 50.577 -2.96732 4.9065 0
M  V30 504 N 50.073 -3.45993 6.00217 0
M  V30 505 N 51.866 -2.95679 4.78048 0
M  V30 506 H 44.017 -0.133556 2.1198 0
M  V30 507 H 46.28 -0.121879 0.940133 0
M  V30 508 H 45.986 -1.03236 3.36207 0
M  V30 509 H 45.86 -2.64719 2.68707 0
M  V30 510 H 48.247 -2.39164 1.72872 0
M  V30 511 H 48.328 -0.772836 2.43846 0
M  V30 512 H 47.972 -1.79358 4.75177 0
M  V30 513 H 47.902 -3.41223 4.01092 0
M  V30 514 H 50.393 -2.1273 3.12337 0
M  V30 515 H 50.706 -3.81922 6.7183 0
M  V30 516 H 49.051 -3.44077 6.03851 0
M  V30 517 H 52.242 -2.56499 3.91568 0
M  V30 518 H 52.415 -3.33672 5.55488 0
M  V30 519 N 45.8211 -1.22559 -0.990812 0
M  V30 520 C 46.7841 -0.998863 -2.0629 0
M  V30 521 C 47.7841 0.0354834 -1.60761 0
M  V30 522 O 48.9741 -0.203231 -1.7301 0
M  V30 523 C 46.1061 -0.509203 -3.37076 0
M  V30 524 H 47.2991 -1.95014 -2.27837 0
M  V30 525 H 44.8521 -1.04456 -1.16269 0
M  V30 526 H 45.5871 0.446335 -3.21214 0
M  V30 527 H 45.3721 -1.25547 -3.71457 0
M  V30 528 H 46.8621 -0.370888 -4.1595 0
M  V30 529 N 47.2992 1.18797 -1.03562 0
M  V30 530 C 48.5242 1.9314 -0.755764 0
M  V30 531 C 48.9492 1.7537 0.68022 0
M  V30 532 O 48.3072 1.06046 1.47051 0
M  V30 533 C 48.3552 3.42747 -1.12058 0
M  V30 534 O 47.4592 4.11683 -0.243124 0
M  V30 535 H 46.8002 0.602724 -0.278604 0
M  V30 536 H 49.3302 1.50678 -1.3841 0
M  V30 537 H 49.3402 3.93437 -1.08035 0
M  V30 538 H 48.0152 3.55002 -2.16672 0
M  V30 539 H 46.5922 3.71323 -0.342539 0
M  V30 540 N 48.7773 0.814389 1.34928 0
M  V30 541 C 50.1883 0.458364 1.80986 0
M  V30 542 C 50.5393 -1.02042 1.67577 0
M  V30 543 O 49.6643 -1.79352 1.21086 0
M  V30 544 C 50.2593 0.825212 3.28597 0
M  V30 545 C 48.8183 0.521677 3.72767 0
M  V30 546 C 47.9653 1.04668 2.56788 0
M  V30 547 H 50.9163 1.00533 1.22795 0
M  V30 548 H 50.9373 0.12571 3.80292 0
M  V30 549 H 50.4493 1.90154 3.38324 0
M  V30 550 H 48.5503 -0.545589 3.68584 0
M  V30 551 H 48.6633 1.05977 4.67232 0
M  V30 552 H 47.0273 0.468622 2.50352 0
M  V30 553 H 47.8103 2.12927 2.6929 0
M  V30 554 N 50.2554 -1.46986 0.568584 0
M  V30 555 C 51.4804 -2.07335 0.0520528 0
M  V30 556 C 51.9054 -1.41675 -1.23733 0
M  V30 557 O 51.2634 -0.495623 -1.74394 0
M  V30 558 C 51.3114 -3.60417 -0.11501 0
M  V30 559 O 50.4154 -3.95309 -1.17492 0
M  V30 560 H 49.7564 -0.661597 0.0564385 0
M  V30 561 H 52.2864 -1.88837 0.787507 0
M  V30 562 H 52.2964 -4.06698 -0.325644 0
M  V30 563 H 50.9714 -4.07601 0.826675 0
M  V30 564 H 49.5484 -3.60757 -0.943869 0
M  V30 565 N 51.7335 -0.305618 -1.54608 0
M  V30 566 C 52.6635 0.561482 -2.26649 0
M  V30 567 C 53.6445 1.13415 -1.26772 0
M  V30 568 O 54.8295 1.16262 -1.55553 0
M  V30 569 C 51.9595 1.73122 -3.01075 0
M  V30 570 C 50.9135 1.2887 -4.08138 0
M  V30 571 C 50.2395 2.54396 -4.70305 0
M  V30 572 C 51.5395 0.416578 -5.20636 0
M  V30 573 H 53.2335 -0.0393902 -2.99374 0
M  V30 574 H 50.7795 -0.020385 -1.43986 0
M  V30 575 H 52.7325 2.34396 -3.50195 0
M  V30 576 H 51.4565 2.3584 -2.25936 0
M  V30 577 H 50.1155 0.698991 -3.59875 0
M  V30 578 H 49.7635 3.15439 -3.918 0
M  V30 579 H 49.4635 2.25486 -5.42614 0
M  V30 580 H 50.9875 3.16464 -5.2219 0
M  V30 581 H 52.4015 0.935116 -5.65622 0
M  V30 582 H 50.7985 0.221046 -5.99693 0
M  V30 583 H 51.8685 -0.557162 -4.81688 0
M  V30 584 N 53.2116 1.57565 -0.0334293 0
M  V30 585 C 54.1416 2.13511 0.945265 0
M  V30 586 C 55.1226 1.05231 1.33643 0
M  V30 587 O 56.3076 1.33084 1.41429 0
M  V30 588 C 53.4376 2.6657 2.22616 0
M  V30 589 C 52.3916 3.79676 1.97561 0
M  V30 590 C 51.7176 4.1918 3.31952 0
M  V30 591 C 53.0176 5.0557 1.31135 0
M  V30 592 H 54.7116 2.95538 0.479325 0
M  V30 593 H 52.2576 1.42166 0.229115 0
M  V30 594 H 54.2106 3.04344 2.91466 0
M  V30 595 H 52.9346 1.8171 2.71384 0
M  V30 596 H 51.5936 3.42347 1.31127 0
M  V30 597 H 51.2416 3.31296 3.78487 0
M  V30 598 H 50.9416 4.95402 3.15992 0
M  V30 599 H 52.4656 4.59541 4.02063 0
M  V30 600 H 53.8796 5.40903 1.89992 0
M  V30 601 H 52.2766 5.86818 1.25559 0
M  V30 602 H 53.3466 4.84062 0.284894 0
M  V30 603 N 54.6897 -0.239769 1.55765 0
M  V30 604 C 55.9667 -0.990056 1.68693 0
M  V30 605 C 56.3467 -2.03107 0.5754 0
M  V30 606 O 55.6947 -2.24604 -0.42017 0
M  V30 607 C 55.9047 -1.61696 3.09282 0
M  V30 608 C 57.2527 -2.11613 3.6811 0
M  V30 609 O 58.2767 -1.71624 3.12127 0
M  V30 610 O 57.1357 -2.85057 4.66267 0
M  V30 611 H 54.2297 -0.461299 0.686391 0
M  V30 612 H 56.7757 -0.232991 1.68093 0
M  V30 613 H 55.5477 -0.864357 3.81634 0
M  V30 614 H 55.1707 -2.44005 3.13923 0
M  V30 615 N 56.1678 -1.49265 -0.50573 0
M  V30 616 C 57.4158 -1.582 -1.25766 0
M  V30 617 C 57.7368 -0.268482 -1.93143 0
M  V30 618 O 57.0068 0.711833 -1.8251 0
M  V30 619 H 55.5868 -0.582873 -0.467191 0
M  V30 620 H 58.2488 -1.85865 -0.586525 0
M  V30 621 H 57.3448 -2.37563 -2.02412 0
M  V30 622 N 57.6459 0.756429 -1.3826 0
M  V30 623 C 58.8949 1.51082 -1.3363 0
M  V30 624 C 59.2079 1.95467 0.0720068 0
M  V30 625 O 60.4139 2.7043 0.240834 0
M  V30 626 C 58.8699 2.72893 -2.34644 0
M  V30 627 C 58.4779 2.35544 -3.81081 0
M  V30 628 C 60.2219 3.50791 -2.39052 0
M  V30 629 C 58.1289 3.53948 -4.73787 0
M  V30 630 H 57.0589 0.56727 -0.49671 0
M  V30 631 H 59.7099 0.827147 -1.638 0
M  V30 632 H 58.0919 3.43227 -1.97513 0
M  V30 633 H 59.2659 1.72894 -4.27135 0
M  V30 634 H 57.5809 1.70786 -3.79764 0
M  V30 635 H 60.1779 4.38823 -3.05513 0
M  V30 636 H 60.5209 3.91745 -1.40861 0
M  V30 637 H 61.0539 2.87467 -2.74968 0
M  V30 638 H 57.7929 3.18064 -5.73163 0
M  V30 639 H 57.3129 4.15651 -4.32428 0
M  V30 640 H 58.9919 4.20566 -4.91663 0
M  V30 641 N 59.124 1.23083 0.984299 0
M  V30 642 C 60.37 1.06214 1.72761 0
M  V30 643 C 60.703 -0.400584 1.90024 0
M  V30 644 O 59.978 -1.29672 1.44967 0
M  V30 645 C 60.261 1.78375 3.12817 0
M  V30 646 C 60.114 3.32296 3.03149 0
M  V30 647 C 61.433 1.54309 4.12161 0
M  V30 648 H 58.552 0.387251 0.627061 0
M  V30 649 H 61.194 1.51536 1.14616 0
M  V30 650 H 59.344 1.39848 3.62457 0
M  V30 651 H 61.016 3.8032 2.61064 0
M  V30 652 H 59.259 3.6153 2.39747 0
M  V30 653 H 59.93 3.77972 4.02295 0
M  V30 654 H 62.406 1.87791 3.71314 0
M  V30 655 H 61.282 2.07281 5.08258 0
M  V30 656 H 61.543 0.477572 4.39513 0
M  V30 657 N 60.6021 -1.18246 1.0419 0
M  V30 658 C 61.8481 -1.88536 0.747122 0
M  V30 659 C 62.1811 -1.80223 -0.723409 0
M  V30 660 O 61.4561 -1.20337 -1.52804 0
M  V30 661 C 61.7391 -3.38968 1.21544 0
M  V30 662 C 61.5921 -3.56084 2.74816 0
M  V30 663 C 62.9111 -4.32648 0.806482 0
M  V30 664 H 60.0301 -0.684619 0.272883 0
M  V30 665 H 62.6721 -1.39113 1.29413 0
M  V30 666 H 60.8221 -3.8119 0.750081 0
M  V30 667 H 62.4941 -3.22946 3.29399 0
M  V30 668 H 60.7371 -2.98699 3.14582 0
M  V30 669 H 61.4081 -4.61639 3.02644 0
M  V30 670 H 63.8841 -3.98211 1.20695 0
M  V30 671 H 62.7601 -5.36462 1.1619 0
M  V30 672 H 63.0211 -4.41146 -0.29029 0
M  V30 673 N 62.0802 -0.821533 -1.34494 0
M  V30 674 C 62.9902 -0.244355 -2.33324 0
M  V30 675 C 64.0062 0.620527 -1.62559 0
M  V30 676 O 65.1822 0.528754 -1.94335 0
M  V30 677 C 62.2472 0.585368 -3.41723 0
M  V30 678 C 61.3082 -0.301752 -4.28238 0
M  V30 679 C 60.5412 0.488466 -5.3146 0
M  V30 680 O 60.7642 1.72186 -5.4379 0
M  V30 681 O 59.6982 -0.12848 -6.01763 0
M  V30 682 H 63.5242 -1.06231 -2.84515 0
M  V30 683 H 61.1092 -0.583645 -1.37528 0
M  V30 684 H 62.9912 1.05747 -4.07916 0
M  V30 685 H 61.6662 1.38068 -2.92778 0
M  V30 686 H 60.5732 -0.821315 -3.64973 0
M  V30 687 H 61.9062 -1.06138 -4.8062 0
M  V30 688 N 63.5583 1.46682 -0.576371 0
M  V30 689 C 64.7883 2.06498 -0.0648694 0
M  V30 690 C 65.1963 1.42665 1.24271 0
M  V30 691 O 64.5393 0.523886 1.76071 0
M  V30 692 C 64.6013 3.5904 0.181816 0
M  V30 693 C 64.2653 4.45028 -1.0392 0
M  V30 694 C 65.2623 4.81959 -1.94966 0
M  V30 695 C 62.9473 4.86259 -1.25927 0
M  V30 696 C 64.9413 5.58942 -3.06371 0
M  V30 697 C 62.6283 5.63002 -2.37638 0
M  V30 698 C 63.6263 5.99257 -3.2769 0
M  V30 699 O 63.3143 6.7445 -4.37461 0
M  V30 700 H 63.0463 0.674028 -0.0515987 0
M  V30 701 H 65.6003 1.89393 -0.794951 0
M  V30 702 H 63.8303 3.74429 0.966436 0
M  V30 703 H 65.5193 4.00806 0.641047 0
M  V30 704 H 66.2853 4.50689 -1.79177 0
M  V30 705 H 62.1643 4.57494 -0.567448 0
M  V30 706 H 65.7083 5.87158 -3.76684 0
M  V30 707 H 61.6053 5.93686 -2.53392 0
M  V30 708 H 62.3733 6.92867 -4.35749 0
M  V30 709 N 65.0364 0.313813 1.54444 0
M  V30 710 C 66.2664 -0.293491 2.04505 0
M  V30 711 C 66.6744 -1.47086 1.19005 0
M  V30 712 O 66.0174 -1.82481 0.211257 0
M  V30 713 C 66.0794 -0.800455 3.50475 0
M  V30 714 C 65.7434 0.253322 4.56297 0
M  V30 715 C 66.7404 1.08612 5.08428 0
M  V30 716 C 64.4254 0.398708 5.00715 0
M  V30 717 C 66.4194 2.05013 6.0353 0
M  V30 718 C 64.1064 1.36614 5.95634 0
M  V30 719 C 65.1044 2.19033 6.46926 0
M  V30 720 O 64.7924 3.14134 7.39983 0
M  V30 721 H 64.5244 -0.0658325 0.672787 0
M  V30 722 H 67.0784 0.455177 2.00293 0
M  V30 723 H 65.3084 -1.59987 3.52053 0
M  V30 724 H 66.9974 -1.32504 3.83663 0
M  V30 725 H 67.7634 0.984736 4.74898 0
M  V30 726 H 63.6424 -0.23289 4.60411 0
M  V30 727 H 67.1864 2.69382 6.4349 0
M  V30 728 H 63.0834 1.4682 6.28581 0
M  V30 729 H 63.8514 3.0926 7.57826 0
M  V30 730 N 66.5145 -1.57545 0.0417849 0
M  V30 731 C 67.7625 -1.91937 -0.632829 0
M  V30 732 C 68.0835 -0.919978 -1.71934 0
M  V30 733 O 67.3535 0.0366064 -1.95866 0
M  V30 734 H 65.9335 -0.708493 -0.236742 0
M  V30 735 H 68.5955 -1.9468 0.0925745 0
M  V30 736 H 67.6915 -2.92912 -1.07746 0
M  V30 737 N 67.9926 0.231505 -1.5589 0
M  V30 738 C 69.2206 0.974505 -1.82513 0
M  V30 739 C 69.6356 1.78344 -0.619591 0
M  V30 740 O 68.9926 1.77792 0.411848 0
M  V30 741 C 69.0436 1.90007 -3.07538 0
M  V30 742 O 68.7646 1.12385 -4.2344 0
M  V30 743 C 70.2656 2.75779 -3.47075 0
M  V30 744 H 67.4856 0.286065 -0.606966 0
M  V30 745 H 70.0296 0.249739 -2.02969 0
M  V30 746 H 68.1846 2.57891 -2.89086 0
M  V30 747 H 68.5986 1.75125 -4.944 0
M  V30 748 H 70.0726 3.36443 -4.37619 0
M  V30 749 H 70.5496 3.47672 -2.68367 0
M  V30 750 H 71.1556 2.13323 -3.67931 0
M  V30 751 N 69.4707 1.49531 0.497807 0
M  V30 752 C 70.8817 1.52344 1.07927 0
M  V30 753 C 71.2327 0.311469 1.93712 0
M  V30 754 O 70.3577 -0.578405 2.08527 0
M  V30 755 C 70.9527 2.76062 1.96405 0
M  V30 756 C 69.5117 2.81643 2.49709 0
M  V30 757 C 68.6587 2.46299 1.27404 0
M  V30 758 H 71.6097 1.56182 0.281576 0
M  V30 759 H 71.6307 2.56405 2.81135 0
M  V30 760 H 71.1427 3.64254 1.33943 0
M  V30 761 H 69.2437 1.97739 3.15801 0
M  V30 762 H 69.3567 3.83891 2.86643 0
M  V30 763 H 67.7207 1.98148 1.60029 0
M  V30 764 H 68.5037 3.36769 0.66645 0
M  V30 765 N 70.9488 -0.749086 1.3866 0
M  V30 766 C 72.1768 -1.53834 1.38358 0
M  V30 767 C 72.5918 -1.88783 -0.0255219 0
M  V30 768 O 71.9488 -1.53101 -0.993292 0
M  V30 769 C 71.9998 -2.83468 2.2434 0
M  V30 770 O 71.7208 -2.50008 3.5976 0
M  V30 771 C 73.2218 -3.7758 2.32267 0
M  V30 772 H 70.4418 -0.47585 0.473083 0
M  V30 773 H 72.9858 -0.926726 1.82297 0
M  V30 774 H 71.1408 -3.40995 1.83851 0
M  V30 775 H 71.5548 -3.33182 4.05081 0
M  V30 776 H 73.0288 -4.65478 2.96706 0
M  V30 777 H 73.5058 -4.18334 1.33765 0
M  V30 778 H 74.1118 -3.25976 2.73166 0
M  V30 779 N 72.4269 -1.23603 -0.977757 0
M  V30 780 C 73.8379 -1.06424 -1.53398 0
M  V30 781 C 74.1889 0.367578 -1.92726 0
M  V30 782 O 73.3139 1.25465 -1.76316 0
M  V30 783 C 73.9089 -1.92568 -2.78753 0
M  V30 784 C 72.4679 -1.79642 -3.30765 0
M  V30 785 C 71.6149 -1.88111 -2.03739 0
M  V30 786 H 74.5659 -1.37227 -0.797152 0
M  V30 787 H 74.5869 -1.45203 -3.51705 0
M  V30 788 H 74.0989 -2.96771 -2.50098 0
M  V30 789 H 72.1999 -0.782325 -3.64294 0
M  V30 790 H 72.3129 -2.63174 -4.00345 0
M  V30 791 H 70.6769 -1.31723 -2.17994 0
M  V30 792 H 71.4599 -2.93875 -1.77461 0
M  V30 793 N 73.905 1.17692 -1.04816 0
M  V30 794 C 74.835 2.23777 -0.666791 0
M  V30 795 C 75.816 1.66796 0.33361 0
M  V30 796 O 77.001 1.93039 0.212042 0
M  V30 797 C 74.131 3.47281 -0.0367933 0
M  V30 798 C 73.085 4.17059 -0.961546 0
M  V30 799 C 72.411 5.34342 -0.195626 0
M  V30 800 C 73.711 4.69713 -2.28402 0
M  V30 801 H 75.405 2.55933 -1.55367 0
M  V30 802 H 72.951 1.23019 -0.748484 0
M  V30 803 H 74.904 4.20706 0.241775 0
M  V30 804 H 73.628 3.14381 0.885004 0
M  V30 805 H 72.287 3.45541 -1.22462 0
M  V30 806 H 71.935 4.97692 0.728816 0
M  V30 807 H 71.635 5.81966 -0.811775 0
M  V30 808 H 73.159 6.10553 0.0757473 0
M  V30 809 H 74.573 5.34794 -2.06563 0
M  V30 810 H 72.97 5.279 -2.8538 0
M  V30 811 H 74.04 3.86726 -2.92525 0
M  V30 812 N 75.3831 0.828654 1.34056 0
M  V30 813 C 76.7991 0.515135 1.51058 0
M  V30 814 C 76.9991 -0.959581 1.77184 0
M  V30 815 O 76.0551 -1.74382 1.82612 0
M  V30 816 C 77.3681 1.37963 2.67183 0
M  V30 817 C 78.9161 1.37735 2.81066 0
M  V30 818 C 79.3911 2.22645 4.00241 0
M  V30 819 N 80.8821 2.203 4.07458 0
M  V30 820 C 81.6171 2.82744 4.98842 0
M  V30 821 N 81.1131 3.54201 5.9541 0
M  V30 822 N 82.9061 2.72268 4.91759 0
M  V30 823 H 75.0571 1.78343 1.15358 0
M  V30 824 H 77.3201 0.760304 0.566252 0
M  V30 825 H 77.0261 2.42714 2.54525 0
M  V30 826 H 76.9001 1.0484 3.62338 0
M  V30 827 H 79.2871 0.337593 2.93163 0
M  V30 828 H 79.3681 1.74859 1.86703 0
M  V30 829 H 79.0121 3.26674 3.88905 0
M  V30 830 H 78.9421 1.82869 4.93829 0
M  V30 831 H 81.4331 1.68327 3.38341 0
M  V30 832 H 81.7461 3.9908 6.61782 0
M  V30 833 H 80.0911 3.58308 5.95517 0
M  V30 834 H 83.2821 2.16014 4.15278 0
M  V30 835 H 83.4551 3.21219 5.62781 0
M  V30 836 N 76.8612 -1.46375 0.584142 0
M  V30 837 C 77.7932 -2.28443 -0.186119 0
M  V30 838 C 78.8062 -1.38596 -0.854115 0
M  V30 839 O 79.9952 -1.63183 -0.723438 0
M  V30 840 C 77.0952 -3.13671 -1.28311 0
M  V30 841 C 76.2682 -4.31652 -0.706758 0
M  V30 842 C 75.3272 -4.98267 -1.69163 0
M  V30 843 O 74.3532 -5.55815 -1.22712 0
M  V30 844 N 75.5552 -4.95408 -3.02575 0
M  V30 845 H 78.3202 -2.9519 0.517986 0
M  V30 846 H 75.8812 -1.56303 0.42201 0
M  V30 847 H 77.8732 -3.55101 -1.94128 0
M  V30 848 H 76.4432 -2.48989 -1.89005 0
M  V30 849 H 75.6632 -3.93989 0.128908 0
M  V30 850 H 76.9512 -5.07906 -0.301506 0
M  V30 851 H 76.3492 -4.49902 -3.42936 0
M  V30 852 H 74.9062 -5.40774 -3.63877 0
M  V30 853 N 78.3393 -0.321999 -1.54275 0
M  V30 854 C 79.2693 0.537411 -2.27231 0
M  V30 855 C 80.2503 1.12064 -1.27968 0
M  V30 856 O 81.4353 1.14606 -1.56777 0
M  V30 857 C 78.5653 1.69919 -3.02894 0
M  V30 858 C 77.5193 1.24534 -4.09482 0
M  V30 859 C 76.8453 2.49394 -4.72977 0
M  V30 860 C 78.1453 0.361335 -5.21049 0
M  V30 861 H 79.8393 -0.0711406 -2.99315 0
M  V30 862 H 77.3853 -0.0356555 -1.43956 0
M  V30 863 H 79.3383 2.30668 -3.52662 0
M  V30 864 H 78.0623 2.33431 -2.28424 0
M  V30 865 H 76.7213 0.660782 -3.60596 0
M  V30 866 H 76.3693 3.11265 -3.95124 0
M  V30 867 H 76.0693 2.19718 -5.44975 0
M  V30 868 H 77.5933 3.10908 -5.25517 0
M  V30 869 H 79.0073 0.875072 -5.66582 0
M  V30 870 H 77.4043 0.157428 -5.99893 0
M  V30 871 H 78.4743 -0.60822 -4.8107 0
M  V30 872 N 79.8174 1.5752 -0.0501392 0
M  V30 873 C 80.7804 2.1037 0.909786 0
M  V30 874 C 81.7804 1.02308 1.24056 0
M  V30 875 O 82.9704 1.28385 1.17741 0
M  V30 876 C 80.1024 2.58708 2.21998 0
M  V30 877 H 81.2954 2.96479 0.451665 0
M  V30 878 H 78.8484 1.55038 0.198248 0
M  V30 879 H 79.5834 1.75989 2.72394 0
M  V30 880 H 79.3684 3.37675 1.99295 0
M  V30 881 H 80.8584 2.99747 2.9076 0
M  V30 882 N 81.2955 -0.223234 1.56011 0
M  V30 883 C 82.5205 -0.968978 1.83373 0
M  V30 884 C 82.9455 -1.77227 0.630254 0
M  V30 885 O 82.3035 -1.76345 -0.420959 0
M  V30 886 C 82.3515 -1.86363 3.08709 0
M  V30 887 O 81.4555 -2.95873 2.87285 0
M  V30 888 H 80.7965 -0.274461 0.604622 0
M  V30 889 H 83.3265 -0.237056 2.03222 0
M  V30 890 H 83.3365 -2.27376 3.38768 0
M  V30 891 H 82.0115 -1.27319 3.95933 0
M  V30 892 H 80.5885 -2.58818 2.68454 0
M  V30 893 N 82.7736 -1.49793 -0.48987 0
M  V30 894 C 84.0196 -1.60078 -1.24511 0
M  V30 895 C 84.3526 -0.291608 -1.91998 0
M  V30 896 O 83.6276 0.705647 -1.81248 0
M  V30 897 C 83.9106 -2.76791 -2.30345 0
M  V30 898 C 83.7636 -4.17535 -1.67286 0
M  V30 899 C 85.0826 -2.89111 -3.31817 0
M  V30 900 H 82.2016 -0.582645 -0.451324 0
M  V30 901 H 84.8436 -1.82117 -0.541612 0
M  V30 902 H 82.9936 -2.5813 -2.90346 0
M  V30 903 H 84.6656 -4.4774 -1.11026 0
M  V30 904 H 82.9086 -4.22665 -0.976577 0
M  V30 905 H 83.5796 -4.95094 -2.44103 0
M  V30 906 H 86.0556 -3.06133 -2.81819 0
M  V30 907 H 84.9316 -3.72433 -4.03219 0
M  V30 908 H 85.1926 -1.9893 -3.94815 0
M  V30 909 N 84.2517 0.741722 -1.39055 0
M  V30 910 C 85.4797 1.53098 -1.39171 0
M  V30 911 C 85.8947 1.88794 0.0155099 0
M  V30 912 O 85.2517 1.53626 0.985159 0
M  V30 913 C 85.3027 2.82274 -2.2584 0
M  V30 914 O 85.0237 2.48097 -3.61081 0
M  V30 915 C 86.5247 3.76343 -2.34266 0
M  V30 916 H 83.7447 0.473335 -0.4756 0
M  V30 917 H 86.2887 0.917045 -1.82785 0
M  V30 918 H 84.4437 3.40015 -1.85656 0
M  V30 919 H 84.8577 3.31029 -4.06842 0
M  V30 920 H 86.3317 4.63898 -2.9917 0
M  V30 921 H 86.8087 4.17619 -1.35982 0
M  V30 922 H 87.4147 3.24523 -2.74891 0
M  V30 923 N 85.7298 1.2412 0.971189 0
M  V30 924 C 86.9758 1.08041 1.71625 0
M  V30 925 C 87.3088 -0.380407 1.90438 0
M  V30 926 O 86.5838 -1.28127 1.46334 0
M  V30 927 C 86.8668 1.81682 3.10908 0
M  V30 928 C 86.7198 3.35493 2.99608 0
M  V30 929 C 88.0388 1.58671 4.10501 0
M  V30 930 H 85.1578 0.39388 0.622919 0
M  V30 931 H 87.7998 1.52743 1.13003 0
M  V30 932 H 85.9498 1.43684 3.60953 0
M  V30 933 H 87.6218 3.83068 2.57015 0
M  V30 934 H 85.8648 3.64052 2.35899 0
M  V30 935 H 86.5358 3.82217 3.98264 0
M  V30 936 H 89.0118 1.91719 3.69301 0
M  V30 937 H 87.8878 2.1266 5.06031 0
M  V30 938 H 88.1488 0.524161 4.38982 0
M  V30 939 N 87.2079 -1.17134 1.05439 0
M  V30 940 C 88.1179 -2.24878 0.668365 0
M  V30 941 C 89.1339 -1.71186 -0.311687 0
M  V30 942 O 90.3099 -2.00738 -0.163161 0
M  V30 943 C 87.3749 -3.46662 0.051648 0
M  V30 944 C 86.4359 -4.15429 1.08246 0
M  V30 945 C 85.6689 -5.31399 0.495082 0
M  V30 946 O 85.8919 -5.66153 -0.694743 0
M  V30 947 O 84.8259 -5.89187 1.23056 0
M  V30 948 H 88.6519 -2.60189 1.56637 0
M  V30 949 H 86.2369 -1.24482 0.826104 0
M  V30 950 H 88.1189 -4.20394 -0.290966 0
M  V30 951 H 86.7939 -3.13142 -0.819971 0
M  V30 952 H 85.7009 -3.43704 1.47711 0
M  V30 953 H 87.0339 -4.52982 1.92532 0
M  V30 954 N 88.686 -0.835752 -1.33615 0
M  V30 955 C 89.963 -0.352017 -1.92406 0
M  V30 956 C 90.343 1.16225 -1.76224 0
M  V30 957 O 89.691 1.97526 -1.14873 0
M  V30 958 C 89.901 -0.795485 -3.39813 0
M  V30 959 C 91.249 -0.801703 -4.16963 0
M  V30 960 O 92.273 -0.738889 -3.48452 0
M  V30 961 O 91.132 -0.886607 -5.3926 0
M  V30 962 H 88.226 -0.0989641 -0.821057 0
M  V30 963 H 90.772 -0.921397 -1.42507 0
M  V30 964 H 89.544 -1.83795 -3.45449 0
M  V30 965 H 89.167 -0.202505 -3.97084 0
M  V30 966 N 90.1641 1.46063 -0.591896 0
M  V30 967 C 91.3891 2.07226 -0.0850314 0
M  V30 968 C 91.8141 1.43625 1.21463 0
M  V30 969 O 91.1721 0.523305 1.73583 0
M  V30 970 C 91.2201 3.60554 0.0576567 0
M  V30 971 O 90.3241 3.97128 1.11188 0
M  V30 972 H 89.6651 0.660615 -0.0669568 0
M  V30 973 H 92.1951 1.8756 -0.81745 0
M  V30 974 H 92.2051 4.07165 0.2609 0
M  V30 975 H 90.8801 4.06235 -0.891416 0
M  V30 976 H 89.4571 3.62213 0.886356 0
M  V30 977 N 91.6422 0.330177 1.54103 0
M  V30 978 C 93.0582 -0.0222371 1.59585 0
M  V30 979 C 93.2582 -1.49902 1.34654 0
M  V30 980 O 92.3142 -2.25592 1.13421 0
M  V30 981 C 93.6272 0.401932 2.98002 0
M  V30 982 C 95.1752 0.353145 3.11001 0
M  V30 983 C 95.6502 0.752576 4.51775 0
M  V30 984 N 97.1412 0.706239 4.57784 0
M  V30 985 C 97.8762 0.987417 5.64834 0
M  V30 986 N 97.3722 1.33607 6.79795 0
M  V30 987 N 99.1652 0.91254 5.54643 0
M  V30 988 H 91.3162 1.29228 1.68564 0
M  V30 989 H 93.5792 0.525906 0.78875 0
M  V30 990 H 93.2852 1.4311 3.21267 0
M  V30 991 H 93.1592 -0.229699 3.765 0
M  V30 992 H 95.5462 -0.666822 2.87467 0
M  V30 993 H 95.6272 1.0198 2.34593 0
M  V30 994 H 95.2712 1.77049 4.76042 0
M  V30 995 H 95.2012 0.0635409 5.26562 0
M  V30 996 H 97.6922 0.44889 3.75224 0
M  V30 997 H 98.0052 1.53582 7.57385 0
M  V30 998 H 96.3502 1.37439 6.81275 0
M  V30 999 H 99.5412 0.639601 4.6371 0
M  V30 1000 H 99.7142 1.13503 6.37982 0
M  V30 1001 N 93.1203 -1.57491 0.0584922 0
M  V30 1002 C 94.3483 -1.97296 -0.623037 0
M  V30 1003 C 94.7633 -0.936338 -1.63946 0
M  V30 1004 O 94.1203 0.0785981 -1.82331 0
M  V30 1005 C 94.1713 -3.37183 -1.30345 0
M  V30 1006 O 93.8923 -4.36872 -0.32773 0
M  V30 1007 C 95.3933 -3.91788 -2.07406 0
M  V30 1008 H 92.6133 -0.649153 -0.169826 0
M  V30 1009 H 95.1573 -2.04106 0.12696 0
M  V30 1010 H 93.3123 -3.31502 -2.00463 0
M  V30 1011 H 93.7263 -5.18141 -0.814269 0
M  V30 1012 H 95.2003 -4.91926 -2.50425 0
M  V30 1013 H 95.6773 -3.27609 -2.92521 0
M  V30 1014 H 96.2833 -4.00829 -1.42184 0
M  V30 1015 N 94.5984 0.214957 -1.56127 0
M  V30 1016 C 95.5284 1.2695 -1.95974 0
M  V30 1017 C 96.5094 1.48539 -0.828868 0
M  V30 1018 O 97.6944 1.60611 -1.09168 0
M  V30 1019 C 94.8244 2.61794 -2.28214 0
M  V30 1020 C 93.7784 2.54851 -3.43853 0
M  V30 1021 C 93.1044 3.93785 -3.61715 0
M  V30 1022 C 94.4044 2.09065 -4.78632 0
M  V30 1023 H 96.0984 0.93846 -2.84312 0
M  V30 1024 H 93.6444 0.449996 -1.36788 0
M  V30 1025 H 95.5974 3.35731 -2.54682 0
M  V30 1026 H 94.3214 2.96599 -1.36736 0
M  V30 1027 H 92.9804 1.8337 -3.17444 0
M  V30 1028 H 92.6284 4.25908 -2.67602 0
M  V30 1029 H 92.3284 3.90019 -4.39498 0
M  V30 1030 H 93.8524 4.69374 -3.90539 0
M  V30 1031 H 95.2664 2.7275 -5.04262 0
M  V30 1032 H 93.6634 2.16346 -5.59745 0
M  V30 1033 H 94.7334 1.04315 -4.73547 0
M  V30 1034 N 96.0765 1.50051 0.48192 0
M  V30 1035 C 97.0235 1.68122 1.58125 0
M  V30 1036 C 97.9935 0.522545 1.57666 0
M  V30 1037 O 99.1785 0.751844 1.75362 0
M  V30 1038 C 96.3185 1.77142 2.96167 0
M  V30 1039 C 95.4315 3.0444 3.06497 0
M  V30 1040 C 94.5665 3.04321 4.35387 0
M  V30 1041 C 93.6055 4.26118 4.3942 0
M  V30 1042 N 92.7425 4.238 5.59766 0
M  V30 1043 H 97.5825 2.6198 1.42022 0
M  V30 1044 H 95.1195 1.29877 0.690687 0
M  V30 1045 H 97.0775 1.80352 3.76203 0
M  V30 1046 H 95.7075 0.867329 3.1093 0
M  V30 1047 H 94.7595 3.10752 2.19402 0
M  V30 1048 H 96.0715 3.94426 3.05336 0
M  V30 1049 H 95.2255 3.062 5.23762 0
M  V30 1050 H 93.9645 2.12147 4.39141 0
M  V30 1051 H 92.9695 4.24463 3.49444 0
M  V30 1052 H 94.1945 5.19507 4.37366 0
M  V30 1053 H 92.1405 3.34474 5.64326 0
M  V30 1054 H 92.0575 5.07542 5.60301 0
M  V30 1055 H 93.3255 4.2981 6.50295 0
M  V30 1056 N 97.5546 -0.734337 1.39446 0
M  V30 1057 C 98.8036 -1.48937 1.36017 0
M  V30 1058 C 99.1166 -1.95557 -0.0409005 0
M  V30 1059 O 100.323 -2.70779 -0.19778 0
M  V30 1060 C 98.7786 -2.69125 2.38955 0
M  V30 1061 C 98.3866 -2.29452 3.8478 0
M  V30 1062 C 100.131 -3.46944 2.44603 0
M  V30 1063 C 98.0376 -3.46366 4.79358 0
M  V30 1064 H 96.9676 -0.559296 0.505672 0
M  V30 1065 H 99.6186 -0.800983 1.65095 0
M  V30 1066 H 98.0006 -3.40041 2.02948 0
M  V30 1067 H 99.1746 -1.66077 4.29831 0
M  V30 1068 H 97.4896 -1.64723 3.82433 0
M  V30 1069 H 100.087 -4.33907 3.12456 0
M  V30 1070 H 100.43 -3.89454 1.47076 0
M  V30 1071 H 100.963 -2.83056 2.79507 0
M  V30 1072 H 97.7016 -3.08905 5.78151 0
M  V30 1073 H 97.2216 -4.08719 4.38986 0
M  V30 1074 H 98.9006 -4.12691 4.98292 0
M  V30 1075 N 99.0327 -1.24633 -0.964593 0
M  V30 1076 C 99.9807 -1.03917 -2.08096 0
M  V30 1077 C 100.975 0.0268581 -1.69379 0
M  V30 1078 O 102.181 -0.127952 -1.79545 0
M  V30 1079 H 98.5557 -0.319044 -0.680966 0
M  V30 1080 H 100.527 -1.98581 -2.22729 0
M  V30 1081 C 99.2757 -0.663983 -3.41301 0
M  V30 1082 H 98.5987 -1.47605 -3.71555 0
M  V30 1083 H 100.039 -0.558663 -4.20303 0
M  V30 1084 C 98.4977 0.629169 -3.30973 0
M  V30 1085 O 99.0277 1.67404 -3.65156 0
M  V30 1086 N 97.2337 0.611057 -2.84103 0
M  V30 1087 H 96.7807 -0.239593 -2.56483 0
M  V30 1088 H 96.7387 1.47647 -2.77575 0
M  V30 1089 N 100.511 1.16574 -1.06058 0
M  V30 1090 C 101.757 1.87324 -0.777022 0
M  V30 1091 C 102.09 1.81351 0.694645 0
M  V30 1092 O 101.365 1.22753 1.50871 0
M  V30 1093 C 101.648 3.36991 -1.26922 0
M  V30 1094 C 101.501 3.51667 -2.80447 0
M  V30 1095 C 102.82 4.3131 -0.87521 0
M  V30 1096 H 99.9388 0.680191 -0.28374 0
M  V30 1097 H 102.581 1.37036 -1.3161 0
M  V30 1098 H 100.731 3.79949 -0.81063 0
M  V30 1099 H 102.403 3.17664 -3.34495 0
M  V30 1100 H 100.646 2.93656 -3.19294 0
M  V30 1101 H 101.317 4.56766 -3.0995 0
M  V30 1102 H 103.793 3.9624 -1.27014 0
M  V30 1103 H 102.669 5.34545 -1.2471 0
M  V30 1104 H 102.93 4.41552 0.220071 0
M  V30 1105 N 101.989 0.842826 1.3317 0
M  V30 1106 C 103.236 0.440447 1.97652 0
M  V30 1107 C 103.564 -1.00123 1.6675 0
M  V30 1108 O 102.819 -1.7155 0.941761 0
M  V30 1109 C 103.118 0.612607 3.52111 0
M  V30 1110 C 102.784 2.02297 4.02972 0
M  V30 1111 C 101.446 2.40874 4.16573 0
M  V30 1112 C 103.798 2.94402 4.30089 0
M  V30 1113 C 101.126 3.70852 4.54627 0
M  V30 1114 C 103.478 4.23865 4.69597 0
M  V30 1115 C 102.142 4.62392 4.81404 0
M  V30 1116 H 101.412 0.161171 0.72326 0
M  V30 1117 H 104.059 1.07061 1.58777 0
M  V30 1118 H 102.364 -0.100849 3.9167 0
M  V30 1119 H 104.061 0.2815 4.00011 0
M  V30 1120 H 100.651 1.71338 3.92863 0
M  V30 1121 H 104.835 2.65835 4.19101 0
M  V30 1122 H 100.091 4.00501 4.61962 0
M  V30 1123 H 104.265 4.95306 4.89536 0
M  V30 1124 H 101.892 5.63154 5.10648 0
M  V30 1125 N 103.467 -1.45747 0.599634 0
M  V30 1126 C 104.744 -1.95585 0.0240846 0
M  V30 1127 C 105.124 -1.54217 -1.44154 0
M  V30 1128 O 104.472 -0.800903 -2.14004 0
M  V30 1129 C 104.682 -3.48344 0.21385 0
M  V30 1130 C 106.03 -4.24504 0.0904902 0
M  V30 1131 O 107.054 -3.55911 0.143558 0
M  V30 1132 O 105.913 -5.46491 -0.0310766 0
M  V30 1133 H 103.007 -0.82602 -0.0402478 0
M  V30 1134 H 105.553 -1.55951 0.669139 0
M  V30 1135 H 104.325 -3.71397 1.23206 0
M  V30 1136 H 103.948 -3.9485 -0.466842 0
M  V30 1137 N 104.945 -0.338344 -1.53925 0
M  V30 1138 C 106.361 0.0137736 -1.59594 0
M  V30 1139 C 106.561 1.49186 -1.35447 0
M  V30 1140 O 105.617 2.24987 -1.14616 0
M  V30 1141 C 106.93 -0.41773 -2.97784 0
M  V30 1142 C 108.478 -0.369633 -3.1081 0
M  V30 1143 C 108.953 -0.776524 -4.51369 0
M  V30 1144 N 110.444 -0.730506 -4.57403 0
M  V30 1145 C 111.179 -1.01736 -5.64303 0
M  V30 1146 N 110.675 -1.3721 -6.79077 0
M  V30 1147 N 112.468 -0.941942 -5.54151 0
M  V30 1148 H 104.619 -1.3012 -1.67876 0
M  V30 1149 H 106.882 -0.530082 -0.78595 0
M  V30 1150 H 106.588 -1.44811 -3.20504 0
M  V30 1151 H 106.462 0.209729 -3.76616 0
M  V30 1152 H 108.849 0.651568 -2.87817 0
M  V30 1153 H 108.93 -1.03223 -2.34049 0
M  V30 1154 H 108.574 -1.79571 -4.75096 0
M  V30 1155 H 108.504 -0.0914649 -5.26521 0
M  V30 1156 H 110.995 -0.468783 -3.74981 0
M  V30 1157 H 111.308 -1.57597 -7.5656 0
M  V30 1158 H 109.653 -1.4105 -6.80536 0
M  V30 1159 H 112.844 -0.664184 -4.63364 0
M  V30 1160 H 113.017 -1.16884 -6.37371 0
M  V30 1161 N 106.423 1.57458 -0.0668435 0
M  V30 1162 C 107.648 1.9804 0.616027 0
M  V30 1163 C 108.073 0.944771 1.62652 0
M  V30 1164 O 107.431 -0.0902094 1.81075 0
M  V30 1165 C 107.479 3.37665 1.26549 0
M  V30 1166 O 106.583 3.36701 2.38131 0
M  V30 1167 H 105.924 0.644719 0.158849 0
M  V30 1168 H 108.454 2.04121 -0.139891 0
M  V30 1169 H 108.464 3.7474 1.6135 0
M  V30 1170 H 107.139 4.12573 0.525016 0
M  V30 1171 H 105.716 3.1139 2.0516 0
M  V30 1172 N 107.901 -0.206675 1.56239 0
M  V30 1173 C 108.834 -1.28383 1.88661 0
M  V30 1174 C 109.812 -1.44504 0.745481 0
M  V30 1175 O 110.996 -1.60079 0.995336 0
M  V30 1176 C 108.123 -2.65211 2.10667 0
M  V30 1177 C 107.169 -2.66025 3.33366 0
M  V30 1178 S 108.002 -2.18609 4.88846 0
M  V30 1179 C 109.158 -3.57283 5.13906 0
M  V30 1180 H 109.391 -1.00691 2.7973 0
M  V30 1181 H 106.924 -0.409627 1.48867 0
M  V30 1182 H 108.882 -3.43979 2.24029 0
M  V30 1183 H 107.543 -2.90121 1.20369 0
M  V30 1184 H 106.736 -3.66607 3.45855 0
M  V30 1185 H 106.338 -1.95331 3.18938 0
M  V30 1186 H 108.63 -4.53074 5.03717 0
M  V30 1187 H 109.573 -3.49699 6.15724 0
M  V30 1188 H 109.981 -3.51659 4.41583 0
M  V30 1189 N 109.379 -1.50304 -0.473955 0
M  V30 1190 C 110.604 -1.65175 -1.25427 0
M  V30 1191 C 111.029 -0.333673 -1.85117 0
M  V30 1192 O 110.387 0.702114 -1.67153 0
M  V30 1193 C 110.435 -2.74295 -2.34082 0
M  V30 1194 O 109.539 -2.35349 -3.38651 0
M  V30 1195 H 108.88 -0.551944 -0.369126 0
M  V30 1196 H 111.41 -1.96662 -0.564364 0
M  V30 1197 H 111.42 -2.97285 -2.79438 0
M  V30 1198 H 110.095 -3.69959 -1.90008 0
M  V30 1199 H 108.672 -2.22794 -2.99027 0
M  V30 1200 N 110.857 0.726932 -1.39834 0
M  V30 1201 C 112.268 1.30558 -1.3346 0
M  V30 1202 C 112.619 1.962 -0.00273003 0
M  V30 1203 O 111.744 1.96826 0.899371 0
M  V30 1204 C 112.339 2.37404 -2.41713 0
M  V30 1205 C 110.898 2.90921 -2.38835 0
M  V30 1206 C 110.045 1.64578 -2.2318 0
M  V30 1207 H 112.996 0.523862 -1.49804 0
M  V30 1208 H 113.017 3.17984 -2.08966 0
M  V30 1209 H 112.529 1.89599 -3.38635 0
M  V30 1210 H 110.63 3.42985 -1.45575 0
M  V30 1211 H 110.743 3.43487 -3.33997 0
M  V30 1212 H 109.107 1.89219 -1.70494 0
M  V30 1213 H 109.89 1.18814 -3.22084 0
M  V30 1214 N 112.336 1.25143 0.95797 0
M  V30 1215 C 113.299 1.05321 2.03569 0
M  V30 1216 C 114.299 0.007152 1.60798 0
M  V30 1217 O 115.489 0.24903 1.72411 0
M  V30 1218 C 112.621 0.598394 3.35607 0
M  V30 1219 H 113.814 2.00986 2.22586 0
M  V30 1220 H 111.367 1.07502 1.13459 0
M  V30 1221 H 112.102 -0.361014 3.22284 0
M  V30 1222 H 111.887 1.35351 3.67998 0
M  V30 1223 H 113.377 0.48104 4.1482 0
M  V30 1224 N 113.814 -1.1601 1.06675 0
M  V30 1225 C 115.06 -1.86909 0.786945 0
M  V30 1226 C 115.393 -1.81717 -0.685018 0
M  V30 1227 O 114.668 -1.23551 -1.50218 0
M  V30 1228 C 114.951 -3.36313 1.28707 0
M  V30 1229 C 114.804 -3.50175 2.82308 0
M  V30 1230 C 116.123 -4.3084 0.898071 0
M  V30 1231 H 113.242 -0.678677 0.287343 0
M  V30 1232 H 115.884 -1.36336 1.32334 0
M  V30 1233 H 114.034 -3.79513 0.830768 0
M  V30 1234 H 115.706 -3.15886 3.36175 0
M  V30 1235 H 113.949 -2.91959 3.20847 0
M  V30 1236 H 114.62 -4.55116 3.12368 0
M  V30 1237 H 117.096 -3.95561 1.29114 0
M  V30 1238 H 115.972 -5.33876 1.27543 0
M  V30 1239 H 116.233 -4.41662 -0.196651 0
M  V30 1240 N 115.292 -0.849877 -1.32721 0
M  V30 1241 C 116.202 -0.293791 -2.32753 0
M  V30 1242 C 117.218 0.585906 -1.63839 0
M  V30 1243 O 118.394 0.487413 -1.95413 0
M  V30 1244 C 115.459 0.512752 -3.42887 0
M  V30 1245 C 114.52 -0.39252 -4.27502 0
M  V30 1246 C 113.753 0.375625 -5.32377 0
M  V30 1247 O 113.976 1.60613 -5.4732 0
M  V30 1248 O 112.91 -0.256094 -6.01355 0
M  V30 1249 H 116.736 -1.12242 -2.82197 0
M  V30 1250 H 114.321 -0.612685 -1.36259 0
M  V30 1251 H 116.203 0.970704 -4.10067 0
M  V30 1252 H 114.878 1.31826 -2.95641 0
M  V30 1253 H 113.785 -0.898547 -3.63149 0
M  V30 1254 H 115.118 -1.16309 -4.7826 0
M  V30 1255 N 116.77 1.45427 -0.607355 0
M  V30 1256 C 117.717 2.3053 0.111625 0
M  V30 1257 C 118.687 1.4209 0.860216 0
M  V30 1258 O 119.872 1.71019 0.845998 0
M  V30 1259 C 117.012 3.26992 1.10319 0
M  V30 1260 C 116.125 4.30535 0.355493 0
M  V30 1261 C 115.26 5.14105 1.33676 0
M  V30 1262 C 114.299 6.09376 0.576862 0
M  V30 1263 N 113.436 6.85727 1.5074 0
M  V30 1264 H 118.276 2.91477 -0.620093 0
M  V30 1265 H 115.813 1.43631 -0.317594 0
M  V30 1266 H 117.771 3.81385 1.6912 0
M  V30 1267 H 116.401 2.67799 1.80232 0
M  V30 1268 H 115.453 3.78805 -0.348023 0
M  V30 1269 H 116.765 4.98235 -0.237423 0
M  V30 1270 H 115.919 5.72897 1.99684 0
M  V30 1271 H 114.658 4.46423 1.9636 0
M  V30 1272 H 113.663 5.49715 -0.0968519 0
M  V30 1273 H 114.888 6.79085 -0.0449341 0
M  V30 1274 H 112.834 6.20735 2.12189 0
M  V30 1275 H 112.751 7.49778 0.967913 0
M  V30 1276 H 114.019 7.4906 2.15706 0
M  V30 1277 N 118.248 0.346503 1.53744 0
M  V30 1278 C 119.211 -0.496439 2.23759 0
M  V30 1279 C 120.211 -1.0252 1.2388 0
M  V30 1280 O 121.401 -0.913974 1.48297 0
M  V30 1281 C 118.533 -1.69187 2.95954 0
M  V30 1282 H 119.726 0.115952 2.99676 0
M  V30 1283 H 117.279 0.0978939 1.55993 0
M  V30 1284 H 118.014 -2.34288 2.24231 0
M  V30 1285 H 117.799 -1.31989 3.69217 0
M  V30 1286 H 119.289 -2.28969 3.49232 0
M  V30 1287 N 119.726 -1.57421 0.075193 0
M  V30 1288 C 120.975 -1.92794 -0.592731 0
M  V30 1289 C 121.288 -0.957478 -1.70563 0
M  V30 1290 O 122.494 -1.20417 -2.43335 0
M  V30 1291 C 120.95 -3.42495 -1.10569 0
M  V30 1292 C 120.558 -4.47994 -0.0236121 0
M  V30 1293 C 122.302 -3.86864 -1.74748 0
M  V30 1294 C 120.209 -5.88829 -0.550803 0
M  V30 1295 H 119.139 -0.719591 -0.225177 0
M  V30 1296 H 121.79 -1.82902 0.147978 0
M  V30 1297 H 120.172 -3.47471 -1.89947 0
M  V30 1298 H 121.346 -4.54637 0.751099 0
M  V30 1299 H 119.661 -4.13113 0.522159 0
M  V30 1300 H 122.258 -4.8947 -2.15229 0
M  V30 1301 H 122.601 -3.24417 -2.60882 0
M  V30 1302 H 123.134 -3.84504 -1.01986 0
M  V30 1303 H 119.873 -6.54929 0.273457 0
M  V30 1304 H 119.393 -5.85698 -1.29296 0
M  V30 1305 H 121.072 -6.38811 -1.02613 0
M  V30 1306 N 121.204 0.198386 -1.56346 0
M  V30 1307 C 122.137 1.27381 -1.89339 0
M  V30 1308 C 123.115 1.44106 -0.753134 0
M  V30 1309 O 124.299 1.59549 -1.00381 0
M  V30 1310 C 121.426 2.6409 -2.12071 0
M  V30 1311 C 120.472 2.64253 -3.34772 0
M  V30 1312 S 121.305 2.16013 -4.89999 0
M  V30 1313 C 122.461 3.54553 -5.15794 0
M  V30 1314 H 122.694 0.992058 -2.8026 0
M  V30 1315 H 120.227 0.401726 -1.49082 0
M  V30 1316 H 122.185 3.42786 -2.2585 0
M  V30 1317 H 120.846 2.89478 -1.21906 0
M  V30 1318 H 120.039 3.64768 -3.47794 0
M  V30 1319 H 119.641 1.93637 -3.1997 0
M  V30 1320 H 121.933 4.50396 -5.06112 0
M  V30 1321 H 122.876 3.46428 -6.1757 0
M  V30 1322 H 123.284 3.49313 -4.43442 0
M  V30 1323 N 122.682 1.50554 0.465978 0
M  V30 1324 C 123.645 1.69233 1.54574 0
M  V30 1325 C 124.645 0.562901 1.50626 0
M  V30 1326 O 125.835 0.830016 1.53155 0
M  V30 1327 C 122.967 1.7223 2.94193 0
M  V30 1328 H 124.16 2.65571 1.39327 0
M  V30 1329 H 121.713 1.40111 0.692711 0
M  V30 1330 H 122.448 0.77603 3.14878 0
M  V30 1331 H 122.233 2.54285 2.98466 0
M  V30 1332 H 123.723 1.88618 3.72576 0
M  V30 1333 N 124.16 -0.719506 1.40217 0
M  V30 1334 C 125.385 -1.51371 1.4178 0
M  V30 1335 C 125.81 -1.88091 0.0182355 0
M  V30 1336 O 125.168 -1.52997 -0.972707 0
M  V30 1337 C 125.216 -2.768 2.31115 0
M  V30 1338 O 124.32 -3.73349 1.7517 0
M  V30 1339 H 123.661 -0.456529 0.482159 0
M  V30 1340 H 126.191 -0.88644 1.844 0
M  V30 1341 H 126.201 -3.25371 2.46167 0
M  V30 1342 H 124.876 -2.49407 3.3282 0
M  V30 1343 H 123.453 -3.32179 1.69444 0
M  V30 1344 N 125.638 -1.25649 -0.95132 0
M  V30 1345 C 126.915 -1.01361 -1.67288 0
M  V30 1346 C 127.295 0.459135 -2.06046 0
M  V30 1347 O 126.643 1.43723 -1.7764 0
M  V30 1348 C 126.853 -1.95256 -2.89268 0
M  V30 1349 C 128.201 -2.23289 -3.61147 0
M  V30 1350 O 129.225 -1.93041 -2.99355 0
M  V30 1351 O 128.084 -2.74741 -4.72419 0
M  V30 1352 H 125.178 -0.38464 -0.732107 0
M  V30 1353 H 127.724 -1.36817 -1.00395 0
M  V30 1354 H 126.496 -2.94685 -2.57442 0
M  V30 1355 H 126.119 -1.60218 -3.6389 0
M  V30 1356 N 127.117 1.15442 -1.07289 0
M  V30 1357 C 128.047 2.22312 -0.714107 0
M  V30 1358 C 129.028 1.67467 0.298155 0
M  V30 1359 O 130.213 1.93445 0.171048 0
M  V30 1360 C 127.343 3.47124 -0.110448 0
M  V30 1361 C 126.297 4.14926 -1.04979 0
M  V30 1362 C 125.623 5.33807 -0.308924 0
M  V30 1363 C 126.923 4.64762 -2.38314 0
M  V30 1364 H 128.617 2.5258 -1.6076 0
M  V30 1365 H 126.163 1.21404 -0.77441 0
M  V30 1366 H 128.116 4.21124 0.152482 0
M  V30 1367 H 126.84 3.16187 0.81812 0
M  V30 1368 H 125.499 3.42866 -1.29764 0
M  V30 1369 H 125.147 4.99126 0.623084 0
M  V30 1370 H 124.847 5.80113 -0.935036 0
M  V30 1371 H 126.371 6.10576 -0.0537771 0
M  V30 1372 H 127.785 5.30292 -2.1786 0
M  V30 1373 H 126.182 5.21728 -2.96514 0
M  V30 1374 H 127.252 3.80434 -3.00663 0
M  V30 1375 N 128.595 0.856903 1.32268 0
M  V30 1376 C 129.843 0.460474 1.96784 0
M  V30 1377 C 130.164 -0.987701 1.68135 0
M  V30 1378 O 129.434 -1.69058 0.989765 0
M  V30 1379 H 128.014 0.167289 0.728027 0
M  V30 1380 H 130.676 1.09383 1.61312 0
M  V30 1381 H 129.772 0.60739 3.06133 0
M  V30 1382 N 130.073 -1.45103 0.615059 0
M  V30 1383 C 131.003 -2.33339 -0.0865619 0
M  V30 1384 C 131.984 -1.4727 -0.851209 0
M  V30 1385 O 133.169 -1.76026 -0.820281 0
M  V30 1386 C 130.299 -3.30095 -1.07956 0
M  V30 1387 C 129.253 -4.25858 -0.427628 0
M  V30 1388 C 128.579 -5.12361 -1.5294 0
M  V30 1389 C 129.879 -5.18165 0.655944 0
M  V30 1390 H 131.573 -2.92254 0.650224 0
M  V30 1391 H 129.119 -1.40532 0.314138 0
M  V30 1392 H 131.072 -3.90698 -1.57901 0
M  V30 1393 H 129.796 -2.69355 -1.84703 0
M  V30 1394 H 128.455 -3.66564 0.0510292 0
M  V30 1395 H 128.103 -4.47984 -2.28734 0
M  V30 1396 H 127.803 -5.77238 -1.09865 0
M  V30 1397 H 129.327 -5.75833 -2.03098 0
M  V30 1398 H 130.741 -5.72796 0.240257 0
M  V30 1399 H 129.138 -5.91559 1.00888 0
M  V30 1400 H 130.208 -4.60144 1.52957 0
M  V30 1401 N 131.551 -0.354651 -1.53558 0
M  V30 1402 C 132.499 0.512195 -2.26891 0
M  V30 1403 C 133.493 1.09263 -1.29452 0
M  V30 1404 O 134.699 1.03709 -1.47121 0
M  V30 1405 H 131.074 0.183878 -0.729173 0
M  V30 1406 H 133.045 -0.128202 -2.98124 0
M  V30 1407 C 131.794 1.64563 -3.06291 0
M  V30 1408 H 131.117 1.20829 -3.81104 0
M  V30 1409 H 132.557 2.22711 -3.60799 0
M  V30 1410 C 131.016 2.58158 -2.16462 0
M  V30 1411 O 131.546 3.60695 -1.76811 0
M  V30 1412 N 129.752 2.27096 -1.81317 0
M  V30 1413 H 129.299 1.43751 -2.1376 0
M  V30 1414 H 129.257 2.89975 -1.21498 0
M  V30 1415 N 133.029 1.57378 -0.0835403 0
M  V30 1416 C 134.44 1.81261 0.447358 0
M  V30 1417 C 134.791 0.998331 1.68902 0
M  V30 1418 O 133.916 0.224282 2.15235 0
M  V30 1419 C 134.511 3.28767 0.818386 0
M  V30 1420 C 133.07 3.53455 1.29409 0
M  V30 1421 C 132.217 2.75831 0.285024 0
M  V30 1422 H 135.168 1.5566 -0.309115 0
M  V30 1423 H 135.189 3.41459 1.67887 0
M  V30 1424 H 134.701 3.88006 -0.0855019 0
M  V30 1425 H 132.802 2.99534 2.21608 0
M  V30 1426 H 132.915 4.62128 1.2639 0
M  V30 1427 H 131.279 2.42947 0.764767 0
M  V30 1428 H 132.062 3.37813 -0.611341 0
M  V30 1429 N 134.507 -0.190092 1.56449 0
M  V30 1430 C 135.455 -1.25501 1.95837 0
M  V30 1431 C 136.449 -1.4685 0.844485 0
M  V30 1432 O 137.655 -1.47651 1.02952 0
M  V30 1433 H 134.03 -0.421447 0.622805 0
M  V30 1434 H 136.001 -0.895821 2.84636 0
M  V30 1435 C 134.75 -2.59124 2.31841 0
M  V30 1436 H 134.073 -2.43514 3.17082 0
M  V30 1437 H 135.513 -3.32371 2.6326 0
M  V30 1438 C 133.972 -3.16488 1.15486 0
M  V30 1439 O 134.502 -3.99365 0.432535 0
M  V30 1440 N 132.708 -2.75305 0.930349 0
M  V30 1441 H 132.255 -2.08013 1.51948 0
M  V30 1442 H 132.213 -3.14024 0.153634 0
M  V30 1443 N 135.985 -1.50799 -0.457987 0
M  V30 1444 C 137.21 -1.66496 -1.23668 0
M  V30 1445 C 137.635 -0.353288 -1.84752 0
M  V30 1446 O 136.993 0.684346 -1.67888 0
M  V30 1447 C 137.041 -2.76763 -2.3116 0
M  V30 1448 O 136.145 -2.38928 -3.36136 0
M  V30 1449 H 135.486 -0.555828 -0.363252 0
M  V30 1450 H 138.016 -1.9725 -0.543474 0
M  V30 1451 H 138.026 -3.00232 -2.76269 0
M  V30 1452 H 136.701 -3.71954 -1.86073 0
M  V30 1453 H 135.278 -2.25953 -2.96647 0
M  V30 1454 N 137.463 0.71206 -1.40597 0
M  V30 1455 C 138.426 1.80785 -1.40888 0
M  V30 1456 C 139.426 1.57937 -0.302103 0
M  V30 1457 O 140.616 1.64913 -0.561182 0
M  V30 1458 C 137.748 3.18927 -1.20409 0
M  V30 1459 H 138.941 1.81924 -2.38419 0
M  V30 1460 H 136.494 0.91805 -1.26497 0
M  V30 1461 H 137.229 3.23436 -0.236522 0
M  V30 1462 H 137.014 3.36911 -2.00582 0
M  V30 1463 H 138.504 3.98949 -1.23408 0
M  V30 1464 N 138.941 1.26152 0.944643 0
M  V30 1465 C 140.189 1.11271 1.6871 0
M  V30 1466 C 140.51 -0.345166 1.91921 0
M  V30 1467 O 139.78 -1.24387 1.51343 0
M  V30 1468 H 138.36 0.408783 0.625224 0
M  V30 1469 H 141.022 1.58427 1.1352 0
M  V30 1470 H 140.118 1.62879 2.66227 0
M  V30 1471 N 140.419 -1.14872 1.07899 0
M  V30 1472 C 141.644 -1.90202 0.826926 0
M  V30 1473 C 142.069 -1.77774 -0.614664 0
M  V30 1474 O 141.427 -1.11431 -1.43013 0
M  V30 1475 C 141.475 -3.38352 1.24702 0
M  V30 1476 O 140.579 -4.10497 0.39575 0
M  V30 1477 H 139.92 -0.591968 0.300782 0
M  V30 1478 H 142.45 -1.45437 1.43907 0
M  V30 1479 H 142.46 -3.89156 1.22563 0
M  V30 1480 H 141.135 -3.46715 2.29698 0
M  V30 1481 H 139.712 -3.69796 0.480117 0
M  V30 1482 N 141.898 -0.863906 -1.31812 0
M  V30 1483 C 143.175 -0.39275 -1.91616 0
M  V30 1484 C 143.555 1.12461 -1.7865 0
M  V30 1485 O 142.903 1.95045 -1.19037 0
M  V30 1486 C 143.113 -0.867385 -3.38049 0
M  V30 1487 C 144.461 -0.889966 -4.15168 0
M  V30 1488 O 145.485 -0.812635 -3.46806 0
M  V30 1489 O 144.344 -1.00079 -5.37258 0
M  V30 1490 H 141.438 -0.116358 -0.818773 0
M  V30 1491 H 143.984 -0.951418 -1.40521 0
M  V30 1492 H 142.756 -1.91081 -3.41473 0
M  V30 1493 H 142.379 -0.286687 -3.96565 0
M  V30 1494 N 143.376 1.44774 -0.622745 0
M  V30 1495 C 144.625 2.01334 -0.121397 0
M  V30 1496 C 144.938 1.49505 1.26125 0
M  V30 1497 O 146.144 1.98139 1.85616 0
M  V30 1498 C 144.6 3.59516 -0.166298 0
M  V30 1499 C 144.208 4.20342 -1.54974 0
M  V30 1500 C 145.952 4.23582 0.279021 0
M  V30 1501 C 143.859 5.70721 -1.55021 0
M  V30 1502 H 142.789 0.752851 -0.0416172 0
M  V30 1503 H 145.44 1.66083 -0.780309 0
M  V30 1504 H 143.822 3.92027 0.559557 0
M  V30 1505 H 144.996 3.99381 -2.29851 0
M  V30 1506 H 143.311 3.68529 -1.93843 0
M  V30 1507 H 145.908 5.33868 0.298083 0
M  V30 1508 H 146.251 3.95327 1.30471 0
M  V30 1509 H 146.784 3.95843 -0.394063 0
M  V30 1510 H 143.523 6.03698 -2.55399 0
M  V30 1511 H 143.043 5.93829 -0.844245 0
M  V30 1512 H 144.722 6.34203 -1.28047 0
M  V30 1513 N 144.854 0.36279 1.53368 0
M  V30 1514 C 146.27 0.0116182 1.59596 0
M  V30 1515 C 146.47 -1.47012 1.37803 0
M  V30 1516 O 145.526 -2.23136 1.18181 0
M  V30 1517 C 146.839 0.465052 2.97082 0
M  V30 1518 C 148.387 0.419033 3.10182 0
M  V30 1519 C 148.862 0.848235 4.50077 0
M  V30 1520 N 150.353 0.803183 4.56183 0
M  V30 1521 C 151.088 1.107 5.62613 0
M  V30 1522 N 150.584 1.47996 6.76808 0
M  V30 1523 N 152.377 1.02998 5.52583 0
M  V30 1524 H 144.528 1.32775 1.65785 0
M  V30 1525 H 146.791 0.542518 0.777417 0
M  V30 1526 H 146.497 1.49892 3.18159 0
M  V30 1527 H 146.371 -0.149786 3.76902 0
M  V30 1528 H 148.758 -0.605696 2.88817 0
M  V30 1529 H 148.839 1.06933 2.32377 0
M  V30 1530 H 148.483 1.87107 4.7218 0
M  V30 1531 H 148.413 0.175218 5.26308 0
M  V30 1532 H 150.904 0.52838 3.74188 0
M  V30 1533 H 151.217 1.69613 7.53957 0
M  V30 1534 H 149.562 1.51859 6.78206 0
M  V30 1535 H 152.753 0.737817 4.62249 0
M  V30 1536 H 152.926 1.2701 6.35431 0
M  V30 1537 N 146.332 -1.57332 0.0918853 0
M  V30 1538 C 147.578 -1.94524 -0.573425 0
M  V30 1539 C 147.911 -0.973578 -1.68033 0
M  V30 1540 O 147.186 -0.00609226 -1.94499 0
M  V30 1541 C 147.469 -3.41858 -1.13161 0
M  V30 1542 C 147.322 -4.4979 -0.0299747 0
M  V30 1543 C 148.641 -3.90435 -2.03098 0
M  V30 1544 H 145.76 -0.70734 -0.206975 0
M  V30 1545 H 148.402 -1.89309 0.161942 0
M  V30 1546 H 146.552 -3.46433 -1.7583 0
M  V30 1547 H 148.224 -4.57327 0.604112 0
M  V30 1548 H 146.467 -4.291 0.636833 0
M  V30 1549 H 147.138 -5.50069 -0.461287 0
M  V30 1550 H 149.614 -3.87992 -1.50338 0
M  V30 1551 H 148.49 -4.94097 -2.39081 0
M  V30 1552 H 148.751 -3.29541 -2.94712 0
M  V30 1553 N 147.81 0.181792 -1.56548 0
M  V30 1554 C 149.221 0.745244 -1.71181 0
M  V30 1555 C 149.572 1.83262 -0.70068 0
M  V30 1556 O 148.697 2.15946 0.140154 0
M  V30 1557 C 149.292 1.35859 -3.10367 0
M  V30 1558 C 147.851 1.86898 -3.2672 0
M  V30 1559 C 146.998 0.743942 -2.67134 0
M  V30 1560 H 149.949 -0.0434661 -1.5864 0
M  V30 1561 H 149.97 2.22817 -3.08436 0
M  V30 1562 H 149.482 0.566948 -3.83937 0
M  V30 1563 H 147.583 2.68738 -2.5809 0
M  V30 1564 H 147.696 2.02162 -4.34359 0
M  V30 1565 H 146.06 1.16169 -2.26665 0
M  V30 1566 H 146.843 -0.035676 -3.43281 0
M  V30 1567 N 149.288 1.51039 0.449983 0
M  V30 1568 C 150.218 1.74379 1.55288 0
M  V30 1569 C 151.199 0.593236 1.5942 0
M  V30 1570 O 152.384 0.834625 1.7535 0
M  V30 1571 C 149.514 1.85728 2.93466 0
M  V30 1572 C 148.468 3.01078 3.04197 0
M  V30 1573 C 147.794 2.97595 4.44231 0
M  V30 1574 C 149.094 4.41254 2.7945 0
M  V30 1575 H 150.788 2.66725 1.36008 0
M  V30 1576 H 148.334 1.2835 0.652864 0
M  V30 1577 H 150.287 2.0064 3.70569 0
M  V30 1578 H 149.011 0.900207 3.13949 0
M  V30 1579 H 147.67 2.85851 2.29531 0
M  V30 1580 H 147.318 1.99691 4.61663 0
M  V30 1581 H 147.018 3.75046 4.52343 0
M  V30 1582 H 148.542 3.14583 5.23326 0
M  V30 1583 H 149.956 4.56897 3.46292 0
M  V30 1584 H 148.353 5.20315 2.98985 0
M  V30 1585 H 149.423 4.52164 1.75144 0
M  V30 1586 N 150.766 -0.704594 1.40972 0
M  V30 1587 C 152.177 -1.28418 1.3552 0
M  V30 1588 C 152.528 -1.96171 0.0339434 0
M  V30 1589 O 151.653 -1.98231 -0.867944 0
M  V30 1590 C 152.248 -2.33528 2.45459 0
M  V30 1591 C 150.807 -2.87085 2.43433 0
M  V30 1592 C 149.954 -1.61007 2.2577 0
M  V30 1593 H 152.905 -0.499963 1.50619 0
M  V30 1594 H 152.926 -3.14619 2.13998 0
M  V30 1595 H 152.438 -1.84187 3.41609 0
M  V30 1596 H 150.539 -3.40626 1.51013 0
M  V30 1597 H 150.652 -3.3813 3.39419 0
M  V30 1598 H 149.016 -1.86482 1.73483 0
M  V30 1599 H 149.799 -1.13675 3.23933 0
M  V30 1600 N 152.244 -1.26651 -0.937939 0
M  V30 1601 C 153.655 -1.1125 -1.49934 0
M  V30 1602 C 154.006 0.306077 -1.93798 0
M  V30 1603 O 153.131 1.19792 -1.80219 0
M  V30 1604 C 153.726 -2.01339 -2.72485 0
M  V30 1605 C 152.285 -1.90074 -3.24883 0
M  V30 1606 C 151.432 -1.94498 -1.97651 0
M  V30 1607 H 154.383 -1.39693 -0.753091 0
M  V30 1608 H 154.404 -1.56319 -3.46907 0
M  V30 1609 H 153.916 -3.04577 -2.40529 0
M  V30 1610 H 152.017 -0.897827 -3.61621 0
M  V30 1611 H 152.13 -2.75778 -3.9177 0
M  V30 1612 H 150.494 -1.38591 -2.13693 0
M  V30 1613 H 151.277 -2.99372 -1.68022 0
M  V30 1614 N 153.722 1.14298 -1.08507 0
M  V30 1615 C 154.652 2.21542 -0.737646 0
M  V30 1616 C 155.633 1.67773 0.280377 0
M  V30 1617 O 156.818 1.93616 0.150521 0
M  V30 1618 C 153.948 3.46988 -0.147259 0
M  V30 1619 C 152.902 4.13789 -1.09374 0
M  V30 1620 C 152.228 5.33449 -0.365524 0
M  V30 1621 C 153.528 4.62208 -2.4323 0
M  V30 1622 H 155.222 2.5086 -1.6343 0
M  V30 1623 H 152.768 1.20576 -0.787243 0
M  V30 1624 H 154.721 4.21262 0.107808 0
M  V30 1625 H 153.445 3.17037 0.784538 0
M  V30 1626 H 152.104 3.4147 -1.33393 0
M  V30 1627 H 151.752 4.99759 0.57011 0
M  V30 1628 H 151.452 5.79088 -0.996512 0
M  V30 1629 H 152.976 6.10485 -0.118534 0
M  V30 1630 H 154.39 5.27952 -2.23472 0
M  V30 1631 H 152.787 5.18553 -3.02031 0
M  V30 1632 H 153.857 3.77224 -3.04681 0
M  V30 1633 N 155.201 0.870884 1.31352 0
M  V30 1634 C 156.429 0.49677 2.00848 0
M  V30 1635 C 156.844 -0.910998 1.65367 0
M  V30 1636 O 156.201 -1.59696 0.883374 0
M  V30 1637 C 156.252 0.645308 3.55694 0
M  V30 1638 O 155.973 1.99764 3.89905 0
M  V30 1639 C 157.474 0.272326 4.42463 0
M  V30 1640 H 154.694 0.193462 0.642506 0
M  V30 1641 H 157.238 1.1723 1.67563 0
M  V30 1642 H 155.393 0.0173176 3.87396 0
M  V30 1643 H 155.807 2.00607 4.84621 0
M  V30 1644 H 157.281 0.427208 5.50344 0
M  V30 1645 H 157.758 -0.788587 4.32062 0
M  V30 1646 H 158.364 0.876054 4.1618 0
M  V30 1647 N 156.679 -1.44442 0.630414 0
M  V30 1648 C 157.589 -2.34476 -0.0761693 0
M  V30 1649 C 158.605 -1.52576 -0.836449 0
M  V30 1650 O 159.781 -1.85307 -0.788874 0
M  V30 1651 C 156.846 -3.30545 -1.04599 0
M  V30 1652 C 155.907 -4.28352 -0.28516 0
M  V30 1653 C 155.14 -5.19831 -1.20878 0
M  V30 1654 O 155.363 -5.15223 -2.44747 0
M  V30 1655 O 154.297 -5.97892 -0.693491 0
M  V30 1656 H 158.123 -2.96345 0.664324 0
M  V30 1657 H 155.708 -1.44203 0.39061 0
M  V30 1658 H 157.59 -3.89681 -1.60396 0
M  V30 1659 H 156.265 -2.7121 -1.76711 0
M  V30 1660 H 155.172 -3.72764 0.315837 0
M  V30 1661 H 156.505 -4.90605 0.395924 0
M  V30 1662 N 158.157 -0.370918 -1.53173 0
M  V30 1663 C 159.067 0.480823 -2.2962 0
M  V30 1664 C 160.083 1.08789 -1.35798 0
M  V30 1665 O 161.259 1.09768 -1.68858 0
M  V30 1666 C 158.324 1.60227 -3.07454 0
M  V30 1667 C 157.385 1.0222 -4.16953 0
M  V30 1668 C 156.618 2.0902 -4.91066 0
M  V30 1669 O 156.841 3.30222 -4.65091 0
M  V30 1670 O 155.775 1.71778 -5.76867 0
M  V30 1671 H 159.601 -0.141421 -3.03371 0
M  V30 1672 H 157.186 -0.135146 -1.48787 0
M  V30 1673 H 159.068 2.25417 -3.56041 0
M  V30 1674 H 157.743 2.20982 -2.36535 0
M  V30 1675 H 156.65 0.334064 -3.72605 0
M  V30 1676 H 157.983 0.459131 -4.90054 0
M  V30 1677 N 159.635 1.57281 -0.100228 0
M  V30 1678 C 161.051 1.57527 0.256416 0
M  V30 1679 C 161.251 1.11173 1.68056 0
M  V30 1680 O 160.307 0.79053 2.39806 0
M  V30 1681 C 161.62 3.00673 0.0401747 0
M  V30 1682 C 163.168 3.12815 0.107528 0
M  V30 1683 C 163.643 4.57929 -0.0807834 0
M  V30 1684 N 165.134 4.63193 -0.0261207 0
M  V30 1685 C 165.869 5.73212 -0.146999 0
M  V30 1686 N 165.365 6.92047 -0.322999 0
M  V30 1687 N 167.158 5.62031 -0.0879044 0
M  V30 1688 H 159.309 1.85718 -1.03065 0
M  V30 1689 H 161.572 0.857446 -0.404339 0
M  V30 1690 H 161.278 3.38804 -0.943649 0
M  V30 1691 H 161.152 3.69042 0.780262 0
M  V30 1692 H 163.539 2.74554 1.08186 0
M  V30 1693 H 163.62 2.47028 -0.664134 0
M  V30 1694 H 163.264 4.96886 -1.05201 0
M  V30 1695 H 163.194 5.21783 0.710635 0
M  V30 1696 H 165.685 3.77748 0.107161 0
M  V30 1697 H 165.998 7.7173 -0.406608 0
M  V30 1698 H 164.343 6.94074 -0.358733 0
M  V30 1699 H 167.534 4.68075 0.048498 0
M  V30 1700 H 167.707 6.47734 -0.185557 0
M  V30 1701 N 161.113 -0.173488 1.56642 0
M  V30 1702 C 162.529 -0.525174 1.50712 0
M  V30 1703 C 162.729 -1.8476 0.804107 0
M  V30 1704 O 161.785 -2.49869 0.363574 0
M  V30 1705 C 163.098 -0.559937 2.95441 0
M  V30 1706 C 164.646 -0.647288 3.06234 0
M  V30 1707 C 165.121 -0.712963 4.52417 0
M  V30 1708 N 166.612 -0.775911 4.56655 0
M  V30 1709 C 167.347 -0.847264 5.67106 0
M  V30 1710 N 166.843 -0.879585 6.87194 0
M  V30 1711 N 168.636 -0.886117 5.55071 0
M  V30 1712 H 160.787 0.693681 2.00753 0
M  V30 1713 H 163.05 0.249841 0.914485 0
M  V30 1714 H 162.756 0.343049 3.50023 0
M  V30 1715 H 162.63 -1.40718 3.49969 0
M  V30 1716 H 165.017 -1.5407 2.51687 0
M  V30 1717 H 165.098 0.226586 2.54794 0
M  V30 1718 H 164.742 0.176183 5.07594 0
M  V30 1719 H 164.672 -1.60295 5.0161 0
M  V30 1720 H 167.163 -0.759304 3.70193 0
M  V30 1721 H 167.476 -0.935144 7.67121 0
M  V30 1722 H 165.821 -0.847898 6.89808 0
M  V30 1723 H 169.012 -0.857853 4.60172 0
M  V30 1724 H 169.185 -0.938263 6.41171 0
M  V30 1725 N 162.591 -1.51276 -0.441967 0
M  V30 1726 C 163.538 -1.72256 -1.53612 0
M  V30 1727 C 164.508 -0.564164 -1.56225 0
M  V30 1728 O 165.693 -0.798074 -1.73307 0
M  V30 1729 C 162.833 -1.84932 -2.91366 0
M  V30 1730 C 161.946 -3.12459 -2.98317 0
M  V30 1731 C 161.081 -3.15758 -4.27166 0
M  V30 1732 C 160.12 -4.37619 -4.27967 0
M  V30 1733 N 159.257 -4.38493 -5.48333 0
M  V30 1734 H 164.097 -2.65654 -1.35026 0
M  V30 1735 H 161.634 -1.31662 -0.656009 0
M  V30 1736 H 163.592 -1.90263 -3.7129 0
M  V30 1737 H 162.222 -0.949461 -3.08521 0
M  V30 1738 H 161.274 -3.1646 -2.11086 0
M  V30 1739 H 162.586 -4.02382 -2.94771 0
M  V30 1740 H 161.74 -3.19979 -5.15459 0
M  V30 1741 H 160.479 -2.23715 -4.33362 0
M  V30 1742 H 159.484 -4.33579 -3.38067 0
M  V30 1743 H 160.709 -5.30921 -4.23438 0
M  V30 1744 H 158.655 -3.49318 -5.55259 0
M  V30 1745 H 158.572 -5.22219 -5.46647 0
M  V30 1746 H 159.84 -4.469 -6.38671 0
M  V30 1747 N 164.069 0.697108 -1.41344 0
M  V30 1748 C 165.346 1.45154 -1.31109 0
M  V30 1749 C 165.726 2.11009 0.0620449 0
M  V30 1750 O 165.074 2.01571 1.07618 0
M  V30 1751 C 165.284 2.47223 -2.46337 0
M  V30 1752 C 166.632 3.1252 -2.87431 0
M  V30 1753 O 167.656 2.57547 -2.46065 0
M  V30 1754 O 166.515 4.12083 -3.58957 0
M  V30 1755 H 163.609 0.646365 -0.515889 0
M  V30 1756 H 166.155 0.727716 -1.53305 0
M  V30 1757 H 164.927 1.97204 -3.37974 0
M  V30 1758 H 164.55 3.27116 -2.2601 0
M  V30 1759 N 165.547 1.27147 0.931209 0
M  V30 1760 C 166.477 1.12081 2.04842 0
M  V30 1761 C 167.458 0.0232364 1.70084 0
M  V30 1762 O 168.643 0.197085 1.93197 0
M  V30 1763 C 165.773 0.76354 3.38803 0
M  V30 1764 C 164.727 1.81396 3.87659 0
M  V30 1765 C 164.053 1.31075 5.18385 0
M  V30 1766 C 165.353 3.21739 4.11438 0
M  V30 1767 H 167.047 2.05537 2.17703 0
M  V30 1768 H 164.593 0.989603 1.04608 0
M  V30 1769 H 166.546 0.644982 4.16435 0
M  V30 1770 H 165.27 -0.206727 3.25945 0
M  V30 1771 H 163.929 1.92136 3.12217 0
M  V30 1772 H 163.577 0.330037 5.01916 0
M  V30 1773 H 163.277 2.013 5.52044 0
M  V30 1774 H 164.801 1.20506 5.98591 0
M  V30 1775 H 166.215 3.14019 4.79651 0
M  V30 1776 H 164.612 3.89644 4.56397 0
M  V30 1777 H 165.682 3.67054 3.16859 0
M  V30 1778 N 167.025 -1.13721 1.09112 0
M  V30 1779 C 168.253 -1.88773 0.846899 0
M  V30 1780 C 168.668 -1.7896 -0.601572 0
M  V30 1781 O 168.025 -1.15394 -1.41388 0
M  V30 1782 C 168.076 -3.3849 1.26913 0
M  V30 1783 O 167.797 -3.48043 2.66079 0
M  V30 1784 C 169.298 -4.30518 1.05682 0
M  V30 1785 H 166.518 -0.59772 0.304914 0
M  V30 1786 H 169.062 -1.43977 1.45227 0
M  V30 1787 H 167.217 -3.80881 0.707723 0
M  V30 1788 H 167.631 -4.4109 2.83795 0
M  V30 1789 H 169.105 -5.3391 1.40156 0
M  V30 1790 H 169.582 -4.392 -0.00563416 0
M  V30 1791 H 170.188 -3.93893 1.60402 0
M  V30 1792 N 168.503 -0.877838 -1.30888 0
M  V30 1793 C 169.45 -0.337538 -2.28318 0
M  V30 1794 C 170.42 0.568346 -1.56074 0
M  V30 1795 O 171.605 0.498298 -1.84178 0
M  V30 1796 C 168.745 0.448142 -3.42178 0
M  V30 1797 C 167.858 -0.48615 -4.29256 0
M  V30 1798 C 166.993 0.314427 -5.30269 0
M  V30 1799 C 166.032 -0.615791 -6.08995 0
M  V30 1800 N 165.169 0.14902 -7.01942 0
M  V30 1801 H 170.009 -1.17356 -2.73919 0
M  V30 1802 H 167.546 -0.590094 -1.34745 0
M  V30 1803 H 169.504 0.919517 -4.06941 0
M  V30 1804 H 168.134 1.24879 -2.97666 0
M  V30 1805 H 167.186 -1.076 -3.64865 0
M  V30 1806 H 168.498 -1.19909 -4.84173 0
M  V30 1807 H 167.652 0.847969 -6.00745 0
M  V30 1808 H 166.391 1.06062 -4.76027 0
M  V30 1809 H 165.396 -1.16102 -5.37401 0
M  V30 1810 H 166.621 -1.36097 -6.65323 0
M  V30 1811 H 164.567 0.877884 -6.50099 0
M  V30 1812 H 164.484 -0.504433 -7.54315 0
M  V30 1813 H 165.752 0.663537 -7.76671 0
M  V30 1814 N 169.982 1.44106 -0.638065 0
M  V30 1815 C 171.231 2.01194 -0.142744 0
M  V30 1816 C 171.544 1.50835 1.24532 0
M  V30 1817 O 172.75 2.00096 1.83504 0
M  V30 1818 C 171.206 3.59319 -0.20442 0
M  V30 1819 C 170.814 4.18674 -1.59423 0
M  V30 1820 C 172.558 4.23854 0.234079 0
M  V30 1821 C 170.465 5.69045 -1.61065 0
M  V30 1822 H 169.395 0.752367 -0.0495998 0
M  V30 1823 H 172.046 1.65246 -0.797881 0
M  V30 1824 H 170.428 3.92598 0.517946 0
M  V30 1825 H 171.602 3.96921 -2.34074 0
M  V30 1826 H 169.917 3.66453 -1.97741 0
M  V30 1827 H 172.514 5.34155 0.241443 0
M  V30 1828 H 172.857 3.96688 1.2627 0
M  V30 1829 H 173.39 3.95403 -0.436025 0
M  V30 1830 H 170.129 6.00956 -2.61787 0
M  V30 1831 H 169.649 5.929 -0.90718 0
M  V30 1832 H 171.328 6.32809 -1.34766 0
M  V30 1833 N 171.46 0.379036 1.52974 0
M  V30 1834 C 172.706 -0.206727 2.01744 0
M  V30 1835 C 173.039 -1.47314 1.26539 0
M  V30 1836 O 172.314 -1.91084 0.362903 0
M  V30 1837 C 172.597 -0.485066 3.56818 0
M  V30 1838 C 172.45 0.795919 4.42702 0
M  V30 1839 C 173.769 -1.28003 4.21074 0
M  V30 1840 H 170.888 -0.0736607 0.73331 0
M  V30 1841 H 173.53 0.506581 1.83122 0
M  V30 1842 H 171.68 -1.09272 3.72816 0
M  V30 1843 H 173.352 1.43307 4.38476 0
M  V30 1844 H 171.595 1.41344 4.10127 0
M  V30 1845 H 172.266 0.555947 5.49193 0
M  V30 1846 H 174.742 -0.765867 4.08991 0
M  V30 1847 H 173.618 -1.44352 5.29579 0
M  V30 1848 H 173.879 -2.29236 3.78026 0
M  V30 1849 N 172.938 -1.57226 0.108567 0
M  V30 1850 C 174.354 -1.5766 -0.248058 0
M  V30 1851 C 174.554 -1.12063 -1.67464 0
M  V30 1852 O 173.61 -0.803236 -2.39383 0
M  V30 1853 C 174.923 -3.0069 -0.0242287 0
M  V30 1854 C 176.471 -3.12868 -0.0909372 0
M  V30 1855 C 176.946 -4.57879 0.105067 0
M  V30 1856 N 178.437 -4.63172 0.0506846 0
M  V30 1857 C 179.172 -5.73126 0.177396 0
M  V30 1858 N 178.668 -6.91866 0.359696 0
M  V30 1859 N 180.461 -5.61977 0.117709 0
M  V30 1860 H 172.612 -1.85169 1.04049 0
M  V30 1861 H 174.875 -0.85529 0.40888 0
M  V30 1862 H 174.581 -3.38299 0.961604 0
M  V30 1863 H 174.455 -3.6945 -0.76068 0
M  V30 1864 H 176.842 -2.75124 -1.06729 0
M  V30 1865 H 176.923 -2.46672 0.677225 0
M  V30 1866 H 176.567 -4.96321 1.07834 0
M  V30 1867 H 176.497 -5.22153 -0.682954 0
M  V30 1868 H 178.988 -3.778 -0.0871266 0
M  V30 1869 H 179.301 -7.71503 0.447529 0
M  V30 1870 H 177.646 -6.93874 0.395536 0
M  V30 1871 H 180.837 -4.68094 -0.0236741 0
M  V30 1872 H 181.01 -6.47627 0.219905 0
M  V30 1873 N 174.416 0.165178 -1.56732 0
M  V30 1874 C 175.664 0.879068 -1.8198 0
M  V30 1875 C 175.985 1.82514 -0.686561 0
M  V30 1876 O 175.255 1.93694 0.293146 0
M  V30 1877 H 173.835 0.327608 -0.671329 0
M  V30 1878 H 176.497 0.163526 -1.94213 0
M  V30 1879 H 175.593 1.45228 -2.76252 0
M  V30 1880 N 175.894 1.51508 0.433938 0
M  V30 1881 C 176.804 1.75917 1.5521 0
M  V30 1882 C 177.82 0.643545 1.61662 0
M  V30 1883 O 178.996 0.926183 1.7884 0
M  V30 1884 C 176.061 1.88213 2.91164 0
M  V30 1885 C 175.122 3.12074 2.94802 0
M  V30 1886 C 174.355 3.23774 4.24271 0
M  V30 1887 O 174.578 2.4133 5.16833 0
M  V30 1888 O 173.512 4.16774 4.34262 0
M  V30 1889 H 177.338 2.70777 1.37527 0
M  V30 1890 H 174.923 1.36051 0.617293 0
M  V30 1891 H 176.805 1.98267 3.71845 0
M  V30 1892 H 175.48 0.965413 3.08968 0
M  V30 1893 H 174.387 3.07497 2.13065 0
M  V30 1894 H 175.72 4.03446 2.81943 0
M  V30 1895 N 177.372 -0.689602 1.41712 0
M  V30 1896 C 178.335 -1.78521 1.43746 0
M  V30 1897 C 179.335 -1.57436 0.327191 0
M  V30 1898 O 180.525 -1.64 0.587348 0
M  V30 1899 C 177.657 -3.16971 1.25467 0
M  V30 1900 H 178.85 -1.78108 2.41283 0
M  V30 1901 H 176.403 -0.89781 1.27942 0
M  V30 1902 H 177.138 -3.23019 0.287948 0
M  V30 1903 H 176.923 -3.33678 2.05917 0
M  V30 1904 H 178.413 -3.96935 1.2974 0
M  V30 1905 N 178.85 -1.27639 -0.924453 0
M  V30 1906 C 179.76 -1.12466 -2.05885 0
M  V30 1907 C 180.776 -0.053869 -1.73917 0
M  V30 1908 O 181.952 -0.261012 -1.99702 0
M  V30 1909 C 179.017 -0.776768 -3.37886 0
M  V30 1910 C 178.078 -1.92878 -3.83532 0
M  V30 1911 C 177.311 -1.59739 -5.09234 0
M  V30 1912 O 177.534 -0.506782 -5.68144 0
M  V30 1913 O 176.468 -2.43761 -5.50331 0
M  V30 1914 H 180.294 -2.07671 -2.21599 0
M  V30 1915 H 177.879 -1.06857 -1.04413 0
M  V30 1916 H 179.761 -0.596229 -4.17161 0
M  V30 1917 H 178.436 0.145732 -3.23372 0
M  V30 1918 H 177.343 -2.1644 -3.0513 0
M  V30 1919 H 178.676 -2.8316 -4.02593 0
M  V30 1920 N 180.328 1.1314 -1.09713 0
M  V30 1921 C 181.26 2.18343 -0.697056 0
M  V30 1922 C 182.273 1.60669 0.262551 0
M  V30 1923 O 183.462 1.78435 0.0481527 0
M  V30 1924 C 180.562 3.38899 -0.00684728 0
M  V30 1925 C 179.735 4.26078 -0.988741 0
M  V30 1926 C 178.794 5.25155 -0.331394 0
M  V30 1927 O 177.82 5.60701 -0.979926 0
M  V30 1928 N 179.022 5.73271 0.913261 0
M  V30 1929 H 181.787 2.5328 -1.60216 0
M  V30 1930 H 179.348 1.28491 -0.984971 0
M  V30 1931 H 181.34 4.02255 0.444191 0
M  V30 1932 H 179.91 3.02175 0.800551 0
M  V30 1933 H 179.13 3.59453 -1.61826 0
M  V30 1934 H 180.418 4.81178 -1.65364 0
M  V30 1935 H 179.816 5.46544 1.45966 0
M  V30 1936 H 178.373 6.3855 1.30757 0
M  V30 1937 N 181.806 0.884767 1.30421 0
M  V30 1938 C 182.769 0.356277 2.26414 0
M  V30 1939 C 183.769 -0.501124 1.52792 0
M  V30 1940 O 184.959 -0.30831 1.7145 0
M  V30 1941 C 182.091 -0.492316 3.37326 0
M  V30 1942 H 183.284 1.20389 2.74675 0
M  V30 1943 H 180.837 0.661607 1.41607 0
M  V30 1944 H 181.572 -1.36052 2.94381 0
M  V30 1945 H 181.357 0.121832 3.91911 0
M  V30 1946 H 182.847 -0.853871 4.08777 0
M  V30 1947 N 183.284 -1.43765 0.645699 0
M  V30 1948 C 184.7 -1.56509 0.312591 0
M  V30 1949 C 184.9 -1.6307 -1.18365 0
M  V30 1950 O 183.956 -1.58167 -1.96824 0
M  V30 1951 C 185.269 -2.82968 1.01733 0
M  V30 1952 C 186.817 -2.96701 0.996865 0
M  V30 1953 C 187.292 -4.25982 1.68236 0
M  V30 1954 N 188.783 -4.32829 1.64964 0
M  V30 1955 C 189.518 -5.31613 2.14885 0
M  V30 1956 N 189.014 -6.36718 2.73061 0
M  V30 1957 N 190.807 -5.23217 2.05428 0
M  V30 1958 H 182.958 -1.3775 1.61675 0
M  V30 1959 H 185.221 -0.661067 0.679481 0
M  V30 1960 H 184.927 -2.84156 2.0724 0
M  V30 1961 H 184.801 -3.72957 0.564177 0
M  V30 1962 H 187.188 -2.95058 -0.0497719 0
M  V30 1963 H 187.269 -2.08022 1.48865 0
M  V30 1964 H 186.913 -4.28386 2.72852 0
M  V30 1965 H 186.843 -5.13545 1.16529 0
M  V30 1966 H 189.334 -3.57493 1.22503 0
M  V30 1967 H 189.647 -7.08401 3.08848 0
M  V30 1968 H 187.992 -6.37362 2.77118 0
M  V30 1969 H 191.183 -4.40019 1.59689 0
M  V30 1970 H 191.356 -6.00045 2.44643 0
M  V30 1971 N 184.763 -0.387143 -1.52771 0
M  V30 1972 C 186.009 0.196025 -2.0185 0
M  V30 1973 C 186.342 1.46641 -1.27319 0
M  V30 1974 O 185.617 1.90889 -0.373032 0
M  V30 1975 C 185.9 0.466136 -3.5707 0
M  V30 1976 C 185.753 -0.819385 -4.42274 0
M  V30 1977 C 187.072 1.25768 -4.21747 0
M  V30 1978 H 184.191 0.0697708 -0.73369 0
M  V30 1979 H 186.833 -0.516286 -1.82851 0
M  V30 1980 H 184.983 1.07293 -3.7339 0
M  V30 1981 H 186.655 -1.4563 -4.37709 0
M  V30 1982 H 184.898 -1.43517 -4.09372 0
M  V30 1983 H 185.569 -0.585065 -5.48891 0
M  V30 1984 H 188.045 0.744167 -4.09391 0
M  V30 1985 H 186.921 1.41541 -5.30337 0
M  V30 1986 H 187.182 2.27228 -3.79236 0
M  V30 1987 N 186.241 1.57166 -0.116904 0
M  V30 1988 C 187.204 2.14039 0.819742 0
M  V30 1989 C 188.204 1.07477 1.19605 0
M  V30 1990 O 189.394 1.33263 1.1219 0
M  V30 1991 C 186.526 2.67891 2.10826 0
M  V30 1992 H 187.719 2.98128 0.325511 0
M  V30 1993 H 185.272 1.55739 0.132312 0
M  V30 1994 H 186.007 1.87384 2.64685 0
M  V30 1995 H 185.792 3.45823 1.84793 0
M  V30 1996 H 187.282 3.11809 2.77785 0
M  V30 1997 N 187.719 -0.156864 1.56817 0
M  V30 1998 C 188.965 -0.872416 1.83076 0
M  V30 1999 C 189.298 -1.81261 0.697001 0
M  V30 2000 O 188.573 -1.92171 -0.30008 0
M  V30 2001 C 188.856 -1.65551 3.19789 0
M  V30 2002 C 188.709 -0.737467 4.43713 0
M  V30 2003 C 190.028 -2.62012 3.53606 0
M  V30 2004 H 187.147 -0.315715 0.665953 0
M  V30 2005 H 189.789 -0.138004 1.89498 0
M  V30 2006 H 187.939 -2.28159 3.14445 0
M  V30 2007 H 189.611 -0.123143 4.61136 0
M  V30 2008 H 187.854 -0.0464067 4.33775 0
M  V30 2009 H 188.525 -1.32122 5.35955 0
M  V30 2010 H 191.001 -2.09525 3.59497 0
M  V30 2011 H 189.877 -3.13861 4.50314 0
M  V30 2012 H 190.138 -3.42902 2.79053 0
M  V30 2013 N 189.197 -1.51736 -0.425897 0
M  V30 2014 C 190.613 -1.40166 -0.76326 0
M  V30 2015 C 190.813 -0.492962 -1.95377 0
M  V30 2016 O 189.869 0.0475815 -2.52455 0
M  V30 2017 C 191.182 -2.82403 -1.03291 0
M  V30 2018 C 192.73 -2.91632 -1.13665 0
M  V30 2019 C 193.205 -4.34801 -1.43916 0
M  V30 2020 N 194.696 -4.3796 -1.50816 0
M  V30 2021 C 195.431 -5.4578 -1.75817 0
M  V30 2022 N 194.927 -6.63744 -1.98534 0
M  V30 2023 N 196.72 -5.33274 -1.77694 0
M  V30 2024 H 188.871 -2.09361 0.358 0
M  V30 2025 H 191.134 -0.942941 0.0978094 0
M  V30 2026 H 190.84 -3.50943 -0.230696 0
M  V30 2027 H 190.714 -3.22428 -1.95754 0
M  V30 2028 H 193.101 -2.23284 -1.92947 0
M  V30 2029 H 193.182 -2.55088 -0.190756 0
M  V30 2030 H 192.826 -5.03703 -0.65157 0
M  V30 2031 H 192.756 -4.68868 -2.39729 0
M  V30 2032 H 195.247 -3.52919 -1.35118 0
M  V30 2033 H 195.56 -7.41704 -2.17013 0
M  V30 2034 H 193.905 -6.66839 -1.95832 0
M  V30 2035 H 197.096 -4.40098 -1.59473 0
M  V30 2036 H 197.269 -6.1738 -1.9684 0
M  V30 2037 N 190.675 0.682077 -1.42076 0
M  V30 2038 C 191.623 1.81707 -1.45208 0
M  V30 2039 C 192.617 1.66183 -0.328591 0
M  V30 2040 O 193.823 1.7288 -0.501264 0
M  V30 2041 H 190.198 0.599014 -0.454628 0
M  V30 2042 H 192.169 1.76183 -2.40836 0
M  V30 2043 C 190.918 3.19816 -1.36428 0
M  V30 2044 H 190.241 3.32385 -2.22171 0
M  V30 2045 H 191.681 3.99272 -1.42681 0
M  V30 2046 C 190.14 3.36809 -0.078191 0
M  V30 2047 O 190.67 3.92124 0.87188 0
M  V30 2048 N 188.876 2.906 0.00229266 0
M  V30 2049 H 188.423 2.45772 -0.771616 0
M  V30 2050 H 188.381 3.02347 0.862179 0
M  V30 2051 N 192.153 1.28127 0.917671 0
M  V30 2052 C 193.399 1.15223 1.66888 0
M  V30 2053 C 193.732 -0.299293 1.9188 0
M  V30 2054 O 193.007 -1.21805 1.51637 0
M  V30 2055 C 193.29 1.94706 3.02922 0
M  V30 2056 C 193.143 3.47898 2.85109 0
M  V30 2057 C 194.462 1.75939 4.03402 0
M  V30 2058 H 191.581 0.419946 0.605652 0
M  V30 2059 H 194.223 1.57398 1.06423 0
M  V30 2060 H 192.373 1.58864 3.54534 0
M  V30 2061 H 194.045 3.93624 2.40537 0
M  V30 2062 H 192.288 3.7373 2.20246 0
M  V30 2063 H 192.959 3.98765 3.81694 0
M  V30 2064 H 195.435 2.07209 3.60837 0
M  V30 2065 H 194.311 2.33931 4.96556 0
M  V30 2066 H 194.572 0.709877 4.36364 0
M  V30 2067 N 193.631 -1.12557 1.10312 0
M  V30 2068 C 195.047 -1.36036 0.834649 0
M  V30 2069 C 195.247 -1.93946 -0.546539 0
M  V30 2070 O 194.303 -2.16484 -1.29966 0
M  V30 2071 C 195.616 -2.30312 1.9333 0
M  V30 2072 C 197.164 -2.43906 1.9616 0
M  V30 2073 C 197.639 -3.41496 3.05195 0
M  V30 2074 N 199.13 -3.49053 3.04494 0
M  V30 2075 C 199.865 -4.24471 3.85502 0
M  V30 2076 N 199.361 -5.02966 4.76442 0
M  V30 2077 N 201.154 -4.19864 3.73725 0
M  V30 2078 H 193.305 -0.733246 1.99342 0
M  V30 2079 H 195.568 -0.385234 0.866198 0
M  V30 2080 H 195.274 -1.94933 2.92735 0
M  V30 2081 H 195.148 -3.30421 1.81939 0
M  V30 2082 H 197.535 -2.78567 0.973886 0
M  V30 2083 H 197.616 -1.4369 2.11629 0
M  V30 2084 H 197.26 -3.07565 4.04186 0
M  V30 2085 H 197.19 -4.41539 2.86968 0
M  V30 2086 H 199.681 -2.93053 2.38596 0
M  V30 2087 H 199.994 -5.57846 5.34815 0
M  V30 2088 H 198.339 -5.02167 4.80472 0
M  V30 2089 H 201.53 -3.57623 3.02032 0
M  V30 2090 H 201.703 -4.78386 4.37093 0
M  V30 2091 N 195.109 -0.891671 -1.2995 0
M  V30 2092 C 196.525 -0.58662 -1.48428 0
M  V30 2093 C 196.725 0.873951 -1.81561 0
M  V30 2094 O 195.781 1.65471 -1.90724 0
M  V30 2095 C 197.094 -1.50553 -2.60296 0
M  V30 2096 C 198.642 -1.50988 -2.74175 0
M  V30 2097 C 199.117 -2.41488 -3.89163 0
M  V30 2098 N 200.608 -2.39489 -3.96483 0
M  V30 2099 C 201.343 -3.06223 -4.84784 0
M  V30 2100 N 200.839 -3.82206 -5.77833 0
M  V30 2101 N 202.632 -2.95421 -4.78208 0
M  V30 2102 H 194.783 -1.83644 -1.06718 0
M  V30 2103 H 197.046 -0.786455 -0.529332 0
M  V30 2104 H 196.752 -2.54581 -2.42654 0
M  V30 2105 H 196.626 -1.22008 -3.56923 0
M  V30 2106 H 199.013 -0.47708 -2.91218 0
M  V30 2107 H 199.094 -1.83567 -1.78148 0
M  V30 2108 H 198.738 -3.44857 -3.72876 0
M  V30 2109 H 198.668 -2.06222 -4.84541 0
M  V30 2110 H 201.159 -1.84278 -3.29924 0
M  V30 2111 H 201.472 -4.302 -6.41988 0
M  V30 2112 H 199.817 -3.86313 -5.77743 0
M  V30 2113 H 203.008 -2.35581 -4.04499 0
M  V30 2114 H 203.181 -3.47704 -5.46814 0
M  V30 2115 N 196.587 1.43421 -0.653314 0
M  V30 2116 C 197.864 1.95361 -0.0966581 0
M  V30 2117 C 198.244 1.59461 1.38331 0
M  V30 2118 O 197.592 0.879777 2.10884 0
M  V30 2119 C 197.802 3.47311 -0.342988 0
M  V30 2120 C 199.15 4.23875 -0.24798 0
M  V30 2121 O 200.174 3.55133 -0.275553 0
M  V30 2122 O 199.033 5.4623 -0.171771 0
M  V30 2123 H 196.127 0.826945 0.00956291 0
M  V30 2124 H 198.673 1.5336 -0.726558 0
M  V30 2125 H 197.445 3.66569 -1.36906 0
M  V30 2126 H 197.068 3.9631 0.319975 0
M  V30 2127 N 198.065 0.39524 1.52563 0
M  V30 2128 C 199.028 -0.425001 2.25225 0
M  V30 2129 C 200.028 -0.985266 1.27079 0
M  V30 2130 O 201.218 -0.866332 1.5113 0
M  V30 2131 C 198.35 -1.59686 3.01186 0
M  V30 2132 H 199.543 0.211233 2.99155 0
M  V30 2133 H 197.096 0.147472 1.55603 0
M  V30 2134 H 197.831 -2.27035 2.31572 0
M  V30 2135 H 197.616 -1.20176 3.73229 0
M  V30 2136 H 199.106 -2.17743 3.5634 0
M  V30 2137 N 199.544 -1.57102 0.125237 0
M  V30 2138 C 200.492 -2.16905 -0.839927 0
M  V30 2139 C 201.486 -1.11998 -1.27094 0
M  V30 2140 O 202.692 -1.3029 -1.24195 0
M  V30 2141 H 199.067 -0.694252 -0.288995 0
M  V30 2142 H 201.038 -2.96774 -0.311115 0
M  V30 2143 C 199.787 -2.78795 -2.07771 0
M  V30 2144 H 199.11 -3.59221 -1.755 0
M  V30 2145 H 200.55 -3.2417 -2.73295 0
M  V30 2146 C 199.009 -1.76193 -2.87155 0
M  V30 2147 O 199.539 -1.21909 -3.82755 0
M  V30 2148 N 197.745 -1.45991 -2.51267 0
M  V30 2149 H 197.292 -1.90325 -1.73592 0
M  V30 2150 H 197.25 -0.775844 -3.04677 0
M  V30 2151 N 201.022 0.148545 -1.56898 0
M  V30 2152 C 202.299 0.890019 -1.74178 0
M  V30 2153 C 202.679 1.99407 -0.692839 0
M  V30 2154 O 202.027 2.26671 0.288505 0
M  V30 2155 C 202.237 1.43389 -3.18183 0
M  V30 2156 C 203.585 1.89791 -3.79822 0
M  V30 2157 O 204.609 1.53134 -3.21603 0
M  V30 2158 O 203.468 2.57387 -4.82093 0
M  V30 2159 H 200.562 0.420496 -0.712118 0
M  V30 2160 H 203.108 0.134591 -1.69165 0
M  V30 2161 H 201.88 0.640383 -3.86024 0
M  V30 2162 H 201.503 2.25287 -3.27615 0
M  V30 2163 N 202.5 1.5196 0.417844 0
M  V30 2164 C 203.447 1.74678 1.50852 0
M  V30 2165 C 204.417 0.588947 1.55308 0
M  V30 2166 O 205.602 0.825544 1.72016 0
M  V30 2167 C 202.742 1.89544 2.88387 0
M  V30 2168 C 201.855 3.17166 2.93309 0
M  V30 2169 C 200.99 3.22513 4.22088 0
M  V30 2170 C 200.029 4.44372 4.20951 0
M  V30 2171 N 199.166 4.47161 5.41287 0
M  V30 2172 H 204.006 2.67768 1.30783 0
M  V30 2173 H 201.543 1.32689 0.63498 0
M  V30 2174 H 203.501 1.96146 3.68216 0
M  V30 2175 H 202.131 0.998424 3.06971 0
M  V30 2176 H 201.183 3.19778 2.06024 0
M  V30 2177 H 202.495 4.07021 2.88332 0
M  V30 2178 H 201.649 3.28139 5.10303 0
M  V30 2179 H 200.388 2.30581 4.29748 0
M  V30 2180 H 199.393 4.38902 3.31127 0
M  V30 2181 H 200.618 5.3759 4.14938 0
M  V30 2182 H 198.564 3.58108 5.49632 0
M  V30 2183 H 198.481 5.3085 5.3827 0
M  V30 2184 H 199.749 4.57005 6.3148 0
M  V30 2185 N 203.978 -0.674533 1.42435 0
M  V30 2186 C 205.224 -1.43671 1.43131 0
M  V30 2187 C 205.557 -1.94142 0.0476021 0
M  V30 2188 O 204.832 -1.70924 -0.928188 0
M  V30 2189 C 205.115 -2.63355 2.45594 0
M  V30 2190 C 204.968 -2.18514 3.93156 0
M  V30 2191 C 206.287 -3.65571 2.45043 0
M  V30 2192 H 203.406 -0.521077 0.521198 0
M  V30 2193 H 206.048 -0.766551 1.7385 0
M  V30 2194 H 204.198 -3.2053 2.19528 0
M  V30 2195 H 205.87 -1.66504 4.30202 0
M  V30 2196 H 204.113 -1.50086 4.07009 0
M  V30 2197 H 204.784 -3.04484 4.60428 0
M  V30 2198 H 207.26 -3.18113 2.68223 0
M  V30 2199 H 206.136 -4.46893 3.18713 0
M  V30 2200 H 206.397 -4.16716 1.47649 0
M  V30 2201 N 205.456 -1.28612 -0.910864 0
M  V30 2202 C 206.403 -1.12786 -2.01365 0
M  V30 2203 C 207.373 -0.024201 -1.66082 0
M  V30 2204 O 208.558 -0.189667 -1.89855 0
M  V30 2205 C 205.698 -0.798743 -3.35729 0
M  V30 2206 C 204.811 -1.98173 -3.83864 0
M  V30 2207 C 203.946 -1.59298 -5.06752 0
M  V30 2208 C 202.985 -2.74245 -5.47226 0
M  V30 2209 N 202.122 -2.35842 -6.61304 0
M  V30 2210 H 206.962 -2.07142 -2.14234 0
M  V30 2211 H 204.499 -1.03093 -1.0493 0
M  V30 2212 H 206.457 -0.588662 -4.13026 0
M  V30 2213 H 205.087 0.10789 -3.2262 0
M  V30 2214 H 204.139 -2.30386 -3.02699 0
M  V30 2215 H 205.451 -2.84343 -4.09818 0
M  V30 2216 H 204.605 -1.34513 -5.916 0
M  V30 2217 H 203.344 -0.702618 -4.82612 0
M  V30 2218 H 202.349 -2.99725 -4.60918 0
M  V30 2219 H 203.574 -3.63928 -5.73353 0
M  V30 2220 H 201.52 -1.49279 -6.38789 0
M  V30 2221 H 201.437 -3.15546 -6.86998 0
M  V30 2222 H 202.705 -2.14348 -7.4945 0
M  V30 2223 N 206.934 1.1197 -1.10907 0
M  V30 2224 C 207.897 2.16031 -0.765707 0
M  V30 2225 C 208.897 1.59393 0.212235 0
M  V30 2226 O 210.087 1.74196 -0.0115441 0
M  V30 2227 C 207.219 3.40632 -0.135053 0
M  V30 2228 H 208.412 2.47919 -1.68748 0
M  V30 2229 H 205.965 1.27061 -0.910226 0
M  V30 2230 H 206.7 3.14348 0.797218 0
M  V30 2231 H 206.485 3.8302 -0.838937 0
M  V30 2232 H 207.975 4.17505 0.0892469 0
M  V30 2233 N 208.412 0.89855 1.29475 0
M  V30 2234 C 209.342 0.39201 2.30186 0
M  V30 2235 C 210.323 -0.532359 1.61555 0
M  V30 2236 O 211.508 -0.443331 1.89072 0
M  V30 2237 C 208.638 -0.382353 3.45189 0
M  V30 2238 C 207.592 0.451483 4.25612 0
M  V30 2239 C 206.918 -0.450307 5.328 0
M  V30 2240 C 208.218 1.70079 4.93832 0
M  V30 2241 H 209.912 1.23362 2.72804 0
M  V30 2242 H 207.458 0.594638 1.31149 0
M  V30 2243 H 209.411 -0.747451 4.14718 0
M  V30 2244 H 208.135 -1.25774 3.01411 0
M  V30 2245 H 206.794 0.798897 3.57789 0
M  V30 2246 H 206.442 -1.32379 4.85268 0
M  V30 2247 H 206.142 0.103902 5.87508 0
M  V30 2248 H 207.666 -0.811623 6.05182 0
M  V30 2249 H 209.08 1.40549 5.55805 0
M  V30 2250 H 207.477 2.19623 5.58467 0
M  V30 2251 H 208.547 2.43744 4.19186 0
M  V30 2252 N 209.89 -1.43072 0.660911 0
M  V30 2253 C 210.82 -2.33497 -0.0122829 0
M  V30 2254 C 211.801 -1.49903 -0.803925 0
M  V30 2255 O 212.986 -1.78546 -0.763864 0
M  V30 2256 C 210.116 -3.33363 -0.973994 0
M  V30 2257 C 209.07 -4.27003 -0.291928 0
M  V30 2258 C 208.396 -5.16967 -1.36562 0
M  V30 2259 C 209.696 -5.15816 0.820462 0
M  V30 2260 H 211.39 -2.90038 0.742873 0
M  V30 2261 H 208.936 -1.39461 0.358688 0
M  V30 2262 H 210.889 -3.95524 -1.45392 0
M  V30 2263 H 209.613 -2.75095 -1.7604 0
M  V30 2264 H 208.272 -3.66217 0.167623 0
M  V30 2265 H 207.92 -4.55034 -2.14366 0
M  V30 2266 H 207.62 -5.80441 -0.914454 0
M  V30 2267 H 209.144 -5.82003 -1.84675 0
M  V30 2268 H 210.558 -5.71742 0.422366 0
M  V30 2269 H 208.955 -5.8805 1.19656 0
M  V30 2270 H 210.025 -4.55045 1.67518 0
M  V30 2271 N 211.368 -0.403325 -1.52352 0
M  V30 2272 C 212.315 0.425011 -2.26853 0
M  V30 2273 C 213.285 1.04598 -1.29029 0
M  V30 2274 O 214.47 1.07135 -1.57882 0
M  V30 2275 C 211.61 1.53888 -3.08889 0
M  V30 2276 C 210.723 0.939396 -4.21663 0
M  V30 2277 C 209.858 2.02547 -4.91068 0
M  V30 2278 C 208.897 1.40263 -5.95813 0
M  V30 2279 N 208.034 2.4286 -6.58759 0
M  V30 2280 H 212.874 -0.21674 -2.97211 0
M  V30 2281 H 210.411 -0.118722 -1.4662 0
M  V30 2282 H 212.369 2.19558 -3.54753 0
M  V30 2283 H 210.999 2.15074 -2.40714 0
M  V30 2284 H 210.051 0.171898 -3.80011 0
M  V30 2285 H 211.363 0.44436 -4.96817 0
M  V30 2286 H 210.517 2.75958 -5.40308 0
M  V30 2287 H 209.256 2.55415 -4.15469 0
M  V30 2288 H 208.261 0.653833 -5.45898 0
M  V30 2289 H 209.486 0.881719 -6.73352 0
M  V30 2290 H 207.432 2.94871 -5.85992 0
M  V30 2291 H 207.349 1.98152 -7.2957 0
M  V30 2292 H 208.617 3.15858 -7.12639 0
M  V30 2293 N 212.846 1.57033 -0.133567 0
M  V30 2294 C 214.123 1.87256 0.56522 0
M  V30 2295 C 214.503 1.03726 1.83859 0
M  V30 2296 O 213.851 0.120247 2.28183 0
M  V30 2297 C 214.061 3.3865 0.843636 0
M  V30 2298 C 215.409 4.07574 1.19032 0
M  V30 2299 O 216.433 3.43752 0.933429 0
M  V30 2300 O 215.292 5.20259 1.67312 0
M  V30 2301 H 212.386 0.775678 0.286796 0
M  V30 2302 H 214.932 1.68855 -0.169168 0
M  V30 2303 H 213.704 3.91257 -0.0581149 0
M  V30 2304 H 213.327 3.62532 1.63268 0
M  V30 2305 N 214.325 -0.140222 1.56975 0
M  V30 2306 C 215.272 -1.17292 1.98774 0
M  V30 2307 C 216.242 -1.4232 0.856408 0
M  V30 2308 O 217.427 -1.54541 1.119 0
M  V30 2309 C 214.567 -2.49973 2.37923 0
M  V30 2310 C 213.68 -2.32062 3.64378 0
M  V30 2311 C 212.815 -3.57825 3.926 0
M  V30 2312 C 211.854 -3.3498 5.12303 0
M  V30 2313 N 210.991 -4.52891 5.36502 0
M  V30 2314 H 215.831 -0.809472 2.86795 0
M  V30 2315 H 213.368 -0.388237 1.41884 0
M  V30 2316 H 215.326 -3.27346 2.58652 0
M  V30 2317 H 213.956 -2.84252 1.52972 0
M  V30 2318 H 213.008 -1.45711 3.51387 0
M  V30 2319 H 214.32 -2.11145 4.51906 0
M  V30 2320 H 213.474 -4.43624 4.13863 0
M  V30 2321 H 212.213 -3.81753 3.03506 0
M  V30 2322 H 211.218 -2.4757 4.90906 0
M  V30 2323 H 212.443 -3.12444 6.02956 0
M  V30 2324 H 210.389 -4.76979 4.50363 0
M  V30 2325 H 210.306 -4.35001 6.18312 0
M  V30 2326 H 211.574 -5.39884 5.62268 0
M  V30 2327 N 215.803 -1.52179 -0.40978 0
M  V30 2328 C 216.713 -1.78364 -1.52392 0
M  V30 2329 C 217.729 -0.669183 -1.60617 0
M  V30 2330 O 218.905 -0.954518 -1.77344 0
M  V30 2331 C 215.97 -1.92822 -2.88133 0
M  V30 2332 C 215.031 -3.16725 -2.898 0
M  V30 2333 C 214.264 -3.30483 -4.19067 0
M  V30 2334 O 214.487 -2.49522 -5.12928 0
M  V30 2335 O 213.421 -4.2363 -4.27576 0
M  V30 2336 H 217.247 -2.72931 -1.33201 0
M  V30 2337 H 214.832 -1.37016 -0.59557 0
M  V30 2338 H 216.714 -2.04157 -3.68643 0
M  V30 2339 H 215.389 -1.01444 -3.07393 0
M  V30 2340 H 214.296 -3.10848 -2.08146 0
M  V30 2341 H 215.629 -4.07881 -2.75489 0
M  V30 2342 N 217.281 0.66697 -1.42791 0
M  V30 2343 C 218.53 1.42278 -1.42968 0
M  V30 2344 C 218.843 1.9553 -0.0524489 0
M  V30 2345 O 220.049 2.71414 0.068363 0
M  V30 2346 C 218.505 2.57418 -2.51524 0
M  V30 2347 C 218.113 2.10832 -3.9529 0
M  V30 2348 C 219.857 3.34878 -2.60877 0
M  V30 2349 C 217.764 3.23101 -4.95338 0
M  V30 2350 H 216.694 0.534533 -0.531781 0
M  V30 2351 H 219.345 0.721302 -1.68729 0
M  V30 2352 H 217.727 3.29971 -2.18941 0
M  V30 2353 H 218.901 1.4538 -4.37266 0
M  V30 2354 H 217.216 1.46289 -3.89857 0
M  V30 2355 H 219.813 4.18505 -3.32802 0
M  V30 2356 H 220.156 3.81993 -1.6549 0
M  V30 2357 H 220.689 2.69398 -2.92693 0
M  V30 2358 H 217.428 2.80969 -5.9223 0
M  V30 2359 H 216.948 3.87309 -4.57987 0
M  V30 2360 H 218.627 3.88447 -5.17415 0
M  V30 2361 N 218.759 1.29093 0.90403 0
M  V30 2362 C 219.984 1.19809 1.69294 0
M  V30 2363 C 220.409 -0.238481 1.86582 0
M  V30 2364 O 219.767 -1.1723 1.383 0
M  V30 2365 C 219.815 1.91202 3.05736 0
M  V30 2366 O 218.919 1.22611 3.93752 0
M  V30 2367 H 218.26 0.415385 0.518027 0
M  V30 2368 H 220.79 1.70586 1.12967 0
M  V30 2369 H 220.8 1.99487 3.55906 0
M  V30 2370 H 219.475 2.95692 2.92471 0
M  V30 2371 H 218.052 1.22554 3.52186 0
M  V30 2372 N 220.237 -1.11381 1.11499 0
M  V30 2373 C 221.147 -2.21019 0.786628 0
M  V30 2374 C 222.163 -1.72597 -0.220507 0
M  V30 2375 O 223.339 -2.01321 -0.0565251 0
M  V30 2376 C 220.404 -3.459 0.235333 0
M  V30 2377 C 219.465 -4.09107 1.30115 0
M  V30 2378 C 218.698 -5.28027 0.776068 0
M  V30 2379 O 218.921 -5.6904 -0.393661 0
M  V30 2380 O 217.855 -5.81835 1.54114 0
M  V30 2381 H 221.681 -2.51521 1.70209 0
M  V30 2382 H 219.266 -1.19928 0.890928 0
M  V30 2383 H 221.148 -4.21346 -0.067715 0
M  V30 2384 H 219.823 -3.17049 -0.652828 0
M  V30 2385 H 218.73 -3.35391 1.65722 0
M  V30 2386 H 220.063 -4.42139 2.16273 0
M  V30 2387 N 221.715 -0.905404 -1.28997 0
M  V30 2388 C 222.992 -0.453513 -1.9027 0
M  V30 2389 C 223.372 1.06721 -1.82137 0
M  V30 2390 O 222.72 1.91159 -1.25182 0
M  V30 2391 C 222.93 -0.974494 -3.35119 0
M  V30 2392 C 224.278 -1.0216 -4.12127 0
M  V30 2393 O 225.302 -0.922557 -3.44046 0
M  V30 2394 O 224.161 -1.17121 -5.33802 0
M  V30 2395 H 221.255 -0.142347 -0.814657 0
M  V30 2396 H 223.801 -0.995642 -1.37423 0
M  V30 2397 H 222.573 -2.01848 -3.35221 0
M  V30 2398 H 222.196 -0.412706 -3.95452 0
M  V30 2399 N 223.193 1.4272 -0.668489 0
M  V30 2400 C 224.47 1.95248 -0.117373 0
M  V30 2401 C 224.85 1.60919 1.36632 0
M  V30 2402 O 224.198 0.902095 2.09939 0
M  V30 2403 C 224.408 3.46927 -0.379806 0
M  V30 2404 C 225.756 4.23588 -0.292923 0
M  V30 2405 O 226.78 3.5482 -0.313204 0
M  V30 2406 O 225.639 5.46017 -0.229697 0
M  V30 2407 H 222.733 0.827 0.00079152 0
M  V30 2408 H 225.279 1.52581 -0.742783 0
M  V30 2409 H 224.051 3.65096 -1.40786 0
M  V30 2410 H 223.674 3.96627 0.277923 0
M  V30 2411 N 224.671 0.411399 1.52136 0
M  V30 2412 C 225.948 -0.222308 1.94333 0
M  V30 2413 C 226.328 -1.6242 1.34844 0
M  V30 2414 O 225.676 -2.22384 0.525145 0
M  V30 2415 C 225.886 -0.226345 3.48265 0
M  V30 2416 C 227.234 -0.444592 4.22266 0
M  V30 2417 O 228.258 -0.305602 3.54887 0
M  V30 2418 O 227.117 -0.718749 5.41753 0
M  V30 2419 H 224.211 -0.143907 0.814383 0
M  V30 2420 H 226.757 0.467506 1.63133 0
M  V30 2421 H 225.529 0.75475 3.83952 0
M  V30 2422 H 225.152 -0.960163 3.85832 0
M  V30 2423 N 226.149 -1.5696 0.141893 0
M  V30 2424 C 227.565 -1.58151 -0.21456 0
M  V30 2425 C 227.765 -1.1559 -1.65049 0
M  V30 2426 O 226.821 -0.853832 -2.37626 0
M  V30 2427 C 228.134 -3.00674 0.0395576 0
M  V30 2428 C 229.682 -3.1299 -0.0245529 0
M  V30 2429 C 230.157 -4.57554 0.202167 0
M  V30 2430 N 231.648 -4.62961 0.148919 0
M  V30 2431 C 232.383 -5.7262 0.298924 0
M  V30 2432 N 231.879 -6.90947 0.50637 0
M  V30 2433 N 233.672 -5.61601 0.236886 0
M  V30 2434 H 225.823 -1.8292 1.07953 0
M  V30 2435 H 228.086 -0.846425 0.42693 0
M  V30 2436 H 227.792 -3.36183 1.03315 0
M  V30 2437 H 227.666 -3.70981 -0.682143 0
M  V30 2438 H 230.053 -2.77326 -1.00869 0
M  V30 2439 H 230.134 -2.4518 0.729396 0
M  V30 2440 H 229.778 -4.93922 1.18338 0
M  V30 2441 H 229.708 -5.23484 -0.572044 0
M  V30 2442 H 232.199 -3.77899 -0.00697015 0
M  V30 2443 H 232.512 -7.7038 0.611076 0
M  V30 2444 H 230.857 -6.92878 0.542628 0
M  V30 2445 H 234.048 -4.68039 0.0756209 0
M  V30 2446 H 234.221 -6.47015 0.357227 0
M  V30 2447 N 227.627 0.131896 -1.57047 0
M  V30 2448 C 229.043 0.485031 -1.52051 0
M  V30 2449 C 229.243 1.82563 -0.85281 0
M  V30 2450 O 228.299 2.48817 -0.429694 0
M  V30 2451 C 229.612 0.481409 -2.96821 0
M  V30 2452 C 231.16 0.565868 -3.07842 0
M  V30 2453 C 231.635 0.592762 -4.54148 0
M  V30 2454 N 233.126 0.654564 -4.58552 0
M  V30 2455 C 233.861 0.696608 -5.69153 0
M  V30 2456 N 233.357 0.697078 -6.89284 0
M  V30 2457 N 235.15 0.738639 -5.57226 0
M  V30 2458 H 227.301 -0.746664 -1.98843 0
M  V30 2459 H 229.564 -0.273999 -0.90754 0
M  V30 2460 H 229.27 -0.435731 -3.4899 0
M  V30 2461 H 229.144 1.3139 -3.53577 0
M  V30 2462 H 231.531 1.47343 -2.55684 0
M  V30 2463 H 231.612 -0.29406 -2.54104 0
M  V30 2464 H 231.256 -0.310701 -5.06949 0
M  V30 2465 H 231.186 1.46939 -5.05684 0
M  V30 2466 H 233.677 0.660887 -3.72076 0
M  V30 2467 H 233.99 0.731426 -7.69331 0
M  V30 2468 H 232.335 0.66471 -6.91814 0
M  V30 2469 H 235.526 0.735545 -4.62285 0
M  V30 2470 H 235.699 0.767938 -6.43434 0
M  V30 2471 N 229.106 1.52395 0.401703 0
M  V30 2472 C 230.331 1.70972 1.17403 0
M  V30 2473 C 230.756 0.421615 1.83314 0
M  V30 2474 O 230.114 -0.621564 1.70312 0
M  V30 2475 C 230.162 2.85151 2.20728 0
M  V30 2476 O 229.266 2.51238 3.27037 0
M  V30 2477 H 228.607 0.568927 0.342372 0
M  V30 2478 H 231.137 1.99131 0.469891 0
M  V30 2479 H 231.147 3.10279 2.64936 0
M  V30 2480 H 229.822 3.78603 1.7214 0
M  V30 2481 H 228.399 2.36808 2.88057 0
M  V30 2482 N 230.584 -0.659388 1.43143 0
M  V30 2483 C 231.516 -1.7849 1.43784 0
M  V30 2484 C 232.529 -1.5932 0.334787 0
M  V30 2485 O 233.718 -1.68155 0.598842 0
M  V30 2486 C 230.818 -3.15828 1.22906 0
M  V30 2487 C 229.991 -3.61711 2.45934 0
M  V30 2488 C 229.05 -4.77831 2.20371 0
M  V30 2489 O 228.076 -4.87586 2.93681 0
M  V30 2490 N 229.278 -5.67611 1.21647 0
M  V30 2491 H 232.043 -1.7842 2.40803 0
M  V30 2492 H 229.604 -0.84302 1.3822 0
M  V30 2493 H 231.596 -3.91189 1.03697 0
M  V30 2494 H 230.166 -3.10707 0.343542 0
M  V30 2495 H 229.386 -2.76861 2.80609 0
M  V30 2496 H 230.674 -3.89112 3.27825 0
M  V30 2497 H 230.072 -5.62397 0.610449 0
M  V30 2498 H 228.629 -6.42719 1.08423 0
M  V30 2499 N 232.062 -1.29571 -0.897171 0
M  V30 2500 C 233.339 -1.08365 -1.62839 0
M  V30 2501 C 233.719 0.371331 -2.07808 0
M  V30 2502 O 233.067 1.3606 -1.83576 0
M  V30 2503 C 233.277 -2.0735 -2.80726 0
M  V30 2504 C 234.625 -2.38406 -3.51351 0
M  V30 2505 O 235.649 -2.05564 -2.90898 0
M  V30 2506 O 234.508 -2.9453 -4.60341 0
M  V30 2507 H 231.602 -0.415345 -0.715134 0
M  V30 2508 H 234.148 -1.40952 -0.945018 0
M  V30 2509 H 232.92 -3.05339 -2.44711 0
M  V30 2510 H 232.543 -1.75507 -3.56767 0
M  V30 2511 N 233.54 1.10788 -1.12088 0
M  V30 2512 C 234.817 1.79136 -0.785476 0
M  V30 2513 C 235.197 1.98246 0.725377 0
M  V30 2514 O 234.545 1.57258 1.65778 0
M  V30 2515 C 234.755 3.12375 -1.55636 0
M  V30 2516 C 236.103 3.8731 -1.74001 0
M  V30 2517 O 237.127 3.22085 -1.52117 0
M  V30 2518 O 235.986 5.04369 -2.10415 0
M  V30 2519 H 233.08 0.776226 -0.285311 0
M  V30 2520 H 235.626 1.1747 -1.2247 0
M  V30 2521 H 234.398 2.93863 -2.5838 0
M  V30 2522 H 234.021 3.81758 -1.11114 0
M  V30 2523 N 235.018 0.912232 1.28515 0
M  V30 2524 C 236.264 0.545405 1.95328 0
M  V30 2525 C 236.597 -0.908313 1.71649 0
M  V30 2526 O 235.872 -1.64575 1.03659 0
M  V30 2527 C 236.155 0.853483 3.4984 0
M  V30 2528 C 236.008 2.35982 3.82926 0
M  V30 2529 C 237.327 0.348589 4.38717 0
M  V30 2530 H 234.446 0.199626 0.709449 0
M  V30 2531 H 237.088 1.1412 1.5191 0
M  V30 2532 H 235.238 0.34643 3.86952 0
M  V30 2533 H 236.91 2.93738 3.55691 0
M  V30 2534 H 235.153 2.81543 3.30024 0
M  V30 2535 H 235.824 2.52593 4.90816 0
M  V30 2536 H 238.3 0.78294 4.08668 0
M  V30 2537 H 237.176 0.593242 5.45685 0
M  V30 2538 H 237.437 -0.751049 4.35674 0
M  V30 2539 N 236.496 -1.42363 0.676048 0
M  V30 2540 C 237.428 -2.29164 -0.0404605 0
M  V30 2541 C 238.441 -1.43747 -0.764245 0
M  V30 2542 O 239.63 -1.67453 -0.618195 0
M  V30 2543 C 236.73 -3.21196 -1.08103 0
M  V30 2544 C 235.903 -4.35273 -0.430812 0
M  V30 2545 C 234.962 -5.08017 -1.37133 0
M  V30 2546 O 233.988 -5.62494 -0.87116 0
M  V30 2547 N 235.19 -5.13647 -2.70456 0
M  V30 2548 H 237.955 -2.91298 0.704667 0
M  V30 2549 H 235.516 -1.53303 0.520559 0
M  V30 2550 H 237.508 -3.66728 -1.71152 0
M  V30 2551 H 236.078 -2.60505 -1.72788 0
M  V30 2552 H 235.298 -3.92372 0.379209 0
M  V30 2553 H 236.586 -5.08795 0.0221132 0
M  V30 2554 H 235.984 -4.708 -3.1363 0
M  V30 2555 H 234.541 -5.62821 -3.28749 0
M  V30 2556 N 237.974 -0.419461 -1.51915 0
M  V30 2557 C 238.921 0.400927 -2.27291 0
M  V30 2558 C 239.891 1.03224 -1.30131 0
M  V30 2559 O 241.076 1.05455 -1.59009 0
M  V30 2560 C 238.216 1.50603 -3.10504 0
M  V30 2561 C 237.329 0.89462 -4.22635 0
M  V30 2562 C 236.464 1.97328 -4.93189 0
M  V30 2563 C 235.503 1.33935 -5.97267 0
M  V30 2564 N 234.64 2.3586 -6.61298 0
M  V30 2565 H 239.48 -0.248251 -2.96964 0
M  V30 2566 H 237.017 -0.134266 -1.46486 0
M  V30 2567 H 238.975 2.15783 -3.57062 0
M  V30 2568 H 237.605 2.12509 -2.42981 0
M  V30 2569 H 236.657 0.131583 -3.80172 0
M  V30 2570 H 237.969 0.391641 -4.9726 0
M  V30 2571 H 237.123 2.70211 -5.43204 0
M  V30 2572 H 235.862 2.50994 -4.18155 0
M  V30 2573 H 234.867 0.595896 -5.46561 0
M  V30 2574 H 236.092 0.810252 -6.74249 0
M  V30 2575 H 234.038 2.88639 -5.89087 0
M  V30 2576 H 233.955 1.90403 -7.3163 0
M  V30 2577 H 235.223 3.08282 -7.15949 0
M  V30 2578 N 239.452 1.56882 -0.150215 0
M  V30 2579 C 240.382 2.19935 0.784284 0
M  V30 2580 C 241.363 1.14854 1.25469 0
M  V30 2581 O 242.548 1.43209 1.31168 0
M  V30 2582 C 239.678 2.82349 2.02229 0
M  V30 2583 C 238.632 3.93285 1.68853 0
M  V30 2584 C 237.958 4.42649 2.99944 0
M  V30 2585 C 239.258 5.13904 0.932714 0
M  V30 2586 H 240.952 2.9828 0.258781 0
M  V30 2587 H 238.498 1.43473 0.123029 0
M  V30 2588 H 240.451 3.25126 2.68088 0
M  V30 2589 H 239.175 2.0134 2.57157 0
M  V30 2590 H 237.834 3.5113 1.05371 0
M  V30 2591 H 237.482 3.58458 3.52869 0
M  V30 2592 H 237.182 5.17476 2.78374 0
M  V30 2593 H 238.706 4.88099 3.66868 0
M  V30 2594 H 240.12 5.53506 1.49345 0
M  V30 2595 H 238.517 5.94515 0.81684 0
M  V30 2596 H 239.587 4.84842 -0.0749568 0
M  V30 2597 N 240.93 -0.123565 1.57115 0
M  V30 2598 C 242.158 -0.846461 1.88793 0
M  V30 2599 C 242.573 -1.73652 0.740976 0
M  V30 2600 O 241.93 -1.80207 -0.288393 0
M  V30 2601 C 241.981 -1.6837 3.19897 0
M  V30 2602 O 241.702 -0.829477 4.30176 0
M  V30 2603 C 243.203 -2.51214 3.65248 0
M  V30 2604 H 240.423 -0.243573 0.625231 0
M  V30 2605 H 242.967 -0.109324 2.04208 0
M  V30 2606 H 241.122 -2.37364 3.06165 0
M  V30 2607 H 241.536 -1.40651 5.0529 0
M  V30 2608 H 243.01 -3.05497 4.59756 0
M  V30 2609 H 243.487 -3.28359 2.9168 0
M  V30 2610 H 244.093 -1.8747 3.81752 0
M  V30 2611 N 242.408 -1.52605 -0.393616 0
M  V30 2612 C 243.685 -1.58001 -1.15304 0
M  V30 2613 C 244.065 -0.370385 -2.07825 0
M  V30 2614 O 243.413 0.641638 -2.19306 0
M  V30 2615 C 243.623 -2.91652 -1.91677 0
M  V30 2616 C 244.971 -3.4522 -2.47201 0
M  V30 2617 O 245.995 -2.93495 -2.01839 0
M  V30 2618 O 244.854 -4.35579 -3.3005 0
M  V30 2619 H 241.948 -0.637068 -0.527327 0
M  V30 2620 H 244.494 -1.64939 -0.399141 0
M  V30 2621 H 243.266 -3.71136 -1.23992 0
M  V30 2622 H 242.889 -2.88077 -2.74039 0
M  V30 2623 N 243.887 0.651787 -1.4349 0
M  V30 2624 C 244.85 1.74647 -1.48429 0
M  V30 2625 C 245.85 1.56513 -0.368817 0
M  V30 2626 O 247.04 1.62385 -0.630623 0
M  V30 2627 C 244.172 3.13533 -1.33827 0
M  V30 2628 H 245.365 1.71649 -2.4592 0
M  V30 2629 H 242.918 0.863573 -1.30277 0
M  V30 2630 H 243.653 3.22142 -0.37349 0
M  V30 2631 H 243.438 3.28101 -2.14691 0
M  V30 2632 H 244.928 3.93356 -1.40218 0
M  V30 2633 N 245.365 1.30045 0.890287 0
M  V30 2634 C 246.328 1.15963 1.977 0
M  V30 2635 C 247.328 0.0923777 1.60534 0
M  V30 2636 O 248.518 0.340071 1.70848 0
M  V30 2637 C 245.65 0.775451 3.31963 0
M  V30 2638 H 246.843 2.12502 2.11619 0
M  V30 2639 H 244.396 1.13366 1.07601 0
M  V30 2640 H 245.131 -0.189671 3.23745 0
M  V30 2641 H 244.916 1.54668 3.60306 0
M  V30 2642 H 246.406 0.700251 4.11687 0
M  V30 2643 N 246.843 -1.10192 1.12674 0
M  V30 2644 C 248.092 -1.81573 0.8783 0
M  V30 2645 C 248.405 -1.86249 -0.597557 0
M  V30 2646 O 249.611 -2.5386 -0.962681 0
M  V30 2647 C 248.067 -3.26149 1.52167 0
M  V30 2648 C 247.675 -3.29763 3.03249 0
M  V30 2649 C 249.419 -4.0234 1.3536 0
M  V30 2650 C 247.326 -4.68815 3.60508 0
M  V30 2651 H 246.256 -0.680394 0.324931 0
M  V30 2652 H 248.907 -1.23902 1.35353 0
M  V30 2653 H 247.289 -3.83832 0.974104 0
M  V30 2654 H 248.463 -2.8189 3.6452 0
M  V30 2655 H 246.778 -2.67059 3.19481 0
M  V30 2656 H 249.375 -5.05058 1.75559 0
M  V30 2657 H 249.718 -4.15235 0.297554 0
M  V30 2658 H 250.251 -3.51079 1.87052 0
M  V30 2659 H 246.99 -4.61121 4.65884 0
M  V30 2660 H 246.51 -5.17045 3.04014 0
M  V30 2661 H 248.189 -5.37785 3.59717 0
M  V30 2662 N 248.321 -0.919034 -1.28029 0
M  V30 2663 C 249.268 -0.410005 -2.27129 0
M  V30 2664 C 250.238 0.518405 -1.57803 0
M  V30 2665 O 251.423 0.439451 -1.8567 0
M  V30 2666 C 248.563 0.339054 -3.4343 0
M  V30 2667 C 247.676 -0.622468 -4.27492 0
M  V30 2668 C 246.811 0.145567 -5.31001 0
M  V30 2669 C 245.85 -0.809226 -6.06727 0
M  V30 2670 N 244.987 -0.0743728 -7.02061 0
M  V30 2671 H 249.827 -1.26011 -2.70047 0
M  V30 2672 H 247.364 -0.632663 -1.328 0
M  V30 2673 H 249.322 0.789586 -4.0966 0
M  V30 2674 H 247.952 1.15346 -3.01488 0
M  V30 2675 H 247.004 -1.19153 -3.61257 0
M  V30 2676 H 248.316 -1.35252 -4.80113 0
M  V30 2677 H 247.47 0.656417 -6.03139 0
M  V30 2678 H 246.209 0.908643 -4.79161 0
M  V30 2679 H 245.214 -1.3314 -5.33436 0
M  V30 2680 H 246.439 -1.57194 -6.60656 0
M  V30 2681 H 244.385 0.670616 -6.52563 0
M  V30 2682 H 244.302 -0.744157 -7.52329 0
M  V30 2683 H 245.57 0.416109 -7.78389 0
M  V30 2684 N 249.799 1.42003 -0.683588 0
M  V30 2685 C 250.746 2.30798 -0.0107309 0
M  V30 2686 C 251.716 1.4645 0.783688 0
M  V30 2687 O 252.901 1.75263 0.754156 0
M  V30 2688 C 250.041 3.3238 0.928306 0
M  V30 2689 C 249.154 4.31814 0.126776 0
M  V30 2690 C 248.289 5.20468 1.06236 0
M  V30 2691 C 247.328 6.11577 0.253035 0
M  V30 2692 N 246.465 6.92754 1.14179 0
M  V30 2693 H 251.305 2.8778 -0.773727 0
M  V30 2694 H 248.842 1.41745 -0.393283 0
M  V30 2695 H 250.8 3.89813 1.48666 0
M  V30 2696 H 249.43 2.76976 1.65783 0
M  V30 2697 H 248.482 3.76427 -0.54833 0
M  V30 2698 H 249.794 4.96276 -0.501192 0
M  V30 2699 H 248.948 5.82677 1.69035 0
M  V30 2700 H 247.687 4.56204 1.7242 0
M  V30 2701 H 246.692 5.48428 -0.388108 0
M  V30 2702 H 247.917 6.77892 -0.404839 0
M  V30 2703 H 245.863 6.3111 1.78987 0
M  V30 2704 H 245.78 7.53855 0.569111 0
M  V30 2705 H 247.048 7.59441 1.75697 0
M  V30 2706 N 251.277 0.427512 1.51691 0
M  V30 2707 C 252.526 -0.143679 2.01188 0
M  V30 2708 C 252.839 -1.44642 1.31674 0
M  V30 2709 O 254.045 -2.09997 1.72086 0
M  V30 2710 C 252.501 -0.306602 3.58592 0
M  V30 2711 C 252.109 0.985125 4.37035 0
M  V30 2712 C 253.853 -0.832091 4.16265 0
M  V30 2713 C 251.76 0.788382 5.86122 0
M  V30 2714 H 250.69 -0.0574701 0.751807 0
M  V30 2715 H 253.341 0.555772 1.74881 0
M  V30 2716 H 251.723 -1.06882 3.81303 0
M  V30 2717 H 252.897 1.75492 4.26074 0
M  V30 2718 H 251.212 1.4384 3.90767 0
M  V30 2719 H 253.809 -0.995617 5.25349 0
M  V30 2720 H 254.152 -1.81186 3.74803 0
M  V30 2721 H 254.685 -0.128444 3.97593 0
M  V30 2722 H 251.424 1.74025 6.31978 0
M  V30 2723 H 250.944 0.0582143 5.99772 0
M  V30 2724 H 252.623 0.437722 6.45518 0
M  V30 2725 N 252.755 -1.56801 0.158532 0
M  V30 2726 C 253.665 -2.20916 -0.789518 0
M  V30 2727 C 254.681 -1.1969 -1.26294 0
M  V30 2728 O 255.857 -1.52308 -1.31773 0
M  V30 2729 C 252.922 -2.82727 -2.00665 0
M  V30 2730 C 251.983 -3.99114 -1.58134 0
M  V30 2731 C 251.216 -4.57968 -2.74045 0
M  V30 2732 O 251.439 -4.15704 -3.90572 0
M  V30 2733 O 250.373 -5.48047 -2.48855 0
M  V30 2734 H 254.199 -3.02464 -0.273681 0
M  V30 2735 H 251.784 -1.4924 -0.0690548 0
M  V30 2736 H 253.666 -3.21968 -2.71872 0
M  V30 2737 H 252.341 -2.04184 -2.51179 0
M  V30 2738 H 251.248 -3.64567 -0.839155 0
M  V30 2739 H 252.581 -4.79212 -1.12325 0
M  V30 2740 N 254.233 0.115231 -1.57178 0
M  V30 2741 C 255.196 1.12526 -1.99676 0
M  V30 2742 C 256.196 1.34095 -0.88742 0
M  V30 2743 O 257.386 1.30548 -1.15337 0
M  V30 2744 C 254.518 2.4789 -2.34015 0
M  V30 2745 H 255.711 0.759912 -2.90113 0
M  V30 2746 H 253.264 0.359648 -1.52106 0
M  V30 2747 H 253.999 2.89339 -1.4647 0
M  V30 2748 H 253.784 2.33588 -3.14927 0
M  V30 2749 H 255.274 3.20575 -2.67622 0
M  V30 2750 N 255.711 1.52812 0.385517 0
M  V30 2751 C 256.674 1.77188 1.45386 0
M  V30 2752 C 257.674 0.641953 1.4743 0
M  V30 2753 O 258.864 0.910033 1.4854 0
M  V30 2754 C 255.996 1.87582 2.8465 0
M  V30 2755 H 257.189 2.72583 1.25054 0
M  V30 2756 H 254.742 1.43586 0.617467 0
M  V30 2757 H 255.477 0.941849 3.10322 0
M  V30 2758 H 255.262 2.69748 2.84567 0
M  V30 2759 H 256.752 2.08102 3.62054 0
M  V30 2760 N 257.189 -0.644168 1.43834 0
M  V30 2761 C 258.119 -1.76814 1.52509 0
M  V30 2762 C 259.1 -1.65823 0.379052 0
M  V30 2763 O 260.285 -1.84781 0.597466 0
M  V30 2764 C 257.415 -3.15288 1.4564 0
M  V30 2765 C 256.369 -3.41053 2.58586 0
M  V30 2766 C 255.695 -4.79421 2.36769 0
M  V30 2767 C 256.995 -3.34902 4.00797 0
M  V30 2768 H 258.689 -1.69812 2.46586 0
M  V30 2769 H 256.235 -0.815542 1.1868 0
M  V30 2770 H 258.188 -3.93681 1.50311 0
M  V30 2771 H 256.912 -3.23043 0.480725 0
M  V30 2772 H 255.571 -2.65035 2.53282 0
M  V30 2773 H 255.219 -4.83863 1.37424 0
M  V30 2774 H 254.919 -4.9762 3.12487 0
M  V30 2775 H 256.443 -5.6006 2.43238 0
M  V30 2776 H 257.857 -4.03218 4.07539 0
M  V30 2777 H 256.254 -3.64637 4.76613 0
M  V30 2778 H 257.324 -2.32928 4.25291 0
M  V30 2779 N 258.668 -1.30515 -0.883378 0
M  V30 2780 C 259.631 -1.1701 -1.97082 0
M  V30 2781 C 260.631 -0.10089 -1.60483 0
M  V30 2782 O 261.821 -0.349127 -1.70666 0
M  V30 2783 C 258.953 -0.793045 -3.31547 0
M  V30 2784 H 260.146 -2.13622 -2.10489 0
M  V30 2785 H 257.699 -1.13935 -1.06998 0
M  V30 2786 H 258.434 0.172499 -3.23841 0
M  V30 2787 H 258.219 -1.56576 -3.5948 0
M  V30 2788 H 259.709 -0.722073 -4.1131 0
M  V30 2789 N 260.146 1.09593 -1.13257 0
M  V30 2790 C 261.423 1.78293 -0.804432 0
M  V30 2791 C 261.803 1.99004 0.70431 0
M  V30 2792 O 261.151 1.59007 1.641 0
M  V30 2793 C 261.361 3.10707 -1.5894 0
M  V30 2794 C 262.709 3.85443 -1.78099 0
M  V30 2795 O 263.733 3.20454 -1.55525 0
M  V30 2796 O 262.592 5.02108 -2.15753 0
M  V30 2797 H 259.686 0.773156 -0.293528 0
M  V30 2798 H 262.232 1.16164 -1.23709 0
M  V30 2799 H 261.004 2.91106 -2.61482 0
M  V30 2800 H 260.627 3.80558 -1.15157 0
M  V30 2801 N 261.624 0.925811 1.2754 0
M  V30 2802 C 262.571 0.422045 2.26908 0
M  V30 2803 C 263.541 -0.510029 1.58076 0
M  V30 2804 O 264.726 -0.429599 1.85901 0
M  V30 2805 C 261.866 -0.320837 3.43605 0
M  V30 2806 C 260.979 0.64513 4.27156 0
M  V30 2807 C 260.114 -0.117405 5.3107 0
M  V30 2808 C 259.153 0.841391 6.0629 0
M  V30 2809 N 258.29 0.111604 7.02011 0
M  V30 2810 H 263.13 1.27441 2.69375 0
M  V30 2811 H 260.667 0.639697 1.32462 0
M  V30 2812 H 262.625 -0.76785 4.10073 0
M  V30 2813 H 261.255 -1.13745 3.02096 0
M  V30 2814 H 260.307 1.21067 3.6062 0
M  V30 2815 H 261.619 1.37797 4.79389 0
M  V30 2816 H 260.773 -0.624422 6.03478 0
M  V30 2817 H 259.512 -0.883219 4.79636 0
M  V30 2818 H 258.517 1.35967 5.32722 0
M  V30 2819 H 259.742 1.60696 6.59813 0
M  V30 2820 H 257.688 -0.635999 6.5291 0
M  V30 2821 H 257.605 0.784044 7.51923 0
M  V30 2822 H 258.873 -0.374823 7.78598 0
M  V30 2823 N 263.102 -1.41638 0.69111 0
M  V30 2824 C 264.012 -2.34588 0.0233487 0
M  V30 2825 C 265.028 -1.55987 -0.770984 0
M  V30 2826 O 266.204 -1.88486 -0.709569 0
M  V30 2827 C 263.269 -3.34684 -0.904851 0
M  V30 2828 C 262.33 -4.29176 -0.103225 0
M  V30 2829 C 261.563 -5.2449 -0.987216 0
M  V30 2830 O 261.786 -5.2514 -2.22674 0
M  V30 2831 O 260.72 -6.00295 -0.439281 0
M  V30 2832 H 264.546 -2.93261 0.789416 0
M  V30 2833 H 262.131 -1.42417 0.45142 0
M  V30 2834 H 264.013 -3.96133 -1.43724 0
M  V30 2835 H 262.688 -2.78461 -1.65049 0
M  V30 2836 H 261.595 -3.71089 0.473655 0
M  V30 2837 H 262.928 -4.88484 0.60365 0
M  V30 2838 N 264.58 -0.43555 -1.51462 0
M  V30 2839 C 265.543 0.365137 -2.26273 0
M  V30 2840 C 266.543 0.951227 -1.29647 0
M  V30 2841 O 267.733 0.825958 -1.53374 0
M  V30 2842 C 264.865 1.51645 -3.05314 0
M  V30 2843 H 266.058 -0.290474 -2.9849 0
M  V30 2844 H 263.611 -0.188676 -1.55157 0
M  V30 2845 H 264.346 2.20816 -2.3751 0
M  V30 2846 H 264.131 1.10238 -3.76284 0
M  V30 2847 H 265.621 2.08218 -3.61987 0
M  V30 2848 N 266.058 1.56714 -0.166846 0
M  V30 2849 C 266.968 2.21331 0.777791 0
M  V30 2850 C 267.984 1.20358 1.25658 0
M  V30 2851 O 269.16 1.53005 1.30964 0
M  V30 2852 C 266.225 2.83787 1.99163 0
M  V30 2853 C 265.286 3.99947 1.56016 0
M  V30 2854 C 264.519 4.59415 2.71613 0
M  V30 2855 O 264.742 4.17769 3.88362 0
M  V30 2856 O 263.676 5.49359 2.45945 0
M  V30 2857 H 267.502 3.02605 0.257636 0
M  V30 2858 H 265.087 1.49275 0.0611393 0
M  V30 2859 H 266.969 3.23405 2.70161 0
M  V30 2860 H 265.644 2.05513 2.50092 0
M  V30 2861 H 264.551 3.65007 0.819809 0
M  V30 2862 H 265.884 4.79801 1.09782 0
M  V30 2863 N 267.536 -0.106894 1.57237 0
M  V30 2864 C 268.466 -1.13148 2.04254 0
M  V30 2865 C 269.447 -1.42476 0.929224 0
M  V30 2866 O 270.632 -1.52709 1.19973 0
M  V30 2867 C 267.762 -2.4545 2.45706 0
M  V30 2868 C 266.716 -2.30558 3.60592 0
M  V30 2869 C 266.042 -3.67931 3.87983 0
M  V30 2870 C 267.342 -1.75597 4.91897 0
M  V30 2871 H 269.036 -0.740374 2.90101 0
M  V30 2872 H 266.582 -0.354696 1.39563 0
M  V30 2873 H 268.535 -3.17389 2.77205 0
M  V30 2874 H 267.259 -2.86475 1.56843 0
M  V30 2875 H 265.918 -1.61067 3.29322 0
M  V30 2876 H 265.566 -4.06462 2.96306 0
M  V30 2877 H 265.266 -3.58817 4.65322 0
M  V30 2878 H 266.79 -4.41356 4.21945 0
M  V30 2879 H 268.204 -2.37364 5.21854 0
M  V30 2880 H 266.601 -1.77272 5.73319 0
M  V30 2881 H 267.671 -0.714451 4.79608 0
M  V30 2882 N 269.014 -1.53014 -0.377408 0
M  V30 2883 C 269.947 -1.73382 -1.48371 0
M  V30 2884 C 270.925 -0.581879 -1.51832 0
M  V30 2885 O 272.109 -0.81307 -1.70063 0
M  V30 2886 C 269.236 -1.80192 -2.8679 0
M  V30 2887 C 268.282 -3.02056 -3.01105 0
M  V30 2888 S 269.115 -4.61811 -2.71093 0
M  V30 2889 C 270.271 -4.71453 -4.11683 0
M  V30 2890 H 270.504 -2.66946 -1.30872 0
M  V30 2891 H 268.037 -1.43453 -0.571012 0
M  V30 2892 H 269.995 -1.84802 -3.6655 0
M  V30 2893 H 268.656 -0.877008 -3.01608 0
M  V30 2894 H 267.849 -3.03396 -4.02451 0
M  V30 2895 H 267.451 -2.95498 -2.29253 0
M  V30 2896 H 269.743 -4.50781 -5.0577 0
M  V30 2897 H 270.686 -5.73487 -4.15353 0
M  V30 2898 H 271.094 -4.00189 -3.98132 0
M  V30 2899 N 270.492 0.636531 -1.44174 0
M  V30 2900 C 271.424 1.7618 -1.46606 0
M  V30 2901 C 272.437 1.58768 -0.360091 0
M  V30 2902 O 273.626 1.67181 -0.625518 0
M  V30 2903 C 270.726 3.13833 -1.27915 0
M  V30 2904 C 269.899 3.57753 -2.51658 0
M  V30 2905 C 268.958 4.74265 -2.27945 0
M  V30 2906 O 267.984 4.82852 -3.01401 0
M  V30 2907 N 269.186 5.65604 -1.30662 0
M  V30 2908 H 271.951 1.74567 -2.43612 0
M  V30 2909 H 269.512 0.820924 -1.39544 0
M  V30 2910 H 271.504 3.8949 -1.09907 0
M  V30 2911 H 270.074 3.10121 -0.39293 0
M  V30 2912 H 269.294 2.72362 -2.84978 0
M  V30 2913 H 270.582 3.83847 -3.33974 0
M  V30 2914 H 269.98 5.61354 -0.699844 0
M  V30 2915 H 268.537 6.40913 -1.18634 0
M  V30 2916 N 271.97 1.30982 0.876444 0
M  V30 2917 C 273.217 1.20296 1.62896 0
M  V30 2918 C 273.545 -0.240395 1.93009 0
M  V30 2919 O 272.8 -1.18733 1.55567 0
M  V30 2920 C 273.099 1.98572 2.9716 0
M  V30 2921 C 272.765 3.48125 2.86566 0
M  V30 2922 C 271.427 3.88905 2.83383 0
M  V30 2923 C 273.779 4.43322 2.74071 0
M  V30 2924 C 271.107 5.2316 2.65556 0
M  V30 2925 C 273.459 5.77695 2.57781 0
M  V30 2926 C 272.123 6.17704 2.52979 0
M  V30 2927 H 271.393 0.440193 0.59608 0
M  V30 2928 H 274.04 1.62177 1.01837 0
M  V30 2929 H 272.345 1.49352 3.62217 0
M  V30 2930 H 274.042 1.8769 3.54364 0
M  V30 2931 H 270.632 3.15723 2.89856 0
M  V30 2932 H 274.816 4.12752 2.75589 0
M  V30 2933 H 270.072 5.53241 2.60259 0
M  V30 2934 H 274.246 6.51091 2.47089 0
M  V30 2935 H 271.873 7.21678 2.38924 0
M  V30 2936 O 273.487 -1.01288 1.2579 0
M  V30 2937 H 274.178 -1.63193 1.04345 0
M  V30 END ATOM
M  V30 BEGIN BOND
M  V30 END BOND
M  V30 END CTAB
M  END
$$$$
