drugbank_target|P0A872 Transaldolase B (DB01815)
 OpenBabel12092119523D

  0  0  0     0  0            999 V3000
M  V30 BEGIN CTAB
M  V30 COUNTS 4987 5025 0 0 0
M  V30 BEGIN ATOM
M  V30 1 H -0.908 1.98254 -0.117106 0
M  V30 2 N 0 1.576 0 0
M  V30 3 C 0.933 2.03868 1.02534 0
M  V30 4 C 1.911 0.928543 1.3348 0
M  V30 5 O 3.095 1.19667 1.45644 0
M  V30 6 C 0.222 2.43627 2.35294 0
M  V30 7 C -0.732 3.65373 2.2001 0
M  V30 8 S 0.101 5.13292 1.52614 0
M  V30 9 C 1.257 5.56322 2.86805 0
M  V30 10 H 1.49 2.90518 0.631377 0
M  V30 11 H -0.977 1.52953 0.210867 0
M  V30 12 H 0.981 2.67203 3.11629 0
M  V30 13 H -0.358 1.57376 2.7183 0
M  V30 14 H -1.165 3.90944 3.18086 0
M  V30 15 H -1.563 3.418 1.51819 0
M  V30 16 H 0.729 5.58782 3.83104 0
M  V30 17 H 1.672 6.56266 2.65933 0
M  V30 18 H 2.08 4.83886 2.90714 0
M  V30 19 N 1.4781 -0.272755 1.55222 0
M  V30 20 C 2.7061 -1.02255 1.79865 0
M  V30 21 C 3.1211 -1.79924 0.572088 0
M  V30 22 O 2.4781 -1.76638 -0.458842 0
M  V30 23 C 2.5291 -1.98094 3.02392 0
M  V30 24 O 2.2501 -1.23572 4.20311 0
M  V30 25 C 3.7511 -2.84884 3.39641 0
M  V30 26 H 0.9711 -0.302057 0.599168 0
M  V30 27 H 3.5151 -0.303465 2.02236 0
M  V30 28 H 1.6701 -2.65465 2.82147 0
M  V30 29 H 2.0841 -1.88172 4.89583 0
M  V30 30 H 3.5581 -3.47927 4.28545 0
M  V30 31 H 4.0351 -3.54665 2.59055 0
M  V30 32 H 4.6411 -2.23003 3.62146 0
M  V30 33 N 2.9562 -1.48159 -0.537278 0
M  V30 34 C 4.2332 -1.46291 -1.29839 0
M  V30 35 C 4.6132 -0.170613 -2.10409 0
M  V30 36 O 3.9612 0.847746 -2.12192 0
M  V30 37 C 4.1712 -2.72055 -2.18603 0
M  V30 38 C 5.5192 -3.20087 -2.7898 0
M  V30 39 O 6.5432 -2.72921 -2.28894 0
M  V30 40 O 5.4022 -4.02138 -3.70064 0
M  V30 41 H 2.4962 -0.583906 -0.585647 0
M  V30 42 H 5.0422 -1.60384 -0.554534 0
M  V30 43 H 3.8142 -3.57628 -1.58801 0
M  V30 44 H 3.4372 -2.60646 -3.00249 0
M  V30 45 N 4.4343 0.785586 -1.36625 0
M  V30 46 C 5.3813 1.89838 -1.31264 0
M  V30 47 C 6.3513 1.65115 -0.180633 0
M  V30 48 O 7.5363 1.87222 -0.36777 0
M  V30 49 C 4.6763 3.26706 -1.11163 0
M  V30 50 C 3.7893 3.63476 -2.33472 0
M  V30 51 C 2.9243 4.89481 -2.06353 0
M  V30 52 C 1.9633 5.18941 -3.24602 0
M  V30 53 N 1.1003 6.36131 -2.97123 0
M  V30 54 H 5.9403 1.93756 -2.26413 0
M  V30 55 H 3.4773 0.947454 -1.12524 0
M  V30 56 H 5.4353 4.05639 -0.975337 0
M  V30 57 H 4.0653 3.222 -0.196674 0
M  V30 58 H 3.1173 2.79636 -2.57891 0
M  V30 59 H 4.4293 3.81193 -3.21704 0
M  V30 60 H 3.5833 5.76288 -1.89675 0
M  V30 61 H 2.3223 4.73841 -1.15437 0
M  V30 62 H 1.3273 4.30615 -3.41834 0
M  V30 63 H 2.5523 5.36498 -4.16349 0
M  V30 64 H 0.4983 6.21875 -2.08823 0
M  V30 65 H 0.4153 6.54198 -3.78894 0
M  V30 66 H 1.6833 7.2591 -2.84033 0
M  V30 67 N 5.9124 1.20967 1.01018 0
M  V30 68 C 6.8424 0.988272 2.11555 0
M  V30 69 C 7.8234 -0.0849778 1.69888 0
M  V30 70 O 9.0084 0.0738202 1.9406 0
M  V30 71 C 6.1384 0.546528 3.42973 0
M  V30 72 C 5.0924 1.56375 3.9841 0
M  V30 73 C 4.4184 0.97842 5.25672 0
M  V30 74 C 5.7184 2.94922 4.31066 0
M  V30 75 H 7.4124 1.91276 2.30334 0
M  V30 76 H 4.9584 0.921073 1.1069 0
M  V30 77 H 6.9114 0.378839 4.19694 0
M  V30 78 H 5.6354 -0.413598 3.23971 0
M  V30 79 H 4.2944 1.71891 3.23804 0
M  V30 80 H 3.9424 0.0101688 5.02999 0
M  V30 81 H 3.6424 1.65784 5.63728 0
M  V30 82 H 5.1664 0.821939 6.05043 0
M  V30 83 H 6.5804 2.8288 4.9865 0
M  V30 84 H 4.9774 3.5983 4.80253 0
M  V30 85 H 6.0474 3.4616 3.39561 0
M  V30 86 N 7.3905 -1.2043 1.01659 0
M  V30 87 C 8.6185 -1.93777 0.725132 0
M  V30 88 C 9.0335 -1.74772 -0.714166 0
M  V30 89 O 8.3905 -1.06169 -1.4844 0
M  V30 90 C 8.4415 -3.45876 1.05129 0
M  V30 91 O 8.1625 -3.6426 2.43406 0
M  V30 92 C 9.6635 -4.36368 0.780891 0
M  V30 93 H 6.8835 -0.615901 0.266284 0
M  V30 94 H 9.4275 -1.52922 1.35776 0
M  V30 95 H 7.5825 -3.8461 0.464065 0
M  V30 96 H 7.9965 -4.58246 2.55169 0
M  V30 97 H 9.4705 -5.41743 1.05918 0
M  V30 98 H 9.9475 -4.38275 -0.284937 0
M  V30 99 H 10.5535 -4.03296 1.35027 0
M  V30 100 N 8.8686 -0.792821 -1.36206 0
M  V30 101 C 10.0936 -0.377701 -2.03932 0
M  V30 102 C 10.5186 0.998947 -1.59382 0
M  V30 103 O 9.8766 1.64421 -0.763903 0
M  V30 104 C 9.9246 -0.453635 -3.57735 0
M  V30 105 O 9.0286 0.538151 -4.08874 0
M  V30 106 H 8.3696 -0.159855 -0.644471 0
M  V30 107 H 10.8996 -1.07488 -1.7409 0
M  V30 108 H 10.9096 -0.318464 -4.06755 0
M  V30 109 H 9.5846 -1.45784 -3.89512 0
M  V30 110 H 8.1616 0.364359 -3.71116 0
M  V30 111 N 10.3467 1.47872 -0.545128 0
M  V30 112 C 11.2767 2.32661 0.197793 0
M  V30 113 C 12.2577 1.43041 0.920504 0
M  V30 114 O 13.4427 1.71912 0.90333 0
M  V30 115 C 10.5727 3.24569 1.23582 0
M  V30 116 C 9.5267 4.23333 0.630323 0
M  V30 117 C 8.8527 5.0448 1.77211 0
M  V30 118 C 10.1527 5.20704 -0.407974 0
M  V30 119 H 11.8467 2.95024 -0.510045 0
M  V30 120 H 9.3927 1.4187 -0.246731 0
M  V30 121 H 11.3457 3.8272 1.76362 0
M  V30 122 H 10.0697 2.60236 1.97344 0
M  V30 123 H 8.7287 3.6639 0.123922 0
M  V30 124 H 8.3767 4.36561 2.49847 0
M  V30 125 H 8.0767 5.71339 1.37281 0
M  V30 126 H 9.6007 5.65487 2.3034 0
M  V30 127 H 11.0147 5.7329 0.033305 0
M  V30 128 H 9.4117 5.95699 -0.725486 0
M  V30 129 H 10.4817 4.66917 -1.30828 0
M  V30 130 N 11.8248 0.280983 1.55075 0
M  V30 131 C 13.2408 -0.0729964 1.59433 0
M  V30 132 C 13.4408 -1.5411 1.29817 0
M  V30 133 O 12.4968 -2.29086 1.06187 0
M  V30 134 C 13.8098 0.306921 2.9913 0
M  V30 135 C 15.3578 0.254023 3.11968 0
M  V30 136 C 15.8328 0.608467 4.5394 0
M  V30 137 N 17.3238 0.560241 4.59799 0
M  V30 138 C 18.0588 0.80722 5.6769 0
M  V30 139 N 17.5548 1.11912 6.83701 0
M  V30 140 N 19.3478 0.735623 5.57266 0
M  V30 141 H 11.4988 1.238 1.7259 0
M  V30 142 H 13.7618 0.500547 0.805082 0
M  V30 143 H 13.4678 1.32816 3.25657 0
M  V30 144 H 13.3418 -0.349363 3.75579 0
M  V30 145 H 15.7288 -0.75794 2.852 0
M  V30 146 H 15.8098 0.944649 2.37718 0
M  V30 147 H 15.4538 1.61814 4.81434 0
M  V30 148 H 15.3838 -0.104013 5.26497 0
M  V30 149 H 17.8748 0.329288 3.76463 0
M  V30 150 H 18.1878 1.29409 7.61888 0
M  V30 151 H 16.5328 1.15695 6.85303 0
M  V30 152 H 19.7238 0.491752 4.6551 0
M  V30 153 H 19.8968 0.931482 6.4127 0
M  V30 154 N 13.3029 -1.57598 0.00835791 0
M  V30 155 C 14.2349 -2.05811 -1.00868 0
M  V30 156 C 15.2479 -0.977579 -1.30182 0
M  V30 157 O 16.4369 -1.25421 -1.27011 0
M  V30 158 C 13.5369 -2.45016 -2.34137 0
M  V30 159 C 12.7099 -3.75903 -2.23643 0
M  V30 160 C 11.7689 -4.01884 -3.3967 0
M  V30 161 O 10.7949 -4.72433 -3.17483 0
M  V30 162 N 11.9969 -3.50432 -4.62793 0
M  V30 163 H 14.7619 -2.93684 -0.597458 0
M  V30 164 H 12.3229 -1.60909 -0.178852 0
M  V30 165 H 14.3149 -2.59506 -3.10546 0
M  V30 166 H 12.8849 -1.62618 -2.66972 0
M  V30 167 H 12.1049 -3.7141 -1.32091 0
M  V30 168 H 13.3929 -4.61695 -2.13812 0
M  V30 169 H 12.7909 -2.93317 -4.83716 0
M  V30 170 H 11.3479 -3.70236 -5.3644 0
M  V30 171 N 14.781 0.264519 -1.55364 0
M  V30 172 C 16.011 1.01153 -1.80143 0
M  V30 173 C 16.419 1.80115 -0.579253 0
M  V30 174 O 15.762 1.77813 0.46132 0
M  V30 175 C 15.824 2.01098 -2.97993 0
M  V30 176 C 15.488 1.40995 -4.34706 0
M  V30 177 C 16.485 0.821316 -5.13372 0
M  V30 178 C 14.17 1.43461 -4.81378 0
M  V30 179 C 16.164 0.265339 -6.36847 0
M  V30 180 C 13.851 0.874771 -6.04807 0
M  V30 181 C 14.849 0.291146 -6.82379 0
M  V30 182 O 14.537 -0.260093 -8.03479 0
M  V30 183 H 14.269 0.304125 -0.603725 0
M  V30 184 H 16.823 0.298089 -2.03225 0
M  V30 185 H 15.053 2.76224 -2.70623 0
M  V30 186 H 16.742 2.61997 -3.1002 0
M  V30 187 H 17.508 0.794903 -4.78442 0
M  V30 188 H 13.387 1.87826 -4.21002 0
M  V30 189 H 16.931 -0.190837 -6.97339 0
M  V30 190 H 12.828 0.898452 -6.39217 0
M  V30 191 H 13.596 -0.150265 -8.18362 0
M  V30 192 N 16.2591 1.48442 0.529413 0
M  V30 193 C 17.4871 1.60151 1.30994 0
M  V30 194 C 17.9021 0.261985 1.86973 0
M  V30 195 O 17.2591 -0.748805 1.66431 0
M  V30 196 C 17.3101 2.64854 2.46038 0
M  V30 197 O 17.0311 3.93608 1.92365 0
M  V30 198 C 18.5321 2.87007 3.37849 0
M  V30 199 H 15.7521 0.539971 0.398338 0
M  V30 200 H 18.2961 1.94273 0.638597 0
M  V30 201 H 16.4511 2.33589 3.09055 0
M  V30 202 H 16.8651 4.51055 2.67675 0
M  V30 203 H 18.3391 3.64068 4.14919 0
M  V30 204 H 18.8161 1.95852 3.93114 0
M  V30 205 H 19.4221 3.19579 2.80623 0
M  V30 206 N 17.7372 -0.778329 1.37039 0
M  V30 207 C 18.9652 -1.56734 1.35063 0
M  V30 208 C 19.3802 -1.88686 -0.0655597 0
M  V30 209 O 18.7372 -1.5096 -1.02554 0
M  V30 210 C 18.7882 -2.88163 2.18276 0
M  V30 211 O 18.5092 -2.57583 3.54376 0
M  V30 212 C 20.0102 -3.82422 2.24206 0
M  V30 213 H 17.2302 -0.485778 0.462883 0
M  V30 214 H 19.7742 -0.965185 1.8029 0
M  V30 215 H 17.9292 -3.44818 1.76576 0
M  V30 216 H 18.3432 -3.41699 3.97922 0
M  V30 217 H 19.8172 -4.71667 2.86765 0
M  V30 218 H 20.2942 -4.21078 1.24861 0
M  V30 219 H 20.9002 -3.31697 2.6619 0
M  V30 220 N 19.2153 -1.21501 -1.00376 0
M  V30 221 C 20.4613 -1.03452 -1.74429 0
M  V30 222 C 20.7943 0.430764 -1.89362 0
M  V30 223 O 20.0693 1.31962 -1.42886 0
M  V30 224 C 20.3523 -1.73375 -3.15615 0
M  V30 225 C 20.2053 -3.27431 -3.08397 0
M  V30 226 C 21.5243 -1.47732 -4.14564 0
M  V30 227 H 18.6433 -0.377226 -0.633143 0
M  V30 228 H 21.2853 -1.49693 -1.17013 0
M  V30 229 H 19.4353 -1.34064 -3.64636 0
M  V30 230 H 21.1073 -3.76119 -2.67081 0
M  V30 231 H 19.3503 -3.5767 -2.45468 0
M  V30 232 H 20.0213 -3.71524 -4.08258 0
M  V30 233 H 22.4973 -1.8186 -3.74254 0
M  V30 234 H 21.3733 -1.99169 -5.11491 0
M  V30 235 H 21.6343 -0.407589 -4.40217 0
M  V30 236 N 20.6934 1.19889 -1.02296 0
M  V30 237 C 21.9394 1.89701 -0.717033 0
M  V30 238 C 22.2724 1.7905 0.751989 0
M  V30 239 O 21.5474 1.17891 1.547 0
M  V30 240 C 21.8304 3.40858 -1.16136 0
M  V30 241 C 21.6834 3.60411 -2.69117 0
M  V30 242 C 23.0024 4.33876 -0.737549 0
M  V30 243 H 20.1214 0.688874 -0.261957 0
M  V30 244 H 22.7634 1.41154 -1.27183 0
M  V30 245 H 20.9134 3.82335 -0.689342 0
M  V30 246 H 22.5854 3.28145 -3.2422 0
M  V30 247 H 20.8284 3.03665 -3.0979 0
M  V30 248 H 21.4994 4.66396 -2.95261 0
M  V30 249 H 23.9754 4.00081 -1.14344 0
M  V30 250 H 22.8514 5.38242 -1.0764 0
M  V30 251 H 23.1124 4.40628 0.360436 0
M  V30 252 N 22.1715 0.800033 1.35784 0
M  V30 253 C 23.1345 0.211565 2.28221 0
M  V30 254 C 24.1345 -0.59728 1.49296 0
M  V30 255 O 25.3245 -0.416721 1.69142 0
M  V30 256 C 22.4565 -0.705846 3.33513 0
M  V30 257 H 23.6495 1.02677 2.81776 0
M  V30 258 H 21.2025 0.570211 1.45528 0
M  V30 259 H 21.9375 -1.54498 2.85133 0
M  V30 260 H 21.7225 -0.127655 3.91892 0
M  V30 261 H 23.2125 -1.11211 4.02519 0
M  V30 262 N 23.6496 -1.47581 0.552962 0
M  V30 263 C 24.9266 -1.95563 -0.0381515 0
M  V30 264 C 25.3066 -1.49552 -1.48988 0
M  V30 265 O 24.6546 -0.732414 -2.16444 0
M  V30 266 C 24.8646 -3.48848 0.102919 0
M  V30 267 C 26.2126 -4.24577 -0.0446082 0
M  V30 268 O 27.2366 -3.56187 0.0302548 0
M  V30 269 O 26.0956 -5.46116 -0.204923 0
M  V30 270 H 23.1896 -0.824321 -0.0665067 0
M  V30 271 H 25.7356 -1.58001 0.619186 0
M  V30 272 H 24.5076 -3.75129 1.11328 0
M  V30 273 H 24.1306 -3.93165 -0.592224 0
M  V30 274 N 25.1277 -0.289203 -1.54924 0
M  V30 275 C 26.3557 0.326463 -2.04308 0
M  V30 276 C 26.7707 1.48413 -1.16701 0
M  V30 277 O 26.1277 1.81507 -0.190087 0
M  V30 278 C 26.1787 0.794014 -3.52672 0
M  V30 279 O 25.8997 -0.317564 -4.36948 0
M  V30 280 C 27.4007 1.47605 -4.18004 0
M  V30 281 H 24.6207 0.0726272 -0.667058 0
M  V30 282 H 27.1647 -0.425401 -2.00026 0
M  V30 283 H 25.3197 1.49593 -3.57352 0
M  V30 284 H 25.7337 0.0443186 -5.24481 0
M  V30 285 H 27.2077 1.75447 -5.23376 0
M  V30 286 H 27.6847 2.41224 -3.67025 0
M  V30 287 H 28.2907 0.81762 -4.17367 0
M  V30 288 N 26.6058 1.57591 -0.0167156 0
M  V30 289 C 27.8538 1.90906 0.663285 0
M  V30 290 C 28.1748 0.892509 1.73376 0
M  V30 291 O 27.4448 -0.0677623 1.95783 0
M  V30 292 H 26.0248 0.704637 0.247983 0
M  V30 293 H 28.6868 1.94803 -0.0615909 0
M  V30 294 H 27.7828 2.9116 1.12393 0
M  V30 295 N 28.0839 -0.256276 1.55502 0
M  V30 296 C 29.3609 -1.00789 1.67633 0
M  V30 297 C 29.7409 -2.03706 0.553826 0
M  V30 298 O 29.0889 -2.24145 -0.443969 0
M  V30 299 C 29.2989 -1.64968 3.07549 0
M  V30 300 C 30.6469 -2.15505 3.65845 0
M  V30 301 O 31.6709 -1.74925 3.1029 0
M  V30 302 O 30.5299 -2.89986 4.63217 0
M  V30 303 H 27.6239 -0.468553 0.681459 0
M  V30 304 H 30.1699 -0.250806 1.67836 0
M  V30 305 H 28.9419 -0.904785 3.80696 0
M  V30 306 H 28.5649 -2.47321 3.11317 0
M  V30 307 N 29.562 -1.4872 -0.521534 0
M  V30 308 C 30.811 -1.56419 -1.27341 0
M  V30 309 C 31.124 -0.246805 -1.94037 0
M  V30 310 O 32.33 -0.202122 -2.70747 0
M  V30 311 C 30.786 -2.75896 -2.31105 0
M  V30 312 C 30.394 -4.14311 -1.70441 0
M  V30 313 C 32.138 -2.92913 -3.07249 0
M  V30 314 C 30.045 -5.25038 -2.72194 0
M  V30 315 H 28.975 -0.582344 -0.478949 0
M  V30 316 H 31.626 -1.75071 -0.549779 0
M  V30 317 H 30.008 -2.50697 -3.06541 0
M  V30 318 H 31.182 -4.49564 -1.01136 0
M  V30 319 H 29.497 -4.02482 -1.06759 0
M  V30 320 H 32.094 -3.72805 -3.83302 0
M  V30 321 H 32.437 -2.02689 -3.63625 0
M  V30 322 H 32.97 -3.18054 -2.38928 0
M  V30 323 H 29.709 -6.17255 -2.20627 0
M  V30 324 H 29.229 -4.94263 -3.39801 0
M  V30 325 H 30.908 -5.53508 -3.35019 0
M  V30 326 N 31.0401 0.771051 -1.3745 0
M  V30 327 C 32.0031 1.86598 -1.33093 0
M  V30 328 C 33.0031 1.59076 -0.234845 0
M  V30 329 O 34.1931 1.67145 -0.490732 0
M  V30 330 C 31.3251 3.23747 -1.06773 0
M  V30 331 H 32.5181 1.91873 -2.30488 0
M  V30 332 H 30.0711 0.970876 -1.2249 0
M  V30 333 H 30.8061 3.24148 -0.099129 0
M  V30 334 H 30.5911 3.45115 -1.86112 0
M  V30 335 H 32.0811 4.03824 -1.06377 0
M  V30 336 N 32.5182 1.22032 0.997298 0
M  V30 337 C 33.4812 0.987909 2.06816 0
M  V30 338 C 34.4812 -0.0440084 1.6074 0
M  V30 339 O 35.6712 0.194053 1.73116 0
M  V30 340 C 32.8032 0.49132 3.37341 0
M  V30 341 H 33.9962 1.93803 2.28868 0
M  V30 342 H 31.5492 1.03838 1.16822 0
M  V30 343 H 32.2842 -0.463364 3.20973 0
M  V30 344 H 32.0692 1.23575 3.72118 0
M  V30 345 H 33.5592 0.348824 4.16141 0
M  V30 346 N 33.9963 -1.19345 1.0293 0
M  V30 347 C 34.9293 -2.21347 0.555029 0
M  V30 348 C 35.9073 -1.57492 -0.404351 0
M  V30 349 O 37.0913 -1.85741 -0.321352 0
M  V30 350 C 34.2183 -3.38163 -0.19064 0
M  V30 351 C 33.2643 -4.20375 0.720236 0
M  V30 352 S 34.0973 -4.88371 2.19668 0
M  V30 353 C 35.2533 -6.08597 1.46153 0
M  V30 354 H 35.4863 -2.61235 1.41929 0
M  V30 355 H 33.0193 -1.29598 0.839272 0
M  V30 356 H 34.9773 -4.05871 -0.614724 0
M  V30 357 H 33.6383 -2.9671 -1.03063 0
M  V30 358 H 32.8313 -5.03793 0.14455 0
M  V30 359 H 32.4333 -3.57987 1.08266 0
M  V30 360 H 34.7253 -6.73354 0.748357 0
M  V30 361 H 35.6683 -6.7065 2.27233 0
M  V30 362 H 36.0763 -5.56297 0.958842 0
M  V30 363 N 35.4744 -0.807222 -1.35358 0
M  V30 364 C 36.4214 -0.216037 -2.29787 0
M  V30 365 C 37.3914 0.650278 -1.52842 0
M  V30 366 O 38.5764 0.595227 -1.81278 0
M  V30 367 C 35.7164 0.628893 -3.39321 0
M  V30 368 C 34.8294 -0.257927 -4.31229 0
M  V30 369 C 33.9644 0.595069 -5.27856 0
M  V30 370 C 33.0034 -0.292111 -6.11403 0
M  V30 371 N 32.1404 0.520895 -7.00165 0
M  V30 372 H 36.9804 -1.02671 -2.79755 0
M  V30 373 H 34.5174 -0.517839 -1.37684 0
M  V30 374 H 36.4754 1.13393 -4.01494 0
M  V30 375 H 35.1054 1.40482 -2.90628 0
M  V30 376 H 34.1574 -0.881076 -3.70056 0
M  V30 377 H 35.4694 -0.940759 -4.89848 0
M  V30 378 H 34.6234 1.16522 -5.95405 0
M  V30 379 H 33.3624 1.31146 -4.69736 0
M  V30 380 H 32.3674 -0.874525 -5.428 0
M  V30 381 H 33.5924 -1.00638 -6.71602 0
M  V30 382 H 31.5384 1.22125 -6.44532 0
M  V30 383 H 31.4554 -0.103877 -7.55929 0
M  V30 384 H 32.7234 1.0743 -7.72062 0
M  V30 385 N 36.9525 1.47285 -0.560781 0
M  V30 386 C 37.8825 2.32857 0.173105 0
M  V30 387 C 38.8635 1.44009 0.905281 0
M  V30 388 O 40.0485 1.7286 0.885046 0
M  V30 389 C 37.1785 3.25861 1.20133 0
M  V30 390 C 36.1325 4.23978 0.585388 0
M  V30 391 C 35.4585 5.06332 1.7185 0
M  V30 392 C 36.7585 5.20242 -0.463178 0
M  V30 393 H 38.4525 2.94466 -0.541307 0
M  V30 394 H 35.9985 1.41601 -0.261764 0
M  V30 395 H 37.9515 3.84569 1.72293 0
M  V30 396 H 36.6755 2.62315 1.94573 0
M  V30 397 H 35.3345 3.66501 0.085054 0
M  V30 398 H 34.9825 4.39186 2.45203 0
M  V30 399 H 34.6825 5.72762 1.31213 0
M  V30 400 H 36.2065 5.67899 2.24329 0
M  V30 401 H 37.6205 5.73293 -0.027502 0
M  V30 402 H 36.0175 5.94896 -0.788627 0
M  V30 403 H 37.0875 4.65504 -1.35773 0
M  V30 404 N 38.4306 0.297415 1.54768 0
M  V30 405 C 39.6606 -0.315165 2.04182 0
M  V30 406 C 40.0686 -1.4834 1.17439 0
M  V30 407 O 39.4116 -1.82695 0.191891 0
M  V30 408 C 39.4736 -0.837583 3.49607 0
M  V30 409 C 39.1376 0.204912 4.5654 0
M  V30 410 C 40.1346 1.03214 5.09552 0
M  V30 411 C 37.8196 0.345578 5.0111 0
M  V30 412 C 39.8136 1.986 6.05671 0
M  V30 413 C 37.5006 1.30289 5.97049 0
M  V30 414 C 38.4986 2.12159 6.49213 0
M  V30 415 O 38.1866 3.06268 7.43273 0
M  V30 416 H 37.9186 -0.0729646 0.672051 0
M  V30 417 H 40.4726 0.433907 2.00765 0
M  V30 418 H 38.7026 -1.63712 3.50336 0
M  V30 419 H 40.3916 -1.36566 3.82236 0
M  V30 420 H 41.1576 0.934312 4.75916 0
M  V30 421 H 37.0366 -0.28171 4.60138 0
M  V30 422 H 40.5806 2.62542 6.46311 0
M  V30 423 H 36.4776 1.40145 6.30103 0
M  V30 424 H 37.2456 3.01205 7.61064 0
M  V30 425 N 39.9087 -1.5758 0.0250728 0
M  V30 426 C 40.8407 -2.06869 -0.986796 0
M  V30 427 C 41.8537 -0.991332 -1.29137 0
M  V30 428 O 43.0427 -1.26761 -1.25674 0
M  V30 429 C 40.1427 -2.47486 -2.31525 0
M  V30 430 C 39.3157 -3.78253 -2.19643 0
M  V30 431 C 38.3747 -4.05464 -3.35388 0
M  V30 432 O 37.4007 -4.75774 -3.12454 0
M  V30 433 N 38.6027 -3.55321 -4.59051 0
M  V30 434 H 41.3677 -2.94302 -0.566276 0
M  V30 435 H 38.9287 -1.6109 -0.161776 0
M  V30 436 H 40.9207 -2.62785 -3.07776 0
M  V30 437 H 39.4907 -1.65441 -2.65232 0
M  V30 438 H 38.7107 -3.7279 -1.28144 0
M  V30 439 H 39.9987 -4.63936 -2.08903 0
M  V30 440 H 39.3967 -2.98431 -4.80578 0
M  V30 441 H 37.9537 -3.75905 -5.32483 0
M  V30 442 N 41.3868 0.248026 -1.55636 0
M  V30 443 C 42.7978 0.817177 -1.67866 0
M  V30 444 C 43.1488 1.86069 -0.622322 0
M  V30 445 O 42.2738 2.15157 0.231618 0
M  V30 446 C 42.8688 1.489 -3.04326 0
M  V30 447 C 41.4278 2.00587 -3.185 0
M  V30 448 C 40.5748 0.856573 -2.63739 0
M  V30 449 H 43.5258 0.0238579 -1.58682 0
M  V30 450 H 43.5468 2.35698 -2.98708 0
M  V30 451 H 43.0588 0.729279 -3.81186 0
M  V30 452 H 41.1598 2.79443 -2.4646 0
M  V30 453 H 41.2728 2.20402 -4.25393 0
M  V30 454 H 39.6368 1.25678 -2.21534 0
M  V30 455 H 40.4198 0.109953 -3.43124 0
M  V30 456 N 42.8649 1.48995 0.513639 0
M  V30 457 C 43.7969 1.60836 1.63293 0
M  V30 458 C 44.8099 0.491701 1.55197 0
M  V30 459 O 45.9989 0.763238 1.6136 0
M  V30 460 C 43.0989 1.53731 3.02027 0
M  V30 461 C 42.2719 2.80715 3.35437 0
M  V30 462 C 41.3309 2.66837 4.53525 0
M  V30 463 O 40.3569 3.40753 4.55934 0
M  V30 464 N 41.5589 1.77539 5.52684 0
M  V30 465 H 44.3239 2.57366 1.53566 0
M  V30 466 H 41.8849 1.45925 0.701259 0
M  V30 467 H 43.8769 1.42118 3.78926 0
M  V30 468 H 42.4469 0.651092 3.05744 0
M  V30 469 H 41.6669 3.06772 2.47557 0
M  V30 470 H 42.9549 3.64927 3.54551 0
M  V30 471 H 42.3529 1.16719 5.53528 0
M  V30 472 H 40.9099 1.71856 6.28736 0
M  V30 473 N 44.343 -0.763751 1.37857 0
M  V30 474 C 45.62 -1.51244 1.24035 0
M  V30 475 C 46 -2.10472 -0.162649 0
M  V30 476 O 45.348 -1.96206 -1.17112 0
M  V30 477 C 45.558 -2.58694 2.34261 0
M  V30 478 C 46.906 -3.25878 2.72193 0
M  V30 479 O 47.93 -2.68993 2.33497 0
M  V30 480 O 46.789 -4.2874 3.38887 0
M  V30 481 H 43.883 -0.670243 0.484462 0
M  V30 482 H 46.429 -0.800031 1.49658 0
M  V30 483 H 45.201 -2.13105 3.2818 0
M  V30 484 H 44.824 -3.37527 2.10146 0
M  V30 485 N 45.8211 -1.22559 -0.990812 0
M  V30 486 C 46.7841 -0.998863 -2.0629 0
M  V30 487 C 47.7841 0.0354834 -1.60761 0
M  V30 488 O 48.9741 -0.203231 -1.7301 0
M  V30 489 C 46.1061 -0.509203 -3.37076 0
M  V30 490 H 47.2991 -1.95014 -2.27837 0
M  V30 491 H 44.8521 -1.04456 -1.16269 0
M  V30 492 H 45.5871 0.446335 -3.21214 0
M  V30 493 H 45.3721 -1.25547 -3.71457 0
M  V30 494 H 46.8621 -0.370888 -4.1595 0
M  V30 495 N 47.2992 1.18797 -1.03562 0
M  V30 496 C 48.5272 1.92599 -0.755869 0
M  V30 497 C 48.9422 1.75886 0.686271 0
M  V30 498 O 48.2992 1.08517 1.46732 0
M  V30 499 C 48.3502 3.44159 -1.10619 0
M  V30 500 O 48.0712 3.60341 -2.4917 0
M  V30 501 C 49.5722 4.3507 -0.850214 0
M  V30 502 H 46.7922 0.611587 -0.276048 0
M  V30 503 H 49.3362 1.50742 -1.38192 0
M  V30 504 H 47.4912 3.83823 -0.525194 0
M  V30 505 H 47.9052 4.54128 -2.62427 0
M  V30 506 H 49.3792 5.39989 -1.14523 0
M  V30 507 H 49.8562 4.38673 0.215176 0
M  V30 508 H 50.4622 4.01097 -1.41426 0
M  V30 509 N 48.7773 0.814389 1.34928 0
M  V30 510 C 50.0053 0.411136 2.02774 0
M  V30 511 C 50.4203 -0.980316 1.61354 0
M  V30 512 O 49.7773 -1.63299 0.814847 0
M  V30 513 C 49.8283 0.493865 3.58111 0
M  V30 514 O 49.5493 1.83047 3.98027 0
M  V30 515 C 51.0503 0.0844174 4.4322 0
M  V30 516 H 48.2703 0.166037 0.650133 0
M  V30 517 H 50.8143 1.10018 1.72384 0
M  V30 518 H 48.9693 -0.147006 3.87121 0
M  V30 519 H 49.3833 1.79872 4.92693 0
M  V30 520 H 50.8573 0.193404 5.51661 0
M  V30 521 H 51.3343 -0.97113 4.28329 0
M  V30 522 H 51.9403 0.69875 4.19521 0
M  V30 523 N 50.2554 -1.46986 0.568584 0
M  V30 524 C 51.2034 -2.31858 -0.185649 0
M  V30 525 C 52.1974 -1.43624 -0.898249 0
M  V30 526 O 53.4034 -1.60327 -0.818242 0
M  V30 527 H 49.7784 -0.747866 -0.0787399 0
M  V30 528 H 51.7494 -2.93303 0.549191 0
M  V30 529 C 50.4984 -3.26513 -1.19519 0
M  V30 530 H 49.8214 -3.94377 -0.656285 0
M  V30 531 H 51.2614 -3.88707 -1.6936 0
M  V30 532 C 49.7204 -2.50847 -2.24894 0
M  V30 533 O 50.2504 -2.26119 -3.32014 0
M  V30 534 N 48.4564 -2.11656 -1.99124 0
M  V30 535 H 48.0034 -2.31966 -1.12024 0
M  V30 536 H 47.9614 -1.61347 -2.69842 0
M  V30 537 N 51.7335 -0.305618 -1.54608 0
M  V30 538 C 53.1445 0.186098 -1.8577 0
M  V30 539 C 53.4955 1.53058 -1.22751 0
M  V30 540 O 52.6205 2.09888 -0.526893 0
M  V30 541 C 53.2155 0.344449 -3.37044 0
M  V30 542 C 51.7745 0.780384 -3.68221 0
M  V30 543 C 50.9215 -0.108554 -2.77087 0
M  V30 544 H 53.8725 -0.526485 -1.49712 0
M  V30 545 H 53.8935 1.17828 -3.61796 0
M  V30 546 H 53.4055 -0.634235 -3.82883 0
M  V30 547 H 51.5065 1.76945 -3.27904 0
M  V30 548 H 51.6195 0.596572 -4.75371 0
M  V30 549 H 49.9835 0.412931 -2.5133 0
M  V30 550 H 50.7665 -1.08368 -3.25747 0
M  V30 551 N 53.2116 1.57565 -0.0334293 0
M  V30 552 C 54.4366 1.96689 0.657895 0
M  V30 553 C 54.8616 0.910057 1.64619 0
M  V30 554 O 54.2196 -0.128598 1.80843 0
M  V30 555 C 54.2676 3.34905 1.33683 0
M  V30 556 O 53.3716 3.31574 2.45219 0
M  V30 557 H 52.7126 0.641205 0.172489 0
M  V30 558 H 55.2426 2.04372 -0.0965621 0
M  V30 559 H 55.2526 3.71234 1.69262 0
M  V30 560 H 53.9276 4.11366 0.612411 0
M  V30 561 H 52.5046 3.06968 2.11719 0
M  V30 562 N 54.6897 -0.239769 1.55765 0
M  V30 563 C 55.6197 -1.30052 1.9393 0
M  V30 564 C 56.6007 -1.49839 0.805132 0
M  V30 565 O 57.7857 -1.62328 1.06599 0
M  V30 566 C 54.9157 -2.65391 2.2402 0
M  V30 567 C 53.8697 -2.60289 3.39755 0
M  V30 568 C 53.1957 -3.99489 3.55405 0
M  V30 569 C 54.4957 -2.16654 4.75246 0
M  V30 570 H 56.1897 -0.983573 2.82783 0
M  V30 571 H 53.7357 -0.471701 1.36055 0
M  V30 572 H 55.6887 -3.3974 2.49308 0
M  V30 573 H 54.4127 -2.98736 1.32 0
M  V30 574 H 53.0717 -1.88398 3.14487 0
M  V30 575 H 52.7197 -4.30112 2.60793 0
M  V30 576 H 52.4197 -3.96962 4.33238 0
M  V30 577 H 53.9437 -4.75528 3.83022 0
M  V30 578 H 55.3577 -2.80737 4.99859 0
M  V30 579 H 53.7547 -2.25223 5.56232 0
M  V30 580 H 54.8247 -1.11835 4.71827 0
M  V30 581 N 56.1678 -1.49265 -0.50573 0
M  V30 582 C 57.4168 -1.57761 -1.25675 0
M  V30 583 C 57.7298 -0.267371 -1.93764 0
M  V30 584 O 58.9358 -0.230827 -2.70517 0
M  V30 585 C 57.3918 -2.78332 -2.28165 0
M  V30 586 C 56.9998 -4.16096 -1.66037 0
M  V30 587 C 58.7438 -2.96155 -3.04125 0
M  V30 588 C 56.6508 -5.27895 -2.6661 0
M  V30 589 H 55.5808 -0.587391 -0.472745 0
M  V30 590 H 58.2318 -1.75644 -0.53118 0
M  V30 591 H 56.6138 -2.53934 -3.03865 0
M  V30 592 H 57.7878 -4.50612 -0.963622 0
M  V30 593 H 56.1028 -4.03591 -1.02484 0
M  V30 594 H 58.6998 -3.76849 -3.79327 0
M  V30 595 H 59.0428 -2.06534 -3.61455 0
M  V30 596 H 59.5758 -3.2057 -2.35541 0
M  V30 597 H 56.3148 -6.1956 -2.14068 0
M  V30 598 H 55.8348 -4.97839 -3.34539 0
M  V30 599 H 57.5138 -5.57031 -3.29129 0
M  V30 600 N 57.6459 0.756429 -1.3826 0
M  V30 601 C 58.5759 1.88374 -1.37976 0
M  V30 602 C 59.5569 1.68311 -0.246082 0
M  V30 603 O 60.7419 1.88944 -0.44874 0
M  V30 604 C 57.8719 3.25864 -1.20125 0
M  V30 605 C 56.8259 3.60523 -2.30666 0
M  V30 606 C 56.1519 4.9672 -1.97923 0
M  V30 607 C 57.4519 3.65692 -3.72916 0
M  V30 608 H 59.1459 1.88869 -2.32312 0
M  V30 609 H 56.6919 0.907272 -1.11824 0
M  V30 610 H 58.6449 4.0438 -1.18552 0
M  V30 611 H 57.3689 3.25841 -0.222498 0
M  V30 612 H 56.0279 2.84324 -2.3142 0
M  V30 613 H 55.6759 4.93253 -0.985393 0
M  V30 614 H 55.3759 5.20878 -2.71955 0
M  V30 615 H 56.8999 5.77618 -1.97964 0
M  V30 616 H 58.3139 4.34328 -3.74208 0
M  V30 617 H 56.7109 4.01358 -4.4613 0
M  V30 618 H 57.7809 2.65987 -4.05436 0
M  V30 619 N 59.124 1.23083 0.984299 0
M  V30 620 C 60.072 1.00593 2.09723 0
M  V30 621 C 61.066 -0.0538014 1.69315 0
M  V30 622 O 62.272 0.0993719 1.79725 0
M  V30 623 H 58.647 0.30817 0.685956 0
M  V30 624 H 60.618 1.95012 2.2586 0
M  V30 625 C 59.367 0.609601 3.42314 0
M  V30 626 H 58.69 1.41675 3.73856 0
M  V30 627 H 60.13 0.491726 4.21139 0
M  V30 628 C 58.589 -0.681745 3.2993 0
M  V30 629 O 59.119 -1.73192 3.62446 0
M  V30 630 N 57.325 -0.656178 2.83095 0
M  V30 631 H 56.872 0.198759 2.56832 0
M  V30 632 H 56.83 -1.52044 2.75191 0
M  V30 633 N 60.6021 -1.18246 1.0419 0
M  V30 634 C 61.5651 -2.20128 0.638452 0
M  V30 635 C 62.5651 -1.57885 -0.304805 0
M  V30 636 O 63.7551 -1.73967 -0.0900369 0
M  V30 637 C 60.8871 -3.4084 -0.0637751 0
M  V30 638 H 62.0801 -2.57336 1.54007 0
M  V30 639 H 59.6331 -1.32152 0.834598 0
M  V30 640 H 60.3681 -3.09166 -0.979136 0
M  V30 641 H 60.1531 -3.8726 0.614198 0
M  V30 642 H 61.6431 -4.16274 -0.332512 0
M  V30 643 N 62.0802 -0.821533 -1.34494 0
M  V30 644 C 63.0432 -0.247847 -2.27856 0
M  V30 645 C 64.0432 0.573453 -1.50227 0
M  V30 646 O 65.2332 0.389759 -1.69784 0
M  V30 647 C 62.3652 0.652698 -3.34593 0
M  V30 648 H 63.5582 -1.07146 -2.80107 0
M  V30 649 H 61.1112 -0.593291 -1.44602 0
M  V30 650 H 61.8462 1.49943 -2.87555 0
M  V30 651 H 61.6312 0.065292 -3.92046 0
M  V30 652 H 63.1212 1.04793 -4.04238 0
M  V30 653 N 63.5583 1.46682 -0.576371 0
M  V30 654 C 64.4903 2.28341 0.198231 0
M  V30 655 C 65.5033 1.38141 0.861453 0
M  V30 656 O 66.6923 1.62797 0.732082 0
M  V30 657 C 63.7923 3.12986 1.29972 0
M  V30 658 C 62.9653 4.31271 0.729639 0
M  V30 659 C 62.0243 4.97363 1.71803 0
M  V30 660 O 61.0503 5.55156 1.25658 0
M  V30 661 N 62.2523 4.93796 3.05198 0
M  V30 662 H 65.0173 2.9546 -0.502324 0
M  V30 663 H 62.5783 1.56525 -0.413715 0
M  V30 664 H 64.5703 3.54066 1.96008 0
M  V30 665 H 63.1403 2.47984 1.90323 0
M  V30 666 H 62.3603 3.94052 -0.108012 0
M  V30 667 H 63.6483 5.07739 0.328438 0
M  V30 668 H 63.0463 4.48077 3.45317 0
M  V30 669 H 61.6033 5.38837 3.6674 0
M  V30 670 N 65.0364 0.313813 1.54444 0
M  V30 671 C 66.2854 -0.292519 1.99568 0
M  V30 672 C 66.5984 -1.54011 1.20582 0
M  V30 673 O 67.8044 -2.22183 1.56035 0
M  V30 674 C 66.2604 -0.571752 3.55329 0
M  V30 675 C 65.8684 0.658229 4.43138 0
M  V30 676 C 67.6124 -1.13857 4.08946 0
M  V30 677 C 65.5194 0.351439 5.90355 0
M  V30 678 H 64.4494 -0.113079 0.745472 0
M  V30 679 H 67.1004 0.424518 1.78522 0
M  V30 680 H 65.4824 -1.34872 3.72325 0
M  V30 681 H 66.6564 1.43403 4.37918 0
M  V30 682 H 64.9714 1.14458 4.0036 0
M  V30 683 H 67.5684 -1.38257 5.16516 0
M  V30 684 H 67.9114 -2.08489 3.6033 0
M  V30 685 H 68.4444 -0.423015 3.95544 0
M  V30 686 H 65.1834 1.26667 6.43145 0
M  V30 687 H 64.7034 -0.386842 5.98551 0
M  V30 688 H 66.3824 -0.0423134 6.46986 0
M  V30 689 N 66.5145 -1.57545 0.0417849 0
M  V30 690 C 67.9255 -1.80011 -0.495259 0
M  V30 691 C 68.2765 -0.953199 -1.71489 0
M  V30 692 O 67.4015 -0.167138 -2.15754 0
M  V30 693 C 67.9965 -3.26482 -0.905265 0
M  V30 694 C 66.5555 -3.499 -1.38734 0
M  V30 695 C 65.7025 -2.74979 -0.358056 0
M  V30 696 H 68.6535 -1.56425 0.267736 0
M  V30 697 H 68.6745 -3.36887 -1.76882 0
M  V30 698 H 68.1865 -3.88096 -0.017401 0
M  V30 699 H 66.2875 -2.93553 -2.29471 0
M  V30 700 H 66.4005 -4.58615 -1.38598 0
M  V30 701 H 64.7645 -2.40834 -0.828912 0
M  V30 702 H 65.5475 -3.39315 0.521561 0
M  V30 703 N 67.9926 0.231505 -1.5589 0
M  V30 704 C 68.9026 1.308 -1.94752 0
M  V30 705 C 69.9186 1.51826 -0.849989 0
M  V30 706 O 71.0946 1.6515 -1.15271 0
M  V30 707 C 68.1596 2.63968 -2.24771 0
M  V30 708 C 67.2206 2.51331 -3.48039 0
M  V30 709 C 66.4536 3.78148 -3.76616 0
M  V30 710 O 66.6766 4.80722 -3.07022 0
M  V30 711 O 65.6106 3.75857 -4.70123 0
M  V30 712 H 69.4366 1.0083 -2.86474 0
M  V30 713 H 67.0216 0.433547 -1.42971 0
M  V30 714 H 68.9036 3.42633 -2.45318 0
M  V30 715 H 67.5786 2.9364 -1.36225 0
M  V30 716 H 66.4856 1.709 -3.32782 0
M  V30 717 H 67.8186 2.26601 -4.36936 0
M  V30 718 N 69.4707 1.49531 0.497807 0
M  V30 719 C 70.7007 1.62657 1.27382 0
M  V30 720 C 71.1087 0.298488 1.86831 0
M  V30 721 O 70.4517 -0.72647 1.68725 0
M  V30 722 C 70.5137 2.6393 2.44093 0
M  V30 723 C 70.1777 4.08195 2.05489 0
M  V30 724 C 71.1747 4.949 1.59279 0
M  V30 725 C 68.8597 4.53948 2.15026 0
M  V30 726 C 70.8537 6.25397 1.23113 0
M  V30 727 C 68.5407 5.84458 1.78473 0
M  V30 728 C 69.5387 6.70006 1.32591 0
M  V30 729 O 69.2267 7.98083 0.965327 0
M  V30 730 H 68.9587 0.550429 0.392434 0
M  V30 731 H 71.5127 1.96325 0.603801 0
M  V30 732 H 69.7427 2.25449 3.14181 0
M  V30 733 H 71.4317 2.66552 3.06113 0
M  V30 734 H 72.1977 4.60779 1.51354 0
M  V30 735 H 68.0767 3.87525 2.4969 0
M  V30 736 H 71.6207 6.92125 0.872299 0
M  V30 737 H 67.5177 6.18107 1.86048 0
M  V30 738 H 68.2857 8.11122 1.09652 0
M  V30 739 N 70.9488 -0.749086 1.3866 0
M  V30 740 C 72.3648 -1.05276 1.19955 0
M  V30 741 C 72.5648 -2.01435 0.05134 0
M  V30 742 O 71.6208 -2.45232 -0.60147 0
M  V30 743 C 72.9338 -1.62853 2.52783 0
M  V30 744 C 74.4818 -1.75002 2.59506 0
M  V30 745 C 74.9568 -2.35991 3.92521 0
M  V30 746 N 76.4478 -2.43416 3.94085 0
M  V30 747 C 77.1828 -2.91511 4.9377 0
M  V30 748 N 76.6788 -3.39608 6.03853 0
M  V30 749 N 78.4718 -2.90592 4.81157 0
M  V30 750 H 70.6228 -0.111066 2.12109 0
M  V30 751 H 72.8858 -0.111901 0.941373 0
M  V30 752 H 72.5918 -0.99664 3.37283 0
M  V30 753 H 72.4658 -2.61854 2.715 0
M  V30 754 H 74.8528 -2.37317 1.75398 0
M  V30 755 H 74.9338 -0.74693 2.44652 0
M  V30 756 H 74.5778 -1.74308 4.77053 0
M  V30 757 H 74.5078 -3.3695 4.04688 0
M  V30 758 H 76.9988 -2.09405 3.14576 0
M  V30 759 H 77.3118 -3.74775 6.75843 0
M  V30 760 H 75.6568 -3.37653 6.07466 0
M  V30 761 H 78.8478 -2.52332 3.94267 0
M  V30 762 H 79.0208 -3.27762 5.58996 0
M  V30 763 N 72.4269 -1.23603 -0.977757 0
M  V30 764 C 73.3739 -1.01954 -2.07061 0
M  V30 765 C 74.3439 0.0638697 -1.65977 0
M  V30 766 O 75.5289 -0.0887624 -1.90593 0
M  V30 767 C 72.6689 -0.619658 -3.39491 0
M  V30 768 C 71.7819 -1.77547 -3.93829 0
M  V30 769 C 70.9169 -1.32212 -5.14484 0
M  V30 770 C 69.9559 -2.44852 -5.60994 0
M  V30 771 N 69.0929 -2.00456 -6.72876 0
M  V30 772 H 73.9329 -1.95495 -2.24913 0
M  V30 773 H 71.4699 -0.973861 -1.10247 0
M  V30 774 H 73.4279 -0.368898 -4.15566 0
M  V30 775 H 72.0579 0.278752 -3.21594 0
M  V30 776 H 71.1099 -2.14016 -3.14486 0
M  V30 777 H 72.4219 -2.62219 -4.24314 0
M  V30 778 H 71.5759 -1.02965 -5.97899 0
M  V30 779 H 70.3149 -0.445808 -4.85658 0
M  V30 780 H 69.3199 -2.74871 -4.76157 0
M  V30 781 H 70.5449 -3.33024 -5.91837 0
M  V30 782 H 68.4909 -1.15208 -6.45804 0
M  V30 783 H 68.4079 -2.78687 -7.02759 0
M  V30 784 H 69.6759 -1.7432 -7.59758 0
M  V30 785 N 73.905 1.17692 -1.04816 0
M  V30 786 C 74.835 2.23777 -0.666791 0
M  V30 787 C 75.816 1.66796 0.33361 0
M  V30 788 O 77.001 1.93039 0.212042 0
M  V30 789 C 74.131 3.47281 -0.0367933 0
M  V30 790 C 73.085 4.17059 -0.961546 0
M  V30 791 C 72.411 5.34342 -0.195626 0
M  V30 792 C 73.711 4.69713 -2.28402 0
M  V30 793 H 75.405 2.55933 -1.55367 0
M  V30 794 H 72.951 1.23019 -0.748484 0
M  V30 795 H 74.904 4.20706 0.241775 0
M  V30 796 H 73.628 3.14381 0.885004 0
M  V30 797 H 72.287 3.45541 -1.22462 0
M  V30 798 H 71.935 4.97692 0.728816 0
M  V30 799 H 71.635 5.81966 -0.811775 0
M  V30 800 H 73.159 6.10553 0.0757473 0
M  V30 801 H 74.573 5.34794 -2.06563 0
M  V30 802 H 72.97 5.279 -2.8538 0
M  V30 803 H 74.04 3.86726 -2.92525 0
M  V30 804 N 75.3831 0.828654 1.34056 0
M  V30 805 C 76.6321 0.415828 1.97367 0
M  V30 806 C 76.9451 -1.02796 1.6641 0
M  V30 807 O 78.1511 -1.54497 2.23255 0
M  V30 808 C 76.6071 0.692601 3.53173 0
M  V30 809 C 76.2151 2.15038 3.93017 0
M  V30 810 C 77.9591 0.346222 4.23086 0
M  V30 811 C 75.8661 2.37174 5.41758 0
M  V30 812 H 74.7961 0.151755 0.738571 0
M  V30 813 H 77.4471 1.01581 1.52819 0
M  V30 814 H 75.8291 0.0223764 3.95994 0
M  V30 815 H 77.0031 2.86024 3.61285 0
M  V30 816 H 75.3181 2.45875 3.36057 0
M  V30 817 H 77.9151 0.48937 5.32456 0
M  V30 818 H 78.2581 -0.709842 4.10204 0
M  V30 819 H 78.7911 0.971258 3.85761 0
M  V30 820 H 75.5301 3.41308 5.59633 0
M  V30 821 H 75.0501 1.70738 5.74986 0
M  V30 822 H 76.7291 2.19818 6.08514 0
M  V30 823 N 76.8612 -1.46375 0.584142 0
M  V30 824 C 78.1382 -1.956 0.0033388 0
M  V30 825 C 78.5182 -1.52679 -1.45782 0
M  V30 826 O 77.8662 -0.77816 -2.14842 0
M  V30 827 C 78.0762 -3.48551 0.176891 0
M  V30 828 C 79.4242 -4.24576 0.0454609 0
M  V30 829 O 80.4482 -3.56043 0.105801 0
M  V30 830 O 79.3072 -5.46427 -0.0890376 0
M  V30 831 H 76.4012 -0.825547 -0.0490066 0
M  V30 832 H 78.9472 -1.56652 0.65256 0
M  V30 833 H 77.7192 -3.72683 1.1926 0
M  V30 834 H 77.3422 -3.94332 -0.508695 0
M  V30 835 N 78.3393 -0.321999 -1.54275 0
M  V30 836 C 79.6163 0.335232 -1.92706 0
M  V30 837 C 79.9963 1.70006 -1.25145 0
M  V30 838 O 79.3443 2.25067 -0.394596 0
M  V30 839 C 79.5543 0.429008 -3.46353 0
M  V30 840 C 80.9023 0.690029 -4.18956 0
M  V30 841 O 81.9263 0.511992 -3.52501 0
M  V30 842 O 80.7853 1.03338 -5.36641 0
M  V30 843 H 77.8793 0.191143 -0.804608 0
M  V30 844 H 80.4253 -0.3716 -1.65581 0
M  V30 845 H 79.1973 -0.529611 -3.87699 0
M  V30 846 H 78.8203 1.18348 -3.79578 0
M  V30 847 N 79.8174 1.5752 -0.0501392 0
M  V30 848 C 80.7804 2.1037 0.909786 0
M  V30 849 C 81.7804 1.02308 1.24056 0
M  V30 850 O 82.9704 1.28385 1.17741 0
M  V30 851 C 80.1024 2.58708 2.21998 0
M  V30 852 H 81.2954 2.96479 0.451665 0
M  V30 853 H 78.8484 1.55038 0.198248 0
M  V30 854 H 79.5834 1.75989 2.72394 0
M  V30 855 H 79.3684 3.37675 1.99295 0
M  V30 856 H 80.8584 2.99747 2.9076 0
M  V30 857 N 81.2955 -0.223234 1.56011 0
M  V30 858 C 82.5415 -0.949279 1.79211 0
M  V30 859 C 82.8745 -1.84054 0.619494 0
M  V30 860 O 82.1495 -1.90726 -0.381317 0
M  V30 861 C 82.4325 -1.78965 3.12479 0
M  V30 862 C 82.2855 -0.924997 4.40186 0
M  V30 863 C 83.6045 -2.76774 3.42175 0
M  V30 864 H 80.7235 -0.343676 0.651963 0
M  V30 865 H 83.3655 -0.218253 1.88742 0
M  V30 866 H 81.5155 -2.41291 3.04485 0
M  V30 867 H 83.1875 -0.318615 4.60198 0
M  V30 868 H 81.4305 -0.230344 4.33188 0
M  V30 869 H 82.1015 -1.54735 5.29869 0
M  V30 870 H 84.5775 -2.24584 3.50287 0
M  V30 871 H 83.4535 -3.32678 4.36597 0
M  V30 872 H 83.7145 -3.54429 2.64258 0
M  V30 873 N 82.7736 -1.49793 -0.48987 0
M  V30 874 C 83.7366 -1.66752 -1.57246 0
M  V30 875 C 84.7366 -0.538867 -1.51502 0
M  V30 876 O 85.9266 -0.805545 -1.54456 0
M  V30 877 C 83.0586 -1.67528 -2.96896 0
M  V30 878 H 84.2516 -2.63321 -1.43534 0
M  V30 879 H 81.8046 -1.38992 -0.714914 0
M  V30 880 H 82.5396 -0.725837 -3.16073 0
M  V30 881 H 82.3246 -2.49504 -3.02473 0
M  V30 882 H 83.8146 -1.82667 -3.7553 0
M  V30 883 N 84.2517 0.741722 -1.39055 0
M  V30 884 C 85.4977 1.50234 -1.37118 0
M  V30 885 C 85.8527 1.92368 0.0350439 0
M  V30 886 O 85.1457 1.63422 1.00019 0
M  V30 887 C 85.3397 2.7592 -2.27163 0
M  V30 888 C 85.1687 2.46074 -3.76401 0
M  V30 889 C 83.9387 2.38704 -4.45364 0
M  V30 890 C 86.1367 2.12062 -4.68545 0
M  V30 891 N 84.1187 2.01258 -5.79973 0
M  V30 892 C 85.4897 1.85005 -5.91754 0
M  V30 893 C 87.5447 1.98473 -4.56632 0
M  V30 894 C 86.2477 1.4573 -7.04383 0
M  V30 895 C 88.2737 1.60599 -5.69176 0
M  V30 896 C 87.6357 1.34423 -6.91455 0
M  V30 897 H 83.7347 0.548858 -0.557027 0
M  V30 898 H 86.3187 0.862642 -1.74547 0
M  V30 899 H 84.4897 3.3768 -1.91904 0
M  V30 900 H 86.2217 3.42068 -2.16267 0
M  V30 901 H 82.9767 2.55574 -3.98721 0
M  V30 902 H 83.4007 1.85147 -6.51191 0
M  V30 903 H 88.0427 2.17381 -3.62637 0
M  V30 904 H 85.7607 1.25562 -7.98286 0
M  V30 905 H 89.3467 1.507 -5.61944 0
M  V30 906 H 88.2267 1.05555 -7.77064 0
M  V30 907 N 85.7298 1.2412 0.971189 0
M  V30 908 C 86.6928 1.03156 2.04674 0
M  V30 909 C 87.6928 -0.00990322 1.60797 0
M  V30 910 O 88.8828 0.230729 1.72665 0
M  V30 911 C 86.0148 0.562765 3.36223 0
M  V30 912 H 87.2078 1.98614 2.24705 0
M  V30 913 H 84.7608 1.06293 1.14593 0
M  V30 914 H 85.4958 -0.395176 3.21883 0
M  V30 915 H 85.2808 1.31441 3.69413 0
M  V30 916 H 86.7708 0.437015 4.15307 0
M  V30 917 N 87.2079 -1.17134 1.05439 0
M  V30 918 C 88.1549 -2.21235 0.657539 0
M  V30 919 C 89.1249 -1.62551 -0.341543 0
M  V30 920 O 90.3099 -1.89379 -0.232393 0
M  V30 921 C 87.4499 -3.45076 0.0410575 0
M  V30 922 C 86.5629 -4.18042 1.08927 0
M  V30 923 C 85.6979 -5.29376 0.439848 0
M  V30 924 C 84.7369 -5.94132 1.4722 0
M  V30 925 N 83.8739 -6.96975 0.846756 0
M  V30 926 H 88.7139 -2.54534 1.54972 0
M  V30 927 H 86.2509 -1.25028 0.775006 0
M  V30 928 H 88.2089 -4.15862 -0.33383 0
M  V30 929 H 86.8389 -3.12353 -0.814568 0
M  V30 930 H 85.8909 -3.45945 1.58196 0
M  V30 931 H 87.2029 -4.62306 1.87282 0
M  V30 932 H 86.3569 -6.06699 0.0115125 0
M  V30 933 H 85.0959 -4.86251 -0.375656 0
M  V30 934 H 84.1009 -5.15538 1.91052 0
M  V30 935 H 85.3259 -6.39337 2.28965 0
M  V30 936 H 83.2719 -6.5598 0.0518075 0
M  V30 937 H 83.1889 -7.39565 1.5678 0
M  V30 938 H 84.4569 -7.78239 0.443277 0
M  V30 939 N 88.686 -0.835752 -1.33615 0
M  V30 940 C 89.618 -0.224151 -2.28101 0
M  V30 941 C 90.631 0.593331 -1.51603 0
M  V30 942 O 91.82 0.420911 -1.73466 0
M  V30 943 C 88.92 0.703309 -3.31522 0
M  V30 944 C 88.093 -0.0741528 -4.37337 0
M  V30 945 C 87.152 0.776176 -5.20444 0
M  V30 946 O 86.178 0.216506 -5.68788 0
M  V30 947 N 87.38 2.09401 -5.41416 0
M  V30 948 H 90.145 -1.03598 -2.81225 0
M  V30 949 H 87.706 -0.69392 -1.46275 0
M  V30 950 H 89.698 1.27707 -3.84022 0
M  V30 951 H 88.268 1.41585 -2.78698 0
M  V30 952 H 87.488 -0.82928 -3.85378 0
M  V30 953 H 88.776 -0.608863 -5.05144 0
M  V30 954 H 88.174 2.57229 -5.03835 0
M  V30 955 H 86.731 2.61633 -5.96985 0
M  V30 956 N 90.1641 1.46063 -0.591896 0
M  V30 957 C 91.0961 2.28539 0.174001 0
M  V30 958 C 92.1091 1.39047 0.846753 0
M  V30 959 O 93.2981 1.63564 0.714774 0
M  V30 960 C 90.3981 3.14347 1.26645 0
M  V30 961 C 89.5711 4.32021 0.683856 0
M  V30 962 C 88.6301 4.99157 1.66518 0
M  V30 963 O 87.6561 5.56458 1.19763 0
M  V30 964 N 88.8581 4.97005 2.99943 0
M  V30 965 H 91.6231 2.94911 -0.533633 0
M  V30 966 H 89.1841 1.56077 -0.430294 0
M  V30 967 H 91.1761 3.56125 1.92242 0
M  V30 968 H 89.7461 2.49988 1.87682 0
M  V30 969 H 88.9661 3.93915 -0.1498 0
M  V30 970 H 90.2541 5.08059 0.274567 0
M  V30 971 H 89.6521 4.51714 3.40545 0
M  V30 972 H 88.2091 5.42696 3.61004 0
M  V30 973 N 91.6422 0.330177 1.54103 0
M  V30 974 C 92.8672 -0.274893 2.0557 0
M  V30 975 C 93.2922 -1.44487 1.20437 0
M  V30 976 O 92.6502 -1.80021 0.214991 0
M  V30 977 C 92.6982 -0.68079 3.54115 0
M  V30 978 O 91.8022 -1.7824 3.71893 0
M  V30 979 H 91.1432 -0.0483849 0.662235 0
M  V30 980 H 93.6732 0.480508 1.98878 0
M  V30 981 H 93.6832 -0.961635 3.96505 0
M  V30 982 H 92.3582 0.174903 4.15532 0
M  V30 983 H 90.9352 -1.49985 3.41407 0
M  V30 984 N 93.1203 -1.57491 0.0584922 0
M  V30 985 C 94.0683 -2.13148 -0.931168 0
M  V30 986 C 95.0623 -1.06507 -1.31729 0
M  V30 987 O 96.2683 -1.24906 -1.29609 0
M  V30 988 H 92.6433 -0.68137 -0.31818 0
M  V30 989 H 94.6143 -2.95187 -0.436707 0
M  V30 990 C 93.3633 -2.69732 -2.19408 0
M  V30 991 H 92.6863 -3.51454 -1.90578 0
M  V30 992 H 94.1263 -3.12287 -2.86798 0
M  V30 993 C 92.5853 -1.63855 -2.94369 0
M  V30 994 O 93.1153 -1.05565 -3.87581 0
M  V30 995 N 91.3213 -1.35202 -2.57233 0
M  V30 996 H 90.8683 -1.82791 -1.81508 0
M  V30 997 H 90.8263 -0.645922 -3.07693 0
M  V30 998 N 94.5984 0.214957 -1.56127 0
M  V30 999 C 95.8754 0.963093 -1.70247 0
M  V30 1000 C 96.2554 2.02166 -0.60764 0
M  V30 1001 O 95.6034 2.25244 0.384385 0
M  V30 1002 C 95.8134 1.56756 -3.11815 0
M  V30 1003 C 97.1614 2.0573 -3.7143 0
M  V30 1004 O 98.1854 1.66637 -3.14818 0
M  V30 1005 O 97.0444 2.77603 -4.70743 0
M  V30 1006 H 94.1384 0.450321 -0.693643 0
M  V30 1007 H 96.6844 0.206219 -1.68442 0
M  V30 1008 H 95.4564 0.803533 -3.82961 0
M  V30 1009 H 95.0794 2.3898 -3.17765 0
M  V30 1010 N 96.0765 1.50051 0.48192 0
M  V30 1011 C 97.4925 1.37237 0.814756 0
M  V30 1012 C 97.6925 0.420109 1.97072 0
M  V30 1013 O 96.7485 -0.141246 2.52105 0
M  V30 1014 C 98.0615 2.78375 1.13701 0
M  V30 1015 C 99.6095 2.87213 1.2441 0
M  V30 1016 C 100.084 4.29161 1.59954 0
M  V30 1017 N 101.575 4.32061 1.66967 0
M  V30 1018 C 102.31 5.38879 1.95952 0
M  V30 1019 N 101.806 6.55918 2.23031 0
M  V30 1020 N 103.599 5.26312 1.97363 0
M  V30 1021 H 95.7505 2.10546 -0.28005 0
M  V30 1022 H 98.0135 0.945921 -0.0627454 0
M  V30 1023 H 97.7195 3.49845 0.360787 0
M  V30 1024 H 97.5935 3.14941 2.07586 0
M  V30 1025 H 99.9805 2.15969 2.01101 0
M  V30 1026 H 100.061 2.54204 0.285299 0
M  V30 1027 H 99.7055 5.00938 0.838067 0
M  V30 1028 H 99.6355 4.59648 2.56966 0
M  V30 1029 H 102.126 3.47661 1.48123 0
M  V30 1030 H 102.439 7.33139 2.44391 0
M  V30 1031 H 100.784 6.59112 2.20447 0
M  V30 1032 H 103.975 4.33876 1.75697 0
M  V30 1033 H 104.148 6.09649 2.19618 0
M  V30 1034 N 97.5546 -0.734337 1.39446 0
M  V30 1035 C 98.5176 -1.83004 1.37994 0
M  V30 1036 C 99.5176 -1.58397 0.276938 0
M  V30 1037 O 100.708 -1.65785 0.534875 0
M  V30 1038 C 97.8396 -3.20802 1.1532 0
M  V30 1039 H 99.0326 -1.85694 2.35494 0
M  V30 1040 H 96.5856 -0.938059 1.25021 0
M  V30 1041 H 97.3206 -3.23772 0.185036 0
M  V30 1042 H 97.1056 -3.4006 1.95197 0
M  V30 1043 H 98.5956 -4.00862 1.17046 0
M  V30 1044 N 99.0327 -1.24633 -0.964593 0
M  V30 1045 C 99.9647 -0.999302 -2.06268 0
M  V30 1046 C 100.978 0.0323226 -1.62768 0
M  V30 1047 O 102.167 -0.205079 -1.77318 0
M  V30 1048 C 99.2667 -0.486816 -3.35385 0
M  V30 1049 C 98.4397 -1.5823 -4.07777 0
M  V30 1050 C 97.4987 -1.07191 -5.15166 0
M  V30 1051 O 96.5247 -1.76426 -5.41168 0
M  V30 1052 N 97.7267 0.0920373 -5.80427 0
M  V30 1053 H 100.492 -1.94477 -2.28033 0
M  V30 1054 H 98.0527 -1.15704 -1.13244 0
M  V30 1055 H 100.045 -0.130066 -4.04491 0
M  V30 1056 H 98.6147 0.364459 -3.10468 0
M  V30 1057 H 97.8347 -2.11109 -3.32906 0
M  V30 1058 H 99.1227 -2.31854 -4.52903 0
M  V30 1059 H 98.5207 0.670784 -5.61709 0
M  V30 1060 H 97.0777 0.389905 -6.50633 0
M  V30 1061 N 100.511 1.16574 -1.06058 0
M  V30 1062 C 101.443 2.2045 -0.627239 0
M  V30 1063 C 102.456 1.59752 0.313534 0
M  V30 1064 O 103.645 1.78192 0.104896 0
M  V30 1065 C 100.745 3.3875 0.100974 0
M  V30 1066 C 99.9178 4.29008 -0.852687 0
M  V30 1067 C 98.9768 5.25944 -0.164152 0
M  V30 1068 O 98.0028 5.63535 -0.801047 0
M  V30 1069 N 99.2048 5.70075 1.09518 0
M  V30 1070 H 101.97 2.58249 -1.52077 0
M  V30 1071 H 99.5308 1.3156 -0.943594 0
M  V30 1072 H 101.523 4.00638 0.57194 0
M  V30 1073 H 100.093 2.99476 0.89628 0
M  V30 1074 H 99.3128 3.64419 -1.50308 0
M  V30 1075 H 100.601 4.86195 -1.49972 0
M  V30 1076 H 99.9988 5.41624 1.6328 0
M  V30 1077 H 98.5558 6.34067 1.51006 0
M  V30 1078 N 101.989 0.842826 1.3317 0
M  V30 1079 C 103.238 0.436738 1.96915 0
M  V30 1080 C 103.551 -1.01025 1.67491 0
M  V30 1081 O 104.757 -1.5212 2.24881 0
M  V30 1082 C 103.213 0.730021 3.52418 0
M  V30 1083 C 102.821 2.19195 3.90714 0
M  V30 1084 C 104.565 0.391076 4.22695 0
M  V30 1085 C 102.472 2.42907 5.39212 0
M  V30 1086 H 101.402 0.15958 0.736919 0
M  V30 1087 H 104.053 1.03196 1.51733 0
M  V30 1088 H 102.435 0.0643755 3.95948 0
M  V30 1089 H 103.609 2.8984 3.58231 0
M  V30 1090 H 101.924 2.49425 3.33431 0
M  V30 1091 H 104.521 0.545817 5.31907 0
M  V30 1092 H 104.864 -0.666294 4.10933 0
M  V30 1093 H 105.397 1.01212 3.84709 0
M  V30 1094 H 102.136 3.47224 5.55982 0
M  V30 1095 H 101.656 1.76827 5.73142 0
M  V30 1096 H 103.335 2.2626 6.06148 0
M  V30 1097 N 103.467 -1.45747 0.599634 0
M  V30 1098 C 104.713 -2.02592 0.0918643 0
M  V30 1099 C 105.046 -1.46806 -1.27128 0
M  V30 1100 O 104.321 -0.639658 -1.83681 0
M  V30 1101 C 104.604 -3.60073 0.0443398 0
M  V30 1102 C 104.457 -4.26208 1.43759 0
M  V30 1103 C 105.776 -4.35309 -0.647608 0
M  V30 1104 H 102.895 -0.736175 0.034857 0
M  V30 1105 H 105.537 -1.73694 0.770081 0
M  V30 1106 H 103.687 -3.84823 -0.533224 0
M  V30 1107 H 105.359 -4.12668 2.06162 0
M  V30 1108 H 103.602 -3.84916 2.00056 0
M  V30 1109 H 104.273 -5.35069 1.35665 0
M  V30 1110 H 106.749 -4.15805 -0.156776 0
M  V30 1111 H 105.625 -5.45038 -0.649942 0
M  V30 1112 H 105.886 -4.07598 -1.71219 0
M  V30 1113 N 104.945 -0.338344 -1.53925 0
M  V30 1114 C 106.222 0.314774 -1.93051 0
M  V30 1115 C 106.602 1.68669 -1.26941 0
M  V30 1116 O 105.95 2.24636 -0.418445 0
M  V30 1117 C 106.16 0.392249 -3.46789 0
M  V30 1118 C 107.508 0.645554 -4.19664 0
M  V30 1119 O 108.532 0.474575 -3.53024 0
M  V30 1120 O 107.391 0.976408 -5.37707 0
M  V30 1121 H 104.485 0.182598 -0.80659 0
M  V30 1122 H 107.031 -0.389141 -1.65178 0
M  V30 1123 H 105.803 -0.570702 -3.87116 0
M  V30 1124 H 105.426 1.14316 -3.80812 0
M  V30 1125 N 106.423 1.57458 -0.0668435 0
M  V30 1126 C 107.386 2.11323 0.887422 0
M  V30 1127 C 108.386 1.03618 1.22964 0
M  V30 1128 O 109.576 1.29626 1.16373 0
M  V30 1129 C 106.708 2.61048 2.19242 0
M  V30 1130 H 107.901 2.96942 0.420194 0
M  V30 1131 H 105.454 1.55239 0.181793 0
M  V30 1132 H 106.189 1.78868 2.70512 0
M  V30 1133 H 105.974 3.39769 1.95702 0
M  V30 1134 H 107.464 3.02814 2.87565 0
M  V30 1135 N 107.901 -0.206675 1.56239 0
M  V30 1136 C 109.129 -0.945345 1.8404 0
M  V30 1137 C 109.544 -1.77336 0.647885 0
M  V30 1138 O 108.901 -1.78425 -0.383511 0
M  V30 1139 C 108.952 -1.8509 3.10522 0
M  V30 1140 O 108.673 -1.05634 4.25174 0
M  V30 1141 C 110.174 -2.70222 3.51418 0
M  V30 1142 H 107.394 -0.276372 0.61144 0
M  V30 1143 H 109.938 -0.217417 2.03341 0
M  V30 1144 H 108.093 -2.53259 2.93153 0
M  V30 1145 H 108.507 -1.67238 4.97124 0
M  V30 1146 H 109.981 -3.29438 4.42916 0
M  V30 1147 H 110.458 -3.43358 2.73864 0
M  V30 1148 H 111.064 -2.07443 3.71278 0
M  V30 1149 N 109.379 -1.50304 -0.473955 0
M  V30 1150 C 110.656 -1.51667 -1.23518 0
M  V30 1151 C 111.036 -0.259701 -2.09496 0
M  V30 1152 O 110.384 0.756986 -2.15597 0
M  V30 1153 C 110.594 -2.81082 -2.06868 0
M  V30 1154 C 111.942 -3.31631 -2.65153 0
M  V30 1155 O 112.966 -2.82384 -2.17113 0
M  V30 1156 O 111.825 -4.17471 -3.52675 0
M  V30 1157 H 108.919 -0.60822 -0.560355 0
M  V30 1158 H 111.465 -1.62592 -0.486011 0
M  V30 1159 H 110.237 -3.64041 -1.4349 0
M  V30 1160 H 109.86 -2.73146 -2.88924 0
M  V30 1161 N 110.857 0.726932 -1.39834 0
M  V30 1162 C 111.804 1.841 -1.39197 0
M  V30 1163 C 112.774 1.642 -0.250502 0
M  V30 1164 O 113.959 1.85494 -0.446846 0
M  V30 1165 C 111.099 3.21697 -1.24919 0
M  V30 1166 C 110.212 3.53247 -2.48678 0
M  V30 1167 C 109.347 4.80289 -2.26928 0
M  V30 1168 C 108.386 5.04707 -3.4632 0
M  V30 1169 N 107.523 6.22956 -3.23836 0
M  V30 1170 H 112.363 1.83979 -2.34427 0
M  V30 1171 H 109.9 0.898876 -1.16442 0
M  V30 1172 H 111.858 4.01137 -1.1465 0
M  V30 1173 H 110.488 3.21076 -0.333153 0
M  V30 1174 H 109.54 2.68447 -2.69519 0
M  V30 1175 H 110.852 3.67205 -3.37582 0
M  V30 1176 H 110.006 5.67725 -2.13947 0
M  V30 1177 H 108.745 4.68519 -1.35431 0
M  V30 1178 H 107.75 4.1573 -3.5979 0
M  V30 1179 H 108.975 5.18357 -4.38729 0
M  V30 1180 H 106.921 6.12459 -2.35011 0
M  V30 1181 H 106.838 6.37539 -4.063 0
M  V30 1182 H 108.106 7.1321 -3.14566 0
M  V30 1183 N 112.336 1.25143 0.95797 0
M  V30 1184 C 113.266 1.07711 2.07173 0
M  V30 1185 C 114.247 -0.0128462 1.70095 0
M  V30 1186 O 115.432 0.156061 1.93572 0
M  V30 1187 C 112.562 0.691503 3.40346 0
M  V30 1188 C 111.516 1.73132 3.9142 0
M  V30 1189 C 110.842 1.20049 5.21049 0
M  V30 1190 C 112.142 3.1294 4.1817 0
M  V30 1191 H 113.836 2.00873 2.22014 0
M  V30 1192 H 111.382 0.967191 1.06684 0
M  V30 1193 H 113.335 0.556505 4.17709 0
M  V30 1194 H 112.059 -0.275819 3.25433 0
M  V30 1195 H 110.718 1.8547 3.16222 0
M  V30 1196 H 110.366 0.223499 5.02503 0
M  V30 1197 H 110.066 1.89545 5.56189 0
M  V30 1198 H 111.59 1.07782 6.01012 0
M  V30 1199 H 113.004 3.03775 4.86203 0
M  V30 1200 H 111.401 3.79875 4.64559 0
M  V30 1201 H 112.471 3.6025 3.24573 0
M  V30 1202 N 113.814 -1.1601 1.06675 0
M  V30 1203 C 114.777 -2.18724 0.685001 0
M  V30 1204 C 115.777 -1.58496 -0.271246 0
M  V30 1205 O 116.967 -1.74119 -0.0531156 0
M  V30 1206 C 114.099 -3.40899 0.00853648 0
M  V30 1207 H 115.292 -2.54011 1.59431 0
M  V30 1208 H 112.845 -1.30352 0.862441 0
M  V30 1209 H 113.58 -3.11173 -0.913337 0
M  V30 1210 H 113.365 -3.8587 0.696204 0
M  V30 1211 H 114.855 -4.16886 -0.24414 0
M  V30 1212 N 115.292 -0.849877 -1.32721 0
M  V30 1213 C 116.538 -0.451591 -1.97708 0
M  V30 1214 C 116.871 0.989175 -1.6712 0
M  V30 1215 O 116.146 1.69334 -0.956891 0
M  V30 1216 C 116.429 -0.685598 -3.53513 0
M  V30 1217 C 116.282 -2.17444 -3.93749 0
M  V30 1218 C 117.601 -0.138874 -4.39881 0
M  V30 1219 H 114.72 -0.16555 -0.718166 0
M  V30 1220 H 117.362 -1.06742 -1.57182 0
M  V30 1221 H 115.512 -0.161416 -3.88165 0
M  V30 1222 H 117.184 -2.76433 -3.693 0
M  V30 1223 H 115.427 -2.65476 -3.43081 0
M  V30 1224 H 116.098 -2.28888 -5.02309 0
M  V30 1225 H 118.574 -0.587068 -4.11938 0
M  V30 1226 H 117.45 -0.332213 -5.47894 0
M  V30 1227 H 117.711 0.95806 -4.31594 0
M  V30 1228 N 116.77 1.45427 -0.607355 0
M  V30 1229 C 117.718 2.32269 0.12411 0
M  V30 1230 C 118.712 1.45955 0.859854 0
M  V30 1231 O 119.918 1.6244 0.775447 0
M  V30 1232 H 116.293 0.749691 0.0588839 0
M  V30 1233 H 118.264 2.91743 -0.626762 0
M  V30 1234 C 117.013 3.29567 1.1082 0
M  V30 1235 H 116.336 3.95978 0.551492 0
M  V30 1236 H 117.776 3.93061 1.58995 0
M  V30 1237 C 116.235 2.56722 2.18164 0
M  V30 1238 O 116.765 2.34842 3.25902 0
M  V30 1239 N 114.971 2.16861 1.93442 0
M  V30 1240 H 114.518 2.34855 1.05834 0
M  V30 1241 H 114.476 1.68444 2.65469 0
M  V30 1242 N 118.248 0.346503 1.53744 0
M  V30 1243 C 119.497 -0.250122 2.00143 0
M  V30 1244 C 119.81 -1.51418 1.23822 0
M  V30 1245 O 121.016 -2.18823 1.60713 0
M  V30 1246 C 119.472 -0.496252 3.56462 0
M  V30 1247 C 119.08 0.752077 4.41642 0
M  V30 1248 C 120.824 -1.05157 4.11269 0
M  V30 1249 C 118.731 0.476583 5.89477 0
M  V30 1250 H 117.661 -0.0972409 0.747703 0
M  V30 1251 H 120.312 0.46229 1.77581 0
M  V30 1252 H 118.694 -1.26944 3.75102 0
M  V30 1253 H 119.868 1.5266 4.34778 0
M  V30 1254 H 118.183 1.22925 3.97842 0
M  V30 1255 H 120.78 -1.27269 5.19333 0
M  V30 1256 H 121.123 -2.00799 3.64672 0
M  V30 1257 H 121.656 -0.339019 3.96353 0
M  V30 1258 H 118.395 1.4028 6.40314 0
M  V30 1259 H 117.915 -0.259794 5.99237 0
M  V30 1260 H 119.594 0.0949315 6.4693 0
M  V30 1261 N 119.726 -1.57421 0.075193 0
M  V30 1262 C 120.974 -1.93236 -0.591974 0
M  V30 1263 C 121.295 -0.956241 -1.69944 0
M  V30 1264 O 120.565 -0.00494792 -1.95899 0
M  V30 1265 H 119.145 -0.713355 -0.22166 0
M  V30 1266 H 121.807 -1.9444 0.133848 0
M  V30 1267 H 120.903 -2.95131 -1.01509 0
M  V30 1268 N 121.204 0.198386 -1.56346 0
M  V30 1269 C 122.134 1.24865 -1.9731 0
M  V30 1270 C 123.115 1.47651 -0.844576 0
M  V30 1271 O 124.3 1.59444 -1.10866 0
M  V30 1272 C 121.43 2.59358 -2.30977 0
M  V30 1273 C 120.384 2.5119 -3.46537 0
M  V30 1274 C 119.71 3.89926 -3.65871 0
M  V30 1275 C 121.01 2.03977 -4.80823 0
M  V30 1276 H 122.704 0.908252 -2.85291 0
M  V30 1277 H 120.25 0.435462 -1.37258 0
M  V30 1278 H 122.203 3.33011 -2.58228 0
M  V30 1279 H 120.927 2.95132 -1.39874 0
M  V30 1280 H 119.586 1.79993 -3.19371 0
M  V30 1281 H 119.234 4.23046 -2.72105 0
M  V30 1282 H 118.934 3.85336 -4.4361 0
M  V30 1283 H 120.458 4.65205 -3.95495 0
M  V30 1284 H 121.872 2.67386 -5.07127 0
M  V30 1285 H 120.269 2.10397 -5.62008 0
M  V30 1286 H 121.339 0.992861 -4.74626 0
M  V30 1287 N 122.682 1.50554 0.465978 0
M  V30 1288 C 123.592 1.72585 1.58907 0
M  V30 1289 C 124.608 0.60911 1.6299 0
M  V30 1290 O 125.784 0.88804 1.80765 0
M  V30 1291 C 122.849 1.81995 2.95091 0
M  V30 1292 C 121.91 3.05751 3.01355 0
M  V30 1293 C 121.143 3.14702 4.31043 0
M  V30 1294 O 121.366 2.30313 5.21835 0
M  V30 1295 O 120.3 4.07468 4.43005 0
M  V30 1296 H 124.126 2.67799 1.43239 0
M  V30 1297 H 121.711 1.34711 0.646013 0
M  V30 1298 H 123.593 1.90335 3.75966 0
M  V30 1299 H 122.268 0.899659 3.10947 0
M  V30 1300 H 121.175 3.02908 2.19539 0
M  V30 1301 H 122.508 3.97375 2.90437 0
M  V30 1302 N 124.16 -0.719506 1.40217 0
M  V30 1303 C 125.409 -1.47486 1.37589 0
M  V30 1304 C 125.722 -1.9559 -0.0201568 0
M  V30 1305 O 126.928 -2.70973 -0.169049 0
M  V30 1306 C 125.384 -2.66575 2.41796 0
M  V30 1307 C 124.992 -2.25358 3.87192 0
M  V30 1308 C 126.736 -3.4433 2.48269 0
M  V30 1309 C 124.643 -3.41262 4.83005 0
M  V30 1310 H 123.573 -0.553901 0.511576 0
M  V30 1311 H 126.224 -0.783427 1.65936 0
M  V30 1312 H 124.606 -3.3787 2.06543 0
M  V30 1313 H 125.78 -1.61509 4.31569 0
M  V30 1314 H 124.095 -1.60657 3.84159 0
M  V30 1315 H 126.692 -4.30569 3.17041 0
M  V30 1316 H 127.035 -3.87872 1.51198 0
M  V30 1317 H 127.568 -2.80076 2.82493 0
M  V30 1318 H 124.307 -3.02755 5.81394 0
M  V30 1319 H 123.827 -4.0404 4.43297 0
M  V30 1320 H 125.506 -4.07383 5.02641 0
M  V30 1321 N 125.638 -1.25649 -0.95132 0
M  V30 1322 C 126.568 -1.08808 -2.06599 0
M  V30 1323 C 127.549 0.00382547 -1.701 0
M  V30 1324 O 128.734 -0.166325 -1.93486 0
M  V30 1325 C 125.864 -0.709542 -3.39975 0
M  V30 1326 C 124.818 -1.75206 -3.90496 0
M  V30 1327 C 124.144 -1.22811 -5.20405 0
M  V30 1328 C 125.444 -3.15153 -4.16504 0
M  V30 1329 H 127.138 -2.02048 -2.20946 0
M  V30 1330 H 124.684 -0.972835 -1.06169 0
M  V30 1331 H 126.637 -0.578649 -4.17408 0
M  V30 1332 H 125.361 0.258556 -3.25575 0
M  V30 1333 H 124.02 -1.87145 -3.15234 0
M  V30 1334 H 123.668 -0.250145 -5.02378 0
M  V30 1335 H 123.368 -1.92492 -5.55176 0
M  V30 1336 H 124.892 -1.10968 -6.00432 0
M  V30 1337 H 126.306 -3.06349 -4.84586 0
M  V30 1338 H 124.703 -3.82333 -4.62538 0
M  V30 1339 H 125.773 -3.61966 -3.22658 0
M  V30 1340 N 127.117 1.15442 -1.07289 0
M  V30 1341 C 128.064 2.20161 -0.692653 0
M  V30 1342 C 129.034 1.63073 0.31564 0
M  V30 1343 O 130.219 1.89725 0.202235 0
M  V30 1344 C 127.359 3.44967 -0.0959509 0
M  V30 1345 C 126.472 4.16256 -1.15564 0
M  V30 1346 C 125.607 5.28609 -0.524011 0
M  V30 1347 C 124.646 5.91715 -1.56653 0
M  V30 1348 N 123.783 6.9554 -0.957531 0
M  V30 1349 H 128.623 2.52037 -1.59002 0
M  V30 1350 H 126.16 1.2378 -0.794798 0
M  V30 1351 H 128.118 4.16341 0.267628 0
M  V30 1352 H 126.748 3.1361 0.764772 0
M  V30 1353 H 125.8 3.43385 -1.6368 0
M  V30 1354 H 127.112 4.59268 -1.94613 0
M  V30 1355 H 126.266 6.06604 -0.108032 0
M  V30 1356 H 125.005 4.86787 0.29825 0
M  V30 1357 H 124.01 5.12433 -1.9923 0
M  V30 1358 H 125.235 6.35614 -2.39107 0
M  V30 1359 H 123.181 6.55814 -0.156162 0
M  V30 1360 H 123.098 7.36977 -1.68526 0
M  V30 1361 H 124.366 7.77435 -0.567032 0
M  V30 1362 N 128.595 0.856903 1.32268 0
M  V30 1363 C 129.525 0.31858 2.31316 0
M  V30 1364 C 130.506 -0.583487 1.59779 0
M  V30 1365 O 131.691 -0.503259 1.87566 0
M  V30 1366 C 128.821 -0.491979 3.43798 0
M  V30 1367 C 127.775 0.315849 4.26833 0
M  V30 1368 C 127.101 -0.619586 5.31098 0
M  V30 1369 C 128.401 1.54282 4.98993 0
M  V30 1370 H 130.095 1.14621 2.76591 0
M  V30 1371 H 127.641 0.552613 1.32974 0
M  V30 1372 H 129.594 -0.879012 4.1213 0
M  V30 1373 H 128.318 -1.35299 2.97257 0
M  V30 1374 H 126.977 0.684664 3.6015 0
M  V30 1375 H 126.625 -1.47751 4.8081 0
M  V30 1376 H 126.325 -0.0830621 5.87541 0
M  V30 1377 H 127.849 -1.00375 6.02293 0
M  V30 1378 H 129.263 1.22796 5.59995 0
M  V30 1379 H 127.66 2.01745 5.65172 0
M  V30 1380 H 128.73 2.30285 4.26728 0
M  V30 1381 N 130.073 -1.45103 0.615059 0
M  V30 1382 C 131.319 -2.02483 0.113347 0
M  V30 1383 C 131.652 -1.48146 -1.25564 0
M  V30 1384 O 130.927 -0.659104 -1.82992 0
M  V30 1385 C 131.21 -3.60005 0.0825278 0
M  V30 1386 C 131.063 -4.2466 1.48271 0
M  V30 1387 C 132.382 -4.35972 -0.601401 0
M  V30 1388 H 129.501 -0.735764 0.0426632 0
M  V30 1389 H 132.143 -1.72868 0.788461 0
M  V30 1390 H 130.293 -3.85367 -0.492378 0
M  V30 1391 H 131.965 -4.10458 2.10527 0
M  V30 1392 H 130.208 -3.82772 2.04127 0
M  V30 1393 H 130.879 -5.336 1.41332 0
M  V30 1394 H 133.355 -4.15947 -0.112666 0
M  V30 1395 H 132.231 -5.45697 -0.592097 0
M  V30 1396 H 132.492 -4.09391 -1.66887 0
M  V30 1397 N 131.551 -0.354651 -1.53558 0
M  V30 1398 C 132.962 0.126902 -1.86268 0
M  V30 1399 C 133.313 1.49075 -1.27558 0
M  V30 1400 O 132.438 2.08105 -0.5934 0
M  V30 1401 C 133.033 0.237046 -3.3797 0
M  V30 1402 C 131.592 0.662842 -3.70518 0
M  V30 1403 C 130.739 -0.196652 -2.76602 0
M  V30 1404 H 133.69 -0.573849 -1.47962 0
M  V30 1405 H 133.711 1.06259 -3.65362 0
M  V30 1406 H 133.223 -0.755725 -3.80671 0
M  V30 1407 H 131.324 1.66424 -3.33367 0
M  V30 1408 H 131.437 0.445034 -4.77029 0
M  V30 1409 H 129.801 0.332763 -2.52517 0
M  V30 1410 H 130.584 -1.18676 -3.22135 0
M  V30 1411 N 133.029 1.57378 -0.0835403 0
M  V30 1412 C 134.277 1.93547 0.581718 0
M  V30 1413 C 134.598 0.96524 1.69435 0
M  V30 1414 O 133.868 0.0153369 1.95894 0
M  V30 1415 H 132.448 0.714521 0.217874 0
M  V30 1416 H 135.11 1.94366 -0.144158 0
M  V30 1417 H 134.206 2.95665 0.999423 0
M  V30 1418 N 134.507 -0.190092 1.56449 0
M  V30 1419 C 135.923 -0.54113 1.50146 0
M  V30 1420 C 136.123 -1.85603 0.784465 0
M  V30 1421 O 135.179 -2.5024 0.337051 0
M  V30 1422 C 136.492 -0.591241 2.9483 0
M  V30 1423 C 138.04 -0.679732 3.0553 0
M  V30 1424 C 138.515 -0.760908 4.51635 0
M  V30 1425 N 140.006 -0.824302 4.55806 0
M  V30 1426 C 140.741 -0.907365 5.66175 0
M  V30 1427 N 140.237 -0.952422 6.86222 0
M  V30 1428 N 142.03 -0.94494 5.541 0
M  V30 1429 H 134.181 0.67235 2.01478 0
M  V30 1430 H 136.444 0.240127 0.917084 0
M  V30 1431 H 136.15 0.305905 3.50367 0
M  V30 1432 H 136.024 -1.44422 3.48457 0
M  V30 1433 H 138.411 -1.56731 2.50039 0
M  V30 1434 H 138.492 0.199549 2.5502 0
M  V30 1435 H 138.136 0.122336 5.07753 0
M  V30 1436 H 138.066 -1.65606 4.99882 0
M  V30 1437 H 140.557 -0.798526 3.69367 0
M  V30 1438 H 140.87 -1.01645 7.66086 0
M  V30 1439 H 139.215 -0.921014 6.8887 0
M  V30 1440 H 142.406 -0.906612 4.59236 0
M  V30 1441 H 142.579 -1.00622 6.4014 0
M  V30 1442 N 135.985 -1.50799 -0.457987 0
M  V30 1443 C 137.234 -1.6168 -1.20593 0
M  V30 1444 C 137.547 -0.32888 -1.92815 0
M  V30 1445 O 138.753 -0.316773 -2.69646 0
M  V30 1446 C 137.209 -2.8545 -2.19195 0
M  V30 1447 C 136.817 -4.21168 -1.52715 0
M  V30 1448 C 138.561 -3.05681 -2.94549 0
M  V30 1449 C 136.468 -5.3611 -2.4968 0
M  V30 1450 H 135.398 -0.602134 -0.453818 0
M  V30 1451 H 138.049 -1.77245 -0.475031 0
M  V30 1452 H 136.431 -2.63472 -2.95632 0
M  V30 1453 H 137.605 -4.53449 -0.819775 0
M  V30 1454 H 135.92 -4.06648 -0.895922 0
M  V30 1455 H 138.517 -3.88727 -3.67145 0
M  V30 1456 H 138.86 -2.17929 -3.54701 0
M  V30 1457 H 139.393 -3.27901 -2.25223 0
M  V30 1458 H 136.132 -6.26057 -1.94249 0
M  V30 1459 H 135.652 -5.0823 -3.18532 0
M  V30 1460 H 137.331 -5.6722 -3.11241 0
M  V30 1461 N 137.463 0.71206 -1.40597 0
M  V30 1462 C 138.688 1.50617 -1.42581 0
M  V30 1463 C 139.113 1.88079 -0.0282102 0
M  V30 1464 O 138.471 1.53511 0.964579 0
M  V30 1465 C 138.519 2.7557 -2.3258 0
M  V30 1466 O 137.623 3.72414 -1.77148 0
M  V30 1467 H 136.964 0.453966 -0.484573 0
M  V30 1468 H 139.494 0.876649 -1.84868 0
M  V30 1469 H 139.504 3.2406 -2.47889 0
M  V30 1470 H 138.179 2.47639 -3.34138 0
M  V30 1471 H 136.756 3.31276 -1.71204 0
M  V30 1472 N 138.941 1.26152 0.944643 0
M  V30 1473 C 140.169 1.14259 1.72489 0
M  V30 1474 C 140.584 -0.302555 1.8636 0
M  V30 1475 O 139.941 -1.20741 1.36849 0
M  V30 1476 C 139.992 1.80266 3.13347 0
M  V30 1477 O 139.713 3.19133 3.00143 0
M  V30 1478 C 141.214 1.74283 4.07603 0
M  V30 1479 H 138.434 0.398051 0.540181 0
M  V30 1480 H 140.978 1.66706 1.18446 0
M  V30 1481 H 139.133 1.31766 3.64303 0
M  V30 1482 H 139.547 3.51744 3.89071 0
M  V30 1483 H 141.021 2.25111 5.04013 0
M  V30 1484 H 141.498 0.708631 4.33446 0
M  V30 1485 H 142.104 2.22319 3.62567 0
M  V30 1486 N 140.419 -1.14872 1.07899 0
M  V30 1487 C 141.329 -2.2341 0.715915 0
M  V30 1488 C 142.345 -1.71808 -0.275306 0
M  V30 1489 O 143.521 -2.01039 -0.120545 0
M  V30 1490 C 140.586 -3.46474 0.125168 0
M  V30 1491 C 139.647 -4.13039 1.17034 0
M  V30 1492 C 138.88 -5.30229 0.607688 0
M  V30 1493 O 139.103 -5.675 -0.574497 0
M  V30 1494 O 138.037 -5.86444 1.35526 0
M  V30 1495 H 141.863 -2.56808 1.62121 0
M  V30 1496 H 139.448 -1.22702 0.852322 0
M  V30 1497 H 141.33 -4.20917 -0.201729 0
M  V30 1498 H 140.005 -3.14811 -0.753364 0
M  V30 1499 H 138.912 -3.40493 1.54968 0
M  V30 1500 H 140.245 -4.48796 2.02097 0
M  V30 1501 N 141.898 -0.863906 -1.31812 0
M  V30 1502 C 143.144 -0.472535 -1.97218 0
M  V30 1503 C 143.477 0.971394 -1.68159 0
M  V30 1504 O 142.752 1.68309 -0.974798 0
M  V30 1505 C 143.035 -0.723054 -3.52766 0
M  V30 1506 C 142.888 -2.21608 -3.91421 0
M  V30 1507 C 144.207 -0.185522 -4.39709 0
M  V30 1508 H 141.326 -0.173158 -0.71637 0
M  V30 1509 H 143.968 -1.08403 -1.56041 0
M  V30 1510 H 142.118 -0.202577 -3.87971 0
M  V30 1511 H 143.79 -2.80334 -3.66347 0
M  V30 1512 H 142.033 -2.691 -3.40246 0
M  V30 1513 H 142.704 -2.34203 -4.99853 0
M  V30 1514 H 145.18 -0.630726 -4.11292 0
M  V30 1515 H 144.056 -0.390306 -5.47511 0
M  V30 1516 H 144.317 0.912229 -4.32586 0
M  V30 1517 N 143.376 1.44774 -0.622745 0
M  V30 1518 C 144.653 1.95522 -0.0551974 0
M  V30 1519 C 145.033 1.5649 1.41683 0
M  V30 1520 O 144.381 0.834848 2.12703 0
M  V30 1521 C 144.591 3.4796 -0.269242 0
M  V30 1522 C 145.939 4.24306 -0.158014 0
M  V30 1523 O 146.963 3.55637 -0.200162 0
M  V30 1524 O 145.822 5.46471 -0.0558693 0
M  V30 1525 H 142.916 0.826556 0.0271015 0
M  V30 1526 H 145.462 1.54866 -0.693864 0
M  V30 1527 H 144.234 3.6939 -1.29099 0
M  V30 1528 H 143.857 3.95543 0.403966 0
M  V30 1529 N 144.854 0.36279 1.53368 0
M  V30 1530 C 145.817 -0.472679 2.24273 0
M  V30 1531 C 146.817 -1.012 1.24961 0
M  V30 1532 O 148.007 -0.898194 1.49259 0
M  V30 1533 C 145.139 -1.66039 2.97731 0
M  V30 1534 H 146.332 0.14773 2.99536 0
M  V30 1535 H 143.885 0.114434 1.55881 0
M  V30 1536 H 144.62 -2.31896 2.26704 0
M  V30 1537 H 144.405 -1.28066 3.70596 0
M  V30 1538 H 145.895 -2.25252 3.51641 0
M  V30 1539 N 146.332 -1.57332 0.0918853 0
M  V30 1540 C 147.748 -1.57389 -0.264766 0
M  V30 1541 C 147.948 -1.10281 -1.68643 0
M  V30 1542 O 147.004 -0.777801 -2.40222 0
M  V30 1543 C 148.317 -3.00648 -0.0561195 0
M  V30 1544 C 149.865 -3.12754 -0.124116 0
M  V30 1545 C 150.34 -4.57965 0.0564972 0
M  V30 1546 N 151.831 -4.632 0.00155611 0
M  V30 1547 C 152.566 -5.73281 0.116598 0
M  V30 1548 N 152.062 -6.92208 0.286294 0
M  V30 1549 N 153.855 -5.6207 0.0580973 0
M  V30 1550 H 146.006 -1.86262 1.02079 0
M  V30 1551 H 148.269 -0.859579 0.399786 0
M  V30 1552 H 147.975 -3.393 0.925669 0
M  V30 1553 H 147.849 -3.68623 -0.799823 0
M  V30 1554 H 150.236 -2.73976 -1.09641 0
M  V30 1555 H 150.317 -2.47377 0.651024 0
M  V30 1556 H 149.961 -4.97436 1.02564 0
M  V30 1557 H 149.891 -5.21399 -0.738297 0
M  V30 1558 H 152.382 -3.77686 -0.127192 0
M  V30 1559 H 152.695 -7.71934 0.365676 0
M  V30 1560 H 151.04 -6.94254 0.32192 0
M  V30 1561 H 154.231 -4.68043 -0.0733204 0
M  V30 1562 H 154.404 -6.47824 0.151203 0
M  V30 1563 N 147.81 0.181792 -1.56548 0
M  V30 1564 C 148.74 1.22765 -1.98623 0
M  V30 1565 C 149.721 1.46747 -0.860189 0
M  V30 1566 O 150.906 1.58259 -1.12551 0
M  V30 1567 C 148.036 2.56894 -2.33715 0
M  V30 1568 C 146.99 2.475 -3.49182 0
M  V30 1569 C 146.316 3.86023 -3.69986 0
M  V30 1570 C 147.616 1.98866 -4.82959 0
M  V30 1571 H 149.31 0.877942 -2.86239 0
M  V30 1572 H 146.856 0.42088 -1.37712 0
M  V30 1573 H 148.809 3.30253 -2.61746 0
M  V30 1574 H 147.533 2.93632 -1.42997 0
M  V30 1575 H 146.192 1.76596 -3.21262 0
M  V30 1576 H 145.84 4.20136 -2.76576 0
M  V30 1577 H 145.54 3.80609 -4.47672 0
M  V30 1578 H 147.064 4.60984 -4.00407 0
M  V30 1579 H 148.478 2.61992 -5.09934 0
M  V30 1580 H 146.875 2.04424 -5.64208 0
M  V30 1581 H 147.945 0.942465 -4.75653 0
M  V30 1582 N 149.288 1.51039 0.449983 0
M  V30 1583 C 150.513 1.6715 1.22783 0
M  V30 1584 C 150.938 0.363081 1.84563 0
M  V30 1585 O 150.296 -0.675433 1.68249 0
M  V30 1586 C 150.344 2.77985 2.29689 0
M  V30 1587 O 149.448 2.40707 3.34864 0
M  V30 1588 H 148.789 0.557746 0.360299 0
M  V30 1589 H 151.319 1.97535 0.533005 0
M  V30 1590 H 151.329 3.01693 2.74673 0
M  V30 1591 H 150.004 3.72935 1.84098 0
M  V30 1592 H 148.581 2.27523 2.95445 0
M  V30 1593 N 150.766 -0.704594 1.40972 0
M  V30 1594 C 151.996 -1.49138 1.42974 0
M  V30 1595 C 152.404 -1.89175 0.0308406 0
M  V30 1596 O 151.747 -1.56734 -0.958138 0
M  V30 1597 C 151.809 -2.79016 2.26694 0
M  V30 1598 C 151.473 -2.61236 3.74973 0
M  V30 1599 C 152.47 -2.27773 4.67349 0
M  V30 1600 C 150.155 -2.77158 4.18914 0
M  V30 1601 C 152.149 -2.10457 6.01653 0
M  V30 1602 C 149.836 -2.59459 5.53285 0
M  V30 1603 C 150.834 -2.26158 6.4447 0
M  V30 1604 O 150.522 -2.08605 7.76363 0
M  V30 1605 H 150.254 -0.466443 0.489292 0
M  V30 1606 H 152.808 -0.8758 1.85793 0
M  V30 1607 H 151.038 -3.42947 1.78673 0
M  V30 1608 H 152.727 -3.40782 2.20504 0
M  V30 1609 H 153.493 -2.15095 4.34694 0
M  V30 1610 H 149.372 -3.02064 3.48251 0
M  V30 1611 H 152.916 -1.84387 6.72791 0
M  V30 1612 H 148.813 -2.71725 5.85522 0
M  V30 1613 H 149.581 -2.23439 7.87412 0
M  V30 1614 N 152.244 -1.26651 -0.937939 0
M  V30 1615 C 153.521 -1.0313 -1.66204 0
M  V30 1616 C 153.901 0.437256 -2.06522 0
M  V30 1617 O 153.249 1.41831 -1.79154 0
M  V30 1618 C 153.459 -1.98314 -2.87181 0
M  V30 1619 C 154.807 -2.27107 -3.58758 0
M  V30 1620 O 155.831 -1.96205 -2.97291 0
M  V30 1621 O 154.69 -2.79736 -4.69479 0
M  V30 1622 H 151.784 -0.392384 -0.727986 0
M  V30 1623 H 154.33 -1.37874 -0.989382 0
M  V30 1624 H 153.102 -2.97399 -2.54302 0
M  V30 1625 H 152.725 -1.64068 -3.6217 0
M  V30 1626 N 153.722 1.14298 -1.08507 0
M  V30 1627 C 154.95 1.89219 -0.836876 0
M  V30 1628 C 155.365 1.78638 0.611054 0
M  V30 1629 O 154.722 1.14643 1.41998 0
M  V30 1630 C 154.773 3.39158 -1.25116 0
M  V30 1631 O 154.494 3.49449 -2.64229 0
M  V30 1632 C 155.995 4.31073 -1.03398 0
M  V30 1633 H 153.215 0.599328 -0.301739 0
M  V30 1634 H 155.759 1.44746 -1.44461 0
M  V30 1635 H 153.914 3.81251 -0.687514 0
M  V30 1636 H 154.328 4.42589 -2.81452 0
M  V30 1637 H 155.802 5.34646 -1.37323 0
M  V30 1638 H 156.279 4.3919 0.0289259 0
M  V30 1639 H 156.885 3.94738 -1.58311 0
M  V30 1640 N 155.201 0.870884 1.31352 0
M  V30 1641 C 156.111 0.330783 2.32256 0
M  V30 1642 C 157.127 -0.559767 1.6475 0
M  V30 1643 O 158.303 -0.456263 1.96164 0
M  V30 1644 C 155.368 -0.458137 3.4366 0
M  V30 1645 C 154.429 0.460482 4.26823 0
M  V30 1646 C 153.662 -0.290881 5.32907 0
M  V30 1647 O 153.885 -1.51885 5.49806 0
M  V30 1648 O 152.819 0.351732 6.00871 0
M  V30 1649 H 156.645 1.16718 2.80376 0
M  V30 1650 H 154.23 0.634285 1.35267 0
M  V30 1651 H 156.112 -0.905343 4.1156 0
M  V30 1652 H 154.787 -1.27106 2.97701 0
M  V30 1653 H 153.694 0.956207 3.61673 0
M  V30 1654 H 155.027 1.23903 4.7635 0
M  V30 1655 N 156.679 -1.44442 0.630414 0
M  V30 1656 C 157.642 -2.29107 -0.0652523 0
M  V30 1657 C 158.642 -1.41002 -0.772995 0
M  V30 1658 O 159.832 -1.62881 -0.617692 0
M  V30 1659 C 156.964 -3.22564 -1.10296 0
M  V30 1660 H 158.157 -2.92103 0.679401 0
M  V30 1661 H 155.71 -1.51343 0.390517 0
M  V30 1662 H 156.445 -2.64416 -1.87762 0
M  V30 1663 H 156.23 -3.87491 -0.59941 0
M  V30 1664 H 157.72 -3.86167 -1.5895 0
M  V30 1665 N 158.157 -0.370918 -1.53173 0
M  V30 1666 C 159.382 0.220293 -2.06227 0
M  V30 1667 C 159.807 1.41243 -1.24225 0
M  V30 1668 O 159.165 1.79387 -0.262645 0
M  V30 1669 C 159.213 0.586663 -3.55796 0
M  V30 1670 O 158.317 1.68317 -3.76488 0
M  V30 1671 H 157.658 0.0308099 -0.663285 0
M  V30 1672 H 160.188 -0.533068 -1.97534 0
M  V30 1673 H 160.198 0.85617 -3.98916 0
M  V30 1674 H 158.873 -0.285013 -4.14922 0
M  V30 1675 H 157.45 1.40881 -3.45264 0
M  V30 1676 N 159.635 1.57281 -0.100228 0
M  V30 1677 C 160.884 1.93713 0.561984 0
M  V30 1678 C 161.197 0.984492 1.69018 0
M  V30 1679 O 162.403 1.24273 2.41389 0
M  V30 1680 C 160.859 3.4421 1.05106 0
M  V30 1681 C 160.467 4.47975 -0.0476628 0
M  V30 1682 C 162.211 3.89595 1.68571 0
M  V30 1683 C 160.118 5.89631 0.457055 0
M  V30 1684 H 159.048 0.723082 0.2137 0
M  V30 1685 H 161.699 1.82644 -0.177057 0
M  V30 1686 H 160.081 3.50449 1.84395 0
M  V30 1687 H 161.255 4.53385 -0.823333 0
M  V30 1688 H 159.57 4.1223 -0.587816 0
M  V30 1689 H 162.167 4.92832 2.07414 0
M  V30 1690 H 162.51 3.28526 2.55688 0
M  V30 1691 H 163.043 3.86078 0.958562 0
M  V30 1692 H 159.782 6.54411 -0.377616 0
M  V30 1693 H 159.302 5.87681 1.19962 0
M  V30 1694 H 160.981 6.40363 0.92437 0
M  V30 1695 N 161.113 -0.173488 1.56642 0
M  V30 1696 C 162.076 -1.19859 1.95362 0
M  V30 1697 C 163.076 -1.37296 0.83704 0
M  V30 1698 O 164.266 -1.34739 1.10413 0
M  V30 1699 C 161.398 -2.56405 2.24654 0
M  V30 1700 H 162.591 -0.867062 2.87092 0
M  V30 1701 H 160.144 -0.415853 1.50666 0
M  V30 1702 H 160.879 -2.94576 1.35631 0
M  V30 1703 H 160.664 -2.45115 3.06041 0
M  V30 1704 H 162.154 -3.30287 2.5554 0
M  V30 1705 N 162.591 -1.51276 -0.441967 0
M  V30 1706 C 163.538 -1.72256 -1.53612 0
M  V30 1707 C 164.508 -0.564164 -1.56225 0
M  V30 1708 O 165.693 -0.798074 -1.73307 0
M  V30 1709 C 162.833 -1.84932 -2.91366 0
M  V30 1710 C 161.946 -3.12459 -2.98317 0
M  V30 1711 C 161.081 -3.15758 -4.27166 0
M  V30 1712 C 160.12 -4.37619 -4.27967 0
M  V30 1713 N 159.257 -4.38493 -5.48333 0
M  V30 1714 H 164.097 -2.65654 -1.35026 0
M  V30 1715 H 161.634 -1.31662 -0.656009 0
M  V30 1716 H 163.592 -1.90263 -3.7129 0
M  V30 1717 H 162.222 -0.949461 -3.08521 0
M  V30 1718 H 161.274 -3.1646 -2.11086 0
M  V30 1719 H 162.586 -4.02382 -2.94771 0
M  V30 1720 H 161.74 -3.19979 -5.15459 0
M  V30 1721 H 160.479 -2.23715 -4.33362 0
M  V30 1722 H 159.484 -4.33579 -3.38067 0
M  V30 1723 H 160.709 -5.30921 -4.23438 0
M  V30 1724 H 158.655 -3.49318 -5.55259 0
M  V30 1725 H 158.572 -5.22219 -5.46647 0
M  V30 1726 H 159.84 -4.469 -6.38671 0
M  V30 1727 N 164.069 0.697108 -1.41344 0
M  V30 1728 C 165.032 1.79281 -1.42797 0
M  V30 1729 C 166.032 1.57607 -0.318837 0
M  V30 1730 O 167.222 1.64309 -0.578642 0
M  V30 1731 C 164.354 3.17632 -1.23785 0
M  V30 1732 H 165.547 1.79385 -2.40335 0
M  V30 1733 H 163.1 0.904582 -1.27464 0
M  V30 1734 H 163.835 3.23167 -0.270814 0
M  V30 1735 H 163.62 3.34765 -2.04144 0
M  V30 1736 H 165.11 3.97617 -1.27633 0
M  V30 1737 N 165.547 1.27147 0.931209 0
M  V30 1738 C 166.494 1.09568 2.03134 0
M  V30 1739 C 167.464 -0.00222433 1.661 0
M  V30 1740 O 168.649 0.159439 1.90133 0
M  V30 1741 C 165.789 0.745231 3.36957 0
M  V30 1742 C 164.902 1.92041 3.86968 0
M  V30 1743 C 164.037 1.51216 5.09222 0
M  V30 1744 C 163.076 2.65504 5.5152 0
M  V30 1745 N 162.213 2.25291 6.64972 0
M  V30 1746 H 167.053 2.03708 2.17502 0
M  V30 1747 H 164.59 1.01411 1.06556 0
M  V30 1748 H 166.548 0.522878 4.1391 0
M  V30 1749 H 165.178 -0.159202 3.22407 0
M  V30 1750 H 164.23 2.25541 3.06326 0
M  V30 1751 H 165.542 2.77787 4.1429 0
M  V30 1752 H 164.696 1.25084 5.93666 0
M  V30 1753 H 163.435 0.625749 4.83669 0
M  V30 1754 H 162.44 2.92354 4.65628 0
M  V30 1755 H 163.665 3.54761 5.7907 0
M  V30 1756 H 161.611 1.39098 6.41083 0
M  V30 1757 H 161.528 3.04577 6.91931 0
M  V30 1758 H 162.796 2.02398 7.52765 0
M  V30 1759 N 167.025 -1.13721 1.09112 0
M  V30 1760 C 168.441 -1.36914 0.820174 0
M  V30 1761 C 168.641 -1.93356 -0.567079 0
M  V30 1762 O 167.697 -2.15093 -1.32255 0
M  V30 1763 C 169.01 -2.3235 1.90877 0
M  V30 1764 C 170.558 -2.45973 1.93562 0
M  V30 1765 C 171.033 -3.44714 3.01556 0
M  V30 1766 N 172.524 -3.52263 3.00775 0
M  V30 1767 C 173.259 -4.28536 3.80978 0
M  V30 1768 N 172.755 -5.07991 4.71081 0
M  V30 1769 N 174.548 -4.23804 3.69251 0
M  V30 1770 H 166.699 -0.754348 1.98553 0
M  V30 1771 H 168.962 -0.3944 0.862063 0
M  V30 1772 H 168.668 -1.98027 2.90651 0
M  V30 1773 H 168.542 -3.32332 1.78424 0
M  V30 1774 H 170.929 -2.79584 0.944286 0
M  V30 1775 H 171.01 -1.45926 2.10093 0
M  V30 1776 H 170.654 -3.11835 4.00901 0
M  V30 1777 H 170.584 -4.44558 2.82269 0
M  V30 1778 H 173.075 -2.95567 2.35475 0
M  V30 1779 H 173.388 -5.63487 5.28869 0
M  V30 1780 H 171.733 -5.07235 4.75119 0
M  V30 1781 H 174.924 -3.60806 2.98222 0
M  V30 1782 H 175.097 -4.82995 4.31995 0
M  V30 1783 N 168.503 -0.877838 -1.30888 0
M  V30 1784 C 169.433 -0.35534 -2.3078 0
M  V30 1785 C 170.414 0.557994 -1.60687 0
M  V30 1786 O 171.599 0.473355 -1.88343 0
M  V30 1787 C 168.729 0.437221 -3.44537 0
M  V30 1788 C 167.683 -0.383715 -4.26276 0
M  V30 1789 C 167.009 0.535014 -5.32017 0
M  V30 1790 C 168.309 -1.62201 -4.96476 0
M  V30 1791 H 170.003 -1.19007 -2.74732 0
M  V30 1792 H 167.549 -0.573698 -1.32078 0
M  V30 1793 H 169.502 0.813334 -4.13477 0
M  V30 1794 H 168.226 1.30553 -2.99372 0
M  V30 1795 H 166.885 -0.741874 -3.59015 0
M  V30 1796 H 166.533 1.40083 -4.831 0
M  V30 1797 H 166.233 -0.0104211 -5.87599 0
M  V30 1798 H 167.757 0.907799 -6.03814 0
M  V30 1799 H 169.171 -1.31689 -5.5797 0
M  V30 1800 H 167.568 -2.10711 -5.61891 0
M  V30 1801 H 168.638 -2.37044 -4.23011 0
M  V30 1802 N 169.982 1.44106 -0.638065 0
M  V30 1803 C 171.231 2.01194 -0.142744 0
M  V30 1804 C 171.544 1.50835 1.24532 0
M  V30 1805 O 172.75 2.00096 1.83504 0
M  V30 1806 C 171.206 3.59319 -0.20442 0
M  V30 1807 C 170.814 4.18674 -1.59423 0
M  V30 1808 C 172.558 4.23854 0.234079 0
M  V30 1809 C 170.465 5.69045 -1.61065 0
M  V30 1810 H 169.395 0.752367 -0.0495998 0
M  V30 1811 H 172.046 1.65246 -0.797881 0
M  V30 1812 H 170.428 3.92598 0.517946 0
M  V30 1813 H 171.602 3.96921 -2.34074 0
M  V30 1814 H 169.917 3.66453 -1.97741 0
M  V30 1815 H 172.514 5.34155 0.241443 0
M  V30 1816 H 172.857 3.96688 1.2627 0
M  V30 1817 H 173.39 3.95403 -0.436025 0
M  V30 1818 H 170.129 6.00956 -2.61787 0
M  V30 1819 H 169.649 5.929 -0.90718 0
M  V30 1820 H 171.328 6.32809 -1.34766 0
M  V30 1821 N 171.46 0.379036 1.52974 0
M  V30 1822 C 172.407 -0.461048 2.26148 0
M  V30 1823 C 173.377 -1.06637 1.27349 0
M  V30 1824 O 174.562 -1.09633 1.56157 0
M  V30 1825 C 171.702 -1.58782 3.06402 0
M  V30 1826 C 170.815 -1.00636 4.20115 0
M  V30 1827 C 169.95 -2.10334 4.87784 0
M  V30 1828 C 168.989 -1.49724 5.93506 0
M  V30 1829 N 168.126 -2.5331 6.54812 0
M  V30 1830 H 172.966 0.169429 2.97518 0
M  V30 1831 H 170.503 0.0953806 1.4679 0
M  V30 1832 H 172.461 -2.25174 3.51215 0
M  V30 1833 H 171.091 -2.18876 2.37261 0
M  V30 1834 H 170.143 -0.232332 3.7969 0
M  V30 1835 H 171.455 -0.523343 4.96047 0
M  V30 1836 H 170.609 -2.84519 5.35849 0
M  V30 1837 H 169.348 -2.61992 4.11353 0
M  V30 1838 H 168.353 -0.740598 5.44789 0
M  V30 1839 H 169.578 -0.988732 6.71864 0
M  V30 1840 H 167.524 -3.04156 5.81227 0
M  V30 1841 H 167.441 -2.09734 7.26325 0
M  V30 1842 H 168.709 -3.27155 7.07524 0
M  V30 1843 N 172.938 -1.57226 0.108567 0
M  V30 1844 C 173.868 -2.17778 -0.84232 0
M  V30 1845 C 174.849 -1.11487 -1.2847 0
M  V30 1846 O 176.034 -1.39681 -1.34918 0
M  V30 1847 C 173.164 -2.76888 -2.09644 0
M  V30 1848 C 172.118 -3.88669 -1.79221 0
M  V30 1849 C 171.444 -4.34541 -3.11574 0
M  V30 1850 C 172.744 -5.11251 -1.06864 0
M  V30 1851 H 174.438 -2.97489 -0.337774 0
M  V30 1852 H 171.984 -1.43097 -0.161025 0
M  V30 1853 H 173.937 -3.17904 -2.76614 0
M  V30 1854 H 172.661 -1.94451 -2.62405 0
M  V30 1855 H 171.32 -3.48213 -1.14644 0
M  V30 1856 H 170.968 -3.48977 -3.62249 0
M  V30 1857 H 170.668 -5.09914 -2.91996 0
M  V30 1858 H 172.192 -4.782 -3.7968 0
M  V30 1859 H 173.606 -5.49352 -1.63968 0
M  V30 1860 H 172.003 -5.9214 -0.974178 0
M  V30 1861 H 173.073 -4.8487 -0.0536168 0
M  V30 1862 N 174.416 0.165178 -1.56732 0
M  V30 1863 C 175.646 0.894919 -1.86212 0
M  V30 1864 C 176.054 1.76066 -0.692627 0
M  V30 1865 O 175.397 1.80387 0.347303 0
M  V30 1866 C 175.459 1.8174 -3.10179 0
M  V30 1867 C 175.123 1.13064 -4.42793 0
M  V30 1868 C 176.12 0.493169 -5.17556 0
M  V30 1869 C 173.805 1.12556 -4.89527 0
M  V30 1870 C 175.799 -0.140209 -6.37246 0
M  V30 1871 C 173.486 0.488366 -6.09145 0
M  V30 1872 C 174.484 -0.143411 -6.82849 0
M  V30 1873 O 174.172 -0.77055 -8.00199 0
M  V30 1874 H 173.904 0.265114 -0.621844 0
M  V30 1875 H 176.458 0.168242 -2.0471 0
M  V30 1876 H 174.688 2.58455 -2.87642 0
M  V30 1877 H 176.377 2.4175 -3.26055 0
M  V30 1878 H 177.143 0.489023 -4.82528 0
M  V30 1879 H 173.022 1.60672 -4.32094 0
M  V30 1880 H 176.566 -0.633932 -6.94714 0
M  V30 1881 H 172.463 0.490116 -6.43637 0
M  V30 1882 H 173.231 -0.670408 -8.1575 0
M  V30 1883 N 175.894 1.51508 0.433938 0
M  V30 1884 C 176.842 1.73646 1.54757 0
M  V30 1885 C 177.836 0.602854 1.5831 0
M  V30 1886 O 179.042 0.784318 1.62014 0
M  V30 1887 H 175.417 0.548718 0.51421 0
M  V30 1888 H 177.388 2.66991 1.33261 0
M  V30 1889 C 176.137 1.88172 2.92381 0
M  V30 1890 H 175.46 2.74808 2.90381 0
M  V30 1891 H 176.9 2.07672 3.6966 0
M  V30 1892 C 175.359 0.64239 3.30719 0
M  V30 1893 O 175.889 -0.201362 4.01195 0
M  V30 1894 N 174.095 0.485489 2.86516 0
M  V30 1895 H 173.642 1.17318 2.29334 0
M  V30 1896 H 173.6 -0.342482 3.12529 0
M  V30 1897 N 177.372 -0.689602 1.41712 0
M  V30 1898 C 178.649 -1.44457 1.31877 0
M  V30 1899 C 179.029 -2.11039 -0.0508537 0
M  V30 1900 O 178.377 -2.02138 -1.06547 0
M  V30 1901 C 178.587 -2.45913 2.47645 0
M  V30 1902 C 179.935 -3.10991 2.89084 0
M  V30 1903 O 180.959 -2.56238 2.47428 0
M  V30 1904 O 179.818 -4.10174 3.61137 0
M  V30 1905 H 176.912 -0.64362 0.519309 0
M  V30 1906 H 179.458 -0.719576 1.53689 0
M  V30 1907 H 178.23 -1.95409 3.39015 0
M  V30 1908 H 177.853 -3.25913 2.27742 0
M  V30 1909 N 178.85 -1.27639 -0.924453 0
M  V30 1910 C 179.813 -1.10681 -2.00705 0
M  V30 1911 C 180.813 -0.0497823 -1.60723 0
M  V30 1912 O 182.003 -0.294654 -1.7169 0
M  V30 1913 C 179.135 -0.687164 -3.33902 0
M  V30 1914 H 180.328 -2.06817 -2.17179 0
M  V30 1915 H 177.881 -1.10473 -1.10569 0
M  V30 1916 H 178.616 0.275439 -3.23128 0
M  V30 1917 H 178.401 -1.45061 -3.6428 0
M  V30 1918 H 179.891 -0.590853 -4.13399 0
M  V30 1919 N 180.328 1.1314 -1.09713 0
M  V30 1920 C 181.576 1.84119 -0.833338 0
M  V30 1921 C 181.897 1.84097 0.642904 0
M  V30 1922 O 181.167 1.29881 1.46655 0
M  V30 1923 H 179.747 0.681766 -0.305293 0
M  V30 1924 H 182.409 1.37038 -1.38588 0
M  V30 1925 H 181.505 2.88543 -1.18951 0
M  V30 1926 N 181.806 0.884767 1.30421 0
M  V30 1927 C 183.055 0.499164 1.95426 0
M  V30 1928 C 183.368 -0.95645 1.70621 0
M  V30 1929 O 184.574 -1.44889 2.29607 0
M  V30 1930 C 183.03 0.84177 3.49917 0
M  V30 1931 C 182.638 2.31514 3.83543 0
M  V30 1932 C 184.382 0.525355 4.21237 0
M  V30 1933 C 182.289 2.59939 5.31212 0
M  V30 1934 H 181.219 0.182944 0.73147 0
M  V30 1935 H 183.87 1.07971 1.48373 0
M  V30 1936 H 182.252 0.190311 3.95542 0
M  V30 1937 H 183.426 3.0109 3.48829 0
M  V30 1938 H 181.741 2.59907 3.25326 0
M  V30 1939 H 184.338 0.714762 5.29901 0
M  V30 1940 H 184.681 -0.535222 4.12845 0
M  V30 1941 H 185.214 1.134 3.81294 0
M  V30 1942 H 181.953 3.64736 5.44654 0
M  V30 1943 H 181.473 1.94972 5.67227 0
M  V30 1944 H 183.152 2.45429 5.98643 0
M  V30 1945 N 183.284 -1.43765 0.645699 0
M  V30 1946 C 184.509 -2.06767 0.161883 0
M  V30 1947 C 184.934 -1.48034 -1.16049 0
M  V30 1948 O 184.292 -0.587369 -1.71522 0
M  V30 1949 C 184.34 -3.60519 0.0762003 0
M  V30 1950 O 183.444 -4.00982 -0.963721 0
M  V30 1951 H 182.785 -0.657675 0.091429 0
M  V30 1952 H 185.315 -1.84397 0.886499 0
M  V30 1953 H 185.325 -4.07853 -0.109604 0
M  V30 1954 H 184 -4.02646 1.04157 0
M  V30 1955 H 182.577 -3.65253 -0.751312 0
M  V30 1956 N 184.763 -0.387143 -1.52771 0
M  V30 1957 C 185.711 0.463953 -2.27926 0
M  V30 1958 C 186.705 1.06493 -1.31741 0
M  V30 1959 O 187.911 1.00565 -1.49287 0
M  V30 1960 H 184.286 0.16837 -0.732909 0
M  V30 1961 H 186.257 -0.19141 -2.97785 0
M  V30 1962 C 185.006 1.5803 -3.09713 0
M  V30 1963 H 184.329 1.12718 -3.83581 0
M  V30 1964 H 185.769 2.15008 -3.65442 0
M  V30 1965 C 184.228 2.53509 -2.2189 0
M  V30 1966 O 184.758 3.56863 -1.84422 0
M  V30 1967 N 182.964 2.23199 -1.86093 0
M  V30 1968 H 182.511 1.39185 -2.16761 0
M  V30 1969 H 182.469 2.87333 -1.27621 0
M  V30 1970 N 186.241 1.57166 -0.116904 0
M  V30 1971 C 187.518 1.86645 0.585049 0
M  V30 1972 C 187.898 1.0177 1.84949 0
M  V30 1973 O 187.246 0.0960379 2.28298 0
M  V30 1974 C 187.456 3.37736 0.879507 0
M  V30 1975 C 188.804 4.06289 1.23348 0
M  V30 1976 O 189.828 3.42743 0.969836 0
M  V30 1977 O 188.687 5.18455 1.7282 0
M  V30 1978 H 185.781 0.772593 0.295007 0
M  V30 1979 H 188.327 1.69025 -0.151249 0
M  V30 1980 H 187.099 3.91296 -0.0166136 0
M  V30 1981 H 186.722 3.6078 1.67103 0
M  V30 1982 N 187.719 -0.156864 1.56817 0
M  V30 1983 C 189.135 -0.50916 1.5126 0
M  V30 1984 C 189.335 -1.83897 0.823658 0
M  V30 1985 O 188.391 -2.49469 0.390055 0
M  V30 1986 C 189.704 -0.52857 2.96018 0
M  V30 1987 C 191.252 -0.614771 3.06903 0
M  V30 1988 C 191.727 -0.664938 4.53147 0
M  V30 1989 N 193.218 -0.727433 4.57452 0
M  V30 1990 C 193.953 -0.787067 5.67973 0
M  V30 1991 N 193.449 -0.806649 6.88088 0
M  V30 1992 N 195.242 -0.827195 5.5598 0
M  V30 1993 H 187.393 0.714935 2.00006 0
M  V30 1994 H 189.656 0.259526 0.911784 0
M  V30 1995 H 189.362 0.380154 3.49639 0
M  V30 1996 H 189.236 -1.36998 3.51442 0
M  V30 1997 H 191.623 -1.51392 2.53307 0
M  V30 1998 H 191.704 0.253597 2.5454 0
M  V30 1999 H 191.348 0.230011 5.07379 0
M  V30 2000 H 191.278 -1.54966 5.03282 0
M  V30 2001 H 193.769 -0.719998 3.70978 0
M  V30 2002 H 194.082 -0.853727 7.6807 0
M  V30 2003 H 192.427 -0.774687 6.90669 0
M  V30 2004 H 195.618 -0.808998 4.61056 0
M  V30 2005 H 195.791 -0.870206 6.4213 0
M  V30 2006 N 189.197 -1.51736 -0.425897 0
M  V30 2007 C 190.446 -1.64201 -1.17136 0
M  V30 2008 C 190.759 -0.369705 -1.92074 0
M  V30 2009 O 191.965 -0.373898 -2.68913 0
M  V30 2010 C 190.421 -2.90035 -2.13091 0
M  V30 2011 C 190.029 -4.24312 -1.43747 0
M  V30 2012 C 191.773 -3.1186 -2.87999 0
M  V30 2013 C 189.68 -5.41285 -2.38253 0
M  V30 2014 H 188.61 -0.611624 -0.440944 0
M  V30 2015 H 191.261 -1.78212 -0.437328 0
M  V30 2016 H 189.643 -2.69684 -2.89977 0
M  V30 2017 H 190.817 -4.55086 -0.723408 0
M  V30 2018 H 189.132 -4.08456 -0.809465 0
M  V30 2019 H 191.729 -3.96427 -3.58817 0
M  V30 2020 H 192.072 -2.25403 -3.49999 0
M  V30 2021 H 192.605 -3.32605 -2.18217 0
M  V30 2022 H 189.344 -6.30037 -1.80925 0
M  V30 2023 H 188.864 -5.14872 -3.0768 0
M  V30 2024 H 190.543 -5.73694 -2.99139 0
M  V30 2025 N 190.675 0.682077 -1.42076 0
M  V30 2026 C 191.605 1.80796 -1.47767 0
M  V30 2027 C 192.586 1.6677 -0.334954 0
M  V30 2028 O 193.771 1.863 -0.548264 0
M  V30 2029 C 190.901 3.19038 -1.37229 0
M  V30 2030 C 189.855 3.47789 -2.49453 0
M  V30 2031 C 189.181 4.8553 -2.23975 0
M  V30 2032 C 190.481 3.45411 -3.91776 0
M  V30 2033 H 192.175 1.7629 -2.41997 0
M  V30 2034 H 189.721 0.846721 -1.16476 0
M  V30 2035 H 191.674 3.97528 -1.39821 0
M  V30 2036 H 190.398 3.24204 -0.394907 0
M  V30 2037 H 189.057 2.71657 -2.46166 0
M  V30 2038 H 188.705 4.87337 -1.24547 0
M  V30 2039 H 188.405 5.0573 -2.99184 0
M  V30 2040 H 189.929 5.66312 -2.28304 0
M  V30 2041 H 191.343 4.13882 -3.96705 0
M  V30 2042 H 189.74 3.77145 -4.66778 0
M  V30 2043 H 190.81 2.44122 -4.18966 0
M  V30 2044 N 192.153 1.28127 0.917671 0
M  V30 2045 C 193.402 1.14432 1.66097 0
M  V30 2046 C 193.715 -0.307247 1.93172 0
M  V30 2047 O 194.921 -0.565259 2.65551 0
M  V30 2048 C 193.377 2.00015 2.99202 0
M  V30 2049 C 192.985 3.49889 2.79789 0
M  V30 2050 C 194.729 1.94996 3.77064 0
M  V30 2051 C 192.636 4.27636 4.08511 0
M  V30 2052 H 191.566 0.424662 0.62304 0
M  V30 2053 H 194.217 1.52628 1.01868 0
M  V30 2054 H 192.599 1.54672 3.64544 0
M  V30 2055 H 193.773 4.03162 2.23152 0
M  V30 2056 H 192.088 3.56392 2.15345 0
M  V30 2057 H 194.685 2.50354 4.72469 0
M  V30 2058 H 195.028 0.925819 4.05875 0
M  V30 2059 H 195.561 2.38287 3.18534 0
M  V30 2060 H 192.3 5.30615 3.84874 0
M  V30 2061 H 191.82 3.79137 4.64774 0
M  V30 2062 H 193.499 4.37346 4.76799 0
M  V30 2063 N 193.631 -1.12557 1.10312 0
M  V30 2064 C 194.578 -2.18247 0.750781 0
M  V30 2065 C 195.548 -1.63853 -0.272293 0
M  V30 2066 O 196.733 -1.90195 -0.151862 0
M  V30 2067 C 193.873 -3.44591 0.187379 0
M  V30 2068 C 192.986 -4.13046 1.2656 0
M  V30 2069 C 192.121 -5.27034 0.663978 0
M  V30 2070 C 191.16 -5.87353 1.72287 0
M  V30 2071 N 190.297 -6.92757 1.1416 0
M  V30 2072 H 195.137 -2.47732 1.65628 0
M  V30 2073 H 192.674 -1.21629 0.827337 0
M  V30 2074 H 194.632 -4.16904 -0.157148 0
M  V30 2075 H 193.262 -3.15527 -0.681355 0
M  V30 2076 H 192.314 -3.38924 1.72727 0
M  V30 2077 H 193.626 -4.53947 2.06721 0
M  V30 2078 H 192.78 -6.06104 0.268824 0
M  V30 2079 H 191.519 -4.87407 -0.169082 0
M  V30 2080 H 190.524 -5.06971 2.12746 0
M  V30 2081 H 191.749 -6.29051 2.55875 0
M  V30 2082 H 189.695 -6.5517 0.329984 0
M  V30 2083 H 189.612 -7.3225 1.88007 0
M  V30 2084 H 190.88 -7.75658 0.772956 0
M  V30 2085 N 195.109 -0.891671 -1.2995 0
M  V30 2086 C 196.039 -0.379797 -2.30391 0
M  V30 2087 C 197.02 0.540919 -1.6127 0
M  V30 2088 O 198.205 0.453352 -1.88834 0
M  V30 2089 C 195.335 0.400654 -3.44981 0
M  V30 2090 C 194.289 -0.428905 -4.25846 0
M  V30 2091 C 193.615 0.478557 -5.32554 0
M  V30 2092 C 194.915 -1.67458 -4.94727 0
M  V30 2093 H 196.609 -1.21914 -2.73454 0
M  V30 2094 H 194.155 -0.587675 -1.31462 0
M  V30 2095 H 196.108 0.769434 -4.14316 0
M  V30 2096 H 194.832 1.27371 -3.0074 0
M  V30 2097 H 193.491 -0.779911 -3.58208 0
M  V30 2098 H 193.139 1.34951 -4.84559 0
M  V30 2099 H 192.839 -0.0727433 -5.87555 0
M  V30 2100 H 194.363 0.843705 -6.04743 0
M  V30 2101 H 195.777 -1.376 -5.56542 0
M  V30 2102 H 194.174 -2.16659 -5.59624 0
M  V30 2103 H 195.244 -2.41518 -4.20473 0
M  V30 2104 N 196.587 1.43421 -0.653314 0
M  V30 2105 C 197.55 2.29182 0.0287951 0
M  V30 2106 C 198.55 1.42213 0.750465 0
M  V30 2107 O 199.74 1.63843 0.591701 0
M  V30 2108 C 196.872 3.24278 1.05151 0
M  V30 2109 H 198.065 2.90985 -0.725786 0
M  V30 2110 H 195.618 1.50702 -0.414545 0
M  V30 2111 H 196.353 2.6737 1.83532 0
M  V30 2112 H 196.138 3.88396 0.537687 0
M  V30 2113 H 197.628 3.88647 1.52786 0
M  V30 2114 N 198.065 0.39524 1.52563 0
M  V30 2115 C 199.29 -0.187456 2.06551 0
M  V30 2116 C 199.715 -1.39249 1.26457 0
M  V30 2117 O 199.073 -1.78947 0.291151 0
M  V30 2118 C 199.121 -0.529985 3.56684 0
M  V30 2119 O 198.225 -1.62307 3.79118 0
M  V30 2120 H 197.566 -0.0202537 0.663691 0
M  V30 2121 H 200.096 0.564426 1.96661 0
M  V30 2122 H 200.106 -0.792598 4.00227 0
M  V30 2123 H 198.781 0.350987 4.14416 0
M  V30 2124 H 197.358 -1.3537 3.47461 0
M  V30 2125 N 199.544 -1.57102 0.125237 0
M  V30 2126 C 200.772 -1.99761 -0.538797 0
M  V30 2127 C 201.187 -1.00503 -1.59827 0
M  V30 2128 O 200.544 0.00119474 -1.825 0
M  V30 2129 C 200.595 -3.42408 -1.15927 0
M  V30 2130 O 200.316 -4.37869 -0.142143 0
M  V30 2131 C 201.817 -4.00232 -1.90602 0
M  V30 2132 H 199.037 -0.655772 -0.14214 0
M  V30 2133 H 201.581 -2.03383 0.213413 0
M  V30 2134 H 199.736 -3.39706 -1.86223 0
M  V30 2135 H 200.15 -5.21128 -0.593775 0
M  V30 2136 H 201.624 -5.02105 -2.29335 0
M  V30 2137 H 202.101 -3.39721 -2.78363 0
M  V30 2138 H 202.707 -4.06499 -1.25055 0
M  V30 2139 N 201.022 0.148545 -1.56898 0
M  V30 2140 C 202.268 0.857877 -1.84424 0
M  V30 2141 C 202.623 1.7886 -0.709006 0
M  V30 2142 O 201.916 1.89344 0.293139 0
M  V30 2143 C 202.11 1.67064 -3.1595 0
M  V30 2144 C 201.939 0.82011 -4.42159 0
M  V30 2145 C 200.709 0.486328 -5.02954 0
M  V30 2146 C 202.907 0.151155 -5.14078 0
M  V30 2147 N 200.889 -0.377956 -6.12735 0
M  V30 2148 C 202.26 -0.573333 -6.17343 0
M  V30 2149 C 204.315 0.0716685 -4.97848 0
M  V30 2150 C 203.018 -1.3698 -7.06137 0
M  V30 2151 C 205.044 -0.711532 -5.87104 0
M  V30 2152 C 204.406 -1.42431 -6.8985 0
M  V30 2153 H 200.505 0.291798 -0.725519 0
M  V30 2154 H 203.089 0.123347 -1.94309 0
M  V30 2155 H 201.26 2.37642 -3.07215 0
M  V30 2156 H 202.992 2.32302 -3.31388 0
M  V30 2157 H 199.747 0.821753 -4.66416 0
M  V30 2158 H 200.171 -0.801077 -6.72244 0
M  V30 2159 H 204.813 0.608381 -4.184 0
M  V30 2160 H 202.531 -1.91778 -7.85014 0
M  V30 2161 H 206.117 -0.775005 -5.76615 0
M  V30 2162 H 204.997 -2.02061 -7.57721 0
M  V30 2163 N 202.5 1.5196 0.417844 0
M  V30 2164 C 203.432 1.70895 1.52733 0
M  V30 2165 C 204.445 0.589405 1.51756 0
M  V30 2166 O 205.634 0.864312 1.56179 0
M  V30 2167 C 202.734 1.72627 2.91639 0
M  V30 2168 C 201.907 3.01479 3.16905 0
M  V30 2169 C 200.966 2.95139 4.35637 0
M  V30 2170 O 199.992 3.69059 4.3334 0
M  V30 2171 N 201.194 2.12328 5.40275 0
M  V30 2172 H 203.959 2.66612 1.36888 0
M  V30 2173 H 201.52 1.50089 0.607037 0
M  V30 2174 H 203.512 1.65928 3.6912 0
M  V30 2175 H 202.082 0.844216 3.00985 0
M  V30 2176 H 201.302 3.21895 2.27546 0
M  V30 2177 H 202.59 3.86736 3.30625 0
M  V30 2178 H 201.988 1.51685 5.44985 0
M  V30 2179 H 200.545 2.11494 6.16534 0
M  V30 2180 N 203.978 -0.674533 1.42435 0
M  V30 2181 C 205.226 -1.43175 1.42637 0
M  V30 2182 C 205.547 -1.94951 0.0438992 0
M  V30 2183 O 204.817 -1.7308 -0.917607 0
M  V30 2184 H 203.397 -0.531307 0.525092 0
M  V30 2185 H 206.059 -0.797006 1.77859 0
M  V30 2186 H 205.155 -2.28463 2.12629 0
M  V30 2187 N 205.456 -1.28612 -0.910864 0
M  V30 2188 C 206.705 -1.15311 -1.65488 0
M  V30 2189 C 207.018 0.296999 -1.93332 0
M  V30 2190 O 208.224 0.551168 -2.65847 0
M  V30 2191 C 206.68 -2.01599 -2.98137 0
M  V30 2192 C 206.288 -3.51367 -2.7793 0
M  V30 2193 C 208.032 -1.96993 -3.76024 0
M  V30 2194 C 205.939 -4.29797 -4.06237 0
M  V30 2195 H 204.869 -0.42796 -0.620779 0
M  V30 2196 H 207.52 -1.53166 -1.01057 0
M  V30 2197 H 205.902 -1.56603 -3.63719 0
M  V30 2198 H 207.076 -4.0434 -2.21011 0
M  V30 2199 H 205.391 -3.57529 -2.13452 0
M  V30 2200 H 207.988 -2.52856 -4.71135 0
M  V30 2201 H 208.331 -0.94733 -4.05378 0
M  V30 2202 H 208.864 -2.39973 -3.17266 0
M  V30 2203 H 205.603 -5.32648 -3.82055 0
M  V30 2204 H 205.123 -3.81596 -4.62757 0
M  V30 2205 H 206.802 -4.39869 -4.74473 0
M  V30 2206 N 206.934 1.1197 -1.10907 0
M  V30 2207 C 208.35 1.35591 -0.841852 0
M  V30 2208 C 208.55 1.94233 0.536246 0
M  V30 2209 O 207.606 2.1717 1.28816 0
M  V30 2210 C 208.919 2.29284 -1.94549 0
M  V30 2211 C 210.467 2.42862 -1.97451 0
M  V30 2212 C 210.942 3.39873 -3.07002 0
M  V30 2213 N 212.433 3.47433 -3.06341 0
M  V30 2214 C 213.168 4.22421 -3.87748 0
M  V30 2215 N 212.664 5.00432 -4.79103 0
M  V30 2216 N 214.457 4.17876 -3.75946 0
M  V30 2217 H 206.608 0.722664 -1.99728 0
M  V30 2218 H 208.871 0.380635 -0.868229 0
M  V30 2219 H 208.577 1.93378 -2.93765 0
M  V30 2220 H 208.451 3.29452 -1.83688 0
M  V30 2221 H 210.838 2.78046 -0.988645 0
M  V30 2222 H 210.919 1.42566 -2.12388 0
M  V30 2223 H 210.563 3.05417 -4.05811 0
M  V30 2224 H 210.493 4.40011 -2.89306 0
M  V30 2225 H 212.984 2.91784 -2.40147 0
M  V30 2226 H 213.297 5.55002 -5.37766 0
M  V30 2227 H 211.642 4.99612 -4.83128 0
M  V30 2228 H 214.833 3.56016 -3.03924 0
M  V30 2229 H 215.006 4.76061 -4.39624 0
M  V30 2230 N 208.412 0.89855 1.29475 0
M  V30 2231 C 209.375 0.380272 2.26023 0
M  V30 2232 C 210.375 -0.484891 1.53315 0
M  V30 2233 O 211.565 -0.290108 1.71767 0
M  V30 2234 C 208.697 -0.45651 3.3783 0
M  V30 2235 H 209.89 1.23295 2.73383 0
M  V30 2236 H 207.443 0.676589 1.40897 0
M  V30 2237 H 208.178 -1.32922 2.95808 0
M  V30 2238 H 207.963 0.163393 3.91759 0
M  V30 2239 H 209.453 -0.810466 4.0966 0
M  V30 2240 N 209.89 -1.43072 0.660911 0
M  V30 2241 C 210.853 -2.29194 -0.0166406 0
M  V30 2242 C 211.853 -1.42609 -0.742912 0
M  V30 2243 O 213.043 -1.64155 -0.583004 0
M  V30 2244 C 210.175 -3.24831 -1.0343 0
M  V30 2245 H 211.368 -2.90596 0.741208 0
M  V30 2246 H 208.921 -1.5048 0.422532 0
M  V30 2247 H 209.656 -2.68339 -1.82111 0
M  V30 2248 H 209.441 -3.88676 -0.517082 0
M  V30 2249 H 210.931 -3.89451 -1.50723 0
M  V30 2250 N 211.368 -0.403325 -1.52352 0
M  V30 2251 C 212.278 0.432009 -2.30588 0
M  V30 2252 C 213.294 1.05884 -1.38075 0
M  V30 2253 O 214.47 1.06161 -1.71148 0
M  V30 2254 C 211.535 1.53669 -3.10784 0
M  V30 2255 C 210.596 0.933525 -4.19027 0
M  V30 2256 C 209.829 1.98557 -4.9539 0
M  V30 2257 O 210.052 3.20283 -4.71991 0
M  V30 2258 O 208.986 1.59504 -5.80381 0
M  V30 2259 H 212.812 -0.205739 -3.03002 0
M  V30 2260 H 210.397 -0.166675 -1.48467 0
M  V30 2261 H 212.279 2.17814 -3.60742 0
M  V30 2262 H 210.954 2.15915 -2.41169 0
M  V30 2263 H 209.861 0.254954 -3.7323 0
M  V30 2264 H 211.194 0.35508 -4.90918 0
M  V30 2265 N 212.846 1.57033 -0.133567 0
M  V30 2266 C 213.778 2.13176 0.841944 0
M  V30 2267 C 214.791 1.07794 1.22001 0
M  V30 2268 O 215.98 1.35117 1.16643 0
M  V30 2269 C 213.08 2.62847 2.13926 0
M  V30 2270 C 212.253 3.92486 1.93064 0
M  V30 2271 C 211.312 4.27605 3.0666 0
M  V30 2272 O 210.338 4.96168 2.78937 0
M  V30 2273 N 211.54 3.861 4.33483 0
M  V30 2274 H 214.305 2.97503 0.362192 0
M  V30 2275 H 211.866 1.61821 0.05042 0
M  V30 2276 H 213.858 2.83363 2.88942 0
M  V30 2277 H 212.428 1.83319 2.53205 0
M  V30 2278 H 211.648 3.80732 1.02159 0
M  V30 2279 H 212.936 4.77225 1.76447 0
M  V30 2280 H 212.334 3.30828 4.58878 0
M  V30 2281 H 210.891 4.11694 5.05323 0
M  V30 2282 N 214.325 -0.140222 1.56975 0
M  V30 2283 C 215.255 -1.17456 2.01808 0
M  V30 2284 C 216.236 -1.44415 0.898794 0
M  V30 2285 O 217.421 -1.5522 1.16707 0
M  V30 2286 C 214.551 -2.50607 2.40444 0
M  V30 2287 C 213.505 -2.38155 3.55621 0
M  V30 2288 C 212.831 -3.76078 3.80091 0
M  V30 2289 C 214.131 -1.85991 4.88062 0
M  V30 2290 H 215.825 -0.801743 2.88466 0
M  V30 2291 H 213.371 -0.38422 1.38779 0
M  V30 2292 H 215.324 -3.23197 2.7041 0
M  V30 2293 H 214.048 -2.89737 1.50732 0
M  V30 2294 H 212.707 -1.68016 3.25832 0
M  V30 2295 H 212.355 -4.12656 2.87618 0
M  V30 2296 H 212.055 -3.68606 4.57606 0
M  V30 2297 H 213.579 -4.50206 4.12488 0
M  V30 2298 H 214.993 -2.4838 5.16701 0
M  V30 2299 H 213.39 -1.89393 5.6943 0
M  V30 2300 H 214.46 -0.816023 4.77984 0
M  V30 2301 N 215.803 -1.52179 -0.40978 0
M  V30 2302 C 216.713 -1.78364 -1.52392 0
M  V30 2303 C 217.729 -0.669183 -1.60617 0
M  V30 2304 O 218.905 -0.954518 -1.77344 0
M  V30 2305 C 215.97 -1.92822 -2.88133 0
M  V30 2306 C 215.031 -3.16725 -2.898 0
M  V30 2307 C 214.264 -3.30483 -4.19067 0
M  V30 2308 O 214.487 -2.49522 -5.12928 0
M  V30 2309 O 213.421 -4.2363 -4.27576 0
M  V30 2310 H 217.247 -2.72931 -1.33201 0
M  V30 2311 H 214.832 -1.37016 -0.59557 0
M  V30 2312 H 216.714 -2.04157 -3.68643 0
M  V30 2313 H 215.389 -1.01444 -3.07393 0
M  V30 2314 H 214.296 -3.10848 -2.08146 0
M  V30 2315 H 215.629 -4.07881 -2.75489 0
M  V30 2316 N 217.281 0.66697 -1.42791 0
M  V30 2317 C 218.228 1.7803 -1.4688 0
M  V30 2318 C 219.198 1.6299 -0.319919 0
M  V30 2319 O 220.383 1.83432 -0.525118 0
M  V30 2320 C 217.523 3.1611 -1.38451 0
M  V30 2321 C 216.636 3.42381 -2.63437 0
M  V30 2322 C 215.771 4.70232 -2.47094 0
M  V30 2323 C 214.81 4.89564 -3.67415 0
M  V30 2324 N 213.947 6.08661 -3.49966 0
M  V30 2325 H 218.787 1.7387 -2.42019 0
M  V30 2326 H 216.324 0.84868 -1.20149 0
M  V30 2327 H 218.282 3.95914 -1.31561 0
M  V30 2328 H 216.912 3.19374 -0.469033 0
M  V30 2329 H 215.964 2.56774 -2.80662 0
M  V30 2330 H 217.276 3.52557 -3.52853 0
M  V30 2331 H 216.43 5.5814 -2.37834 0
M  V30 2332 H 215.169 4.62353 -1.5518 0
M  V30 2333 H 214.174 4.00096 -3.77099 0
M  V30 2334 H 215.399 4.99282 -4.6032 0
M  V30 2335 H 213.345 6.0194 -2.60776 0
M  V30 2336 H 213.262 6.19733 -4.32975 0
M  V30 2337 H 214.53 6.99226 -3.44532 0
M  V30 2338 N 218.759 1.29093 0.90403 0
M  V30 2339 C 219.669 1.15727 2.0407 0
M  V30 2340 C 220.685 0.0815308 1.73809 0
M  V30 2341 O 221.861 0.292749 1.99261 0
M  V30 2342 C 218.926 0.830424 3.36608 0
M  V30 2343 C 217.987 1.98955 3.80415 0
M  V30 2344 C 217.22 1.6782 5.06628 0
M  V30 2345 O 217.443 0.597105 5.67266 0
M  V30 2346 O 216.377 2.52486 5.46383 0
M  V30 2347 H 220.203 2.11171 2.18267 0
M  V30 2348 H 217.788 1.08504 1.027 0
M  V30 2349 H 219.67 0.662521 4.16159 0
M  V30 2350 H 218.345 -0.0942678 3.23563 0
M  V30 2351 H 217.252 2.21267 3.01648 0
M  V30 2352 H 218.585 2.89529 3.98037 0
M  V30 2353 N 220.237 -1.11381 1.11499 0
M  V30 2354 C 221.485 -1.8277 0.862524 0
M  V30 2355 C 221.806 -1.85097 -0.613534 0
M  V30 2356 O 221.076 -1.32198 -1.4457 0
M  V30 2357 H 219.656 -0.676823 0.316101 0
M  V30 2358 H 222.318 -1.34816 1.4075 0
M  V30 2359 H 221.414 -2.86614 1.23527 0
M  V30 2360 N 221.715 -0.905404 -1.28997 0
M  V30 2361 C 222.964 -0.530191 -1.94607 0
M  V30 2362 C 223.277 0.929185 -1.72121 0
M  V30 2363 O 224.483 1.41218 -2.31883 0
M  V30 2364 C 222.939 -0.897333 -3.48534 0
M  V30 2365 C 222.547 -2.37587 -3.79811 0
M  V30 2366 C 224.291 -0.592304 -4.20347 0
M  V30 2367 C 222.198 -2.68357 -5.27009 0
M  V30 2368 H 221.128 -0.194558 -0.728466 0
M  V30 2369 H 223.779 -1.10318 -1.46636 0
M  V30 2370 H 222.161 -0.253214 -3.9519 0
M  V30 2371 H 223.335 -3.06602 -3.43994 0
M  V30 2372 H 221.65 -2.6505 -3.2115 0
M  V30 2373 H 224.247 -0.798975 -5.28697 0
M  V30 2374 H 224.59 0.469474 -4.13644 0
M  V30 2375 H 225.123 -1.19452 -3.79442 0
M  V30 2376 H 221.862 -3.73355 -5.38782 0
M  V30 2377 H 221.382 -2.03971 -5.64053 0
M  V30 2378 H 223.061 -2.54922 -5.94663 0
M  V30 2379 N 223.193 1.4272 -0.668489 0
M  V30 2380 C 224.141 2.32586 0.0254857 0
M  V30 2381 C 225.135 1.49471 0.797176 0
M  V30 2382 O 226.341 1.65583 0.705853 0
M  V30 2383 H 222.716 0.751514 0.0270339 0
M  V30 2384 H 224.687 2.88823 -0.749936 0
M  V30 2385 C 223.436 3.3397 0.967427 0
M  V30 2386 H 222.759 3.97961 0.383048 0
M  V30 2387 H 224.199 3.9945 1.42181 0
M  V30 2388 C 222.658 2.65744 2.0708 0
M  V30 2389 O 223.188 2.48454 3.15648 0
M  V30 2390 N 221.394 2.2487 1.8407 0
M  V30 2391 H 220.941 2.39132 0.95778 0
M  V30 2392 H 220.899 1.79552 2.58086 0
M  V30 2393 N 224.671 0.411399 1.52136 0
M  V30 2394 C 225.911 -0.163143 2.03748 0
M  V30 2395 C 226.275 -1.42187 1.29022 0
M  V30 2396 O 227.476 -2.075 1.70872 0
M  V30 2397 C 225.747 -0.402651 3.55125 0
M  V30 2398 S 227.306 -0.944315 4.28519 0
M  V30 2399 H 224.124 -0.0439833 0.709638 0
M  V30 2400 H 226.726 0.56484 1.87163 0
M  V30 2401 H 225.43 0.520212 4.0709 0
M  V30 2402 H 224.961 -1.15844 3.75957 0
M  V30 2403 H 226.976 -2.22463 4.43536 0
M  V30 2404 N 226.149 -1.5696 0.141893 0
M  V30 2405 C 227.097 -2.17784 -0.816874 0
M  V30 2406 C 228.091 -1.1334 -1.25899 0
M  V30 2407 O 229.297 -1.316 -1.22806 0
M  V30 2408 H 225.672 -0.697278 -0.281615 0
M  V30 2409 H 227.643 -2.97087 -0.279621 0
M  V30 2410 C 226.392 -2.80983 -2.04802 0
M  V30 2411 H 225.715 -3.61062 -1.7168 0
M  V30 2412 H 227.155 -3.2705 -2.69841 0
M  V30 2413 C 225.614 -1.79228 -2.8527 0
M  V30 2414 O 226.144 -1.25962 -3.8144 0
M  V30 2415 N 224.35 -1.48647 -2.49704 0
M  V30 2416 H 223.897 -1.92155 -1.71564 0
M  V30 2417 H 223.855 -0.808115 -3.03837 0
M  V30 2418 N 227.627 0.131896 -1.57047 0
M  V30 2419 C 228.557 1.16384 -2.02428 0
M  V30 2420 C 229.538 1.43936 -0.90644 0
M  V30 2421 O 230.723 1.54599 -1.17528 0
M  V30 2422 C 227.853 2.49328 -2.4177 0
M  V30 2423 C 226.807 2.36266 -3.56879 0
M  V30 2424 C 226.133 3.74057 -3.8208 0
M  V30 2425 C 227.433 1.834 -4.89042 0
M  V30 2426 H 229.127 0.786433 -2.88887 0
M  V30 2427 H 226.673 0.376855 -1.38981 0
M  V30 2428 H 228.626 3.21759 -2.7212 0
M  V30 2429 H 227.35 2.88934 -1.52266 0
M  V30 2430 H 226.009 1.66286 -3.26718 0
M  V30 2431 H 225.657 4.11125 -2.89803 0
M  V30 2432 H 225.357 3.66174 -4.59554 0
M  V30 2433 H 226.881 4.48012 -4.1487 0
M  V30 2434 H 228.295 2.45636 -5.18011 0
M  V30 2435 H 226.692 1.8637 -5.70426 0
M  V30 2436 H 227.762 0.790662 -4.7841 0
M  V30 2437 N 229.106 1.52395 0.401703 0
M  V30 2438 C 230.334 1.70676 1.16949 0
M  V30 2439 C 230.749 0.419503 1.8408 0
M  V30 2440 O 230.106 -0.605061 1.72178 0
M  V30 2441 C 230.157 2.84753 2.22706 0
M  V30 2442 O 229.878 4.08495 1.58314 0
M  V30 2443 C 231.379 3.14608 3.12309 0
M  V30 2444 H 228.599 0.571787 0.351142 0
M  V30 2445 H 231.143 1.98987 0.471652 0
M  V30 2446 H 229.298 2.58941 2.88147 0
M  V30 2447 H 229.712 4.72117 2.28485 0
M  V30 2448 H 231.186 3.97923 3.82572 0
M  V30 2449 H 231.663 2.28464 3.75101 0
M  V30 2450 H 232.269 3.42212 2.52529 0
M  V30 2451 N 230.584 -0.659388 1.43143 0
M  V30 2452 C 231.514 -1.78422 1.50625 0
M  V30 2453 C 232.495 -1.66216 0.361443 0
M  V30 2454 O 233.68 -1.85404 0.577834 0
M  V30 2455 C 230.81 -3.16815 1.42287 0
M  V30 2456 C 229.764 -3.43777 2.54954 0
M  V30 2457 C 229.09 -4.81905 2.31671 0
M  V30 2458 C 230.39 -3.39134 3.97222 0
M  V30 2459 H 232.084 -1.72417 2.44771 0
M  V30 2460 H 229.63 -0.828084 1.17808 0
M  V30 2461 H 231.583 -3.95253 1.46127 0
M  V30 2462 H 230.307 -3.23534 0.446435 0
M  V30 2463 H 228.966 -2.67707 2.50457 0
M  V30 2464 H 228.614 -4.85294 1.32284 0
M  V30 2465 H 228.314 -5.00906 3.07192 0
M  V30 2466 H 229.838 -5.62609 2.37284 0
M  V30 2467 H 231.252 -4.07518 4.03239 0
M  V30 2468 H 229.649 -3.69671 4.72719 0
M  V30 2469 H 230.719 -2.37426 4.22797 0
M  V30 2470 N 232.062 -1.29571 -0.897171 0
M  V30 2471 C 232.992 -1.17473 -2.01798 0
M  V30 2472 C 233.973 -0.068323 -1.69963 0
M  V30 2473 O 235.158 -0.248239 -1.92607 0
M  V30 2474 C 232.288 -0.853099 -3.36659 0
M  V30 2475 C 231.242 -1.9161 -3.82713 0
M  V30 2476 C 230.568 -1.44773 -5.14728 0
M  V30 2477 C 231.868 -3.32535 -4.02763 0
M  V30 2478 H 233.562 -2.11237 -2.12177 0
M  V30 2479 H 231.108 -1.01699 -1.01948 0
M  V30 2480 H 233.061 -0.755165 -4.14578 0
M  V30 2481 H 231.785 0.120236 -3.26379 0
M  V30 2482 H 230.444 -2.00346 -3.07013 0
M  V30 2483 H 230.092 -0.462995 -5.00865 0
M  V30 2484 H 229.792 -2.15865 -5.46513 0
M  V30 2485 H 231.316 -1.36334 -5.95185 0
M  V30 2486 H 232.73 -3.26626 -4.71156 0
M  V30 2487 H 231.127 -4.01607 -4.45905 0
M  V30 2488 H 232.197 -3.75326 -3.07016 0
M  V30 2489 N 233.54 1.10788 -1.12088 0
M  V30 2490 C 234.787 1.82671 -0.873931 0
M  V30 2491 C 235.115 1.85004 0.600311 0
M  V30 2492 O 234.37 1.30365 1.45957 0
M  V30 2493 C 234.669 3.29294 -1.38926 0
M  V30 2494 C 234.335 3.47113 -2.87791 0
M  V30 2495 C 232.997 3.51684 -3.28439 0
M  V30 2496 C 235.349 3.52808 -3.83635 0
M  V30 2497 C 232.677 3.59513 -4.63646 0
M  V30 2498 C 235.029 3.62169 -5.18668 0
M  V30 2499 C 233.693 3.65003 -5.58864 0
M  V30 2500 H 232.963 0.668441 -0.319794 0
M  V30 2501 H 235.61 1.30613 -1.40045 0
M  V30 2502 H 233.915 3.83894 -0.783122 0
M  V30 2503 H 235.612 3.83416 -1.17443 0
M  V30 2504 H 232.202 3.4423 -2.5535 0
M  V30 2505 H 236.386 3.4853 -3.53328 0
M  V30 2506 H 231.642 3.59987 -4.94185 0
M  V30 2507 H 235.816 3.6552 -5.92763 0
M  V30 2508 H 233.443 3.70822 -6.63623 0
M  V30 2509 N 235.018 0.912232 1.28515 0
M  V30 2510 C 236.243 0.559774 1.99703 0
M  V30 2511 C 236.668 -0.851393 1.67729 0
M  V30 2512 O 236.026 -1.56875 0.908834 0
M  V30 2513 C 236.074 0.773874 3.52198 0
M  V30 2514 O 235.178 -0.167842 4.12058 0
M  V30 2515 H 234.519 0.21723 0.627461 0
M  V30 2516 H 237.049 1.22725 1.63706 0
M  V30 2517 H 237.059 0.683386 4.02236 0
M  V30 2518 H 235.734 1.80261 3.74805 0
M  V30 2519 H 234.311 -0.0287509 3.72889 0
M  V30 2520 N 236.496 -1.42363 0.676048 0
M  V30 2521 C 237.743 -2.01522 0.19883 0
M  V30 2522 C 238.071 -1.53456 -1.19505 0
M  V30 2523 O 237.326 -0.727967 -1.81657 0
M  V30 2524 C 237.625 -3.56929 0.183431 0
M  V30 2525 C 237.291 -4.24431 1.52215 0
M  V30 2526 C 235.953 -4.42585 1.8887 0
M  V30 2527 C 238.305 -4.62459 2.40377 0
M  V30 2528 C 235.633 -4.96039 3.13309 0
M  V30 2529 C 237.985 -5.17294 3.64129 0
M  V30 2530 C 236.649 -5.33661 4.00951 0
M  V30 2531 H 235.919 -0.737419 0.0727571 0
M  V30 2532 H 238.566 -1.70531 0.871281 0
M  V30 2533 H 236.871 -3.87594 -0.572532 0
M  V30 2534 H 238.568 -4.00486 -0.203035 0
M  V30 2535 H 235.158 -4.10661 1.22701 0
M  V30 2536 H 239.342 -4.48105 2.13343 0
M  V30 2537 H 234.598 -5.06896 3.41857 0
M  V30 2538 H 238.772 -5.45704 4.32644 0
M  V30 2539 H 236.399 -5.74845 4.9745 0
M  V30 2540 N 237.974 -0.419461 -1.51915 0
M  V30 2541 C 238.937 0.389116 -2.25873 0
M  V30 2542 C 239.937 0.964924 -1.28631 0
M  V30 2543 O 241.127 0.842179 -1.52489 0
M  V30 2544 C 238.259 1.54874 -3.03689 0
M  V30 2545 H 239.452 -0.258799 -2.98781 0
M  V30 2546 H 237.005 -0.172209 -1.55348 0
M  V30 2547 H 237.74 2.23323 -2.35154 0
M  V30 2548 H 237.525 1.14223 -3.75094 0
M  V30 2549 H 239.015 2.12046 -3.59759 0
M  V30 2550 N 239.452 1.56882 -0.150215 0
M  V30 2551 C 240.384 2.14057 0.819286 0
M  V30 2552 C 241.397 1.09082 1.20851 0
M  V30 2553 O 242.586 1.36347 1.15203 0
M  V30 2554 C 239.686 2.65102 2.11127 0
M  V30 2555 C 238.859 3.94511 1.88891 0
M  V30 2556 C 237.918 4.30834 3.02107 0
M  V30 2557 O 236.944 4.99099 2.73659 0
M  V30 2558 N 238.146 3.90676 4.29363 0
M  V30 2559 H 240.911 2.97871 0.330618 0
M  V30 2560 H 238.472 1.61866 0.0332538 0
M  V30 2561 H 240.464 2.86411 2.85921 0
M  V30 2562 H 239.034 1.85994 2.51247 0
M  V30 2563 H 238.254 3.81795 0.981152 0
M  V30 2564 H 239.542 4.7907 1.71376 0
M  V30 2565 H 238.94 3.35677 4.55343 0
M  V30 2566 H 237.497 4.1703 5.00928 0
M  V30 2567 N 240.93 -0.123565 1.57115 0
M  V30 2568 C 241.893 -1.13583 1.99076 0
M  V30 2569 C 242.893 -1.34564 0.880296 0
M  V30 2570 O 244.083 -1.31158 1.14644 0
M  V30 2571 C 241.215 -2.49128 2.32698 0
M  V30 2572 H 242.408 -0.775287 2.89706 0
M  V30 2573 H 239.961 -0.36771 1.51913 0
M  V30 2574 H 240.696 -2.90111 1.44934 0
M  V30 2575 H 240.481 -2.35255 3.13684 0
M  V30 2576 H 241.971 -3.2199 2.65918 0
M  V30 2577 N 242.408 -1.52605 -0.393616 0
M  V30 2578 C 243.824 -1.41753 -0.733357 0
M  V30 2579 C 244.024 -0.534293 -1.94287 0
M  V30 2580 O 243.08 -0.0059787 -2.52499 0
M  V30 2581 C 244.393 -2.84531 -0.972772 0
M  V30 2582 C 245.941 -2.93978 -1.07453 0
M  V30 2583 C 246.416 -4.37756 -1.3466 0
M  V30 2584 N 247.907 -4.4106 -1.41492 0
M  V30 2585 C 248.642 -5.49387 -1.642 0
M  V30 2586 N 248.138 -6.67806 -1.8441 0
M  V30 2587 N 249.931 -5.36923 -1.66342 0
M  V30 2588 H 242.082 -2.08555 0.402328 0
M  V30 2589 H 244.345 -0.940654 0.117789 0
M  V30 2590 H 244.051 -3.51353 -0.156204 0
M  V30 2591 H 243.925 -3.26508 -1.88871 0
M  V30 2592 H 246.312 -2.27326 -1.88167 0
M  V30 2593 H 246.393 -2.55435 -0.136605 0
M  V30 2594 H 246.037 -5.04972 -0.544581 0
M  V30 2595 H 245.967 -4.73848 -2.2973 0
M  V30 2596 H 248.458 -3.55705 -1.27601 0
M  V30 2597 H 248.771 -7.46141 -2.01231 0
M  V30 2598 H 247.116 -6.70843 -1.81644 0
M  V30 2599 H 250.307 -4.43381 -1.50102 0
M  V30 2600 H 250.48 -6.21416 -1.837 0
M  V30 2601 N 243.887 0.651787 -1.4349 0
M  V30 2602 C 244.85 1.74647 -1.48429 0
M  V30 2603 C 245.85 1.56513 -0.368817 0
M  V30 2604 O 247.04 1.62385 -0.630623 0
M  V30 2605 C 244.172 3.13533 -1.33827 0
M  V30 2606 H 245.365 1.71649 -2.4592 0
M  V30 2607 H 242.918 0.863573 -1.30277 0
M  V30 2608 H 243.653 3.22142 -0.37349 0
M  V30 2609 H 243.438 3.28101 -2.14691 0
M  V30 2610 H 244.928 3.93356 -1.40218 0
M  V30 2611 N 245.365 1.30045 0.890287 0
M  V30 2612 C 246.605 1.19839 1.65584 0
M  V30 2613 C 246.969 -0.244175 1.90441 0
M  V30 2614 O 248.17 -0.469378 2.6467 0
M  V30 2615 C 246.441 1.99876 2.96284 0
M  V30 2616 S 248 2.06309 3.87275 0
M  V30 2617 H 244.818 0.427157 0.568382 0
M  V30 2618 H 247.42 1.64453 1.05715 0
M  V30 2619 H 246.124 3.03809 2.75913 0
M  V30 2620 H 245.655 1.55903 3.61189 0
M  V30 2621 H 247.67 1.18661 4.81803 0
M  V30 2622 N 246.843 -1.10192 1.12674 0
M  V30 2623 C 247.806 -2.14786 0.799979 0
M  V30 2624 C 248.806 -1.59711 -0.18685 0
M  V30 2625 O 249.996 -1.74156 0.0392558 0
M  V30 2626 C 247.128 -3.40374 0.189228 0
M  V30 2627 H 248.321 -2.45203 1.72671 0
M  V30 2628 H 245.874 -1.25597 0.930326 0
M  V30 2629 H 246.609 -3.15577 -0.747107 0
M  V30 2630 H 246.394 -3.81637 0.899766 0
M  V30 2631 H 247.884 -4.17594 -0.0228143 0
M  V30 2632 N 248.321 -0.919034 -1.28029 0
M  V30 2633 C 249.231 -0.416756 -2.30869 0
M  V30 2634 C 250.247 0.498235 -1.66714 0
M  V30 2635 O 251.423 0.383144 -1.97722 0
M  V30 2636 C 248.488 0.330274 -3.45123 0
M  V30 2637 C 247.549 -0.618578 -4.2482 0
M  V30 2638 C 246.782 0.0928959 -5.33619 0
M  V30 2639 O 247.005 1.31375 -5.55065 0
M  V30 2640 O 245.939 -0.574499 -5.99152 0
M  V30 2641 H 249.765 -1.27043 -2.75851 0
M  V30 2642 H 247.35 -0.684052 -1.3282 0
M  V30 2643 H 249.232 0.751972 -4.14636 0
M  V30 2644 H 247.907 1.1597 -3.02213 0
M  V30 2645 H 246.814 -1.08978 -3.57875 0
M  V30 2646 H 248.147 -1.41497 -4.71423 0
M  V30 2647 N 249.799 1.42003 -0.683588 0
M  V30 2648 C 250.762 2.29191 -0.0198243 0
M  V30 2649 C 251.762 1.43773 0.72013 0
M  V30 2650 O 252.952 1.65061 0.556815 0
M  V30 2651 C 250.084 3.26435 0.982487 0
M  V30 2652 H 251.277 2.8938 -0.787345 0
M  V30 2653 H 248.83 1.49789 -0.446418 0
M  V30 2654 H 249.565 2.71203 1.77819 0
M  V30 2655 H 249.35 3.89449 0.455182 0
M  V30 2656 H 250.84 3.918 1.44508 0
M  V30 2657 N 251.277 0.427512 1.51691 0
M  V30 2658 C 252.525 -0.141948 2.01601 0
M  V30 2659 C 252.846 -1.44067 1.31414 0
M  V30 2660 O 252.116 -1.90763 0.445658 0
M  V30 2661 H 250.696 -0.0554468 0.744939 0
M  V30 2662 H 253.358 0.567968 1.86441 0
M  V30 2663 H 252.454 -0.324913 3.10404 0
M  V30 2664 N 252.755 -1.56801 0.158532 0
M  V30 2665 C 254.001 -1.96781 -0.490405 0
M  V30 2666 C 254.334 -1.04397 -1.63753 0
M  V30 2667 O 253.609 -0.0885805 -1.94298 0
M  V30 2668 C 253.892 -3.4635 -0.985594 0
M  V30 2669 C 253.745 -4.49512 0.160824 0
M  V30 2670 C 255.064 -3.98697 -1.86355 0
M  V30 2671 H 252.183 -0.715482 -0.176788 0
M  V30 2672 H 254.825 -1.88451 0.242088 0
M  V30 2673 H 252.975 -3.53579 -1.60978 0
M  V30 2674 H 254.647 -4.54353 0.797537 0
M  V30 2675 H 252.89 -4.26013 0.818256 0
M  V30 2676 H 253.561 -5.51531 -0.227569 0
M  V30 2677 H 256.037 -3.94019 -1.33746 0
M  V30 2678 H 254.913 -5.03792 -2.17909 0
M  V30 2679 H 255.174 -3.41744 -2.8047 0
M  V30 2680 N 254.233 0.115231 -1.57178 0
M  V30 2681 C 255.48 0.822351 -1.8505 0
M  V30 2682 C 255.808 1.79701 -0.744168 0
M  V30 2683 O 255.063 1.93909 0.26414 0
M  V30 2684 C 255.362 1.60324 -3.19423 0
M  V30 2685 C 255.028 0.772536 -4.44233 0
M  V30 2686 C 253.69 0.543468 -4.78121 0
M  V30 2687 C 256.042 0.193746 -5.2084 0
M  V30 2688 C 253.37 -0.274583 -5.86057 0
M  V30 2689 C 255.722 -0.611517 -6.29637 0
M  V30 2690 C 254.386 -0.850867 -6.62055 0
M  V30 2691 H 253.656 0.30092 -0.677147 0
M  V30 2692 H 256.303 0.0845802 -1.91313 0
M  V30 2693 H 254.608 2.41203 -3.08753 0
M  V30 2694 H 256.305 2.1544 -3.38211 0
M  V30 2695 H 252.895 0.96117 -4.17683 0
M  V30 2696 H 257.079 0.357926 -4.95008 0
M  V30 2697 H 252.335 -0.469206 -6.09597 0
M  V30 2698 H 256.509 -1.06697 -6.88178 0
M  V30 2699 H 254.136 -1.48657 -7.45523 0
M  V30 2700 N 255.711 1.52812 0.385517 0
M  V30 2701 C 256.641 1.80808 1.47752 0
M  V30 2702 C 257.622 0.660318 1.5676 0
M  V30 2703 O 258.807 0.908246 1.71652 0
M  V30 2704 C 255.937 1.98008 2.85324 0
M  V30 2705 C 254.891 3.13709 2.91154 0
M  V30 2706 C 254.217 3.16169 4.31209 0
M  V30 2707 C 255.517 4.52709 2.60483 0
M  V30 2708 H 257.211 2.72253 1.24573 0
M  V30 2709 H 254.757 1.31003 0.597839 0
M  V30 2710 H 256.71 2.16176 3.61726 0
M  V30 2711 H 255.434 1.03255 3.09848 0
M  V30 2712 H 254.093 2.95329 2.17201 0
M  V30 2713 H 253.741 2.19092 4.52778 0
M  V30 2714 H 253.441 3.93894 4.36029 0
M  V30 2715 H 254.965 3.36496 5.09512 0
M  V30 2716 H 256.379 4.71173 3.26602 0
M  V30 2717 H 254.776 5.32528 2.76648 0
M  V30 2718 H 255.846 4.59186 1.55809 0
M  V30 2719 N 257.189 -0.644168 1.43834 0
M  V30 2720 C 258.438 -1.39985 1.45214 0
M  V30 2721 C 258.751 -1.95421 0.0835494 0
M  V30 2722 O 259.957 -2.71488 -0.0251748 0
M  V30 2723 C 258.413 -2.53384 2.55587 0
M  V30 2724 C 258.021 -2.04517 3.98594 0
M  V30 2725 C 259.765 -3.30685 2.66172 0
M  V30 2726 C 257.672 -3.1518 5.00416 0
M  V30 2727 H 256.602 -0.526005 0.540218 0
M  V30 2728 H 259.253 -0.694367 1.69855 0
M  V30 2729 H 257.635 -3.26446 2.24163 0
M  V30 2730 H 258.809 -1.38405 4.39523 0
M  V30 2731 H 257.124 -1.40068 3.92135 0
M  V30 2732 H 259.721 -4.13158 3.39418 0
M  V30 2733 H 260.064 -3.79312 1.71546 0
M  V30 2734 H 260.597 -2.64708 2.96942 0
M  V30 2735 H 257.336 -2.71511 5.96625 0
M  V30 2736 H 256.856 -3.79974 4.64091 0
M  V30 2737 H 258.535 -3.80166 5.23529 0
M  V30 2738 N 258.668 -1.30515 -0.883378 0
M  V30 2739 C 259.893 -1.22487 -1.67367 0
M  V30 2740 C 260.318 0.208767 -1.86938 0
M  V30 2741 O 259.676 1.15015 -1.40148 0
M  V30 2742 C 259.724 -1.96041 -3.02655 0
M  V30 2743 O 258.828 -1.28859 -3.91751 0
M  V30 2744 H 258.169 -0.423573 -0.511353 0
M  V30 2745 H 260.699 -1.72362 -1.10239 0
M  V30 2746 H 260.709 -2.05124 -3.52687 0
M  V30 2747 H 259.384 -3.00307 -2.8773 0
M  V30 2748 H 257.961 -1.28141 -3.50192 0
M  V30 2749 N 260.146 1.09593 -1.13257 0
M  V30 2750 C 261.557 1.63229 -0.906274 0
M  V30 2751 C 261.908 1.8811 0.557578 0
M  V30 2752 O 261.033 1.62953 1.42391 0
M  V30 2753 C 261.628 2.96535 -1.63867 0
M  V30 2754 C 260.187 3.47003 -1.45828 0
M  V30 2755 C 259.334 2.2145 -1.66898 0
M  V30 2756 H 262.285 0.92978 -1.28611 0
M  V30 2757 H 262.306 3.64411 -1.09476 0
M  V30 2758 H 261.818 2.78394 -2.70404 0
M  V30 2759 H 259.919 3.70272 -0.415848 0
M  V30 2760 H 260.032 4.24551 -2.2202 0
M  V30 2761 H 258.396 2.30022 -1.09371 0
M  V30 2762 H 259.179 2.0583 -2.74752 0
M  V30 2763 N 261.624 0.925811 1.2754 0
M  V30 2764 C 262.871 0.565255 1.94451 0
M  V30 2765 C 263.199 -0.89316 1.7278 0
M  V30 2766 O 262.454 -1.65213 1.04895 0
M  V30 2767 C 262.753 0.835296 3.47502 0
M  V30 2768 C 262.419 2.27515 3.89291 0
M  V30 2769 C 261.081 2.66879 4.00411 0
M  V30 2770 C 263.433 3.21158 4.10496 0
M  V30 2771 C 260.761 3.99014 4.30122 0
M  V30 2772 C 263.113 4.52871 4.4169 0
M  V30 2773 C 261.777 4.92072 4.51023 0
M  V30 2774 H 261.047 0.206841 0.711546 0
M  V30 2775 H 263.694 1.16942 1.51647 0
M  V30 2776 H 261.999 0.148442 3.91519 0
M  V30 2777 H 263.696 0.535322 3.97411 0
M  V30 2778 H 260.286 1.95976 3.81171 0
M  V30 2779 H 264.47 2.9195 4.01346 0
M  V30 2780 H 259.726 4.2907 4.35556 0
M  V30 2781 H 263.9 5.25436 4.57045 0
M  V30 2782 H 261.527 5.9449 4.738 0
M  V30 2783 N 263.102 -1.41638 0.69111 0
M  V30 2784 C 264.348 -2.01598 0.220519 0
M  V30 2785 C 264.681 -1.54594 -1.17535 0
M  V30 2786 O 263.956 -0.755177 -1.79241 0
M  V30 2787 C 264.239 -3.59062 0.273243 0
M  V30 2788 C 264.092 -4.16203 1.70573 0
M  V30 2789 C 265.411 -4.38546 -0.369457 0
M  V30 2790 H 262.53 -0.732468 0.0816045 0
M  V30 2791 H 265.172 -1.68445 0.878986 0
M  V30 2792 H 263.322 -3.87435 -0.287411 0
M  V30 2793 H 264.994 -3.98722 2.31989 0
M  V30 2794 H 263.237 -3.71414 2.2413 0
M  V30 2795 H 263.908 -5.25358 1.69419 0
M  V30 2796 H 266.384 -4.1596 0.107977 0
M  V30 2797 H 265.26 -5.48069 -0.302002 0
M  V30 2798 H 265.521 -4.17662 -1.44951 0
M  V30 2799 N 264.58 -0.43555 -1.51462 0
M  V30 2800 C 265.828 0.131254 -2.01673 0
M  V30 2801 C 266.149 1.43368 -1.32177 0
M  V30 2802 O 265.419 1.90524 -0.455769 0
M  V30 2803 H 263.999 0.0514954 -0.745223 0
M  V30 2804 H 266.661 -0.577847 -1.86137 0
M  V30 2805 H 265.757 0.308446 -3.10572 0
M  V30 2806 N 266.058 1.56714 -0.166846 0
M  V30 2807 C 267.474 1.58473 0.189372 0
M  V30 2808 C 267.674 1.18201 1.63189 0
M  V30 2809 O 266.73 0.891528 2.36237 0
M  V30 2810 C 268.043 3.00573 -0.0873872 0
M  V30 2811 C 269.591 3.1299 -0.0252443 0
M  V30 2812 C 270.066 4.57174 -0.274934 0
M  V30 2813 N 271.557 4.62665 -0.222553 0
M  V30 2814 C 272.292 5.72072 -0.389985 0
M  V30 2815 N 271.788 6.90054 -0.616229 0
M  V30 2816 N 273.581 5.61153 -0.326202 0
M  V30 2817 H 265.732 1.8118 -1.10849 0
M  V30 2818 H 267.995 0.839525 -0.440342 0
M  V30 2819 H 267.701 3.34497 -1.0865 0
M  V30 2820 H 267.575 3.72019 0.623037 0
M  V30 2821 H 269.962 2.78895 0.96444 0
M  V30 2822 H 270.043 2.43989 -0.768309 0
M  V30 2823 H 269.687 4.91976 -1.26181 0
M  V30 2824 H 269.617 5.24328 0.48869 0
M  V30 2825 H 272.108 3.77863 -0.0531512 0
M  V30 2826 H 272.421 7.69311 -0.733559 0
M  V30 2827 H 270.766 6.91927 -0.652791 0
M  V30 2828 H 273.957 4.67859 -0.150072 0
M  V30 2829 H 274.13 6.46364 -0.460116 0
M  V30 2830 N 267.536 -0.106894 1.57237 0
M  V30 2831 C 268.785 -0.811163 1.8467 0
M  V30 2832 C 269.098 -1.80469 0.754342 0
M  V30 2833 O 270.304 -2.55601 0.915439 0
M  V30 2834 C 268.76 -1.49337 3.27454 0
M  V30 2835 C 268.368 -0.540217 4.44731 0
M  V30 2836 C 270.112 -2.18206 3.64124 0
M  V30 2837 C 268.019 -1.22634 5.78545 0
M  V30 2838 H 266.949 -0.306679 0.688813 0
M  V30 2839 H 269.6 -0.0639887 1.83388 0
M  V30 2840 H 267.982 -2.2876 3.23241 0
M  V30 2841 H 269.156 0.221659 4.60267 0
M  V30 2842 H 267.471 0.042146 4.16379 0
M  V30 2843 H 270.068 -2.70253 4.61376 0
M  V30 2844 H 270.411 -2.96562 2.92158 0
M  V30 2845 H 270.944 -1.45658 3.70174 0
M  V30 2846 H 267.683 -0.483832 6.53712 0
M  V30 2847 H 267.203 -1.95993 5.66874 0
M  V30 2848 H 268.882 -1.75615 6.2271 0
M  V30 2849 N 269.014 -1.53014 -0.377408 0
M  V30 2850 C 269.944 -1.81589 -1.46791 0
M  V30 2851 C 270.925 -0.668622 -1.56408 0
M  V30 2852 O 272.11 -0.917337 -1.71168 0
M  V30 2853 C 269.24 -1.99519 -2.8427 0
M  V30 2854 C 268.194 -3.15249 -2.89486 0
M  V30 2855 C 267.52 -3.18451 -4.29527 0
M  V30 2856 C 268.82 -4.54084 -2.58079 0
M  V30 2857 H 270.514 -2.7291 -1.23127 0
M  V30 2858 H 268.06 -1.31319 -0.590883 0
M  V30 2859 H 270.013 -2.18092 -3.60575 0
M  V30 2860 H 268.737 -1.04897 -3.09296 0
M  V30 2861 H 267.396 -2.96477 -2.15631 0
M  V30 2862 H 267.044 -2.2149 -4.5161 0
M  V30 2863 H 266.744 -3.962 -4.33934 0
M  V30 2864 H 268.268 -3.39193 -5.07721 0
M  V30 2865 H 269.682 -4.72899 -3.24098 0
M  V30 2866 H 268.079 -5.33987 -2.7382 0
M  V30 2867 H 269.149 -4.60006 -1.53372 0
M  V30 2868 N 270.492 0.636531 -1.44174 0
M  V30 2869 C 271.769 1.39463 -1.37148 0
M  V30 2870 C 272.149 2.11082 -0.027507 0
M  V30 2871 O 271.497 2.05954 0.989716 0
M  V30 2872 C 271.707 2.36552 -2.56601 0
M  V30 2873 C 273.055 3.00048 -3.00427 0
M  V30 2874 O 274.079 2.46878 -2.56767 0
M  V30 2875 O 272.938 3.96488 -3.76111 0
M  V30 2876 H 270.032 0.623903 -0.542839 0
M  V30 2877 H 272.578 0.662039 -1.56253 0
M  V30 2878 H 271.35 1.82692 -3.46034 0
M  V30 2879 H 270.973 3.17236 -2.39681 0
M  V30 2880 N 271.97 1.30982 0.876444 0
M  V30 2881 C 273.216 1.21484 1.63136 0
M  V30 2882 C 273.571 -0.226339 1.91064 0
M  V30 2883 O 272.864 -1.15788 1.52656 0
M  V30 2884 C 273.058 1.98572 2.9716 0
M  V30 2885 C 272.887 3.50039 2.82317 0
M  V30 2886 C 271.657 4.19393 2.81847 0
M  V30 2887 C 273.855 4.45111 2.57644 0
M  V30 2888 N 271.837 5.57061 2.57985 0
M  V30 2889 C 273.208 5.70402 2.42986 0
M  V30 2890 C 275.263 4.3461 2.42937 0
M  V30 2891 C 273.966 6.8638 2.15115 0
M  V30 2892 C 275.992 5.50365 2.16454 0
M  V30 2893 C 275.354 6.74642 2.02578 0
M  V30 2894 H 271.453 0.499632 0.601575 0
M  V30 2895 H 274.037 1.65094 1.03209 0
M  V30 2896 H 272.208 1.5734 3.55104 0
M  V30 2897 H 273.94 1.81146 3.61895 0
M  V30 2898 H 270.695 3.71303 2.93991 0
M  V30 2899 H 271.119 6.29529 2.49043 0
M  V30 2900 H 275.761 3.39199 2.52396 0
M  V30 2901 H 273.479 7.81824 2.04394 0
M  V30 2902 H 277.065 5.44154 2.05884 0
M  V30 2903 H 275.945 7.62699 1.82374 0
M  V30 2904 N 273.449 -1.08991 1.13837 0
M  V30 2905 C 274.679 -1.84743 0.924859 0
M  V30 2906 C 275.087 -1.81629 -0.529874 0
M  V30 2907 O 274.43 -1.21397 -1.37872 0
M  V30 2908 C 274.492 -3.33568 1.34061 0
M  V30 2909 C 274.156 -3.60425 2.80968 0
M  V30 2910 C 275.153 -3.55771 3.79108 0
M  V30 2911 C 272.838 -3.88627 3.18236 0
M  V30 2912 C 274.832 -3.78939 5.12527 0
M  V30 2913 C 272.519 -4.11449 4.51833 0
M  V30 2914 C 273.517 -4.06598 5.48787 0
M  V30 2915 O 273.205 -4.28826 6.79973 0
M  V30 2916 H 272.937 -0.590258 0.329502 0
M  V30 2917 H 275.491 -1.38598 1.51591 0
M  V30 2918 H 273.721 -3.80442 0.692853 0
M  V30 2919 H 275.41 -3.90743 1.09886 0
M  V30 2920 H 276.176 -3.34005 3.51661 0
M  V30 2921 H 272.055 -3.91526 2.43369 0
M  V30 2922 H 275.599 -3.75068 5.88192 0
M  V30 2923 H 271.496 -4.32698 4.79002 0
M  V30 2924 H 272.264 -4.46264 6.86142 0
M  V30 2925 N 274.927 -0.932562 -1.27047 0
M  V30 2926 C 275.874 -0.434072 -2.26681 0
M  V30 2927 C 276.844 0.501639 -1.58344 0
M  V30 2928 O 278.029 0.419734 -1.86126 0
M  V30 2929 C 275.169 0.30261 -3.43771 0
M  V30 2930 C 274.282 -0.667774 -4.26808 0
M  V30 2931 C 273.417 0.0892393 -5.31125 0
M  V30 2932 C 272.456 -0.873532 -6.05835 0
M  V30 2933 N 271.593 -0.148832 -7.01942 0
M  V30 2934 H 276.433 -1.28868 -2.68695 0
M  V30 2935 H 273.97 -0.646713 -1.32121 0
M  V30 2936 H 275.928 0.746092 -4.10474 0
M  V30 2937 H 274.558 1.12142 -3.02695 0
M  V30 2938 H 273.61 -1.22978 -3.59973 0
M  V30 2939 H 274.922 -1.40337 -4.78651 0
M  V30 2940 H 274.076 0.592409 -6.03801 0
M  V30 2941 H 272.815 0.85777 -4.80097 0
M  V30 2942 H 271.82 -1.38791 -5.31994 0
M  V30 2943 H 273.045 -1.64193 -6.58952 0
M  V30 2944 H 270.991 0.601365 -6.53238 0
M  V30 2945 H 270.908 -0.82391 -7.51497 0
M  V30 2946 H 272.176 0.333527 -7.78786 0
M  V30 2947 N 276.405 1.4127 -0.698611 0
M  V30 2948 C 277.368 2.29158 -0.044132 0
M  V30 2949 C 278.368 1.44529 0.704841 0
M  V30 2950 O 279.558 1.65643 0.539276 0
M  V30 2951 C 276.69 3.27459 0.947809 0
M  V30 2952 H 277.883 2.88529 -0.817994 0
M  V30 2953 H 275.436 1.49307 -0.46228 0
M  V30 2954 H 276.171 2.73073 1.74933 0
M  V30 2955 H 275.956 3.8991 0.41385 0
M  V30 2956 H 277.446 3.93311 1.40344 0
M  V30 2957 N 277.883 0.443576 1.51229 0
M  V30 2958 C 278.831 -0.37904 2.29491 0
M  V30 2959 C 279.825 -1.0153 1.35603 0
M  V30 2960 O 281.031 -0.94955 1.52917 0
M  V30 2961 H 277.406 -0.141053 0.738653 0
M  V30 2962 H 279.377 0.301799 2.9687 0
M  V30 2963 C 278.126 -1.46426 3.15364 0
M  V30 2964 H 277.449 -0.984037 3.87501 0
M  V30 2965 H 278.889 -2.01297 3.7317 0
M  V30 2966 C 277.348 -2.45099 2.31146 0
M  V30 2967 O 277.878 -3.49773 1.9754 0
M  V30 2968 N 276.084 -2.16139 1.94249 0
M  V30 2969 H 275.631 -1.31044 2.21777 0
M  V30 2970 H 275.589 -2.82398 1.38198 0
M  V30 2971 N 279.361 -1.56624 0.175154 0
M  V30 2972 C 280.589 -2.01374 -0.474971 0
M  V30 2973 C 281.004 -1.05537 -1.56548 0
M  V30 2974 O 280.361 -0.0568668 -1.82411 0
M  V30 2975 C 280.412 -3.45923 -1.04975 0
M  V30 2976 O 280.133 -4.381 -0.00276605 0
M  V30 2977 C 281.634 -4.06093 -1.77773 0
M  V30 2978 H 278.854 -0.659962 -0.121206 0
M  V30 2979 H 281.398 -2.02601 0.27801 0
M  V30 2980 H 279.553 -3.45458 -1.75321 0
M  V30 2981 H 279.967 -5.22753 -0.427681 0
M  V30 2982 H 281.441 -5.09147 -2.13245 0
M  V30 2983 H 281.918 -3.48405 -2.67414 0
M  V30 2984 H 282.524 -4.10272 -1.12059 0
M  V30 2985 N 280.839 0.0985539 -1.57292 0
M  V30 2986 C 282.116 0.834155 -1.76921 0
M  V30 2987 C 282.496 1.97101 -0.755928 0
M  V30 2988 O 281.844 2.27474 0.216245 0
M  V30 2989 C 282.054 1.33194 -3.22584 0
M  V30 2990 C 283.402 1.77611 -3.85668 0
M  V30 2991 O 284.426 1.42825 -3.26312 0
M  V30 2992 O 283.285 2.4192 -4.90038 0
M  V30 2993 H 280.379 0.397628 -0.725135 0
M  V30 2994 H 282.925 0.0807044 -1.69508 0
M  V30 2995 H 281.697 0.517248 -3.87866 0
M  V30 2996 H 281.32 2.1475 -3.34616 0
M  V30 2997 N 282.317 1.53212 0.369288 0
M  V30 2998 C 283.264 1.79388 1.45219 0
M  V30 2999 C 284.234 0.638059 1.53356 0
M  V30 3000 O 285.419 0.879852 1.69302 0
M  V30 3001 C 282.559 1.98623 2.82211 0
M  V30 3002 C 281.672 3.26337 2.8307 0
M  V30 3003 C 280.807 3.35779 4.11614 0
M  V30 3004 C 279.846 4.5754 4.06601 0
M  V30 3005 N 278.983 4.64155 5.26787 0
M  V30 3006 H 283.823 2.71794 1.22198 0
M  V30 3007 H 281.36 1.34642 0.592444 0
M  V30 3008 H 283.318 2.07761 3.61789 0
M  V30 3009 H 281.948 1.09558 3.03639 0
M  V30 3010 H 281 3.26171 1.95747 0
M  V30 3011 H 282.312 4.15988 2.75237 0
M  V30 3012 H 281.466 3.44208 4.99606 0
M  V30 3013 H 280.205 2.44137 4.22195 0
M  V30 3014 H 279.21 4.49215 3.16996 0
M  V30 3015 H 280.435 5.50519 3.97625 0
M  V30 3016 H 278.381 3.75413 5.3796 0
M  V30 3017 H 278.298 5.47706 5.21109 0
M  V30 3018 H 279.566 4.76863 6.16621 0
M  V30 3019 N 283.795 -0.628877 1.44509 0
M  V30 3020 C 284.742 -1.74074 1.51549 0
M  V30 3021 C 285.712 -1.62084 0.363021 0
M  V30 3022 O 286.897 -1.81975 0.573567 0
M  V30 3023 C 284.037 -3.12328 1.46784 0
M  V30 3024 C 283.15 -3.35277 2.72422 0
M  V30 3025 C 282.285 -4.63515 2.59475 0
M  V30 3026 C 281.324 -4.7965 3.80266 0
M  V30 3027 N 280.461 -5.99168 3.65981 0
M  V30 3028 H 285.301 -1.67392 2.46544 0
M  V30 3029 H 282.838 -0.816527 1.22357 0
M  V30 3030 H 284.796 -3.92286 1.42012 0
M  V30 3031 H 283.426 -3.18018 0.553544 0
M  V30 3032 H 282.478 -2.49242 2.87372 0
M  V30 3033 H 283.79 -3.43078 3.62076 0
M  V30 3034 H 282.944 -5.51638 2.52548 0
M  V30 3035 H 281.683 -4.58076 1.67384 0
M  V30 3036 H 280.688 -3.89957 3.87574 0
M  V30 3037 H 281.913 -4.86902 4.73395 0
M  V30 3038 H 279.859 -5.94814 2.76644 0
M  V30 3039 H 279.776 -6.08035 4.49254 0
M  V30 3040 H 281.044 -6.89846 3.6295 0
M  V30 3041 N 285.273 -1.31445 -0.869486 0
M  V30 3042 C 286.183 -1.21097 -2.0093 0
M  V30 3043 C 287.199 -0.127584 -1.73532 0
M  V30 3044 O 288.375 -0.345477 -1.98415 0
M  V30 3045 C 285.44 -0.919378 -3.34288 0
M  V30 3046 C 284.501 -2.08971 -3.75006 0
M  V30 3047 C 283.734 -1.81194 -5.02001 0
M  V30 3048 O 283.957 -0.747296 -5.65484 0
M  V30 3049 O 282.891 -2.66883 -5.39497 0
M  V30 3050 H 286.717 -2.16883 -2.12592 0
M  V30 3051 H 284.302 -1.11189 -0.997868 0
M  V30 3052 H 286.184 -0.772625 -4.14257 0
M  V30 3053 H 284.859 0.00844772 -3.23699 0
M  V30 3054 H 283.766 -2.29187 -2.95676 0
M  V30 3055 H 285.099 -2.9998 -3.90221 0
M  V30 3056 N 286.751 1.08385 -1.14413 0
M  V30 3057 C 287.981 1.8425 -0.934644 0
M  V30 3058 C 288.389 1.81907 0.520234 0
M  V30 3059 O 287.732 1.22126 1.37226 0
M  V30 3060 C 287.794 3.32853 -1.35828 0
M  V30 3061 C 287.458 3.5893 -2.82875 0
M  V30 3062 C 288.455 3.53756 -3.80989 0
M  V30 3063 C 286.14 3.86934 -3.20293 0
M  V30 3064 C 288.134 3.76216 -5.14529 0
M  V30 3065 C 285.821 4.09047 -4.54008 0
M  V30 3066 C 286.819 4.03682 -5.50936 0
M  V30 3067 O 286.507 4.25214 -6.82238 0
M  V30 3068 H 286.239 0.588502 -0.332628 0
M  V30 3069 H 288.793 1.37792 -1.52324 0
M  V30 3070 H 287.023 3.8007 -0.713019 0
M  V30 3071 H 288.712 3.90154 -1.11957 0
M  V30 3072 H 289.478 3.32135 -3.53428 0
M  V30 3073 H 285.357 3.9023 -2.45442 0
M  V30 3074 H 288.901 3.71943 -5.90173 0
M  V30 3075 H 284.798 4.30151 -4.8129 0
M  V30 3076 H 285.566 4.42619 -6.88499 0
M  V30 3077 N 288.23 0.939286 1.26551 0
M  V30 3078 C 289.193 0.451987 2.24699 0
M  V30 3079 C 290.193 -0.435869 1.5478 0
M  V30 3080 O 291.383 -0.235314 1.72603 0
M  V30 3081 C 288.515 -0.348801 3.39111 0
M  V30 3082 H 289.708 1.3193 2.69322 0
M  V30 3083 H 287.261 0.721072 1.38673 0
M  V30 3084 H 287.996 -1.23444 2.99887 0
M  V30 3085 H 287.781 0.287945 3.91041 0
M  V30 3086 H 289.271 -0.679726 4.12031 0
M  V30 3087 N 289.708 -1.40897 0.706093 0
M  V30 3088 C 291.119 -1.84023 0.315052 0
M  V30 3089 C 291.47 -1.5906 -1.14866 0
M  V30 3090 O 290.595 -1.06651 -1.88293 0
M  V30 3091 C 291.19 -3.34055 0.565038 0
M  V30 3092 C 289.749 -3.7571 0.227806 0
M  V30 3093 C 288.896 -2.64204 0.842122 0
M  V30 3094 H 291.847 -1.303 0.905963 0
M  V30 3095 H 291.868 -3.80107 -0.172843 0
M  V30 3096 H 291.38 -3.52192 1.63042 0
M  V30 3097 H 289.481 -3.63172 -0.832895 0
M  V30 3098 H 289.594 -4.74103 0.690174 0
M  V30 3099 H 287.958 -2.53255 0.270893 0
M  V30 3100 H 288.741 -2.85155 1.91158 0
M  V30 3101 N 291.186 -0.45159 -1.50991 0
M  V30 3102 C 292.149 0.341117 -2.26647 0
M  V30 3103 C 293.149 0.937422 -1.30649 0
M  V30 3104 O 294.339 0.809644 -1.54241 0
M  V30 3105 C 291.471 1.48398 -3.06905 0
M  V30 3106 H 292.664 -0.322117 -2.98165 0
M  V30 3107 H 290.217 -0.205122 -1.54948 0
M  V30 3108 H 290.952 2.18284 -2.39838 0
M  V30 3109 H 290.737 1.06241 -3.77432 0
M  V30 3110 H 292.227 2.04367 -3.64176 0
M  V30 3111 N 292.664 1.56529 -0.183458 0
M  V30 3112 C 293.574 2.22144 0.754272 0
M  V30 3113 C 294.59 1.21684 1.24374 0
M  V30 3114 O 295.766 1.54385 1.29333 0
M  V30 3115 C 292.831 2.85884 1.96141 0
M  V30 3116 C 291.892 4.01579 1.51765 0
M  V30 3117 C 291.125 4.6227 2.66725 0
M  V30 3118 O 291.348 4.21865 3.83909 0
M  V30 3119 O 290.282 5.51936 2.40104 0
M  V30 3120 H 294.108 3.02861 0.225527 0
M  V30 3121 H 291.693 1.49331 0.0453032 0
M  V30 3122 H 293.575 3.26253 2.66715 0
M  V30 3123 H 292.25 2.08154 2.47899 0
M  V30 3124 H 291.157 3.65856 0.781049 0
M  V30 3125 H 292.49 4.80938 1.04686 0
M  V30 3126 N 294.142 -0.090211 1.57342 0
M  V30 3127 C 295.419 -0.824761 1.77361 0
M  V30 3128 C 295.799 -1.96698 0.76637 0
M  V30 3129 O 295.147 -2.27586 -0.204179 0
M  V30 3130 C 295.357 -1.31481 3.23286 0
M  V30 3131 C 296.705 -1.75563 3.86604 0
M  V30 3132 O 297.729 -1.41093 3.27065 0
M  V30 3133 O 296.588 -2.39317 4.91314 0
M  V30 3134 H 293.682 -0.393776 0.727234 0
M  V30 3135 H 296.228 -0.0717138 1.69548 0
M  V30 3136 H 295 -0.496671 3.88135 0
M  V30 3137 H 294.623 -2.12973 3.35751 0
M  V30 3138 N 295.62 -1.53406 -0.361157 0
M  V30 3139 C 297.031 -1.61442 -0.937728 0
M  V30 3140 C 297.382 -0.48461 -1.90121 0
M  V30 3141 O 296.507 0.388312 -2.12888 0
M  V30 3142 C 297.102 -2.92624 -1.70753 0
M  V30 3143 C 295.661 -3.02981 -2.23337 0
M  V30 3144 C 294.808 -2.5677 -1.04712 0
M  V30 3145 H 297.759 -1.58083 -0.139816 0
M  V30 3146 H 297.78 -2.80675 -2.56908 0
M  V30 3147 H 297.292 -3.74834 -1.00604 0
M  V30 3148 H 295.393 -2.25368 -2.96715 0
M  V30 3149 H 295.506 -4.0814 -2.50916 0
M  V30 3150 H 293.87 -2.11752 -1.41539 0
M  V30 3151 H 294.653 -3.41402 -0.360539 0
M  V30 3152 N 297.098 0.621204 -1.44841 0
M  V30 3153 C 298.346 1.37783 -1.47852 0
M  V30 3154 C 298.667 1.94653 -0.116224 0
M  V30 3155 O 297.937 1.76367 0.852737 0
M  V30 3156 H 296.517 0.511453 -0.544449 0
M  V30 3157 H 299.179 0.730446 -1.80694 0
M  V30 3158 H 298.275 2.20414 -2.20961 0
M  V30 3159 N 298.576 1.31904 0.862503 0
M  V30 3160 C 299.822 1.22197 1.61851 0
M  V30 3161 C 300.155 -0.217641 1.92977 0
M  V30 3162 O 299.43 -1.15264 1.56666 0
M  V30 3163 C 299.713 2.07378 2.94391 0
M  V30 3164 C 299.566 3.59678 2.70096 0
M  V30 3165 C 300.885 1.92891 3.95577 0
M  V30 3166 H 298.004 0.445255 0.587296 0
M  V30 3167 H 300.646 1.6177 0.99651 0
M  V30 3168 H 298.796 1.73758 3.47477 0
M  V30 3169 H 300.468 4.03472 2.23625 0
M  V30 3170 H 298.711 3.82735 2.04197 0
M  V30 3171 H 299.382 4.14595 3.64438 0
M  V30 3172 H 301.858 2.22327 3.51724 0
M  V30 3173 H 300.734 2.54781 4.86187 0
M  V30 3174 H 300.995 0.894315 4.3296 0
M  V30 3175 N 300.054 -1.07777 1.14986 0
M  V30 3176 C 301.3 -1.80557 0.923422 0
M  V30 3177 C 301.633 -1.86298 -0.548337 0
M  V30 3178 O 300.908 -1.34354 -1.40639 0
M  V30 3179 C 301.191 -3.25839 1.53299 0
M  V30 3180 C 301.044 -3.28269 3.07505 0
M  V30 3181 C 302.363 -4.22991 1.21518 0
M  V30 3182 H 299.482 -0.655493 0.336894 0
M  V30 3183 H 302.124 -1.26144 1.42083 0
M  V30 3184 H 300.274 -3.72306 1.10999 0
M  V30 3185 H 301.946 -2.90079 3.58681 0
M  V30 3186 H 300.189 -2.67355 3.4162 0
M  V30 3187 H 300.86 -4.30691 3.45266 0
M  V30 3188 H 303.336 -3.84894 1.581 0
M  V30 3189 H 302.212 -5.22945 1.66793 0
M  V30 3190 H 302.473 -4.41904 0.131505 0
M  V30 3191 N 301.532 -0.945985 -1.26051 0
M  V30 3192 C 302.757 -0.612525 -1.98149 0
M  V30 3193 C 303.182 0.806623 -1.69927 0
M  V30 3194 O 302.54 1.54411 -0.950108 0
M  V30 3195 C 302.588 -0.866981 -3.50023 0
M  V30 3196 O 301.692 0.0585333 -4.12358 0
M  V30 3197 H 301.033 -0.23379 -0.621481 0
M  V30 3198 H 303.563 -1.27023 -1.60395 0
M  V30 3199 H 303.573 -0.789792 -4.00283 0
M  V30 3200 H 302.248 -1.90135 -3.69894 0
M  V30 3201 H 300.825 -0.0701241 -3.72834 0
M  V30 3202 N 303.011 1.40521 -0.713556 0
M  V30 3203 C 304.257 2.01221 -0.252564 0
M  V30 3204 C 304.59 1.56444 1.1506 0
M  V30 3205 O 303.865 0.783597 1.78017 0
M  V30 3206 C 304.148 3.58582 -0.330332 0
M  V30 3207 C 304.001 4.13437 -1.77173 0
M  V30 3208 C 305.32 4.39079 0.299641 0
M  V30 3209 H 302.439 0.731077 -0.0932471 0
M  V30 3210 H 305.081 1.67026 -0.905673 0
M  V30 3211 H 303.231 3.87844 0.225737 0
M  V30 3212 H 304.903 3.9498 -2.38303 0
M  V30 3213 H 303.146 3.67801 -2.3001 0
M  V30 3214 H 303.817 5.22597 -1.77755 0
M  V30 3215 H 306.293 4.15735 -0.174139 0
M  V30 3216 H 305.169 5.4848 0.214771 0
M  V30 3217 H 305.43 4.19915 1.38288 0
M  V30 3218 N 304.489 0.459591 1.5075 0
M  V30 3219 C 305.714 -0.0996819 2.0716 0
M  V30 3220 C 306.139 -1.33761 1.32249 0
M  V30 3221 O 305.497 -1.77551 0.366786 0
M  V30 3222 C 305.545 -0.378226 3.58611 0
M  V30 3223 O 304.649 -1.46081 3.85661 0
M  V30 3224 H 303.99 0.00791392 0.663953 0
M  V30 3225 H 306.52 0.647329 1.9409 0
M  V30 3226 H 306.53 -0.622135 4.03229 0
M  V30 3227 H 305.205 0.526439 4.12555 0
M  V30 3228 H 303.782 -1.20511 3.5289 0
M  V30 3229 N 305.967 -1.56429 0.191757 0
M  V30 3230 C 306.877 -2.22541 -0.742481 0
M  V30 3231 C 307.893 -1.22342 -1.23727 0
M  V30 3232 O 309.069 -1.55069 -1.28513 0
M  V30 3233 C 306.134 -2.8692 -1.94623 0
M  V30 3234 C 305.195 -4.02378 -1.49633 0
M  V30 3235 C 304.428 -4.63678 -2.6427 0
M  V30 3236 O 304.651 -4.23895 -3.81666 0
M  V30 3237 O 303.585 -5.53202 -2.37174 0
M  V30 3238 H 307.411 -3.02977 -0.209462 0
M  V30 3239 H 304.996 -1.49353 -0.0373832 0
M  V30 3240 H 306.878 -3.27663 -2.64982 0
M  V30 3241 H 305.553 -2.09466 -2.46791 0
M  V30 3242 H 304.46 -3.66265 -0.761636 0
M  V30 3243 H 305.793 -4.81487 -1.02134 0
M  V30 3244 N 307.445 0.0818655 -1.57387 0
M  V30 3245 C 308.694 0.781681 -1.85937 0
M  V30 3246 C 309.007 1.79246 -0.782957 0
M  V30 3247 O 310.213 2.54112 -0.955987 0
M  V30 3248 C 308.669 1.44109 -3.29789 0
M  V30 3249 C 308.277 0.469396 -4.45534 0
M  V30 3250 C 310.021 2.12386 -3.67549 0
M  V30 3251 C 307.928 1.13415 -5.80423 0
M  V30 3252 H 306.858 0.295682 -0.693605 0
M  V30 3253 H 309.509 0.0348051 -1.83467 0
M  V30 3254 H 307.891 2.23588 -3.2684 0
M  V30 3255 H 309.065 -0.294856 -4.59856 0
M  V30 3256 H 307.38 -0.108383 -4.16259 0
M  V30 3257 H 309.977 2.62878 -4.65617 0
M  V30 3258 H 310.32 2.91877 -2.96839 0
M  V30 3259 H 310.853 1.39751 -3.72444 0
M  V30 3260 H 307.592 0.379771 -6.54399 0
M  V30 3261 H 307.112 1.8695 -5.69921 0
M  V30 3262 H 308.791 1.65686 -6.25426 0
M  V30 3263 N 308.923 1.53595 0.353017 0
M  V30 3264 C 310.153 1.74058 1.11299 0
M  V30 3265 C 310.561 0.475205 1.83135 0
M  V30 3266 O 309.904 -0.562344 1.74881 0
M  V30 3267 C 309.966 2.85994 2.17825 0
M  V30 3268 C 309.63 4.25923 1.65647 0
M  V30 3269 C 310.627 5.07829 1.11383 0
M  V30 3270 C 308.312 4.72377 1.7078 0
M  V30 3271 C 310.306 6.34285 0.629439 0
M  V30 3272 C 307.993 5.98808 1.21953 0
M  V30 3273 C 308.991 6.79594 0.681265 0
M  V30 3274 O 308.679 8.03651 0.200248 0
M  V30 3275 H 308.411 0.585327 0.338183 0
M  V30 3276 H 310.965 2.01186 0.413927 0
M  V30 3277 H 309.195 2.54368 2.91262 0
M  V30 3278 H 310.884 2.94515 2.79313 0
M  V30 3279 H 311.65 4.73107 1.06746 0
M  V30 3280 H 307.529 4.0956 2.11617 0
M  V30 3281 H 311.073 6.97288 0.208636 0
M  V30 3282 H 306.97 6.33026 1.26287 0
M  V30 3283 H 307.738 8.1788 0.318416 0
M  V30 3284 N 310.401 -0.613514 1.45168 0
M  V30 3285 C 311.333 -1.73825 1.4939 0
M  V30 3286 C 312.346 -1.58175 0.385304 0
M  V30 3287 O 313.535 -1.66165 0.652036 0
M  V30 3288 C 310.635 -3.11758 1.32891 0
M  V30 3289 C 309.808 -3.53704 2.57317 0
M  V30 3290 C 308.867 -4.70579 2.35462 0
M  V30 3291 O 307.893 -4.77996 3.09044 0
M  V30 3292 N 309.095 -5.63454 1.39644 0
M  V30 3293 H 311.86 -1.70669 2.46358 0
M  V30 3294 H 309.421 -0.79862 1.40832 0
M  V30 3295 H 311.413 -3.87692 1.1609 0
M  V30 3296 H 309.983 -3.09456 0.442218 0
M  V30 3297 H 309.203 -2.67794 2.89275 0
M  V30 3298 H 310.491 -3.78486 3.40038 0
M  V30 3299 H 309.889 -5.6017 0.789062 0
M  V30 3300 H 308.446 -6.38944 1.28816 0
M  V30 3301 N 311.879 -1.3236 -0.855495 0
M  V30 3302 C 313.109 -1.25688 -1.6397 0
M  V30 3303 C 313.517 0.177592 -1.88365 0
M  V30 3304 O 312.86 1.12485 -1.45234 0
M  V30 3305 C 312.922 -1.94602 -3.02275 0
M  V30 3306 C 312.586 -3.43937 -3.00926 0
M  V30 3307 C 313.583 -4.39435 -2.77835 0
M  V30 3308 C 311.268 -3.85858 -3.21588 0
M  V30 3309 C 313.262 -5.74829 -2.75409 0
M  V30 3310 C 310.949 -5.21361 -3.18789 0
M  V30 3311 C 311.947 -6.15658 -2.95727 0
M  V30 3312 O 311.635 -7.48681 -2.928 0
M  V30 3313 H 311.367 -0.434972 -0.51747 0
M  V30 3314 H 313.921 -1.75023 -1.075 0
M  V30 3315 H 312.151 -1.39836 -3.60531 0
M  V30 3316 H 313.84 -1.81651 -3.62985 0
M  V30 3317 H 314.606 -4.08374 -2.6164 0
M  V30 3318 H 310.485 -3.12883 -3.38564 0
M  V30 3319 H 314.029 -6.48404 -2.57328 0
M  V30 3320 H 309.926 -5.52052 -3.34528 0
M  V30 3321 H 310.694 -7.5803 -3.0876 0
M  V30 3322 N 313.357 1.07166 -1.15556 0
M  V30 3323 C 314.587 1.83248 -0.954133 0
M  V30 3324 C 314.995 1.82449 0.500911 0
M  V30 3325 O 314.338 1.23575 1.35923 0
M  V30 3326 C 314.4 3.31393 -1.39351 0
M  V30 3327 C 314.064 3.5591 -2.86666 0
M  V30 3328 C 315.061 3.49695 -3.8472 0
M  V30 3329 C 312.746 3.83515 -3.24379 0
M  V30 3330 C 314.74 3.70737 -5.18491 0
M  V30 3331 C 312.427 4.04209 -4.58321 0
M  V30 3332 C 313.425 3.97815 -5.55186 0
M  V30 3333 O 313.113 4.17954 -6.86709 0
M  V30 3334 H 312.845 0.584941 -0.338851 0
M  V30 3335 H 315.399 1.36169 -1.53777 0
M  V30 3336 H 313.629 3.79292 -0.75329 0
M  V30 3337 H 315.318 3.88945 -1.16089 0
M  V30 3338 H 316.084 3.28368 -3.56931 0
M  V30 3339 H 311.963 3.87605 -2.49567 0
M  V30 3340 H 315.507 3.65663 -5.94085 0
M  V30 3341 H 311.404 4.25023 -4.85825 0
M  V30 3342 H 312.172 4.35291 -6.93155 0
M  V30 3343 N 314.835 0.952656 1.25548 0
M  V30 3344 C 315.782 0.47008 2.25962 0
M  V30 3345 C 316.752 -0.476384 1.59122 0
M  V30 3346 O 317.937 -0.39007 1.8677 0
M  V30 3347 C 315.077 -0.247881 3.44209 0
M  V30 3348 C 314.19 0.735591 4.25691 0
M  V30 3349 C 313.325 -0.0047306 5.312 0
M  V30 3350 C 312.364 0.969805 6.04368 0
M  V30 3351 N 311.501 0.260486 7.01617 0
M  V30 3352 H 316.341 1.33126 2.66611 0
M  V30 3353 H 313.878 0.66765 1.31076 0
M  V30 3354 H 315.836 -0.680695 4.1161 0
M  V30 3355 H 314.466 -1.07312 3.0444 0
M  V30 3356 H 313.518 1.28689 3.57971 0
M  V30 3357 H 314.83 1.47934 4.76358 0
M  V30 3358 H 313.984 -0.496275 6.04667 0
M  V30 3359 H 312.723 -0.781282 4.81401 0
M  V30 3360 H 311.728 1.47237 5.29718 0
M  V30 3361 H 312.953 1.74655 6.56256 0
M  V30 3362 H 310.899 -0.497364 6.54112 0
M  V30 3363 H 310.816 0.943362 7.50091 0
M  V30 3364 H 312.084 -0.209587 7.79218 0
M  V30 3365 N 316.313 -1.40141 0.720998 0
M  V30 3366 C 317.223 -2.34486 0.0731031 0
M  V30 3367 C 318.239 -1.57587 -0.737723 0
M  V30 3368 O 319.415 -1.89949 -0.669429 0
M  V30 3369 C 316.48 -3.36528 -0.833656 0
M  V30 3370 C 315.541 -4.29298 -0.0121673 0
M  V30 3371 C 314.774 -5.26466 -0.875742 0
M  V30 3372 O 314.997 -5.29745 -2.11485 0
M  V30 3373 O 313.931 -6.01092 -0.31185 0
M  V30 3374 H 317.757 -2.9152 0.851444 0
M  V30 3375 H 315.342 -1.41427 0.481527 0
M  V30 3376 H 317.224 -3.99093 -1.35289 0
M  V30 3377 H 315.899 -2.81899 -1.59105 0
M  V30 3378 H 314.806 -3.70001 0.552262 0
M  V30 3379 H 316.139 -4.87094 0.707129 0
M  V30 3380 N 317.792 -0.46758 -1.50504 0
M  V30 3381 C 318.742 0.34698 -2.25344 0
M  V30 3382 C 319.726 0.964469 -1.2879 0
M  V30 3383 O 320.918 0.8776 -1.53711 0
M  V30 3384 C 318.047 1.43042 -3.1208 0
M  V30 3385 C 317.133 0.82084 -4.16081 0
M  V30 3386 N 317.524 -0.0567602 -5.05768 0
M  V30 3387 C 315.822 1.08517 -4.32597 0
M  V30 3388 C 316.523 -0.402343 -5.80307 0
M  V30 3389 N 315.499 0.221607 -5.43148 0
M  V30 3390 H 319.301 -0.329129 -2.92051 0
M  V30 3391 H 316.815 -0.281508 -1.59942 0
M  V30 3392 H 318.812 2.02712 -3.64299 0
M  V30 3393 H 317.472 2.10856 -2.46921 0
M  V30 3394 H 318.483 -0.425349 -5.1615 0
M  V30 3395 H 315.16 1.75855 -3.78657 0
M  V30 3396 H 316.55 -1.11834 -6.62528 0
M  V30 3397 N 319.27 1.56325 -0.20005 0
M  V30 3398 C 320.518 1.97329 0.436547 0
M  V30 3399 C 320.839 1.08826 1.61808 0
M  V30 3400 O 320.109 0.160604 1.95241 0
M  V30 3401 H 318.689 0.728714 0.164272 0
M  V30 3402 H 321.351 1.92761 -0.287937 0
M  V30 3403 H 320.447 3.02264 0.777353 0
M  V30 3404 N 320.748 -0.0735177 1.57428 0
M  V30 3405 C 321.978 -0.78483 1.91112 0
M  V30 3406 C 322.386 -1.71729 0.7941 0
M  V30 3407 O 321.729 -1.82105 -0.241542 0
M  V30 3408 C 321.791 -1.63346 3.20247 0
M  V30 3409 C 321.455 -0.870557 4.48632 0
M  V30 3410 C 322.452 -0.19058 5.19551 0
M  V30 3411 C 320.137 -0.838242 4.95256 0
M  V30 3412 C 322.131 0.511503 6.35344 0
M  V30 3413 C 319.818 -0.132386 6.10957 0
M  V30 3414 C 320.816 0.541288 6.80852 0
M  V30 3415 O 320.504 1.23578 7.94345 0
M  V30 3416 H 320.236 -0.228408 0.636244 0
M  V30 3417 H 322.79 -0.0486039 2.05342 0
M  V30 3418 H 321.02 -2.41245 3.02222 0
M  V30 3419 H 322.709 -2.22329 3.39595 0
M  V30 3420 H 323.475 -0.206864 4.84559 0
M  V30 3421 H 319.354 -1.35206 4.40727 0
M  V30 3422 H 322.898 1.03789 6.89836 0
M  V30 3423 H 318.795 -0.114023 6.45399 0
M  V30 3424 H 319.563 1.14487 8.10454 0
M  V30 3425 N 322.226 -1.5378 -0.344866 0
M  V30 3426 C 323.136 -1.84667 -1.4469 0
M  V30 3427 C 324.152 -0.736704 -1.57635 0
M  V30 3428 O 325.328 -1.02888 -1.73136 0
M  V30 3429 C 322.393 -2.04869 -2.79696 0
M  V30 3430 C 321.454 -3.28731 -2.76106 0
M  V30 3431 C 320.687 -3.4796 -4.04673 0
M  V30 3432 O 320.91 -2.71052 -5.01883 0
M  V30 3433 O 319.844 -4.41383 -4.09224 0
M  V30 3434 H 323.67 -2.78334 -1.21506 0
M  V30 3435 H 321.255 -1.39418 -0.536921 0
M  V30 3436 H 323.137 -2.19609 -3.59652 0
M  V30 3437 H 321.812 -1.14391 -3.02814 0
M  V30 3438 H 320.719 -3.19396 -1.94774 0
M  V30 3439 H 322.052 -4.19198 -2.57941 0
M  V30 3440 N 323.704 0.605807 -1.45491 0
M  V30 3441 C 324.932 1.39136 -1.5313 0
M  V30 3442 C 325.347 1.88082 -0.164507 0
M  V30 3443 O 324.704 1.62316 0.834247 0
M  V30 3444 C 324.755 2.59463 -2.51716 0
M  V30 3445 O 324.476 2.12551 -3.83084 0
M  V30 3446 C 325.977 3.52301 -2.6907 0
M  V30 3447 H 323.197 0.425849 -0.51855 0
M  V30 3448 H 325.741 0.73865 -1.90694 0
M  V30 3449 H 323.896 3.20772 -2.17219 0
M  V30 3450 H 324.31 2.90744 -4.36541 0
M  V30 3451 H 325.784 4.33271 -3.42024 0
M  V30 3452 H 326.261 4.02757 -1.75167 0
M  V30 3453 H 326.867 2.96845 -3.04571 0
M  V30 3454 N 325.182 1.32811 0.848464 0
M  V30 3455 C 326.428 1.23907 1.60546 0
M  V30 3456 C 326.761 -0.197161 1.93197 0
M  V30 3457 O 326.036 -1.13596 1.5788 0
M  V30 3458 C 326.319 2.10489 2.92175 0
M  V30 3459 C 326.172 3.62522 2.66266 0
M  V30 3460 C 327.491 1.97075 3.93509 0
M  V30 3461 H 324.61 0.451459 0.58254 0
M  V30 3462 H 327.252 1.62818 0.979296 0
M  V30 3463 H 325.402 1.77434 3.45614 0
M  V30 3464 H 327.074 4.05821 2.19334 0
M  V30 3465 H 325.317 3.84879 2.00126 0
M  V30 3466 H 325.988 4.18437 3.6002 0
M  V30 3467 H 328.464 2.26045 3.49346 0
M  V30 3468 H 327.34 2.59923 4.83457 0
M  V30 3469 H 327.601 0.940186 4.31987 0
M  V30 3470 N 326.66 -1.06551 1.16123 0
M  V30 3471 C 327.906 -1.79567 0.94252 0
M  V30 3472 C 328.239 -1.86869 -0.528547 0
M  V30 3473 O 327.514 -1.35838 -1.39206 0
M  V30 3474 C 327.797 -3.24195 1.56747 0
M  V30 3475 C 327.65 -3.24989 3.10969 0
M  V30 3476 C 328.969 -4.21678 1.25998 0
M  V30 3477 H 326.088 -0.651883 0.343828 0
M  V30 3478 H 328.73 -1.2463 1.43413 0
M  V30 3479 H 326.88 -3.71107 1.14942 0
M  V30 3480 H 328.552 -2.86258 3.61737 0
M  V30 3481 H 326.795 -2.63716 3.44436 0
M  V30 3482 H 327.466 -4.27005 3.49815 0
M  V30 3483 H 329.942 -3.83196 1.62174 0
M  V30 3484 H 328.818 -5.21146 1.7233 0
M  V30 3485 H 329.079 -4.4174 0.178367 0
M  V30 3486 N 328.138 -0.959301 -1.25041 0
M  V30 3487 C 329.071 -0.427418 -2.24161 0
M  V30 3488 C 330.049 0.493837 -1.54919 0
M  V30 3489 O 331.233 0.427144 -1.83597 0
M  V30 3490 C 328.36 0.383893 -3.36517 0
M  V30 3491 C 327.406 -0.478431 -4.23808 0
M  V30 3492 S 328.239 -1.91353 -5.00144 0
M  V30 3493 C 329.395 -1.11077 -6.15965 0
M  V30 3494 H 329.628 -1.26743 -2.6893 0
M  V30 3495 H 327.161 -0.763714 -1.34189 0
M  V30 3496 H 329.119 0.846039 -4.01687 0
M  V30 3497 H 327.78 1.19878 -2.90324 0
M  V30 3498 H 326.973 0.14406 -5.03794 0
M  V30 3499 H 326.575 -0.87597 -3.63597 0
M  V30 3500 H 328.867 -0.361699 -6.76534 0
M  V30 3501 H 329.81 -1.88472 -6.82557 0
M  V30 3502 H 330.218 -0.638843 -5.60873 0
M  V30 3503 N 329.616 1.39756 -0.72842 0
M  V30 3504 C 330.864 2.00248 -0.272946 0
M  V30 3505 C 331.185 1.58077 1.14178 0
M  V30 3506 O 330.455 0.826014 1.77634 0
M  V30 3507 H 329.035 0.740554 -0.0979247 0
M  V30 3508 H 331.697 1.70903 -0.936912 0
M  V30 3509 H 330.793 3.10495 -0.316142 0
M  V30 3510 N 331.094 0.475555 1.50254 0
M  V30 3511 C 332.057 -0.305016 2.27161 0
M  V30 3512 C 333.057 -0.916519 1.32123 0
M  V30 3513 O 334.247 -0.785003 1.5551 0
M  V30 3514 C 331.379 -1.43496 3.09227 0
M  V30 3515 H 332.572 0.369511 2.97615 0
M  V30 3516 H 330.125 0.229747 1.54602 0
M  V30 3517 H 330.86 -2.14441 2.43281 0
M  V30 3518 H 330.645 -1.00223 3.79075 0
M  V30 3519 H 332.135 -1.98548 3.67381 0
M  V30 3520 N 332.573 -1.56217 0.208337 0
M  V30 3521 C 333.798 -2.02782 -0.435222 0
M  V30 3522 C 334.223 -1.08738 -1.53485 0
M  V30 3523 O 333.581 -0.0731855 -1.81152 0
M  V30 3524 C 333.629 -3.47687 -0.956335 0
M  V30 3525 O 332.733 -3.56773 -2.06849 0
M  V30 3526 H 332.074 -0.656403 -0.100158 0
M  V30 3527 H 334.604 -2.02033 0.3231 0
M  V30 3528 H 334.614 -3.87745 -1.26955 0
M  V30 3529 H 333.289 -4.15624 -0.15143 0
M  V30 3530 H 331.866 -3.28597 -1.76292 0
M  V30 3531 N 334.051 0.0651679 -1.57465 0
M  V30 3532 C 335.298 0.763063 -1.87573 0
M  V30 3533 C 335.626 1.77242 -0.800961 0
M  V30 3534 O 334.881 1.94651 0.202316 0
M  V30 3535 C 335.18 1.50081 -3.24362 0
M  V30 3536 C 334.846 0.630816 -4.46466 0
M  V30 3537 C 333.508 0.391082 -4.79608 0
M  V30 3538 C 335.86 0.0279465 -5.21193 0
M  V30 3539 C 333.188 -0.460894 -5.84887 0
M  V30 3540 C 335.54 -0.811522 -6.27373 0
M  V30 3541 C 334.204 -1.06106 -6.59013 0
M  V30 3542 H 333.474 0.279224 -0.686378 0
M  V30 3543 H 336.121 0.0236726 -1.91485 0
M  V30 3544 H 334.426 2.31258 -3.16271 0
M  V30 3545 H 336.123 2.04571 -3.44894 0
M  V30 3546 H 332.713 0.8278 -4.2053 0
M  V30 3547 H 336.897 0.200262 -4.95896 0
M  V30 3548 H 332.153 -0.662907 -6.07796 0
M  V30 3549 H 336.327 -1.28537 -6.84435 0
M  V30 3550 H 333.954 -1.723 -7.40417 0
M  V30 3551 N 335.529 1.53961 0.336706 0
M  V30 3552 C 336.945 1.44378 0.680241 0
M  V30 3553 C 337.145 0.606034 1.9217 0
M  V30 3554 O 336.201 0.099688 2.52303 0
M  V30 3555 C 337.514 2.87945 0.8665 0
M  V30 3556 C 339.062 2.97763 0.964682 0
M  V30 3557 C 339.537 4.42453 1.18321 0
M  V30 3558 N 341.028 4.46008 1.25025 0
M  V30 3559 C 341.763 5.55102 1.43697 0
M  V30 3560 N 341.259 6.7419 1.59498 0
M  V30 3561 N 343.052 5.42727 1.463 0
M  V30 3562 H 335.203 2.06918 -0.479455 0
M  V30 3563 H 337.466 0.935634 -0.152619 0
M  V30 3564 H 337.172 3.51691 0.0256937 0
M  V30 3565 H 337.046 3.33293 1.76623 0
M  V30 3566 H 339.433 2.34153 1.796 0
M  V30 3567 H 339.514 2.55766 0.041708 0
M  V30 3568 H 339.158 5.06645 0.356788 0
M  V30 3569 H 339.088 4.82048 2.11985 0
M  V30 3570 H 341.579 3.60196 1.14312 0
M  V30 3571 H 341.892 7.53095 1.734 0
M  V30 3572 H 340.237 6.77123 1.56621 0
M  V30 3573 H 343.428 4.48647 1.33543 0
M  V30 3574 H 343.601 6.27806 1.6051 0
M  V30 3575 N 337.007 -0.598083 1.45811 0
M  V30 3576 C 337.955 -1.72932 1.55555 0
M  V30 3577 C 338.949 -1.63984 0.424921 0
M  V30 3578 O 340.155 -1.69663 0.601205 0
M  V30 3579 H 336.53 -0.571489 0.488779 0
M  V30 3580 H 338.501 -1.61842 2.50699 0
M  V30 3581 C 337.25 -3.11318 1.54843 0
M  V30 3582 H 336.573 -3.18867 2.41172 0
M  V30 3583 H 338.013 -3.90274 1.65717 0
M  V30 3584 C 336.472 -3.3578 0.274427 0
M  V30 3585 O 337.002 -3.9654 -0.641778 0
M  V30 3586 N 335.208 -2.90119 0.167139 0
M  V30 3587 H 334.755 -2.40855 0.913596 0
M  V30 3588 H 334.713 -3.0686 -0.684435 0
M  V30 3589 N 338.485 -1.33259 -0.841409 0
M  V30 3590 C 339.734 -1.23921 -1.59143 0
M  V30 3591 C 340.047 0.1941 -1.94635 0
M  V30 3592 O 341.253 0.409474 -2.68394 0
M  V30 3593 C 339.709 -2.17119 -2.87032 0
M  V30 3594 C 339.317 -3.65606 -2.58914 0
M  V30 3595 C 341.061 -2.16648 -3.65053 0
M  V30 3596 C 338.968 -4.50726 -3.82884 0
M  V30 3597 H 337.898 -0.460264 -0.597221 0
M  V30 3598 H 340.549 -1.58307 -0.927959 0
M  V30 3599 H 338.931 -1.75663 -3.54906 0
M  V30 3600 H 340.105 -4.15487 -1.99267 0
M  V30 3601 H 338.42 -3.68341 -1.942 0
M  V30 3602 H 341.017 -2.77474 -4.57069 0
M  V30 3603 H 341.36 -1.16088 -3.99787 0
M  V30 3604 H 341.893 -2.56453 -3.041 0
M  V30 3605 H 338.632 -5.52151 -3.53283 0
M  V30 3606 H 338.152 -4.0559 -4.41879 0
M  V30 3607 H 339.831 -4.64401 -4.50489 0
M  V30 3608 N 339.963 1.05934 -1.16686 0
M  V30 3609 C 341.211 1.78447 -0.948744 0
M  V30 3610 C 341.532 1.87813 0.524523 0
M  V30 3611 O 340.802 1.38945 1.38098 0
M  V30 3612 H 339.382 0.660971 -0.348033 0
M  V30 3613 H 342.044 1.27947 -1.47022 0
M  V30 3614 H 341.14 2.80394 -1.37061 0
M  V30 3615 N 341.441 0.965919 1.2453 0
M  V30 3616 C 342.351 0.502154 2.29163 0
M  V30 3617 C 343.367 -0.436017 1.68448 0
M  V30 3618 O 344.543 -0.309497 1.99008 0
M  V30 3619 C 341.608 -0.201956 3.46111 0
M  V30 3620 C 340.669 0.775821 4.22232 0
M  V30 3621 C 339.902 0.105217 5.33596 0
M  V30 3622 O 340.125 -1.10683 5.59558 0
M  V30 3623 O 339.059 0.796475 5.96607 0
M  V30 3624 H 342.885 1.37194 2.70946 0
M  V30 3625 H 340.47 0.732875 1.30189 0
M  V30 3626 H 342.352 -0.597564 4.17142 0
M  V30 3627 H 341.027 -1.04673 3.06309 0
M  V30 3628 H 339.934 1.22185 3.53584 0
M  V30 3629 H 341.267 1.58896 4.65846 0
M  V30 3630 N 342.919 -1.39368 0.735821 0
M  V30 3631 C 344.168 -1.99733 0.281004 0
M  V30 3632 C 344.481 -1.59055 -1.13846 0
M  V30 3633 O 345.687 -2.12262 -1.69284 0
M  V30 3634 C 344.143 -3.57057 0.451462 0
M  V30 3635 C 343.751 -4.06697 1.87886 0
M  V30 3636 C 345.495 -4.2446 0.0584616 0
M  V30 3637 C 343.402 -5.56598 1.99883 0
M  V30 3638 H 342.332 -0.747163 0.101311 0
M  V30 3639 H 344.983 -1.59357 0.909819 0
M  V30 3640 H 343.365 -3.95234 -0.246263 0
M  V30 3641 H 344.539 -3.79853 2.60861 0
M  V30 3642 H 342.854 -3.5196 2.22515 0
M  V30 3643 H 345.451 -5.34549 0.127099 0
M  V30 3644 H 345.794 -4.04444 -0.986433 0
M  V30 3645 H 346.327 -3.9146 0.707374 0
M  V30 3646 H 343.066 -5.81494 3.02564 0
M  V30 3647 H 342.586 -5.85242 1.31346 0
M  V30 3648 H 344.265 -6.22022 1.78039 0
M  V30 3649 N 344.397 -0.483516 -1.5 0
M  V30 3650 C 345.327 0.293829 -2.31644 0
M  V30 3651 C 346.308 0.978864 -1.39112 0
M  V30 3652 O 347.493 0.973644 -1.68029 0
M  V30 3653 C 344.623 1.36897 -3.19181 0
M  V30 3654 C 343.577 0.804833 -4.20365 0
M  V30 3655 C 342.903 1.9792 -4.96721 0
M  V30 3656 C 344.203 -0.192313 -5.21946 0
M  V30 3657 H 345.897 -0.387616 -2.9688 0
M  V30 3658 H 343.443 -0.187856 -1.42769 0
M  V30 3659 H 345.396 1.92037 -3.751 0
M  V30 3660 H 344.12 2.07936 -2.51853 0
M  V30 3661 H 342.779 0.275319 -3.65565 0
M  V30 3662 H 342.427 2.67686 -4.25856 0
M  V30 3663 H 342.127 1.60789 -5.65173 0
M  V30 3664 H 343.651 2.53526 -5.55479 0
M  V30 3665 H 345.065 0.270333 -5.72662 0
M  V30 3666 H 343.462 -0.478543 -5.98189 0
M  V30 3667 H 344.532 -1.11409 -4.71928 0
M  V30 3668 N 345.875 1.56104 -0.216619 0
M  V30 3669 C 346.785 2.23694 0.706982 0
M  V30 3670 C 347.801 1.24295 1.21765 0
M  V30 3671 O 348.977 1.57094 1.2603 0
M  V30 3672 C 346.042 2.8998 1.90033 0
M  V30 3673 C 345.103 4.04708 1.43213 0
M  V30 3674 C 344.336 4.67824 2.56859 0
M  V30 3675 O 344.559 4.29913 3.74874 0
M  V30 3676 O 343.493 5.56905 2.28343 0
M  V30 3677 H 347.319 3.03272 0.161235 0
M  V30 3678 H 344.904 1.49394 0.0136177 0
M  V30 3679 H 346.786 3.31837 2.59735 0
M  V30 3680 H 345.461 2.13365 2.43428 0
M  V30 3681 H 344.368 3.6743 0.70327 0
M  V30 3682 H 345.701 4.83051 0.944615 0
M  V30 3683 N 347.353 -0.0568162 1.57498 0
M  V30 3684 C 348.283 -1.06593 2.0775 0
M  V30 3685 C 349.264 -1.39448 0.974082 0
M  V30 3686 O 350.449 -1.48815 1.24771 0
M  V30 3687 C 347.579 -2.37509 2.5339 0
M  V30 3688 C 346.533 -2.1897 3.67745 0
M  V30 3689 C 345.859 -3.55402 3.99492 0
M  V30 3690 C 347.159 -1.59859 4.97235 0
M  V30 3691 H 348.853 -0.647706 2.9231 0
M  V30 3692 H 346.399 -0.310116 1.40621 0
M  V30 3693 H 348.352 -3.08409 2.87162 0
M  V30 3694 H 347.076 -2.8134 1.65878 0
M  V30 3695 H 345.735 -1.50508 3.3428 0
M  V30 3696 H 345.383 -3.9683 3.09088 0
M  V30 3697 H 345.083 -3.43831 4.76502 0
M  V30 3698 H 346.607 -4.27708 4.35773 0
M  V30 3699 H 348.021 -2.20642 5.29141 0
M  V30 3700 H 346.418 -1.58942 5.78669 0
M  V30 3701 H 347.488 -0.561506 4.81638 0
M  V30 3702 N 348.832 -1.54138 -0.328536 0
M  V30 3703 C 349.795 -1.82462 -1.38709 0
M  V30 3704 C 350.795 -0.696229 -1.44946 0
M  V30 3705 O 351.985 -0.964535 -1.4506 0
M  V30 3706 C 349.117 -1.98018 -2.77492 0
M  V30 3707 H 350.31 -2.77037 -1.14851 0
M  V30 3708 H 347.863 -1.45779 -0.563751 0
M  V30 3709 H 348.598 -1.05637 -3.06613 0
M  V30 3710 H 348.383 -2.80124 -2.74359 0
M  V30 3711 H 349.873 -2.21396 -3.54081 0
M  V30 3712 N 350.31 0.590341 -1.46126 0
M  V30 3713 C 351.558 1.34616 -1.50742 0
M  V30 3714 C 351.879 1.94363 -0.157486 0
M  V30 3715 O 351.149 1.78136 0.815136 0
M  V30 3716 H 349.729 0.499789 -0.555175 0
M  V30 3717 H 352.391 0.691953 -1.82203 0
M  V30 3718 H 351.487 2.15678 -2.25587 0
M  V30 3719 N 351.788 1.33704 0.83433 0
M  V30 3720 C 353.028 1.26754 1.60352 0
M  V30 3721 C 353.392 -0.163182 1.91305 0
M  V30 3722 O 354.593 -0.3567 2.66423 0
M  V30 3723 C 352.864 2.12262 2.8754 0
M  V30 3724 S 354.423 2.22549 3.78176 0
M  V30 3725 H 351.241 0.450879 0.549753 0
M  V30 3726 H 353.843 1.68788 0.986444 0
M  V30 3727 H 352.547 3.15238 2.62779 0
M  V30 3728 H 352.078 1.71082 3.54252 0
M  V30 3729 H 354.093 1.3899 4.76336 0
M  V30 3730 N 353.266 -1.05314 1.17247 0
M  V30 3731 C 354.543 -1.75184 0.87005 0
M  V30 3732 C 354.923 -2.01481 -0.629965 0
M  V30 3733 O 354.271 -1.64988 -1.58086 0
M  V30 3734 C 354.481 -3.04594 1.70363 0
M  V30 3735 C 355.829 -3.78567 1.92281 0
M  V30 3736 O 356.853 -3.14461 1.67311 0
M  V30 3737 O 355.712 -4.93755 2.3424 0
M  V30 3738 H 352.806 -0.761729 0.322021 0
M  V30 3739 H 355.352 -1.11493 1.27935 0
M  V30 3740 H 354.124 -2.81201 2.72106 0
M  V30 3741 H 353.747 -3.76022 1.29202 0
M  V30 3742 N 354.744 -0.972509 -1.24016 0
M  V30 3743 C 356.16 -0.679827 -1.44397 0
M  V30 3744 C 356.36 0.756716 -1.86751 0
M  V30 3745 O 355.416 1.53007 -2.00861 0
M  V30 3746 C 356.729 -1.66803 -2.50195 0
M  V30 3747 C 358.277 -1.68119 -2.64017 0
M  V30 3748 C 358.752 -2.65748 -3.73017 0
M  V30 3749 N 360.243 -2.64219 -3.8045 0
M  V30 3750 C 360.978 -3.36433 -4.64328 0
M  V30 3751 N 360.474 -4.1818 -5.52356 0
M  V30 3752 N 362.267 -3.25235 -4.58453 0
M  V30 3753 H 354.418 -1.90059 -0.948228 0
M  V30 3754 H 356.681 -0.818527 -0.478245 0
M  V30 3755 H 356.387 -2.69498 -2.25973 0
M  V30 3756 H 356.261 -1.4446 -3.48441 0
M  V30 3757 H 358.648 -0.661319 -2.87594 0
M  V30 3758 H 358.729 -1.94525 -1.66113 0
M  V30 3759 H 358.373 -3.67872 -3.50189 0
M  V30 3760 H 358.303 -2.36619 -4.70446 0
M  V30 3761 H 360.794 -2.04887 -3.17537 0
M  V30 3762 H 361.107 -4.70157 -6.13329 0
M  V30 3763 H 359.452 -4.22273 -5.52006 0
M  V30 3764 H 362.643 -2.60829 -3.88698 0
M  V30 3765 H 362.816 -3.81776 -5.23594 0
M  V30 3766 N 356.222 1.38976 -0.743202 0
M  V30 3767 C 357.152 2.33171 -0.123873 0
M  V30 3768 C 358.133 1.54336 0.71516 0
M  V30 3769 O 359.318 1.82696 0.658467 0
M  V30 3770 C 356.448 3.38474 0.777978 0
M  V30 3771 C 355.402 4.27979 0.0424758 0
M  V30 3772 C 354.728 5.2405 1.06189 0
M  V30 3773 C 356.028 5.10155 -1.1198 0
M  V30 3774 H 357.722 2.85213 -0.910709 0
M  V30 3775 H 355.268 1.37133 -0.439388 0
M  V30 3776 H 357.221 4.03328 1.22084 0
M  V30 3777 H 355.945 2.84891 1.59702 0
M  V30 3778 H 354.604 3.64616 -0.380853 0
M  V30 3779 H 354.252 4.66758 1.87472 0
M  V30 3780 H 353.952 5.84785 0.574485 0
M  V30 3781 H 355.476 5.9178 1.50428 0
M  V30 3782 H 356.89 5.68307 -0.75499 0
M  V30 3783 H 355.287 5.80073 -1.53738 0
M  V30 3784 H 356.357 4.44504 -1.93764 0
M  V30 3785 N 357.7 0.491464 1.49741 0
M  V30 3786 C 358.928 -0.0535151 2.06831 0
M  V30 3787 C 359.343 -1.31683 1.35296 0
M  V30 3788 O 358.7 -1.77402 0.42836 0
M  V30 3789 C 358.751 -0.320835 3.60073 0
M  V30 3790 O 358.472 0.892394 4.28915 0
M  V30 3791 C 359.973 -0.910519 4.33848 0
M  V30 3792 H 357.193 0.0161909 0.670805 0
M  V30 3793 H 359.737 0.68609 1.92647 0
M  V30 3794 H 357.892 -1.0104 3.73991 0
M  V30 3795 H 358.306 0.649401 5.20464 0
M  V30 3796 H 359.78 -1.04721 5.41976 0
M  V30 3797 H 360.257 -1.90589 3.95692 0
M  V30 3798 H 360.863 -0.258712 4.24512 0
M  V30 3799 N 359.178 -1.55987 0.224894 0
M  V30 3800 C 360.427 -1.97566 -0.406273 0
M  V30 3801 C 360.74 -1.11569 -1.6066 0
M  V30 3802 O 361.946 -1.43062 -2.3075 0
M  V30 3803 C 360.402 -3.51474 -0.774207 0
M  V30 3804 C 360.01 -4.46179 0.403496 0
M  V30 3805 C 361.754 -4.01758 -1.37079 0
M  V30 3806 C 359.661 -5.91399 0.0129412 0
M  V30 3807 H 358.591 -0.737777 -0.155565 0
M  V30 3808 H 361.242 -1.80659 0.321635 0
M  V30 3809 H 359.624 -3.63994 -1.55963 0
M  V30 3810 H 360.798 -4.45409 1.18101 0
M  V30 3811 H 359.113 -4.06255 0.913536 0
M  V30 3812 H 361.71 -5.07756 -1.67596 0
M  V30 3813 H 362.053 -3.47805 -2.28773 0
M  V30 3814 H 362.586 -3.92475 -0.648733 0
M  V30 3815 H 359.325 -6.49341 0.896451 0
M  V30 3816 H 358.845 -5.95356 -0.728821 0
M  V30 3817 H 360.524 -6.45683 -0.412582 0
M  V30 3818 N 360.656 0.0484629 -1.57525 0
M  V30 3819 C 361.619 1.03956 -2.04269 0
M  V30 3820 C 362.619 1.30211 -0.943496 0
M  V30 3821 O 363.809 1.25539 -1.20771 0
M  V30 3822 C 360.941 2.37742 -2.44319 0
M  V30 3823 H 362.134 0.636182 -2.93075 0
M  V30 3824 H 359.687 0.294811 -1.53494 0
M  V30 3825 H 360.422 2.82866 -1.5861 0
M  V30 3826 H 360.207 2.20021 -3.24551 0
M  V30 3827 H 361.697 3.08936 -2.80978 0
M  V30 3828 N 362.134 1.5431 0.320358 0
M  V30 3829 C 363.545 1.63872 0.894594 0
M  V30 3830 C 363.896 0.534847 1.88769 0
M  V30 3831 O 363.021 -0.331732 2.13842 0
M  V30 3832 C 363.616 2.97049 1.62934 0
M  V30 3833 C 362.175 3.08796 2.15226 0
M  V30 3834 C 361.322 2.59456 0.978671 0
M  V30 3835 H 364.273 1.58398 0.0978544 0
M  V30 3836 H 364.294 2.87388 2.49376 0
M  V30 3837 H 363.806 3.7737 0.906302 0
M  V30 3838 H 361.907 2.33156 2.90636 0
M  V30 3839 H 362.02 4.14649 2.40006 0
M  V30 3840 H 360.384 2.1543 1.35875 0
M  V30 3841 H 361.167 3.42237 0.269895 0
M  V30 3842 N 363.613 -0.582584 1.46437 0
M  V30 3843 C 364.576 -1.67366 1.56592 0
M  V30 3844 C 365.576 -1.54575 0.443072 0
M  V30 3845 O 366.766 -1.59191 0.707381 0
M  V30 3846 C 363.898 -3.06791 1.48634 0
M  V30 3847 H 365.091 -1.5972 2.5383 0
M  V30 3848 H 362.644 -0.800432 1.34249 0
M  V30 3849 H 363.379 -3.19993 0.526763 0
M  V30 3850 H 363.164 -3.17484 2.30101 0
M  V30 3851 H 364.654 -3.86218 1.58826 0
M  V30 3852 N 365.091 -1.34144 -0.827227 0
M  V30 3853 C 366.021 -1.28005 -1.95287 0
M  V30 3854 C 367.002 -0.158321 -1.69362 0
M  V30 3855 O 368.187 -0.349987 -1.9102 0
M  V30 3856 C 365.317 -1.03036 -3.31664 0
M  V30 3857 C 364.271 -2.11628 -3.72019 0
M  V30 3858 C 363.597 -1.71854 -5.0633 0
M  V30 3859 C 364.897 -3.53417 -3.8457 0
M  V30 3860 H 366.591 -2.22187 -2.00682 0
M  V30 3861 H 364.137 -1.0696 -0.964135 0
M  V30 3862 H 366.09 -0.973863 -4.09993 0
M  V30 3863 H 364.814 -0.0529391 -3.26557 0
M  V30 3864 H 363.473 -2.16339 -2.95961 0
M  V30 3865 H 363.121 -0.727841 -4.97706 0
M  V30 3866 H 362.821 -2.44531 -5.34302 0
M  V30 3867 H 364.345 -1.67692 -5.87122 0
M  V30 3868 H 365.759 -3.51142 -4.5318 0
M  V30 3869 H 364.156 -4.24679 -4.2399 0
M  V30 3870 H 365.226 -3.91072 -2.86689 0
M  V30 3871 N 366.569 1.04691 -1.17803 0
M  V30 3872 C 367.499 2.14494 -0.92275 0
M  V30 3873 C 368.48 1.69546 0.137179 0
M  V30 3874 O 369.665 1.94195 -0.0141108 0
M  V30 3875 C 366.795 3.44491 -0.440803 0
M  V30 3876 C 365.749 4.03031 -1.4405 0
M  V30 3877 C 365.075 5.28432 -0.81631 0
M  V30 3878 C 366.375 4.39932 -2.81527 0
M  V30 3879 H 368.069 2.36107 -1.84103 0
M  V30 3880 H 365.615 1.1347 -0.886599 0
M  V30 3881 H 367.568 4.2066 -0.249602 0
M  V30 3882 H 366.292 3.22546 0.513025 0
M  V30 3883 H 364.951 3.28937 -1.61853 0
M  V30 3884 H 364.599 5.02792 0.144511 0
M  V30 3885 H 364.299 5.68559 -1.48371 0
M  V30 3886 H 365.823 6.07284 -0.635496 0
M  V30 3887 H 367.237 5.07113 -2.67412 0
M  V30 3888 H 365.634 4.9109 -3.44892 0
M  V30 3889 H 366.704 3.50045 -3.35554 0
M  V30 3890 N 368.047 0.979072 1.23499 0
M  V30 3891 C 368.994 0.517904 2.24914 0
M  V30 3892 C 369.964 -0.442525 1.60097 0
M  V30 3893 O 371.149 -0.350365 1.87556 0
M  V30 3894 C 368.289 -0.174813 3.44657 0
M  V30 3895 C 367.402 0.825721 4.24035 0
M  V30 3896 C 366.537 0.107946 5.3109 0
M  V30 3897 C 365.576 1.09778 6.02175 0
M  V30 3898 N 364.713 0.40925 7.00906 0
M  V30 3899 H 369.553 1.38751 2.63727 0
M  V30 3900 H 367.09 0.695303 1.2963 0
M  V30 3901 H 369.048 -0.593233 4.12961 0
M  V30 3902 H 367.678 -1.0083 3.06648 0
M  V30 3903 H 366.73 1.36253 3.55161 0
M  V30 3904 H 368.042 1.58005 4.73113 0
M  V30 3905 H 367.196 -0.367904 6.05583 0
M  V30 3906 H 365.935 -0.678994 4.8295 0
M  V30 3907 H 364.94 1.5844 5.26476 0
M  V30 3908 H 366.165 1.88536 6.52404 0
M  V30 3909 H 364.111 -0.358506 6.5502 0
M  V30 3910 H 364.028 1.10226 7.47921 0
M  V30 3911 H 365.296 -0.0442557 7.79487 0
M  V30 3912 N 369.525 -1.3858 0.750561 0
M  V30 3913 C 370.435 -2.34278 0.122825 0
M  V30 3914 C 371.451 -1.59116 -0.704131 0
M  V30 3915 O 372.627 -1.91326 -0.628987 0
M  V30 3916 C 369.692 -3.38221 -0.762086 0
M  V30 3917 C 368.753 -4.29227 0.078896 0
M  V30 3918 C 367.986 -5.28205 -0.763874 0
M  V30 3919 O 368.209 -5.34112 -2.00201 0
M  V30 3920 O 367.143 -6.01618 -0.18428 0
M  V30 3921 H 370.969 -2.89649 0.913088 0
M  V30 3922 H 368.554 -1.40374 0.511417 0
M  V30 3923 H 370.436 -4.01872 -1.26793 0
M  V30 3924 H 369.111 -2.85211 -1.5309 0
M  V30 3925 H 368.018 -3.68747 0.630621 0
M  V30 3926 H 369.351 -4.85484 0.810289 0
M  V30 3927 N 371.003 -0.499398 -1.49478 0
M  V30 3928 C 371.933 0.269244 -2.31943 0
M  V30 3929 C 372.914 0.964054 -1.40143 0
M  V30 3930 O 374.099 0.955767 -1.69052 0
M  V30 3931 C 371.229 1.33504 -3.20615 0
M  V30 3932 C 370.183 0.760202 -4.21195 0
M  V30 3933 C 369.509 1.9264 -4.98792 0
M  V30 3934 C 370.809 -0.247661 -5.21712 0
M  V30 3935 H 372.503 -0.419082 -2.96452 0
M  V30 3936 H 370.049 -0.202988 -1.42562 0
M  V30 3937 H 372.002 1.88048 -3.77115 0
M  V30 3938 H 370.726 2.05253 -2.54045 0
M  V30 3939 H 369.385 0.23653 -3.65836 0
M  V30 3940 H 369.033 2.63154 -4.28671 0
M  V30 3941 H 368.733 1.54785 -5.66847 0
M  V30 3942 H 370.257 2.4762 -5.58137 0
M  V30 3943 H 371.671 0.209579 -5.72917 0
M  V30 3944 H 370.068 -0.541962 -5.97648 0
M  V30 3945 H 371.138 -1.16409 -4.7072 0
M  V30 3946 N 372.481 1.55866 -0.233164 0
M  V30 3947 C 373.444 2.1953 0.658715 0
M  V30 3948 C 374.444 1.16053 1.11303 0
M  V30 3949 O 375.634 1.41218 1.01996 0
M  V30 3950 C 372.766 2.82791 1.90373 0
M  V30 3951 H 373.959 2.99721 0.10347 0
M  V30 3952 H 371.512 1.56291 0.0164245 0
M  V30 3953 H 372.247 2.06501 2.50056 0
M  V30 3954 H 372.032 3.58578 1.58632 0
M  V30 3955 H 373.522 3.31556 2.53891 0
M  V30 3956 N 373.959 -0.0401083 1.57549 0
M  V30 3957 C 374.869 -1.06133 2.0922 0
M  V30 3958 C 375.885 -1.40356 1.0284 0
M  V30 3959 O 377.061 -1.49897 1.34509 0
M  V30 3960 C 374.126 -2.34658 2.55218 0
M  V30 3961 C 373.187 -2.07117 3.76033 0
M  V30 3962 C 372.42 -3.29514 4.19829 0
M  V30 3963 O 372.643 -4.39794 3.63232 0
M  V30 3964 O 371.577 -3.15863 5.12362 0
M  V30 3965 H 375.403 -0.652244 2.96613 0
M  V30 3966 H 372.988 -0.256368 1.47184 0
M  V30 3967 H 374.87 -3.10239 2.85184 0
M  V30 3968 H 373.545 -2.74883 1.70941 0
M  V30 3969 H 372.452 -1.29139 3.51104 0
M  V30 3970 H 373.785 -1.71754 4.61261 0
M  V30 3971 N 375.437 -1.54477 -0.31217 0
M  V30 3972 C 376.662 -1.77526 -1.07235 0
M  V30 3973 C 377.087 -0.527775 -1.80544 0
M  V30 3974 O 376.445 0.52121 -1.73646 0
M  V30 3975 C 376.493 -2.97535 -2.03728 0
M  V30 3976 O 375.597 -2.69878 -3.11833 0
M  V30 3977 H 374.938 -0.58792 -0.30862 0
M  V30 3978 H 377.468 -2.01532 -0.352993 0
M  V30 3979 H 377.478 -3.25198 -2.46395 0
M  V30 3980 H 376.153 -3.87996 -1.49774 0
M  V30 3981 H 374.73 -2.53199 -2.7376 0
M  V30 3982 N 376.915 0.57481 -1.46744 0
M  V30 3983 C 377.825 1.711 -1.60505 0
M  V30 3984 C 378.841 1.67008 -0.488307 0
M  V30 3985 O 380.017 1.86774 -0.753495 0
M  V30 3986 C 377.082 3.07608 -1.59932 0
M  V30 3987 C 376.143 3.22904 -2.82898 0
M  V30 3988 C 375.376 4.529 -2.82343 0
M  V30 3989 O 375.599 5.37278 -1.91542 0
M  V30 3990 O 374.533 4.71611 -3.73987 0
M  V30 3991 H 378.359 1.62436 -2.56609 0
M  V30 3992 H 375.944 0.742779 -1.29627 0
M  V30 3993 H 377.826 3.88877 -1.62336 0
M  V30 3994 H 376.501 3.16692 -0.669898 0
M  V30 3995 H 375.408 2.41099 -2.86046 0
M  V30 3996 H 376.741 3.18715 -3.75076 0
M  V30 3997 N 378.394 1.34581 0.820102 0
M  V30 3998 C 379.642 1.26845 1.57336 0
M  V30 3999 C 379.963 -0.160667 1.94337 0
M  V30 4000 O 379.233 -1.09396 1.6251 0
M  V30 4001 H 377.813 0.466514 0.583415 0
M  V30 4002 H 380.475 1.68526 0.979027 0
M  V30 4003 H 379.571 1.87513 2.4949 0
M  V30 4004 N 379.872 -1.04064 1.18357 0
M  V30 4005 C 380.835 -2.10243 0.912707 0
M  V30 4006 C 381.835 -1.60477 -0.101928 0
M  V30 4007 O 383.025 -1.73703 0.131517 0
M  V30 4008 C 380.157 -3.38893 0.369387 0
M  V30 4009 H 381.35 -2.35706 1.85426 0
M  V30 4010 H 378.903 -1.20489 0.995594 0
M  V30 4011 H 379.638 -3.19094 -0.578776 0
M  V30 4012 H 379.423 -3.76331 1.1008 0
M  V30 4013 H 380.913 -4.17128 0.198575 0
M  V30 4014 N 381.35 -0.985608 -1.22978 0
M  V30 4015 C 382.599 -0.652881 -1.90841 0
M  V30 4016 C 382.912 0.817842 -1.77681 0
M  V30 4017 O 384.118 1.26185 -2.40395 0
M  V30 4018 C 382.574 -1.11717 -3.42122 0
M  V30 4019 C 382.182 -2.6126 -3.63933 0
M  V30 4020 C 383.926 -0.85843 -4.1573 0
M  V30 4021 C 381.833 -3.0133 -5.08876 0
M  V30 4022 H 380.763 -0.240491 -0.714619 0
M  V30 4023 H 383.414 -1.1942 -1.39324 0
M  V30 4024 H 381.796 -0.504027 -3.92779 0
M  V30 4025 H 382.97 -3.27858 -3.23799 0
M  V30 4026 H 381.285 -2.84937 -3.03644 0
M  V30 4027 H 383.882 -1.13359 -5.22546 0
M  V30 4028 H 384.225 0.205461 -4.15793 0
M  V30 4029 H 384.758 -1.43341 -3.71077 0
M  V30 4030 H 381.497 -4.06864 -5.13947 0
M  V30 4031 H 381.017 -2.3943 -5.49939 0
M  V30 4032 H 382.696 -2.92224 -5.77247 0
M  V30 4033 N 382.828 1.3818 -0.7579 0
M  V30 4034 C 383.738 2.3421 -0.135247 0
M  V30 4035 C 384.754 1.59487 0.695683 0
M  V30 4036 O 385.93 1.91657 0.618832 0
M  V30 4037 C 382.995 3.3862 0.744139 0
M  V30 4038 C 382.056 4.2918 -0.101658 0
M  V30 4039 C 381.289 5.28603 0.735851 0
M  V30 4040 O 381.512 5.35166 1.97366 0
M  V30 4041 O 380.446 6.01707 0.152372 0
M  V30 4042 H 384.272 2.8916 -0.928436 0
M  V30 4043 H 381.857 1.40101 -0.518855 0
M  V30 4044 H 383.739 4.02539 1.2466 0
M  V30 4045 H 382.414 2.86019 1.51575 0
M  V30 4046 H 381.321 3.68407 -0.650167 0
M  V30 4047 H 382.654 4.85048 -0.836024 0
M  V30 4048 N 384.306 0.507319 1.49211 0
M  V30 4049 C 385.722 0.163682 1.58758 0
M  V30 4050 C 385.922 -1.33208 1.51188 0
M  V30 4051 O 384.978 -2.10855 1.38911 0
M  V30 4052 C 386.291 0.746095 2.91297 0
M  V30 4053 C 387.839 0.712773 3.04776 0
M  V30 4054 C 388.314 1.27336 4.39943 0
M  V30 4055 N 389.805 1.23433 4.46451 0
M  V30 4056 C 390.54 1.63821 5.495 0
M  V30 4057 N 390.036 2.11832 6.5962 0
M  V30 4058 N 391.829 1.55198 5.4025 0
M  V30 4059 H 383.98 1.47972 1.52375 0
M  V30 4060 H 386.243 0.614147 0.722168 0
M  V30 4061 H 385.949 1.79534 3.02424 0
M  V30 4062 H 385.823 0.210137 3.76614 0
M  V30 4063 H 388.21 -0.327656 2.93275 0
M  V30 4064 H 388.291 1.28595 2.21127 0
M  V30 4065 H 387.935 2.3126 4.52196 0
M  V30 4066 H 387.865 0.676066 5.22242 0
M  V30 4067 H 390.356 0.882627 3.67448 0
M  V30 4068 H 390.669 2.40703 7.34358 0
M  V30 4069 H 389.014 2.1581 6.60644 0
M  V30 4070 H 392.205 1.17505 4.53112 0
M  V30 4071 H 392.378 1.86997 6.20432 0
M  V30 4072 N 385.784 -1.5574 0.241426 0
M  V30 4073 C 386.731 -2.21149 -0.660432 0
M  V30 4074 C 387.701 -1.17356 -1.17545 0
M  V30 4075 O 388.886 -1.45784 -1.23093 0
M  V30 4076 C 386.026 -2.91059 -1.85414 0
M  V30 4077 C 385.139 -4.09495 -1.37616 0
M  V30 4078 C 384.274 -4.67135 -2.529 0
M  V30 4079 C 383.313 -5.77831 -2.01936 0
M  V30 4080 N 382.45 -6.29677 -3.10566 0
M  V30 4081 H 387.29 -2.97845 -0.095955 0
M  V30 4082 H 384.827 -1.47057 -0.0356024 0
M  V30 4083 H 386.785 -3.29788 -2.5553 0
M  V30 4084 H 385.415 -2.16846 -2.39118 0
M  V30 4085 H 384.467 -3.76117 -0.569235 0
M  V30 4086 H 385.779 -4.89423 -0.962618 0
M  V30 4087 H 384.933 -5.08409 -3.31067 0
M  V30 4088 H 383.672 -3.86411 -2.97553 0
M  V30 4089 H 382.677 -5.36039 -1.22238 0
M  V30 4090 H 383.902 -6.60402 -1.58259 0
M  V30 4091 H 381.848 -5.5186 -3.54664 0
M  V30 4092 H 381.765 -7.04783 -2.73526 0
M  V30 4093 H 383.033 -6.75609 -3.88809 0
M  V30 4094 N 387.262 0.0317525 -1.57568 0
M  V30 4095 C 388.192 1.03274 -2.0942 0
M  V30 4096 C 389.173 1.3788 -0.996143 0
M  V30 4097 O 390.358 1.46811 -1.27122 0
M  V30 4098 C 387.488 2.33448 -2.57137 0
M  V30 4099 C 386.442 2.13091 -3.71182 0
M  V30 4100 C 385.768 3.49001 -4.05095 0
M  V30 4101 C 387.068 1.51928 -4.99715 0
M  V30 4102 H 388.762 0.60112 -2.93303 0
M  V30 4103 H 386.308 0.287705 -1.41097 0
M  V30 4104 H 388.261 3.03802 -2.92032 0
M  V30 4105 H 386.985 2.78665 -1.70333 0
M  V30 4106 H 385.644 1.45171 -3.36632 0
M  V30 4107 H 385.292 3.91862 -3.15362 0
M  V30 4108 H 384.992 3.36207 -4.81911 0
M  V30 4109 H 386.516 4.20721 -4.42522 0
M  V30 4110 H 387.93 2.12196 -5.32584 0
M  V30 4111 H 386.327 1.49716 -5.81124 0
M  V30 4112 H 387.397 0.484811 -4.8247 0
M  V30 4113 N 388.74 1.54641 0.303973 0
M  V30 4114 C 389.965 1.78092 1.06292 0
M  V30 4115 C 390.39 0.537342 1.80262 0
M  V30 4116 O 389.748 -0.511993 1.7392 0
M  V30 4117 C 389.796 2.98612 2.02147 0
M  V30 4118 O 388.9 2.71528 3.10397 0
M  V30 4119 H 388.241 0.589548 0.305497 0
M  V30 4120 H 390.771 2.01716 0.3423 0
M  V30 4121 H 390.781 3.265 2.44667 0
M  V30 4122 H 389.456 3.88785 1.47714 0
M  V30 4123 H 388.033 2.54648 2.72413 0
M  V30 4124 N 390.218 -0.567019 1.47046 0
M  V30 4125 C 391.448 -1.34831 1.56538 0
M  V30 4126 C 391.856 -1.8802 0.21101 0
M  V30 4127 O 391.199 -1.65152 -0.804387 0
M  V30 4128 C 391.261 -2.56139 2.52256 0
M  V30 4129 C 390.925 -2.24307 3.98165 0
M  V30 4130 C 391.922 -1.82192 4.86931 0
M  V30 4131 C 389.607 -2.35968 4.43423 0
M  V30 4132 C 391.601 -1.52153 6.18973 0
M  V30 4133 C 389.288 -2.05542 5.75496 0
M  V30 4134 C 390.286 -1.63701 6.63092 0
M  V30 4135 O 389.974 -1.33657 7.92711 0
M  V30 4136 H 389.706 -0.417683 0.531523 0
M  V30 4137 H 392.26 -0.694726 1.93294 0
M  V30 4138 H 390.49 -3.24356 2.10548 0
M  V30 4139 H 392.179 -3.18214 2.51982 0
M  V30 4140 H 392.945 -1.72684 4.53217 0
M  V30 4141 H 388.824 -2.67495 3.75456 0
M  V30 4142 H 392.368 -1.19421 6.87302 0
M  V30 4143 H 388.265 -2.14679 6.08755 0
M  V30 4144 H 389.033 -1.4737 8.05124 0
M  V30 4145 N 391.696 -1.35014 -0.812953 0
M  V30 4146 C 392.924 -1.31031 -1.6012 0
M  V30 4147 C 393.339 0.113558 -1.88458 0
M  V30 4148 O 392.696 1.06363 -1.48301 0
M  V30 4149 C 392.747 -2.10872 -2.93624 0
M  V30 4150 O 392.468 -3.47706 -2.66518 0
M  V30 4151 C 393.969 -2.14401 -3.88004 0
M  V30 4152 H 391.189 -0.45037 -0.497401 0
M  V30 4153 H 393.733 -1.77775 -1.01076 0
M  V30 4154 H 391.888 -1.67744 -3.492 0
M  V30 4155 H 392.302 -3.89097 -3.51715 0
M  V30 4156 H 393.776 -2.74669 -4.78812 0
M  V30 4157 H 394.253 -1.14105 -4.24119 0
M  V30 4158 H 394.859 -2.57662 -3.38364 0
M  V30 4159 N 393.175 1.03435 -1.18907 0
M  V30 4160 C 394.423 1.76394 -0.986382 0
M  V30 4161 C 394.744 1.88883 0.484567 0
M  V30 4162 O 394.014 1.41843 1.3512 0
M  V30 4163 H 392.594 0.65344 -0.361975 0
M  V30 4164 H 395.256 1.248 -1.49703 0
M  V30 4165 H 394.352 2.77424 -1.42978 0
M  V30 4166 N 394.653 0.992116 1.22453 0
M  V30 4167 C 395.563 0.55065 2.28046 0
M  V30 4168 C 396.579 -0.400189 1.69335 0
M  V30 4169 O 397.755 -0.267215 1.99619 0
M  V30 4170 C 394.82 -0.128496 3.46462 0
M  V30 4171 C 393.881 0.865208 4.20491 0
M  V30 4172 C 393.114 0.218377 5.33253 0
M  V30 4173 O 393.337 -0.987894 5.6178 0
M  V30 4174 O 392.271 0.922845 5.94783 0
M  V30 4175 H 396.097 1.4291 2.67975 0
M  V30 4176 H 393.682 0.760326 1.28606 0
M  V30 4177 H 395.564 -0.508947 4.18315 0
M  V30 4178 H 394.239 -0.981526 3.0846 0
M  V30 4179 H 393.146 1.29658 3.50913 0
M  V30 4180 H 394.479 1.68741 4.62371 0
M  V30 4181 N 396.131 -1.37776 0.765217 0
M  V30 4182 C 397.377 -2.00145 0.327072 0
M  V30 4183 C 397.71 -1.60607 -1.09175 0
M  V30 4184 O 396.985 -0.849127 -1.74986 0
M  V30 4185 C 397.268 -3.57109 0.46319 0
M  V30 4186 C 397.121 -4.06576 1.92395 0
M  V30 4187 C 398.44 -4.39888 -0.136473 0
M  V30 4188 H 395.559 -0.727113 0.120316 0
M  V30 4189 H 398.201 -1.63549 0.967039 0
M  V30 4190 H 396.351 -3.88414 -0.0816358 0
M  V30 4191 H 398.023 -3.85864 2.52798 0
M  V30 4192 H 396.266 -3.59011 2.43503 0
M  V30 4193 H 396.937 -5.15639 1.97028 0
M  V30 4194 H 399.413 -4.14803 0.328317 0
M  V30 4195 H 398.289 -5.48899 -0.0110582 0
M  V30 4196 H 398.55 -4.24758 -1.22608 0
M  V30 4197 N 397.609 -0.515225 -1.4894 0
M  V30 4198 C 398.556 0.255567 -2.29381 0
M  V30 4199 C 399.526 0.947387 -1.36432 0
M  V30 4200 O 400.711 0.951288 -1.65394 0
M  V30 4201 C 397.851 1.30551 -3.19453 0
M  V30 4202 C 396.964 0.624029 -4.27469 0
M  V30 4203 C 396.099 1.65563 -5.0474 0
M  V30 4204 C 395.138 0.956802 -6.04576 0
M  V30 4205 N 394.275 1.93326 -6.74959 0
M  V30 4206 H 399.115 -0.436607 -2.94784 0
M  V30 4207 H 396.652 -0.227154 -1.45336 0
M  V30 4208 H 398.61 1.92639 -3.70062 0
M  V30 4209 H 397.24 1.96626 -2.56004 0
M  V30 4210 H 396.292 -0.110459 -3.8024 0
M  V30 4211 H 397.604 0.0746092 -4.98744 0
M  V30 4212 H 396.758 2.35119 -5.59289 0
M  V30 4213 H 395.497 2.23893 -4.3327 0
M  V30 4214 H 394.502 0.247097 -5.49244 0
M  V30 4215 H 395.727 0.379814 -6.78037 0
M  V30 4216 H 393.673 2.50591 -6.06251 0
M  V30 4217 H 393.59 1.43489 -7.42258 0
M  V30 4218 H 394.858 2.62126 -7.34105 0
M  V30 4219 N 399.087 1.5561 -0.249682 0
M  V30 4220 C 400.05 2.20217 0.635394 0
M  V30 4221 C 401.05 1.17227 1.10066 0
M  V30 4222 O 402.24 1.42292 1.00492 0
M  V30 4223 C 399.372 2.84794 1.87363 0
M  V30 4224 H 400.565 2.99814 0.0716752 0
M  V30 4225 H 398.118 1.563 -0.000153234 0
M  V30 4226 H 398.853 2.09142 2.47851 0
M  V30 4227 H 398.638 3.60241 1.5482 0
M  V30 4228 H 400.128 3.3423 2.5036 0
M  V30 4229 N 400.565 -0.0233959 1.57583 0
M  V30 4230 C 401.981 -0.379134 1.55031 0
M  V30 4231 C 402.181 -1.76255 0.976548 0
M  V30 4232 O 401.237 -2.45266 0.600078 0
M  V30 4233 C 402.55 -0.275792 2.99433 0
M  V30 4234 C 404.098 -0.352458 3.11009 0
M  V30 4235 C 404.573 -0.278501 4.57152 0
M  V30 4236 N 406.064 -0.337123 4.61972 0
M  V30 4237 C 406.799 -0.302876 5.726 0
M  V30 4238 N 406.295 -0.220589 6.92449 0
M  V30 4239 N 408.088 -0.353023 5.6099 0
M  V30 4240 H 400.239 0.881869 1.93227 0
M  V30 4241 H 402.502 0.335867 0.886509 0
M  V30 4242 H 402.208 0.675108 3.4516 0
M  V30 4243 H 402.082 -1.06721 3.61788 0
M  V30 4244 H 404.469 -1.29379 2.65226 0
M  V30 4245 H 404.55 0.468409 2.51475 0
M  V30 4246 H 404.194 0.659189 5.03604 0
M  V30 4247 H 404.124 -1.11755 5.14605 0
M  V30 4248 H 406.615 -0.403002 3.75745 0
M  V30 4249 H 406.928 -0.199713 7.72542 0
M  V30 4250 H 405.273 -0.186555 6.9475 0
M  V30 4251 H 408.464 -0.415339 4.66254 0
M  V30 4252 H 408.637 -0.322866 6.47195 0
M  V30 4253 N 402.043 -1.548 -0.295768 0
M  V30 4254 C 403.454 -1.65274 -0.868411 0
M  V30 4255 C 403.805 -0.56481 -1.87894 0
M  V30 4256 O 402.93 0.29767 -2.14343 0
M  V30 4257 C 403.525 -2.99603 -1.58188 0
M  V30 4258 C 402.084 -3.12181 -2.10286 0
M  V30 4259 C 401.231 -2.6098 -0.93727 0
M  V30 4260 H 404.182 -1.58534 -0.0726422 0
M  V30 4261 H 404.203 -2.91319 -2.44772 0
M  V30 4262 H 403.715 -3.78764 -0.846151 0
M  V30 4263 H 401.816 -2.3775 -2.8689 0
M  V30 4264 H 401.929 -4.18415 -2.33379 0
M  V30 4265 H 400.293 -2.17564 -1.32431 0
M  V30 4266 H 401.076 -3.42623 -0.215414 0
M  V30 4267 N 403.521 0.559213 -1.47345 0
M  V30 4268 C 404.484 1.64854 -1.59235 0
M  V30 4269 C 405.484 1.53851 -0.467607 0
M  V30 4270 O 406.674 1.58045 -0.732617 0
M  V30 4271 C 403.806 3.04388 -1.53496 0
M  V30 4272 H 404.999 1.55662 -2.56339 0
M  V30 4273 H 402.552 0.778973 -1.35505 0
M  V30 4274 H 403.287 3.19115 -0.577604 0
M  V30 4275 H 403.072 3.13783 -2.35123 0
M  V30 4276 H 404.562 3.83642 -1.6495 0
M  V30 4277 N 404.999 1.35443 0.805782 0
M  V30 4278 C 406.415 1.15499 1.10146 0
M  V30 4279 C 406.615 -0.0319975 2.01475 0
M  V30 4280 O 405.671 -0.70236 2.42535 0
M  V30 4281 C 406.984 2.45833 1.73166 0
M  V30 4282 C 408.532 2.52047 1.85583 0
M  V30 4283 C 409.007 3.82427 2.52019 0
M  V30 4284 N 410.498 3.83682 2.59504 0
M  V30 4285 C 411.233 4.81294 3.11679 0
M  V30 4286 N 410.729 5.89294 3.64287 0
M  V30 4287 N 412.522 4.6873 3.1024 0
M  V30 4288 H 404.673 2.11469 0.198678 0
M  V30 4289 H 406.936 0.93594 0.150731 0
M  V30 4290 H 406.642 3.32874 1.13526 0
M  V30 4291 H 406.516 2.6044 2.72857 0
M  V30 4292 H 408.903 1.65435 2.44367 0
M  V30 4293 H 408.984 2.41354 0.847455 0
M  V30 4294 H 408.628 4.69437 1.93885 0
M  V30 4295 H 408.558 3.90409 3.53395 0
M  V30 4296 H 411.049 3.05648 2.22234 0
M  V30 4297 H 411.362 6.59768 4.02401 0
M  V30 4298 H 409.707 5.92985 3.62483 0
M  V30 4299 H 412.898 3.83496 2.68419 0
M  V30 4300 H 413.071 5.44965 3.50596 0
M  V30 4301 N 406.477 -1.02803 1.19454 0
M  V30 4302 C 407.726 -1.7562 0.991996 0
M  V30 4303 C 408.039 -1.89672 -0.477901 0
M  V30 4304 O 409.245 -2.59468 -0.799287 0
M  V30 4305 C 407.701 -3.15812 1.72601 0
M  V30 4306 C 407.309 -3.0981 3.23607 0
M  V30 4307 C 409.053 -3.92918 1.60674 0
M  V30 4308 C 406.96 -4.44939 3.89594 0
M  V30 4309 H 405.89 -0.658352 0.367543 0
M  V30 4310 H 408.541 -1.15044 1.42959 0
M  V30 4311 H 406.923 -3.7686 1.21624 0
M  V30 4312 H 408.097 -2.58138 3.81709 0
M  V30 4313 H 406.412 -2.46201 3.35819 0
M  V30 4314 H 409.009 -4.9287 2.07323 0
M  V30 4315 H 409.352 -4.12502 0.561025 0
M  V30 4316 H 409.885 -3.38472 2.09001 0
M  V30 4317 H 406.624 -4.30559 4.94267 0
M  V30 4318 H 406.144 -4.96664 3.36281 0
M  V30 4319 H 407.823 -5.1382 3.93189 0
M  V30 4320 N 407.956 -0.998596 -1.21925 0
M  V30 4321 C 409.184 -0.696286 -1.94832 0
M  V30 4322 C 409.599 0.740032 -1.73692 0
M  V30 4323 O 408.956 1.5 -1.03953 0
M  V30 4324 C 409.007 -0.999833 -3.47398 0
M  V30 4325 O 408.728 -2.37972 -3.67833 0
M  V30 4326 C 410.229 -0.716025 -4.37479 0
M  V30 4327 H 407.449 -0.257111 -0.619786 0
M  V30 4328 H 409.993 -1.33491 -1.54921 0
M  V30 4329 H 408.148 -0.406918 -3.85257 0
M  V30 4330 H 408.562 -2.48338 -4.61983 0
M  V30 4331 H 410.036 -0.978642 -5.43256 0
M  V30 4332 H 410.513 0.349968 -4.37803 0
M  V30 4333 H 411.119 -1.29025 -4.05256 0
M  V30 4334 N 409.434 1.37368 -0.772513 0
M  V30 4335 C 410.344 2.34053 -0.160081 0
M  V30 4336 C 411.36 1.60216 0.678728 0
M  V30 4337 O 412.536 1.92303 0.59847 0
M  V30 4338 C 409.601 3.3939 0.708182 0
M  V30 4339 C 408.662 4.29048 -0.147172 0
M  V30 4340 C 407.895 5.29354 0.679744 0
M  V30 4341 O 408.118 5.3723 1.91678 0
M  V30 4342 O 407.052 6.01835 0.0885444 0
M  V30 4343 H 410.878 2.88159 -0.959053 0
M  V30 4344 H 408.463 1.39543 -0.533685 0
M  V30 4345 H 410.345 4.03839 1.20384 0
M  V30 4346 H 409.02 2.8761 1.48533 0
M  V30 4347 H 407.927 3.67697 -0.689205 0
M  V30 4348 H 409.26 4.84134 -0.887423 0
M  V30 4349 N 410.912 0.523116 1.48665 0
M  V30 4350 C 412.137 -0.0117284 2.07397 0
M  V30 4351 C 412.562 -1.28031 1.37803 0
M  V30 4352 O 411.92 -1.75836 0.441762 0
M  V30 4353 C 411.968 -0.225786 3.59892 0
M  V30 4354 O 411.072 -1.29592 3.91509 0
M  V30 4355 H 410.413 0.0360673 0.66302 0
M  V30 4356 H 412.943 0.729066 1.9117 0
M  V30 4357 H 412.953 -0.450552 4.05505 0
M  V30 4358 H 411.628 0.700944 4.09951 0
M  V30 4359 H 410.205 -1.05436 3.57684 0
M  V30 4360 N 412.39 -1.55475 0.257931 0
M  V30 4361 C 413.3 -2.2549 -0.647425 0
M  V30 4362 C 414.316 -1.2748 -1.18427 0
M  V30 4363 O 415.492 -1.6038 -1.2182 0
M  V30 4364 C 412.557 -2.94916 -1.82278 0
M  V30 4365 C 411.618 -4.08363 -1.32432 0
M  V30 4366 C 410.851 -4.74469 -2.44366 0
M  V30 4367 O 411.074 -4.39701 -3.63344 0
M  V30 4368 O 410.008 -5.62763 -2.13497 0
M  V30 4369 H 413.834 -3.03593 -0.0807707 0
M  V30 4370 H 411.419 -1.49377 0.0259962 0
M  V30 4371 H 413.301 -3.38606 -2.50846 0
M  V30 4372 H 411.976 -2.19744 -2.37685 0
M  V30 4373 H 410.883 -3.69166 -0.605605 0
M  V30 4374 H 412.216 -4.85385 -0.816211 0
M  V30 4375 N 413.868 0.0150385 -1.57593 0
M  V30 4376 C 415.115 0.703001 -1.89906 0
M  V30 4377 C 415.443 1.74604 -0.856944 0
M  V30 4378 O 414.698 1.95197 0.140287 0
M  V30 4379 C 414.997 1.39686 -3.28972 0
M  V30 4380 C 414.663 0.488457 -4.48246 0
M  V30 4381 C 413.325 0.2383 -4.8061 0
M  V30 4382 C 415.677 -0.137881 -5.21018 0
M  V30 4383 C 413.005 -0.646738 -5.83125 0
M  V30 4384 C 415.357 -1.0107 -6.24474 0
M  V30 4385 C 414.021 -1.27019 -6.55303 0
M  V30 4386 H 413.291 0.257246 -0.694914 0
M  V30 4387 H 415.938 -0.037259 -1.91464 0
M  V30 4388 H 414.243 2.21079 -3.23468 0
M  V30 4389 H 415.94 1.93495 -3.51227 0
M  V30 4390 H 412.53 0.693593 -4.22951 0
M  V30 4391 H 416.714 0.0423953 -4.96282 0
M  V30 4392 H 411.97 -0.855937 -6.05379 0
M  V30 4393 H 416.144 -1.50247 -6.79999 0
M  V30 4394 H 413.771 -1.95769 -7.3456 0
M  V30 4395 N 415.346 1.54954 0.287554 0
M  V30 4396 C 416.276 1.89839 1.35954 0
M  V30 4397 C 417.257 0.758675 1.52244 0
M  V30 4398 O 418.442 1.01557 1.65529 0
M  V30 4399 C 415.572 2.15753 2.72154 0
M  V30 4400 C 414.526 3.3159 2.70614 0
M  V30 4401 C 413.852 3.42952 4.10229 0
M  V30 4402 C 415.152 4.68359 2.31165 0
M  V30 4403 H 416.846 2.79625 1.07007 0
M  V30 4404 H 414.392 1.3454 0.513316 0
M  V30 4405 H 416.345 2.38743 3.47246 0
M  V30 4406 H 415.069 1.22752 3.02654 0
M  V30 4407 H 413.728 3.08545 1.97979 0
M  V30 4408 H 413.376 2.47443 4.37928 0
M  V30 4409 H 413.076 4.20826 4.10097 0
M  V30 4410 H 414.6 3.68218 4.87081 0
M  V30 4411 H 416.014 4.9099 2.95976 0
M  V30 4412 H 414.411 5.49044 2.42221 0
M  V30 4413 H 415.481 4.68165 1.26291 0
M  V30 4414 N 416.824 -0.551391 1.4764 0
M  V30 4415 C 418.07 -1.30789 1.55774 0
M  V30 4416 C 418.425 -1.91143 0.219562 0
M  V30 4417 O 417.718 -1.7521 -0.775375 0
M  V30 4418 C 417.912 -2.43469 2.61644 0
M  V30 4419 C 417.741 -1.94157 4.05627 0
M  V30 4420 C 416.511 -1.77734 4.7301 0
M  V30 4421 C 418.709 -1.48262 4.92466 0
M  V30 4422 N 416.691 -1.22823 6.01488 0
M  V30 4423 C 418.062 -1.05156 6.11017 0
M  V30 4424 C 420.117 -1.36367 4.78862 0
M  V30 4425 C 418.82 -0.513357 7.17466 0
M  V30 4426 C 420.846 -0.839484 5.85411 0
M  V30 4427 C 420.208 -0.418377 7.03156 0
M  V30 4428 H 416.307 -0.470406 0.624694 0
M  V30 4429 H 418.891 -0.624331 1.84419 0
M  V30 4430 H 417.062 -3.09348 2.34859 0
M  V30 4431 H 418.794 -3.10477 2.59589 0
M  V30 4432 H 415.549 -2.00623 4.29007 0
M  V30 4433 H 415.973 -0.974393 6.69951 0
M  V30 4434 H 420.615 -1.67535 3.88191 0
M  V30 4435 H 418.333 -0.189318 8.07878 0
M  V30 4436 H 421.919 -0.750921 5.76934 0
M  V30 4437 H 420.799 -0.0190538 7.84198 0
M  V30 4438 N 418.302 -1.35869 -0.798587 0
M  V30 4439 C 419.234 -1.25305 -1.91915 0
M  V30 4440 C 420.247 -0.174548 -1.61862 0
M  V30 4441 O 421.436 -0.428499 -1.73281 0
M  V30 4442 C 418.536 -0.9086 -3.26493 0
M  V30 4443 C 417.709 -2.08711 -3.84394 0
M  V30 4444 C 416.768 -1.71717 -4.97393 0
M  V30 4445 O 415.794 -2.43692 -5.14396 0
M  V30 4446 N 416.996 -0.645473 -5.769 0
M  V30 4447 H 419.761 -2.21849 -2.01502 0
M  V30 4448 H 417.322 -1.29143 -0.976408 0
M  V30 4449 H 419.314 -0.642455 -3.99568 0
M  V30 4450 H 417.884 -0.0325815 -3.12583 0
M  V30 4451 H 417.104 -2.51659 -3.03416 0
M  V30 4452 H 418.392 -2.87468 -4.19809 0
M  V30 4453 H 417.79 -0.047648 -5.6568 0
M  V30 4454 H 416.347 -0.43913 -6.50319 0
M  V30 4455 N 419.78 1.02168 -1.19998 0
M  V30 4456 C 420.73 2.08969 -0.911921 0
M  V30 4457 C 421.714 1.60404 0.12621 0
M  V30 4458 O 422.906 1.76817 -0.0804706 0
M  V30 4459 C 420.035 3.402 -0.460277 0
M  V30 4460 C 419.121 3.9548 -1.53155 0
M  V30 4461 N 419.512 4.24332 -2.75275 0
M  V30 4462 C 417.81 4.23572 -1.39653 0
M  V30 4463 C 418.511 4.68834 -3.44339 0
M  V30 4464 N 417.487 4.70804 -2.71744 0
M  V30 4465 H 421.289 2.29178 -1.83997 0
M  V30 4466 H 418.803 1.20094 -1.09322 0
M  V30 4467 H 420.8 4.16235 -0.235337 0
M  V30 4468 H 419.46 3.21408 0.4612 0
M  V30 4469 H 420.471 4.13393 -3.11973 0
M  V30 4470 H 417.148 4.14005 -0.539067 0
M  V30 4471 H 418.538 5.00019 -4.4881 0
M  V30 4472 N 421.258 1.00505 1.21394 0
M  V30 4473 C 422.206 0.558623 2.25792 0
M  V30 4474 C 423.2 -0.396848 1.64686 0
M  V30 4475 O 424.406 -0.268035 1.77993 0
M  V30 4476 H 420.781 0.1623 0.734277 0
M  V30 4477 H 422.752 1.4503 2.60785 0
M  V30 4478 C 421.501 -0.0989574 3.47559 0
M  V30 4479 H 420.824 0.627225 3.94849 0
M  V30 4480 H 422.264 -0.3746 4.22342 0
M  V30 4481 C 420.723 -1.33817 3.09184 0
M  V30 4482 O 421.253 -2.43252 3.19674 0
M  V30 4483 N 419.459 -1.21793 2.63846 0
M  V30 4484 H 419.006 -0.32746 2.5551 0
M  V30 4485 H 418.964 -2.04809 2.38539 0
M  V30 4486 N 422.737 -1.36956 0.779787 0
M  V30 4487 C 423.669 -2.28833 0.129639 0
M  V30 4488 C 424.682 -1.4902 -0.655511 0
M  V30 4489 O 425.871 -1.71578 -0.492279 0
M  V30 4490 C 422.971 -3.2833 -0.839792 0
M  V30 4491 C 422.144 -4.3727 -0.10675 0
M  V30 4492 C 421.203 -5.16789 -0.990717 0
M  V30 4493 O 420.229 -5.67406 -0.451516 0
M  V30 4494 N 421.431 -5.32294 -2.3161 0
M  V30 4495 H 424.196 -2.85268 0.918803 0
M  V30 4496 H 421.757 -1.49019 0.632841 0
M  V30 4497 H 423.749 -3.78413 -1.43477 0
M  V30 4498 H 422.319 -2.72605 -1.52988 0
M  V30 4499 H 421.539 -3.88478 0.669216 0
M  V30 4500 H 422.827 -5.07229 0.399464 0
M  V30 4501 H 422.225 -4.92768 -2.77843 0
M  V30 4502 H 420.782 -5.85656 -2.86095 0
M  V30 4503 N 424.215 -0.530993 -1.48385 0
M  V30 4504 C 425.492 0.0671788 -1.95485 0
M  V30 4505 C 425.872 1.51191 -1.47324 0
M  V30 4506 O 425.22 2.17507 -0.700202 0
M  V30 4507 C 425.43 -0.0511206 -3.48963 0
M  V30 4508 C 426.778 0.107632 -4.24464 0
M  V30 4509 O 427.802 0.0226248 -3.56193 0
M  V30 4510 O 426.661 0.285972 -5.45751 0
M  V30 4511 H 423.755 0.0787365 -0.823243 0
M  V30 4512 H 426.301 -0.595662 -1.58902 0
M  V30 4513 H 425.073 -1.05747 -3.7674 0
M  V30 4514 H 424.696 0.650525 -3.92242 0
M  V30 4515 N 425.693 1.55336 -0.266172 0
M  V30 4516 C 427.104 1.85236 0.233315 0
M  V30 4517 C 427.455 1.18816 1.56132 0
M  V30 4518 O 426.58 0.473307 2.11161 0
M  V30 4519 C 427.175 3.36059 0.430113 0
M  V30 4520 C 425.734 3.66116 0.873842 0
M  V30 4521 C 424.881 2.77274 -0.0380016 0
M  V30 4522 H 427.832 1.51004 -0.488214 0
M  V30 4523 H 427.853 3.58681 1.26998 0
M  V30 4524 H 427.365 3.84373 -0.536588 0
M  V30 4525 H 425.466 3.23295 1.85233 0
M  V30 4526 H 425.579 4.73699 0.717358 0
M  V30 4527 H 423.943 2.50198 0.476759 0
M  V30 4528 H 424.726 3.284 -1.00042 0
M  V30 4529 N 427.171 -0.0066808 1.57599 0
M  V30 4530 C 428.104 -1.03397 2.03431 0
M  V30 4531 C 429.082 -1.33872 0.922877 0
M  V30 4532 O 430.266 -1.4615 1.19048 0
M  V30 4533 C 427.393 -2.36325 2.42628 0
M  V30 4534 C 426.439 -2.21557 3.64438 0
M  V30 4535 S 427.272 -1.54789 5.12641 0
M  V30 4536 C 428.428 -2.8916 5.55101 0
M  V30 4537 H 428.661 -0.643687 2.90248 0
M  V30 4538 H 426.194 -0.217349 1.52863 0
M  V30 4539 H 428.152 -3.12759 2.65879 0
M  V30 4540 H 426.813 -2.72495 1.56222 0
M  V30 4541 H 426.006 -3.1974 3.89592 0
M  V30 4542 H 425.608 -1.53267 3.41153 0
M  V30 4543 H 427.9 -3.8547 5.57153 0
M  V30 4544 H 428.843 -2.68713 6.55133 0
M  V30 4545 H 429.251 -2.92762 4.82649 0
M  V30 4546 N 428.649 -1.55105 -0.279332 0
M  V30 4547 C 429.612 -1.86783 -1.32834 0
M  V30 4548 C 430.612 -0.74199 -1.42657 0
M  V30 4549 O 431.802 -1.0102 -1.41918 0
M  V30 4550 C 428.934 -2.06746 -2.71052 0
M  V30 4551 H 430.127 -2.8055 -1.05979 0
M  V30 4552 H 427.68 -1.47499 -0.517087 0
M  V30 4553 H 428.415 -1.15339 -3.03097 0
M  V30 4554 H 428.2 -2.88711 -2.65309 0
M  V30 4555 H 429.69 -2.32549 -3.46858 0
M  V30 4556 N 430.127 0.543554 -1.4793 0
M  V30 4557 C 431.373 1.30201 -1.55485 0
M  V30 4558 C 431.706 1.92925 -0.222201 0
M  V30 4559 O 430.981 1.78586 0.77053 0
M  V30 4560 C 431.264 2.40174 -2.68307 0
M  V30 4561 C 431.117 1.8223 -4.11233 0
M  V30 4562 C 432.436 3.42024 -2.76961 0
M  V30 4563 H 429.555 0.472036 -0.565996 0
M  V30 4564 H 432.197 0.606914 -1.80046 0
M  V30 4565 H 430.347 2.99463 -2.47495 0
M  V30 4566 H 432.019 1.27096 -4.43446 0
M  V30 4567 H 430.262 1.12832 -4.18869 0
M  V30 4568 H 430.933 2.61793 -4.85972 0
M  V30 4569 H 433.409 2.92672 -2.95774 0
M  V30 4570 H 432.285 4.16383 -3.57654 0
M  V30 4571 H 432.546 4.0173 -1.84568 0
M  V30 4572 N 431.605 1.3629 0.791371 0
M  V30 4573 C 432.882 1.20962 1.53712 0
M  V30 4574 C 433.262 -0.205021 2.10102 0
M  V30 4575 O 432.61 -1.21042 1.93807 0
M  V30 4576 C 432.82 2.29002 2.63361 0
M  V30 4577 C 434.168 2.65572 3.31295 0
M  V30 4578 O 435.192 2.2803 2.73643 0
M  V30 4579 O 434.051 3.3018 4.35481 0
M  V30 4580 H 431.145 0.47086 0.679867 0
M  V30 4581 H 433.691 1.48016 0.830021 0
M  V30 4582 H 432.463 3.2382 2.19674 0
M  V30 4583 H 432.086 2.03303 3.41692 0
M  V30 4584 N 433.083 -1.0153 1.20538 0
M  V30 4585 C 434.03 -2.10098 0.955383 0
M  V30 4586 C 435 -1.65702 -0.114878 0
M  V30 4587 O 436.185 -1.90776 0.0301118 0
M  V30 4588 C 433.325 -3.41236 0.514969 0
M  V30 4589 C 432.438 -3.99102 1.65353 0
M  V30 4590 C 431.573 -5.18306 1.16329 0
M  V30 4591 C 430.612 -5.68258 2.27485 0
M  V30 4592 N 429.749 -6.78722 1.7967 0
M  V30 4593 H 434.589 -2.30818 1.88486 0
M  V30 4594 H 432.126 -1.13189 0.939499 0
M  V30 4595 H 434.084 -4.16504 0.240935 0
M  V30 4596 H 432.714 -3.20585 -0.377512 0
M  V30 4597 H 431.766 -3.20918 2.04245 0
M  V30 4598 H 433.078 -4.32177 2.49047 0
M  V30 4599 H 432.232 -6.00782 0.845302 0
M  V30 4600 H 430.971 -4.86799 0.296254 0
M  V30 4601 H 429.976 -4.84385 2.60099 0
M  V30 4602 H 431.201 -6.01798 3.14667 0
M  V30 4603 H 429.147 -6.49042 0.95295 0
M  V30 4604 H 429.064 -7.10996 2.56944 0
M  V30 4605 H 430.332 -7.64759 1.50875 0
M  V30 4606 N 434.561 -1.01147 -1.20859 0
M  V30 4607 C 435.491 -0.597663 -2.25722 0
M  V30 4608 C 436.472 0.384744 -1.65692 0
M  V30 4609 O 437.657 0.271303 -1.92296 0
M  V30 4610 C 434.787 0.0700149 -3.47229 0
M  V30 4611 C 433.741 -0.832843 -4.19819 0
M  V30 4612 C 433.067 -0.0312202 -5.34691 0
M  V30 4613 C 434.367 -2.1385 -4.76514 0
M  V30 4614 H 436.061 -1.47423 -2.60589 0
M  V30 4615 H 433.607 -0.710301 -1.25263 0
M  V30 4616 H 435.56 0.37103 -4.19763 0
M  V30 4617 H 434.284 0.981259 -3.11511 0
M  V30 4618 H 432.943 -1.11778 -3.49144 0
M  V30 4619 H 432.591 0.881515 -4.95215 0
M  V30 4620 H 432.291 -0.632434 -5.84187 0
M  V30 4621 H 433.815 0.26346 -6.10031 0
M  V30 4622 H 435.229 -1.9002 -5.40893 0
M  V30 4623 H 433.626 -2.69012 -5.36426 0
M  V30 4624 H 434.696 -2.80495 -3.95538 0
M  V30 4625 N 436.039 1.36541 -0.78704 0
M  V30 4626 C 437.002 2.28413 -0.189778 0
M  V30 4627 C 438.002 1.48719 0.611499 0
M  V30 4628 O 439.192 1.68737 0.432842 0
M  V30 4629 C 436.324 3.32824 0.737638 0
M  V30 4630 H 437.517 2.82743 -0.999831 0
M  V30 4631 H 435.07 1.46065 -0.556298 0
M  V30 4632 H 435.805 2.83646 1.57212 0
M  V30 4633 H 435.59 3.91752 0.165044 0
M  V30 4634 H 437.08 4.0144 1.15047 0
M  V30 4635 N 437.518 0.538854 1.48102 0
M  V30 4636 C 438.428 -0.222648 2.33541 0
M  V30 4637 C 439.444 -0.930225 1.47047 0
M  V30 4638 O 440.62 -0.903211 1.80011 0
M  V30 4639 C 437.685 -1.25064 3.23357 0
M  V30 4640 C 436.746 -0.552469 4.2573 0
M  V30 4641 C 435.979 -1.53149 5.11254 0
M  V30 4642 O 436.202 -2.76487 4.9891 0
M  V30 4643 O 435.136 -1.06602 5.92385 0
M  V30 4644 H 438.962 0.477707 2.99919 0
M  V30 4645 H 436.547 0.299669 1.46364 0
M  V30 4646 H 438.429 -1.8445 3.78888 0
M  V30 4647 H 437.104 -1.93325 2.59629 0
M  V30 4648 H 436.011 0.082114 3.7401 0
M  V30 4649 H 437.344 0.0883526 4.92121 0
M  V30 4650 N 438.996 -1.55193 0.274407 0
M  V30 4651 C 440.244 -1.99187 -0.341902 0
M  V30 4652 C 440.565 -1.16422 -1.56431 0
M  V30 4653 O 439.835 -0.253573 -1.94252 0
M  V30 4654 H 438.415 -0.735721 -0.129317 0
M  V30 4655 H 441.077 -1.91168 0.379578 0
M  V30 4656 H 440.173 -3.05629 -0.632253 0
M  V30 4657 N 440.474 -0.00167713 -1.576 0
M  V30 4658 C 441.723 0.682021 -1.89819 0
M  V30 4659 C 442.036 1.74844 -0.876871 0
M  V30 4660 O 443.242 2.48688 -1.08934 0
M  V30 4661 C 441.698 1.26425 -3.36964 0
M  V30 4662 C 441.306 0.232568 -4.47396 0
M  V30 4663 C 443.05 1.92604 -3.78291 0
M  V30 4664 C 440.957 0.824882 -5.85619 0
M  V30 4665 H 439.887 0.258499 -0.708304 0
M  V30 4666 H 442.538 -0.0624957 -1.83394 0
M  V30 4667 H 440.92 2.05949 -3.38232 0
M  V30 4668 H 442.094 -0.5382 -4.57646 0
M  V30 4669 H 440.409 -0.32888 -4.15099 0
M  V30 4670 H 443.006 2.37827 -4.78897 0
M  V30 4671 H 443.349 2.75732 -3.11894 0
M  V30 4672 H 443.882 1.19812 -3.79328 0
M  V30 4673 H 440.621 0.0323542 -6.55492 0
M  V30 4674 H 440.141 1.56477 -5.79029 0
M  V30 4675 H 441.82 1.32301 -6.33329 0
M  V30 4676 N 441.952 1.55251 0.271103 0
M  V30 4677 C 443.368 1.47133 0.618393 0
M  V30 4678 C 443.568 0.686994 1.89427 0
M  V30 4679 O 442.624 0.206609 2.51653 0
M  V30 4680 C 443.937 2.91361 0.743593 0
M  V30 4681 C 445.485 3.01587 0.837522 0
M  V30 4682 C 445.96 4.47073 0.994483 0
M  V30 4683 N 447.451 4.50909 1.05996 0
M  V30 4684 C 448.186 5.60698 1.20024 0
M  V30 4685 N 447.682 6.80348 1.30759 0
M  V30 4686 N 449.475 5.48444 1.23149 0
M  V30 4687 H 441.626 2.04698 -0.566784 0
M  V30 4688 H 443.889 0.928319 -0.192165 0
M  V30 4689 H 443.595 3.51483 -0.123493 0
M  V30 4690 H 443.469 3.40484 1.62328 0
M  V30 4691 H 445.856 2.4156 1.69507 0
M  V30 4692 H 445.937 2.55713 -0.0668086 0
M  V30 4693 H 445.581 5.07703 0.141582 0
M  V30 4694 H 445.511 4.90605 1.91349 0
M  V30 4695 H 448.002 3.6472 0.989316 0
M  V30 4696 H 448.315 7.59772 1.41303 0
M  V30 4697 H 446.66 6.83156 1.27761 0
M  V30 4698 H 449.851 4.53907 1.14394 0
M  V30 4699 H 450.024 6.34049 1.33738 0
M  V30 4700 N 443.43 -0.535701 1.48216 0
M  V30 4701 C 444.377 -1.64083 1.62312 0
M  V30 4702 C 445.347 -1.59448 0.465365 0
M  V30 4703 O 446.532 -1.77959 0.688135 0
M  V30 4704 C 443.672 -3.0236 1.66349 0
M  V30 4705 C 442.785 -3.17273 2.93193 0
M  V30 4706 C 441.92 -4.46075 2.88427 0
M  V30 4707 C 440.959 -4.54496 4.1 0
M  V30 4708 N 440.096 -5.7468 4.03345 0
M  V30 4709 H 444.936 -1.51374 2.5669 0
M  V30 4710 H 442.473 -0.737059 1.27302 0
M  V30 4711 H 444.431 -3.82461 1.66672 0
M  V30 4712 H 443.061 -3.13854 0.754672 0
M  V30 4713 H 442.113 -2.30462 3.02641 0
M  V30 4714 H 443.425 -3.19357 3.83162 0
M  V30 4715 H 442.579 -5.3446 2.87119 0
M  V30 4716 H 441.318 -4.46504 1.96177 0
M  V30 4717 H 440.323 -3.64519 4.11589 0
M  V30 4718 H 441.548 -4.5581 5.03402 0
M  V30 4719 H 439.494 -5.76017 3.13912 0
M  V30 4720 H 439.411 -5.78234 4.87013 0
M  V30 4721 H 440.679 -6.65367 4.06087 0
M  V30 4722 N 444.908 -1.36708 -0.784132 0
M  V30 4723 C 446.155 -1.31231 -1.54222 0
M  V30 4724 C 446.483 0.106864 -1.94206 0
M  V30 4725 O 445.738 1.07734 -1.63376 0
M  V30 4726 C 446.037 -2.18571 -2.82774 0
M  V30 4727 C 445.703 -3.67039 -2.61903 0
M  V30 4728 C 444.365 -4.07503 -2.55919 0
M  V30 4729 C 446.717 -4.61149 -2.4288 0
M  V30 4730 C 444.045 -5.40211 -2.28886 0
M  V30 4731 C 446.397 -5.94081 -2.17373 0
M  V30 4732 C 445.061 -6.33664 -2.09825 0
M  V30 4733 H 444.331 -0.48021 -0.56434 0
M  V30 4734 H 446.978 -1.68807 -0.904233 0
M  V30 4735 H 445.283 -1.73949 -3.51068 0
M  V30 4736 H 446.98 -2.11655 -3.40592 0
M  V30 4737 H 443.57 -3.34941 -2.67418 0
M  V30 4738 H 447.754 -4.30756 -2.46501 0
M  V30 4739 H 443.01 -5.69855 -2.21529 0
M  V30 4740 H 447.184 -6.66566 -2.01649 0
M  V30 4741 H 444.811 -7.36423 -1.88641 0
M  V30 4742 N 446.386 1.0089 -1.21074 0
M  V30 4743 C 447.349 2.0775 -0.968129 0
M  V30 4744 C 448.349 1.6069 0.0593445 0
M  V30 4745 O 449.539 1.73293 -0.177525 0
M  V30 4746 C 446.671 3.37794 -0.459108 0
M  V30 4747 H 447.864 2.30707 -1.9161 0
M  V30 4748 H 445.417 1.17807 -1.02719 0
M  V30 4749 H 446.152 3.20516 0.49397 0
M  V30 4750 H 445.937 3.7328 -1.20019 0
M  V30 4751 H 447.427 4.16454 -0.309099 0
M  V30 4752 N 447.864 1.01787 1.20321 0
M  V30 4753 C 449.113 0.703249 1.89043 0
M  V30 4754 C 449.426 -0.770445 1.79787 0
M  V30 4755 O 450.632 -1.19767 2.43656 0
M  V30 4756 C 449.088 1.20749 3.3904 0
M  V30 4757 C 448.696 2.70817 3.56878 0
M  V30 4758 C 450.44 0.968352 4.13308 0
M  V30 4759 C 448.347 3.14716 5.00708 0
M  V30 4760 H 447.277 0.259354 0.707991 0
M  V30 4761 H 449.928 1.23072 1.36108 0
M  V30 4762 H 448.31 0.607989 3.91305 0
M  V30 4763 H 449.484 3.36327 3.14993 0
M  V30 4764 H 447.799 2.92888 2.95983 0
M  V30 4765 H 450.396 1.27173 5.19356 0
M  V30 4766 H 450.739 -0.095149 4.16191 0
M  V30 4767 H 451.272 1.53129 3.67146 0
M  V30 4768 H 448.011 4.20347 5.02979 0
M  V30 4769 H 447.531 2.53927 5.43398 0
M  V30 4770 H 449.21 3.07426 5.69296 0
M  V30 4771 N 449.342 -1.36122 0.79427 0
M  V30 4772 C 450.619 -1.93398 0.292685 0
M  V30 4773 C 450.999 -1.72567 -1.21589 0
M  V30 4774 O 450.347 -1.08745 -2.00965 0
M  V30 4775 C 450.557 -3.42099 0.690614 0
M  V30 4776 C 451.905 -4.19231 0.673105 0
M  V30 4777 O 452.929 -3.50559 0.631389 0
M  V30 4778 O 451.788 -5.41732 0.720362 0
M  V30 4779 H 448.882 -0.823712 0.0736693 0
M  V30 4780 H 451.428 -1.45273 0.87714 0
M  V30 4781 H 450.2 -3.50938 1.73085 0
M  V30 4782 H 449.823 -3.97519 0.0803036 0
M  V30 4783 N 450.82 -0.546701 -1.47814 0
M  V30 4784 C 451.752 0.244196 -2.27895 0
M  V30 4785 C 452.765 0.88911 -1.36377 0
M  V30 4786 O 453.954 0.764733 -1.61289 0
M  V30 4787 C 451.054 1.36252 -3.10304 0
M  V30 4788 C 450.227 0.816382 -4.29714 0
M  V30 4789 C 449.286 1.81789 -4.93801 0
M  V30 4790 O 448.312 1.36818 -5.52512 0
M  V30 4791 N 449.514 3.15085 -4.87547 0
M  V30 4792 H 452.279 -0.442694 -2.96412 0
M  V30 4793 H 449.84 -0.382095 -1.57327 0
M  V30 4794 H 451.832 2.03102 -3.50045 0
M  V30 4795 H 450.402 1.95281 -2.44099 0
M  V30 4796 H 449.622 -0.0285981 -3.9419 0
M  V30 4797 H 450.91 0.430668 -5.06974 0
M  V30 4798 H 450.308 3.54275 -4.41028 0
M  V30 4799 H 448.865 3.77522 -5.31339 0
M  V30 4800 N 452.299 1.55045 -0.282633 0
M  V30 4801 C 453.209 2.26491 0.61147 0
M  V30 4802 C 454.225 1.29348 1.16384 0
M  V30 4803 O 455.401 1.62298 1.19253 0
M  V30 4804 C 452.466 2.97779 1.77563 0
M  V30 4805 C 451.527 4.10418 1.25919 0
M  V30 4806 C 450.76 4.78297 2.36786 0
M  V30 4807 O 450.983 4.45426 3.56303 0
M  V30 4808 O 449.917 5.66089 2.04517 0
M  V30 4809 H 453.743 3.03683 0.0324615 0
M  V30 4810 H 451.328 1.49317 -0.0497576 0
M  V30 4811 H 453.21 3.42554 2.45427 0
M  V30 4812 H 451.885 2.23498 2.34159 0
M  V30 4813 H 450.792 3.70082 0.546797 0
M  V30 4814 H 452.125 4.86622 0.738887 0
M  V30 4815 N 453.777 0.010035 1.57597 0
M  V30 4816 C 454.724 -0.978122 2.09049 0
M  V30 4817 C 455.694 -1.33509 0.988159 0
M  V30 4818 O 456.879 -1.43172 1.26121 0
M  V30 4819 C 454.019 -2.26158 2.60666 0
M  V30 4820 C 453.132 -1.96275 3.84838 0
M  V30 4821 C 452.267 -3.18776 4.24918 0
M  V30 4822 C 451.306 -2.84625 5.41899 0
M  V30 4823 N 450.443 -3.99693 5.77226 0
M  V30 4824 H 455.283 -0.532431 2.93205 0
M  V30 4825 H 452.82 -0.251234 1.44939 0
M  V30 4826 H 454.778 -3.01202 2.88675 0
M  V30 4827 H 453.408 -2.68378 1.79369 0
M  V30 4828 H 452.46 -1.11555 3.63675 0
M  V30 4829 H 453.772 -1.67111 4.69974 0
M  V30 4830 H 452.926 -4.02157 4.54262 0
M  V30 4831 H 451.665 -3.51087 3.38511 0
M  V30 4832 H 450.67 -1.99653 5.12268 0
M  V30 4833 H 451.895 -2.53551 6.29991 0
M  V30 4834 H 449.841 -4.31882 4.93776 0
M  V30 4835 H 449.758 -3.74087 6.56959 0
M  V30 4836 H 451.026 -4.83834 6.11167 0
M  V30 4837 N 455.255 -1.55392 -0.262866 0
M  V30 4838 C 456.185 -1.91978 -1.32917 0
M  V30 4839 C 457.166 -0.7828 -1.51017 0
M  V30 4840 O 458.351 -1.04178 -1.63892 0
M  V30 4841 C 455.481 -2.20055 -2.68687 0
M  V30 4842 C 454.435 -3.35854 -2.65304 0
M  V30 4843 C 453.761 -3.49435 -4.04721 0
M  V30 4844 C 455.061 -4.71977 -2.23685 0
M  V30 4845 H 456.755 -2.81292 -1.02544 0
M  V30 4846 H 454.301 -1.3534 -0.491846 0
M  V30 4847 H 456.254 -2.44237 -3.43404 0
M  V30 4848 H 454.978 -1.27551 -3.00663 0
M  V30 4849 H 453.637 -3.11655 -1.93045 0
M  V30 4850 H 453.285 -2.54379 -4.33936 0
M  V30 4851 H 452.985 -4.27297 -4.0335 0
M  V30 4852 H 454.509 -3.7592 -4.81161 0
M  V30 4853 H 455.923 -4.95637 -2.88127 0
M  V30 4854 H 454.32 -5.52828 -2.33456 0
M  V30 4855 H 455.39 -4.70115 -1.18827 0
M  V30 4856 N 456.733 0.527833 -1.48498 0
M  V30 4857 C 457.643 1.65907 -1.65867 0
M  V30 4858 C 458.659 1.6537 -0.541192 0
M  V30 4859 O 459.835 1.84282 -0.812534 0
M  V30 4860 C 456.9 3.02364 -1.69637 0
M  V30 4861 C 455.961 3.1374 -2.93028 0
M  V30 4862 C 455.194 4.43688 -2.96609 0
M  V30 4863 O 455.417 5.30913 -2.08538 0
M  V30 4864 O 454.351 4.59475 -3.88802 0
M  V30 4865 H 458.177 1.5419 -2.61647 0
M  V30 4866 H 455.762 0.701163 -1.31924 0
M  V30 4867 H 457.644 3.83515 -1.74625 0
M  V30 4868 H 456.319 3.14401 -0.770312 0
M  V30 4869 H 455.226 2.31877 -2.93571 0
M  V30 4870 H 456.559 3.06621 -3.85026 0
M  V30 4871 N 458.211 1.37122 0.776871 0
M  V30 4872 C 459.158 1.3247 1.88998 0
M  V30 4873 C 460.128 0.191143 1.64997 0
M  V30 4874 O 461.313 0.379683 1.86984 0
M  V30 4875 C 458.453 1.13241 3.25992 0
M  V30 4876 C 457.566 2.35782 3.61982 0
M  V30 4877 C 456.701 2.09465 4.88158 0
M  V30 4878 C 455.74 3.279 5.16864 0
M  V30 4879 N 454.877 3.01167 6.34226 0
M  V30 4880 H 459.717 2.27642 1.9231 0
M  V30 4881 H 457.254 1.13125 0.94027 0
M  V30 4882 H 459.212 1.00115 4.0501 0
M  V30 4883 H 457.842 0.217186 3.22069 0
M  V30 4884 H 456.894 2.59666 2.77989 0
M  V30 4885 H 458.206 3.24125 3.79137 0
M  V30 4886 H 457.36 1.93341 5.75069 0
M  V30 4887 H 456.099 1.18452 4.73097 0
M  V30 4888 H 455.104 3.44569 4.2843 0
M  V30 4889 H 456.329 4.19757 5.33836 0
M  V30 4890 H 454.275 2.12779 6.20533 0
M  V30 4891 H 454.192 3.83052 6.51772 0
M  V30 4892 H 455.46 2.88649 7.24087 0
M  V30 4893 N 459.689 -1.00246 1.21608 0
M  V30 4894 C 460.622 -2.08794 0.920892 0
M  V30 4895 C 461.6 -1.62059 -0.132552 0
M  V30 4896 O 462.784 -1.885 -0.0030366 0
M  V30 4897 C 459.911 -3.36525 0.383226 0
M  V30 4898 C 458.957 -4.02172 1.41987 0
M  V30 4899 S 459.79 -4.44256 2.98994 0
M  V30 4900 C 460.946 -5.7517 2.4684 0
M  V30 4901 H 461.179 -2.33511 1.8401 0
M  V30 4902 H 458.712 -1.13562 1.04609 0
M  V30 4903 H 460.67 -4.10423 0.0795871 0
M  V30 4904 H 459.331 -3.09854 -0.514711 0
M  V30 4905 H 458.524 -4.94114 0.993335 0
M  V30 4906 H 458.126 -3.34559 1.67171 0
M  V30 4907 H 460.418 -6.51042 1.87484 0
M  V30 4908 H 461.361 -6.22638 3.37235 0
M  V30 4909 H 461.769 -5.32112 1.88461 0
M  V30 4910 N 461.167 -1.02423 -1.1978 0
M  V30 4911 C 462.416 -0.713265 -1.88667 0
M  V30 4912 C 462.729 0.7609 -1.80193 0
M  V30 4913 O 463.935 1.18473 -2.44288 0
M  V30 4914 C 462.391 -1.22545 -3.38394 0
M  V30 4915 C 461.999 -2.72706 -3.55437 0
M  V30 4916 C 463.743 -0.990257 -4.12788 0
M  V30 4917 C 461.65 -3.17367 -4.99031 0
M  V30 4918 H 460.58 -0.263105 -0.706606 0
M  V30 4919 H 463.231 -1.23792 -1.35454 0
M  V30 4920 H 461.613 -0.628732 -3.90977 0
M  V30 4921 H 462.787 -3.37993 -3.13205 0
M  V30 4922 H 461.102 -2.94453 -2.94425 0
M  V30 4923 H 463.699 -1.29926 -5.18675 0
M  V30 4924 H 464.042 0.0730761 -4.16236 0
M  V30 4925 H 464.575 -1.55074 -3.66329 0
M  V30 4926 H 461.314 -4.23009 -5.00743 0
M  V30 4927 H 460.834 -2.56805 -5.42044 0
M  V30 4928 H 462.513 -3.10441 -5.67658 0
M  V30 4929 N 462.645 1.35699 -0.801477 0
M  V30 4930 C 463.893 1.9852 -0.37871 0
M  V30 4931 C 464.214 1.63907 1.05638 0
M  V30 4932 O 463.484 0.919013 1.73006 0
M  V30 4933 H 462.064 0.734322 -0.137042 0
M  V30 4934 H 464.726 1.65697 -1.02619 0
M  V30 4935 H 463.822 3.08382 -0.480284 0
M  V30 4936 N 464.123 0.554532 1.47522 0
M  V30 4937 C 465.4 -0.0360704 1.95567 0
M  V30 4938 C 465.78 -1.48828 1.49711 0
M  V30 4939 O 465.128 -2.16366 0.734717 0
M  V30 4940 C 465.338 0.106631 3.48837 0
M  V30 4941 C 466.686 -0.0400899 4.24581 0
M  V30 4942 O 467.71 0.0340453 3.56184 0
M  V30 4943 O 466.569 -0.199111 5.46137 0
M  V30 4944 H 463.663 -0.0656294 0.824392 0
M  V30 4945 H 466.209 0.620867 1.57935 0
M  V30 4946 H 464.981 1.11727 3.7501 0
M  V30 4947 H 464.604 -0.58804 3.93227 0
M  V30 4948 N 465.601 -1.54893 0.290851 0
M  V30 4949 C 466.531 -2.26103 -0.583084 0
M  V30 4950 C 467.512 -1.25684 -1.14619 0
M  V30 4951 O 468.697 -1.54436 -1.17741 0
M  V30 4952 C 465.827 -2.99409 -1.75987 0
M  V30 4953 C 464.781 -4.0689 -1.32758 0
M  V30 4954 C 464.107 -4.67856 -2.58872 0
M  V30 4955 C 465.407 -5.20215 -0.46624 0
M  V30 4956 H 467.101 -2.99398 0.0108214 0
M  V30 4957 H 464.647 -1.43998 0.00664468 0
M  V30 4958 H 466.6 -3.47943 -2.37727 0
M  V30 4959 H 465.324 -2.23675 -2.37985 0
M  V30 4960 H 463.983 -3.59191 -0.733299 0
M  V30 4961 H 463.631 -3.88772 -3.19163 0
M  V30 4962 H 463.331 -5.40438 -2.30653 0
M  V30 4963 H 464.855 -5.19147 -3.21433 0
M  V30 4964 H 466.269 -5.64704 -0.989047 0
M  V30 4965 H 464.666 -5.99455 -0.27826 0
M  V30 4966 H 465.736 -4.82198 0.511173 0
M  V30 4967 N 467.08 -0.0183926 -1.57589 0
M  V30 4968 C 468.01 0.965596 -2.12599 0
M  V30 4969 C 468.991 1.34641 -1.0395 0
M  V30 4970 O 470.176 1.42693 -1.31729 0
M  V30 4971 C 467.306 2.25149 -2.64434 0
M  V30 4972 C 466.26 2.01175 -3.77773 0
M  V30 4973 C 465.586 3.35937 -4.15994 0
M  V30 4974 C 466.886 1.35953 -5.04296 0
M  V30 4975 H 468.58 0.507504 -2.95067 0
M  V30 4976 H 466.126 0.242671 -1.41941 0
M  V30 4977 H 468.079 2.94357 -3.01549 0
M  V30 4978 H 466.803 2.73105 -1.79112 0
M  V30 4979 H 465.462 1.34388 -3.4108 0
M  V30 4980 H 465.11 3.81631 -3.27669 0
M  V30 4981 H 464.81 3.20705 -4.92364 0
M  V30 4982 H 466.334 4.0643 -4.55683 0
M  V30 4983 H 467.748 1.95144 -5.39065 0
M  V30 4984 H 466.145 1.31152 -5.85593 0
M  V30 4985 H 467.215 0.331071 -4.83768 0
M  V30 4986 O 468.597 1.61027 0.12348 0
M  V30 4987 H 469.288 1.78369 0.755254 0
M  V30 END ATOM
M  V30 BEGIN BOND
M  V30 END BOND
M  V30 END CTAB
M  END
$$$$
