drugbank_target|P0A876 tRNA (guanine-N(1)-)-methyltransferase (DB01752)
 OpenBabel12092120223D

  0  0  0     0  0            999 V3000
M  V30 BEGIN CTAB
M  V30 COUNTS 5751 6141 0 0 0
M  V30 BEGIN ATOM
M  V30 1 H -2.588 8.49073 -0.0679273 0
M  V30 2 O -1.492 9.37262 0.0843559 0
M  V30 3 P 0 8.791 0 0
M  V30 4 O 1.422 9.31096 0.027933 0
M  V30 5 O -0.36 7.77869 -1.04071 0
M  V30 6 O -0.323 8.09533 1.41463 0
M  V30 7 C -0.483 9.0349 2.53943 0
M  V30 8 C 0.057 8.35226 3.79016 0
M  V30 9 O -0.999 7.57992 4.15078 0
M  V30 10 C 1.275 7.45087 3.67298 0
M  V30 11 O 2.013 7.27796 4.85194 0
M  V30 12 C 0.606 6.17323 3.12027 0
M  V30 13 O 1.405 5.04231 3.47188 0
M  V30 14 C -0.731 6.19961 3.81809 0
M  V30 15 H -0.699 5.58218 4.73051 0
M  V30 16 H 0.484 6.21726 2.02589 0
M  V30 17 H 1.968 7.86112 2.9231 0
M  V30 18 H 0.274 9.11627 4.55076 0
M  V30 19 H 0.084 9.9573 2.34194 0
M  V30 20 H -1.546 9.2792 2.67832 0
M  V30 21 H 1.093 4.67702 4.28772 0
M  V30 22 P 2.95057 7.39546 4.75277 0
M  V30 23 O 4.37257 7.81777 5.05738 0
M  V30 24 O 2.59057 7.1065 3.32998 0
M  V30 25 O 2.62757 6.04542 5.56673 0
M  V30 26 C 2.46757 6.22772 7.02095 0
M  V30 27 C 3.00757 4.97725 7.70406 0
M  V30 28 O 1.95157 4.13256 7.58987 0
M  V30 29 C 4.22557 4.28231 7.11815 0
M  V30 30 O 4.96357 3.49945 8.01648 0
M  V30 31 C 3.55657 3.5063 5.96244 0
M  V30 32 O 4.35557 2.36482 5.64681 0
M  V30 33 C 2.21957 3.15122 6.56374 0
M  V30 34 H 2.25157 2.13853 6.99751 0
M  V30 35 H 3.43457 4.13501 5.06559 0
M  V30 36 H 4.91857 5.03285 6.70911 0
M  V30 37 H 3.22457 5.20877 8.75697 0
M  V30 38 H 3.03457 7.11046 7.35349 0
M  V30 39 H 1.40457 6.35815 7.26986 0
M  V30 40 H 4.04357 1.61644 6.13565 0
M  V30 41 P 5.90114 3.65191 7.99657 0
M  V30 42 O 7.32314 3.8425 8.48115 0
M  V30 43 O 5.54114 4.17805 6.64342 0
M  V30 44 O 5.57814 2.07613 7.95143 0
M  V30 45 C 5.41814 1.44328 9.27336 0
M  V30 46 C 5.95814 0.0220036 9.17197 0
M  V30 47 O 4.90214 -0.626867 8.61923 0
M  V30 48 C 7.17614 -0.24586 8.30336 0
M  V30 49 O 7.91414 -1.39011 8.63583 0
M  V30 50 C 6.50714 -0.273849 6.91158 0
M  V30 51 O 7.30614 -1.06348 6.02892 0
M  V30 52 C 5.17014 -0.897649 7.22545 0
M  V30 53 H 5.20214 -1.9841 7.04286 0
M  V30 54 H 6.38514 0.739928 6.497 0
M  V30 55 H 7.86914 0.60668 8.36503 0
M  V30 56 H 6.17514 -0.352479 10.1829 0
M  V30 57 H 5.98514 2.00611 10.0304 0
M  V30 58 H 4.35514 1.41843 9.55327 0
M  V30 59 H 6.99414 -1.95734 6.03555 0
M  V30 60 P 8.85171 -1.25109 8.70152 0
M  V30 61 O 10.2737 -1.35303 9.21419 0
M  V30 62 O 8.49171 -0.0769065 7.84762 0
M  V30 63 O 8.52871 -2.55232 7.81161 0
M  V30 64 C 8.36871 -3.79939 8.58154 0
M  V30 65 C 8.90871 -4.93969 7.72701 0
M  V30 66 O 7.85371 -5.18726 6.91205 0
M  V30 67 C 10.1267 -4.69597 6.85231 0
M  V30 68 O 10.8647 -5.83832 6.51337 0
M  V30 69 C 9.45871 -3.96706 5.66633 0
M  V30 70 O 10.2567 -4.15346 4.49615 0
M  V30 71 C 8.12071 -4.66153 5.59313 0
M  V30 72 N 7.07771 -3.71582 5.24027 0
M  V30 73 C 7.13971 -2.46018 5.67902 0
M  V30 74 N 6.09471 -1.74868 5.24518 0
M  V30 75 C 5.36071 -2.61333 4.54528 0
M  V30 76 C 4.05471 -2.46162 3.95441 0
M  V30 77 O 3.32171 -1.46013 3.94122 0
M  V30 78 N 3.62471 -3.59334 3.34752 0
M  V30 79 C 4.37371 -4.79605 3.3023 0
M  V30 80 N 3.77671 -5.82109 2.6065 0
M  V30 81 N 5.52671 -4.97402 3.8843 0
M  V30 82 C 5.98371 -3.86258 4.50476 0
M  V30 83 H 8.15271 -5.47679 4.85214 0
M  V30 84 H 9.33571 -2.88964 5.86476 0
M  V30 85 H 10.8207 -4.01947 7.36109 0
M  V30 86 H 9.12571 -5.80182 8.37584 0
M  V30 87 H 8.93571 -3.73517 9.52265 0
M  V30 88 H 7.30471 -3.97163 8.80359 0
M  V30 89 H 2.72871 -3.5825 2.90294 0
M  V30 90 H 7.93571 -2.06161 6.30974 0
M  V30 91 H 2.86571 -5.66979 2.15354 0
M  V30 92 H 4.24171 -6.73686 2.54344 0
M  V30 93 H 9.94571 -4.90891 4.01857 0
M  V30 94 P 11.8023 -5.75688 6.64379 0
M  V30 95 O 13.2243 -6.11849 7.01846 0
M  V30 96 O 11.4423 -4.30744 6.56026 0
M  V30 97 O 11.4793 -6.37042 5.19165 0
M  V30 98 C 11.3193 -7.83578 5.16515 0
M  V30 99 C 11.8593 -8.33398 3.83019 0
M  V30 100 O 10.8033 -8.10074 3.01034 0
M  V30 101 C 13.0773 -7.65514 3.2257 0
M  V30 102 O 13.8153 -8.4329 2.32297 0
M  V30 103 C 12.4083 -6.40075 2.62207 0
M  V30 104 O 13.2073 -5.92589 1.53712 0
M  V30 105 C 11.0713 -6.9454 2.18503 0
M  V30 106 H 11.1033 -7.23063 1.12091 0
M  V30 107 H 12.2863 -5.6025 3.37201 0
M  V30 108 H 13.7703 -7.35707 4.02681 0
M  V30 109 H 12.0763 -9.40912 3.9095 0
M  V30 110 H 11.8863 -8.29056 5.99158 0
M  V30 111 H 10.2563 -8.10073 5.25882 0
M  V30 112 H 12.8953 -6.30324 0.726794 0
M  V30 113 P 14.7528 -8.4349 2.47671 0
M  V30 114 O 16.1748 -8.94167 2.5964 0
M  V30 115 O 14.3928 -7.1704 3.19006 0
M  V30 116 O 14.4298 -8.16596 0.923387 0
M  V30 117 C 14.2698 -9.38437 0.108857 0
M  V30 118 C 14.8098 -9.08175 -1.28353 0
M  V30 119 O 13.7538 -8.44229 -1.84713 0
M  V30 120 C 16.0278 -8.18386 -1.42505 0
M  V30 121 O 16.7659 -8.3501 -2.60497 0
M  V30 122 C 15.3588 -6.80225 -1.25468 0
M  V30 123 O 16.1578 -5.81621 -1.91066 0
M  V30 124 C 14.0218 -7.02416 -1.9168 0
M  V30 125 H 14.0538 -6.6888 -2.96621 0
M  V30 126 H 15.2368 -6.53617 -0.192223 0
M  V30 127 H 16.7208 -8.36622 -0.589963 0
M  V30 128 H 15.0268 -10.0291 -1.79807 0
M  V30 129 H 14.8368 -10.2138 0.558219 0
M  V30 130 H 13.2068 -9.6579 0.0444202 0
M  V30 131 H 15.8458 -5.69556 -2.79637 0
M  V30 132 P 17.7034 -8.4349 -2.47671 0
M  V30 133 O 19.1254 -8.92593 -2.65 0
M  V30 134 O 17.3434 -7.7568 -1.19296 0
M  V30 135 O 17.3804 -7.36886 -3.63805 0
M  V30 136 C 17.2204 -7.95349 -4.982 0
M  V30 137 C 17.7604 -6.94612 -5.98974 0
M  V30 138 O 16.7044 -6.10347 -6.11815 0
M  V30 139 C 18.9784 -6.11426 -5.62335 0
M  V30 140 O 19.7164 -5.6162 -6.70584 0
M  V30 141 C 18.3094 -5.04409 -4.73308 0
M  V30 142 O 19.1084 -3.85992 -4.75183 0
M  V30 143 C 16.9724 -4.8728 -5.41006 0
M  V30 144 H 17.0044 -4.02333 -6.11157 0
M  V30 145 H 18.1874 -5.39466 -3.69543 0
M  V30 146 H 19.6714 -6.71916 -5.01943 0
M  V30 147 H 17.9774 -7.4649 -6.93477 0
M  V30 148 H 17.7874 -8.89416 -5.05237 0
M  V30 149 H 16.1574 -8.14876 -5.18409 0
M  V30 150 H 18.7964 -3.27957 -5.4317 0
M  V30 151 P 20.654 -5.75688 -6.64379 0
M  V30 152 O 22.076 -6.07627 -7.05504 0
M  V30 153 O 20.294 -5.88047 -5.19722 0
M  V30 154 O 20.331 -4.2322 -7.04443 0
M  V30 155 C 20.171 -3.99743 -8.4911 0
M  V30 156 C 20.711 -2.60516 -8.79425 0
M  V30 157 O 19.655 -1.82684 -8.4467 0
M  V30 158 C 21.929 -2.10343 -8.03628 0
M  V30 159 O 22.667 -1.09919 -8.67766 0
M  V30 160 C 21.26 -1.68446 -6.70876 0
M  V30 161 O 22.059 -0.678137 -6.08433 0
M  V30 162 C 19.923 -1.17436 -7.18567 0
M  V30 163 H 19.955 -0.0804732 -7.31656 0
M  V30 164 H 21.138 -2.54037 -6.02537 0
M  V30 165 H 22.622 -2.93881 -7.85526 0
M  V30 166 H 20.928 -2.53065 -9.86973 0
M  V30 167 H 20.738 -4.75072 -9.05887 0
M  V30 168 H 19.108 -4.05244 -8.76668 0
M  V30 169 H 21.747 0.177647 -6.34251 0
M  V30 170 P 23.6046 -1.25109 -8.70152 0
M  V30 171 O 25.0266 -1.29744 -9.22016 0
M  V30 172 O 23.2446 -2.13714 -7.55141 0
M  V30 173 O 23.2816 0.248149 -8.21425 0
M  V30 174 C 23.1216 1.22779 -9.30434 0
M  V30 175 C 23.6616 2.56293 -8.80664 0
M  V30 176 O 22.6056 3.02979 -8.09349 0
M  V30 177 C 24.8796 2.57523 -7.89775 0
M  V30 178 O 25.6176 3.7668 -7.89438 0
M  V30 179 C 24.2106 2.20997 -6.55446 0
M  V30 180 O 25.0096 2.71895 -5.48509 0
M  V30 181 C 22.8736 2.89693 -6.67988 0
M  V30 182 H 22.9056 3.88793 -6.19859 0
M  V30 183 H 24.0886 1.12046 -6.44229 0
M  V30 184 H 25.5726 1.7746 -8.19711 0
M  V30 185 H 23.8786 3.20706 -9.67112 0
M  V30 186 H 23.6886 0.901032 -10.1892 0
M  V30 187 H 22.0586 1.33049 -9.56592 0
M  V30 188 H 24.6976 3.57847 -5.23962 0
M  V30 189 P 26.5551 3.65191 -7.99657 0
M  V30 190 O 27.9771 3.89332 -8.45794 0
M  V30 191 O 26.1951 2.28472 -7.50807 0
M  V30 192 O 26.2321 4.64972 -6.77611 0
M  V30 193 C 26.0721 6.06319 -7.16352 0
M  V30 194 C 26.6121 6.91731 -6.02299 0
M  V30 195 O 25.5561 6.92449 -5.17064 0
M  V30 196 C 27.8301 6.43627 -5.25174 0
M  V30 197 O 28.5681 7.43686 -4.60469 0
M  V30 198 C 27.1611 5.40275 -4.31916 0
M  V30 199 O 27.9601 5.25279 -3.14438 0
M  V30 200 C 25.8241 6.04847 -4.05327 0
M  V30 201 H 25.8561 6.62195 -3.11261 0
M  V30 202 H 27.0391 4.42556 -4.81383 0
M  V30 203 H 28.5231 5.92458 -5.93643 0
M  V30 204 H 26.8291 7.92655 -6.402 0
M  V30 205 H 26.6391 6.26671 -8.0846 0
M  V30 206 H 25.0091 6.29101 -7.32804 0
M  V30 207 H 27.6481 5.84315 -2.47318 0
M  V30 208 P 29.5057 7.39546 -4.75277 0
M  V30 209 O 30.9277 7.84798 -5.01039 0
M  V30 210 O 29.1457 5.9812 -5.08098 0
M  V30 211 O 29.1827 7.57503 -3.1866 0
M  V30 212 C 29.0227 8.97357 -2.74833 0
M  V30 213 C 29.5627 9.07548 -1.32709 0
M  V30 214 O 28.5067 8.62072 -0.606159 0
M  V30 215 C 30.7807 8.25383 -0.938334 0
M  V30 216 O 31.5187 8.74577 0.146954 0
M  V30 217 C 30.1117 6.8802 -0.712559 0
M  V30 218 O 30.9107 6.1189 0.194655 0
M  V30 219 C 28.7747 7.27966 -0.139777 0
M  V30 220 H 28.8067 7.25354 0.961601 0
M  V30 221 H 29.9897 6.32557 -1.65702 0
M  V30 222 H 31.4737 8.19355 -1.79097 0
M  V30 223 H 29.7797 10.1294 -1.10029 0
M  V30 224 H 29.5897 9.64276 -3.41316 0
M  V30 225 H 27.9597 9.25417 -2.76357 0
M  V30 226 H 30.5987 6.25267 1.07847 0
M  V30 227 P 32.4563 8.791 -9.96115e-15 0
M  V30 228 O 33.8783 9.31096 0.027933 0
M  V30 229 O 32.0963 7.77869 -1.04071 0
M  V30 230 O 32.1333 8.09533 1.41463 0
M  V30 231 C 31.9733 9.0349 2.53943 0
M  V30 232 C 32.5133 8.35226 3.79016 0
M  V30 233 O 31.4573 7.57992 4.15078 0
M  V30 234 C 33.7313 7.45087 3.67298 0
M  V30 235 O 34.4693 7.27796 4.85194 0
M  V30 236 C 33.0623 6.17323 3.12027 0
M  V30 237 O 33.8613 5.04231 3.47188 0
M  V30 238 C 31.7253 6.19961 3.81809 0
M  V30 239 H 31.7573 5.58218 4.73051 0
M  V30 240 H 32.9403 6.21726 2.02589 0
M  V30 241 H 34.4243 7.86112 2.9231 0
M  V30 242 H 32.7303 9.11627 4.55076 0
M  V30 243 H 32.5403 9.9573 2.34194 0
M  V30 244 H 30.9103 9.2792 2.67832 0
M  V30 245 H 33.5493 4.67702 4.28772 0
M  V30 246 P 35.4068 7.39546 4.75277 0
M  V30 247 O 36.8288 7.81777 5.05738 0
M  V30 248 O 35.0468 7.1065 3.32998 0
M  V30 249 O 35.0838 6.04542 5.56673 0
M  V30 250 C 34.9238 6.22772 7.02095 0
M  V30 251 C 35.4638 4.97725 7.70406 0
M  V30 252 O 34.4078 4.13256 7.58987 0
M  V30 253 C 36.6818 4.28231 7.11815 0
M  V30 254 O 37.4198 3.49945 8.01648 0
M  V30 255 C 36.0128 3.5063 5.96244 0
M  V30 256 O 36.8118 2.36482 5.64681 0
M  V30 257 C 34.6758 3.15122 6.56374 0
M  V30 258 H 34.7078 2.13853 6.99751 0
M  V30 259 H 35.8908 4.13501 5.06559 0
M  V30 260 H 37.3748 5.03285 6.70911 0
M  V30 261 H 35.6808 5.20877 8.75697 0
M  V30 262 H 35.4908 7.11046 7.35349 0
M  V30 263 H 33.8608 6.35815 7.26986 0
M  V30 264 H 36.4998 1.61644 6.13565 0
M  V30 265 P 38.3574 3.65191 7.99657 0
M  V30 266 O 39.7784 3.84292 8.48206 0
M  V30 267 O 37.9974 4.17805 6.64342 0
M  V30 268 O 38.0344 2.07613 7.95143 0
M  V30 269 C 37.8734 1.44344 9.27435 0
M  V30 270 C 38.4144 0.0220036 9.17197 0
M  V30 271 O 37.3594 -0.626794 8.61824 0
M  V30 272 C 39.6324 -0.24586 8.30336 0
M  V30 273 O 40.3704 -1.39011 8.63583 0
M  V30 274 C 38.9644 -0.273849 6.91158 0
M  V30 275 O 39.7624 -1.05728 6.029 0
M  V30 276 C 37.6264 -0.897649 7.22545 0
M  V30 277 N 36.5834 -0.292839 6.41732 0
M  V30 278 C 36.7524 0.950603 5.91308 0
M  V30 279 N 35.7254 1.37732 5.21105 0
M  V30 280 C 34.8404 0.318109 5.26039 0
M  V30 281 C 33.5734 0.146766 4.6727 0
M  V30 282 N 33.0084 -1.06525 4.95887 0
M  V30 283 C 33.6104 -2.0378 5.71347 0
M  V30 284 N 34.7874 -1.92445 6.27451 0
M  V30 285 C 35.3624 -0.715382 6.00353 0
M  V30 286 H 38.8414 0.733318 6.49674 0
M  V30 287 H 40.3244 0.60668 8.36503 0
M  V30 288 H 38.6304 -0.362662 10.1825 0
M  V30 289 H 38.4404 2.00611 10.0304 0
M  V30 290 H 36.8104 1.41843 9.55327 0
M  V30 291 H 37.6524 1.54076 6.07465 0
M  V30 292 H 39.4504 -1.95704 6.0346 0
M  V30 293 P 41.308 -1.25109 8.70152 0
M  V30 294 O 42.729 -1.35288 9.2132 0
M  V30 295 O 40.948 -0.0769065 7.84762 0
M  V30 296 O 40.985 -2.55232 7.81161 0
M  V30 297 C 40.824 -3.79979 8.58246 0
M  V30 298 C 41.365 -4.94023 7.72785 0
M  V30 299 O 40.31 -5.18666 6.91125 0
M  V30 300 C 42.583 -4.69597 6.85231 0
M  V30 301 O 43.321 -5.83832 6.51337 0
M  V30 302 C 41.915 -3.96706 5.66633 0
M  V30 303 O 42.713 -4.14896 4.5003 0
M  V30 304 C 40.577 -4.66153 5.59313 0
M  V30 305 N 39.534 -3.71582 5.24027 0
M  V30 306 C 39.703 -2.39715 5.48833 0
M  V30 307 N 38.676 -1.65863 5.12845 0
M  V30 308 C 37.791 -2.57637 4.5973 0
M  V30 309 C 36.524 -2.40278 4.01027 0
M  V30 310 N 35.925 -1.19549 3.86744 0
M  V30 311 N 35.959 -3.57711 3.59575 0
M  V30 312 C 36.561 -4.80324 3.70476 0
M  V30 313 N 37.738 -5.01121 4.23801 0
M  V30 314 C 38.313 -3.84757 4.66372 0
M  V30 315 H 40.609 -5.47604 4.85148 0
M  V30 316 H 41.792 -2.8955 5.86187 0
M  V30 317 H 43.275 -4.0121 7.36511 0
M  V30 318 H 41.581 -5.81019 8.37003 0
M  V30 319 H 41.391 -3.73517 9.52265 0
M  V30 320 H 39.761 -3.97163 8.80359 0
M  V30 321 H 36.025 -5.66348 3.3183 0
M  V30 322 H 40.603 -1.98804 5.94332 0
M  V30 323 H 34.995 -1.13147 3.4281 0
M  V30 324 H 36.399 -0.344074 4.19692 0
M  V30 325 H 42.401 -4.90891 4.01857 0
M  V30 326 P 44.2585 -5.75688 6.64379 0
M  V30 327 O 45.6805 -6.11849 7.01846 0
M  V30 328 O 43.8985 -4.30744 6.56026 0
M  V30 329 O 43.9355 -6.37042 5.19165 0
M  V30 330 C 43.7755 -7.83578 5.16515 0
M  V30 331 C 44.3155 -8.33398 3.83019 0
M  V30 332 O 43.2595 -8.10074 3.01034 0
M  V30 333 C 45.5335 -7.65514 3.2257 0
M  V30 334 O 46.2715 -8.4329 2.32297 0
M  V30 335 C 44.8645 -6.40075 2.62207 0
M  V30 336 O 45.6635 -5.92589 1.53712 0
M  V30 337 C 43.5275 -6.9454 2.18503 0
M  V30 338 H 43.5595 -7.23063 1.12091 0
M  V30 339 H 44.7425 -5.6025 3.37201 0
M  V30 340 H 46.2265 -7.35707 4.02681 0
M  V30 341 H 44.5325 -9.40912 3.9095 0
M  V30 342 H 44.3425 -8.29056 5.99158 0
M  V30 343 H 42.7125 -8.10073 5.25882 0
M  V30 344 H 45.3515 -6.30324 0.726794 0
M  V30 345 P 47.2091 -8.4349 2.47671 0
M  V30 346 O 48.6311 -8.94167 2.5964 0
M  V30 347 O 46.8491 -7.1704 3.19006 0
M  V30 348 O 46.8861 -8.16596 0.923387 0
M  V30 349 C 46.7261 -9.38437 0.108857 0
M  V30 350 C 47.2661 -9.08175 -1.28353 0
M  V30 351 O 46.2101 -8.44229 -1.84713 0
M  V30 352 C 48.4841 -8.18386 -1.42505 0
M  V30 353 O 49.2221 -8.3501 -2.60497 0
M  V30 354 C 47.8151 -6.80225 -1.25468 0
M  V30 355 O 48.6141 -5.81621 -1.91066 0
M  V30 356 C 46.4781 -7.02416 -1.9168 0
M  V30 357 H 46.5101 -6.6888 -2.96621 0
M  V30 358 H 47.6931 -6.53617 -0.192223 0
M  V30 359 H 49.1771 -8.36622 -0.589963 0
M  V30 360 H 47.4831 -10.0291 -1.79807 0
M  V30 361 H 47.2931 -10.2138 0.558219 0
M  V30 362 H 45.6631 -9.6579 0.0444202 0
M  V30 363 H 48.3021 -5.69556 -2.79637 0
M  V30 364 P 50.1597 -8.4349 -2.47671 0
M  V30 365 O 51.5817 -8.92593 -2.65 0
M  V30 366 O 49.7997 -7.7568 -1.19296 0
M  V30 367 O 49.8367 -7.36886 -3.63805 0
M  V30 368 C 49.6767 -7.95349 -4.982 0
M  V30 369 C 50.2167 -6.94612 -5.98974 0
M  V30 370 O 49.1607 -6.10347 -6.11815 0
M  V30 371 C 51.4347 -6.11426 -5.62335 0
M  V30 372 O 52.1727 -5.6162 -6.70584 0
M  V30 373 C 50.7657 -5.04409 -4.73308 0
M  V30 374 O 51.5647 -3.85992 -4.75183 0
M  V30 375 C 49.4287 -4.8728 -5.41006 0
M  V30 376 H 49.4607 -4.02333 -6.11157 0
M  V30 377 H 50.6437 -5.39466 -3.69543 0
M  V30 378 H 52.1277 -6.71916 -5.01943 0
M  V30 379 H 50.4337 -7.4649 -6.93477 0
M  V30 380 H 50.2437 -8.89416 -5.05237 0
M  V30 381 H 48.6137 -8.14876 -5.18409 0
M  V30 382 H 51.2527 -3.27957 -5.4317 0
M  V30 383 P 53.1103 -5.75688 -6.64379 0
M  V30 384 O 54.5113 -6.14823 -7.06682 0
M  V30 385 O 52.7323 -5.93957 -5.20728 0
M  V30 386 O 52.7873 -4.23169 -7.04357 0
M  V30 387 C 52.6273 -3.99743 -8.4911 0
M  V30 388 C 53.1673 -2.60487 -8.79329 0
M  V30 389 O 52.1113 -1.82663 -8.44573 0
M  V30 390 C 54.3843 -2.10343 -8.03628 0
M  V30 391 O 55.1233 -1.09919 -8.67766 0
M  V30 392 C 53.7173 -1.68446 -6.70876 0
M  V30 393 O 54.5153 -0.678026 -6.08333 0
M  V30 394 C 52.3793 -1.17436 -7.18567 0
M  V30 395 N 51.3363 -1.52699 -6.23988 0
M  V30 396 C 50.3013 -0.643793 -6.05085 0
M  V30 397 O 50.3403 0.459118 -6.64315 0
M  V30 398 N 49.2893 -0.976931 -5.22038 0
M  V30 399 C 49.3373 -2.14429 -4.56662 0
M  V30 400 C 50.4333 -3.04203 -4.71481 0
M  V30 401 C 51.3993 -2.69669 -5.56838 0
M  V30 402 H 52.4113 -0.0804622 -7.31556 0
M  V30 403 H 53.5943 -2.53396 -6.02698 0
M  V30 404 H 55.0783 -2.9313 -7.85914 0
M  V30 405 H 53.3843 -2.52078 -9.87225 0
M  V30 406 H 53.1933 -4.75072 -9.05887 0
M  V30 407 H 51.5633 -4.05202 -8.76577 0
M  V30 408 H 50.4813 -3.97309 -4.15519 0
M  V30 409 H 52.2453 -3.36869 -5.72318 0
M  V30 410 H 54.2993 0.167718 -6.44882 0
M  V30 411 P 56.0608 -1.25109 -8.70152 0
M  V30 412 O 57.4828 -1.29772 -9.22214 0
M  V30 413 O 55.7008 -2.13714 -7.55141 0
M  V30 414 O 55.7378 0.248149 -8.21425 0
M  V30 415 C 55.5778 1.22779 -9.30434 0
M  V30 416 C 56.1178 2.56265 -8.80568 0
M  V30 417 O 55.0628 3.02979 -8.09349 0
M  V30 418 C 57.3358 2.57523 -7.89775 0
M  V30 419 O 58.0738 3.7668 -7.89438 0
M  V30 420 C 56.6678 2.20997 -6.55446 0
M  V30 421 O 57.4658 2.71851 -5.48419 0
M  V30 422 C 55.3298 2.89693 -6.67988 0
M  V30 423 N 54.2868 2.08895 -6.07487 0
M  V30 424 C 54.3488 0.760559 -6.14209 0
M  V30 425 N 53.3038 0.200108 -5.52538 0
M  V30 426 C 52.5698 1.22692 -5.09742 0
M  V30 427 C 51.2638 1.24782 -4.48775 0
M  V30 428 O 50.5308 0.290617 -4.19294 0
M  V30 429 N 50.8338 2.50468 -4.22428 0
M  V30 430 C 51.5828 3.67142 -4.51974 0
M  V30 431 N 50.9858 4.85096 -4.14091 0
M  V30 432 N 52.7358 3.67821 -5.12831 0
M  V30 433 C 53.1928 2.43698 -5.4105 0
M  V30 434 H 55.3618 3.88793 -6.19859 0
M  V30 435 H 56.5448 1.12029 -6.4413 0
M  V30 436 H 58.0298 1.78279 -8.19533 0
M  V30 437 H 56.3348 3.20706 -9.67112 0
M  V30 438 H 56.1448 0.901032 -10.1892 0
M  V30 439 H 54.5138 1.33049 -9.56592 0
M  V30 440 H 49.9378 2.61953 -3.79465 0
M  V30 441 H 55.1448 0.200439 -6.63497 0
M  V30 442 H 50.0748 4.8334 -3.66367 0
M  V30 443 H 51.4508 5.7474 -4.33841 0
M  V30 444 H 57.1548 3.5779 -5.23879 0
M  V30 445 P 59.0114 3.65191 -7.99657 0
M  V30 446 O 60.4334 3.89332 -8.45794 0
M  V30 447 O 58.6514 2.28472 -7.50807 0
M  V30 448 O 58.6884 4.64972 -6.77611 0
M  V30 449 C 58.5284 6.06319 -7.16352 0
M  V30 450 C 59.0684 6.91731 -6.02299 0
M  V30 451 O 58.0124 6.92449 -5.17064 0
M  V30 452 C 60.2864 6.43627 -5.25174 0
M  V30 453 O 61.0244 7.43686 -4.60469 0
M  V30 454 C 59.6174 5.40275 -4.31916 0
M  V30 455 O 60.4164 5.25279 -3.14438 0
M  V30 456 C 58.2804 6.04847 -4.05327 0
M  V30 457 H 58.3124 6.62195 -3.11261 0
M  V30 458 H 59.4954 4.42556 -4.81383 0
M  V30 459 H 60.9794 5.92458 -5.93643 0
M  V30 460 H 59.2854 7.92655 -6.402 0
M  V30 461 H 59.0954 6.26671 -8.0846 0
M  V30 462 H 57.4654 6.29101 -7.32804 0
M  V30 463 H 60.1044 5.84315 -2.47318 0
M  V30 464 P 61.962 7.39546 -4.75277 0
M  V30 465 O 63.384 7.84798 -5.01039 0
M  V30 466 O 61.602 5.9812 -5.08098 0
M  V30 467 O 61.639 7.57503 -3.1866 0
M  V30 468 C 61.479 8.97357 -2.74833 0
M  V30 469 C 62.019 9.07548 -1.32709 0
M  V30 470 O 60.963 8.62072 -0.606159 0
M  V30 471 C 63.237 8.25383 -0.938334 0
M  V30 472 O 63.975 8.74577 0.146954 0
M  V30 473 C 62.568 6.8802 -0.712559 0
M  V30 474 O 63.367 6.1189 0.194655 0
M  V30 475 C 61.231 7.27966 -0.139777 0
M  V30 476 H 61.263 7.25354 0.961601 0
M  V30 477 H 62.446 6.32557 -1.65702 0
M  V30 478 H 63.93 8.19355 -1.79097 0
M  V30 479 H 62.236 10.1294 -1.10029 0
M  V30 480 H 62.046 9.64276 -3.41316 0
M  V30 481 H 60.416 9.25417 -2.76357 0
M  V30 482 H 63.055 6.25267 1.07847 0
M  V30 483 P 64.9125 8.791 -3.55383e-14 0
M  V30 484 O 66.3345 9.31296 0.027939 0
M  V30 485 O 64.5525 7.77869 -1.04071 0
M  V30 486 O 64.5895 8.09533 1.41463 0
M  V30 487 C 64.4295 9.0349 2.53943 0
M  V30 488 C 64.9695 8.35135 3.78975 0
M  V30 489 O 63.9145 7.57992 4.15078 0
M  V30 490 C 66.1875 7.45087 3.67298 0
M  V30 491 O 66.9255 7.27796 4.85194 0
M  V30 492 C 65.5195 6.17323 3.12027 0
M  V30 493 O 66.3175 5.04149 3.47132 0
M  V30 494 C 64.1815 6.19961 3.81809 0
M  V30 495 N 63.1385 5.71575 2.93223 0
M  V30 496 C 63.2005 5.97133 1.62693 0
M  V30 497 N 62.1555 5.44066 0.984414 0
M  V30 498 C 61.4215 4.87093 1.93987 0
M  V30 499 C 60.1155 4.26449 1.8738 0
M  V30 500 O 59.3825 4.1089 0.884377 0
M  V30 501 N 59.6855 3.82483 3.08036 0
M  V30 502 C 60.4345 3.95124 4.27727 0
M  V30 503 N 59.8375 3.4084 5.39089 0
M  V30 504 N 61.5875 4.55264 4.3706 0
M  V30 505 C 62.0445 5.00861 3.18217 0
M  V30 506 H 64.2135 5.58218 4.73051 0
M  V30 507 H 65.3965 6.21631 2.02558 0
M  V30 508 H 66.8815 7.85819 2.93096 0
M  V30 509 H 65.1865 9.11627 4.55076 0
M  V30 510 H 64.9965 9.9573 2.34194 0
M  V30 511 H 63.3655 9.2792 2.67832 0
M  V30 512 H 58.7895 3.38323 3.1329 0
M  V30 513 H 63.9965 6.53891 1.14265 0
M  V30 514 H 58.9265 2.93852 5.30559 0
M  V30 515 H 60.3025 3.47631 6.30632 0
M  V30 516 H 66.0065 4.67628 4.28704 0
M  V30 517 P 67.8631 7.39546 4.75277 0
M  V30 518 O 69.2841 7.81861 5.05793 0
M  V30 519 O 67.5031 7.1065 3.32998 0
M  V30 520 O 67.5401 6.04542 5.56673 0
M  V30 521 C 67.3791 6.22839 7.02169 0
M  V30 522 C 67.9201 4.97725 7.70406 0
M  V30 523 O 66.8651 4.13208 7.58899 0
M  V30 524 C 69.1381 4.28231 7.11815 0
M  V30 525 O 69.8761 3.49945 8.01648 0
M  V30 526 C 68.4701 3.5063 5.96244 0
M  V30 527 O 69.2681 2.37008 5.64352 0
M  V30 528 C 67.1321 3.15122 6.56374 0
M  V30 529 N 66.0891 3.22311 5.55692 0
M  V30 530 C 66.2581 3.99655 4.46046 0
M  V30 531 N 65.2311 3.97599 3.63918 0
M  V30 532 C 64.3461 3.11159 4.25334 0
M  V30 533 C 63.0791 2.64972 3.85157 0
M  V30 534 N 62.5141 1.78482 4.74759 0
M  V30 535 C 63.1161 1.37463 5.90819 0
M  V30 536 N 64.2931 1.7733 6.31889 0
M  V30 537 C 64.8681 2.64393 5.43725 0
M  V30 538 H 68.3471 4.12931 5.06895 0
M  V30 539 H 69.8301 5.03285 6.70911 0
M  V30 540 H 68.1361 5.20001 8.76217 0
M  V30 541 H 67.9461 7.11046 7.35349 0
M  V30 542 H 66.3161 6.35815 7.26986 0
M  V30 543 H 67.1581 4.58037 4.27732 0
M  V30 544 H 68.9561 1.61619 6.13468 0
M  V30 545 P 70.8137 3.65191 7.99657 0
M  V30 546 O 72.2347 3.84292 8.48206 0
M  V30 547 O 70.4537 4.17805 6.64342 0
M  V30 548 O 70.4907 2.07613 7.95143 0
M  V30 549 C 70.3297 1.44344 9.27435 0
M  V30 550 C 70.8707 0.0220036 9.17197 0
M  V30 551 O 69.8157 -0.626794 8.61824 0
M  V30 552 C 72.0887 -0.24586 8.30336 0
M  V30 553 O 72.8267 -1.39011 8.63583 0
M  V30 554 C 71.4207 -0.273849 6.91158 0
M  V30 555 O 72.2187 -1.05728 6.029 0
M  V30 556 C 70.0827 -0.897649 7.22545 0
M  V30 557 N 69.0397 -0.292839 6.41732 0
M  V30 558 C 69.2087 0.950603 5.91308 0
M  V30 559 N 68.1817 1.37732 5.21105 0
M  V30 560 C 67.2967 0.318109 5.26039 0
M  V30 561 C 66.0297 0.146766 4.6727 0
M  V30 562 N 65.4307 1.08519 3.89983 0
M  V30 563 N 65.4647 -1.06525 4.95887 0
M  V30 564 C 66.0667 -2.0378 5.71347 0
M  V30 565 N 67.2437 -1.92445 6.27451 0
M  V30 566 C 67.8187 -0.715382 6.00353 0
M  V30 567 H 70.1147 -1.98383 7.04189 0
M  V30 568 H 71.2977 0.733318 6.49674 0
M  V30 569 H 72.7807 0.60668 8.36503 0
M  V30 570 H 71.0867 -0.362662 10.1825 0
M  V30 571 H 70.8967 2.00611 10.0304 0
M  V30 572 H 69.2667 1.41843 9.55327 0
M  V30 573 H 65.5307 -2.97041 5.85344 0
M  V30 574 H 70.1087 1.54076 6.07465 0
M  V30 575 H 64.5007 0.901517 3.49562 0
M  V30 576 H 65.9047 1.97957 3.71669 0
M  V30 577 H 71.9067 -1.95704 6.0346 0
M  V30 578 P 73.7642 -1.25109 8.70152 0
M  V30 579 O 75.1862 -1.35274 9.21221 0
M  V30 580 O 73.4042 -0.0769065 7.84762 0
M  V30 581 O 73.4412 -2.55232 7.81161 0
M  V30 582 C 73.2812 -3.79939 8.58154 0
M  V30 583 C 73.8212 -4.94023 7.72785 0
M  V30 584 O 72.7652 -5.18726 6.91205 0
M  V30 585 C 75.0392 -4.69597 6.85231 0
M  V30 586 O 75.7772 -5.83832 6.51337 0
M  V30 587 C 74.3702 -3.96706 5.66633 0
M  V30 588 O 75.1692 -4.15414 4.49689 0
M  V30 589 C 73.0332 -4.66153 5.59313 0
M  V30 590 H 73.0652 -5.47679 4.85214 0
M  V30 591 H 74.2482 -2.89008 5.86566 0
M  V30 592 H 75.7322 -4.0121 7.36511 0
M  V30 593 H 74.0382 -5.80182 8.37584 0
M  V30 594 H 73.8482 -3.73517 9.52265 0
M  V30 595 H 72.2182 -3.97163 8.80359 0
M  V30 596 H 74.8572 -4.90969 4.01921 0
M  V30 597 P 76.7148 -5.75688 6.64379 0
M  V30 598 O 78.1368 -6.11849 7.01846 0
M  V30 599 O 76.3548 -4.30744 6.56026 0
M  V30 600 O 76.3918 -6.37042 5.19165 0
M  V30 601 C 76.2318 -7.83578 5.16515 0
M  V30 602 C 76.7718 -8.33398 3.83019 0
M  V30 603 O 75.7158 -8.10074 3.01034 0
M  V30 604 C 77.9898 -7.65514 3.2257 0
M  V30 605 O 78.7278 -8.4329 2.32297 0
M  V30 606 C 77.3208 -6.40075 2.62207 0
M  V30 607 O 78.1198 -5.92589 1.53712 0
M  V30 608 C 75.9838 -6.9454 2.18503 0
M  V30 609 H 76.0158 -7.23063 1.12091 0
M  V30 610 H 77.1988 -5.6025 3.37201 0
M  V30 611 H 78.6828 -7.35707 4.02681 0
M  V30 612 H 76.9888 -9.40912 3.9095 0
M  V30 613 H 76.7988 -8.29056 5.99158 0
M  V30 614 H 75.1688 -8.10073 5.25882 0
M  V30 615 H 77.8078 -6.30324 0.726794 0
M  V30 616 P 79.6654 -8.4349 2.47671 0
M  V30 617 O 81.0874 -8.94167 2.5964 0
M  V30 618 O 79.3054 -7.1704 3.19006 0
M  V30 619 O 79.3424 -8.16596 0.923387 0
M  V30 620 C 79.1824 -9.38437 0.108857 0
M  V30 621 C 79.7224 -9.08175 -1.28353 0
M  V30 622 O 78.6664 -8.44229 -1.84713 0
M  V30 623 C 80.9404 -8.18386 -1.42505 0
M  V30 624 O 81.6784 -8.3501 -2.60497 0
M  V30 625 C 80.2714 -6.80225 -1.25468 0
M  V30 626 O 81.0704 -5.81621 -1.91066 0
M  V30 627 C 78.9344 -7.02416 -1.9168 0
M  V30 628 H 78.9664 -6.6888 -2.96621 0
M  V30 629 H 80.1494 -6.53617 -0.192223 0
M  V30 630 H 81.6334 -8.36622 -0.589963 0
M  V30 631 H 79.9394 -10.0291 -1.79807 0
M  V30 632 H 79.7494 -10.2138 0.558219 0
M  V30 633 H 78.1194 -9.6579 0.0444202 0
M  V30 634 H 80.7584 -5.69556 -2.79637 0
M  V30 635 P 82.616 -8.4349 -2.47671 0
M  V30 636 O 84.038 -8.92785 -2.65057 0
M  V30 637 O 82.256 -7.7568 -1.19296 0
M  V30 638 O 82.293 -7.36886 -3.63805 0
M  V30 639 C 82.133 -7.95349 -4.982 0
M  V30 640 C 82.673 -6.94537 -5.98908 0
M  V30 641 O 81.618 -6.10347 -6.11815 0
M  V30 642 C 83.891 -6.11426 -5.62335 0
M  V30 643 O 84.629 -5.6162 -6.70584 0
M  V30 644 C 83.223 -5.04409 -4.73308 0
M  V30 645 O 84.021 -3.85929 -4.75106 0
M  V30 646 C 81.885 -4.8728 -5.41006 0
M  V30 647 N 80.842 -4.65812 -4.42377 0
M  V30 648 C 80.904 -5.27109 -3.24335 0
M  V30 649 N 79.859 -4.94293 -2.47735 0
M  V30 650 C 79.125 -4.1271 -3.23359 0
M  V30 651 C 77.819 -3.56384 -2.99934 0
M  V30 652 O 77.086 -3.69331 -2.00616 0
M  V30 653 N 77.389 -2.80206 -4.03316 0
M  V30 654 C 78.138 -2.58614 -5.2172 0
M  V30 655 N 77.541 -1.75154 -6.13278 0
M  V30 656 N 79.291 -3.13689 -5.47619 0
M  V30 657 C 79.748 -3.90921 -4.46436 0
M  V30 658 H 81.917 -4.02333 -6.11157 0
M  V30 659 H 83.1 -5.39383 -3.69487 0
M  V30 660 H 84.585 -6.71414 -5.02615 0
M  V30 661 H 82.89 -7.4649 -6.93477 0
M  V30 662 H 82.7 -8.89416 -5.05237 0
M  V30 663 H 81.069 -8.14876 -5.18409 0
M  V30 664 H 76.493 -2.36355 -3.95916 0
M  V30 665 H 81.7 -5.95212 -2.93859 0
M  V30 666 H 76.63 -1.32473 -5.91856 0
M  V30 667 H 78.006 -1.5588 -7.03026 0
M  V30 668 H 83.71 -3.27906 -5.43085 0
M  V30 669 P 85.5665 -5.75688 -6.64379 0
M  V30 670 O 86.9885 -6.07627 -7.05504 0
M  V30 671 O 85.2065 -5.88047 -5.19722 0
M  V30 672 O 85.2435 -4.2322 -7.04443 0
M  V30 673 C 85.0835 -3.99743 -8.4911 0
M  V30 674 C 85.6235 -2.60516 -8.79425 0
M  V30 675 O 84.5675 -1.82684 -8.4467 0
M  V30 676 C 86.8415 -2.10343 -8.03628 0
M  V30 677 O 87.5795 -1.09919 -8.67766 0
M  V30 678 C 86.1725 -1.68446 -6.70876 0
M  V30 679 O 86.9715 -0.678137 -6.08433 0
M  V30 680 C 84.8355 -1.17436 -7.18567 0
M  V30 681 H 84.8675 -0.0804732 -7.31656 0
M  V30 682 H 86.0505 -2.54037 -6.02537 0
M  V30 683 H 87.5345 -2.93881 -7.85526 0
M  V30 684 H 85.8405 -2.53065 -9.86973 0
M  V30 685 H 85.6505 -4.75072 -9.05887 0
M  V30 686 H 84.0205 -4.05244 -8.76668 0
M  V30 687 H 86.6595 0.177647 -6.34251 0
M  V30 688 P 88.5171 -1.25109 -8.70152 0
M  V30 689 O 89.9391 -1.29744 -9.22016 0
M  V30 690 O 88.1571 -2.13714 -7.55141 0
M  V30 691 O 88.1941 0.248149 -8.21425 0
M  V30 692 C 88.0341 1.22779 -9.30434 0
M  V30 693 C 88.5741 2.56293 -8.80664 0
M  V30 694 O 87.5181 3.02979 -8.09349 0
M  V30 695 C 89.7921 2.57523 -7.89775 0
M  V30 696 O 90.5301 3.7668 -7.89438 0
M  V30 697 C 89.1231 2.20997 -6.55446 0
M  V30 698 O 89.9221 2.71895 -5.48509 0
M  V30 699 C 87.7861 2.89693 -6.67988 0
M  V30 700 H 87.8181 3.88793 -6.19859 0
M  V30 701 H 89.0011 1.12046 -6.44229 0
M  V30 702 H 90.4851 1.7746 -8.19711 0
M  V30 703 H 88.7911 3.20706 -9.67112 0
M  V30 704 H 88.6011 0.901032 -10.1892 0
M  V30 705 H 86.9711 1.33049 -9.56592 0
M  V30 706 H 89.6101 3.57847 -5.23962 0
M  V30 707 P 91.4677 3.65191 -7.99657 0
M  V30 708 O 92.8897 3.89332 -8.45794 0
M  V30 709 O 91.1077 2.28472 -7.50807 0
M  V30 710 O 91.1447 4.64972 -6.77611 0
M  V30 711 C 90.9847 6.06319 -7.16352 0
M  V30 712 C 91.5247 6.91731 -6.02299 0
M  V30 713 O 90.4687 6.92449 -5.17064 0
M  V30 714 C 92.7427 6.43627 -5.25174 0
M  V30 715 O 93.4807 7.43686 -4.60469 0
M  V30 716 C 92.0737 5.40275 -4.31916 0
M  V30 717 O 92.8727 5.25279 -3.14438 0
M  V30 718 C 90.7367 6.04847 -4.05327 0
M  V30 719 H 90.7687 6.62195 -3.11261 0
M  V30 720 H 91.9517 4.42556 -4.81383 0
M  V30 721 H 93.4357 5.92458 -5.93643 0
M  V30 722 H 91.7417 7.92655 -6.402 0
M  V30 723 H 91.5517 6.26671 -8.0846 0
M  V30 724 H 89.9217 6.29101 -7.32804 0
M  V30 725 H 92.5607 5.84315 -2.47318 0
M  V30 726 P 94.4182 7.39546 -4.75277 0
M  V30 727 O 95.8402 7.84798 -5.01039 0
M  V30 728 O 94.0582 5.9812 -5.08098 0
M  V30 729 O 94.0952 7.57503 -3.1866 0
M  V30 730 C 93.9352 8.97357 -2.74833 0
M  V30 731 C 94.4752 9.07548 -1.32709 0
M  V30 732 O 93.4192 8.62072 -0.606159 0
M  V30 733 C 95.6932 8.25383 -0.938334 0
M  V30 734 O 96.4312 8.74577 0.146954 0
M  V30 735 C 95.0242 6.8802 -0.712559 0
M  V30 736 O 95.8232 6.1189 0.194655 0
M  V30 737 C 93.6872 7.27966 -0.139777 0
M  V30 738 H 93.7192 7.25354 0.961601 0
M  V30 739 H 94.9022 6.32557 -1.65702 0
M  V30 740 H 96.3862 8.19355 -1.79097 0
M  V30 741 H 94.6922 10.1294 -1.10029 0
M  V30 742 H 94.5022 9.64276 -3.41316 0
M  V30 743 H 92.8722 9.25417 -2.76357 0
M  V30 744 H 95.5112 6.25267 1.07847 0
M  V30 745 P 97.3688 8.791 -6.89233e-14 0
M  V30 746 O 98.7908 9.31096 0.027933 0
M  V30 747 O 97.0088 7.77869 -1.04071 0
M  V30 748 O 97.0458 8.09533 1.41463 0
M  V30 749 C 96.8858 9.0349 2.53943 0
M  V30 750 C 97.4258 8.35226 3.79016 0
M  V30 751 O 96.3698 7.57992 4.15078 0
M  V30 752 C 98.6438 7.45087 3.67298 0
M  V30 753 O 99.3818 7.27796 4.85194 0
M  V30 754 C 97.9748 6.17323 3.12027 0
M  V30 755 O 98.7738 5.04231 3.47188 0
M  V30 756 C 96.6378 6.19961 3.81809 0
M  V30 757 H 96.6698 5.58218 4.73051 0
M  V30 758 H 97.8528 6.21726 2.02589 0
M  V30 759 H 99.3368 7.86112 2.9231 0
M  V30 760 H 97.6428 9.11627 4.55076 0
M  V30 761 H 97.4528 9.9573 2.34194 0
M  V30 762 H 95.8228 9.2792 2.67832 0
M  V30 763 H 98.4618 4.67702 4.28772 0
M  V30 764 P 100.319 7.39546 4.75277 0
M  V30 765 O 101.741 7.81777 5.05738 0
M  V30 766 O 99.9594 7.1065 3.32998 0
M  V30 767 O 99.9964 6.04542 5.56673 0
M  V30 768 C 99.8364 6.22772 7.02095 0
M  V30 769 C 100.376 4.97725 7.70406 0
M  V30 770 O 99.3204 4.13256 7.58987 0
M  V30 771 C 101.594 4.28231 7.11815 0
M  V30 772 O 102.332 3.49945 8.01648 0
M  V30 773 C 100.925 3.5063 5.96244 0
M  V30 774 O 101.724 2.36482 5.64681 0
M  V30 775 C 99.5884 3.15122 6.56374 0
M  V30 776 H 99.6204 2.13853 6.99751 0
M  V30 777 H 100.803 4.13501 5.06559 0
M  V30 778 H 102.287 5.03285 6.70911 0
M  V30 779 H 100.593 5.20877 8.75697 0
M  V30 780 H 100.403 7.11046 7.35349 0
M  V30 781 H 98.7734 6.35815 7.26986 0
M  V30 782 H 101.412 1.61644 6.13565 0
M  V30 783 P 103.27 3.65191 7.99657 0
M  V30 784 O 104.692 3.8425 8.48115 0
M  V30 785 O 102.91 4.17805 6.64342 0
M  V30 786 O 102.947 2.07613 7.95143 0
M  V30 787 C 102.787 1.44328 9.27336 0
M  V30 788 C 103.327 0.0220036 9.17197 0
M  V30 789 O 102.271 -0.626867 8.61923 0
M  V30 790 C 104.545 -0.24586 8.30336 0
M  V30 791 O 105.283 -1.39011 8.63583 0
M  V30 792 C 103.876 -0.273849 6.91158 0
M  V30 793 O 104.675 -1.06348 6.02892 0
M  V30 794 C 102.539 -0.897649 7.22545 0
M  V30 795 H 102.571 -1.9841 7.04286 0
M  V30 796 H 103.754 0.739928 6.497 0
M  V30 797 H 105.238 0.60668 8.36503 0
M  V30 798 H 103.544 -0.352479 10.1829 0
M  V30 799 H 103.354 2.00611 10.0304 0
M  V30 800 H 101.724 1.41843 9.55327 0
M  V30 801 H 104.363 -1.95734 6.03555 0
M  V30 802 P 106.221 -1.25109 8.70152 0
M  V30 803 O 107.643 -1.35274 9.21221 0
M  V30 804 O 105.861 -0.0769065 7.84762 0
M  V30 805 O 105.898 -2.55232 7.81161 0
M  V30 806 C 105.738 -3.79939 8.58154 0
M  V30 807 C 106.278 -4.94023 7.72785 0
M  V30 808 O 105.222 -5.18726 6.91205 0
M  V30 809 C 107.496 -4.69597 6.85231 0
M  V30 810 O 108.234 -5.83832 6.51337 0
M  V30 811 C 106.827 -3.96706 5.66633 0
M  V30 812 O 107.626 -4.15414 4.49689 0
M  V30 813 C 105.49 -4.66153 5.59313 0
M  V30 814 H 105.522 -5.47679 4.85214 0
M  V30 815 H 106.705 -2.89008 5.86566 0
M  V30 816 H 108.189 -4.0121 7.36511 0
M  V30 817 H 106.495 -5.80182 8.37584 0
M  V30 818 H 106.305 -3.73517 9.52265 0
M  V30 819 H 104.675 -3.97163 8.80359 0
M  V30 820 H 107.314 -4.90969 4.01921 0
M  V30 821 P 109.171 -5.75688 6.64379 0
M  V30 822 O 110.593 -6.11849 7.01846 0
M  V30 823 O 108.811 -4.30744 6.56026 0
M  V30 824 O 108.848 -6.37042 5.19165 0
M  V30 825 C 108.688 -7.83578 5.16515 0
M  V30 826 C 109.228 -8.33398 3.83019 0
M  V30 827 O 108.172 -8.10074 3.01034 0
M  V30 828 C 110.446 -7.65514 3.2257 0
M  V30 829 O 111.184 -8.4329 2.32297 0
M  V30 830 C 109.777 -6.40075 2.62207 0
M  V30 831 O 110.576 -5.92589 1.53712 0
M  V30 832 C 108.44 -6.9454 2.18503 0
M  V30 833 H 108.472 -7.23063 1.12091 0
M  V30 834 H 109.655 -5.6025 3.37201 0
M  V30 835 H 111.139 -7.35707 4.02681 0
M  V30 836 H 109.445 -9.40912 3.9095 0
M  V30 837 H 109.255 -8.29056 5.99158 0
M  V30 838 H 107.625 -8.10073 5.25882 0
M  V30 839 H 110.264 -6.30324 0.726794 0
M  V30 840 P 112.122 -8.4349 2.47671 0
M  V30 841 O 113.543 -8.94263 2.59668 0
M  V30 842 O 111.762 -7.1704 3.19006 0
M  V30 843 O 111.799 -8.16596 0.923387 0
M  V30 844 C 111.638 -9.38537 0.108869 0
M  V30 845 C 112.179 -9.08175 -1.28353 0
M  V30 846 O 111.124 -8.44131 -1.84692 0
M  V30 847 C 113.397 -8.18386 -1.42505 0
M  V30 848 O 114.135 -8.3501 -2.60497 0
M  V30 849 C 112.729 -6.80225 -1.25468 0
M  V30 850 O 113.527 -5.81716 -1.90454 0
M  V30 851 C 111.391 -7.02416 -1.9168 0
M  V30 852 N 110.348 -6.31033 -1.20314 0
M  V30 853 C 110.517 -5.98817 0.0994088 0
M  V30 854 N 109.49 -5.35403 0.621694 0
M  V30 855 C 108.605 -5.25212 -0.43376 0
M  V30 856 C 107.338 -4.64602 -0.519722 0
M  V30 857 N 106.773 -4.7568 -1.76013 0
M  V30 858 C 107.375 -5.3653 -2.83017 0
M  V30 859 N 108.552 -5.93676 -2.79782 0
M  V30 860 C 109.127 -5.84061 -1.56249 0
M  V30 861 H 112.606 -6.53498 -0.198729 0
M  V30 862 H 114.089 -8.36622 -0.589963 0
M  V30 863 H 112.395 -10.0273 -1.8081 0
M  V30 864 H 112.205 -10.2138 0.558219 0
M  V30 865 H 110.575 -9.6579 0.0444202 0
M  V30 866 H 111.417 -6.23209 0.660562 0
M  V30 867 H 113.215 -5.69466 -2.79593 0
M  V30 868 P 115.072 -8.4349 -2.47671 0
M  V30 869 O 116.494 -8.92593 -2.65 0
M  V30 870 O 114.712 -7.7568 -1.19296 0
M  V30 871 O 114.749 -7.36886 -3.63805 0
M  V30 872 C 114.589 -7.95349 -4.982 0
M  V30 873 C 115.129 -6.94612 -5.98974 0
M  V30 874 O 114.073 -6.10347 -6.11815 0
M  V30 875 C 116.347 -6.11426 -5.62335 0
M  V30 876 O 117.085 -5.6162 -6.70584 0
M  V30 877 C 115.678 -5.04409 -4.73308 0
M  V30 878 O 116.477 -3.85992 -4.75183 0
M  V30 879 C 114.341 -4.8728 -5.41006 0
M  V30 880 H 114.373 -4.02333 -6.11157 0
M  V30 881 H 115.556 -5.39466 -3.69543 0
M  V30 882 H 117.04 -6.71916 -5.01943 0
M  V30 883 H 115.346 -7.4649 -6.93477 0
M  V30 884 H 115.156 -8.89416 -5.05237 0
M  V30 885 H 113.526 -8.14876 -5.18409 0
M  V30 886 H 116.165 -3.27957 -5.4317 0
M  V30 887 P 118.023 -5.75688 -6.64379 0
M  V30 888 O 119.445 -6.07627 -7.05504 0
M  V30 889 O 117.663 -5.88047 -5.19722 0
M  V30 890 O 117.7 -4.2322 -7.04443 0
M  V30 891 C 117.54 -3.99743 -8.4911 0
M  V30 892 C 118.08 -2.60516 -8.79425 0
M  V30 893 O 117.024 -1.82684 -8.4467 0
M  V30 894 C 119.298 -2.10343 -8.03628 0
M  V30 895 O 120.036 -1.09919 -8.67766 0
M  V30 896 C 118.629 -1.68446 -6.70876 0
M  V30 897 O 119.428 -0.678137 -6.08433 0
M  V30 898 C 117.292 -1.17436 -7.18567 0
M  V30 899 H 117.324 -0.0804732 -7.31656 0
M  V30 900 H 118.507 -2.54037 -6.02537 0
M  V30 901 H 119.991 -2.93881 -7.85526 0
M  V30 902 H 118.297 -2.53065 -9.86973 0
M  V30 903 H 118.107 -4.75072 -9.05887 0
M  V30 904 H 116.477 -4.05244 -8.76668 0
M  V30 905 H 119.116 0.177647 -6.34251 0
M  V30 906 P 120.973 -1.25109 -8.70152 0
M  V30 907 O 122.395 -1.29744 -9.22016 0
M  V30 908 O 120.613 -2.13714 -7.55141 0
M  V30 909 O 120.65 0.248149 -8.21425 0
M  V30 910 C 120.49 1.22779 -9.30434 0
M  V30 911 C 121.03 2.56293 -8.80664 0
M  V30 912 O 119.974 3.02979 -8.09349 0
M  V30 913 C 122.248 2.57523 -7.89775 0
M  V30 914 O 122.986 3.7668 -7.89438 0
M  V30 915 C 121.579 2.20997 -6.55446 0
M  V30 916 O 122.378 2.71895 -5.48509 0
M  V30 917 C 120.242 2.89693 -6.67988 0
M  V30 918 H 120.274 3.88793 -6.19859 0
M  V30 919 H 121.457 1.12046 -6.44229 0
M  V30 920 H 122.941 1.7746 -8.19711 0
M  V30 921 H 121.247 3.20706 -9.67112 0
M  V30 922 H 121.057 0.901032 -10.1892 0
M  V30 923 H 119.427 1.33049 -9.56592 0
M  V30 924 H 122.066 3.57847 -5.23962 0
M  V30 925 P 123.924 3.65191 -7.99657 0
M  V30 926 O 125.346 3.89332 -8.45794 0
M  V30 927 O 123.564 2.28472 -7.50807 0
M  V30 928 O 123.601 4.64972 -6.77611 0
M  V30 929 C 123.441 6.06319 -7.16352 0
M  V30 930 C 123.981 6.91731 -6.02299 0
M  V30 931 O 122.925 6.92449 -5.17064 0
M  V30 932 C 125.199 6.43627 -5.25174 0
M  V30 933 O 125.937 7.43686 -4.60469 0
M  V30 934 C 124.53 5.40275 -4.31916 0
M  V30 935 O 125.329 5.25279 -3.14438 0
M  V30 936 C 123.193 6.04847 -4.05327 0
M  V30 937 H 123.225 6.62195 -3.11261 0
M  V30 938 H 124.408 4.42556 -4.81383 0
M  V30 939 H 125.892 5.92458 -5.93643 0
M  V30 940 H 124.198 7.92655 -6.402 0
M  V30 941 H 124.008 6.26671 -8.0846 0
M  V30 942 H 122.378 6.29101 -7.32804 0
M  V30 943 H 125.017 5.84315 -2.47318 0
M  V30 944 P 126.875 7.39546 -4.75277 0
M  V30 945 O 128.297 7.84798 -5.01039 0
M  V30 946 O 126.515 5.9812 -5.08098 0
M  V30 947 O 126.552 7.57503 -3.1866 0
M  V30 948 C 126.392 8.97357 -2.74833 0
M  V30 949 C 126.932 9.07548 -1.32709 0
M  V30 950 O 125.876 8.62072 -0.606159 0
M  V30 951 C 128.15 8.25383 -0.938334 0
M  V30 952 O 128.888 8.74577 0.146954 0
M  V30 953 C 127.481 6.8802 -0.712559 0
M  V30 954 O 128.28 6.1189 0.194655 0
M  V30 955 C 126.144 7.27966 -0.139777 0
M  V30 956 H 126.176 7.25354 0.961601 0
M  V30 957 H 127.359 6.32557 -1.65702 0
M  V30 958 H 128.843 8.19355 -1.79097 0
M  V30 959 H 127.149 10.1294 -1.10029 0
M  V30 960 H 126.959 9.64276 -3.41316 0
M  V30 961 H 125.329 9.25417 -2.76357 0
M  V30 962 H 127.968 6.25267 1.07847 0
M  V30 963 P 129.825 8.791 -1.02308e-13 0
M  V30 964 O 131.246 9.31196 0.027936 0
M  V30 965 O 129.465 7.77869 -1.04071 0
M  V30 966 O 129.502 8.09533 1.41463 0
M  V30 967 C 129.341 9.03587 2.5397 0
M  V30 968 C 129.882 8.35226 3.79016 0
M  V30 969 O 128.827 7.57904 4.1503 0
M  V30 970 C 131.1 7.45087 3.67298 0
M  V30 971 O 131.838 7.27796 4.85194 0
M  V30 972 C 130.432 6.17323 3.12027 0
M  V30 973 O 131.23 5.04496 3.46627 0
M  V30 974 C 129.094 6.19961 3.81809 0
M  V30 975 N 128.051 5.71575 2.93223 0
M  V30 976 C 128.22 5.77362 1.59168 0
M  V30 977 N 127.193 5.3123 0.911893 0
M  V30 978 C 126.308 4.91717 1.89588 0
M  V30 979 C 125.041 4.3114 1.8076 0
M  V30 980 N 124.476 4.06823 3.02898 0
M  V30 981 C 125.078 4.35062 4.22711 0
M  V30 982 N 126.255 4.90805 4.35707 0
M  V30 983 C 126.83 5.16382 3.14469 0
M  V30 984 H 130.309 6.21428 2.0318 0
M  V30 985 H 131.792 7.86112 2.9231 0
M  V30 986 H 130.098 9.11171 4.55987 0
M  V30 987 H 129.908 9.9573 2.34194 0
M  V30 988 H 128.278 9.2792 2.67832 0
M  V30 989 H 129.12 6.16575 1.12198 0
M  V30 990 H 130.918 4.67628 4.28704 0
M  V30 991 P 132.776 7.39546 4.75277 0
M  V30 992 O 134.198 7.81777 5.05738 0
M  V30 993 O 132.416 7.1065 3.32998 0
M  V30 994 O 132.453 6.04542 5.56673 0
M  V30 995 C 132.293 6.22772 7.02095 0
M  V30 996 C 132.833 4.97725 7.70406 0
M  V30 997 O 131.777 4.13256 7.58987 0
M  V30 998 C 134.051 4.28231 7.11815 0
M  V30 999 O 134.789 3.49945 8.01648 0
M  V30 1000 C 133.382 3.5063 5.96244 0
M  V30 1001 O 134.181 2.36482 5.64681 0
M  V30 1002 C 132.045 3.15122 6.56374 0
M  V30 1003 H 132.077 2.13853 6.99751 0
M  V30 1004 H 133.26 4.13501 5.06559 0
M  V30 1005 H 134.744 5.03285 6.70911 0
M  V30 1006 H 133.05 5.20877 8.75697 0
M  V30 1007 H 132.86 7.11046 7.35349 0
M  V30 1008 H 131.23 6.35815 7.26986 0
M  V30 1009 H 133.869 1.61644 6.13565 0
M  V30 1010 P 135.726 3.65191 7.99657 0
M  V30 1011 O 137.147 3.84292 8.48206 0
M  V30 1012 O 135.366 4.17805 6.64342 0
M  V30 1013 O 135.403 2.07613 7.95143 0
M  V30 1014 C 135.242 1.44344 9.27435 0
M  V30 1015 C 135.783 0.0220036 9.17197 0
M  V30 1016 O 134.728 -0.626794 8.61824 0
M  V30 1017 C 137.001 -0.24586 8.30336 0
M  V30 1018 O 137.739 -1.39011 8.63583 0
M  V30 1019 C 136.333 -0.273849 6.91158 0
M  V30 1020 O 137.131 -1.05728 6.029 0
M  V30 1021 C 134.995 -0.897649 7.22545 0
M  V30 1022 N 133.952 -0.292839 6.41732 0
M  V30 1023 C 134.121 0.950603 5.91308 0
M  V30 1024 N 133.094 1.37732 5.21105 0
M  V30 1025 C 132.209 0.318109 5.26039 0
M  V30 1026 C 130.942 0.146766 4.6727 0
M  V30 1027 N 130.377 -1.06525 4.95887 0
M  V30 1028 C 130.979 -2.0378 5.71347 0
M  V30 1029 N 132.156 -1.92445 6.27451 0
M  V30 1030 C 132.731 -0.715382 6.00353 0
M  V30 1031 H 136.21 0.733318 6.49674 0
M  V30 1032 H 137.693 0.60668 8.36503 0
M  V30 1033 H 135.999 -0.362662 10.1825 0
M  V30 1034 H 135.809 2.00611 10.0304 0
M  V30 1035 H 134.179 1.41843 9.55327 0
M  V30 1036 H 135.021 1.54076 6.07465 0
M  V30 1037 H 136.819 -1.95704 6.0346 0
M  V30 1038 P 138.677 -1.25109 8.70152 0
M  V30 1039 O 140.099 -1.35274 9.21221 0
M  V30 1040 O 138.317 -0.0769065 7.84762 0
M  V30 1041 O 138.354 -2.55232 7.81161 0
M  V30 1042 C 138.194 -3.79939 8.58154 0
M  V30 1043 C 138.734 -4.94023 7.72785 0
M  V30 1044 O 137.678 -5.18726 6.91205 0
M  V30 1045 C 139.952 -4.69597 6.85231 0
M  V30 1046 O 140.69 -5.83832 6.51337 0
M  V30 1047 C 139.283 -3.96706 5.66633 0
M  V30 1048 O 140.082 -4.15414 4.49689 0
M  V30 1049 C 137.946 -4.66153 5.59313 0
M  V30 1050 H 137.978 -5.47679 4.85214 0
M  V30 1051 H 139.161 -2.89008 5.86566 0
M  V30 1052 H 140.645 -4.0121 7.36511 0
M  V30 1053 H 138.951 -5.80182 8.37584 0
M  V30 1054 H 138.761 -3.73517 9.52265 0
M  V30 1055 H 137.131 -3.97163 8.80359 0
M  V30 1056 H 139.77 -4.90969 4.01921 0
M  V30 1057 P 141.627 -5.75688 6.64379 0
M  V30 1058 O 143.049 -6.11849 7.01846 0
M  V30 1059 O 141.267 -4.30744 6.56026 0
M  V30 1060 O 141.304 -6.37042 5.19165 0
M  V30 1061 C 141.144 -7.83578 5.16515 0
M  V30 1062 C 141.684 -8.33398 3.83019 0
M  V30 1063 O 140.628 -8.10074 3.01034 0
M  V30 1064 C 142.902 -7.65514 3.2257 0
M  V30 1065 O 143.64 -8.4329 2.32297 0
M  V30 1066 C 142.233 -6.40075 2.62207 0
M  V30 1067 O 143.032 -5.92589 1.53712 0
M  V30 1068 C 140.896 -6.9454 2.18503 0
M  V30 1069 H 140.928 -7.23063 1.12091 0
M  V30 1070 H 142.111 -5.6025 3.37201 0
M  V30 1071 H 143.595 -7.35707 4.02681 0
M  V30 1072 H 141.901 -9.40912 3.9095 0
M  V30 1073 H 141.711 -8.29056 5.99158 0
M  V30 1074 H 140.081 -8.10073 5.25882 0
M  V30 1075 H 142.72 -6.30324 0.726794 0
M  V30 1076 P 144.578 -8.4349 2.47671 0
M  V30 1077 O 146 -8.94167 2.5964 0
M  V30 1078 O 144.218 -7.1704 3.19006 0
M  V30 1079 O 144.255 -8.16596 0.923387 0
M  V30 1080 C 144.095 -9.38437 0.108857 0
M  V30 1081 C 144.635 -9.08175 -1.28353 0
M  V30 1082 O 143.579 -8.44229 -1.84713 0
M  V30 1083 C 145.853 -8.18386 -1.42505 0
M  V30 1084 O 146.591 -8.3501 -2.60497 0
M  V30 1085 C 145.184 -6.80225 -1.25468 0
M  V30 1086 O 145.983 -5.81621 -1.91066 0
M  V30 1087 C 143.847 -7.02416 -1.9168 0
M  V30 1088 H 143.879 -6.6888 -2.96621 0
M  V30 1089 H 145.062 -6.53617 -0.192223 0
M  V30 1090 H 146.546 -8.36622 -0.589963 0
M  V30 1091 H 144.852 -10.0291 -1.79807 0
M  V30 1092 H 144.662 -10.2138 0.558219 0
M  V30 1093 H 143.032 -9.6579 0.0444202 0
M  V30 1094 H 145.671 -5.69556 -2.79637 0
M  V30 1095 P 147.528 -8.4349 -2.47671 0
M  V30 1096 O 148.95 -8.92593 -2.65 0
M  V30 1097 O 147.168 -7.7568 -1.19296 0
M  V30 1098 O 147.205 -7.36886 -3.63805 0
M  V30 1099 C 147.045 -7.95349 -4.982 0
M  V30 1100 C 147.585 -6.94612 -5.98974 0
M  V30 1101 O 146.529 -6.10347 -6.11815 0
M  V30 1102 C 148.803 -6.11426 -5.62335 0
M  V30 1103 O 149.541 -5.6162 -6.70584 0
M  V30 1104 C 148.134 -5.04409 -4.73308 0
M  V30 1105 O 148.933 -3.85992 -4.75183 0
M  V30 1106 C 146.797 -4.8728 -5.41006 0
M  V30 1107 H 146.829 -4.02333 -6.11157 0
M  V30 1108 H 148.012 -5.39466 -3.69543 0
M  V30 1109 H 149.496 -6.71916 -5.01943 0
M  V30 1110 H 147.802 -7.4649 -6.93477 0
M  V30 1111 H 147.612 -8.89416 -5.05237 0
M  V30 1112 H 145.982 -8.14876 -5.18409 0
M  V30 1113 H 148.621 -3.27957 -5.4317 0
M  V30 1114 P 150.479 -5.75688 -6.64379 0
M  V30 1115 O 151.9 -6.07692 -7.0558 0
M  V30 1116 O 150.119 -5.88047 -5.19722 0
M  V30 1117 O 150.156 -4.2322 -7.04443 0
M  V30 1118 C 149.995 -3.99785 -8.49201 0
M  V30 1119 C 150.536 -2.60516 -8.79425 0
M  V30 1120 O 149.481 -1.82663 -8.44573 0
M  V30 1121 C 151.754 -2.10343 -8.03628 0
M  V30 1122 O 152.492 -1.09919 -8.67766 0
M  V30 1123 C 151.086 -1.68446 -6.70876 0
M  V30 1124 O 151.884 -0.684109 -6.08265 0
M  V30 1125 C 149.748 -1.17436 -7.18567 0
M  V30 1126 N 148.705 -1.52699 -6.23988 0
M  V30 1127 C 148.874 -2.578 -5.40574 0
M  V30 1128 N 147.847 -2.78966 -4.61193 0
M  V30 1129 C 146.962 -1.78725 -4.95769 0
M  V30 1130 C 145.695 -1.45727 -4.44207 0
M  V30 1131 N 145.13 -0.374977 -5.05812 0
M  V30 1132 C 145.732 0.345585 -6.05615 0
M  V30 1133 N 146.909 0.0787651 -6.56253 0
M  V30 1134 C 147.484 -1.00499 -5.96189 0
M  V30 1135 H 150.963 -2.53396 -6.02698 0
M  V30 1136 H 152.446 -2.93881 -7.85526 0
M  V30 1137 H 150.752 -2.52078 -9.87225 0
M  V30 1138 H 150.562 -4.75072 -9.05887 0
M  V30 1139 H 148.932 -4.05244 -8.76668 0
M  V30 1140 H 149.774 -3.18977 -5.3945 0
M  V30 1141 H 151.572 0.177619 -6.34151 0
M  V30 1142 P 153.43 -1.25109 -8.70152 0
M  V30 1143 O 154.852 -1.29744 -9.22016 0
M  V30 1144 O 153.07 -2.13714 -7.55141 0
M  V30 1145 O 153.107 0.248149 -8.21425 0
M  V30 1146 C 152.947 1.22779 -9.30434 0
M  V30 1147 C 153.487 2.56293 -8.80664 0
M  V30 1148 O 152.431 3.02979 -8.09349 0
M  V30 1149 C 154.705 2.57523 -7.89775 0
M  V30 1150 O 155.443 3.7668 -7.89438 0
M  V30 1151 C 154.036 2.20997 -6.55446 0
M  V30 1152 O 154.835 2.71895 -5.48509 0
M  V30 1153 C 152.699 2.89693 -6.67988 0
M  V30 1154 H 152.731 3.88793 -6.19859 0
M  V30 1155 H 153.914 1.12046 -6.44229 0
M  V30 1156 H 155.398 1.7746 -8.19711 0
M  V30 1157 H 153.704 3.20706 -9.67112 0
M  V30 1158 H 153.514 0.901032 -10.1892 0
M  V30 1159 H 151.884 1.33049 -9.56592 0
M  V30 1160 H 154.523 3.57847 -5.23962 0
M  V30 1161 P 156.38 3.65191 -7.99657 0
M  V30 1162 O 157.781 3.87414 -8.52829 0
M  V30 1163 O 156.002 2.26932 -7.566 0
M  V30 1164 O 156.057 4.64915 -6.77529 0
M  V30 1165 C 155.897 6.06319 -7.16352 0
M  V30 1166 C 156.437 6.91655 -6.02234 0
M  V30 1167 O 155.381 6.92369 -5.17005 0
M  V30 1168 C 157.654 6.43627 -5.25174 0
M  V30 1169 O 158.393 7.43686 -4.60469 0
M  V30 1170 C 156.987 5.40275 -4.31916 0
M  V30 1171 O 157.785 5.25193 -3.14386 0
M  V30 1172 C 155.649 6.04847 -4.05327 0
M  V30 1173 N 154.606 5.04166 -3.98114 0
M  V30 1174 C 153.571 5.2366 -3.09923 0
M  V30 1175 O 153.61 6.23355 -2.34204 0
M  V30 1176 N 152.559 4.34279 -3.05727 0
M  V30 1177 C 152.607 3.26317 -3.84756 0
M  V30 1178 C 153.703 3.02504 -4.72573 0
M  V30 1179 C 154.669 3.94493 -4.76618 0
M  V30 1180 H 155.681 6.62104 -3.11218 0
M  V30 1181 H 156.864 4.42969 -4.80867 0
M  V30 1182 H 158.348 5.93122 -5.93121 0
M  V30 1183 H 156.654 7.93295 -6.39407 0
M  V30 1184 H 156.463 6.26671 -8.0846 0
M  V30 1185 H 154.833 6.29036 -7.32728 0
M  V30 1186 H 153.751 2.12921 -5.34017 0
M  V30 1187 H 155.515 3.80658 -5.44176 0
M  V30 1188 H 157.569 5.93572 -2.52637 0
M  V30 1189 P 159.331 7.39546 -4.75277 0
M  V30 1190 O 160.753 7.84966 -5.01146 0
M  V30 1191 O 158.971 5.9812 -5.08098 0
M  V30 1192 O 159.008 7.57503 -3.1866 0
M  V30 1193 C 158.848 8.97357 -2.74833 0
M  V30 1194 C 159.388 9.0745 -1.32694 0
M  V30 1195 O 158.333 8.62072 -0.606159 0
M  V30 1196 C 160.606 8.25383 -0.938334 0
M  V30 1197 O 161.344 8.74577 0.146954 0
M  V30 1198 C 159.938 6.8802 -0.712559 0
M  V30 1199 O 160.736 6.11791 0.194623 0
M  V30 1200 C 158.6 7.27966 -0.139777 0
M  V30 1201 N 157.557 6.39368 -0.623421 0
M  V30 1202 C 157.619 5.90299 -1.85969 0
M  V30 1203 N 156.574 5.10919 -2.1133 0
M  V30 1204 C 155.84 5.14646 -1.0015 0
M  V30 1205 C 154.534 4.60057 -0.729219 0
M  V30 1206 O 153.801 3.93476 -1.47746 0
M  V30 1207 N 154.104 4.88302 0.523505 0
M  V30 1208 C 154.853 5.63646 1.46207 0
M  V30 1209 N 154.256 5.78186 2.69239 0
M  V30 1210 N 156.006 6.19285 1.21544 0
M  V30 1211 C 156.463 5.93392 -0.0308487 0
M  V30 1212 H 158.632 7.25354 0.961601 0
M  V30 1213 H 159.815 6.3246 -1.65676 0
M  V30 1214 H 161.3 8.19533 -1.78278 0
M  V30 1215 H 159.605 10.1294 -1.10029 0
M  V30 1216 H 159.415 9.64276 -3.41316 0
M  V30 1217 H 157.784 9.25417 -2.76357 0
M  V30 1218 H 153.208 4.53993 0.806451 0
M  V30 1219 H 158.415 6.11865 -2.57394 0
M  V30 1220 H 153.345 5.34046 2.87467 0
M  V30 1221 H 154.721 6.33391 3.42578 0
M  V30 1222 H 160.425 6.25169 1.0783 0
M  V30 1223 P 162.281 8.791 -1.35693e-13 0
M  V30 1224 O 163.703 9.31296 0.027939 0
M  V30 1225 O 161.921 7.77869 -1.04071 0
M  V30 1226 O 161.958 8.09533 1.41463 0
M  V30 1227 C 161.798 9.0349 2.53943 0
M  V30 1228 C 162.338 8.35135 3.78975 0
M  V30 1229 O 161.283 7.57992 4.15078 0
M  V30 1230 C 163.556 7.45087 3.67298 0
M  V30 1231 O 164.294 7.27796 4.85194 0
M  V30 1232 C 162.888 6.17323 3.12027 0
M  V30 1233 O 163.686 5.04149 3.47132 0
M  V30 1234 C 161.55 6.19961 3.81809 0
M  V30 1235 N 160.507 5.71575 2.93223 0
M  V30 1236 C 160.569 5.97133 1.62693 0
M  V30 1237 N 159.524 5.44066 0.984414 0
M  V30 1238 C 158.79 4.87093 1.93987 0
M  V30 1239 C 157.484 4.26449 1.8738 0
M  V30 1240 O 156.751 4.1089 0.884377 0
M  V30 1241 N 157.054 3.82483 3.08036 0
M  V30 1242 C 157.803 3.95124 4.27727 0
M  V30 1243 N 157.206 3.4084 5.39089 0
M  V30 1244 N 158.956 4.55264 4.3706 0
M  V30 1245 C 159.413 5.00861 3.18217 0
M  V30 1246 H 161.582 5.58218 4.73051 0
M  V30 1247 H 162.765 6.21631 2.02558 0
M  V30 1248 H 164.25 7.85819 2.93096 0
M  V30 1249 H 162.555 9.11627 4.55076 0
M  V30 1250 H 162.365 9.9573 2.34194 0
M  V30 1251 H 160.734 9.2792 2.67832 0
M  V30 1252 H 156.158 3.38323 3.1329 0
M  V30 1253 H 161.365 6.53891 1.14265 0
M  V30 1254 H 156.295 2.93852 5.30559 0
M  V30 1255 H 157.671 3.47631 6.30632 0
M  V30 1256 H 163.375 4.67628 4.28704 0
M  V30 1257 P 165.232 7.39546 4.75277 0
M  V30 1258 O 166.654 7.81945 5.05847 0
M  V30 1259 O 164.872 7.1065 3.32998 0
M  V30 1260 O 164.909 6.04542 5.56673 0
M  V30 1261 C 164.749 6.22772 7.02095 0
M  V30 1262 C 165.289 4.97671 7.70322 0
M  V30 1263 O 164.234 4.13256 7.58987 0
M  V30 1264 C 166.507 4.28231 7.11815 0
M  V30 1265 O 167.245 3.49945 8.01648 0
M  V30 1266 C 165.839 3.5063 5.96244 0
M  V30 1267 O 166.637 2.36443 5.64589 0
M  V30 1268 C 164.501 3.15122 6.56374 0
M  V30 1269 N 163.458 3.22311 5.55692 0
M  V30 1270 C 163.52 4.14382 4.59701 0
M  V30 1271 N 162.475 4.04476 3.76958 0
M  V30 1272 C 161.741 3.04892 4.26534 0
M  V30 1273 C 160.435 2.57447 3.88189 0
M  V30 1274 O 159.702 2.9785 2.96543 0
M  V30 1275 N 160.005 1.55228 4.65922 0
M  V30 1276 C 160.754 1.01152 5.73447 0
M  V30 1277 N 160.157 -0.0472117 6.37783 0
M  V30 1278 N 161.907 1.467 6.13813 0
M  V30 1279 C 162.364 2.4931 5.38487 0
M  V30 1280 H 164.533 2.13853 6.99751 0
M  V30 1281 H 165.716 4.13438 5.06482 0
M  V30 1282 H 167.201 5.02614 6.71414 0
M  V30 1283 H 165.506 5.20877 8.75697 0
M  V30 1284 H 165.316 7.11046 7.35349 0
M  V30 1285 H 163.685 6.35815 7.26986 0
M  V30 1286 H 159.109 1.15238 4.46468 0
M  V30 1287 H 164.316 4.88312 4.49647 0
M  V30 1288 H 159.246 -0.396382 6.05203 0
M  V30 1289 H 160.622 -0.484997 7.18465 0
M  V30 1290 H 166.326 1.61619 6.13468 0
M  V30 1291 P 168.182 3.65191 7.99657 0
M  V30 1292 O 169.604 3.8425 8.48115 0
M  V30 1293 O 167.822 4.17805 6.64342 0
M  V30 1294 O 167.859 2.07613 7.95143 0
M  V30 1295 C 167.699 1.44328 9.27336 0
M  V30 1296 C 168.239 0.0220036 9.17197 0
M  V30 1297 O 167.183 -0.626867 8.61923 0
M  V30 1298 C 169.457 -0.24586 8.30336 0
M  V30 1299 O 170.195 -1.39011 8.63583 0
M  V30 1300 C 168.788 -0.273849 6.91158 0
M  V30 1301 O 169.587 -1.06348 6.02892 0
M  V30 1302 C 167.451 -0.897649 7.22545 0
M  V30 1303 H 167.483 -1.9841 7.04286 0
M  V30 1304 H 168.666 0.739928 6.497 0
M  V30 1305 H 170.15 0.60668 8.36503 0
M  V30 1306 H 168.456 -0.352479 10.1829 0
M  V30 1307 H 168.266 2.00611 10.0304 0
M  V30 1308 H 166.636 1.41843 9.55327 0
M  V30 1309 H 169.275 -1.95734 6.03555 0
M  V30 1310 P 171.133 -1.25109 8.70152 0
M  V30 1311 O 172.555 -1.35303 9.21419 0
M  V30 1312 O 170.773 -0.0769065 7.84762 0
M  V30 1313 O 170.81 -2.55232 7.81161 0
M  V30 1314 C 170.65 -3.79939 8.58154 0
M  V30 1315 C 171.19 -4.93969 7.72701 0
M  V30 1316 O 170.135 -5.18726 6.91205 0
M  V30 1317 C 172.408 -4.69597 6.85231 0
M  V30 1318 O 173.146 -5.83832 6.51337 0
M  V30 1319 C 171.74 -3.96706 5.66633 0
M  V30 1320 O 172.538 -4.15346 4.49615 0
M  V30 1321 C 170.402 -4.66153 5.59313 0
M  V30 1322 N 169.359 -3.71582 5.24027 0
M  V30 1323 C 169.421 -2.46018 5.67902 0
M  V30 1324 N 168.376 -1.74868 5.24518 0
M  V30 1325 C 167.642 -2.61333 4.54528 0
M  V30 1326 C 166.336 -2.46162 3.95441 0
M  V30 1327 O 165.603 -1.46013 3.94122 0
M  V30 1328 N 165.906 -3.59334 3.34752 0
M  V30 1329 C 166.655 -4.79605 3.3023 0
M  V30 1330 N 166.058 -5.82109 2.6065 0
M  V30 1331 N 167.808 -4.97402 3.8843 0
M  V30 1332 C 168.265 -3.86258 4.50476 0
M  V30 1333 H 170.434 -5.47679 4.85214 0
M  V30 1334 H 171.617 -2.88964 5.86476 0
M  V30 1335 H 173.102 -4.01947 7.36109 0
M  V30 1336 H 171.407 -5.80182 8.37584 0
M  V30 1337 H 171.217 -3.73517 9.52265 0
M  V30 1338 H 169.586 -3.97163 8.80359 0
M  V30 1339 H 165.01 -3.5825 2.90294 0
M  V30 1340 H 170.217 -2.06161 6.30974 0
M  V30 1341 H 165.147 -5.66979 2.15354 0
M  V30 1342 H 166.523 -6.73686 2.54344 0
M  V30 1343 H 172.227 -4.90891 4.01857 0
M  V30 1344 P 174.084 -5.75688 6.64379 0
M  V30 1345 O 175.506 -6.11849 7.01846 0
M  V30 1346 O 173.724 -4.30744 6.56026 0
M  V30 1347 O 173.761 -6.37042 5.19165 0
M  V30 1348 C 173.601 -7.83578 5.16515 0
M  V30 1349 C 174.141 -8.33398 3.83019 0
M  V30 1350 O 173.085 -8.10074 3.01034 0
M  V30 1351 C 175.359 -7.65514 3.2257 0
M  V30 1352 O 176.097 -8.4329 2.32297 0
M  V30 1353 C 174.69 -6.40075 2.62207 0
M  V30 1354 O 175.489 -5.92589 1.53712 0
M  V30 1355 C 173.353 -6.9454 2.18503 0
M  V30 1356 H 173.385 -7.23063 1.12091 0
M  V30 1357 H 174.568 -5.6025 3.37201 0
M  V30 1358 H 176.052 -7.35707 4.02681 0
M  V30 1359 H 174.358 -9.40912 3.9095 0
M  V30 1360 H 174.168 -8.29056 5.99158 0
M  V30 1361 H 172.538 -8.10073 5.25882 0
M  V30 1362 H 175.177 -6.30324 0.726794 0
M  V30 1363 P 177.034 -8.4349 2.47671 0
M  V30 1364 O 178.456 -8.94167 2.5964 0
M  V30 1365 O 176.674 -7.1704 3.19006 0
M  V30 1366 O 176.711 -8.16596 0.923387 0
M  V30 1367 C 176.551 -9.38437 0.108857 0
M  V30 1368 C 177.091 -9.08175 -1.28353 0
M  V30 1369 O 176.035 -8.44229 -1.84713 0
M  V30 1370 C 178.309 -8.18386 -1.42505 0
M  V30 1371 O 179.047 -8.3501 -2.60497 0
M  V30 1372 C 177.64 -6.80225 -1.25468 0
M  V30 1373 O 178.439 -5.81621 -1.91066 0
M  V30 1374 C 176.303 -7.02416 -1.9168 0
M  V30 1375 H 176.335 -6.6888 -2.96621 0
M  V30 1376 H 177.518 -6.53617 -0.192223 0
M  V30 1377 H 179.002 -8.36622 -0.589963 0
M  V30 1378 H 177.308 -10.0291 -1.79807 0
M  V30 1379 H 177.118 -10.2138 0.558219 0
M  V30 1380 H 175.488 -9.6579 0.0444202 0
M  V30 1381 H 178.127 -5.69556 -2.79637 0
M  V30 1382 P 179.985 -8.4349 -2.47671 0
M  V30 1383 O 181.407 -8.92593 -2.65 0
M  V30 1384 O 179.625 -7.7568 -1.19296 0
M  V30 1385 O 179.662 -7.36886 -3.63805 0
M  V30 1386 C 179.502 -7.95349 -4.982 0
M  V30 1387 C 180.042 -6.94612 -5.98974 0
M  V30 1388 O 178.986 -6.10347 -6.11815 0
M  V30 1389 C 181.26 -6.11426 -5.62335 0
M  V30 1390 O 181.998 -5.6162 -6.70584 0
M  V30 1391 C 180.591 -5.04409 -4.73308 0
M  V30 1392 O 181.39 -3.85992 -4.75183 0
M  V30 1393 C 179.254 -4.8728 -5.41006 0
M  V30 1394 H 179.286 -4.02333 -6.11157 0
M  V30 1395 H 180.469 -5.39466 -3.69543 0
M  V30 1396 H 181.953 -6.71916 -5.01943 0
M  V30 1397 H 180.259 -7.4649 -6.93477 0
M  V30 1398 H 180.069 -8.89416 -5.05237 0
M  V30 1399 H 178.439 -8.14876 -5.18409 0
M  V30 1400 H 181.078 -3.27957 -5.4317 0
M  V30 1401 P 182.935 -5.75688 -6.64379 0
M  V30 1402 O 184.357 -6.07627 -7.05504 0
M  V30 1403 O 182.575 -5.88047 -5.19722 0
M  V30 1404 O 182.612 -4.2322 -7.04443 0
M  V30 1405 C 182.452 -3.99743 -8.4911 0
M  V30 1406 C 182.992 -2.60516 -8.79425 0
M  V30 1407 O 181.936 -1.82684 -8.4467 0
M  V30 1408 C 184.21 -2.10343 -8.03628 0
M  V30 1409 O 184.948 -1.09919 -8.67766 0
M  V30 1410 C 183.541 -1.68446 -6.70876 0
M  V30 1411 O 184.34 -0.678137 -6.08433 0
M  V30 1412 C 182.204 -1.17436 -7.18567 0
M  V30 1413 H 182.236 -0.0804732 -7.31656 0
M  V30 1414 H 183.419 -2.54037 -6.02537 0
M  V30 1415 H 184.903 -2.93881 -7.85526 0
M  V30 1416 H 183.209 -2.53065 -9.86973 0
M  V30 1417 H 183.019 -4.75072 -9.05887 0
M  V30 1418 H 181.389 -4.05244 -8.76668 0
M  V30 1419 H 184.028 0.177647 -6.34251 0
M  V30 1420 P 185.886 -1.25109 -8.70152 0
M  V30 1421 O 187.308 -1.29744 -9.22016 0
M  V30 1422 O 185.526 -2.13714 -7.55141 0
M  V30 1423 O 185.563 0.248149 -8.21425 0
M  V30 1424 C 185.403 1.22779 -9.30434 0
M  V30 1425 C 185.943 2.56293 -8.80664 0
M  V30 1426 O 184.887 3.02979 -8.09349 0
M  V30 1427 C 187.161 2.57523 -7.89775 0
M  V30 1428 O 187.899 3.7668 -7.89438 0
M  V30 1429 C 186.492 2.20997 -6.55446 0
M  V30 1430 O 187.291 2.71895 -5.48509 0
M  V30 1431 C 185.155 2.89693 -6.67988 0
M  V30 1432 H 185.187 3.88793 -6.19859 0
M  V30 1433 H 186.37 1.12046 -6.44229 0
M  V30 1434 H 187.854 1.7746 -8.19711 0
M  V30 1435 H 186.16 3.20706 -9.67112 0
M  V30 1436 H 185.97 0.901032 -10.1892 0
M  V30 1437 H 184.34 1.33049 -9.56592 0
M  V30 1438 H 186.979 3.57847 -5.23962 0
M  V30 1439 P 188.836 3.65191 -7.99657 0
M  V30 1440 O 190.258 3.89332 -8.45794 0
M  V30 1441 O 188.476 2.28472 -7.50807 0
M  V30 1442 O 188.513 4.64972 -6.77611 0
M  V30 1443 C 188.353 6.06319 -7.16352 0
M  V30 1444 C 188.893 6.91731 -6.02299 0
M  V30 1445 O 187.837 6.92449 -5.17064 0
M  V30 1446 C 190.111 6.43627 -5.25174 0
M  V30 1447 O 190.849 7.43686 -4.60469 0
M  V30 1448 C 189.442 5.40275 -4.31916 0
M  V30 1449 O 190.241 5.25279 -3.14438 0
M  V30 1450 C 188.105 6.04847 -4.05327 0
M  V30 1451 H 188.137 6.62195 -3.11261 0
M  V30 1452 H 189.32 4.42556 -4.81383 0
M  V30 1453 H 190.804 5.92458 -5.93643 0
M  V30 1454 H 189.11 7.92655 -6.402 0
M  V30 1455 H 188.92 6.26671 -8.0846 0
M  V30 1456 H 187.29 6.29101 -7.32804 0
M  V30 1457 H 189.929 5.84315 -2.47318 0
M  V30 1458 P 191.787 7.39546 -4.75277 0
M  V30 1459 O 193.209 7.84798 -5.01039 0
M  V30 1460 O 191.427 5.9812 -5.08098 0
M  V30 1461 O 191.464 7.57503 -3.1866 0
M  V30 1462 C 191.304 8.97357 -2.74833 0
M  V30 1463 C 191.844 9.07548 -1.32709 0
M  V30 1464 O 190.788 8.62072 -0.606159 0
M  V30 1465 C 193.062 8.25383 -0.938334 0
M  V30 1466 O 193.8 8.74577 0.146954 0
M  V30 1467 C 192.393 6.8802 -0.712559 0
M  V30 1468 O 193.192 6.1189 0.194655 0
M  V30 1469 C 191.056 7.27966 -0.139777 0
M  V30 1470 H 191.088 7.25354 0.961601 0
M  V30 1471 H 192.271 6.32557 -1.65702 0
M  V30 1472 H 193.755 8.19355 -1.79097 0
M  V30 1473 H 192.061 10.1294 -1.10029 0
M  V30 1474 H 191.871 9.64276 -3.41316 0
M  V30 1475 H 190.241 9.25417 -2.76357 0
M  V30 1476 H 192.88 6.25267 1.07847 0
M  V30 1477 P 194.738 8.791 1.12009e-13 0
M  V30 1478 O 196.16 9.31096 0.027933 0
M  V30 1479 O 194.378 7.77869 -1.04071 0
M  V30 1480 O 194.415 8.09533 1.41463 0
M  V30 1481 C 194.255 9.0349 2.53943 0
M  V30 1482 C 194.795 8.35226 3.79016 0
M  V30 1483 O 193.739 7.57992 4.15078 0
M  V30 1484 C 196.013 7.45087 3.67298 0
M  V30 1485 O 196.751 7.27796 4.85194 0
M  V30 1486 C 195.344 6.17323 3.12027 0
M  V30 1487 O 196.143 5.04231 3.47188 0
M  V30 1488 C 194.007 6.19961 3.81809 0
M  V30 1489 H 194.039 5.58218 4.73051 0
M  V30 1490 H 195.222 6.21726 2.02589 0
M  V30 1491 H 196.706 7.86112 2.9231 0
M  V30 1492 H 195.012 9.11627 4.55076 0
M  V30 1493 H 194.822 9.9573 2.34194 0
M  V30 1494 H 193.192 9.2792 2.67832 0
M  V30 1495 H 195.831 4.67702 4.28772 0
M  V30 1496 P 197.688 7.39546 4.75277 0
M  V30 1497 O 199.109 7.81861 5.05793 0
M  V30 1498 O 197.328 7.1065 3.32998 0
M  V30 1499 O 197.365 6.04542 5.56673 0
M  V30 1500 C 197.204 6.22839 7.02169 0
M  V30 1501 C 197.745 4.97725 7.70406 0
M  V30 1502 O 196.69 4.13208 7.58899 0
M  V30 1503 C 198.963 4.28231 7.11815 0
M  V30 1504 O 199.701 3.49945 8.01648 0
M  V30 1505 C 198.295 3.5063 5.96244 0
M  V30 1506 O 199.093 2.37008 5.64352 0
M  V30 1507 C 196.957 3.15122 6.56374 0
M  V30 1508 N 195.914 3.22311 5.55692 0
M  V30 1509 C 196.083 3.99655 4.46046 0
M  V30 1510 N 195.056 3.97599 3.63918 0
M  V30 1511 C 194.171 3.11159 4.25334 0
M  V30 1512 C 192.904 2.64972 3.85157 0
M  V30 1513 N 192.339 1.78482 4.74759 0
M  V30 1514 C 192.941 1.37463 5.90819 0
M  V30 1515 N 194.118 1.7733 6.31889 0
M  V30 1516 C 194.693 2.64393 5.43725 0
M  V30 1517 H 198.172 4.12931 5.06895 0
M  V30 1518 H 199.655 5.03285 6.70911 0
M  V30 1519 H 197.961 5.20001 8.76217 0
M  V30 1520 H 197.771 7.11046 7.35349 0
M  V30 1521 H 196.141 6.35815 7.26986 0
M  V30 1522 H 196.983 4.58037 4.27732 0
M  V30 1523 H 198.781 1.61619 6.13468 0
M  V30 1524 P 200.639 3.65191 7.99657 0
M  V30 1525 O 202.061 3.8425 8.48115 0
M  V30 1526 O 200.279 4.17805 6.64342 0
M  V30 1527 O 200.316 2.07613 7.95143 0
M  V30 1528 C 200.156 1.44328 9.27336 0
M  V30 1529 C 200.696 0.0220036 9.17197 0
M  V30 1530 O 199.64 -0.626867 8.61923 0
M  V30 1531 C 201.914 -0.24586 8.30336 0
M  V30 1532 O 202.652 -1.39011 8.63583 0
M  V30 1533 C 201.245 -0.273849 6.91158 0
M  V30 1534 O 202.044 -1.06348 6.02892 0
M  V30 1535 C 199.908 -0.897649 7.22545 0
M  V30 1536 H 199.94 -1.9841 7.04286 0
M  V30 1537 H 201.123 0.739928 6.497 0
M  V30 1538 H 202.607 0.60668 8.36503 0
M  V30 1539 H 200.913 -0.352479 10.1829 0
M  V30 1540 H 200.723 2.00611 10.0304 0
M  V30 1541 H 199.093 1.41843 9.55327 0
M  V30 1542 H 201.732 -1.95734 6.03555 0
M  V30 1543 P 203.589 -1.25109 8.70152 0
M  V30 1544 O 205.01 -1.35288 9.2132 0
M  V30 1545 O 203.229 -0.0769065 7.84762 0
M  V30 1546 O 203.266 -2.55232 7.81161 0
M  V30 1547 C 203.105 -3.79979 8.58246 0
M  V30 1548 C 203.646 -4.94023 7.72785 0
M  V30 1549 O 202.591 -5.18666 6.91125 0
M  V30 1550 C 204.864 -4.69597 6.85231 0
M  V30 1551 O 205.602 -5.83832 6.51337 0
M  V30 1552 C 204.196 -3.96706 5.66633 0
M  V30 1553 O 204.994 -4.14896 4.5003 0
M  V30 1554 C 202.858 -4.66153 5.59313 0
M  V30 1555 N 201.815 -3.71582 5.24027 0
M  V30 1556 C 201.984 -2.39715 5.48833 0
M  V30 1557 N 200.957 -1.65863 5.12845 0
M  V30 1558 C 200.072 -2.57637 4.5973 0
M  V30 1559 C 198.805 -2.40278 4.01027 0
M  V30 1560 N 198.206 -1.19549 3.86744 0
M  V30 1561 N 198.24 -3.57711 3.59575 0
M  V30 1562 C 198.842 -4.80324 3.70476 0
M  V30 1563 N 200.019 -5.01121 4.23801 0
M  V30 1564 C 200.594 -3.84757 4.66372 0
M  V30 1565 H 202.89 -5.47604 4.85148 0
M  V30 1566 H 204.073 -2.8955 5.86187 0
M  V30 1567 H 205.556 -4.0121 7.36511 0
M  V30 1568 H 203.862 -5.81019 8.37003 0
M  V30 1569 H 203.672 -3.73517 9.52265 0
M  V30 1570 H 202.042 -3.97163 8.80359 0
M  V30 1571 H 198.306 -5.66348 3.3183 0
M  V30 1572 H 202.884 -1.98804 5.94332 0
M  V30 1573 H 197.276 -1.13147 3.4281 0
M  V30 1574 H 198.68 -0.344074 4.19692 0
M  V30 1575 H 204.682 -4.90891 4.01857 0
M  V30 1576 P 206.54 -5.75688 6.64379 0
M  V30 1577 O 207.962 -6.11849 7.01846 0
M  V30 1578 O 206.18 -4.30744 6.56026 0
M  V30 1579 O 206.217 -6.37042 5.19165 0
M  V30 1580 C 206.057 -7.83578 5.16515 0
M  V30 1581 C 206.597 -8.33398 3.83019 0
M  V30 1582 O 205.541 -8.10074 3.01034 0
M  V30 1583 C 207.815 -7.65514 3.2257 0
M  V30 1584 O 208.553 -8.4329 2.32297 0
M  V30 1585 C 207.146 -6.40075 2.62207 0
M  V30 1586 O 207.945 -5.92589 1.53712 0
M  V30 1587 C 205.809 -6.9454 2.18503 0
M  V30 1588 H 205.841 -7.23063 1.12091 0
M  V30 1589 H 207.024 -5.6025 3.37201 0
M  V30 1590 H 208.508 -7.35707 4.02681 0
M  V30 1591 H 206.814 -9.40912 3.9095 0
M  V30 1592 H 206.624 -8.29056 5.99158 0
M  V30 1593 H 204.994 -8.10073 5.25882 0
M  V30 1594 H 207.633 -6.30324 0.726794 0
M  V30 1595 P 209.49 -8.4349 2.47671 0
M  V30 1596 O 210.912 -8.94167 2.5964 0
M  V30 1597 O 209.13 -7.1704 3.19006 0
M  V30 1598 O 209.167 -8.16596 0.923387 0
M  V30 1599 C 209.007 -9.38437 0.108857 0
M  V30 1600 C 209.547 -9.08175 -1.28353 0
M  V30 1601 O 208.491 -8.44229 -1.84713 0
M  V30 1602 C 210.765 -8.18386 -1.42505 0
M  V30 1603 O 211.503 -8.3501 -2.60497 0
M  V30 1604 C 210.096 -6.80225 -1.25468 0
M  V30 1605 O 210.895 -5.81621 -1.91066 0
M  V30 1606 C 208.759 -7.02416 -1.9168 0
M  V30 1607 H 208.791 -6.6888 -2.96621 0
M  V30 1608 H 209.974 -6.53617 -0.192223 0
M  V30 1609 H 211.458 -8.36622 -0.589963 0
M  V30 1610 H 209.764 -10.0291 -1.79807 0
M  V30 1611 H 209.574 -10.2138 0.558219 0
M  V30 1612 H 207.944 -9.6579 0.0444202 0
M  V30 1613 H 210.583 -5.69556 -2.79637 0
M  V30 1614 P 212.441 -8.4349 -2.47671 0
M  V30 1615 O 213.862 -8.92689 -2.65029 0
M  V30 1616 O 212.081 -7.7568 -1.19296 0
M  V30 1617 O 212.118 -7.36886 -3.63805 0
M  V30 1618 C 211.957 -7.95433 -4.98253 0
M  V30 1619 C 212.498 -6.94612 -5.98974 0
M  V30 1620 O 211.443 -6.10277 -6.11744 0
M  V30 1621 C 213.716 -6.11426 -5.62335 0
M  V30 1622 O 214.454 -5.6162 -6.70584 0
M  V30 1623 C 213.048 -5.04409 -4.73308 0
M  V30 1624 O 213.846 -3.86404 -4.74719 0
M  V30 1625 C 211.71 -4.8728 -5.41006 0
M  V30 1626 N 210.667 -4.65812 -4.42377 0
M  V30 1627 C 210.836 -5.09132 -3.15382 0
M  V30 1628 N 209.809 -4.84021 -2.3716 0
M  V30 1629 C 208.924 -4.18386 -3.20441 0
M  V30 1630 C 207.657 -3.6275 -2.94905 0
M  V30 1631 N 207.058 -3.65794 -1.73372 0
M  V30 1632 N 207.092 -3.05008 -4.05243 0
M  V30 1633 C 207.694 -2.98348 -5.28159 0
M  V30 1634 N 208.871 -3.48171 -5.56333 0
M  V30 1635 C 209.446 -4.06869 -4.47212 0
M  V30 1636 H 211.742 -4.02278 -6.11074 0
M  V30 1637 H 212.925 -5.39013 -3.70026 0
M  V30 1638 H 214.408 -6.71916 -5.01943 0
M  V30 1639 H 212.714 -7.45796 -6.94223 0
M  V30 1640 H 212.524 -8.89416 -5.05237 0
M  V30 1641 H 210.894 -8.14876 -5.18409 0
M  V30 1642 H 207.158 -2.47853 -6.07807 0
M  V30 1643 H 211.736 -5.59989 -2.81362 0
M  V30 1644 H 206.128 -3.23218 -1.60782 0
M  V30 1645 H 207.532 -4.10523 -0.937856 0
M  V30 1646 H 213.534 -3.27906 -5.43085 0
M  V30 1647 P 215.392 -5.75688 -6.64379 0
M  V30 1648 O 216.813 -6.07692 -7.0558 0
M  V30 1649 O 215.032 -5.88047 -5.19722 0
M  V30 1650 O 215.069 -4.2322 -7.04443 0
M  V30 1651 C 214.908 -3.99785 -8.49201 0
M  V30 1652 C 215.449 -2.60516 -8.79425 0
M  V30 1653 O 214.394 -1.82663 -8.44573 0
M  V30 1654 C 216.667 -2.10343 -8.03628 0
M  V30 1655 O 217.405 -1.09919 -8.67766 0
M  V30 1656 C 215.999 -1.68446 -6.70876 0
M  V30 1657 O 216.797 -0.684109 -6.08265 0
M  V30 1658 C 214.661 -1.17436 -7.18567 0
M  V30 1659 N 213.618 -1.52699 -6.23988 0
M  V30 1660 C 213.787 -2.578 -5.40574 0
M  V30 1661 N 212.76 -2.78966 -4.61193 0
M  V30 1662 C 211.875 -1.78725 -4.95769 0
M  V30 1663 C 210.608 -1.45727 -4.44207 0
M  V30 1664 N 210.009 -2.13994 -3.43613 0
M  V30 1665 N 210.043 -0.374977 -5.05812 0
M  V30 1666 C 210.645 0.345585 -6.05615 0
M  V30 1667 N 211.822 0.0787651 -6.56253 0
M  V30 1668 C 212.397 -1.00499 -5.96189 0
M  V30 1669 H 214.693 -0.0804622 -7.31556 0
M  V30 1670 H 215.876 -2.53396 -6.02698 0
M  V30 1671 H 217.359 -2.93881 -7.85526 0
M  V30 1672 H 215.665 -2.52078 -9.87225 0
M  V30 1673 H 215.475 -4.75072 -9.05887 0
M  V30 1674 H 213.845 -4.05244 -8.76668 0
M  V30 1675 H 210.109 1.20098 -6.4532 0
M  V30 1676 H 214.687 -3.18977 -5.3945 0
M  V30 1677 H 209.079 -1.84983 -3.10004 0
M  V30 1678 H 210.483 -2.9465 -3.00843 0
M  V30 1679 H 216.485 0.177619 -6.34151 0
M  V30 1680 P 218.342 -1.25109 -8.70152 0
M  V30 1681 O 219.764 -1.29744 -9.22016 0
M  V30 1682 O 217.982 -2.13714 -7.55141 0
M  V30 1683 O 218.019 0.248149 -8.21425 0
M  V30 1684 C 217.859 1.22779 -9.30434 0
M  V30 1685 C 218.399 2.56293 -8.80664 0
M  V30 1686 O 217.343 3.02979 -8.09349 0
M  V30 1687 C 219.617 2.57523 -7.89775 0
M  V30 1688 O 220.355 3.7668 -7.89438 0
M  V30 1689 C 218.948 2.20997 -6.55446 0
M  V30 1690 O 219.747 2.71895 -5.48509 0
M  V30 1691 C 217.611 2.89693 -6.67988 0
M  V30 1692 H 217.643 3.88793 -6.19859 0
M  V30 1693 H 218.826 1.12046 -6.44229 0
M  V30 1694 H 220.31 1.7746 -8.19711 0
M  V30 1695 H 218.616 3.20706 -9.67112 0
M  V30 1696 H 218.426 0.901032 -10.1892 0
M  V30 1697 H 216.796 1.33049 -9.56592 0
M  V30 1698 H 219.435 3.57847 -5.23962 0
M  V30 1699 P 221.293 3.65191 -7.99657 0
M  V30 1700 O 222.714 3.89374 -8.45885 0
M  V30 1701 O 220.933 2.28472 -7.50807 0
M  V30 1702 O 220.97 4.64972 -6.77611 0
M  V30 1703 C 220.809 6.06383 -7.16428 0
M  V30 1704 C 221.35 6.91731 -6.02299 0
M  V30 1705 O 220.295 6.92369 -5.17005 0
M  V30 1706 C 222.568 6.43627 -5.25174 0
M  V30 1707 O 223.306 7.43686 -4.60469 0
M  V30 1708 C 221.9 5.40275 -4.31916 0
M  V30 1709 O 222.698 5.24878 -3.14911 0
M  V30 1710 C 220.562 6.04847 -4.05327 0
M  V30 1711 N 219.519 5.04166 -3.98114 0
M  V30 1712 C 219.688 3.84629 -4.59066 0
M  V30 1713 N 218.661 3.0363 -4.45343 0
M  V30 1714 C 217.776 3.76722 -3.68523 0
M  V30 1715 C 216.509 3.43528 -3.17088 0
M  V30 1716 N 215.91 2.23665 -3.37397 0
M  V30 1717 N 215.944 4.44526 -2.44231 0
M  V30 1718 C 216.546 5.65243 -2.20146 0
M  V30 1719 N 217.723 6.00221 -2.65453 0
M  V30 1720 C 218.298 5.00564 -3.39083 0
M  V30 1721 H 220.594 6.62104 -3.11218 0
M  V30 1722 H 221.777 4.42969 -4.80867 0
M  V30 1723 H 223.26 5.92458 -5.93643 0
M  V30 1724 H 221.566 7.93295 -6.39407 0
M  V30 1725 H 221.376 6.26671 -8.0846 0
M  V30 1726 H 219.746 6.29101 -7.32804 0
M  V30 1727 H 216.01 6.36894 -1.5883 0
M  V30 1728 H 220.588 3.58193 -5.14248 0
M  V30 1729 H 214.98 2.05145 -2.97047 0
M  V30 1730 H 216.384 1.51255 -3.92998 0
M  V30 1731 H 222.386 5.84223 -2.47279 0
M  V30 1732 P 224.243 7.39546 -4.75277 0
M  V30 1733 O 225.664 7.84882 -5.01092 0
M  V30 1734 O 223.883 5.9812 -5.08098 0
M  V30 1735 O 223.92 7.57503 -3.1866 0
M  V30 1736 C 223.759 8.97452 -2.74862 0
M  V30 1737 C 224.3 9.07548 -1.32709 0
M  V30 1738 O 223.245 8.61972 -0.606089 0
M  V30 1739 C 225.518 8.25383 -0.938334 0
M  V30 1740 O 226.256 8.74577 0.146954 0
M  V30 1741 C 224.85 6.8802 -0.712559 0
M  V30 1742 O 225.648 6.1181 0.188505 0
M  V30 1743 C 223.512 7.27966 -0.139777 0
M  V30 1744 N 222.469 6.39368 -0.623421 0
M  V30 1745 C 222.638 5.71761 -1.78245 0
M  V30 1746 N 221.611 4.962 -2.10491 0
M  V30 1747 C 220.726 5.16158 -1.0635 0
M  V30 1748 C 219.459 4.60425 -0.810266 0
M  V30 1749 N 218.86 3.7057 -1.62914 0
M  V30 1750 N 218.894 5.06 0.348685 0
M  V30 1751 C 219.496 5.94532 1.20395 0
M  V30 1752 N 220.673 6.48452 1.01191 0
M  V30 1753 C 221.248 6.04423 -0.146291 0
M  V30 1754 H 223.544 7.25255 0.961469 0
M  V30 1755 H 224.727 6.32625 -1.65044 0
M  V30 1756 H 226.21 8.19355 -1.79097 0
M  V30 1757 H 224.516 10.1305 -1.09016 0
M  V30 1758 H 224.326 9.64276 -3.41316 0
M  V30 1759 H 222.696 9.25417 -2.76357 0
M  V30 1760 H 218.96 6.21659 2.10714 0
M  V30 1761 H 223.538 5.79354 -2.38959 0
M  V30 1762 H 217.93 3.33174 -1.38982 0
M  V30 1763 H 219.334 3.39714 -2.48836 0
M  V30 1764 H 225.336 6.25169 1.0783 0
M  V30 1765 P 227.194 8.791 4.22174e-13 0
M  V30 1766 O 228.615 9.31196 0.027936 0
M  V30 1767 O 226.834 7.77869 -1.04071 0
M  V30 1768 O 226.871 8.09533 1.41463 0
M  V30 1769 C 226.71 9.03587 2.5397 0
M  V30 1770 C 227.251 8.35226 3.79016 0
M  V30 1771 O 226.196 7.57904 4.1503 0
M  V30 1772 C 228.469 7.45087 3.67298 0
M  V30 1773 O 229.207 7.27796 4.85194 0
M  V30 1774 C 227.801 6.17323 3.12027 0
M  V30 1775 O 228.599 5.04496 3.46627 0
M  V30 1776 C 226.463 6.19961 3.81809 0
M  V30 1777 N 225.42 5.71575 2.93223 0
M  V30 1778 C 225.589 5.77362 1.59168 0
M  V30 1779 N 224.562 5.3123 0.911893 0
M  V30 1780 C 223.677 4.91717 1.89588 0
M  V30 1781 C 222.41 4.3114 1.8076 0
M  V30 1782 N 221.811 3.99821 0.632928 0
M  V30 1783 N 221.845 4.06823 3.02898 0
M  V30 1784 C 222.447 4.35062 4.22711 0
M  V30 1785 N 223.624 4.90805 4.35707 0
M  V30 1786 C 224.199 5.16382 3.14469 0
M  V30 1787 H 226.495 5.58142 4.72986 0
M  V30 1788 H 227.678 6.21428 2.0318 0
M  V30 1789 H 229.161 7.86112 2.9231 0
M  V30 1790 H 227.467 9.11171 4.55987 0
M  V30 1791 H 227.277 9.9573 2.34194 0
M  V30 1792 H 225.647 9.2792 2.67832 0
M  V30 1793 H 221.911 4.09052 5.13359 0
M  V30 1794 H 226.489 6.16575 1.12198 0
M  V30 1795 H 220.881 3.55423 0.632085 0
M  V30 1796 H 222.285 4.20317 -0.256712 0
M  V30 1797 H 228.287 4.67628 4.28704 0
M  V30 1798 P 230.144 7.39546 4.75277 0
M  V30 1799 O 231.566 7.81945 5.05847 0
M  V30 1800 O 229.784 7.1065 3.32998 0
M  V30 1801 O 229.821 6.04542 5.56673 0
M  V30 1802 C 229.661 6.22772 7.02095 0
M  V30 1803 C 230.201 4.97671 7.70322 0
M  V30 1804 O 229.146 4.13256 7.58987 0
M  V30 1805 C 231.419 4.28231 7.11815 0
M  V30 1806 O 232.157 3.49945 8.01648 0
M  V30 1807 C 230.751 3.5063 5.96244 0
M  V30 1808 O 231.549 2.36443 5.64589 0
M  V30 1809 C 229.413 3.15122 6.56374 0
M  V30 1810 N 228.37 3.22311 5.55692 0
M  V30 1811 C 228.432 4.14382 4.59701 0
M  V30 1812 N 227.387 4.04476 3.76958 0
M  V30 1813 C 226.653 3.04892 4.26534 0
M  V30 1814 C 225.347 2.57447 3.88189 0
M  V30 1815 O 224.614 2.9785 2.96543 0
M  V30 1816 N 224.917 1.55228 4.65922 0
M  V30 1817 C 225.666 1.01152 5.73447 0
M  V30 1818 N 225.069 -0.0472117 6.37783 0
M  V30 1819 N 226.819 1.467 6.13813 0
M  V30 1820 C 227.276 2.4931 5.38487 0
M  V30 1821 H 229.445 2.13853 6.99751 0
M  V30 1822 H 230.628 4.13438 5.06482 0
M  V30 1823 H 232.113 5.02614 6.71414 0
M  V30 1824 H 230.418 5.20877 8.75697 0
M  V30 1825 H 230.228 7.11046 7.35349 0
M  V30 1826 H 228.597 6.35815 7.26986 0
M  V30 1827 H 224.021 1.15238 4.46468 0
M  V30 1828 H 229.228 4.88312 4.49647 0
M  V30 1829 H 224.158 -0.396382 6.05203 0
M  V30 1830 H 225.534 -0.484997 7.18465 0
M  V30 1831 H 231.238 1.61619 6.13468 0
M  V30 1832 P 233.095 3.65191 7.99657 0
M  V30 1833 O 234.517 3.8425 8.48115 0
M  V30 1834 O 232.735 4.17805 6.64342 0
M  V30 1835 O 232.772 2.07613 7.95143 0
M  V30 1836 C 232.612 1.44328 9.27336 0
M  V30 1837 C 233.152 0.0220036 9.17197 0
M  V30 1838 O 232.096 -0.626867 8.61923 0
M  V30 1839 C 234.37 -0.24586 8.30336 0
M  V30 1840 O 235.108 -1.39011 8.63583 0
M  V30 1841 C 233.701 -0.273849 6.91158 0
M  V30 1842 O 234.5 -1.06348 6.02892 0
M  V30 1843 C 232.364 -0.897649 7.22545 0
M  V30 1844 H 232.396 -1.9841 7.04286 0
M  V30 1845 H 233.579 0.739928 6.497 0
M  V30 1846 H 235.063 0.60668 8.36503 0
M  V30 1847 H 233.369 -0.352479 10.1829 0
M  V30 1848 H 233.179 2.00611 10.0304 0
M  V30 1849 H 231.549 1.41843 9.55327 0
M  V30 1850 H 234.188 -1.95734 6.03555 0
M  V30 1851 P 236.046 -1.25109 8.70152 0
M  V30 1852 O 237.468 -1.35303 9.21419 0
M  V30 1853 O 235.686 -0.0769065 7.84762 0
M  V30 1854 O 235.723 -2.55232 7.81161 0
M  V30 1855 C 235.563 -3.79939 8.58154 0
M  V30 1856 C 236.103 -4.93969 7.72701 0
M  V30 1857 O 235.048 -5.18726 6.91205 0
M  V30 1858 C 237.321 -4.69597 6.85231 0
M  V30 1859 O 238.059 -5.83832 6.51337 0
M  V30 1860 C 236.653 -3.96706 5.66633 0
M  V30 1861 O 237.451 -4.15346 4.49615 0
M  V30 1862 C 235.315 -4.66153 5.59313 0
M  V30 1863 N 234.272 -3.71582 5.24027 0
M  V30 1864 C 234.334 -2.46018 5.67902 0
M  V30 1865 N 233.289 -1.74868 5.24518 0
M  V30 1866 C 232.555 -2.61333 4.54528 0
M  V30 1867 C 231.249 -2.46162 3.95441 0
M  V30 1868 O 230.516 -1.46013 3.94122 0
M  V30 1869 N 230.819 -3.59334 3.34752 0
M  V30 1870 C 231.568 -4.79605 3.3023 0
M  V30 1871 N 230.971 -5.82109 2.6065 0
M  V30 1872 N 232.721 -4.97402 3.8843 0
M  V30 1873 C 233.178 -3.86258 4.50476 0
M  V30 1874 H 235.347 -5.47679 4.85214 0
M  V30 1875 H 236.53 -2.88964 5.86476 0
M  V30 1876 H 238.015 -4.01947 7.36109 0
M  V30 1877 H 236.32 -5.80182 8.37584 0
M  V30 1878 H 236.13 -3.73517 9.52265 0
M  V30 1879 H 234.499 -3.97163 8.80359 0
M  V30 1880 H 229.923 -3.5825 2.90294 0
M  V30 1881 H 235.13 -2.06161 6.30974 0
M  V30 1882 H 230.06 -5.66979 2.15354 0
M  V30 1883 H 231.436 -6.73686 2.54344 0
M  V30 1884 H 237.14 -4.90891 4.01857 0
M  V30 1885 P 238.996 -5.75688 6.64379 0
M  V30 1886 O 240.417 -6.11915 7.01921 0
M  V30 1887 O 238.636 -4.30744 6.56026 0
M  V30 1888 O 238.673 -6.37042 5.19165 0
M  V30 1889 C 238.512 -7.83662 5.1657 0
M  V30 1890 C 239.053 -8.33398 3.83019 0
M  V30 1891 O 237.998 -8.0998 3.00999 0
M  V30 1892 C 240.271 -7.65514 3.2257 0
M  V30 1893 O 241.009 -8.4329 2.32297 0
M  V30 1894 C 239.603 -6.40075 2.62207 0
M  V30 1895 O 240.401 -5.92338 1.5428 0
M  V30 1896 C 238.265 -6.9454 2.18503 0
M  V30 1897 N 237.222 -5.95905 2.39948 0
M  V30 1898 C 237.391 -4.98383 3.32108 0
M  V30 1899 N 236.364 -4.16798 3.41761 0
M  V30 1900 C 235.479 -4.65287 2.47461 0
M  V30 1901 C 234.212 -4.18946 2.07461 0
M  V30 1902 N 233.613 -3.09661 2.60717 0
M  V30 1903 N 233.647 -4.95327 1.09101 0
M  V30 1904 C 234.249 -6.04369 0.519812 0
M  V30 1905 N 235.426 -6.50694 0.855982 0
M  V30 1906 C 236.001 -5.75818 1.84322 0
M  V30 1907 H 238.297 -7.22964 1.12076 0
M  V30 1908 H 239.48 -5.60502 3.36589 0
M  V30 1909 H 240.963 -7.35707 4.02681 0
M  V30 1910 H 239.269 -9.41302 3.90009 0
M  V30 1911 H 239.079 -8.29056 5.99158 0
M  V30 1912 H 237.449 -8.10073 5.25882 0
M  V30 1913 H 233.713 -6.55843 -0.270373 0
M  V30 1914 H 238.291 -4.88564 3.92502 0
M  V30 1915 H 232.683 -2.80523 2.27218 0
M  V30 1916 H 234.087 -2.55848 3.34465 0
M  V30 1917 H 240.089 -6.30224 0.72668 0
M  V30 1918 P 241.947 -8.4349 2.47671 0
M  V30 1919 O 243.369 -8.94167 2.5964 0
M  V30 1920 O 241.587 -7.1704 3.19006 0
M  V30 1921 O 241.624 -8.16596 0.923387 0
M  V30 1922 C 241.464 -9.38437 0.108857 0
M  V30 1923 C 242.004 -9.08175 -1.28353 0
M  V30 1924 O 240.948 -8.44229 -1.84713 0
M  V30 1925 C 243.222 -8.18386 -1.42505 0
M  V30 1926 O 243.96 -8.3501 -2.60497 0
M  V30 1927 C 242.553 -6.80225 -1.25468 0
M  V30 1928 O 243.352 -5.81621 -1.91066 0
M  V30 1929 C 241.216 -7.02416 -1.9168 0
M  V30 1930 H 241.248 -6.6888 -2.96621 0
M  V30 1931 H 242.431 -6.53617 -0.192223 0
M  V30 1932 H 243.915 -8.36622 -0.589963 0
M  V30 1933 H 242.221 -10.0291 -1.79807 0
M  V30 1934 H 242.031 -10.2138 0.558219 0
M  V30 1935 H 240.401 -9.6579 0.0444202 0
M  V30 1936 H 243.04 -5.69556 -2.79637 0
M  V30 1937 P 244.897 -8.4349 -2.47671 0
M  V30 1938 O 246.319 -8.92593 -2.65 0
M  V30 1939 O 244.537 -7.7568 -1.19296 0
M  V30 1940 O 244.574 -7.36886 -3.63805 0
M  V30 1941 C 244.414 -7.95349 -4.982 0
M  V30 1942 C 244.954 -6.94612 -5.98974 0
M  V30 1943 O 243.898 -6.10347 -6.11815 0
M  V30 1944 C 246.172 -6.11426 -5.62335 0
M  V30 1945 O 246.91 -5.6162 -6.70584 0
M  V30 1946 C 245.503 -5.04409 -4.73308 0
M  V30 1947 O 246.302 -3.85992 -4.75183 0
M  V30 1948 C 244.166 -4.8728 -5.41006 0
M  V30 1949 H 244.198 -4.02333 -6.11157 0
M  V30 1950 H 245.381 -5.39466 -3.69543 0
M  V30 1951 H 246.865 -6.71916 -5.01943 0
M  V30 1952 H 245.171 -7.4649 -6.93477 0
M  V30 1953 H 244.981 -8.89416 -5.05237 0
M  V30 1954 H 243.351 -8.14876 -5.18409 0
M  V30 1955 H 245.99 -3.27957 -5.4317 0
M  V30 1956 P 247.848 -5.75688 -6.64379 0
M  V30 1957 O 249.27 -6.07627 -7.05504 0
M  V30 1958 O 247.488 -5.88047 -5.19722 0
M  V30 1959 O 247.525 -4.2322 -7.04443 0
M  V30 1960 C 247.365 -3.99743 -8.4911 0
M  V30 1961 C 247.905 -2.60516 -8.79425 0
M  V30 1962 O 246.849 -1.82684 -8.4467 0
M  V30 1963 C 249.123 -2.10343 -8.03628 0
M  V30 1964 O 249.861 -1.09919 -8.67766 0
M  V30 1965 C 248.454 -1.68446 -6.70876 0
M  V30 1966 O 249.253 -0.678137 -6.08433 0
M  V30 1967 C 247.117 -1.17436 -7.18567 0
M  V30 1968 H 247.149 -0.0804732 -7.31656 0
M  V30 1969 H 248.332 -2.54037 -6.02537 0
M  V30 1970 H 249.816 -2.93881 -7.85526 0
M  V30 1971 H 248.122 -2.53065 -9.86973 0
M  V30 1972 H 247.932 -4.75072 -9.05887 0
M  V30 1973 H 246.302 -4.05244 -8.76668 0
M  V30 1974 H 248.941 0.177647 -6.34251 0
M  V30 1975 P 250.798 -1.25109 -8.70152 0
M  V30 1976 O 252.199 -1.3516 -9.26897 0
M  V30 1977 O 250.42 -2.18141 -7.59181 0
M  V30 1978 O 250.475 0.248118 -8.21325 0
M  V30 1979 C 250.315 1.22779 -9.30434 0
M  V30 1980 C 250.855 2.56265 -8.80568 0
M  V30 1981 O 249.799 3.02944 -8.09255 0
M  V30 1982 C 252.072 2.57523 -7.89775 0
M  V30 1983 O 252.811 3.7668 -7.89438 0
M  V30 1984 C 251.405 2.20997 -6.55446 0
M  V30 1985 O 252.203 2.71851 -5.48419 0
M  V30 1986 C 250.067 2.89693 -6.67988 0
M  V30 1987 N 249.024 2.08895 -6.07487 0
M  V30 1988 C 247.989 2.72974 -5.43836 0
M  V30 1989 O 248.028 3.97779 -5.34036 0
M  V30 1990 N 246.977 2.0005 -4.91983 0
M  V30 1991 C 247.025 0.66501 -5.00098 0
M  V30 1992 C 248.121 -0.0100979 -5.61099 0
M  V30 1993 C 249.087 0.74189 -6.14236 0
M  V30 1994 H 250.099 3.8874 -6.19774 0
M  V30 1995 H 251.282 1.12673 -6.44018 0
M  V30 1996 H 252.766 1.783 -8.19631 0
M  V30 1997 H 251.072 3.21673 -9.66791 0
M  V30 1998 H 250.881 0.901032 -10.1892 0
M  V30 1999 H 249.251 1.33036 -9.56493 0
M  V30 2000 H 248.169 -1.09591 -5.64358 0
M  V30 2001 H 249.933 0.260263 -6.6359 0
M  V30 2002 H 251.987 3.62759 -5.33442 0
M  V30 2003 P 253.749 3.65191 -7.99657 0
M  V30 2004 O 255.171 3.89332 -8.45794 0
M  V30 2005 O 253.389 2.28472 -7.50807 0
M  V30 2006 O 253.426 4.64972 -6.77611 0
M  V30 2007 C 253.266 6.06319 -7.16352 0
M  V30 2008 C 253.806 6.91731 -6.02299 0
M  V30 2009 O 252.75 6.92449 -5.17064 0
M  V30 2010 C 255.024 6.43627 -5.25174 0
M  V30 2011 O 255.762 7.43686 -4.60469 0
M  V30 2012 C 254.355 5.40275 -4.31916 0
M  V30 2013 O 255.154 5.25279 -3.14438 0
M  V30 2014 C 253.018 6.04847 -4.05327 0
M  V30 2015 H 253.05 6.62195 -3.11261 0
M  V30 2016 H 254.233 4.42556 -4.81383 0
M  V30 2017 H 255.717 5.92458 -5.93643 0
M  V30 2018 H 254.023 7.92655 -6.402 0
M  V30 2019 H 253.833 6.26671 -8.0846 0
M  V30 2020 H 252.203 6.29101 -7.32804 0
M  V30 2021 H 254.842 5.84315 -2.47318 0
M  V30 2022 P 256.7 7.39546 -4.75277 0
M  V30 2023 O 258.122 7.84798 -5.01039 0
M  V30 2024 O 256.34 5.9812 -5.08098 0
M  V30 2025 O 256.377 7.57503 -3.1866 0
M  V30 2026 C 256.217 8.97357 -2.74833 0
M  V30 2027 C 256.757 9.07548 -1.32709 0
M  V30 2028 O 255.701 8.62072 -0.606159 0
M  V30 2029 C 257.975 8.25383 -0.938334 0
M  V30 2030 O 258.713 8.74577 0.146954 0
M  V30 2031 C 257.306 6.8802 -0.712559 0
M  V30 2032 O 258.105 6.1189 0.194655 0
M  V30 2033 C 255.969 7.27966 -0.139777 0
M  V30 2034 H 256.001 7.25354 0.961601 0
M  V30 2035 H 257.184 6.32557 -1.65702 0
M  V30 2036 H 258.668 8.19355 -1.79097 0
M  V30 2037 H 256.974 10.1294 -1.10029 0
M  V30 2038 H 256.784 9.64276 -3.41316 0
M  V30 2039 H 255.154 9.25417 -2.76357 0
M  V30 2040 H 257.793 6.25267 1.07847 0
M  V30 2041 P 259.65 8.791 7.3234e-13 0
M  V30 2042 O 261.072 9.31096 0.027933 0
M  V30 2043 O 259.29 7.77869 -1.04071 0
M  V30 2044 O 259.327 8.09533 1.41463 0
M  V30 2045 C 259.167 9.0349 2.53943 0
M  V30 2046 C 259.707 8.35226 3.79016 0
M  V30 2047 O 258.651 7.57992 4.15078 0
M  V30 2048 C 260.925 7.45087 3.67298 0
M  V30 2049 O 261.663 7.27796 4.85194 0
M  V30 2050 C 260.256 6.17323 3.12027 0
M  V30 2051 O 261.055 5.04231 3.47188 0
M  V30 2052 C 258.919 6.19961 3.81809 0
M  V30 2053 H 258.951 5.58218 4.73051 0
M  V30 2054 H 260.134 6.21726 2.02589 0
M  V30 2055 H 261.618 7.86112 2.9231 0
M  V30 2056 H 259.924 9.11627 4.55076 0
M  V30 2057 H 259.734 9.9573 2.34194 0
M  V30 2058 H 258.104 9.2792 2.67832 0
M  V30 2059 H 260.743 4.67702 4.28772 0
M  V30 2060 P 262.601 7.39546 4.75277 0
M  V30 2061 O 264.023 7.81777 5.05738 0
M  V30 2062 O 262.241 7.1065 3.32998 0
M  V30 2063 O 262.278 6.04542 5.56673 0
M  V30 2064 C 262.118 6.22772 7.02095 0
M  V30 2065 C 262.658 4.97725 7.70406 0
M  V30 2066 O 261.602 4.13256 7.58987 0
M  V30 2067 C 263.876 4.28231 7.11815 0
M  V30 2068 O 264.614 3.49945 8.01648 0
M  V30 2069 C 263.207 3.5063 5.96244 0
M  V30 2070 O 264.006 2.36482 5.64681 0
M  V30 2071 C 261.87 3.15122 6.56374 0
M  V30 2072 H 261.902 2.13853 6.99751 0
M  V30 2073 H 263.085 4.13501 5.06559 0
M  V30 2074 H 264.569 5.03285 6.70911 0
M  V30 2075 H 262.875 5.20877 8.75697 0
M  V30 2076 H 262.685 7.11046 7.35349 0
M  V30 2077 H 261.055 6.35815 7.26986 0
M  V30 2078 H 263.694 1.61644 6.13565 0
M  V30 2079 P 265.551 3.65191 7.99657 0
M  V30 2080 O 266.973 3.84333 8.48297 0
M  V30 2081 O 265.191 4.17805 6.64342 0
M  V30 2082 O 265.228 2.07613 7.95143 0
M  V30 2083 C 265.068 1.44328 9.27336 0
M  V30 2084 C 265.608 0.0220012 9.17097 0
M  V30 2085 O 264.553 -0.626867 8.61923 0
M  V30 2086 C 266.826 -0.24586 8.30336 0
M  V30 2087 O 267.564 -1.39011 8.63583 0
M  V30 2088 C 266.158 -0.273849 6.91158 0
M  V30 2089 O 266.956 -1.06331 6.02794 0
M  V30 2090 C 264.82 -0.897649 7.22545 0
M  V30 2091 N 263.777 -0.292839 6.41732 0
M  V30 2092 C 263.839 1.00068 6.10757 0
M  V30 2093 N 262.794 1.36468 5.35794 0
M  V30 2094 C 262.06 0.258894 5.2366 0
M  V30 2095 C 260.754 0.0670682 4.65752 0
M  V30 2096 O 260.021 0.902443 4.10497 0
M  V30 2097 N 260.324 -1.2131 4.75881 0
M  V30 2098 C 261.073 -2.24934 5.37101 0
M  V30 2099 N 260.476 -3.48783 5.33984 0
M  V30 2100 N 262.226 -2.0844 5.95684 0
M  V30 2101 C 262.683 -0.81395 5.87791 0
M  V30 2102 H 264.852 -1.9841 7.04286 0
M  V30 2103 H 266.035 0.739815 6.49601 0
M  V30 2104 H 267.52 0.598315 8.36563 0
M  V30 2105 H 265.825 -0.352479 10.1829 0
M  V30 2106 H 265.635 2.00611 10.0304 0
M  V30 2107 H 264.004 1.41843 9.55327 0
M  V30 2108 H 259.428 -1.44434 4.37895 0
M  V30 2109 H 264.635 1.67697 6.42268 0
M  V30 2110 H 259.565 -3.60543 4.87699 0
M  V30 2111 H 260.941 -4.29232 5.7819 0
M  V30 2112 H 266.645 -1.95704 6.0346 0
M  V30 2113 P 268.502 -1.25109 8.70152 0
M  V30 2114 O 269.923 -1.35288 9.2132 0
M  V30 2115 O 268.142 -0.0769065 7.84762 0
M  V30 2116 O 268.179 -2.55232 7.81161 0
M  V30 2117 C 268.018 -3.79979 8.58246 0
M  V30 2118 C 268.559 -4.94023 7.72785 0
M  V30 2119 O 267.504 -5.18666 6.91125 0
M  V30 2120 C 269.777 -4.69597 6.85231 0
M  V30 2121 O 270.515 -5.83832 6.51337 0
M  V30 2122 C 269.109 -3.96706 5.66633 0
M  V30 2123 O 269.907 -4.14896 4.5003 0
M  V30 2124 C 267.771 -4.66153 5.59313 0
M  V30 2125 N 266.728 -3.71582 5.24027 0
M  V30 2126 C 266.897 -2.39715 5.48833 0
M  V30 2127 N 265.87 -1.65863 5.12845 0
M  V30 2128 C 264.985 -2.57637 4.5973 0
M  V30 2129 C 263.718 -2.40278 4.01027 0
M  V30 2130 N 263.153 -3.57711 3.59575 0
M  V30 2131 C 263.755 -4.80324 3.70476 0
M  V30 2132 N 264.932 -5.01121 4.23801 0
M  V30 2133 C 265.507 -3.84757 4.66372 0
M  V30 2134 H 268.986 -2.8955 5.86187 0
M  V30 2135 H 270.469 -4.0121 7.36511 0
M  V30 2136 H 268.775 -5.81019 8.37003 0
M  V30 2137 H 268.585 -3.73517 9.52265 0
M  V30 2138 H 266.955 -3.97163 8.80359 0
M  V30 2139 H 267.797 -1.98804 5.94332 0
M  V30 2140 H 269.595 -4.90891 4.01857 0
M  V30 2141 P 271.452 -5.75688 6.64379 0
M  V30 2142 O 272.874 -6.11849 7.01846 0
M  V30 2143 O 271.092 -4.30744 6.56026 0
M  V30 2144 O 271.129 -6.37042 5.19165 0
M  V30 2145 C 270.969 -7.83578 5.16515 0
M  V30 2146 C 271.509 -8.33398 3.83019 0
M  V30 2147 O 270.453 -8.10074 3.01034 0
M  V30 2148 C 272.727 -7.65514 3.2257 0
M  V30 2149 O 273.465 -8.4329 2.32297 0
M  V30 2150 C 272.058 -6.40075 2.62207 0
M  V30 2151 O 272.857 -5.92589 1.53712 0
M  V30 2152 C 270.721 -6.9454 2.18503 0
M  V30 2153 H 270.753 -7.23063 1.12091 0
M  V30 2154 H 271.936 -5.6025 3.37201 0
M  V30 2155 H 273.42 -7.35707 4.02681 0
M  V30 2156 H 271.726 -9.40912 3.9095 0
M  V30 2157 H 271.536 -8.29056 5.99158 0
M  V30 2158 H 269.906 -8.10073 5.25882 0
M  V30 2159 H 272.545 -6.30324 0.726794 0
M  V30 2160 P 274.403 -8.4349 2.47671 0
M  V30 2161 O 275.825 -8.94167 2.5964 0
M  V30 2162 O 274.043 -7.1704 3.19006 0
M  V30 2163 O 274.08 -8.16596 0.923387 0
M  V30 2164 C 273.92 -9.38437 0.108857 0
M  V30 2165 C 274.46 -9.08175 -1.28353 0
M  V30 2166 O 273.404 -8.44229 -1.84713 0
M  V30 2167 C 275.678 -8.18386 -1.42505 0
M  V30 2168 O 276.416 -8.3501 -2.60497 0
M  V30 2169 C 275.009 -6.80225 -1.25468 0
M  V30 2170 O 275.808 -5.81621 -1.91066 0
M  V30 2171 C 273.672 -7.02416 -1.9168 0
M  V30 2172 H 273.704 -6.6888 -2.96621 0
M  V30 2173 H 274.887 -6.53617 -0.192223 0
M  V30 2174 H 276.371 -8.36622 -0.589963 0
M  V30 2175 H 274.677 -10.0291 -1.79807 0
M  V30 2176 H 274.487 -10.2138 0.558219 0
M  V30 2177 H 272.857 -9.6579 0.0444202 0
M  V30 2178 H 275.496 -5.69556 -2.79637 0
M  V30 2179 P 277.354 -8.4349 -2.47671 0
M  V30 2180 O 278.776 -8.92593 -2.65 0
M  V30 2181 O 276.994 -7.7568 -1.19296 0
M  V30 2182 O 277.031 -7.36886 -3.63805 0
M  V30 2183 C 276.871 -7.95349 -4.982 0
M  V30 2184 C 277.411 -6.94612 -5.98974 0
M  V30 2185 O 276.355 -6.10347 -6.11815 0
M  V30 2186 C 278.629 -6.11426 -5.62335 0
M  V30 2187 O 279.367 -5.6162 -6.70584 0
M  V30 2188 C 277.96 -5.04409 -4.73308 0
M  V30 2189 O 278.759 -3.85992 -4.75183 0
M  V30 2190 C 276.623 -4.8728 -5.41006 0
M  V30 2191 H 276.655 -4.02333 -6.11157 0
M  V30 2192 H 277.838 -5.39466 -3.69543 0
M  V30 2193 H 279.322 -6.71916 -5.01943 0
M  V30 2194 H 277.628 -7.4649 -6.93477 0
M  V30 2195 H 277.438 -8.89416 -5.05237 0
M  V30 2196 H 275.808 -8.14876 -5.18409 0
M  V30 2197 H 278.447 -3.27957 -5.4317 0
M  V30 2198 P 280.304 -5.75688 -6.64379 0
M  V30 2199 O 281.726 -6.07627 -7.05504 0
M  V30 2200 O 279.944 -5.88047 -5.19722 0
M  V30 2201 O 279.981 -4.2322 -7.04443 0
M  V30 2202 C 279.821 -3.99743 -8.4911 0
M  V30 2203 C 280.361 -2.60516 -8.79425 0
M  V30 2204 O 279.305 -1.82684 -8.4467 0
M  V30 2205 C 281.579 -2.10343 -8.03628 0
M  V30 2206 O 282.317 -1.09919 -8.67766 0
M  V30 2207 C 280.91 -1.68446 -6.70876 0
M  V30 2208 O 281.709 -0.678137 -6.08433 0
M  V30 2209 C 279.573 -1.17436 -7.18567 0
M  V30 2210 H 279.605 -0.0804732 -7.31656 0
M  V30 2211 H 280.788 -2.54037 -6.02537 0
M  V30 2212 H 282.272 -2.93881 -7.85526 0
M  V30 2213 H 280.578 -2.53065 -9.86973 0
M  V30 2214 H 280.388 -4.75072 -9.05887 0
M  V30 2215 H 278.758 -4.05244 -8.76668 0
M  V30 2216 H 281.397 0.177647 -6.34251 0
M  V30 2217 P 283.255 -1.25109 -8.70152 0
M  V30 2218 O 284.676 -1.29758 -9.22115 0
M  V30 2219 O 282.895 -2.13714 -7.55141 0
M  V30 2220 O 282.932 0.248149 -8.21425 0
M  V30 2221 C 282.771 1.22792 -9.30533 0
M  V30 2222 C 283.312 2.56293 -8.80664 0
M  V30 2223 O 282.257 3.02944 -8.09255 0
M  V30 2224 C 284.53 2.57523 -7.89775 0
M  V30 2225 O 285.268 3.7668 -7.89438 0
M  V30 2226 C 283.862 2.20997 -6.55446 0
M  V30 2227 O 284.66 2.71302 -5.48691 0
M  V30 2228 C 282.524 2.89693 -6.67988 0
M  V30 2229 N 281.481 2.08895 -6.07487 0
M  V30 2230 C 281.65 0.753809 -5.94137 0
M  V30 2231 N 280.623 0.146592 -5.38801 0
M  V30 2232 C 279.738 1.1768 -5.13693 0
M  V30 2233 C 278.471 1.17563 -4.52477 0
M  V30 2234 N 277.872 0.057481 -4.04759 0
M  V30 2235 N 277.906 2.41918 -4.45789 0
M  V30 2236 C 278.508 3.56493 -4.90792 0
M  V30 2237 N 279.685 3.61423 -5.47817 0
M  V30 2238 C 280.26 2.37779 -5.5588 0
M  V30 2239 H 282.556 3.8874 -6.19774 0
M  V30 2240 H 283.739 1.12673 -6.44018 0
M  V30 2241 H 285.222 1.7746 -8.19711 0
M  V30 2242 H 283.528 3.21673 -9.66791 0
M  V30 2243 H 283.338 0.901032 -10.1892 0
M  V30 2244 H 281.708 1.33049 -9.56592 0
M  V30 2245 H 277.972 4.49919 -4.77947 0
M  V30 2246 H 282.55 0.233081 -6.26266 0
M  V30 2247 H 276.942 0.119831 -3.60801 0
M  V30 2248 H 278.346 -0.852272 -4.12385 0
M  V30 2249 H 284.348 3.5779 -5.23879 0
M  V30 2250 P 286.205 3.65191 -7.99657 0
M  V30 2251 O 287.627 3.89416 -8.45976 0
M  V30 2252 O 285.845 2.28472 -7.50807 0
M  V30 2253 O 285.882 4.64972 -6.77611 0
M  V30 2254 C 285.722 6.06319 -7.16352 0
M  V30 2255 C 286.262 6.91655 -6.02234 0
M  V30 2256 O 285.207 6.92449 -5.17064 0
M  V30 2257 C 287.48 6.43627 -5.25174 0
M  V30 2258 O 288.218 7.43686 -4.60469 0
M  V30 2259 C 286.812 5.40275 -4.31916 0
M  V30 2260 O 287.61 5.25193 -3.14386 0
M  V30 2261 C 285.474 6.04847 -4.05327 0
M  V30 2262 N 284.431 5.04166 -3.98114 0
M  V30 2263 C 284.493 3.96049 -4.75587 0
M  V30 2264 N 283.448 3.15559 -4.54006 0
M  V30 2265 C 282.714 3.78802 -3.62491 0
M  V30 2266 C 281.408 3.476 -3.10071 0
M  V30 2267 O 280.675 2.51136 -3.37021 0
M  V30 2268 N 280.978 4.39088 -2.19956 0
M  V30 2269 C 281.727 5.53215 -1.81733 0
M  V30 2270 N 281.13 6.31963 -0.860928 0
M  V30 2271 N 282.88 5.86688 -2.32562 0
M  V30 2272 C 283.337 4.97525 -3.23407 0
M  V30 2273 H 285.506 6.62195 -3.11261 0
M  V30 2274 H 286.689 4.42488 -4.8131 0
M  V30 2275 H 288.174 5.93051 -5.9305 0
M  V30 2276 H 286.479 7.92655 -6.402 0
M  V30 2277 H 286.289 6.26671 -8.0846 0
M  V30 2278 H 284.658 6.29101 -7.32804 0
M  V30 2279 H 280.082 4.25523 -1.77604 0
M  V30 2280 H 285.289 3.75576 -5.47333 0
M  V30 2281 H 280.219 6.04684 -0.468946 0
M  V30 2282 H 281.595 7.18054 -0.542422 0
M  V30 2283 H 287.299 5.84223 -2.47279 0
M  V30 2284 P 289.156 7.39546 -4.75277 0
M  V30 2285 O 290.578 7.84798 -5.01039 0
M  V30 2286 O 288.796 5.9812 -5.08098 0
M  V30 2287 O 288.833 7.57503 -3.1866 0
M  V30 2288 C 288.673 8.97357 -2.74833 0
M  V30 2289 C 289.213 9.07548 -1.32709 0
M  V30 2290 O 288.157 8.62072 -0.606159 0
M  V30 2291 C 290.431 8.25383 -0.938334 0
M  V30 2292 O 291.169 8.74577 0.146954 0
M  V30 2293 C 289.762 6.8802 -0.712559 0
M  V30 2294 O 290.561 6.1189 0.194655 0
M  V30 2295 C 288.425 7.27966 -0.139777 0
M  V30 2296 H 288.457 7.25354 0.961601 0
M  V30 2297 H 289.64 6.32557 -1.65702 0
M  V30 2298 H 291.124 8.19355 -1.79097 0
M  V30 2299 H 289.43 10.1294 -1.10029 0
M  V30 2300 H 289.24 9.64276 -3.41316 0
M  V30 2301 H 287.61 9.25417 -2.76357 0
M  V30 2302 H 290.249 6.25267 1.07847 0
M  V30 2303 P 292.106 8.791 1.04251e-12 0
M  V30 2304 O 293.528 9.31096 0.027933 0
M  V30 2305 O 291.746 7.77869 -1.04071 0
M  V30 2306 O 291.783 8.09533 1.41463 0
M  V30 2307 C 291.623 9.0349 2.53943 0
M  V30 2308 C 292.163 8.35226 3.79016 0
M  V30 2309 O 291.107 7.57992 4.15078 0
M  V30 2310 C 293.381 7.45087 3.67298 0
M  V30 2311 O 294.119 7.27796 4.85194 0
M  V30 2312 C 292.712 6.17323 3.12027 0
M  V30 2313 O 293.511 5.04231 3.47188 0
M  V30 2314 C 291.375 6.19961 3.81809 0
M  V30 2315 H 291.407 5.58218 4.73051 0
M  V30 2316 H 292.59 6.21726 2.02589 0
M  V30 2317 H 294.074 7.86112 2.9231 0
M  V30 2318 H 292.38 9.11627 4.55076 0
M  V30 2319 H 292.19 9.9573 2.34194 0
M  V30 2320 H 290.56 9.2792 2.67832 0
M  V30 2321 H 293.199 4.67702 4.28772 0
M  V30 2322 P 295.057 7.39546 4.75277 0
M  V30 2323 O 296.479 7.81777 5.05738 0
M  V30 2324 O 294.697 7.1065 3.32998 0
M  V30 2325 O 294.734 6.04542 5.56673 0
M  V30 2326 C 294.574 6.22772 7.02095 0
M  V30 2327 C 295.114 4.97725 7.70406 0
M  V30 2328 O 294.058 4.13256 7.58987 0
M  V30 2329 C 296.332 4.28231 7.11815 0
M  V30 2330 O 297.07 3.49945 8.01648 0
M  V30 2331 C 295.663 3.5063 5.96244 0
M  V30 2332 O 296.462 2.36482 5.64681 0
M  V30 2333 C 294.326 3.15122 6.56374 0
M  V30 2334 H 294.358 2.13853 6.99751 0
M  V30 2335 H 295.541 4.13501 5.06559 0
M  V30 2336 H 297.025 5.03285 6.70911 0
M  V30 2337 H 295.331 5.20877 8.75697 0
M  V30 2338 H 295.141 7.11046 7.35349 0
M  V30 2339 H 293.511 6.35815 7.26986 0
M  V30 2340 H 296.15 1.61644 6.13565 0
M  V30 2341 P 298.008 3.65191 7.99657 0
M  V30 2342 O 299.43 3.8425 8.48115 0
M  V30 2343 O 297.648 4.17805 6.64342 0
M  V30 2344 O 297.685 2.07613 7.95143 0
M  V30 2345 C 297.525 1.44328 9.27336 0
M  V30 2346 C 298.065 0.0220036 9.17197 0
M  V30 2347 O 297.009 -0.626867 8.61923 0
M  V30 2348 C 299.283 -0.24586 8.30336 0
M  V30 2349 O 300.021 -1.39011 8.63583 0
M  V30 2350 C 298.614 -0.273849 6.91158 0
M  V30 2351 O 299.413 -1.06348 6.02892 0
M  V30 2352 C 297.277 -0.897649 7.22545 0
M  V30 2353 H 297.309 -1.9841 7.04286 0
M  V30 2354 H 298.492 0.739928 6.497 0
M  V30 2355 H 299.976 0.60668 8.36503 0
M  V30 2356 H 298.282 -0.352479 10.1829 0
M  V30 2357 H 298.092 2.00611 10.0304 0
M  V30 2358 H 296.462 1.41843 9.55327 0
M  V30 2359 H 299.101 -1.95734 6.03555 0
M  V30 2360 P 300.958 -1.25109 8.70152 0
M  V30 2361 O 302.379 -1.35288 9.2132 0
M  V30 2362 O 300.598 -0.0769065 7.84762 0
M  V30 2363 O 300.635 -2.55232 7.81161 0
M  V30 2364 C 300.474 -3.79979 8.58246 0
M  V30 2365 C 301.015 -4.94023 7.72785 0
M  V30 2366 O 299.96 -5.18666 6.91125 0
M  V30 2367 C 302.233 -4.69597 6.85231 0
M  V30 2368 O 302.971 -5.83832 6.51337 0
M  V30 2369 C 301.565 -3.96706 5.66633 0
M  V30 2370 O 302.363 -4.14896 4.5003 0
M  V30 2371 C 300.227 -4.66153 5.59313 0
M  V30 2372 N 299.184 -3.71582 5.24027 0
M  V30 2373 C 299.353 -2.39715 5.48833 0
M  V30 2374 N 298.326 -1.65863 5.12845 0
M  V30 2375 C 297.441 -2.57637 4.5973 0
M  V30 2376 C 296.174 -2.40278 4.01027 0
M  V30 2377 N 295.575 -1.19549 3.86744 0
M  V30 2378 N 295.609 -3.57711 3.59575 0
M  V30 2379 C 296.211 -4.80324 3.70476 0
M  V30 2380 N 297.388 -5.01121 4.23801 0
M  V30 2381 C 297.963 -3.84757 4.66372 0
M  V30 2382 H 300.259 -5.47604 4.85148 0
M  V30 2383 H 301.442 -2.8955 5.86187 0
M  V30 2384 H 302.925 -4.0121 7.36511 0
M  V30 2385 H 301.231 -5.81019 8.37003 0
M  V30 2386 H 301.041 -3.73517 9.52265 0
M  V30 2387 H 299.411 -3.97163 8.80359 0
M  V30 2388 H 295.675 -5.66348 3.3183 0
M  V30 2389 H 300.253 -1.98804 5.94332 0
M  V30 2390 H 294.645 -1.13147 3.4281 0
M  V30 2391 H 296.049 -0.344074 4.19692 0
M  V30 2392 H 302.051 -4.90891 4.01857 0
M  V30 2393 P 303.909 -5.75688 6.64379 0
M  V30 2394 O 305.331 -6.11849 7.01846 0
M  V30 2395 O 303.549 -4.30744 6.56026 0
M  V30 2396 O 303.586 -6.37042 5.19165 0
M  V30 2397 C 303.426 -7.83578 5.16515 0
M  V30 2398 C 303.966 -8.33398 3.83019 0
M  V30 2399 O 302.91 -8.10074 3.01034 0
M  V30 2400 C 305.184 -7.65514 3.2257 0
M  V30 2401 O 305.922 -8.4329 2.32297 0
M  V30 2402 C 304.515 -6.40075 2.62207 0
M  V30 2403 O 305.314 -5.92589 1.53712 0
M  V30 2404 C 303.178 -6.9454 2.18503 0
M  V30 2405 H 303.21 -7.23063 1.12091 0
M  V30 2406 H 304.393 -5.6025 3.37201 0
M  V30 2407 H 305.877 -7.35707 4.02681 0
M  V30 2408 H 304.183 -9.40912 3.9095 0
M  V30 2409 H 303.993 -8.29056 5.99158 0
M  V30 2410 H 302.363 -8.10073 5.25882 0
M  V30 2411 H 305.002 -6.30324 0.726794 0
M  V30 2412 P 306.859 -8.4349 2.47671 0
M  V30 2413 O 308.281 -8.94167 2.5964 0
M  V30 2414 O 306.499 -7.1704 3.19006 0
M  V30 2415 O 306.536 -8.16596 0.923387 0
M  V30 2416 C 306.376 -9.38437 0.108857 0
M  V30 2417 C 306.916 -9.08175 -1.28353 0
M  V30 2418 O 305.86 -8.44229 -1.84713 0
M  V30 2419 C 308.134 -8.18386 -1.42505 0
M  V30 2420 O 308.872 -8.3501 -2.60497 0
M  V30 2421 C 307.465 -6.80225 -1.25468 0
M  V30 2422 O 308.264 -5.81621 -1.91066 0
M  V30 2423 C 306.128 -7.02416 -1.9168 0
M  V30 2424 H 306.16 -6.6888 -2.96621 0
M  V30 2425 H 307.343 -6.53617 -0.192223 0
M  V30 2426 H 308.827 -8.36622 -0.589963 0
M  V30 2427 H 307.133 -10.0291 -1.79807 0
M  V30 2428 H 306.943 -10.2138 0.558219 0
M  V30 2429 H 305.313 -9.6579 0.0444202 0
M  V30 2430 H 307.952 -5.69556 -2.79637 0
M  V30 2431 P 309.81 -8.4349 -2.47671 0
M  V30 2432 O 311.232 -8.92593 -2.65 0
M  V30 2433 O 309.45 -7.7568 -1.19296 0
M  V30 2434 O 309.487 -7.36886 -3.63805 0
M  V30 2435 C 309.327 -7.95349 -4.982 0
M  V30 2436 C 309.867 -6.94612 -5.98974 0
M  V30 2437 O 308.811 -6.10347 -6.11815 0
M  V30 2438 C 311.085 -6.11426 -5.62335 0
M  V30 2439 O 311.823 -5.6162 -6.70584 0
M  V30 2440 C 310.416 -5.04409 -4.73308 0
M  V30 2441 O 311.215 -3.85992 -4.75183 0
M  V30 2442 C 309.079 -4.8728 -5.41006 0
M  V30 2443 H 309.111 -4.02333 -6.11157 0
M  V30 2444 H 310.294 -5.39466 -3.69543 0
M  V30 2445 H 311.778 -6.71916 -5.01943 0
M  V30 2446 H 310.084 -7.4649 -6.93477 0
M  V30 2447 H 309.894 -8.89416 -5.05237 0
M  V30 2448 H 308.264 -8.14876 -5.18409 0
M  V30 2449 H 310.903 -3.27957 -5.4317 0
M  V30 2450 P 312.76 -5.75688 -6.64379 0
M  V30 2451 O 314.182 -6.07627 -7.05504 0
M  V30 2452 O 312.4 -5.88047 -5.19722 0
M  V30 2453 O 312.437 -4.2322 -7.04443 0
M  V30 2454 C 312.277 -3.99743 -8.4911 0
M  V30 2455 C 312.817 -2.60516 -8.79425 0
M  V30 2456 O 311.761 -1.82684 -8.4467 0
M  V30 2457 C 314.035 -2.10343 -8.03628 0
M  V30 2458 O 314.773 -1.09919 -8.67766 0
M  V30 2459 C 313.366 -1.68446 -6.70876 0
M  V30 2460 O 314.165 -0.678137 -6.08433 0
M  V30 2461 C 312.029 -1.17436 -7.18567 0
M  V30 2462 H 312.061 -0.0804732 -7.31656 0
M  V30 2463 H 313.244 -2.54037 -6.02537 0
M  V30 2464 H 314.728 -2.93881 -7.85526 0
M  V30 2465 H 313.034 -2.53065 -9.86973 0
M  V30 2466 H 312.844 -4.75072 -9.05887 0
M  V30 2467 H 311.214 -4.05244 -8.76668 0
M  V30 2468 H 313.853 0.177647 -6.34251 0
M  V30 2469 P 315.711 -1.25109 -8.70152 0
M  V30 2470 O 317.133 -1.29744 -9.22016 0
M  V30 2471 O 315.351 -2.13714 -7.55141 0
M  V30 2472 O 315.388 0.248149 -8.21425 0
M  V30 2473 C 315.228 1.22779 -9.30434 0
M  V30 2474 C 315.768 2.56293 -8.80664 0
M  V30 2475 O 314.712 3.02979 -8.09349 0
M  V30 2476 C 316.986 2.57523 -7.89775 0
M  V30 2477 O 317.724 3.7668 -7.89438 0
M  V30 2478 C 316.317 2.20997 -6.55446 0
M  V30 2479 O 317.116 2.71895 -5.48509 0
M  V30 2480 C 314.98 2.89693 -6.67988 0
M  V30 2481 H 315.012 3.88793 -6.19859 0
M  V30 2482 H 316.195 1.12046 -6.44229 0
M  V30 2483 H 317.679 1.7746 -8.19711 0
M  V30 2484 H 315.985 3.20706 -9.67112 0
M  V30 2485 H 315.795 0.901032 -10.1892 0
M  V30 2486 H 314.165 1.33049 -9.56592 0
M  V30 2487 H 316.804 3.57847 -5.23962 0
M  V30 2488 P 318.662 3.65191 -7.99657 0
M  V30 2489 O 320.084 3.89332 -8.45794 0
M  V30 2490 O 318.302 2.28472 -7.50807 0
M  V30 2491 O 318.339 4.64972 -6.77611 0
M  V30 2492 C 318.179 6.06319 -7.16352 0
M  V30 2493 C 318.719 6.91731 -6.02299 0
M  V30 2494 O 317.663 6.92449 -5.17064 0
M  V30 2495 C 319.937 6.43627 -5.25174 0
M  V30 2496 O 320.675 7.43686 -4.60469 0
M  V30 2497 C 319.268 5.40275 -4.31916 0
M  V30 2498 O 320.067 5.25279 -3.14438 0
M  V30 2499 C 317.931 6.04847 -4.05327 0
M  V30 2500 H 317.963 6.62195 -3.11261 0
M  V30 2501 H 319.146 4.42556 -4.81383 0
M  V30 2502 H 320.63 5.92458 -5.93643 0
M  V30 2503 H 318.936 7.92655 -6.402 0
M  V30 2504 H 318.746 6.26671 -8.0846 0
M  V30 2505 H 317.116 6.29101 -7.32804 0
M  V30 2506 H 319.755 5.84315 -2.47318 0
M  V30 2507 P 321.612 7.39546 -4.75277 0
M  V30 2508 O 323.034 7.84798 -5.01039 0
M  V30 2509 O 321.252 5.9812 -5.08098 0
M  V30 2510 O 321.289 7.57503 -3.1866 0
M  V30 2511 C 321.129 8.97357 -2.74833 0
M  V30 2512 C 321.669 9.07548 -1.32709 0
M  V30 2513 O 320.613 8.62072 -0.606159 0
M  V30 2514 C 322.887 8.25383 -0.938334 0
M  V30 2515 O 323.625 8.74577 0.146954 0
M  V30 2516 C 322.218 6.8802 -0.712559 0
M  V30 2517 O 323.017 6.1189 0.194655 0
M  V30 2518 C 320.881 7.27966 -0.139777 0
M  V30 2519 H 320.913 7.25354 0.961601 0
M  V30 2520 H 322.096 6.32557 -1.65702 0
M  V30 2521 H 323.58 8.19355 -1.79097 0
M  V30 2522 H 321.886 10.1294 -1.10029 0
M  V30 2523 H 321.696 9.64276 -3.41316 0
M  V30 2524 H 320.066 9.25417 -2.76357 0
M  V30 2525 H 322.705 6.25267 1.07847 0
M  V30 2526 P 324.563 8.791 1.35267e-12 0
M  V30 2527 O 325.985 9.31096 0.027933 0
M  V30 2528 O 324.203 7.77869 -1.04071 0
M  V30 2529 O 324.24 8.09533 1.41463 0
M  V30 2530 C 324.08 9.0349 2.53943 0
M  V30 2531 C 324.62 8.35226 3.79016 0
M  V30 2532 O 323.564 7.57992 4.15078 0
M  V30 2533 C 325.838 7.45087 3.67298 0
M  V30 2534 O 326.576 7.27796 4.85194 0
M  V30 2535 C 325.169 6.17323 3.12027 0
M  V30 2536 O 325.968 5.04231 3.47188 0
M  V30 2537 C 323.832 6.19961 3.81809 0
M  V30 2538 H 323.864 5.58218 4.73051 0
M  V30 2539 H 325.047 6.21726 2.02589 0
M  V30 2540 H 326.531 7.86112 2.9231 0
M  V30 2541 H 324.837 9.11627 4.55076 0
M  V30 2542 H 324.647 9.9573 2.34194 0
M  V30 2543 H 323.017 9.2792 2.67832 0
M  V30 2544 H 325.656 4.67702 4.28772 0
M  V30 2545 P 327.513 7.39546 4.75277 0
M  V30 2546 O 328.914 7.89013 5.04841 0
M  V30 2547 O 327.135 7.16603 3.32298 0
M  V30 2548 O 327.19 6.04468 5.56605 0
M  V30 2549 C 327.03 6.22772 7.02095 0
M  V30 2550 C 327.57 4.97671 7.70322 0
M  V30 2551 O 326.514 4.13208 7.58899 0
M  V30 2552 C 328.787 4.28231 7.11815 0
M  V30 2553 O 329.526 3.49945 8.01648 0
M  V30 2554 C 328.12 3.5063 5.96244 0
M  V30 2555 O 328.918 2.36443 5.64589 0
M  V30 2556 C 326.782 3.15122 6.56374 0
M  V30 2557 N 325.739 3.22311 5.55692 0
M  V30 2558 C 324.704 2.32244 5.62437 0
M  V30 2559 O 324.743 1.43107 6.50341 0
M  V30 2560 N 323.692 2.40811 4.73368 0
M  V30 2561 C 323.74 3.344 3.77753 0
M  V30 2562 N 322.73 3.41475 2.91848 0
M  V30 2563 C 324.836 4.24712 3.66679 0
M  V30 2564 C 325.802 4.15625 4.58307 0
M  V30 2565 H 326.814 2.13823 6.99656 0
M  V30 2566 H 327.997 4.12931 5.06895 0
M  V30 2567 H 329.481 5.02674 6.71494 0
M  V30 2568 H 327.787 5.20001 8.76217 0
M  V30 2569 H 327.596 7.11046 7.35349 0
M  V30 2570 H 325.966 6.35749 7.26911 0
M  V30 2571 H 324.884 4.9828 2.86753 0
M  V30 2572 H 326.648 4.84464 4.54228 0
M  V30 2573 H 321.94 2.75785 2.99862 0
M  V30 2574 H 322.735 4.12304 2.17382 0
M  V30 2575 H 328.702 1.65592 6.23485 0
M  V30 2576 P 330.464 3.65191 7.99657 0
M  V30 2577 O 331.886 3.84333 8.48297 0
M  V30 2578 O 330.104 4.17805 6.64342 0
M  V30 2579 O 330.141 2.07613 7.95143 0
M  V30 2580 C 329.981 1.44328 9.27336 0
M  V30 2581 C 330.521 0.0220012 9.17097 0
M  V30 2582 O 329.466 -0.626867 8.61923 0
M  V30 2583 C 331.739 -0.24586 8.30336 0
M  V30 2584 O 332.477 -1.39011 8.63583 0
M  V30 2585 C 331.071 -0.273849 6.91158 0
M  V30 2586 O 331.869 -1.06331 6.02794 0
M  V30 2587 C 329.733 -0.897649 7.22545 0
M  V30 2588 N 328.69 -0.292839 6.41732 0
M  V30 2589 C 328.752 1.00068 6.10757 0
M  V30 2590 N 327.707 1.36468 5.35794 0
M  V30 2591 C 326.973 0.258894 5.2366 0
M  V30 2592 C 325.667 0.0670682 4.65752 0
M  V30 2593 O 324.934 0.902443 4.10497 0
M  V30 2594 N 325.237 -1.2131 4.75881 0
M  V30 2595 C 325.986 -2.24934 5.37101 0
M  V30 2596 N 325.389 -3.48783 5.33984 0
M  V30 2597 N 327.139 -2.0844 5.95684 0
M  V30 2598 C 327.596 -0.81395 5.87791 0
M  V30 2599 H 329.765 -1.9841 7.04286 0
M  V30 2600 H 330.948 0.739815 6.49601 0
M  V30 2601 H 332.433 0.598315 8.36563 0
M  V30 2602 H 330.738 -0.352479 10.1829 0
M  V30 2603 H 330.548 2.00611 10.0304 0
M  V30 2604 H 328.917 1.41843 9.55327 0
M  V30 2605 H 324.341 -1.44434 4.37895 0
M  V30 2606 H 329.548 1.67697 6.42268 0
M  V30 2607 H 324.478 -3.60543 4.87699 0
M  V30 2608 H 325.854 -4.29232 5.7819 0
M  V30 2609 H 331.558 -1.95704 6.0346 0
M  V30 2610 P 333.414 -1.25109 8.70152 0
M  V30 2611 O 334.835 -1.35288 9.2132 0
M  V30 2612 O 333.054 -0.0769065 7.84762 0
M  V30 2613 O 333.091 -2.55232 7.81161 0
M  V30 2614 C 332.93 -3.79979 8.58246 0
M  V30 2615 C 333.471 -4.94023 7.72785 0
M  V30 2616 O 332.416 -5.18666 6.91125 0
M  V30 2617 C 334.689 -4.69597 6.85231 0
M  V30 2618 O 335.427 -5.83832 6.51337 0
M  V30 2619 C 334.021 -3.96706 5.66633 0
M  V30 2620 O 334.819 -4.14896 4.5003 0
M  V30 2621 C 332.683 -4.66153 5.59313 0
M  V30 2622 N 331.64 -3.71582 5.24027 0
M  V30 2623 C 331.809 -2.39715 5.48833 0
M  V30 2624 N 330.782 -1.65863 5.12845 0
M  V30 2625 C 329.897 -2.57637 4.5973 0
M  V30 2626 C 328.63 -2.40278 4.01027 0
M  V30 2627 N 328.065 -3.57711 3.59575 0
M  V30 2628 C 328.667 -4.80324 3.70476 0
M  V30 2629 N 329.844 -5.01121 4.23801 0
M  V30 2630 C 330.419 -3.84757 4.66372 0
M  V30 2631 H 333.898 -2.8955 5.86187 0
M  V30 2632 H 335.381 -4.0121 7.36511 0
M  V30 2633 H 333.687 -5.81019 8.37003 0
M  V30 2634 H 333.497 -3.73517 9.52265 0
M  V30 2635 H 331.867 -3.97163 8.80359 0
M  V30 2636 H 332.709 -1.98804 5.94332 0
M  V30 2637 H 334.507 -4.90891 4.01857 0
M  V30 2638 P 336.365 -5.75688 6.64379 0
M  V30 2639 O 337.766 -6.11991 7.09136 0
M  V30 2640 O 335.987 -4.30899 6.62018 0
M  V30 2641 O 336.042 -6.36965 5.19102 0
M  V30 2642 C 335.882 -7.83578 5.16515 0
M  V30 2643 C 336.422 -8.33307 3.82977 0
M  V30 2644 O 335.366 -8.0998 3.00999 0
M  V30 2645 C 337.639 -7.65514 3.2257 0
M  V30 2646 O 338.378 -8.4329 2.32297 0
M  V30 2647 C 336.972 -6.40075 2.62207 0
M  V30 2648 O 337.77 -5.92492 1.53687 0
M  V30 2649 C 335.634 -6.9454 2.18503 0
M  V30 2650 N 334.591 -5.95905 2.39948 0
M  V30 2651 C 333.556 -5.89764 1.49837 0
M  V30 2652 O 333.595 -6.64088 0.490975 0
M  V30 2653 N 332.544 -5.02821 1.70992 0
M  V30 2654 C 332.592 -4.21498 2.77236 0
M  V30 2655 C 333.688 -4.23389 3.68205 0
M  V30 2656 C 334.654 -5.12792 3.46171 0
M  V30 2657 H 335.666 -7.22964 1.12076 0
M  V30 2658 H 336.849 -5.60502 3.36589 0
M  V30 2659 H 338.333 -7.36197 4.01993 0
M  V30 2660 H 336.639 -9.41302 3.90009 0
M  V30 2661 H 336.448 -8.29056 5.99158 0
M  V30 2662 H 334.818 -8.09989 5.25828 0
M  V30 2663 H 333.736 -3.54747 4.52399 0
M  V30 2664 H 335.5 -5.18551 4.1489 0
M  V30 2665 H 337.554 -6.40705 0.751752 0
M  V30 2666 P 339.316 -8.4349 2.47671 0
M  V30 2667 O 340.738 -8.94167 2.5964 0
M  V30 2668 O 338.956 -7.1704 3.19006 0
M  V30 2669 O 338.993 -8.16596 0.923387 0
M  V30 2670 C 338.833 -9.38437 0.108857 0
M  V30 2671 C 339.373 -9.08175 -1.28353 0
M  V30 2672 O 338.317 -8.44229 -1.84713 0
M  V30 2673 C 340.591 -8.18386 -1.42505 0
M  V30 2674 O 341.329 -8.3501 -2.60497 0
M  V30 2675 C 339.922 -6.80225 -1.25468 0
M  V30 2676 O 340.721 -5.81621 -1.91066 0
M  V30 2677 C 338.585 -7.02416 -1.9168 0
M  V30 2678 H 338.617 -6.6888 -2.96621 0
M  V30 2679 H 339.8 -6.53617 -0.192223 0
M  V30 2680 H 341.284 -8.36622 -0.589963 0
M  V30 2681 H 339.59 -10.0291 -1.79807 0
M  V30 2682 H 339.4 -10.2138 0.558219 0
M  V30 2683 H 337.77 -9.6579 0.0444202 0
M  V30 2684 H 340.409 -5.69556 -2.79637 0
M  V30 2685 P 342.266 -8.4349 -2.47671 0
M  V30 2686 O 343.688 -8.92785 -2.65057 0
M  V30 2687 O 341.906 -7.7568 -1.19296 0
M  V30 2688 O 341.943 -7.36886 -3.63805 0
M  V30 2689 C 341.783 -7.95349 -4.982 0
M  V30 2690 C 342.323 -6.94537 -5.98908 0
M  V30 2691 O 341.268 -6.10347 -6.11815 0
M  V30 2692 C 343.541 -6.11426 -5.62335 0
M  V30 2693 O 344.279 -5.6162 -6.70584 0
M  V30 2694 C 342.873 -5.04409 -4.73308 0
M  V30 2695 O 343.671 -3.85929 -4.75106 0
M  V30 2696 C 341.535 -4.8728 -5.41006 0
M  V30 2697 N 340.492 -4.65812 -4.42377 0
M  V30 2698 C 340.554 -5.27109 -3.24335 0
M  V30 2699 N 339.509 -4.94293 -2.47735 0
M  V30 2700 C 338.775 -4.1271 -3.23359 0
M  V30 2701 C 337.469 -3.56384 -2.99934 0
M  V30 2702 O 336.736 -3.69331 -2.00616 0
M  V30 2703 N 337.039 -2.80206 -4.03316 0
M  V30 2704 C 337.788 -2.58614 -5.2172 0
M  V30 2705 N 337.191 -1.75154 -6.13278 0
M  V30 2706 N 338.941 -3.13689 -5.47619 0
M  V30 2707 C 339.398 -3.90921 -4.46436 0
M  V30 2708 H 341.567 -4.02333 -6.11157 0
M  V30 2709 H 342.75 -5.39383 -3.69487 0
M  V30 2710 H 344.235 -6.71414 -5.02615 0
M  V30 2711 H 342.54 -7.4649 -6.93477 0
M  V30 2712 H 342.35 -8.89416 -5.05237 0
M  V30 2713 H 340.719 -8.14876 -5.18409 0
M  V30 2714 H 336.143 -2.36355 -3.95916 0
M  V30 2715 H 341.35 -5.95212 -2.93859 0
M  V30 2716 H 336.28 -1.32473 -5.91856 0
M  V30 2717 H 337.656 -1.5588 -7.03026 0
M  V30 2718 H 343.36 -3.27906 -5.43085 0
M  V30 2719 P 345.217 -5.75688 -6.64379 0
M  V30 2720 O 346.639 -6.07627 -7.05504 0
M  V30 2721 O 344.857 -5.88047 -5.19722 0
M  V30 2722 O 344.894 -4.2322 -7.04443 0
M  V30 2723 C 344.734 -3.99743 -8.4911 0
M  V30 2724 C 345.274 -2.60516 -8.79425 0
M  V30 2725 O 344.218 -1.82684 -8.4467 0
M  V30 2726 C 346.492 -2.10343 -8.03628 0
M  V30 2727 O 347.23 -1.09919 -8.67766 0
M  V30 2728 C 345.823 -1.68446 -6.70876 0
M  V30 2729 O 346.622 -0.678137 -6.08433 0
M  V30 2730 C 344.486 -1.17436 -7.18567 0
M  V30 2731 H 344.518 -0.0804732 -7.31656 0
M  V30 2732 H 345.701 -2.54037 -6.02537 0
M  V30 2733 H 347.185 -2.93881 -7.85526 0
M  V30 2734 H 345.491 -2.53065 -9.86973 0
M  V30 2735 H 345.301 -4.75072 -9.05887 0
M  V30 2736 H 343.671 -4.05244 -8.76668 0
M  V30 2737 H 346.31 0.177647 -6.34251 0
M  V30 2738 P 348.167 -1.25109 -8.70152 0
M  V30 2739 O 349.589 -1.29744 -9.22016 0
M  V30 2740 O 347.807 -2.13714 -7.55141 0
M  V30 2741 O 347.844 0.248149 -8.21425 0
M  V30 2742 C 347.684 1.22779 -9.30434 0
M  V30 2743 C 348.224 2.56293 -8.80664 0
M  V30 2744 O 347.168 3.02979 -8.09349 0
M  V30 2745 C 349.442 2.57523 -7.89775 0
M  V30 2746 O 350.18 3.7668 -7.89438 0
M  V30 2747 C 348.773 2.20997 -6.55446 0
M  V30 2748 O 349.572 2.71895 -5.48509 0
M  V30 2749 C 347.436 2.89693 -6.67988 0
M  V30 2750 H 347.468 3.88793 -6.19859 0
M  V30 2751 H 348.651 1.12046 -6.44229 0
M  V30 2752 H 350.135 1.7746 -8.19711 0
M  V30 2753 H 348.441 3.20706 -9.67112 0
M  V30 2754 H 348.251 0.901032 -10.1892 0
M  V30 2755 H 346.621 1.33049 -9.56592 0
M  V30 2756 H 349.26 3.57847 -5.23962 0
M  V30 2757 P 351.118 3.65191 -7.99657 0
M  V30 2758 O 352.54 3.89332 -8.45794 0
M  V30 2759 O 350.758 2.28472 -7.50807 0
M  V30 2760 O 350.795 4.64972 -6.77611 0
M  V30 2761 C 350.635 6.06319 -7.16352 0
M  V30 2762 C 351.175 6.91731 -6.02299 0
M  V30 2763 O 350.119 6.92449 -5.17064 0
M  V30 2764 C 352.393 6.43627 -5.25174 0
M  V30 2765 O 353.131 7.43686 -4.60469 0
M  V30 2766 C 351.724 5.40275 -4.31916 0
M  V30 2767 O 352.523 5.25279 -3.14438 0
M  V30 2768 C 350.387 6.04847 -4.05327 0
M  V30 2769 H 350.419 6.62195 -3.11261 0
M  V30 2770 H 351.602 4.42556 -4.81383 0
M  V30 2771 H 353.086 5.92458 -5.93643 0
M  V30 2772 H 351.392 7.92655 -6.402 0
M  V30 2773 H 351.202 6.26671 -8.0846 0
M  V30 2774 H 349.572 6.29101 -7.32804 0
M  V30 2775 H 352.211 5.84315 -2.47318 0
M  V30 2776 P 354.068 7.39546 -4.75277 0
M  V30 2777 O 355.489 7.84882 -5.01092 0
M  V30 2778 O 353.708 5.9812 -5.08098 0
M  V30 2779 O 353.745 7.57503 -3.1866 0
M  V30 2780 C 353.584 8.97452 -2.74862 0
M  V30 2781 C 354.125 9.07548 -1.32709 0
M  V30 2782 O 353.07 8.61972 -0.606089 0
M  V30 2783 C 355.343 8.25383 -0.938334 0
M  V30 2784 O 356.081 8.74577 0.146954 0
M  V30 2785 C 354.675 6.8802 -0.712559 0
M  V30 2786 O 355.473 6.1181 0.188505 0
M  V30 2787 C 353.337 7.27966 -0.139777 0
M  V30 2788 N 352.294 6.39368 -0.623421 0
M  V30 2789 C 352.463 5.71761 -1.78245 0
M  V30 2790 N 351.436 4.962 -2.10491 0
M  V30 2791 C 350.551 5.16158 -1.0635 0
M  V30 2792 C 349.284 4.60425 -0.810266 0
M  V30 2793 N 348.719 5.06 0.348685 0
M  V30 2794 C 349.321 5.94532 1.20395 0
M  V30 2795 N 350.498 6.48452 1.01191 0
M  V30 2796 C 351.073 6.04423 -0.146291 0
M  V30 2797 H 354.552 6.32625 -1.65044 0
M  V30 2798 H 356.035 8.19355 -1.79097 0
M  V30 2799 H 354.341 10.1305 -1.09016 0
M  V30 2800 H 354.151 9.64276 -3.41316 0
M  V30 2801 H 352.521 9.25417 -2.76357 0
M  V30 2802 H 353.363 5.79354 -2.38959 0
M  V30 2803 H 355.161 6.25169 1.0783 0
M  V30 2804 P 357.019 8.791 1.66284e-12 0
M  V30 2805 O 358.441 9.31096 0.027933 0
M  V30 2806 O 356.659 7.77869 -1.04071 0
M  V30 2807 O 356.696 8.09533 1.41463 0
M  V30 2808 C 356.536 9.0349 2.53943 0
M  V30 2809 C 357.076 8.35226 3.79016 0
M  V30 2810 O 356.02 7.57992 4.15078 0
M  V30 2811 C 358.294 7.45087 3.67298 0
M  V30 2812 O 359.032 7.27796 4.85194 0
M  V30 2813 C 357.625 6.17323 3.12027 0
M  V30 2814 O 358.424 5.04231 3.47188 0
M  V30 2815 C 356.288 6.19961 3.81809 0
M  V30 2816 H 356.32 5.58218 4.73051 0
M  V30 2817 H 357.503 6.21726 2.02589 0
M  V30 2818 H 358.987 7.86112 2.9231 0
M  V30 2819 H 357.293 9.11627 4.55076 0
M  V30 2820 H 357.103 9.9573 2.34194 0
M  V30 2821 H 355.473 9.2792 2.67832 0
M  V30 2822 H 358.112 4.67702 4.28772 0
M  V30 2823 P 359.97 7.39546 4.75277 0
M  V30 2824 O 361.392 7.81777 5.05738 0
M  V30 2825 O 359.61 7.1065 3.32998 0
M  V30 2826 O 359.647 6.04542 5.56673 0
M  V30 2827 C 359.487 6.22772 7.02095 0
M  V30 2828 C 360.027 4.97725 7.70406 0
M  V30 2829 O 358.971 4.13256 7.58987 0
M  V30 2830 C 361.245 4.28231 7.11815 0
M  V30 2831 O 361.983 3.49945 8.01648 0
M  V30 2832 C 360.576 3.5063 5.96244 0
M  V30 2833 O 361.375 2.36482 5.64681 0
M  V30 2834 C 359.239 3.15122 6.56374 0
M  V30 2835 H 359.271 2.13853 6.99751 0
M  V30 2836 H 360.454 4.13501 5.06559 0
M  V30 2837 H 361.938 5.03285 6.70911 0
M  V30 2838 H 360.244 5.20877 8.75697 0
M  V30 2839 H 360.054 7.11046 7.35349 0
M  V30 2840 H 358.424 6.35815 7.26986 0
M  V30 2841 H 361.063 1.61644 6.13565 0
M  V30 2842 P 362.92 3.65191 7.99657 0
M  V30 2843 O 364.342 3.8425 8.48115 0
M  V30 2844 O 362.56 4.17805 6.64342 0
M  V30 2845 O 362.597 2.07613 7.95143 0
M  V30 2846 C 362.437 1.44328 9.27336 0
M  V30 2847 C 362.977 0.0220036 9.17197 0
M  V30 2848 O 361.921 -0.626867 8.61923 0
M  V30 2849 C 364.195 -0.24586 8.30336 0
M  V30 2850 O 364.933 -1.39011 8.63583 0
M  V30 2851 C 363.526 -0.273849 6.91158 0
M  V30 2852 O 364.325 -1.06348 6.02892 0
M  V30 2853 C 362.189 -0.897649 7.22545 0
M  V30 2854 H 362.221 -1.9841 7.04286 0
M  V30 2855 H 363.404 0.739928 6.497 0
M  V30 2856 H 364.888 0.60668 8.36503 0
M  V30 2857 H 363.194 -0.352479 10.1829 0
M  V30 2858 H 363.004 2.00611 10.0304 0
M  V30 2859 H 361.374 1.41843 9.55327 0
M  V30 2860 H 364.013 -1.95734 6.03555 0
M  V30 2861 P 365.871 -1.25109 8.70152 0
M  V30 2862 O 367.293 -1.35274 9.21221 0
M  V30 2863 O 365.511 -0.0769065 7.84762 0
M  V30 2864 O 365.548 -2.55232 7.81161 0
M  V30 2865 C 365.388 -3.79939 8.58154 0
M  V30 2866 C 365.928 -4.94023 7.72785 0
M  V30 2867 O 364.872 -5.18726 6.91205 0
M  V30 2868 C 367.146 -4.69597 6.85231 0
M  V30 2869 O 367.884 -5.83832 6.51337 0
M  V30 2870 C 366.477 -3.96706 5.66633 0
M  V30 2871 O 367.276 -4.15414 4.49689 0
M  V30 2872 C 365.14 -4.66153 5.59313 0
M  V30 2873 H 365.172 -5.47679 4.85214 0
M  V30 2874 H 366.355 -2.89008 5.86566 0
M  V30 2875 H 367.839 -4.0121 7.36511 0
M  V30 2876 H 366.145 -5.80182 8.37584 0
M  V30 2877 H 365.955 -3.73517 9.52265 0
M  V30 2878 H 364.325 -3.97163 8.80359 0
M  V30 2879 H 366.964 -4.90969 4.01921 0
M  V30 2880 P 368.821 -5.75688 6.64379 0
M  V30 2881 O 370.243 -6.11849 7.01846 0
M  V30 2882 O 368.461 -4.30744 6.56026 0
M  V30 2883 O 368.498 -6.37042 5.19165 0
M  V30 2884 C 368.338 -7.83578 5.16515 0
M  V30 2885 C 368.878 -8.33398 3.83019 0
M  V30 2886 O 367.822 -8.10074 3.01034 0
M  V30 2887 C 370.096 -7.65514 3.2257 0
M  V30 2888 O 370.834 -8.4329 2.32297 0
M  V30 2889 C 369.427 -6.40075 2.62207 0
M  V30 2890 O 370.226 -5.92589 1.53712 0
M  V30 2891 C 368.09 -6.9454 2.18503 0
M  V30 2892 H 368.122 -7.23063 1.12091 0
M  V30 2893 H 369.305 -5.6025 3.37201 0
M  V30 2894 H 370.789 -7.35707 4.02681 0
M  V30 2895 H 369.095 -9.40912 3.9095 0
M  V30 2896 H 368.905 -8.29056 5.99158 0
M  V30 2897 H 367.275 -8.10073 5.25882 0
M  V30 2898 H 369.914 -6.30324 0.726794 0
M  V30 2899 P 371.772 -8.4349 2.47671 0
M  V30 2900 O 373.194 -8.94167 2.5964 0
M  V30 2901 O 371.412 -7.1704 3.19006 0
M  V30 2902 O 371.449 -8.16596 0.923387 0
M  V30 2903 C 371.289 -9.38437 0.108857 0
M  V30 2904 C 371.829 -9.08175 -1.28353 0
M  V30 2905 O 370.773 -8.44229 -1.84713 0
M  V30 2906 C 373.047 -8.18386 -1.42505 0
M  V30 2907 O 373.785 -8.3501 -2.60497 0
M  V30 2908 C 372.378 -6.80225 -1.25468 0
M  V30 2909 O 373.177 -5.81621 -1.91066 0
M  V30 2910 C 371.041 -7.02416 -1.9168 0
M  V30 2911 H 371.073 -6.6888 -2.96621 0
M  V30 2912 H 372.256 -6.53617 -0.192223 0
M  V30 2913 H 373.74 -8.36622 -0.589963 0
M  V30 2914 H 372.046 -10.0291 -1.79807 0
M  V30 2915 H 371.856 -10.2138 0.558219 0
M  V30 2916 H 370.226 -9.6579 0.0444202 0
M  V30 2917 H 372.865 -5.69556 -2.79637 0
M  V30 2918 P 374.722 -8.4349 -2.47671 0
M  V30 2919 O 376.144 -8.92593 -2.65 0
M  V30 2920 O 374.362 -7.7568 -1.19296 0
M  V30 2921 O 374.399 -7.36886 -3.63805 0
M  V30 2922 C 374.239 -7.95349 -4.982 0
M  V30 2923 C 374.779 -6.94612 -5.98974 0
M  V30 2924 O 373.723 -6.10347 -6.11815 0
M  V30 2925 C 375.997 -6.11426 -5.62335 0
M  V30 2926 O 376.735 -5.6162 -6.70584 0
M  V30 2927 C 375.328 -5.04409 -4.73308 0
M  V30 2928 O 376.127 -3.85992 -4.75183 0
M  V30 2929 C 373.991 -4.8728 -5.41006 0
M  V30 2930 H 374.023 -4.02333 -6.11157 0
M  V30 2931 H 375.206 -5.39466 -3.69543 0
M  V30 2932 H 376.69 -6.71916 -5.01943 0
M  V30 2933 H 374.996 -7.4649 -6.93477 0
M  V30 2934 H 374.806 -8.89416 -5.05237 0
M  V30 2935 H 373.176 -8.14876 -5.18409 0
M  V30 2936 H 375.815 -3.27957 -5.4317 0
M  V30 2937 P 377.673 -5.75688 -6.64379 0
M  V30 2938 O 379.095 -6.07627 -7.05504 0
M  V30 2939 O 377.313 -5.88047 -5.19722 0
M  V30 2940 O 377.35 -4.2322 -7.04443 0
M  V30 2941 C 377.19 -3.99743 -8.4911 0
M  V30 2942 C 377.73 -2.60516 -8.79425 0
M  V30 2943 O 376.674 -1.82684 -8.4467 0
M  V30 2944 C 378.948 -2.10343 -8.03628 0
M  V30 2945 O 379.686 -1.09919 -8.67766 0
M  V30 2946 C 378.279 -1.68446 -6.70876 0
M  V30 2947 O 379.078 -0.678137 -6.08433 0
M  V30 2948 C 376.942 -1.17436 -7.18567 0
M  V30 2949 H 376.974 -0.0804732 -7.31656 0
M  V30 2950 H 378.157 -2.54037 -6.02537 0
M  V30 2951 H 379.641 -2.93881 -7.85526 0
M  V30 2952 H 377.947 -2.53065 -9.86973 0
M  V30 2953 H 377.757 -4.75072 -9.05887 0
M  V30 2954 H 376.127 -4.05244 -8.76668 0
M  V30 2955 H 378.766 0.177647 -6.34251 0
M  V30 2956 P 380.624 -1.25109 -8.70152 0
M  V30 2957 O 382.046 -1.29744 -9.22016 0
M  V30 2958 O 380.264 -2.13714 -7.55141 0
M  V30 2959 O 380.301 0.248149 -8.21425 0
M  V30 2960 C 380.141 1.22779 -9.30434 0
M  V30 2961 C 380.681 2.56293 -8.80664 0
M  V30 2962 O 379.625 3.02979 -8.09349 0
M  V30 2963 C 381.899 2.57523 -7.89775 0
M  V30 2964 O 382.637 3.7668 -7.89438 0
M  V30 2965 C 381.23 2.20997 -6.55446 0
M  V30 2966 O 382.029 2.71895 -5.48509 0
M  V30 2967 C 379.893 2.89693 -6.67988 0
M  V30 2968 H 379.925 3.88793 -6.19859 0
M  V30 2969 H 381.108 1.12046 -6.44229 0
M  V30 2970 H 382.592 1.7746 -8.19711 0
M  V30 2971 H 380.898 3.20706 -9.67112 0
M  V30 2972 H 380.708 0.901032 -10.1892 0
M  V30 2973 H 379.078 1.33049 -9.56592 0
M  V30 2974 H 381.717 3.57847 -5.23962 0
M  V30 2975 P 383.574 3.65191 -7.99657 0
M  V30 2976 O 384.996 3.89332 -8.45794 0
M  V30 2977 O 383.214 2.28472 -7.50807 0
M  V30 2978 O 383.251 4.64972 -6.77611 0
M  V30 2979 C 383.091 6.06319 -7.16352 0
M  V30 2980 C 383.631 6.91731 -6.02299 0
M  V30 2981 O 382.575 6.92449 -5.17064 0
M  V30 2982 C 384.849 6.43627 -5.25174 0
M  V30 2983 O 385.587 7.43686 -4.60469 0
M  V30 2984 C 384.18 5.40275 -4.31916 0
M  V30 2985 O 384.979 5.25279 -3.14438 0
M  V30 2986 C 382.843 6.04847 -4.05327 0
M  V30 2987 H 382.875 6.62195 -3.11261 0
M  V30 2988 H 384.058 4.42556 -4.81383 0
M  V30 2989 H 385.542 5.92458 -5.93643 0
M  V30 2990 H 383.848 7.92655 -6.402 0
M  V30 2991 H 383.658 6.26671 -8.0846 0
M  V30 2992 H 382.028 6.29101 -7.32804 0
M  V30 2993 H 384.667 5.84315 -2.47318 0
M  V30 2994 P 386.525 7.39546 -4.75277 0
M  V30 2995 O 387.947 7.84798 -5.01039 0
M  V30 2996 O 386.165 5.9812 -5.08098 0
M  V30 2997 O 386.202 7.57503 -3.1866 0
M  V30 2998 C 386.042 8.97357 -2.74833 0
M  V30 2999 C 386.582 9.07548 -1.32709 0
M  V30 3000 O 385.526 8.62072 -0.606159 0
M  V30 3001 C 387.8 8.25383 -0.938334 0
M  V30 3002 O 388.538 8.74577 0.146954 0
M  V30 3003 C 387.131 6.8802 -0.712559 0
M  V30 3004 O 387.93 6.1189 0.194655 0
M  V30 3005 C 385.794 7.27966 -0.139777 0
M  V30 3006 H 385.826 7.25354 0.961601 0
M  V30 3007 H 387.009 6.32557 -1.65702 0
M  V30 3008 H 388.493 8.19355 -1.79097 0
M  V30 3009 H 386.799 10.1294 -1.10029 0
M  V30 3010 H 386.609 9.64276 -3.41316 0
M  V30 3011 H 384.979 9.25417 -2.76357 0
M  V30 3012 H 387.618 6.25267 1.07847 0
M  V30 3013 P 389.475 8.791 1.973e-12 0
M  V30 3014 O 390.897 9.31096 0.027933 0
M  V30 3015 O 389.115 7.77869 -1.04071 0
M  V30 3016 O 389.152 8.09533 1.41463 0
M  V30 3017 C 388.992 9.0349 2.53943 0
M  V30 3018 C 389.532 8.35226 3.79016 0
M  V30 3019 O 388.476 7.57992 4.15078 0
M  V30 3020 C 390.75 7.45087 3.67298 0
M  V30 3021 O 391.488 7.27796 4.85194 0
M  V30 3022 C 390.081 6.17323 3.12027 0
M  V30 3023 O 390.88 5.04231 3.47188 0
M  V30 3024 C 388.744 6.19961 3.81809 0
M  V30 3025 H 388.776 5.58218 4.73051 0
M  V30 3026 H 389.959 6.21726 2.02589 0
M  V30 3027 H 391.443 7.86112 2.9231 0
M  V30 3028 H 389.749 9.11627 4.55076 0
M  V30 3029 H 389.559 9.9573 2.34194 0
M  V30 3030 H 387.929 9.2792 2.67832 0
M  V30 3031 H 390.568 4.67702 4.28772 0
M  V30 3032 P 392.426 7.39546 4.75277 0
M  V30 3033 O 393.848 7.81945 5.05847 0
M  V30 3034 O 392.066 7.1065 3.32998 0
M  V30 3035 O 392.103 6.04542 5.56673 0
M  V30 3036 C 391.943 6.22772 7.02095 0
M  V30 3037 C 392.483 4.97671 7.70322 0
M  V30 3038 O 391.428 4.13256 7.58987 0
M  V30 3039 C 393.701 4.28231 7.11815 0
M  V30 3040 O 394.439 3.49945 8.01648 0
M  V30 3041 C 393.033 3.5063 5.96244 0
M  V30 3042 O 393.831 2.36443 5.64589 0
M  V30 3043 C 391.695 3.15122 6.56374 0
M  V30 3044 N 390.652 3.22311 5.55692 0
M  V30 3045 C 390.714 4.14382 4.59701 0
M  V30 3046 N 389.669 4.04476 3.76958 0
M  V30 3047 C 388.935 3.04892 4.26534 0
M  V30 3048 C 387.629 2.57447 3.88189 0
M  V30 3049 O 386.896 2.9785 2.96543 0
M  V30 3050 N 387.199 1.55228 4.65922 0
M  V30 3051 C 387.948 1.01152 5.73447 0
M  V30 3052 N 387.351 -0.0472117 6.37783 0
M  V30 3053 N 389.101 1.467 6.13813 0
M  V30 3054 C 389.558 2.4931 5.38487 0
M  V30 3055 H 391.727 2.13853 6.99751 0
M  V30 3056 H 392.91 4.13438 5.06482 0
M  V30 3057 H 394.395 5.02614 6.71414 0
M  V30 3058 H 392.7 5.20877 8.75697 0
M  V30 3059 H 392.51 7.11046 7.35349 0
M  V30 3060 H 390.879 6.35815 7.26986 0
M  V30 3061 H 386.303 1.15238 4.46468 0
M  V30 3062 H 391.51 4.88312 4.49647 0
M  V30 3063 H 386.44 -0.396382 6.05203 0
M  V30 3064 H 387.816 -0.484997 7.18465 0
M  V30 3065 H 393.52 1.61619 6.13468 0
M  V30 3066 P 395.376 3.65191 7.99657 0
M  V30 3067 O 396.798 3.8425 8.48115 0
M  V30 3068 O 395.016 4.17805 6.64342 0
M  V30 3069 O 395.053 2.07613 7.95143 0
M  V30 3070 C 394.893 1.44328 9.27336 0
M  V30 3071 C 395.433 0.0220036 9.17197 0
M  V30 3072 O 394.377 -0.626867 8.61923 0
M  V30 3073 C 396.651 -0.24586 8.30336 0
M  V30 3074 O 397.389 -1.39011 8.63583 0
M  V30 3075 C 395.982 -0.273849 6.91158 0
M  V30 3076 O 396.781 -1.06348 6.02892 0
M  V30 3077 C 394.645 -0.897649 7.22545 0
M  V30 3078 H 394.677 -1.9841 7.04286 0
M  V30 3079 H 395.86 0.739928 6.497 0
M  V30 3080 H 397.344 0.60668 8.36503 0
M  V30 3081 H 395.65 -0.352479 10.1829 0
M  V30 3082 H 395.46 2.00611 10.0304 0
M  V30 3083 H 393.83 1.41843 9.55327 0
M  V30 3084 H 396.469 -1.95734 6.03555 0
M  V30 3085 P 398.327 -1.25109 8.70152 0
M  V30 3086 O 399.728 -1.31452 9.27431 0
M  V30 3087 O 397.949 -0.0458113 7.89887 0
M  V30 3088 O 398.004 -2.55201 7.81066 0
M  V30 3089 C 397.844 -3.79939 8.58154 0
M  V30 3090 C 398.384 -4.93969 7.72701 0
M  V30 3091 O 397.328 -5.18666 6.91125 0
M  V30 3092 C 399.601 -4.69597 6.85231 0
M  V30 3093 O 400.34 -5.83832 6.51337 0
M  V30 3094 C 398.934 -3.96706 5.66633 0
M  V30 3095 O 399.732 -4.15346 4.49615 0
M  V30 3096 C 397.596 -4.66153 5.59313 0
M  V30 3097 N 396.553 -3.71582 5.24027 0
M  V30 3098 C 395.518 -4.15133 4.44901 0
M  V30 3099 O 395.557 -5.32122 4.00336 0
M  V30 3100 N 394.506 -3.30554 4.15693 0
M  V30 3101 C 394.554 -2.04701 4.61105 0
M  V30 3102 C 395.65 -1.57111 5.38655 0
M  V30 3103 C 396.616 -2.44234 5.68454 0
M  V30 3104 H 397.628 -5.47604 4.85148 0
M  V30 3105 H 398.811 -2.8955 5.86187 0
M  V30 3106 H 400.295 -4.01995 7.36197 0
M  V30 3107 H 398.601 -5.81019 8.37003 0
M  V30 3108 H 398.41 -3.73517 9.52265 0
M  V30 3109 H 396.78 -3.97122 8.80267 0
M  V30 3110 H 395.698 -0.538464 5.72373 0
M  V30 3111 H 397.462 -2.11927 6.29377 0
M  V30 3112 H 399.516 -4.98352 4.09633 0
M  V30 3113 P 401.278 -5.75688 6.64379 0
M  V30 3114 O 402.7 -6.11849 7.01846 0
M  V30 3115 O 400.918 -4.30744 6.56026 0
M  V30 3116 O 400.955 -6.37042 5.19165 0
M  V30 3117 C 400.795 -7.83578 5.16515 0
M  V30 3118 C 401.335 -8.33398 3.83019 0
M  V30 3119 O 400.279 -8.10074 3.01034 0
M  V30 3120 C 402.553 -7.65514 3.2257 0
M  V30 3121 O 403.291 -8.4329 2.32297 0
M  V30 3122 C 401.884 -6.40075 2.62207 0
M  V30 3123 O 402.683 -5.92589 1.53712 0
M  V30 3124 C 400.547 -6.9454 2.18503 0
M  V30 3125 H 400.579 -7.23063 1.12091 0
M  V30 3126 H 401.762 -5.6025 3.37201 0
M  V30 3127 H 403.246 -7.35707 4.02681 0
M  V30 3128 H 401.552 -9.40912 3.9095 0
M  V30 3129 H 401.362 -8.29056 5.99158 0
M  V30 3130 H 399.732 -8.10073 5.25882 0
M  V30 3131 H 402.371 -6.30324 0.726794 0
M  V30 3132 P 404.228 -8.4349 2.47671 0
M  V30 3133 O 405.65 -8.94167 2.5964 0
M  V30 3134 O 403.868 -7.1704 3.19006 0
M  V30 3135 O 403.905 -8.16596 0.923387 0
M  V30 3136 C 403.745 -9.38437 0.108857 0
M  V30 3137 C 404.285 -9.08175 -1.28353 0
M  V30 3138 O 403.229 -8.44229 -1.84713 0
M  V30 3139 C 405.503 -8.18386 -1.42505 0
M  V30 3140 O 406.241 -8.3501 -2.60497 0
M  V30 3141 C 404.834 -6.80225 -1.25468 0
M  V30 3142 O 405.633 -5.81621 -1.91066 0
M  V30 3143 C 403.497 -7.02416 -1.9168 0
M  V30 3144 H 403.529 -6.6888 -2.96621 0
M  V30 3145 H 404.712 -6.53617 -0.192223 0
M  V30 3146 H 406.196 -8.36622 -0.589963 0
M  V30 3147 H 404.502 -10.0291 -1.79807 0
M  V30 3148 H 404.312 -10.2138 0.558219 0
M  V30 3149 H 402.682 -9.6579 0.0444202 0
M  V30 3150 H 405.321 -5.69556 -2.79637 0
M  V30 3151 P 407.179 -8.4349 -2.47671 0
M  V30 3152 O 408.601 -8.92593 -2.65 0
M  V30 3153 O 406.819 -7.7568 -1.19296 0
M  V30 3154 O 406.856 -7.36886 -3.63805 0
M  V30 3155 C 406.696 -7.95349 -4.982 0
M  V30 3156 C 407.236 -6.94612 -5.98974 0
M  V30 3157 O 406.18 -6.10347 -6.11815 0
M  V30 3158 C 408.454 -6.11426 -5.62335 0
M  V30 3159 O 409.192 -5.6162 -6.70584 0
M  V30 3160 C 407.785 -5.04409 -4.73308 0
M  V30 3161 O 408.584 -3.85992 -4.75183 0
M  V30 3162 C 406.448 -4.8728 -5.41006 0
M  V30 3163 H 406.48 -4.02333 -6.11157 0
M  V30 3164 H 407.663 -5.39466 -3.69543 0
M  V30 3165 H 409.147 -6.71916 -5.01943 0
M  V30 3166 H 407.453 -7.4649 -6.93477 0
M  V30 3167 H 407.263 -8.89416 -5.05237 0
M  V30 3168 H 405.633 -8.14876 -5.18409 0
M  V30 3169 H 408.272 -3.27957 -5.4317 0
M  V30 3170 P 410.129 -5.75688 -6.64379 0
M  V30 3171 O 411.551 -6.07758 -7.05656 0
M  V30 3172 O 409.769 -5.88047 -5.19722 0
M  V30 3173 O 409.806 -4.2322 -7.04443 0
M  V30 3174 C 409.646 -3.99743 -8.4911 0
M  V30 3175 C 410.186 -2.60487 -8.79329 0
M  V30 3176 O 409.131 -1.82684 -8.4467 0
M  V30 3177 C 411.404 -2.10343 -8.03628 0
M  V30 3178 O 412.142 -1.09919 -8.67766 0
M  V30 3179 C 410.736 -1.68446 -6.70876 0
M  V30 3180 O 411.534 -0.678026 -6.08333 0
M  V30 3181 C 409.398 -1.17436 -7.18567 0
M  V30 3182 N 408.355 -1.52699 -6.23988 0
M  V30 3183 C 408.417 -2.68084 -5.57824 0
M  V30 3184 N 407.372 -2.8189 -4.75643 0
M  V30 3185 C 406.638 -1.72373 -4.95155 0
M  V30 3186 C 405.332 -1.37653 -4.44996 0
M  V30 3187 O 404.599 -2.02239 -3.68445 0
M  V30 3188 N 404.902 -0.17675 -4.90782 0
M  V30 3189 C 405.651 0.645036 -5.78716 0
M  V30 3190 N 405.054 1.84214 -6.10618 0
M  V30 3191 N 406.804 0.321732 -6.30279 0
M  V30 3192 C 407.261 -0.87502 -5.86913 0
M  V30 3193 H 409.43 -0.0804732 -7.31656 0
M  V30 3194 H 410.613 -2.53998 -6.02444 0
M  V30 3195 H 412.098 -2.93095 -7.8582 0
M  V30 3196 H 410.403 -2.53065 -9.86973 0
M  V30 3197 H 410.213 -4.75072 -9.05887 0
M  V30 3198 H 408.582 -4.05244 -8.76668 0
M  V30 3199 H 404.006 0.152143 -4.60849 0
M  V30 3200 H 409.213 -3.41852 -5.69006 0
M  V30 3201 H 404.143 2.08538 -5.69521 0
M  V30 3202 H 405.519 2.4895 -6.75698 0
M  V30 3203 H 411.223 0.177619 -6.34151 0
M  V30 3204 P 413.08 -1.25109 -8.70152 0
M  V30 3205 O 414.502 -1.29772 -9.22214 0
M  V30 3206 O 412.72 -2.13714 -7.55141 0
M  V30 3207 O 412.757 0.248149 -8.21425 0
M  V30 3208 C 412.597 1.22779 -9.30434 0
M  V30 3209 C 413.137 2.56265 -8.80568 0
M  V30 3210 O 412.082 3.02979 -8.09349 0
M  V30 3211 C 414.355 2.57523 -7.89775 0
M  V30 3212 O 415.093 3.7668 -7.89438 0
M  V30 3213 C 413.687 2.20997 -6.55446 0
M  V30 3214 O 414.485 2.71851 -5.48419 0
M  V30 3215 C 412.349 2.89693 -6.67988 0
M  V30 3216 N 411.306 2.08895 -6.07487 0
M  V30 3217 C 411.368 0.760559 -6.14209 0
M  V30 3218 N 410.323 0.200108 -5.52538 0
M  V30 3219 C 409.589 1.22692 -5.09742 0
M  V30 3220 C 408.283 1.24782 -4.48775 0
M  V30 3221 O 407.55 0.290617 -4.19294 0
M  V30 3222 N 407.853 2.50468 -4.22428 0
M  V30 3223 C 408.602 3.67142 -4.51974 0
M  V30 3224 N 408.005 4.85096 -4.14091 0
M  V30 3225 N 409.755 3.67821 -5.12831 0
M  V30 3226 C 410.212 2.43698 -5.4105 0
M  V30 3227 H 412.381 3.88793 -6.19859 0
M  V30 3228 H 413.564 1.12029 -6.4413 0
M  V30 3229 H 415.049 1.78279 -8.19533 0
M  V30 3230 H 413.354 3.20706 -9.67112 0
M  V30 3231 H 413.164 0.901032 -10.1892 0
M  V30 3232 H 411.533 1.33049 -9.56592 0
M  V30 3233 H 406.957 2.61953 -3.79465 0
M  V30 3234 H 412.164 0.200439 -6.63497 0
M  V30 3235 H 407.094 4.8334 -3.66367 0
M  V30 3236 H 408.47 5.7474 -4.33841 0
M  V30 3237 H 414.174 3.5779 -5.23879 0
M  V30 3238 P 416.03 3.65191 -7.99657 0
M  V30 3239 O 417.452 3.89332 -8.45794 0
M  V30 3240 O 415.67 2.28472 -7.50807 0
M  V30 3241 O 415.707 4.64972 -6.77611 0
M  V30 3242 C 415.547 6.06319 -7.16352 0
M  V30 3243 C 416.087 6.91731 -6.02299 0
M  V30 3244 O 415.031 6.92449 -5.17064 0
M  V30 3245 C 417.305 6.43627 -5.25174 0
M  V30 3246 O 418.043 7.43686 -4.60469 0
M  V30 3247 C 416.636 5.40275 -4.31916 0
M  V30 3248 O 417.435 5.25279 -3.14438 0
M  V30 3249 C 415.299 6.04847 -4.05327 0
M  V30 3250 H 415.331 6.62195 -3.11261 0
M  V30 3251 H 416.514 4.42556 -4.81383 0
M  V30 3252 H 417.998 5.92458 -5.93643 0
M  V30 3253 H 416.304 7.92655 -6.402 0
M  V30 3254 H 416.114 6.26671 -8.0846 0
M  V30 3255 H 414.484 6.29101 -7.32804 0
M  V30 3256 H 417.123 5.84315 -2.47318 0
M  V30 3257 P 418.981 7.39546 -4.75277 0
M  V30 3258 O 420.403 7.84798 -5.01039 0
M  V30 3259 O 418.621 5.9812 -5.08098 0
M  V30 3260 O 418.658 7.57503 -3.1866 0
M  V30 3261 C 418.498 8.97357 -2.74833 0
M  V30 3262 C 419.038 9.07548 -1.32709 0
M  V30 3263 O 417.982 8.62072 -0.606159 0
M  V30 3264 C 420.256 8.25383 -0.938334 0
M  V30 3265 O 420.994 8.74577 0.146954 0
M  V30 3266 C 419.587 6.8802 -0.712559 0
M  V30 3267 O 420.386 6.1189 0.194655 0
M  V30 3268 C 418.25 7.27966 -0.139777 0
M  V30 3269 H 418.282 7.25354 0.961601 0
M  V30 3270 H 419.465 6.32557 -1.65702 0
M  V30 3271 H 420.949 8.19355 -1.79097 0
M  V30 3272 H 419.255 10.1294 -1.10029 0
M  V30 3273 H 419.065 9.64276 -3.41316 0
M  V30 3274 H 417.435 9.25417 -2.76357 0
M  V30 3275 H 420.074 6.25267 1.07847 0
M  V30 3276 P 421.932 8.791 2.28317e-12 0
M  V30 3277 O 423.354 9.31096 0.027933 0
M  V30 3278 O 421.572 7.77869 -1.04071 0
M  V30 3279 O 421.609 8.09533 1.41463 0
M  V30 3280 C 421.449 9.0349 2.53943 0
M  V30 3281 C 421.989 8.35226 3.79016 0
M  V30 3282 O 420.933 7.57992 4.15078 0
M  V30 3283 C 423.207 7.45087 3.67298 0
M  V30 3284 O 423.945 7.27796 4.85194 0
M  V30 3285 C 422.538 6.17323 3.12027 0
M  V30 3286 O 423.337 5.04231 3.47188 0
M  V30 3287 C 421.201 6.19961 3.81809 0
M  V30 3288 H 421.233 5.58218 4.73051 0
M  V30 3289 H 422.416 6.21726 2.02589 0
M  V30 3290 H 423.9 7.86112 2.9231 0
M  V30 3291 H 422.206 9.11627 4.55076 0
M  V30 3292 H 422.016 9.9573 2.34194 0
M  V30 3293 H 420.386 9.2792 2.67832 0
M  V30 3294 H 423.025 4.67702 4.28772 0
M  V30 3295 P 424.882 7.39546 4.75277 0
M  V30 3296 O 426.303 7.81861 5.05793 0
M  V30 3297 O 424.522 7.1065 3.32998 0
M  V30 3298 O 424.559 6.04542 5.56673 0
M  V30 3299 C 424.398 6.22839 7.02169 0
M  V30 3300 C 424.939 4.97725 7.70406 0
M  V30 3301 O 423.884 4.13208 7.58899 0
M  V30 3302 C 426.157 4.28231 7.11815 0
M  V30 3303 O 426.895 3.49945 8.01648 0
M  V30 3304 C 425.489 3.5063 5.96244 0
M  V30 3305 O 426.287 2.37008 5.64352 0
M  V30 3306 C 424.151 3.15122 6.56374 0
M  V30 3307 N 423.108 3.22311 5.55692 0
M  V30 3308 C 423.277 3.99655 4.46046 0
M  V30 3309 N 422.25 3.97599 3.63918 0
M  V30 3310 C 421.365 3.11159 4.25334 0
M  V30 3311 C 420.098 2.64972 3.85157 0
M  V30 3312 N 419.499 3.02132 2.69405 0
M  V30 3313 N 419.533 1.78482 4.74759 0
M  V30 3314 C 420.135 1.37463 5.90819 0
M  V30 3315 N 421.312 1.7733 6.31889 0
M  V30 3316 C 421.887 2.64393 5.43725 0
M  V30 3317 H 424.183 2.13823 6.99656 0
M  V30 3318 H 425.366 4.12931 5.06895 0
M  V30 3319 H 426.849 5.03285 6.70911 0
M  V30 3320 H 425.155 5.20001 8.76217 0
M  V30 3321 H 424.965 7.11046 7.35349 0
M  V30 3322 H 423.335 6.35815 7.26986 0
M  V30 3323 H 419.599 0.66574 6.53015 0
M  V30 3324 H 424.177 4.58037 4.27732 0
M  V30 3325 H 418.569 2.64828 2.45331 0
M  V30 3326 H 419.973 3.67472 2.05644 0
M  V30 3327 H 425.975 1.61619 6.13468 0
M  V30 3328 P 427.833 3.65191 7.99657 0
M  V30 3329 O 429.255 3.8425 8.48115 0
M  V30 3330 O 427.473 4.17805 6.64342 0
M  V30 3331 O 427.51 2.07613 7.95143 0
M  V30 3332 C 427.35 1.44328 9.27336 0
M  V30 3333 C 427.89 0.0220036 9.17197 0
M  V30 3334 O 426.834 -0.626867 8.61923 0
M  V30 3335 C 429.108 -0.24586 8.30336 0
M  V30 3336 O 429.846 -1.39011 8.63583 0
M  V30 3337 C 428.439 -0.273849 6.91158 0
M  V30 3338 O 429.238 -1.06348 6.02892 0
M  V30 3339 C 427.102 -0.897649 7.22545 0
M  V30 3340 H 427.134 -1.9841 7.04286 0
M  V30 3341 H 428.317 0.739928 6.497 0
M  V30 3342 H 429.801 0.60668 8.36503 0
M  V30 3343 H 428.107 -0.352479 10.1829 0
M  V30 3344 H 427.917 2.00611 10.0304 0
M  V30 3345 H 426.287 1.41843 9.55327 0
M  V30 3346 H 428.926 -1.95734 6.03555 0
M  V30 3347 P 430.783 -1.25109 8.70152 0
M  V30 3348 O 432.205 -1.35274 9.21221 0
M  V30 3349 O 430.423 -0.0769065 7.84762 0
M  V30 3350 O 430.46 -2.55232 7.81161 0
M  V30 3351 C 430.3 -3.79939 8.58154 0
M  V30 3352 C 430.84 -4.94023 7.72785 0
M  V30 3353 O 429.784 -5.18726 6.91205 0
M  V30 3354 C 432.058 -4.69597 6.85231 0
M  V30 3355 O 432.796 -5.83832 6.51337 0
M  V30 3356 C 431.389 -3.96706 5.66633 0
M  V30 3357 O 432.188 -4.15414 4.49689 0
M  V30 3358 C 430.052 -4.66153 5.59313 0
M  V30 3359 H 430.084 -5.47679 4.85214 0
M  V30 3360 H 431.267 -2.89008 5.86566 0
M  V30 3361 H 432.751 -4.0121 7.36511 0
M  V30 3362 H 431.057 -5.80182 8.37584 0
M  V30 3363 H 430.867 -3.73517 9.52265 0
M  V30 3364 H 429.237 -3.97163 8.80359 0
M  V30 3365 H 431.876 -4.90969 4.01921 0
M  V30 3366 P 433.734 -5.75688 6.64379 0
M  V30 3367 O 435.156 -6.11849 7.01846 0
M  V30 3368 O 433.374 -4.30744 6.56026 0
M  V30 3369 O 433.411 -6.37042 5.19165 0
M  V30 3370 C 433.251 -7.83578 5.16515 0
M  V30 3371 C 433.791 -8.33398 3.83019 0
M  V30 3372 O 432.735 -8.10074 3.01034 0
M  V30 3373 C 435.009 -7.65514 3.2257 0
M  V30 3374 O 435.747 -8.4329 2.32297 0
M  V30 3375 C 434.34 -6.40075 2.62207 0
M  V30 3376 O 435.139 -5.92589 1.53712 0
M  V30 3377 C 433.003 -6.9454 2.18503 0
M  V30 3378 H 433.035 -7.23063 1.12091 0
M  V30 3379 H 434.218 -5.6025 3.37201 0
M  V30 3380 H 435.702 -7.35707 4.02681 0
M  V30 3381 H 434.008 -9.40912 3.9095 0
M  V30 3382 H 433.818 -8.29056 5.99158 0
M  V30 3383 H 432.188 -8.10073 5.25882 0
M  V30 3384 H 434.827 -6.30324 0.726794 0
M  V30 3385 P 436.684 -8.4349 2.47671 0
M  V30 3386 O 438.106 -8.94167 2.5964 0
M  V30 3387 O 436.324 -7.1704 3.19006 0
M  V30 3388 O 436.361 -8.16596 0.923387 0
M  V30 3389 C 436.201 -9.38437 0.108857 0
M  V30 3390 C 436.741 -9.08175 -1.28353 0
M  V30 3391 O 435.685 -8.44229 -1.84713 0
M  V30 3392 C 437.959 -8.18386 -1.42505 0
M  V30 3393 O 438.697 -8.3501 -2.60497 0
M  V30 3394 C 437.29 -6.80225 -1.25468 0
M  V30 3395 O 438.089 -5.81621 -1.91066 0
M  V30 3396 C 435.953 -7.02416 -1.9168 0
M  V30 3397 H 435.985 -6.6888 -2.96621 0
M  V30 3398 H 437.168 -6.53617 -0.192223 0
M  V30 3399 H 438.652 -8.36622 -0.589963 0
M  V30 3400 H 436.958 -10.0291 -1.79807 0
M  V30 3401 H 436.768 -10.2138 0.558219 0
M  V30 3402 H 435.138 -9.6579 0.0444202 0
M  V30 3403 H 437.777 -5.69556 -2.79637 0
M  V30 3404 P 439.635 -8.4349 -2.47671 0
M  V30 3405 O 441.057 -8.92593 -2.65 0
M  V30 3406 O 439.275 -7.7568 -1.19296 0
M  V30 3407 O 439.312 -7.36886 -3.63805 0
M  V30 3408 C 439.152 -7.95349 -4.982 0
M  V30 3409 C 439.692 -6.94612 -5.98974 0
M  V30 3410 O 438.636 -6.10347 -6.11815 0
M  V30 3411 C 440.91 -6.11426 -5.62335 0
M  V30 3412 O 441.648 -5.6162 -6.70584 0
M  V30 3413 C 440.241 -5.04409 -4.73308 0
M  V30 3414 O 441.04 -3.85992 -4.75183 0
M  V30 3415 C 438.904 -4.8728 -5.41006 0
M  V30 3416 H 438.936 -4.02333 -6.11157 0
M  V30 3417 H 440.119 -5.39466 -3.69543 0
M  V30 3418 H 441.603 -6.71916 -5.01943 0
M  V30 3419 H 439.909 -7.4649 -6.93477 0
M  V30 3420 H 439.719 -8.89416 -5.05237 0
M  V30 3421 H 438.089 -8.14876 -5.18409 0
M  V30 3422 H 440.728 -3.27957 -5.4317 0
M  V30 3423 P 442.586 -5.75688 -6.64379 0
M  V30 3424 O 444.008 -6.07627 -7.05504 0
M  V30 3425 O 442.226 -5.88047 -5.19722 0
M  V30 3426 O 442.263 -4.2322 -7.04443 0
M  V30 3427 C 442.103 -3.99743 -8.4911 0
M  V30 3428 C 442.643 -2.60516 -8.79425 0
M  V30 3429 O 441.587 -1.82684 -8.4467 0
M  V30 3430 C 443.861 -2.10343 -8.03628 0
M  V30 3431 O 444.599 -1.09919 -8.67766 0
M  V30 3432 C 443.192 -1.68446 -6.70876 0
M  V30 3433 O 443.991 -0.678137 -6.08433 0
M  V30 3434 C 441.855 -1.17436 -7.18567 0
M  V30 3435 H 441.887 -0.0804732 -7.31656 0
M  V30 3436 H 443.07 -2.54037 -6.02537 0
M  V30 3437 H 444.554 -2.93881 -7.85526 0
M  V30 3438 H 442.86 -2.53065 -9.86973 0
M  V30 3439 H 442.67 -4.75072 -9.05887 0
M  V30 3440 H 441.04 -4.05244 -8.76668 0
M  V30 3441 H 443.679 0.177647 -6.34251 0
M  V30 3442 P 445.536 -1.25109 -8.70152 0
M  V30 3443 O 446.958 -1.29744 -9.22016 0
M  V30 3444 O 445.176 -2.13714 -7.55141 0
M  V30 3445 O 445.213 0.248149 -8.21425 0
M  V30 3446 C 445.053 1.22779 -9.30434 0
M  V30 3447 C 445.593 2.56293 -8.80664 0
M  V30 3448 O 444.537 3.02979 -8.09349 0
M  V30 3449 C 446.811 2.57523 -7.89775 0
M  V30 3450 O 447.549 3.7668 -7.89438 0
M  V30 3451 C 446.142 2.20997 -6.55446 0
M  V30 3452 O 446.941 2.71895 -5.48509 0
M  V30 3453 C 444.805 2.89693 -6.67988 0
M  V30 3454 H 444.837 3.88793 -6.19859 0
M  V30 3455 H 446.02 1.12046 -6.44229 0
M  V30 3456 H 447.504 1.7746 -8.19711 0
M  V30 3457 H 445.81 3.20706 -9.67112 0
M  V30 3458 H 445.62 0.901032 -10.1892 0
M  V30 3459 H 443.99 1.33049 -9.56592 0
M  V30 3460 H 446.629 3.57847 -5.23962 0
M  V30 3461 P 448.487 3.65191 -7.99657 0
M  V30 3462 O 449.909 3.89332 -8.45794 0
M  V30 3463 O 448.127 2.28472 -7.50807 0
M  V30 3464 O 448.164 4.64972 -6.77611 0
M  V30 3465 C 448.004 6.06319 -7.16352 0
M  V30 3466 C 448.544 6.91731 -6.02299 0
M  V30 3467 O 447.488 6.92449 -5.17064 0
M  V30 3468 C 449.762 6.43627 -5.25174 0
M  V30 3469 O 450.5 7.43686 -4.60469 0
M  V30 3470 C 449.093 5.40275 -4.31916 0
M  V30 3471 O 449.892 5.25279 -3.14438 0
M  V30 3472 C 447.756 6.04847 -4.05327 0
M  V30 3473 H 447.788 6.62195 -3.11261 0
M  V30 3474 H 448.971 4.42556 -4.81383 0
M  V30 3475 H 450.455 5.92458 -5.93643 0
M  V30 3476 H 448.761 7.92655 -6.402 0
M  V30 3477 H 448.571 6.26671 -8.0846 0
M  V30 3478 H 446.941 6.29101 -7.32804 0
M  V30 3479 H 449.58 5.84315 -2.47318 0
M  V30 3480 P 451.437 7.39546 -4.75277 0
M  V30 3481 O 452.858 7.84882 -5.01092 0
M  V30 3482 O 451.077 5.9812 -5.08098 0
M  V30 3483 O 451.114 7.57503 -3.1866 0
M  V30 3484 C 450.953 8.97452 -2.74862 0
M  V30 3485 C 451.494 9.07548 -1.32709 0
M  V30 3486 O 450.439 8.61972 -0.606089 0
M  V30 3487 C 452.712 8.25383 -0.938334 0
M  V30 3488 O 453.45 8.74577 0.146954 0
M  V30 3489 C 452.044 6.8802 -0.712559 0
M  V30 3490 O 452.842 6.1181 0.188505 0
M  V30 3491 C 450.706 7.27966 -0.139777 0
M  V30 3492 N 449.663 6.39368 -0.623421 0
M  V30 3493 C 449.832 5.71761 -1.78245 0
M  V30 3494 N 448.805 4.962 -2.10491 0
M  V30 3495 C 447.92 5.16158 -1.0635 0
M  V30 3496 C 446.653 4.60425 -0.810266 0
M  V30 3497 N 446.088 5.06 0.348685 0
M  V30 3498 C 446.69 5.94532 1.20395 0
M  V30 3499 N 447.867 6.48452 1.01191 0
M  V30 3500 C 448.442 6.04423 -0.146291 0
M  V30 3501 H 451.921 6.32625 -1.65044 0
M  V30 3502 H 453.404 8.19355 -1.79097 0
M  V30 3503 H 451.71 10.1305 -1.09016 0
M  V30 3504 H 451.52 9.64276 -3.41316 0
M  V30 3505 H 449.89 9.25417 -2.76357 0
M  V30 3506 H 450.732 5.79354 -2.38959 0
M  V30 3507 H 452.53 6.25169 1.0783 0
M  V30 3508 P 454.388 8.791 2.59334e-12 0
M  V30 3509 O 455.81 9.31096 0.027933 0
M  V30 3510 O 454.028 7.77869 -1.04071 0
M  V30 3511 O 454.065 8.09533 1.41463 0
M  V30 3512 C 453.905 9.0349 2.53943 0
M  V30 3513 C 454.445 8.35226 3.79016 0
M  V30 3514 O 453.389 7.57992 4.15078 0
M  V30 3515 C 455.663 7.45087 3.67298 0
M  V30 3516 O 456.401 7.27796 4.85194 0
M  V30 3517 C 454.994 6.17323 3.12027 0
M  V30 3518 O 455.793 5.04231 3.47188 0
M  V30 3519 C 453.657 6.19961 3.81809 0
M  V30 3520 H 453.689 5.58218 4.73051 0
M  V30 3521 H 454.872 6.21726 2.02589 0
M  V30 3522 H 456.356 7.86112 2.9231 0
M  V30 3523 H 454.662 9.11627 4.55076 0
M  V30 3524 H 454.472 9.9573 2.34194 0
M  V30 3525 H 452.842 9.2792 2.67832 0
M  V30 3526 H 455.481 4.67702 4.28772 0
M  V30 3527 P 457.338 7.39546 4.75277 0
M  V30 3528 O 458.76 7.81777 5.05738 0
M  V30 3529 O 456.978 7.1065 3.32998 0
M  V30 3530 O 457.015 6.04542 5.56673 0
M  V30 3531 C 456.855 6.22772 7.02095 0
M  V30 3532 C 457.395 4.97725 7.70406 0
M  V30 3533 O 456.339 4.13256 7.58987 0
M  V30 3534 C 458.613 4.28231 7.11815 0
M  V30 3535 O 459.351 3.49945 8.01648 0
M  V30 3536 C 457.944 3.5063 5.96244 0
M  V30 3537 O 458.743 2.36482 5.64681 0
M  V30 3538 C 456.607 3.15122 6.56374 0
M  V30 3539 H 456.639 2.13853 6.99751 0
M  V30 3540 H 457.822 4.13501 5.06559 0
M  V30 3541 H 459.306 5.03285 6.70911 0
M  V30 3542 H 457.612 5.20877 8.75697 0
M  V30 3543 H 457.422 7.11046 7.35349 0
M  V30 3544 H 455.792 6.35815 7.26986 0
M  V30 3545 H 458.431 1.61644 6.13565 0
M  V30 3546 P 460.289 3.65191 7.99657 0
M  V30 3547 O 461.711 3.8425 8.48115 0
M  V30 3548 O 459.929 4.17805 6.64342 0
M  V30 3549 O 459.966 2.07613 7.95143 0
M  V30 3550 C 459.806 1.44328 9.27336 0
M  V30 3551 C 460.346 0.0220036 9.17197 0
M  V30 3552 O 459.29 -0.626867 8.61923 0
M  V30 3553 C 461.564 -0.24586 8.30336 0
M  V30 3554 O 462.302 -1.39011 8.63583 0
M  V30 3555 C 460.895 -0.273849 6.91158 0
M  V30 3556 O 461.694 -1.06348 6.02892 0
M  V30 3557 C 459.558 -0.897649 7.22545 0
M  V30 3558 H 459.59 -1.9841 7.04286 0
M  V30 3559 H 460.773 0.739928 6.497 0
M  V30 3560 H 462.257 0.60668 8.36503 0
M  V30 3561 H 460.563 -0.352479 10.1829 0
M  V30 3562 H 460.373 2.00611 10.0304 0
M  V30 3563 H 458.743 1.41843 9.55327 0
M  V30 3564 H 461.382 -1.95734 6.03555 0
M  V30 3565 P 463.239 -1.25109 8.70152 0
M  V30 3566 O 464.661 -1.35303 9.21419 0
M  V30 3567 O 462.879 -0.0769065 7.84762 0
M  V30 3568 O 462.916 -2.55232 7.81161 0
M  V30 3569 C 462.756 -3.79939 8.58154 0
M  V30 3570 C 463.296 -4.93969 7.72701 0
M  V30 3571 O 462.241 -5.18726 6.91205 0
M  V30 3572 C 464.514 -4.69597 6.85231 0
M  V30 3573 O 465.252 -5.83832 6.51337 0
M  V30 3574 C 463.846 -3.96706 5.66633 0
M  V30 3575 O 464.644 -4.15346 4.49615 0
M  V30 3576 C 462.508 -4.66153 5.59313 0
M  V30 3577 N 461.465 -3.71582 5.24027 0
M  V30 3578 C 461.527 -2.46018 5.67902 0
M  V30 3579 N 460.482 -1.74868 5.24518 0
M  V30 3580 C 459.748 -2.61333 4.54528 0
M  V30 3581 C 458.442 -2.46162 3.95441 0
M  V30 3582 O 457.709 -1.46013 3.94122 0
M  V30 3583 N 458.012 -3.59334 3.34752 0
M  V30 3584 C 458.761 -4.79605 3.3023 0
M  V30 3585 N 458.164 -5.82109 2.6065 0
M  V30 3586 N 459.914 -4.97402 3.8843 0
M  V30 3587 C 460.371 -3.86258 4.50476 0
M  V30 3588 H 462.54 -5.47679 4.85214 0
M  V30 3589 H 463.723 -2.88964 5.86476 0
M  V30 3590 H 465.208 -4.01947 7.36109 0
M  V30 3591 H 463.513 -5.80182 8.37584 0
M  V30 3592 H 463.323 -3.73517 9.52265 0
M  V30 3593 H 461.692 -3.97163 8.80359 0
M  V30 3594 H 457.116 -3.5825 2.90294 0
M  V30 3595 H 462.323 -2.06161 6.30974 0
M  V30 3596 H 457.253 -5.66979 2.15354 0
M  V30 3597 H 458.629 -6.73686 2.54344 0
M  V30 3598 H 464.333 -4.90891 4.01857 0
M  V30 3599 P 466.19 -5.75688 6.64379 0
M  V30 3600 O 467.612 -6.11849 7.01846 0
M  V30 3601 O 465.83 -4.30744 6.56026 0
M  V30 3602 O 465.867 -6.37042 5.19165 0
M  V30 3603 C 465.707 -7.83578 5.16515 0
M  V30 3604 C 466.247 -8.33398 3.83019 0
M  V30 3605 O 465.191 -8.10074 3.01034 0
M  V30 3606 C 467.465 -7.65514 3.2257 0
M  V30 3607 O 468.203 -8.4329 2.32297 0
M  V30 3608 C 466.796 -6.40075 2.62207 0
M  V30 3609 O 467.595 -5.92589 1.53712 0
M  V30 3610 C 465.459 -6.9454 2.18503 0
M  V30 3611 H 465.491 -7.23063 1.12091 0
M  V30 3612 H 466.674 -5.6025 3.37201 0
M  V30 3613 H 468.158 -7.35707 4.02681 0
M  V30 3614 H 466.464 -9.40912 3.9095 0
M  V30 3615 H 466.274 -8.29056 5.99158 0
M  V30 3616 H 464.644 -8.10073 5.25882 0
M  V30 3617 H 467.283 -6.30324 0.726794 0
M  V30 3618 P 469.141 -8.4349 2.47671 0
M  V30 3619 O 470.563 -8.94167 2.5964 0
M  V30 3620 O 468.781 -7.1704 3.19006 0
M  V30 3621 O 468.818 -8.16596 0.923387 0
M  V30 3622 C 468.658 -9.38437 0.108857 0
M  V30 3623 C 469.198 -9.08175 -1.28353 0
M  V30 3624 O 468.142 -8.44229 -1.84713 0
M  V30 3625 C 470.416 -8.18386 -1.42505 0
M  V30 3626 O 471.154 -8.3501 -2.60497 0
M  V30 3627 C 469.747 -6.80225 -1.25468 0
M  V30 3628 O 470.546 -5.81621 -1.91066 0
M  V30 3629 C 468.41 -7.02416 -1.9168 0
M  V30 3630 H 468.442 -6.6888 -2.96621 0
M  V30 3631 H 469.625 -6.53617 -0.192223 0
M  V30 3632 H 471.109 -8.36622 -0.589963 0
M  V30 3633 H 469.415 -10.0291 -1.79807 0
M  V30 3634 H 469.225 -10.2138 0.558219 0
M  V30 3635 H 467.595 -9.6579 0.0444202 0
M  V30 3636 H 470.234 -5.69556 -2.79637 0
M  V30 3637 P 472.091 -8.4349 -2.47671 0
M  V30 3638 O 473.513 -8.92785 -2.65057 0
M  V30 3639 O 471.731 -7.7568 -1.19296 0
M  V30 3640 O 471.768 -7.36886 -3.63805 0
M  V30 3641 C 471.608 -7.95349 -4.982 0
M  V30 3642 C 472.148 -6.94537 -5.98908 0
M  V30 3643 O 471.093 -6.10347 -6.11815 0
M  V30 3644 C 473.366 -6.11426 -5.62335 0
M  V30 3645 O 474.104 -5.6162 -6.70584 0
M  V30 3646 C 472.698 -5.04409 -4.73308 0
M  V30 3647 O 473.496 -3.85929 -4.75106 0
M  V30 3648 C 471.36 -4.8728 -5.41006 0
M  V30 3649 N 470.317 -4.65812 -4.42377 0
M  V30 3650 C 470.379 -5.27109 -3.24335 0
M  V30 3651 N 469.334 -4.94293 -2.47735 0
M  V30 3652 C 468.6 -4.1271 -3.23359 0
M  V30 3653 C 467.294 -3.56384 -2.99934 0
M  V30 3654 O 466.561 -3.69331 -2.00616 0
M  V30 3655 N 466.864 -2.80206 -4.03316 0
M  V30 3656 C 467.613 -2.58614 -5.2172 0
M  V30 3657 N 467.016 -1.75154 -6.13278 0
M  V30 3658 N 468.766 -3.13689 -5.47619 0
M  V30 3659 C 469.223 -3.90921 -4.46436 0
M  V30 3660 H 471.392 -4.02333 -6.11157 0
M  V30 3661 H 472.575 -5.39383 -3.69487 0
M  V30 3662 H 474.06 -6.71414 -5.02615 0
M  V30 3663 H 472.365 -7.4649 -6.93477 0
M  V30 3664 H 472.175 -8.89416 -5.05237 0
M  V30 3665 H 470.544 -8.14876 -5.18409 0
M  V30 3666 H 465.968 -2.36355 -3.95916 0
M  V30 3667 H 471.175 -5.95212 -2.93859 0
M  V30 3668 H 466.105 -1.32473 -5.91856 0
M  V30 3669 H 467.481 -1.5588 -7.03026 0
M  V30 3670 H 473.185 -3.27906 -5.43085 0
M  V30 3671 P 475.042 -5.75688 -6.64379 0
M  V30 3672 O 476.464 -6.07627 -7.05504 0
M  V30 3673 O 474.682 -5.88047 -5.19722 0
M  V30 3674 O 474.719 -4.2322 -7.04443 0
M  V30 3675 C 474.559 -3.99743 -8.4911 0
M  V30 3676 C 475.099 -2.60516 -8.79425 0
M  V30 3677 O 474.043 -1.82684 -8.4467 0
M  V30 3678 C 476.317 -2.10343 -8.03628 0
M  V30 3679 O 477.055 -1.09919 -8.67766 0
M  V30 3680 C 475.648 -1.68446 -6.70876 0
M  V30 3681 O 476.447 -0.678137 -6.08433 0
M  V30 3682 C 474.311 -1.17436 -7.18567 0
M  V30 3683 H 474.343 -0.0804732 -7.31656 0
M  V30 3684 H 475.526 -2.54037 -6.02537 0
M  V30 3685 H 477.01 -2.93881 -7.85526 0
M  V30 3686 H 475.316 -2.53065 -9.86973 0
M  V30 3687 H 475.126 -4.75072 -9.05887 0
M  V30 3688 H 473.496 -4.05244 -8.76668 0
M  V30 3689 H 476.135 0.177647 -6.34251 0
M  V30 3690 P 477.992 -1.25109 -8.70152 0
M  V30 3691 O 479.414 -1.29744 -9.22016 0
M  V30 3692 O 477.632 -2.13714 -7.55141 0
M  V30 3693 O 477.669 0.248149 -8.21425 0
M  V30 3694 C 477.509 1.22779 -9.30434 0
M  V30 3695 C 478.049 2.56293 -8.80664 0
M  V30 3696 O 476.993 3.02979 -8.09349 0
M  V30 3697 C 479.267 2.57523 -7.89775 0
M  V30 3698 O 480.005 3.7668 -7.89438 0
M  V30 3699 C 478.598 2.20997 -6.55446 0
M  V30 3700 O 479.397 2.71895 -5.48509 0
M  V30 3701 C 477.261 2.89693 -6.67988 0
M  V30 3702 H 477.293 3.88793 -6.19859 0
M  V30 3703 H 478.476 1.12046 -6.44229 0
M  V30 3704 H 479.96 1.7746 -8.19711 0
M  V30 3705 H 478.266 3.20706 -9.67112 0
M  V30 3706 H 478.076 0.901032 -10.1892 0
M  V30 3707 H 476.446 1.33049 -9.56592 0
M  V30 3708 H 479.085 3.57847 -5.23962 0
M  V30 3709 P 480.943 3.65191 -7.99657 0
M  V30 3710 O 482.364 3.89374 -8.45885 0
M  V30 3711 O 480.583 2.28472 -7.50807 0
M  V30 3712 O 480.62 4.64972 -6.77611 0
M  V30 3713 C 480.459 6.06383 -7.16428 0
M  V30 3714 C 481 6.91731 -6.02299 0
M  V30 3715 O 479.945 6.92369 -5.17005 0
M  V30 3716 C 482.218 6.43627 -5.25174 0
M  V30 3717 O 482.956 7.43686 -4.60469 0
M  V30 3718 C 481.55 5.40275 -4.31916 0
M  V30 3719 O 482.348 5.24878 -3.14911 0
M  V30 3720 C 480.212 6.04847 -4.05327 0
M  V30 3721 N 479.169 5.04166 -3.98114 0
M  V30 3722 C 479.338 3.84629 -4.59066 0
M  V30 3723 N 478.311 3.0363 -4.45343 0
M  V30 3724 C 477.426 3.76722 -3.68523 0
M  V30 3725 C 476.159 3.43528 -3.17088 0
M  V30 3726 N 475.56 2.23665 -3.37397 0
M  V30 3727 N 475.594 4.44526 -2.44231 0
M  V30 3728 C 476.196 5.65243 -2.20146 0
M  V30 3729 N 477.373 6.00221 -2.65453 0
M  V30 3730 C 477.948 5.00564 -3.39083 0
M  V30 3731 H 480.244 6.62104 -3.11218 0
M  V30 3732 H 481.427 4.42969 -4.80867 0
M  V30 3733 H 482.91 5.92458 -5.93643 0
M  V30 3734 H 481.216 7.93295 -6.39407 0
M  V30 3735 H 481.026 6.26671 -8.0846 0
M  V30 3736 H 479.396 6.29101 -7.32804 0
M  V30 3737 H 475.66 6.36894 -1.5883 0
M  V30 3738 H 480.238 3.58193 -5.14248 0
M  V30 3739 H 474.63 2.05145 -2.97047 0
M  V30 3740 H 476.034 1.51255 -3.92998 0
M  V30 3741 H 482.036 5.84223 -2.47279 0
M  V30 3742 P 483.893 7.39546 -4.75277 0
M  V30 3743 O 485.315 7.84798 -5.01039 0
M  V30 3744 O 483.533 5.9812 -5.08098 0
M  V30 3745 O 483.57 7.57503 -3.1866 0
M  V30 3746 C 483.41 8.97357 -2.74833 0
M  V30 3747 C 483.95 9.07548 -1.32709 0
M  V30 3748 O 482.894 8.62072 -0.606159 0
M  V30 3749 C 485.168 8.25383 -0.938334 0
M  V30 3750 O 485.906 8.74577 0.146954 0
M  V30 3751 C 484.499 6.8802 -0.712559 0
M  V30 3752 O 485.298 6.1189 0.194655 0
M  V30 3753 C 483.162 7.27966 -0.139777 0
M  V30 3754 H 483.194 7.25354 0.961601 0
M  V30 3755 H 484.377 6.32557 -1.65702 0
M  V30 3756 H 485.861 8.19355 -1.79097 0
M  V30 3757 H 484.167 10.1294 -1.10029 0
M  V30 3758 H 483.977 9.64276 -3.41316 0
M  V30 3759 H 482.347 9.25417 -2.76357 0
M  V30 3760 H 484.986 6.25267 1.07847 0
M  V30 3761 P 486.844 8.791 2.9035e-12 0
M  V30 3762 O 488.265 9.31196 0.027936 0
M  V30 3763 O 486.484 7.77869 -1.04071 0
M  V30 3764 O 486.521 8.09533 1.41463 0
M  V30 3765 C 486.36 9.03587 2.5397 0
M  V30 3766 C 486.901 8.35226 3.79016 0
M  V30 3767 O 485.846 7.57904 4.1503 0
M  V30 3768 C 488.119 7.45087 3.67298 0
M  V30 3769 O 488.857 7.27796 4.85194 0
M  V30 3770 C 487.451 6.17323 3.12027 0
M  V30 3771 O 488.249 5.04496 3.46627 0
M  V30 3772 C 486.113 6.19961 3.81809 0
M  V30 3773 N 485.07 5.71575 2.93223 0
M  V30 3774 C 485.239 5.77362 1.59168 0
M  V30 3775 N 484.212 5.3123 0.911893 0
M  V30 3776 C 483.327 4.91717 1.89588 0
M  V30 3777 C 482.06 4.3114 1.8076 0
M  V30 3778 N 481.461 3.99821 0.632928 0
M  V30 3779 N 481.495 4.06823 3.02898 0
M  V30 3780 C 482.097 4.35062 4.22711 0
M  V30 3781 N 483.274 4.90805 4.35707 0
M  V30 3782 C 483.849 5.16382 3.14469 0
M  V30 3783 H 486.145 5.58142 4.72986 0
M  V30 3784 H 487.328 6.21428 2.0318 0
M  V30 3785 H 488.811 7.86112 2.9231 0
M  V30 3786 H 487.117 9.11171 4.55987 0
M  V30 3787 H 486.927 9.9573 2.34194 0
M  V30 3788 H 485.297 9.2792 2.67832 0
M  V30 3789 H 481.561 4.09052 5.13359 0
M  V30 3790 H 486.139 6.16575 1.12198 0
M  V30 3791 H 480.531 3.55423 0.632085 0
M  V30 3792 H 481.935 4.20317 -0.256712 0
M  V30 3793 H 487.937 4.67628 4.28704 0
M  V30 3794 P 489.795 7.39546 4.75277 0
M  V30 3795 O 491.217 7.81777 5.05738 0
M  V30 3796 O 489.435 7.1065 3.32998 0
M  V30 3797 O 489.472 6.04542 5.56673 0
M  V30 3798 C 489.312 6.22772 7.02095 0
M  V30 3799 C 489.852 4.97725 7.70406 0
M  V30 3800 O 488.796 4.13256 7.58987 0
M  V30 3801 C 491.07 4.28231 7.11815 0
M  V30 3802 O 491.808 3.49945 8.01648 0
M  V30 3803 C 490.401 3.5063 5.96244 0
M  V30 3804 O 491.2 2.36482 5.64681 0
M  V30 3805 C 489.064 3.15122 6.56374 0
M  V30 3806 H 489.096 2.13853 6.99751 0
M  V30 3807 H 490.279 4.13501 5.06559 0
M  V30 3808 H 491.763 5.03285 6.70911 0
M  V30 3809 H 490.069 5.20877 8.75697 0
M  V30 3810 H 489.879 7.11046 7.35349 0
M  V30 3811 H 488.249 6.35815 7.26986 0
M  V30 3812 H 490.888 1.61644 6.13565 0
M  V30 3813 P 492.745 3.65191 7.99657 0
M  V30 3814 O 494.167 3.8425 8.48115 0
M  V30 3815 O 492.385 4.17805 6.64342 0
M  V30 3816 O 492.422 2.07613 7.95143 0
M  V30 3817 C 492.262 1.44328 9.27336 0
M  V30 3818 C 492.802 0.0220036 9.17197 0
M  V30 3819 O 491.746 -0.626867 8.61923 0
M  V30 3820 C 494.02 -0.24586 8.30336 0
M  V30 3821 O 494.758 -1.39011 8.63583 0
M  V30 3822 C 493.351 -0.273849 6.91158 0
M  V30 3823 O 494.15 -1.06348 6.02892 0
M  V30 3824 C 492.014 -0.897649 7.22545 0
M  V30 3825 H 492.046 -1.9841 7.04286 0
M  V30 3826 H 493.229 0.739928 6.497 0
M  V30 3827 H 494.713 0.60668 8.36503 0
M  V30 3828 H 493.019 -0.352479 10.1829 0
M  V30 3829 H 492.829 2.00611 10.0304 0
M  V30 3830 H 491.199 1.41843 9.55327 0
M  V30 3831 H 493.838 -1.95734 6.03555 0
M  V30 3832 P 495.696 -1.25109 8.70152 0
M  V30 3833 O 497.118 -1.35274 9.21221 0
M  V30 3834 O 495.336 -0.0769065 7.84762 0
M  V30 3835 O 495.373 -2.55232 7.81161 0
M  V30 3836 C 495.213 -3.79939 8.58154 0
M  V30 3837 C 495.753 -4.94023 7.72785 0
M  V30 3838 O 494.697 -5.18726 6.91205 0
M  V30 3839 C 496.971 -4.69597 6.85231 0
M  V30 3840 O 497.709 -5.83832 6.51337 0
M  V30 3841 C 496.302 -3.96706 5.66633 0
M  V30 3842 O 497.101 -4.15414 4.49689 0
M  V30 3843 C 494.965 -4.66153 5.59313 0
M  V30 3844 H 494.997 -5.47679 4.85214 0
M  V30 3845 H 496.18 -2.89008 5.86566 0
M  V30 3846 H 497.664 -4.0121 7.36511 0
M  V30 3847 H 495.97 -5.80182 8.37584 0
M  V30 3848 H 495.78 -3.73517 9.52265 0
M  V30 3849 H 494.15 -3.97163 8.80359 0
M  V30 3850 H 496.789 -4.90969 4.01921 0
M  V30 3851 P 498.646 -5.75688 6.64379 0
M  V30 3852 O 500.068 -6.11849 7.01846 0
M  V30 3853 O 498.286 -4.30744 6.56026 0
M  V30 3854 O 498.323 -6.37042 5.19165 0
M  V30 3855 C 498.163 -7.83578 5.16515 0
M  V30 3856 C 498.703 -8.33398 3.83019 0
M  V30 3857 O 497.647 -8.10074 3.01034 0
M  V30 3858 C 499.921 -7.65514 3.2257 0
M  V30 3859 O 500.659 -8.4329 2.32297 0
M  V30 3860 C 499.252 -6.40075 2.62207 0
M  V30 3861 O 500.051 -5.92589 1.53712 0
M  V30 3862 C 497.915 -6.9454 2.18503 0
M  V30 3863 H 497.947 -7.23063 1.12091 0
M  V30 3864 H 499.13 -5.6025 3.37201 0
M  V30 3865 H 500.614 -7.35707 4.02681 0
M  V30 3866 H 498.92 -9.40912 3.9095 0
M  V30 3867 H 498.73 -8.29056 5.99158 0
M  V30 3868 H 497.1 -8.10073 5.25882 0
M  V30 3869 H 499.739 -6.30324 0.726794 0
M  V30 3870 P 501.597 -8.4349 2.47671 0
M  V30 3871 O 503.019 -8.94167 2.5964 0
M  V30 3872 O 501.237 -7.1704 3.19006 0
M  V30 3873 O 501.274 -8.16596 0.923387 0
M  V30 3874 C 501.114 -9.38437 0.108857 0
M  V30 3875 C 501.654 -9.08175 -1.28353 0
M  V30 3876 O 500.598 -8.44229 -1.84713 0
M  V30 3877 C 502.872 -8.18386 -1.42505 0
M  V30 3878 O 503.61 -8.3501 -2.60497 0
M  V30 3879 C 502.203 -6.80225 -1.25468 0
M  V30 3880 O 503.002 -5.81621 -1.91066 0
M  V30 3881 C 500.866 -7.02416 -1.9168 0
M  V30 3882 H 500.898 -6.6888 -2.96621 0
M  V30 3883 H 502.081 -6.53617 -0.192223 0
M  V30 3884 H 503.565 -8.36622 -0.589963 0
M  V30 3885 H 501.871 -10.0291 -1.79807 0
M  V30 3886 H 501.681 -10.2138 0.558219 0
M  V30 3887 H 500.051 -9.6579 0.0444202 0
M  V30 3888 H 502.69 -5.69556 -2.79637 0
M  V30 3889 P 504.547 -8.4349 -2.47671 0
M  V30 3890 O 505.968 -8.92689 -2.65029 0
M  V30 3891 O 504.187 -7.7568 -1.19296 0
M  V30 3892 O 504.224 -7.36886 -3.63805 0
M  V30 3893 C 504.063 -7.95433 -4.98253 0
M  V30 3894 C 504.604 -6.94612 -5.98974 0
M  V30 3895 O 503.549 -6.10277 -6.11744 0
M  V30 3896 C 505.822 -6.11426 -5.62335 0
M  V30 3897 O 506.56 -5.6162 -6.70584 0
M  V30 3898 C 505.154 -5.04409 -4.73308 0
M  V30 3899 O 505.952 -3.86404 -4.74719 0
M  V30 3900 C 503.816 -4.8728 -5.41006 0
M  V30 3901 N 502.773 -4.65812 -4.42377 0
M  V30 3902 C 502.942 -5.09132 -3.15382 0
M  V30 3903 N 501.915 -4.84021 -2.3716 0
M  V30 3904 C 501.03 -4.18386 -3.20441 0
M  V30 3905 C 499.763 -3.6275 -2.94905 0
M  V30 3906 N 499.164 -3.65794 -1.73372 0
M  V30 3907 N 499.198 -3.05008 -4.05243 0
M  V30 3908 C 499.8 -2.98348 -5.28159 0
M  V30 3909 N 500.977 -3.48171 -5.56333 0
M  V30 3910 C 501.552 -4.06869 -4.47212 0
M  V30 3911 H 503.848 -4.02278 -6.11074 0
M  V30 3912 H 505.031 -5.39013 -3.70026 0
M  V30 3913 H 506.514 -6.71916 -5.01943 0
M  V30 3914 H 504.82 -7.45796 -6.94223 0
M  V30 3915 H 504.63 -8.89416 -5.05237 0
M  V30 3916 H 503 -8.14876 -5.18409 0
M  V30 3917 H 499.264 -2.47853 -6.07807 0
M  V30 3918 H 503.842 -5.59989 -2.81362 0
M  V30 3919 H 498.234 -3.23218 -1.60782 0
M  V30 3920 H 499.638 -4.10523 -0.937856 0
M  V30 3921 H 505.64 -3.27906 -5.43085 0
M  V30 3922 P 507.498 -5.75688 -6.64379 0
M  V30 3923 O 508.92 -6.07627 -7.05504 0
M  V30 3924 O 507.138 -5.88047 -5.19722 0
M  V30 3925 O 507.175 -4.2322 -7.04443 0
M  V30 3926 C 507.015 -3.99743 -8.4911 0
M  V30 3927 C 507.555 -2.60516 -8.79425 0
M  V30 3928 O 506.499 -1.82684 -8.4467 0
M  V30 3929 C 508.773 -2.10343 -8.03628 0
M  V30 3930 O 509.511 -1.09919 -8.67766 0
M  V30 3931 C 508.104 -1.68446 -6.70876 0
M  V30 3932 O 508.903 -0.678137 -6.08433 0
M  V30 3933 C 506.767 -1.17436 -7.18567 0
M  V30 3934 H 506.799 -0.0804732 -7.31656 0
M  V30 3935 H 507.982 -2.54037 -6.02537 0
M  V30 3936 H 509.466 -2.93881 -7.85526 0
M  V30 3937 H 507.772 -2.53065 -9.86973 0
M  V30 3938 H 507.582 -4.75072 -9.05887 0
M  V30 3939 H 505.952 -4.05244 -8.76668 0
M  V30 3940 H 508.591 0.177647 -6.34251 0
M  V30 3941 P 510.449 -1.25109 -8.70152 0
M  V30 3942 O 511.871 -1.29772 -9.22214 0
M  V30 3943 O 510.089 -2.13714 -7.55141 0
M  V30 3944 O 510.126 0.248149 -8.21425 0
M  V30 3945 C 509.966 1.22779 -9.30434 0
M  V30 3946 C 510.506 2.56265 -8.80568 0
M  V30 3947 O 509.451 3.02979 -8.09349 0
M  V30 3948 C 511.724 2.57523 -7.89775 0
M  V30 3949 O 512.462 3.7668 -7.89438 0
M  V30 3950 C 511.056 2.20997 -6.55446 0
M  V30 3951 O 511.854 2.71851 -5.48419 0
M  V30 3952 C 509.718 2.89693 -6.67988 0
M  V30 3953 N 508.675 2.08895 -6.07487 0
M  V30 3954 C 508.737 0.760559 -6.14209 0
M  V30 3955 N 507.692 0.200108 -5.52538 0
M  V30 3956 C 506.958 1.22692 -5.09742 0
M  V30 3957 C 505.652 1.24782 -4.48775 0
M  V30 3958 O 504.919 0.290617 -4.19294 0
M  V30 3959 N 505.222 2.50468 -4.22428 0
M  V30 3960 C 505.971 3.67142 -4.51974 0
M  V30 3961 N 505.374 4.85096 -4.14091 0
M  V30 3962 N 507.124 3.67821 -5.12831 0
M  V30 3963 C 507.581 2.43698 -5.4105 0
M  V30 3964 H 509.75 3.88793 -6.19859 0
M  V30 3965 H 510.933 1.12029 -6.4413 0
M  V30 3966 H 512.418 1.78279 -8.19533 0
M  V30 3967 H 510.723 3.20706 -9.67112 0
M  V30 3968 H 510.533 0.901032 -10.1892 0
M  V30 3969 H 508.902 1.33049 -9.56592 0
M  V30 3970 H 504.326 2.61953 -3.79465 0
M  V30 3971 H 509.533 0.200439 -6.63497 0
M  V30 3972 H 504.463 4.8334 -3.66367 0
M  V30 3973 H 505.839 5.7474 -4.33841 0
M  V30 3974 H 511.543 3.5779 -5.23879 0
M  V30 3975 P 513.399 3.65191 -7.99657 0
M  V30 3976 O 514.821 3.89332 -8.45794 0
M  V30 3977 O 513.039 2.28472 -7.50807 0
M  V30 3978 O 513.076 4.64972 -6.77611 0
M  V30 3979 C 512.916 6.06319 -7.16352 0
M  V30 3980 C 513.456 6.91731 -6.02299 0
M  V30 3981 O 512.4 6.92449 -5.17064 0
M  V30 3982 C 514.674 6.43627 -5.25174 0
M  V30 3983 O 515.412 7.43686 -4.60469 0
M  V30 3984 C 514.005 5.40275 -4.31916 0
M  V30 3985 O 514.804 5.25279 -3.14438 0
M  V30 3986 C 512.668 6.04847 -4.05327 0
M  V30 3987 H 512.7 6.62195 -3.11261 0
M  V30 3988 H 513.883 4.42556 -4.81383 0
M  V30 3989 H 515.367 5.92458 -5.93643 0
M  V30 3990 H 513.673 7.92655 -6.402 0
M  V30 3991 H 513.483 6.26671 -8.0846 0
M  V30 3992 H 511.853 6.29101 -7.32804 0
M  V30 3993 H 514.492 5.84315 -2.47318 0
M  V30 3994 P 516.35 7.39546 -4.75277 0
M  V30 3995 O 517.772 7.84798 -5.01039 0
M  V30 3996 O 515.99 5.9812 -5.08098 0
M  V30 3997 O 516.027 7.57503 -3.1866 0
M  V30 3998 C 515.867 8.97357 -2.74833 0
M  V30 3999 C 516.407 9.07548 -1.32709 0
M  V30 4000 O 515.351 8.62072 -0.606159 0
M  V30 4001 C 517.625 8.25383 -0.938334 0
M  V30 4002 O 518.363 8.74577 0.146954 0
M  V30 4003 C 516.956 6.8802 -0.712559 0
M  V30 4004 O 517.755 6.1189 0.194655 0
M  V30 4005 C 515.619 7.27966 -0.139777 0
M  V30 4006 H 515.651 7.25354 0.961601 0
M  V30 4007 H 516.834 6.32557 -1.65702 0
M  V30 4008 H 518.318 8.19355 -1.79097 0
M  V30 4009 H 516.624 10.1294 -1.10029 0
M  V30 4010 H 516.434 9.64276 -3.41316 0
M  V30 4011 H 514.804 9.25417 -2.76357 0
M  V30 4012 H 517.443 6.25267 1.07847 0
M  V30 4013 P 519.3 8.791 3.21367e-12 0
M  V30 4014 O 520.722 9.31096 0.027933 0
M  V30 4015 O 518.94 7.77869 -1.04071 0
M  V30 4016 O 518.977 8.09533 1.41463 0
M  V30 4017 C 518.817 9.0349 2.53943 0
M  V30 4018 C 519.357 8.35226 3.79016 0
M  V30 4019 O 518.301 7.57992 4.15078 0
M  V30 4020 C 520.575 7.45087 3.67298 0
M  V30 4021 O 521.313 7.27796 4.85194 0
M  V30 4022 C 519.906 6.17323 3.12027 0
M  V30 4023 O 520.705 5.04231 3.47188 0
M  V30 4024 C 518.569 6.19961 3.81809 0
M  V30 4025 H 518.601 5.58218 4.73051 0
M  V30 4026 H 519.784 6.21726 2.02589 0
M  V30 4027 H 521.268 7.86112 2.9231 0
M  V30 4028 H 519.574 9.11627 4.55076 0
M  V30 4029 H 519.384 9.9573 2.34194 0
M  V30 4030 H 517.754 9.2792 2.67832 0
M  V30 4031 H 520.393 4.67702 4.28772 0
M  V30 4032 P 522.251 7.39546 4.75277 0
M  V30 4033 O 523.652 7.89013 5.04841 0
M  V30 4034 O 521.873 7.16603 3.32298 0
M  V30 4035 O 521.928 6.04468 5.56605 0
M  V30 4036 C 521.768 6.22772 7.02095 0
M  V30 4037 C 522.308 4.97671 7.70322 0
M  V30 4038 O 521.252 4.13208 7.58899 0
M  V30 4039 C 523.525 4.28231 7.11815 0
M  V30 4040 O 524.264 3.49945 8.01648 0
M  V30 4041 C 522.858 3.5063 5.96244 0
M  V30 4042 O 523.656 2.36443 5.64589 0
M  V30 4043 C 521.52 3.15122 6.56374 0
M  V30 4044 N 520.477 3.22311 5.55692 0
M  V30 4045 C 519.442 2.32244 5.62437 0
M  V30 4046 O 519.481 1.43107 6.50341 0
M  V30 4047 N 518.43 2.40811 4.73368 0
M  V30 4048 C 518.478 3.344 3.77753 0
M  V30 4049 N 517.468 3.41475 2.91848 0
M  V30 4050 C 519.574 4.24712 3.66679 0
M  V30 4051 C 520.54 4.15625 4.58307 0
M  V30 4052 H 521.552 2.13823 6.99656 0
M  V30 4053 H 522.735 4.12931 5.06895 0
M  V30 4054 H 524.219 5.02674 6.71494 0
M  V30 4055 H 522.525 5.20001 8.76217 0
M  V30 4056 H 522.334 7.11046 7.35349 0
M  V30 4057 H 520.704 6.35749 7.26911 0
M  V30 4058 H 519.622 4.9828 2.86753 0
M  V30 4059 H 521.386 4.84464 4.54228 0
M  V30 4060 H 516.678 2.75785 2.99862 0
M  V30 4061 H 517.473 4.12304 2.17382 0
M  V30 4062 H 523.44 1.65592 6.23485 0
M  V30 4063 P 525.201 3.65191 7.99657 0
M  V30 4064 O 526.623 3.8425 8.48115 0
M  V30 4065 O 524.841 4.17805 6.64342 0
M  V30 4066 O 524.878 2.07613 7.95143 0
M  V30 4067 C 524.718 1.44328 9.27336 0
M  V30 4068 C 525.258 0.0220036 9.17197 0
M  V30 4069 O 524.202 -0.626867 8.61923 0
M  V30 4070 C 526.476 -0.24586 8.30336 0
M  V30 4071 O 527.214 -1.39011 8.63583 0
M  V30 4072 C 525.807 -0.273849 6.91158 0
M  V30 4073 O 526.606 -1.06348 6.02892 0
M  V30 4074 C 524.47 -0.897649 7.22545 0
M  V30 4075 H 524.502 -1.9841 7.04286 0
M  V30 4076 H 525.685 0.739928 6.497 0
M  V30 4077 H 527.169 0.60668 8.36503 0
M  V30 4078 H 525.475 -0.352479 10.1829 0
M  V30 4079 H 525.285 2.00611 10.0304 0
M  V30 4080 H 523.655 1.41843 9.55327 0
M  V30 4081 H 526.294 -1.95734 6.03555 0
M  V30 4082 P 528.152 -1.25109 8.70152 0
M  V30 4083 O 529.574 -1.35274 9.21221 0
M  V30 4084 O 527.792 -0.0769065 7.84762 0
M  V30 4085 O 527.829 -2.55232 7.81161 0
M  V30 4086 C 527.669 -3.79939 8.58154 0
M  V30 4087 C 528.209 -4.94023 7.72785 0
M  V30 4088 O 527.153 -5.18726 6.91205 0
M  V30 4089 C 529.427 -4.69597 6.85231 0
M  V30 4090 O 530.165 -5.83832 6.51337 0
M  V30 4091 C 528.758 -3.96706 5.66633 0
M  V30 4092 O 529.557 -4.15414 4.49689 0
M  V30 4093 C 527.421 -4.66153 5.59313 0
M  V30 4094 H 527.453 -5.47679 4.85214 0
M  V30 4095 H 528.636 -2.89008 5.86566 0
M  V30 4096 H 530.12 -4.0121 7.36511 0
M  V30 4097 H 528.426 -5.80182 8.37584 0
M  V30 4098 H 528.236 -3.73517 9.52265 0
M  V30 4099 H 526.606 -3.97163 8.80359 0
M  V30 4100 H 529.245 -4.90969 4.01921 0
M  V30 4101 P 531.103 -5.75688 6.64379 0
M  V30 4102 O 532.504 -6.11991 7.09136 0
M  V30 4103 O 530.725 -4.30899 6.62018 0
M  V30 4104 O 530.78 -6.36965 5.19102 0
M  V30 4105 C 530.62 -7.83578 5.16515 0
M  V30 4106 C 531.16 -8.33307 3.82977 0
M  V30 4107 O 530.104 -8.0998 3.00999 0
M  V30 4108 C 532.377 -7.65514 3.2257 0
M  V30 4109 O 533.116 -8.4329 2.32297 0
M  V30 4110 C 531.71 -6.40075 2.62207 0
M  V30 4111 O 532.508 -5.92492 1.53687 0
M  V30 4112 C 530.372 -6.9454 2.18503 0
M  V30 4113 N 529.329 -5.95905 2.39948 0
M  V30 4114 C 528.294 -5.89764 1.49837 0
M  V30 4115 O 528.333 -6.64088 0.490975 0
M  V30 4116 N 527.282 -5.02821 1.70992 0
M  V30 4117 C 527.33 -4.21498 2.77236 0
M  V30 4118 C 528.426 -4.23389 3.68205 0
M  V30 4119 C 529.392 -5.12792 3.46171 0
M  V30 4120 H 530.404 -7.22964 1.12076 0
M  V30 4121 H 531.587 -5.60502 3.36589 0
M  V30 4122 H 533.071 -7.36197 4.01993 0
M  V30 4123 H 531.377 -9.41302 3.90009 0
M  V30 4124 H 531.186 -8.29056 5.99158 0
M  V30 4125 H 529.556 -8.09989 5.25828 0
M  V30 4126 H 528.474 -3.54747 4.52399 0
M  V30 4127 H 530.238 -5.18551 4.1489 0
M  V30 4128 H 532.292 -6.40705 0.751752 0
M  V30 4129 P 534.053 -8.4349 2.47671 0
M  V30 4130 O 535.475 -8.94167 2.5964 0
M  V30 4131 O 533.693 -7.1704 3.19006 0
M  V30 4132 O 533.73 -8.16596 0.923387 0
M  V30 4133 C 533.57 -9.38437 0.108857 0
M  V30 4134 C 534.11 -9.08175 -1.28353 0
M  V30 4135 O 533.054 -8.44229 -1.84713 0
M  V30 4136 C 535.328 -8.18386 -1.42505 0
M  V30 4137 O 536.066 -8.3501 -2.60497 0
M  V30 4138 C 534.659 -6.80225 -1.25468 0
M  V30 4139 O 535.458 -5.81621 -1.91066 0
M  V30 4140 C 533.322 -7.02416 -1.9168 0
M  V30 4141 H 533.354 -6.6888 -2.96621 0
M  V30 4142 H 534.537 -6.53617 -0.192223 0
M  V30 4143 H 536.021 -8.36622 -0.589963 0
M  V30 4144 H 534.327 -10.0291 -1.79807 0
M  V30 4145 H 534.137 -10.2138 0.558219 0
M  V30 4146 H 532.507 -9.6579 0.0444202 0
M  V30 4147 H 535.146 -5.69556 -2.79637 0
M  V30 4148 P 537.004 -8.4349 -2.47671 0
M  V30 4149 O 538.425 -8.92689 -2.65029 0
M  V30 4150 O 536.644 -7.7568 -1.19296 0
M  V30 4151 O 536.681 -7.36886 -3.63805 0
M  V30 4152 C 536.52 -7.95433 -4.98253 0
M  V30 4153 C 537.061 -6.94612 -5.98974 0
M  V30 4154 O 536.006 -6.10277 -6.11744 0
M  V30 4155 C 538.279 -6.11426 -5.62335 0
M  V30 4156 O 539.017 -5.6162 -6.70584 0
M  V30 4157 C 537.611 -5.04409 -4.73308 0
M  V30 4158 O 538.409 -3.86404 -4.74719 0
M  V30 4159 C 536.273 -4.8728 -5.41006 0
M  V30 4160 N 535.23 -4.65812 -4.42377 0
M  V30 4161 C 535.399 -5.09132 -3.15382 0
M  V30 4162 N 534.372 -4.84021 -2.3716 0
M  V30 4163 C 533.487 -4.18386 -3.20441 0
M  V30 4164 C 532.22 -3.6275 -2.94905 0
M  V30 4165 N 531.655 -3.05008 -4.05243 0
M  V30 4166 C 532.257 -2.98348 -5.28159 0
M  V30 4167 N 533.434 -3.48171 -5.56333 0
M  V30 4168 C 534.009 -4.06869 -4.47212 0
M  V30 4169 H 537.488 -5.39013 -3.70026 0
M  V30 4170 H 538.971 -6.71916 -5.01943 0
M  V30 4171 H 537.277 -7.45796 -6.94223 0
M  V30 4172 H 537.087 -8.89416 -5.05237 0
M  V30 4173 H 535.457 -8.14876 -5.18409 0
M  V30 4174 H 536.299 -5.59989 -2.81362 0
M  V30 4175 H 538.097 -3.27906 -5.43085 0
M  V30 4176 P 539.954 -5.75688 -6.64379 0
M  V30 4177 O 541.376 -6.07627 -7.05504 0
M  V30 4178 O 539.594 -5.88047 -5.19722 0
M  V30 4179 O 539.631 -4.2322 -7.04443 0
M  V30 4180 C 539.471 -3.99743 -8.4911 0
M  V30 4181 C 540.011 -2.60516 -8.79425 0
M  V30 4182 O 538.955 -1.82684 -8.4467 0
M  V30 4183 C 541.229 -2.10343 -8.03628 0
M  V30 4184 O 541.967 -1.09919 -8.67766 0
M  V30 4185 C 540.56 -1.68446 -6.70876 0
M  V30 4186 O 541.359 -0.678137 -6.08433 0
M  V30 4187 C 539.223 -1.17436 -7.18567 0
M  V30 4188 H 539.255 -0.0804732 -7.31656 0
M  V30 4189 H 540.438 -2.54037 -6.02537 0
M  V30 4190 H 541.922 -2.93881 -7.85526 0
M  V30 4191 H 540.228 -2.53065 -9.86973 0
M  V30 4192 H 540.038 -4.75072 -9.05887 0
M  V30 4193 H 538.408 -4.05244 -8.76668 0
M  V30 4194 H 541.047 0.177647 -6.34251 0
M  V30 4195 P 542.905 -1.25109 -8.70152 0
M  V30 4196 O 544.327 -1.29744 -9.22016 0
M  V30 4197 O 542.545 -2.13714 -7.55141 0
M  V30 4198 O 542.582 0.248149 -8.21425 0
M  V30 4199 C 542.422 1.22779 -9.30434 0
M  V30 4200 C 542.962 2.56293 -8.80664 0
M  V30 4201 O 541.906 3.02979 -8.09349 0
M  V30 4202 C 544.18 2.57523 -7.89775 0
M  V30 4203 O 544.918 3.7668 -7.89438 0
M  V30 4204 C 543.511 2.20997 -6.55446 0
M  V30 4205 O 544.31 2.71895 -5.48509 0
M  V30 4206 C 542.174 2.89693 -6.67988 0
M  V30 4207 H 542.206 3.88793 -6.19859 0
M  V30 4208 H 543.389 1.12046 -6.44229 0
M  V30 4209 H 544.873 1.7746 -8.19711 0
M  V30 4210 H 543.179 3.20706 -9.67112 0
M  V30 4211 H 542.989 0.901032 -10.1892 0
M  V30 4212 H 541.359 1.33049 -9.56592 0
M  V30 4213 H 543.998 3.57847 -5.23962 0
M  V30 4214 P 545.855 3.65191 -7.99657 0
M  V30 4215 O 547.277 3.89332 -8.45794 0
M  V30 4216 O 545.495 2.28472 -7.50807 0
M  V30 4217 O 545.532 4.64972 -6.77611 0
M  V30 4218 C 545.372 6.06319 -7.16352 0
M  V30 4219 C 545.912 6.91731 -6.02299 0
M  V30 4220 O 544.856 6.92449 -5.17064 0
M  V30 4221 C 547.13 6.43627 -5.25174 0
M  V30 4222 O 547.868 7.43686 -4.60469 0
M  V30 4223 C 546.461 5.40275 -4.31916 0
M  V30 4224 O 547.26 5.25279 -3.14438 0
M  V30 4225 C 545.124 6.04847 -4.05327 0
M  V30 4226 H 545.156 6.62195 -3.11261 0
M  V30 4227 H 546.339 4.42556 -4.81383 0
M  V30 4228 H 547.823 5.92458 -5.93643 0
M  V30 4229 H 546.129 7.92655 -6.402 0
M  V30 4230 H 545.939 6.26671 -8.0846 0
M  V30 4231 H 544.309 6.29101 -7.32804 0
M  V30 4232 H 546.948 5.84315 -2.47318 0
M  V30 4233 P 548.806 7.39546 -4.75277 0
M  V30 4234 O 550.228 7.84798 -5.01039 0
M  V30 4235 O 548.446 5.9812 -5.08098 0
M  V30 4236 O 548.483 7.57503 -3.1866 0
M  V30 4237 C 548.323 8.97357 -2.74833 0
M  V30 4238 C 548.863 9.07548 -1.32709 0
M  V30 4239 O 547.807 8.62072 -0.606159 0
M  V30 4240 C 550.081 8.25383 -0.938334 0
M  V30 4241 O 550.819 8.74577 0.146954 0
M  V30 4242 C 549.412 6.8802 -0.712559 0
M  V30 4243 O 550.211 6.1189 0.194655 0
M  V30 4244 C 548.075 7.27966 -0.139777 0
M  V30 4245 H 548.107 7.25354 0.961601 0
M  V30 4246 H 549.29 6.32557 -1.65702 0
M  V30 4247 H 550.774 8.19355 -1.79097 0
M  V30 4248 H 549.08 10.1294 -1.10029 0
M  V30 4249 H 548.89 9.64276 -3.41316 0
M  V30 4250 H 547.26 9.25417 -2.76357 0
M  V30 4251 H 549.899 6.25267 1.07847 0
M  V30 4252 P 551.757 8.791 3.52383e-12 0
M  V30 4253 O 553.179 9.31096 0.027933 0
M  V30 4254 O 551.397 7.77869 -1.04071 0
M  V30 4255 O 551.434 8.09533 1.41463 0
M  V30 4256 C 551.274 9.0349 2.53943 0
M  V30 4257 C 551.814 8.35226 3.79016 0
M  V30 4258 O 550.758 7.57992 4.15078 0
M  V30 4259 C 553.032 7.45087 3.67298 0
M  V30 4260 O 553.77 7.27796 4.85194 0
M  V30 4261 C 552.363 6.17323 3.12027 0
M  V30 4262 O 553.162 5.04231 3.47188 0
M  V30 4263 C 551.026 6.19961 3.81809 0
M  V30 4264 H 551.058 5.58218 4.73051 0
M  V30 4265 H 552.241 6.21726 2.02589 0
M  V30 4266 H 553.725 7.86112 2.9231 0
M  V30 4267 H 552.031 9.11627 4.55076 0
M  V30 4268 H 551.841 9.9573 2.34194 0
M  V30 4269 H 550.211 9.2792 2.67832 0
M  V30 4270 H 552.85 4.67702 4.28772 0
M  V30 4271 P 554.707 7.39546 4.75277 0
M  V30 4272 O 556.129 7.81945 5.05847 0
M  V30 4273 O 554.347 7.1065 3.32998 0
M  V30 4274 O 554.384 6.04542 5.56673 0
M  V30 4275 C 554.224 6.22772 7.02095 0
M  V30 4276 C 554.764 4.97671 7.70322 0
M  V30 4277 O 553.709 4.13256 7.58987 0
M  V30 4278 C 555.982 4.28231 7.11815 0
M  V30 4279 O 556.72 3.49945 8.01648 0
M  V30 4280 C 555.314 3.5063 5.96244 0
M  V30 4281 O 556.112 2.36443 5.64589 0
M  V30 4282 C 553.976 3.15122 6.56374 0
M  V30 4283 N 552.933 3.22311 5.55692 0
M  V30 4284 C 552.995 4.14382 4.59701 0
M  V30 4285 N 551.95 4.04476 3.76958 0
M  V30 4286 C 551.216 3.04892 4.26534 0
M  V30 4287 C 549.91 2.57447 3.88189 0
M  V30 4288 O 549.177 2.9785 2.96543 0
M  V30 4289 N 549.48 1.55228 4.65922 0
M  V30 4290 C 550.229 1.01152 5.73447 0
M  V30 4291 N 549.632 -0.0472117 6.37783 0
M  V30 4292 N 551.382 1.467 6.13813 0
M  V30 4293 C 551.839 2.4931 5.38487 0
M  V30 4294 H 554.008 2.13853 6.99751 0
M  V30 4295 H 555.191 4.13438 5.06482 0
M  V30 4296 H 556.676 5.02614 6.71414 0
M  V30 4297 H 554.981 5.20877 8.75697 0
M  V30 4298 H 554.791 7.11046 7.35349 0
M  V30 4299 H 553.16 6.35815 7.26986 0
M  V30 4300 H 548.584 1.15238 4.46468 0
M  V30 4301 H 553.791 4.88312 4.49647 0
M  V30 4302 H 548.721 -0.396382 6.05203 0
M  V30 4303 H 550.097 -0.484997 7.18465 0
M  V30 4304 H 555.801 1.61619 6.13468 0
M  V30 4305 P 557.658 3.65191 7.99657 0
M  V30 4306 O 559.08 3.8425 8.48115 0
M  V30 4307 O 557.298 4.17805 6.64342 0
M  V30 4308 O 557.335 2.07613 7.95143 0
M  V30 4309 C 557.175 1.44328 9.27336 0
M  V30 4310 C 557.715 0.0220036 9.17197 0
M  V30 4311 O 556.659 -0.626867 8.61923 0
M  V30 4312 C 558.933 -0.24586 8.30336 0
M  V30 4313 O 559.671 -1.39011 8.63583 0
M  V30 4314 C 558.264 -0.273849 6.91158 0
M  V30 4315 O 559.063 -1.06348 6.02892 0
M  V30 4316 C 556.927 -0.897649 7.22545 0
M  V30 4317 H 556.959 -1.9841 7.04286 0
M  V30 4318 H 558.142 0.739928 6.497 0
M  V30 4319 H 559.626 0.60668 8.36503 0
M  V30 4320 H 557.932 -0.352479 10.1829 0
M  V30 4321 H 557.742 2.00611 10.0304 0
M  V30 4322 H 556.112 1.41843 9.55327 0
M  V30 4323 H 558.751 -1.95734 6.03555 0
M  V30 4324 P 560.608 -1.25109 8.70152 0
M  V30 4325 O 562.03 -1.35274 9.21221 0
M  V30 4326 O 560.248 -0.0769065 7.84762 0
M  V30 4327 O 560.285 -2.55232 7.81161 0
M  V30 4328 C 560.125 -3.79939 8.58154 0
M  V30 4329 C 560.665 -4.94023 7.72785 0
M  V30 4330 O 559.609 -5.18726 6.91205 0
M  V30 4331 C 561.883 -4.69597 6.85231 0
M  V30 4332 O 562.621 -5.83832 6.51337 0
M  V30 4333 C 561.214 -3.96706 5.66633 0
M  V30 4334 O 562.013 -4.15414 4.49689 0
M  V30 4335 C 559.877 -4.66153 5.59313 0
M  V30 4336 H 559.909 -5.47679 4.85214 0
M  V30 4337 H 561.092 -2.89008 5.86566 0
M  V30 4338 H 562.576 -4.0121 7.36511 0
M  V30 4339 H 560.882 -5.80182 8.37584 0
M  V30 4340 H 560.692 -3.73517 9.52265 0
M  V30 4341 H 559.062 -3.97163 8.80359 0
M  V30 4342 H 561.701 -4.90969 4.01921 0
M  V30 4343 P 563.559 -5.75688 6.64379 0
M  V30 4344 O 564.981 -6.11849 7.01846 0
M  V30 4345 O 563.199 -4.30744 6.56026 0
M  V30 4346 O 563.236 -6.37042 5.19165 0
M  V30 4347 C 563.076 -7.83578 5.16515 0
M  V30 4348 C 563.616 -8.33398 3.83019 0
M  V30 4349 O 562.56 -8.10074 3.01034 0
M  V30 4350 C 564.834 -7.65514 3.2257 0
M  V30 4351 O 565.572 -8.4329 2.32297 0
M  V30 4352 C 564.165 -6.40075 2.62207 0
M  V30 4353 O 564.964 -5.92589 1.53712 0
M  V30 4354 C 562.828 -6.9454 2.18503 0
M  V30 4355 H 562.86 -7.23063 1.12091 0
M  V30 4356 H 564.043 -5.6025 3.37201 0
M  V30 4357 H 565.527 -7.35707 4.02681 0
M  V30 4358 H 563.833 -9.40912 3.9095 0
M  V30 4359 H 563.643 -8.29056 5.99158 0
M  V30 4360 H 562.013 -8.10073 5.25882 0
M  V30 4361 H 564.652 -6.30324 0.726794 0
M  V30 4362 P 566.509 -8.4349 2.47671 0
M  V30 4363 O 567.931 -8.94167 2.5964 0
M  V30 4364 O 566.149 -7.1704 3.19006 0
M  V30 4365 O 566.186 -8.16596 0.923387 0
M  V30 4366 C 566.026 -9.38437 0.108857 0
M  V30 4367 C 566.566 -9.08175 -1.28353 0
M  V30 4368 O 565.51 -8.44229 -1.84713 0
M  V30 4369 C 567.784 -8.18386 -1.42505 0
M  V30 4370 O 568.522 -8.3501 -2.60497 0
M  V30 4371 C 567.115 -6.80225 -1.25468 0
M  V30 4372 O 567.914 -5.81621 -1.91066 0
M  V30 4373 C 565.778 -7.02416 -1.9168 0
M  V30 4374 H 565.81 -6.6888 -2.96621 0
M  V30 4375 H 566.993 -6.53617 -0.192223 0
M  V30 4376 H 568.477 -8.36622 -0.589963 0
M  V30 4377 H 566.783 -10.0291 -1.79807 0
M  V30 4378 H 566.593 -10.2138 0.558219 0
M  V30 4379 H 564.963 -9.6579 0.0444202 0
M  V30 4380 H 567.602 -5.69556 -2.79637 0
M  V30 4381 P 569.46 -8.4349 -2.47671 0
M  V30 4382 O 570.882 -8.92593 -2.65 0
M  V30 4383 O 569.1 -7.7568 -1.19296 0
M  V30 4384 O 569.137 -7.36886 -3.63805 0
M  V30 4385 C 568.977 -7.95349 -4.982 0
M  V30 4386 C 569.517 -6.94612 -5.98974 0
M  V30 4387 O 568.461 -6.10347 -6.11815 0
M  V30 4388 C 570.735 -6.11426 -5.62335 0
M  V30 4389 O 571.473 -5.6162 -6.70584 0
M  V30 4390 C 570.066 -5.04409 -4.73308 0
M  V30 4391 O 570.865 -3.85992 -4.75183 0
M  V30 4392 C 568.729 -4.8728 -5.41006 0
M  V30 4393 H 568.761 -4.02333 -6.11157 0
M  V30 4394 H 569.944 -5.39466 -3.69543 0
M  V30 4395 H 571.428 -6.71916 -5.01943 0
M  V30 4396 H 569.734 -7.4649 -6.93477 0
M  V30 4397 H 569.544 -8.89416 -5.05237 0
M  V30 4398 H 567.914 -8.14876 -5.18409 0
M  V30 4399 H 570.553 -3.27957 -5.4317 0
M  V30 4400 P 572.411 -5.75688 -6.64379 0
M  V30 4401 O 573.833 -6.07627 -7.05504 0
M  V30 4402 O 572.051 -5.88047 -5.19722 0
M  V30 4403 O 572.088 -4.2322 -7.04443 0
M  V30 4404 C 571.928 -3.99743 -8.4911 0
M  V30 4405 C 572.468 -2.60516 -8.79425 0
M  V30 4406 O 571.412 -1.82684 -8.4467 0
M  V30 4407 C 573.686 -2.10343 -8.03628 0
M  V30 4408 O 574.424 -1.09919 -8.67766 0
M  V30 4409 C 573.017 -1.68446 -6.70876 0
M  V30 4410 O 573.816 -0.678137 -6.08433 0
M  V30 4411 C 571.68 -1.17436 -7.18567 0
M  V30 4412 H 571.712 -0.0804732 -7.31656 0
M  V30 4413 H 572.895 -2.54037 -6.02537 0
M  V30 4414 H 574.379 -2.93881 -7.85526 0
M  V30 4415 H 572.685 -2.53065 -9.86973 0
M  V30 4416 H 572.495 -4.75072 -9.05887 0
M  V30 4417 H 570.865 -4.05244 -8.76668 0
M  V30 4418 H 573.504 0.177647 -6.34251 0
M  V30 4419 P 575.361 -1.25109 -8.70152 0
M  V30 4420 O 576.783 -1.29744 -9.22016 0
M  V30 4421 O 575.001 -2.13714 -7.55141 0
M  V30 4422 O 575.038 0.248149 -8.21425 0
M  V30 4423 C 574.878 1.22779 -9.30434 0
M  V30 4424 C 575.418 2.56293 -8.80664 0
M  V30 4425 O 574.362 3.02979 -8.09349 0
M  V30 4426 C 576.636 2.57523 -7.89775 0
M  V30 4427 O 577.374 3.7668 -7.89438 0
M  V30 4428 C 575.967 2.20997 -6.55446 0
M  V30 4429 O 576.766 2.71895 -5.48509 0
M  V30 4430 C 574.63 2.89693 -6.67988 0
M  V30 4431 H 574.662 3.88793 -6.19859 0
M  V30 4432 H 575.845 1.12046 -6.44229 0
M  V30 4433 H 577.329 1.7746 -8.19711 0
M  V30 4434 H 575.635 3.20706 -9.67112 0
M  V30 4435 H 575.445 0.901032 -10.1892 0
M  V30 4436 H 573.815 1.33049 -9.56592 0
M  V30 4437 H 576.454 3.57847 -5.23962 0
M  V30 4438 P 578.312 3.65191 -7.99657 0
M  V30 4439 O 579.734 3.89332 -8.45794 0
M  V30 4440 O 577.952 2.28472 -7.50807 0
M  V30 4441 O 577.989 4.64972 -6.77611 0
M  V30 4442 C 577.829 6.06319 -7.16352 0
M  V30 4443 C 578.369 6.91731 -6.02299 0
M  V30 4444 O 577.313 6.92449 -5.17064 0
M  V30 4445 C 579.587 6.43627 -5.25174 0
M  V30 4446 O 580.325 7.43686 -4.60469 0
M  V30 4447 C 578.918 5.40275 -4.31916 0
M  V30 4448 O 579.717 5.25279 -3.14438 0
M  V30 4449 C 577.581 6.04847 -4.05327 0
M  V30 4450 H 577.613 6.62195 -3.11261 0
M  V30 4451 H 578.796 4.42556 -4.81383 0
M  V30 4452 H 580.28 5.92458 -5.93643 0
M  V30 4453 H 578.586 7.92655 -6.402 0
M  V30 4454 H 578.396 6.26671 -8.0846 0
M  V30 4455 H 576.766 6.29101 -7.32804 0
M  V30 4456 H 579.405 5.84315 -2.47318 0
M  V30 4457 P 581.262 7.39546 -4.75277 0
M  V30 4458 O 582.684 7.84798 -5.01039 0
M  V30 4459 O 580.902 5.9812 -5.08098 0
M  V30 4460 O 580.939 7.57503 -3.1866 0
M  V30 4461 C 580.779 8.97357 -2.74833 0
M  V30 4462 C 581.319 9.07548 -1.32709 0
M  V30 4463 O 580.263 8.62072 -0.606159 0
M  V30 4464 C 582.537 8.25383 -0.938334 0
M  V30 4465 O 583.275 8.74577 0.146954 0
M  V30 4466 C 581.868 6.8802 -0.712559 0
M  V30 4467 O 582.667 6.1189 0.194655 0
M  V30 4468 C 580.531 7.27966 -0.139777 0
M  V30 4469 H 580.563 7.25354 0.961601 0
M  V30 4470 H 581.746 6.32557 -1.65702 0
M  V30 4471 H 583.23 8.19355 -1.79097 0
M  V30 4472 H 581.536 10.1294 -1.10029 0
M  V30 4473 H 581.346 9.64276 -3.41316 0
M  V30 4474 H 579.716 9.25417 -2.76357 0
M  V30 4475 H 582.355 6.25267 1.07847 0
M  V30 4476 P 584.213 8.791 3.834e-12 0
M  V30 4477 O 585.635 9.31296 0.027939 0
M  V30 4478 O 583.853 7.77869 -1.04071 0
M  V30 4479 O 583.89 8.09533 1.41463 0
M  V30 4480 C 583.73 9.0349 2.53943 0
M  V30 4481 C 584.27 8.35135 3.78975 0
M  V30 4482 O 583.215 7.57992 4.15078 0
M  V30 4483 C 585.488 7.45087 3.67298 0
M  V30 4484 O 586.226 7.27796 4.85194 0
M  V30 4485 C 584.82 6.17323 3.12027 0
M  V30 4486 O 585.618 5.04149 3.47132 0
M  V30 4487 C 583.482 6.19961 3.81809 0
M  V30 4488 N 582.439 5.71575 2.93223 0
M  V30 4489 C 582.501 5.97133 1.62693 0
M  V30 4490 N 581.456 5.44066 0.984414 0
M  V30 4491 C 580.722 4.87093 1.93987 0
M  V30 4492 C 579.416 4.26449 1.8738 0
M  V30 4493 O 578.683 4.1089 0.884377 0
M  V30 4494 N 578.986 3.82483 3.08036 0
M  V30 4495 C 579.735 3.95124 4.27727 0
M  V30 4496 N 579.138 3.4084 5.39089 0
M  V30 4497 N 580.888 4.55264 4.3706 0
M  V30 4498 C 581.345 5.00861 3.18217 0
M  V30 4499 H 583.514 5.58218 4.73051 0
M  V30 4500 H 584.697 6.21631 2.02558 0
M  V30 4501 H 586.182 7.85819 2.93096 0
M  V30 4502 H 584.487 9.11627 4.55076 0
M  V30 4503 H 584.297 9.9573 2.34194 0
M  V30 4504 H 582.666 9.2792 2.67832 0
M  V30 4505 H 578.09 3.38323 3.1329 0
M  V30 4506 H 583.297 6.53891 1.14265 0
M  V30 4507 H 578.227 2.93852 5.30559 0
M  V30 4508 H 579.603 3.47631 6.30632 0
M  V30 4509 H 585.307 4.67628 4.28704 0
M  V30 4510 P 587.163 7.39546 4.75277 0
M  V30 4511 O 588.585 7.81777 5.05738 0
M  V30 4512 O 586.803 7.1065 3.32998 0
M  V30 4513 O 586.84 6.04542 5.56673 0
M  V30 4514 C 586.68 6.22772 7.02095 0
M  V30 4515 C 587.22 4.97725 7.70406 0
M  V30 4516 O 586.164 4.13256 7.58987 0
M  V30 4517 C 588.438 4.28231 7.11815 0
M  V30 4518 O 589.176 3.49945 8.01648 0
M  V30 4519 C 587.769 3.5063 5.96244 0
M  V30 4520 O 588.568 2.36482 5.64681 0
M  V30 4521 C 586.432 3.15122 6.56374 0
M  V30 4522 H 586.464 2.13853 6.99751 0
M  V30 4523 H 587.647 4.13501 5.06559 0
M  V30 4524 H 589.131 5.03285 6.70911 0
M  V30 4525 H 587.437 5.20877 8.75697 0
M  V30 4526 H 587.247 7.11046 7.35349 0
M  V30 4527 H 585.617 6.35815 7.26986 0
M  V30 4528 H 588.256 1.61644 6.13565 0
M  V30 4529 P 590.114 3.65191 7.99657 0
M  V30 4530 O 591.536 3.8425 8.48115 0
M  V30 4531 O 589.754 4.17805 6.64342 0
M  V30 4532 O 589.791 2.07613 7.95143 0
M  V30 4533 C 589.631 1.44328 9.27336 0
M  V30 4534 C 590.171 0.0220036 9.17197 0
M  V30 4535 O 589.115 -0.626867 8.61923 0
M  V30 4536 C 591.389 -0.24586 8.30336 0
M  V30 4537 O 592.127 -1.39011 8.63583 0
M  V30 4538 C 590.72 -0.273849 6.91158 0
M  V30 4539 O 591.519 -1.06348 6.02892 0
M  V30 4540 C 589.383 -0.897649 7.22545 0
M  V30 4541 H 589.415 -1.9841 7.04286 0
M  V30 4542 H 590.598 0.739928 6.497 0
M  V30 4543 H 592.082 0.60668 8.36503 0
M  V30 4544 H 590.388 -0.352479 10.1829 0
M  V30 4545 H 590.198 2.00611 10.0304 0
M  V30 4546 H 588.568 1.41843 9.55327 0
M  V30 4547 H 591.207 -1.95734 6.03555 0
M  V30 4548 P 593.065 -1.25109 8.70152 0
M  V30 4549 O 594.486 -1.35288 9.2132 0
M  V30 4550 O 592.705 -0.0769065 7.84762 0
M  V30 4551 O 592.742 -2.55232 7.81161 0
M  V30 4552 C 592.581 -3.79979 8.58246 0
M  V30 4553 C 593.122 -4.94023 7.72785 0
M  V30 4554 O 592.067 -5.18666 6.91125 0
M  V30 4555 C 594.34 -4.69597 6.85231 0
M  V30 4556 O 595.078 -5.83832 6.51337 0
M  V30 4557 C 593.672 -3.96706 5.66633 0
M  V30 4558 O 594.47 -4.14896 4.5003 0
M  V30 4559 C 592.334 -4.66153 5.59313 0
M  V30 4560 N 591.291 -3.71582 5.24027 0
M  V30 4561 C 591.46 -2.39715 5.48833 0
M  V30 4562 N 590.433 -1.65863 5.12845 0
M  V30 4563 C 589.548 -2.57637 4.5973 0
M  V30 4564 C 588.281 -2.40278 4.01027 0
M  V30 4565 N 587.682 -1.19549 3.86744 0
M  V30 4566 N 587.716 -3.57711 3.59575 0
M  V30 4567 C 588.318 -4.80324 3.70476 0
M  V30 4568 N 589.495 -5.01121 4.23801 0
M  V30 4569 C 590.07 -3.84757 4.66372 0
M  V30 4570 H 592.366 -5.47604 4.85148 0
M  V30 4571 H 593.549 -2.8955 5.86187 0
M  V30 4572 H 595.032 -4.0121 7.36511 0
M  V30 4573 H 593.338 -5.81019 8.37003 0
M  V30 4574 H 593.148 -3.73517 9.52265 0
M  V30 4575 H 591.518 -3.97163 8.80359 0
M  V30 4576 H 587.782 -5.66348 3.3183 0
M  V30 4577 H 592.36 -1.98804 5.94332 0
M  V30 4578 H 586.752 -1.13147 3.4281 0
M  V30 4579 H 588.156 -0.344074 4.19692 0
M  V30 4580 H 594.158 -4.90891 4.01857 0
M  V30 4581 P 596.015 -5.75688 6.64379 0
M  V30 4582 O 597.437 -6.11849 7.01846 0
M  V30 4583 O 595.655 -4.30744 6.56026 0
M  V30 4584 O 595.692 -6.37042 5.19165 0
M  V30 4585 C 595.532 -7.83578 5.16515 0
M  V30 4586 C 596.072 -8.33398 3.83019 0
M  V30 4587 O 595.016 -8.10074 3.01034 0
M  V30 4588 C 597.29 -7.65514 3.2257 0
M  V30 4589 O 598.028 -8.4329 2.32297 0
M  V30 4590 C 596.621 -6.40075 2.62207 0
M  V30 4591 O 597.42 -5.92589 1.53712 0
M  V30 4592 C 595.284 -6.9454 2.18503 0
M  V30 4593 H 595.316 -7.23063 1.12091 0
M  V30 4594 H 596.499 -5.6025 3.37201 0
M  V30 4595 H 597.983 -7.35707 4.02681 0
M  V30 4596 H 596.289 -9.40912 3.9095 0
M  V30 4597 H 596.099 -8.29056 5.99158 0
M  V30 4598 H 594.469 -8.10073 5.25882 0
M  V30 4599 H 597.108 -6.30324 0.726794 0
M  V30 4600 P 598.966 -8.4349 2.47671 0
M  V30 4601 O 600.388 -8.94167 2.5964 0
M  V30 4602 O 598.606 -7.1704 3.19006 0
M  V30 4603 O 598.643 -8.16596 0.923387 0
M  V30 4604 C 598.483 -9.38437 0.108857 0
M  V30 4605 C 599.023 -9.08175 -1.28353 0
M  V30 4606 O 597.967 -8.44229 -1.84713 0
M  V30 4607 C 600.241 -8.18386 -1.42505 0
M  V30 4608 O 600.979 -8.3501 -2.60497 0
M  V30 4609 C 599.572 -6.80225 -1.25468 0
M  V30 4610 O 600.371 -5.81621 -1.91066 0
M  V30 4611 C 598.235 -7.02416 -1.9168 0
M  V30 4612 H 598.267 -6.6888 -2.96621 0
M  V30 4613 H 599.45 -6.53617 -0.192223 0
M  V30 4614 H 600.934 -8.36622 -0.589963 0
M  V30 4615 H 599.24 -10.0291 -1.79807 0
M  V30 4616 H 599.05 -10.2138 0.558219 0
M  V30 4617 H 597.42 -9.6579 0.0444202 0
M  V30 4618 H 600.059 -5.69556 -2.79637 0
M  V30 4619 P 601.916 -8.4349 -2.47671 0
M  V30 4620 O 603.337 -8.92689 -2.65029 0
M  V30 4621 O 601.556 -7.7568 -1.19296 0
M  V30 4622 O 601.593 -7.36886 -3.63805 0
M  V30 4623 C 601.432 -7.95433 -4.98253 0
M  V30 4624 C 601.973 -6.94612 -5.98974 0
M  V30 4625 O 600.918 -6.10277 -6.11744 0
M  V30 4626 C 603.191 -6.11426 -5.62335 0
M  V30 4627 O 603.929 -5.6162 -6.70584 0
M  V30 4628 C 602.523 -5.04409 -4.73308 0
M  V30 4629 O 603.321 -3.86404 -4.74719 0
M  V30 4630 C 601.185 -4.8728 -5.41006 0
M  V30 4631 N 600.142 -4.65812 -4.42377 0
M  V30 4632 C 600.311 -5.09132 -3.15382 0
M  V30 4633 N 599.284 -4.84021 -2.3716 0
M  V30 4634 C 598.399 -4.18386 -3.20441 0
M  V30 4635 C 597.132 -3.6275 -2.94905 0
M  V30 4636 N 596.567 -3.05008 -4.05243 0
M  V30 4637 C 597.169 -2.98348 -5.28159 0
M  V30 4638 N 598.346 -3.48171 -5.56333 0
M  V30 4639 C 598.921 -4.06869 -4.47212 0
M  V30 4640 H 602.4 -5.39013 -3.70026 0
M  V30 4641 H 603.883 -6.71916 -5.01943 0
M  V30 4642 H 602.189 -7.45796 -6.94223 0
M  V30 4643 H 601.999 -8.89416 -5.05237 0
M  V30 4644 H 600.369 -8.14876 -5.18409 0
M  V30 4645 H 601.211 -5.59989 -2.81362 0
M  V30 4646 H 603.009 -3.27906 -5.43085 0
M  V30 4647 P 604.867 -5.75688 -6.64379 0
M  V30 4648 O 606.288 -6.07692 -7.0558 0
M  V30 4649 O 604.507 -5.88047 -5.19722 0
M  V30 4650 O 604.544 -4.2322 -7.04443 0
M  V30 4651 C 604.383 -3.99785 -8.49201 0
M  V30 4652 C 604.924 -2.60516 -8.79425 0
M  V30 4653 O 603.869 -1.82663 -8.44573 0
M  V30 4654 C 606.142 -2.10343 -8.03628 0
M  V30 4655 O 606.88 -1.09919 -8.67766 0
M  V30 4656 C 605.474 -1.68446 -6.70876 0
M  V30 4657 O 606.272 -0.684109 -6.08265 0
M  V30 4658 C 604.136 -1.17436 -7.18567 0
M  V30 4659 N 603.093 -1.52699 -6.23988 0
M  V30 4660 C 603.262 -2.578 -5.40574 0
M  V30 4661 N 602.235 -2.78966 -4.61193 0
M  V30 4662 C 601.35 -1.78725 -4.95769 0
M  V30 4663 C 600.083 -1.45727 -4.44207 0
M  V30 4664 N 599.518 -0.374977 -5.05812 0
M  V30 4665 C 600.12 0.345585 -6.05615 0
M  V30 4666 N 601.297 0.0787651 -6.56253 0
M  V30 4667 C 601.872 -1.00499 -5.96189 0
M  V30 4668 H 605.351 -2.53396 -6.02698 0
M  V30 4669 H 606.834 -2.93881 -7.85526 0
M  V30 4670 H 605.14 -2.52078 -9.87225 0
M  V30 4671 H 604.95 -4.75072 -9.05887 0
M  V30 4672 H 603.32 -4.05244 -8.76668 0
M  V30 4673 H 604.162 -3.18977 -5.3945 0
M  V30 4674 H 605.96 0.177619 -6.34151 0
M  V30 4675 P 607.817 -1.25109 -8.70152 0
M  V30 4676 O 609.239 -1.29744 -9.22016 0
M  V30 4677 O 607.457 -2.13714 -7.55141 0
M  V30 4678 O 607.494 0.248149 -8.21425 0
M  V30 4679 C 607.334 1.22779 -9.30434 0
M  V30 4680 C 607.874 2.56293 -8.80664 0
M  V30 4681 O 606.818 3.02979 -8.09349 0
M  V30 4682 C 609.092 2.57523 -7.89775 0
M  V30 4683 O 609.83 3.7668 -7.89438 0
M  V30 4684 C 608.423 2.20997 -6.55446 0
M  V30 4685 O 609.222 2.71895 -5.48509 0
M  V30 4686 C 607.086 2.89693 -6.67988 0
M  V30 4687 H 607.118 3.88793 -6.19859 0
M  V30 4688 H 608.301 1.12046 -6.44229 0
M  V30 4689 H 609.785 1.7746 -8.19711 0
M  V30 4690 H 608.091 3.20706 -9.67112 0
M  V30 4691 H 607.901 0.901032 -10.1892 0
M  V30 4692 H 606.271 1.33049 -9.56592 0
M  V30 4693 H 608.91 3.57847 -5.23962 0
M  V30 4694 P 610.768 3.65191 -7.99657 0
M  V30 4695 O 612.189 3.89374 -8.45885 0
M  V30 4696 O 610.408 2.28472 -7.50807 0
M  V30 4697 O 610.445 4.64972 -6.77611 0
M  V30 4698 C 610.284 6.06383 -7.16428 0
M  V30 4699 C 610.825 6.91731 -6.02299 0
M  V30 4700 O 609.77 6.92369 -5.17005 0
M  V30 4701 C 612.043 6.43627 -5.25174 0
M  V30 4702 O 612.781 7.43686 -4.60469 0
M  V30 4703 C 611.375 5.40275 -4.31916 0
M  V30 4704 O 612.173 5.24878 -3.14911 0
M  V30 4705 C 610.037 6.04847 -4.05327 0
M  V30 4706 N 608.994 5.04166 -3.98114 0
M  V30 4707 C 609.163 3.84629 -4.59066 0
M  V30 4708 N 608.136 3.0363 -4.45343 0
M  V30 4709 C 607.251 3.76722 -3.68523 0
M  V30 4710 C 605.984 3.43528 -3.17088 0
M  V30 4711 N 605.419 4.44526 -2.44231 0
M  V30 4712 C 606.021 5.65243 -2.20146 0
M  V30 4713 N 607.198 6.00221 -2.65453 0
M  V30 4714 C 607.773 5.00564 -3.39083 0
M  V30 4715 H 611.252 4.42969 -4.80867 0
M  V30 4716 H 612.735 5.92458 -5.93643 0
M  V30 4717 H 611.041 7.93295 -6.39407 0
M  V30 4718 H 610.851 6.26671 -8.0846 0
M  V30 4719 H 609.221 6.29101 -7.32804 0
M  V30 4720 H 610.063 3.58193 -5.14248 0
M  V30 4721 H 611.861 5.84223 -2.47279 0
M  V30 4722 P 613.719 7.39546 -4.75277 0
M  V30 4723 O 615.141 7.84798 -5.01039 0
M  V30 4724 O 613.359 5.9812 -5.08098 0
M  V30 4725 O 613.396 7.57503 -3.1866 0
M  V30 4726 C 613.236 8.97357 -2.74833 0
M  V30 4727 C 613.776 9.07548 -1.32709 0
M  V30 4728 O 612.72 8.62072 -0.606159 0
M  V30 4729 C 614.994 8.25383 -0.938334 0
M  V30 4730 O 615.732 8.74577 0.146954 0
M  V30 4731 C 614.325 6.8802 -0.712559 0
M  V30 4732 O 615.124 6.1189 0.194655 0
M  V30 4733 C 612.988 7.27966 -0.139777 0
M  V30 4734 H 613.02 7.25354 0.961601 0
M  V30 4735 H 614.203 6.32557 -1.65702 0
M  V30 4736 H 615.687 8.19355 -1.79097 0
M  V30 4737 H 613.993 10.1294 -1.10029 0
M  V30 4738 H 613.803 9.64276 -3.41316 0
M  V30 4739 H 612.173 9.25417 -2.76357 0
M  V30 4740 H 614.812 6.25267 1.07847 0
M  V30 4741 P 616.669 8.791 4.14417e-12 0
M  V30 4742 O 618.091 9.31096 0.027933 0
M  V30 4743 O 616.309 7.77869 -1.04071 0
M  V30 4744 O 616.346 8.09533 1.41463 0
M  V30 4745 C 616.186 9.0349 2.53943 0
M  V30 4746 C 616.726 8.35226 3.79016 0
M  V30 4747 O 615.67 7.57992 4.15078 0
M  V30 4748 C 617.944 7.45087 3.67298 0
M  V30 4749 O 618.682 7.27796 4.85194 0
M  V30 4750 C 617.275 6.17323 3.12027 0
M  V30 4751 O 618.074 5.04231 3.47188 0
M  V30 4752 C 615.938 6.19961 3.81809 0
M  V30 4753 H 615.97 5.58218 4.73051 0
M  V30 4754 H 617.153 6.21726 2.02589 0
M  V30 4755 H 618.637 7.86112 2.9231 0
M  V30 4756 H 616.943 9.11627 4.55076 0
M  V30 4757 H 616.753 9.9573 2.34194 0
M  V30 4758 H 615.123 9.2792 2.67832 0
M  V30 4759 H 617.762 4.67702 4.28772 0
M  V30 4760 P 619.62 7.39546 4.75277 0
M  V30 4761 O 621.042 7.81777 5.05738 0
M  V30 4762 O 619.26 7.1065 3.32998 0
M  V30 4763 O 619.297 6.04542 5.56673 0
M  V30 4764 C 619.137 6.22772 7.02095 0
M  V30 4765 C 619.677 4.97725 7.70406 0
M  V30 4766 O 618.621 4.13256 7.58987 0
M  V30 4767 C 620.895 4.28231 7.11815 0
M  V30 4768 O 621.633 3.49945 8.01648 0
M  V30 4769 C 620.226 3.5063 5.96244 0
M  V30 4770 O 621.025 2.36482 5.64681 0
M  V30 4771 C 618.889 3.15122 6.56374 0
M  V30 4772 H 618.921 2.13853 6.99751 0
M  V30 4773 H 620.104 4.13501 5.06559 0
M  V30 4774 H 621.588 5.03285 6.70911 0
M  V30 4775 H 619.894 5.20877 8.75697 0
M  V30 4776 H 619.704 7.11046 7.35349 0
M  V30 4777 H 618.074 6.35815 7.26986 0
M  V30 4778 H 620.713 1.61644 6.13565 0
M  V30 4779 P 622.57 3.65191 7.99657 0
M  V30 4780 O 623.992 3.8425 8.48115 0
M  V30 4781 O 622.21 4.17805 6.64342 0
M  V30 4782 O 622.247 2.07613 7.95143 0
M  V30 4783 C 622.087 1.44328 9.27336 0
M  V30 4784 C 622.627 0.0220036 9.17197 0
M  V30 4785 O 621.571 -0.626867 8.61923 0
M  V30 4786 C 623.845 -0.24586 8.30336 0
M  V30 4787 O 624.583 -1.39011 8.63583 0
M  V30 4788 C 623.176 -0.273849 6.91158 0
M  V30 4789 O 623.975 -1.06348 6.02892 0
M  V30 4790 C 621.839 -0.897649 7.22545 0
M  V30 4791 H 621.871 -1.9841 7.04286 0
M  V30 4792 H 623.054 0.739928 6.497 0
M  V30 4793 H 624.538 0.60668 8.36503 0
M  V30 4794 H 622.844 -0.352479 10.1829 0
M  V30 4795 H 622.654 2.00611 10.0304 0
M  V30 4796 H 621.024 1.41843 9.55327 0
M  V30 4797 H 623.663 -1.95734 6.03555 0
M  V30 4798 P 625.521 -1.25109 8.70152 0
M  V30 4799 O 626.943 -1.35274 9.21221 0
M  V30 4800 O 625.161 -0.0769065 7.84762 0
M  V30 4801 O 625.198 -2.55232 7.81161 0
M  V30 4802 C 625.038 -3.79939 8.58154 0
M  V30 4803 C 625.578 -4.94023 7.72785 0
M  V30 4804 O 624.522 -5.18726 6.91205 0
M  V30 4805 C 626.796 -4.69597 6.85231 0
M  V30 4806 O 627.534 -5.83832 6.51337 0
M  V30 4807 C 626.127 -3.96706 5.66633 0
M  V30 4808 O 626.926 -4.15414 4.49689 0
M  V30 4809 C 624.79 -4.66153 5.59313 0
M  V30 4810 H 624.822 -5.47679 4.85214 0
M  V30 4811 H 626.005 -2.89008 5.86566 0
M  V30 4812 H 627.489 -4.0121 7.36511 0
M  V30 4813 H 625.795 -5.80182 8.37584 0
M  V30 4814 H 625.605 -3.73517 9.52265 0
M  V30 4815 H 623.975 -3.97163 8.80359 0
M  V30 4816 H 626.614 -4.90969 4.01921 0
M  V30 4817 P 628.471 -5.75688 6.64379 0
M  V30 4818 O 629.893 -6.11981 7.01997 0
M  V30 4819 O 628.111 -4.30744 6.56026 0
M  V30 4820 O 628.148 -6.37042 5.19165 0
M  V30 4821 C 627.988 -7.83578 5.16515 0
M  V30 4822 C 628.528 -8.33307 3.82977 0
M  V30 4823 O 627.473 -8.10074 3.01034 0
M  V30 4824 C 629.746 -7.65514 3.2257 0
M  V30 4825 O 630.484 -8.4329 2.32297 0
M  V30 4826 C 629.078 -6.40075 2.62207 0
M  V30 4827 O 629.876 -5.92492 1.53687 0
M  V30 4828 C 627.74 -6.9454 2.18503 0
M  V30 4829 N 626.697 -5.95905 2.39948 0
M  V30 4830 C 626.759 -5.13994 3.44742 0
M  V30 4831 N 625.714 -4.30684 3.46712 0
M  V30 4832 C 624.98 -4.65583 2.41086 0
M  V30 4833 C 623.674 -4.20877 1.99581 0
M  V30 4834 O 622.941 -3.35913 2.52616 0
M  V30 4835 N 623.244 -4.83271 0.873406 0
M  V30 4836 C 623.993 -5.82006 0.185129 0
M  V30 4837 N 623.396 -6.30619 -0.95439 0
M  V30 4838 N 625.146 -6.28443 0.578524 0
M  V30 4839 C 625.603 -5.68486 1.70138 0
M  V30 4840 H 627.772 -7.23063 1.12091 0
M  V30 4841 H 628.955 -5.60165 3.3715 0
M  V30 4842 H 630.44 -7.3611 4.01946 0
M  V30 4843 H 628.745 -9.40912 3.9095 0
M  V30 4844 H 628.555 -8.29056 5.99158 0
M  V30 4845 H 626.924 -8.10073 5.25882 0
M  V30 4846 H 622.348 -4.58323 0.505262 0
M  V30 4847 H 627.555 -5.14564 4.1935 0
M  V30 4848 H 622.485 -5.93402 -1.25364 0
M  V30 4849 H 623.861 -7.0425 -1.50254 0
M  V30 4850 H 629.565 -6.30224 0.72668 0
M  V30 4851 P 631.422 -8.4349 2.47671 0
M  V30 4852 O 632.843 -8.94263 2.59668 0
M  V30 4853 O 631.062 -7.1704 3.19006 0
M  V30 4854 O 631.099 -8.16596 0.923387 0
M  V30 4855 C 630.938 -9.38537 0.108869 0
M  V30 4856 C 631.479 -9.08175 -1.28353 0
M  V30 4857 O 630.424 -8.44131 -1.84692 0
M  V30 4858 C 632.697 -8.18386 -1.42505 0
M  V30 4859 O 633.435 -8.3501 -2.60497 0
M  V30 4860 C 632.029 -6.80225 -1.25468 0
M  V30 4861 O 632.827 -5.81716 -1.90454 0
M  V30 4862 C 630.691 -7.02416 -1.9168 0
M  V30 4863 N 629.648 -6.31033 -1.20314 0
M  V30 4864 C 629.817 -5.98817 0.0994088 0
M  V30 4865 N 628.79 -5.35403 0.621694 0
M  V30 4866 C 627.905 -5.25212 -0.43376 0
M  V30 4867 C 626.638 -4.64602 -0.519722 0
M  V30 4868 N 626.073 -4.7568 -1.76013 0
M  V30 4869 C 626.675 -5.3653 -2.83017 0
M  V30 4870 N 627.852 -5.93676 -2.79782 0
M  V30 4871 C 628.427 -5.84061 -1.56249 0
M  V30 4872 H 631.906 -6.53498 -0.198729 0
M  V30 4873 H 633.389 -8.36622 -0.589963 0
M  V30 4874 H 631.695 -10.0273 -1.8081 0
M  V30 4875 H 631.505 -10.2138 0.558219 0
M  V30 4876 H 629.875 -9.6579 0.0444202 0
M  V30 4877 H 630.717 -6.23209 0.660562 0
M  V30 4878 H 632.515 -5.69466 -2.79593 0
M  V30 4879 P 634.373 -8.4349 -2.47671 0
M  V30 4880 O 635.795 -8.92593 -2.65 0
M  V30 4881 O 634.013 -7.7568 -1.19296 0
M  V30 4882 O 634.05 -7.36886 -3.63805 0
M  V30 4883 C 633.89 -7.95349 -4.982 0
M  V30 4884 C 634.43 -6.94612 -5.98974 0
M  V30 4885 O 633.374 -6.10347 -6.11815 0
M  V30 4886 C 635.648 -6.11426 -5.62335 0
M  V30 4887 O 636.386 -5.6162 -6.70584 0
M  V30 4888 C 634.979 -5.04409 -4.73308 0
M  V30 4889 O 635.778 -3.85992 -4.75183 0
M  V30 4890 C 633.642 -4.8728 -5.41006 0
M  V30 4891 H 633.674 -4.02333 -6.11157 0
M  V30 4892 H 634.857 -5.39466 -3.69543 0
M  V30 4893 H 636.341 -6.71916 -5.01943 0
M  V30 4894 H 634.647 -7.4649 -6.93477 0
M  V30 4895 H 634.457 -8.89416 -5.05237 0
M  V30 4896 H 632.827 -8.14876 -5.18409 0
M  V30 4897 H 635.466 -3.27957 -5.4317 0
M  V30 4898 P 637.323 -5.75688 -6.64379 0
M  V30 4899 O 638.745 -6.07627 -7.05504 0
M  V30 4900 O 636.963 -5.88047 -5.19722 0
M  V30 4901 O 637 -4.2322 -7.04443 0
M  V30 4902 C 636.84 -3.99743 -8.4911 0
M  V30 4903 C 637.38 -2.60516 -8.79425 0
M  V30 4904 O 636.324 -1.82684 -8.4467 0
M  V30 4905 C 638.598 -2.10343 -8.03628 0
M  V30 4906 O 639.336 -1.09919 -8.67766 0
M  V30 4907 C 637.929 -1.68446 -6.70876 0
M  V30 4908 O 638.728 -0.678137 -6.08433 0
M  V30 4909 C 636.592 -1.17436 -7.18567 0
M  V30 4910 H 636.624 -0.0804732 -7.31656 0
M  V30 4911 H 637.807 -2.54037 -6.02537 0
M  V30 4912 H 639.291 -2.93881 -7.85526 0
M  V30 4913 H 637.597 -2.53065 -9.86973 0
M  V30 4914 H 637.407 -4.75072 -9.05887 0
M  V30 4915 H 635.777 -4.05244 -8.76668 0
M  V30 4916 H 638.416 0.177647 -6.34251 0
M  V30 4917 P 640.274 -1.25109 -8.70152 0
M  V30 4918 O 641.696 -1.29744 -9.22016 0
M  V30 4919 O 639.914 -2.13714 -7.55141 0
M  V30 4920 O 639.951 0.248149 -8.21425 0
M  V30 4921 C 639.791 1.22779 -9.30434 0
M  V30 4922 C 640.331 2.56293 -8.80664 0
M  V30 4923 O 639.275 3.02979 -8.09349 0
M  V30 4924 C 641.549 2.57523 -7.89775 0
M  V30 4925 O 642.287 3.7668 -7.89438 0
M  V30 4926 C 640.88 2.20997 -6.55446 0
M  V30 4927 O 641.679 2.71895 -5.48509 0
M  V30 4928 C 639.543 2.89693 -6.67988 0
M  V30 4929 H 639.575 3.88793 -6.19859 0
M  V30 4930 H 640.758 1.12046 -6.44229 0
M  V30 4931 H 642.242 1.7746 -8.19711 0
M  V30 4932 H 640.548 3.20706 -9.67112 0
M  V30 4933 H 640.358 0.901032 -10.1892 0
M  V30 4934 H 638.728 1.33049 -9.56592 0
M  V30 4935 H 641.367 3.57847 -5.23962 0
M  V30 4936 P 643.224 3.65191 -7.99657 0
M  V30 4937 O 644.645 3.89374 -8.45885 0
M  V30 4938 O 642.864 2.28472 -7.50807 0
M  V30 4939 O 642.901 4.64972 -6.77611 0
M  V30 4940 C 642.74 6.06383 -7.16428 0
M  V30 4941 C 643.281 6.91731 -6.02299 0
M  V30 4942 O 642.226 6.92369 -5.17005 0
M  V30 4943 C 644.499 6.43627 -5.25174 0
M  V30 4944 O 645.237 7.43686 -4.60469 0
M  V30 4945 C 643.831 5.40275 -4.31916 0
M  V30 4946 O 644.629 5.24878 -3.14911 0
M  V30 4947 C 642.493 6.04847 -4.05327 0
M  V30 4948 N 641.45 5.04166 -3.98114 0
M  V30 4949 C 641.619 3.84629 -4.59066 0
M  V30 4950 N 640.592 3.0363 -4.45343 0
M  V30 4951 C 639.707 3.76722 -3.68523 0
M  V30 4952 C 638.44 3.43528 -3.17088 0
M  V30 4953 N 637.875 4.44526 -2.44231 0
M  V30 4954 C 638.477 5.65243 -2.20146 0
M  V30 4955 N 639.654 6.00221 -2.65453 0
M  V30 4956 C 640.229 5.00564 -3.39083 0
M  V30 4957 H 643.708 4.42969 -4.80867 0
M  V30 4958 H 645.191 5.92458 -5.93643 0
M  V30 4959 H 643.497 7.93295 -6.39407 0
M  V30 4960 H 643.307 6.26671 -8.0846 0
M  V30 4961 H 641.677 6.29101 -7.32804 0
M  V30 4962 H 642.519 3.58193 -5.14248 0
M  V30 4963 H 644.317 5.84223 -2.47279 0
M  V30 4964 P 646.175 7.39546 -4.75277 0
M  V30 4965 O 647.596 7.84882 -5.01092 0
M  V30 4966 O 645.815 5.9812 -5.08098 0
M  V30 4967 O 645.852 7.57503 -3.1866 0
M  V30 4968 C 645.691 8.97452 -2.74862 0
M  V30 4969 C 646.232 9.07548 -1.32709 0
M  V30 4970 O 645.177 8.61972 -0.606089 0
M  V30 4971 C 647.45 8.25383 -0.938334 0
M  V30 4972 O 648.188 8.74577 0.146954 0
M  V30 4973 C 646.782 6.8802 -0.712559 0
M  V30 4974 O 647.58 6.1181 0.188505 0
M  V30 4975 C 645.444 7.27966 -0.139777 0
M  V30 4976 N 644.401 6.39368 -0.623421 0
M  V30 4977 C 644.57 5.71761 -1.78245 0
M  V30 4978 N 643.543 4.962 -2.10491 0
M  V30 4979 C 642.658 5.16158 -1.0635 0
M  V30 4980 C 641.391 4.60425 -0.810266 0
M  V30 4981 N 640.826 5.06 0.348685 0
M  V30 4982 C 641.428 5.94532 1.20395 0
M  V30 4983 N 642.605 6.48452 1.01191 0
M  V30 4984 C 643.18 6.04423 -0.146291 0
M  V30 4985 H 646.659 6.32625 -1.65044 0
M  V30 4986 H 648.142 8.19355 -1.79097 0
M  V30 4987 H 646.448 10.1305 -1.09016 0
M  V30 4988 H 646.258 9.64276 -3.41316 0
M  V30 4989 H 644.628 9.25417 -2.76357 0
M  V30 4990 H 645.47 5.79354 -2.38959 0
M  V30 4991 H 647.268 6.25169 1.0783 0
M  V30 4992 P 649.125 8.791 4.45433e-12 0
M  V30 4993 O 650.547 9.31096 0.027933 0
M  V30 4994 O 648.765 7.77869 -1.04071 0
M  V30 4995 O 648.802 8.09533 1.41463 0
M  V30 4996 C 648.642 9.0349 2.53943 0
M  V30 4997 C 649.182 8.35226 3.79016 0
M  V30 4998 O 648.126 7.57992 4.15078 0
M  V30 4999 C 650.4 7.45087 3.67298 0
M  V30 5000 O 651.138 7.27796 4.85194 0
M  V30 5001 C 649.731 6.17323 3.12027 0
M  V30 5002 O 650.53 5.04231 3.47188 0
M  V30 5003 C 648.394 6.19961 3.81809 0
M  V30 5004 H 648.426 5.58218 4.73051 0
M  V30 5005 H 649.609 6.21726 2.02589 0
M  V30 5006 H 651.093 7.86112 2.9231 0
M  V30 5007 H 649.399 9.11627 4.55076 0
M  V30 5008 H 649.209 9.9573 2.34194 0
M  V30 5009 H 647.579 9.2792 2.67832 0
M  V30 5010 H 650.218 4.67702 4.28772 0
M  V30 5011 P 652.076 7.39546 4.75277 0
M  V30 5012 O 653.498 7.81777 5.05738 0
M  V30 5013 O 651.716 7.1065 3.32998 0
M  V30 5014 O 651.753 6.04542 5.56673 0
M  V30 5015 C 651.593 6.22772 7.02095 0
M  V30 5016 C 652.133 4.97725 7.70406 0
M  V30 5017 O 651.077 4.13256 7.58987 0
M  V30 5018 C 653.351 4.28231 7.11815 0
M  V30 5019 O 654.089 3.49945 8.01648 0
M  V30 5020 C 652.682 3.5063 5.96244 0
M  V30 5021 O 653.481 2.36482 5.64681 0
M  V30 5022 C 651.345 3.15122 6.56374 0
M  V30 5023 H 651.377 2.13853 6.99751 0
M  V30 5024 H 652.56 4.13501 5.06559 0
M  V30 5025 H 654.044 5.03285 6.70911 0
M  V30 5026 H 652.35 5.20877 8.75697 0
M  V30 5027 H 652.16 7.11046 7.35349 0
M  V30 5028 H 650.53 6.35815 7.26986 0
M  V30 5029 H 653.169 1.61644 6.13565 0
M  V30 5030 P 655.027 3.65191 7.99657 0
M  V30 5031 O 656.449 3.8425 8.48115 0
M  V30 5032 O 654.667 4.17805 6.64342 0
M  V30 5033 O 654.704 2.07613 7.95143 0
M  V30 5034 C 654.544 1.44328 9.27336 0
M  V30 5035 C 655.084 0.0220036 9.17197 0
M  V30 5036 O 654.028 -0.626867 8.61923 0
M  V30 5037 C 656.302 -0.24586 8.30336 0
M  V30 5038 O 657.04 -1.39011 8.63583 0
M  V30 5039 C 655.633 -0.273849 6.91158 0
M  V30 5040 O 656.432 -1.06348 6.02892 0
M  V30 5041 C 654.296 -0.897649 7.22545 0
M  V30 5042 H 654.328 -1.9841 7.04286 0
M  V30 5043 H 655.511 0.739928 6.497 0
M  V30 5044 H 656.995 0.60668 8.36503 0
M  V30 5045 H 655.301 -0.352479 10.1829 0
M  V30 5046 H 655.111 2.00611 10.0304 0
M  V30 5047 H 653.481 1.41843 9.55327 0
M  V30 5048 H 656.12 -1.95734 6.03555 0
M  V30 5049 P 657.977 -1.25109 8.70152 0
M  V30 5050 O 659.399 -1.35274 9.21221 0
M  V30 5051 O 657.617 -0.0769065 7.84762 0
M  V30 5052 O 657.654 -2.55232 7.81161 0
M  V30 5053 C 657.494 -3.79939 8.58154 0
M  V30 5054 C 658.034 -4.94023 7.72785 0
M  V30 5055 O 656.978 -5.18726 6.91205 0
M  V30 5056 C 659.252 -4.69597 6.85231 0
M  V30 5057 O 659.99 -5.83832 6.51337 0
M  V30 5058 C 658.583 -3.96706 5.66633 0
M  V30 5059 O 659.382 -4.15414 4.49689 0
M  V30 5060 C 657.246 -4.66153 5.59313 0
M  V30 5061 H 657.278 -5.47679 4.85214 0
M  V30 5062 H 658.461 -2.89008 5.86566 0
M  V30 5063 H 659.945 -4.0121 7.36511 0
M  V30 5064 H 658.251 -5.80182 8.37584 0
M  V30 5065 H 658.061 -3.73517 9.52265 0
M  V30 5066 H 656.431 -3.97163 8.80359 0
M  V30 5067 H 659.07 -4.90969 4.01921 0
M  V30 5068 P 660.928 -5.75688 6.64379 0
M  V30 5069 O 662.35 -6.11849 7.01846 0
M  V30 5070 O 660.568 -4.30744 6.56026 0
M  V30 5071 O 660.605 -6.37042 5.19165 0
M  V30 5072 C 660.445 -7.83578 5.16515 0
M  V30 5073 C 660.985 -8.33398 3.83019 0
M  V30 5074 O 659.929 -8.10074 3.01034 0
M  V30 5075 C 662.203 -7.65514 3.2257 0
M  V30 5076 O 662.941 -8.4329 2.32297 0
M  V30 5077 C 661.534 -6.40075 2.62207 0
M  V30 5078 O 662.333 -5.92589 1.53712 0
M  V30 5079 C 660.197 -6.9454 2.18503 0
M  V30 5080 H 660.229 -7.23063 1.12091 0
M  V30 5081 H 661.412 -5.6025 3.37201 0
M  V30 5082 H 662.896 -7.35707 4.02681 0
M  V30 5083 H 661.202 -9.40912 3.9095 0
M  V30 5084 H 661.012 -8.29056 5.99158 0
M  V30 5085 H 659.382 -8.10073 5.25882 0
M  V30 5086 H 662.021 -6.30324 0.726794 0
M  V30 5087 P 663.878 -8.4349 2.47671 0
M  V30 5088 O 665.3 -8.94167 2.5964 0
M  V30 5089 O 663.518 -7.1704 3.19006 0
M  V30 5090 O 663.555 -8.16596 0.923387 0
M  V30 5091 C 663.395 -9.38437 0.108857 0
M  V30 5092 C 663.935 -9.08175 -1.28353 0
M  V30 5093 O 662.879 -8.44229 -1.84713 0
M  V30 5094 C 665.153 -8.18386 -1.42505 0
M  V30 5095 O 665.891 -8.3501 -2.60497 0
M  V30 5096 C 664.484 -6.80225 -1.25468 0
M  V30 5097 O 665.283 -5.81621 -1.91066 0
M  V30 5098 C 663.147 -7.02416 -1.9168 0
M  V30 5099 H 663.179 -6.6888 -2.96621 0
M  V30 5100 H 664.362 -6.53617 -0.192223 0
M  V30 5101 H 665.846 -8.36622 -0.589963 0
M  V30 5102 H 664.152 -10.0291 -1.79807 0
M  V30 5103 H 663.962 -10.2138 0.558219 0
M  V30 5104 H 662.332 -9.6579 0.0444202 0
M  V30 5105 H 664.971 -5.69556 -2.79637 0
M  V30 5106 P 666.829 -8.4349 -2.47671 0
M  V30 5107 O 668.251 -8.92593 -2.65 0
M  V30 5108 O 666.469 -7.7568 -1.19296 0
M  V30 5109 O 666.506 -7.36886 -3.63805 0
M  V30 5110 C 666.346 -7.95349 -4.982 0
M  V30 5111 C 666.886 -6.94612 -5.98974 0
M  V30 5112 O 665.83 -6.10347 -6.11815 0
M  V30 5113 C 668.104 -6.11426 -5.62335 0
M  V30 5114 O 668.842 -5.6162 -6.70584 0
M  V30 5115 C 667.435 -5.04409 -4.73308 0
M  V30 5116 O 668.234 -3.85992 -4.75183 0
M  V30 5117 C 666.098 -4.8728 -5.41006 0
M  V30 5118 H 666.13 -4.02333 -6.11157 0
M  V30 5119 H 667.313 -5.39466 -3.69543 0
M  V30 5120 H 668.797 -6.71916 -5.01943 0
M  V30 5121 H 667.103 -7.4649 -6.93477 0
M  V30 5122 H 666.913 -8.89416 -5.05237 0
M  V30 5123 H 665.283 -8.14876 -5.18409 0
M  V30 5124 H 667.922 -3.27957 -5.4317 0
M  V30 5125 P 669.779 -5.75688 -6.64379 0
M  V30 5126 O 671.2 -6.07692 -7.0558 0
M  V30 5127 O 669.419 -5.88047 -5.19722 0
M  V30 5128 O 669.456 -4.2322 -7.04443 0
M  V30 5129 C 669.295 -3.99785 -8.49201 0
M  V30 5130 C 669.836 -2.60516 -8.79425 0
M  V30 5131 O 668.781 -1.82663 -8.44573 0
M  V30 5132 C 671.054 -2.10343 -8.03628 0
M  V30 5133 O 671.792 -1.09919 -8.67766 0
M  V30 5134 C 670.386 -1.68446 -6.70876 0
M  V30 5135 O 671.184 -0.684109 -6.08265 0
M  V30 5136 C 669.048 -1.17436 -7.18567 0
M  V30 5137 N 668.005 -1.52699 -6.23988 0
M  V30 5138 C 668.174 -2.578 -5.40574 0
M  V30 5139 N 667.147 -2.78966 -4.61193 0
M  V30 5140 C 666.262 -1.78725 -4.95769 0
M  V30 5141 C 664.995 -1.45727 -4.44207 0
M  V30 5142 N 664.396 -2.13994 -3.43613 0
M  V30 5143 N 664.43 -0.374977 -5.05812 0
M  V30 5144 C 665.032 0.345585 -6.05615 0
M  V30 5145 N 666.209 0.0787651 -6.56253 0
M  V30 5146 C 666.784 -1.00499 -5.96189 0
M  V30 5147 H 669.08 -0.0804622 -7.31556 0
M  V30 5148 H 670.263 -2.53396 -6.02698 0
M  V30 5149 H 671.746 -2.93881 -7.85526 0
M  V30 5150 H 670.052 -2.52078 -9.87225 0
M  V30 5151 H 669.862 -4.75072 -9.05887 0
M  V30 5152 H 668.232 -4.05244 -8.76668 0
M  V30 5153 H 664.496 1.20098 -6.4532 0
M  V30 5154 H 669.074 -3.18977 -5.3945 0
M  V30 5155 H 663.466 -1.84983 -3.10004 0
M  V30 5156 H 664.87 -2.9465 -3.00843 0
M  V30 5157 H 670.872 0.177619 -6.34151 0
M  V30 5158 P 672.73 -1.25109 -8.70152 0
M  V30 5159 O 674.152 -1.29744 -9.22016 0
M  V30 5160 O 672.37 -2.13714 -7.55141 0
M  V30 5161 O 672.407 0.248149 -8.21425 0
M  V30 5162 C 672.247 1.22779 -9.30434 0
M  V30 5163 C 672.787 2.56293 -8.80664 0
M  V30 5164 O 671.731 3.02979 -8.09349 0
M  V30 5165 C 674.005 2.57523 -7.89775 0
M  V30 5166 O 674.743 3.7668 -7.89438 0
M  V30 5167 C 673.336 2.20997 -6.55446 0
M  V30 5168 O 674.135 2.71895 -5.48509 0
M  V30 5169 C 671.999 2.89693 -6.67988 0
M  V30 5170 H 672.031 3.88793 -6.19859 0
M  V30 5171 H 673.214 1.12046 -6.44229 0
M  V30 5172 H 674.698 1.7746 -8.19711 0
M  V30 5173 H 673.004 3.20706 -9.67112 0
M  V30 5174 H 672.814 0.901032 -10.1892 0
M  V30 5175 H 671.184 1.33049 -9.56592 0
M  V30 5176 H 673.823 3.57847 -5.23962 0
M  V30 5177 P 675.681 3.65191 -7.99657 0
M  V30 5178 O 677.103 3.89332 -8.45794 0
M  V30 5179 O 675.321 2.28472 -7.50807 0
M  V30 5180 O 675.358 4.64972 -6.77611 0
M  V30 5181 C 675.198 6.06319 -7.16352 0
M  V30 5182 C 675.738 6.91731 -6.02299 0
M  V30 5183 O 674.682 6.92449 -5.17064 0
M  V30 5184 C 676.956 6.43627 -5.25174 0
M  V30 5185 O 677.694 7.43686 -4.60469 0
M  V30 5186 C 676.287 5.40275 -4.31916 0
M  V30 5187 O 677.086 5.25279 -3.14438 0
M  V30 5188 C 674.95 6.04847 -4.05327 0
M  V30 5189 H 674.982 6.62195 -3.11261 0
M  V30 5190 H 676.165 4.42556 -4.81383 0
M  V30 5191 H 677.649 5.92458 -5.93643 0
M  V30 5192 H 675.955 7.92655 -6.402 0
M  V30 5193 H 675.765 6.26671 -8.0846 0
M  V30 5194 H 674.135 6.29101 -7.32804 0
M  V30 5195 H 676.774 5.84315 -2.47318 0
M  V30 5196 P 678.631 7.39546 -4.75277 0
M  V30 5197 O 680.053 7.84798 -5.01039 0
M  V30 5198 O 678.271 5.9812 -5.08098 0
M  V30 5199 O 678.308 7.57503 -3.1866 0
M  V30 5200 C 678.148 8.97357 -2.74833 0
M  V30 5201 C 678.688 9.07548 -1.32709 0
M  V30 5202 O 677.632 8.62072 -0.606159 0
M  V30 5203 C 679.906 8.25383 -0.938334 0
M  V30 5204 O 680.644 8.74577 0.146954 0
M  V30 5205 C 679.237 6.8802 -0.712559 0
M  V30 5206 O 680.036 6.1189 0.194655 0
M  V30 5207 C 677.9 7.27966 -0.139777 0
M  V30 5208 H 677.932 7.25354 0.961601 0
M  V30 5209 H 679.115 6.32557 -1.65702 0
M  V30 5210 H 680.599 8.19355 -1.79097 0
M  V30 5211 H 678.905 10.1294 -1.10029 0
M  V30 5212 H 678.715 9.64276 -3.41316 0
M  V30 5213 H 677.085 9.25417 -2.76357 0
M  V30 5214 H 679.724 6.25267 1.07847 0
M  V30 5215 P 681.582 8.791 4.7645e-12 0
M  V30 5216 O 683.004 9.31096 0.027933 0
M  V30 5217 O 681.222 7.77869 -1.04071 0
M  V30 5218 O 681.259 8.09533 1.41463 0
M  V30 5219 C 681.099 9.0349 2.53943 0
M  V30 5220 C 681.639 8.35226 3.79016 0
M  V30 5221 O 680.583 7.57992 4.15078 0
M  V30 5222 C 682.857 7.45087 3.67298 0
M  V30 5223 O 683.595 7.27796 4.85194 0
M  V30 5224 C 682.188 6.17323 3.12027 0
M  V30 5225 O 682.987 5.04231 3.47188 0
M  V30 5226 C 680.851 6.19961 3.81809 0
M  V30 5227 H 680.883 5.58218 4.73051 0
M  V30 5228 H 682.066 6.21726 2.02589 0
M  V30 5229 H 683.55 7.86112 2.9231 0
M  V30 5230 H 681.856 9.11627 4.55076 0
M  V30 5231 H 681.666 9.9573 2.34194 0
M  V30 5232 H 680.036 9.2792 2.67832 0
M  V30 5233 H 682.675 4.67702 4.28772 0
M  V30 5234 P 684.532 7.39546 4.75277 0
M  V30 5235 O 685.954 7.81777 5.05738 0
M  V30 5236 O 684.172 7.1065 3.32998 0
M  V30 5237 O 684.209 6.04542 5.56673 0
M  V30 5238 C 684.049 6.22772 7.02095 0
M  V30 5239 C 684.589 4.97725 7.70406 0
M  V30 5240 O 683.533 4.13256 7.58987 0
M  V30 5241 C 685.807 4.28231 7.11815 0
M  V30 5242 O 686.545 3.49945 8.01648 0
M  V30 5243 C 685.138 3.5063 5.96244 0
M  V30 5244 O 685.937 2.36482 5.64681 0
M  V30 5245 C 683.801 3.15122 6.56374 0
M  V30 5246 H 683.833 2.13853 6.99751 0
M  V30 5247 H 685.016 4.13501 5.06559 0
M  V30 5248 H 686.5 5.03285 6.70911 0
M  V30 5249 H 684.806 5.20877 8.75697 0
M  V30 5250 H 684.616 7.11046 7.35349 0
M  V30 5251 H 682.986 6.35815 7.26986 0
M  V30 5252 H 685.625 1.61644 6.13565 0
M  V30 5253 P 687.483 3.65191 7.99657 0
M  V30 5254 O 688.904 3.84292 8.48206 0
M  V30 5255 O 687.123 4.17805 6.64342 0
M  V30 5256 O 687.16 2.07613 7.95143 0
M  V30 5257 C 686.999 1.44344 9.27435 0
M  V30 5258 C 687.54 0.0220036 9.17197 0
M  V30 5259 O 686.485 -0.626794 8.61824 0
M  V30 5260 C 688.758 -0.24586 8.30336 0
M  V30 5261 O 689.496 -1.39011 8.63583 0
M  V30 5262 C 688.09 -0.273849 6.91158 0
M  V30 5263 O 688.888 -1.05728 6.029 0
M  V30 5264 C 686.752 -0.897649 7.22545 0
M  V30 5265 N 685.709 -0.292839 6.41732 0
M  V30 5266 C 685.878 0.950603 5.91308 0
M  V30 5267 N 684.851 1.37732 5.21105 0
M  V30 5268 C 683.966 0.318109 5.26039 0
M  V30 5269 C 682.699 0.146766 4.6727 0
M  V30 5270 N 682.1 1.08519 3.89983 0
M  V30 5271 N 682.134 -1.06525 4.95887 0
M  V30 5272 C 682.736 -2.0378 5.71347 0
M  V30 5273 N 683.913 -1.92445 6.27451 0
M  V30 5274 C 684.488 -0.715382 6.00353 0
M  V30 5275 H 686.784 -1.98383 7.04189 0
M  V30 5276 H 687.967 0.733318 6.49674 0
M  V30 5277 H 689.45 0.60668 8.36503 0
M  V30 5278 H 687.756 -0.362662 10.1825 0
M  V30 5279 H 687.566 2.00611 10.0304 0
M  V30 5280 H 685.936 1.41843 9.55327 0
M  V30 5281 H 682.2 -2.97041 5.85344 0
M  V30 5282 H 686.778 1.54076 6.07465 0
M  V30 5283 H 681.17 0.901517 3.49562 0
M  V30 5284 H 682.574 1.97957 3.71669 0
M  V30 5285 H 688.576 -1.95704 6.0346 0
M  V30 5286 P 690.433 -1.25109 8.70152 0
M  V30 5287 O 691.854 -1.35288 9.2132 0
M  V30 5288 O 690.073 -0.0769065 7.84762 0
M  V30 5289 O 690.11 -2.55232 7.81161 0
M  V30 5290 C 689.949 -3.79979 8.58246 0
M  V30 5291 C 690.49 -4.94023 7.72785 0
M  V30 5292 O 689.435 -5.18666 6.91125 0
M  V30 5293 C 691.708 -4.69597 6.85231 0
M  V30 5294 O 692.446 -5.83832 6.51337 0
M  V30 5295 C 691.04 -3.96706 5.66633 0
M  V30 5296 O 691.838 -4.14896 4.5003 0
M  V30 5297 C 689.702 -4.66153 5.59313 0
M  V30 5298 N 688.659 -3.71582 5.24027 0
M  V30 5299 C 688.828 -2.39715 5.48833 0
M  V30 5300 N 687.801 -1.65863 5.12845 0
M  V30 5301 C 686.916 -2.57637 4.5973 0
M  V30 5302 C 685.649 -2.40278 4.01027 0
M  V30 5303 N 685.084 -3.57711 3.59575 0
M  V30 5304 C 685.686 -4.80324 3.70476 0
M  V30 5305 N 686.863 -5.01121 4.23801 0
M  V30 5306 C 687.438 -3.84757 4.66372 0
M  V30 5307 H 690.917 -2.8955 5.86187 0
M  V30 5308 H 692.4 -4.0121 7.36511 0
M  V30 5309 H 690.706 -5.81019 8.37003 0
M  V30 5310 H 690.516 -3.73517 9.52265 0
M  V30 5311 H 688.886 -3.97163 8.80359 0
M  V30 5312 H 689.728 -1.98804 5.94332 0
M  V30 5313 H 691.526 -4.90891 4.01857 0
M  V30 5314 P 693.384 -5.75688 6.64379 0
M  V30 5315 O 694.806 -6.11849 7.01846 0
M  V30 5316 O 693.024 -4.30744 6.56026 0
M  V30 5317 O 693.061 -6.37042 5.19165 0
M  V30 5318 C 692.901 -7.83578 5.16515 0
M  V30 5319 C 693.441 -8.33398 3.83019 0
M  V30 5320 O 692.385 -8.10074 3.01034 0
M  V30 5321 C 694.659 -7.65514 3.2257 0
M  V30 5322 O 695.397 -8.4329 2.32297 0
M  V30 5323 C 693.99 -6.40075 2.62207 0
M  V30 5324 O 694.789 -5.92589 1.53712 0
M  V30 5325 C 692.653 -6.9454 2.18503 0
M  V30 5326 H 692.685 -7.23063 1.12091 0
M  V30 5327 H 693.868 -5.6025 3.37201 0
M  V30 5328 H 695.352 -7.35707 4.02681 0
M  V30 5329 H 693.658 -9.40912 3.9095 0
M  V30 5330 H 693.468 -8.29056 5.99158 0
M  V30 5331 H 691.838 -8.10073 5.25882 0
M  V30 5332 H 694.477 -6.30324 0.726794 0
M  V30 5333 P 696.335 -8.4349 2.47671 0
M  V30 5334 O 697.757 -8.94167 2.5964 0
M  V30 5335 O 695.975 -7.1704 3.19006 0
M  V30 5336 O 696.012 -8.16596 0.923387 0
M  V30 5337 C 695.852 -9.38437 0.108857 0
M  V30 5338 C 696.392 -9.08175 -1.28353 0
M  V30 5339 O 695.336 -8.44229 -1.84713 0
M  V30 5340 C 697.61 -8.18386 -1.42505 0
M  V30 5341 O 698.348 -8.3501 -2.60497 0
M  V30 5342 C 696.941 -6.80225 -1.25468 0
M  V30 5343 O 697.74 -5.81621 -1.91066 0
M  V30 5344 C 695.604 -7.02416 -1.9168 0
M  V30 5345 H 695.636 -6.6888 -2.96621 0
M  V30 5346 H 696.819 -6.53617 -0.192223 0
M  V30 5347 H 698.303 -8.36622 -0.589963 0
M  V30 5348 H 696.609 -10.0291 -1.79807 0
M  V30 5349 H 696.419 -10.2138 0.558219 0
M  V30 5350 H 694.789 -9.6579 0.0444202 0
M  V30 5351 H 697.428 -5.69556 -2.79637 0
M  V30 5352 P 699.285 -8.4349 -2.47671 0
M  V30 5353 O 700.706 -8.92689 -2.65029 0
M  V30 5354 O 698.925 -7.7568 -1.19296 0
M  V30 5355 O 698.962 -7.36886 -3.63805 0
M  V30 5356 C 698.801 -7.95433 -4.98253 0
M  V30 5357 C 699.342 -6.94612 -5.98974 0
M  V30 5358 O 698.287 -6.10277 -6.11744 0
M  V30 5359 C 700.56 -6.11426 -5.62335 0
M  V30 5360 O 701.298 -5.6162 -6.70584 0
M  V30 5361 C 699.892 -5.04409 -4.73308 0
M  V30 5362 O 700.69 -3.86404 -4.74719 0
M  V30 5363 C 698.554 -4.8728 -5.41006 0
M  V30 5364 N 697.511 -4.65812 -4.42377 0
M  V30 5365 C 697.68 -5.09132 -3.15382 0
M  V30 5366 N 696.653 -4.84021 -2.3716 0
M  V30 5367 C 695.768 -4.18386 -3.20441 0
M  V30 5368 C 694.501 -3.6275 -2.94905 0
M  V30 5369 N 693.902 -3.65794 -1.73372 0
M  V30 5370 N 693.936 -3.05008 -4.05243 0
M  V30 5371 C 694.538 -2.98348 -5.28159 0
M  V30 5372 N 695.715 -3.48171 -5.56333 0
M  V30 5373 C 696.29 -4.06869 -4.47212 0
M  V30 5374 H 698.586 -4.02278 -6.11074 0
M  V30 5375 H 699.769 -5.39013 -3.70026 0
M  V30 5376 H 701.252 -6.71916 -5.01943 0
M  V30 5377 H 699.558 -7.45796 -6.94223 0
M  V30 5378 H 699.368 -8.89416 -5.05237 0
M  V30 5379 H 697.738 -8.14876 -5.18409 0
M  V30 5380 H 694.002 -2.47853 -6.07807 0
M  V30 5381 H 698.58 -5.59989 -2.81362 0
M  V30 5382 H 692.972 -3.23218 -1.60782 0
M  V30 5383 H 694.376 -4.10523 -0.937856 0
M  V30 5384 H 700.378 -3.27906 -5.43085 0
M  V30 5385 P 702.236 -5.75688 -6.64379 0
M  V30 5386 O 703.658 -6.07627 -7.05504 0
M  V30 5387 O 701.876 -5.88047 -5.19722 0
M  V30 5388 O 701.913 -4.2322 -7.04443 0
M  V30 5389 C 701.753 -3.99743 -8.4911 0
M  V30 5390 C 702.293 -2.60516 -8.79425 0
M  V30 5391 O 701.237 -1.82684 -8.4467 0
M  V30 5392 C 703.511 -2.10343 -8.03628 0
M  V30 5393 O 704.249 -1.09919 -8.67766 0
M  V30 5394 C 702.842 -1.68446 -6.70876 0
M  V30 5395 O 703.641 -0.678137 -6.08433 0
M  V30 5396 C 701.505 -1.17436 -7.18567 0
M  V30 5397 H 701.537 -0.0804732 -7.31656 0
M  V30 5398 H 702.72 -2.54037 -6.02537 0
M  V30 5399 H 704.204 -2.93881 -7.85526 0
M  V30 5400 H 702.51 -2.53065 -9.86973 0
M  V30 5401 H 702.32 -4.75072 -9.05887 0
M  V30 5402 H 700.69 -4.05244 -8.76668 0
M  V30 5403 H 703.329 0.177647 -6.34251 0
M  V30 5404 P 705.186 -1.25109 -8.70152 0
M  V30 5405 O 706.608 -1.29744 -9.22016 0
M  V30 5406 O 704.826 -2.13714 -7.55141 0
M  V30 5407 O 704.863 0.248149 -8.21425 0
M  V30 5408 C 704.703 1.22779 -9.30434 0
M  V30 5409 C 705.243 2.56293 -8.80664 0
M  V30 5410 O 704.187 3.02979 -8.09349 0
M  V30 5411 C 706.461 2.57523 -7.89775 0
M  V30 5412 O 707.199 3.7668 -7.89438 0
M  V30 5413 C 705.792 2.20997 -6.55446 0
M  V30 5414 O 706.591 2.71895 -5.48509 0
M  V30 5415 C 704.455 2.89693 -6.67988 0
M  V30 5416 H 704.487 3.88793 -6.19859 0
M  V30 5417 H 705.67 1.12046 -6.44229 0
M  V30 5418 H 707.154 1.7746 -8.19711 0
M  V30 5419 H 705.46 3.20706 -9.67112 0
M  V30 5420 H 705.27 0.901032 -10.1892 0
M  V30 5421 H 703.64 1.33049 -9.56592 0
M  V30 5422 H 706.279 3.57847 -5.23962 0
M  V30 5423 P 708.137 3.65191 -7.99657 0
M  V30 5424 O 709.559 3.89332 -8.45794 0
M  V30 5425 O 707.777 2.28472 -7.50807 0
M  V30 5426 O 707.814 4.64972 -6.77611 0
M  V30 5427 C 707.654 6.06319 -7.16352 0
M  V30 5428 C 708.194 6.91731 -6.02299 0
M  V30 5429 O 707.138 6.92449 -5.17064 0
M  V30 5430 C 709.412 6.43627 -5.25174 0
M  V30 5431 O 710.15 7.43686 -4.60469 0
M  V30 5432 C 708.743 5.40275 -4.31916 0
M  V30 5433 O 709.542 5.25279 -3.14438 0
M  V30 5434 C 707.406 6.04847 -4.05327 0
M  V30 5435 H 707.438 6.62195 -3.11261 0
M  V30 5436 H 708.621 4.42556 -4.81383 0
M  V30 5437 H 710.105 5.92458 -5.93643 0
M  V30 5438 H 708.411 7.92655 -6.402 0
M  V30 5439 H 708.221 6.26671 -8.0846 0
M  V30 5440 H 706.591 6.29101 -7.32804 0
M  V30 5441 H 709.23 5.84315 -2.47318 0
M  V30 5442 P 711.087 7.39546 -4.75277 0
M  V30 5443 O 712.509 7.84798 -5.01039 0
M  V30 5444 O 710.727 5.9812 -5.08098 0
M  V30 5445 O 710.764 7.57503 -3.1866 0
M  V30 5446 C 710.604 8.97357 -2.74833 0
M  V30 5447 C 711.144 9.07548 -1.32709 0
M  V30 5448 O 710.088 8.62072 -0.606159 0
M  V30 5449 C 712.362 8.25383 -0.938334 0
M  V30 5450 O 713.1 8.74577 0.146954 0
M  V30 5451 C 711.693 6.8802 -0.712559 0
M  V30 5452 O 712.492 6.1189 0.194655 0
M  V30 5453 C 710.356 7.27966 -0.139777 0
M  V30 5454 H 710.388 7.25354 0.961601 0
M  V30 5455 H 711.571 6.32557 -1.65702 0
M  V30 5456 H 713.055 8.19355 -1.79097 0
M  V30 5457 H 711.361 10.1294 -1.10029 0
M  V30 5458 H 711.171 9.64276 -3.41316 0
M  V30 5459 H 709.541 9.25417 -2.76357 0
M  V30 5460 H 712.18 6.25267 1.07847 0
M  V30 5461 P 714.038 8.791 5.07466e-12 0
M  V30 5462 O 715.46 9.31096 0.027933 0
M  V30 5463 O 713.678 7.77869 -1.04071 0
M  V30 5464 O 713.715 8.09533 1.41463 0
M  V30 5465 C 713.555 9.0349 2.53943 0
M  V30 5466 C 714.095 8.35226 3.79016 0
M  V30 5467 O 713.039 7.57992 4.15078 0
M  V30 5468 C 715.313 7.45087 3.67298 0
M  V30 5469 O 716.051 7.27796 4.85194 0
M  V30 5470 C 714.644 6.17323 3.12027 0
M  V30 5471 O 715.443 5.04231 3.47188 0
M  V30 5472 C 713.307 6.19961 3.81809 0
M  V30 5473 H 713.339 5.58218 4.73051 0
M  V30 5474 H 714.522 6.21726 2.02589 0
M  V30 5475 H 716.006 7.86112 2.9231 0
M  V30 5476 H 714.312 9.11627 4.55076 0
M  V30 5477 H 714.122 9.9573 2.34194 0
M  V30 5478 H 712.492 9.2792 2.67832 0
M  V30 5479 H 715.131 4.67702 4.28772 0
M  V30 5480 P 716.989 7.39546 4.75277 0
M  V30 5481 O 718.411 7.81777 5.05738 0
M  V30 5482 O 716.629 7.1065 3.32998 0
M  V30 5483 O 716.666 6.04542 5.56673 0
M  V30 5484 C 716.506 6.22772 7.02095 0
M  V30 5485 C 717.046 4.97725 7.70406 0
M  V30 5486 O 715.99 4.13256 7.58987 0
M  V30 5487 C 718.264 4.28231 7.11815 0
M  V30 5488 O 719.002 3.49945 8.01648 0
M  V30 5489 C 717.595 3.5063 5.96244 0
M  V30 5490 O 718.394 2.36482 5.64681 0
M  V30 5491 C 716.258 3.15122 6.56374 0
M  V30 5492 H 716.29 2.13853 6.99751 0
M  V30 5493 H 717.473 4.13501 5.06559 0
M  V30 5494 H 718.957 5.03285 6.70911 0
M  V30 5495 H 717.263 5.20877 8.75697 0
M  V30 5496 H 717.073 7.11046 7.35349 0
M  V30 5497 H 715.443 6.35815 7.26986 0
M  V30 5498 H 718.082 1.61644 6.13565 0
M  V30 5499 P 719.939 3.65191 7.99657 0
M  V30 5500 O 721.36 3.84292 8.48206 0
M  V30 5501 O 719.579 4.17805 6.64342 0
M  V30 5502 O 719.616 2.07613 7.95143 0
M  V30 5503 C 719.455 1.44344 9.27435 0
M  V30 5504 C 719.996 0.0220036 9.17197 0
M  V30 5505 O 718.941 -0.626794 8.61824 0
M  V30 5506 C 721.214 -0.24586 8.30336 0
M  V30 5507 O 721.952 -1.39011 8.63583 0
M  V30 5508 C 720.546 -0.273849 6.91158 0
M  V30 5509 O 721.344 -1.05728 6.029 0
M  V30 5510 C 719.208 -0.897649 7.22545 0
M  V30 5511 N 718.165 -0.292839 6.41732 0
M  V30 5512 C 718.334 0.950603 5.91308 0
M  V30 5513 N 717.307 1.37732 5.21105 0
M  V30 5514 C 716.422 0.318109 5.26039 0
M  V30 5515 C 715.155 0.146766 4.6727 0
M  V30 5516 N 714.556 1.08519 3.89983 0
M  V30 5517 N 714.59 -1.06525 4.95887 0
M  V30 5518 C 715.192 -2.0378 5.71347 0
M  V30 5519 N 716.369 -1.92445 6.27451 0
M  V30 5520 C 716.944 -0.715382 6.00353 0
M  V30 5521 H 719.24 -1.98383 7.04189 0
M  V30 5522 H 720.423 0.733318 6.49674 0
M  V30 5523 H 721.906 0.60668 8.36503 0
M  V30 5524 H 720.212 -0.362662 10.1825 0
M  V30 5525 H 720.022 2.00611 10.0304 0
M  V30 5526 H 718.392 1.41843 9.55327 0
M  V30 5527 H 714.656 -2.97041 5.85344 0
M  V30 5528 H 719.234 1.54076 6.07465 0
M  V30 5529 H 713.626 0.901517 3.49562 0
M  V30 5530 H 715.03 1.97957 3.71669 0
M  V30 5531 H 721.032 -1.95704 6.0346 0
M  V30 5532 P 722.89 -1.25109 8.70152 0
M  V30 5533 O 724.312 -1.35274 9.21221 0
M  V30 5534 O 722.53 -0.0769065 7.84762 0
M  V30 5535 O 722.567 -2.55232 7.81161 0
M  V30 5536 C 722.407 -3.79939 8.58154 0
M  V30 5537 C 722.947 -4.94023 7.72785 0
M  V30 5538 O 721.891 -5.18726 6.91205 0
M  V30 5539 C 724.165 -4.69597 6.85231 0
M  V30 5540 O 724.903 -5.83832 6.51337 0
M  V30 5541 C 723.496 -3.96706 5.66633 0
M  V30 5542 O 724.295 -4.15414 4.49689 0
M  V30 5543 C 722.159 -4.66153 5.59313 0
M  V30 5544 H 722.191 -5.47679 4.85214 0
M  V30 5545 H 723.374 -2.89008 5.86566 0
M  V30 5546 H 724.858 -4.0121 7.36511 0
M  V30 5547 H 723.164 -5.80182 8.37584 0
M  V30 5548 H 722.974 -3.73517 9.52265 0
M  V30 5549 H 721.344 -3.97163 8.80359 0
M  V30 5550 H 723.983 -4.90969 4.01921 0
M  V30 5551 P 725.84 -5.75688 6.64379 0
M  V30 5552 O 727.262 -6.11849 7.01846 0
M  V30 5553 O 725.48 -4.30744 6.56026 0
M  V30 5554 O 725.517 -6.37042 5.19165 0
M  V30 5555 C 725.357 -7.83578 5.16515 0
M  V30 5556 C 725.897 -8.33398 3.83019 0
M  V30 5557 O 724.841 -8.10074 3.01034 0
M  V30 5558 C 727.115 -7.65514 3.2257 0
M  V30 5559 O 727.853 -8.4329 2.32297 0
M  V30 5560 C 726.446 -6.40075 2.62207 0
M  V30 5561 O 727.245 -5.92589 1.53712 0
M  V30 5562 C 725.109 -6.9454 2.18503 0
M  V30 5563 H 725.141 -7.23063 1.12091 0
M  V30 5564 H 726.324 -5.6025 3.37201 0
M  V30 5565 H 727.808 -7.35707 4.02681 0
M  V30 5566 H 726.114 -9.40912 3.9095 0
M  V30 5567 H 725.924 -8.29056 5.99158 0
M  V30 5568 H 724.294 -8.10073 5.25882 0
M  V30 5569 H 726.933 -6.30324 0.726794 0
M  V30 5570 P 728.791 -8.4349 2.47671 0
M  V30 5571 O 730.213 -8.94167 2.5964 0
M  V30 5572 O 728.431 -7.1704 3.19006 0
M  V30 5573 O 728.468 -8.16596 0.923387 0
M  V30 5574 C 728.308 -9.38437 0.108857 0
M  V30 5575 C 728.848 -9.08175 -1.28353 0
M  V30 5576 O 727.792 -8.44229 -1.84713 0
M  V30 5577 C 730.066 -8.18386 -1.42505 0
M  V30 5578 O 730.804 -8.3501 -2.60497 0
M  V30 5579 C 729.397 -6.80225 -1.25468 0
M  V30 5580 O 730.196 -5.81621 -1.91066 0
M  V30 5581 C 728.06 -7.02416 -1.9168 0
M  V30 5582 H 728.092 -6.6888 -2.96621 0
M  V30 5583 H 729.275 -6.53617 -0.192223 0
M  V30 5584 H 730.759 -8.36622 -0.589963 0
M  V30 5585 H 729.065 -10.0291 -1.79807 0
M  V30 5586 H 728.875 -10.2138 0.558219 0
M  V30 5587 H 727.245 -9.6579 0.0444202 0
M  V30 5588 H 729.884 -5.69556 -2.79637 0
M  V30 5589 P 731.741 -8.4349 -2.47671 0
M  V30 5590 O 733.163 -8.92593 -2.65 0
M  V30 5591 O 731.381 -7.7568 -1.19296 0
M  V30 5592 O 731.418 -7.36886 -3.63805 0
M  V30 5593 C 731.258 -7.95349 -4.982 0
M  V30 5594 C 731.798 -6.94612 -5.98974 0
M  V30 5595 O 730.742 -6.10347 -6.11815 0
M  V30 5596 C 733.016 -6.11426 -5.62335 0
M  V30 5597 O 733.754 -5.6162 -6.70584 0
M  V30 5598 C 732.347 -5.04409 -4.73308 0
M  V30 5599 O 733.146 -3.85992 -4.75183 0
M  V30 5600 C 731.01 -4.8728 -5.41006 0
M  V30 5601 H 731.042 -4.02333 -6.11157 0
M  V30 5602 H 732.225 -5.39466 -3.69543 0
M  V30 5603 H 733.709 -6.71916 -5.01943 0
M  V30 5604 H 732.015 -7.4649 -6.93477 0
M  V30 5605 H 731.825 -8.89416 -5.05237 0
M  V30 5606 H 730.195 -8.14876 -5.18409 0
M  V30 5607 H 732.834 -3.27957 -5.4317 0
M  V30 5608 P 734.692 -5.75688 -6.64379 0
M  V30 5609 O 736.114 -6.07627 -7.05504 0
M  V30 5610 O 734.332 -5.88047 -5.19722 0
M  V30 5611 O 734.369 -4.2322 -7.04443 0
M  V30 5612 C 734.209 -3.99743 -8.4911 0
M  V30 5613 C 734.749 -2.60516 -8.79425 0
M  V30 5614 O 733.693 -1.82684 -8.4467 0
M  V30 5615 C 735.967 -2.10343 -8.03628 0
M  V30 5616 O 736.705 -1.09919 -8.67766 0
M  V30 5617 C 735.298 -1.68446 -6.70876 0
M  V30 5618 O 736.097 -0.678137 -6.08433 0
M  V30 5619 C 733.961 -1.17436 -7.18567 0
M  V30 5620 H 733.993 -0.0804732 -7.31656 0
M  V30 5621 H 735.176 -2.54037 -6.02537 0
M  V30 5622 H 736.66 -2.93881 -7.85526 0
M  V30 5623 H 734.966 -2.53065 -9.86973 0
M  V30 5624 H 734.776 -4.75072 -9.05887 0
M  V30 5625 H 733.146 -4.05244 -8.76668 0
M  V30 5626 H 735.785 0.177647 -6.34251 0
M  V30 5627 P 737.643 -1.25109 -8.70152 0
M  V30 5628 O 739.065 -1.29744 -9.22016 0
M  V30 5629 O 737.283 -2.13714 -7.55141 0
M  V30 5630 O 737.32 0.248149 -8.21425 0
M  V30 5631 C 737.16 1.22779 -9.30434 0
M  V30 5632 C 737.7 2.56293 -8.80664 0
M  V30 5633 O 736.644 3.02979 -8.09349 0
M  V30 5634 C 738.918 2.57523 -7.89775 0
M  V30 5635 O 739.656 3.7668 -7.89438 0
M  V30 5636 C 738.249 2.20997 -6.55446 0
M  V30 5637 O 739.048 2.71895 -5.48509 0
M  V30 5638 C 736.912 2.89693 -6.67988 0
M  V30 5639 H 736.944 3.88793 -6.19859 0
M  V30 5640 H 738.127 1.12046 -6.44229 0
M  V30 5641 H 739.611 1.7746 -8.19711 0
M  V30 5642 H 737.917 3.20706 -9.67112 0
M  V30 5643 H 737.726 0.901032 -10.1892 0
M  V30 5644 H 736.096 1.33049 -9.56592 0
M  V30 5645 H 738.736 3.57847 -5.23962 0
M  V30 5646 P 740.593 3.65191 -7.99657 0
M  V30 5647 O 742.015 3.89332 -8.45794 0
M  V30 5648 O 740.233 2.28472 -7.50807 0
M  V30 5649 O 740.27 4.64972 -6.77611 0
M  V30 5650 C 740.11 6.06319 -7.16352 0
M  V30 5651 C 740.65 6.91731 -6.02299 0
M  V30 5652 O 739.594 6.92449 -5.17064 0
M  V30 5653 C 741.868 6.43627 -5.25174 0
M  V30 5654 O 742.606 7.43686 -4.60469 0
M  V30 5655 C 741.199 5.40275 -4.31916 0
M  V30 5656 O 741.998 5.25279 -3.14438 0
M  V30 5657 C 739.862 6.04847 -4.05327 0
M  V30 5658 H 739.894 6.62195 -3.11261 0
M  V30 5659 H 741.077 4.42556 -4.81383 0
M  V30 5660 H 742.561 5.92458 -5.93643 0
M  V30 5661 H 740.867 7.92655 -6.402 0
M  V30 5662 H 740.677 6.26671 -8.0846 0
M  V30 5663 H 739.047 6.29101 -7.32804 0
M  V30 5664 H 741.686 5.84315 -2.47318 0
M  V30 5665 P 743.544 7.39546 -4.75277 0
M  V30 5666 O 744.966 7.84966 -5.01146 0
M  V30 5667 O 743.184 5.9812 -5.08098 0
M  V30 5668 O 743.221 7.57503 -3.1866 0
M  V30 5669 C 743.061 8.97357 -2.74833 0
M  V30 5670 C 743.601 9.0745 -1.32694 0
M  V30 5671 O 742.546 8.62072 -0.606159 0
M  V30 5672 C 744.819 8.25383 -0.938334 0
M  V30 5673 O 745.557 8.74577 0.146954 0
M  V30 5674 C 744.151 6.8802 -0.712559 0
M  V30 5675 O 744.949 6.11791 0.194623 0
M  V30 5676 C 742.813 7.27966 -0.139777 0
M  V30 5677 N 741.77 6.39368 -0.623421 0
M  V30 5678 C 741.832 5.90299 -1.85969 0
M  V30 5679 N 740.787 5.10919 -2.1133 0
M  V30 5680 C 740.053 5.14646 -1.0015 0
M  V30 5681 C 738.747 4.60057 -0.729219 0
M  V30 5682 O 738.014 3.93476 -1.47746 0
M  V30 5683 N 738.317 4.88302 0.523505 0
M  V30 5684 C 739.066 5.63646 1.46207 0
M  V30 5685 N 738.469 5.78186 2.69239 0
M  V30 5686 N 740.219 6.19285 1.21544 0
M  V30 5687 C 740.676 5.93392 -0.0308487 0
M  V30 5688 H 742.845 7.25354 0.961601 0
M  V30 5689 H 744.028 6.3246 -1.65676 0
M  V30 5690 H 745.513 8.19533 -1.78278 0
M  V30 5691 H 743.818 10.1294 -1.10029 0
M  V30 5692 H 743.628 9.64276 -3.41316 0
M  V30 5693 H 741.997 9.25417 -2.76357 0
M  V30 5694 H 737.421 4.53993 0.806451 0
M  V30 5695 H 742.628 6.11865 -2.57394 0
M  V30 5696 H 737.558 5.34046 2.87467 0
M  V30 5697 H 738.934 6.33391 3.42578 0
M  V30 5698 H 744.638 6.25169 1.0783 0
M  V30 5699 P 746.494 8.791 5.38483e-12 0
M  V30 5700 O 747.916 9.31096 0.027933 0
M  V30 5701 O 746.134 7.77869 -1.04071 0
M  V30 5702 O 746.171 8.09533 1.41463 0
M  V30 5703 C 746.011 9.0349 2.53943 0
M  V30 5704 C 746.551 8.35226 3.79016 0
M  V30 5705 O 745.495 7.57992 4.15078 0
M  V30 5706 C 747.769 7.45087 3.67298 0
M  V30 5707 O 748.507 7.27796 4.85194 0
M  V30 5708 C 747.1 6.17323 3.12027 0
M  V30 5709 O 747.899 5.04231 3.47188 0
M  V30 5710 C 745.763 6.19961 3.81809 0
M  V30 5711 H 745.795 5.58218 4.73051 0
M  V30 5712 H 746.978 6.21726 2.02589 0
M  V30 5713 H 748.462 7.86112 2.9231 0
M  V30 5714 H 746.768 9.11627 4.55076 0
M  V30 5715 H 746.578 9.9573 2.34194 0
M  V30 5716 H 744.948 9.2792 2.67832 0
M  V30 5717 H 747.587 4.67702 4.28772 0
M  V30 5718 P 749.445 7.39546 4.75277 0
M  V30 5719 O 750.866 7.81861 5.05793 0
M  V30 5720 O 749.085 7.1065 3.32998 0
M  V30 5721 O 749.122 6.04542 5.56673 0
M  V30 5722 C 748.961 6.22839 7.02169 0
M  V30 5723 C 749.502 4.97725 7.70406 0
M  V30 5724 O 748.447 4.13208 7.58899 0
M  V30 5725 C 750.72 4.28231 7.11815 0
M  V30 5726 O 751.458 3.49945 8.01648 0
M  V30 5727 C 750.052 3.5063 5.96244 0
M  V30 5728 O 750.85 2.37008 5.64352 0
M  V30 5729 C 748.714 3.15122 6.56374 0
M  V30 5730 N 747.671 3.22311 5.55692 0
M  V30 5731 C 747.84 3.99655 4.46046 0
M  V30 5732 N 746.813 3.97599 3.63918 0
M  V30 5733 C 745.928 3.11159 4.25334 0
M  V30 5734 C 744.661 2.64972 3.85157 0
M  V30 5735 N 744.062 3.02132 2.69405 0
M  V30 5736 N 744.096 1.78482 4.74759 0
M  V30 5737 C 744.698 1.37463 5.90819 0
M  V30 5738 N 745.875 1.7733 6.31889 0
M  V30 5739 C 746.45 2.64393 5.43725 0
M  V30 5740 H 748.746 2.13823 6.99656 0
M  V30 5741 H 749.929 4.12931 5.06895 0
M  V30 5742 H 751.412 5.03285 6.70911 0
M  V30 5743 H 749.718 5.20001 8.76217 0
M  V30 5744 H 749.528 7.11046 7.35349 0
M  V30 5745 H 747.898 6.35815 7.26986 0
M  V30 5746 H 744.162 0.66574 6.53015 0
M  V30 5747 H 748.74 4.58037 4.27732 0
M  V30 5748 H 743.132 2.64828 2.45331 0
M  V30 5749 H 744.536 3.67472 2.05644 0
M  V30 5750 H 750.538 1.61619 6.13468 0
M  V30 5751 H 753.091 3.4553 7.48275 0
M  V30 END ATOM
M  V30 BEGIN BOND
M  V30 END BOND
M  V30 END CTAB
M  END
$$$$
