drugbank_target|P0A8X2 Protein YceI (DB03232)
 OpenBabel12092119563D

  0  0  0     0  0            999 V3000
M  V30 BEGIN CTAB
M  V30 COUNTS 2932 2960 0 0 0
M  V30 BEGIN ATOM
M  V30 1 H -0.908 1.98254 -0.117106 0
M  V30 2 N 0 1.576 0 0
M  V30 3 C 0.933 2.03868 1.02534 0
M  V30 4 C 1.911 0.928543 1.3348 0
M  V30 5 O 3.095 1.19667 1.45644 0
M  V30 6 C 0.222 2.43627 2.35294 0
M  V30 7 C -0.732 3.65373 2.2001 0
M  V30 8 S 0.101 5.13292 1.52614 0
M  V30 9 C 1.257 5.56322 2.86805 0
M  V30 10 H 1.49 2.90518 0.631377 0
M  V30 11 H -0.977 1.52953 0.210867 0
M  V30 12 H 0.981 2.67203 3.11629 0
M  V30 13 H -0.358 1.57376 2.7183 0
M  V30 14 H -1.165 3.90944 3.18086 0
M  V30 15 H -1.563 3.418 1.51819 0
M  V30 16 H 0.729 5.58782 3.83104 0
M  V30 17 H 1.672 6.56266 2.65933 0
M  V30 18 H 2.08 4.83886 2.90714 0
M  V30 19 N 1.4781 -0.272755 1.55222 0
M  V30 20 C 2.4251 -1.33716 1.88119 0
M  V30 21 C 3.3951 -1.49066 0.73271 0
M  V30 22 O 4.5801 -1.63469 0.984002 0
M  V30 23 C 1.7201 -2.69238 2.15882 0
M  V30 24 C 0.8331 -2.62108 3.43399 0
M  V30 25 C -0.0319 -3.89811 3.60861 0
M  V30 26 C -0.9929 -3.77193 4.8207 0
M  V30 27 N -1.8559 -4.9673 4.96189 0
M  V30 28 H 2.9841 -1.04962 2.78903 0
M  V30 29 H 0.5211 -0.507088 1.38083 0
M  V30 30 H 2.4791 -3.48089 2.29978 0
M  V30 31 H 1.1091 -2.96194 1.28331 0
M  V30 32 H 0.1611 -1.74967 3.37773 0
M  V30 33 H 1.4731 -2.48685 4.32386 0
M  V30 34 H 0.6271 -4.77103 3.74777 0
M  V30 35 H -0.6339 -4.06102 2.7006 0
M  V30 36 H -1.6289 -2.88284 4.68159 0
M  V30 37 H -0.4039 -3.62421 5.74307 0
M  V30 38 H -2.4579 -5.13431 4.08319 0
M  V30 39 H -2.5409 -4.85839 5.79221 0
M  V30 40 H -1.2729 -5.85594 5.1449 0
M  V30 41 N 2.9562 -1.48159 -0.537278 0
M  V30 42 C 3.9032 -1.62138 -1.64256 0
M  V30 43 C 4.8732 -0.463668 -1.59497 0
M  V30 44 O 6.0582 -0.686241 -1.78032 0
M  V30 45 C 3.1982 -1.66028 -3.02537 0
M  V30 46 C 2.3112 -2.92855 -3.17585 0
M  V30 47 C 1.4462 -2.87952 -4.46382 0
M  V30 48 C 0.4852 -4.09516 -4.54932 0
M  V30 49 N -0.3778 -4.02733 -5.75109 0
M  V30 50 H 4.4622 -2.56529 -1.51647 0
M  V30 51 H 1.9992 -1.27224 -0.738414 0
M  V30 52 H 3.9572 -1.66265 -3.82638 0
M  V30 53 H 2.5872 -0.751331 -3.13934 0
M  V30 54 H 1.6392 -3.02395 -2.30784 0
M  V30 55 H 2.9512 -3.82822 -3.19764 0
M  V30 56 H 2.1052 -2.8655 -5.34765 0
M  V30 57 H 0.8442 -1.95702 -4.46712 0
M  V30 58 H -0.1508 -4.11201 -3.64957 0
M  V30 59 H 1.0742 -5.02917 -4.56346 0
M  V30 60 H -0.9798 -3.13299 -5.76351 0
M  V30 61 H -1.0628 -4.86397 -5.78752 0
M  V30 62 H 0.2052 -4.05379 -6.65799 0
M  V30 63 N 4.4343 0.785586 -1.36625 0
M  V30 64 C 5.6593 1.57963 -1.34397 0
M  V30 65 C 6.0843 1.87964 0.071526 0
M  V30 66 O 5.4423 1.48182 1.0446 0
M  V30 67 C 5.4903 2.87511 -2.17646 0
M  V30 68 O 4.5943 3.81281 -1.57158 0
M  V30 69 H 3.9353 0.479014 -0.459828 0
M  V30 70 H 6.4653 0.973411 -1.79961 0
M  V30 71 H 6.4753 3.36745 -2.30362 0
M  V30 72 H 5.1503 2.65002 -3.20541 0
M  V30 73 H 3.7273 3.39885 -1.53403 0
M  V30 74 N 5.9124 1.20967 1.01018 0
M  V30 75 C 6.8424 0.988272 2.11555 0
M  V30 76 C 7.8234 -0.0849778 1.69888 0
M  V30 77 O 9.0084 0.0738202 1.9406 0
M  V30 78 C 6.1384 0.546528 3.42973 0
M  V30 79 C 5.0924 1.56375 3.9841 0
M  V30 80 C 4.4184 0.97842 5.25672 0
M  V30 81 C 5.7184 2.94922 4.31066 0
M  V30 82 H 7.4124 1.91276 2.30334 0
M  V30 83 H 4.9584 0.921073 1.1069 0
M  V30 84 H 6.9114 0.378839 4.19694 0
M  V30 85 H 5.6354 -0.413598 3.23971 0
M  V30 86 H 4.2944 1.71891 3.23804 0
M  V30 87 H 3.9424 0.0101688 5.02999 0
M  V30 88 H 3.6424 1.65784 5.63728 0
M  V30 89 H 5.1664 0.821939 6.05043 0
M  V30 90 H 6.5804 2.8288 4.9865 0
M  V30 91 H 4.9774 3.5983 4.80253 0
M  V30 92 H 6.0474 3.4616 3.39561 0
M  V30 93 N 7.3905 -1.2043 1.01659 0
M  V30 94 C 8.3205 -2.25466 0.607226 0
M  V30 95 C 9.3015 -1.65853 -0.377716 0
M  V30 96 O 10.4865 -1.92409 -0.263149 0
M  V30 97 C 7.6165 -3.47256 -0.0552949 0
M  V30 98 C 6.5705 -4.19462 0.850632 0
M  V30 99 C 5.8965 -5.34673 0.0538859 0
M  V30 100 C 7.1965 -4.75603 2.15868 0
M  V30 101 H 8.8905 -2.59962 1.48526 0
M  V30 102 H 6.4365 -1.2496 0.715605 0
M  V30 103 H 8.3895 -4.19917 -0.353233 0
M  V30 104 H 7.1135 -3.11924 -0.968045 0
M  V30 105 H 5.7725 -3.48667 1.13257 0
M  V30 106 H 5.4205 -4.95585 -0.860514 0
M  V30 107 H 5.1205 -5.83913 0.657192 0
M  V30 108 H 6.6445 -6.10138 -0.237598 0
M  V30 109 H 8.0585 -5.40083 1.92311 0
M  V30 110 H 6.4555 -5.3528 2.71284 0
M  V30 111 H 7.5255 -3.94346 2.82169 0
M  V30 112 N 8.8686 -0.792821 -1.36206 0
M  V30 113 C 10.1166 -0.366062 -1.98757 0
M  V30 114 C 10.4376 1.0668 -1.63231 0
M  V30 115 O 9.7076 1.73587 -0.907978 0
M  V30 116 H 8.2876 -0.132364 -0.735179 0
M  V30 117 H 10.9496 -1.01562 -1.66347 0
M  V30 118 H 10.0456 -0.460638 -3.08682 0
M  V30 119 N 10.3467 1.47872 -0.545128 0
M  V30 120 C 11.2767 2.32661 0.197793 0
M  V30 121 C 12.2577 1.43041 0.920504 0
M  V30 122 O 13.4427 1.71912 0.90333 0
M  V30 123 C 10.5727 3.24569 1.23582 0
M  V30 124 C 9.5267 4.23333 0.630323 0
M  V30 125 C 8.8527 5.0448 1.77211 0
M  V30 126 C 10.1527 5.20704 -0.407974 0
M  V30 127 H 11.8467 2.95024 -0.510045 0
M  V30 128 H 9.3927 1.4187 -0.246731 0
M  V30 129 H 11.3457 3.8272 1.76362 0
M  V30 130 H 10.0697 2.60236 1.97344 0
M  V30 131 H 8.7287 3.6639 0.123922 0
M  V30 132 H 8.3767 4.36561 2.49847 0
M  V30 133 H 8.0767 5.71339 1.37281 0
M  V30 134 H 9.6007 5.65487 2.3034 0
M  V30 135 H 11.0147 5.7329 0.033305 0
M  V30 136 H 9.4117 5.95699 -0.725486 0
M  V30 137 H 10.4817 4.66917 -1.30828 0
M  V30 138 N 11.8248 0.280983 1.55075 0
M  V30 139 C 13.0528 -0.337293 2.04132 0
M  V30 140 C 13.4678 -1.4903 1.15912 0
M  V30 141 O 12.8248 -1.81606 0.180459 0
M  V30 142 C 12.8758 -0.812706 3.52246 0
M  V30 143 O 12.5968 0.294387 4.3711 0
M  V30 144 C 14.0978 -1.4982 4.17216 0
M  V30 145 H 11.3178 -0.0761638 0.666663 0
M  V30 146 H 13.8618 0.414787 2.00249 0
M  V30 147 H 12.0168 -1.51486 3.56554 0
M  V30 148 H 12.4308 -0.0721325 5.2445 0
M  V30 149 H 13.9048 -1.7822 5.22438 0
M  V30 150 H 14.3818 -2.43168 3.65741 0
M  V30 151 H 14.9878 -0.839742 4.16927 0
M  V30 152 N 13.3029 -1.57598 0.00835791 0
M  V30 153 C 14.5499 -1.90928 -0.674732 0
M  V30 154 C 14.8779 -0.88277 -1.73313 0
M  V30 155 O 14.1329 0.111294 -1.95383 0
M  V30 156 C 14.4319 -3.3101 -1.34787 0
M  V30 157 C 14.0979 -4.48922 -0.421861 0
M  V30 158 C 12.7599 -4.8091 -0.166927 0
M  V30 159 C 15.1119 -5.20755 0.215211 0
M  V30 160 C 12.4399 -5.821 0.733232 0
M  V30 161 C 14.7919 -6.22905 1.1033 0
M  V30 162 C 13.4559 -6.53346 1.36733 0
M  V30 163 H 12.7259 -0.698656 -0.246902 0
M  V30 164 H 15.3729 -1.91387 0.0656779 0
M  V30 165 H 13.6779 -3.26714 -2.16253 0
M  V30 166 H 15.3749 -3.54061 -1.8826 0
M  V30 167 H 11.9649 -4.23934 -0.630729 0
M  V30 168 H 16.1489 -4.9629 0.0312829 0
M  V30 169 H 11.4049 -6.04042 0.945712 0
M  V30 170 H 15.5789 -6.77694 1.60325 0
M  V30 171 H 13.2059 -7.31573 2.06652 0
M  V30 172 N 14.781 0.264519 -1.55364 0
M  V30 173 C 15.744 1.31046 -1.88042 0
M  V30 174 C 16.744 1.41943 -0.755569 0
M  V30 175 O 17.934 1.40947 -1.02369 0
M  V30 176 C 15.066 2.69067 -2.09323 0
M  V30 177 H 16.259 1.03297 -2.81549 0
M  V30 178 H 13.812 0.502989 -1.47986 0
M  V30 179 H 14.547 3.01982 -1.18226 0
M  V30 180 H 14.332 2.62542 -2.91229 0
M  V30 181 H 15.822 3.44623 -2.35848 0
M  V30 182 N 16.2591 1.48442 0.529413 0
M  V30 183 C 17.4841 1.60406 1.31471 0
M  V30 184 C 17.9091 0.264738 1.86228 0
M  V30 185 O 17.2671 -0.763668 1.64432 0
M  V30 186 C 17.3151 2.65419 2.44101 0
M  V30 187 O 16.4191 2.22618 3.47153 0
M  V30 188 H 15.7601 0.537863 0.389357 0
M  V30 189 H 18.2901 1.94432 0.636965 0
M  V30 190 H 18.3001 2.86709 2.90279 0
M  V30 191 H 16.9751 3.62652 2.03608 0
M  V30 192 H 15.5521 2.11543 3.0709 0
M  V30 193 N 17.7372 -0.778329 1.37039 0
M  V30 194 C 18.6672 -1.90546 1.34962 0
M  V30 195 C 19.6482 -1.68681 0.219274 0
M  V30 196 O 20.8332 -1.89634 0.418624 0
M  V30 197 C 17.9632 -3.27734 1.14925 0
M  V30 198 C 16.9172 -3.64147 2.24902 0
M  V30 199 C 16.2432 -4.99806 1.89996 0
M  V30 200 C 17.5432 -3.71579 3.67051 0
M  V30 201 H 19.2372 -1.92541 2.29277 0
M  V30 202 H 16.7832 -0.924948 1.10366 0
M  V30 203 H 18.7362 -4.06215 1.12104 0
M  V30 204 H 17.4602 -3.26154 0.170631 0
M  V30 205 H 16.1192 -2.8797 2.26868 0
M  V30 206 H 15.7672 -4.94759 0.906796 0
M  V30 207 H 15.4672 -5.25139 2.63634 0
M  V30 208 H 16.9912 -5.80694 1.88749 0
M  V30 209 H 18.4052 -4.40227 3.67251 0
M  V30 210 H 16.8022 -4.08405 4.39688 0
M  V30 211 H 17.8722 -2.72404 4.01154 0
M  V30 212 N 19.2153 -1.21501 -1.00376 0
M  V30 213 C 20.1483 -0.918669 -2.08892 0
M  V30 214 C 21.1263 0.134277 -1.62045 0
M  V30 215 O 22.3103 0.00504255 -1.88499 0
M  V30 216 C 19.4373 -0.379645 -3.36566 0
M  V30 217 C 18.4833 -1.41559 -4.02323 0
M  V30 218 S 19.3163 -2.98521 -4.44574 0
M  V30 219 C 20.4723 -2.46228 -5.75433 0
M  V30 220 H 20.7053 -1.83761 -2.33707 0
M  V30 221 H 18.2383 -1.04489 -1.13673 0
M  V30 222 H 20.1963 -0.0752195 -4.10431 0
M  V30 223 H 18.8573 0.518008 -3.09799 0
M  V30 224 H 18.0503 -0.988076 -4.9422 0
M  V30 225 H 17.6523 -1.66815 -3.34737 0
M  V30 226 H 19.9443 -1.86791 -6.51241 0
M  V30 227 H 20.8873 -3.36572 -6.22997 0
M  V30 228 H 21.2953 -1.87894 -5.32312 0
M  V30 229 N 20.6934 1.19889 -1.02296 0
M  V30 230 C 21.9404 1.8942 -0.715972 0
M  V30 231 C 22.2684 1.79251 0.754944 0
M  V30 232 O 21.5234 1.17526 1.56481 0
M  V30 233 C 21.8224 3.39883 -1.10518 0
M  V30 234 C 21.4884 3.70254 -2.57337 0
M  V30 235 C 20.1504 3.78254 -2.97452 0
M  V30 236 C 22.5024 3.84052 -3.52354 0
M  V30 237 C 19.8304 3.97514 -4.31509 0
M  V30 238 C 22.1824 4.04824 -4.86108 0
M  V30 239 C 20.8464 4.11054 -5.25919 0
M  V30 240 H 20.1164 0.693138 -0.261993 0
M  V30 241 H 22.7634 1.42012 -1.28472 0
M  V30 242 H 21.0684 3.8915 -0.454953 0
M  V30 243 H 22.7654 3.9199 -0.845261 0
M  V30 244 H 19.3554 3.64632 -2.25258 0
M  V30 245 H 23.5394 3.77221 -3.22518 0
M  V30 246 H 18.7954 4.00574 -4.61898 0
M  V30 247 H 22.9694 4.14442 -5.59653 0
M  V30 248 H 20.5964 4.2573 -6.29808 0
M  V30 249 N 22.1715 0.800033 1.35784 0
M  V30 250 C 23.3965 0.388511 2.03729 0
M  V30 251 C 23.8215 -0.990481 1.5991 0
M  V30 252 O 23.1795 -1.64013 0.772612 0
M  V30 253 C 23.2275 0.4726 3.5749 0
M  V30 254 O 22.3315 -0.51646 4.09153 0
M  V30 255 H 21.6725 0.163271 0.643614 0
M  V30 256 H 24.2025 1.0841 1.73518 0
M  V30 257 H 24.2125 0.34003 4.06581 0
M  V30 258 H 22.8875 1.47848 3.88734 0
M  V30 259 H 21.4645 -0.344673 3.71304 0
M  V30 260 N 23.6496 -1.47581 0.552962 0
M  V30 261 C 24.6126 -2.28439 -0.186605 0
M  V30 262 C 25.6126 -1.36706 -0.84665 0
M  V30 263 O 26.8026 -1.59378 -0.703164 0
M  V30 264 C 23.9346 -3.16264 -1.2724 0
M  V30 265 H 25.1276 -2.95294 0.523609 0
M  V30 266 H 22.6806 -1.532 0.309745 0
M  V30 267 H 23.4156 -2.54091 -2.01514 0
M  V30 268 H 23.2006 -3.83769 -0.803968 0
M  V30 269 H 24.6906 -3.77198 -1.79196 0
M  V30 270 N 25.1277 -0.289203 -1.54924 0
M  V30 271 C 26.3757 0.322879 -1.99504 0
M  V30 272 C 26.6967 1.55313 -1.1791 0
M  V30 273 O 25.9667 1.94001 -0.272097 0
M  V30 274 H 24.5467 0.122291 -0.736922 0
M  V30 275 H 27.2087 -0.397802 -1.90797 0
M  V30 276 H 26.3047 0.603061 -3.06218 0
M  V30 277 N 26.6058 1.57591 -0.0167156 0
M  V30 278 C 27.8308 1.9598 0.67872 0
M  V30 279 C 28.2558 0.892546 1.65575 0
M  V30 280 O 27.6138 -0.147772 1.80697 0
M  V30 281 C 27.6618 3.33468 1.37227 0
M  V30 282 O 26.7658 3.28954 2.48722 0
M  V30 283 H 26.1068 0.639339 0.17928 0
M  V30 284 H 28.6368 2.04463 -0.0748802 0
M  V30 285 H 28.6468 3.69417 1.7319 0
M  V30 286 H 27.3218 4.10694 0.656007 0
M  V30 287 H 25.8988 3.04705 2.14963 0
M  V30 288 N 28.0839 -0.256276 1.55502 0
M  V30 289 C 29.0469 -1.30047 1.88734 0
M  V30 290 C 30.0469 -1.4154 0.763086 0
M  V30 291 O 31.2369 -1.40403 1.03115 0
M  V30 292 C 28.3689 -2.67953 2.10747 0
M  V30 293 H 29.5619 -1.01802 2.82093 0
M  V30 294 H 27.1149 -0.495134 1.4825 0
M  V30 295 H 27.8499 -3.01351 1.19825 0
M  V30 296 H 27.6349 -2.60993 2.92617 0
M  V30 297 H 29.1249 -3.43368 2.37673 0
M  V30 298 N 29.562 -1.4872 -0.521534 0
M  V30 299 C 30.808 -1.574 -1.27879 0
M  V30 300 C 31.141 -0.250817 -1.92573 0
M  V30 301 O 30.416 0.743934 -1.79711 0
M  V30 302 C 30.699 -2.71843 -2.36164 0
M  V30 303 C 30.552 -4.13893 -1.76105 0
M  V30 304 C 31.871 -2.82008 -3.37875 0
M  V30 305 H 28.99 -0.572941 -0.463581 0
M  V30 306 H 31.632 -1.80927 -0.580119 0
M  V30 307 H 29.782 -2.51914 -2.95756 0
M  V30 308 H 31.454 -4.45284 -1.20499 0
M  V30 309 H 29.697 -4.20498 -1.06601 0
M  V30 310 H 30.368 -4.89804 -2.5455 0
M  V30 311 H 32.844 -3.00086 -2.88249 0
M  V30 312 H 31.72 -3.63796 -4.11028 0
M  V30 313 H 31.981 -1.90511 -3.98946 0
M  V30 314 N 31.0401 0.771051 -1.3745 0
M  V30 315 C 32.0031 1.86598 -1.33093 0
M  V30 316 C 33.0031 1.59076 -0.234845 0
M  V30 317 O 34.1931 1.67145 -0.490732 0
M  V30 318 C 31.3251 3.23747 -1.06773 0
M  V30 319 H 32.5181 1.91873 -2.30488 0
M  V30 320 H 30.0711 0.970876 -1.2249 0
M  V30 321 H 30.8061 3.24148 -0.099129 0
M  V30 322 H 30.5911 3.45115 -1.86112 0
M  V30 323 H 32.0811 4.03824 -1.06377 0
M  V30 324 N 32.5182 1.22032 0.997298 0
M  V30 325 C 33.4812 0.987909 2.06816 0
M  V30 326 C 34.4812 -0.0440084 1.6074 0
M  V30 327 O 35.6712 0.194053 1.73116 0
M  V30 328 C 32.8032 0.49132 3.37341 0
M  V30 329 H 33.9962 1.93803 2.28868 0
M  V30 330 H 31.5492 1.03838 1.16822 0
M  V30 331 H 32.2842 -0.463364 3.20973 0
M  V30 332 H 32.0692 1.23575 3.72118 0
M  V30 333 H 33.5592 0.348824 4.16141 0
M  V30 334 N 33.9963 -1.19345 1.0293 0
M  V30 335 C 35.2733 -1.84811 0.640642 0
M  V30 336 C 35.6533 -1.91855 -0.88062 0
M  V30 337 O 35.0013 -1.43587 -1.7775 0
M  V30 338 C 35.2113 -3.23755 1.30321 0
M  V30 339 C 36.5593 -3.99912 1.42673 0
M  V30 340 O 37.5833 -3.33155 1.26041 0
M  V30 341 O 36.4423 -5.19494 1.6967 0
M  V30 342 H 33.5363 -0.796443 0.222726 0
M  V30 343 H 36.0823 -1.26831 1.12748 0
M  V30 344 H 34.8543 -3.13466 2.34211 0
M  V30 345 H 34.4773 -3.89381 0.804261 0
M  V30 346 N 35.4744 -0.807222 -1.35358 0
M  V30 347 C 36.7044 -0.399796 -2.02695 0
M  V30 348 C 37.1124 0.994176 -1.60974 0
M  V30 349 O 36.4554 1.65209 -0.803226 0
M  V30 350 C 36.5174 -0.404445 -3.57218 0
M  V30 351 C 36.1814 -1.74904 -4.22206 0
M  V30 352 C 37.1784 -2.70743 -4.4384 0
M  V30 353 C 34.8634 -2.03322 -4.5931 0
M  V30 354 C 36.8574 -3.93183 -5.01683 0
M  V30 355 C 34.5444 -3.26026 -5.16866 0
M  V30 356 C 35.5424 -4.20774 -5.37994 0
M  V30 357 O 35.2304 -5.41312 -5.94337 0
M  V30 358 H 34.9624 -0.160517 -0.656666 0
M  V30 359 H 37.5164 -1.09235 -1.73945 0
M  V30 360 H 35.7464 0.344707 -3.85161 0
M  V30 361 H 37.4354 -0.0192429 -4.05895 0
M  V30 362 H 38.2014 -2.5008 -4.15554 0
M  V30 363 H 34.0804 -1.30384 -4.42178 0
M  V30 364 H 37.6244 -4.6715 -5.1809 0
M  V30 365 H 33.5214 -3.46559 -5.44579 0
M  V30 366 H 34.2894 -5.42618 -6.12787 0
M  V30 367 N 36.9525 1.47285 -0.560781 0
M  V30 368 C 37.8995 2.30058 0.18491 0
M  V30 369 C 38.8695 1.39281 0.904986 0
M  V30 370 O 40.0545 1.68241 0.899979 0
M  V30 371 C 37.1945 3.23317 1.20666 0
M  V30 372 C 36.3075 4.29186 0.492285 0
M  V30 373 C 35.4425 5.09592 1.49964 0
M  V30 374 C 34.4815 6.07232 0.770439 0
M  V30 375 N 33.6185 6.80584 1.72479 0
M  V30 376 H 38.4585 2.93302 -0.527048 0
M  V30 377 H 35.9955 1.44568 -0.271738 0
M  V30 378 H 37.9535 3.75811 1.81168 0
M  V30 379 H 36.5835 2.61929 1.88661 0
M  V30 380 H 35.6355 3.7972 -0.227333 0
M  V30 381 H 36.9475 4.98738 -0.0787929 0
M  V30 382 H 36.1015 5.66254 2.17809 0
M  V30 383 H 34.8405 4.3995 2.10464 0
M  V30 384 H 33.8455 5.49745 0.0780846 0
M  V30 385 H 35.0705 6.78884 0.171134 0
M  V30 386 H 33.0165 6.1367 2.3183 0
M  V30 387 H 32.9335 7.46319 1.20596 0
M  V30 388 H 34.2015 7.41818 2.39428 0
M  V30 389 N 38.4306 0.297415 1.54768 0
M  V30 390 C 39.6796 -0.313669 1.99246 0
M  V30 391 C 39.9926 -1.55281 1.18942 0
M  V30 392 O 41.1986 -2.23825 1.5367 0
M  V30 393 C 39.6546 -0.609407 3.54703 0
M  V30 394 C 39.2626 0.611192 4.43811 0
M  V30 395 C 41.0066 -1.18188 4.07715 0
M  V30 396 C 38.9136 0.288805 5.90694 0
M  V30 397 H 37.8436 -0.120979 0.744231 0
M  V30 398 H 40.4946 0.40556 1.78962 0
M  V30 399 H 38.8766 -1.38813 3.70873 0
M  V30 400 H 40.0506 1.3875 4.39414 0
M  V30 401 H 38.3656 1.10205 4.01552 0
M  V30 402 H 40.9626 -1.43727 5.15021 0
M  V30 403 H 41.3056 -2.12299 3.58099 0
M  V30 404 H 41.8386 -0.464944 3.95074 0
M  V30 405 H 38.5776 1.19838 6.44453 0
M  V30 406 H 38.0976 -0.450305 5.98107 0
M  V30 407 H 39.7766 -0.110933 6.46905 0
M  V30 408 N 39.9087 -1.5758 0.0250728 0
M  V30 409 C 41.1857 -1.82917 -0.692873 0
M  V30 410 C 41.5657 -0.908137 -1.90568 0
M  V30 411 O 40.9137 0.0372298 -2.2847 0
M  V30 412 C 41.1237 -3.32034 -1.07492 0
M  V30 413 C 42.4717 -3.98406 -1.46826 0
M  V30 414 O 43.4957 -3.36505 -1.16801 0
M  V30 415 O 42.3547 -5.07497 -2.02754 0
M  V30 416 H 39.4487 -0.754079 -0.33955 0
M  V30 417 H 41.9947 -1.69619 0.0524456 0
M  V30 418 H 40.7667 -3.90728 -0.211552 0
M  V30 419 H 40.3897 -3.50424 -1.87854 0
M  V30 420 N 41.3868 0.248026 -1.55636 0
M  V30 421 C 42.3338 1.30707 -1.90222 0
M  V30 422 C 43.3038 1.47881 -0.756332 0
M  V30 423 O 44.4888 1.61883 -1.00988 0
M  V30 424 C 41.6288 2.65769 -2.20138 0
M  V30 425 C 40.7418 2.56612 -3.47526 0
M  V30 426 C 39.8768 3.8402 -3.67017 0
M  V30 427 C 38.9158 3.69476 -4.8801 0
M  V30 428 N 38.0528 4.88774 -5.04029 0
M  V30 429 H 42.8928 1.00512 -2.80538 0
M  V30 430 H 40.4298 0.485055 -1.38873 0
M  V30 431 H 42.3878 3.44386 -2.35487 0
M  V30 432 H 41.0178 2.94115 -1.33027 0
M  V30 433 H 40.0698 1.69571 -3.40514 0
M  V30 434 H 41.3818 2.41774 -4.36287 0
M  V30 435 H 40.5358 4.7108 -3.8232 0
M  V30 436 H 39.2748 4.01754 -2.76487 0
M  V30 437 H 38.2798 2.80799 -4.72686 0
M  V30 438 H 39.5048 3.53238 -5.8 0
M  V30 439 H 37.4508 5.0687 -4.16435 0
M  V30 440 H 37.3678 4.76562 -5.86877 0
M  V30 441 H 38.6358 5.77335 -5.23741 0
M  V30 442 N 42.8649 1.48995 0.513639 0
M  V30 443 C 43.7749 1.67443 1.64317 0
M  V30 444 C 44.7909 0.556947 1.64846 0
M  V30 445 O 45.9669 0.830082 1.83498 0
M  V30 446 C 43.0319 1.72515 3.00732 0
M  V30 447 C 42.0929 2.96009 3.1093 0
M  V30 448 C 41.3259 3.00829 4.40837 0
M  V30 449 O 41.5489 2.13594 5.28898 0
M  V30 450 O 40.4829 3.93168 4.55744 0
M  V30 451 H 44.3089 2.63106 1.51687 0
M  V30 452 H 41.8939 1.32588 0.688543 0
M  V30 453 H 43.7759 1.78277 3.81831 0
M  V30 454 H 42.4509 0.800278 3.13651 0
M  V30 455 H 41.3579 2.9577 2.29065 0
M  V30 456 H 42.6909 3.87934 3.02933 0
M  V30 457 N 44.343 -0.763751 1.37857 0
M  V30 458 C 45.591 -1.51957 1.33243 0
M  V30 459 C 45.912 -1.94835 -0.0801709 0
M  V30 460 O 45.182 -1.66894 -1.02582 0
M  V30 461 H 43.762 -0.563626 0.49024 0
M  V30 462 H 46.424 -0.908504 1.7243 0
M  V30 463 H 45.52 -2.41523 1.97669 0
M  V30 464 N 45.8211 -1.22559 -0.990812 0
M  V30 465 C 46.7531 -0.955325 -2.08342 0
M  V30 466 C 47.7661 0.0668408 -1.62663 0
M  V30 467 O 48.9551 -0.167421 -1.77713 0
M  V30 468 C 46.0551 -0.415566 -3.36342 0
M  V30 469 C 45.2281 -1.49544 -4.11042 0
M  V30 470 C 44.2871 -0.962399 -5.17324 0
M  V30 471 O 43.3131 -1.64907 -5.44788 0
M  V30 472 N 44.5151 0.215134 -5.80101 0
M  V30 473 H 47.2801 -1.89596 -2.32106 0
M  V30 474 H 44.8411 -1.13276 -1.15673 0
M  V30 475 H 46.8331 -0.0442386 -4.04676 0
M  V30 476 H 45.4031 0.430232 -3.09625 0
M  V30 477 H 44.6231 -2.04 -3.37309 0
M  V30 478 H 45.9111 -2.22195 -4.57719 0
M  V30 479 H 45.3091 0.789779 -5.6016 0
M  V30 480 H 43.8661 0.527826 -6.49659 0
M  V30 481 N 47.2992 1.18797 -1.03562 0
M  V30 482 C 48.2492 2.20161 -0.592724 0
M  V30 483 C 49.2332 1.56772 0.362133 0
M  V30 484 O 50.4252 1.76062 0.182009 0
M  V30 485 C 47.5542 3.43266 0.0481024 0
M  V30 486 C 46.6402 4.13786 -0.9296 0
M  V30 487 N 47.0312 4.60388 -2.09467 0
M  V30 488 C 45.3292 4.39572 -0.754499 0
M  V30 489 C 46.0302 5.14619 -2.71187 0
M  V30 490 N 45.0062 5.05826 -1.991 0
M  V30 491 H 48.8082 2.53877 -1.48066 0
M  V30 492 H 46.3222 1.34946 -0.903514 0
M  V30 493 H 48.3192 4.15136 0.383058 0
M  V30 494 H 46.9792 3.11048 0.931636 0
M  V30 495 H 47.9902 4.54999 -2.47379 0
M  V30 496 H 44.6672 4.17425 0.0793713 0
M  V30 497 H 46.0572 5.60917 -3.69895 0
M  V30 498 N 48.7773 0.814389 1.34928 0
M  V30 499 C 49.7403 0.235759 2.27984 0
M  V30 500 C 50.7403 -0.581412 1.49921 0
M  V30 501 O 51.9303 -0.398758 1.69575 0
M  V30 502 C 49.0623 -0.670433 3.34242 0
M  V30 503 H 50.2553 1.05659 2.80671 0
M  V30 504 H 47.8083 0.585614 1.44915 0
M  V30 505 H 48.5433 -1.51466 2.86755 0
M  V30 506 H 48.3283 -0.0860822 3.92005 0
M  V30 507 H 49.8183 -1.06935 4.03676 0
M  V30 508 N 50.2554 -1.46986 0.568584 0
M  V30 509 C 51.5024 -2.02441 0.0487986 0
M  V30 510 C 51.8304 -1.44169 -1.30559 0
M  V30 511 O 51.0854 -0.591213 -1.86556 0
M  V30 512 C 51.3844 -3.57306 -0.081836 0
M  V30 513 C 51.0504 -4.34552 1.20313 0
M  V30 514 C 49.7124 -4.55376 1.5552 0
M  V30 515 C 52.0644 -4.79016 2.05411 0
M  V30 516 C 49.3924 -5.17913 2.7565 0
M  V30 517 C 51.7444 -5.42879 3.24754 0
M  V30 518 C 50.4084 -5.61933 3.60261 0
M  V30 519 H 49.6784 -0.740785 0.0178567 0
M  V30 520 H 52.3254 -1.76525 0.742384 0
M  V30 521 H 50.6304 -3.8228 -0.858463 0
M  V30 522 H 52.3274 -3.97876 -0.499546 0
M  V30 523 H 48.9174 -4.18631 0.919014 0
M  V30 524 H 53.1014 -4.62696 1.79516 0
M  V30 525 H 48.3574 -5.30858 3.03315 0
M  V30 526 H 52.5314 -5.76293 3.90973 0
M  V30 527 H 50.1584 -6.10161 4.53439 0
M  V30 528 N 51.7335 -0.305618 -1.54608 0
M  V30 529 C 52.9795 0.302746 -2.00528 0
M  V30 530 C 53.3125 1.53184 -1.19367 0
M  V30 531 O 52.5875 1.92598 -0.271321 0
M  V30 532 C 52.8705 0.654756 -3.54097 0
M  V30 533 C 52.7235 -0.583793 -4.45995 0
M  V30 534 C 54.0425 1.47947 -4.14487 0
M  V30 535 H 51.1615 0.108564 -0.72896 0
M  V30 536 H 53.8035 -0.418634 -1.85331 0
M  V30 537 H 51.9535 1.26935 -3.67178 0
M  V30 538 H 53.6255 -1.22224 -4.44814 0
M  V30 539 H 51.8685 -1.21615 -4.16404 0
M  V30 540 H 52.5395 -0.293287 -5.5122 0
M  V30 541 H 55.0155 0.96013 -4.04871 0
M  V30 542 H 53.8915 1.69454 -5.22088 0
M  V30 543 H 54.1525 2.47011 -3.66658 0
M  V30 544 N 53.2116 1.57565 -0.0334293 0
M  V30 545 C 54.1596 2.1164 0.96496 0
M  V30 546 C 55.1536 1.04398 1.33407 0
M  V30 547 O 56.3596 1.22828 1.3158 0
M  V30 548 H 52.7346 0.676222 0.32898 0
M  V30 549 H 54.7056 2.94455 0.483614 0
M  V30 550 C 53.4546 2.66207 2.23672 0
M  V30 551 H 52.7776 3.48378 1.96145 0
M  V30 552 H 54.2176 3.07685 2.9173 0
M  V30 553 C 52.6766 1.59151 2.96939 0
M  V30 554 O 53.2066 0.993858 3.89211 0
M  V30 555 N 51.4126 1.31093 2.59351 0
M  V30 556 H 50.9596 1.7988 1.84393 0
M  V30 557 H 50.9176 0.596889 3.08682 0
M  V30 558 N 54.6897 -0.239769 1.55765 0
M  V30 559 C 55.9367 -0.966801 1.7793 0
M  V30 560 C 56.2647 -1.85046 0.599015 0
M  V30 561 O 55.5197 -1.91197 -0.417395 0
M  V30 562 C 55.8187 -1.852 3.05672 0
M  V30 563 C 55.4847 -1.1231 4.36689 0
M  V30 564 C 54.1467 -0.921689 4.72291 0
M  V30 565 C 56.4987 -0.607019 5.17653 0
M  V30 566 C 53.8267 -0.191996 5.86386 0
M  V30 567 C 56.1787 0.109241 6.32506 0
M  V30 568 C 54.8427 0.322073 6.66723 0
M  V30 569 H 54.1127 -0.353778 0.651093 0
M  V30 570 H 56.7597 -0.23634 1.90036 0
M  V30 571 H 55.0647 -2.64975 2.8861 0
M  V30 572 H 56.7617 -2.41635 3.20021 0
M  V30 573 H 53.3517 -1.29004 4.08725 0
M  V30 574 H 57.5357 -0.750153 4.90598 0
M  V30 575 H 52.7917 -0.0166949 6.11398 0
M  V30 576 H 56.9657 0.516737 6.9448 0
M  V30 577 H 54.5927 0.88944 7.54979 0
M  V30 578 N 56.1678 -1.49265 -0.50573 0
M  V30 579 C 57.5838 -1.35923 -0.836486 0
M  V30 580 C 57.7838 -0.388704 -1.97715 0
M  V30 581 O 56.8398 0.181336 -2.51848 0
M  V30 582 C 58.1528 -2.76531 -1.18115 0
M  V30 583 C 59.7008 -2.85197 -1.28964 0
M  V30 584 C 60.1758 -4.26561 -1.66761 0
M  V30 585 N 61.6668 -4.2935 -1.73819 0
M  V30 586 C 62.4018 -5.35693 -2.045 0
M  V30 587 N 61.8978 -6.52287 -2.33438 0
M  V30 588 N 63.6908 -5.23105 -2.05711 0
M  V30 589 H 55.8418 -2.10965 0.246519 0
M  V30 590 H 58.1048 -0.9468 0.0476887 0
M  V30 591 H 57.8108 -3.49226 -0.416398 0
M  V30 592 H 57.6848 -3.11599 -2.1257 0
M  V30 593 H 60.0718 -2.12742 -2.04511 0
M  V30 594 H 60.1528 -2.53718 -0.325704 0
M  V30 595 H 59.7968 -4.99541 -0.917656 0
M  V30 596 H 59.7268 -4.55502 -2.64246 0
M  V30 597 H 62.2178 -3.4526 -1.53635 0
M  V30 598 H 62.5308 -7.29158 -2.56024 0
M  V30 599 H 60.8758 -6.55521 -2.30905 0
M  V30 600 H 64.0668 -4.31026 -1.82577 0
M  V30 601 H 64.2398 -6.06078 -2.29289 0
M  V30 602 N 57.6459 0.756429 -1.3826 0
M  V30 603 C 58.8949 1.51082 -1.3363 0
M  V30 604 C 59.2079 1.95467 0.0720068 0
M  V30 605 O 60.4139 2.7043 0.240834 0
M  V30 606 C 58.8699 2.72893 -2.34644 0
M  V30 607 C 58.4779 2.35544 -3.81081 0
M  V30 608 C 60.2219 3.50791 -2.39052 0
M  V30 609 C 58.1289 3.53948 -4.73787 0
M  V30 610 H 57.0589 0.56727 -0.49671 0
M  V30 611 H 59.7099 0.827147 -1.638 0
M  V30 612 H 58.0919 3.43227 -1.97513 0
M  V30 613 H 59.2659 1.72894 -4.27135 0
M  V30 614 H 57.5809 1.70786 -3.79764 0
M  V30 615 H 60.1779 4.38823 -3.05513 0
M  V30 616 H 60.5209 3.91745 -1.40861 0
M  V30 617 H 61.0539 2.87467 -2.74968 0
M  V30 618 H 57.7929 3.18064 -5.73163 0
M  V30 619 H 57.3129 4.15651 -4.32428 0
M  V30 620 H 58.9919 4.20566 -4.91663 0
M  V30 621 N 59.124 1.23083 0.984299 0
M  V30 622 C 60.056 0.96636 2.07832 0
M  V30 623 C 61.069 -0.0582135 1.62696 0
M  V30 624 O 62.258 0.176843 1.77622 0
M  V30 625 C 59.358 0.433397 3.36117 0
M  V30 626 C 58.531 1.51722 4.10243 0
M  V30 627 C 57.59 0.989821 5.16807 0
M  V30 628 O 56.616 1.67794 5.43906 0
M  V30 629 N 57.818 -0.184367 5.80207 0
M  V30 630 H 60.583 1.90824 2.31098 0
M  V30 631 H 58.144 1.13888 1.1507 0
M  V30 632 H 60.136 0.065699 4.04647 0
M  V30 633 H 58.706 -0.413806 3.09849 0
M  V30 634 H 57.926 2.05786 3.36223 0
M  V30 635 H 59.214 2.24619 4.56534 0
M  V30 636 H 58.612 -0.760062 5.60571 0
M  V30 637 H 57.169 -0.493366 6.4993 0
M  V30 638 N 60.6021 -1.18246 1.0419 0
M  V30 639 C 61.5521 -2.19843 0.604392 0
M  V30 640 C 62.5361 -1.56962 -0.353814 0
M  V30 641 O 63.7281 -1.76156 -0.17267 0
M  V30 642 C 60.8571 -3.43287 -0.0298975 0
M  V30 643 C 59.9431 -4.13288 0.951531 0
M  V30 644 N 60.3341 -4.59271 2.11906 0
M  V30 645 C 58.6321 -4.39165 0.7778 0
M  V30 646 C 59.3331 -5.13173 2.73912 0
M  V30 647 N 58.3091 -5.04763 2.01779 0
M  V30 648 H 62.1111 -2.53089 1.4941 0
M  V30 649 H 59.6251 -1.34465 0.910658 0
M  V30 650 H 61.6221 -4.15334 -0.361037 0
M  V30 651 H 60.2821 -3.11537 -0.915127 0
M  V30 652 H 61.2931 -4.5368 2.49789 0
M  V30 653 H 57.9701 -4.17461 -0.0572331 0
M  V30 654 H 59.3601 -5.58947 3.72864 0
M  V30 655 N 62.0802 -0.821533 -1.34494 0
M  V30 656 C 63.0102 -0.257138 -2.3208 0
M  V30 657 C 63.9912 0.625645 -1.58176 0
M  V30 658 O 65.1762 0.552811 -1.86166 0
M  V30 659 C 62.3062 0.582958 -3.42372 0
M  V30 660 C 61.2602 -0.202571 -4.2752 0
M  V30 661 C 60.5862 0.760179 -5.29269 0
M  V30 662 C 61.8862 -1.40998 -5.02908 0
M  V30 663 H 63.5802 -1.07247 -2.79532 0
M  V30 664 H 61.1262 -0.517163 -1.34393 0
M  V30 665 H 63.0792 0.987972 -4.09655 0
M  V30 666 H 61.8032 1.43133 -2.93565 0
M  V30 667 H 60.4622 -0.588936 -3.61838 0
M  V30 668 H 60.1102 1.60447 -4.76724 0
M  V30 669 H 59.8102 0.238809 -5.87115 0
M  V30 670 H 61.3342 1.16308 -5.9942 0
M  V30 671 H 62.7482 -1.07905 -5.63054 0
M  V30 672 H 61.1452 -1.86689 -5.70322 0
M  V30 673 H 62.2152 -2.1889 -4.32684 0
M  V30 674 N 63.5583 1.46682 -0.576371 0
M  V30 675 C 64.8063 2.02013 -0.0594163 0
M  V30 676 C 65.1273 1.45101 1.30271 0
M  V30 677 O 64.3973 0.633317 1.8538 0
M  V30 678 H 62.9773 0.746759 -0.0189745 0
M  V30 679 H 65.6393 1.79862 -0.750717 0
M  V30 680 H 64.7353 3.12097 0.014345 0
M  V30 681 N 65.0364 0.313813 1.54444 0
M  V30 682 C 66.2664 -0.293491 2.04505 0
M  V30 683 C 66.6744 -1.47086 1.19005 0
M  V30 684 O 66.0174 -1.82481 0.211257 0
M  V30 685 C 66.0794 -0.800455 3.50475 0
M  V30 686 C 65.7434 0.253322 4.56297 0
M  V30 687 C 66.7404 1.08612 5.08428 0
M  V30 688 C 64.4254 0.398708 5.00715 0
M  V30 689 C 66.4194 2.05013 6.0353 0
M  V30 690 C 64.1064 1.36614 5.95634 0
M  V30 691 C 65.1044 2.19033 6.46926 0
M  V30 692 O 64.7924 3.14134 7.39983 0
M  V30 693 H 64.5244 -0.0658325 0.672787 0
M  V30 694 H 67.0784 0.455177 2.00293 0
M  V30 695 H 65.3084 -1.59987 3.52053 0
M  V30 696 H 66.9974 -1.32504 3.83663 0
M  V30 697 H 67.7634 0.984736 4.74898 0
M  V30 698 H 63.6424 -0.23289 4.60411 0
M  V30 699 H 67.1864 2.69382 6.4349 0
M  V30 700 H 63.0834 1.4682 6.28581 0
M  V30 701 H 63.8514 3.0926 7.57826 0
M  V30 702 N 66.5145 -1.57545 0.0417849 0
M  V30 703 C 67.7395 -1.97035 -0.647455 0
M  V30 704 C 68.1645 -0.918775 -1.64135 0
M  V30 705 O 67.5225 0.119006 -1.80909 0
M  V30 706 C 67.5705 -3.35609 -1.31905 0
M  V30 707 O 66.6745 -3.3287 -2.43457 0
M  V30 708 H 66.0155 -0.64211 -0.169086 0
M  V30 709 H 68.5455 -2.04318 0.107399 0
M  V30 710 H 68.5555 -3.72126 -1.67291 0
M  V30 711 H 67.2305 -4.11685 -0.590586 0
M  V30 712 H 65.8075 -3.08087 -2.10088 0
M  V30 713 N 67.9926 0.231505 -1.5589 0
M  V30 714 C 69.2386 0.954429 -1.79617 0
M  V30 715 C 69.5936 1.82367 -0.613199 0
M  V30 716 O 68.8866 1.87524 0.393094 0
M  V30 717 C 69.0806 1.83577 -3.0665 0
M  V30 718 C 68.9096 1.05334 -4.3719 0
M  V30 719 C 67.6796 0.75225 -4.99669 0
M  V30 720 C 69.8776 0.423444 -5.12554 0
M  V30 721 N 67.8596 -0.052627 -6.13877 0
M  V30 722 C 69.2306 -0.245287 -6.19515 0
M  V30 723 C 71.2856 0.335466 -4.96769 0
M  V30 724 C 69.9886 -0.993566 -7.12405 0
M  V30 725 C 72.0146 -0.399321 -5.9005 0
M  V30 726 C 71.3766 -1.05663 -6.9643 0
M  V30 727 H 67.4756 0.329846 -0.709031 0
M  V30 728 H 70.0596 0.226172 -1.93382 0
M  V30 729 H 68.2306 2.53592 -2.94186 0
M  V30 730 H 69.9626 2.49541 -3.18608 0
M  V30 731 H 66.7176 1.06783 -4.61405 0
M  V30 732 H 67.1416 -0.443609 -6.75545 0
M  V30 733 H 71.7836 0.829311 -4.14587 0
M  V30 734 H 69.5016 -1.49896 -7.94076 0
M  V30 735 H 73.0876 -0.468265 -5.79913 0
M  V30 736 H 71.9676 -1.61612 -7.67366 0
M  V30 737 N 69.4707 1.49531 0.497807 0
M  V30 738 C 70.4007 1.6935 1.60757 0
M  V30 739 C 71.3817 0.542218 1.61227 0
M  V30 740 O 72.5667 0.778417 1.77917 0
M  V30 741 C 69.6967 1.76298 2.99226 0
M  V30 742 C 68.6507 2.91248 3.13622 0
M  V30 743 C 67.9767 2.83312 4.53474 0
M  V30 744 C 69.2767 4.3214 2.93346 0
M  V30 745 H 70.9707 2.62263 1.44425 0
M  V30 746 H 68.5167 1.26208 0.693367 0
M  V30 747 H 70.4697 1.88749 3.76765 0
M  V30 748 H 69.1937 0.799871 3.16654 0
M  V30 749 H 67.8527 2.78404 2.38509 0
M  V30 750 H 67.5007 1.84902 4.67782 0
M  V30 751 H 67.2007 3.60465 4.64046 0
M  V30 752 H 68.7247 2.97775 5.33069 0
M  V30 753 H 70.1387 4.45649 3.60652 0
M  V30 754 H 68.5357 5.1054 3.15387 0
M  V30 755 H 69.6057 4.46363 1.89441 0
M  V30 756 N 70.9488 -0.749086 1.3866 0
M  V30 757 C 72.1788 -1.53611 1.38157 0
M  V30 758 C 72.5868 -1.89177 -0.0293595 0
M  V30 759 O 71.9298 -1.53606 -1.00752 0
M  V30 760 C 71.9918 -2.86087 2.17702 0
M  V30 761 C 71.6558 -2.73034 3.66472 0
M  V30 762 C 72.6528 -2.42526 4.59866 0
M  V30 763 C 70.3378 -2.90345 4.09884 0
M  V30 764 C 72.3318 -2.29492 5.94653 0
M  V30 765 C 70.0188 -2.7693 5.4475 0
M  V30 766 C 71.0168 -2.46547 6.36949 0
M  V30 767 O 70.7048 -2.33199 7.69333 0
M  V30 768 H 70.4368 -0.481773 0.474205 0
M  V30 769 H 72.9908 -0.934465 1.82912 0
M  V30 770 H 71.2208 -3.48458 1.67672 0
M  V30 771 H 72.9098 -3.47625 2.09551 0
M  V30 772 H 73.6758 -2.28816 4.27631 0
M  V30 773 H 69.5548 -3.1299 3.38464 0
M  V30 774 H 73.0988 -2.05698 6.66584 0
M  V30 775 H 68.9958 -2.90215 5.76581 0
M  V30 776 H 69.7638 -2.48376 7.79905 0
M  V30 777 N 72.4269 -1.23603 -0.977757 0
M  V30 778 C 73.6749 -1.06759 -1.71601 0
M  V30 779 C 73.9959 0.395929 -1.90938 0
M  V30 780 O 73.2659 1.28356 -1.47992 0
M  V30 781 H 71.8459 -0.392062 -0.635843 0
M  V30 782 H 74.5079 -1.55362 -1.1768 0
M  V30 783 H 73.6039 -1.55763 -2.70452 0
M  V30 784 N 73.905 1.17692 -1.04816 0
M  V30 785 C 75.133 1.91786 -0.776254 0
M  V30 786 C 75.548 1.76604 0.667577 0
M  V30 787 O 74.905 1.10067 1.45573 0
M  V30 788 C 74.956 3.42967 -1.14263 0
M  V30 789 O 74.677 3.57678 -2.52978 0
M  V30 790 C 76.178 4.34144 -0.896311 0
M  V30 791 H 73.398 0.608624 -0.282519 0
M  V30 792 H 75.942 1.49268 -1.39783 0
M  V30 793 H 74.097 3.83245 -0.565874 0
M  V30 794 H 74.511 4.51319 -2.67229 0
M  V30 795 H 75.985 5.38744 -1.20244 0
M  V30 796 H 76.462 4.38876 0.168636 0
M  V30 797 H 77.068 3.99574 -1.45672 0
M  V30 798 N 75.3831 0.828654 1.34056 0
M  V30 799 C 76.6301 0.419458 1.98108 0
M  V30 800 C 76.9581 -1.01886 1.65679 0
M  V30 801 O 76.2131 -1.72539 0.923512 0
M  V30 802 C 76.5121 0.575226 3.52741 0
M  V30 803 C 76.1781 1.98012 4.05095 0
M  V30 804 C 74.8401 2.36442 4.19104 0
M  V30 805 C 77.1921 2.89824 4.33188 0
M  V30 806 C 74.5201 3.66009 4.58535 0
M  V30 807 C 76.8721 4.1886 4.74066 0
M  V30 808 C 75.5361 4.5726 4.86281 0
M  V30 809 H 74.8061 0.153491 0.724929 0
M  V30 810 H 77.4531 1.05371 1.59904 0
M  V30 811 H 75.7581 -0.142385 3.91541 0
M  V30 812 H 77.4551 0.239057 4.00287 0
M  V30 813 H 74.0451 1.67162 3.94658 0
M  V30 814 H 78.2291 2.61375 4.21897 0
M  V30 815 H 73.4851 3.95579 4.66184 0
M  V30 816 H 77.6591 4.90086 4.94761 0
M  V30 817 H 75.2861 5.57707 5.16592 0
M  V30 818 N 76.8612 -1.46375 0.584142 0
M  V30 819 C 77.8082 -2.30323 -0.148286 0
M  V30 820 C 78.7782 -1.40703 -0.882713 0
M  V30 821 O 79.9632 -1.69651 -0.873099 0
M  V30 822 C 77.1032 -3.25196 -1.15507 0
M  V30 823 C 76.2162 -4.29915 -0.423943 0
M  V30 824 C 75.3512 -5.11914 -1.41838 0
M  V30 825 C 74.3902 -6.08381 -0.673736 0
M  V30 826 N 73.5272 -6.83242 -1.6163 0
M  V30 827 H 78.3672 -2.92427 0.573644 0
M  V30 828 H 75.9042 -1.44118 0.294703 0
M  V30 829 H 77.8622 -3.78646 -1.75166 0
M  V30 830 H 76.4922 -2.64898 -1.8447 0
M  V30 831 H 75.5442 -3.7931 0.287714 0
M  V30 832 H 76.8562 -4.98549 0.158128 0
M  V30 833 H 76.0102 -5.69648 -2.08773 0
M  V30 834 H 74.7492 -4.43243 -2.03438 0
M  V30 835 H 73.7542 -5.49799 0.00938483 0
M  V30 836 H 74.9792 -6.79071 -0.0631082 0
M  V30 837 H 72.9252 -6.1728 -2.22038 0
M  V30 838 H 72.8422 -7.48144 -1.08707 0
M  V30 839 H 74.1102 -7.45534 -2.27596 0
M  V30 840 N 78.3393 -0.321999 -1.54275 0
M  V30 841 C 79.6163 0.335232 -1.92706 0
M  V30 842 C 79.9963 1.70006 -1.25145 0
M  V30 843 O 79.3443 2.25067 -0.394596 0
M  V30 844 C 79.5543 0.429008 -3.46353 0
M  V30 845 C 80.9023 0.690029 -4.18956 0
M  V30 846 O 81.9263 0.511992 -3.52501 0
M  V30 847 O 80.7853 1.03338 -5.36641 0
M  V30 848 H 77.8793 0.191143 -0.804608 0
M  V30 849 H 80.4253 -0.3716 -1.65581 0
M  V30 850 H 79.1973 -0.529611 -3.87699 0
M  V30 851 H 78.8203 1.18348 -3.79578 0
M  V30 852 N 79.8174 1.5752 -0.0501392 0
M  V30 853 C 81.0644 1.9265 0.623874 0
M  V30 854 C 81.3924 0.928411 1.70912 0
M  V30 855 O 80.6474 -0.0594525 1.9561 0
M  V30 856 C 80.9464 3.34467 1.25963 0
M  V30 857 C 80.6124 4.49883 0.302689 0
M  V30 858 C 79.2744 4.81184 0.0393636 0
M  V30 859 C 81.6264 5.20002 -0.353205 0
M  V30 860 C 78.9544 5.79951 -0.887308 0
M  V30 861 C 81.3064 6.1976 -1.26806 0
M  V30 862 C 79.9704 6.49491 -1.54007 0
M  V30 863 H 79.2404 0.704957 0.228292 0
M  V30 864 H 81.8874 1.91146 -0.116398 0
M  V30 865 H 80.1924 3.32333 2.07514 0
M  V30 866 H 81.8894 3.58928 1.78806 0
M  V30 867 H 78.4794 4.25457 0.518109 0
M  V30 868 H 82.6634 4.96033 -0.162854 0
M  V30 869 H 77.9194 6.01322 -1.10553 0
M  V30 870 H 82.0934 6.73205 -1.78236 0
M  V30 871 H 79.7204 7.25837 -2.25976 0
M  V30 872 N 81.2955 -0.223234 1.56011 0
M  V30 873 C 82.5725 -0.972108 1.69733 0
M  V30 874 C 82.9525 -2.02485 0.59691 0
M  V30 875 O 82.3005 -2.25037 -0.396324 0
M  V30 876 C 82.5105 -1.58407 3.10979 0
M  V30 877 C 83.8585 -2.07696 3.70334 0
M  V30 878 O 84.8825 -1.68304 3.1393 0
M  V30 879 O 83.7415 -2.80096 4.69264 0
M  V30 880 H 80.8355 -0.453993 0.691245 0
M  V30 881 H 83.3815 -0.215149 1.68331 0
M  V30 882 H 82.1535 -0.823831 3.82529 0
M  V30 883 H 81.7765 -2.40661 3.16493 0
M  V30 884 N 82.7736 -1.49793 -0.48987 0
M  V30 885 C 84.0216 -1.59525 -1.24081 0
M  V30 886 C 84.3426 -0.288953 -1.92847 0
M  V30 887 O 83.6126 0.692436 -1.83254 0
M  V30 888 H 82.1926 -0.587796 -0.460983 0
M  V30 889 H 84.8546 -1.86477 -0.566778 0
M  V30 890 H 83.9506 -2.39696 -1.99881 0
M  V30 891 N 84.2517 0.741722 -1.39055 0
M  V30 892 C 85.4797 1.53098 -1.39171 0
M  V30 893 C 85.8947 1.88794 0.0155099 0
M  V30 894 O 85.2517 1.53626 0.985159 0
M  V30 895 C 85.3027 2.82274 -2.2584 0
M  V30 896 O 85.0237 2.48097 -3.61081 0
M  V30 897 C 86.5247 3.76343 -2.34266 0
M  V30 898 H 83.7447 0.473335 -0.4756 0
M  V30 899 H 86.2887 0.917045 -1.82785 0
M  V30 900 H 84.4437 3.40015 -1.85656 0
M  V30 901 H 84.8577 3.31029 -4.06842 0
M  V30 902 H 86.3317 4.63898 -2.9917 0
M  V30 903 H 86.8087 4.17619 -1.35982 0
M  V30 904 H 87.4147 3.24523 -2.74891 0
M  V30 905 N 85.7298 1.2412 0.971189 0
M  V30 906 C 86.9768 1.07881 1.71371 0
M  V30 907 C 87.3048 -0.382901 1.90694 0
M  V30 908 O 86.5598 -1.29945 1.46331 0
M  V30 909 C 86.8588 1.75983 3.11071 0
M  V30 910 C 86.5248 3.25909 3.11599 0
M  V30 911 C 85.1868 3.66813 3.11451 0
M  V30 912 C 87.5388 4.21771 3.062 0
M  V30 913 C 84.8668 5.02021 3.03631 0
M  V30 914 C 87.2188 5.56982 2.99923 0
M  V30 915 C 85.8828 5.97237 2.98102 0
M  V30 916 H 85.1528 0.394764 0.62709 0
M  V30 917 H 87.7998 1.54176 1.13587 0
M  V30 918 H 86.1048 1.22072 3.72298 0
M  V30 919 H 87.8018 1.60887 3.6731 0
M  V30 920 H 84.3918 2.93353 3.12477 0
M  V30 921 H 88.5758 3.91172 3.05447 0
M  V30 922 H 83.8318 5.32411 3.0058 0
M  V30 923 H 88.0058 6.30969 2.94704 0
M  V30 924 H 85.6328 7.01967 2.91798 0
M  V30 925 N 87.2079 -1.17134 1.05439 0
M  V30 926 C 88.4359 -1.91372 0.786414 0
M  V30 927 C 88.8509 -1.76955 -0.658202 0
M  V30 928 O 88.2079 -1.10838 -1.44987 0
M  V30 929 C 88.2589 -3.42356 1.1608 0
M  V30 930 O 87.9799 -3.56332 2.54871 0
M  V30 931 C 89.4809 -4.33663 0.919322 0
M  V30 932 H 86.7009 -0.607118 0.285743 0
M  V30 933 H 89.2449 -1.48525 1.40572 0
M  V30 934 H 87.3999 -3.82939 0.586191 0
M  V30 935 H 87.8139 -4.49896 2.69618 0
M  V30 936 H 89.2879 -5.38099 1.231 0
M  V30 937 H 89.7649 -4.38959 -0.145359 0
M  V30 938 H 90.3709 -3.98796 1.47789 0
M  V30 939 N 88.686 -0.835752 -1.33615 0
M  V30 940 C 89.933 -0.429959 -1.97883 0
M  V30 941 C 90.261 1.01006 -1.66217 0
M  V30 942 O 89.516 1.72047 -0.93265 0
M  V30 943 C 89.815 -0.593925 -3.52431 0
M  V30 944 C 89.481 -2.00158 -4.04039 0
M  V30 945 C 88.143 -2.38662 -4.17844 0
M  V30 946 C 90.495 -2.92117 -4.31644 0
M  V30 947 C 87.823 -3.68435 -4.56588 0
M  V30 948 C 90.175 -4.21368 -4.71838 0
M  V30 949 C 88.839 -4.59833 -4.83849 0
M  V30 950 H 88.109 -0.157333 -0.724104 0
M  V30 951 H 90.756 -1.06217 -1.59343 0
M  V30 952 H 89.061 0.121619 -3.91611 0
M  V30 953 H 90.758 -0.260282 -4.00154 0
M  V30 954 H 87.348 -1.69252 -3.93766 0
M  V30 955 H 91.532 -2.63608 -4.20505 0
M  V30 956 H 86.788 -3.98046 -4.64079 0
M  V30 957 H 90.962 -4.92703 -4.92155 0
M  V30 958 H 88.589 -5.60438 -5.13627 0
M  V30 959 N 90.1641 1.46063 -0.591896 0
M  V30 960 C 91.4411 1.95595 -0.0137119 0
M  V30 961 C 91.8211 1.5345 1.4497 0
M  V30 962 O 91.1691 0.789543 2.14426 0
M  V30 963 C 91.3791 3.48453 -0.195373 0
M  V30 964 C 92.7271 4.24546 -0.0679765 0
M  V30 965 O 93.7511 3.55982 -0.124681 0
M  V30 966 O 92.6101 5.46467 0.0600579 0
M  V30 967 H 89.7041 0.825795 0.0446279 0
M  V30 968 H 92.2501 1.56303 -0.660859 0
M  V30 969 H 91.0221 3.72045 -1.21235 0
M  V30 970 H 90.6451 3.94597 0.487775 0
M  V30 971 N 91.6422 0.330177 1.54103 0
M  V30 972 C 92.5522 -0.541534 2.28264 0
M  V30 973 C 93.5682 -1.12351 1.32866 0
M  V30 974 O 94.7442 -1.14206 1.65888 0
M  V30 975 C 91.8092 -1.68322 3.03098 0
M  V30 976 C 90.8702 -1.13238 4.14096 0
M  V30 977 C 90.1032 -2.21966 4.85352 0
M  V30 978 O 90.3262 -3.42437 4.56172 0
M  V30 979 O 89.2602 -1.87013 5.7211 0
M  V30 980 H 93.0862 0.060938 3.03639 0
M  V30 981 H 90.6712 0.09565 1.49093 0
M  V30 982 H 92.5532 -2.34777 3.49939 0
M  V30 983 H 91.2282 -2.27176 2.30593 0
M  V30 984 H 90.1352 -0.432736 3.71589 0
M  V30 985 H 91.4682 -0.588898 4.88664 0
M  V30 986 N 93.1203 -1.57491 0.0584922 0
M  V30 987 C 94.0673 -2.11958 -0.913376 0
M  V30 988 C 95.0373 -1.02875 -1.30407 0
M  V30 989 O 96.2223 -1.30464 -1.39226 0
M  V30 990 C 93.3623 -2.67497 -2.18035 0
M  V30 991 C 92.4753 -3.90691 -1.84349 0
M  V30 992 C 91.6103 -4.3452 -3.05559 0
M  V30 993 C 90.6493 -5.50395 -2.67827 0
M  V30 994 N 89.7863 -5.89244 -3.81754 0
M  V30 995 H 94.6263 -2.94704 -0.442017 0
M  V30 996 H 92.1633 -1.45643 -0.206545 0
M  V30 997 H 94.1213 -2.978 -2.92183 0
M  V30 998 H 92.7513 -1.87537 -2.62735 0
M  V30 999 H 91.8033 -3.66934 -1.00319 0
M  V30 1000 H 93.1153 -4.7489 -1.5258 0
M  V30 1001 H 92.2693 -4.66414 -3.87998 0
M  V30 1002 H 91.0083 -3.49147 -3.40511 0
M  V30 1003 H 90.0133 -5.18165 -1.83806 0
M  V30 1004 H 91.2383 -6.3749 -2.34059 0
M  V30 1005 H 89.1843 -5.06823 -4.16493 0
M  V30 1006 H 89.1013 -6.68151 -3.53708 0
M  V30 1007 H 90.3693 -6.25756 -4.64811 0
M  V30 1008 N 94.5984 0.214957 -1.56127 0
M  V30 1009 C 95.5464 1.28601 -1.93816 0
M  V30 1010 C 96.5404 1.48175 -0.821016 0
M  V30 1011 O 97.7464 1.49271 -1.0059 0
M  V30 1012 H 94.1214 0.431302 -0.616022 0
M  V30 1013 H 96.0924 0.940991 -2.83175 0
M  V30 1014 C 94.8414 2.62779 -2.27689 0
M  V30 1015 H 94.1644 2.48527 -3.13168 0
M  V30 1016 H 95.6044 3.36517 -2.57939 0
M  V30 1017 C 94.0634 3.18285 -1.10436 0
M  V30 1018 O 94.5934 4.00002 -0.368945 0
M  V30 1019 N 92.7994 2.7675 -0.886433 0
M  V30 1020 H 92.3464 2.10404 -1.48619 0
M  V30 1021 H 92.3044 3.14229 -0.103656 0
M  V30 1022 N 96.0765 1.50051 0.48192 0
M  V30 1023 C 97.4875 1.5348 1.06305 0
M  V30 1024 C 97.8385 0.331997 1.93371 0
M  V30 1025 O 96.9635 -0.556256 2.09129 0
M  V30 1026 C 97.5585 2.7813 1.93466 0
M  V30 1027 C 96.1175 2.84275 2.46707 0
M  V30 1028 C 95.2645 2.47637 1.24785 0
M  V30 1029 H 98.2155 1.56472 0.264995 0
M  V30 1030 H 98.2365 2.59372 2.78399 0
M  V30 1031 H 97.7485 3.65654 1.30072 0
M  V30 1032 H 95.8495 2.01077 3.13686 0
M  V30 1033 H 95.9625 3.8691 2.82555 0
M  V30 1034 H 94.3265 1.99835 1.57918 0
M  V30 1035 H 95.1095 3.37457 0.630694 0
M  V30 1036 N 97.5546 -0.734337 1.39446 0
M  V30 1037 C 98.5176 -1.83004 1.37994 0
M  V30 1038 C 99.5176 -1.58397 0.276938 0
M  V30 1039 O 100.708 -1.65785 0.534875 0
M  V30 1040 C 97.8396 -3.20802 1.1532 0
M  V30 1041 H 99.0326 -1.85694 2.35494 0
M  V30 1042 H 96.5856 -0.938059 1.25021 0
M  V30 1043 H 97.3206 -3.23772 0.185036 0
M  V30 1044 H 97.1056 -3.4006 1.95197 0
M  V30 1045 H 98.5956 -4.00862 1.17046 0
M  V30 1046 N 99.0327 -1.24633 -0.964593 0
M  V30 1047 C 99.9957 -1.0424 -2.04124 0
M  V30 1048 C 100.996 0.00137563 -1.608 0
M  V30 1049 O 102.186 -0.239883 -1.7254 0
M  V30 1050 C 99.3177 -0.580588 -3.3592 0
M  V30 1051 H 100.511 -1.99803 -2.23649 0
M  V30 1052 H 98.0637 -1.06899 -1.14027 0
M  V30 1053 H 98.7987 0.3781 -3.22088 0
M  V30 1054 H 98.5837 -1.33398 -3.6871 0
M  V30 1055 H 100.074 -0.459034 -4.15069 0
M  V30 1056 N 100.511 1.16574 -1.06058 0
M  V30 1057 C 101.788 1.83048 -0.689416 0
M  V30 1058 C 102.168 1.94122 0.829443 0
M  V30 1059 O 101.516 1.48249 1.7388 0
M  V30 1060 C 101.726 3.20186 -1.38859 0
M  V30 1061 C 103.074 3.95989 -1.53226 0
M  V30 1062 O 104.098 3.29696 -1.3483 0
M  V30 1063 O 102.957 5.14813 -1.83384 0
M  V30 1064 H 100.051 0.790258 -0.243764 0
M  V30 1065 H 102.597 1.23797 -1.16071 0
M  V30 1066 H 101.369 3.07146 -2.4244 0
M  V30 1067 H 100.992 3.87112 -0.907216 0
M  V30 1068 N 101.989 0.842826 1.3317 0
M  V30 1069 C 102.936 0.276885 2.29133 0
M  V30 1070 C 103.906 -0.609527 1.54512 0
M  V30 1071 O 105.091 -0.546955 1.82792 0
M  V30 1072 C 102.231 -0.538707 3.40869 0
M  V30 1073 C 101.344 0.372169 4.30394 0
M  V30 1074 C 100.479 -0.454908 5.29249 0
M  V30 1075 C 99.5179 0.45411 6.10413 0
M  V30 1076 N 98.6549 -0.335075 7.013 0
M  V30 1077 H 103.495 1.10052 2.76934 0
M  V30 1078 H 101.032 0.554161 1.36262 0
M  V30 1079 H 102.99 -1.02709 4.0436 0
M  V30 1080 H 101.62 -1.32727 2.9425 0
M  V30 1081 H 100.672 0.97888 3.6759 0
M  V30 1082 H 101.984 1.0703 4.87182 0
M  V30 1083 H 101.138 -1.00695 5.98285 0
M  V30 1084 H 99.8769 -1.18646 4.73048 0
M  V30 1085 H 98.8819 1.01813 5.40291 0
M  V30 1086 H 100.107 1.18409 6.68697 0
M  V30 1087 H 98.0529 -1.04994 6.47543 0
M  V30 1088 H 97.9699 0.304262 7.55387 0
M  V30 1089 H 99.2379 -0.869224 7.74638 0
M  V30 1090 N 103.467 -1.45747 0.599634 0
M  V30 1091 C 104.713 -2.02592 0.0918643 0
M  V30 1092 C 105.046 -1.46806 -1.27128 0
M  V30 1093 O 104.321 -0.639658 -1.83681 0
M  V30 1094 C 104.604 -3.60073 0.0443398 0
M  V30 1095 C 104.457 -4.26208 1.43759 0
M  V30 1096 C 105.776 -4.35309 -0.647608 0
M  V30 1097 H 102.895 -0.736175 0.034857 0
M  V30 1098 H 105.537 -1.73694 0.770081 0
M  V30 1099 H 103.687 -3.84823 -0.533224 0
M  V30 1100 H 105.359 -4.12668 2.06162 0
M  V30 1101 H 103.602 -3.84916 2.00056 0
M  V30 1102 H 104.273 -5.35069 1.35665 0
M  V30 1103 H 106.749 -4.15805 -0.156776 0
M  V30 1104 H 105.625 -5.45038 -0.649942 0
M  V30 1105 H 105.886 -4.07598 -1.71219 0
M  V30 1106 N 104.945 -0.338344 -1.53925 0
M  V30 1107 C 105.893 0.536231 -2.26335 0
M  V30 1108 C 106.887 1.1063 -1.28286 0
M  V30 1109 O 108.093 1.05264 -1.46012 0
M  V30 1110 H 104.468 0.191602 -0.727181 0
M  V30 1111 H 106.439 -0.0965747 -2.98244 0
M  V30 1112 C 105.188 1.67803 -3.04528 0
M  V30 1113 H 104.511 1.24864 -3.79801 0
M  V30 1114 H 105.951 2.26526 -3.58416 0
M  V30 1115 C 104.41 2.60439 -2.13712 0
M  V30 1116 O 104.94 3.6255 -1.72975 0
M  V30 1117 N 103.146 2.29006 -1.78898 0
M  V30 1118 H 102.693 1.46011 -2.12223 0
M  V30 1119 H 102.651 2.91248 -1.18416 0
M  V30 1120 N 106.423 1.57458 -0.0668435 0
M  V30 1121 C 107.669 1.93587 0.6043 0
M  V30 1122 C 108.002 0.946722 1.69561 0
M  V30 1123 O 107.277 -0.0248516 1.94484 0
M  V30 1124 C 107.56 3.40014 1.18585 0
M  V30 1125 C 107.413 4.49685 0.101529 0
M  V30 1126 C 108.732 3.87154 2.09284 0
M  V30 1127 H 105.851 0.703958 0.218202 0
M  V30 1128 H 108.493 1.89542 -0.131804 0
M  V30 1129 H 106.643 3.43592 1.81319 0
M  V30 1130 H 108.315 4.5823 -0.531279 0
M  V30 1131 H 106.558 4.30059 -0.568487 0
M  V30 1132 H 107.229 5.49266 0.54874 0
M  V30 1133 H 109.705 3.85551 1.56491 0
M  V30 1134 H 108.581 4.90231 2.46911 0
M  V30 1135 H 108.842 3.2481 2.99918 0
M  V30 1136 N 107.901 -0.206675 1.56239 0
M  V30 1137 C 109.129 -0.945345 1.8404 0
M  V30 1138 C 109.544 -1.77336 0.647885 0
M  V30 1139 O 108.901 -1.78425 -0.383511 0
M  V30 1140 C 108.952 -1.8509 3.10522 0
M  V30 1141 O 108.673 -1.05634 4.25174 0
M  V30 1142 C 110.174 -2.70222 3.51418 0
M  V30 1143 H 107.394 -0.276372 0.61144 0
M  V30 1144 H 109.938 -0.217417 2.03341 0
M  V30 1145 H 108.093 -2.53259 2.93153 0
M  V30 1146 H 108.507 -1.67238 4.97124 0
M  V30 1147 H 109.981 -3.29438 4.42916 0
M  V30 1148 H 110.458 -3.43358 2.73864 0
M  V30 1149 H 111.064 -2.07443 3.71278 0
M  V30 1150 N 109.379 -1.50304 -0.473955 0
M  V30 1151 C 110.628 -1.60392 -1.22301 0
M  V30 1152 C 110.941 -0.308411 -1.93153 0
M  V30 1153 O 112.147 -0.288156 -2.69966 0
M  V30 1154 C 110.603 -2.83109 -2.2221 0
M  V30 1155 C 110.211 -4.19524 -1.57173 0
M  V30 1156 C 111.955 -3.0254 -2.97775 0
M  V30 1157 C 109.862 -5.33431 -2.55353 0
M  V30 1158 H 108.792 -0.597286 -0.460179 0
M  V30 1159 H 111.443 -1.76731 -0.493803 0
M  V30 1160 H 109.825 -2.60322 -2.9841 0
M  V30 1161 H 110.999 -4.52554 -0.867824 0
M  V30 1162 H 109.314 -4.05674 -0.939002 0
M  V30 1163 H 111.911 -3.84811 -3.71248 0
M  V30 1164 H 112.254 -2.14154 -3.56992 0
M  V30 1165 H 112.787 -3.25494 -2.28688 0
M  V30 1166 H 109.526 -6.23962 -2.00878 0
M  V30 1167 H 109.046 -5.04823 -3.23904 0
M  V30 1168 H 110.725 -5.63887 -3.17239 0
M  V30 1169 N 110.857 0.726932 -1.39834 0
M  V30 1170 C 111.805 1.86235 -1.39353 0
M  V30 1171 C 112.799 1.67144 -0.275555 0
M  V30 1172 O 114.005 1.74387 -0.44601 0
M  V30 1173 H 110.38 0.613174 -0.43534 0
M  V30 1174 H 112.351 1.83756 -2.35109 0
M  V30 1175 C 111.1 3.23995 -1.26185 0
M  V30 1176 H 110.423 3.39285 -2.11484 0
M  V30 1177 H 111.863 4.03609 -1.29907 0
M  V30 1178 C 110.322 3.36888 0.0290018 0
M  V30 1179 O 110.852 3.89152 0.99619 0
M  V30 1180 N 109.058 2.90446 0.0947437 0
M  V30 1181 H 108.605 2.48102 -0.693035 0
M  V30 1182 H 108.563 2.99451 0.957932 0
M  V30 1183 N 112.336 1.25143 0.95797 0
M  V30 1184 C 113.564 1.12424 1.73691 0
M  V30 1185 C 113.979 -0.322304 1.86029 0
M  V30 1186 O 113.336 -1.22186 1.35561 0
M  V30 1187 C 113.387 1.76933 3.15241 0
M  V30 1188 O 113.108 3.15932 3.03511 0
M  V30 1189 C 114.609 1.6995 4.09429 0
M  V30 1190 H 111.829 0.3923 0.544373 0
M  V30 1191 H 114.373 1.6544 1.20207 0
M  V30 1192 H 112.528 1.27895 3.6568 0
M  V30 1193 H 112.942 3.47598 3.9278 0
M  V30 1194 H 114.416 2.19753 5.06372 0
M  V30 1195 H 114.893 0.662619 4.34173 0
M  V30 1196 H 115.499 2.18461 3.64904 0
M  V30 1197 N 113.814 -1.1601 1.06675 0
M  V30 1198 C 115.042 -1.90527 0.806667 0
M  V30 1199 C 115.457 -1.77643 -0.639396 0
M  V30 1200 O 114.814 -1.12369 -1.43803 0
M  V30 1201 C 114.865 -3.41106 1.19705 0
M  V30 1202 O 114.586 -3.53608 2.58636 0
M  V30 1203 C 116.087 -4.32663 0.965266 0
M  V30 1204 H 113.307 -0.604053 0.292166 0
M  V30 1205 H 115.851 -1.47026 1.4214 0
M  V30 1206 H 114.006 -3.82296 0.626774 0
M  V30 1207 H 114.42 -4.47011 2.74375 0
M  V30 1208 H 115.894 -5.36763 1.288 0
M  V30 1209 H 116.371 -4.39089 -0.0987936 0
M  V30 1210 H 116.977 -3.97206 1.52011 0
M  V30 1211 N 115.292 -0.849877 -1.32721 0
M  V30 1212 C 116.517 -0.463856 -2.02146 0
M  V30 1213 C 116.942 0.930449 -1.63476 0
M  V30 1214 O 116.3 1.61033 -0.832952 0
M  V30 1215 C 116.348 -0.604955 -3.55489 0
M  V30 1216 O 115.452 0.36425 -4.10788 0
M  V30 1217 H 114.793 -0.187046 -0.637111 0
M  V30 1218 H 117.323 -1.14775 -1.69375 0
M  V30 1219 H 117.333 -0.490696 -4.05038 0
M  V30 1220 H 116.008 -1.62174 -3.82978 0
M  V30 1221 H 114.585 0.206628 -3.72327 0
M  V30 1222 N 116.77 1.45427 -0.607355 0
M  V30 1223 C 118.016 2.0254 -0.102607 0
M  V30 1224 C 118.349 1.47478 1.26348 0
M  V30 1225 O 117.624 0.64939 1.83339 0
M  V30 1226 C 117.907 3.60044 -0.0634347 0
M  V30 1227 C 117.76 4.2544 -1.46017 0
M  V30 1228 C 119.079 4.35646 0.624514 0
M  V30 1229 H 116.198 0.73598 -0.0387607 0
M  V30 1230 H 118.84 1.73284 -0.779282 0
M  V30 1231 H 116.99 3.85101 0.512808 0
M  V30 1232 H 118.662 4.11569 -2.08347 0
M  V30 1233 H 116.905 3.83849 -2.02094 0
M  V30 1234 H 117.576 5.34342 -1.385 0
M  V30 1235 H 120.052 4.15882 0.134723 0
M  V30 1236 H 118.928 5.45376 0.621028 0
M  V30 1237 H 119.189 4.08501 1.69055 0
M  V30 1238 N 118.248 0.346503 1.53744 0
M  V30 1239 C 119.525 -0.304532 1.93215 0
M  V30 1240 C 119.905 -1.67993 1.27834 0
M  V30 1241 O 119.253 -2.24411 0.430352 0
M  V30 1242 C 119.463 -0.373852 3.46992 0
M  V30 1243 C 120.811 -0.62329 4.2 0
M  V30 1244 O 121.835 -0.455847 3.53271 0
M  V30 1245 O 120.694 -0.947879 5.38217 0
M  V30 1246 H 117.788 -0.178318 0.807547 0
M  V30 1247 H 120.334 0.397895 1.64969 0
M  V30 1248 H 119.106 0.591224 3.86808 0
M  V30 1249 H 118.729 -1.12294 3.81413 0
M  V30 1250 N 119.726 -1.57421 0.075193 0
M  V30 1251 C 120.954 -1.97946 -0.602076 0
M  V30 1252 C 121.369 -0.953674 -1.62943 0
M  V30 1253 O 120.726 0.0592551 -1.82404 0
M  V30 1254 C 120.777 -3.38546 -1.26762 0
M  V30 1255 O 120.498 -4.37195 -0.281376 0
M  V30 1256 C 121.999 -3.93966 -2.03239 0
M  V30 1257 H 119.219 -0.650918 -0.162931 0
M  V30 1258 H 121.763 -2.03959 0.148601 0
M  V30 1259 H 119.918 -3.33609 -1.96936 0
M  V30 1260 H 120.332 -5.18975 -0.759267 0
M  V30 1261 H 121.806 -4.94555 -2.45193 0
M  V30 1262 H 122.283 -3.30693 -2.8903 0
M  V30 1263 H 122.889 -4.02315 -1.37924 0
M  V30 1264 N 121.204 0.198386 -1.56346 0
M  V30 1265 C 122.152 1.26538 -1.95169 0
M  V30 1266 C 123.146 1.47295 -0.836685 0
M  V30 1267 O 124.352 1.48195 -1.02167 0
M  V30 1268 H 120.727 0.424744 -0.620561 0
M  V30 1269 H 122.698 0.910904 -2.84157 0
M  V30 1270 C 121.447 2.6035 -2.30463 0
M  V30 1271 H 120.77 2.45192 -3.15786 0
M  V30 1272 H 122.21 3.33762 -2.61494 0
M  V30 1273 C 120.669 3.17096 -1.13806 0
M  V30 1274 O 121.199 3.99588 -0.41135 0
M  V30 1275 N 119.405 2.75795 -0.915736 0
M  V30 1276 H 118.952 2.08816 -1.50843 0
M  V30 1277 H 118.91 3.14101 -0.136979 0
M  V30 1278 N 122.682 1.50554 0.465978 0
M  V30 1279 C 123.632 1.66177 1.56106 0
M  V30 1280 C 124.616 0.516265 1.52393 0
M  V30 1281 O 125.808 0.770906 1.5933 0
M  V30 1282 C 122.937 1.76396 2.94515 0
M  V30 1283 C 122.023 2.9664 3.03093 0
M  V30 1284 N 122.414 4.20245 2.81474 0
M  V30 1285 C 120.712 2.95304 3.34233 0
M  V30 1286 C 121.413 5.01259 2.95151 0
M  V30 1287 N 120.389 4.35318 3.25576 0
M  V30 1288 H 124.191 2.59434 1.38099 0
M  V30 1289 H 121.705 1.47808 0.6728 0
M  V30 1290 H 123.702 1.85694 3.73261 0
M  V30 1291 H 122.362 0.843017 3.13565 0
M  V30 1292 H 123.373 4.4966 2.56956 0
M  V30 1293 H 120.05 2.12729 3.59239 0
M  V30 1294 H 121.44 6.09564 2.82632 0
M  V30 1295 N 124.16 -0.719506 1.40217 0
M  V30 1296 C 125.123 -1.8153 1.39927 0
M  V30 1297 C 126.123 -1.58095 0.293723 0
M  V30 1298 O 127.313 -1.65209 0.552429 0
M  V30 1299 C 124.445 -3.19561 1.18716 0
M  V30 1300 H 125.638 -1.83186 2.37451 0
M  V30 1301 H 123.191 -0.924746 1.26008 0
M  V30 1302 H 123.926 -3.23557 0.219366 0
M  V30 1303 H 123.711 -3.3797 1.98793 0
M  V30 1304 H 125.201 -3.99598 1.21291 0
M  V30 1305 N 125.638 -1.25649 -0.95132 0
M  V30 1306 C 126.548 -1.08073 -2.08224 0
M  V30 1307 C 127.564 -0.0169666 -1.73992 0
M  V30 1308 O 128.74 -0.218593 -2.0021 0
M  V30 1309 C 125.805 -0.704922 -3.39458 0
M  V30 1310 C 124.866 -1.84699 -3.87537 0
M  V30 1311 C 124.099 -1.48902 -5.12508 0
M  V30 1312 O 124.322 -0.386156 -5.69091 0
M  V30 1313 O 123.256 -2.32033 -5.55378 0
M  V30 1314 H 127.082 -2.02924 -2.25954 0
M  V30 1315 H 124.667 -1.04618 -1.06656 0
M  V30 1316 H 126.549 -0.507609 -4.18332 0
M  V30 1317 H 125.224 0.214291 -3.2299 0
M  V30 1318 H 124.131 -2.09919 -3.09653 0
M  V30 1319 H 125.464 -2.74557 -4.08509 0
M  V30 1320 N 127.117 1.15442 -1.07289 0
M  V30 1321 C 128.533 1.38201 -0.798288 0
M  V30 1322 C 128.733 1.92429 0.597769 0
M  V30 1323 O 127.789 2.12962 1.3566 0
M  V30 1324 C 129.102 2.35357 -1.87156 0
M  V30 1325 C 130.65 2.49021 -1.89624 0
M  V30 1326 C 131.125 3.49468 -2.96034 0
M  V30 1327 N 132.616 3.57003 -2.95132 0
M  V30 1328 C 133.351 4.34543 -3.74112 0
M  V30 1329 N 132.847 5.15421 -4.6294 0
M  V30 1330 N 134.64 4.29625 -3.62462 0
M  V30 1331 H 126.791 0.78584 -1.97328 0
M  V30 1332 H 129.054 0.408065 -0.855679 0
M  V30 1333 H 128.76 2.02626 -2.87464 0
M  V30 1334 H 128.634 3.35129 -1.73114 0
M  V30 1335 H 131.021 2.81051 -0.899687 0
M  V30 1336 H 131.102 1.4925 -2.07745 0
M  V30 1337 H 130.746 3.18173 -3.95889 0
M  V30 1338 H 130.676 4.48992 -2.75161 0
M  V30 1339 H 133.167 2.99276 -2.30743 0
M  V30 1340 H 133.48 5.7183 -5.19837 0
M  V30 1341 H 131.825 5.14729 -4.66989 0
M  V30 1342 H 135.016 3.65505 -2.92444 0
M  V30 1343 H 135.189 4.89807 -4.24256 0
M  V30 1344 N 128.595 0.856903 1.32268 0
M  V30 1345 C 129.872 0.382583 1.91822 0
M  V30 1346 C 130.252 -1.13407 1.78051 0
M  V30 1347 O 129.6 -1.95673 1.18001 0
M  V30 1348 C 129.81 0.849446 3.38505 0
M  V30 1349 C 131.158 0.867936 4.15634 0
M  V30 1350 O 132.182 0.794232 3.47232 0
M  V30 1351 O 131.041 0.972286 5.37781 0
M  V30 1352 H 128.135 0.112014 0.819379 0
M  V30 1353 H 130.681 0.943952 1.41024 0
M  V30 1354 H 129.453 1.89267 3.42482 0
M  V30 1355 H 129.076 0.265652 3.96712 0
M  V30 1356 N 130.073 -1.45103 0.615059 0
M  V30 1357 C 131.02 -2.30586 -0.0993978 0
M  V30 1358 C 131.99 -1.42544 -0.852669 0
M  V30 1359 O 133.175 -1.71465 -0.836917 0
M  V30 1360 C 130.315 -3.27572 -1.08583 0
M  V30 1361 C 129.428 -4.30717 -0.332656 0
M  V30 1362 C 128.563 -5.14807 -1.30947 0
M  V30 1363 C 127.602 -6.09673 -0.544538 0
M  V30 1364 N 126.739 -6.86517 -1.47101 0
M  V30 1365 H 131.579 -2.91144 0.635542 0
M  V30 1366 H 129.116 -1.4346 0.325206 0
M  V30 1367 H 131.074 -3.82276 -1.67095 0
M  V30 1368 H 129.704 -2.68751 -1.78809 0
M  V30 1369 H 128.756 -3.78615 0.368107 0
M  V30 1370 H 130.068 -4.98102 0.263842 0
M  V30 1371 H 129.222 -5.73948 -1.96643 0
M  V30 1372 H 127.961 -4.47458 -1.9399 0
M  V30 1373 H 126.966 -5.49656 0.126003 0
M  V30 1374 H 128.191 -6.79052 0.080947 0
M  V30 1375 H 126.137 -6.21851 -2.08895 0
M  V30 1376 H 126.054 -7.50281 -0.928137 0
M  V30 1377 H 127.322 -7.50194 -2.11731 0
M  V30 1378 N 131.551 -0.354651 -1.53558 0
M  V30 1379 C 132.501 0.513179 -2.2215 0
M  V30 1380 C 133.485 1.05734 -1.21281 0
M  V30 1381 O 134.677 0.989202 -1.46778 0
M  V30 1382 C 131.806 1.65798 -3.00609 0
M  V30 1383 C 130.892 1.12722 -4.08845 0
M  V30 1384 N 131.283 0.318563 -5.04796 0
M  V30 1385 C 129.581 1.40307 -4.23356 0
M  V30 1386 C 130.282 0.0292224 -5.81693 0
M  V30 1387 N 129.258 0.623891 -5.40008 0
M  V30 1388 H 133.06 -0.111586 -2.93688 0
M  V30 1389 H 130.574 -0.162091 -1.61589 0
M  V30 1390 H 132.571 2.29176 -3.48258 0
M  V30 1391 H 131.231 2.28591 -2.306 0
M  V30 1392 H 132.242 -0.0413091 -5.17884 0
M  V30 1393 H 128.919 2.03458 -3.6457 0
M  V30 1394 H 130.309 -0.623808 -6.68998 0
M  V30 1395 N 133.029 1.57378 -0.0835403 0
M  V30 1396 C 133.959 2.1641 0.87686 0
M  V30 1397 C 134.94 1.09429 1.30228 0
M  V30 1398 O 136.125 1.37516 1.37124 0
M  V30 1399 C 133.255 2.73517 2.14022 0
M  V30 1400 C 132.209 3.85769 1.85381 0
M  V30 1401 C 131.535 4.29529 3.18448 0
M  V30 1402 C 132.835 5.09486 1.14984 0
M  V30 1403 H 134.529 2.96914 0.385059 0
M  V30 1404 H 132.075 1.42823 0.18377 0
M  V30 1405 H 134.028 3.13463 2.81636 0
M  V30 1406 H 132.752 1.90252 2.65465 0
M  V30 1407 H 131.411 3.46345 1.20169 0
M  V30 1408 H 131.059 3.43169 3.67755 0
M  V30 1409 H 130.759 5.05204 3.00071 0
M  V30 1410 H 132.283 4.72099 3.8724 0
M  V30 1411 H 133.697 5.46674 1.72687 0
M  V30 1412 H 132.094 5.90515 1.06826 0
M  V30 1413 H 133.164 4.84724 0.130749 0
M  V30 1414 N 134.507 -0.190092 1.56449 0
M  V30 1415 C 135.923 -0.54113 1.50146 0
M  V30 1416 C 136.123 -1.85603 0.784465 0
M  V30 1417 O 135.179 -2.5024 0.337051 0
M  V30 1418 C 136.492 -0.591241 2.9483 0
M  V30 1419 C 138.04 -0.679732 3.0553 0
M  V30 1420 C 138.515 -0.760908 4.51635 0
M  V30 1421 N 140.006 -0.824302 4.55806 0
M  V30 1422 C 140.741 -0.907365 5.66175 0
M  V30 1423 N 140.237 -0.952422 6.86222 0
M  V30 1424 N 142.03 -0.94494 5.541 0
M  V30 1425 H 134.181 0.67235 2.01478 0
M  V30 1426 H 136.444 0.240127 0.917084 0
M  V30 1427 H 136.15 0.305905 3.50367 0
M  V30 1428 H 136.024 -1.44422 3.48457 0
M  V30 1429 H 138.411 -1.56731 2.50039 0
M  V30 1430 H 138.492 0.199549 2.5502 0
M  V30 1431 H 138.136 0.122336 5.07753 0
M  V30 1432 H 138.066 -1.65606 4.99882 0
M  V30 1433 H 140.557 -0.798526 3.69367 0
M  V30 1434 H 140.87 -1.01645 7.66086 0
M  V30 1435 H 139.215 -0.921014 6.8887 0
M  V30 1436 H 142.406 -0.906612 4.59236 0
M  V30 1437 H 142.579 -1.00622 6.4014 0
M  V30 1438 N 135.985 -1.50799 -0.457987 0
M  V30 1439 C 137.21 -1.66496 -1.23668 0
M  V30 1440 C 137.635 -0.353288 -1.84752 0
M  V30 1441 O 136.993 0.684346 -1.67888 0
M  V30 1442 C 137.041 -2.76763 -2.3116 0
M  V30 1443 O 136.145 -2.38928 -3.36136 0
M  V30 1444 H 135.486 -0.555828 -0.363252 0
M  V30 1445 H 138.016 -1.9725 -0.543474 0
M  V30 1446 H 138.026 -3.00232 -2.76269 0
M  V30 1447 H 136.701 -3.71954 -1.86073 0
M  V30 1448 H 135.278 -2.25953 -2.96647 0
M  V30 1449 N 137.463 0.71206 -1.40597 0
M  V30 1450 C 138.426 1.80785 -1.40888 0
M  V30 1451 C 139.426 1.57937 -0.302103 0
M  V30 1452 O 140.616 1.64913 -0.561182 0
M  V30 1453 C 137.748 3.18927 -1.20409 0
M  V30 1454 H 138.941 1.81924 -2.38419 0
M  V30 1455 H 136.494 0.91805 -1.26497 0
M  V30 1456 H 137.229 3.23436 -0.236522 0
M  V30 1457 H 137.014 3.36911 -2.00582 0
M  V30 1458 H 138.504 3.98949 -1.23408 0
M  V30 1459 N 138.941 1.26152 0.944643 0
M  V30 1460 C 140.218 1.02247 1.66748 0
M  V30 1461 C 140.598 -0.448202 2.06287 0
M  V30 1462 O 139.946 -1.42779 1.78399 0
M  V30 1463 C 140.156 1.96788 2.88228 0
M  V30 1464 C 141.504 2.25201 3.59958 0
M  V30 1465 O 142.528 1.94626 2.98327 0
M  V30 1466 O 141.387 2.77242 4.70956 0
M  V30 1467 H 138.481 0.388517 0.730057 0
M  V30 1468 H 141.027 1.37348 0.99668 0
M  V30 1469 H 139.799 2.96047 2.55875 0
M  V30 1470 H 139.422 1.62145 3.63035 0
M  V30 1471 N 140.419 -1.14872 1.07899 0
M  V30 1472 C 141.666 -1.85789 0.805532 0
M  V30 1473 C 141.994 -1.82649 -0.668561 0
M  V30 1474 O 141.249 -1.24858 -1.50695 0
M  V30 1475 C 141.548 -3.34223 1.26609 0
M  V30 1476 C 141.214 -3.57555 2.74709 0
M  V30 1477 C 139.876 -3.63631 3.1516 0
M  V30 1478 C 142.228 -3.66803 3.70277 0
M  V30 1479 C 139.556 -3.76473 4.49983 0
M  V30 1480 C 141.908 -3.8117 5.04869 0
M  V30 1481 C 140.572 -3.85494 5.44932 0
M  V30 1482 H 139.842 -0.679849 0.294765 0
M  V30 1483 H 142.489 -1.3572 1.35101 0
M  V30 1484 H 140.794 -3.86536 0.640103 0
M  V30 1485 H 142.491 -3.87511 1.03132 0
M  V30 1486 H 139.081 -3.5347 2.42398 0
M  V30 1487 H 143.265 -3.61404 3.40149 0
M  V30 1488 H 138.521 -3.7808 4.80484 0
M  V30 1489 H 142.695 -3.87268 5.78789 0
M  V30 1490 H 140.322 -3.95197 6.49403 0
M  V30 1491 N 141.898 -0.863906 -1.31812 0
M  V30 1492 C 142.828 -0.330843 -2.31144 0
M  V30 1493 C 143.809 0.575005 -1.60087 0
M  V30 1494 O 144.994 0.493304 -1.8783 0
M  V30 1495 C 142.124 0.47374 -3.44054 0
M  V30 1496 C 141.078 -0.338481 -4.26659 0
M  V30 1497 C 140.404 0.591412 -5.31419 0
M  V30 1498 C 141.704 -1.56926 -4.98168 0
M  V30 1499 H 143.398 -1.16086 -2.75979 0
M  V30 1500 H 140.944 -0.559657 -1.32679 0
M  V30 1501 H 142.897 0.857143 -4.12591 0
M  V30 1502 H 141.621 1.33721 -2.9797 0
M  V30 1503 H 140.28 -0.703754 -3.59782 0
M  V30 1504 H 139.928 1.45199 -4.81587 0
M  V30 1505 H 139.628 0.0519022 -5.87577 0
M  V30 1506 H 141.152 0.97179 -6.02817 0
M  V30 1507 H 142.566 -1.25764 -5.59336 0
M  V30 1508 H 140.963 -2.04739 -5.64094 0
M  V30 1509 H 142.033 -2.32544 -4.25501 0
M  V30 1510 N 143.376 1.44774 -0.622745 0
M  V30 1511 C 144.324 2.32387 0.0994683 0
M  V30 1512 C 145.318 1.46859 0.844326 0
M  V30 1513 O 146.524 1.63254 0.758174 0
M  V30 1514 H 142.899 0.750273 0.0509291 0
M  V30 1515 H 144.87 2.91062 -0.65767 0
M  V30 1516 C 143.619 3.30723 1.07319 0
M  V30 1517 H 142.942 3.96541 0.509462 0
M  V30 1518 H 144.382 3.94725 1.54817 0
M  V30 1519 C 142.841 2.59021 2.15429 0
M  V30 1520 O 143.371 2.38286 3.23393 0
M  V30 1521 N 141.577 2.189 1.91131 0
M  V30 1522 H 141.124 2.35964 1.03337 0
M  V30 1523 H 141.082 1.71251 2.63668 0
M  V30 1524 N 144.854 0.36279 1.53368 0
M  V30 1525 C 146.082 -0.228613 2.05633 0
M  V30 1526 C 146.497 -1.42676 1.23649 0
M  V30 1527 O 145.854 -1.80394 0.27647 0
M  V30 1528 C 145.905 -0.624845 3.56059 0
M  V30 1529 O 145.626 0.525675 4.34935 0
M  V30 1530 C 147.127 -1.27493 4.24571 0
M  V30 1531 H 144.347 -0.0407183 0.669763 0
M  V30 1532 H 146.891 0.520352 1.97769 0
M  V30 1533 H 145.046 -1.32373 3.64083 0
M  V30 1534 H 145.46 0.205969 5.24095 0
M  V30 1535 H 146.934 -1.50277 5.31151 0
M  V30 1536 H 147.411 -2.23439 3.78116 0
M  V30 1537 H 148.017 -0.617558 4.20792 0
M  V30 1538 N 146.332 -1.57332 0.0918853 0
M  V30 1539 C 147.295 -2.12708 -0.85369 0
M  V30 1540 C 148.295 -1.05561 -1.213 0
M  V30 1541 O 149.485 -1.31461 -1.14296 0
M  V30 1542 C 146.617 -2.64503 -2.15061 0
M  V30 1543 H 147.81 -2.97573 -0.3729 0
M  V30 1544 H 145.363 -1.55509 -0.157072 0
M  V30 1545 H 146.098 -1.83149 -2.67632 0
M  V30 1546 H 145.883 -3.4284 -1.90272 0
M  V30 1547 H 147.373 -3.07351 -2.82711 0
M  V30 1548 N 147.81 0.181792 -1.56548 0
M  V30 1549 C 148.757 1.22521 -1.95595 0
M  V30 1550 C 149.727 1.4454 -0.818373 0
M  V30 1551 O 150.912 1.57454 -1.07763 0
M  V30 1552 C 148.052 2.56193 -2.31212 0
M  V30 1553 C 147.165 2.41641 -3.58097 0
M  V30 1554 C 146.3 3.68108 -3.82975 0
M  V30 1555 C 145.339 3.48445 -5.03242 0
M  V30 1556 N 144.476 4.66956 -5.24306 0
M  V30 1557 H 149.316 0.885226 -2.84548 0
M  V30 1558 H 146.853 0.425718 -1.40805 0
M  V30 1559 H 148.811 3.34088 -2.49882 0
M  V30 1560 H 147.441 2.88208 -1.45382 0
M  V30 1561 H 146.493 1.54976 -3.474 0
M  V30 1562 H 147.805 2.23052 -4.46149 0
M  V30 1563 H 146.959 4.54441 -4.01956 0
M  V30 1564 H 145.698 3.89666 -2.93278 0
M  V30 1565 H 144.703 2.60499 -4.8417 0
M  V30 1566 H 145.928 3.2832 -5.9446 0
M  V30 1567 H 143.874 4.88752 -4.37559 0
M  V30 1568 H 143.791 4.51242 -6.06561 0
M  V30 1569 H 145.059 5.54602 -5.47756 0
M  V30 1570 N 149.288 1.51039 0.449983 0
M  V30 1571 C 150.518 1.66627 1.22143 0
M  V30 1572 C 150.926 0.357776 1.85786 0
M  V30 1573 O 150.269 -0.672424 1.70951 0
M  V30 1574 C 150.331 2.71562 2.35573 0
M  V30 1575 C 149.995 4.14526 1.92399 0
M  V30 1576 C 150.992 4.99717 1.43453 0
M  V30 1577 C 148.677 4.60559 2.00475 0
M  V30 1578 C 150.671 6.28998 1.03155 0
M  V30 1579 C 148.358 5.8984 1.59788 0
M  V30 1580 C 149.356 6.73886 1.11208 0
M  V30 1581 O 149.044 8.0075 0.710935 0
M  V30 1582 H 148.776 0.562635 0.374724 0
M  V30 1583 H 151.33 1.98146 0.541036 0
M  V30 1584 H 149.56 2.3533 3.06849 0
M  V30 1585 H 151.249 2.76156 2.97478 0
M  V30 1586 H 152.015 4.65361 1.36618 0
M  V30 1587 H 147.894 3.95273 2.37235 0
M  V30 1588 H 151.438 6.9455 0.651663 0
M  V30 1589 H 147.335 6.23713 1.66289 0
M  V30 1590 H 148.103 8.142 0.837913 0
M  V30 1591 N 150.766 -0.704594 1.40972 0
M  V30 1592 C 152.177 -1.28418 1.3552 0
M  V30 1593 C 152.528 -1.96171 0.0339434 0
M  V30 1594 O 151.653 -1.98231 -0.867944 0
M  V30 1595 C 152.248 -2.33528 2.45459 0
M  V30 1596 C 150.807 -2.87085 2.43433 0
M  V30 1597 C 149.954 -1.61007 2.2577 0
M  V30 1598 H 152.905 -0.499963 1.50619 0
M  V30 1599 H 152.926 -3.14619 2.13998 0
M  V30 1600 H 152.438 -1.84187 3.41609 0
M  V30 1601 H 150.539 -3.40626 1.51013 0
M  V30 1602 H 150.652 -3.3813 3.39419 0
M  V30 1603 H 149.016 -1.86482 1.73483 0
M  V30 1604 H 149.799 -1.13675 3.23933 0
M  V30 1605 N 152.244 -1.26651 -0.937939 0
M  V30 1606 C 153.176 -1.04283 -2.04102 0
M  V30 1607 C 154.189 -0.00221014 -1.628 0
M  V30 1608 O 155.378 -0.242645 -1.76843 0
M  V30 1609 C 152.478 -0.557846 -3.34277 0
M  V30 1610 C 151.651 -1.66843 -4.04329 0
M  V30 1611 C 150.71 -1.18095 -5.12777 0
M  V30 1612 O 149.736 -1.87865 -5.37304 0
M  V30 1613 N 150.938 -0.0311006 -5.80492 0
M  V30 1614 H 153.703 -1.9927 -2.23856 0
M  V30 1615 H 151.264 -1.1808 -1.10764 0
M  V30 1616 H 153.256 -0.215836 -4.04124 0
M  V30 1617 H 151.826 0.298523 -3.11171 0
M  V30 1618 H 151.046 -2.18123 -3.28353 0
M  V30 1619 H 152.334 -2.41408 -4.47883 0
M  V30 1620 H 151.732 0.551486 -5.63005 0
M  V30 1621 H 150.289 0.251809 -6.51313 0
M  V30 1622 N 153.722 1.14298 -1.08507 0
M  V30 1623 C 154.685 2.17607 -0.719711 0
M  V30 1624 C 155.685 1.58907 0.245997 0
M  V30 1625 O 156.875 1.74181 0.0254081 0
M  V30 1626 C 154.007 3.40842 -0.0627695 0
M  V30 1627 H 155.2 2.51443 -1.63452 0
M  V30 1628 H 152.753 1.28963 -0.88307 0
M  V30 1629 H 153.488 3.12587 0.863716 0
M  V30 1630 H 153.273 3.84713 -0.757504 0
M  V30 1631 H 154.763 4.17221 0.177786 0
M  V30 1632 N 155.201 0.870884 1.31352 0
M  V30 1633 C 156.429 0.49677 2.00848 0
M  V30 1634 C 156.844 -0.910998 1.65367 0
M  V30 1635 O 156.201 -1.59696 0.883374 0
M  V30 1636 C 156.252 0.645308 3.55694 0
M  V30 1637 O 155.973 1.99764 3.89905 0
M  V30 1638 C 157.474 0.272326 4.42463 0
M  V30 1639 H 154.694 0.193462 0.642506 0
M  V30 1640 H 157.238 1.1723 1.67563 0
M  V30 1641 H 155.393 0.0173176 3.87396 0
M  V30 1642 H 155.807 2.00607 4.84621 0
M  V30 1643 H 157.281 0.427208 5.50344 0
M  V30 1644 H 157.758 -0.788587 4.32062 0
M  V30 1645 H 158.364 0.876054 4.1618 0
M  V30 1646 N 156.679 -1.44442 0.630414 0
M  V30 1647 C 157.926 -2.02052 0.134617 0
M  V30 1648 C 158.254 -1.49576 -1.24327 0
M  V30 1649 O 157.509 -0.669806 -1.83881 0
M  V30 1650 C 157.808 -3.57332 0.0697835 0
M  V30 1651 C 157.474 -4.29058 1.38635 0
M  V30 1652 C 156.136 -4.4837 1.74694 0
M  V30 1653 C 158.488 -4.69872 2.25543 0
M  V30 1654 C 155.816 -5.05756 2.97369 0
M  V30 1655 C 158.168 -5.28616 3.47487 0
M  V30 1656 C 156.832 -5.46147 3.8377 0
M  V30 1657 H 156.102 -0.739361 0.0492598 0
M  V30 1658 H 158.749 -1.73217 0.816586 0
M  V30 1659 H 157.054 -3.85577 -0.695553 0
M  V30 1660 H 158.751 -3.99637 -0.330344 0
M  V30 1661 H 155.341 -4.14357 1.09574 0
M  V30 1662 H 159.525 -4.54666 1.98979 0
M  V30 1663 H 154.781 -5.17515 3.25558 0
M  V30 1664 H 158.955 -5.59192 4.15063 0
M  V30 1665 H 156.582 -5.9038 4.7891 0
M  V30 1666 N 158.157 -0.370918 -1.53173 0
M  V30 1667 C 159.385 0.217704 -2.05751 0
M  V30 1668 C 159.8 1.42018 -1.24404 0
M  V30 1669 O 159.157 1.80245 -0.286033 0
M  V30 1670 C 159.208 0.605954 -3.56385 0
M  V30 1671 O 158.929 -0.548734 -4.3465 0
M  V30 1672 C 160.43 1.2524 -4.25241 0
M  V30 1673 H 157.65 0.0371659 -0.66997 0
M  V30 1674 H 160.194 -0.530832 -1.9749 0
M  V30 1675 H 158.349 1.3044 -3.6478 0
M  V30 1676 H 158.763 -0.23376 -5.23979 0
M  V30 1677 H 160.237 1.47458 -5.3194 0
M  V30 1678 H 160.714 2.2143 -3.79296 0
M  V30 1679 H 161.32 0.595233 -4.21114 0
M  V30 1680 N 159.635 1.57281 -0.100228 0
M  V30 1681 C 160.86 1.99302 0.573881 0
M  V30 1682 C 161.285 0.979059 1.60611 0
M  V30 1683 O 160.643 -0.0517803 1.81226 0
M  V30 1684 C 160.691 3.40274 1.19358 0
M  V30 1685 O 159.795 3.41676 2.30935 0
M  V30 1686 H 159.136 0.647944 0.145138 0
M  V30 1687 H 161.666 2.03779 -0.183156 0
M  V30 1688 H 161.676 3.78078 1.53365 0
M  V30 1689 H 160.351 4.13594 0.437385 0
M  V30 1690 H 158.928 3.15672 1.98509 0
M  V30 1691 N 161.113 -0.173488 1.56642 0
M  V30 1692 C 162.341 -0.906095 1.86004 0
M  V30 1693 C 162.756 -1.75921 0.685355 0
M  V30 1694 O 162.113 -1.79198 -0.345578 0
M  V30 1695 C 162.164 -1.78462 3.14378 0
M  V30 1696 O 161.885 -0.965914 4.27319 0
M  V30 1697 C 163.386 -2.62707 3.57071 0
M  V30 1698 H 160.606 -0.263341 0.617165 0
M  V30 1699 H 163.15 -0.174236 2.03756 0
M  V30 1700 H 161.305 -2.46984 2.98459 0
M  V30 1701 H 161.719 -1.56655 5.00559 0
M  V30 1702 H 163.193 -3.19969 4.49804 0
M  V30 1703 H 163.67 -3.37472 2.81086 0
M  V30 1704 H 164.276 -1.99521 3.75595 0
M  V30 1705 N 162.591 -1.51276 -0.441967 0
M  V30 1706 C 163.816 -1.67799 -1.21895 0
M  V30 1707 C 164.241 -0.372864 -1.84367 0
M  V30 1708 O 163.599 0.666501 -1.68604 0
M  V30 1709 C 163.647 -2.79199 -2.28211 0
M  V30 1710 O 162.751 -2.42479 -3.33583 0
M  V30 1711 H 162.092 -0.559649 -0.357336 0
M  V30 1712 H 164.622 -1.97815 -0.522522 0
M  V30 1713 H 164.632 -3.03146 -2.73069 0
M  V30 1714 H 163.307 -3.73906 -1.82118 0
M  V30 1715 H 161.884 -2.29087 -2.94234 0
M  V30 1716 N 164.069 0.697108 -1.41344 0
M  V30 1717 C 165.315 1.4593 -1.40827 0
M  V30 1718 C 165.648 1.94193 -0.0167098 0
M  V30 1719 O 164.923 1.69425 0.955263 0
M  V30 1720 C 165.206 2.67229 -2.41373 0
M  V30 1721 C 165.059 2.24741 -3.8963 0
M  V30 1722 C 166.378 3.69423 -2.39196 0
M  V30 1723 H 163.497 0.529303 -0.512842 0
M  V30 1724 H 166.139 0.794112 -1.72609 0
M  V30 1725 H 164.289 3.23982 -2.14401 0
M  V30 1726 H 165.961 1.73327 -4.27499 0
M  V30 1727 H 164.204 1.56542 -4.0457 0
M  V30 1728 H 164.875 3.1177 -4.55525 0
M  V30 1729 H 167.351 3.2234 -2.63128 0
M  V30 1730 H 166.227 4.51907 -3.11563 0
M  V30 1731 H 166.488 4.19012 -1.41001 0
M  V30 1732 N 165.547 1.27147 0.931209 0
M  V30 1733 C 166.494 1.09568 2.03134 0
M  V30 1734 C 167.464 -0.00222433 1.661 0
M  V30 1735 O 168.649 0.159439 1.90133 0
M  V30 1736 C 165.789 0.745231 3.36957 0
M  V30 1737 C 164.902 1.92041 3.86968 0
M  V30 1738 C 164.037 1.51216 5.09222 0
M  V30 1739 C 163.076 2.65504 5.5152 0
M  V30 1740 N 162.213 2.25291 6.64972 0
M  V30 1741 H 167.053 2.03708 2.17502 0
M  V30 1742 H 164.59 1.01411 1.06556 0
M  V30 1743 H 166.548 0.522878 4.1391 0
M  V30 1744 H 165.178 -0.159202 3.22407 0
M  V30 1745 H 164.23 2.25541 3.06326 0
M  V30 1746 H 165.542 2.77787 4.1429 0
M  V30 1747 H 164.696 1.25084 5.93666 0
M  V30 1748 H 163.435 0.625749 4.83669 0
M  V30 1749 H 162.44 2.92354 4.65628 0
M  V30 1750 H 163.665 3.54761 5.7907 0
M  V30 1751 H 161.611 1.39098 6.41083 0
M  V30 1752 H 161.528 3.04577 6.91931 0
M  V30 1753 H 162.796 2.02398 7.52765 0
M  V30 1754 N 167.025 -1.13721 1.09112 0
M  V30 1755 C 167.972 -2.19031 0.727591 0
M  V30 1756 C 168.942 -1.63555 -0.289656 0
M  V30 1757 O 170.127 -1.90023 -0.172026 0
M  V30 1758 C 167.267 -3.4477 0.15082 0
M  V30 1759 C 166.38 -4.14365 1.22172 0
M  V30 1760 C 165.515 -5.27709 0.608042 0
M  V30 1761 C 164.554 -5.89147 1.66047 0
M  V30 1762 N 163.691 -6.93929 1.06806 0
M  V30 1763 H 168.531 -2.49475 1.62991 0
M  V30 1764 H 166.068 -1.22499 0.81439 0
M  V30 1765 H 168.026 -4.16714 -0.201358 0
M  V30 1766 H 166.656 -3.14787 -0.714783 0
M  V30 1767 H 165.708 -3.40737 1.69122 0
M  V30 1768 H 167.02 -4.56114 2.01895 0
M  V30 1769 H 166.174 -6.06355 0.204523 0
M  V30 1770 H 164.913 -4.872 -0.220769 0
M  V30 1771 H 163.918 -5.09198 2.07357 0
M  V30 1772 H 165.143 -6.31729 2.49189 0
M  V30 1773 H 163.089 -6.55483 0.260476 0
M  V30 1774 H 163.006 -7.34202 1.8023 0
M  V30 1775 H 164.274 -7.76434 0.690644 0
M  V30 1776 N 168.503 -0.877838 -1.30888 0
M  V30 1777 C 169.78 -0.413052 -1.91189 0
M  V30 1778 C 170.16 1.1056 -1.79832 0
M  V30 1779 O 169.508 1.93771 -1.21099 0
M  V30 1780 C 169.718 -0.903191 -3.3711 0
M  V30 1781 C 171.066 -0.93395 -4.14201 0
M  V30 1782 O 172.09 -0.849373 -3.45925 0
M  V30 1783 O 170.949 -1.05772 -5.36167 0
M  V30 1784 H 168.043 -0.125035 -0.817493 0
M  V30 1785 H 170.589 -0.966269 -1.39504 0
M  V30 1786 H 169.361 -1.94692 -3.39427 0
M  V30 1787 H 168.984 -0.328732 -3.96239 0
M  V30 1788 N 169.982 1.44106 -0.638065 0
M  V30 1789 C 171.23 2.01579 -0.145043 0
M  V30 1790 C 171.551 1.50496 1.24 0
M  V30 1791 O 170.821 0.711374 1.82527 0
M  V30 1792 H 169.401 0.745282 -0.05063 0
M  V30 1793 H 172.063 1.76516 -0.826327 0
M  V30 1794 H 171.159 3.11877 -0.118039 0
M  V30 1795 N 171.46 0.379036 1.52974 0
M  V30 1796 C 172.737 -0.263479 1.93817 0
M  V30 1797 C 173.117 -1.65244 1.31368 0
M  V30 1798 O 172.465 -2.23448 0.477856 0
M  V30 1799 C 172.675 -0.300166 3.47707 0
M  V30 1800 C 174.023 -0.534061 4.21228 0
M  V30 1801 O 175.047 -0.38081 3.54159 0
M  V30 1802 O 173.906 -0.833501 5.40106 0
M  V30 1803 H 171 -0.161149 0.811147 0
M  V30 1804 H 173.546 0.432798 1.64088 0
M  V30 1805 H 172.318 0.673138 3.85467 0
M  V30 1806 H 171.941 -1.04179 3.83709 0
M  V30 1807 N 172.938 -1.57226 0.108567 0
M  V30 1808 C 173.848 -2.18292 -0.859401 0
M  V30 1809 C 174.864 -1.15612 -1.30038 0
M  V30 1810 O 176.04 -1.48039 -1.36552 0
M  V30 1811 C 173.105 -2.762 -2.09558 0
M  V30 1812 C 172.166 -3.93881 -1.70752 0
M  V30 1813 C 171.399 -4.49018 -2.88477 0
M  V30 1814 O 171.622 -4.03068 -4.036 0
M  V30 1815 O 170.556 -5.39852 -2.66164 0
M  V30 1816 H 174.382 -3.01441 -0.369769 0
M  V30 1817 H 171.967 -1.48945 -0.1165 0
M  V30 1818 H 173.849 -3.13156 -2.81978 0
M  V30 1819 H 172.524 -1.96089 -2.57548 0
M  V30 1820 H 171.431 -3.61713 -0.954714 0
M  V30 1821 H 172.764 -4.75396 -1.27513 0
M  V30 1822 N 174.416 0.165178 -1.56732 0
M  V30 1823 C 175.346 1.20651 -1.99914 0
M  V30 1824 C 176.327 1.45827 -0.875705 0
M  V30 1825 O 177.512 1.57057 -1.14223 0
M  V30 1826 C 174.642 2.54401 -2.36427 0
M  V30 1827 C 173.596 2.43782 -3.51787 0
M  V30 1828 C 172.922 3.82078 -3.7406 0
M  V30 1829 C 174.222 1.93732 -4.85041 0
M  V30 1830 H 175.916 0.847534 -2.87154 0
M  V30 1831 H 173.462 0.40625 -1.38151 0
M  V30 1832 H 175.415 3.27458 -2.65234 0
M  V30 1833 H 174.139 2.92098 -1.46103 0
M  V30 1834 H 172.798 1.73178 -3.23117 0
M  V30 1835 H 172.446 4.17179 -2.81017 0
M  V30 1836 H 172.146 3.7584 -4.51684 0
M  V30 1837 H 173.67 4.56712 -4.05274 0
M  V30 1838 H 175.084 2.56569 -5.12684 0
M  V30 1839 H 173.481 1.98428 -5.66345 0
M  V30 1840 H 174.551 0.891962 -4.76626 0
M  V30 1841 N 175.894 1.51508 0.433938 0
M  V30 1842 C 177.171 1.54888 1.19453 0
M  V30 1843 C 177.551 0.315154 2.08734 0
M  V30 1844 O 176.899 -0.699558 2.17528 0
M  V30 1845 C 177.109 2.86467 1.99342 0
M  V30 1846 C 178.457 3.38545 2.56267 0
M  V30 1847 O 179.481 2.88041 2.0955 0
M  V30 1848 O 178.34 4.26675 3.41483 0
M  V30 1849 H 175.434 0.622863 0.544032 0
M  V30 1850 H 177.98 1.63823 0.442732 0
M  V30 1851 H 176.752 3.67718 1.33788 0
M  V30 1852 H 176.375 2.8071 2.8158 0
M  V30 1853 N 177.372 -0.689602 1.41712 0
M  V30 1854 C 178.621 -1.44534 1.40686 0
M  V30 1855 C 178.934 -1.95588 0.0213352 0
M  V30 1856 O 180.14 -2.71271 -0.111534 0
M  V30 1857 C 178.596 -2.61387 2.47396 0
M  V30 1858 C 178.204 -2.17094 3.91885 0
M  V30 1859 C 179.948 -3.38986 2.55517 0
M  V30 1860 C 177.855 -3.3094 4.90135 0
M  V30 1861 H 176.785 -0.542925 0.52321 0
M  V30 1862 H 179.436 -0.748054 1.6756 0
M  V30 1863 H 177.818 -3.33412 2.13664 0
M  V30 1864 H 178.992 -1.52318 4.34897 0
M  V30 1865 H 177.307 -1.52473 3.8748 0
M  V30 1866 H 179.904 -4.23747 3.26102 0
M  V30 1867 H 180.247 -3.84578 1.59391 0
M  V30 1868 H 180.78 -2.74021 2.8837 0
M  V30 1869 H 177.519 -2.90355 5.87685 0
M  V30 1870 H 177.039 -3.94546 4.51767 0
M  V30 1871 H 178.718 -3.9663 5.11169 0
M  V30 1872 N 178.85 -1.27639 -0.924453 0
M  V30 1873 C 180.078 -1.16989 -1.70649 0
M  V30 1874 C 180.493 0.272869 -1.86818 0
M  V30 1875 O 179.85 1.18549 -1.38753 0
M  V30 1876 C 179.901 -1.85229 -3.10439 0
M  V30 1877 O 179.622 -3.23868 -2.95028 0
M  V30 1878 C 181.123 -1.80746 -4.04779 0
M  V30 1879 H 178.343 -0.406595 -0.53378 0
M  V30 1880 H 180.887 -1.68569 -1.15778 0
M  V30 1881 H 179.042 -1.37545 -3.6216 0
M  V30 1882 H 179.456 -3.57889 -3.83426 0
M  V30 1883 H 180.93 -2.33101 -5.00368 0
M  V30 1884 H 181.407 -0.777499 -4.32263 0
M  V30 1885 H 182.013 -2.28059 -3.58984 0
M  V30 1886 N 180.328 1.1314 -1.09713 0
M  V30 1887 C 181.576 1.84119 -0.833338 0
M  V30 1888 C 181.897 1.84097 0.642904 0
M  V30 1889 O 181.167 1.29881 1.46655 0
M  V30 1890 H 179.747 0.681766 -0.305293 0
M  V30 1891 H 182.409 1.37038 -1.38588 0
M  V30 1892 H 181.505 2.88543 -1.18951 0
M  V30 1893 N 181.806 0.884767 1.30421 0
M  V30 1894 C 183.083 0.423185 1.90967 0
M  V30 1895 C 183.463 -1.09605 1.80416 0
M  V30 1896 O 182.811 -1.93126 1.22125 0
M  V30 1897 C 183.021 0.921056 3.36627 0
M  V30 1898 C 184.369 0.955903 4.137 0
M  V30 1899 O 185.393 0.867706 3.4547 0
M  V30 1900 O 184.252 1.08614 5.35598 0
M  V30 1901 H 181.346 0.129369 0.816819 0
M  V30 1902 H 183.892 0.973653 1.3899 0
M  V30 1903 H 182.664 1.96489 3.3839 0
M  V30 1904 H 182.287 0.349741 3.96059 0
M  V30 1905 N 183.284 -1.43765 0.645699 0
M  V30 1906 C 184.214 -2.33471 -0.0370477 0
M  V30 1907 C 185.195 -1.49042 -0.819779 0
M  V30 1908 O 186.38 -1.77726 -0.782758 0
M  V30 1909 C 183.51 -3.32311 -1.0093 0
M  V30 1910 C 182.464 -4.2667 -0.337201 0
M  V30 1911 C 181.79 -5.1549 -1.42037 0
M  V30 1912 C 183.09 -5.16657 0.765706 0
M  V30 1913 H 184.784 -2.90809 0.712069 0
M  V30 1914 H 182.33 -1.39834 0.343876 0
M  V30 1915 H 184.283 -3.9396 -1.49578 0
M  V30 1916 H 183.007 -2.73213 -1.78948 0
M  V30 1917 H 181.666 -3.66374 0.128771 0
M  V30 1918 H 181.314 -4.52735 -2.1918 0
M  V30 1919 H 181.014 -5.79438 -0.975966 0
M  V30 1920 H 182.538 -5.80012 -1.90838 0
M  V30 1921 H 183.952 -5.72158 0.361702 0
M  V30 1922 H 182.349 -5.89286 1.13413 0
M  V30 1923 H 183.419 -4.56796 1.62683 0
M  V30 1924 N 184.763 -0.387143 -1.52771 0
M  V30 1925 C 185.991 0.195869 -2.05971 0
M  V30 1926 C 186.406 1.40691 -1.25903 0
M  V30 1927 O 185.763 1.79931 -0.305134 0
M  V30 1928 C 185.814 0.56812 -3.57008 0
M  V30 1929 O 185.535 -0.594803 -4.34043 0
M  V30 1930 C 187.036 1.20723 -4.26545 0
M  V30 1931 H 184.256 0.0300578 -0.670326 0
M  V30 1932 H 186.8 -0.551749 -1.96916 0
M  V30 1933 H 184.955 1.26564 -3.66143 0
M  V30 1934 H 185.369 -0.289322 -5.23701 0
M  V30 1935 H 186.843 1.41807 -5.33474 0
M  V30 1936 H 187.32 2.17395 -3.81623 0
M  V30 1937 H 187.926 0.550535 -4.21722 0
M  V30 1938 N 186.241 1.57166 -0.116904 0
M  V30 1939 C 187.171 2.18222 0.830759 0
M  V30 1940 C 188.152 1.12167 1.27877 0
M  V30 1941 O 189.337 1.40394 1.34176 0
M  V30 1942 C 186.467 2.77996 2.08172 0
M  V30 1943 C 185.421 3.89614 1.77157 0
M  V30 1944 C 184.747 4.36187 3.09265 0
M  V30 1945 C 186.047 5.1181 1.04151 0
M  V30 1946 H 187.741 2.97664 0.321992 0
M  V30 1947 H 185.287 1.4318 0.153434 0
M  V30 1948 H 187.24 3.19366 2.74924 0
M  V30 1949 H 185.964 1.9584 2.6137 0
M  V30 1950 H 184.623 3.48816 1.12796 0
M  V30 1951 H 184.271 3.50893 3.60393 0
M  V30 1952 H 183.971 5.11455 2.89288 0
M  V30 1953 H 185.495 4.80207 3.77139 0
M  V30 1954 H 186.909 5.50214 1.61052 0
M  V30 1955 H 185.306 5.92648 0.942762 0
M  V30 1956 H 186.376 4.84892 0.0279022 0
M  V30 1957 N 187.719 -0.156864 1.56817 0
M  V30 1958 C 188.667 -1.21319 1.98455 0
M  V30 1959 C 189.661 -1.45025 0.875444 0
M  V30 1960 O 190.867 -1.45435 1.0606 0
M  V30 1961 H 187.242 -0.408142 0.631605 0
M  V30 1962 H 189.213 -0.835244 2.86472 0
M  V30 1963 C 187.962 -2.54148 2.37285 0
M  V30 1964 H 187.285 -2.36733 3.22176 0
M  V30 1965 H 188.725 -3.26712 2.70251 0
M  V30 1966 C 187.184 -3.13967 1.22173 0
M  V30 1967 O 187.714 -3.98357 0.517149 0
M  V30 1968 N 185.92 -2.7327 0.988536 0
M  V30 1969 H 185.467 -2.04744 1.56326 0
M  V30 1970 H 185.425 -3.13628 0.220209 0
M  V30 1971 N 189.197 -1.51736 -0.425897 0
M  V30 1972 C 190.445 -1.64644 -1.17204 0
M  V30 1973 C 190.766 -0.370486 -1.91448 0
M  V30 1974 O 190.036 0.614088 -1.86026 0
M  V30 1975 H 188.616 -0.606819 -0.435638 0
M  V30 1976 H 191.278 -1.88713 -0.487177 0
M  V30 1977 H 190.374 -2.47958 -1.89534 0
M  V30 1978 N 190.675 0.682077 -1.42076 0
M  V30 1979 C 191.921 1.44428 -1.42367 0
M  V30 1980 C 192.254 1.94164 -0.0373056 0
M  V30 1981 O 191.529 1.70429 0.937239 0
M  V30 1982 C 191.812 2.64654 -2.44194 0
M  V30 1983 C 191.665 2.20596 -3.91991 0
M  V30 1984 C 192.984 3.66865 -2.431 0
M  V30 1985 H 190.103 0.523834 -0.518428 0
M  V30 1986 H 192.745 0.77576 -1.73442 0
M  V30 1987 H 190.895 3.2169 -2.17826 0
M  V30 1988 H 192.567 1.68783 -4.29313 0
M  V30 1989 H 190.81 1.52242 -4.06208 0
M  V30 1990 H 191.481 3.06921 -4.58807 0
M  V30 1991 H 193.957 3.19531 -2.66532 0
M  V30 1992 H 192.833 4.48577 -3.16339 0
M  V30 1993 H 193.094 4.17493 -1.45437 0
M  V30 1994 N 192.153 1.28127 0.917671 0
M  V30 1995 C 193.381 1.17892 1.70026 0
M  V30 1996 C 193.796 -0.262958 1.8696 0
M  V30 1997 O 193.153 -1.17811 1.3938 0
M  V30 1998 C 193.204 1.86872 3.09453 0
M  V30 1999 O 192.925 3.25428 2.93306 0
M  V30 2000 C 194.426 1.8289 4.03815 0
M  V30 2001 H 191.646 0.40942 0.531617 0
M  V30 2002 H 194.19 1.69181 1.14883 0
M  V30 2003 H 192.345 1.39464 3.61426 0
M  V30 2004 H 192.759 3.59918 3.81523 0
M  V30 2005 H 194.233 2.35751 4.99125 0
M  V30 2006 H 194.71 0.800412 4.31845 0
M  V30 2007 H 195.316 2.29959 3.57769 0
M  V30 2008 N 193.631 -1.12557 1.10312 0
M  V30 2009 C 194.578 -2.18247 0.750781 0
M  V30 2010 C 195.548 -1.63853 -0.272293 0
M  V30 2011 O 196.733 -1.90195 -0.151862 0
M  V30 2012 C 193.873 -3.44591 0.187379 0
M  V30 2013 C 192.986 -4.13046 1.2656 0
M  V30 2014 C 192.121 -5.27034 0.663978 0
M  V30 2015 C 191.16 -5.87353 1.72287 0
M  V30 2016 N 190.297 -6.92757 1.1416 0
M  V30 2017 H 195.137 -2.47732 1.65628 0
M  V30 2018 H 192.674 -1.21629 0.827337 0
M  V30 2019 H 194.632 -4.16904 -0.157148 0
M  V30 2020 H 193.262 -3.15527 -0.681355 0
M  V30 2021 H 192.314 -3.38924 1.72727 0
M  V30 2022 H 193.626 -4.53947 2.06721 0
M  V30 2023 H 192.78 -6.06104 0.268824 0
M  V30 2024 H 191.519 -4.87407 -0.169082 0
M  V30 2025 H 190.524 -5.06971 2.12746 0
M  V30 2026 H 191.749 -6.29051 2.55875 0
M  V30 2027 H 189.695 -6.5517 0.329984 0
M  V30 2028 H 189.612 -7.3225 1.88007 0
M  V30 2029 H 190.88 -7.75658 0.772956 0
M  V30 2030 N 195.109 -0.891671 -1.2995 0
M  V30 2031 C 196.52 -0.563104 -1.78006 0
M  V30 2032 C 196.871 0.920978 -1.73241 0
M  V30 2033 O 195.996 1.71987 -1.31337 0
M  V30 2034 C 196.591 -1.01539 -3.23226 0
M  V30 2035 C 195.15 -0.738124 -3.69092 0
M  V30 2036 C 194.297 -1.19461 -2.50249 0
M  V30 2037 H 197.248 -1.07522 -1.16725 0
M  V30 2038 H 197.269 -0.347217 -3.78912 0
M  V30 2039 H 196.781 -2.09555 -3.26662 0
M  V30 2040 H 194.882 0.329766 -3.71138 0
M  V30 2041 H 194.995 -1.33037 -4.60259 0
M  V30 2042 H 193.359 -0.613787 -2.47194 0
M  V30 2043 H 194.142 -2.28265 -2.56417 0
M  V30 2044 N 196.587 1.43421 -0.653314 0
M  V30 2045 C 197.833 2.02111 -0.166992 0
M  V30 2046 C 198.166 1.51423 1.21592 0
M  V30 2047 O 197.441 0.707389 1.8118 0
M  V30 2048 C 197.724 3.5966 -0.177948 0
M  V30 2049 C 197.577 4.20579 -1.59478 0
M  V30 2050 C 198.896 4.37413 0.4856 0
M  V30 2051 H 196.015 0.734374 -0.0621557 0
M  V30 2052 H 198.657 1.70717 -0.834016 0
M  V30 2053 H 196.807 3.86537 0.390032 0
M  V30 2054 H 198.479 4.04732 -2.21336 0
M  V30 2055 H 196.722 3.77226 -2.14204 0
M  V30 2056 H 197.393 5.29665 -1.5543 0
M  V30 2057 H 199.869 4.161 0.00234528 0
M  V30 2058 H 198.745 5.47075 0.447207 0
M  V30 2059 H 199.006 4.13672 1.55974 0
M  V30 2060 N 198.065 0.39524 1.52563 0
M  V30 2061 C 199.293 -0.184943 2.06072 0
M  V30 2062 C 199.708 -1.40021 1.26647 0
M  V30 2063 O 199.065 -1.79767 0.314672 0
M  V30 2064 C 199.116 -0.549179 3.57304 0
M  V30 2065 O 198.837 0.617813 4.33722 0
M  V30 2066 C 200.338 -1.18459 4.2718 0
M  V30 2067 H 197.558 -0.0265025 0.670476 0
M  V30 2068 H 200.102 0.562184 1.96621 0
M  V30 2069 H 198.257 -1.2462 3.66809 0
M  V30 2070 H 198.671 0.317091 5.23541 0
M  V30 2071 H 200.145 -1.38976 5.34219 0
M  V30 2072 H 200.622 -2.15368 3.82771 0
M  V30 2073 H 201.228 -0.528163 4.22008 0
M  V30 2074 N 199.544 -1.57102 0.125237 0
M  V30 2075 C 200.474 -2.18659 -0.819174 0
M  V30 2076 C 201.455 -1.12843 -1.27281 0
M  V30 2077 O 202.64 -1.41104 -1.33429 0
M  V30 2078 C 199.77 -2.79096 -2.06695 0
M  V30 2079 C 198.724 -3.90548 -1.75088 0
M  V30 2080 C 198.05 -4.37821 -3.06948 0
M  V30 2081 C 199.35 -5.12356 -1.01435 0
M  V30 2082 H 201.044 -2.9783 -0.306202 0
M  V30 2083 H 198.59 -1.4326 -0.145839 0
M  V30 2084 H 200.543 -3.2082 -2.73226 0
M  V30 2085 H 199.267 -1.97223 -2.60328 0
M  V30 2086 H 197.926 -3.49409 -1.10944 0
M  V30 2087 H 197.574 -3.52799 -3.58527 0
M  V30 2088 H 197.274 -5.12982 -2.86571 0
M  V30 2089 H 198.798 -4.822 -3.74587 0
M  V30 2090 H 200.212 -5.5106 -1.58132 0
M  V30 2091 H 198.609 -5.9314 -0.911319 0
M  V30 2092 H 199.679 -4.849 -0.00218681 0
M  V30 2093 N 201.022 0.148545 -1.56898 0
M  V30 2094 C 201.932 1.20293 -2.01412 0
M  V30 2095 C 202.948 1.47107 -0.929273 0
M  V30 2096 O 204.124 1.58807 -1.23863 0
M  V30 2097 C 201.189 2.51682 -2.38447 0
M  V30 2098 C 200.25 2.32529 -3.60872 0
M  V30 2099 C 199.483 3.57653 -3.96132 0
M  V30 2100 O 199.706 4.63771 -3.32073 0
M  V30 2101 O 198.64 3.50408 -4.89385 0
M  V30 2102 H 202.466 0.855025 -2.91416 0
M  V30 2103 H 200.051 0.357151 -1.45068 0
M  V30 2104 H 201.933 3.29147 -2.63135 0
M  V30 2105 H 200.608 2.86006 -1.51599 0
M  V30 2106 H 199.515 1.53019 -3.41373 0
M  V30 2107 H 200.848 2.03121 -4.48333 0
M  V30 2108 N 202.5 1.5196 0.417844 0
M  V30 2109 C 203.463 1.74065 1.49111 0
M  V30 2110 C 204.463 0.610537 1.48758 0
M  V30 2111 O 205.653 0.87832 1.50437 0
M  V30 2112 C 202.785 1.81502 2.88565 0
M  V30 2113 H 203.978 2.69869 1.30807 0
M  V30 2114 H 201.531 1.42244 0.647785 0
M  V30 2115 H 202.266 0.875813 3.1225 0
M  V30 2116 H 202.051 2.63651 2.90225 0
M  V30 2117 H 203.541 2.00376 3.66387 0
M  V30 2118 N 203.978 -0.674533 1.42435 0
M  V30 2119 C 204.925 -1.78807 1.45934 0
M  V30 2120 C 205.895 -1.63157 0.311271 0
M  V30 2121 O 207.08 -1.83707 0.515383 0
M  V30 2122 C 204.22 -3.16839 1.36773 0
M  V30 2123 C 203.333 -3.43774 2.61617 0
M  V30 2124 C 202.468 -4.71536 2.44597 0
M  V30 2125 C 201.507 -4.91505 3.64814 0
M  V30 2126 N 200.644 -6.10508 3.46734 0
M  V30 2127 H 205.484 -1.75151 2.41093 0
M  V30 2128 H 203.021 -0.85504 1.19697 0
M  V30 2129 H 204.979 -3.96606 1.29459 0
M  V30 2130 H 203.609 -3.19619 0.452089 0
M  V30 2131 H 202.661 -2.58259 2.79297 0
M  V30 2132 H 203.973 -3.54423 3.50978 0
M  V30 2133 H 203.127 -5.59393 2.3487 0
M  V30 2134 H 201.866 -4.6317 1.52726 0
M  V30 2135 H 200.871 -4.0209 3.74972 0
M  V30 2136 H 202.096 -5.01716 4.57665 0
M  V30 2137 H 200.042 -6.03315 2.5758 0
M  V30 2138 H 199.959 -6.2202 4.29682 0
M  V30 2139 H 201.227 -7.01044 3.40819 0
M  V30 2140 N 205.456 -1.28612 -0.910864 0
M  V30 2141 C 206.386 -1.15326 -2.03032 0
M  V30 2142 C 207.367 -0.0502924 -1.70026 0
M  V30 2143 O 208.552 -0.227797 -1.92859 0
M  V30 2144 C 205.682 -0.817343 -3.37545 0
M  V30 2145 C 204.636 -1.8754 -3.84724 0
M  V30 2146 C 203.962 -1.39305 -5.16235 0
M  V30 2147 C 205.262 -3.28244 -4.06267 0
M  V30 2148 H 206.956 -2.08975 -2.14406 0
M  V30 2149 H 204.502 -1.00612 -1.03021 0
M  V30 2150 H 206.455 -0.711151 -4.15356 0
M  V30 2151 H 205.179 0.154846 -3.26233 0
M  V30 2152 H 203.838 -1.97079 -3.09121 0
M  V30 2153 H 203.486 -0.409846 -5.01328 0
M  V30 2154 H 203.186 -2.10057 -5.48771 0
M  V30 2155 H 204.71 -1.30014 -5.96598 0
M  V30 2156 H 206.124 -3.21611 -4.74594 0
M  V30 2157 H 204.521 -3.96855 -4.5014 0
M  V30 2158 H 205.591 -3.72048 -3.10979 0
M  V30 2159 N 206.934 1.1197 -1.10907 0
M  V30 2160 C 208.183 1.82947 -0.849302 0
M  V30 2161 C 208.496 1.85275 0.627112 0
M  V30 2162 O 209.702 2.52296 1.00295 0
M  V30 2163 C 208.158 3.28529 -1.46959 0
M  V30 2164 C 207.766 3.34546 -2.97965 0
M  V30 2165 C 209.51 4.04443 -1.28942 0
M  V30 2166 C 207.417 4.74491 -3.53004 0
M  V30 2167 H 206.347 0.685477 -0.314065 0
M  V30 2168 H 208.998 1.2604 -1.33365 0
M  V30 2169 H 207.38 3.85333 -0.912917 0
M  V30 2170 H 208.554 2.87654 -3.59989 0
M  V30 2171 H 206.869 2.72108 -3.15192 0
M  V30 2172 H 209.466 5.07787 -1.67502 0
M  V30 2173 H 209.809 4.15656 -0.231456 0
M  V30 2174 H 210.342 3.5401 -1.81443 0
M  V30 2175 H 207.081 4.68474 -4.58489 0
M  V30 2176 H 206.601 5.21816 -2.9575 0
M  V30 2177 H 208.28 5.4344 -3.51115 0
M  V30 2178 N 208.412 0.89855 1.29475 0
M  V30 2179 C 209.66 0.522847 1.9522 0
M  V30 2180 C 209.981 -0.93371 1.71192 0
M  V30 2181 O 209.251 -1.65823 1.04305 0
M  V30 2182 H 207.831 0.190366 0.722336 0
M  V30 2183 H 210.493 1.14459 1.5775 0
M  V30 2184 H 209.589 0.704476 3.04045 0
M  V30 2185 N 209.89 -1.43072 0.660911 0
M  V30 2186 C 210.822 -2.29108 -0.0647641 0
M  V30 2187 C 211.835 -1.42928 -0.779448 0
M  V30 2188 O 213.024 -1.66788 -0.635921 0
M  V30 2189 C 210.124 -3.20032 -1.11503 0
M  V30 2190 C 209.297 -4.34792 -0.476955 0
M  V30 2191 C 208.356 -5.06534 -1.42513 0
M  V30 2192 O 207.382 -5.61538 -0.930771 0
M  V30 2193 N 208.584 -5.1075 -2.75889 0
M  V30 2194 H 211.349 -2.92029 0.673731 0
M  V30 2195 H 208.91 -1.53846 0.50427 0
M  V30 2196 H 210.902 -3.64892 -1.75032 0
M  V30 2197 H 209.472 -2.58658 -1.75541 0
M  V30 2198 H 208.692 -3.92752 0.337572 0
M  V30 2199 H 209.98 -5.0879 -0.0318525 0
M  V30 2200 H 209.378 -4.67447 -3.18606 0
M  V30 2201 H 207.935 -5.59302 -3.347 0
M  V30 2202 N 211.368 -0.403325 -1.52352 0
M  V30 2203 C 212.616 0.174003 -2.0135 0
M  V30 2204 C 212.937 1.46139 -1.29106 0
M  V30 2205 O 212.207 1.91448 -0.415253 0
M  V30 2206 H 210.787 0.0672911 -0.743963 0
M  V30 2207 H 213.449 -0.538235 -1.87321 0
M  V30 2208 H 212.545 0.374254 -3.09848 0
M  V30 2209 N 212.846 1.57033 -0.133567 0
M  V30 2210 C 214.123 1.87256 0.56522 0
M  V30 2211 C 214.503 1.03726 1.83859 0
M  V30 2212 O 213.851 0.120247 2.28183 0
M  V30 2213 C 214.061 3.3865 0.843636 0
M  V30 2214 C 215.409 4.07574 1.19032 0
M  V30 2215 O 216.433 3.43752 0.933429 0
M  V30 2216 O 215.292 5.20259 1.67312 0
M  V30 2217 H 212.386 0.775678 0.286796 0
M  V30 2218 H 214.932 1.68855 -0.169168 0
M  V30 2219 H 213.704 3.91257 -0.0581149 0
M  V30 2220 H 213.327 3.62532 1.63268 0
M  V30 2221 N 214.325 -0.140222 1.56975 0
M  V30 2222 C 215.602 -0.880769 1.74648 0
M  V30 2223 C 215.982 -1.99036 0.703404 0
M  V30 2224 O 215.33 -2.26821 -0.27648 0
M  V30 2225 C 215.54 -1.417 3.18939 0
M  V30 2226 C 216.888 -1.87774 3.80823 0
M  V30 2227 O 217.912 -1.51427 3.2241 0
M  V30 2228 O 216.771 -2.54827 4.83452 0
M  V30 2229 H 213.865 -0.416713 0.714338 0
M  V30 2230 H 216.411 -0.125618 1.69234 0
M  V30 2231 H 215.183 -0.619902 3.86359 0
M  V30 2232 H 214.806 -2.23546 3.28805 0
M  V30 2233 N 215.803 -1.52179 -0.40978 0
M  V30 2234 C 217.214 -1.58377 -0.988615 0
M  V30 2235 C 217.565 -0.423879 -1.91566 0
M  V30 2236 O 216.69 0.455844 -2.11544 0
M  V30 2237 C 217.285 -2.87044 -1.79976 0
M  V30 2238 C 215.844 -2.95722 -2.32863 0
M  V30 2239 C 214.991 -2.53309 -1.12828 0
M  V30 2240 H 217.942 -1.57558 -0.190039 0
M  V30 2241 H 217.963 -2.7236 -2.65707 0
M  V30 2242 H 217.475 -3.71444 -1.12478 0
M  V30 2243 H 215.576 -2.15814 -3.03735 0
M  V30 2244 H 215.689 -3.99951 -2.63773 0
M  V30 2245 H 214.053 -2.07142 -1.48204 0
M  V30 2246 H 214.836 -3.40082 -0.46897 0
M  V30 2247 N 217.281 0.66697 -1.42791 0
M  V30 2248 C 218.527 1.42754 -1.44889 0
M  V30 2249 C 218.882 1.92283 -0.0669755 0
M  V30 2250 O 218.175 1.68494 0.912154 0
M  V30 2251 C 218.369 2.6349 -2.4147 0
M  V30 2252 C 218.198 2.25776 -3.88915 0
M  V30 2253 C 216.968 2.1476 -4.57391 0
M  V30 2254 C 219.166 1.86927 -4.79127 0
M  V30 2255 N 217.148 1.70232 -5.89826 0
M  V30 2256 C 218.519 1.53378 -6.00729 0
M  V30 2257 C 220.574 1.73989 -4.66511 0
M  V30 2258 C 219.277 1.08187 -7.11117 0
M  V30 2259 C 221.303 1.30203 -5.76889 0
M  V30 2260 C 220.665 0.975818 -6.97608 0
M  V30 2261 H 216.764 0.518559 -0.585338 0
M  V30 2262 H 219.348 0.768906 -1.78874 0
M  V30 2263 H 217.519 3.27033 -2.09533 0
M  V30 2264 H 219.251 3.30123 -2.34096 0
M  V30 2265 H 216.006 2.3408 -4.11708 0
M  V30 2266 H 216.43 1.50369 -6.6009 0
M  V30 2267 H 221.072 1.97853 -3.7365 0
M  V30 2268 H 218.79 0.830701 -8.03819 0
M  V30 2269 H 222.376 1.20701 -5.69142 0
M  V30 2270 H 221.256 0.642157 -7.81566 0
M  V30 2271 N 218.759 1.29093 0.90403 0
M  V30 2272 C 220.007 1.16583 1.65085 0
M  V30 2273 C 220.328 -0.283933 1.92922 0
M  V30 2274 O 219.598 -1.19509 1.55224 0
M  V30 2275 H 218.178 0.428467 0.611903 0
M  V30 2276 H 220.84 1.61959 1.08422 0
M  V30 2277 H 219.936 1.71266 2.6091 0
M  V30 2278 N 220.237 -1.11381 1.11499 0
M  V30 2279 C 221.485 -1.8277 0.862524 0
M  V30 2280 C 221.806 -1.85097 -0.613534 0
M  V30 2281 O 221.076 -1.32198 -1.4457 0
M  V30 2282 H 219.656 -0.676823 0.316101 0
M  V30 2283 H 222.318 -1.34816 1.4075 0
M  V30 2284 H 221.414 -2.86614 1.23527 0
M  V30 2285 N 221.715 -0.905404 -1.28997 0
M  V30 2286 C 222.662 -0.385892 -2.27551 0
M  V30 2287 C 223.632 0.535113 -1.57244 0
M  V30 2288 O 224.817 0.459119 -1.85194 0
M  V30 2289 C 221.957 0.375461 -3.43051 0
M  V30 2290 C 221.07 -0.577092 -4.28128 0
M  V30 2291 C 220.205 0.201879 -5.30816 0
M  V30 2292 C 219.244 -0.744829 -6.07551 0
M  V30 2293 N 218.381 9.42587e-05 -7.021 0
M  V30 2294 H 223.221 -1.23139 -2.71368 0
M  V30 2295 H 220.758 -0.618542 -1.33463 0
M  V30 2296 H 222.716 0.832992 -4.088 0
M  V30 2297 H 221.346 1.18537 -3.00248 0
M  V30 2298 H 220.398 -1.15315 -3.62501 0
M  V30 2299 H 221.71 -1.30152 -4.8152 0
M  V30 2300 H 220.864 0.720351 -6.02408 0
M  V30 2301 H 219.603 0.959413 -4.7817 0
M  V30 2302 H 218.608 -1.27475 -5.34818 0
M  V30 2303 H 219.833 -1.50178 -6.62286 0
M  V30 2304 H 217.779 0.739791 -6.51815 0
M  V30 2305 H 217.696 -0.664321 -7.53076 0
M  V30 2306 H 218.964 0.498644 -7.77903 0
M  V30 2307 N 223.193 1.4272 -0.668489 0
M  V30 2308 C 224.609 1.55992 -0.33745 0
M  V30 2309 C 224.809 1.64933 1.15756 0
M  V30 2310 O 223.865 1.61278 1.94282 0
M  V30 2311 C 225.178 2.81314 -1.06222 0
M  V30 2312 C 226.726 2.95078 -1.04394 0
M  V30 2313 C 227.201 4.23252 -1.74991 0
M  V30 2314 N 228.692 4.3015 -1.71829 0
M  V30 2315 C 229.427 5.28127 -2.23315 0
M  V30 2316 N 228.923 6.32293 -2.83156 0
M  V30 2317 N 230.716 5.19882 -2.13726 0
M  V30 2318 H 222.867 1.3516 -1.63846 0
M  V30 2319 H 225.13 0.650174 -0.689912 0
M  V30 2320 H 224.836 2.80823 -2.11734 0
M  V30 2321 H 224.71 3.72012 -0.62344 0
M  V30 2322 H 227.097 2.951 0.0028244 0
M  V30 2323 H 227.178 2.05627 -1.52155 0
M  V30 2324 H 226.822 4.2399 -2.79633 0
M  V30 2325 H 226.752 5.11626 -1.24685 0
M  V30 2326 H 229.243 3.55499 -1.28175 0
M  V30 2327 H 229.556 7.03398 -3.20079 0
M  V30 2328 H 227.901 6.32873 -2.87223 0
M  V30 2329 H 231.092 4.37423 -1.66669 0
M  V30 2330 H 231.265 5.96077 -2.54158 0
M  V30 2331 N 224.671 0.411399 1.52136 0
M  V30 2332 C 225.634 -0.401089 2.25663 0
M  V30 2333 C 226.634 -0.971732 1.28117 0
M  V30 2334 O 227.824 -0.850254 1.52041 0
M  V30 2335 C 224.956 -1.56483 3.02863 0
M  V30 2336 H 226.149 0.24295 2.98914 0
M  V30 2337 H 223.702 0.163968 1.55438 0
M  V30 2338 H 224.437 -2.24567 2.33967 0
M  V30 2339 H 224.222 -1.16211 3.74483 0
M  V30 2340 H 225.712 -2.13951 3.58629 0
M  V30 2341 N 226.149 -1.5696 0.141893 0
M  V30 2342 C 227.397 -1.95573 -0.509484 0
M  V30 2343 C 227.718 -1.02746 -1.65736 0
M  V30 2344 O 226.988 -0.0880311 -1.95702 0
M  V30 2345 H 225.568 -0.722115 -0.191205 0
M  V30 2346 H 228.23 -1.93697 0.216196 0
M  V30 2347 H 227.326 -2.99171 -0.889 0
M  V30 2348 N 227.627 0.131896 -1.57047 0
M  V30 2349 C 228.874 0.841932 -1.84168 0
M  V30 2350 C 229.202 1.8048 -0.725066 0
M  V30 2351 O 228.457 1.93618 0.284692 0
M  V30 2352 C 228.756 1.63703 -3.17704 0
M  V30 2353 C 228.422 0.81961 -4.43388 0
M  V30 2354 C 227.084 0.594148 -4.77518 0
M  V30 2355 C 229.436 0.248977 -5.20605 0
M  V30 2356 C 226.764 -0.212409 -5.86315 0
M  V30 2357 C 229.116 -0.544701 -6.30251 0
M  V30 2358 C 227.78 -0.780599 -6.6292 0
M  V30 2359 H 227.05 0.308085 -0.673917 0
M  V30 2360 H 229.697 0.104867 -1.91213 0
M  V30 2361 H 228.002 2.44464 -3.06177 0
M  V30 2362 H 229.699 2.19015 -3.35907 0
M  V30 2363 H 226.289 1.00542 -4.16641 0
M  V30 2364 H 230.473 0.410408 -4.946 0
M  V30 2365 H 225.729 -0.404524 -6.1006 0
M  V30 2366 H 229.903 -0.993922 -6.89271 0
M  V30 2367 H 227.53 -1.40742 -7.47058 0
M  V30 2368 N 229.106 1.52395 0.401703 0
M  V30 2369 C 230.016 1.7917 1.51444 0
M  V30 2370 C 231.032 0.677691 1.6026 0
M  V30 2371 O 232.208 0.963909 1.76835 0
M  V30 2372 C 229.273 1.94347 2.87107 0
M  V30 2373 C 228.334 3.18257 2.88116 0
M  V30 2374 C 227.567 3.32701 4.17308 0
M  V30 2375 O 227.79 2.52238 5.11598 0
M  V30 2376 O 226.724 4.25891 4.25324 0
M  V30 2377 H 230.55 2.73633 1.31752 0
M  V30 2378 H 228.135 1.3733 0.588296 0
M  V30 2379 H 230.017 2.06109 3.67555 0
M  V30 2380 H 228.692 1.03073 3.06851 0
M  V30 2381 H 227.599 3.11947 2.06494 0
M  V30 2382 H 228.932 4.09336 2.73322 0
M  V30 2383 N 230.584 -0.659388 1.43143 0
M  V30 2384 C 231.547 -1.75432 1.47501 0
M  V30 2385 C 232.547 -1.56707 0.360512 0
M  V30 2386 O 233.737 -1.62717 0.622002 0
M  V30 2387 C 230.869 -3.14239 1.32162 0
M  V30 2388 H 232.062 -1.7295 2.45006 0
M  V30 2389 H 229.615 -0.870469 1.29817 0
M  V30 2390 H 230.35 -3.22336 0.356401 0
M  V30 2391 H 230.135 -3.29235 2.12948 0
M  V30 2392 H 231.625 -3.94094 1.3813 0
M  V30 2393 N 232.062 -1.29571 -0.897171 0
M  V30 2394 C 232.972 -1.16808 -2.03453 0
M  V30 2395 C 233.988 -0.0907471 -1.73763 0
M  V30 2396 O 235.164 -0.303312 -1.99103 0
M  V30 2397 C 232.229 -0.848264 -3.36163 0
M  V30 2398 C 231.29 -2.0097 -3.79354 0
M  V30 2399 C 230.523 -1.70505 -5.05731 0
M  V30 2400 O 230.746 -0.62718 -5.66941 0
M  V30 2401 O 229.68 -2.5538 -5.45036 0
M  V30 2402 H 233.506 -2.12325 -2.17144 0
M  V30 2403 H 231.091 -1.09047 -1.02123 0
M  V30 2404 H 232.973 -0.684581 -4.15802 0
M  V30 2405 H 231.648 0.0771071 -3.23608 0
M  V30 2406 H 230.555 -2.22863 -3.00471 0
M  V30 2407 H 231.888 -2.91636 -3.96496 0
M  V30 2408 N 233.54 1.10788 -1.12088 0
M  V30 2409 C 234.788 1.8231 -0.872205 0
M  V30 2410 C 235.109 1.85419 0.603709 0
M  V30 2411 O 234.379 1.32963 1.43867 0
M  V30 2412 H 232.959 0.675137 -0.319686 0
M  V30 2413 H 235.621 1.34068 -1.41463 0
M  V30 2414 H 234.717 2.85955 -1.25045 0
M  V30 2415 N 235.018 0.912232 1.28515 0
M  V30 2416 C 235.965 0.397954 2.27343 0
M  V30 2417 C 236.935 -0.526766 1.57526 0
M  V30 2418 O 238.12 -0.449292 1.85435 0
M  V30 2419 C 235.26 -0.357263 3.43246 0
M  V30 2420 C 234.373 0.599788 4.27816 0
M  V30 2421 C 233.508 -0.173725 5.30916 0
M  V30 2422 C 232.547 0.777039 6.07148 0
M  V30 2423 N 231.684 0.0371398 7.0209 0
M  V30 2424 H 236.524 1.24577 2.70711 0
M  V30 2425 H 234.061 0.625612 1.33133 0
M  V30 2426 H 236.019 -0.8113 4.09236 0
M  V30 2427 H 234.649 -1.16943 3.00872 0
M  V30 2428 H 233.701 1.17235 3.61884 0
M  V30 2429 H 235.013 1.32704 4.80823 0
M  V30 2430 H 234.167 -0.688394 6.02782 0
M  V30 2431 H 232.906 -0.934041 4.78672 0
M  V30 2432 H 231.911 1.3031 5.34134 0
M  V30 2433 H 233.136 1.53689 6.61481 0
M  V30 2434 H 231.082 -0.705213 6.52198 0
M  V30 2435 H 230.999 0.704249 7.52713 0
M  V30 2436 H 232.267 -0.457383 7.78157 0
M  V30 2437 N 236.496 -1.42363 0.676048 0
M  V30 2438 C 237.745 -2.00745 0.196037 0
M  V30 2439 C 238.058 -1.54083 -1.20489 0
M  V30 2440 O 239.264 -2.04891 -1.78134 0
M  V30 2441 C 237.72 -3.58651 0.299616 0
M  V30 2442 C 237.328 -4.143 1.70468 0
M  V30 2443 C 239.072 -4.24326 -0.121619 0
M  V30 2444 C 236.979 -5.64574 1.76096 0
M  V30 2445 H 235.909 -0.750787 0.0695301 0
M  V30 2446 H 238.56 -1.63072 0.841412 0
M  V30 2447 H 236.942 -3.93833 -0.413673 0
M  V30 2448 H 238.116 -3.90575 2.44515 0
M  V30 2449 H 236.431 -3.61081 2.07387 0
M  V30 2450 H 239.028 -5.34607 -0.0997362 0
M  V30 2451 H 239.371 -3.99897 -1.15708 0
M  V30 2452 H 239.904 -3.94108 0.540706 0
M  V30 2453 H 236.643 -5.93804 2.77628 0
M  V30 2454 H 236.163 -5.90286 1.06406 0
M  V30 2455 H 237.842 -6.29013 1.51496 0
M  V30 2456 N 237.974 -0.419461 -1.51915 0
M  V30 2457 C 238.921 0.400927 -2.27291 0
M  V30 2458 C 239.891 1.03224 -1.30131 0
M  V30 2459 O 241.076 1.05455 -1.59009 0
M  V30 2460 C 238.216 1.50603 -3.10504 0
M  V30 2461 C 237.329 0.89462 -4.22635 0
M  V30 2462 C 236.464 1.97328 -4.93189 0
M  V30 2463 C 235.503 1.33935 -5.97267 0
M  V30 2464 N 234.64 2.3586 -6.61298 0
M  V30 2465 H 239.48 -0.248251 -2.96964 0
M  V30 2466 H 237.017 -0.134266 -1.46486 0
M  V30 2467 H 238.975 2.15783 -3.57062 0
M  V30 2468 H 237.605 2.12509 -2.42981 0
M  V30 2469 H 236.657 0.131583 -3.80172 0
M  V30 2470 H 237.969 0.391641 -4.9726 0
M  V30 2471 H 237.123 2.70211 -5.43204 0
M  V30 2472 H 235.862 2.50994 -4.18155 0
M  V30 2473 H 234.867 0.595896 -5.46561 0
M  V30 2474 H 236.092 0.810252 -6.74249 0
M  V30 2475 H 234.038 2.88639 -5.89087 0
M  V30 2476 H 233.955 1.90403 -7.3163 0
M  V30 2477 H 235.223 3.08282 -7.15949 0
M  V30 2478 N 239.452 1.56882 -0.150215 0
M  V30 2479 C 240.382 2.19935 0.784284 0
M  V30 2480 C 241.363 1.14854 1.25469 0
M  V30 2481 O 242.548 1.43209 1.31168 0
M  V30 2482 C 239.678 2.82349 2.02229 0
M  V30 2483 C 238.632 3.93285 1.68853 0
M  V30 2484 C 237.958 4.42649 2.99944 0
M  V30 2485 C 239.258 5.13904 0.932714 0
M  V30 2486 H 240.952 2.9828 0.258781 0
M  V30 2487 H 238.498 1.43473 0.123029 0
M  V30 2488 H 240.451 3.25126 2.68088 0
M  V30 2489 H 239.175 2.0134 2.57157 0
M  V30 2490 H 237.834 3.5113 1.05371 0
M  V30 2491 H 237.482 3.58458 3.52869 0
M  V30 2492 H 237.182 5.17476 2.78374 0
M  V30 2493 H 238.706 4.88099 3.66868 0
M  V30 2494 H 240.12 5.53506 1.49345 0
M  V30 2495 H 238.517 5.94515 0.81684 0
M  V30 2496 H 239.587 4.84842 -0.0749568 0
M  V30 2497 N 240.93 -0.123565 1.57115 0
M  V30 2498 C 241.877 -1.15177 2.00007 0
M  V30 2499 C 242.847 -1.41403 0.871454 0
M  V30 2500 O 244.032 -1.53346 1.13533 0
M  V30 2501 C 241.172 -2.47436 2.40561 0
M  V30 2502 C 240.285 -2.28184 3.66819 0
M  V30 2503 C 239.42 -3.53641 3.96373 0
M  V30 2504 C 238.459 -3.29528 5.15827 0
M  V30 2505 N 237.596 -4.47175 5.41275 0
M  V30 2506 H 242.436 -0.779008 2.87638 0
M  V30 2507 H 239.973 -0.373166 1.42288 0
M  V30 2508 H 241.931 -3.24584 2.62109 0
M  V30 2509 H 240.561 -2.82614 1.55978 0
M  V30 2510 H 239.613 -1.41976 3.52912 0
M  V30 2511 H 240.925 -2.0634 4.5412 0
M  V30 2512 H 240.079 -4.39209 4.18545 0
M  V30 2513 H 238.818 -3.78512 3.07538 0
M  V30 2514 H 237.823 -2.42349 4.93505 0
M  V30 2515 H 239.048 -3.06031 6.06236 0
M  V30 2516 H 236.994 -4.72175 4.55397 0
M  V30 2517 H 236.911 -4.28419 6.22891 0
M  V30 2518 H 238.179 -5.3389 5.67963 0
M  V30 2519 N 242.408 -1.52605 -0.393616 0
M  V30 2520 C 243.685 -1.58001 -1.15304 0
M  V30 2521 C 244.065 -0.370385 -2.07825 0
M  V30 2522 O 243.413 0.641638 -2.19306 0
M  V30 2523 C 243.623 -2.91652 -1.91677 0
M  V30 2524 C 244.971 -3.4522 -2.47201 0
M  V30 2525 O 245.995 -2.93495 -2.01839 0
M  V30 2526 O 244.854 -4.35579 -3.3005 0
M  V30 2527 H 241.948 -0.637068 -0.527327 0
M  V30 2528 H 244.494 -1.64939 -0.399141 0
M  V30 2529 H 243.266 -3.71136 -1.23992 0
M  V30 2530 H 242.889 -2.88077 -2.74039 0
M  V30 2531 N 243.887 0.651787 -1.4349 0
M  V30 2532 C 245.134 1.41167 -1.45183 0
M  V30 2533 C 245.462 1.94349 -0.0766601 0
M  V30 2534 O 244.717 1.72804 0.918555 0
M  V30 2535 C 245.016 2.60914 -2.44251 0
M  V30 2536 C 244.682 2.26142 -3.9009 0
M  V30 2537 C 243.344 2.16371 -4.2981 0
M  V30 2538 C 245.696 1.98334 -4.81989 0
M  V30 2539 C 243.024 1.7695 -5.5938 0
M  V30 2540 C 245.376 1.6041 -6.11924 0
M  V30 2541 C 244.04 1.49166 -6.5062 0
M  V30 2542 H 243.31 0.516566 -0.531263 0
M  V30 2543 H 245.957 0.741099 -1.76579 0
M  V30 2544 H 244.262 3.3311 -2.06265 0
M  V30 2545 H 245.959 3.19127 -2.42815 0
M  V30 2546 H 242.549 2.34658 -3.58655 0
M  V30 2547 H 246.733 2.04803 -4.52072 0
M  V30 2548 H 241.989 1.66831 -5.88198 0
M  V30 2549 H 246.163 1.37925 -6.82605 0
M  V30 2550 H 243.79 1.1839 -7.50925 0
M  V30 2551 N 245.365 1.30045 0.890287 0
M  V30 2552 C 246.313 1.15873 2.01683 0
M  V30 2553 C 247.307 0.0719403 1.69247 0
M  V30 2554 O 248.513 0.232414 1.78493 0
M  V30 2555 H 244.888 0.358203 0.661207 0
M  V30 2556 H 246.859 2.11229 2.10772 0
M  V30 2557 C 245.608 0.861842 3.36849 0
M  V30 2558 H 244.931 1.69016 3.62317 0
M  V30 2559 H 246.371 0.802762 4.16331 0
M  V30 2560 C 244.83 -0.435132 3.34078 0
M  V30 2561 O 245.36 -1.4583 3.74295 0
M  V30 2562 N 243.566 -0.444377 2.87182 0
M  V30 2563 H 243.113 0.388723 2.5465 0
M  V30 2564 H 243.071 -1.31213 2.85711 0
M  V30 2565 N 246.843 -1.10192 1.12674 0
M  V30 2566 C 248.092 -1.81573 0.8783 0
M  V30 2567 C 248.405 -1.86249 -0.597557 0
M  V30 2568 O 249.611 -2.5386 -0.962681 0
M  V30 2569 C 248.067 -3.26149 1.52167 0
M  V30 2570 C 247.675 -3.29763 3.03249 0
M  V30 2571 C 249.419 -4.0234 1.3536 0
M  V30 2572 C 247.326 -4.68815 3.60508 0
M  V30 2573 H 246.256 -0.680394 0.324931 0
M  V30 2574 H 248.907 -1.23902 1.35353 0
M  V30 2575 H 247.289 -3.83832 0.974104 0
M  V30 2576 H 248.463 -2.8189 3.6452 0
M  V30 2577 H 246.778 -2.67059 3.19481 0
M  V30 2578 H 249.375 -5.05058 1.75559 0
M  V30 2579 H 249.718 -4.15235 0.297554 0
M  V30 2580 H 250.251 -3.51079 1.87052 0
M  V30 2581 H 246.99 -4.61121 4.65884 0
M  V30 2582 H 246.51 -5.17045 3.04014 0
M  V30 2583 H 248.189 -5.37785 3.59717 0
M  V30 2584 N 248.321 -0.919034 -1.28029 0
M  V30 2585 C 249.268 -0.410005 -2.27129 0
M  V30 2586 C 250.238 0.518405 -1.57803 0
M  V30 2587 O 251.423 0.439451 -1.8567 0
M  V30 2588 C 248.563 0.339054 -3.4343 0
M  V30 2589 C 247.676 -0.622468 -4.27492 0
M  V30 2590 C 246.811 0.145567 -5.31001 0
M  V30 2591 C 245.85 -0.809226 -6.06727 0
M  V30 2592 N 244.987 -0.0743728 -7.02061 0
M  V30 2593 H 249.827 -1.26011 -2.70047 0
M  V30 2594 H 247.364 -0.632663 -1.328 0
M  V30 2595 H 249.322 0.789586 -4.0966 0
M  V30 2596 H 247.952 1.15346 -3.01488 0
M  V30 2597 H 247.004 -1.19153 -3.61257 0
M  V30 2598 H 248.316 -1.35252 -4.80113 0
M  V30 2599 H 247.47 0.656417 -6.03139 0
M  V30 2600 H 246.209 0.908643 -4.79161 0
M  V30 2601 H 245.214 -1.3314 -5.33436 0
M  V30 2602 H 246.439 -1.57194 -6.60656 0
M  V30 2603 H 244.385 0.670616 -6.52563 0
M  V30 2604 H 244.302 -0.744157 -7.52329 0
M  V30 2605 H 245.57 0.416109 -7.78389 0
M  V30 2606 N 249.799 1.42003 -0.683588 0
M  V30 2607 C 251.027 2.05746 -0.218182 0
M  V30 2608 C 251.442 1.51396 1.12804 0
M  V30 2609 O 250.799 0.657303 1.70252 0
M  V30 2610 C 250.85 3.61171 -0.154131 0
M  V30 2611 O 250.571 4.13508 -1.44716 0
M  V30 2612 C 252.072 4.42042 0.333713 0
M  V30 2613 H 249.292 0.662888 -0.10402 0
M  V30 2614 H 251.836 1.81987 -0.9328 0
M  V30 2615 H 249.991 3.84012 0.511231 0
M  V30 2616 H 250.405 5.07453 -1.32632 0
M  V30 2617 H 251.879 5.51028 0.327423 0
M  V30 2618 H 252.356 4.17269 1.37053 0
M  V30 2619 H 252.962 4.24239 -0.300222 0
M  V30 2620 N 251.277 0.427512 1.51691 0
M  V30 2621 C 252.554 -0.201684 1.94557 0
M  V30 2622 C 252.934 -1.60981 1.36559 0
M  V30 2623 O 252.282 -2.21814 0.548702 0
M  V30 2624 C 252.492 -0.189394 3.48486 0
M  V30 2625 C 253.84 -0.39978 4.22714 0
M  V30 2626 O 254.864 -0.267945 3.55191 0
M  V30 2627 O 253.723 -0.661249 5.42485 0
M  V30 2628 H 250.817 -0.135261 0.815864 0
M  V30 2629 H 253.363 0.484782 1.62628 0
M  V30 2630 H 252.135 0.795431 3.8313 0
M  V30 2631 H 251.758 -0.919187 3.86829 0
M  V30 2632 N 252.755 -1.56801 0.158532 0
M  V30 2633 C 253.685 -2.20347 -0.772609 0
M  V30 2634 C 254.666 -1.15518 -1.24859 0
M  V30 2635 O 255.851 -1.43902 -1.30406 0
M  V30 2636 C 252.981 -2.83417 -2.00729 0
M  V30 2637 C 251.935 -3.94174 -1.66765 0
M  V30 2638 C 251.261 -4.44233 -2.97592 0
M  V30 2639 C 252.561 -5.14392 -0.905447 0
M  V30 2640 H 254.255 -2.98413 -0.242959 0
M  V30 2641 H 251.801 -1.43537 -0.115419 0
M  V30 2642 H 253.754 -3.26543 -2.6636 0
M  V30 2643 H 252.478 -2.02701 -2.56086 0
M  V30 2644 H 251.137 -3.51684 -1.03508 0
M  V30 2645 H 250.785 -3.60325 -3.50963 0
M  V30 2646 H 250.485 -5.18945 -2.75626 0
M  V30 2647 H 252.009 -4.90037 -3.64274 0
M  V30 2648 H 253.423 -5.5429 -1.46408 0
M  V30 2649 H 251.82 -5.9494 -0.7853 0
M  V30 2650 H 252.89 -4.84795 0.100668 0
M  V30 2651 N 254.233 0.115231 -1.57178 0
M  V30 2652 C 255.481 0.820727 -1.84685 0
M  V30 2653 C 255.802 1.80237 -0.744279 0
M  V30 2654 O 255.072 1.94529 0.231375 0
M  V30 2655 H 253.652 0.306084 -0.681411 0
M  V30 2656 H 256.314 0.101656 -1.94635 0
M  V30 2657 H 255.41 1.36366 -2.80733 0
M  V30 2658 N 255.711 1.52812 0.385517 0
M  V30 2659 C 257.122 1.5993 0.963293 0
M  V30 2660 C 257.473 0.454302 1.90868 0
M  V30 2661 O 256.598 -0.422132 2.12243 0
M  V30 2662 C 257.193 2.89871 1.75387 0
M  V30 2663 C 255.752 2.99389 2.28129 0
M  V30 2664 C 254.899 2.55071 1.08783 0
M  V30 2665 H 257.85 1.5784 0.164948 0
M  V30 2666 H 257.871 2.76553 2.61341 0
M  V30 2667 H 257.383 3.73186 1.06554 0
M  V30 2668 H 255.484 2.20619 3.00263 0
M  V30 2669 H 255.597 4.04096 2.57377 0
M  V30 2670 H 253.961 2.09473 1.4489 0
M  V30 2671 H 254.744 3.40785 0.414807 0
M  V30 2672 N 257.189 -0.644168 1.43834 0
M  V30 2673 C 258.152 -1.73857 1.49353 0
M  V30 2674 C 259.152 -1.56315 0.377112 0
M  V30 2675 O 260.342 -1.62048 0.639226 0
M  V30 2676 C 257.474 -3.12819 1.35488 0
M  V30 2677 H 258.667 -1.70342 2.46827 0
M  V30 2678 H 256.22 -0.856652 1.30733 0
M  V30 2679 H 256.955 -3.2194 0.390569 0
M  V30 2680 H 256.74 -3.26958 2.16428 0
M  V30 2681 H 258.23 -3.92606 1.42302 0
M  V30 2682 N 258.668 -1.30515 -0.883378 0
M  V30 2683 C 259.893 -1.22487 -1.67367 0
M  V30 2684 C 260.318 0.208767 -1.86938 0
M  V30 2685 O 259.676 1.15015 -1.40148 0
M  V30 2686 C 259.724 -1.96041 -3.02655 0
M  V30 2687 O 258.828 -1.28859 -3.91751 0
M  V30 2688 H 258.169 -0.423573 -0.511353 0
M  V30 2689 H 260.699 -1.72362 -1.10239 0
M  V30 2690 H 260.709 -2.05124 -3.52687 0
M  V30 2691 H 259.384 -3.00307 -2.8773 0
M  V30 2692 H 257.961 -1.28141 -3.50192 0
M  V30 2693 N 260.146 1.09593 -1.13257 0
M  V30 2694 C 261.078 2.16015 -0.766167 0
M  V30 2695 C 262.091 1.61423 0.211303 0
M  V30 2696 O 263.28 1.78498 -0.00863946 0
M  V30 2697 C 260.38 3.38706 -0.114662 0
M  V30 2698 C 259.553 4.22717 -1.12379 0
M  V30 2699 C 258.612 5.23835 -0.498301 0
M  V30 2700 O 257.638 5.573 -1.15781 0
M  V30 2701 N 258.84 5.75886 0.730417 0
M  V30 2702 H 261.605 2.48055 -1.68193 0
M  V30 2703 H 259.166 1.25292 -1.02535 0
M  V30 2704 H 261.158 4.03464 0.315991 0
M  V30 2705 H 259.728 3.04569 0.704011 0
M  V30 2706 H 258.948 3.54122 -1.73179 0
M  V30 2707 H 260.236 4.75673 -1.80589 0
M  V30 2708 H 259.634 5.50911 1.28504 0
M  V30 2709 H 258.191 6.42387 1.10376 0
M  V30 2710 N 261.624 0.925811 1.2754 0
M  V30 2711 C 262.534 0.428993 2.30644 0
M  V30 2712 C 263.55 -0.489387 1.66976 0
M  V30 2713 O 264.726 -0.372653 1.97922 0
M  V30 2714 C 261.791 -0.311967 3.45294 0
M  V30 2715 C 260.852 0.641098 4.24486 0
M  V30 2716 C 260.085 -0.0645955 5.33661 0
M  V30 2717 O 260.308 -1.28429 5.55754 0
M  V30 2718 O 259.242 0.606265 5.98839 0
M  V30 2719 H 263.068 1.28504 2.75173 0
M  V30 2720 H 260.653 0.691086 1.32455 0
M  V30 2721 H 262.535 -0.729972 4.15029 0
M  V30 2722 H 261.21 -1.14365 3.02824 0
M  V30 2723 H 260.117 1.10874 3.57292 0
M  V30 2724 H 261.45 1.43995 4.70666 0
M  V30 2725 N 263.102 -1.41638 0.69111 0
M  V30 2726 C 264.348 -2.01598 0.220519 0
M  V30 2727 C 264.681 -1.54594 -1.17535 0
M  V30 2728 O 263.956 -0.755177 -1.79241 0
M  V30 2729 C 264.239 -3.59062 0.273243 0
M  V30 2730 C 264.092 -4.16203 1.70573 0
M  V30 2731 C 265.411 -4.38546 -0.369457 0
M  V30 2732 H 262.53 -0.732468 0.0816045 0
M  V30 2733 H 265.172 -1.68445 0.878986 0
M  V30 2734 H 263.322 -3.87435 -0.287411 0
M  V30 2735 H 264.994 -3.98722 2.31989 0
M  V30 2736 H 263.237 -3.71414 2.2413 0
M  V30 2737 H 263.908 -5.25358 1.69419 0
M  V30 2738 H 266.384 -4.1596 0.107977 0
M  V30 2739 H 265.26 -5.48069 -0.302002 0
M  V30 2740 H 265.521 -4.17662 -1.44951 0
M  V30 2741 N 264.58 -0.43555 -1.51462 0
M  V30 2742 C 265.857 0.191364 -1.94662 0
M  V30 2743 C 266.237 1.60254 -1.37411 0
M  V30 2744 O 265.585 2.2152 -0.560458 0
M  V30 2745 C 265.795 0.17091 -3.48581 0
M  V30 2746 C 267.143 0.377357 -4.2292 0
M  V30 2747 O 268.167 0.249104 -3.55328 0
M  V30 2748 O 267.026 0.63247 -5.42828 0
M  V30 2749 H 264.12 0.130932 -0.816569 0
M  V30 2750 H 266.666 -0.4934 -1.62369 0
M  V30 2751 H 265.438 -0.815738 -3.82703 0
M  V30 2752 H 265.061 0.898659 -3.87311 0
M  V30 2753 N 266.058 1.56714 -0.166846 0
M  V30 2754 C 266.988 2.20754 0.760913 0
M  V30 2755 C 267.969 1.16178 1.24244 0
M  V30 2756 O 269.154 1.44592 1.29641 0
M  V30 2757 C 266.284 2.84478 1.99223 0
M  V30 2758 C 265.238 3.95053 1.64672 0
M  V30 2759 C 264.564 4.45805 2.95232 0
M  V30 2760 C 265.864 5.14865 0.878155 0
M  V30 2761 H 267.558 2.98537 0.22713 0
M  V30 2762 H 265.104 1.43596 0.107805 0
M  V30 2763 H 267.057 3.27951 2.64624 0
M  V30 2764 H 265.781 2.04056 2.55007 0
M  V30 2765 H 264.44 3.52228 1.01641 0
M  V30 2766 H 264.088 3.62181 3.49047 0
M  V30 2767 H 263.788 5.204 2.7287 0
M  V30 2768 H 265.312 4.91962 3.6167 0
M  V30 2769 H 266.726 5.55059 1.43466 0
M  V30 2770 H 265.123 5.95348 0.753738 0
M  V30 2771 H 266.193 4.84735 -0.126377 0
M  V30 2772 N 267.536 -0.106894 1.57237 0
M  V30 2773 C 268.785 -0.811163 1.8467 0
M  V30 2774 C 269.098 -1.80469 0.754342 0
M  V30 2775 O 270.304 -2.55601 0.915439 0
M  V30 2776 C 268.76 -1.49337 3.27454 0
M  V30 2777 C 268.368 -0.540217 4.44731 0
M  V30 2778 C 270.112 -2.18206 3.64124 0
M  V30 2779 C 268.019 -1.22634 5.78545 0
M  V30 2780 H 266.949 -0.306679 0.688813 0
M  V30 2781 H 269.6 -0.0639887 1.83388 0
M  V30 2782 H 267.982 -2.2876 3.23241 0
M  V30 2783 H 269.156 0.221659 4.60267 0
M  V30 2784 H 267.471 0.042146 4.16379 0
M  V30 2785 H 270.068 -2.70253 4.61376 0
M  V30 2786 H 270.411 -2.96562 2.92158 0
M  V30 2787 H 270.944 -1.45658 3.70174 0
M  V30 2788 H 267.683 -0.483832 6.53712 0
M  V30 2789 H 267.203 -1.95993 5.66874 0
M  V30 2790 H 268.882 -1.75615 6.2271 0
M  V30 2791 N 269.014 -1.53014 -0.377408 0
M  V30 2792 C 270.263 -1.67845 -1.11853 0
M  V30 2793 C 270.576 -0.430625 -1.90801 0
M  V30 2794 O 271.782 -0.459261 -2.67587 0
M  V30 2795 C 270.238 -2.96668 -2.03756 0
M  V30 2796 C 269.846 -4.28671 -1.30175 0
M  V30 2797 C 271.59 -3.20865 -2.77932 0
M  V30 2798 C 269.497 -5.48591 -2.20911 0
M  V30 2799 H 268.427 -0.625343 -0.421263 0
M  V30 2800 H 271.078 -1.79514 -0.380409 0
M  V30 2801 H 269.46 -2.78773 -2.8125 0
M  V30 2802 H 270.634 -4.57157 -0.578259 0
M  V30 2803 H 268.949 -4.10825 -0.679108 0
M  V30 2804 H 271.546 -4.07642 -3.46024 0
M  V30 2805 H 271.889 -2.36424 -3.4265 0
M  V30 2806 H 272.422 -3.39379 -2.07525 0
M  V30 2807 H 269.161 -6.35474 -1.6079 0
M  V30 2808 H 268.681 -5.244 -2.91144 0
M  V30 2809 H 270.36 -5.8292 -2.80736 0
M  V30 2810 N 270.492 0.636531 -1.44174 0
M  V30 2811 C 271.717 1.42847 -1.50364 0
M  V30 2812 C 272.142 1.87665 -0.127867 0
M  V30 2813 O 271.5 1.58408 0.88185 0
M  V30 2814 C 271.548 2.62854 -2.4686 0
M  V30 2815 O 270.652 3.62501 -1.9664 0
M  V30 2816 H 269.993 0.427642 -0.507955 0
M  V30 2817 H 272.523 0.777422 -1.89255 0
M  V30 2818 H 272.533 3.10465 -2.64718 0
M  V30 2819 H 271.208 2.29578 -3.46795 0
M  V30 2820 H 269.785 3.21735 -1.88523 0
M  V30 2821 N 271.97 1.30982 0.876444 0
M  V30 2822 C 273.216 1.20474 1.63138 0
M  V30 2823 C 273.549 -0.238096 1.92735 0
M  V30 2824 O 272.824 -1.1692 1.55435 0
M  V30 2825 C 273.107 2.04244 2.96574 0
M  V30 2826 C 272.96 3.56793 2.73896 0
M  V30 2827 C 274.279 1.88684 3.97601 0
M  V30 2828 H 271.398 0.439001 0.591985 0
M  V30 2829 H 274.04 1.60704 1.01361 0
M  V30 2830 H 272.19 1.70063 3.493 0
M  V30 2831 H 273.862 4.01077 2.27892 0
M  V30 2832 H 272.105 3.80548 2.08245 0
M  V30 2833 H 272.776 4.10706 3.68815 0
M  V30 2834 H 275.252 2.18584 3.54062 0
M  V30 2835 H 274.128 2.4961 4.88862 0
M  V30 2836 H 274.389 0.848343 4.33884 0
M  V30 2837 N 273.449 -1.08991 1.13837 0
M  V30 2838 C 274.359 -2.19301 0.833333 0
M  V30 2839 C 275.375 -1.73026 -0.183847 0
M  V30 2840 O 276.551 -2.01395 -0.0138092 0
M  V30 2841 C 273.616 -3.45323 0.308651 0
M  V30 2842 C 272.677 -4.06255 1.38764 0
M  V30 2843 C 271.91 -5.26262 0.887896 0
M  V30 2844 O 272.133 -5.69747 -0.27287 0
M  V30 2845 O 271.067 -5.78435 1.66421 0
M  V30 2846 H 274.893 -2.47854 1.75506 0
M  V30 2847 H 272.478 -1.18012 0.916166 0
M  V30 2848 H 274.36 -4.21394 0.0216739 0
M  V30 2849 H 273.035 -3.18362 -0.585431 0
M  V30 2850 H 271.942 -3.318 1.72799 0
M  V30 2851 H 273.275 -4.37452 2.25602 0
M  V30 2852 N 274.927 -0.932562 -1.27047 0
M  V30 2853 C 276.175 -0.574422 -1.93765 0
M  V30 2854 C 276.496 0.887993 -1.73608 0
M  V30 2855 O 275.766 1.62999 -1.08665 0
M  V30 2856 H 274.346 -0.209451 -0.717035 0
M  V30 2857 H 277.008 -1.18601 -1.5466 0
M  V30 2858 H 276.104 -0.784841 -3.02071 0
M  V30 2859 N 276.405 1.4127 -0.698611 0
M  V30 2860 C 277.651 2.01478 -0.231207 0
M  V30 2861 C 277.984 1.55215 1.16713 0
M  V30 2862 O 277.259 0.764672 1.78838 0
M  V30 2863 C 277.542 3.58912 -0.292281 0
M  V30 2864 C 277.395 4.15293 -1.72778 0
M  V30 2865 C 278.714 4.38736 0.346194 0
M  V30 2866 H 275.833 0.732025 -0.0854878 0
M  V30 2867 H 278.475 1.67977 -0.887906 0
M  V30 2868 H 276.625 3.87582 0.26686 0
M  V30 2869 H 278.297 3.97486 -2.341 0
M  V30 2870 H 276.54 3.7022 -2.26096 0
M  V30 2871 H 277.211 5.24452 -1.72202 0
M  V30 2872 H 279.687 4.15897 -0.130035 0
M  V30 2873 H 278.563 5.48221 0.272932 0
M  V30 2874 H 278.824 4.18425 1.42734 0
M  V30 2875 N 277.883 0.443576 1.51229 0
M  V30 2876 C 278.815 -0.400608 2.25672 0
M  V30 2877 C 279.828 -0.980945 1.29928 0
M  V30 2878 O 281.017 -0.874024 1.55638 0
M  V30 2879 C 278.117 -1.57304 3.00181 0
M  V30 2880 C 277.29 -1.11046 4.23069 0
M  V30 2881 C 276.349 -2.15374 4.80105 0
M  V30 2882 O 275.375 -1.74554 5.41774 0
M  V30 2883 N 276.577 -3.47922 4.64683 0
M  V30 2884 H 279.342 0.23745 2.98758 0
M  V30 2885 H 276.903 0.272809 1.59585 0
M  V30 2886 H 278.895 -2.26733 3.35223 0
M  V30 2887 H 277.465 -2.11632 2.30066 0
M  V30 2888 H 276.685 -0.243019 3.9345 0
M  V30 2889 H 277.973 -0.778888 5.02803 0
M  V30 2890 H 277.371 -3.83815 4.15575 0
M  V30 2891 H 275.928 -4.13228 5.0407 0
M  V30 2892 N 279.361 -1.56624 0.175154 0
M  V30 2893 C 280.293 -2.15333 -0.785128 0
M  V30 2894 C 281.306 -1.1099 -1.19101 0
M  V30 2895 O 282.495 -1.38162 -1.13019 0
M  V30 2896 C 279.595 -2.68427 -2.06882 0
M  V30 2897 C 278.768 -3.97466 -1.8259 0
M  V30 2898 C 277.827 -4.35585 -2.95215 0
M  V30 2899 O 276.853 -5.03389 -2.65684 0
M  V30 2900 N 278.055 -3.97457 -4.23094 0
M  V30 2901 H 280.82 -2.98359 -0.283187 0
M  V30 2902 H 278.381 -1.61898 -0.00749817 0
M  V30 2903 H 280.373 -2.90924 -2.81328 0
M  V30 2904 H 278.943 -1.89968 -2.48256 0
M  V30 2905 H 278.163 -3.83307 -0.920287 0
M  V30 2906 H 279.451 -4.81736 -1.63733 0
M  V30 2907 H 278.849 -3.42878 -4.49945 0
M  V30 2908 H 277.406 -4.24947 -4.9423 0
M  V30 2909 N 280.839 0.0985539 -1.57292 0
M  V30 2910 C 281.786 1.11981 -2.01814 0
M  V30 2911 C 282.756 1.39999 -0.89384 0
M  V30 2912 O 283.941 1.5152 -1.15958 0
M  V30 2913 C 281.081 2.43577 -2.44467 0
M  V30 2914 C 280.194 2.2232 -3.70402 0
M  V30 2915 C 279.329 3.4729 -4.01949 0
M  V30 2916 C 278.368 3.2128 -5.21005 0
M  V30 2917 N 277.505 4.38507 -5.48321 0
M  V30 2918 H 282.345 0.733149 -2.88841 0
M  V30 2919 H 279.882 0.350482 -1.42864 0
M  V30 2920 H 281.84 3.20373 -2.6724 0
M  V30 2921 H 280.47 2.80097 -1.60455 0
M  V30 2922 H 279.522 1.36343 -3.55126 0
M  V30 2923 H 280.834 1.99089 -4.57345 0
M  V30 2924 H 279.988 4.32495 -4.25479 0
M  V30 2925 H 278.727 3.73572 -3.13521 0
M  V30 2926 H 277.732 2.34468 -4.97298 0
M  V30 2927 H 278.957 2.96348 -6.11028 0
M  V30 2928 H 276.903 4.64871 -4.62851 0
M  V30 2929 H 276.82 4.18455 -6.29628 0
M  V30 2930 H 278.088 5.24787 -5.76385 0
M  V30 2931 O 282.356 1.59668 0.242586 0
M  V30 2932 H 283.047 1.72276 0.885483 0
M  V30 END ATOM
M  V30 BEGIN BOND
M  V30 END BOND
M  V30 END CTAB
M  END
$$$$
