drugbank_target|P0A8D6 O-acetyl-ADP-ribose deacetylase (DB03814)
 OpenBabel12092120283D

  0  0  0     0  0            999 V3000
M  V30 BEGIN CTAB
M  V30 COUNTS 2644 2669 0 0 0
M  V30 BEGIN ATOM
M  V30 1 H -0.908 1.98254 -0.117106 0
M  V30 2 N 0 1.576 0 0
M  V30 3 C 0.933 2.03868 1.02534 0
M  V30 4 C 1.911 0.928543 1.3348 0
M  V30 5 O 3.095 1.19667 1.45644 0
M  V30 6 C 0.222 2.43627 2.35294 0
M  V30 7 C -0.732 3.65373 2.2001 0
M  V30 8 S 0.101 5.13292 1.52614 0
M  V30 9 C 1.257 5.56322 2.86805 0
M  V30 10 H 1.49 2.90518 0.631377 0
M  V30 11 H -0.977 1.52953 0.210867 0
M  V30 12 H 0.981 2.67203 3.11629 0
M  V30 13 H -0.358 1.57376 2.7183 0
M  V30 14 H -1.165 3.90944 3.18086 0
M  V30 15 H -1.563 3.418 1.51819 0
M  V30 16 H 0.729 5.58782 3.83104 0
M  V30 17 H 1.672 6.56266 2.65933 0
M  V30 18 H 2.08 4.83886 2.90714 0
M  V30 19 N 1.4781 -0.272755 1.55222 0
M  V30 20 C 2.4251 -1.33716 1.88119 0
M  V30 21 C 3.3951 -1.49066 0.73271 0
M  V30 22 O 4.5801 -1.63469 0.984002 0
M  V30 23 C 1.7201 -2.69238 2.15882 0
M  V30 24 C 0.8331 -2.62108 3.43399 0
M  V30 25 C -0.0319 -3.89811 3.60861 0
M  V30 26 C -0.9929 -3.77193 4.8207 0
M  V30 27 N -1.8559 -4.9673 4.96189 0
M  V30 28 H 2.9841 -1.04962 2.78903 0
M  V30 29 H 0.5211 -0.507088 1.38083 0
M  V30 30 H 2.4791 -3.48089 2.29978 0
M  V30 31 H 1.1091 -2.96194 1.28331 0
M  V30 32 H 0.1611 -1.74967 3.37773 0
M  V30 33 H 1.4731 -2.48685 4.32386 0
M  V30 34 H 0.6271 -4.77103 3.74777 0
M  V30 35 H -0.6339 -4.06102 2.7006 0
M  V30 36 H -1.6289 -2.88284 4.68159 0
M  V30 37 H -0.4039 -3.62421 5.74307 0
M  V30 38 H -2.4579 -5.13431 4.08319 0
M  V30 39 H -2.5409 -4.85839 5.79221 0
M  V30 40 H -1.2729 -5.85594 5.1449 0
M  V30 41 N 2.9562 -1.48159 -0.537278 0
M  V30 42 C 4.1842 -1.59454 -1.31841 0
M  V30 43 C 4.5992 -0.252065 -1.8711 0
M  V30 44 O 3.9562 0.757621 -1.66031 0
M  V30 45 C 4.0072 -2.63546 -2.47439 0
M  V30 46 O 3.7282 -3.92583 -1.94449 0
M  V30 47 C 5.2292 -2.85212 -3.39366 0
M  V30 48 H 2.4492 -0.53785 -0.401196 0
M  V30 49 H 4.9932 -1.93932 -0.648891 0
M  V30 50 H 3.1482 -2.31946 -3.1029 0
M  V30 51 H 3.5622 -4.49629 -2.70063 0
M  V30 52 H 5.0362 -3.61863 -4.16844 0
M  V30 53 H 5.5132 -1.93765 -3.94147 0
M  V30 54 H 6.1192 -3.18086 -2.82314 0
M  V30 55 N 4.4343 0.785586 -1.36625 0
M  V30 56 C 5.8503 1.08419 -1.17122 0
M  V30 57 C 6.0503 2.015 0.00208491 0
M  V30 58 O 5.1063 2.43551 0.666278 0
M  V30 59 C 6.4193 1.69498 -2.48377 0
M  V30 60 C 7.9673 1.81821 -2.54775 0
M  V30 61 C 8.4423 2.46315 -3.86126 0
M  V30 62 N 9.9333 2.53779 -3.87492 0
M  V30 63 C 10.6683 3.045 -4.85868 0
M  V30 64 N 10.1643 3.55499 -5.94637 0
M  V30 65 N 11.9573 3.03247 -4.73284 0
M  V30 66 H 4.1083 0.167264 -2.1174 0
M  V30 67 H 6.3713 0.13682 -0.938075 0
M  V30 68 H 6.0773 1.08571 -3.34522 0
M  V30 69 H 5.9513 2.6896 -2.64462 0
M  V30 70 H 8.3383 2.41884 -1.69045 0
M  V30 71 H 8.4193 0.811532 -2.42586 0
M  V30 72 H 8.0633 1.86895 -4.72263 0
M  V30 73 H 7.9933 3.47561 -3.95612 0
M  V30 74 H 10.4843 2.17672 -3.08913 0
M  V30 75 H 10.7973 3.92562 -6.65669 0
M  V30 76 H 9.1423 3.5364 -5.98301 0
M  V30 77 H 12.3333 2.62696 -3.87438 0
M  V30 78 H 12.5063 3.42467 -5.50109 0
M  V30 79 N 5.9124 1.20967 1.01018 0
M  V30 80 C 7.1614 1.01796 1.74128 0
M  V30 81 C 7.4744 -0.449691 1.90361 0
M  V30 82 O 8.6804 -0.76068 2.60626 0
M  V30 83 C 7.1364 1.7727 3.13215 0
M  V30 84 C 6.7444 3.28171 3.04972 0
M  V30 85 C 8.4884 1.66489 3.90489 0
M  V30 86 C 6.3954 3.96156 4.39107 0
M  V30 87 H 5.3254 0.377276 0.652824 0
M  V30 88 H 7.9764 1.44651 1.12909 0
M  V30 89 H 6.3584 1.27205 3.75013 0
M  V30 90 H 7.5324 3.85499 2.52443 0
M  V30 91 H 5.8474 3.39437 2.41188 0
M  V30 92 H 8.4444 2.14617 4.89738 0
M  V30 93 H 8.7874 0.6222 4.11624 0
M  V30 94 H 9.3204 2.14003 3.35332 0
M  V30 95 H 6.0594 5.00604 4.23174 0
M  V30 96 H 5.5794 3.43617 4.91617 0
M  V30 97 H 7.2584 4.00774 5.07926 0
M  V30 98 N 7.3905 -1.2043 1.01659 0
M  V30 99 C 8.3405 -2.21076 0.557623 0
M  V30 100 C 9.3245 -1.56176 -0.387029 0
M  V30 101 O 10.5165 -1.7575 -0.209996 0
M  V30 102 C 7.6455 -3.43146 -0.102707 0
M  V30 103 C 6.7315 -4.15213 0.863652 0
M  V30 104 N 7.1225 -4.63662 2.02117 0
M  V30 105 C 5.4205 -4.40716 0.684472 0
M  V30 106 C 6.1215 -5.18868 2.62966 0
M  V30 107 N 5.0975 -5.0893 1.91027 0
M  V30 108 H 8.8995 -2.56201 1.44008 0
M  V30 109 H 6.4135 -1.36366 0.881931 0
M  V30 110 H 8.4105 -4.14475 -0.449054 0
M  V30 111 H 7.0705 -3.09526 -0.981003 0
M  V30 112 H 8.0815 -4.58877 2.40109 0
M  V30 113 H 4.7585 -4.17245 -0.14577 0
M  V30 114 H 6.1485 -5.6673 3.60924 0
M  V30 115 N 8.8686 -0.792821 -1.36206 0
M  V30 116 C 10.1146 -0.36733 -1.99446 0
M  V30 117 C 10.4476 1.05917 -1.62774 0
M  V30 118 O 9.7226 1.7324 -0.88421 0
M  V30 119 C 10.0056 -0.535044 -3.56103 0
M  V30 120 C 9.8586 -2.00548 -4.02617 0
M  V30 121 C 11.1776 0.0478191 -4.40074 0
M  V30 122 H 8.2966 -0.134941 -0.724541 0
M  V30 123 H 10.9386 -0.999794 -1.61568 0
M  V30 124 H 9.0886 0.00336329 -3.885 0
M  V30 125 H 10.7606 -2.60521 -3.80692 0
M  V30 126 H 9.0036 -2.50686 -3.54032 0
M  V30 127 H 9.6746 -2.07377 -5.11565 0
M  V30 128 H 12.1506 -0.411822 -4.14057 0
M  V30 129 H 11.0266 -0.0995336 -5.4881 0
M  V30 130 H 11.2876 1.14025 -4.27142 0
M  V30 131 N 10.3467 1.47872 -0.545128 0
M  V30 132 C 11.5927 2.02793 -0.0166104 0
M  V30 133 C 11.9257 1.41987 1.32489 0
M  V30 134 O 11.2007 0.571045 1.85928 0
M  V30 135 C 11.4837 3.59989 0.0893294 0
M  V30 136 C 11.3367 4.3125 -1.27841 0
M  V30 137 C 12.6557 4.32606 0.808724 0
M  V30 138 H 9.7747 0.736962 -0.00751035 0
M  V30 139 H 12.4167 1.76433 -0.705085 0
M  V30 140 H 10.5667 3.82579 0.675681 0
M  V30 141 H 12.2387 4.20035 -1.90704 0
M  V30 142 H 10.4817 3.92076 -1.85632 0
M  V30 143 H 11.1527 5.39736 -1.15713 0
M  V30 144 H 13.6287 4.14936 0.310992 0
M  V30 145 H 12.5047 5.42251 0.851782 0
M  V30 146 H 12.7657 4.00963 1.86229 0
M  V30 147 N 11.8248 0.280983 1.55075 0
M  V30 148 C 12.7568 -0.637268 2.20163 0
M  V30 149 C 13.7698 -1.11298 1.18813 0
M  V30 150 O 14.9588 -1.03388 1.4551 0
M  V30 151 C 12.0588 -1.88199 2.81841 0
M  V30 152 C 11.2318 -1.55211 4.08936 0
M  V30 153 C 10.2908 -2.64991 4.54606 0
M  V30 154 O 9.3168 -2.30929 5.2025 0
M  V30 155 N 10.5188 -3.95161 4.25238 0
M  V30 156 H 13.2838 -0.0801694 2.99593 0
M  V30 157 H 10.8448 0.102329 1.61576 0
M  V30 158 H 12.8368 -2.60948 3.09335 0
M  V30 159 H 11.4068 -2.34799 2.06369 0
M  V30 160 H 10.6268 -0.658185 3.88666 0
M  V30 161 H 11.9148 -1.30681 4.91732 0
M  V30 162 H 11.3128 -4.25653 3.72607 0
M  V30 163 H 9.8698 -4.6427 4.5749 0
M  V30 164 N 13.3029 -1.57598 0.00835791 0
M  V30 165 C 14.5509 -1.90551 -0.6734 0
M  V30 166 C 14.8719 -0.883301 -1.73847 0
M  V30 167 O 14.1419 0.0781442 -1.95744 0
M  V30 168 H 12.7219 -0.703312 -0.251717 0
M  V30 169 H 15.3839 -1.94833 0.0512592 0
M  V30 170 H 14.4799 -2.9056 -1.13935 0
M  V30 171 N 14.781 0.264519 -1.55364 0
M  V30 172 C 16.058 1.01677 -1.67096 0
M  V30 173 C 16.438 2.03996 -0.543015 0
M  V30 174 O 15.786 2.23907 0.45585 0
M  V30 175 C 15.996 1.66596 -3.0667 0
M  V30 176 C 17.344 2.17442 -3.64697 0
M  V30 177 O 18.368 1.76568 -3.09358 0
M  V30 178 O 17.227 2.92439 -4.61673 0
M  V30 179 H 14.321 0.472161 -0.678965 0
M  V30 180 H 16.867 0.259703 -1.67701 0
M  V30 181 H 15.639 0.924962 -3.80211 0
M  V30 182 H 15.262 2.48968 -3.10001 0
M  V30 183 N 16.2591 1.48442 0.529413 0
M  V30 184 C 17.5081 1.55742 1.28169 0
M  V30 185 C 17.8211 0.236511 1.94165 0
M  V30 186 O 19.0271 0.187761 2.7085 0
M  V30 187 C 17.4831 2.74667 2.32564 0
M  V30 188 C 17.0911 4.13402 1.72636 0
M  V30 189 C 18.8351 2.9128 3.08798 0
M  V30 190 C 16.7421 5.23587 2.74975 0
M  V30 191 H 15.6721 0.579796 0.48203 0
M  V30 192 H 18.3231 1.74776 0.559056 0
M  V30 193 H 16.7051 2.49067 3.07866 0
M  V30 194 H 17.8791 4.49022 1.03519 0
M  V30 195 H 16.1941 4.0191 1.08892 0
M  V30 196 H 18.7911 3.70767 3.85274 0
M  V30 197 H 19.1341 2.00757 3.64695 0
M  V30 198 H 19.6671 3.16782 2.40611 0
M  V30 199 H 16.4061 6.16076 2.23897 0
M  V30 200 H 15.9261 4.92454 3.42417 0
M  V30 201 H 17.6051 5.51724 3.37949 0
M  V30 202 N 17.7372 -0.778329 1.37039 0
M  V30 203 C 18.9652 -1.56734 1.35063 0
M  V30 204 C 19.3802 -1.88686 -0.0655597 0
M  V30 205 O 18.7372 -1.5096 -1.02554 0
M  V30 206 C 18.7882 -2.88163 2.18276 0
M  V30 207 O 18.5092 -2.57583 3.54376 0
M  V30 208 C 20.0102 -3.82422 2.24206 0
M  V30 209 H 17.2302 -0.485778 0.462883 0
M  V30 210 H 19.7742 -0.965185 1.8029 0
M  V30 211 H 17.9292 -3.44818 1.76576 0
M  V30 212 H 18.3432 -3.41699 3.97922 0
M  V30 213 H 19.8172 -4.71667 2.86765 0
M  V30 214 H 20.2942 -4.21078 1.24861 0
M  V30 215 H 20.9002 -3.31697 2.6619 0
M  V30 216 N 19.2153 -1.21501 -1.00376 0
M  V30 217 C 20.1623 -0.975387 -2.09177 0
M  V30 218 C 21.1323 0.0990615 -1.65804 0
M  V30 219 O 22.3173 -0.0483147 -1.90739 0
M  V30 220 C 19.4573 -0.547507 -3.40729 0
M  V30 221 C 18.5703 -1.69153 -3.97506 0
M  V30 222 C 17.7053 -1.2127 -5.17172 0
M  V30 223 C 16.7443 -2.32897 -5.66061 0
M  V30 224 N 15.8813 -1.86138 -6.76976 0
M  V30 225 H 20.7213 -1.9068 -2.29009 0
M  V30 226 H 18.2583 -0.950257 -1.12288 0
M  V30 227 H 20.2163 -0.280667 -4.16255 0
M  V30 228 H 18.8463 0.346904 -3.20931 0
M  V30 229 H 17.8983 -2.07298 -3.18954 0
M  V30 230 H 19.2103 -2.5316 -4.29781 0
M  V30 231 H 18.3643 -0.902591 -5.99948 0
M  V30 232 H 17.1033 -0.342692 -4.86495 0
M  V30 233 H 16.1083 -2.64709 -4.81881 0
M  V30 234 H 17.3333 -3.20396 -5.98768 0
M  V30 235 H 15.2793 -1.01484 -6.48103 0
M  V30 236 H 15.1963 -2.63717 -7.08512 0
M  V30 237 H 16.4643 -1.58165 -7.63285 0
M  V30 238 N 20.6934 1.19889 -1.02296 0
M  V30 239 C 21.6234 2.25141 -0.619174 0
M  V30 240 C 22.6044 1.66051 0.368915 0
M  V30 241 O 23.7894 1.92546 0.252941 0
M  V30 242 C 20.9194 3.4728 0.0368783 0
M  V30 243 C 19.8734 4.19005 -0.872865 0
M  V30 244 C 19.1994 5.34637 -0.0822402 0
M  V30 245 C 20.4994 4.74452 -2.18387 0
M  V30 246 H 22.1934 2.59171 -1.49903 0
M  V30 247 H 19.7394 1.24579 -0.722222 0
M  V30 248 H 21.6924 4.20098 0.330958 0
M  V30 249 H 20.4164 3.12433 0.95149 0
M  V30 250 H 19.0754 3.48061 -1.15105 0
M  V30 251 H 18.7234 4.96034 0.83422 0
M  V30 252 H 18.4234 5.83557 -0.688149 0
M  V30 253 H 19.9474 6.10255 0.205238 0
M  V30 254 H 21.3614 5.39055 -1.95172 0
M  V30 255 H 19.7584 5.33834 -2.74119 0
M  V30 256 H 20.8284 3.92844 -2.84257 0
M  V30 257 N 22.1715 0.800033 1.35784 0
M  V30 258 C 23.1345 0.211565 2.28221 0
M  V30 259 C 24.1345 -0.59728 1.49296 0
M  V30 260 O 25.3245 -0.416721 1.69142 0
M  V30 261 C 22.4565 -0.705846 3.33513 0
M  V30 262 H 23.6495 1.02677 2.81776 0
M  V30 263 H 21.2025 0.570211 1.45528 0
M  V30 264 H 21.9375 -1.54498 2.85133 0
M  V30 265 H 21.7225 -0.127655 3.91892 0
M  V30 266 H 23.2125 -1.11211 4.02519 0
M  V30 267 N 23.6496 -1.47581 0.552962 0
M  V30 268 C 24.8956 -2.02782 0.0273648 0
M  V30 269 C 25.2286 -1.42687 -1.31734 0
M  V30 270 O 24.5036 -0.580897 -1.85623 0
M  V30 271 C 24.7866 -3.60031 -0.0702371 0
M  V30 272 C 24.6396 -4.30566 1.30126 0
M  V30 273 C 25.9586 -4.33028 -0.785771 0
M  V30 274 H 23.0776 -0.736912 0.0114185 0
M  V30 275 H 25.7196 -1.76056 0.714432 0
M  V30 276 H 23.8696 -3.82932 -0.655382 0
M  V30 277 H 25.5416 -4.19018 1.92929 0
M  V30 278 H 23.7846 -3.91086 1.87709 0
M  V30 279 H 24.4556 -5.39114 1.18573 0
M  V30 280 H 26.9316 -4.15095 -0.288982 0
M  V30 281 H 25.8076 -5.42695 -0.823013 0
M  V30 282 H 26.0686 -4.01945 -1.841 0
M  V30 283 N 25.1277 -0.289203 -1.54924 0
M  V30 284 C 26.4047 0.376032 -1.91951 0
M  V30 285 C 26.7847 1.72622 -1.21511 0
M  V30 286 O 26.1327 2.25853 -0.346767 0
M  V30 287 C 26.3427 0.502378 -3.45365 0
M  V30 288 C 27.6907 0.778741 -4.17398 0
M  V30 289 O 28.7147 0.586647 -3.51336 0
M  V30 290 O 27.5737 1.14698 -5.34328 0
M  V30 291 H 24.6677 0.208167 -0.800372 0
M  V30 292 H 27.2137 -0.336394 -1.66332 0
M  V30 293 H 25.9857 -0.447255 -3.88736 0
M  V30 294 H 25.6087 1.26373 -3.76982 0
M  V30 295 N 26.6058 1.57591 -0.0167156 0
M  V30 296 C 27.8518 1.91567 0.665582 0
M  V30 297 C 28.1848 0.892298 1.72487 0
M  V30 298 O 27.4598 -0.0867127 1.94307 0
M  V30 299 C 27.7428 3.36069 1.29342 0
M  V30 300 C 27.5958 4.49135 0.244541 0
M  V30 301 C 28.9148 3.803 2.21495 0
M  V30 302 H 26.0338 0.69666 0.240488 0
M  V30 303 H 28.6758 1.89866 -0.0714356 0
M  V30 304 H 26.8258 3.3765 1.92158 0
M  V30 305 H 28.4978 4.59689 -0.385228 0
M  V30 306 H 26.7408 4.3165 -0.431379 0
M  V30 307 H 27.4118 5.47242 0.723207 0
M  V30 308 H 29.8878 3.80377 1.68678 0
M  V30 309 H 28.7638 4.82127 2.62382 0
M  V30 310 H 29.0248 3.15104 3.101 0
M  V30 311 N 28.0839 -0.256276 1.55502 0
M  V30 312 C 29.3329 -0.983486 1.76098 0
M  V30 313 C 29.6459 -1.86837 0.578896 0
M  V30 314 O 30.8519 -2.63163 0.667648 0
M  V30 315 C 29.3079 -1.79868 3.1173 0
M  V30 316 C 28.9159 -0.961648 4.37557 0
M  V30 317 C 30.6599 -2.51919 3.41668 0
M  V30 318 C 28.5669 -1.77219 5.64223 0
M  V30 319 H 27.4969 -0.370936 0.656447 0
M  V30 320 H 30.1479 -0.238492 1.81944 0
M  V30 321 H 28.5299 -2.58527 2.99966 0
M  V30 322 H 29.7039 -0.218048 4.60284 0
M  V30 323 H 28.0189 -0.354913 4.14885 0
M  V30 324 H 30.6159 -3.12998 4.33516 0
M  V30 325 H 30.9589 -3.23059 2.62562 0
M  V30 326 H 31.4919 -1.80278 3.54605 0
M  V30 327 H 28.2309 -1.10471 6.46124 0
M  V30 328 H 27.7509 -2.49132 5.45613 0
M  V30 329 H 29.4299 -2.34169 6.03137 0
M  V30 330 N 29.562 -1.4872 -0.521534 0
M  V30 331 C 30.808 -1.574 -1.27879 0
M  V30 332 C 31.141 -0.250817 -1.92573 0
M  V30 333 O 30.416 0.743934 -1.79711 0
M  V30 334 C 30.699 -2.71843 -2.36164 0
M  V30 335 C 30.552 -4.13893 -1.76105 0
M  V30 336 C 31.871 -2.82008 -3.37875 0
M  V30 337 H 28.99 -0.572941 -0.463581 0
M  V30 338 H 31.632 -1.80927 -0.580119 0
M  V30 339 H 29.782 -2.51914 -2.95756 0
M  V30 340 H 31.454 -4.45284 -1.20499 0
M  V30 341 H 29.697 -4.20498 -1.06601 0
M  V30 342 H 30.368 -4.89804 -2.5455 0
M  V30 343 H 32.844 -3.00086 -2.88249 0
M  V30 344 H 31.72 -3.63796 -4.11028 0
M  V30 345 H 31.981 -1.90511 -3.98946 0
M  V30 346 N 31.0401 0.771051 -1.3745 0
M  V30 347 C 31.9881 1.90574 -1.33358 0
M  V30 348 C 32.9821 1.67936 -0.22224 0
M  V30 349 O 34.1881 1.75717 -0.390304 0
M  V30 350 H 30.5631 0.626714 -0.415612 0
M  V30 351 H 32.5341 1.91142 -2.29144 0
M  V30 352 C 31.2831 3.27845 -1.15813 0
M  V30 353 H 30.6061 3.45842 -2.00583 0
M  V30 354 H 32.0461 4.07538 -1.17 0
M  V30 355 C 30.5051 3.36625 0.136165 0
M  V30 356 O 31.0351 3.85785 1.11949 0
M  V30 357 N 29.2411 2.89997 0.187099 0
M  V30 358 H 28.7881 2.50182 -0.613753 0
M  V30 359 H 28.7461 2.96252 1.05272 0
M  V30 360 N 32.5182 1.22032 0.997298 0
M  V30 361 C 33.4812 0.987909 2.06816 0
M  V30 362 C 34.4812 -0.0440084 1.6074 0
M  V30 363 O 35.6712 0.194053 1.73116 0
M  V30 364 C 32.8032 0.49132 3.37341 0
M  V30 365 H 33.9962 1.93803 2.28868 0
M  V30 366 H 31.5492 1.03838 1.16822 0
M  V30 367 H 32.2842 -0.463364 3.20973 0
M  V30 368 H 32.0692 1.23575 3.72118 0
M  V30 369 H 33.5592 0.348824 4.16141 0
M  V30 370 N 33.9963 -1.19345 1.0293 0
M  V30 371 C 34.9593 -2.20793 0.615069 0
M  V30 372 C 35.9593 -1.57553 -0.321533 0
M  V30 373 O 37.1493 -1.73862 -0.108483 0
M  V30 374 C 34.2813 -3.40754 -0.0999222 0
M  V30 375 H 35.4743 -2.58955 1.51269 0
M  V30 376 H 33.0273 -1.3303 0.820534 0
M  V30 377 H 33.7623 -3.0811 -1.01187 0
M  V30 378 H 33.5473 -3.87889 0.57309 0
M  V30 379 H 35.0373 -4.15898 -0.376645 0
M  V30 380 N 35.4744 -0.807222 -1.35358 0
M  V30 381 C 36.4224 -0.20614 -2.31685 0
M  V30 382 C 37.4164 0.644445 -1.56663 0
M  V30 383 O 38.6224 0.537538 -1.71786 0
M  V30 384 H 34.9974 -0.0479006 -0.750473 0
M  V30 385 H 36.9684 -1.03369 -2.79924 0
M  V30 386 C 35.7174 0.630212 -3.41941 0
M  V30 387 H 35.0404 -0.0149558 -3.99797 0
M  V30 388 H 36.4804 1.01716 -4.11619 0
M  V30 389 C 34.9394 1.79601 -2.85035 0
M  V30 390 O 35.4694 2.89351 -2.78637 0
M  V30 391 N 33.6754 1.60774 -2.42074 0
M  V30 392 H 33.2224 0.715009 -2.47478 0
M  V30 393 H 33.1804 2.38933 -2.04349 0
M  V30 394 N 36.9525 1.47285 -0.560781 0
M  V30 395 C 38.3635 1.86258 -0.128343 0
M  V30 396 C 38.7145 1.46699 1.30284 0
M  V30 397 O 37.8395 0.871698 1.98067 0
M  V30 398 C 38.4345 3.38044 -0.22614 0
M  V30 399 C 36.9935 3.76096 0.151283 0
M  V30 400 C 36.1405 2.71335 -0.572084 0
M  V30 401 H 39.0915 1.38752 -0.770297 0
M  V30 402 H 39.1125 3.76441 0.554322 0
M  V30 403 H 38.6245 3.66806 -1.26788 0
M  V30 404 H 36.7255 3.52951 1.19399 0
M  V30 405 H 36.8385 4.78641 -0.209765 0
M  V30 406 H 35.2025 2.54696 -0.0147653 0
M  V30 407 H 35.9855 3.02938 -1.61504 0
M  V30 408 N 38.4306 0.297415 1.54768 0
M  V30 409 C 39.6556 -0.318435 2.04941 0
M  V30 410 C 40.0806 -1.4701 1.17345 0
M  V30 411 O 39.4386 -1.80436 0.176758 0
M  V30 412 C 39.4866 -0.755749 3.52592 0
M  V30 413 O 38.5906 -1.86088 3.68028 0
M  V30 414 H 37.9316 -0.062421 0.661059 0
M  V30 415 H 40.4616 0.438215 1.99852 0
M  V30 416 H 40.4716 -1.04552 3.94376 0
M  V30 417 H 39.1466 0.0867233 4.1581 0
M  V30 418 H 37.7236 -1.57193 3.38149 0
M  V30 419 N 39.9087 -1.5758 0.0250728 0
M  V30 420 C 40.8387 -2.13007 -0.956575 0
M  V30 421 C 41.8197 -1.0452 -1.342 0
M  V30 422 O 43.0047 -1.32332 -1.42133 0
M  V30 423 C 40.1347 -2.65386 -2.24026 0
M  V30 424 C 39.0887 -3.78623 -1.99571 0
M  V30 425 C 38.4147 -4.17414 -3.3417 0
M  V30 426 C 39.7147 -5.04867 -1.33814 0
M  V30 427 H 41.4087 -2.9528 -0.494991 0
M  V30 428 H 38.9547 -1.42042 -0.236651 0
M  V30 429 H 40.9077 -3.02794 -2.93076 0
M  V30 430 H 39.6317 -1.80268 -2.72343 0
M  V30 431 H 38.2907 -3.41646 -1.32941 0
M  V30 432 H 37.9387 -3.29284 -3.80238 0
M  V30 433 H 37.6387 -4.93719 -3.18615 0
M  V30 434 H 39.1627 -4.57402 -4.04495 0
M  V30 435 H 40.5767 -5.39888 -1.92857 0
M  V30 436 H 38.9737 -5.86144 -1.28669 0
M  V30 437 H 40.0437 -4.83904 -0.310561 0
M  V30 438 N 41.3868 0.248026 -1.55636 0
M  V30 439 C 42.3198 1.3334 -1.85191 0
M  V30 440 C 43.2978 1.46429 -0.706906 0
M  V30 441 O 44.4818 1.62662 -0.952544 0
M  V30 442 C 41.6088 2.70703 -2.03562 0
M  V30 443 C 40.6548 2.7477 -3.26196 0
M  V30 444 S 41.4878 2.31493 -4.82878 0
M  V30 445 C 42.6438 3.70783 -5.04253 0
M  V30 446 H 42.8768 1.08072 -2.76962 0
M  V30 447 H 40.4098 0.448952 -1.47729 0
M  V30 448 H 42.3678 3.49798 -2.1483 0
M  V30 449 H 41.0288 2.9321 -1.12635 0
M  V30 450 H 40.2218 3.75648 -3.36013 0
M  V30 451 H 39.8238 2.03719 -3.13647 0
M  V30 452 H 42.1158 4.6627 -4.91527 0
M  V30 453 H 43.0588 3.65901 -6.06236 0
M  V30 454 H 43.4668 3.63244 -4.32105 0
M  V30 455 N 42.8649 1.48995 0.513639 0
M  V30 456 C 44.1129 1.57531 1.26604 0
M  V30 457 C 44.4339 0.258236 1.93283 0
M  V30 458 O 43.7039 -0.721502 1.8213 0
M  V30 459 H 42.2839 0.580387 0.470276 0
M  V30 460 H 44.9459 1.85552 0.596373 0
M  V30 461 H 44.0419 2.36486 2.03669 0
M  V30 462 N 44.343 -0.763751 1.37857 0
M  V30 463 C 45.591 -1.51957 1.33243 0
M  V30 464 C 45.912 -1.94835 -0.0801709 0
M  V30 465 O 45.182 -1.66894 -1.02582 0
M  V30 466 H 43.762 -0.563626 0.49024 0
M  V30 467 H 46.424 -0.908504 1.7243 0
M  V30 468 H 45.52 -2.41523 1.97669 0
M  V30 469 N 45.8211 -1.22559 -0.990812 0
M  V30 470 C 47.0691 -1.04933 -1.72724 0
M  V30 471 C 47.3901 0.416158 -1.90508 0
M  V30 472 O 46.6601 1.29918 -1.46622 0
M  V30 473 H 45.2401 -0.385296 -0.639965 0
M  V30 474 H 47.9021 -1.54105 -1.19322 0
M  V30 475 H 46.9981 -1.52886 -2.72089 0
M  V30 476 N 47.2992 1.18797 -1.03562 0
M  V30 477 C 48.5472 1.88278 -0.734569 0
M  V30 478 C 48.8682 1.8043 0.739586 0
M  V30 479 O 48.1382 1.21925 1.53333 0
M  V30 480 H 46.7182 0.696991 -0.268725 0
M  V30 481 H 49.3802 1.44192 -1.31129 0
M  V30 482 H 48.4762 2.94443 -1.03489 0
M  V30 483 N 48.7773 0.814389 1.34928 0
M  V30 484 C 50.0233 0.399013 1.98836 0
M  V30 485 C 50.3563 -1.03314 1.64438 0
M  V30 486 O 49.6313 -1.71811 0.911659 0
M  V30 487 C 49.9143 0.591629 3.55207 0
M  V30 488 C 49.7673 2.06928 3.99376 0
M  V30 489 C 51.0863 0.022199 4.40094 0
M  V30 490 H 48.2053 0.146451 0.722303 0
M  V30 491 H 50.8473 1.02537 1.59957 0
M  V30 492 H 48.9973 0.0584441 3.88456 0
M  V30 493 H 50.6693 2.66544 3.76499 0
M  V30 494 H 48.9123 2.56287 3.49999 0
M  V30 495 H 49.5833 2.1549 5.08201 0
M  V30 496 H 52.0593 0.477643 4.13349 0
M  V30 497 H 50.9353 0.186832 5.48582 0
M  V30 498 H 51.1963 -1.07215 4.28902 0
M  V30 499 N 50.2554 -1.46986 0.568584 0
M  V30 500 C 51.5324 -1.95592 -0.0174074 0
M  V30 501 C 51.9124 -1.51124 -1.47393 0
M  V30 502 O 51.2604 -0.755329 -2.15655 0
M  V30 503 C 51.4704 -3.48719 0.139913 0
M  V30 504 C 52.8184 -4.246 0.000426376 0
M  V30 505 O 53.8424 -3.56135 0.0680316 0
M  V30 506 O 52.7014 -5.46302 -0.146988 0
M  V30 507 H 49.7954 -0.82498 -0.0577599 0
M  V30 508 H 52.3414 -1.57335 0.635909 0
M  V30 509 H 51.1134 -3.73927 1.15301 0
M  V30 510 H 50.7364 -3.93771 -0.550491 0
M  V30 511 N 51.7335 -0.305618 -1.54608 0
M  V30 512 C 52.9815 0.301701 -1.99835 0
M  V30 513 C 53.3025 1.54054 -1.19551 0
M  V30 514 O 52.5725 1.93702 -0.292658 0
M  V30 515 H 51.1525 0.114468 -0.738178 0
M  V30 516 H 53.8145 -0.418016 -1.90364 0
M  V30 517 H 52.9105 0.570548 -3.06841 0
M  V30 518 N 53.2116 1.57565 -0.0334293 0
M  V30 519 C 54.1746 2.09393 0.932048 0
M  V30 520 C 55.1746 1.00986 1.25134 0
M  V30 521 O 56.3646 1.27129 1.19096 0
M  V30 522 C 53.4966 2.56338 2.2473 0
M  V30 523 H 54.6896 2.95984 0.483085 0
M  V30 524 H 52.2426 1.54819 0.21468 0
M  V30 525 H 52.9776 1.7309 2.74245 0
M  V30 526 H 52.7626 3.35542 2.02865 0
M  V30 527 H 54.2526 2.96646 2.93923 0
M  V30 528 N 54.6897 -0.239769 1.55765 0
M  V30 529 C 55.9387 -0.964754 1.77131 0
M  V30 530 C 56.2517 -1.86213 0.59868 0
M  V30 531 O 57.4577 -2.6244 0.695522 0
M  V30 532 C 55.9137 -1.76552 3.1362 0
M  V30 533 C 55.5217 -0.915185 4.38553 0
M  V30 534 C 57.2657 -2.48281 3.44321 0
M  V30 535 C 55.1727 -1.71225 5.66071 0
M  V30 536 H 54.1027 -0.363953 0.660344 0
M  V30 537 H 56.7537 -0.219181 1.82186 0
M  V30 538 H 55.1357 -2.55331 3.02691 0
M  V30 539 H 56.3097 -0.169217 4.60489 0
M  V30 540 H 54.6247 -0.310889 4.15238 0
M  V30 541 H 57.2217 -3.08382 4.36812 0
M  V30 542 H 57.5647 -3.20256 2.65973 0
M  V30 543 H 58.0977 -1.76507 3.56497 0
M  V30 544 H 54.8367 -1.03612 6.4726 0
M  V30 545 H 54.3567 -2.43331 5.48224 0
M  V30 546 H 56.0357 -2.27758 6.05587 0
M  V30 547 N 56.1678 -1.49265 -0.50573 0
M  V30 548 C 57.1178 -1.6198 -1.60457 0
M  V30 549 C 58.1018 -0.47568 -1.53708 0
M  V30 550 O 59.2938 -0.728392 -1.61318 0
M  V30 551 C 56.4228 -1.68526 -2.99089 0
M  V30 552 C 55.5088 -2.885 -3.10852 0
M  V30 553 N 55.8998 -4.12635 -2.92517 0
M  V30 554 C 54.1978 -2.86338 -3.41945 0
M  V30 555 C 54.8988 -4.93258 -3.08337 0
M  V30 556 N 53.8748 -4.26533 -3.37003 0
M  V30 557 H 57.6768 -2.55681 -1.44928 0
M  V30 558 H 55.1908 -1.45972 -0.711752 0
M  V30 559 H 57.1878 -1.75732 -3.78053 0
M  V30 560 H 55.8478 -0.759584 -3.1569 0
M  V30 561 H 56.8588 -4.42689 -2.68787 0
M  V30 562 H 53.5358 -2.03129 -3.64753 0
M  V30 563 H 54.9258 -6.01856 -2.98695 0
M  V30 564 N 57.6459 0.756429 -1.3826 0
M  V30 565 C 59.0619 1.0591 -1.19395 0
M  V30 566 C 59.2619 2.01459 -0.0406567 0
M  V30 567 O 58.3179 2.44909 0.614467 0
M  V30 568 C 59.6309 1.64191 -2.51916 0
M  V30 569 C 61.1789 1.76376 -2.58574 0
M  V30 570 C 61.6539 2.38069 -3.91264 0
M  V30 571 N 63.1449 2.45503 -3.92788 0
M  V30 572 C 63.8799 2.94126 -4.92217 0
M  V30 573 N 63.3759 3.42805 -6.02043 0
M  V30 574 N 65.1689 2.9314 -4.7961 0
M  V30 575 H 57.3199 0.122313 -2.12048 0
M  V30 576 H 59.5829 0.116892 -0.940766 0
M  V30 577 H 59.2889 1.01451 -3.3675 0
M  V30 578 H 59.1629 2.6329 -2.70108 0
M  V30 579 H 61.5499 2.38244 -1.74137 0
M  V30 580 H 61.6309 0.759894 -2.44252 0
M  V30 581 H 61.2749 1.76835 -4.76121 0
M  V30 582 H 61.2049 3.39091 -4.02895 0
M  V30 583 H 63.6959 2.1107 -3.13461 0
M  V30 584 H 64.0089 3.78354 -6.73846 0
M  V30 585 H 62.3539 3.4087 -6.05667 0
M  V30 586 H 65.5449 2.54419 -3.92923 0
M  V30 587 H 65.7179 3.30721 -5.5725 0
M  V30 588 N 59.124 1.23083 0.984299 0
M  V30 589 C 60.087 1.00979 2.05757 0
M  V30 590 C 61.087 -0.0269573 1.60777 0
M  V30 591 O 62.277 0.212403 1.729 0
M  V30 592 C 59.409 0.527072 3.36801 0
M  V30 593 H 60.602 1.9622 2.26799 0
M  V30 594 H 58.155 1.05072 1.15714 0
M  V30 595 H 58.89 -0.429294 3.21446 0
M  V30 596 H 58.675 1.27515 3.70786 0
M  V30 597 H 60.165 0.392942 4.15747 0
M  V30 598 N 60.6021 -1.18246 1.0419 0
M  V30 599 C 61.5651 -2.20128 0.638452 0
M  V30 600 C 62.5651 -1.57885 -0.304805 0
M  V30 601 O 63.7551 -1.73967 -0.0900369 0
M  V30 602 C 60.8871 -3.4084 -0.0637751 0
M  V30 603 H 62.0801 -2.57336 1.54007 0
M  V30 604 H 59.6331 -1.32152 0.834598 0
M  V30 605 H 60.3681 -3.09166 -0.979136 0
M  V30 606 H 60.1531 -3.8726 0.614198 0
M  V30 607 H 61.6431 -4.16274 -0.332512 0
M  V30 608 N 62.0802 -0.821533 -1.34494 0
M  V30 609 C 63.3282 -0.408139 -1.97936 0
M  V30 610 C 63.6492 1.03193 -1.65457 0
M  V30 611 O 62.9192 1.71622 -0.944595 0
M  V30 612 H 61.4992 -0.147928 -0.732206 0
M  V30 613 H 64.1612 -1.05067 -1.64155 0
M  V30 614 H 63.2572 -0.52601 -3.07635 0
M  V30 615 N 63.5583 1.46682 -0.576371 0
M  V30 616 C 64.9693 1.86112 -0.148091 0
M  V30 617 C 65.3203 1.48073 1.2872 0
M  V30 618 O 64.4453 0.892656 1.97131 0
M  V30 619 C 65.0403 3.37786 -0.261982 0
M  V30 620 C 63.5993 3.76235 0.111384 0
M  V30 621 C 62.7463 2.70713 -0.60083 0
M  V30 622 H 65.6973 1.37927 -0.78497 0
M  V30 623 H 65.7183 3.77007 0.514364 0
M  V30 624 H 65.2303 3.6544 -1.30671 0
M  V30 625 H 63.3313 3.54198 1.15649 0
M  V30 626 H 63.4443 4.78391 -0.26052 0
M  V30 627 H 61.8083 2.54666 -0.0417783 0
M  V30 628 H 62.5913 3.01208 -1.64708 0
M  V30 629 N 65.0364 0.313813 1.54444 0
M  V30 630 C 65.9994 -0.54379 2.22656 0
M  V30 631 C 66.9994 -1.05124 1.21678 0
M  V30 632 O 68.1894 -0.945225 1.46325 0
M  V30 633 C 65.3214 -1.75427 2.92298 0
M  V30 634 H 66.5144 0.0523599 2.99854 0
M  V30 635 H 64.0674 0.0647834 1.56166 0
M  V30 636 H 64.8024 -2.38991 2.19211 0
M  V30 637 H 64.5874 -1.39791 3.66334 0
M  V30 638 H 66.0774 -2.36325 3.44297 0
M  V30 639 N 66.5145 -1.57545 0.0417849 0
M  V30 640 C 67.4445 -2.14009 -0.933929 0
M  V30 641 C 68.4255 -1.05938 -1.33083 0
M  V30 642 O 69.6105 -1.33833 -1.40721 0
M  V30 643 C 66.7405 -2.67747 -2.21199 0
M  V30 644 C 65.6945 -3.80718 -1.95544 0
M  V30 645 C 65.0205 -4.20935 -3.29724 0
M  V30 646 C 66.3205 -5.06258 -1.28452 0
M  V30 647 H 68.0145 -2.95788 -0.463645 0
M  V30 648 H 65.5605 -1.42285 -0.221573 0
M  V30 649 H 67.5135 -3.05886 -2.89848 0
M  V30 650 H 66.2375 -1.83147 -2.70416 0
M  V30 651 H 64.8965 -3.43037 -1.2931 0
M  V30 652 H 64.5445 -3.33298 -3.76724 0
M  V30 653 H 64.2445 -4.9707 -3.13361 0
M  V30 654 H 65.7685 -4.61666 -3.9962 0
M  V30 655 H 67.1825 -5.41903 -1.8712 0
M  V30 656 H 65.5795 -5.87475 -1.22445 0
M  V30 657 H 66.6495 -4.84207 -0.259219 0
M  V30 658 N 67.9926 0.231505 -1.5589 0
M  V30 659 C 68.9226 1.29022 -1.94617 0
M  V30 660 C 69.9036 1.4941 -0.813067 0
M  V30 661 O 71.0886 1.6176 -1.07459 0
M  V30 662 C 68.2186 2.64199 -2.25424 0
M  V30 663 C 67.1726 2.58484 -3.41131 0
M  V30 664 C 66.4986 3.97599 -3.57518 0
M  V30 665 C 67.7986 2.1413 -4.76388 0
M  V30 666 H 69.4926 0.968563 -2.83301 0
M  V30 667 H 67.0386 0.464479 -1.36303 0
M  V30 668 H 68.9916 3.38413 -2.51107 0
M  V30 669 H 67.7156 2.98032 -1.33583 0
M  V30 670 H 66.3746 1.86727 -3.15481 0
M  V30 671 H 66.0226 4.28723 -2.6307 0
M  V30 672 H 65.7226 3.94659 -4.35337 0
M  V30 673 H 67.2466 4.7349 -3.85538 0
M  V30 674 H 68.6606 2.78083 -5.01341 0
M  V30 675 H 67.0576 2.2227 -5.57419 0
M  V30 676 H 68.1276 1.09331 -4.72414 0
M  V30 677 N 69.4707 1.49531 0.497807 0
M  V30 678 C 70.7477 1.49682 1.25915 0
M  V30 679 C 71.1277 0.226339 2.09883 0
M  V30 680 O 70.4757 -0.791189 2.14365 0
M  V30 681 C 70.6857 2.77755 2.11313 0
M  V30 682 C 72.0337 3.27371 2.70395 0
M  V30 683 O 73.0577 2.78894 2.21578 0
M  V30 684 O 71.9167 4.11808 3.59272 0
M  V30 685 H 69.0107 0.599228 0.56996 0
M  V30 686 H 71.5567 1.61798 0.511816 0
M  V30 687 H 70.3287 3.61713 1.49264 0
M  V30 688 H 69.9517 2.68515 2.93233 0
M  V30 689 N 70.9488 -0.749086 1.3866 0
M  V30 690 C 71.9118 -1.84457 1.36045 0
M  V30 691 C 72.9118 -1.58682 0.260122 0
M  V30 692 O 74.1018 -1.66343 0.517261 0
M  V30 693 C 71.2338 -3.22008 1.11911 0
M  V30 694 H 72.4268 -1.88182 2.33512 0
M  V30 695 H 69.9798 -0.951266 1.24019 0
M  V30 696 H 70.7148 -3.2395 0.150686 0
M  V30 697 H 70.4998 -3.42111 1.91579 0
M  V30 698 H 71.9898 -4.0208 1.12788 0
M  V30 699 N 72.4269 -1.23603 -0.977757 0
M  V30 700 C 73.6669 -1.08148 -1.73446 0
M  V30 701 C 74.0309 0.374785 -1.88307 0
M  V30 702 O 75.2319 0.650588 -2.60808 0
M  V30 703 C 73.5029 -1.78991 -3.0935 0
M  V30 704 S 75.0619 -1.79141 -4.00567 0
M  V30 705 H 71.8799 -0.386987 -0.596458 0
M  V30 706 H 74.4819 -1.5678 -1.16792 0
M  V30 707 H 73.1859 -2.8408 -2.96187 0
M  V30 708 H 72.7169 -1.30651 -3.71071 0
M  V30 709 H 74.7319 -0.851892 -4.88833 0
M  V30 710 N 73.905 1.17692 -1.04816 0
M  V30 711 C 74.835 2.23777 -0.666791 0
M  V30 712 C 75.816 1.66796 0.33361 0
M  V30 713 O 77.001 1.93039 0.212042 0
M  V30 714 C 74.131 3.47281 -0.0367933 0
M  V30 715 C 73.085 4.17059 -0.961546 0
M  V30 716 C 72.411 5.34342 -0.195626 0
M  V30 717 C 73.711 4.69713 -2.28402 0
M  V30 718 H 75.405 2.55933 -1.55367 0
M  V30 719 H 72.951 1.23019 -0.748484 0
M  V30 720 H 74.904 4.20706 0.241775 0
M  V30 721 H 73.628 3.14381 0.885004 0
M  V30 722 H 72.287 3.45541 -1.22462 0
M  V30 723 H 71.935 4.97692 0.728816 0
M  V30 724 H 71.635 5.81966 -0.811775 0
M  V30 725 H 73.159 6.10553 0.0757473 0
M  V30 726 H 74.573 5.34794 -2.06563 0
M  V30 727 H 72.97 5.279 -2.8538 0
M  V30 728 H 74.04 3.86726 -2.92525 0
M  V30 729 N 75.3831 0.828654 1.34056 0
M  V30 730 C 76.3301 0.252567 2.29414 0
M  V30 731 C 77.3001 -0.62588 1.53857 0
M  V30 732 O 78.4851 -0.566312 1.82202 0
M  V30 733 C 75.6251 -0.574831 3.40279 0
M  V30 734 C 74.7381 0.326499 4.30764 0
M  V30 735 C 73.8731 -0.511016 5.28736 0
M  V30 736 C 72.9121 0.389342 6.1086 0
M  V30 737 N 72.0491 -0.409439 7.00905 0
M  V30 738 H 76.8891 1.07108 2.78086 0
M  V30 739 H 74.4261 0.539677 1.36843 0
M  V30 740 H 76.3841 -1.06992 4.03248 0
M  V30 741 H 75.0141 -1.35841 2.92826 0
M  V30 742 H 74.0661 0.939837 3.68607 0
M  V30 743 H 75.3781 1.01857 4.88289 0
M  V30 744 H 74.5321 -1.07035 5.97184 0
M  V30 745 H 73.2711 -1.23657 4.71763 0
M  V30 746 H 72.2761 0.960769 5.4134 0
M  V30 747 H 73.5011 1.1131 6.69916 0
M  V30 748 H 71.4471 -1.11856 6.46393 0
M  V30 749 H 71.3641 0.224126 7.55668 0
M  V30 750 H 72.6321 -0.951336 7.73673 0
M  V30 751 N 76.8612 -1.46375 0.584142 0
M  V30 752 C 78.1072 -2.02678 0.0703716 0
M  V30 753 C 78.4402 -1.4545 -1.28678 0
M  V30 754 O 77.7152 -0.62014 -1.84349 0
M  V30 755 C 77.9982 -3.60099 0.00614674 0
M  V30 756 C 77.8512 -4.27709 1.3923 0
M  V30 757 C 79.1702 -4.34598 -0.693742 0
M  V30 758 H 76.2892 -0.736504 0.027047 0
M  V30 759 H 78.9312 -1.74501 0.751615 0
M  V30 760 H 77.0812 -3.84236 -0.574009 0
M  V30 761 H 78.7532 -4.14832 2.01773 0
M  V30 762 H 76.9962 -3.87016 1.95962 0
M  V30 763 H 77.6672 -5.36478 1.29982 0
M  V30 764 H 80.1432 -4.15615 -0.200869 0
M  V30 765 H 79.0192 -5.44318 -0.707714 0
M  V30 766 H 79.2802 -4.05759 -1.75533 0
M  V30 767 N 78.3393 -0.321999 -1.54275 0
M  V30 768 C 79.7553 0.0306999 -1.5957 0
M  V30 769 C 79.9553 1.50614 -1.33857 0
M  V30 770 O 79.0113 2.2619 -1.12223 0
M  V30 771 C 80.3243 -0.386122 -2.98211 0
M  V30 772 C 81.8723 -0.336647 -3.11184 0
M  V30 773 C 82.3473 -0.728607 -4.52167 0
M  V30 774 N 83.8383 -0.681952 -4.58152 0
M  V30 775 C 84.5733 -0.957449 -5.6535 0
M  V30 776 N 84.0693 -1.3 -6.80494 0
M  V30 777 N 85.8623 -0.883113 -5.55119 0
M  V30 778 H 78.0133 -1.28332 -1.69247 0
M  V30 779 H 80.2763 -0.521716 -0.791528 0
M  V30 780 H 79.9823 -1.41404 -3.22022 0
M  V30 781 H 79.8563 0.249662 -3.76373 0
M  V30 782 H 82.2433 0.682058 -2.8711 0
M  V30 783 H 82.3243 -1.00734 -2.3513 0
M  V30 784 H 81.9683 -1.74522 -4.76974 0
M  V30 785 H 81.8983 -0.0356152 -5.26588 0
M  V30 786 H 84.3893 -0.428985 -3.75457 0
M  V30 787 H 84.7023 -1.49563 -7.58189 0
M  V30 788 H 83.0473 -1.33824 -6.81994 0
M  V30 789 H 86.2383 -0.615001 -4.64042 0
M  V30 790 H 86.4113 -1.10118 -6.38575 0
M  V30 791 N 79.8174 1.5752 -0.0501392 0
M  V30 792 C 80.7494 2.08413 0.95376 0
M  V30 793 C 81.7624 1.01175 1.27544 0
M  V30 794 O 82.9514 1.28744 1.23641 0
M  V30 795 C 80.0514 2.51138 2.27559 0
M  V30 796 C 79.2244 3.817 2.13598 0
M  V30 797 C 78.2834 4.10749 3.28895 0
M  V30 798 O 77.3094 4.80685 3.04845 0
M  V30 799 N 78.5114 3.62579 4.5334 0
M  V30 800 H 81.2764 2.95165 0.519383 0
M  V30 801 H 78.8374 1.61327 0.136127 0
M  V30 802 H 80.8294 2.67648 3.03557 0
M  V30 803 H 79.3994 1.6964 2.62567 0
M  V30 804 H 78.6194 3.74782 1.22197 0
M  V30 805 H 79.9074 4.67201 2.01496 0
M  V30 806 H 79.3054 3.06039 4.75769 0
M  V30 807 H 77.8624 3.84329 5.26436 0
M  V30 808 N 81.2955 -0.223234 1.56011 0
M  V30 809 C 82.2275 -1.30006 1.88762 0
M  V30 810 C 83.2405 -1.43129 0.775746 0
M  V30 811 O 84.4295 -1.44057 1.05403 0
M  V30 812 C 81.5295 -2.67589 2.07965 0
M  V30 813 C 80.7025 -2.76434 3.38973 0
M  V30 814 C 79.7615 -3.95019 3.47629 0
M  V30 815 O 78.7875 -3.83436 4.20672 0
M  V30 816 N 79.9895 -5.09249 2.78649 0
M  V30 817 H 82.7545 -1.02238 2.81722 0
M  V30 818 H 80.3155 -0.413278 1.56536 0
M  V30 819 H 82.3075 -3.45297 2.11073 0
M  V30 820 H 80.8775 -2.87964 1.21638 0
M  V30 821 H 80.0975 -1.85216 3.47978 0
M  V30 822 H 81.3855 -2.79313 4.25278 0
M  V30 823 H 80.7835 -5.21556 2.19081 0
M  V30 824 H 79.3405 -5.85007 2.8742 0
M  V30 825 N 82.7736 -1.49793 -0.48987 0
M  V30 826 C 83.7056 -1.63413 -1.60713 0
M  V30 827 C 84.7186 -0.516329 -1.54395 0
M  V30 828 O 85.9076 -0.788812 -1.60125 0
M  V30 829 C 83.0076 -1.58516 -2.99543 0
M  V30 830 C 82.1806 -2.86016 -3.30928 0
M  V30 831 C 81.2396 -2.74018 -4.49222 0
M  V30 832 O 80.2656 -3.47964 -4.50455 0
M  V30 833 N 81.4676 -1.86309 -5.4979 0
M  V30 834 H 84.2326 -2.59777 -1.49452 0
M  V30 835 H 81.7936 -1.47022 -0.677955 0
M  V30 836 H 83.7856 -1.48128 -3.76617 0
M  V30 837 H 82.3556 -0.69965 -3.0467 0
M  V30 838 H 81.5756 -3.10672 -2.42645 0
M  V30 839 H 82.8636 -3.70521 -3.487 0
M  V30 840 H 82.2616 -1.2551 -5.51601 0
M  V30 841 H 80.8186 -1.81837 -6.25922 0
M  V30 842 N 84.2517 0.741722 -1.39055 0
M  V30 843 C 85.4997 1.49818 -1.35643 0
M  V30 844 C 85.8207 1.94938 0.0491642 0
M  V30 845 O 85.0907 1.68505 0.999141 0
M  V30 846 H 83.6707 0.555755 -0.499144 0
M  V30 847 H 86.3327 0.880957 -1.73854 0
M  V30 848 H 85.4287 2.38348 -2.01486 0
M  V30 849 N 85.7298 1.2412 0.971189 0
M  V30 850 C 87.0068 0.986867 1.6888 0
M  V30 851 C 87.3868 -0.491857 2.0529 0
M  V30 852 O 86.7348 -1.46531 1.75331 0
M  V30 853 C 86.9448 1.9063 2.92338 0
M  V30 854 C 88.2928 2.17515 3.64654 0
M  V30 855 O 89.3168 1.88254 3.02388 0
M  V30 856 O 88.1758 2.6719 4.7673 0
M  V30 857 H 85.2698 0.372944 0.738134 0
M  V30 858 H 87.8158 1.35203 1.02559 0
M  V30 859 H 86.5878 2.90552 2.62097 0
M  V30 860 H 86.2108 1.54408 3.66393 0
M  V30 861 N 87.2079 -1.17134 1.05439 0
M  V30 862 C 88.4479 -1.89137 0.77502 0
M  V30 863 C 88.8119 -1.79345 -0.685526 0
M  V30 864 O 90.0129 -2.46188 -1.0791 0
M  V30 865 C 88.2839 -3.35003 1.2453 0
M  V30 866 S 89.8429 -4.24952 1.09367 0
M  V30 867 H 86.6609 -0.652949 0.281387 0
M  V30 868 H 89.2629 -1.4145 1.34953 0
M  V30 869 H 87.9669 -3.39666 2.30338 0
M  V30 870 H 87.4979 -3.87736 0.665166 0
M  V30 871 H 89.5129 -4.96196 0.0193397 0
M  V30 872 N 88.686 -0.835752 -1.33615 0
M  V30 873 C 90.097 -0.487099 -1.80234 0
M  V30 874 C 90.448 0.993627 -1.69179 0
M  V30 875 O 89.573 1.77403 -1.23924 0
M  V30 876 C 90.168 -0.877385 -3.27242 0
M  V30 877 C 88.727 -0.580915 -3.7189 0
M  V30 878 C 87.874 -1.0874 -2.5509 0
M  V30 879 H 90.825 -1.02474 -1.2118 0
M  V30 880 H 90.846 -0.186195 -3.80044 0
M  V30 881 H 90.358 -1.95512 -3.35256 0
M  V30 882 H 88.459 0.486881 -3.69405 0
M  V30 883 H 88.572 -1.13396 -4.65487 0
M  V30 884 H 86.936 -0.508392 -2.49575 0
M  V30 885 H 87.719 -2.17184 -2.65868 0
M  V30 886 N 90.1641 1.46063 -0.591896 0
M  V30 887 C 91.3921 2.06717 -0.0868936 0
M  V30 888 C 91.8071 1.43916 1.22203 0
M  V30 889 O 91.1641 0.547698 1.74088 0
M  V30 890 C 91.2151 3.6142 0.0758725 0
M  V30 891 O 90.9361 4.21874 -1.18126 0
M  V30 892 C 92.4371 4.39025 0.61416 0
M  V30 893 H 89.6571 0.668162 -0.0616518 0
M  V30 894 H 92.2011 1.8755 -0.815175 0
M  V30 895 H 90.3561 3.79983 0.754413 0
M  V30 896 H 90.7701 5.14861 -1.00092 0
M  V30 897 H 92.2441 5.4783 0.677193 0
M  V30 898 H 92.7211 4.07708 1.63312 0
M  V30 899 H 93.3271 4.2529 -0.0298142 0
M  V30 900 N 91.6422 0.330177 1.54103 0
M  V30 901 C 92.8902 -0.269871 2.0029 0
M  V30 902 C 93.2112 -1.52133 1.21986 0
M  V30 903 O 92.4812 -1.93212 0.323438 0
M  V30 904 H 91.0612 -0.10271 0.739905 0
M  V30 905 H 93.7232 0.448249 1.89675 0
M  V30 906 H 92.8192 -0.52166 3.07709 0
M  V30 907 N 93.1203 -1.57491 0.0584922 0
M  V30 908 C 94.0703 -2.08474 -0.923188 0
M  V30 909 C 95.0543 -0.991479 -1.26722 0
M  V30 910 O 96.2463 -1.25473 -1.24842 0
M  V30 911 C 93.3753 -2.6392 -2.19548 0
M  V30 912 C 92.4613 -3.80227 -1.87852 0
M  V30 913 N 92.8523 -4.89714 -1.26546 0
M  V30 914 C 91.1503 -3.89271 -2.17679 0
M  V30 915 C 91.8513 -5.70689 -1.12644 0
M  V30 916 N 90.8273 -5.18531 -1.63176 0
M  V30 917 H 94.6293 -2.90517 -0.444653 0
M  V30 918 H 92.1433 -1.61745 -0.145764 0
M  V30 919 H 94.1403 -2.98752 -2.9078 0
M  V30 920 H 92.8003 -1.83318 -2.68001 0
M  V30 921 H 93.8113 -5.09358 -0.936757 0
M  V30 922 H 90.4883 -3.19623 -2.68602 0
M  V30 923 H 91.8783 -6.6875 -0.6499 0
M  V30 924 N 94.5984 0.214957 -1.56127 0
M  V30 925 C 95.5614 1.24997 -1.92116 0
M  V30 926 C 96.5614 1.39467 -0.800344 0
M  V30 927 O 97.7514 1.37619 -1.06802 0
M  V30 928 C 94.8834 2.62271 -2.17777 0
M  V30 929 H 96.0764 0.942875 -2.84693 0
M  V30 930 H 93.6294 0.455654 -1.49511 0
M  V30 931 H 94.3644 2.98068 -1.27773 0
M  V30 932 H 94.1494 2.53143 -2.99434 0
M  V30 933 H 95.6394 3.36946 -2.46693 0
M  V30 934 N 96.0765 1.50051 0.48192 0
M  V30 935 C 97.3225 1.60736 1.2366 0
M  V30 936 C 97.6555 0.301786 1.91841 0
M  V30 937 O 96.9305 -0.696025 1.8162 0
M  V30 938 C 97.2135 2.78009 2.28874 0
M  V30 939 C 97.0665 4.18416 1.65069 0
M  V30 940 C 98.3855 2.90867 3.30279 0
M  V30 941 H 95.5045 0.585031 0.448228 0
M  V30 942 H 98.1465 1.82402 0.531946 0
M  V30 943 H 96.2965 2.59667 2.88973 0
M  V30 944 H 97.9685 4.48322 1.0865 0
M  V30 945 H 96.2115 4.23177 0.954148 0
M  V30 946 H 96.8825 4.96381 2.41474 0
M  V30 947 H 99.3585 3.07623 2.80191 0
M  V30 948 H 98.2345 3.74566 4.01238 0
M  V30 949 H 98.4955 2.01021 3.93755 0
M  V30 950 N 97.5546 -0.734337 1.39446 0
M  V30 951 C 98.8036 -1.48937 1.36017 0
M  V30 952 C 99.1166 -1.95557 -0.0409005 0
M  V30 953 O 100.323 -2.70779 -0.19778 0
M  V30 954 C 98.7786 -2.69125 2.38955 0
M  V30 955 C 98.3866 -2.29452 3.8478 0
M  V30 956 C 100.131 -3.46944 2.44603 0
M  V30 957 C 98.0376 -3.46366 4.79358 0
M  V30 958 H 96.9676 -0.559296 0.505672 0
M  V30 959 H 99.6186 -0.800983 1.65095 0
M  V30 960 H 98.0006 -3.40041 2.02948 0
M  V30 961 H 99.1746 -1.66077 4.29831 0
M  V30 962 H 97.4896 -1.64723 3.82433 0
M  V30 963 H 100.087 -4.33907 3.12456 0
M  V30 964 H 100.43 -3.89454 1.47076 0
M  V30 965 H 100.963 -2.83056 2.79507 0
M  V30 966 H 97.7016 -3.08905 5.78151 0
M  V30 967 H 97.2216 -4.08719 4.38986 0
M  V30 968 H 98.9006 -4.12691 4.98292 0
M  V30 969 N 99.0327 -1.24633 -0.964593 0
M  V30 970 C 100.261 -1.11501 -1.74285 0
M  V30 971 C 100.676 0.332165 -1.85855 0
M  V30 972 O 100.033 1.22903 -1.34911 0
M  V30 973 C 100.084 -1.75258 -3.16175 0
M  V30 974 O 99.8047 -3.14318 -3.05182 0
M  V30 975 C 101.306 -1.67776 -4.10324 0
M  V30 976 H 98.5257 -0.389407 -0.546446 0
M  V30 977 H 101.07 -1.64801 -1.21083 0
M  V30 978 H 99.2247 -1.25954 -3.66353 0
M  V30 979 H 99.6387 -3.4551 -3.94618 0
M  V30 980 H 101.113 -2.17064 -5.0753 0
M  V30 981 H 101.59 -0.639584 -4.34518 0
M  V30 982 H 102.196 -2.16522 -3.66058 0
M  V30 983 N 100.511 1.16574 -1.06058 0
M  V30 984 C 101.441 2.23057 -0.690488 0
M  V30 985 C 102.422 1.67141 0.315901 0
M  V30 986 O 103.607 1.93253 0.191556 0
M  V30 987 C 100.737 3.47222 -0.073625 0
M  V30 988 C 99.6908 4.16016 -1.00573 0
M  V30 989 C 99.0168 5.34104 -0.252289 0
M  V30 990 C 100.317 4.67264 -2.33371 0
M  V30 991 H 102.011 2.54271 -1.58072 0
M  V30 992 H 99.5568 1.22218 -0.76149 0
M  V30 993 H 101.51 4.20939 0.19714 0
M  V30 994 H 100.234 3.15302 0.85161 0
M  V30 995 H 98.8928 3.44223 -1.2612 0
M  V30 996 H 98.5408 4.98437 0.675988 0
M  V30 997 H 98.2408 5.81072 -0.873455 0
M  V30 998 H 99.7648 6.10599 0.0109857 0
M  V30 999 H 101.179 5.32573 -2.12223 0
M  V30 1000 H 99.5758 5.24843 -2.90963 0
M  V30 1001 H 100.646 3.83602 -2.96611 0
M  V30 1002 N 101.989 0.842826 1.3317 0
M  V30 1003 C 102.952 0.284065 2.27433 0
M  V30 1004 C 103.952 -0.54948 1.5112 0
M  V30 1005 O 105.142 -0.362699 1.70382 0
M  V30 1006 C 102.274 -0.599384 3.35589 0
M  V30 1007 H 103.467 1.11589 2.78366 0
M  V30 1008 H 101.02 0.616221 1.4364 0
M  V30 1009 H 101.755 -1.45349 2.89904 0
M  V30 1010 H 101.54 -0.00291266 3.921 0
M  V30 1011 H 103.03 -0.983488 4.05854 0
M  V30 1012 N 103.467 -1.45747 0.599634 0
M  V30 1013 C 104.715 -2.01893 0.0915472 0
M  V30 1014 C 105.036 -1.47155 -1.27946 0
M  V30 1015 O 104.306 -0.66273 -1.84349 0
M  V30 1016 H 102.886 -0.746363 0.0308524 0
M  V30 1017 H 105.548 -1.78645 0.779237 0
M  V30 1018 H 104.644 -3.1208 0.0353086 0
M  V30 1019 N 104.945 -0.338344 -1.53925 0
M  V30 1020 C 106.222 0.314774 -1.93051 0
M  V30 1021 C 106.602 1.68669 -1.26941 0
M  V30 1022 O 105.95 2.24636 -0.418445 0
M  V30 1023 C 106.16 0.392249 -3.46789 0
M  V30 1024 C 107.508 0.645554 -4.19664 0
M  V30 1025 O 108.532 0.474575 -3.53024 0
M  V30 1026 O 107.391 0.976408 -5.37707 0
M  V30 1027 H 104.485 0.182598 -0.80659 0
M  V30 1028 H 107.031 -0.389141 -1.65178 0
M  V30 1029 H 105.803 -0.570702 -3.87116 0
M  V30 1030 H 105.426 1.14316 -3.80812 0
M  V30 1031 N 106.423 1.57458 -0.0668435 0
M  V30 1032 C 107.353 2.15468 0.899764 0
M  V30 1033 C 108.334 1.08042 1.31381 0
M  V30 1034 O 109.519 1.36054 1.38574 0
M  V30 1035 C 106.649 2.71232 2.16911 0
M  V30 1036 C 105.603 3.83781 1.89463 0
M  V30 1037 C 104.929 4.26127 3.22986 0
M  V30 1038 C 106.229 5.08238 1.20381 0
M  V30 1039 H 107.923 2.96488 0.416529 0
M  V30 1040 H 105.469 1.4262 0.198908 0
M  V30 1041 H 107.422 3.10458 2.84945 0
M  V30 1042 H 106.146 1.87426 2.67468 0
M  V30 1043 H 104.805 3.45051 1.23836 0
M  V30 1044 H 104.453 3.39249 3.71374 0
M  V30 1045 H 104.153 5.01993 3.05413 0
M  V30 1046 H 105.677 4.67966 3.92225 0
M  V30 1047 H 107.091 5.44811 1.78475 0
M  V30 1048 H 105.488 5.89349 1.13083 0
M  V30 1049 H 106.558 4.84558 0.182153 0
M  V30 1050 N 107.901 -0.206675 1.56239 0
M  V30 1051 C 109.312 -0.772383 1.69974 0
M  V30 1052 C 109.663 -1.84353 0.671436 0
M  V30 1053 O 108.788 -2.15695 -0.174491 0
M  V30 1054 C 109.383 -1.40779 3.08167 0
M  V30 1055 C 107.942 -1.92072 3.23706 0
M  V30 1056 C 107.089 -0.786347 2.65917 0
M  V30 1057 H 110.04 0.0182223 1.5869 0
M  V30 1058 H 110.061 -2.27696 3.04852 0
M  V30 1059 H 109.573 -0.627958 3.82986 0
M  V30 1060 H 107.674 -2.7281 2.53782 0
M  V30 1061 H 107.787 -2.09046 4.31087 0
M  V30 1062 H 106.151 -1.1976 2.24788 0
M  V30 1063 H 106.934 -0.0189416 3.43295 0
M  V30 1064 N 109.379 -1.50304 -0.473955 0
M  V30 1065 C 110.342 -1.6841 -1.55469 0
M  V30 1066 C 111.342 -0.554905 -1.50922 0
M  V30 1067 O 112.532 -0.821882 -1.53593 0
M  V30 1068 C 109.664 -1.70667 -2.95102 0
M  V30 1069 H 110.857 -2.64828 -1.40733 0
M  V30 1070 H 108.41 -1.39742 -0.700132 0
M  V30 1071 H 109.145 -0.75932 -3.15285 0
M  V30 1072 H 108.93 -2.52698 -2.9981 0
M  V30 1073 H 110.42 -1.8664 -3.73571 0
M  V30 1074 N 110.857 0.726932 -1.39834 0
M  V30 1075 C 111.804 1.841 -1.39197 0
M  V30 1076 C 112.774 1.642 -0.250502 0
M  V30 1077 O 113.959 1.85494 -0.446846 0
M  V30 1078 C 111.099 3.21697 -1.24919 0
M  V30 1079 C 110.212 3.53247 -2.48678 0
M  V30 1080 C 109.347 4.80289 -2.26928 0
M  V30 1081 C 108.386 5.04707 -3.4632 0
M  V30 1082 N 107.523 6.22956 -3.23836 0
M  V30 1083 H 112.363 1.83979 -2.34427 0
M  V30 1084 H 109.9 0.898876 -1.16442 0
M  V30 1085 H 111.858 4.01137 -1.1465 0
M  V30 1086 H 110.488 3.21076 -0.333153 0
M  V30 1087 H 109.54 2.68447 -2.69519 0
M  V30 1088 H 110.852 3.67205 -3.37582 0
M  V30 1089 H 110.006 5.67725 -2.13947 0
M  V30 1090 H 108.745 4.68519 -1.35431 0
M  V30 1091 H 107.75 4.1573 -3.5979 0
M  V30 1092 H 108.975 5.18357 -4.38729 0
M  V30 1093 H 106.921 6.12459 -2.35011 0
M  V30 1094 H 106.838 6.37539 -4.063 0
M  V30 1095 H 108.106 7.1321 -3.14566 0
M  V30 1096 N 112.336 1.25143 0.95797 0
M  V30 1097 C 113.299 1.05321 2.03569 0
M  V30 1098 C 114.299 0.007152 1.60798 0
M  V30 1099 O 115.489 0.24903 1.72411 0
M  V30 1100 C 112.621 0.598394 3.35607 0
M  V30 1101 H 113.814 2.00986 2.22586 0
M  V30 1102 H 111.367 1.07502 1.13459 0
M  V30 1103 H 112.102 -0.361014 3.22284 0
M  V30 1104 H 111.887 1.35351 3.67998 0
M  V30 1105 H 113.377 0.48104 4.1482 0
M  V30 1106 N 113.814 -1.1601 1.06675 0
M  V30 1107 C 115.06 -1.86909 0.786945 0
M  V30 1108 C 115.393 -1.81717 -0.685018 0
M  V30 1109 O 114.668 -1.23551 -1.50218 0
M  V30 1110 C 114.951 -3.36313 1.28707 0
M  V30 1111 C 114.804 -3.50175 2.82308 0
M  V30 1112 C 116.123 -4.3084 0.898071 0
M  V30 1113 H 113.242 -0.678677 0.287343 0
M  V30 1114 H 115.884 -1.36336 1.32334 0
M  V30 1115 H 114.034 -3.79513 0.830768 0
M  V30 1116 H 115.706 -3.15886 3.36175 0
M  V30 1117 H 113.949 -2.91959 3.20847 0
M  V30 1118 H 114.62 -4.55116 3.12368 0
M  V30 1119 H 117.096 -3.95561 1.29114 0
M  V30 1120 H 115.972 -5.33876 1.27543 0
M  V30 1121 H 116.233 -4.41662 -0.196651 0
M  V30 1122 N 115.292 -0.849877 -1.32721 0
M  V30 1123 C 116.538 -0.451591 -1.97708 0
M  V30 1124 C 116.871 0.989175 -1.6712 0
M  V30 1125 O 116.146 1.69334 -0.956891 0
M  V30 1126 C 116.429 -0.685598 -3.53513 0
M  V30 1127 C 116.282 -2.17444 -3.93749 0
M  V30 1128 C 117.601 -0.138874 -4.39881 0
M  V30 1129 H 114.72 -0.16555 -0.718166 0
M  V30 1130 H 117.362 -1.06742 -1.57182 0
M  V30 1131 H 115.512 -0.161416 -3.88165 0
M  V30 1132 H 117.184 -2.76433 -3.693 0
M  V30 1133 H 115.427 -2.65476 -3.43081 0
M  V30 1134 H 116.098 -2.28888 -5.02309 0
M  V30 1135 H 118.574 -0.587068 -4.11938 0
M  V30 1136 H 117.45 -0.332213 -5.47894 0
M  V30 1137 H 117.711 0.95806 -4.31594 0
M  V30 1138 N 116.77 1.45427 -0.607355 0
M  V30 1139 C 117.72 2.27612 0.133038 0
M  V30 1140 C 118.704 1.37307 0.838785 0
M  V30 1141 O 119.896 1.61299 0.728813 0
M  V30 1142 C 117.025 3.24173 1.12991 0
M  V30 1143 C 116.111 4.21965 0.425011 0
M  V30 1144 N 116.502 5.02982 -0.533217 0
M  V30 1145 C 114.8 4.40899 0.672593 0
M  V30 1146 C 115.501 5.73931 -0.947518 0
M  V30 1147 N 114.477 5.42819 -0.291321 0
M  V30 1148 H 118.279 2.87649 -0.602935 0
M  V30 1149 H 115.793 1.56576 -0.431006 0
M  V30 1150 H 117.79 3.81783 1.67473 0
M  V30 1151 H 116.45 2.65696 1.86644 0
M  V30 1152 H 117.461 5.09843 -0.90995 0
M  V30 1153 H 114.138 3.93547 1.39382 0
M  V30 1154 H 115.528 6.49037 -1.73782 0
M  V30 1155 N 118.248 0.346503 1.53744 0
M  V30 1156 C 119.476 -0.25041 2.05379 0
M  V30 1157 C 119.891 -1.43979 1.22129 0
M  V30 1158 O 119.248 -1.80677 0.257321 0
M  V30 1159 C 119.299 -0.662575 3.55376 0
M  V30 1160 O 119.02 0.479515 4.35468 0
M  V30 1161 C 120.521 -1.31989 4.23195 0
M  V30 1162 H 117.741 -0.0478198 0.669294 0
M  V30 1163 H 120.285 0.499346 1.9831 0
M  V30 1164 H 118.44 -1.36227 3.62658 0
M  V30 1165 H 118.854 0.15037 5.24284 0
M  V30 1166 H 120.328 -1.55902 5.29527 0
M  V30 1167 H 120.805 -2.27436 3.75725 0
M  V30 1168 H 121.411 -0.662154 4.20114 0
M  V30 1169 N 119.726 -1.57421 0.075193 0
M  V30 1170 C 120.972 -1.93905 -0.594025 0
M  V30 1171 C 121.305 -0.955701 -1.69056 0
M  V30 1172 O 120.58 0.0145373 -1.94495 0
M  V30 1173 C 120.863 -3.40638 -1.1678 0
M  V30 1174 C 120.716 -4.49733 -0.0776792 0
M  V30 1175 C 122.035 -3.88259 -2.07228 0
M  V30 1176 H 119.154 -0.705105 -0.214466 0
M  V30 1177 H 121.796 -1.8947 0.141854 0
M  V30 1178 H 119.946 -3.44549 -1.79494 0
M  V30 1179 H 121.618 -4.57942 0.555573 0
M  V30 1180 H 119.861 -4.29751 0.591286 0
M  V30 1181 H 120.532 -5.49549 -0.519603 0
M  V30 1182 H 123.008 -3.86376 -1.54445 0
M  V30 1183 H 121.884 -4.91533 -2.44308 0
M  V30 1184 H 122.145 -3.26396 -2.98191 0
M  V30 1185 N 121.204 0.198386 -1.56346 0
M  V30 1186 C 122.452 0.91747 -1.80075 0
M  V30 1187 C 122.773 1.83929 -0.647692 0
M  V30 1188 O 122.043 1.93029 0.334166 0
M  V30 1189 H 120.623 0.341774 -0.664228 0
M  V30 1190 H 123.285 0.204684 -1.93822 0
M  V30 1191 H 122.381 1.51055 -2.7311 0
M  V30 1192 N 122.682 1.50554 0.465978 0
M  V30 1193 C 124.093 1.54599 1.04671 0
M  V30 1194 C 124.444 0.352488 1.93008 0
M  V30 1195 O 123.569 -0.534044 2.09707 0
M  V30 1196 C 124.164 2.80166 1.90505 0
M  V30 1197 C 122.723 2.86876 2.43678 0
M  V30 1198 C 121.87 2.48947 1.22151 0
M  V30 1199 H 124.821 1.56744 0.248384 0
M  V30 1200 H 124.842 2.62311 2.75633 0
M  V30 1201 H 124.354 3.67013 1.26186 0
M  V30 1202 H 122.455 2.04393 3.11536 0
M  V30 1203 H 122.568 3.89885 2.78436 0
M  V30 1204 H 120.932 2.01498 1.5579 0
M  V30 1205 H 121.715 3.38107 0.594866 0
M  V30 1206 N 124.16 -0.719506 1.40217 0
M  V30 1207 C 125.406 -1.48152 1.38488 0
M  V30 1208 C 125.739 -1.94195 -0.0141867 0
M  V30 1209 O 125.014 -1.67884 -0.982096 0
M  V30 1210 C 125.297 -2.71035 2.37091 0
M  V30 1211 C 125.15 -2.30912 3.86005 0
M  V30 1212 C 126.469 -3.73182 2.33288 0
M  V30 1213 H 123.588 -0.537395 0.504357 0
M  V30 1214 H 126.23 -0.821472 1.71324 0
M  V30 1215 H 124.38 -3.27352 2.0922 0
M  V30 1216 H 126.052 -1.80107 4.24687 0
M  V30 1217 H 124.295 -1.62958 4.02029 0
M  V30 1218 H 124.966 -3.18978 4.50508 0
M  V30 1219 H 127.442 -3.26485 2.57966 0
M  V30 1220 H 126.318 -4.56806 3.04334 0
M  V30 1221 H 126.579 -4.21202 1.34317 0
M  V30 1222 N 125.638 -1.25649 -0.95132 0
M  V30 1223 C 126.884 -1.11766 -1.69941 0
M  V30 1224 C 127.239 0.33735 -1.89419 0
M  V30 1225 O 126.532 1.24491 -1.45645 0
M  V30 1226 C 126.726 -1.80909 -3.08231 0
M  V30 1227 C 126.555 -3.32984 -3.02245 0
M  V30 1228 C 125.325 -4.02247 -3.05819 0
M  V30 1229 C 127.523 -4.29332 -2.83157 0
M  V30 1230 N 125.505 -5.41072 -2.90024 0
M  V30 1231 C 126.876 -5.55265 -2.75828 0
M  V30 1232 C 128.931 -4.19707 -2.67863 0
M  V30 1233 C 127.634 -6.72671 -2.54767 0
M  V30 1234 C 129.66 -5.36809 -2.48173 0
M  V30 1235 C 129.022 -6.61683 -2.41567 0
M  V30 1236 H 125.121 -0.463708 -0.629682 0
M  V30 1237 H 127.705 -1.58796 -1.12659 0
M  V30 1238 H 125.876 -1.36369 -3.63673 0
M  V30 1239 H 127.608 -1.59739 -3.71841 0
M  V30 1240 H 124.363 -3.53531 -3.15139 0
M  V30 1241 H 124.787 -6.13938 -2.85323 0
M  V30 1242 H 129.429 -3.23907 -2.71743 0
M  V30 1243 H 127.147 -7.68577 -2.49629 0
M  V30 1244 H 130.733 -5.31224 -2.37259 0
M  V30 1245 H 129.613 -7.50768 -2.26531 0
M  V30 1246 N 127.117 1.15442 -1.07289 0
M  V30 1247 C 128.533 1.38201 -0.798288 0
M  V30 1248 C 128.733 1.92429 0.597769 0
M  V30 1249 O 127.789 2.12962 1.3566 0
M  V30 1250 C 129.102 2.35357 -1.87156 0
M  V30 1251 C 130.65 2.49021 -1.89624 0
M  V30 1252 C 131.125 3.49468 -2.96034 0
M  V30 1253 N 132.616 3.57003 -2.95132 0
M  V30 1254 C 133.351 4.34543 -3.74112 0
M  V30 1255 N 132.847 5.15421 -4.6294 0
M  V30 1256 N 134.64 4.29625 -3.62462 0
M  V30 1257 H 126.791 0.78584 -1.97328 0
M  V30 1258 H 129.054 0.408065 -0.855679 0
M  V30 1259 H 128.76 2.02626 -2.87464 0
M  V30 1260 H 128.634 3.35129 -1.73114 0
M  V30 1261 H 131.021 2.81051 -0.899687 0
M  V30 1262 H 131.102 1.4925 -2.07745 0
M  V30 1263 H 130.746 3.18173 -3.95889 0
M  V30 1264 H 130.676 4.48992 -2.75161 0
M  V30 1265 H 133.167 2.99276 -2.30743 0
M  V30 1266 H 133.48 5.7183 -5.19837 0
M  V30 1267 H 131.825 5.14729 -4.66989 0
M  V30 1268 H 135.016 3.65505 -2.92444 0
M  V30 1269 H 135.189 4.89807 -4.24256 0
M  V30 1270 N 128.595 0.856903 1.32268 0
M  V30 1271 C 129.843 0.460474 1.96784 0
M  V30 1272 C 130.164 -0.987701 1.68135 0
M  V30 1273 O 129.434 -1.69058 0.989765 0
M  V30 1274 H 128.014 0.167289 0.728027 0
M  V30 1275 H 130.676 1.09383 1.61312 0
M  V30 1276 H 129.772 0.60739 3.06133 0
M  V30 1277 N 130.073 -1.45103 0.615059 0
M  V30 1278 C 131.321 -2.01784 0.112955 0
M  V30 1279 C 131.642 -1.48504 -1.26378 0
M  V30 1280 O 130.912 -0.682245 -1.83636 0
M  V30 1281 H 129.492 -0.745993 0.0387668 0
M  V30 1282 H 132.154 -1.77808 0.798141 0
M  V30 1283 H 131.25 -3.12025 0.0684069 0
M  V30 1284 N 131.551 -0.354651 -1.53558 0
M  V30 1285 C 132.461 0.50515 -2.29097 0
M  V30 1286 C 133.477 1.10223 -1.34636 0
M  V30 1287 O 134.653 1.11553 -1.67684 0
M  V30 1288 C 131.718 1.63479 -3.05738 0
M  V30 1289 C 130.779 1.06636 -4.15845 0
M  V30 1290 C 130.012 2.14217 -4.88822 0
M  V30 1291 O 130.235 3.35137 -4.61562 0
M  V30 1292 O 129.169 1.77887 -5.75013 0
M  V30 1293 H 132.995 -0.109237 -3.03503 0
M  V30 1294 H 130.58 -0.119357 -1.48922 0
M  V30 1295 H 132.462 2.2918 -3.5363 0
M  V30 1296 H 131.137 2.23478 -2.34178 0
M  V30 1297 H 130.044 0.373565 -3.7223 0
M  V30 1298 H 131.377 0.511081 -4.89539 0
M  V30 1299 N 133.029 1.57378 -0.0835403 0
M  V30 1300 C 133.961 2.10389 0.909338 0
M  V30 1301 C 134.974 1.03858 1.25369 0
M  V30 1302 O 136.163 1.31338 1.20882 0
M  V30 1303 C 133.263 2.55908 2.2218 0
M  V30 1304 C 132.436 3.86145 2.05453 0
M  V30 1305 C 131.495 4.17633 3.20108 0
M  V30 1306 O 130.521 4.87043 2.94581 0
M  V30 1307 N 131.723 3.72113 4.45547 0
M  V30 1308 H 134.488 2.962 0.456657 0
M  V30 1309 H 132.049 1.61579 0.101877 0
M  V30 1310 H 134.041 2.74027 2.97811 0
M  V30 1311 H 132.611 1.75171 2.58909 0
M  V30 1312 H 131.831 3.7729 1.1422 0
M  V30 1313 H 133.119 4.7137 1.91541 0
M  V30 1314 H 132.517 3.16062 4.69171 0
M  V30 1315 H 131.074 3.95409 5.18165 0
M  V30 1316 N 134.507 -0.190092 1.56449 0
M  V30 1317 C 135.455 -1.25501 1.95837 0
M  V30 1318 C 136.449 -1.4685 0.844485 0
M  V30 1319 O 137.655 -1.47651 1.02952 0
M  V30 1320 H 134.03 -0.421447 0.622805 0
M  V30 1321 H 136.001 -0.895821 2.84636 0
M  V30 1322 C 134.75 -2.59124 2.31841 0
M  V30 1323 H 134.073 -2.43514 3.17082 0
M  V30 1324 H 135.513 -3.32371 2.6326 0
M  V30 1325 C 133.972 -3.16488 1.15486 0
M  V30 1326 O 134.502 -3.99365 0.432535 0
M  V30 1327 N 132.708 -2.75305 0.930349 0
M  V30 1328 H 132.255 -2.08013 1.51948 0
M  V30 1329 H 132.213 -3.14024 0.153634 0
M  V30 1330 N 135.985 -1.50799 -0.457987 0
M  V30 1331 C 136.895 -1.73426 -1.57989 0
M  V30 1332 C 137.911 -0.617745 -1.62665 0
M  V30 1333 O 139.087 -0.897614 -1.80291 0
M  V30 1334 C 136.152 -1.83557 -2.94122 0
M  V30 1335 C 135.213 -3.07345 -2.99729 0
M  V30 1336 C 134.446 -3.16983 -4.29368 0
M  V30 1337 O 134.669 -2.33077 -5.20607 0
M  V30 1338 O 133.603 -4.09812 -4.40837 0
M  V30 1339 H 137.429 -2.68555 -1.41817 0
M  V30 1340 H 135.014 -1.35052 -0.638859 0
M  V30 1341 H 136.896 -1.92326 -3.74952 0
M  V30 1342 H 135.571 -0.916137 -3.10465 0
M  V30 1343 H 134.478 -3.04068 -2.1793 0
M  V30 1344 H 135.811 -3.9891 -2.88326 0
M  V30 1345 N 137.463 0.71206 -1.40597 0
M  V30 1346 C 138.74 1.46536 -1.29563 0
M  V30 1347 C 139.12 2.10931 0.0844217 0
M  V30 1348 O 138.468 2.00418 1.0975 0
M  V30 1349 C 138.678 2.49821 -2.43701 0
M  V30 1350 C 140.026 3.15551 -2.841 0
M  V30 1351 O 141.05 2.60142 -2.4332 0
M  V30 1352 O 139.909 4.15867 -3.54566 0
M  V30 1353 H 137.003 0.651801 -0.509004 0
M  V30 1354 H 139.549 0.743935 -1.52524 0
M  V30 1355 H 138.321 2.00778 -3.35863 0
M  V30 1356 H 137.944 3.29495 -2.22528 0
M  V30 1357 N 138.941 1.26152 0.944643 0
M  V30 1358 C 139.873 1.03199 2.04652 0
M  V30 1359 C 140.886 -0.00642356 1.62799 0
M  V30 1360 O 142.075 0.233263 1.76969 0
M  V30 1361 C 139.175 0.540111 3.34568 0
M  V30 1362 C 138.348 1.64697 4.05208 0
M  V30 1363 C 137.407 1.15374 5.13396 0
M  V30 1364 O 136.433 1.85013 5.38293 0
M  V30 1365 N 137.635 0.00031529 5.805 0
M  V30 1366 H 140.4 1.9808 2.2491 0
M  V30 1367 H 137.961 1.17491 1.11389 0
M  V30 1368 H 139.953 0.194401 4.04233 0
M  V30 1369 H 138.523 -0.315021 3.11009 0
M  V30 1370 H 137.743 2.16379 3.29506 0
M  V30 1371 H 139.031 2.3903 4.49157 0
M  V30 1372 H 138.429 -0.581336 5.62705 0
M  V30 1373 H 136.986 -0.286346 6.51171 0
M  V30 1374 N 140.419 -1.14872 1.07899 0
M  V30 1375 C 141.349 -2.2193 0.725887 0
M  V30 1376 C 142.33 -1.67622 -0.28927 0
M  V30 1377 O 143.515 -1.93533 -0.160787 0
M  V30 1378 C 140.645 -3.47061 0.128856 0
M  V30 1379 C 139.599 -4.14363 1.07178 0
M  V30 1380 C 138.925 -5.33636 0.337229 0
M  V30 1381 C 140.225 -4.63492 2.40775 0
M  V30 1382 H 141.919 -2.51724 1.62097 0
M  V30 1383 H 139.465 -1.20991 0.780838 0
M  V30 1384 H 141.418 -4.21199 -0.130147 0
M  V30 1385 H 140.142 -3.16617 -0.80134 0
M  V30 1386 H 138.801 -3.42173 1.3158 0
M  V30 1387 H 138.449 -4.99449 -0.596606 0
M  V30 1388 H 138.149 -5.79609 0.965788 0
M  V30 1389 H 139.673 -6.10539 0.0861567 0
M  V30 1390 H 141.087 -5.2913 2.20669 0
M  V30 1391 H 139.484 -5.20148 2.99276 0
M  V30 1392 H 140.554 -3.78834 3.02676 0
M  V30 1393 N 141.898 -0.863906 -1.31812 0
M  V30 1394 C 142.828 -0.330843 -2.31144 0
M  V30 1395 C 143.809 0.575005 -1.60087 0
M  V30 1396 O 144.994 0.493304 -1.8783 0
M  V30 1397 C 142.124 0.47374 -3.44054 0
M  V30 1398 C 141.078 -0.338481 -4.26659 0
M  V30 1399 C 140.404 0.591412 -5.31419 0
M  V30 1400 C 141.704 -1.56926 -4.98168 0
M  V30 1401 H 143.398 -1.16086 -2.75979 0
M  V30 1402 H 140.944 -0.559657 -1.32679 0
M  V30 1403 H 142.897 0.857143 -4.12591 0
M  V30 1404 H 141.621 1.33721 -2.9797 0
M  V30 1405 H 140.28 -0.703754 -3.59782 0
M  V30 1406 H 139.928 1.45199 -4.81587 0
M  V30 1407 H 139.628 0.0519022 -5.87577 0
M  V30 1408 H 141.152 0.97179 -6.02817 0
M  V30 1409 H 142.566 -1.25764 -5.59336 0
M  V30 1410 H 140.963 -2.04739 -5.64094 0
M  V30 1411 H 142.033 -2.32544 -4.25501 0
M  V30 1412 N 143.376 1.44774 -0.622745 0
M  V30 1413 C 144.308 2.28856 0.125485 0
M  V30 1414 C 145.321 1.40811 0.817069 0
M  V30 1415 O 146.51 1.65044 0.679918 0
M  V30 1416 C 143.61 3.16963 1.19949 0
M  V30 1417 C 142.783 4.33374 0.592064 0
M  V30 1418 C 141.842 5.02577 1.55893 0
M  V30 1419 O 140.868 5.58873 1.07933 0
M  V30 1420 N 142.07 5.03256 2.89334 0
M  V30 1421 H 144.835 2.93713 -0.596068 0
M  V30 1422 H 142.396 1.55129 -0.463303 0
M  V30 1423 H 144.388 3.60123 1.84644 0
M  V30 1424 H 142.958 2.53913 1.82337 0
M  V30 1425 H 142.178 3.93509 -0.233322 0
M  V30 1426 H 143.466 5.08527 0.166738 0
M  V30 1427 H 142.864 4.58836 3.30887 0
M  V30 1428 H 141.421 5.50232 3.49412 0
M  V30 1429 N 144.854 0.36279 1.53368 0
M  V30 1430 C 146.131 -0.284021 1.93527 0
M  V30 1431 C 146.511 -1.66628 1.29608 0
M  V30 1432 O 145.859 -2.23942 0.45413 0
M  V30 1433 C 146.069 -0.337028 3.47369 0
M  V30 1434 C 147.417 -0.578708 4.20638 0
M  V30 1435 O 148.441 -0.418352 3.53735 0
M  V30 1436 O 147.3 -0.89074 5.39192 0
M  V30 1437 H 144.394 -0.169743 0.809393 0
M  V30 1438 H 146.94 0.41537 1.64538 0
M  V30 1439 H 145.712 0.632217 3.86159 0
M  V30 1440 H 145.335 -1.08243 3.82582 0
M  V30 1441 N 146.332 -1.57332 0.0918853 0
M  V30 1442 C 147.295 -2.12708 -0.85369 0
M  V30 1443 C 148.295 -1.05561 -1.213 0
M  V30 1444 O 149.485 -1.31461 -1.14296 0
M  V30 1445 C 146.617 -2.64503 -2.15061 0
M  V30 1446 H 147.81 -2.97573 -0.3729 0
M  V30 1447 H 145.363 -1.55509 -0.157072 0
M  V30 1448 H 146.098 -1.83149 -2.67632 0
M  V30 1449 H 145.883 -3.4284 -1.90272 0
M  V30 1450 H 147.373 -3.07351 -2.82711 0
M  V30 1451 N 147.81 0.181792 -1.56548 0
M  V30 1452 C 149.04 0.914618 -1.85252 0
M  V30 1453 C 149.448 1.76791 -0.673914 0
M  V30 1454 O 148.791 1.80009 0.366416 0
M  V30 1455 C 148.853 1.85019 -3.08234 0
M  V30 1456 C 148.517 1.17754 -4.41569 0
M  V30 1457 C 149.514 0.548035 -5.17003 0
M  V30 1458 C 147.199 1.17742 -4.88305 0
M  V30 1459 C 149.193 -0.0726128 -6.37359 0
M  V30 1460 C 146.88 0.552946 -6.08593 0
M  V30 1461 C 147.878 -0.070978 -6.82963 0
M  V30 1462 O 147.566 -0.685635 -8.00971 0
M  V30 1463 H 147.298 0.271695 -0.618998 0
M  V30 1464 H 149.852 0.189944 -2.0452 0
M  V30 1465 H 148.082 2.61491 -2.84885 0
M  V30 1466 H 149.771 2.45195 -3.23472 0
M  V30 1467 H 150.537 0.540174 -4.81982 0
M  V30 1468 H 146.416 1.65246 -4.30366 0
M  V30 1469 H 149.96 -0.560213 -6.95347 0
M  V30 1470 H 145.857 0.558354 -6.43081 0
M  V30 1471 H 146.625 -0.58385 -8.16415 0
M  V30 1472 N 149.288 1.51039 0.449983 0
M  V30 1473 C 150.218 1.74379 1.55288 0
M  V30 1474 C 151.199 0.593236 1.5942 0
M  V30 1475 O 152.384 0.834625 1.7535 0
M  V30 1476 C 149.514 1.85728 2.93466 0
M  V30 1477 C 148.468 3.01078 3.04197 0
M  V30 1478 C 147.794 2.97595 4.44231 0
M  V30 1479 C 149.094 4.41254 2.7945 0
M  V30 1480 H 150.788 2.66725 1.36008 0
M  V30 1481 H 148.334 1.2835 0.652864 0
M  V30 1482 H 150.287 2.0064 3.70569 0
M  V30 1483 H 149.011 0.900207 3.13949 0
M  V30 1484 H 147.67 2.85851 2.29531 0
M  V30 1485 H 147.318 1.99691 4.61663 0
M  V30 1486 H 147.018 3.75046 4.52343 0
M  V30 1487 H 148.542 3.14583 5.23326 0
M  V30 1488 H 149.956 4.56897 3.46292 0
M  V30 1489 H 148.353 5.20315 2.98985 0
M  V30 1490 H 149.423 4.52164 1.75144 0
M  V30 1491 N 150.766 -0.704594 1.40972 0
M  V30 1492 C 151.714 -1.83994 1.42299 0
M  V30 1493 C 152.708 -1.66684 0.302111 0
M  V30 1494 O 153.914 -1.73655 0.473697 0
M  V30 1495 H 150.289 -0.606171 0.44504 0
M  V30 1496 H 152.26 -1.79992 2.38003 0
M  V30 1497 C 151.009 -3.21946 1.31323 0
M  V30 1498 H 150.332 -3.35878 2.16855 0
M  V30 1499 H 151.772 -4.01491 1.36311 0
M  V30 1500 C 150.231 -3.36891 0.0245977 0
M  V30 1501 O 150.761 -3.90687 -0.934153 0
M  V30 1502 N 148.967 -2.90559 -0.0485243 0
M  V30 1503 H 148.514 -2.46968 0.732419 0
M  V30 1504 H 148.472 -3.00937 -0.910171 0
M  V30 1505 N 152.244 -1.26651 -0.937939 0
M  V30 1506 C 153.469 -1.15279 -1.72411 0
M  V30 1507 C 153.894 0.287866 -1.85884 0
M  V30 1508 O 153.252 1.20855 -1.35143 0
M  V30 1509 C 153.3 -1.83028 -3.10698 0
M  V30 1510 O 152.404 -1.12128 -3.96864 0
M  V30 1511 H 151.745 -0.401504 -0.528858 0
M  V30 1512 H 154.275 -1.67531 -1.1745 0
M  V30 1513 H 154.285 -1.89981 -3.6107 0
M  V30 1514 H 152.96 -2.87833 -3.00208 0
M  V30 1515 H 151.537 -1.13173 -3.55312 0
M  V30 1516 N 153.722 1.14298 -1.08507 0
M  V30 1517 C 154.652 2.21542 -0.737646 0
M  V30 1518 C 155.633 1.67773 0.280377 0
M  V30 1519 O 156.818 1.93616 0.150521 0
M  V30 1520 C 153.948 3.46988 -0.147259 0
M  V30 1521 C 152.902 4.13789 -1.09374 0
M  V30 1522 C 152.228 5.33449 -0.365524 0
M  V30 1523 C 153.528 4.62208 -2.4323 0
M  V30 1524 H 155.222 2.5086 -1.6343 0
M  V30 1525 H 152.768 1.20576 -0.787243 0
M  V30 1526 H 154.721 4.21262 0.107808 0
M  V30 1527 H 153.445 3.17037 0.784538 0
M  V30 1528 H 152.104 3.4147 -1.33393 0
M  V30 1529 H 151.752 4.99759 0.57011 0
M  V30 1530 H 151.452 5.79088 -0.996512 0
M  V30 1531 H 152.976 6.10485 -0.118534 0
M  V30 1532 H 154.39 5.27952 -2.23472 0
M  V30 1533 H 152.787 5.18553 -3.02031 0
M  V30 1534 H 153.857 3.77224 -3.04681 0
M  V30 1535 N 155.201 0.870884 1.31352 0
M  V30 1536 C 156.617 0.562932 1.49343 0
M  V30 1537 C 156.817 -0.902725 1.80148 0
M  V30 1538 O 155.873 -1.68484 1.88067 0
M  V30 1539 C 157.186 1.46393 2.62659 0
M  V30 1540 C 158.734 1.46607 2.76542 0
M  V30 1541 C 159.209 2.35266 3.92955 0
M  V30 1542 N 160.7 2.33151 4.00243 0
M  V30 1543 C 161.435 2.98471 4.89594 0
M  V30 1544 N 160.931 3.72964 5.8384 0
M  V30 1545 N 162.724 2.87775 4.82848 0
M  V30 1546 H 154.875 1.81923 1.09626 0
M  V30 1547 H 157.138 0.777934 0.541777 0
M  V30 1548 H 156.844 2.50689 2.46674 0
M  V30 1549 H 156.718 1.16314 3.58819 0
M  V30 1550 H 159.105 0.43069 2.9194 0
M  V30 1551 H 159.186 1.8071 1.81046 0
M  V30 1552 H 158.83 3.38881 3.78315 0
M  V30 1553 H 158.76 1.98487 4.87761 0
M  V30 1554 H 161.251 1.79006 3.32814 0
M  V30 1555 H 161.564 4.19932 6.4875 0
M  V30 1556 H 159.909 3.77073 5.83816 0
M  V30 1557 H 163.1 2.29116 4.08195 0
M  V30 1558 H 163.273 3.38961 5.52277 0
M  V30 1559 N 156.679 -1.44442 0.630414 0
M  V30 1560 C 157.609 -2.33418 -0.0618083 0
M  V30 1561 C 158.59 -1.48165 -0.835541 0
M  V30 1562 O 159.775 -1.76886 -0.801564 0
M  V30 1563 C 156.905 -3.31222 -1.04449 0
M  V30 1564 C 155.859 -4.26288 -0.382436 0
M  V30 1565 C 155.185 -5.13954 -1.47497 0
M  V30 1566 C 156.485 -5.1744 0.710865 0
M  V30 1567 H 158.179 -2.91548 0.681184 0
M  V30 1568 H 155.725 -1.40191 0.329026 0
M  V30 1569 H 157.678 -3.92351 -1.53748 0
M  V30 1570 H 156.402 -2.71299 -1.81836 0
M  V30 1571 H 155.061 -3.6649 0.0899054 0
M  V30 1572 H 154.709 -4.50385 -2.2397 0
M  V30 1573 H 154.409 -5.7837 -1.03737 0
M  V30 1574 H 155.933 -5.77955 -1.96979 0
M  V30 1575 H 157.347 -5.72509 0.300996 0
M  V30 1576 H 155.744 -5.90455 1.07156 0
M  V30 1577 H 156.814 -4.58496 1.57829 0
M  V30 1578 N 158.157 -0.370918 -1.53173 0
M  V30 1579 C 159.403 0.217423 -2.01631 0
M  V30 1580 C 159.736 1.47983 -1.25756 0
M  V30 1581 O 159.011 1.91274 -0.352764 0
M  V30 1582 C 159.294 0.503982 -3.56556 0
M  V30 1583 C 159.147 -0.77243 -4.43118 0
M  V30 1584 C 160.466 1.30234 -4.20389 0
M  V30 1585 H 157.585 0.0775486 -0.732909 0
M  V30 1586 H 160.227 -0.496863 -1.83388 0
M  V30 1587 H 158.377 1.11248 -3.72231 0
M  V30 1588 H 160.049 -1.4098 -4.39229 0
M  V30 1589 H 158.292 -1.39167 -4.10871 0
M  V30 1590 H 158.963 -0.526815 -5.4948 0
M  V30 1591 H 161.439 0.787546 -4.08579 0
M  V30 1592 H 160.315 1.47158 -5.28806 0
M  V30 1593 H 160.576 2.31237 -3.76805 0
M  V30 1594 N 159.635 1.57281 -0.100228 0
M  V30 1595 C 160.598 2.13158 0.842398 0
M  V30 1596 C 161.598 1.06202 1.20738 0
M  V30 1597 O 162.788 1.32066 1.13597 0
M  V30 1598 C 159.92 2.65639 2.13655 0
M  V30 1599 H 161.113 2.97766 0.357114 0
M  V30 1600 H 158.666 1.5559 0.148823 0
M  V30 1601 H 159.401 1.84566 2.66657 0
M  V30 1602 H 159.186 3.43844 1.88451 0
M  V30 1603 H 160.676 3.08846 2.81077 0
M  V30 1604 N 161.113 -0.173488 1.56642 0
M  V30 1605 C 162.076 -1.19859 1.95362 0
M  V30 1606 C 163.076 -1.37296 0.83704 0
M  V30 1607 O 164.266 -1.34739 1.10413 0
M  V30 1608 C 161.398 -2.56405 2.24654 0
M  V30 1609 H 162.591 -0.867062 2.87092 0
M  V30 1610 H 160.144 -0.415853 1.50666 0
M  V30 1611 H 160.879 -2.94576 1.35631 0
M  V30 1612 H 160.664 -2.45115 3.06041 0
M  V30 1613 H 162.154 -3.30287 2.5554 0
M  V30 1614 N 162.591 -1.51276 -0.441967 0
M  V30 1615 C 163.539 -1.72823 -1.55676 0
M  V30 1616 C 164.533 -0.59445 -1.58627 0
M  V30 1617 O 165.739 -0.775715 -1.62427 0
M  V30 1618 H 162.114 -0.545983 -0.517113 0
M  V30 1619 H 164.085 -2.6628 -1.34675 0
M  V30 1620 C 162.834 -1.86619 -2.93375 0
M  V30 1621 H 162.157 -2.73264 -2.91834 0
M  V30 1622 H 163.597 -2.05709 -3.70756 0
M  V30 1623 C 162.056 -0.624842 -3.31055 0
M  V30 1624 O 162.586 0.222636 -4.01083 0
M  V30 1625 N 160.792 -0.470288 -2.86769 0
M  V30 1626 H 160.339 -1.161 -2.29953 0
M  V30 1627 H 160.297 0.359051 -3.12343 0
M  V30 1628 N 164.069 0.697108 -1.41344 0
M  V30 1629 C 165.294 1.49096 -1.44171 0
M  V30 1630 C 165.719 1.88038 -0.0481568 0
M  V30 1631 O 165.077 1.54525 0.948243 0
M  V30 1632 C 165.125 2.73088 -2.3549 0
M  V30 1633 O 164.229 3.70514 -1.81088 0
M  V30 1634 H 163.57 0.448801 -0.489361 0
M  V30 1635 H 166.1 0.856992 -1.85787 0
M  V30 1636 H 166.11 3.21413 -2.51312 0
M  V30 1637 H 164.785 2.44081 -3.36745 0
M  V30 1638 H 163.362 3.29441 -1.74708 0
M  V30 1639 N 165.547 1.27147 0.931209 0
M  V30 1640 C 166.777 1.15914 1.71019 0
M  V30 1641 C 167.185 -0.287112 1.87009 0
M  V30 1642 O 166.528 -1.20761 1.38429 0
M  V30 1643 C 166.59 1.76647 3.13107 0
M  V30 1644 C 166.254 3.25807 3.20467 0
M  V30 1645 C 167.251 4.22489 3.02983 0
M  V30 1646 C 164.936 3.66452 3.43538 0
M  V30 1647 C 166.93 5.57794 3.08454 0
M  V30 1648 C 164.617 5.01888 3.48643 0
M  V30 1649 C 165.615 5.97369 3.31119 0
M  V30 1650 O 165.303 7.30337 3.35952 0
M  V30 1651 H 165.035 0.404062 0.54195 0
M  V30 1652 H 167.589 1.68457 1.17521 0
M  V30 1653 H 165.819 1.18578 3.68071 0
M  V30 1654 H 167.508 1.60179 3.72958 0
M  V30 1655 H 168.274 3.92425 2.85004 0
M  V30 1656 H 164.153 2.92611 3.5623 0
M  V30 1657 H 167.697 6.32298 2.94694 0
M  V30 1658 H 163.594 5.31609 3.66145 0
M  V30 1659 H 164.362 7.38739 3.5243 0
M  V30 1660 N 167.025 -1.13721 1.09112 0
M  V30 1661 C 168.253 -1.88773 0.846899 0
M  V30 1662 C 168.668 -1.7896 -0.601572 0
M  V30 1663 O 168.025 -1.15394 -1.41388 0
M  V30 1664 C 168.076 -3.3849 1.26913 0
M  V30 1665 O 167.797 -3.48043 2.66079 0
M  V30 1666 C 169.298 -4.30518 1.05682 0
M  V30 1667 H 166.518 -0.59772 0.304914 0
M  V30 1668 H 169.062 -1.43977 1.45227 0
M  V30 1669 H 167.217 -3.80881 0.707723 0
M  V30 1670 H 167.631 -4.4109 2.83795 0
M  V30 1671 H 169.105 -5.3391 1.40156 0
M  V30 1672 H 169.582 -4.392 -0.00563416 0
M  V30 1673 H 170.188 -3.93893 1.60402 0
M  V30 1674 N 168.503 -0.877838 -1.30888 0
M  V30 1675 C 169.728 -0.506629 -2.01117 0
M  V30 1676 C 170.153 0.895564 -1.65412 0
M  V30 1677 O 169.511 1.5923 -0.866922 0
M  V30 1678 C 169.559 -0.680223 -3.54126 0
M  V30 1679 O 168.663 0.277033 -4.11468 0
M  V30 1680 H 168.004 -0.200518 -0.633 0
M  V30 1681 H 170.534 -1.18342 -1.66902 0
M  V30 1682 H 170.544 -0.5765 -4.03907 0
M  V30 1683 H 169.219 -1.70261 -3.79452 0
M  V30 1684 H 167.796 0.127606 -3.72682 0
M  V30 1685 N 169.982 1.44106 -0.638065 0
M  V30 1686 C 171.228 2.02277 -0.145546 0
M  V30 1687 C 171.561 1.50125 1.23191 0
M  V30 1688 O 170.836 0.688133 1.8192 0
M  V30 1689 C 171.119 3.59829 -0.139791 0
M  V30 1690 C 170.972 4.22247 -1.55008 0
M  V30 1691 C 172.291 4.36873 0.531966 0
M  V30 1692 H 169.41 0.734992 -0.0543632 0
M  V30 1693 H 172.052 1.71592 -0.815863 0
M  V30 1694 H 170.202 3.86102 0.431007 0
M  V30 1695 H 171.874 4.07057 -2.1703 0
M  V30 1696 H 170.117 3.79476 -2.10191 0
M  V30 1697 H 170.788 5.31284 -1.49804 0
M  V30 1698 H 173.264 4.16074 0.0464781 0
M  V30 1699 H 172.14 5.4657 0.505206 0
M  V30 1700 H 172.401 4.11995 1.60352 0
M  V30 1701 N 171.46 0.379036 1.52974 0
M  V30 1702 C 172.423 -0.448865 2.24762 0
M  V30 1703 C 173.423 -0.998689 1.26027 0
M  V30 1704 O 174.613 -0.882313 1.50203 0
M  V30 1705 C 171.745 -1.62872 2.99476 0
M  V30 1706 H 172.938 0.179491 2.99362 0
M  V30 1707 H 170.491 0.13096 1.5575 0
M  V30 1708 H 171.226 -2.29479 2.29151 0
M  V30 1709 H 171.011 -1.24128 3.71934 0
M  V30 1710 H 172.501 -2.2151 3.5401 0
M  V30 1711 N 172.938 -1.57226 0.108567 0
M  V30 1712 C 174.185 -1.94833 -0.551943 0
M  V30 1713 C 174.513 -0.991204 -1.67348 0
M  V30 1714 O 173.768 -0.0131878 -1.95696 0
M  V30 1715 C 174.067 -3.38911 -1.13463 0
M  V30 1716 C 173.733 -4.50696 -0.135509 0
M  V30 1717 C 172.395 -4.80998 0.139252 0
M  V30 1718 C 174.747 -5.18333 0.545957 0
M  V30 1719 C 172.075 -5.76259 1.10194 0
M  V30 1720 C 174.427 -6.14627 1.49721 0
M  V30 1721 C 173.091 -6.43327 1.78006 0
M  V30 1722 H 172.361 -0.712944 -0.20197 0
M  V30 1723 H 175.008 -1.90582 0.18726 0
M  V30 1724 H 173.313 -3.39805 -1.95037 0
M  V30 1725 H 175.01 -3.65317 -1.65362 0
M  V30 1726 H 171.6 -4.27087 -0.359846 0
M  V30 1727 H 175.784 -4.95087 0.346842 0
M  V30 1728 H 171.04 -5.96804 1.32795 0
M  V30 1729 H 175.214 -6.66126 2.03099 0
M  V30 1730 H 172.841 -7.1695 2.52759 0
M  V30 1731 N 174.416 0.165178 -1.56732 0
M  V30 1732 C 175.827 0.727046 -1.71962 0
M  V30 1733 C 176.178 1.82508 -0.720078 0
M  V30 1734 O 175.303 2.16082 0.117242 0
M  V30 1735 C 175.898 1.32559 -3.11791 0
M  V30 1736 C 174.457 1.83422 -3.28684 0
M  V30 1737 C 173.604 0.715567 -2.67908 0
M  V30 1738 H 176.555 -0.0602896 -1.58585 0
M  V30 1739 H 176.576 2.19533 -3.10782 0
M  V30 1740 H 176.088 0.526195 -3.84516 0
M  V30 1741 H 174.189 2.65986 -2.60926 0
M  V30 1742 H 174.302 1.97543 -4.36478 0
M  V30 1743 H 172.666 1.13758 -2.27884 0
M  V30 1744 H 173.449 -0.0720836 -3.43224 0
M  V30 1745 N 175.894 1.51508 0.433938 0
M  V30 1746 C 176.857 1.72473 1.50949 0
M  V30 1747 C 177.857 0.594725 1.49398 0
M  V30 1748 O 179.047 0.862315 1.5136 0
M  V30 1749 C 176.179 1.78431 2.90474 0
M  V30 1750 H 177.372 2.68467 1.33662 0
M  V30 1751 H 174.925 1.41549 0.662836 0
M  V30 1752 H 175.66 0.842645 3.13161 0
M  V30 1753 H 175.445 2.60558 2.93005 0
M  V30 1754 H 176.935 1.96479 3.68491 0
M  V30 1755 N 177.372 -0.689602 1.41712 0
M  V30 1756 C 178.621 -1.44534 1.40686 0
M  V30 1757 C 178.934 -1.95588 0.0213352 0
M  V30 1758 O 180.14 -2.71271 -0.111534 0
M  V30 1759 C 178.596 -2.61387 2.47396 0
M  V30 1760 C 178.204 -2.17094 3.91885 0
M  V30 1761 C 179.948 -3.38986 2.55517 0
M  V30 1762 C 177.855 -3.3094 4.90135 0
M  V30 1763 H 176.785 -0.542925 0.52321 0
M  V30 1764 H 179.436 -0.748054 1.6756 0
M  V30 1765 H 177.818 -3.33412 2.13664 0
M  V30 1766 H 178.992 -1.52318 4.34897 0
M  V30 1767 H 177.307 -1.52473 3.8748 0
M  V30 1768 H 179.904 -4.23747 3.26102 0
M  V30 1769 H 180.247 -3.84578 1.59391 0
M  V30 1770 H 180.78 -2.74021 2.8837 0
M  V30 1771 H 177.519 -2.90355 5.87685 0
M  V30 1772 H 177.039 -3.94546 4.51767 0
M  V30 1773 H 178.718 -3.9663 5.11169 0
M  V30 1774 N 178.85 -1.27639 -0.924453 0
M  V30 1775 C 180.075 -1.17101 -1.71179 0
M  V30 1776 C 180.5 0.268134 -1.86179 0
M  V30 1777 O 179.858 1.19415 -1.36418 0
M  V30 1778 C 179.906 -1.86313 -3.08739 0
M  V30 1779 O 179.01 -1.16331 -3.95652 0
M  V30 1780 H 178.351 -0.407091 -0.524569 0
M  V30 1781 H 180.881 -1.68767 -1.15666 0
M  V30 1782 H 180.891 -1.938 -3.59034 0
M  V30 1783 H 179.566 -2.91001 -2.97138 0
M  V30 1784 H 178.143 -1.16935 -3.54091 0
M  V30 1785 N 180.328 1.1314 -1.09713 0
M  V30 1786 C 181.556 1.88321 -0.856898 0
M  V30 1787 C 181.971 1.79276 0.592073 0
M  V30 1788 O 181.328 1.16142 1.40774 0
M  V30 1789 C 181.379 3.37812 -1.28706 0
M  V30 1790 O 181.1 3.46627 -2.67921 0
M  V30 1791 C 182.601 4.29952 -1.07964 0
M  V30 1792 H 179.821 0.596094 -0.308079 0
M  V30 1793 H 182.365 1.43205 -1.45988 0
M  V30 1794 H 180.52 3.805 -0.727912 0
M  V30 1795 H 180.934 4.39579 -2.8613 0
M  V30 1796 H 182.408 5.33159 -1.42986 0
M  V30 1797 H 182.885 4.39196 -0.0176577 0
M  V30 1798 H 183.491 3.93036 -1.62489 0
M  V30 1799 N 181.806 0.884767 1.30421 0
M  V30 1800 C 183.054 0.502112 1.95763 0
M  V30 1801 C 183.375 -0.951815 1.70192 0
M  V30 1802 O 182.645 -1.6692 1.0254 0
M  V30 1803 H 181.225 0.182694 0.724315 0
M  V30 1804 H 183.887 1.1278 1.58955 0
M  V30 1805 H 182.983 0.672188 3.04775 0
M  V30 1806 N 183.284 -1.43765 0.645699 0
M  V30 1807 C 184.53 -2.02197 0.156271 0
M  V30 1808 C 184.863 -1.50776 -1.22393 0
M  V30 1809 O 184.138 -0.697771 -1.81553 0
M  V30 1810 C 184.421 -3.59749 0.158872 0
M  V30 1811 C 184.274 -4.21419 1.57245 0
M  V30 1812 C 185.593 -4.37149 -0.50879 0
M  V30 1813 H 182.712 -0.734694 0.0582602 0
M  V30 1814 H 185.354 -1.71157 0.824951 0
M  V30 1815 H 183.504 -3.86325 -0.410525 0
M  V30 1816 H 185.176 -4.059 2.19186 0
M  V30 1817 H 183.419 -3.78356 2.122 0
M  V30 1818 H 184.09 -5.30482 1.52619 0
M  V30 1819 H 186.566 -4.16093 -0.024412 0
M  V30 1820 H 185.442 -5.4683 -0.476213 0
M  V30 1821 H 185.703 -4.12839 -1.58165 0
M  V30 1822 N 184.763 -0.387143 -1.52771 0
M  V30 1823 C 185.993 0.195585 -2.05672 0
M  V30 1824 C 186.401 1.41241 -1.25887 0
M  V30 1825 O 185.744 1.81265 -0.298081 0
M  V30 1826 C 185.806 0.632327 -3.53895 0
M  V30 1827 C 185.47 -0.470739 -4.54569 0
M  V30 1828 C 186.467 -1.32746 -5.02667 0
M  V30 1829 C 184.152 -0.637151 -4.98243 0
M  V30 1830 C 186.146 -2.33574 -5.93061 0
M  V30 1831 C 183.833 -1.64877 -5.88438 0
M  V30 1832 C 184.831 -2.49649 -6.35739 0
M  V30 1833 O 184.519 -3.49082 -7.24153 0
M  V30 1834 H 184.251 0.033658 -0.675162 0
M  V30 1835 H 186.805 -0.550221 -1.97893 0
M  V30 1836 H 185.035 1.43008 -3.59285 0
M  V30 1837 H 186.724 1.14048 -3.89548 0
M  V30 1838 H 187.49 -1.21019 -4.69659 0
M  V30 1839 H 183.369 0.0129567 -4.60998 0
M  V30 1840 H 186.913 -2.99777 -6.29904 0
M  V30 1841 H 182.81 -1.76643 -6.2086 0
M  V30 1842 H 183.578 -3.45065 -7.42208 0
M  V30 1843 N 186.241 1.57166 -0.116904 0
M  V30 1844 C 187.489 1.94737 0.540533 0
M  V30 1845 C 187.81 1.00096 1.67349 0
M  V30 1846 O 187.08 0.0568854 1.95817 0
M  V30 1847 H 185.66 0.718981 0.202669 0
M  V30 1848 H 188.322 1.94017 -0.185353 0
M  V30 1849 H 187.418 2.97719 0.936483 0
M  V30 1850 N 187.719 -0.156864 1.56817 0
M  V30 1851 C 188.949 -0.885031 1.86684 0
M  V30 1852 C 189.357 -1.75696 0.701954 0
M  V30 1853 O 188.7 -1.80569 -0.337732 0
M  V30 1854 C 188.762 -1.80092 3.11138 0
M  V30 1855 C 188.426 -1.10714 4.43386 0
M  V30 1856 C 189.423 -0.465714 5.1781 0
M  V30 1857 C 187.108 -1.09959 4.90117 0
M  V30 1858 C 189.102 0.174002 6.37162 0
M  V30 1859 C 186.789 -0.456055 6.09396 0
M  V30 1860 C 187.787 0.179622 6.82764 0
M  V30 1861 O 187.475 0.812975 7.99779 0
M  V30 1862 H 187.207 -0.261813 0.623242 0
M  V30 1863 H 189.761 -0.157383 2.04796 0
M  V30 1864 H 187.991 -2.56926 2.89009 0
M  V30 1865 H 189.68 -2.40018 3.27332 0
M  V30 1866 H 190.446 -0.463427 4.82781 0
M  V30 1867 H 186.325 -1.58378 4.3294 0
M  V30 1868 H 189.869 0.670765 6.94368 0
M  V30 1869 H 185.766 -0.455975 6.43888 0
M  V30 1870 H 186.534 0.71366 8.15383 0
M  V30 1871 N 189.197 -1.51736 -0.425897 0
M  V30 1872 C 190.608 -1.5732 -1.00536 0
M  V30 1873 C 190.959 -0.403537 -1.92005 0
M  V30 1874 O 190.084 0.478256 -2.11049 0
M  V30 1875 C 190.679 -2.85119 -1.8301 0
M  V30 1876 C 189.238 -2.93236 -2.35987 0
M  V30 1877 C 188.385 -2.52098 -1.15508 0
M  V30 1878 H 191.336 -1.57348 -0.206739 0
M  V30 1879 H 191.357 -2.69526 -2.68581 0
M  V30 1880 H 190.869 -3.7023 -1.16411 0
M  V30 1881 H 188.97 -2.12581 -3.06007 0
M  V30 1882 H 189.083 -3.9713 -2.68001 0
M  V30 1883 H 187.447 -2.05558 -1.50393 0
M  V30 1884 H 188.23 -3.39565 -0.505014 0
M  V30 1885 N 190.675 0.682077 -1.42076 0
M  V30 1886 C 192.091 0.994324 -1.24841 0
M  V30 1887 C 192.291 2.0096 -0.147389 0
M  V30 1888 O 191.347 2.47822 0.483782 0
M  V30 1889 C 192.66 1.50607 -2.60265 0
M  V30 1890 C 194.208 1.62421 -2.6756 0
M  V30 1891 C 194.683 2.16994 -4.03333 0
M  V30 1892 N 196.174 2.24337 -4.0525 0
M  V30 1893 C 196.909 2.67621 -5.07116 0
M  V30 1894 N 196.405 3.1041 -6.19368 0
M  V30 1895 N 198.198 2.67305 -4.94474 0
M  V30 1896 H 190.349 0.00973908 -2.12398 0
M  V30 1897 H 192.612 0.0668593 -0.945639 0
M  V30 1898 H 192.318 0.834583 -3.41654 0
M  V30 1899 H 192.192 2.48602 -2.83684 0
M  V30 1900 H 194.579 2.28678 -1.86521 0
M  V30 1901 H 194.66 0.629352 -2.47937 0
M  V30 1902 H 194.304 1.51349 -4.84826 0
M  V30 1903 H 194.234 3.17258 -4.20304 0
M  V30 1904 H 196.725 1.94158 -3.24209 0
M  V30 1905 H 197.038 3.42103 -6.92954 0
M  V30 1906 H 195.383 3.08286 -6.22884 0
M  V30 1907 H 198.574 2.33233 -4.05857 0
M  V30 1908 H 198.747 3.00718 -5.73997 0
M  V30 1909 N 192.153 1.28127 0.917671 0
M  V30 1910 C 193.116 1.11744 2.00115 0
M  V30 1911 C 194.116 0.0583052 1.60694 0
M  V30 1912 O 195.306 0.303755 1.71531 0
M  V30 1913 C 192.438 0.704862 3.33533 0
M  V30 1914 H 193.631 2.07966 2.16079 0
M  V30 1915 H 191.184 1.11058 1.09981 0
M  V30 1916 H 191.919 -0.258299 3.2327 0
M  V30 1917 H 191.704 1.4699 3.63505 0
M  V30 1918 H 193.194 0.612768 4.1308 0
M  V30 1919 N 193.631 -1.12557 1.10312 0
M  V30 1920 C 194.594 -2.16434 0.75424 0
M  V30 1921 C 195.594 -1.59278 -0.220685 0
M  V30 1922 O 196.784 -1.742 0.00230591 0
M  V30 1923 C 193.916 -3.40699 0.116987 0
M  V30 1924 H 195.109 -2.48811 1.67431 0
M  V30 1925 H 192.662 -1.27542 0.903475 0
M  V30 1926 H 193.397 -3.13921 -0.813877 0
M  V30 1927 H 193.182 -3.83459 0.818613 0
M  V30 1928 H 194.672 -4.17451 -0.111387 0
M  V30 1929 N 195.109 -0.891671 -1.2995 0
M  V30 1930 C 196.072 -0.36828 -2.26222 0
M  V30 1931 C 197.072 0.493014 -1.53056 0
M  V30 1932 O 198.262 0.299213 -1.71611 0
M  V30 1933 C 195.394 0.47442 -3.37583 0
M  V30 1934 H 196.587 -1.21844 -2.74033 0
M  V30 1935 H 194.14 -0.669107 -1.41254 0
M  V30 1936 H 194.875 1.34489 -2.95099 0
M  V30 1937 H 194.66 -0.142615 -3.91841 0
M  V30 1938 H 196.15 0.83218 -4.09224 0
M  V30 1939 N 196.587 1.43421 -0.653314 0
M  V30 1940 C 197.55 2.29182 0.0287951 0
M  V30 1941 C 198.55 1.42213 0.750465 0
M  V30 1942 O 199.74 1.63843 0.591701 0
M  V30 1943 C 196.872 3.24278 1.05151 0
M  V30 1944 H 198.065 2.90985 -0.725786 0
M  V30 1945 H 195.618 1.50702 -0.414545 0
M  V30 1946 H 196.353 2.6737 1.83532 0
M  V30 1947 H 196.138 3.88396 0.537687 0
M  V30 1948 H 197.628 3.88647 1.52786 0
M  V30 1949 N 198.065 0.39524 1.52563 0
M  V30 1950 C 198.975 -0.444232 2.30356 0
M  V30 1951 C 199.991 -1.06615 1.37511 0
M  V30 1952 O 201.167 -1.07067 1.70583 0
M  V30 1953 C 198.232 -1.55315 3.09964 0
M  V30 1954 C 197.293 -0.955734 4.18526 0
M  V30 1955 C 196.526 -2.01181 4.9433 0
M  V30 1956 O 196.749 -3.22781 4.70285 0
M  V30 1957 O 195.683 -1.62579 5.79527 0
M  V30 1958 H 199.509 0.189667 3.03107 0
M  V30 1959 H 197.094 0.1588 1.48554 0
M  V30 1960 H 198.976 -2.19724 3.59582 0
M  V30 1961 H 197.651 -2.17191 2.4002 0
M  V30 1962 H 196.558 -0.274743 3.7309 0
M  V30 1963 H 197.891 -0.381109 4.90722 0
M  V30 1964 N 199.544 -1.57102 0.125237 0
M  V30 1965 C 200.793 -1.94582 -0.531095 0
M  V30 1966 C 201.106 -1.01126 -1.6743 0
M  V30 1967 O 202.312 -1.28097 -2.39381 0
M  V30 1968 C 200.768 -3.45839 -0.996164 0
M  V30 1969 C 200.376 -4.47842 0.118926 0
M  V30 1970 C 202.12 -3.92227 -1.62352 0
M  V30 1971 C 200.027 -5.90284 -0.363192 0
M  V30 1972 H 198.957 -0.726391 -0.20217 0
M  V30 1973 H 201.608 -1.82339 0.206092 0
M  V30 1974 H 199.99 -3.53338 -1.78796 0
M  V30 1975 H 201.164 -4.52018 0.895358 0
M  V30 1976 H 199.479 -4.11243 0.653324 0
M  V30 1977 H 202.076 -4.96069 -1.99548 0
M  V30 1978 H 202.419 -3.32552 -2.50429 0
M  V30 1979 H 202.952 -3.87554 -0.897019 0
M  V30 1980 H 199.691 -6.53728 0.481679 0
M  V30 1981 H 199.211 -5.89515 -1.10597 0
M  V30 1982 H 200.89 -6.41752 -0.822377 0
M  V30 1983 N 201.022 0.148545 -1.56898 0
M  V30 1984 C 201.985 1.16736 -1.97244 0
M  V30 1985 C 202.985 1.35947 -0.858777 0
M  V30 1986 O 204.175 1.32966 -1.12542 0
M  V30 1987 C 201.307 2.52798 -2.28705 0
M  V30 1988 H 202.5 0.821279 -2.88435 0
M  V30 1989 H 200.053 0.391831 -1.51309 0
M  V30 1990 H 200.788 2.92381 -1.403 0
M  V30 1991 H 200.573 2.40216 -3.09901 0
M  V30 1992 H 202.063 3.26179 -2.60762 0
M  V30 1993 N 202.5 1.5196 0.417844 0
M  V30 1994 C 203.746 1.65836 1.16732 0
M  V30 1995 C 204.079 0.382881 1.90388 0
M  V30 1996 O 203.354 -0.618368 1.84408 0
M  V30 1997 C 203.637 2.87466 2.16876 0
M  V30 1998 C 203.49 4.25041 1.47174 0
M  V30 1999 C 204.809 3.04613 3.17646 0
M  V30 2000 H 201.928 0.603515 0.423011 0
M  V30 2001 H 204.57 1.84494 0.454105 0
M  V30 2002 H 202.72 2.71689 2.777 0
M  V30 2003 H 204.392 4.52527 0.895376 0
M  V30 2004 H 202.635 4.26843 0.773806 0
M  V30 2005 H 203.306 5.06176 2.20204 0
M  V30 2006 H 205.782 3.1923 2.66892 0
M  V30 2007 H 204.658 3.91247 3.8499 0
M  V30 2008 H 204.919 2.17541 3.84874 0
M  V30 2009 N 203.978 -0.674533 1.42435 0
M  V30 2010 C 204.925 -1.78807 1.45934 0
M  V30 2011 C 205.895 -1.63157 0.311271 0
M  V30 2012 O 207.08 -1.83707 0.515383 0
M  V30 2013 C 204.22 -3.16839 1.36773 0
M  V30 2014 C 203.333 -3.43774 2.61617 0
M  V30 2015 C 202.468 -4.71536 2.44597 0
M  V30 2016 C 201.507 -4.91505 3.64814 0
M  V30 2017 N 200.644 -6.10508 3.46734 0
M  V30 2018 H 205.484 -1.75151 2.41093 0
M  V30 2019 H 203.021 -0.85504 1.19697 0
M  V30 2020 H 204.979 -3.96606 1.29459 0
M  V30 2021 H 203.609 -3.19619 0.452089 0
M  V30 2022 H 202.661 -2.58259 2.79297 0
M  V30 2023 H 203.973 -3.54423 3.50978 0
M  V30 2024 H 203.127 -5.59393 2.3487 0
M  V30 2025 H 201.866 -4.6317 1.52726 0
M  V30 2026 H 200.871 -4.0209 3.74972 0
M  V30 2027 H 202.096 -5.01716 4.57665 0
M  V30 2028 H 200.042 -6.03315 2.5758 0
M  V30 2029 H 199.959 -6.2202 4.29682 0
M  V30 2030 H 201.227 -7.01044 3.40819 0
M  V30 2031 N 205.456 -1.28612 -0.910864 0
M  V30 2032 C 206.684 -1.18792 -1.69399 0
M  V30 2033 C 207.099 0.253039 -1.87097 0
M  V30 2034 O 206.456 1.17071 -1.40003 0
M  V30 2035 C 206.507 -1.88511 -3.08457 0
M  V30 2036 O 206.228 -3.26979 -2.91576 0
M  V30 2037 C 207.729 -1.85029 -4.02839 0
M  V30 2038 H 204.949 -0.412233 -0.529438 0
M  V30 2039 H 207.493 -1.69788 -1.13984 0
M  V30 2040 H 205.648 -1.41379 -3.60681 0
M  V30 2041 H 206.062 -3.61936 -3.79608 0
M  V30 2042 H 207.536 -2.38395 -4.97867 0
M  V30 2043 H 208.013 -0.823303 -4.31414 0
M  V30 2044 H 208.619 -2.31853 -3.56545 0
M  V30 2045 N 206.934 1.1197 -1.10907 0
M  V30 2046 C 208.18 1.8386 -0.855773 0
M  V30 2047 C 208.513 1.84134 0.617103 0
M  V30 2048 O 207.788 1.29041 1.45529 0
M  V30 2049 C 208.071 3.31305 -1.411 0
M  V30 2050 C 207.924 3.39456 -2.9511 0
M  V30 2051 C 209.243 4.2721 -1.05736 0
M  V30 2052 H 206.362 0.667545 -0.312334 0
M  V30 2053 H 209.004 1.31331 -1.37303 0
M  V30 2054 H 207.154 3.76169 -0.97105 0
M  V30 2055 H 208.826 3.03191 -3.47668 0
M  V30 2056 H 207.069 2.79849 -3.31462 0
M  V30 2057 H 207.74 4.43209 -3.29044 0
M  V30 2058 H 210.216 3.90497 -1.43706 0
M  V30 2059 H 209.092 5.28775 -1.47269 0
M  V30 2060 H 209.353 4.42088 0.0325958 0
M  V30 2061 N 208.412 0.89855 1.29475 0
M  V30 2062 C 209.637 0.538561 2.00285 0
M  V30 2063 C 210.062 -0.869135 1.66816 0
M  V30 2064 O 209.42 -1.57831 0.892145 0
M  V30 2065 C 209.468 0.736475 3.52999 0
M  V30 2066 O 208.572 -0.211537 4.11857 0
M  V30 2067 H 207.913 0.210563 0.62973 0
M  V30 2068 H 210.443 1.20982 1.64998 0
M  V30 2069 H 210.453 0.640685 4.02938 0
M  V30 2070 H 209.128 1.76276 3.76696 0
M  V30 2071 H 207.705 -0.0682991 3.72837 0
M  V30 2072 N 209.89 -1.43072 0.660911 0
M  V30 2073 C 210.8 -2.34585 -0.0264163 0
M  V30 2074 C 211.816 -1.54316 -0.803898 0
M  V30 2075 O 212.992 -1.86939 -0.749391 0
M  V30 2076 C 210.057 -3.32689 -0.975639 0
M  V30 2077 C 209.118 -4.2886 -0.194236 0
M  V30 2078 C 208.351 -5.22278 -1.09825 0
M  V30 2079 O 208.574 -5.20299 -2.33763 0
M  V30 2080 O 207.508 -5.99228 -0.566513 0
M  V30 2081 H 211.334 -2.94869 0.727034 0
M  V30 2082 H 208.919 -1.43342 0.42111 0
M  V30 2083 H 210.801 -3.92995 -1.52094 0
M  V30 2084 H 209.476 -2.74898 -1.70918 0
M  V30 2085 H 208.383 -3.72011 0.394835 0
M  V30 2086 H 209.716 -4.89655 0.499899 0
M  V30 2087 N 211.368 -0.403325 -1.52352 0
M  V30 2088 C 212.615 0.174347 -2.01748 0
M  V30 2089 C 212.943 1.45636 -1.2892 0
M  V30 2090 O 212.198 1.9193 -0.382258 0
M  V30 2091 C 212.497 0.474665 -3.54234 0
M  V30 2092 C 212.163 -0.717458 -4.45155 0
M  V30 2093 C 210.825 -1.04447 -4.69728 0
M  V30 2094 C 213.177 -1.51432 -4.98716 0
M  V30 2095 C 210.505 -2.16963 -5.45109 0
M  V30 2096 C 212.857 -2.6302 -5.75329 0
M  V30 2097 C 211.521 -2.96213 -5.98175 0
M  V30 2098 H 210.791 0.0637981 -0.738248 0
M  V30 2099 H 213.438 -0.543553 -1.83624 0
M  V30 2100 H 211.743 1.27406 -3.70506 0
M  V30 2101 H 213.44 0.934496 -3.89959 0
M  V30 2102 H 210.03 -0.452596 -4.26204 0
M  V30 2103 H 214.214 -1.27491 -4.79645 0
M  V30 2104 H 209.47 -2.43034 -5.61021 0
M  V30 2105 H 213.644 -3.25158 -6.15829 0
M  V30 2106 H 211.271 -3.83516 -6.56368 0
M  V30 2107 N 212.846 1.57033 -0.133567 0
M  V30 2108 C 214.095 1.94861 0.520768 0
M  V30 2109 C 214.408 1.02012 1.66892 0
M  V30 2110 O 215.614 1.29365 2.38699 0
M  V30 2111 C 214.07 3.46362 0.977809 0
M  V30 2112 C 213.678 4.47773 -0.142674 0
M  V30 2113 C 215.422 3.93083 1.60269 0
M  V30 2114 C 213.329 5.90468 0.331883 0
M  V30 2115 H 212.259 0.727453 0.198315 0
M  V30 2116 H 214.91 1.82227 -0.215759 0
M  V30 2117 H 213.292 3.54282 1.7692 0
M  V30 2118 H 214.466 4.51536 -0.919317 0
M  V30 2119 H 212.781 4.10891 -0.675124 0
M  V30 2120 H 215.378 4.97121 1.96914 0
M  V30 2121 H 215.721 3.33876 2.48662 0
M  V30 2122 H 216.254 3.88025 0.876453 0
M  V30 2123 H 212.993 6.53463 -0.516341 0
M  V30 2124 H 212.513 5.90094 1.07469 0
M  V30 2125 H 214.192 6.42179 0.788332 0
M  V30 2126 N 214.325 -0.140222 1.56975 0
M  V30 2127 C 215.553 -0.866437 1.87884 0
M  V30 2128 C 215.968 -1.74428 0.722517 0
M  V30 2129 O 215.325 -1.79891 -0.30749 0
M  V30 2130 C 215.376 -1.71753 3.18093 0
M  V30 2131 O 215.097 -0.875056 4.29272 0
M  V30 2132 C 216.598 -2.55074 3.62563 0
M  V30 2133 H 213.818 -0.25019 0.622612 0
M  V30 2134 H 216.362 -0.130977 2.0408 0
M  V30 2135 H 214.517 -2.40598 3.03631 0
M  V30 2136 H 214.931 -1.46002 5.03769 0
M  V30 2137 H 216.405 -3.10356 4.5649 0
M  V30 2138 H 216.882 -3.31434 2.88181 0
M  V30 2139 H 217.488 -1.91509 3.79743 0
M  V30 2140 N 215.803 -1.52179 -0.40978 0
M  V30 2141 C 217.219 -1.40968 -0.74835 0
M  V30 2142 C 217.419 -0.513657 -1.94843 0
M  V30 2143 O 216.475 0.0208026 -2.52491 0
M  V30 2144 C 217.788 -2.83483 -1.0029 0
M  V30 2145 C 219.336 -2.92821 -1.10565 0
M  V30 2146 C 219.811 -4.36303 -1.39296 0
M  V30 2147 N 221.302 -4.39535 -1.46162 0
M  V30 2148 C 222.037 -5.47614 -1.70018 0
M  V30 2149 N 221.533 -6.65812 -1.91483 0
M  V30 2150 N 223.326 -5.35129 -1.72027 0
M  V30 2151 H 215.477 -2.0897 0.380186 0
M  V30 2152 H 217.74 -0.94185 0.107805 0
M  V30 2153 H 217.446 -3.51168 -0.193461 0
M  V30 2154 H 217.32 -3.24487 -1.92323 0
M  V30 2155 H 219.707 -2.25318 -1.90568 0
M  V30 2156 H 219.788 -2.55276 -0.16369 0
M  V30 2157 H 219.432 -5.04366 -0.598109 0
M  V30 2158 H 219.362 -4.71385 -2.34743 0
M  V30 2159 H 221.853 -3.54332 -1.31367 0
M  V30 2160 H 222.166 -7.43964 -2.09134 0
M  V30 2161 H 220.511 -6.68879 -1.88749 0
M  V30 2162 H 223.702 -4.41764 -1.54796 0
M  V30 2163 H 223.875 -6.19433 -1.9028 0
M  V30 2164 N 217.281 0.66697 -1.42791 0
M  V30 2165 C 218.231 1.77313 -1.43332 0
M  V30 2166 C 219.215 1.5801 -0.303586 0
M  V30 2167 O 220.407 1.68356 -0.546385 0
M  V30 2168 C 217.536 3.15822 -1.34578 0
M  V30 2169 C 216.622 3.40721 -2.52528 0
M  V30 2170 N 217.013 3.36162 -3.77927 0
M  V30 2171 C 215.311 3.71387 -2.46956 0
M  V30 2172 C 216.012 3.60762 -4.56318 0
M  V30 2173 N 214.988 3.81908 -3.86843 0
M  V30 2174 H 218.79 1.72193 -2.38174 0
M  V30 2175 H 216.304 0.868114 -1.3725 0
M  V30 2176 H 218.301 3.951 -1.33048 0
M  V30 2177 H 216.961 3.22133 -0.407453 0
M  V30 2178 H 217.972 3.15885 -4.10411 0
M  V30 2179 H 214.649 3.84897 -1.61743 0
M  V30 2180 H 216.039 3.63132 -5.65318 0
M  V30 2181 N 218.759 1.29093 0.90403 0
M  V30 2182 C 219.722 1.1386 1.98919 0
M  V30 2183 C 220.722 0.0753457 1.60623 0
M  V30 2184 O 221.912 0.321931 1.71199 0
M  V30 2185 C 219.044 0.740198 3.32767 0
M  V30 2186 H 220.237 2.10246 2.13861 0
M  V30 2187 H 217.79 1.12218 1.08797 0
M  V30 2188 H 218.525 -0.223997 3.23525 0
M  V30 2189 H 218.31 1.50838 3.61926 0
M  V30 2190 H 219.8 0.656546 4.12407 0
M  V30 2191 N 220.237 -1.11381 1.11499 0
M  V30 2192 C 221.167 -2.19509 0.796125 0
M  V30 2193 C 222.148 -1.68458 -0.235796 0
M  V30 2194 O 223.333 -1.93947 -0.0991344 0
M  V30 2195 C 220.463 -3.46475 0.239205 0
M  V30 2196 C 219.417 -4.10744 1.20307 0
M  V30 2197 C 218.743 -5.32293 0.50683 0
M  V30 2198 C 220.043 -4.55597 2.55399 0
M  V30 2199 H 221.737 -2.46439 1.70024 0
M  V30 2200 H 219.283 -1.18446 0.818935 0
M  V30 2201 H 221.236 -4.214 0.00392006 0
M  V30 2202 H 219.96 -3.19006 -0.700206 0
M  V30 2203 H 218.619 -3.37813 1.42399 0
M  V30 2204 H 218.267 -5.01095 -0.437408 0
M  V30 2205 H 217.967 -5.76243 1.1497 0
M  V30 2206 H 219.491 -6.09956 0.280351 0
M  V30 2207 H 220.905 -5.21841 2.37391 0
M  V30 2208 H 219.302 -5.10363 3.15673 0
M  V30 2209 H 220.372 -3.69013 3.14575 0
M  V30 2210 N 221.715 -0.905404 -1.28997 0
M  V30 2211 C 223.126 -0.581953 -1.77398 0
M  V30 2212 C 223.477 0.902552 -1.74208 0
M  V30 2213 O 222.602 1.70584 -1.33154 0
M  V30 2214 C 223.197 -1.04961 -3.22131 0
M  V30 2215 C 221.756 -0.777229 -3.68288 0
M  V30 2216 C 220.903 -1.22109 -2.48967 0
M  V30 2217 H 223.854 -1.08754 -1.15578 0
M  V30 2218 H 223.875 -0.387387 -3.78523 0
M  V30 2219 H 223.387 -2.13008 -3.24421 0
M  V30 2220 H 221.488 0.290383 -3.71467 0
M  V30 2221 H 221.601 -1.37911 -4.58822 0
M  V30 2222 H 219.965 -0.639971 -2.46529 0
M  V30 2223 H 220.748 -2.30972 -2.53982 0
M  V30 2224 N 223.193 1.4272 -0.668489 0
M  V30 2225 C 224.103 2.34596 0.0139753 0
M  V30 2226 C 225.119 1.5474 0.795703 0
M  V30 2227 O 226.295 1.87334 0.739466 0
M  V30 2228 C 223.36 3.33202 0.957982 0
M  V30 2229 C 222.421 4.28957 0.17149 0
M  V30 2230 C 221.654 5.22853 1.07053 0
M  V30 2231 O 221.877 5.21531 2.31001 0
M  V30 2232 O 220.811 5.9952 0.534727 0
M  V30 2233 H 224.637 2.9448 -0.742661 0
M  V30 2234 H 222.222 1.43117 -0.428705 0
M  V30 2235 H 224.104 3.93796 1.50008 0
M  V30 2236 H 222.779 2.758 1.69458 0
M  V30 2237 H 221.686 3.71796 -0.414558 0
M  V30 2238 H 223.019 4.89383 -0.52586 0
M  V30 2239 N 224.671 0.411399 1.52136 0
M  V30 2240 C 225.603 -0.448386 2.24771 0
M  V30 2241 C 226.616 -1.00828 1.27818 0
M  V30 2242 O 227.805 -0.906841 1.53749 0
M  V30 2243 C 224.905 -1.63636 2.96777 0
M  V30 2244 C 224.078 -1.19995 4.20618 0
M  V30 2245 C 223.137 -2.25509 4.75428 0
M  V30 2246 O 222.163 -1.86007 5.3795 0
M  V30 2247 N 223.365 -3.577 4.57199 0
M  V30 2248 H 226.13 0.174025 2.99194 0
M  V30 2249 H 223.691 0.238897 1.60128 0
M  V30 2250 H 225.683 -2.33793 3.30338 0
M  V30 2251 H 224.253 -2.16465 2.25526 0
M  V30 2252 H 223.473 -0.326421 3.92846 0
M  V30 2253 H 224.761 -0.885365 5.01038 0
M  V30 2254 H 224.159 -3.92543 4.07341 0
M  V30 2255 H 222.716 -4.23827 4.95191 0
M  V30 2256 N 226.149 -1.5696 0.141893 0
M  V30 2257 C 227.395 -1.9625 -0.511248 0
M  V30 2258 C 227.728 -1.02654 -1.64851 0
M  V30 2259 O 227.003 -0.0679676 -1.94381 0
M  V30 2260 C 227.286 -3.45285 -1.02227 0
M  V30 2261 C 227.139 -4.49658 0.113138 0
M  V30 2262 C 228.458 -3.96698 -1.90574 0
M  V30 2263 H 225.577 -0.713567 -0.184367 0
M  V30 2264 H 228.219 -1.88698 0.222087 0
M  V30 2265 H 226.369 -3.51852 -1.64719 0
M  V30 2266 H 228.041 -4.55174 0.749302 0
M  V30 2267 H 226.284 -4.26857 0.773026 0
M  V30 2268 H 226.955 -5.51258 -0.286053 0
M  V30 2269 H 229.431 -3.92578 -1.37918 0
M  V30 2270 H 228.307 -5.01453 -2.2324 0
M  V30 2271 H 228.568 -3.3875 -2.84079 0
M  V30 2272 N 227.627 0.131896 -1.57047 0
M  V30 2273 C 228.857 0.855219 -1.88068 0
M  V30 2274 C 229.265 1.74557 -0.729817 0
M  V30 2275 O 228.608 1.81083 0.308962 0
M  V30 2276 C 228.67 1.75119 -3.13964 0
M  V30 2277 C 228.334 1.03646 -4.45091 0
M  V30 2278 C 229.331 0.383276 -5.18485 0
M  V30 2279 C 227.016 1.02148 -4.91804 0
M  V30 2280 C 229.01 -0.275347 -6.36805 0
M  V30 2281 C 226.697 0.359047 -6.10044 0
M  V30 2282 C 227.695 -0.288222 -6.82392 0
M  V30 2283 O 227.383 -0.94011 -7.98384 0
M  V30 2284 H 227.115 0.251864 -0.627328 0
M  V30 2285 H 229.669 0.124782 -2.05021 0
M  V30 2286 H 227.899 2.52295 -2.9306 0
M  V30 2287 H 229.588 2.3478 -3.31109 0
M  V30 2288 H 230.354 0.386562 -4.83457 0
M  V30 2289 H 226.233 1.5147 -4.35405 0
M  V30 2290 H 229.777 -0.781148 -6.93213 0
M  V30 2291 H 225.674 0.35348 -6.44531 0
M  V30 2292 H 226.442 -0.84329 -8.14144 0
M  V30 2293 N 229.106 1.52395 0.401703 0
M  V30 2294 C 230.353 1.66817 1.14796 0
M  V30 2295 C 230.681 0.401772 1.90305 0
M  V30 2296 O 229.936 -0.615487 1.85769 0
M  V30 2297 C 230.235 2.84578 2.16217 0
M  V30 2298 C 229.901 4.22513 1.5746 0
M  V30 2299 C 228.563 4.60029 1.41161 0
M  V30 2300 C 230.915 5.0844 1.14622 0
M  V30 2301 C 228.243 5.81144 0.80552 0
M  V30 2302 C 230.595 6.30167 0.55428 0
M  V30 2303 C 229.259 6.66426 0.378482 0
M  V30 2304 H 228.529 0.610428 0.420069 0
M  V30 2305 H 231.176 1.86512 0.434212 0
M  V30 2306 H 229.481 2.59248 2.93764 0
M  V30 2307 H 231.178 2.92933 2.73845 0
M  V30 2308 H 227.768 3.92953 1.71132 0
M  V30 2309 H 231.952 4.80034 1.26021 0
M  V30 2310 H 227.208 6.07855 0.657399 0
M  V30 2311 H 231.382 6.96071 0.213983 0
M  V30 2312 H 229.009 7.60143 -0.0932606 0
M  V30 2313 N 230.584 -0.659388 1.43143 0
M  V30 2314 C 231.83 -1.42145 1.44647 0
M  V30 2315 C 232.163 -1.9408 0.0681907 0
M  V30 2316 O 231.438 -1.71899 -0.910007 0
M  V30 2317 C 231.721 -2.60735 2.48373 0
M  V30 2318 C 231.574 -2.14332 3.95451 0
M  V30 2319 C 232.893 -3.62951 2.48906 0
M  V30 2320 H 230.012 -0.51552 0.526696 0
M  V30 2321 H 232.654 -0.748069 1.74654 0
M  V30 2322 H 230.804 -3.18184 2.22916 0
M  V30 2323 H 232.476 -1.61932 4.31944 0
M  V30 2324 H 230.719 -1.4576 4.08578 0
M  V30 2325 H 231.39 -2.99583 4.63631 0
M  V30 2326 H 233.866 -3.1525 2.71582 0
M  V30 2327 H 232.742 -4.43487 3.23435 0
M  V30 2328 H 233.003 -4.15126 1.52061 0
M  V30 2329 N 232.062 -1.29571 -0.897171 0
M  V30 2330 C 233.302 -1.18959 -1.66217 0
M  V30 2331 C 233.666 0.254271 -1.90309 0
M  V30 2332 O 234.867 0.483407 -2.64417 0
M  V30 2333 C 233.138 -1.98302 -2.9734 0
M  V30 2334 S 234.697 -2.04253 -3.88364 0
M  V30 2335 H 231.515 -0.424137 -0.570639 0
M  V30 2336 H 234.117 -1.6389 -1.06585 0
M  V30 2337 H 232.821 -3.02342 -2.77521 0
M  V30 2338 H 232.352 -1.53986 -3.62011 0
M  V30 2339 H 234.367 -1.16105 -4.82425 0
M  V30 2340 N 233.54 1.10788 -1.12088 0
M  V30 2341 C 234.77 1.86191 -0.895351 0
M  V30 2342 C 235.178 1.80763 0.558702 0
M  V30 2343 O 234.521 1.19188 1.39785 0
M  V30 2344 C 234.583 3.35659 -1.28737 0
M  V30 2345 C 234.247 3.64849 -2.75198 0
M  V30 2346 C 235.244 3.61757 -3.734 0
M  V30 2347 C 232.929 3.93641 -3.12013 0
M  V30 2348 C 234.923 3.87045 -5.06434 0
M  V30 2349 C 232.61 4.18585 -4.4523 0
M  V30 2350 C 233.608 4.15277 -5.42249 0
M  V30 2351 O 233.296 4.3959 -6.73065 0
M  V30 2352 H 233.028 0.595425 -0.32007 0
M  V30 2353 H 235.582 1.40992 -1.49367 0
M  V30 2354 H 233.812 3.81497 -0.63224 0
M  V30 2355 H 235.501 3.92441 -1.03656 0
M  V30 2356 H 236.267 3.39557 -3.46303 0
M  V30 2357 H 232.146 3.95348 -2.37109 0
M  V30 2358 H 235.69 3.84378 -5.82151 0
M  V30 2359 H 231.587 4.40264 -4.72057 0
M  V30 2360 H 232.355 4.57123 -6.78956 0
M  V30 2361 N 235.018 0.912232 1.28515 0
M  V30 2362 C 236.295 0.463597 1.90027 0
M  V30 2363 C 236.675 -1.05753 1.82701 0
M  V30 2364 O 236.023 -1.90492 1.26194 0
M  V30 2365 C 236.233 0.992253 3.34597 0
M  V30 2366 C 237.581 1.04344 4.11579 0
M  V30 2367 O 238.605 0.94079 3.43551 0
M  V30 2368 O 237.464 1.1995 5.33174 0
M  V30 2369 H 234.558 0.146666 0.813891 0
M  V30 2370 H 237.104 1.00292 1.36893 0
M  V30 2371 H 235.876 2.03623 3.34146 0
M  V30 2372 H 235.499 0.433672 3.95228 0
M  V30 2373 N 236.496 -1.42363 0.676048 0
M  V30 2374 C 237.406 -2.346 -0.00153389 0
M  V30 2375 C 238.422 -1.5516 -0.787485 0
M  V30 2376 O 239.598 -1.87723 -0.729521 0
M  V30 2377 C 236.663 -3.33705 -0.940298 0
M  V30 2378 C 235.724 -4.29042 -0.148739 0
M  V30 2379 C 234.957 -5.23413 -1.04279 0
M  V30 2380 O 235.18 -5.22749 -2.28232 0
M  V30 2381 O 234.114 -5.99795 -0.502925 0
M  V30 2382 H 237.94 -2.94082 0.758268 0
M  V30 2383 H 235.525 -1.42888 0.436289 0
M  V30 2384 H 237.407 -3.94586 -1.47917 0
M  V30 2385 H 236.082 -2.76695 -1.67993 0
M  V30 2386 H 234.989 -3.71571 0.43427 0
M  V30 2387 H 236.322 -4.89097 0.551805 0
M  V30 2388 N 237.974 -0.419461 -1.51915 0
M  V30 2389 C 238.884 0.407528 -2.31033 0
M  V30 2390 C 239.9 1.04413 -1.3919 0
M  V30 2391 O 241.076 1.0434 -1.72265 0
M  V30 2392 C 238.141 1.50365 -3.12396 0
M  V30 2393 C 237.202 0.889029 -4.19994 0
M  V30 2394 C 236.435 1.93291 -4.97468 0
M  V30 2395 O 236.658 3.15259 -4.75361 0
M  V30 2396 O 235.592 1.53339 -5.8204 0
M  V30 2397 H 239.418 -0.237865 -3.02767 0
M  V30 2398 H 237.003 -0.182413 -1.48282 0
M  V30 2399 H 238.885 2.13975 -3.63032 0
M  V30 2400 H 237.56 2.13345 -2.43445 0
M  V30 2401 H 236.467 0.215353 -3.7348 0
M  V30 2402 H 237.8 0.302991 -4.91267 0
M  V30 2403 N 239.452 1.56882 -0.150215 0
M  V30 2404 C 240.4 2.18214 0.805313 0
M  V30 2405 C 241.394 1.14006 1.25296 0
M  V30 2406 O 242.6 1.3225 1.22107 0
M  V30 2407 H 238.975 0.698762 0.277913 0
M  V30 2408 H 240.946 2.97231 0.263862 0
M  V30 2409 C 239.695 2.82065 2.03309 0
M  V30 2410 H 239.018 3.61968 1.69763 0
M  V30 2411 H 240.458 3.28477 2.68103 0
M  V30 2412 C 238.917 1.80739 2.84315 0
M  V30 2413 O 239.447 1.27983 3.80767 0
M  V30 2414 N 237.653 1.4997 2.48913 0
M  V30 2415 H 237.2 1.93062 1.70542 0
M  V30 2416 H 237.158 0.824217 3.03404 0
M  V30 2417 N 240.93 -0.123565 1.57115 0
M  V30 2418 C 241.893 -1.13583 1.99076 0
M  V30 2419 C 242.893 -1.34564 0.880296 0
M  V30 2420 O 244.083 -1.31158 1.14644 0
M  V30 2421 C 241.215 -2.49128 2.32698 0
M  V30 2422 H 242.408 -0.775287 2.89706 0
M  V30 2423 H 239.961 -0.36771 1.51913 0
M  V30 2424 H 240.696 -2.90111 1.44934 0
M  V30 2425 H 240.481 -2.35255 3.13684 0
M  V30 2426 H 241.971 -3.2199 2.65918 0
M  V30 2427 N 242.408 -1.52605 -0.393616 0
M  V30 2428 C 243.358 -1.73436 -1.48 0
M  V30 2429 C 244.342 -0.588386 -1.49756 0
M  V30 2430 O 245.534 -0.846047 -1.5547 0
M  V30 2431 C 242.663 -1.90247 -2.85764 0
M  V30 2432 C 241.749 -3.10763 -2.88595 0
M  V30 2433 N 242.14 -4.33196 -2.61103 0
M  V30 2434 C 240.438 -3.10914 -3.19763 0
M  V30 2435 C 241.139 -5.1477 -2.70899 0
M  V30 2436 N 240.115 -4.50356 -3.04435 0
M  V30 2437 H 243.917 -2.65727 -1.25563 0
M  V30 2438 H 241.431 -1.5085 -0.601513 0
M  V30 2439 H 243.428 -2.03291 -3.63976 0
M  V30 2440 H 242.088 -0.991663 -3.09186 0
M  V30 2441 H 243.099 -4.61408 -2.35209 0
M  V30 2442 H 239.776 -2.29626 -3.4868 0
M  V30 2443 H 241.166 -6.22355 -2.53227 0
M  V30 2444 N 243.887 0.651787 -1.4349 0
M  V30 2445 C 244.817 1.77621 -1.51569 0
M  V30 2446 C 245.798 1.66022 -0.370253 0
M  V30 2447 O 246.983 1.85095 -0.587658 0
M  V30 2448 C 244.113 3.16056 -1.43966 0
M  V30 2449 C 243.067 3.4242 -2.56774 0
M  V30 2450 C 242.393 4.8067 -2.34223 0
M  V30 2451 C 243.693 3.37023 -3.99015 0
M  V30 2452 H 245.387 1.71117 -2.45681 0
M  V30 2453 H 242.933 0.821825 -1.18246 0
M  V30 2454 H 244.886 3.94472 -1.48221 0
M  V30 2455 H 243.61 3.23293 -0.463586 0
M  V30 2456 H 242.269 2.66375 -2.51873 0
M  V30 2457 H 241.917 4.84585 -1.34856 0
M  V30 2458 H 241.617 4.9927 -3.09844 0
M  V30 2459 H 243.141 5.61342 -2.40265 0
M  V30 2460 H 244.555 4.05374 -4.05395 0
M  V30 2461 H 242.952 3.67159 -4.74673 0
M  V30 2462 H 244.022 2.3518 -4.2405 0
M  V30 2463 N 245.365 1.30045 0.890287 0
M  V30 2464 C 246.595 1.21296 1.67245 0
M  V30 2465 C 247.003 -0.227471 1.87828 0
M  V30 2466 O 246.346 -1.16296 1.422 0
M  V30 2467 C 246.408 1.86519 3.07329 0
M  V30 2468 C 246.072 3.35837 3.09939 0
M  V30 2469 C 247.069 4.31915 2.89389 0
M  V30 2470 C 244.754 3.77196 3.31706 0
M  V30 2471 C 246.748 5.67325 2.90552 0
M  V30 2472 C 244.435 5.12725 3.32499 0
M  V30 2473 C 245.433 6.076 3.11947 0
M  V30 2474 O 245.121 7.40655 3.12547 0
M  V30 2475 H 244.853 0.4211 0.528821 0
M  V30 2476 H 247.407 1.72111 1.12103 0
M  V30 2477 H 245.637 1.30228 3.64112 0
M  V30 2478 H 247.326 1.71963 3.67673 0
M  V30 2479 H 248.092 4.01294 2.72375 0
M  V30 2480 H 243.971 3.03796 3.4674 0
M  V30 2481 H 247.515 6.41354 2.74429 0
M  V30 2482 H 243.412 5.42988 3.49047 0
M  V30 2483 H 244.18 7.49577 3.28749 0
M  V30 2484 N 246.843 -1.10192 1.12674 0
M  V30 2485 C 247.753 -2.20172 0.810026 0
M  V30 2486 C 248.769 -1.72821 -0.202188 0
M  V30 2487 O 249.945 -2.01369 -0.0351691 0
M  V30 2488 C 247.01 -3.45631 0.272007 0
M  V30 2489 C 246.071 -4.07704 1.34447 0
M  V30 2490 C 245.304 -5.27175 0.832029 0
M  V30 2491 O 245.527 -5.69425 -0.333284 0
M  V30 2492 O 244.461 -5.80168 1.60277 0
M  V30 2493 H 248.287 -2.49701 1.72867 0
M  V30 2494 H 245.872 -1.18977 0.903597 0
M  V30 2495 H 247.754 -4.21394 -0.0230219 0
M  V30 2496 H 246.429 -3.17723 -0.619164 0
M  V30 2497 H 245.336 -3.33614 1.6927 0
M  V30 2498 H 246.669 -4.3982 2.2095 0
M  V30 2499 N 248.321 -0.919034 -1.28029 0
M  V30 2500 C 249.737 -0.617972 -1.4715 0
M  V30 2501 C 249.937 0.835242 -1.83374 0
M  V30 2502 O 248.993 1.61388 -1.94191 0
M  V30 2503 C 250.306 -1.56041 -2.57044 0
M  V30 2504 C 251.854 -1.56769 -2.7091 0
M  V30 2505 C 252.329 -2.49688 -3.83953 0
M  V30 2506 N 253.82 -2.47845 -3.91314 0
M  V30 2507 C 254.555 -3.16437 -4.78179 0
M  V30 2508 N 254.051 -3.94376 -5.69596 0
M  V30 2509 N 255.844 -3.05498 -4.71834 0
M  V30 2510 H 247.995 -1.85866 -1.02798 0
M  V30 2511 H 250.258 -0.797506 -0.512531 0
M  V30 2512 H 249.964 -2.59671 -2.372 0
M  V30 2513 H 249.838 -1.29551 -3.54255 0
M  V30 2514 H 252.225 -0.538745 -2.90141 0
M  V30 2515 H 252.306 -1.87305 -1.74214 0
M  V30 2516 H 251.95 -3.52688 -3.65477 0
M  V30 2517 H 251.88 -2.16453 -4.80058 0
M  V30 2518 H 254.371 -1.91234 -3.25941 0
M  V30 2519 H 254.684 -4.43721 -6.32718 0
M  V30 2520 H 253.029 -3.98481 -5.69419 0
M  V30 2521 H 256.22 -2.44108 -3.99411 0
M  V30 2522 H 256.393 -3.59225 -5.39316 0
M  V30 2523 N 249.799 1.42003 -0.683588 0
M  V30 2524 C 250.729 2.33487 -0.024866 0
M  V30 2525 C 251.71 1.51163 0.779975 0
M  V30 2526 O 252.895 1.79739 0.735362 0
M  V30 2527 C 250.025 3.3487 0.920836 0
M  V30 2528 C 248.979 4.27414 0.223958 0
M  V30 2529 C 248.305 5.19074 1.2832 0
M  V30 2530 C 249.605 5.14445 -0.90242 0
M  V30 2531 H 251.299 2.88819 -0.788921 0
M  V30 2532 H 248.845 1.38873 -0.38083 0
M  V30 2533 H 250.798 3.97787 1.39081 0
M  V30 2534 H 249.522 2.77861 1.71642 0
M  V30 2535 H 248.181 3.65904 -0.225864 0
M  V30 2536 H 247.829 4.58387 2.071 0
M  V30 2537 H 247.529 5.81822 0.821995 0
M  V30 2538 H 249.053 5.84867 1.75392 0
M  V30 2539 H 250.467 5.70998 -0.513272 0
M  V30 2540 H 248.864 5.86072 -1.28997 0
M  V30 2541 H 249.934 4.52322 -1.74737 0
M  V30 2542 N 251.277 0.427512 1.51691 0
M  V30 2543 C 252.207 -0.3796 2.30394 0
M  V30 2544 C 253.188 -1.02982 1.35384 0
M  V30 2545 O 254.373 -1.03534 1.643 0
M  V30 2546 C 251.503 -1.48649 3.1388 0
M  V30 2547 C 250.457 -0.960294 4.17088 0
M  V30 2548 C 249.783 -2.16219 4.89033 0
M  V30 2549 C 251.083 -0.00153679 5.223 0
M  V30 2550 H 252.777 0.277164 2.98114 0
M  V30 2551 H 250.323 0.134739 1.43368 0
M  V30 2552 H 252.276 -2.05826 3.67714 0
M  V30 2553 H 251 -2.1714 2.43962 0
M  V30 2554 H 249.659 -0.410806 3.64291 0
M  V30 2555 H 249.307 -2.83307 4.15628 0
M  V30 2556 H 249.007 -1.81654 5.58816 0
M  V30 2557 H 250.531 -2.73968 5.45687 0
M  V30 2558 H 251.945 -0.482687 5.71264 0
M  V30 2559 H 250.342 0.256199 5.99553 0
M  V30 2560 H 251.412 0.938174 4.75738 0
M  V30 2561 N 252.755 -1.56801 0.158532 0
M  V30 2562 C 253.983 -2.00859 -0.496303 0
M  V30 2563 C 254.398 -1.03871 -1.57659 0
M  V30 2564 O 253.755 -0.0375165 -1.82461 0
M  V30 2565 C 253.806 -3.4479 -1.08638 0
M  V30 2566 O 253.527 -4.38072 -0.0492322 0
M  V30 2567 C 255.028 -4.04185 -1.8207 0
M  V30 2568 H 252.248 -0.65864 -0.128199 0
M  V30 2569 H 254.792 -2.02885 0.256506 0
M  V30 2570 H 252.947 -3.43579 -1.78975 0
M  V30 2571 H 253.361 -5.2227 -0.483102 0
M  V30 2572 H 254.835 -5.06857 -2.18633 0
M  V30 2573 H 255.312 -3.45549 -2.71095 0
M  V30 2574 H 255.918 -4.0906 -1.16405 0
M  V30 2575 N 254.233 0.115231 -1.57178 0
M  V30 2576 C 255.165 1.16694 -1.97269 0
M  V30 2577 C 256.178 1.37445 -0.872502 0
M  V30 2578 O 257.367 1.36454 -1.15077 0
M  V30 2579 C 254.467 2.52627 -2.25905 0
M  V30 2580 C 253.64 2.52427 -3.57211 0
M  V30 2581 C 252.699 3.70134 -3.74016 0
M  V30 2582 O 251.725 3.53546 -4.46087 0
M  V30 2583 N 252.927 4.88844 -3.13068 0
M  V30 2584 H 255.692 0.82588 -2.88096 0
M  V30 2585 H 253.253 0.304461 -1.59011 0
M  V30 2586 H 255.245 3.29937 -2.34359 0
M  V30 2587 H 253.815 2.789 -1.41186 0
M  V30 2588 H 253.035 1.60805 -3.5991 0
M  V30 2589 H 254.323 2.49353 -4.43509 0
M  V30 2590 H 253.721 5.05225 -2.54489 0
M  V30 2591 H 252.278 5.63817 -3.27037 0
M  V30 2592 N 255.711 1.52812 0.385517 0
M  V30 2593 C 256.643 1.74096 1.49074 0
M  V30 2594 C 257.656 0.621462 1.50472 0
M  V30 2595 O 258.845 0.897245 1.54311 0
M  V30 2596 C 255.945 1.78774 2.87911 0
M  V30 2597 C 255.118 3.08134 3.10439 0
M  V30 2598 C 254.177 3.04313 4.29278 0
M  V30 2599 O 253.203 3.78168 4.25415 0
M  V30 2600 N 254.405 2.23741 5.35649 0
M  V30 2601 H 257.17 2.69455 1.31202 0
M  V30 2602 H 254.731 1.51343 0.575065 0
M  V30 2603 H 256.723 1.73721 3.65518 0
M  V30 2604 H 255.293 0.907869 2.99126 0
M  V30 2605 H 254.513 3.26649 2.20667 0
M  V30 2606 H 255.801 3.93662 3.22347 0
M  V30 2607 H 255.199 1.63211 5.41645 0
M  V30 2608 H 253.756 2.24524 6.11909 0
M  V30 2609 N 257.189 -0.644168 1.43834 0
M  V30 2610 C 258.437 -1.40117 1.45642 0
M  V30 2611 C 258.758 -1.94814 0.0852413 0
M  V30 2612 O 258.028 -1.74988 -0.880688 0
M  V30 2613 H 256.608 -0.52005 0.536243 0
M  V30 2614 H 259.27 -0.7591 1.7951 0
M  V30 2615 H 258.366 -2.23902 2.17427 0
M  V30 2616 N 258.668 -1.30515 -0.883378 0
M  V30 2617 C 259.945 -1.10086 -1.6168 0
M  V30 2618 C 260.325 0.349269 -2.08191 0
M  V30 2619 O 259.673 1.34105 -1.85008 0
M  V30 2620 C 259.883 -2.10315 -2.78511 0
M  V30 2621 C 261.231 -2.42119 -3.48803 0
M  V30 2622 O 262.255 -2.08638 -2.88702 0
M  V30 2623 O 261.114 -2.99396 -4.57192 0
M  V30 2624 H 258.208 -0.422907 -0.710689 0
M  V30 2625 H 260.754 -1.41947 -0.930015 0
M  V30 2626 H 259.526 -3.07917 -2.41459 0
M  V30 2627 H 259.149 -1.79282 -3.54886 0
M  V30 2628 N 260.146 1.09593 -1.13257 0
M  V30 2629 C 261.056 2.19739 -0.821691 0
M  V30 2630 C 262.072 1.72926 0.19302 0
M  V30 2631 O 263.248 2.01385 0.0244895 0
M  V30 2632 C 260.313 3.45482 -0.290333 0
M  V30 2633 C 259.374 4.06985 -1.36607 0
M  V30 2634 C 258.607 5.26726 -0.859975 0
M  V30 2635 O 258.83 5.69594 0.303082 0
M  V30 2636 O 257.764 5.7931 -1.63351 0
M  V30 2637 H 261.59 2.48781 -1.74189 0
M  V30 2638 H 259.175 1.18496 -0.909894 0
M  V30 2639 H 261.057 4.214 0.000674022 0
M  V30 2640 H 259.732 3.18047 0.602306 0
M  V30 2641 H 258.639 3.32712 -1.71037 0
M  V30 2642 H 259.972 4.38643 -2.23279 0
M  V30 2643 O 261.663 1.05716 1.22092 0
M  V30 2644 H 262.354 0.735773 1.79182 0
M  V30 END ATOM
M  V30 BEGIN BOND
M  V30 END BOND
M  V30 END CTAB
M  END
$$$$
