drugbank_target|P0A827 Serine hydroxymethyltransferase (DB02824; DB11596)
 OpenBabel12092120003D

  0  0  0     0  0            999 V3000
M  V30 BEGIN CTAB
M  V30 COUNTS 6350 6418 0 0 0
M  V30 BEGIN ATOM
M  V30 1 H -0.908 1.98254 -0.117106 0
M  V30 2 N 0 1.576 0 0
M  V30 3 C 0.933 2.03868 1.02534 0
M  V30 4 C 1.911 0.928543 1.3348 0
M  V30 5 O 3.095 1.19667 1.45644 0
M  V30 6 C 0.222 2.43627 2.35294 0
M  V30 7 C -0.732 3.65373 2.2001 0
M  V30 8 S 0.101 5.13292 1.52614 0
M  V30 9 C 1.257 5.56322 2.86805 0
M  V30 10 H 1.49 2.90518 0.631377 0
M  V30 11 H -0.977 1.52953 0.210867 0
M  V30 12 H 0.981 2.67203 3.11629 0
M  V30 13 H -0.358 1.57376 2.7183 0
M  V30 14 H -1.165 3.90944 3.18086 0
M  V30 15 H -1.563 3.418 1.51819 0
M  V30 16 H 0.729 5.58782 3.83104 0
M  V30 17 H 1.672 6.56266 2.65933 0
M  V30 18 H 2.08 4.83886 2.90714 0
M  V30 19 N 1.4781 -0.272755 1.55222 0
M  V30 20 C 2.4081 -1.34136 1.91127 0
M  V30 21 C 3.3891 -1.51513 0.773168 0
M  V30 22 O 4.5741 -1.64552 1.03132 0
M  V30 23 C 1.7041 -2.70083 2.1834 0
M  V30 24 C 0.6581 -2.67437 3.34158 0
M  V30 25 C -0.0159 -4.06938 3.46851 0
M  V30 26 C 1.2841 -2.26686 4.70543 0
M  V30 27 H 2.9781 -1.04333 2.80633 0
M  V30 28 H 0.5241 -0.500454 1.35024 0
M  V30 29 H 2.4771 -3.44952 2.42046 0
M  V30 30 H 1.2011 -3.01469 1.25634 0
M  V30 31 H -0.1399 -1.95026 3.1042 0
M  V30 32 H -0.4919 -4.35547 2.51611 0
M  V30 33 H -0.7919 -4.06062 4.2472 0
M  V30 34 H 0.7321 -4.83545 3.72849 0
M  V30 35 H 2.1461 -2.91277 4.93792 0
M  V30 36 H 0.5431 -2.36971 5.5133 0
M  V30 37 H 1.6131 -1.21818 4.69349 0
M  V30 38 N 2.9562 -1.48159 -0.537278 0
M  V30 39 C 3.9032 -1.62138 -1.64256 0
M  V30 40 C 4.8732 -0.463668 -1.59497 0
M  V30 41 O 6.0582 -0.686241 -1.78032 0
M  V30 42 C 3.1982 -1.66028 -3.02537 0
M  V30 43 C 2.3112 -2.92855 -3.17585 0
M  V30 44 C 1.4462 -2.87952 -4.46382 0
M  V30 45 C 0.4852 -4.09516 -4.54932 0
M  V30 46 N -0.3778 -4.02733 -5.75109 0
M  V30 47 H 4.4622 -2.56529 -1.51647 0
M  V30 48 H 1.9992 -1.27224 -0.738414 0
M  V30 49 H 3.9572 -1.66265 -3.82638 0
M  V30 50 H 2.5872 -0.751331 -3.13934 0
M  V30 51 H 1.6392 -3.02395 -2.30784 0
M  V30 52 H 2.9512 -3.82822 -3.19764 0
M  V30 53 H 2.1052 -2.8655 -5.34765 0
M  V30 54 H 0.8442 -1.95702 -4.46712 0
M  V30 55 H -0.1508 -4.11201 -3.64957 0
M  V30 56 H 1.0742 -5.02917 -4.56346 0
M  V30 57 H -0.9798 -3.13299 -5.76351 0
M  V30 58 H -1.0628 -4.86397 -5.78752 0
M  V30 59 H 0.2052 -4.05379 -6.65799 0
M  V30 60 N 4.4343 0.785586 -1.36625 0
M  V30 61 C 5.8503 1.08419 -1.17122 0
M  V30 62 C 6.0503 2.015 0.00208491 0
M  V30 63 O 5.1063 2.43551 0.666278 0
M  V30 64 C 6.4193 1.69498 -2.48377 0
M  V30 65 C 7.9673 1.81821 -2.54775 0
M  V30 66 C 8.4423 2.46315 -3.86126 0
M  V30 67 N 9.9333 2.53779 -3.87492 0
M  V30 68 C 10.6683 3.045 -4.85868 0
M  V30 69 N 10.1643 3.55499 -5.94637 0
M  V30 70 N 11.9573 3.03247 -4.73284 0
M  V30 71 H 4.1083 0.167264 -2.1174 0
M  V30 72 H 6.3713 0.13682 -0.938075 0
M  V30 73 H 6.0773 1.08571 -3.34522 0
M  V30 74 H 5.9513 2.6896 -2.64462 0
M  V30 75 H 8.3383 2.41884 -1.69045 0
M  V30 76 H 8.4193 0.811532 -2.42586 0
M  V30 77 H 8.0633 1.86895 -4.72263 0
M  V30 78 H 7.9933 3.47561 -3.95612 0
M  V30 79 H 10.4843 2.17672 -3.08913 0
M  V30 80 H 10.7973 3.92562 -6.65669 0
M  V30 81 H 9.1423 3.5364 -5.98301 0
M  V30 82 H 12.3333 2.62696 -3.87438 0
M  V30 83 H 12.5063 3.42467 -5.50109 0
M  V30 84 N 5.9124 1.20967 1.01018 0
M  V30 85 C 6.8224 0.980157 2.13143 0
M  V30 86 C 7.8384 -0.0660665 1.73875 0
M  V30 87 O 9.0144 0.122821 2.01025 0
M  V30 88 C 6.0794 0.54216 3.42435 0
M  V30 89 C 5.1404 1.65999 3.95908 0
M  V30 90 C 4.3734 1.2428 5.19028 0
M  V30 91 O 4.5964 0.114196 5.70286 0
M  V30 92 O 3.5304 2.05271 5.65816 0
M  V30 93 H 7.3564 1.91913 2.35379 0
M  V30 94 H 4.9414 0.994099 1.11526 0
M  V30 95 H 6.8234 0.30744 4.20277 0
M  V30 96 H 5.4984 -0.36815 3.216 0
M  V30 97 H 4.4054 1.94906 3.19316 0
M  V30 98 H 5.7384 2.54753 4.21143 0
M  V30 99 N 7.3905 -1.2043 1.01659 0
M  V30 100 C 8.3235 -2.21924 0.531521 0
M  V30 101 C 9.3015 -1.57054 -0.421032 0
M  V30 102 O 10.4855 -1.85389 -0.341035 0
M  V30 103 C 7.6125 -3.37942 -0.226496 0
M  V30 104 C 6.6585 -4.21115 0.67561 0
M  V30 105 S 7.4915 -4.90674 2.14475 0
M  V30 106 C 8.6475 -6.10113 1.3969 0
M  V30 107 H 8.8805 -2.62725 1.3915 0
M  V30 108 H 6.4135 -1.30481 0.825479 0
M  V30 109 H 8.3715 -4.05196 -0.657738 0
M  V30 110 H 7.0325 -2.956 -1.06205 0
M  V30 111 H 6.2255 -5.03918 0.091108 0
M  V30 112 H 5.8275 -3.59115 1.04463 0
M  V30 113 H 8.1195 -6.7411 0.676897 0
M  V30 114 H 9.0625 -6.73022 2.20107 0
M  V30 115 H 9.4705 -5.57283 0.899786 0
M  V30 116 N 8.8686 -0.792821 -1.36206 0
M  V30 117 C 9.8166 -0.181555 -2.3189 0
M  V30 118 C 10.8106 0.661025 -1.55971 0
M  V30 119 O 12.0166 0.555728 -1.71206 0
M  V30 120 H 8.3916 -0.0399382 -0.750939 0
M  V30 121 H 10.3626 -1.00394 -2.81005 0
M  V30 122 C 9.1116 0.666444 -3.41253 0
M  V30 123 H 8.4346 0.0274489 -3.99791 0
M  V30 124 H 9.8746 1.06076 -4.10517 0
M  V30 125 C 8.3336 1.82614 -2.83114 0
M  V30 126 O 8.8636 2.9229 -2.75553 0
M  V30 127 N 7.0696 1.63333 -2.40356 0
M  V30 128 H 6.6166 0.741217 -2.46706 0
M  V30 129 H 6.5746 2.41087 -2.01803 0
M  V30 130 N 10.3467 1.47872 -0.545128 0
M  V30 131 C 11.5957 2.01695 -0.0145033 0
M  V30 132 C 11.9087 1.42609 1.33873 0
M  V30 133 O 13.1147 1.88021 1.95858 0
M  V30 134 C 11.5707 3.59892 0.0245068 0
M  V30 135 C 11.1787 4.27966 -1.32475 0
M  V30 136 C 12.9227 4.21507 0.50316 0
M  V30 137 C 10.8297 5.78136 -1.2455 0
M  V30 138 H 9.7597 0.753998 -0.00165172 0
M  V30 139 H 12.4107 1.69985 -0.691175 0
M  V30 140 H 10.7927 3.88509 0.766575 0
M  V30 141 H 11.9667 4.11003 -2.08357 0
M  V30 142 H 10.2817 3.78286 -1.74036 0
M  V30 143 H 12.8787 5.31538 0.580656 0
M  V30 144 H 13.2217 3.87855 1.51243 0
M  V30 145 H 13.7547 3.97376 -0.183681 0
M  V30 146 H 10.4937 6.16388 -2.23039 0
M  V30 147 H 10.0137 5.97469 -0.528282 0
M  V30 148 H 11.6927 6.40099 -0.942488 0
M  V30 149 N 11.8248 0.280983 1.55075 0
M  V30 150 C 12.7878 -0.590896 2.21452 0
M  V30 151 C 13.7878 -1.07682 1.19421 0
M  V30 152 O 14.9778 -0.97605 1.44288 0
M  V30 153 C 12.1098 -1.81587 2.88511 0
M  V30 154 H 13.3028 -0.0112554 2.99898 0
M  V30 155 H 10.8558 0.0316438 1.56268 0
M  V30 156 H 11.5908 -2.43587 2.14093 0
M  V30 157 H 11.3758 -1.4753 3.63287 0
M  V30 158 H 12.8658 -2.43575 3.39206 0
M  V30 159 N 13.3029 -1.57598 0.00835791 0
M  V30 160 C 14.5799 -1.82172 -0.712235 0
M  V30 161 C 14.9599 -0.887873 -1.9152 0
M  V30 162 O 14.3079 0.06146 -2.28417 0
M  V30 163 C 14.5179 -3.30875 -1.11008 0
M  V30 164 C 15.8659 -3.96826 -1.51044 0
M  V30 165 O 16.8899 -3.35248 -1.20364 0
M  V30 166 O 15.7489 -5.05318 -2.08125 0
M  V30 167 H 12.8429 -0.750435 -0.347529 0
M  V30 168 H 15.3889 -1.69665 0.0344523 0
M  V30 169 H 14.1609 -3.90481 -0.252982 0
M  V30 170 H 13.7839 -3.48412 -1.9156 0
M  V30 171 N 14.781 0.264519 -1.55364 0
M  V30 172 C 16.011 1.01153 -1.80143 0
M  V30 173 C 16.419 1.80115 -0.579253 0
M  V30 174 O 15.762 1.77813 0.46132 0
M  V30 175 C 15.824 2.01098 -2.97993 0
M  V30 176 C 15.488 1.40995 -4.34706 0
M  V30 177 C 16.485 0.821316 -5.13372 0
M  V30 178 C 14.17 1.43461 -4.81378 0
M  V30 179 C 16.164 0.265339 -6.36847 0
M  V30 180 C 13.851 0.874771 -6.04807 0
M  V30 181 C 14.849 0.291146 -6.82379 0
M  V30 182 O 14.537 -0.260093 -8.03479 0
M  V30 183 H 14.269 0.304125 -0.603725 0
M  V30 184 H 16.823 0.298089 -2.03225 0
M  V30 185 H 15.053 2.76224 -2.70623 0
M  V30 186 H 16.742 2.61997 -3.1002 0
M  V30 187 H 17.508 0.794903 -4.78442 0
M  V30 188 H 13.387 1.87826 -4.21002 0
M  V30 189 H 16.931 -0.190837 -6.97339 0
M  V30 190 H 12.828 0.898452 -6.39217 0
M  V30 191 H 13.596 -0.150265 -8.18362 0
M  V30 192 N 16.2591 1.48442 0.529413 0
M  V30 193 C 17.5361 1.46978 1.29062 0
M  V30 194 C 17.9161 0.181769 2.10316 0
M  V30 195 O 17.2641 -0.836481 2.12639 0
M  V30 196 C 17.4741 2.7321 2.17157 0
M  V30 197 C 18.8221 3.21562 2.77278 0
M  V30 198 O 19.8461 2.74131 2.27444 0
M  V30 199 O 18.7051 4.04094 3.67927 0
M  V30 200 H 15.7991 0.587003 0.582543 0
M  V30 201 H 18.3451 1.60676 0.546021 0
M  V30 202 H 17.1171 3.58465 1.56903 0
M  V30 203 H 16.7401 2.62235 2.98862 0
M  V30 204 N 17.7372 -0.778329 1.37039 0
M  V30 205 C 18.7002 -1.87301 1.32102 0
M  V30 206 C 19.7002 -1.59198 0.226405 0
M  V30 207 O 20.8902 -1.67403 0.481861 0
M  V30 208 C 18.0222 -3.24309 1.05055 0
M  V30 209 H 19.2152 -1.93093 2.29467 0
M  V30 210 H 16.7682 -0.977358 1.21973 0
M  V30 211 H 17.5032 -3.24196 0.0819373 0
M  V30 212 H 17.2882 -3.46098 1.84279 0
M  V30 213 H 18.7782 -4.04382 1.04234 0
M  V30 214 N 19.2153 -1.21501 -1.00376 0
M  V30 215 C 20.1253 -0.991447 -2.12621 0
M  V30 216 C 21.1413 0.0568446 -1.73907 0
M  V30 217 O 22.3173 -0.13348 -2.00957 0
M  V30 218 C 19.3823 -0.560312 -3.42142 0
M  V30 219 C 18.4433 -1.68096 -3.95022 0
M  V30 220 C 17.6763 -1.2703 -5.18362 0
M  V30 221 O 17.8993 -0.144438 -5.70217 0
M  V30 222 O 16.8333 -2.08269 -5.64719 0
M  V30 223 H 20.6593 -1.93158 -2.34358 0
M  V30 224 H 18.2443 -0.999999 -1.10997 0
M  V30 225 H 20.1263 -0.329724 -4.20108 0
M  V30 226 H 18.8013 0.351089 -3.2179 0
M  V30 227 H 17.7083 -1.96597 -3.18278 0
M  V30 228 H 19.0413 -2.56983 -4.19786 0
M  V30 229 N 20.6934 1.19889 -1.02296 0
M  V30 230 C 21.6234 2.25141 -0.619174 0
M  V30 231 C 22.6044 1.66051 0.368915 0
M  V30 232 O 23.7894 1.92546 0.252941 0
M  V30 233 C 20.9194 3.4728 0.0368783 0
M  V30 234 C 19.8734 4.19005 -0.872865 0
M  V30 235 C 19.1994 5.34637 -0.0822402 0
M  V30 236 C 20.4994 4.74452 -2.18387 0
M  V30 237 H 22.1934 2.59171 -1.49903 0
M  V30 238 H 19.7394 1.24579 -0.722222 0
M  V30 239 H 21.6924 4.20098 0.330958 0
M  V30 240 H 20.4164 3.12433 0.95149 0
M  V30 241 H 19.0754 3.48061 -1.15105 0
M  V30 242 H 18.7234 4.96034 0.83422 0
M  V30 243 H 18.4234 5.83557 -0.688149 0
M  V30 244 H 19.9474 6.10255 0.205238 0
M  V30 245 H 21.3614 5.39055 -1.95172 0
M  V30 246 H 19.7584 5.33834 -2.74119 0
M  V30 247 H 20.8284 3.92844 -2.84257 0
M  V30 248 N 22.1715 0.800033 1.35784 0
M  V30 249 C 23.4175 0.38701 1.99684 0
M  V30 250 C 23.7725 -1.03268 1.62338 0
M  V30 251 O 23.0655 -1.70543 0.87325 0
M  V30 252 C 23.2595 0.500276 3.53881 0
M  V30 253 C 23.0885 1.92942 4.06206 0
M  V30 254 C 21.8585 2.55637 4.35865 0
M  V30 255 C 24.0565 2.89307 4.25213 0
M  V30 256 N 22.0385 3.9003 4.74078 0
M  V30 257 C 23.4095 4.08556 4.66349 0
M  V30 258 C 25.4645 2.86225 4.07406 0
M  V30 259 C 24.1675 5.25146 4.91543 0
M  V30 260 C 26.1935 4.02011 4.33752 0
M  V30 261 C 25.5555 5.20007 4.75155 0
M  V30 262 H 21.6545 0.189252 0.758754 0
M  V30 263 H 24.2385 1.03988 1.64604 0
M  V30 264 H 22.4095 -0.122568 3.88207 0
M  V30 265 H 24.1415 0.0624733 4.04652 0
M  V30 266 H 20.8965 2.07039 4.25948 0
M  V30 267 H 21.3205 4.59205 4.97454 0
M  V30 268 H 25.9625 1.96154 3.74544 0
M  V30 269 H 23.6805 6.15794 5.23281 0
M  V30 270 H 27.2665 4.00999 4.21534 0
M  V30 271 H 26.1465 6.08113 4.95145 0
M  V30 272 N 23.6496 -1.47581 0.552962 0
M  V30 273 C 24.5816 -2.27997 -0.234533 0
M  V30 274 C 25.5946 -1.36753 -0.883321 0
M  V30 275 O 26.7836 -1.61612 -0.757889 0
M  V30 276 C 23.8836 -3.10879 -1.34935 0
M  V30 277 C 23.0566 -4.30056 -0.798158 0
M  V30 278 C 22.1156 -4.94567 -1.79694 0
M  V30 279 O 21.1416 -5.53087 -1.34474 0
M  V30 280 N 22.3436 -4.88878 -3.13015 0
M  V30 281 H 25.1086 -2.96222 0.455255 0
M  V30 282 H 22.6696 -1.57163 0.388761 0
M  V30 283 H 24.6616 -3.50903 -2.01616 0
M  V30 284 H 23.2316 -2.44924 -1.94244 0
M  V30 285 H 22.4516 -3.94174 0.0453079 0
M  V30 286 H 23.7396 -5.07152 -0.409173 0
M  V30 287 H 23.1376 -4.42526 -3.52402 0
M  V30 288 H 21.6946 -5.32934 -3.75266 0
M  V30 289 N 25.1277 -0.289203 -1.54924 0
M  V30 290 C 26.0907 0.579144 -2.21762 0
M  V30 291 C 27.0907 1.07047 -1.1999 0
M  V30 292 O 28.2807 0.968384 -1.44803 0
M  V30 293 C 25.4127 1.80055 -2.8947 0
M  V30 294 H 26.6057 -0.00464908 -2.999 0
M  V30 295 H 24.1587 -0.0399306 -1.56249 0
M  V30 296 H 24.8937 2.42449 -2.15381 0
M  V30 297 H 24.6787 1.45602 -3.64064 0
M  V30 298 H 26.1687 2.41773 -3.40493 0
M  V30 299 N 26.6058 1.57591 -0.0167156 0
M  V30 300 C 27.5388 2.04944 1.00366 0
M  V30 301 C 28.5168 0.942648 1.32487 0
M  V30 302 O 29.7008 1.21205 1.44367 0
M  V30 303 C 26.8278 2.46109 2.32697 0
M  V30 304 C 25.8738 3.67686 2.16123 0
M  V30 305 S 26.7068 5.14882 1.47161 0
M  V30 306 C 27.8628 5.59332 2.80888 0
M  V30 307 H 28.0958 2.91172 0.600528 0
M  V30 308 H 25.6288 1.53168 0.194632 0
M  V30 309 H 27.5868 2.70493 3.08778 0
M  V30 310 H 26.2478 1.6025 2.70146 0
M  V30 311 H 25.4408 3.94296 3.13922 0
M  V30 312 H 25.0428 3.43391 1.48185 0
M  V30 313 H 27.3348 5.62814 3.77156 0
M  V30 314 H 28.2778 6.5905 2.58958 0
M  V30 315 H 28.6858 4.86942 2.85565 0
M  V30 316 N 28.0839 -0.256276 1.55502 0
M  V30 317 C 28.9939 -1.33882 1.92647 0
M  V30 318 C 30.0099 -1.53159 0.825727 0
M  V30 319 O 31.1859 -1.66963 1.12629 0
M  V30 320 C 28.2509 -2.6751 2.20543 0
M  V30 321 C 27.3119 -2.56836 3.43997 0
M  V30 322 C 26.5449 -3.84092 3.70553 0
M  V30 323 O 26.7679 -4.85545 2.99336 0
M  V30 324 O 25.7019 -3.83288 4.64084 0
M  V30 325 H 29.5279 -1.05374 2.84833 0
M  V30 326 H 27.1129 -0.456237 1.42263 0
M  V30 327 H 28.9949 -3.46492 2.39835 0
M  V30 328 H 27.6699 -2.9577 1.31536 0
M  V30 329 H 26.5769 -1.76172 3.30021 0
M  V30 330 H 27.9099 -2.33523 4.33275 0
M  V30 331 N 29.562 -1.4872 -0.521534 0
M  V30 332 C 30.494 -1.59968 -1.64143 0
M  V30 333 C 31.507 -0.483463 -1.55456 0
M  V30 334 O 32.696 -0.75467 -1.61762 0
M  V30 335 C 29.796 -1.52127 -3.02838 0
M  V30 336 C 28.969 -2.78932 -3.36921 0
M  V30 337 C 28.028 -2.64428 -4.54933 0
M  V30 338 O 27.054 -3.38331 -4.57735 0
M  V30 339 N 28.256 -1.74606 -5.53618 0
M  V30 340 H 31.021 -2.56548 -1.54929 0
M  V30 341 H 28.582 -1.45551 -0.708988 0
M  V30 342 H 30.574 -1.40106 -3.79674 0
M  V30 343 H 29.144 -0.634868 -3.06085 0
M  V30 344 H 28.364 -3.05455 -2.4918 0
M  V30 345 H 29.652 -3.63041 -3.56481 0
M  V30 346 H 29.05 -1.13782 -5.54139 0
M  V30 347 H 27.607 -1.6852 -6.29638 0
M  V30 348 N 31.0401 0.771051 -1.3745 0
M  V30 349 C 31.9501 1.91538 -1.35464 0
M  V30 350 C 32.9661 1.72134 -0.254123 0
M  V30 351 O 34.1421 1.95358 -0.489626 0
M  V30 352 C 31.2071 3.26671 -1.16134 0
M  V30 353 C 30.2681 3.58723 -2.35831 0
M  V30 354 C 29.5011 4.87409 -2.17413 0
M  V30 355 O 29.7241 5.58506 -1.15876 0
M  V30 356 O 28.6581 5.18539 -3.05615 0
M  V30 357 H 32.4841 1.96165 -2.31847 0
M  V30 358 H 30.0691 0.9139 -1.18187 0
M  V30 359 H 31.9511 4.07499 -1.07345 0
M  V30 360 H 30.6261 3.22894 -0.228251 0
M  V30 361 H 29.5331 2.78127 -2.50192 0
M  V30 362 H 30.8661 3.67243 -3.27709 0
M  V30 363 N 32.5182 1.22032 0.997298 0
M  V30 364 C 33.4652 0.986467 2.08656 0
M  V30 365 C 34.4352 -0.0902671 1.65855 0
M  V30 366 O 35.6202 0.0584294 1.90711 0
M  V30 367 C 32.7602 0.565569 3.40434 0
M  V30 368 C 31.8732 1.71259 3.96604 0
M  V30 369 C 31.0082 1.24011 5.16522 0
M  V30 370 C 30.0472 2.35896 5.64818 0
M  V30 371 N 29.1842 1.89726 6.7598 0
M  V30 372 H 34.0242 1.91892 2.27994 0
M  V30 373 H 31.5612 0.956199 1.11782 0
M  V30 374 H 33.5192 0.302738 4.161 0
M  V30 375 H 32.1492 -0.329879 3.2111 0
M  V30 376 H 31.2012 2.08986 3.17851 0
M  V30 377 H 32.5132 2.55436 4.28432 0
M  V30 378 H 31.6672 0.934395 5.99461 0
M  V30 379 H 30.4062 0.368487 4.86306 0
M  V30 380 H 29.4112 2.67261 4.8047 0
M  V30 381 H 30.6362 3.23567 5.97061 0
M  V30 382 H 28.5822 1.0492 6.47555 0
M  V30 383 H 28.4992 2.67471 7.07103 0
M  V30 384 H 29.7672 1.62211 7.62435 0
M  V30 385 N 33.9963 -1.19345 1.0293 0
M  V30 386 C 35.2423 -1.89318 0.727083 0
M  V30 387 C 35.5753 -1.79446 -0.742483 0
M  V30 388 O 34.8503 -1.1871 -1.54072 0
M  V30 389 C 35.1333 -3.40238 1.17942 0
M  V30 390 C 34.9863 -3.58979 2.71024 0
M  V30 391 C 36.3053 -4.33479 0.760548 0
M  V30 392 H 33.4243 -0.687475 0.265606 0
M  V30 393 H 36.0663 -1.40477 1.2793 0
M  V30 394 H 34.2163 -3.81964 0.709608 0
M  V30 395 H 35.8883 -3.26421 3.25955 0
M  V30 396 H 34.1313 -3.02018 3.11396 0
M  V30 397 H 34.8023 -4.64823 2.9773 0
M  V30 398 H 37.2783 -3.99469 1.16464 0
M  V30 399 H 36.1543 -5.37664 1.10493 0
M  V30 400 H 36.4153 -4.40813 -0.337063 0
M  V30 401 N 35.4744 -0.807222 -1.35358 0
M  V30 402 C 36.8904 -0.491038 -1.51858 0
M  V30 403 C 37.0904 0.987648 -1.75635 0
M  V30 404 O 36.1464 1.77265 -1.79815 0
M  V30 405 C 37.4594 -1.33695 -2.69344 0
M  V30 406 C 39.0074 -1.33246 -2.83222 0
M  V30 407 C 39.4824 -2.1625 -4.03733 0
M  V30 408 N 40.9734 -2.1379 -4.10911 0
M  V30 409 C 41.7084 -2.74772 -5.03277 0
M  V30 410 N 41.2044 -3.44684 -6.0097 0
M  V30 411 N 42.9974 -2.6441 -4.96028 0
M  V30 412 H 35.1484 -1.76485 -1.18181 0
M  V30 413 H 37.4114 -0.751199 -0.578276 0
M  V30 414 H 37.1174 -2.38634 -2.58354 0
M  V30 415 H 36.9914 -0.990618 -3.6396 0
M  V30 416 H 39.3784 -0.290911 -2.93663 0
M  V30 417 H 39.4594 -1.71866 -1.89461 0
M  V30 418 H 39.1034 -3.20445 -3.94052 0
M  V30 419 H 39.0334 -1.74989 -4.96675 0
M  V30 420 H 41.5244 -1.62923 -3.40976 0
M  V30 421 H 41.8374 -3.88501 -6.68047 0
M  V30 422 H 40.1824 -3.48788 -6.01142 0
M  V30 423 H 43.3734 -2.0938 -4.18662 0
M  V30 424 H 43.5464 -3.12225 -5.6782 0
M  V30 425 N 36.9525 1.47285 -0.560781 0
M  V30 426 C 37.8845 2.28118 0.222438 0
M  V30 427 C 38.8975 1.37219 0.876056 0
M  V30 428 O 40.0865 1.62011 0.749307 0
M  V30 429 C 37.1865 3.1159 1.33285 0
M  V30 430 C 36.3595 4.30473 0.77534 0
M  V30 431 C 35.4185 4.95513 1.77069 0
M  V30 432 O 34.4445 5.53792 1.31539 0
M  V30 433 N 35.6465 4.90531 3.10418 0
M  V30 434 H 38.4115 2.95976 -0.470958 0
M  V30 435 H 35.9725 1.56955 -0.39709 0
M  V30 436 H 37.9645 3.51967 1.99752 0
M  V30 437 H 36.5345 2.45951 1.92943 0
M  V30 438 H 35.7545 3.94144 -0.0662113 0
M  V30 439 H 37.0425 5.07362 0.382272 0
M  V30 440 H 36.4405 4.44389 3.5005 0
M  V30 441 H 34.9975 5.34917 3.72434 0
M  V30 442 N 38.4306 0.297415 1.54768 0
M  V30 443 C 39.3406 -0.58983 2.27064 0
M  V30 444 C 40.3566 -1.15144 1.30453 0
M  V30 445 O 41.5326 -1.17699 1.63428 0
M  V30 446 C 38.5976 -1.74714 2.9946 0
M  V30 447 C 37.6586 -1.21997 4.11601 0
M  V30 448 C 36.8916 -2.32212 4.80535 0
M  V30 449 O 37.1146 -3.52036 4.48806 0
M  V30 450 O 36.0486 -1.99106 5.68014 0
M  V30 451 H 39.8746 -0.00348199 3.037 0
M  V30 452 H 37.4596 0.0640035 1.49263 0
M  V30 453 H 39.3416 -2.42147 3.44881 0
M  V30 454 H 38.0166 -2.32016 2.25722 0
M  V30 455 H 36.9236 -0.511458 3.70587 0
M  V30 456 H 38.2566 -0.692419 4.87305 0
M  V30 457 N 39.9087 -1.5758 0.0250728 0
M  V30 458 C 40.8187 -2.1343 -0.973905 0
M  V30 459 C 41.8347 -1.08556 -1.35984 0
M  V30 460 O 43.0107 -1.40592 -1.44207 0
M  V30 461 C 40.0757 -2.64703 -2.23904 0
M  V30 462 C 39.1367 -3.84276 -1.91391 0
M  V30 463 C 38.3697 -4.33095 -3.11873 0
M  V30 464 O 38.5927 -3.81107 -4.24398 0
M  V30 465 O 37.5267 -5.24984 -2.94406 0
M  V30 466 H 41.3527 -2.99057 -0.529036 0
M  V30 467 H 38.9377 -1.48118 -0.195288 0
M  V30 468 H 40.8197 -2.97769 -2.98181 0
M  V30 469 H 39.4947 -1.82161 -2.6758 0
M  V30 470 H 38.4017 -3.56143 -1.14511 0
M  V30 471 H 39.7347 -4.67968 -1.52534 0
M  V30 472 N 41.3868 0.248026 -1.55636 0
M  V30 473 C 42.3368 1.30994 -1.86614 0
M  V30 474 C 43.3208 1.43543 -0.726918 0
M  V30 475 O 44.5128 1.46804 -0.988818 0
M  V30 476 C 41.6418 2.6656 -2.16335 0
M  V30 477 C 40.7278 2.58019 -3.36581 0
M  V30 478 N 41.1188 2.1911 -4.55878 0
M  V30 479 C 39.4168 2.89035 -3.39669 0
M  V30 480 C 40.1178 2.21174 -5.38012 0
M  V30 481 N 39.0938 2.60632 -4.77045 0
M  V30 482 H 42.8958 0.999583 -2.76379 0
M  V30 483 H 40.4098 0.456652 -1.55848 0
M  V30 484 H 42.4068 3.43194 -2.36692 0
M  V30 485 H 41.0668 2.98463 -1.27867 0
M  V30 486 H 42.0778 1.90672 -4.81523 0
M  V30 487 H 38.7548 3.25485 -2.61469 0
M  V30 488 H 40.1448 1.9344 -6.43452 0
M  V30 489 N 42.8649 1.48995 0.513639 0
M  V30 490 C 44.1139 1.57093 1.2651 0
M  V30 491 C 44.4269 0.257091 1.93903 0
M  V30 492 O 45.6329 0.216478 2.70636 0
M  V30 493 C 44.0889 2.77118 2.29638 0
M  V30 494 C 43.6969 4.15209 1.68241 0
M  V30 495 C 45.4409 2.94538 3.05692 0
M  V30 496 C 43.3479 5.26474 2.69406 0
M  V30 497 H 42.2779 0.584876 0.475854 0
M  V30 498 H 44.9289 1.7536 0.540487 0
M  V30 499 H 43.3109 2.52319 3.05207 0
M  V30 500 H 44.4849 4.50094 0.987505 0
M  V30 501 H 42.7999 4.03042 1.04623 0
M  V30 502 H 45.3969 3.74832 3.8132 0
M  V30 503 H 45.7399 2.04614 3.62545 0
M  V30 504 H 46.2729 3.19316 2.37238 0
M  V30 505 H 43.0119 6.18417 2.17351 0
M  V30 506 H 42.5319 4.96058 3.37175 0
M  V30 507 H 44.2109 5.55277 3.32078 0
M  V30 508 N 44.343 -0.763751 1.37857 0
M  V30 509 C 45.253 -1.90817 1.36478 0
M  V30 510 C 46.269 -1.71997 0.263248 0
M  V30 511 O 47.445 -1.95095 0.499979 0
M  V30 512 C 44.51 -3.2605 1.17864 0
M  V30 513 C 43.571 -3.57467 2.3773 0
M  V30 514 C 42.804 -4.86249 2.19995 0
M  V30 515 O 43.027 -5.57884 1.18836 0
M  V30 516 O 41.961 -5.16911 3.08361 0
M  V30 517 H 45.787 -1.94933 2.32884 0
M  V30 518 H 43.372 -0.907619 1.1867 0
M  V30 519 H 45.254 -4.06924 1.09504 0
M  V30 520 H 43.929 -3.22769 0.245372 0
M  V30 521 H 42.836 -2.76796 2.51664 0
M  V30 522 H 44.169 -3.655 3.29652 0
M  V30 523 N 45.8211 -1.22559 -0.990812 0
M  V30 524 C 46.7511 -1.0218 -2.09956 0
M  V30 525 C 47.7321 0.0579394 -1.70001 0
M  V30 526 O 48.9171 -0.104684 -1.93918 0
M  V30 527 C 46.0471 -0.601023 -3.4206 0
M  V30 528 C 45.0011 -1.62694 -3.95872 0
M  V30 529 C 44.3271 -1.06193 -5.24049 0
M  V30 530 C 45.6271 -3.01743 -4.2632 0
M  V30 531 H 47.3211 -1.94916 -2.27262 0
M  V30 532 H 44.8671 -0.938566 -1.09211 0
M  V30 533 H 46.8201 -0.445561 -4.19038 0
M  V30 534 H 45.5441 0.362005 -3.24588 0
M  V30 535 H 44.2031 -1.77021 -3.21028 0
M  V30 536 H 43.8511 -0.0901903 -5.02919 0
M  V30 537 H 43.5511 -1.74732 -5.61019 0
M  V30 538 H 45.0751 -0.918092 -6.03658 0
M  V30 539 H 46.4891 -2.90777 -4.94087 0
M  V30 540 H 44.8861 -3.67425 -4.74467 0
M  V30 541 H 45.9561 -3.51518 -3.34011 0
M  V30 542 N 47.2992 1.18797 -1.03562 0
M  V30 543 C 48.5482 1.87978 -0.731235 0
M  V30 544 C 48.8612 1.80911 0.743671 0
M  V30 545 O 50.0672 2.45407 1.16137 0
M  V30 546 C 48.5232 3.3721 -1.25768 0
M  V30 547 C 48.1312 3.52818 -2.76085 0
M  V30 548 C 49.8752 4.11825 -1.0296 0
M  V30 549 C 47.7822 4.9598 -3.22114 0
M  V30 550 H 46.7122 0.704063 -0.269835 0
M  V30 551 H 49.3632 1.34266 -1.25079 0
M  V30 552 H 47.7452 3.90359 -0.666011 0
M  V30 553 H 48.9192 3.09965 -3.40966 0
M  V30 554 H 47.2342 2.91602 -2.97249 0
M  V30 555 H 49.8312 5.17411 -1.34869 0
M  V30 556 H 50.1742 4.16287 0.0333546 0
M  V30 557 H 50.7072 3.64833 -1.58562 0
M  V30 558 H 47.4462 4.96684 -4.27768 0
M  V30 559 H 46.9662 5.39569 -2.61965 0
M  V30 560 H 48.6452 5.6467 -3.15844 0
M  V30 561 N 48.7773 0.814389 1.34928 0
M  V30 562 C 49.7403 0.235759 2.27984 0
M  V30 563 C 50.7403 -0.581412 1.49921 0
M  V30 564 O 51.9303 -0.398758 1.69575 0
M  V30 565 C 49.0623 -0.670433 3.34242 0
M  V30 566 H 50.2553 1.05659 2.80671 0
M  V30 567 H 47.8083 0.585614 1.44915 0
M  V30 568 H 48.5433 -1.51466 2.86755 0
M  V30 569 H 48.3283 -0.0860822 3.92005 0
M  V30 570 H 49.8183 -1.06935 4.03676 0
M  V30 571 N 50.2554 -1.46986 0.568584 0
M  V30 572 C 51.4804 -2.07335 0.0520528 0
M  V30 573 C 51.9054 -1.41675 -1.23733 0
M  V30 574 O 51.2634 -0.495623 -1.74394 0
M  V30 575 C 51.3114 -3.60417 -0.11501 0
M  V30 576 O 50.4154 -3.95309 -1.17492 0
M  V30 577 H 49.7564 -0.661597 0.0564385 0
M  V30 578 H 52.2864 -1.88837 0.787507 0
M  V30 579 H 52.2964 -4.06698 -0.325644 0
M  V30 580 H 50.9714 -4.07601 0.826675 0
M  V30 581 H 49.5484 -3.60757 -0.943869 0
M  V30 582 N 51.7335 -0.305618 -1.54608 0
M  V30 583 C 52.6435 0.57778 -2.27374 0
M  V30 584 C 53.6595 1.14451 -1.31061 0
M  V30 585 O 54.8355 1.16831 -1.6405 0
M  V30 586 C 51.9005 1.73123 -3.00382 0
M  V30 587 C 50.9615 1.19812 -4.12242 0
M  V30 588 C 50.1945 2.2966 -4.81759 0
M  V30 589 O 50.4175 3.49651 -4.50666 0
M  V30 590 O 49.3515 1.96091 -5.69062 0
M  V30 591 H 53.1775 -0.012624 -3.03697 0
M  V30 592 H 50.7625 -0.0719184 -1.49227 0
M  V30 593 H 52.6445 2.40315 -3.4616 0
M  V30 594 H 51.3195 2.30815 -2.26949 0
M  V30 595 H 50.2265 0.491798 -3.70853 0
M  V30 596 H 51.5595 0.666566 -4.87666 0
M  V30 597 N 53.2116 1.57565 -0.0334293 0
M  V30 598 C 54.1596 2.1164 0.96496 0
M  V30 599 C 55.1536 1.04398 1.33407 0
M  V30 600 O 56.3596 1.22828 1.3158 0
M  V30 601 H 52.7346 0.676222 0.32898 0
M  V30 602 H 54.7056 2.94455 0.483614 0
M  V30 603 C 53.4546 2.66207 2.23672 0
M  V30 604 H 52.7776 3.48378 1.96145 0
M  V30 605 H 54.2176 3.07685 2.9173 0
M  V30 606 C 52.6766 1.59151 2.96939 0
M  V30 607 O 53.2066 0.993858 3.89211 0
M  V30 608 N 51.4126 1.31093 2.59351 0
M  V30 609 H 50.9596 1.7988 1.84393 0
M  V30 610 H 50.9176 0.596889 3.08682 0
M  V30 611 N 54.6897 -0.239769 1.55765 0
M  V30 612 C 55.9197 -0.982743 1.8173 0
M  V30 613 C 56.3277 -1.7917 0.607835 0
M  V30 614 O 55.6707 -1.78525 -0.432973 0
M  V30 615 C 55.7327 -1.96332 3.01155 0
M  V30 616 C 55.3967 -1.34062 4.36894 0
M  V30 617 C 56.3937 -0.739539 5.14613 0
M  V30 618 C 54.0787 -1.35784 4.83599 0
M  V30 619 C 56.0727 -0.163989 6.37189 0
M  V30 620 C 53.7597 -0.778441 6.06122 0
M  V30 621 C 54.7577 -0.182548 6.82756 0
M  V30 622 O 54.4457 0.387887 8.02964 0
M  V30 623 H 54.1777 -0.294481 0.608487 0
M  V30 624 H 56.7317 -0.26572 2.03674 0
M  V30 625 H 54.9617 -2.71884 2.74984 0
M  V30 626 H 56.6507 -2.57032 3.14149 0
M  V30 627 H 57.4167 -0.718687 4.79646 0
M  V30 628 H 53.2957 -1.81105 4.23936 0
M  V30 629 H 56.8397 0.301753 6.96947 0
M  V30 630 H 52.7367 -0.796645 6.40565 0
M  V30 631 H 53.5047 0.28044 8.18019 0
M  V30 632 N 56.1678 -1.49265 -0.50573 0
M  V30 633 C 57.3958 -1.62215 -1.28429 0
M  V30 634 C 57.8108 -0.291697 -1.86533 0
M  V30 635 O 57.1678 0.722233 -1.67601 0
M  V30 636 C 57.2188 -2.68735 -2.41793 0
M  V30 637 O 56.9398 -3.96619 -1.86078 0
M  V30 638 C 58.4408 -2.92346 -3.3324 0
M  V30 639 H 55.6608 -0.546239 -0.389697 0
M  V30 640 H 58.2048 -1.95265 -0.607609 0
M  V30 641 H 56.3598 -2.38476 -3.053 0
M  V30 642 H 56.7738 -4.55256 -2.60465 0
M  V30 643 H 58.2478 -3.70623 -4.09075 0
M  V30 644 H 58.7248 -2.02081 -3.89948 0
M  V30 645 H 59.3308 -3.24003 -2.75503 0
M  V30 646 N 57.6459 0.756429 -1.3826 0
M  V30 647 C 58.8709 1.55077 -1.37717 0
M  V30 648 C 59.2959 1.88073 0.03164 0
M  V30 649 O 58.6539 1.50364 1.01293 0
M  V30 650 C 58.7019 2.8283 -2.23695 0
M  V30 651 O 57.8059 3.77862 -1.6521 0
M  V30 652 H 57.1469 0.469152 -0.469885 0
M  V30 653 H 59.6769 0.935019 -1.81985 0
M  V30 654 H 59.6869 3.31783 -2.37453 0
M  V30 655 H 58.3619 2.58144 -3.2609 0
M  V30 656 H 56.9389 3.36555 -1.60578 0
M  V30 657 N 59.124 1.23083 0.984299 0
M  V30 658 C 60.535 1.05609 1.5396 0
M  V30 659 C 60.886 -0.377793 1.92528 0
M  V30 660 O 60.011 -1.26398 1.75649 0
M  V30 661 C 60.606 1.91087 2.7977 0
M  V30 662 C 59.165 1.77885 3.31713 0
M  V30 663 C 58.312 1.87028 2.04733 0
M  V30 664 H 61.263 1.36802 0.804419 0
M  V30 665 H 61.284 1.43336 3.5247 0
M  V30 666 H 60.796 2.9544 2.51668 0
M  V30 667 H 58.897 0.762995 3.64704 0
M  V30 668 H 59.01 2.61047 4.01735 0
M  V30 669 H 57.374 1.30565 2.18689 0
M  V30 670 H 58.157 2.92929 1.79017 0
M  V30 671 N 60.6021 -1.18246 1.0419 0
M  V30 672 C 62.0181 -1.40269 0.761366 0
M  V30 673 C 62.2181 -1.90777 -0.648578 0
M  V30 674 O 61.2741 -2.0929 -1.41258 0
M  V30 675 C 62.5871 -2.40237 1.8085 0
M  V30 676 C 64.1351 -2.53961 1.82955 0
M  V30 677 C 64.6101 -3.57194 2.86664 0
M  V30 678 N 66.1011 -3.64702 2.85563 0
M  V30 679 C 66.8361 -4.44309 3.6246 0
M  V30 680 N 66.3321 -5.27514 4.49111 0
M  V30 681 N 68.1251 -4.39084 3.50944 0
M  V30 682 H 60.2761 -0.837882 1.95175 0
M  V30 683 H 62.5391 -0.430608 0.84456 0
M  V30 684 H 62.2451 -2.10176 2.81991 0
M  V30 685 H 62.1191 -3.39601 1.64168 0
M  V30 686 H 64.5061 -2.83338 0.824855 0
M  V30 687 H 64.5871 -1.54706 2.03715 0
M  V30 688 H 64.2311 -3.28558 3.87314 0
M  V30 689 H 64.1611 -4.5613 2.6316 0
M  V30 690 H 66.6521 -3.05289 2.22727 0
M  V30 691 H 66.9651 -5.85411 5.04493 0
M  V30 692 H 65.3101 -5.2693 4.53178 0
M  V30 693 H 68.5011 -3.7313 2.82651 0
M  V30 694 H 68.6741 -5.00883 4.11121 0
M  V30 695 N 62.0802 -0.821533 -1.34494 0
M  V30 696 C 63.3262 -0.409552 -1.98622 0
M  V30 697 C 63.6592 1.0244 -1.64984 0
M  V30 698 O 62.9342 1.71325 -0.920758 0
M  V30 699 C 63.2172 -0.610458 -3.54888 0
M  V30 700 C 63.0702 -2.09043 -3.98273 0
M  V30 701 C 64.3892 -0.0455379 -4.40076 0
M  V30 702 H 61.5082 -0.15028 -0.721516 0
M  V30 703 H 64.1502 -1.03384 -1.59411 0
M  V30 704 H 62.3002 -0.079044 -3.8842 0
M  V30 705 H 63.9722 -2.68537 -3.75081 0
M  V30 706 H 62.2152 -2.58139 -3.48635 0
M  V30 707 H 62.8862 -2.18182 -5.07051 0
M  V30 708 H 65.3622 -0.499557 -4.1309 0
M  V30 709 H 64.2382 -0.215922 -5.48475 0
M  V30 710 H 64.4992 1.04939 -4.29465 0
M  V30 711 N 63.5583 1.46682 -0.576371 0
M  V30 712 C 64.4913 2.27243 0.208731 0
M  V30 713 C 65.4693 1.35238 0.902746 0
M  V30 714 O 66.6533 1.64641 0.917904 0
M  V30 715 C 63.7803 3.12802 1.29896 0
M  V30 716 C 62.8263 4.20524 0.711457 0
M  V30 717 S 63.6593 5.33548 -0.456781 0
M  V30 718 C 64.8153 6.22673 0.634798 0
M  V30 719 H 65.0483 2.93484 -0.474838 0
M  V30 720 H 62.5813 1.50069 -0.363118 0
M  V30 721 H 64.5393 3.62661 1.92321 0
M  V30 722 H 63.2003 2.45887 1.95444 0
M  V30 723 H 62.3933 4.80191 1.53076 0
M  V30 724 H 61.9953 3.73645 0.162999 0
M  V30 725 H 64.2873 6.60181 1.52209 0
M  V30 726 H 65.2303 7.0806 0.0750311 0
M  V30 727 H 65.6383 5.56684 0.936092 0
M  V30 728 N 65.0364 0.313813 1.54444 0
M  V30 729 C 65.9684 -0.590425 2.21465 0
M  V30 730 C 66.9814 -1.08753 1.21147 0
M  V30 731 O 68.1704 -1.00278 1.4767 0
M  V30 732 C 65.2704 -1.82179 2.85769 0
M  V30 733 C 64.4434 -1.46502 4.12136 0
M  V30 734 C 63.5024 -2.55288 4.60124 0
M  V30 735 O 62.5284 -2.19842 5.25032 0
M  V30 736 N 63.7304 -3.86053 4.33525 0
M  V30 737 H 66.4954 -0.0166033 2.99695 0
M  V30 738 H 64.0564 0.136578 1.61323 0
M  V30 739 H 66.0484 -2.54328 3.14801 0
M  V30 740 H 64.6184 -2.30369 2.11303 0
M  V30 741 H 63.8384 -0.575595 3.89975 0
M  V30 742 H 65.1264 -1.20221 4.94393 0
M  V30 743 H 64.5244 -4.17654 3.81552 0
M  V30 744 H 63.0814 -4.54461 4.67235 0
M  V30 745 N 66.5145 -1.57545 0.0417849 0
M  V30 746 C 67.4775 -2.09885 -0.92093 0
M  V30 747 C 68.4775 -1.01648 -1.24596 0
M  V30 748 O 69.6675 -1.27759 -1.1842 0
M  V30 749 C 66.7995 -2.57527 -2.23367 0
M  V30 750 H 67.9925 -2.96236 -0.467382 0
M  V30 751 H 65.5455 -1.5493 -0.206467 0
M  V30 752 H 66.2805 -1.74542 -2.73323 0
M  V30 753 H 66.0655 -3.36613 -2.01083 0
M  V30 754 H 67.5555 -2.98201 -2.92346 0
M  V30 755 N 67.9926 0.231505 -1.5589 0
M  V30 756 C 68.9246 1.31006 -1.8807 0
M  V30 757 C 69.9376 1.43539 -0.768145 0
M  V30 758 O 71.1266 1.44614 -1.04638 0
M  V30 759 C 68.2266 2.68688 -2.06543 0
M  V30 760 C 67.3996 2.78228 -3.37502 0
M  V30 761 C 66.4586 3.96857 -3.4553 0
M  V30 762 O 65.4846 3.85662 -4.18633 0
M  V30 763 N 66.6866 5.1072 -2.75944 0
M  V30 764 H 69.4516 1.03731 -2.81176 0
M  V30 765 H 67.0126 0.421573 -1.56315 0
M  V30 766 H 69.0046 3.46412 -2.09239 0
M  V30 767 H 67.5746 2.88605 -1.20109 0
M  V30 768 H 66.7946 1.87059 -3.46991 0
M  V30 769 H 68.0826 2.81564 -4.23791 0
M  V30 770 H 67.4806 5.2271 -2.16311 0
M  V30 771 H 66.0376 5.86523 -2.84314 0
M  V30 772 N 69.4707 1.49531 0.497807 0
M  V30 773 C 70.7187 1.58865 1.24926 0
M  V30 774 C 71.0397 0.278721 1.92998 0
M  V30 775 O 70.3097 -0.702144 1.82885 0
M  V30 776 H 68.8897 0.585343 0.464094 0
M  V30 777 H 71.5517 1.86174 0.57666 0
M  V30 778 H 70.6477 2.38633 2.01149 0
M  V30 779 N 70.9488 -0.749086 1.3866 0
M  V30 780 C 72.1738 -1.54344 1.38538 0
M  V30 781 C 72.5988 -1.88088 -0.0216655 0
M  V30 782 O 71.9568 -1.50899 -1.00494 0
M  V30 783 C 72.0048 -2.8164 2.25192 0
M  V30 784 O 71.1088 -3.7698 1.67212 0
M  V30 785 H 70.4498 -0.466654 0.472367 0
M  V30 786 H 72.9798 -0.925355 1.82478 0
M  V30 787 H 72.9898 -3.30519 2.3921 0
M  V30 788 H 71.6648 -2.56411 3.27454 0
M  V30 789 H 70.2418 -3.35699 1.6236 0
M  V30 790 N 72.4269 -1.23603 -0.977757 0
M  V30 791 C 73.3589 -0.977369 -2.07317 0
M  V30 792 C 74.3719 0.0495845 -1.62724 0
M  V30 793 O 75.5609 -0.186261 -1.77526 0
M  V30 794 C 72.6609 -0.451216 -3.35883 0
M  V30 795 C 71.8339 -1.53896 -4.09432 0
M  V30 796 C 70.8929 -1.01721 -5.16274 0
M  V30 797 O 69.9189 -1.70676 -5.43009 0
M  V30 798 N 71.1209 0.153594 -5.80297 0
M  V30 799 H 73.8859 -1.92047 -2.30082 0
M  V30 800 H 71.4469 -1.14497 -1.14465 0
M  V30 801 H 73.4389 -0.0871574 -4.04606 0
M  V30 802 H 72.0089 0.397368 -3.10064 0
M  V30 803 H 71.2289 -2.07566 -3.35127 0
M  V30 804 H 72.5169 -2.27037 -4.55337 0
M  V30 805 H 71.9149 0.730323 -5.60966 0
M  V30 806 H 70.4719 0.458892 -6.50183 0
M  V30 807 N 73.905 1.17692 -1.04816 0
M  V30 808 C 74.835 2.23777 -0.666791 0
M  V30 809 C 75.816 1.66796 0.33361 0
M  V30 810 O 77.001 1.93039 0.212042 0
M  V30 811 C 74.131 3.47281 -0.0367933 0
M  V30 812 C 73.085 4.17059 -0.961546 0
M  V30 813 C 72.411 5.34342 -0.195626 0
M  V30 814 C 73.711 4.69713 -2.28402 0
M  V30 815 H 75.405 2.55933 -1.55367 0
M  V30 816 H 72.951 1.23019 -0.748484 0
M  V30 817 H 74.904 4.20706 0.241775 0
M  V30 818 H 73.628 3.14381 0.885004 0
M  V30 819 H 72.287 3.45541 -1.22462 0
M  V30 820 H 71.935 4.97692 0.728816 0
M  V30 821 H 71.635 5.81966 -0.811775 0
M  V30 822 H 73.159 6.10553 0.0757473 0
M  V30 823 H 74.573 5.34794 -2.06563 0
M  V30 824 H 72.97 5.279 -2.8538 0
M  V30 825 H 74.04 3.86726 -2.92525 0
M  V30 826 N 75.3831 0.828654 1.34056 0
M  V30 827 C 76.6111 0.43262 2.02326 0
M  V30 828 C 77.0261 -0.963147 1.62385 0
M  V30 829 O 76.3831 -1.62425 0.832121 0
M  V30 830 C 76.4341 0.53182 3.57567 0
M  V30 831 O 76.1551 1.87258 3.96063 0
M  V30 832 C 77.6561 0.131422 4.43105 0
M  V30 833 H 74.8761 0.172923 0.648335 0
M  V30 834 H 77.4201 1.1184 1.71208 0
M  V30 835 H 75.5751 -0.105938 3.87255 0
M  V30 836 H 75.9891 1.85087 4.90758 0
M  V30 837 H 77.4631 0.251904 5.51425 0
M  V30 838 H 77.9401 -0.925645 4.29335 0
M  V30 839 H 78.5461 0.743207 4.18756 0
M  V30 840 N 76.8612 -1.46375 0.584142 0
M  V30 841 C 77.8092 -2.32042 -0.161047 0
M  V30 842 C 78.8032 -1.44569 -0.882966 0
M  V30 843 O 80.0092 -1.61186 -0.801191 0
M  V30 844 H 76.3842 -0.748659 -0.0708033 0
M  V30 845 H 78.3552 -2.92704 0.580269 0
M  V30 846 C 77.1042 -3.27762 -1.1605 0
M  V30 847 H 76.4272 -3.95051 -0.614419 0
M  V30 848 H 77.8672 -3.90481 -1.65228 0
M  V30 849 C 76.3262 -2.53218 -2.22221 0
M  V30 850 O 76.8562 -2.29628 -3.29597 0
M  V30 851 N 75.0622 -2.13756 -1.96868 0
M  V30 852 H 74.6092 -2.33142 -1.09557 0
M  V30 853 H 74.5672 -1.642 -2.68115 0
M  V30 854 N 78.3393 -0.321999 -1.54275 0
M  V30 855 C 79.2863 0.544664 -2.24281 0
M  V30 856 C 80.2563 1.1129 -1.23303 0
M  V30 857 O 81.4413 1.15354 -1.51981 0
M  V30 858 C 78.5813 1.70045 -3.00298 0
M  V30 859 C 77.6943 1.16159 -4.1609 0
M  V30 860 C 76.8293 2.28293 -4.79641 0
M  V30 861 C 75.8683 1.71648 -5.8754 0
M  V30 862 N 75.0053 2.77438 -6.44959 0
M  V30 863 H 79.8453 -0.0588907 -2.97942 0
M  V30 864 H 77.3823 -0.0408345 -1.47043 0
M  V30 865 H 79.3403 2.38054 -3.42616 0
M  V30 866 H 77.9703 2.27531 -2.28975 0
M  V30 867 H 77.0223 0.373092 -3.78566 0
M  V30 868 H 78.3343 0.707087 -4.93763 0
M  V30 869 H 77.4883 3.0421 -5.2492 0
M  V30 870 H 76.2273 2.77079 -4.01346 0
M  V30 871 H 75.2323 0.942282 -5.41665 0
M  V30 872 H 76.4573 1.23741 -6.67731 0
M  V30 873 H 74.4033 3.25519 -5.69538 0
M  V30 874 H 74.3203 2.36547 -7.1804 0
M  V30 875 H 75.5883 3.53189 -6.94894 0
M  V30 876 N 79.8174 1.5752 -0.0501392 0
M  V30 877 C 81.0474 1.96678 0.632573 0
M  V30 878 C 81.4554 0.926298 1.64974 0
M  V30 879 O 80.7984 -0.09802 1.83438 0
M  V30 880 C 80.8604 3.32068 1.37735 0
M  V30 881 C 80.5244 4.54076 0.516131 0
M  V30 882 C 81.5214 5.19445 -0.217357 0
M  V30 883 C 79.2064 5.00304 0.44736 0
M  V30 884 C 81.2004 6.29378 -1.00807 0
M  V30 885 C 78.8874 6.10114 -0.347038 0
M  V30 886 C 79.8854 6.74512 -1.07344 0
M  V30 887 O 79.5734 7.82211 -1.85477 0
M  V30 888 H 79.3054 0.652193 0.177821 0
M  V30 889 H 81.8594 2.05091 -0.112543 0
M  V30 890 H 80.0894 3.20206 2.16807 0
M  V30 891 H 81.7784 3.55981 1.95019 0
M  V30 892 H 82.5444 4.84689 -0.173688 0
M  V30 893 H 78.4234 4.49971 1.00235 0
M  V30 894 H 81.9674 6.79575 -1.57556 0
M  V30 895 H 77.8644 6.44307 -0.392349 0
M  V30 896 H 78.6324 7.98982 -1.77678 0
M  V30 897 N 81.2955 -0.223234 1.56011 0
M  V30 898 C 82.2585 -1.26014 1.9145 0
M  V30 899 C 83.2585 -1.3989 0.792937 0
M  V30 900 O 84.4485 -1.38184 1.0607 0
M  V30 901 C 81.5805 -2.63422 2.16383 0
M  V30 902 H 82.7735 -0.95796 2.84189 0
M  V30 903 H 80.3265 -0.463576 1.49267 0
M  V30 904 H 81.0615 -2.98741 1.2619 0
M  V30 905 H 80.8465 -2.54728 2.98088 0
M  V30 906 H 82.3365 -3.38249 2.44903 0
M  V30 907 N 82.7736 -1.49793 -0.48987 0
M  V30 908 C 83.6836 -1.70036 -1.61632 0
M  V30 909 C 84.6996 -0.583102 -1.63939 0
M  V30 910 O 85.8756 -0.859169 -1.82154 0
M  V30 911 C 82.9406 -1.77277 -2.97949 0
M  V30 912 C 82.0016 -3.00918 -3.06181 0
M  V30 913 C 81.2346 -3.07804 -4.35996 0
M  V30 914 O 81.4576 -2.21982 -5.25433 0
M  V30 915 O 80.3916 -4.00369 -4.49431 0
M  V30 916 H 84.2176 -2.65486 -1.47482 0
M  V30 917 H 81.8026 -1.33666 -0.667362 0
M  V30 918 H 83.6846 -1.84329 -3.78947 0
M  V30 919 H 82.3596 -0.850076 -3.12339 0
M  V30 920 H 81.2666 -2.99377 -2.2433 0
M  V30 921 H 82.5996 -3.92704 -2.96723 0
M  V30 922 N 84.2517 0.741722 -1.39055 0
M  V30 923 C 85.4997 1.49818 -1.35643 0
M  V30 924 C 85.8207 1.94938 0.0491642 0
M  V30 925 O 85.0907 1.68505 0.999141 0
M  V30 926 H 83.6707 0.555755 -0.499144 0
M  V30 927 H 86.3327 0.880957 -1.73854 0
M  V30 928 H 85.4287 2.38348 -2.01486 0
M  V30 929 N 85.7298 1.2412 0.971189 0
M  V30 930 C 86.9598 1.10415 1.7462 0
M  V30 931 C 87.3678 -0.346462 1.86001 0
M  V30 932 O 86.7108 -1.25104 1.34517 0
M  V30 933 C 86.7728 1.66596 3.18568 0
M  V30 934 C 86.4368 3.15446 3.3067 0
M  V30 935 C 87.4338 4.12636 3.16271 0
M  V30 936 C 85.1188 3.55337 3.55022 0
M  V30 937 C 87.1128 5.47699 3.26044 0
M  V30 938 C 84.7998 4.90542 3.64434 0
M  V30 939 C 85.7978 5.86532 3.49956 0
M  V30 940 O 85.4858 7.19279 3.59017 0
M  V30 941 H 85.2178 0.386616 0.55453 0
M  V30 942 H 87.7718 1.64633 1.22821 0
M  V30 943 H 86.0018 1.06808 3.71657 0
M  V30 944 H 87.6908 1.48232 3.77865 0
M  V30 945 H 88.4568 3.8316 2.97344 0
M  V30 946 H 84.3358 2.8113 3.65359 0
M  V30 947 H 87.8798 6.22603 3.14661 0
M  V30 948 H 83.7768 5.19691 3.82873 0
M  V30 949 H 84.5448 7.27153 3.75754 0
M  V30 950 N 87.2079 -1.17134 1.05439 0
M  V30 951 C 88.6189 -1.69084 0.791676 0
M  V30 952 C 88.9699 -1.83822 -0.685839 0
M  V30 953 O 88.0949 -1.52757 -1.53278 0
M  V30 954 C 88.6899 -3.07119 1.4305 0
M  V30 955 C 87.2489 -3.56225 1.21577 0
M  V30 956 C 86.3959 -2.32421 1.51247 0
M  V30 957 H 89.3469 -1.01617 1.219 0
M  V30 958 H 89.3679 -3.71087 0.84112 0
M  V30 959 H 88.8799 -2.9636 2.50584 0
M  V30 960 H 86.9809 -3.72257 0.159787 0
M  V30 961 H 87.0939 -4.38837 1.92246 0
M  V30 962 H 85.4579 -2.3701 0.932653 0
M  V30 963 H 86.2409 -2.24268 2.5992 0
M  V30 964 N 88.686 -0.835752 -1.33615 0
M  V30 965 C 89.934 -0.429109 -1.97492 0
M  V30 966 C 90.255 1.01433 -1.66543 0
M  V30 967 O 89.525 1.70611 -0.962744 0
M  V30 968 H 88.105 -0.155686 -0.730596 0
M  V30 969 H 90.767 -1.06802 -1.63031 0
M  V30 970 H 89.863 -0.55861 -3.0706 0
M  V30 971 N 90.1641 1.46063 -0.591896 0
M  V30 972 C 91.1111 2.30399 0.136069 0
M  V30 973 C 92.0811 1.41169 0.875238 0
M  V30 974 O 93.2661 1.70112 0.86409 0
M  V30 975 C 90.4061 3.25804 1.13781 0
M  V30 976 C 89.5191 4.30134 0.401137 0
M  V30 977 C 88.6541 5.12659 1.39121 0
M  V30 978 C 87.6931 6.0873 0.641462 0
M  V30 979 N 86.8301 6.8409 1.58004 0
M  V30 980 H 91.6701 2.92118 -0.589144 0
M  V30 981 H 89.2071 1.43959 -0.302342 0
M  V30 982 H 91.1651 3.79569 1.73156 0
M  V30 983 H 89.7951 2.65872 1.83062 0
M  V30 984 H 88.8471 3.79152 -0.307826 0
M  V30 985 H 90.1591 4.98458 -0.184565 0
M  V30 986 H 89.3131 5.70747 2.05749 0
M  V30 987 H 88.0521 4.44316 2.01084 0
M  V30 988 H 87.0571 5.49786 -0.0385419 0
M  V30 989 H 88.2821 6.79095 0.0270945 0
M  V30 990 H 86.2281 6.18449 2.18761 0
M  V30 991 H 86.1451 7.48709 1.04738 0
M  V30 992 H 87.4131 7.4673 2.23639 0
M  V30 993 N 91.6422 0.330177 1.54103 0
M  V30 994 C 93.0582 -0.0222371 1.59585 0
M  V30 995 C 93.2582 -1.49902 1.34654 0
M  V30 996 O 92.3142 -2.25592 1.13421 0
M  V30 997 C 93.6272 0.401932 2.98002 0
M  V30 998 C 95.1752 0.353145 3.11001 0
M  V30 999 C 95.6502 0.752576 4.51775 0
M  V30 1000 N 97.1412 0.706239 4.57784 0
M  V30 1001 C 97.8762 0.987417 5.64834 0
M  V30 1002 N 97.3722 1.33607 6.79795 0
M  V30 1003 N 99.1652 0.91254 5.54643 0
M  V30 1004 H 91.3162 1.29228 1.68564 0
M  V30 1005 H 93.5792 0.525906 0.78875 0
M  V30 1006 H 93.2852 1.4311 3.21267 0
M  V30 1007 H 93.1592 -0.229699 3.765 0
M  V30 1008 H 95.5462 -0.666822 2.87467 0
M  V30 1009 H 95.6272 1.0198 2.34593 0
M  V30 1010 H 95.2712 1.77049 4.76042 0
M  V30 1011 H 95.2012 0.0635409 5.26562 0
M  V30 1012 H 97.6922 0.44889 3.75224 0
M  V30 1013 H 98.0052 1.53582 7.57385 0
M  V30 1014 H 96.3502 1.37439 6.81275 0
M  V30 1015 H 99.5412 0.639601 4.6371 0
M  V30 1016 H 99.7142 1.13503 6.37982 0
M  V30 1017 N 93.1203 -1.57491 0.0584922 0
M  V30 1018 C 94.3503 -1.9701 -0.622134 0
M  V30 1019 C 94.7583 -0.935034 -1.6448 0
M  V30 1020 O 94.1013 0.0882904 -1.83488 0
M  V30 1021 C 94.1633 -3.32794 -1.35972 0
M  V30 1022 C 93.8273 -4.54343 -0.492043 0
M  V30 1023 C 94.8243 -5.19323 0.244901 0
M  V30 1024 C 92.5093 -5.00534 -0.420821 0
M  V30 1025 C 94.5033 -6.28835 1.04143 0
M  V30 1026 C 92.1903 -6.09921 0.379389 0
M  V30 1027 C 93.1883 -6.73933 1.10919 0
M  V30 1028 O 92.8763 -7.81216 1.89623 0
M  V30 1029 H 92.6083 -0.653127 -0.174359 0
M  V30 1030 H 95.1623 -2.05029 0.123418 0
M  V30 1031 H 93.3923 -3.21351 -2.15105 0
M  V30 1032 H 95.0813 -3.5701 -1.93129 0
M  V30 1033 H 95.8473 -4.8459 0.19939 0
M  V30 1034 H 91.7263 -4.50496 -0.978474 0
M  V30 1035 H 95.2703 -6.7873 1.61157 0
M  V30 1036 H 91.1673 -6.44089 0.426512 0
M  V30 1037 H 91.9353 -7.98029 1.81913 0
M  V30 1038 N 94.5984 0.214957 -1.56127 0
M  V30 1039 C 95.8284 0.953707 -1.8327 0
M  V30 1040 C 96.2364 1.78181 -0.636262 0
M  V30 1041 O 95.5794 1.79191 0.404516 0
M  V30 1042 C 95.6414 1.91516 -3.0424 0
M  V30 1043 C 95.3054 1.27094 -4.38972 0
M  V30 1044 C 96.3024 0.657575 -5.15725 0
M  V30 1045 C 93.9874 1.28073 -4.85698 0
M  V30 1046 C 95.9814 0.0625968 -6.37369 0
M  V30 1047 C 93.6684 0.681914 -6.07283 0
M  V30 1048 C 94.6664 0.0739046 -6.8296 0
M  V30 1049 O 94.3544 -0.515582 -8.02245 0
M  V30 1050 H 94.0864 0.284764 -0.613095 0
M  V30 1051 H 96.6404 0.233283 -2.04071 0
M  V30 1052 H 94.8704 2.67475 -2.79274 0
M  V30 1053 H 96.5594 2.52001 -3.18198 0
M  V30 1054 H 97.3254 0.642288 -4.80728 0
M  V30 1055 H 93.2044 1.74337 -4.26764 0
M  V30 1056 H 96.7484 -0.412593 -6.96379 0
M  V30 1057 H 92.6454 0.694636 -6.41752 0
M  V30 1058 H 93.4134 -0.410544 -8.1747 0
M  V30 1059 N 96.0765 1.50051 0.48192 0
M  V30 1060 C 97.3245 1.60181 1.23234 0
M  V30 1061 C 97.6455 0.299176 1.92691 0
M  V30 1062 O 96.9155 -0.682708 1.83619 0
M  V30 1063 H 95.4955 0.590232 0.457859 0
M  V30 1064 H 98.1575 1.86775 0.556881 0
M  V30 1065 H 97.2535 2.40753 1.98607 0
M  V30 1066 N 97.5546 -0.734337 1.39446 0
M  V30 1067 C 98.8026 -1.49096 1.36436 0
M  V30 1068 C 99.1236 -1.94961 -0.0388255 0
M  V30 1069 O 98.3936 -1.69033 -0.990191 0
M  V30 1070 H 96.9736 -0.5531 0.502085 0
M  V30 1071 H 99.6356 -0.871725 1.74319 0
M  V30 1072 H 98.7316 -2.37276 2.02747 0
M  V30 1073 N 99.0327 -1.24633 -0.964593 0
M  V30 1074 C 100.273 -1.09981 -1.72289 0
M  V30 1075 C 100.637 0.354792 -1.88693 0
M  V30 1076 O 101.838 0.62289 -2.61483 0
M  V30 1077 C 100.109 -1.82262 -3.07434 0
M  V30 1078 S 101.668 -1.83379 -3.98645 0
M  V30 1079 H 98.4857 -0.393292 -0.59232 0
M  V30 1080 H 101.088 -1.58009 -1.15123 0
M  V30 1081 H 99.7917 -2.87206 -2.93157 0
M  V30 1082 H 99.3227 -1.3458 -3.69664 0
M  V30 1083 H 101.338 -0.903691 -4.87901 0
M  V30 1084 N 100.511 1.16574 -1.06058 0
M  V30 1085 C 101.421 2.2452 -0.680282 0
M  V30 1086 C 102.437 1.71348 0.302604 0
M  V30 1087 O 103.613 2.00822 0.152513 0
M  V30 1088 C 100.678 3.46629 -0.0700315 0
M  V30 1089 C 99.7388 4.14849 -1.10448 0
M  V30 1090 C 98.9718 5.31129 -0.523256 0
M  V30 1091 O 99.1948 5.66514 0.664709 0
M  V30 1092 O 98.1288 5.88526 -1.26179 0
M  V30 1093 H 101.955 2.59355 -1.58015 0
M  V30 1094 H 99.5398 1.24043 -0.832694 0
M  V30 1095 H 101.422 4.20543 0.268667 0
M  V30 1096 H 100.097 3.13573 0.803353 0
M  V30 1097 H 99.0038 3.42916 -1.49532 0
M  V30 1098 H 100.337 4.51954 -1.94931 0
M  V30 1099 N 101.989 0.842826 1.3317 0
M  V30 1100 C 103.219 0.453397 2.01564 0
M  V30 1101 C 103.627 -0.951147 1.63554 0
M  V30 1102 O 102.97 -1.63021 0.846746 0
M  V30 1103 C 103.032 0.499013 3.5602 0
M  V30 1104 C 102.696 1.86037 4.1742 0
M  V30 1105 C 103.693 2.82416 4.36506 0
M  V30 1106 C 101.378 2.15428 4.53757 0
M  V30 1107 C 103.372 4.06346 4.91082 0
M  V30 1108 C 101.059 3.39615 5.0804 0
M  V30 1109 C 102.057 4.3489 5.26649 0
M  V30 1110 O 101.745 5.5688 5.79776 0
M  V30 1111 H 101.477 0.177871 0.652179 0
M  V30 1112 H 104.031 1.13808 1.70988 0
M  V30 1113 H 102.261 -0.242467 3.85939 0
M  V30 1114 H 103.95 0.126852 4.05702 0
M  V30 1115 H 104.716 2.6101 4.08777 0
M  V30 1116 H 100.595 1.42061 4.38565 0
M  V30 1117 H 104.139 4.80722 5.05522 0
M  V30 1118 H 100.036 3.60876 5.352 0
M  V30 1119 H 100.804 5.58674 5.98185 0
M  V30 1120 N 103.467 -1.45747 0.599634 0
M  V30 1121 C 104.713 -2.02592 0.0918643 0
M  V30 1122 C 105.046 -1.46806 -1.27128 0
M  V30 1123 O 104.321 -0.639658 -1.83681 0
M  V30 1124 C 104.604 -3.60073 0.0443398 0
M  V30 1125 C 104.457 -4.26208 1.43759 0
M  V30 1126 C 105.776 -4.35309 -0.647608 0
M  V30 1127 H 102.895 -0.736175 0.034857 0
M  V30 1128 H 105.537 -1.73694 0.770081 0
M  V30 1129 H 103.687 -3.84823 -0.533224 0
M  V30 1130 H 105.359 -4.12668 2.06162 0
M  V30 1131 H 103.602 -3.84916 2.00056 0
M  V30 1132 H 104.273 -5.35069 1.35665 0
M  V30 1133 H 106.749 -4.15805 -0.156776 0
M  V30 1134 H 105.625 -5.45038 -0.649942 0
M  V30 1135 H 105.886 -4.07598 -1.71219 0
M  V30 1136 N 104.945 -0.338344 -1.53925 0
M  V30 1137 C 106.222 0.314774 -1.93051 0
M  V30 1138 C 106.602 1.68669 -1.26941 0
M  V30 1139 O 105.95 2.24636 -0.418445 0
M  V30 1140 C 106.16 0.392249 -3.46789 0
M  V30 1141 C 107.508 0.645554 -4.19664 0
M  V30 1142 O 108.532 0.474575 -3.53024 0
M  V30 1143 O 107.391 0.976408 -5.37707 0
M  V30 1144 H 104.485 0.182598 -0.80659 0
M  V30 1145 H 107.031 -0.389141 -1.65178 0
M  V30 1146 H 105.803 -0.570702 -3.87116 0
M  V30 1147 H 105.426 1.14316 -3.80812 0
M  V30 1148 N 106.423 1.57458 -0.0668435 0
M  V30 1149 C 107.672 1.92477 0.602947 0
M  V30 1150 C 107.985 0.948419 1.71068 0
M  V30 1151 O 109.191 1.19124 2.43971 0
M  V30 1152 C 107.647 3.41903 1.12383 0
M  V30 1153 C 107.255 4.47975 0.04737 0
M  V30 1154 C 108.999 3.85931 1.76797 0
M  V30 1155 C 106.906 5.88529 0.582022 0
M  V30 1156 H 105.836 0.718387 0.22899 0
M  V30 1157 H 108.487 1.82978 -0.138276 0
M  V30 1158 H 106.869 3.46459 1.91787 0
M  V30 1159 H 108.043 4.55029 -0.726978 0
M  V30 1160 H 106.358 4.13384 -0.500243 0
M  V30 1161 H 108.955 4.88322 2.17821 0
M  V30 1162 H 109.298 3.23029 2.62599 0
M  V30 1163 H 109.831 3.83958 1.04024 0
M  V30 1164 H 106.57 6.55065 -0.238721 0
M  V30 1165 H 106.09 5.85004 1.324 0
M  V30 1166 H 107.769 6.38258 1.05999 0
M  V30 1167 N 107.901 -0.206675 1.56239 0
M  V30 1168 C 109.147 -0.930218 1.80208 0
M  V30 1169 C 109.48 -1.83387 0.638981 0
M  V30 1170 O 108.755 -1.91119 -0.361066 0
M  V30 1171 C 109.038 -1.75641 3.1436 0
M  V30 1172 C 108.891 -0.878257 4.41142 0
M  V30 1173 C 110.21 -2.73129 3.45092 0
M  V30 1174 H 107.329 -0.336742 0.655571 0
M  V30 1175 H 109.971 -0.198222 1.88963 0
M  V30 1176 H 108.121 -2.38048 3.07027 0
M  V30 1177 H 109.793 -0.269787 4.6051 0
M  V30 1178 H 108.036 -0.184385 4.33408 0
M  V30 1179 H 108.707 -1.49106 5.3148 0
M  V30 1180 H 111.183 -2.20856 3.52649 0
M  V30 1181 H 110.059 -3.28028 4.40101 0
M  V30 1182 H 110.32 -3.51606 2.68003 0
M  V30 1183 N 109.379 -1.50304 -0.473955 0
M  V30 1184 C 110.289 -1.7174 -1.5982 0
M  V30 1185 C 111.305 -0.600457 -1.63311 0
M  V30 1186 O 112.481 -0.878441 -1.81233 0
M  V30 1187 C 109.546 -1.80427 -2.96052 0
M  V30 1188 C 108.607 -3.04148 -3.02972 0
M  V30 1189 C 107.84 -3.12411 -4.32706 0
M  V30 1190 O 108.063 -2.27542 -5.23049 0
M  V30 1191 O 106.997 -4.05113 -4.45159 0
M  V30 1192 H 110.823 -2.67035 -1.44657 0
M  V30 1193 H 108.408 -1.34366 -0.653148 0
M  V30 1194 H 110.29 -1.88338 -3.7697 0
M  V30 1195 H 108.965 -0.883156 -3.11419 0
M  V30 1196 H 107.872 -3.0174 -2.21142 0
M  V30 1197 H 109.205 -3.95829 -2.92541 0
M  V30 1198 N 110.857 0.726932 -1.39834 0
M  V30 1199 C 111.789 1.85147 -1.35104 0
M  V30 1200 C 112.802 1.60736 -0.258392 0
M  V30 1201 O 113.991 1.70821 -0.517931 0
M  V30 1202 C 111.091 3.21332 -1.07697 0
M  V30 1203 C 110.264 3.73033 -2.28396 0
M  V30 1204 C 109.323 4.87802 -1.97322 0
M  V30 1205 O 108.349 5.01043 -2.70083 0
M  V30 1206 N 109.551 5.72768 -0.944273 0
M  V30 1207 H 112.316 1.89706 -2.32017 0
M  V30 1208 H 109.877 0.908006 -1.3404 0
M  V30 1209 H 111.869 3.95691 -0.849144 0
M  V30 1210 H 110.439 3.11992 -0.194909 0
M  V30 1211 H 109.659 2.89934 -2.6708 0
M  V30 1212 H 110.947 4.0431 -3.08887 0
M  V30 1213 H 110.345 5.64669 -0.341427 0
M  V30 1214 H 108.902 6.4716 -0.776346 0
M  V30 1215 N 112.336 1.25143 0.95797 0
M  V30 1216 C 113.266 1.07711 2.07173 0
M  V30 1217 C 114.247 -0.0128462 1.70095 0
M  V30 1218 O 115.432 0.156061 1.93572 0
M  V30 1219 C 112.562 0.691503 3.40346 0
M  V30 1220 C 111.516 1.73132 3.9142 0
M  V30 1221 C 110.842 1.20049 5.21049 0
M  V30 1222 C 112.142 3.1294 4.1817 0
M  V30 1223 H 113.836 2.00873 2.22014 0
M  V30 1224 H 111.382 0.967191 1.06684 0
M  V30 1225 H 113.335 0.556505 4.17709 0
M  V30 1226 H 112.059 -0.275819 3.25433 0
M  V30 1227 H 110.718 1.8547 3.16222 0
M  V30 1228 H 110.366 0.223499 5.02503 0
M  V30 1229 H 110.066 1.89545 5.56189 0
M  V30 1230 H 111.59 1.07782 6.01012 0
M  V30 1231 H 113.004 3.03775 4.86203 0
M  V30 1232 H 111.401 3.79875 4.64559 0
M  V30 1233 H 112.471 3.6025 3.24573 0
M  V30 1234 N 113.814 -1.1601 1.06675 0
M  V30 1235 C 114.777 -2.18724 0.685001 0
M  V30 1236 C 115.777 -1.58496 -0.271246 0
M  V30 1237 O 116.967 -1.74119 -0.0531156 0
M  V30 1238 C 114.099 -3.40899 0.00853648 0
M  V30 1239 H 115.292 -2.54011 1.59431 0
M  V30 1240 H 112.845 -1.30352 0.862441 0
M  V30 1241 H 113.58 -3.11173 -0.913337 0
M  V30 1242 H 113.365 -3.8587 0.696204 0
M  V30 1243 H 114.855 -4.16886 -0.24414 0
M  V30 1244 N 115.292 -0.849877 -1.32721 0
M  V30 1245 C 116.541 -0.447175 -1.96681 0
M  V30 1246 C 116.854 1.00135 -1.68025 0
M  V30 1247 O 118.06 1.50926 -2.25685 0
M  V30 1248 C 116.516 -0.7487 -3.52026 0
M  V30 1249 C 116.124 -2.21264 -3.89546 0
M  V30 1250 C 117.868 -0.413487 -4.22481 0
M  V30 1251 C 115.775 -2.45763 -5.37917 0
M  V30 1252 H 114.705 -0.163486 -0.736063 0
M  V30 1253 H 117.356 -1.03999 -1.51183 0
M  V30 1254 H 115.738 -0.0853727 -3.95908 0
M  V30 1255 H 116.912 -2.91736 -3.56689 0
M  V30 1256 H 115.227 -2.5119 -3.32103 0
M  V30 1257 H 117.824 -0.574017 -5.3161 0
M  V30 1258 H 118.167 0.644492 -4.11281 0
M  V30 1259 H 118.7 -1.03251 -3.84167 0
M  V30 1260 H 115.439 -3.50168 -5.54132 0
M  V30 1261 H 114.959 -1.79864 -5.72197 0
M  V30 1262 H 116.638 -2.29471 -6.0494 0
M  V30 1263 N 116.77 1.45427 -0.607355 0
M  V30 1264 C 118.047 1.9557 -0.0344566 0
M  V30 1265 C 118.427 1.54979 1.43334 0
M  V30 1266 O 117.775 0.812241 2.13576 0
M  V30 1267 C 117.985 3.48226 -0.232321 0
M  V30 1268 C 119.333 4.2445 -0.113001 0
M  V30 1269 O 120.357 3.55829 -0.162431 0
M  V30 1270 O 119.216 5.465 0.00209442 0
M  V30 1271 H 116.31 0.826222 0.0358667 0
M  V30 1272 H 118.856 1.55594 -0.6774 0
M  V30 1273 H 117.628 3.70739 -1.25174 0
M  V30 1274 H 117.251 3.95092 0.445896 0
M  V30 1275 N 118.248 0.346503 1.53744 0
M  V30 1276 C 119.664 -0.00530975 1.59599 0
M  V30 1277 C 119.864 -1.48465 1.36236 0
M  V30 1278 O 118.92 -2.24376 1.15808 0
M  V30 1279 C 120.233 0.433516 2.97559 0
M  V30 1280 C 121.781 0.386111 3.10609 0
M  V30 1281 C 122.256 0.800451 4.50951 0
M  V30 1282 N 123.747 0.754753 4.5701 0
M  V30 1283 C 124.482 1.04727 5.63755 0
M  V30 1284 N 123.978 1.4081 6.7834 0
M  V30 1285 N 125.771 0.971316 5.53644 0
M  V30 1286 H 117.922 1.31009 1.67184 0
M  V30 1287 H 120.185 0.534242 0.783128 0
M  V30 1288 H 119.891 1.46509 3.19731 0
M  V30 1289 H 119.765 -0.189753 3.76722 0
M  V30 1290 H 122.152 -0.636295 2.88158 0
M  V30 1291 H 122.233 1.04462 2.33498 0
M  V30 1292 H 121.877 1.82088 4.74137 0
M  V30 1293 H 121.807 0.119386 5.26465 0
M  V30 1294 H 124.298 0.488662 3.74727 0
M  V30 1295 H 124.611 1.61607 7.55714 0
M  V30 1296 H 122.956 1.44657 6.79779 0
M  V30 1297 H 126.147 0.688748 4.63005 0
M  V30 1298 H 126.32 1.20263 6.36742 0
M  V30 1299 N 119.726 -1.57421 0.075193 0
M  V30 1300 C 120.689 -2.11791 -0.876203 0
M  V30 1301 C 121.689 -1.04268 -1.22412 0
M  V30 1302 O 122.879 -1.30242 -1.15684 0
M  V30 1303 C 120.011 -2.62207 -2.17854 0
M  V30 1304 H 121.204 -2.9716 -0.40444 0
M  V30 1305 H 118.757 -1.55333 -0.173557 0
M  V30 1306 H 119.492 -1.803 -2.6956 0
M  V30 1307 H 119.277 -3.40802 -1.93897 0
M  V30 1308 H 120.767 -3.04335 -2.85955 0
M  V30 1309 N 121.204 0.198386 -1.56346 0
M  V30 1310 C 122.151 1.24589 -1.94284 0
M  V30 1311 C 123.121 1.454 -0.802997 0
M  V30 1312 O 124.306 1.58588 -1.06087 0
M  V30 1313 C 121.446 2.58631 -2.28482 0
M  V30 1314 C 120.559 2.45426 -3.55514 0
M  V30 1315 C 119.694 3.7215 -3.79049 0
M  V30 1316 C 118.733 3.53763 -4.99518 0
M  V30 1317 N 117.87 4.72491 -5.19323 0
M  V30 1318 H 122.71 0.915356 -2.83593 0
M  V30 1319 H 120.247 0.440629 -1.40346 0
M  V30 1320 H 122.205 3.3672 -2.46324 0
M  V30 1321 H 120.835 2.89734 -1.42317 0
M  V30 1322 H 119.887 1.58652 -3.45737 0
M  V30 1323 H 121.199 2.27772 -4.43758 0
M  V30 1324 H 120.353 4.58679 -3.97113 0
M  V30 1325 H 119.092 3.92754 -2.89129 0
M  V30 1326 H 118.097 2.65619 -4.8138 0
M  V30 1327 H 119.322 3.34607 -5.90944 0
M  V30 1328 H 117.268 4.93365 -4.3235 0
M  V30 1329 H 117.185 4.5765 -6.01741 0
M  V30 1330 H 118.453 5.6038 -5.41843 0
M  V30 1331 N 122.682 1.50554 0.465978 0
M  V30 1332 C 123.592 1.72585 1.58907 0
M  V30 1333 C 124.608 0.60911 1.6299 0
M  V30 1334 O 125.784 0.88804 1.80765 0
M  V30 1335 C 122.849 1.81995 2.95091 0
M  V30 1336 C 121.91 3.05751 3.01355 0
M  V30 1337 C 121.143 3.14702 4.31043 0
M  V30 1338 O 121.366 2.30313 5.21835 0
M  V30 1339 O 120.3 4.07468 4.43005 0
M  V30 1340 H 124.126 2.67799 1.43239 0
M  V30 1341 H 121.711 1.34711 0.646013 0
M  V30 1342 H 123.593 1.90335 3.75966 0
M  V30 1343 H 122.268 0.899659 3.10947 0
M  V30 1344 H 121.175 3.02908 2.19539 0
M  V30 1345 H 122.508 3.97375 2.90437 0
M  V30 1346 N 124.16 -0.719506 1.40217 0
M  V30 1347 C 125.09 -1.8465 1.42922 0
M  V30 1348 C 126.071 -1.67599 0.29062 0
M  V30 1349 O 127.256 -1.87688 0.498677 0
M  V30 1350 C 124.386 -3.22565 1.28722 0
M  V30 1351 C 123.34 -3.54281 2.40144 0
M  V30 1352 C 122.666 -4.91298 2.11023 0
M  V30 1353 C 123.966 -3.55676 3.82481 0
M  V30 1354 H 125.66 -1.82644 2.37237 0
M  V30 1355 H 123.206 -0.877305 1.1419 0
M  V30 1356 H 125.159 -4.01095 1.29232 0
M  V30 1357 H 123.883 -3.25137 0.308811 0
M  V30 1358 H 122.542 -2.78088 2.38877 0
M  V30 1359 H 122.19 -4.90468 1.11582 0
M  V30 1360 H 121.89 -5.13485 2.8567 0
M  V30 1361 H 123.414 -5.72166 2.13209 0
M  V30 1362 H 124.828 -4.24254 3.85592 0
M  V30 1363 H 123.225 -3.89388 4.56614 0
M  V30 1364 H 124.295 -2.55144 4.12346 0
M  V30 1365 N 125.638 -1.25649 -0.95132 0
M  V30 1366 C 126.885 -1.10594 -1.69633 0
M  V30 1367 C 127.213 0.352515 -1.91279 0
M  V30 1368 O 126.468 1.27601 -1.4838 0
M  V30 1369 C 126.767 -1.80909 -3.08231 0
M  V30 1370 C 126.433 -3.30825 -3.06375 0
M  V30 1371 C 125.095 -3.71722 -3.05576 0
M  V30 1372 C 127.447 -4.26589 -2.99452 0
M  V30 1373 C 124.775 -5.06788 -2.95606 0
M  V30 1374 C 127.127 -5.61683 -2.91024 0
M  V30 1375 C 125.791 -6.01904 -2.88562 0
M  V30 1376 H 125.061 -0.404691 -0.620731 0
M  V30 1377 H 127.708 -1.55964 -1.11119 0
M  V30 1378 H 126.013 -1.27979 -3.70309 0
M  V30 1379 H 127.71 -1.6671 -3.64704 0
M  V30 1380 H 124.3 -2.98287 -3.07771 0
M  V30 1381 H 128.484 -3.95982 -2.99185 0
M  V30 1382 H 123.74 -5.37126 -2.92071 0
M  V30 1383 H 127.914 -6.35578 -2.84629 0
M  V30 1384 H 125.541 -7.06521 -2.80593 0
M  V30 1385 N 127.117 1.15442 -1.07289 0
M  V30 1386 C 128.365 1.85845 -0.794096 0
M  V30 1387 C 128.686 1.82692 0.681809 0
M  V30 1388 O 127.956 1.26741 1.49377 0
M  V30 1389 H 126.536 0.688089 -0.290763 0
M  V30 1390 H 129.198 1.39947 -1.3565 0
M  V30 1391 H 128.294 2.91001 -1.12804 0
M  V30 1392 N 128.595 0.856903 1.32268 0
M  V30 1393 C 129.558 0.308171 2.27119 0
M  V30 1394 C 130.558 -0.533421 1.51695 0
M  V30 1395 O 131.748 -0.344607 1.70757 0
M  V30 1396 C 128.88 -0.563757 3.36206 0
M  V30 1397 H 130.073 1.14535 2.77167 0
M  V30 1398 H 127.626 0.631421 1.42978 0
M  V30 1399 H 128.361 -1.42266 2.91429 0
M  V30 1400 H 128.146 0.0386749 3.92081 0
M  V30 1401 H 129.636 -0.940386 4.06874 0
M  V30 1402 N 130.073 -1.45103 0.615059 0
M  V30 1403 C 131.35 -1.95549 0.0448276 0
M  V30 1404 C 131.73 -1.55737 -1.4251 0
M  V30 1405 O 131.078 -0.823556 -2.13143 0
M  V30 1406 C 131.288 -3.48098 0.250785 0
M  V30 1407 C 132.636 -4.24384 0.135509 0
M  V30 1408 O 133.66 -3.55738 0.181299 0
M  V30 1409 O 132.519 -5.46493 0.0268878 0
M  V30 1410 H 129.613 -0.8264 -0.0314845 0
M  V30 1411 H 132.159 -1.55232 0.685642 0
M  V30 1412 H 130.931 -3.7007 1.27139 0
M  V30 1413 H 130.554 -3.95323 -0.424937 0
M  V30 1414 N 131.551 -0.354651 -1.53558 0
M  V30 1415 C 132.781 0.239167 -2.05211 0
M  V30 1416 C 133.189 1.43879 -1.22863 0
M  V30 1417 O 132.532 1.81857 -0.259565 0
M  V30 1418 C 132.594 0.707251 -3.52474 0
M  V30 1419 C 132.258 -0.374212 -4.55465 0
M  V30 1420 C 133.255 -1.22054 -5.0537 0
M  V30 1421 C 130.94 -0.531323 -4.99482 0
M  V30 1422 C 132.934 -2.20942 -5.97882 0
M  V30 1423 C 130.621 -1.52358 -5.91802 0
M  V30 1424 C 131.619 -2.36108 -6.40892 0
M  V30 1425 O 131.307 -3.33643 -7.31394 0
M  V30 1426 H 131.039 0.0479716 -0.674296 0
M  V30 1427 H 133.593 -0.508121 -1.99016 0
M  V30 1428 H 131.823 1.50596 -3.56171 0
M  V30 1429 H 133.512 1.22285 -3.87042 0
M  V30 1430 H 134.278 -1.1103 -4.7212 0
M  V30 1431 H 130.157 0.110738 -4.60867 0
M  V30 1432 H 133.701 -2.86348 -6.36121 0
M  V30 1433 H 129.598 -1.63434 -6.24467 0
M  V30 1434 H 130.366 -3.29244 -7.4936 0
M  V30 1435 N 133.029 1.57378 -0.0835403 0
M  V30 1436 C 133.992 2.12252 0.864959 0
M  V30 1437 C 134.992 1.04916 1.21858 0
M  V30 1438 O 136.182 1.30853 1.14991 0
M  V30 1439 C 133.314 2.63358 2.16461 0
M  V30 1440 H 134.507 2.97371 0.388676 0
M  V30 1441 H 132.06 1.55423 0.165317 0
M  V30 1442 H 132.795 1.81727 2.686 0
M  V30 1443 H 132.58 3.41826 1.92087 0
M  V30 1444 H 134.07 3.05847 2.84337 0
M  V30 1445 N 134.507 -0.190092 1.56449 0
M  V30 1446 C 135.455 -1.25501 1.95837 0
M  V30 1447 C 136.449 -1.4685 0.844485 0
M  V30 1448 O 137.655 -1.47651 1.02952 0
M  V30 1449 H 134.03 -0.421447 0.622805 0
M  V30 1450 H 136.001 -0.895821 2.84636 0
M  V30 1451 C 134.75 -2.59124 2.31841 0
M  V30 1452 H 134.073 -2.43514 3.17082 0
M  V30 1453 H 135.513 -3.32371 2.6326 0
M  V30 1454 C 133.972 -3.16488 1.15486 0
M  V30 1455 O 134.502 -3.99365 0.432535 0
M  V30 1456 N 132.708 -2.75305 0.930349 0
M  V30 1457 H 132.255 -2.08013 1.51948 0
M  V30 1458 H 132.213 -3.14024 0.153634 0
M  V30 1459 N 135.985 -1.50799 -0.457987 0
M  V30 1460 C 137.231 -1.62683 -1.21088 0
M  V30 1461 C 137.564 -0.332268 -1.91336 0
M  V30 1462 O 136.839 0.667043 -1.82704 0
M  V30 1463 C 137.122 -2.81615 -2.24422 0
M  V30 1464 C 136.975 -4.20989 -1.58392 0
M  V30 1465 C 138.294 -2.96085 -3.2561 0
M  V30 1466 H 135.413 -0.592087 -0.438864 0
M  V30 1467 H 138.055 -1.83225 -0.50286 0
M  V30 1468 H 136.205 -2.64231 -2.84806 0
M  V30 1469 H 137.877 -4.49994 -1.01504 0
M  V30 1470 H 136.12 -4.24641 -0.886704 0
M  V30 1471 H 136.791 -5.0016 -2.33547 0
M  V30 1472 H 139.267 -3.12042 -2.75262 0
M  V30 1473 H 138.143 -3.80902 -3.95228 0
M  V30 1474 H 138.404 -2.0726 -3.90507 0
M  V30 1475 N 137.463 0.71206 -1.40597 0
M  V30 1476 C 138.395 1.83704 -1.37061 0
M  V30 1477 C 139.408 1.60453 -0.275426 0
M  V30 1478 O 140.597 1.70262 -0.53602 0
M  V30 1479 C 137.697 3.20172 -1.11099 0
M  V30 1480 C 136.87 3.7059 -2.3234 0
M  V30 1481 C 135.929 4.85681 -2.02485 0
M  V30 1482 O 134.955 4.9815 -2.75382 0
M  V30 1483 N 136.157 5.71735 -1.00497 0
M  V30 1484 H 138.922 1.87235 -2.34016 0
M  V30 1485 H 136.483 0.893739 -1.34996 0
M  V30 1486 H 138.475 3.94768 -0.891064 0
M  V30 1487 H 137.045 3.11767 -0.227989 0
M  V30 1488 H 136.265 2.87085 -2.7014 0
M  V30 1489 H 137.553 4.01011 -3.13157 0
M  V30 1490 H 136.951 5.64275 -0.401298 0
M  V30 1491 H 135.508 6.463 -0.844942 0
M  V30 1492 N 138.941 1.26152 0.944643 0
M  V30 1493 C 140.352 1.10454 1.50522 0
M  V30 1494 C 140.703 -0.31635 1.93633 0
M  V30 1495 O 139.828 -1.20746 1.79581 0
M  V30 1496 C 140.423 1.99891 2.73549 0
M  V30 1497 C 138.982 1.88348 3.25886 0
M  V30 1498 C 138.129 1.93447 1.9868 0
M  V30 1499 H 141.08 1.39292 0.760489 0
M  V30 1500 H 141.101 1.54477 3.47732 0
M  V30 1501 H 140.613 3.03297 2.42141 0
M  V30 1502 H 138.714 0.878636 3.62092 0
M  V30 1503 H 138.827 2.73696 3.93227 0
M  V30 1504 H 137.191 1.37456 2.14425 0
M  V30 1505 H 137.974 2.98476 1.69607 0
M  V30 1506 N 140.419 -1.14872 1.07899 0
M  V30 1507 C 141.369 -2.17809 0.674027 0
M  V30 1508 C 142.353 -1.58008 -0.303699 0
M  V30 1509 O 143.545 -1.76616 -0.11654 0
M  V30 1510 C 140.674 -3.43208 0.0793318 0
M  V30 1511 C 139.76 -4.10051 1.08253 0
M  V30 1512 N 140.151 -4.52296 2.2641 0
M  V30 1513 C 138.449 -4.36469 0.917124 0
M  V30 1514 C 139.15 -5.04199 2.901 0
M  V30 1515 N 138.126 -4.98088 2.17736 0
M  V30 1516 H 141.928 -2.48207 1.57386 0
M  V30 1517 H 139.442 -1.315 0.952976 0
M  V30 1518 H 141.439 -4.16272 -0.228719 0
M  V30 1519 H 140.099 -3.14291 -0.815551 0
M  V30 1520 H 141.11 -4.45504 2.64096 0
M  V30 1521 H 137.787 -4.17432 0.0756078 0
M  V30 1522 H 139.177 -5.46802 3.90458 0
M  V30 1523 N 141.898 -0.863906 -1.31812 0
M  V30 1524 C 143.123 -0.48527 -2.01643 0
M  V30 1525 C 143.548 0.913058 -1.64453 0
M  V30 1526 O 142.906 1.6014 -0.849985 0
M  V30 1527 C 142.954 -0.642625 -3.54828 0
M  V30 1528 O 142.058 0.320659 -4.11151 0
M  V30 1529 H 141.399 -0.193793 -0.635091 0
M  V30 1530 H 143.929 -1.16565 -1.68148 0
M  V30 1531 H 143.939 -0.533628 -4.04495 0
M  V30 1532 H 142.614 -1.66227 -3.81237 0
M  V30 1533 H 141.191 0.167126 -3.72525 0
M  V30 1534 N 143.376 1.44774 -0.622745 0
M  V30 1535 C 144.624 2.01721 -0.123655 0
M  V30 1536 C 144.945 1.49172 1.25589 0
M  V30 1537 O 144.215 0.691974 1.83272 0
M  V30 1538 H 142.795 0.745777 -0.0427225 0
M  V30 1539 H 145.457 1.77382 -0.807559 0
M  V30 1540 H 144.553 3.11984 -0.0849534 0
M  V30 1541 N 144.854 0.36279 1.53368 0
M  V30 1542 C 146.079 -0.231226 2.06107 0
M  V30 1543 C 146.504 -1.419 1.23474 0
M  V30 1544 O 145.862 -1.79524 0.253128 0
M  V30 1545 C 145.91 -0.605523 3.5548 0
M  V30 1546 O 145.014 -1.70312 3.7559 0
M  V30 1547 H 144.355 -0.034327 0.663112 0
M  V30 1548 H 146.885 0.522584 1.97814 0
M  V30 1549 H 146.895 -0.877314 3.98456 0
M  V30 1550 H 145.57 0.263004 4.15068 0
M  V30 1551 H 144.147 -1.4271 3.44512 0
M  V30 1552 N 146.332 -1.57332 0.0918853 0
M  V30 1553 C 147.264 -2.10869 -0.898168 0
M  V30 1554 C 148.277 -1.04521 -1.24817 0
M  V30 1555 O 149.466 -1.31977 -1.20184 0
M  V30 1556 C 146.566 -2.57083 -2.2082 0
M  V30 1557 C 145.739 -3.87229 -2.03402 0
M  V30 1558 C 144.798 -4.19324 -3.17889 0
M  V30 1559 O 143.824 -4.88598 -2.91994 0
M  V30 1560 N 145.026 -3.74471 -4.43567 0
M  V30 1561 H 147.791 -2.96439 -0.440943 0
M  V30 1562 H 145.352 -1.61631 -0.0933064 0
M  V30 1563 H 147.344 -2.75602 -2.96354 0
M  V30 1564 H 145.914 -1.76541 -2.57977 0
M  V30 1565 H 145.134 -3.7789 -1.12218 0
M  V30 1566 H 146.422 -4.72379 -1.89038 0
M  V30 1567 H 145.82 -3.18546 -4.67488 0
M  V30 1568 H 144.377 -3.98151 -5.16061 0
M  V30 1569 N 147.81 0.181792 -1.56548 0
M  V30 1570 C 148.773 1.20894 -1.94724 0
M  V30 1571 C 149.773 1.37738 -0.829747 0
M  V30 1572 O 150.963 1.35323 -1.09697 0
M  V30 1573 C 148.095 2.57593 -2.23291 0
M  V30 1574 H 149.288 0.882275 -2.86629 0
M  V30 1575 H 146.841 0.423838 -1.50444 0
M  V30 1576 H 147.576 2.95291 -1.34067 0
M  V30 1577 H 147.361 2.46735 -3.04736 0
M  V30 1578 H 148.851 3.31637 -2.53785 0
M  V30 1579 N 149.288 1.51039 0.449983 0
M  V30 1580 C 150.236 1.71995 1.5659 0
M  V30 1581 C 151.23 0.586029 1.5894 0
M  V30 1582 O 152.436 0.76709 1.62837 0
M  V30 1583 H 148.811 0.543233 0.520001 0
M  V30 1584 H 150.782 2.65562 1.36085 0
M  V30 1585 C 149.531 1.8506 2.9436 0
M  V30 1586 H 148.854 2.71712 2.93279 0
M  V30 1587 H 150.294 2.0374 3.71842 0
M  V30 1588 C 148.753 0.607277 3.31382 0
M  V30 1589 O 149.283 -0.243903 4.00959 0
M  V30 1590 N 147.489 0.455073 2.87015 0
M  V30 1591 H 147.036 1.14879 2.30566 0
M  V30 1592 H 146.994 -0.375611 3.12148 0
M  V30 1593 N 150.766 -0.704594 1.40972 0
M  V30 1594 C 152.013 -1.46458 1.39844 0
M  V30 1595 C 152.341 -1.94499 0.00447594 0
M  V30 1596 O 151.596 -1.69275 -0.982057 0
M  V30 1597 C 151.895 -2.698 2.34399 0
M  V30 1598 C 151.561 -2.40464 3.81429 0
M  V30 1599 C 150.223 -2.32174 4.21484 0
M  V30 1600 C 152.575 -2.16086 4.74296 0
M  V30 1601 C 149.903 -1.97589 5.52427 0
M  V30 1602 C 152.255 -1.83011 6.05549 0
M  V30 1603 C 150.919 -1.7321 6.44635 0
M  V30 1604 H 150.189 -0.535927 0.511725 0
M  V30 1605 H 152.836 -0.806124 1.73706 0
M  V30 1606 H 151.141 -3.40536 1.93759 0
M  V30 1607 H 152.838 -3.27919 2.30804 0
M  V30 1608 H 149.428 -2.47808 3.49699 0
M  V30 1609 H 153.612 -2.2144 4.4416 0
M  V30 1610 H 148.868 -1.88547 5.81601 0
M  V30 1611 H 153.042 -1.63164 6.77016 0
M  V30 1612 H 150.669 -1.46179 7.46013 0
M  V30 1613 N 152.244 -1.26651 -0.937939 0
M  V30 1614 C 153.207 -1.08546 -2.01867 0
M  V30 1615 C 154.207 -0.0327327 -1.60767 0
M  V30 1616 O 155.397 -0.276427 -1.71993 0
M  V30 1617 C 152.529 -0.651711 -3.34613 0
M  V30 1618 H 153.722 -2.04502 -2.1936 0
M  V30 1619 H 151.275 -1.09294 -1.11734 0
M  V30 1620 H 152.01 0.309696 -3.22818 0
M  V30 1621 H 151.795 -1.41189 -3.65798 0
M  V30 1622 H 153.285 -0.546973 -4.14002 0
M  V30 1623 N 153.722 1.14298 -1.08507 0
M  V30 1624 C 154.968 1.85633 -0.816581 0
M  V30 1625 C 155.301 1.82784 0.656021 0
M  V30 1626 O 154.576 1.25926 1.48233 0
M  V30 1627 C 154.859 3.34223 -1.34041 0
M  V30 1628 C 154.712 3.45639 -2.87843 0
M  V30 1629 C 156.031 4.29356 -0.9665 0
M  V30 1630 H 153.15 0.67402 -0.298104 0
M  V30 1631 H 155.792 1.34214 -1.34487 0
M  V30 1632 H 153.942 3.78144 -0.89104 0
M  V30 1633 H 155.614 3.10498 -3.41158 0
M  V30 1634 H 153.857 2.86817 -3.25451 0
M  V30 1635 H 154.528 4.50089 -3.19569 0
M  V30 1636 H 157.004 3.93457 -1.35391 0
M  V30 1637 H 155.88 5.3178 -1.3602 0
M  V30 1638 H 156.141 4.41919 0.126362 0
M  V30 1639 N 155.201 0.870884 1.31352 0
M  V30 1640 C 156.431 0.496049 2.00557 0
M  V30 1641 C 156.839 -0.916241 1.65534 0
M  V30 1642 O 156.182 -1.61188 0.881134 0
M  V30 1643 C 156.244 0.574418 3.54881 0
M  V30 1644 C 155.908 1.94849 4.1338 0
M  V30 1645 C 156.905 2.91611 4.30417 0
M  V30 1646 C 154.59 2.25005 4.49086 0
M  V30 1647 C 156.584 4.16672 4.82352 0
M  V30 1648 C 154.271 3.50315 5.00722 0
M  V30 1649 C 155.269 4.45964 5.17306 0
M  V30 1650 O 154.957 5.69052 5.67833 0
M  V30 1651 H 154.689 0.191664 0.64826 0
M  V30 1652 H 157.243 1.17409 1.68536 0
M  V30 1653 H 155.473 -0.160549 3.86367 0
M  V30 1654 H 157.162 0.212879 4.05341 0
M  V30 1655 H 157.928 2.69622 4.03149 0
M  V30 1656 H 153.807 1.51332 4.35453 0
M  V30 1657 H 157.351 4.91336 4.95211 0
M  V30 1658 H 153.248 3.72147 5.27424 0
M  V30 1659 H 154.016 5.71236 5.86201 0
M  V30 1660 N 156.679 -1.44442 0.630414 0
M  V30 1661 C 157.907 -2.06414 0.141671 0
M  V30 1662 C 158.322 -1.47105 -1.18345 0
M  V30 1663 O 157.679 -0.593662 -1.72574 0
M  V30 1664 C 157.73 -3.61494 0.0199784 0
M  V30 1665 O 157.451 -4.18594 1.29269 0
M  V30 1666 C 158.952 -4.40499 -0.497544 0
M  V30 1667 H 156.172 -0.666292 0.0793452 0
M  V30 1668 H 158.716 -1.85323 0.864614 0
M  V30 1669 H 156.871 -3.8185 -0.653402 0
M  V30 1670 H 157.285 -5.12026 1.13707 0
M  V30 1671 H 158.759 -5.49433 -0.531708 0
M  V30 1672 H 159.236 -4.11895 -1.52445 0
M  V30 1673 H 159.842 -4.25061 0.142562 0
M  V30 1674 N 158.157 -0.370918 -1.53173 0
M  V30 1675 C 159.12 0.460778 -2.24521 0
M  V30 1676 C 160.12 1.00536 -1.25496 0
M  V30 1677 O 161.31 0.890266 -1.49733 0
M  V30 1678 C 158.442 1.64457 -2.98608 0
M  V30 1679 H 159.635 -0.163613 -2.99453 0
M  V30 1680 H 157.188 -0.122699 -1.55818 0
M  V30 1681 H 157.923 2.30691 -2.2793 0
M  V30 1682 H 157.708 1.26099 -3.7127 0
M  V30 1683 H 159.198 2.23384 -3.5283 0
M  V30 1684 N 159.635 1.57281 -0.100228 0
M  V30 1685 C 160.565 2.17328 0.853857 0
M  V30 1686 C 161.546 1.10804 1.2906 0
M  V30 1687 O 162.731 1.38963 1.35657 0
M  V30 1688 C 159.861 2.75772 2.11109 0
M  V30 1689 C 158.815 3.87713 1.81279 0
M  V30 1690 C 158.141 4.32882 3.13874 0
M  V30 1691 C 159.441 5.10677 1.09574 0
M  V30 1692 H 161.135 2.97305 0.353545 0
M  V30 1693 H 158.681 1.43009 0.168612 0
M  V30 1694 H 160.634 3.16433 2.78296 0
M  V30 1695 H 159.358 1.93057 2.63432 0
M  V30 1696 H 158.017 3.476 1.16489 0
M  V30 1697 H 157.665 3.47051 3.64095 0
M  V30 1698 H 157.365 5.08358 2.94696 0
M  V30 1699 H 158.889 4.7618 3.82211 0
M  V30 1700 H 160.303 5.48474 1.66879 0
M  V30 1701 H 158.7 5.91615 1.00557 0
M  V30 1702 H 159.77 4.84835 0.0793299 0
M  V30 1703 N 161.113 -0.173488 1.56642 0
M  V30 1704 C 162.043 -1.2171 1.99271 0
M  V30 1705 C 163.024 -1.46289 0.867959 0
M  V30 1706 O 164.209 -1.5766 1.13388 0
M  V30 1707 C 161.339 -2.55651 2.35074 0
M  V30 1708 C 160.293 -2.45645 3.50489 0
M  V30 1709 C 159.619 -3.84056 3.72028 0
M  V30 1710 C 160.919 -1.96302 4.84007 0
M  V30 1711 H 162.613 -0.86275 2.867 0
M  V30 1712 H 160.159 -0.413571 1.37933 0
M  V30 1713 H 162.112 -3.2886 2.63494 0
M  V30 1714 H 160.836 -2.92869 1.44552 0
M  V30 1715 H 159.495 -1.7489 3.22194 0
M  V30 1716 H 159.143 -4.18664 2.788 0
M  V30 1717 H 158.843 -3.7823 4.49684 0
M  V30 1718 H 160.367 -4.58854 4.02846 0
M  V30 1719 H 161.781 -2.59284 5.11317 0
M  V30 1720 H 160.178 -2.01429 5.65284 0
M  V30 1721 H 161.248 -0.917226 4.76146 0
M  V30 1722 N 162.591 -1.51276 -0.441967 0
M  V30 1723 C 163.501 -1.75092 -1.56141 0
M  V30 1724 C 164.517 -0.634963 -1.62001 0
M  V30 1725 O 165.693 -0.916686 -1.79329 0
M  V30 1726 C 162.758 -1.86666 -2.92158 0
M  V30 1727 C 161.819 -3.10506 -2.96453 0
M  V30 1728 C 161.052 -3.21519 -4.25982 0
M  V30 1729 O 161.275 -2.38586 -5.18105 0
M  V30 1730 O 160.209 -4.14465 -4.36466 0
M  V30 1731 H 164.035 -2.70044 -1.38961 0
M  V30 1732 H 161.62 -1.35722 -0.624499 0
M  V30 1733 H 163.502 -1.96292 -3.72891 0
M  V30 1734 H 162.177 -0.949014 -3.09476 0
M  V30 1735 H 161.084 -3.06363 -2.14692 0
M  V30 1736 H 162.417 -4.01945 -2.84079 0
M  V30 1737 N 164.069 0.697108 -1.41344 0
M  V30 1738 C 165.48 1.27697 -1.36199 0
M  V30 1739 C 165.831 1.9615 -0.0443463 0
M  V30 1740 O 164.956 1.98689 0.857419 0
M  V30 1741 C 165.551 2.32223 -2.46694 0
M  V30 1742 C 164.11 2.8579 -2.44952 0
M  V30 1743 C 163.257 1.59807 -2.26621 0
M  V30 1744 H 166.208 0.491968 -1.50882 0
M  V30 1745 H 166.229 3.1348 -2.15664 0
M  V30 1746 H 165.741 1.82373 -3.42581 0
M  V30 1747 H 163.842 3.3982 -1.52817 0
M  V30 1748 H 163.955 3.36325 -3.41207 0
M  V30 1749 H 162.319 1.8556 -1.7447 0
M  V30 1750 H 163.102 1.11956 -3.24532 0
M  V30 1751 N 165.547 1.27147 0.931209 0
M  V30 1752 C 166.795 1.13055 1.6752 0
M  V30 1753 C 167.116 -0.324791 1.92276 0
M  V30 1754 O 166.386 -1.22775 1.52654 0
M  V30 1755 H 164.966 0.415391 0.620854 0
M  V30 1756 H 167.628 1.59623 1.11833 0
M  V30 1757 H 166.724 1.65694 2.64485 0
M  V30 1758 N 167.025 -1.13721 1.09112 0
M  V30 1759 C 168.302 -1.81155 0.737706 0
M  V30 1760 C 168.682 -1.96253 -0.777683 0
M  V30 1761 O 168.03 -1.52807 -1.69889 0
M  V30 1762 C 168.24 -3.16392 1.47299 0
M  V30 1763 C 169.588 -3.91787 1.63671 0
M  V30 1764 O 170.612 -3.26005 1.43524 0
M  V30 1765 O 169.471 -5.0977 1.96969 0
M  V30 1766 H 166.565 -0.783518 0.26463 0
M  V30 1767 H 169.111 -1.20676 1.19312 0
M  V30 1768 H 167.883 -3.0061 2.50498 0
M  V30 1769 H 167.506 -3.8457 1.00953 0
M  V30 1770 N 168.503 -0.877838 -1.30888 0
M  V30 1771 C 169.731 -0.507414 -2.00581 0
M  V30 1772 C 170.146 0.902216 -1.65848 0
M  V30 1773 O 169.503 1.59225 -0.891831 0
M  V30 1774 C 169.554 -0.664162 -3.55347 0
M  V30 1775 O 169.275 -2.01829 -3.8884 0
M  V30 1776 C 170.776 -0.295787 -4.42312 0
M  V30 1777 H 167.996 -0.196866 -0.641471 0
M  V30 1778 H 170.54 -1.18117 -1.66939 0
M  V30 1779 H 168.695 -0.0378619 -3.87381 0
M  V30 1780 H 169.109 -2.03174 -4.8355 0
M  V30 1781 H 170.583 -0.456388 -5.5011 0
M  V30 1782 H 171.06 0.765663 -4.32475 0
M  V30 1783 H 171.666 -0.898113 -4.15709 0
M  V30 1784 N 169.982 1.44106 -0.638065 0
M  V30 1785 C 171.228 2.02277 -0.145546 0
M  V30 1786 C 171.561 1.50125 1.23191 0
M  V30 1787 O 170.836 0.688133 1.8192 0
M  V30 1788 C 171.119 3.59829 -0.139791 0
M  V30 1789 C 170.972 4.22247 -1.55008 0
M  V30 1790 C 172.291 4.36873 0.531966 0
M  V30 1791 H 169.41 0.734992 -0.0543632 0
M  V30 1792 H 172.052 1.71592 -0.815863 0
M  V30 1793 H 170.202 3.86102 0.431007 0
M  V30 1794 H 171.874 4.07057 -2.1703 0
M  V30 1795 H 170.117 3.79476 -2.10191 0
M  V30 1796 H 170.788 5.31284 -1.49804 0
M  V30 1797 H 173.264 4.16074 0.0464781 0
M  V30 1798 H 172.14 5.4657 0.505206 0
M  V30 1799 H 172.401 4.11995 1.60352 0
M  V30 1800 N 171.46 0.379036 1.52974 0
M  V30 1801 C 172.39 -0.452706 2.29069 0
M  V30 1802 C 173.371 -1.07237 1.32039 0
M  V30 1803 O 174.556 -1.08708 1.60923 0
M  V30 1804 C 171.686 -1.5856 3.08992 0
M  V30 1805 C 170.64 -1.0925 4.13822 0
M  V30 1806 C 169.966 -2.31668 4.81907 0
M  V30 1807 C 171.266 -0.167702 5.22031 0
M  V30 1808 H 172.96 0.182181 2.98845 0
M  V30 1809 H 170.506 0.0890592 1.43724 0
M  V30 1810 H 172.459 -2.1742 3.6098 0
M  V30 1811 H 171.183 -2.24792 2.36931 0
M  V30 1812 H 169.842 -0.526494 3.628 0
M  V30 1813 H 169.49 -2.96386 4.06404 0
M  V30 1814 H 169.19 -1.9934 5.52754 0
M  V30 1815 H 170.714 -2.91189 5.36695 0
M  V30 1816 H 172.128 -0.664186 5.6944 0
M  V30 1817 H 170.525 0.0653265 6.00064 0
M  V30 1818 H 171.595 0.786347 4.78482 0
M  V30 1819 N 172.938 -1.57226 0.108567 0
M  V30 1820 C 174.186 -1.94448 -0.550853 0
M  V30 1821 C 174.507 -0.992074 -1.67878 0
M  V30 1822 O 173.777 -0.0465 -1.95845 0
M  V30 1823 H 172.357 -0.717897 -0.206479 0
M  V30 1824 H 175.019 -1.94112 0.175062 0
M  V30 1825 H 174.115 -2.97218 -0.952259 0
M  V30 1826 N 174.416 0.165178 -1.56732 0
M  V30 1827 C 175.349 1.23336 -1.91998 0
M  V30 1828 C 176.327 1.42476 -0.783531 0
M  V30 1829 O 177.511 1.57384 -1.03743 0
M  V30 1830 C 174.638 2.59533 -2.17625 0
M  V30 1831 C 173.684 2.57093 -3.40302 0
M  V30 1832 S 174.517 2.05571 -4.9447 0
M  V30 1833 C 175.673 3.43532 -5.23198 0
M  V30 1834 H 175.906 0.932387 -2.82301 0
M  V30 1835 H 173.439 0.370013 -1.49901 0
M  V30 1836 H 175.397 3.37918 -2.3307 0
M  V30 1837 H 174.058 2.86827 -1.28019 0
M  V30 1838 H 173.251 3.57308 -3.55453 0
M  V30 1839 H 172.853 1.86806 -3.24005 0
M  V30 1840 H 175.145 4.39559 -5.15552 0
M  V30 1841 H 176.088 3.33251 -6.2478 0
M  V30 1842 H 176.496 3.39828 -4.50752 0
M  V30 1843 N 175.894 1.51508 0.433938 0
M  V30 1844 C 176.842 1.73646 1.54757 0
M  V30 1845 C 177.836 0.602854 1.5831 0
M  V30 1846 O 179.042 0.784318 1.62014 0
M  V30 1847 H 175.417 0.548718 0.51421 0
M  V30 1848 H 177.388 2.66991 1.33261 0
M  V30 1849 C 176.137 1.88172 2.92381 0
M  V30 1850 H 175.46 2.74808 2.90381 0
M  V30 1851 H 176.9 2.07672 3.6966 0
M  V30 1852 C 175.359 0.64239 3.30719 0
M  V30 1853 O 175.889 -0.201362 4.01195 0
M  V30 1854 N 174.095 0.485489 2.86516 0
M  V30 1855 H 173.642 1.17318 2.29334 0
M  V30 1856 H 173.6 -0.342482 3.12529 0
M  V30 1857 N 177.372 -0.689602 1.41712 0
M  V30 1858 C 178.302 -1.81577 1.46806 0
M  V30 1859 C 179.283 -1.66945 0.326105 0
M  V30 1860 O 180.468 -1.86588 0.538377 0
M  V30 1861 C 177.598 -3.19762 1.35535 0
M  V30 1862 C 176.552 -3.49107 2.47605 0
M  V30 1863 C 175.878 -4.86711 2.21397 0
M  V30 1864 C 177.178 -3.47483 3.89939 0
M  V30 1865 H 178.872 -1.7757 2.41058 0
M  V30 1866 H 176.418 -0.852887 1.16025 0
M  V30 1867 H 178.371 -3.98263 1.3771 0
M  V30 1868 H 177.095 -3.24409 0.377708 0
M  V30 1869 H 175.754 -2.72959 2.44722 0
M  V30 1870 H 175.402 -4.8799 1.21961 0
M  V30 1871 H 175.102 -5.0731 2.96497 0
M  V30 1872 H 176.626 -5.67515 2.25297 0
M  V30 1873 H 178.04 -4.1598 3.94505 0
M  V30 1874 H 176.437 -3.79615 4.64771 0
M  V30 1875 H 177.507 -2.46341 4.17665 0
M  V30 1876 N 178.85 -1.27639 -0.924453 0
M  V30 1877 C 179.813 -1.10681 -2.00705 0
M  V30 1878 C 180.813 -0.0497823 -1.60723 0
M  V30 1879 O 182.003 -0.294654 -1.7169 0
M  V30 1880 C 179.135 -0.687164 -3.33902 0
M  V30 1881 H 180.328 -2.06817 -2.17179 0
M  V30 1882 H 177.881 -1.10473 -1.10569 0
M  V30 1883 H 178.616 0.275439 -3.23128 0
M  V30 1884 H 178.401 -1.45061 -3.6428 0
M  V30 1885 H 179.891 -0.590853 -4.13399 0
M  V30 1886 N 180.328 1.1314 -1.09713 0
M  V30 1887 C 181.278 2.16709 -0.708593 0
M  V30 1888 C 182.262 1.58471 0.278523 0
M  V30 1889 O 183.454 1.76779 0.088427 0
M  V30 1890 C 180.583 3.43039 -0.133923 0
M  V30 1891 C 179.669 4.08277 -1.14763 0
M  V30 1892 N 180.06 4.48637 -2.33577 0
M  V30 1893 C 178.358 4.34954 -0.986446 0
M  V30 1894 C 179.059 4.9952 -2.98085 0
M  V30 1895 N 178.035 4.94561 -2.25632 0
M  V30 1896 H 181.837 2.45672 -1.61315 0
M  V30 1897 H 179.351 1.29967 -0.973775 0
M  V30 1898 H 181.348 4.16583 0.162465 0
M  V30 1899 H 180.008 3.15549 0.765447 0
M  V30 1900 H 181.019 4.41246 -2.7115 0
M  V30 1901 H 177.696 4.17258 -0.142008 0
M  V30 1902 H 179.086 5.40521 -3.99108 0
M  V30 1903 N 181.806 0.884767 1.30421 0
M  V30 1904 C 183.054 0.502112 1.95763 0
M  V30 1905 C 183.375 -0.951815 1.70192 0
M  V30 1906 O 182.645 -1.6692 1.0254 0
M  V30 1907 H 181.225 0.182694 0.724315 0
M  V30 1908 H 183.887 1.1278 1.58955 0
M  V30 1909 H 182.983 0.672188 3.04775 0
M  V30 1910 N 183.284 -1.43765 0.645699 0
M  V30 1911 C 184.532 -2.01499 0.155731 0
M  V30 1912 C 184.853 -1.51151 -1.232 0
M  V30 1913 O 184.123 -0.721044 -1.82148 0
M  V30 1914 H 182.703 -0.745003 0.0545817 0
M  V30 1915 H 185.365 -1.76075 0.835677 0
M  V30 1916 H 184.461 -3.1181 0.134577 0
M  V30 1917 N 184.763 -0.387143 -1.52771 0
M  V30 1918 C 185.713 0.465942 -2.23188 0
M  V30 1919 C 186.697 1.03138 -1.23496 0
M  V30 1920 O 187.889 0.957845 -1.48843 0
M  V30 1921 C 185.018 1.59384 -3.04059 0
M  V30 1922 C 184.104 1.04024 -4.11144 0
M  V30 1923 N 184.495 0.211416 -5.05358 0
M  V30 1924 C 182.793 1.31295 -4.26237 0
M  V30 1925 C 183.494 -0.0941698 -5.81624 0
M  V30 1926 N 182.47 0.509207 -5.4121 0
M  V30 1927 H 186.272 -0.173856 -2.93385 0
M  V30 1928 H 183.786 -0.19633 -1.61209 0
M  V30 1929 H 185.783 2.21738 -3.53041 0
M  V30 1930 H 184.443 2.23648 -2.35397 0
M  V30 1931 H 185.454 -0.151151 -5.17679 0
M  V30 1932 H 182.131 1.95679 -3.68803 0
M  V30 1933 H 183.521 -0.765572 -6.67524 0
M  V30 1934 N 186.241 1.57166 -0.116904 0
M  V30 1935 C 187.171 2.18222 0.830759 0
M  V30 1936 C 188.152 1.12167 1.27877 0
M  V30 1937 O 189.337 1.40394 1.34176 0
M  V30 1938 C 186.467 2.77996 2.08172 0
M  V30 1939 C 185.421 3.89614 1.77157 0
M  V30 1940 C 184.747 4.36187 3.09265 0
M  V30 1941 C 186.047 5.1181 1.04151 0
M  V30 1942 H 187.741 2.97664 0.321992 0
M  V30 1943 H 185.287 1.4318 0.153434 0
M  V30 1944 H 187.24 3.19366 2.74924 0
M  V30 1945 H 185.964 1.9584 2.6137 0
M  V30 1946 H 184.623 3.48816 1.12796 0
M  V30 1947 H 184.271 3.50893 3.60393 0
M  V30 1948 H 183.971 5.11455 2.89288 0
M  V30 1949 H 185.495 4.80207 3.77139 0
M  V30 1950 H 186.909 5.50214 1.61052 0
M  V30 1951 H 185.306 5.92648 0.942762 0
M  V30 1952 H 186.376 4.84892 0.0279022 0
M  V30 1953 N 187.719 -0.156864 1.56817 0
M  V30 1954 C 188.947 -0.886316 1.86955 0
M  V30 1955 C 189.362 -1.75185 0.703975 0
M  V30 1956 O 188.719 -1.79555 -0.326552 0
M  V30 1957 C 188.77 -1.75117 3.16253 0
M  V30 1958 O 188.491 -0.920537 4.2832 0
M  V30 1959 C 189.992 -2.58905 3.59837 0
M  V30 1960 H 187.212 -0.25678 0.619923 0
M  V30 1961 H 189.756 -0.152615 2.0393 0
M  V30 1962 H 187.911 -2.43805 3.01062 0
M  V30 1963 H 188.325 -1.51337 5.02192 0
M  V30 1964 H 189.799 -3.1518 4.53172 0
M  V30 1965 H 190.276 -3.34472 2.84649 0
M  V30 1966 H 190.882 -1.95526 3.7769 0
M  V30 1967 N 189.197 -1.51736 -0.425897 0
M  V30 1968 C 190.147 -1.70258 -1.51645 0
M  V30 1969 C 191.131 -0.556488 -1.5097 0
M  V30 1970 O 192.323 -0.812879 -1.5723 0
M  V30 1971 C 189.452 -1.84143 -2.89735 0
M  V30 1972 C 188.538 -3.04572 -2.95122 0
M  V30 1973 N 188.929 -4.2756 -2.70233 0
M  V30 1974 C 187.227 -3.04061 -3.26286 0
M  V30 1975 C 187.928 -5.08908 -2.81757 0
M  V30 1976 N 186.904 -4.43797 -3.13919 0
M  V30 1977 H 190.706 -2.63004 -1.31172 0
M  V30 1978 H 188.22 -1.4954 -0.633375 0
M  V30 1979 H 190.217 -1.95525 -3.68206 0
M  V30 1980 H 188.877 -0.925857 -3.1122 0
M  V30 1981 H 189.888 -4.56315 -2.44943 0
M  V30 1982 H 186.565 -2.22179 -3.53473 0
M  V30 1983 H 187.955 -6.16843 -2.66372 0
M  V30 1984 N 190.675 0.682077 -1.42076 0
M  V30 1985 C 191.923 1.4393 -1.41876 0
M  V30 1986 C 192.244 1.94971 -0.0335599 0
M  V30 1987 O 191.514 1.72591 0.926773 0
M  V30 1988 H 190.094 0.534085 -0.522267 0
M  V30 1989 H 192.756 0.806427 -1.77434 0
M  V30 1990 H 191.852 2.29588 -2.11414 0
M  V30 1991 N 192.153 1.28127 0.917671 0
M  V30 1992 C 193.378 1.18007 1.70555 0
M  V30 1993 C 193.803 -0.258257 1.86319 0
M  V30 1994 O 193.161 -1.1869 1.37049 0
M  V30 1995 C 193.209 1.87948 3.07746 0
M  V30 1996 O 192.313 1.18427 3.9503 0
M  V30 1997 H 191.654 0.409867 0.522403 0
M  V30 1998 H 194.184 1.69379 1.1477 0
M  V30 1999 H 194.194 1.95701 3.58001 0
M  V30 2000 H 192.869 2.92573 2.95591 0
M  V30 2001 H 191.446 1.18811 3.53466 0
M  V30 2002 N 193.631 -1.12557 1.10312 0
M  V30 2003 C 195.042 -1.65574 0.862678 0
M  V30 2004 C 195.393 -1.86566 -0.607256 0
M  V30 2005 O 194.518 -1.59121 -1.46662 0
M  V30 2006 C 195.113 -3.00776 1.55947 0
M  V30 2007 C 193.672 -3.50748 1.36576 0
M  V30 2008 C 192.819 -2.25797 1.60968 0
M  V30 2009 H 195.77 -0.963552 1.26101 0
M  V30 2010 H 195.791 -3.67185 0.997753 0
M  V30 2011 H 195.303 -2.85465 2.62928 0
M  V30 2012 H 193.404 -3.71245 0.317531 0
M  V30 2013 H 193.517 -4.30289 2.10686 0
M  V30 2014 H 191.881 -2.32841 1.03234 0
M  V30 2015 H 192.664 -2.13043 2.69198 0
M  V30 2016 N 195.109 -0.891671 -1.2995 0
M  V30 2017 C 196.355 -0.514261 -1.96171 0
M  V30 2018 C 196.688 0.935506 -1.70182 0
M  V30 2019 O 195.963 1.66204 -1.01028 0
M  V30 2020 C 196.246 -0.797719 -3.51153 0
M  V30 2021 C 196.099 -2.2986 -3.86632 0
M  V30 2022 C 197.418 -0.278749 -4.39216 0
M  V30 2023 H 194.537 -0.188314 -0.712535 0
M  V30 2024 H 197.179 -1.11689 -1.53706 0
M  V30 2025 H 195.329 -0.284826 -3.87455 0
M  V30 2026 H 197.001 -2.88042 -3.60319 0
M  V30 2027 H 195.244 -2.76257 -3.34462 0
M  V30 2028 H 195.915 -2.44753 -4.94773 0
M  V30 2029 H 198.391 -0.717825 -4.09862 0
M  V30 2030 H 197.267 -0.506353 -5.46559 0
M  V30 2031 H 197.528 0.820266 -4.34424 0
M  V30 2032 N 196.587 1.43421 -0.653314 0
M  V30 2033 C 197.535 2.32546 0.0501531 0
M  V30 2034 C 198.529 1.48617 0.812985 0
M  V30 2035 O 199.735 1.64825 0.723375 0
M  V30 2036 H 196.11 0.751185 0.0350032 0
M  V30 2037 H 198.081 2.89602 -0.719261 0
M  V30 2038 C 196.83 3.32925 1.00279 0
M  V30 2039 H 196.153 3.97532 0.425236 0
M  V30 2040 H 197.593 3.9792 1.46409 0
M  V30 2041 C 196.052 2.63532 2.09886 0
M  V30 2042 O 196.582 2.45092 3.18265 0
M  V30 2043 N 194.788 2.22905 1.86445 0
M  V30 2044 H 194.335 2.38103 0.98309 0
M  V30 2045 H 194.293 1.76805 2.59976 0
M  V30 2046 N 198.065 0.39524 1.52563 0
M  V30 2047 C 199.312 -0.185044 2.01653 0
M  V30 2048 C 199.64 -1.46317 1.28146 0
M  V30 2049 O 198.895 -1.9213 0.372074 0
M  V30 2050 C 199.194 -0.493444 3.53977 0
M  V30 2051 C 198.86 0.69384 4.4553 0
M  V30 2052 C 197.522 1.01954 4.70275 0
M  V30 2053 C 199.874 1.48785 4.99512 0
M  V30 2054 C 197.202 2.14069 5.46252 0
M  V30 2055 C 199.554 2.59965 5.76716 0
M  V30 2056 C 198.218 2.93037 5.99738 0
M  V30 2057 H 197.488 -0.0677123 0.7379 0
M  V30 2058 H 200.135 0.533807 1.8391 0
M  V30 2059 H 198.44 -1.29369 3.69825 0
M  V30 2060 H 200.137 -0.955163 3.89458 0
M  V30 2061 H 196.727 0.429987 4.26438 0
M  V30 2062 H 200.911 1.24946 4.80315 0
M  V30 2063 H 196.167 2.40056 5.62302 0
M  V30 2064 H 200.341 3.21887 6.17545 0
M  V30 2065 H 197.968 3.8003 6.58393 0
M  V30 2066 N 199.544 -1.57102 0.125237 0
M  V30 2067 C 200.769 -2.0019 -0.542101 0
M  V30 2068 C 201.194 -1.00449 -1.59034 0
M  V30 2069 O 200.552 0.0229423 -1.81285 0
M  V30 2070 C 200.6 -3.42129 -1.13929 0
M  V30 2071 O 199.704 -3.45307 -2.2547 0
M  V30 2072 H 199.045 -0.650171 -0.134812 0
M  V30 2073 H 201.575 -2.03461 0.215553 0
M  V30 2074 H 201.585 -3.80471 -1.4733 0
M  V30 2075 H 200.26 -4.14237 -0.371531 0
M  V30 2076 H 198.837 -3.1879 -1.93462 0
M  V30 2077 N 201.022 0.148545 -1.56898 0
M  V30 2078 C 202.27 0.859717 -1.82902 0
M  V30 2079 C 202.591 1.81775 -0.70588 0
M  V30 2080 O 201.861 1.93994 0.272586 0
M  V30 2081 H 200.441 0.320469 -0.674766 0
M  V30 2082 H 203.103 0.142918 -1.94375 0
M  V30 2083 H 202.199 1.4229 -2.77777 0
M  V30 2084 N 202.5 1.5196 0.417844 0
M  V30 2085 C 203.447 1.74678 1.50852 0
M  V30 2086 C 204.417 0.588947 1.55308 0
M  V30 2087 O 205.602 0.825544 1.72016 0
M  V30 2088 C 202.742 1.89544 2.88387 0
M  V30 2089 C 201.855 3.17166 2.93309 0
M  V30 2090 C 200.99 3.22513 4.22088 0
M  V30 2091 C 200.029 4.44372 4.20951 0
M  V30 2092 N 199.166 4.47161 5.41287 0
M  V30 2093 H 204.006 2.67768 1.30783 0
M  V30 2094 H 201.543 1.32689 0.63498 0
M  V30 2095 H 203.501 1.96146 3.68216 0
M  V30 2096 H 202.131 0.998424 3.06971 0
M  V30 2097 H 201.183 3.19778 2.06024 0
M  V30 2098 H 202.495 4.07021 2.88332 0
M  V30 2099 H 201.649 3.28139 5.10303 0
M  V30 2100 H 200.388 2.30581 4.29748 0
M  V30 2101 H 199.393 4.38902 3.31127 0
M  V30 2102 H 200.618 5.3759 4.14938 0
M  V30 2103 H 198.564 3.58108 5.49632 0
M  V30 2104 H 198.481 5.3085 5.3827 0
M  V30 2105 H 199.749 4.57005 6.3148 0
M  V30 2106 N 203.978 -0.674533 1.42435 0
M  V30 2107 C 204.908 -1.80009 1.48724 0
M  V30 2108 C 205.889 -1.6659 0.343793 0
M  V30 2109 O 207.074 -1.86007 0.558137 0
M  V30 2110 C 204.204 -3.18306 1.38919 0
M  V30 2111 C 203.158 -3.46461 2.51294 0
M  V30 2112 C 202.484 -4.84335 2.26547 0
M  V30 2113 C 203.784 -3.43328 3.93603 0
M  V30 2114 H 205.478 -1.75004 2.42928 0
M  V30 2115 H 203.024 -0.840533 1.16923 0
M  V30 2116 H 204.977 -3.9678 1.41927 0
M  V30 2117 H 203.701 -3.2399 0.412094 0
M  V30 2118 H 202.36 -2.70348 2.47604 0
M  V30 2119 H 202.008 -4.86669 1.2713 0
M  V30 2120 H 201.708 -5.04136 3.01861 0
M  V30 2121 H 203.232 -5.65094 2.31304 0
M  V30 2122 H 204.646 -4.11772 3.98894 0
M  V30 2123 H 203.043 -3.74664 4.68771 0
M  V30 2124 H 204.113 -2.41897 4.20255 0
M  V30 2125 N 205.456 -1.28612 -0.910864 0
M  V30 2126 C 206.686 -1.1862 -1.69153 0
M  V30 2127 C 207.094 0.257324 -1.87442 0
M  V30 2128 O 206.437 1.18543 -1.40332 0
M  V30 2129 C 206.499 -1.81606 -3.10257 0
M  V30 2130 C 206.163 -3.30864 -3.15243 0
M  V30 2131 C 207.16 -4.27256 -2.96223 0
M  V30 2132 C 204.845 -3.71871 -3.37664 0
M  V30 2133 C 206.839 -5.62631 -2.99541 0
M  V30 2134 C 204.526 -5.07371 -3.40614 0
M  V30 2135 C 205.524 -6.02561 -3.21573 0
M  V30 2136 O 205.212 -7.35589 -3.2429 0
M  V30 2137 H 204.944 -0.412633 -0.535453 0
M  V30 2138 H 207.498 -1.70306 -1.14827 0
M  V30 2139 H 205.728 -1.24418 -3.66138 0
M  V30 2140 H 207.417 -1.66092 -3.70362 0
M  V30 2141 H 208.183 -3.9691 -2.78725 0
M  V30 2142 H 204.062 -2.98241 -3.5153 0
M  V30 2143 H 207.606 -6.36907 -2.84597 0
M  V30 2144 H 203.503 -5.37366 -3.57642 0
M  V30 2145 H 204.271 -7.44252 -3.40633 0
M  V30 2146 N 206.934 1.1197 -1.10907 0
M  V30 2147 C 207.882 2.19927 -0.757303 0
M  V30 2148 C 208.876 1.67564 0.248747 0
M  V30 2149 O 210.082 1.79672 0.108605 0
M  V30 2150 H 206.457 0.716925 -0.226987 0
M  V30 2151 H 208.428 2.46847 -1.67658 0
M  V30 2152 C 207.177 3.47061 -0.210671 0
M  V30 2153 H 206.5 3.87703 -0.976049 0
M  V30 2154 H 207.94 4.24 -0.0026584 0
M  V30 2155 C 206.399 3.19864 1.05777 0
M  V30 2156 O 206.929 3.40049 2.13845 0
M  V30 2157 N 205.135 2.73636 0.978349 0
M  V30 2158 H 204.682 2.5741 0.0988246 0
M  V30 2159 H 204.64 2.55815 1.82773 0
M  V30 2160 N 208.412 0.89855 1.29475 0
M  V30 2161 C 209.661 0.519863 1.94885 0
M  V30 2162 C 209.974 -0.9383 1.71625 0
M  V30 2163 O 211.18 -1.42445 2.31131 0
M  V30 2164 C 209.636 0.878836 3.49005 0
M  V30 2165 C 209.244 2.35569 3.81066 0
M  V30 2166 C 210.988 0.570004 4.20656 0
M  V30 2167 C 208.895 2.65558 5.28425 0
M  V30 2168 H 207.825 0.190692 0.729488 0
M  V30 2169 H 210.476 1.09539 1.47219 0
M  V30 2170 H 208.858 0.232253 3.95318 0
M  V30 2171 H 210.032 3.04773 3.45616 0
M  V30 2172 H 208.347 2.63343 3.22552 0
M  V30 2173 H 210.944 0.770925 5.29113 0
M  V30 2174 H 211.287 -0.491404 4.1339 0
M  V30 2175 H 211.82 1.17438 3.8007 0
M  V30 2176 H 208.559 3.70493 5.40754 0
M  V30 2177 H 208.079 2.00977 5.65127 0
M  V30 2178 H 209.758 2.51765 5.96006 0
M  V30 2179 N 209.89 -1.43072 0.660911 0
M  V30 2180 C 211.136 -2.0202 0.177708 0
M  V30 2181 C 211.469 -1.52066 -1.20787 0
M  V30 2182 O 210.744 -0.716987 -1.80802 0
M  V30 2183 C 211.027 -3.59561 0.197019 0
M  V30 2184 C 210.88 -4.19727 1.61706 0
M  V30 2185 C 212.199 -4.37664 -0.462396 0
M  V30 2186 H 209.318 -0.734034 0.0660494 0
M  V30 2187 H 211.96 -1.70272 0.843058 0
M  V30 2188 H 210.11 -3.86739 -0.369527 0
M  V30 2189 H 211.782 -4.03553 2.23479 0
M  V30 2190 H 210.025 -3.76084 2.16201 0
M  V30 2191 H 210.696 -5.28834 1.58237 0
M  V30 2192 H 213.172 -4.16095 0.0197215 0
M  V30 2193 H 212.048 -5.47305 -0.418188 0
M  V30 2194 H 212.309 -4.14493 -1.53778 0
M  V30 2195 N 211.368 -0.403325 -1.52352 0
M  V30 2196 C 212.779 0.0675782 -1.86578 0
M  V30 2197 C 213.13 1.44941 -1.32236 0
M  V30 2198 O 212.255 2.06112 -0.659307 0
M  V30 2199 C 212.85 0.129404 -3.38553 0
M  V30 2200 C 211.409 0.544629 -3.72439 0
M  V30 2201 C 210.556 -0.284551 -2.75836 0
M  V30 2202 H 213.507 -0.620631 -1.46061 0
M  V30 2203 H 213.528 0.94581 -3.68558 0
M  V30 2204 H 213.04 -0.87645 -3.78074 0
M  V30 2205 H 211.141 1.55734 -3.38493 0
M  V30 2206 H 211.254 0.293046 -4.78203 0
M  V30 2207 H 209.618 0.252258 -2.53448 0
M  V30 2208 H 210.401 -1.28865 -3.18196 0
M  V30 2209 N 212.846 1.57033 -0.133567 0
M  V30 2210 C 214.076 1.99754 0.527429 0
M  V30 2211 C 214.484 1.01245 1.59832 0
M  V30 2212 O 213.827 -0.000645496 1.837 0
M  V30 2213 C 213.889 3.38903 1.19939 0
M  V30 2214 C 213.553 4.56174 0.274709 0
M  V30 2215 C 214.55 5.17563 -0.492398 0
M  V30 2216 C 212.235 5.01972 0.18153 0
M  V30 2217 C 214.229 6.2315 -1.34027 0
M  V30 2218 C 211.916 6.07416 -0.669958 0
M  V30 2219 C 212.914 6.67874 -1.42947 0
M  V30 2220 O 212.602 7.71279 -2.2668 0
M  V30 2221 H 212.334 0.660702 0.142999 0
M  V30 2222 H 214.888 2.04207 -0.221099 0
M  V30 2223 H 213.118 3.31248 1.99528 0
M  V30 2224 H 214.807 3.65818 1.75875 0
M  V30 2225 H 215.573 4.83087 -0.430367 0
M  V30 2226 H 211.452 4.54652 0.762422 0
M  V30 2227 H 214.996 6.70268 -1.93357 0
M  V30 2228 H 210.893 6.41321 -0.73333 0
M  V30 2229 H 211.661 7.88441 -2.1978 0
M  V30 2230 N 214.325 -0.140222 1.56975 0
M  V30 2231 C 215.573 -0.850005 1.83356 0
M  V30 2232 C 215.894 -1.81399 0.71551 0
M  V30 2233 O 215.164 -1.94136 -0.262294 0
M  V30 2234 H 213.744 -0.316886 0.676456 0
M  V30 2235 H 216.406 -0.132608 1.94448 0
M  V30 2236 H 215.502 -1.40814 2.78528 0
M  V30 2237 N 215.803 -1.52179 -0.40978 0
M  V30 2238 C 217.052 -1.65434 -1.15388 0
M  V30 2239 C 217.365 -0.390056 -1.91671 0
M  V30 2240 O 218.571 -0.402399 -2.68501 0
M  V30 2241 C 217.027 -2.92279 -2.10003 0
M  V30 2242 C 216.635 -4.25813 -1.39239 0
M  V30 2243 C 218.379 -3.14897 -2.84675 0
M  V30 2244 C 216.286 -5.43782 -2.32498 0
M  V30 2245 H 215.216 -0.616267 -0.434432 0
M  V30 2246 H 217.867 -1.78666 -0.418401 0
M  V30 2247 H 216.249 -2.72744 -2.871 0
M  V30 2248 H 217.423 -4.55828 -0.675099 0
M  V30 2249 H 215.738 -4.09292 -0.766097 0
M  V30 2250 H 218.335 -4.0021 -3.54593 0
M  V30 2251 H 218.678 -2.29103 -3.47588 0
M  V30 2252 H 219.211 -3.34901 -2.14677 0
M  V30 2253 H 215.95 -6.3192 -1.74233 0
M  V30 2254 H 215.47 -5.18106 -3.02201 0
M  V30 2255 H 217.149 -5.76834 -2.93038 0
M  V30 2256 N 217.281 0.66697 -1.42791 0
M  V30 2257 C 218.558 1.4234 -1.34159 0
M  V30 2258 C 218.938 2.11093 0.0172729 0
M  V30 2259 O 218.286 2.03808 1.03318 0
M  V30 2260 C 218.496 2.41942 -2.51526 0
M  V30 2261 C 219.844 3.06353 -2.93995 0
M  V30 2262 O 220.868 2.52269 -2.51473 0
M  V30 2263 O 219.727 4.04376 -3.67617 0
M  V30 2264 H 216.821 0.635277 -0.529483 0
M  V30 2265 H 219.367 0.695034 -1.54814 0
M  V30 2266 H 218.139 1.89991 -3.42081 0
M  V30 2267 H 217.762 3.22249 -2.32898 0
M  V30 2268 N 218.759 1.29093 0.90403 0
M  V30 2269 C 219.722 1.1386 1.98919 0
M  V30 2270 C 220.722 0.0753457 1.60623 0
M  V30 2271 O 221.912 0.321931 1.71199 0
M  V30 2272 C 219.044 0.740198 3.32767 0
M  V30 2273 H 220.237 2.10246 2.13861 0
M  V30 2274 H 217.79 1.12218 1.08797 0
M  V30 2275 H 218.525 -0.223997 3.23525 0
M  V30 2276 H 218.31 1.50838 3.61926 0
M  V30 2277 H 219.8 0.656546 4.12407 0
M  V30 2278 N 220.237 -1.11381 1.11499 0
M  V30 2279 C 221.465 -1.86934 0.88675 0
M  V30 2280 C 221.88 -1.80195 -0.563476 0
M  V30 2281 O 221.237 -1.18367 -1.38908 0
M  V30 2282 C 221.288 -3.35722 1.34064 0
M  V30 2283 O 221.009 -3.4232 2.73401 0
M  V30 2284 C 222.51 -4.2818 1.14791 0
M  V30 2285 H 219.73 -0.591117 0.317523 0
M  V30 2286 H 222.274 -1.40865 1.48248 0
M  V30 2287 H 220.429 -3.79294 0.788355 0
M  V30 2288 H 220.843 -4.34971 2.93087 0
M  V30 2289 H 222.317 -5.30817 1.5145 0
M  V30 2290 H 222.794 -4.39113 0.0875279 0
M  V30 2291 H 223.4 -3.90402 1.68721 0
M  V30 2292 N 221.715 -0.905404 -1.28997 0
M  V30 2293 C 222.963 -0.533192 -1.9494 0
M  V30 2294 C 223.284 0.924618 -1.71685 0
M  V30 2295 O 222.554 1.65268 -1.05183 0
M  V30 2296 H 221.134 -0.194194 -0.721317 0
M  V30 2297 H 223.796 -1.15294 -1.57141 0
M  V30 2298 H 222.892 -0.72059 -3.03667 0
M  V30 2299 N 223.193 1.4272 -0.668489 0
M  V30 2300 C 224.143 2.27971 0.0363806 0
M  V30 2301 C 225.127 1.40741 0.779794 0
M  V30 2302 O 226.319 1.64245 0.659745 0
M  V30 2303 C 223.448 3.28673 0.991398 0
M  V30 2304 C 222.534 4.23388 0.245658 0
M  V30 2305 N 222.925 5.00267 -0.746069 0
M  V30 2306 C 221.223 4.43355 0.484988 0
M  V30 2307 C 221.924 5.69396 -1.19009 0
M  V30 2308 N 220.9 5.41095 -0.521287 0
M  V30 2309 H 224.702 2.84833 -0.724394 0
M  V30 2310 H 222.216 1.54607 -0.497028 0
M  V30 2311 H 224.213 3.88543 1.51129 0
M  V30 2312 H 222.873 2.73373 1.75207 0
M  V30 2313 H 223.884 5.05525 -1.12537 0
M  V30 2314 H 220.561 3.99104 1.22565 0
M  V30 2315 H 221.951 6.41083 -2.01153 0
M  V30 2316 N 224.671 0.411399 1.52136 0
M  V30 2317 C 225.92 -0.165009 2.01024 0
M  V30 2318 C 226.233 -1.4603 1.30133 0
M  V30 2319 O 227.439 -2.1181 1.69849 0
M  V30 2320 C 225.895 -0.344618 3.58246 0
M  V30 2321 C 225.503 0.938716 4.38055 0
M  V30 2322 C 227.247 -0.876195 4.15359 0
M  V30 2323 C 225.154 0.726172 5.86925 0
M  V30 2324 H 224.084 -0.0654407 0.751155 0
M  V30 2325 H 226.735 0.537192 1.75461 0
M  V30 2326 H 225.117 -1.10921 3.80148 0
M  V30 2327 H 226.291 1.70963 4.27912 0
M  V30 2328 H 224.606 1.39688 3.92271 0
M  V30 2329 H 227.203 -1.05128 5.24263 0
M  V30 2330 H 227.546 -1.85152 3.7286 0
M  V30 2331 H 228.079 -0.170607 3.97434 0
M  V30 2332 H 224.818 1.67312 6.33788 0
M  V30 2333 H 224.338 -0.00540283 5.998 0
M  V30 2334 H 226.017 0.369231 6.45946 0
M  V30 2335 N 226.149 -1.5696 0.141893 0
M  V30 2336 C 227.426 -1.87553 -0.555281 0
M  V30 2337 C 227.806 -1.04699 -1.83306 0
M  V30 2338 O 227.154 -0.132346 -2.28116 0
M  V30 2339 C 227.364 -3.39093 -0.825664 0
M  V30 2340 C 228.712 -4.08199 -1.16869 0
M  V30 2341 O 229.736 -3.44242 -0.915185 0
M  V30 2342 O 228.595 -5.21139 -1.6455 0
M  V30 2343 H 225.689 -0.777188 -0.282679 0
M  V30 2344 H 228.235 -1.68763 0.17812 0
M  V30 2345 H 227.007 -3.91221 0.0788633 0
M  V30 2346 H 226.63 -3.63393 -1.61343 0
M  V30 2347 N 227.627 0.131896 -1.57047 0
M  V30 2348 C 228.857 0.855219 -1.88068 0
M  V30 2349 C 229.265 1.74557 -0.729817 0
M  V30 2350 O 228.608 1.81083 0.308962 0
M  V30 2351 C 228.67 1.75119 -3.13964 0
M  V30 2352 C 228.334 1.03646 -4.45091 0
M  V30 2353 C 229.331 0.383276 -5.18485 0
M  V30 2354 C 227.016 1.02148 -4.91804 0
M  V30 2355 C 229.01 -0.275347 -6.36805 0
M  V30 2356 C 226.697 0.359047 -6.10044 0
M  V30 2357 C 227.695 -0.288222 -6.82392 0
M  V30 2358 O 227.383 -0.94011 -7.98384 0
M  V30 2359 H 227.115 0.251864 -0.627328 0
M  V30 2360 H 229.669 0.124782 -2.05021 0
M  V30 2361 H 227.899 2.52295 -2.9306 0
M  V30 2362 H 229.588 2.3478 -3.31109 0
M  V30 2363 H 230.354 0.386562 -4.83457 0
M  V30 2364 H 226.233 1.5147 -4.35405 0
M  V30 2365 H 229.777 -0.781148 -6.93213 0
M  V30 2366 H 225.674 0.35348 -6.44531 0
M  V30 2367 H 226.442 -0.84329 -8.14144 0
M  V30 2368 N 229.106 1.52395 0.401703 0
M  V30 2369 C 230.069 1.75636 1.47257 0
M  V30 2370 C 231.069 0.62628 1.48103 0
M  V30 2371 O 232.259 0.894227 1.49497 0
M  V30 2372 C 229.391 1.84553 2.86624 0
M  V30 2373 H 230.584 2.71241 1.27938 0
M  V30 2374 H 228.137 1.42923 0.632662 0
M  V30 2375 H 228.872 0.908882 3.11303 0
M  V30 2376 H 228.657 2.66715 2.87412 0
M  V30 2377 H 230.147 2.04251 3.64241 0
M  V30 2378 N 230.584 -0.659388 1.43143 0
M  V30 2379 C 231.861 -1.41627 1.34912 0
M  V30 2380 C 232.241 -2.11099 -0.00607785 0
M  V30 2381 O 231.589 -2.04353 -1.02236 0
M  V30 2382 C 231.799 -2.40604 2.52805 0
M  V30 2383 C 233.147 -3.04789 2.95616 0
M  V30 2384 O 234.171 -2.50932 2.52807 0
M  V30 2385 O 233.03 -4.02421 3.69756 0
M  V30 2386 H 230.124 -0.63246 0.532844 0
M  V30 2387 H 232.67 -0.686814 1.5518 0
M  V30 2388 H 231.442 -1.88174 3.43083 0
M  V30 2389 H 231.065 -3.21009 2.34604 0
M  V30 2390 N 232.062 -1.29571 -0.897171 0
M  V30 2391 C 232.992 -1.17473 -2.01798 0
M  V30 2392 C 233.973 -0.068323 -1.69963 0
M  V30 2393 O 235.158 -0.248239 -1.92607 0
M  V30 2394 C 232.288 -0.853099 -3.36659 0
M  V30 2395 C 231.242 -1.9161 -3.82713 0
M  V30 2396 C 230.568 -1.44773 -5.14728 0
M  V30 2397 C 231.868 -3.32535 -4.02763 0
M  V30 2398 H 233.562 -2.11237 -2.12177 0
M  V30 2399 H 231.108 -1.01699 -1.01948 0
M  V30 2400 H 233.061 -0.755165 -4.14578 0
M  V30 2401 H 231.785 0.120236 -3.26379 0
M  V30 2402 H 230.444 -2.00346 -3.07013 0
M  V30 2403 H 230.092 -0.462995 -5.00865 0
M  V30 2404 H 229.792 -2.15865 -5.46513 0
M  V30 2405 H 231.316 -1.36334 -5.95185 0
M  V30 2406 H 232.73 -3.26626 -4.71156 0
M  V30 2407 H 231.127 -4.01607 -4.45905 0
M  V30 2408 H 232.197 -3.75326 -3.07016 0
M  V30 2409 N 233.54 1.10788 -1.12088 0
M  V30 2410 C 234.45 2.20599 -0.798338 0
M  V30 2411 C 235.466 1.72712 0.21135 0
M  V30 2412 O 236.642 2.01348 0.0458477 0
M  V30 2413 C 233.707 3.45771 -0.253674 0
M  V30 2414 C 232.768 4.08411 -1.32283 0
M  V30 2415 C 232.001 5.27608 -0.80406 0
M  V30 2416 O 232.224 5.69241 0.363478 0
M  V30 2417 O 231.158 5.8101 -1.57198 0
M  V30 2418 H 234.984 2.50614 -1.7154 0
M  V30 2419 H 232.569 1.19454 -0.897275 0
M  V30 2420 H 234.451 4.21376 0.0453691 0
M  V30 2421 H 233.126 3.1739 0.636005 0
M  V30 2422 H 232.033 3.34507 -1.67499 0
M  V30 2423 H 233.366 4.40986 -2.18614 0
M  V30 2424 N 235.018 0.912232 1.28515 0
M  V30 2425 C 235.965 0.397954 2.27343 0
M  V30 2426 C 236.935 -0.526766 1.57526 0
M  V30 2427 O 238.12 -0.449292 1.85435 0
M  V30 2428 C 235.26 -0.357263 3.43246 0
M  V30 2429 C 234.373 0.599788 4.27816 0
M  V30 2430 C 233.508 -0.173725 5.30916 0
M  V30 2431 C 232.547 0.777039 6.07148 0
M  V30 2432 N 231.684 0.0371398 7.0209 0
M  V30 2433 H 236.524 1.24577 2.70711 0
M  V30 2434 H 234.061 0.625612 1.33133 0
M  V30 2435 H 236.019 -0.8113 4.09236 0
M  V30 2436 H 234.649 -1.16943 3.00872 0
M  V30 2437 H 233.701 1.17235 3.61884 0
M  V30 2438 H 235.013 1.32704 4.80823 0
M  V30 2439 H 234.167 -0.688394 6.02782 0
M  V30 2440 H 232.906 -0.934041 4.78672 0
M  V30 2441 H 231.911 1.3031 5.34134 0
M  V30 2442 H 233.136 1.53689 6.61481 0
M  V30 2443 H 231.082 -0.705213 6.52198 0
M  V30 2444 H 230.999 0.704249 7.52713 0
M  V30 2445 H 232.267 -0.457383 7.78157 0
M  V30 2446 N 236.496 -1.42363 0.676048 0
M  V30 2447 C 237.428 -2.29164 -0.0404605 0
M  V30 2448 C 238.441 -1.43747 -0.764245 0
M  V30 2449 O 239.63 -1.67453 -0.618195 0
M  V30 2450 C 236.73 -3.21196 -1.08103 0
M  V30 2451 C 235.903 -4.35273 -0.430812 0
M  V30 2452 C 234.962 -5.08017 -1.37133 0
M  V30 2453 O 233.988 -5.62494 -0.87116 0
M  V30 2454 N 235.19 -5.13647 -2.70456 0
M  V30 2455 H 237.955 -2.91298 0.704667 0
M  V30 2456 H 235.516 -1.53303 0.520559 0
M  V30 2457 H 237.508 -3.66728 -1.71152 0
M  V30 2458 H 236.078 -2.60505 -1.72788 0
M  V30 2459 H 235.298 -3.92372 0.379209 0
M  V30 2460 H 236.586 -5.08795 0.0221132 0
M  V30 2461 H 235.984 -4.708 -3.1363 0
M  V30 2462 H 234.541 -5.62821 -3.28749 0
M  V30 2463 N 237.974 -0.419461 -1.51915 0
M  V30 2464 C 238.937 0.389116 -2.25873 0
M  V30 2465 C 239.937 0.964924 -1.28631 0
M  V30 2466 O 241.127 0.842179 -1.52489 0
M  V30 2467 C 238.259 1.54874 -3.03689 0
M  V30 2468 H 239.452 -0.258799 -2.98781 0
M  V30 2469 H 237.005 -0.172209 -1.55348 0
M  V30 2470 H 237.74 2.23323 -2.35154 0
M  V30 2471 H 237.525 1.14223 -3.75094 0
M  V30 2472 H 239.015 2.12046 -3.59759 0
M  V30 2473 N 239.452 1.56882 -0.150215 0
M  V30 2474 C 240.399 2.16922 0.788244 0
M  V30 2475 C 241.369 1.10303 1.24187 0
M  V30 2476 O 242.554 1.38359 1.31383 0
M  V30 2477 C 239.694 2.79754 2.02068 0
M  V30 2478 C 238.807 4.00775 1.61257 0
M  V30 2479 C 237.942 4.51595 2.79705 0
M  V30 2480 C 236.981 5.65074 2.35282 0
M  V30 2481 N 236.118 6.10499 3.4675 0
M  V30 2482 H 240.958 2.96779 0.269444 0
M  V30 2483 H 238.495 1.46599 0.12128 0
M  V30 2484 H 240.453 3.14329 2.74323 0
M  V30 2485 H 239.083 2.02536 2.51354 0
M  V30 2486 H 238.135 3.72158 0.787553 0
M  V30 2487 H 239.447 4.82978 1.24633 0
M  V30 2488 H 238.601 4.88242 3.60145 0
M  V30 2489 H 237.34 3.68406 3.19576 0
M  V30 2490 H 236.345 5.28 1.53283 0
M  V30 2491 H 237.57 6.50052 1.96493 0
M  V30 2492 H 235.516 5.30243 3.86236 0
M  V30 2493 H 235.433 6.87637 3.14152 0
M  V30 2494 H 236.701 6.51791 4.27537 0
M  V30 2495 N 240.93 -0.123565 1.57115 0
M  V30 2496 C 241.84 -1.17074 2.033 0
M  V30 2497 C 242.856 -1.4561 0.952559 0
M  V30 2498 O 244.032 -1.56817 1.26374 0
M  V30 2499 C 241.097 -2.47857 2.42421 0
M  V30 2500 C 240.158 -2.26758 3.64526 0
M  V30 2501 C 239.391 -3.51305 4.01771 0
M  V30 2502 O 239.614 -4.5843 3.39409 0
M  V30 2503 O 238.548 -3.42578 4.94898 0
M  V30 2504 H 242.374 -0.808555 2.92739 0
M  V30 2505 H 239.959 -0.334027 1.45618 0
M  V30 2506 H 241.841 -3.2492 2.68338 0
M  V30 2507 H 240.516 -2.83558 1.5613 0
M  V30 2508 H 239.423 -1.47569 3.43765 0
M  V30 2509 H 240.756 -1.95963 4.51508 0
M  V30 2510 N 242.408 -1.52605 -0.393616 0
M  V30 2511 C 243.358 -1.73436 -1.48 0
M  V30 2512 C 244.342 -0.588386 -1.49756 0
M  V30 2513 O 245.534 -0.846047 -1.5547 0
M  V30 2514 C 242.663 -1.90247 -2.85764 0
M  V30 2515 C 241.749 -3.10763 -2.88595 0
M  V30 2516 N 242.14 -4.33196 -2.61103 0
M  V30 2517 C 240.438 -3.10914 -3.19763 0
M  V30 2518 C 241.139 -5.1477 -2.70899 0
M  V30 2519 N 240.115 -4.50356 -3.04435 0
M  V30 2520 H 243.917 -2.65727 -1.25563 0
M  V30 2521 H 241.431 -1.5085 -0.601513 0
M  V30 2522 H 243.428 -2.03291 -3.63976 0
M  V30 2523 H 242.088 -0.991663 -3.09186 0
M  V30 2524 H 243.099 -4.61408 -2.35209 0
M  V30 2525 H 239.776 -2.29626 -3.4868 0
M  V30 2526 H 241.166 -6.22355 -2.53227 0
M  V30 2527 N 243.887 0.651787 -1.4349 0
M  V30 2528 C 244.834 1.76462 -1.4876 0
M  V30 2529 C 245.804 1.62641 -0.337189 0
M  V30 2530 O 246.989 1.82864 -0.544544 0
M  V30 2531 C 244.129 3.14623 -1.41796 0
M  V30 2532 C 243.242 3.39568 -2.67053 0
M  V30 2533 C 242.377 4.67585 -2.52068 0
M  V30 2534 C 241.416 4.85639 -3.72587 0
M  V30 2535 N 240.553 6.04915 -3.56402 0
M  V30 2536 H 245.393 1.71293 -2.43849 0
M  V30 2537 H 242.93 0.835889 -1.21043 0
M  V30 2538 H 244.888 3.94496 -1.35753 0
M  V30 2539 H 243.518 3.18859 -0.50288 0
M  V30 2540 H 242.57 2.53783 -2.8337 0
M  V30 2541 H 243.882 3.48795 -3.56572 0
M  V30 2542 H 243.036 5.55586 -2.4374 0
M  V30 2543 H 241.775 4.60681 -1.60075 0
M  V30 2544 H 240.78 3.96073 -3.81321 0
M  V30 2545 H 242.005 4.94372 -4.65589 0
M  V30 2546 H 239.951 5.9914 -2.67146 0
M  V30 2547 H 239.868 6.15106 -4.39524 0
M  V30 2548 H 241.136 6.95533 -3.51929 0
M  V30 2549 N 245.365 1.30045 0.890287 0
M  V30 2550 C 246.776 1.16738 1.45702 0
M  V30 2551 C 247.127 -0.233939 1.948 0
M  V30 2552 O 246.252 -1.13021 1.84541 0
M  V30 2553 C 246.847 2.11313 2.64825 0
M  V30 2554 C 245.406 2.02001 3.17604 0
M  V30 2555 C 244.553 2.01699 1.90296 0
M  V30 2556 H 247.504 1.42392 0.700726 0
M  V30 2557 H 247.525 1.69086 3.40867 0
M  V30 2558 H 247.037 3.13294 2.2906 0
M  V30 2559 H 245.138 1.03142 3.5804 0
M  V30 2560 H 245.251 2.90128 3.81264 0
M  V30 2561 H 243.615 1.46427 2.08402 0
M  V30 2562 H 244.398 3.05402 1.56795 0
M  V30 2563 N 246.843 -1.10192 1.12674 0
M  V30 2564 C 247.79 -2.16606 0.796906 0
M  V30 2565 C 248.76 -1.64394 -0.237476 0
M  V30 2566 O 249.945 -1.90474 -0.111484 0
M  V30 2567 C 247.085 -3.44116 0.26043 0
M  V30 2568 C 246.198 -4.10268 1.35293 0
M  V30 2569 C 245.333 -5.25507 0.775621 0
M  V30 2570 C 244.372 -5.83567 1.84706 0
M  V30 2571 N 243.509 -6.90179 1.28829 0
M  V30 2572 H 248.349 -2.44163 1.70846 0
M  V30 2573 H 245.886 -1.19846 0.85295 0
M  V30 2574 H 247.844 -4.17143 -0.0686814 0
M  V30 2575 H 246.474 -3.16901 -0.614274 0
M  V30 2576 H 245.526 -3.35184 1.79877 0
M  V30 2577 H 246.838 -4.4946 2.16303 0
M  V30 2578 H 245.992 -6.05398 0.397327 0
M  V30 2579 H 244.731 -4.87656 -0.0656581 0
M  V30 2580 H 243.736 -5.02344 2.23452 0
M  V30 2581 H 244.961 -6.23482 2.69161 0
M  V30 2582 H 242.907 -6.54322 0.468881 0
M  V30 2583 H 242.824 -7.28097 2.03497 0
M  V30 2584 H 244.092 -7.73844 0.937311 0
M  V30 2585 N 248.321 -0.919034 -1.28029 0
M  V30 2586 C 249.254 -0.355887 -2.25408 0
M  V30 2587 C 250.232 0.542874 -1.5327 0
M  V30 2588 O 251.416 0.485338 -1.82145 0
M  V30 2589 C 248.543 0.490759 -3.35126 0
M  V30 2590 C 247.589 -0.343358 -4.25116 0
M  V30 2591 S 248.422 -1.75344 -5.05979 0
M  V30 2592 C 249.578 -0.914244 -6.19187 0
M  V30 2593 H 249.811 -1.18123 -2.72826 0
M  V30 2594 H 247.344 -0.720636 -1.36551 0
M  V30 2595 H 249.302 0.973404 -3.98792 0
M  V30 2596 H 247.963 1.29054 -2.86363 0
M  V30 2597 H 247.156 0.304266 -5.03081 0
M  V30 2598 H 246.758 -0.759851 -3.662 0
M  V30 2599 H 249.05 -0.146282 -6.77342 0
M  V30 2600 H 249.993 -1.66661 -6.88208 0
M  V30 2601 H 250.401 -0.460082 -5.62622 0
M  V30 2602 N 249.799 1.42003 -0.683588 0
M  V30 2603 C 251.048 2.00638 -0.206681 0
M  V30 2604 C 251.361 1.5472 1.19671 0
M  V30 2605 O 252.567 2.05833 1.77045 0
M  V30 2606 C 251.023 3.58487 -0.318632 0
M  V30 2607 C 250.631 4.1339 -1.72663 0
M  V30 2608 C 252.375 4.24384 0.0991141 0
M  V30 2609 C 250.282 5.63633 -1.79087 0
M  V30 2610 H 249.212 0.750408 -0.0735107 0
M  V30 2611 H 251.863 1.62624 -0.850048 0
M  V30 2612 H 250.245 3.94047 0.392781 0
M  V30 2613 H 251.419 3.89273 -2.46583 0
M  V30 2614 H 249.734 3.59976 -2.09299 0
M  V30 2615 H 252.331 5.34652 0.0713833 0
M  V30 2616 H 252.674 4.00505 1.13586 0
M  V30 2617 H 253.207 3.93816 -0.561599 0
M  V30 2618 H 249.946 5.92323 -2.80774 0
M  V30 2619 H 249.466 5.89714 -1.09535 0
M  V30 2620 H 251.145 6.28201 -1.5483 0
M  V30 2621 N 251.277 0.427512 1.51691 0
M  V30 2622 C 252.526 -0.143679 2.01188 0
M  V30 2623 C 252.839 -1.44642 1.31674 0
M  V30 2624 O 254.045 -2.09997 1.72086 0
M  V30 2625 C 252.501 -0.306602 3.58592 0
M  V30 2626 C 252.109 0.985125 4.37035 0
M  V30 2627 C 253.853 -0.832091 4.16265 0
M  V30 2628 C 251.76 0.788382 5.86122 0
M  V30 2629 H 250.69 -0.0574701 0.751807 0
M  V30 2630 H 253.341 0.555772 1.74881 0
M  V30 2631 H 251.723 -1.06882 3.81303 0
M  V30 2632 H 252.897 1.75492 4.26074 0
M  V30 2633 H 251.212 1.4384 3.90767 0
M  V30 2634 H 253.809 -0.995617 5.25349 0
M  V30 2635 H 254.152 -1.81186 3.74803 0
M  V30 2636 H 254.685 -0.128444 3.97593 0
M  V30 2637 H 251.424 1.74025 6.31978 0
M  V30 2638 H 250.944 0.0582143 5.99772 0
M  V30 2639 H 252.623 0.437722 6.45518 0
M  V30 2640 N 252.755 -1.56801 0.158532 0
M  V30 2641 C 254.003 -1.96102 -0.488712 0
M  V30 2642 C 254.324 -1.04498 -1.64636 0
M  V30 2643 O 253.594 -0.108783 -1.95598 0
M  V30 2644 H 252.174 -0.724102 -0.183535 0
M  V30 2645 H 254.836 -1.93457 0.236728 0
M  V30 2646 H 253.932 -3.00097 -0.857219 0
M  V30 2647 N 254.233 0.115231 -1.57178 0
M  V30 2648 C 255.481 0.820727 -1.84685 0
M  V30 2649 C 255.802 1.80237 -0.744279 0
M  V30 2650 O 255.072 1.94529 0.231375 0
M  V30 2651 H 253.652 0.306084 -0.681411 0
M  V30 2652 H 256.314 0.101656 -1.94635 0
M  V30 2653 H 255.41 1.36366 -2.80733 0
M  V30 2654 N 255.711 1.52812 0.385517 0
M  V30 2655 C 256.958 1.68026 1.1302 0
M  V30 2656 C 257.286 0.421934 1.89868 0
M  V30 2657 O 256.541 -0.595749 1.86412 0
M  V30 2658 C 256.84 2.86856 2.13187 0
M  V30 2659 C 256.506 4.24159 1.5297 0
M  V30 2660 C 255.168 4.61501 1.36274 0
M  V30 2661 C 257.52 5.09627 1.09223 0
M  V30 2662 C 254.848 5.81966 0.743837 0
M  V30 2663 C 257.2 6.30719 0.487411 0
M  V30 2664 C 255.864 6.6679 0.307777 0
M  V30 2665 H 255.134 0.614849 0.413571 0
M  V30 2666 H 257.781 1.86962 0.414405 0
M  V30 2667 H 256.086 2.6235 2.90998 0
M  V30 2668 H 257.783 2.95821 2.70722 0
M  V30 2669 H 254.373 3.94746 1.66954 0
M  V30 2670 H 258.557 4.81343 1.20922 0
M  V30 2671 H 253.813 6.08519 0.592891 0
M  V30 2672 H 257.987 6.96259 0.140143 0
M  V30 2673 H 255.614 7.60001 -0.173879 0
M  V30 2674 N 257.189 -0.644168 1.43834 0
M  V30 2675 C 258.414 -1.43642 1.49605 0
M  V30 2676 C 258.839 -1.8773 0.117913 0
M  V30 2677 O 258.197 -1.57938 -0.890239 0
M  V30 2678 C 258.245 -2.6416 2.45463 0
M  V30 2679 O 257.349 -3.63538 1.94714 0
M  V30 2680 H 256.69 -0.430329 0.50568 0
M  V30 2681 H 259.22 -0.787448 1.8884 0
M  V30 2682 H 259.23 -3.11864 2.63068 0
M  V30 2683 H 257.905 -2.31414 3.45572 0
M  V30 2684 H 256.482 -3.2273 1.86814 0
M  V30 2685 N 258.668 -1.30515 -0.883378 0
M  V30 2686 C 259.631 -1.1701 -1.97082 0
M  V30 2687 C 260.631 -0.10089 -1.60483 0
M  V30 2688 O 261.821 -0.349127 -1.70666 0
M  V30 2689 C 258.953 -0.793045 -3.31547 0
M  V30 2690 H 260.146 -2.13622 -2.10489 0
M  V30 2691 H 257.699 -1.13935 -1.06998 0
M  V30 2692 H 258.434 0.172499 -3.23841 0
M  V30 2693 H 258.219 -1.56576 -3.5948 0
M  V30 2694 H 259.709 -0.722073 -4.1131 0
M  V30 2695 N 260.146 1.09593 -1.13257 0
M  V30 2696 C 261.376 1.85231 -0.915049 0
M  V30 2697 C 261.784 1.81345 0.539498 0
M  V30 2698 O 261.127 1.20664 1.38513 0
M  V30 2699 C 261.189 3.34275 -1.3229 0
M  V30 2700 C 260.853 3.6191 -2.79052 0
M  V30 2701 C 261.85 3.57777 -3.77216 0
M  V30 2702 C 259.535 3.90309 -3.16171 0
M  V30 2703 C 261.529 3.81652 -5.1051 0
M  V30 2704 C 259.216 4.13839 -4.49644 0
M  V30 2705 C 260.214 4.09502 -5.46623 0
M  V30 2706 O 259.902 4.32426 -6.77689 0
M  V30 2707 H 259.634 0.591997 -0.326367 0
M  V30 2708 H 262.188 1.394 -1.50854 0
M  V30 2709 H 260.418 3.80805 -0.672667 0
M  V30 2710 H 262.107 3.9132 -1.07812 0
M  V30 2711 H 262.873 3.35865 -3.49885 0
M  V30 2712 H 258.752 3.92811 -2.41289 0
M  V30 2713 H 262.296 3.78182 -5.86195 0
M  V30 2714 H 258.193 4.35232 -4.767 0
M  V30 2715 H 258.961 4.49896 -6.83766 0
M  V30 2716 N 261.624 0.925811 1.2754 0
M  V30 2717 C 262.849 0.580924 1.99098 0
M  V30 2718 C 263.274 -0.833555 1.68622 0
M  V30 2719 O 262.632 -1.55903 0.925422 0
M  V30 2720 C 262.68 0.811186 3.51358 0
M  V30 2721 O 261.784 -0.124129 4.12213 0
M  V30 2722 H 261.125 0.223873 0.625122 0
M  V30 2723 H 263.655 1.24455 1.62395 0
M  V30 2724 H 263.665 0.72601 4.01489 0
M  V30 2725 H 262.34 1.84227 3.72872 0
M  V30 2726 H 260.917 0.0108006 3.72898 0
M  V30 2727 N 263.102 -1.41638 0.69111 0
M  V30 2728 C 264.35 -2.00902 0.219758 0
M  V30 2729 C 264.671 -1.54994 -1.18329 0
M  V30 2730 O 263.941 -0.778628 -1.79762 0
M  V30 2731 H 262.521 -0.74289 0.0782558 0
M  V30 2732 H 265.183 -1.73327 0.891271 0
M  V30 2733 H 264.279 -3.11224 0.233708 0
M  V30 2734 N 264.58 -0.43555 -1.51462 0
M  V30 2735 C 265.826 0.131709 -2.02372 0
M  V30 2736 C 266.159 1.42516 -1.3192 0
M  V30 2737 O 265.434 1.89606 -0.433573 0
M  V30 2738 C 265.717 0.352301 -3.58373 0
M  V30 2739 C 265.57 -0.959676 -4.39443 0
M  V30 2740 C 266.889 1.12286 -4.25535 0
M  V30 2741 H 264.008 0.0463936 -0.735538 0
M  V30 2742 H 266.65 -0.574197 -1.81116 0
M  V30 2743 H 264.8 0.9536 -3.76615 0
M  V30 2744 H 266.472 -1.59482 -4.32855 0
M  V30 2745 H 264.715 -1.56468 -4.04599 0
M  V30 2746 H 265.386 -0.759394 -5.46752 0
M  V30 2747 H 267.862 0.613545 -4.11552 0
M  V30 2748 H 266.738 1.24598 -5.34571 0
M  V30 2749 H 266.999 2.15048 -3.86273 0
M  V30 2750 N 266.058 1.56714 -0.166846 0
M  V30 2751 C 267.304 1.97039 0.479962 0
M  V30 2752 C 267.637 1.05264 1.63197 0
M  V30 2753 O 266.912 0.0988833 1.94248 0
M  V30 2754 C 267.195 3.46867 0.967212 0
M  V30 2755 C 267.048 4.49421 -0.18466 0
M  V30 2756 C 268.367 3.9968 1.84238 0
M  V30 2757 H 265.486 0.71641 0.172992 0
M  V30 2758 H 268.128 1.8832 -0.252079 0
M  V30 2759 H 266.278 3.54428 1.59101 0
M  V30 2760 H 267.95 4.53924 -0.821621 0
M  V30 2761 H 266.193 4.25573 -0.840837 0
M  V30 2762 H 266.864 5.51644 0.198317 0
M  V30 2763 H 269.34 3.94723 1.31655 0
M  V30 2764 H 268.216 5.04941 2.15234 0
M  V30 2765 H 268.477 3.43226 2.78654 0
M  V30 2766 N 267.536 -0.106894 1.57237 0
M  V30 2767 C 268.813 -0.843526 1.76477 0
M  V30 2768 C 269.193 -1.97499 0.745464 0
M  V30 2769 O 268.541 -2.27357 -0.228306 0
M  V30 2770 C 268.751 -1.34903 3.21873 0
M  V30 2771 C 270.099 -1.79654 3.8472 0
M  V30 2772 O 271.123 -1.44554 3.2555 0
M  V30 2773 O 269.982 -2.44515 4.88748 0
M  V30 2774 H 267.076 -0.401468 0.723016 0
M  V30 2775 H 269.622 -0.0896927 1.69463 0
M  V30 2776 H 268.394 -0.53781 3.87586 0
M  V30 2777 H 268.017 -2.16522 3.33473 0
M  V30 2778 N 269.014 -1.53014 -0.377408 0
M  V30 2779 C 270.26 -1.69821 -1.11948 0
M  V30 2780 C 270.615 -0.438581 -1.87335 0
M  V30 2781 O 269.908 0.568094 -1.82984 0
M  V30 2782 C 270.102 -2.87982 -2.11663 0
M  V30 2783 C 269.931 -4.25315 -1.46072 0
M  V30 2784 C 268.701 -4.90354 -1.21986 0
M  V30 2785 C 270.899 -5.06281 -0.904664 0
M  V30 2786 N 268.881 -6.11641 -0.526215 0
M  V30 2787 C 270.252 -6.19069 -0.339726 0
M  V30 2788 C 272.307 -4.91395 -0.8022 0
M  V30 2789 C 271.01 -7.18598 0.317669 0
M  V30 2790 C 273.036 -5.91187 -0.158606 0
M  V30 2791 C 272.398 -7.03289 0.39551 0
M  V30 2792 H 268.497 -0.674785 -0.395207 0
M  V30 2793 H 271.081 -1.90389 -0.407437 0
M  V30 2794 H 269.252 -2.68974 -2.80192 0
M  V30 2795 H 270.984 -2.93669 -2.78461 0
M  V30 2796 H 267.739 -4.49286 -1.49798 0
M  V30 2797 H 268.163 -6.76719 -0.195098 0
M  V30 2798 H 272.805 -4.04925 -1.21639 0
M  V30 2799 H 270.523 -8.04669 0.743836 0
M  V30 2800 H 274.109 -5.81744 -0.0804138 0
M  V30 2801 H 272.989 -7.79183 0.885648 0
M  V30 2802 N 270.492 0.636531 -1.44174 0
M  V30 2803 C 271.455 1.73063 -1.50273 0
M  V30 2804 C 272.455 1.56113 -0.385397 0
M  V30 2805 O 273.645 1.61707 -0.64781 0
M  V30 2806 C 270.777 3.12096 -1.37145 0
M  V30 2807 H 271.97 1.69031 -2.47727 0
M  V30 2808 H 269.523 0.849706 -1.31186 0
M  V30 2809 H 270.258 3.21728 -0.407636 0
M  V30 2810 H 270.043 3.25805 -2.18159 0
M  V30 2811 H 271.533 3.91846 -1.44382 0
M  V30 2812 N 271.97 1.30982 0.876444 0
M  V30 2813 C 272.917 1.18085 1.98304 0
M  V30 2814 C 273.887 0.0682263 1.6596 0
M  V30 2815 O 275.072 0.239937 1.89285 0
M  V30 2816 C 272.212 0.887475 3.33493 0
M  V30 2817 C 271.325 2.08281 3.78475 0
M  V30 2818 C 270.46 1.72678 5.0235 0
M  V30 2819 C 269.499 2.88657 5.39762 0
M  V30 2820 N 268.636 2.53292 6.54819 0
M  V30 2821 H 273.476 2.1275 2.08666 0
M  V30 2822 H 271.013 1.05839 1.02159 0
M  V30 2823 H 272.971 0.697961 4.1132 0
M  V30 2824 H 271.601 -0.022315 3.22792 0
M  V30 2825 H 270.653 2.3833 2.96484 0
M  V30 2826 H 271.965 2.95108 4.02135 0
M  V30 2827 H 271.119 1.50151 5.87826 0
M  V30 2828 H 269.858 0.830327 4.8058 0
M  V30 2829 H 268.863 3.1184 4.52809 0
M  V30 2830 H 270.088 3.79002 5.63502 0
M  V30 2831 H 268.034 1.66163 6.34607 0
M  V30 2832 H 267.951 3.3365 6.7839 0
M  V30 2833 H 269.219 2.34143 7.43503 0
M  V30 2834 N 273.449 -1.08991 1.13837 0
M  V30 2835 C 274.382 -2.15049 0.763477 0
M  V30 2836 C 275.36 -1.60629 -0.252398 0
M  V30 2837 O 276.544 -1.87958 -0.142853 0
M  V30 2838 C 273.671 -3.38441 0.132545 0
M  V30 2839 C 272.717 -4.11596 1.11763 0
M  V30 2840 S 273.55 -4.6521 2.65216 0
M  V30 2841 C 274.706 -5.91896 2.03495 0
M  V30 2842 H 274.939 -2.46518 1.66182 0
M  V30 2843 H 272.472 -1.21008 0.958976 0
M  V30 2844 H 274.43 -4.09883 -0.225074 0
M  V30 2845 H 273.091 -3.05182 -0.743135 0
M  V30 2846 H 272.284 -5.00121 0.624076 0
M  V30 2847 H 271.886 -3.46038 1.41894 0
M  V30 2848 H 274.178 -6.63156 1.38675 0
M  V30 2849 H 275.121 -6.45938 2.9012 0
M  V30 2850 H 275.529 -5.44625 1.48471 0
M  V30 2851 N 274.927 -0.932562 -1.27047 0
M  V30 2852 C 276.343 -0.633544 -1.46487 0
M  V30 2853 C 276.543 0.815746 -1.84249 0
M  V30 2854 O 275.599 1.59319 -1.95892 0
M  V30 2855 C 276.912 -1.58758 -2.55375 0
M  V30 2856 C 278.46 -1.59634 -2.69232 0
M  V30 2857 C 278.935 -2.53747 -3.81283 0
M  V30 2858 N 280.426 -2.51982 -3.88664 0
M  V30 2859 C 281.161 -3.21491 -4.74796 0
M  V30 2860 N 280.657 -4.00395 -5.65381 0
M  V30 2861 N 282.45 -3.10485 -4.68568 0
M  V30 2862 H 274.601 -1.86946 -1.00821 0
M  V30 2863 H 276.864 -0.802897 -0.504044 0
M  V30 2864 H 276.57 -2.62172 -2.34432 0
M  V30 2865 H 276.444 -1.33301 -3.52861 0
M  V30 2866 H 278.831 -0.569488 -2.89553 0
M  V30 2867 H 278.912 -1.89142 -1.72218 0
M  V30 2868 H 278.556 -3.56545 -3.61715 0
M  V30 2869 H 278.486 -2.21532 -4.77735 0
M  V30 2870 H 280.977 -1.94681 -3.23895 0
M  V30 2871 H 281.29 -4.50406 -6.27976 0
M  V30 2872 H 279.635 -4.04498 -5.65161 0
M  V30 2873 H 282.826 -2.48331 -3.96799 0
M  V30 2874 H 282.999 -3.64925 -5.35475 0
M  V30 2875 N 276.405 1.4127 -0.698611 0
M  V30 2876 C 277.315 2.34573 -0.0357891 0
M  V30 2877 C 278.331 1.56393 0.762701 0
M  V30 2878 O 279.507 1.8886 0.699564 0
M  V30 2879 C 276.572 3.35159 0.887089 0
M  V30 2880 C 275.633 4.29225 0.0804634 0
M  V30 2881 C 274.866 5.25006 0.959387 0
M  V30 2882 O 275.089 5.26314 2.19886 0
M  V30 2883 O 274.023 6.00519 0.407439 0
M  V30 2884 H 277.849 2.92838 -0.804957 0
M  V30 2885 H 275.434 1.42175 -0.458966 0
M  V30 2886 H 277.316 3.9689 1.41621 0
M  V30 2887 H 275.991 2.79333 1.6357 0
M  V30 2888 H 274.898 3.70833 -0.493328 0
M  V30 2889 H 276.231 4.88157 -0.629547 0
M  V30 2890 N 277.883 0.443576 1.51229 0
M  V30 2891 C 279.132 -0.122332 2.01329 0
M  V30 2892 C 279.445 -1.43237 1.33201 0
M  V30 2893 O 280.651 -2.0816 1.74304 0
M  V30 2894 C 279.107 -0.268551 3.58897 0
M  V30 2895 C 278.715 1.03142 4.35965 0
M  V30 2896 C 280.459 -0.787894 4.17124 0
M  V30 2897 C 278.366 0.850504 5.85252 0
M  V30 2898 H 277.296 -0.0494929 0.752374 0
M  V30 2899 H 279.947 0.574289 1.74282 0
M  V30 2900 H 278.329 -1.02832 3.82415 0
M  V30 2901 H 279.503 1.80001 4.24189 0
M  V30 2902 H 277.818 1.47977 3.89219 0
M  V30 2903 H 280.415 -0.939841 5.26375 0
M  V30 2904 H 280.758 -1.77201 3.76703 0
M  V30 2905 H 281.291 -0.0862669 3.97706 0
M  V30 2906 H 278.03 1.80718 6.30096 0
M  V30 2907 H 277.55 0.121825 5.99676 0
M  V30 2908 H 279.229 0.506163 6.45017 0
M  V30 2909 N 279.361 -1.56624 0.175154 0
M  V30 2910 C 280.324 -2.16934 -0.739738 0
M  V30 2911 C 281.324 -1.11842 -1.15533 0
M  V30 2912 O 282.514 -1.37335 -1.07167 0
M  V30 2913 C 279.646 -2.75531 -2.00738 0
M  V30 2914 H 280.839 -2.99131 -0.214639 0
M  V30 2915 H 278.392 -1.56123 -0.0744197 0
M  V30 2916 H 279.127 -1.97078 -2.57548 0
M  V30 2917 H 278.912 -3.52444 -1.71831 0
M  V30 2918 H 280.402 -3.21904 -2.66021 0
M  V30 2919 N 280.839 0.0985539 -1.57292 0
M  V30 2920 C 282.116 0.834155 -1.76921 0
M  V30 2921 C 282.496 1.97101 -0.755928 0
M  V30 2922 O 281.844 2.27474 0.216245 0
M  V30 2923 C 282.054 1.33194 -3.22584 0
M  V30 2924 C 283.402 1.77611 -3.85668 0
M  V30 2925 O 284.426 1.42825 -3.26312 0
M  V30 2926 O 283.285 2.4192 -4.90038 0
M  V30 2927 H 280.379 0.397628 -0.725135 0
M  V30 2928 H 282.925 0.0807044 -1.69508 0
M  V30 2929 H 281.697 0.517248 -3.87866 0
M  V30 2930 H 281.32 2.1475 -3.34616 0
M  V30 2931 N 282.317 1.53212 0.369288 0
M  V30 2932 C 283.542 1.73423 1.1375 0
M  V30 2933 C 283.967 0.460404 1.82378 0
M  V30 2934 O 283.325 -0.585298 1.71592 0
M  V30 2935 C 283.373 2.89769 2.1463 0
M  V30 2936 O 282.477 2.58119 3.21634 0
M  V30 2937 H 281.818 0.576061 0.330227 0
M  V30 2938 H 284.348 2.00083 0.427547 0
M  V30 2939 H 284.358 3.15829 2.58294 0
M  V30 2940 H 283.033 3.8217 1.64071 0
M  V30 2941 H 281.61 2.42864 2.82969 0
M  V30 2942 N 283.795 -0.628877 1.44509 0
M  V30 2943 C 285.044 -1.38437 1.4669 0
M  V30 2944 C 285.357 -1.95322 0.104272 0
M  V30 2945 O 286.563 -2.715 0.00362163 0
M  V30 2946 C 285.019 -2.50659 2.5826 0
M  V30 2947 C 284.627 -2.00277 4.0074 0
M  V30 2948 C 286.371 -3.27844 2.69664 0
M  V30 2949 C 284.278 -3.09854 5.0373 0
M  V30 2950 H 283.208 -0.520245 0.545766 0
M  V30 2951 H 285.859 -0.676313 1.70582 0
M  V30 2952 H 284.241 -3.2405 2.27612 0
M  V30 2953 H 285.415 -1.33736 4.40966 0
M  V30 2954 H 283.73 -1.35901 3.93599 0
M  V30 2955 H 286.327 -4.09534 3.43781 0
M  V30 2956 H 286.67 -3.77471 1.75559 0
M  V30 2957 H 287.203 -2.61543 2.99733 0
M  V30 2958 H 283.942 -2.65168 5.99472 0
M  V30 2959 H 283.462 -3.7503 4.68095 0
M  V30 2960 H 285.141 -3.74592 5.27532 0
M  V30 2961 N 285.273 -1.31445 -0.869486 0
M  V30 2962 C 286.521 -1.20918 -1.61936 0
M  V30 2963 C 286.842 0.232683 -1.93607 0
M  V30 2964 O 286.112 1.15352 -1.58338 0
M  V30 2965 H 284.692 -0.44454 -0.600328 0
M  V30 2966 H 287.354 -1.64776 -1.0409 0
M  V30 2967 H 286.45 -1.78124 -2.56278 0
M  V30 2968 N 286.751 1.08385 -1.14413 0
M  V30 2969 C 287.714 2.13486 -0.834048 0
M  V30 2970 C 288.714 1.59988 0.161418 0
M  V30 2971 O 289.904 1.74071 -0.0669575 0
M  V30 2972 C 287.036 3.4003 -0.243354 0
M  V30 2973 H 288.229 2.42425 -1.7655 0
M  V30 2974 H 285.782 1.24101 -0.950189 0
M  V30 2975 H 286.517 3.16726 0.696807 0
M  V30 2976 H 286.302 3.80157 -0.960367 0
M  V30 2977 H 287.792 4.17577 -0.0436242 0
M  V30 2978 N 288.23 0.939286 1.26551 0
M  V30 2979 C 289.46 0.601663 1.97645 0
M  V30 2980 C 289.868 -0.827206 1.70159 0
M  V30 2981 O 289.211 -1.56291 0.965338 0
M  V30 2982 C 289.273 0.761725 3.51337 0
M  V30 2983 C 288.937 2.16487 4.0247 0
M  V30 2984 C 289.934 3.14016 4.14355 0
M  V30 2985 C 287.619 2.48494 4.36527 0
M  V30 2986 C 289.613 4.41654 4.59587 0
M  V30 2987 C 287.3 3.76364 4.81449 0
M  V30 2988 C 288.298 4.72758 4.92939 0
M  V30 2989 O 287.986 5.98352 5.36871 0
M  V30 2990 H 287.718 0.225758 0.637189 0
M  V30 2991 H 290.272 1.26178 1.62075 0
M  V30 2992 H 288.502 0.0444808 3.86674 0
M  V30 2993 H 290.191 0.427442 4.03643 0
M  V30 2994 H 290.957 2.90613 3.8829 0
M  V30 2995 H 286.836 1.74202 4.26819 0
M  V30 2996 H 290.38 5.16896 4.68471 0
M  V30 2997 H 286.277 3.99582 5.06956 0
M  V30 2998 H 287.045 6.01507 5.55096 0
M  V30 2999 N 289.708 -1.40897 0.706093 0
M  V30 3000 C 290.638 -2.33418 0.0620085 0
M  V30 3001 C 291.619 -1.52385 -0.755827 0
M  V30 3002 O 292.804 -1.80886 -0.706674 0
M  V30 3003 C 289.934 -3.36293 -0.867445 0
M  V30 3004 C 288.888 -4.27716 -0.155932 0
M  V30 3005 C 288.214 -5.2105 -1.20046 0
M  V30 3006 C 289.514 -5.12944 0.984149 0
M  V30 3007 H 291.208 -2.87527 0.83477 0
M  V30 3008 H 288.754 -1.38249 0.402875 0
M  V30 3009 H 290.707 -3.99949 -1.32735 0
M  V30 3010 H 289.431 -2.80556 -1.67199 0
M  V30 3011 H 288.09 -3.65498 0.284047 0
M  V30 3012 H 287.738 -4.61624 -1.99781 0
M  V30 3013 H 287.438 -5.83056 -0.729328 0
M  V30 3014 H 288.962 -5.87584 -1.66066 0
M  V30 3015 H 290.376 -5.70109 0.604048 0
M  V30 3016 H 288.773 -5.83945 1.38304 0
M  V30 3017 H 289.843 -4.49485 1.81911 0
M  V30 3018 N 291.186 -0.45159 -1.50991 0
M  V30 3019 C 292.433 0.110074 -2.02201 0
M  V30 3020 C 292.761 1.4146 -1.33489 0
M  V30 3021 O 292.016 1.90617 -0.443125 0
M  V30 3022 C 292.315 0.361728 -3.55565 0
M  V30 3023 C 291.981 -0.858717 -4.42648 0
M  V30 3024 C 290.643 -1.19338 -4.66167 0
M  V30 3025 C 292.995 -1.67221 -4.93646 0
M  V30 3026 C 290.323 -2.34195 -5.37931 0
M  V30 3027 C 292.675 -2.8119 -5.6667 0
M  V30 3028 C 291.339 -3.15094 -5.88449 0
M  V30 3029 H 290.609 0.040279 -0.739904 0
M  V30 3030 H 293.256 -0.601696 -1.81802 0
M  V30 3031 H 291.561 1.15554 -3.74372 0
M  V30 3032 H 293.258 0.80996 -3.92735 0
M  V30 3033 H 289.848 -0.58796 -4.24548 0
M  V30 3034 H 294.032 -1.42686 -4.75347 0
M  V30 3035 H 289.288 -2.6076 -5.53005 0
M  V30 3036 H 293.462 -3.44585 -6.05173 0
M  V30 3037 H 291.089 -4.04204 -6.43835 0
M  V30 3038 N 292.664 1.56529 -0.183458 0
M  V30 3039 C 293.91 1.97537 0.459036 0
M  V30 3040 C 294.243 1.06989 1.62071 0
M  V30 3041 O 293.518 0.11948 1.94133 0
M  V30 3042 C 293.801 3.47874 0.930368 0
M  V30 3043 C 293.654 4.492 -0.232317 0
M  V30 3044 C 294.973 4.01612 1.79989 0
M  V30 3045 H 292.092 0.718204 0.165383 0
M  V30 3046 H 294.734 1.88042 -0.272038 0
M  V30 3047 H 292.884 3.56095 1.55333 0
M  V30 3048 H 294.556 4.53027 -0.86972 0
M  V30 3049 H 292.799 4.24657 -0.885928 0
M  V30 3050 H 293.47 5.51823 0.139796 0
M  V30 3051 H 295.946 3.96097 1.27461 0
M  V30 3052 H 294.822 5.07195 2.09867 0
M  V30 3053 H 295.083 3.46163 2.74998 0
M  V30 3054 N 294.142 -0.090211 1.57342 0
M  V30 3055 C 295.419 -0.824761 1.77361 0
M  V30 3056 C 295.799 -1.96698 0.76637 0
M  V30 3057 O 295.147 -2.27586 -0.204179 0
M  V30 3058 C 295.357 -1.31481 3.23286 0
M  V30 3059 C 296.705 -1.75563 3.86604 0
M  V30 3060 O 297.729 -1.41093 3.27065 0
M  V30 3061 O 296.588 -2.39317 4.91314 0
M  V30 3062 H 293.682 -0.393776 0.727234 0
M  V30 3063 H 296.228 -0.0717138 1.69548 0
M  V30 3064 H 295 -0.496671 3.88135 0
M  V30 3065 H 294.623 -2.12973 3.35751 0
M  V30 3066 N 295.62 -1.53406 -0.361157 0
M  V30 3067 C 296.553 -1.74946 -1.46524 0
M  V30 3068 C 297.531 -0.59795 -1.51206 0
M  V30 3069 O 298.715 -0.831062 -1.69191 0
M  V30 3070 C 295.842 -1.83224 -2.84863 0
M  V30 3071 C 294.888 -3.05233 -2.97885 0
M  V30 3072 S 295.721 -4.6466 -2.66179 0
M  V30 3073 C 296.877 -4.75793 -4.06659 0
M  V30 3074 H 297.11 -2.68319 -1.28033 0
M  V30 3075 H 294.643 -1.44051 -0.555764 0
M  V30 3076 H 296.601 -1.88679 -3.64569 0
M  V30 3077 H 295.262 -0.908948 -3.00661 0
M  V30 3078 H 294.455 -3.07648 -3.9921 0
M  V30 3079 H 294.057 -2.97913 -2.26106 0
M  V30 3080 H 296.349 -4.5612 -5.0096 0
M  V30 3081 H 297.292 -5.7786 -4.09247 0
M  V30 3082 H 297.7 -4.04389 -3.93865 0
M  V30 3083 N 297.098 0.621204 -1.44841 0
M  V30 3084 C 298.061 1.71459 -1.521 0
M  V30 3085 C 299.061 1.55696 -0.401933 0
M  V30 3086 O 300.251 1.61011 -0.664925 0
M  V30 3087 C 297.383 3.10624 -1.40447 0
M  V30 3088 H 298.576 1.66394 -2.49506 0
M  V30 3089 H 296.129 0.835745 -1.3208 0
M  V30 3090 H 296.864 3.21277 -0.441737 0
M  V30 3091 H 296.649 3.23473 -2.21602 0
M  V30 3092 H 298.139 3.90293 -1.4853 0
M  V30 3093 N 298.576 1.31904 0.862503 0
M  V30 3094 C 299.526 1.16772 1.95827 0
M  V30 3095 C 300.51 0.0767098 1.60717 0
M  V30 3096 O 301.702 0.302407 1.74398 0
M  V30 3097 C 298.831 0.884858 3.317 0
M  V30 3098 C 297.917 2.0172 3.73055 0
M  V30 3099 N 298.308 3.265 3.86305 0
M  V30 3100 C 296.606 1.91861 4.02623 0
M  V30 3101 C 297.307 4.00616 4.2176 0
M  V30 3102 N 296.283 3.28847 4.32852 0
M  V30 3103 H 300.085 2.11382 2.04193 0
M  V30 3104 H 297.599 1.2357 1.05377 0
M  V30 3105 H 299.596 0.757419 4.09962 0
M  V30 3106 H 298.256 -0.0529448 3.24657 0
M  V30 3107 H 299.267 3.61529 3.70833 0
M  V30 3108 H 295.944 1.05593 4.03926 0
M  V30 3109 H 297.334 5.08182 4.39546 0
M  V30 3110 N 300.054 -1.07777 1.14986 0
M  V30 3111 C 301.3 -1.80557 0.923422 0
M  V30 3112 C 301.633 -1.86298 -0.548337 0
M  V30 3113 O 300.908 -1.34354 -1.40639 0
M  V30 3114 C 301.191 -3.25839 1.53299 0
M  V30 3115 C 301.044 -3.28269 3.07505 0
M  V30 3116 C 302.363 -4.22991 1.21518 0
M  V30 3117 H 299.482 -0.655493 0.336894 0
M  V30 3118 H 302.124 -1.26144 1.42083 0
M  V30 3119 H 300.274 -3.72306 1.10999 0
M  V30 3120 H 301.946 -2.90079 3.58681 0
M  V30 3121 H 300.189 -2.67355 3.4162 0
M  V30 3122 H 300.86 -4.30691 3.45266 0
M  V30 3123 H 303.336 -3.84894 1.581 0
M  V30 3124 H 302.212 -5.22945 1.66793 0
M  V30 3125 H 302.473 -4.41904 0.131505 0
M  V30 3126 N 301.532 -0.945985 -1.26051 0
M  V30 3127 C 302.495 -0.463897 -2.24456 0
M  V30 3128 C 303.495 0.427655 -1.55009 0
M  V30 3129 O 304.685 0.226157 -1.72726 0
M  V30 3130 C 301.817 0.330812 -3.39291 0
M  V30 3131 H 303.01 -1.33357 -2.68619 0
M  V30 3132 H 300.563 -0.728416 -1.38289 0
M  V30 3133 H 301.298 1.21852 -3.00537 0
M  V30 3134 H 301.083 -0.308679 -3.90883 0
M  V30 3135 H 302.573 0.657865 -4.12386 0
M  V30 3136 N 303.011 1.40521 -0.713556 0
M  V30 3137 C 304.259 2.00527 -0.251692 0
M  V30 3138 C 304.58 1.56857 1.15848 0
M  V30 3139 O 303.85 0.807127 1.785 0
M  V30 3140 H 302.43 0.741551 -0.0900646 0
M  V30 3141 H 305.092 1.71887 -0.918733 0
M  V30 3142 H 304.188 3.10813 -0.283192 0
M  V30 3143 N 304.489 0.459591 1.5075 0
M  V30 3144 C 305.419 -0.330644 2.31147 0
M  V30 3145 C 306.4 -1.00087 1.37538 0
M  V30 3146 O 307.585 -1.00025 1.66459 0
M  V30 3147 C 304.715 -1.41958 3.16962 0
M  V30 3148 C 303.669 -0.871608 4.19031 0
M  V30 3149 C 302.995 -2.05797 4.9351 0
M  V30 3150 C 304.295 0.109251 5.22186 0
M  V30 3151 H 305.989 0.340336 2.97459 0
M  V30 3152 H 303.535 0.165119 1.4305 0
M  V30 3153 H 305.488 -1.9798 3.71997 0
M  V30 3154 H 304.212 -2.11917 2.48513 0
M  V30 3155 H 302.871 -0.333442 3.6508 0
M  V30 3156 H 302.519 -2.74427 4.21544 0
M  V30 3157 H 302.219 -1.6976 5.62544 0
M  V30 3158 H 303.743 -2.62331 5.51375 0
M  V30 3159 H 305.157 -0.361405 5.7216 0
M  V30 3160 H 303.554 0.383316 5.98875 0
M  V30 3161 H 304.624 1.03887 4.73641 0
M  V30 3162 N 305.967 -1.56429 0.191757 0
M  V30 3163 C 307.213 -1.97777 -0.448554 0
M  V30 3164 C 307.546 -1.07847 -1.61501 0
M  V30 3165 O 306.821 -0.129774 -1.94067 0
M  V30 3166 C 307.104 -3.48362 -0.911906 0
M  V30 3167 C 306.957 -4.4907 0.256136 0
M  V30 3168 C 308.276 -4.02561 -1.77857 0
M  V30 3169 H 305.395 -0.719071 -0.161572 0
M  V30 3170 H 308.037 -1.87896 0.282007 0
M  V30 3171 H 306.187 -3.56914 -1.53442 0
M  V30 3172 H 307.859 -4.5256 0.893733 0
M  V30 3173 H 306.102 -4.24181 0.908436 0
M  V30 3174 H 306.773 -5.51889 -0.11053 0
M  V30 3175 H 309.249 -3.96767 -1.25359 0
M  V30 3176 H 308.125 -5.08301 -2.07174 0
M  V30 3177 H 308.386 -3.47616 -2.73158 0
M  V30 3178 N 307.445 0.0818655 -1.57387 0
M  V30 3179 C 308.408 1.08265 -2.02018 0
M  V30 3180 C 309.408 1.32183 -0.915664 0
M  V30 3181 O 310.598 1.28073 -1.18081 0
M  V30 3182 C 307.73 2.42871 -2.39221 0
M  V30 3183 H 308.923 0.698204 -2.91659 0
M  V30 3184 H 306.476 0.327303 -1.52835 0
M  V30 3185 H 307.211 2.86167 -1.52575 0
M  V30 3186 H 306.996 2.26855 -3.19811 0
M  V30 3187 H 308.486 3.14826 -2.74362 0
M  V30 3188 N 308.923 1.53595 0.353017 0
M  V30 3189 C 309.886 1.80232 1.41594 0
M  V30 3190 C 310.886 0.673081 1.46035 0
M  V30 3191 O 312.076 0.941335 1.46576 0
M  V30 3192 C 309.208 1.93578 2.80607 0
M  V30 3193 H 310.401 2.75174 1.19244 0
M  V30 3194 H 307.954 1.44864 0.586872 0
M  V30 3195 H 308.689 1.00746 3.08254 0
M  V30 3196 H 308.474 2.75724 2.78781 0
M  V30 3197 H 309.964 2.15735 3.57558 0
M  V30 3198 N 310.401 -0.613514 1.45168 0
M  V30 3199 C 311.649 -1.36997 1.48581 0
M  V30 3200 C 311.97 -1.94589 0.126545 0
M  V30 3201 O 311.24 -1.76816 -0.843372 0
M  V30 3202 H 309.82 -0.508558 0.547154 0
M  V30 3203 H 312.482 -0.720853 1.81079 0
M  V30 3204 H 311.578 -2.1924 2.22127 0
M  V30 3205 N 311.879 -1.3236 -0.855495 0
M  V30 3206 C 313.125 -1.23054 -1.612 0
M  V30 3207 C 313.458 0.207404 -1.93089 0
M  V30 3208 O 312.733 1.14432 -1.57275 0
M  V30 3209 C 313.016 -2.08937 -2.93287 0
M  V30 3210 C 312.869 -3.61105 -2.68185 0
M  V30 3211 C 314.188 -1.94986 -3.94549 0
M  V30 3212 H 311.307 -0.448364 -0.584926 0
M  V30 3213 H 313.949 -1.62297 -0.987917 0
M  V30 3214 H 312.099 -1.75599 -3.46551 0
M  V30 3215 H 313.771 -4.04652 -2.21483 0
M  V30 3216 H 312.014 -3.83813 -2.02164 0
M  V30 3217 H 312.685 -4.16522 -3.62234 0
M  V30 3218 H 315.161 -2.24189 -3.5054 0
M  V30 3219 H 314.037 -2.57356 -4.84829 0
M  V30 3220 H 314.298 -0.917263 -4.3248 0
M  V30 3221 N 313.357 1.07166 -1.15556 0
M  V30 3222 C 314.587 1.83248 -0.954133 0
M  V30 3223 C 314.995 1.82449 0.500911 0
M  V30 3224 O 314.338 1.23575 1.35923 0
M  V30 3225 C 314.4 3.31393 -1.39351 0
M  V30 3226 C 314.064 3.5591 -2.86666 0
M  V30 3227 C 315.061 3.49695 -3.8472 0
M  V30 3228 C 312.746 3.83515 -3.24379 0
M  V30 3229 C 314.74 3.70737 -5.18491 0
M  V30 3230 C 312.427 4.04209 -4.58321 0
M  V30 3231 C 313.425 3.97815 -5.55186 0
M  V30 3232 O 313.113 4.17954 -6.86709 0
M  V30 3233 H 312.845 0.584941 -0.338851 0
M  V30 3234 H 315.399 1.36169 -1.53777 0
M  V30 3235 H 313.629 3.79292 -0.75329 0
M  V30 3236 H 315.318 3.88945 -1.16089 0
M  V30 3237 H 316.084 3.28368 -3.56931 0
M  V30 3238 H 311.963 3.87605 -2.49567 0
M  V30 3239 H 315.507 3.65663 -5.94085 0
M  V30 3240 H 311.404 4.25023 -4.85825 0
M  V30 3241 H 312.172 4.35291 -6.93155 0
M  V30 3242 N 314.835 0.952656 1.25548 0
M  V30 3243 C 316.246 0.647392 1.75116 0
M  V30 3244 C 316.597 -0.837274 1.77438 0
M  V30 3245 O 315.722 -1.65525 1.39393 0
M  V30 3246 C 316.317 1.16845 3.18014 0
M  V30 3247 C 314.876 0.913382 3.6515 0
M  V30 3248 C 314.023 1.31265 2.44264 0
M  V30 3249 H 316.974 1.12968 1.11462 0
M  V30 3250 H 316.995 0.527606 3.76824 0
M  V30 3251 H 316.507 2.24902 3.16292 0
M  V30 3252 H 314.608 -0.152316 3.72289 0
M  V30 3253 H 314.721 1.54845 4.53387 0
M  V30 3254 H 313.085 0.731028 2.43984 0
M  V30 3255 H 313.868 2.40239 2.45234 0
M  V30 3256 N 316.313 -1.40141 0.720998 0
M  V30 3257 C 317.261 -2.3252 0.0608547 0
M  V30 3258 C 318.255 -1.52326 -0.741152 0
M  V30 3259 O 319.461 -1.68089 -0.643911 0
M  V30 3260 H 315.836 -0.751999 0.000876664 0
M  V30 3261 H 317.807 -2.8584 0.856614 0
M  V30 3262 C 316.556 -3.37331 -0.842809 0
M  V30 3263 H 315.879 -3.99108 -0.235084 0
M  V30 3264 H 317.319 -4.04452 -1.27257 0
M  V30 3265 C 315.778 -2.73246 -1.97074 0
M  V30 3266 O 316.308 -2.59998 -3.06209 0
M  V30 3267 N 314.514 -2.31547 -1.75597 0
M  V30 3268 H 314.061 -2.42522 -0.868368 0
M  V30 3269 H 314.019 -1.89007 -2.51244 0
M  V30 3270 N 317.792 -0.46758 -1.50504 0
M  V30 3271 C 319.203 -0.0116166 -1.86696 0
M  V30 3272 C 319.554 1.39202 -1.38265 0
M  V30 3273 O 318.679 2.0313 -0.746132 0
M  V30 3274 C 319.274 -0.0143044 -3.38797 0
M  V30 3275 C 317.833 0.386175 -3.74414 0
M  V30 3276 C 316.98 -0.401287 -2.74381 0
M  V30 3277 H 319.931 -0.682022 -1.43297 0
M  V30 3278 H 319.952 0.788641 -3.72237 0
M  V30 3279 H 319.464 -1.03602 -3.74016 0
M  V30 3280 H 317.565 1.41237 -3.44794 0
M  V30 3281 H 317.678 0.0899596 -4.79016 0
M  V30 3282 H 316.042 0.144536 -2.5429 0
M  V30 3283 H 316.825 -1.42244 -3.12444 0
M  V30 3284 N 319.27 1.56325 -0.20005 0
M  V30 3285 C 320.516 1.98012 0.438059 0
M  V30 3286 C 320.849 1.08702 1.60927 0
M  V30 3287 O 320.124 0.140064 1.93995 0
M  V30 3288 C 320.407 3.48841 0.893419 0
M  V30 3289 C 320.26 4.48928 -0.279947 0
M  V30 3290 C 321.579 4.03498 1.75719 0
M  V30 3291 H 318.698 0.719918 0.157757 0
M  V30 3292 H 321.34 1.87743 -0.291968 0
M  V30 3293 H 319.49 3.57723 1.51547 0
M  V30 3294 H 321.162 4.52079 -0.91772 0
M  V30 3295 H 319.405 4.23694 -0.930919 0
M  V30 3296 H 320.076 5.5194 0.0812601 0
M  V30 3297 H 322.552 3.97427 1.23253 0
M  V30 3298 H 321.428 5.09393 2.04476 0
M  V30 3299 H 321.689 3.4906 2.71311 0
M  V30 3300 N 320.748 -0.0735177 1.57428 0
M  V30 3301 C 322.159 -0.625551 1.75908 0
M  V30 3302 C 322.51 -1.78 0.825261 0
M  V30 3303 O 321.635 -2.16398 0.00893964 0
M  V30 3304 C 322.23 -1.14155 3.18989 0
M  V30 3305 C 320.789 -1.63946 3.38819 0
M  V30 3306 C 319.936 -0.558151 2.71625 0
M  V30 3307 H 322.887 0.152647 1.57964 0
M  V30 3308 H 322.908 -2.0104 3.23053 0
M  V30 3309 H 322.42 -0.301116 3.8693 0
M  V30 3310 H 320.521 -2.50321 2.7599 0
M  V30 3311 H 320.634 -1.71759 4.47253 0
M  V30 3312 H 318.998 -1.00278 2.34129 0
M  V30 3313 H 319.781 0.272071 3.4222 0
M  V30 3314 N 322.226 -1.5378 -0.344866 0
M  V30 3315 C 323.176 -1.78057 -1.42407 0
M  V30 3316 C 324.16 -0.635732 -1.47808 0
M  V30 3317 O 325.352 -0.89508 -1.527 0
M  V30 3318 C 322.481 -1.99242 -2.79566 0
M  V30 3319 C 321.567 -3.19787 -2.78562 0
M  V30 3320 N 321.958 -4.41284 -2.47189 0
M  V30 3321 C 320.256 -3.2093 -3.0971 0
M  V30 3322 C 320.957 -5.23128 -2.54385 0
M  V30 3323 N 319.933 -4.59813 -2.89953 0
M  V30 3324 H 323.735 -2.69588 -1.17046 0
M  V30 3325 H 321.249 -1.52687 -0.553217 0
M  V30 3326 H 323.246 -2.14768 -3.57324 0
M  V30 3327 H 321.906 -1.08953 -3.05875 0
M  V30 3328 H 322.917 -4.68657 -2.20411 0
M  V30 3329 H 319.594 -2.40603 -3.41199 0
M  V30 3330 H 320.984 -6.30096 -2.333 0
M  V30 3331 N 323.704 0.605807 -1.45491 0
M  V30 3332 C 324.667 1.69836 -1.5391 0
M  V30 3333 C 325.667 1.55261 -0.418424 0
M  V30 3334 O 326.857 1.60296 -0.681965 0
M  V30 3335 C 323.989 3.09117 -1.43734 0
M  V30 3336 H 325.182 1.63738 -2.51257 0
M  V30 3337 H 322.735 0.821689 -1.32959 0
M  V30 3338 H 323.47 3.20791 -0.475788 0
M  V30 3339 H 323.255 3.21104 -2.25021 0
M  V30 3340 H 324.745 3.88696 -1.52661 0
M  V30 3341 N 325.182 1.32811 0.848464 0
M  V30 3342 C 326.132 1.18842 1.94578 0
M  V30 3343 C 327.116 0.0937517 1.60627 0
M  V30 3344 O 328.308 0.320887 1.74067 0
M  V30 3345 C 325.437 0.91999 3.30743 0
M  V30 3346 C 324.523 2.05665 3.70894 0
M  V30 3347 N 324.914 3.30579 3.8282 0
M  V30 3348 C 323.212 1.9612 4.00566 0
M  V30 3349 C 323.913 4.05067 4.17487 0
M  V30 3350 N 322.889 3.33419 4.2934 0
M  V30 3351 H 326.691 2.13536 2.0194 0
M  V30 3352 H 324.205 1.2468 1.0406 0
M  V30 3353 H 326.202 0.800859 4.09136 0
M  V30 3354 H 324.862 -0.0185076 3.24695 0
M  V30 3355 H 325.873 3.65441 3.66978 0
M  V30 3356 H 322.55 1.09871 4.02784 0
M  V30 3357 H 323.94 5.12815 4.34131 0
M  V30 3358 N 326.66 -1.06551 1.16123 0
M  V30 3359 C 327.906 -1.79567 0.94252 0
M  V30 3360 C 328.239 -1.86869 -0.528547 0
M  V30 3361 O 327.514 -1.35838 -1.39206 0
M  V30 3362 C 327.797 -3.24195 1.56747 0
M  V30 3363 C 327.65 -3.24989 3.10969 0
M  V30 3364 C 328.969 -4.21678 1.25998 0
M  V30 3365 H 326.088 -0.651883 0.343828 0
M  V30 3366 H 328.73 -1.2463 1.43413 0
M  V30 3367 H 326.88 -3.71107 1.14942 0
M  V30 3368 H 328.552 -2.86258 3.61737 0
M  V30 3369 H 326.795 -2.63716 3.44436 0
M  V30 3370 H 327.466 -4.27005 3.49815 0
M  V30 3371 H 329.942 -3.83196 1.62174 0
M  V30 3372 H 328.818 -5.21146 1.7233 0
M  V30 3373 H 329.079 -4.4174 0.178367 0
M  V30 3374 N 328.138 -0.959301 -1.25041 0
M  V30 3375 C 329.384 -0.617525 -1.9317 0
M  V30 3376 C 329.717 0.843981 -1.74902 0
M  V30 3377 O 328.992 1.60615 -1.09696 0
M  V30 3378 C 329.275 -0.982736 -3.46431 0
M  V30 3379 C 329.128 -2.50032 -3.73904 0
M  V30 3380 C 330.447 -0.511176 -4.37121 0
M  V30 3381 H 327.566 -0.22582 -0.701552 0
M  V30 3382 H 330.208 -1.19679 -1.4757 0
M  V30 3383 H 328.358 -0.489806 -3.854 0
M  V30 3384 H 330.03 -3.06737 -3.44544 0
M  V30 3385 H 328.273 -2.93598 -3.19348 0
M  V30 3386 H 328.944 -2.70635 -4.81103 0
M  V30 3387 H 331.42 -0.934075 -4.0548 0
M  V30 3388 H 330.296 -0.795361 -5.43107 0
M  V30 3389 H 330.557 0.588834 -4.38161 0
M  V30 3390 N 329.616 1.39756 -0.72842 0
M  V30 3391 C 330.844 2.04948 -0.283528 0
M  V30 3392 C 331.259 1.54908 1.0793 0
M  V30 3393 O 330.616 0.711135 1.68075 0
M  V30 3394 C 330.667 3.60498 -0.268957 0
M  V30 3395 O 330.388 4.08695 -1.57798 0
M  V30 3396 C 331.889 4.4288 0.192912 0
M  V30 3397 H 329.109 0.659243 -0.125056 0
M  V30 3398 H 331.653 1.78927 -0.990226 0
M  V30 3399 H 329.808 3.85444 0.388801 0
M  V30 3400 H 330.222 5.02977 -1.48709 0
M  V30 3401 H 331.696 5.51791 0.151952 0
M  V30 3402 H 332.173 4.21418 1.23708 0
M  V30 3403 H 332.779 4.23069 -0.435039 0
M  V30 3404 N 331.094 0.475555 1.50254 0
M  V30 3405 C 332.322 -0.0754493 2.06762 0
M  V30 3406 C 332.737 -1.33111 1.33891 0
M  V30 3407 O 332.094 -1.77846 0.40952 0
M  V30 3408 C 332.145 -0.359008 3.59713 0
M  V30 3409 O 331.866 0.846851 4.29837 0
M  V30 3410 C 333.367 -0.956484 4.32858 0
M  V30 3411 H 330.587 0.00907525 0.670939 0
M  V30 3412 H 333.131 0.665618 1.93364 0
M  V30 3413 H 331.286 -1.05001 3.72899 0
M  V30 3414 H 331.7 0.594162 5.21124 0
M  V30 3415 H 333.174 -1.10463 5.40834 0
M  V30 3416 H 333.651 -1.94775 3.93649 0
M  V30 3417 H 334.257 -0.303723 4.24214 0
M  V30 3418 N 332.573 -1.56217 0.208337 0
M  V30 3419 C 333.801 -2.02337 -0.43215 0
M  V30 3420 C 334.216 -1.08834 -1.54275 0
M  V30 3421 O 333.573 -0.0955462 -1.8225 0
M  V30 3422 C 333.624 -3.48072 -0.976138 0
M  V30 3423 O 333.345 -4.38007 0.0901621 0
M  V30 3424 C 334.846 -4.09773 -1.69119 0
M  V30 3425 H 332.066 -0.662385 -0.10718 0
M  V30 3426 H 334.61 -2.01966 0.320923 0
M  V30 3427 H 332.765 -3.49099 -1.67954 0
M  V30 3428 H 333.179 -5.23543 -0.316701 0
M  V30 3429 H 334.653 -5.13556 -2.02397 0
M  V30 3430 H 335.13 -3.53999 -2.59964 0
M  V30 3431 H 335.736 -4.12556 -1.03332 0
M  V30 3432 N 334.051 0.0651679 -1.57465 0
M  V30 3433 C 335.279 0.775808 -1.91804 0
M  V30 3434 C 335.694 1.70782 -0.804916 0
M  V30 3435 O 335.051 1.81153 0.221311 0
M  V30 3436 C 335.102 1.56381 -3.25925 0
M  V30 3437 O 334.823 0.669248 -4.32958 0
M  V30 3438 C 336.324 2.37485 -3.7432 0
M  V30 3439 H 333.544 0.2202 -0.63384 0
M  V30 3440 H 336.088 0.0334587 -2.04473 0
M  V30 3441 H 334.243 2.25837 -3.14764 0
M  V30 3442 H 334.657 1.21801 -5.10162 0
M  V30 3443 H 336.131 2.88223 -4.70778 0
M  V30 3444 H 336.608 3.17307 -3.03666 0
M  V30 3445 H 337.214 1.73173 -3.88447 0
M  V30 3446 N 335.529 1.53961 0.336706 0
M  V30 3447 C 336.479 1.7881 1.41461 0
M  V30 3448 C 337.463 0.643561 1.47469 0
M  V30 3449 O 338.655 0.903166 1.52223 0
M  V30 3450 C 335.784 2.00722 2.78506 0
M  V30 3451 C 334.87 3.2126 2.76862 0
M  V30 3452 N 335.261 4.42588 2.44845 0
M  V30 3453 C 333.559 3.22568 3.08004 0
M  V30 3454 C 334.26 5.2447 2.51607 0
M  V30 3455 N 333.236 4.61344 2.87511 0
M  V30 3456 H 337.038 2.70205 1.15615 0
M  V30 3457 H 334.552 1.52978 0.545112 0
M  V30 3458 H 336.549 2.1666 3.5618 0
M  V30 3459 H 335.209 1.10573 3.05293 0
M  V30 3460 H 336.22 4.69819 2.17922 0
M  V30 3461 H 332.897 2.42409 3.39918 0
M  V30 3462 H 334.287 6.31324 2.29955 0
M  V30 3463 N 337.007 -0.598083 1.45811 0
M  V30 3464 C 337.954 -1.7082 1.55207 0
M  V30 3465 C 338.924 -1.61278 0.39732 0
M  V30 3466 O 340.109 -1.80717 0.612038 0
M  V30 3467 C 337.249 -3.09144 1.53376 0
M  V30 3468 C 336.362 -3.29423 2.79472 0
M  V30 3469 C 335.497 -4.57907 2.69248 0
M  V30 3470 C 334.536 -4.71476 3.90354 0
M  V30 3471 N 333.673 -5.9127 3.78608 0
M  V30 3472 H 338.513 -1.62125 2.50039 0
M  V30 3473 H 336.05 -0.790389 1.24062 0
M  V30 3474 H 338.008 -3.89186 1.50301 0
M  V30 3475 H 336.638 -3.16773 0.620876 0
M  V30 3476 H 335.69 -2.43091 2.92594 0
M  V30 3477 H 337.002 -3.3532 3.69272 0
M  V30 3478 H 336.156 -5.46157 2.64192 0
M  V30 3479 H 334.895 -4.54423 1.77063 0
M  V30 3480 H 333.9 -3.81648 3.95759 0
M  V30 3481 H 335.125 -4.76751 4.83617 0
M  V30 3482 H 333.071 -5.88813 2.89199 0
M  V30 3483 H 332.988 -5.98369 4.6205 0
M  V30 3484 H 334.256 -6.81992 3.77501 0
M  V30 3485 N 338.485 -1.33259 -0.841409 0
M  V30 3486 C 339.713 -1.27605 -1.62864 0
M  V30 3487 C 340.128 0.153507 -1.88175 0
M  V30 3488 O 339.485 1.09485 -1.46011 0
M  V30 3489 C 339.536 -2.04596 -2.98031 0
M  V30 3490 O 339.257 -3.41975 -2.73834 0
M  V30 3491 C 340.758 -2.06122 -3.92465 0
M  V30 3492 H 337.978 -0.439718 -0.506842 0
M  V30 3493 H 340.522 -1.75591 -1.04824 0
M  V30 3494 H 338.677 -1.60299 -3.5268 0
M  V30 3495 H 339.091 -3.81549 -3.59889 0
M  V30 3496 H 340.565 -2.64451 -4.84531 0
M  V30 3497 H 341.042 -1.05083 -4.26444 0
M  V30 3498 H 341.648 -2.50427 -3.43753 0
M  V30 3499 N 339.963 1.05934 -1.16686 0
M  V30 3500 C 340.893 2.1546 -0.899949 0
M  V30 3501 C 341.874 1.69391 0.155154 0
M  V30 3502 O 343.059 1.94199 0.00648693 0
M  V30 3503 C 340.189 3.44939 -0.404241 0
M  V30 3504 C 339.143 4.04536 -1.39767 0
M  V30 3505 C 338.469 5.29268 -0.760216 0
M  V30 3506 C 339.769 4.42893 -2.76845 0
M  V30 3507 H 341.463 2.38046 -1.81588 0
M  V30 3508 H 339.009 1.14404 -0.874514 0
M  V30 3509 H 340.962 4.20901 -0.204971 0
M  V30 3510 H 339.686 3.21983 0.547206 0
M  V30 3511 H 338.345 3.30635 -1.58355 0
M  V30 3512 H 337.993 5.02611 0.197831 0
M  V30 3513 H 337.693 5.70101 -1.42332 0
M  V30 3514 H 339.217 6.07924 -0.57105 0
M  V30 3515 H 340.631 5.09921 -2.62019 0
M  V30 3516 H 339.028 4.94721 -3.39663 0
M  V30 3517 H 340.098 3.53584 -3.31823 0
M  V30 3518 N 341.441 0.965919 1.2453 0
M  V30 3519 C 342.404 0.499547 2.2369 0
M  V30 3520 C 343.404 -0.40294 1.5567 0
M  V30 3521 O 344.594 -0.19865 1.73064 0
M  V30 3522 C 341.726 -0.276792 3.39774 0
M  V30 3523 H 342.919 1.37613 2.66463 0
M  V30 3524 H 340.472 0.750324 1.37112 0
M  V30 3525 H 341.207 -1.17055 3.02438 0
M  V30 3526 H 340.992 0.370826 3.90343 0
M  V30 3527 H 342.482 -0.592175 4.1338 0
M  V30 3528 N 342.919 -1.39368 0.735821 0
M  V30 3529 C 344.167 -2.00101 0.283562 0
M  V30 3530 C 344.488 -1.5868 -1.13338 0
M  V30 3531 O 343.758 -0.835423 -1.77193 0
M  V30 3532 H 342.338 -0.740024 0.101851 0
M  V30 3533 H 345 -1.70404 0.945962 0
M  V30 3534 H 344.096 -3.10323 0.332604 0
M  V30 3535 N 344.397 -0.483516 -1.5 0
M  V30 3536 C 345.808 -0.0314176 -1.86674 0
M  V30 3537 C 346.159 1.37728 -1.39733 0
M  V30 3538 O 345.284 2.02327 -0.767635 0
M  V30 3539 C 345.879 -0.0502376 -3.38763 0
M  V30 3540 C 344.438 0.346442 -3.74802 0
M  V30 3541 C 343.585 -0.430366 -2.7394 0
M  V30 3542 H 346.536 -0.697182 -1.42566 0
M  V30 3543 H 346.557 0.749116 -3.73053 0
M  V30 3544 H 346.069 -1.07563 -3.72897 0
M  V30 3545 H 344.17 1.37572 -3.46273 0
M  V30 3546 H 344.283 0.0391486 -4.79084 0
M  V30 3547 H 342.647 0.117557 -2.54429 0
M  V30 3548 H 343.43 -1.4555 -3.10918 0
M  V30 3549 N 345.875 1.56104 -0.216619 0
M  V30 3550 C 347.291 1.58995 0.13886 0
M  V30 3551 C 347.491 1.23333 1.59346 0
M  V30 3552 O 346.547 0.966234 2.33281 0
M  V30 3553 C 347.86 3.00143 -0.182968 0
M  V30 3554 C 349.408 3.12751 -0.124807 0
M  V30 3555 C 349.883 4.56068 -0.420241 0
M  V30 3556 N 351.374 4.61723 -0.369634 0
M  V30 3557 C 352.109 5.70542 -0.571789 0
M  V30 3558 N 351.605 6.87744 -0.835453 0
M  V30 3559 N 353.398 5.59831 -0.504563 0
M  V30 3560 H 345.549 1.77562 -1.16557 0
M  V30 3561 H 347.812 0.825091 -0.466828 0
M  V30 3562 H 347.518 3.30871 -1.19237 0
M  V30 3563 H 347.392 3.73813 0.504367 0
M  V30 3564 H 349.779 2.81822 0.875223 0
M  V30 3565 H 349.86 2.41421 -0.845544 0
M  V30 3566 H 349.504 4.87713 -1.41769 0
M  V30 3567 H 349.434 5.25617 0.321631 0
M  V30 3568 H 351.925 3.77502 -0.173338 0
M  V30 3569 H 352.238 7.66587 -0.977938 0
M  V30 3570 H 350.583 6.895 -0.872592 0
M  V30 3571 H 353.774 4.67145 -0.298842 0
M  V30 3572 H 353.947 6.44573 -0.665519 0
M  V30 3573 N 347.353 -0.0568162 1.57498 0
M  V30 3574 C 348.601 -0.751617 1.87604 0
M  V30 3575 C 348.922 -1.77351 0.81066 0
M  V30 3576 O 348.192 -1.95254 -0.159018 0
M  V30 3577 H 346.772 -0.280583 0.692302 0
M  V30 3578 H 349.434 -0.0293483 1.94878 0
M  V30 3579 H 348.53 -1.25852 2.856 0
M  V30 3580 N 348.832 -1.54138 -0.328536 0
M  V30 3581 C 350.08 -1.71765 -1.06496 0
M  V30 3582 C 350.401 -0.49149 -1.88704 0
M  V30 3583 O 349.671 0.494539 -1.89555 0
M  V30 3584 H 348.251 -0.633295 -0.396164 0
M  V30 3585 H 350.913 -1.91429 -0.366176 0
M  V30 3586 H 350.009 -2.5951 -1.73381 0
M  V30 3587 N 350.31 0.590341 -1.46126 0
M  V30 3588 C 351.24 1.71032 -1.58966 0
M  V30 3589 C 352.221 1.64302 -0.440335 0
M  V30 3590 O 353.406 1.82436 -0.665634 0
M  V30 3591 C 350.536 3.09665 -1.57241 0
M  V30 3592 C 349.49 3.31221 -2.71066 0
M  V30 3593 C 348.816 4.70303 -2.54399 0
M  V30 3594 C 350.116 3.19796 -4.1295 0
M  V30 3595 H 351.81 1.60543 -2.52718 0
M  V30 3596 H 349.356 0.770933 -1.21625 0
M  V30 3597 H 351.309 3.87831 -1.64819 0
M  V30 3598 H 350.033 3.21036 -0.600289 0
M  V30 3599 H 348.692 2.55452 -2.62944 0
M  V30 3600 H 348.34 4.78429 -1.55288 0
M  V30 3601 H 348.04 4.85679 -3.30741 0
M  V30 3602 H 349.564 5.50647 -2.63857 0
M  V30 3603 H 350.978 3.87815 -4.22223 0
M  V30 3604 H 349.375 3.46696 -4.89818 0
M  V30 3605 H 350.445 2.16983 -4.33643 0
M  V30 3606 N 351.788 1.33704 0.83433 0
M  V30 3607 C 353.037 1.24763 1.58484 0
M  V30 3608 C 353.35 -0.183775 1.94735 0
M  V30 3609 O 354.556 -0.395234 2.68608 0
M  V30 3610 C 353.012 2.18638 2.85876 0
M  V30 3611 C 352.62 3.66974 2.56971 0
M  V30 3612 C 354.364 2.18581 3.63899 0
M  V30 3613 C 352.271 4.5275 3.80488 0
M  V30 3614 H 351.201 0.463425 0.594772 0
M  V30 3615 H 353.852 1.58797 0.919551 0
M  V30 3616 H 352.234 1.77542 3.5397 0
M  V30 3617 H 353.408 4.16538 1.9706 0
M  V30 3618 H 351.723 3.69366 1.92244 0
M  V30 3619 H 354.32 2.79894 4.55591 0
M  V30 3620 H 354.663 1.18207 3.99165 0
M  V30 3621 H 355.196 2.58062 3.02735 0
M  V30 3622 H 351.935 5.54017 3.5035 0
M  V30 3623 H 351.455 4.07927 4.39722 0
M  V30 3624 H 353.134 4.66784 4.4802 0
M  V30 3625 N 353.266 -1.05314 1.17247 0
M  V30 3626 C 354.196 -2.1498 0.911362 0
M  V30 3627 C 355.177 -1.69471 -0.146169 0
M  V30 3628 O 356.362 -1.942 0.003812 0
M  V30 3629 C 353.492 -3.4472 0.422528 0
M  V30 3630 C 352.446 -4.03789 1.4191 0
M  V30 3631 C 351.772 -5.28858 0.788274 0
M  V30 3632 C 353.072 -4.41418 2.7919 0
M  V30 3633 H 354.766 -2.3708 1.82848 0
M  V30 3634 H 352.312 -1.13938 0.880569 0
M  V30 3635 H 354.265 -4.20787 0.227289 0
M  V30 3636 H 352.989 -3.22269 -0.530123 0
M  V30 3637 H 351.648 -3.2979 1.60106 0
M  V30 3638 H 351.296 -5.02709 -0.171173 0
M  V30 3639 H 350.996 -5.69338 1.45353 0
M  V30 3640 H 352.52 -6.07612 0.603282 0
M  V30 3641 H 353.934 -5.08524 2.64719 0
M  V30 3642 H 352.331 -4.92913 3.42282 0
M  V30 3643 H 353.401 -3.51819 3.33693 0
M  V30 3644 N 354.744 -0.972509 -1.24016 0
M  V30 3645 C 355.707 -0.511403 -2.23422 0
M  V30 3646 C 356.707 0.394679 -1.55881 0
M  V30 3647 O 357.897 0.189469 -1.73167 0
M  V30 3648 C 355.029 0.258769 -3.39916 0
M  V30 3649 H 356.222 -1.39024 -2.6573 0
M  V30 3650 H 353.775 -0.757585 -1.36713 0
M  V30 3651 H 354.51 1.1545 -3.03054 0
M  V30 3652 H 354.295 -0.391522 -3.9014 0
M  V30 3653 H 355.785 0.570244 -4.13688 0
M  V30 3654 N 356.222 1.38976 -0.743202 0
M  V30 3655 C 357.169 2.30544 -0.10861 0
M  V30 3656 C 358.139 1.49642 0.720869 0
M  V30 3657 O 359.324 1.78304 0.679142 0
M  V30 3658 C 356.464 3.36018 0.786496 0
M  V30 3659 C 355.577 4.31963 -0.0564849 0
M  V30 3660 C 354.712 5.24506 0.840657 0
M  V30 3661 C 353.751 6.121 -0.00658363 0
M  V30 3662 N 352.888 6.96973 0.846943 0
M  V30 3663 H 357.728 2.8424 -0.895088 0
M  V30 3664 H 355.265 1.3995 -0.453048 0
M  V30 3665 H 357.223 3.95768 1.31999 0
M  V30 3666 H 355.853 2.83758 1.53887 0
M  V30 3667 H 354.905 3.73763 -0.707492 0
M  V30 3668 H 356.217 4.93703 -0.711229 0
M  V30 3669 H 355.371 5.89322 1.4417 0
M  V30 3670 H 354.11 4.63107 1.52916 0
M  V30 3671 H 353.115 5.46289 -0.620366 0
M  V30 3672 H 354.34 6.75565 -0.691992 0
M  V30 3673 H 352.286 6.38133 1.52059 0
M  V30 3674 H 352.203 7.5559 0.248864 0
M  V30 3675 H 353.471 7.6621 1.43328 0
M  V30 3676 N 357.7 0.491464 1.49741 0
M  V30 3677 C 358.948 -0.0563141 2.02022 0
M  V30 3678 C 359.269 -1.38363 1.37407 0
M  V30 3679 O 358.539 -1.88702 0.526166 0
M  V30 3680 H 357.119 -0.0238014 0.746621 0
M  V30 3681 H 359.781 0.646533 1.83864 0
M  V30 3682 H 358.877 -0.192967 3.11503 0
M  V30 3683 N 359.178 -1.55987 0.224894 0
M  V30 3684 C 360.426 -1.97998 -0.405099 0
M  V30 3685 C 360.747 -1.11387 -1.60056 0
M  V30 3686 O 360.017 -0.191645 -1.9496 0
M  V30 3687 H 358.597 -0.731235 -0.152658 0
M  V30 3688 H 361.259 -1.92279 0.318567 0
M  V30 3689 H 360.355 -3.03463 -0.729167 0
M  V30 3690 N 360.656 0.0484629 -1.57525 0
M  V30 3691 C 361.881 0.759177 -1.93006 0
M  V30 3692 C 362.306 1.69125 -0.823317 0
M  V30 3693 O 361.664 1.79931 0.222364 0
M  V30 3694 C 361.712 1.50899 -3.27509 0
M  V30 3695 O 360.816 2.62112 -3.18388 0
M  V30 3696 H 360.157 0.205564 -0.631379 0
M  V30 3697 H 362.687 0.00972959 -2.04598 0
M  V30 3698 H 362.697 1.88317 -3.6194 0
M  V30 3699 H 361.372 0.825269 -4.0763 0
M  V30 3700 H 359.949 2.27379 -2.95556 0
M  V30 3701 N 362.134 1.5431 0.320358 0
M  V30 3702 C 363.044 1.86946 1.41734 0
M  V30 3703 C 364.06 0.761689 1.56443 0
M  V30 3704 O 365.236 1.05629 1.71477 0
M  V30 3705 C 362.301 2.09293 2.76401 0
M  V30 3706 C 361.362 3.33082 2.70841 0
M  V30 3707 C 360.595 3.54353 3.99086 0
M  V30 3708 O 360.818 2.79002 4.97508 0
M  V30 3709 O 359.752 4.47838 4.0215 0
M  V30 3710 H 363.578 2.80232 1.17062 0
M  V30 3711 H 361.163 1.40255 0.514673 0
M  V30 3712 H 363.045 2.25303 3.56113 0
M  V30 3713 H 361.72 1.19194 3.00956 0
M  V30 3714 H 360.627 3.22454 1.89668 0
M  V30 3715 H 361.96 4.23249 2.5124 0
M  V30 3716 N 363.613 -0.582584 1.46437 0
M  V30 3717 C 364.523 -1.71949 1.59595 0
M  V30 3718 C 365.539 -1.67264 0.479443 0
M  V30 3719 O 366.715 -1.87171 0.743579 0
M  V30 3720 C 363.78 -3.08452 1.58298 0
M  V30 3721 C 362.841 -3.244 2.81182 0
M  V30 3722 C 362.074 -4.54391 2.79937 0
M  V30 3723 O 362.297 -5.38287 1.8869 0
M  V30 3724 O 361.231 -4.73588 3.71481 0
M  V30 3725 H 365.057 -1.63795 2.55744 0
M  V30 3726 H 362.642 -0.749643 1.29231 0
M  V30 3727 H 364.524 -3.89732 1.60271 0
M  V30 3728 H 363.199 -3.17043 0.653094 0
M  V30 3729 H 362.106 -2.42613 2.84763 0
M  V30 3730 H 363.439 -3.20699 3.7338 0
M  V30 3731 N 365.091 -1.34144 -0.827227 0
M  V30 3732 C 366.021 -1.28005 -1.95287 0
M  V30 3733 C 367.002 -0.158321 -1.69362 0
M  V30 3734 O 368.187 -0.349987 -1.9102 0
M  V30 3735 C 365.317 -1.03036 -3.31664 0
M  V30 3736 C 364.271 -2.11628 -3.72019 0
M  V30 3737 C 363.597 -1.71854 -5.0633 0
M  V30 3738 C 364.897 -3.53417 -3.8457 0
M  V30 3739 H 366.591 -2.22187 -2.00682 0
M  V30 3740 H 364.137 -1.0696 -0.964135 0
M  V30 3741 H 366.09 -0.973863 -4.09993 0
M  V30 3742 H 364.814 -0.0529391 -3.26557 0
M  V30 3743 H 363.473 -2.16339 -2.95961 0
M  V30 3744 H 363.121 -0.727841 -4.97706 0
M  V30 3745 H 362.821 -2.44531 -5.34302 0
M  V30 3746 H 364.345 -1.67692 -5.87122 0
M  V30 3747 H 365.759 -3.51142 -4.5318 0
M  V30 3748 H 364.156 -4.24679 -4.2399 0
M  V30 3749 H 365.226 -3.91072 -2.86689 0
M  V30 3750 N 366.569 1.04691 -1.17803 0
M  V30 3751 C 367.799 1.81183 -0.992788 0
M  V30 3752 C 368.207 1.8347 0.462098 0
M  V30 3753 O 367.55 1.2643 1.33271 0
M  V30 3754 C 367.612 3.28363 -1.46349 0
M  V30 3755 C 367.276 3.49749 -2.94151 0
M  V30 3756 C 368.273 3.41456 -3.92051 0
M  V30 3757 C 365.958 3.76548 -3.32441 0
M  V30 3758 C 367.952 3.59656 -5.26238 0
M  V30 3759 C 365.639 3.94396 -4.66792 0
M  V30 3760 C 366.637 3.8595 -5.635 0
M  V30 3761 O 366.325 4.03294 -6.9542 0
M  V30 3762 H 366.057 0.577622 -0.351182 0
M  V30 3763 H 368.611 1.32876 -1.5663 0
M  V30 3764 H 366.841 3.77609 -0.833574 0
M  V30 3765 H 368.53 3.86395 -1.24313 0
M  V30 3766 H 369.296 3.20723 -3.63815 0
M  V30 3767 H 365.175 3.82224 -2.57732 0
M  V30 3768 H 368.719 3.52979 -6.01707 0
M  V30 3769 H 364.616 4.14622 -4.94731 0
M  V30 3770 H 365.384 4.2049 -7.02232 0
M  V30 3771 N 368.047 0.979072 1.23499 0
M  V30 3772 C 368.994 0.517904 2.24914 0
M  V30 3773 C 369.964 -0.442525 1.60097 0
M  V30 3774 O 371.149 -0.350365 1.87556 0
M  V30 3775 C 368.289 -0.174813 3.44657 0
M  V30 3776 C 367.402 0.825721 4.24035 0
M  V30 3777 C 366.537 0.107946 5.3109 0
M  V30 3778 C 365.576 1.09778 6.02175 0
M  V30 3779 N 364.713 0.40925 7.00906 0
M  V30 3780 H 369.553 1.38751 2.63727 0
M  V30 3781 H 367.09 0.695303 1.2963 0
M  V30 3782 H 369.048 -0.593233 4.12961 0
M  V30 3783 H 367.678 -1.0083 3.06648 0
M  V30 3784 H 366.73 1.36253 3.55161 0
M  V30 3785 H 368.042 1.58005 4.73113 0
M  V30 3786 H 367.196 -0.367904 6.05583 0
M  V30 3787 H 365.935 -0.678994 4.8295 0
M  V30 3788 H 364.94 1.5844 5.26476 0
M  V30 3789 H 366.165 1.88536 6.52404 0
M  V30 3790 H 364.111 -0.358506 6.5502 0
M  V30 3791 H 364.028 1.10226 7.47921 0
M  V30 3792 H 365.296 -0.0442557 7.79487 0
M  V30 3793 N 369.525 -1.3858 0.750561 0
M  V30 3794 C 370.472 -2.30483 0.120835 0
M  V30 3795 C 371.442 -1.50022 -0.712923 0
M  V30 3796 O 372.627 -1.78662 -0.669676 0
M  V30 3797 C 369.767 -3.36431 -0.768666 0
M  V30 3798 C 368.88 -4.31927 0.0793922 0
M  V30 3799 C 368.015 -5.24944 -0.81283 0
M  V30 3800 C 367.054 -6.12088 0.0390447 0
M  V30 3801 N 366.191 -6.97412 -0.809969 0
M  V30 3802 H 371.031 -2.83761 0.91015 0
M  V30 3803 H 368.568 -1.39707 0.460463 0
M  V30 3804 H 370.526 -3.96462 -1.29898 0
M  V30 3805 H 369.156 -2.8457 -1.5238 0
M  V30 3806 H 368.208 -3.73382 0.727303 0
M  V30 3807 H 369.52 -4.93319 0.737401 0
M  V30 3808 H 368.674 -5.90078 -1.41042 0
M  V30 3809 H 367.413 -4.63911 -1.50458 0
M  V30 3810 H 366.418 -5.45952 0.649328 0
M  V30 3811 H 367.643 -6.75189 0.727809 0
M  V30 3812 H 365.589 -6.38931 -1.48672 0
M  V30 3813 H 365.506 -7.55712 -0.208789 0
M  V30 3814 H 366.774 -7.66959 -1.39263 0
M  V30 3815 N 371.003 -0.499398 -1.49478 0
M  V30 3816 C 371.933 0.269244 -2.31943 0
M  V30 3817 C 372.914 0.964054 -1.40143 0
M  V30 3818 O 374.099 0.955767 -1.69052 0
M  V30 3819 C 371.229 1.33504 -3.20615 0
M  V30 3820 C 370.183 0.760202 -4.21195 0
M  V30 3821 C 369.509 1.9264 -4.98792 0
M  V30 3822 C 370.809 -0.247661 -5.21712 0
M  V30 3823 H 372.503 -0.419082 -2.96452 0
M  V30 3824 H 370.049 -0.202988 -1.42562 0
M  V30 3825 H 372.002 1.88048 -3.77115 0
M  V30 3826 H 370.726 2.05253 -2.54045 0
M  V30 3827 H 369.385 0.23653 -3.65836 0
M  V30 3828 H 369.033 2.63154 -4.28671 0
M  V30 3829 H 368.733 1.54785 -5.66847 0
M  V30 3830 H 370.257 2.4762 -5.58137 0
M  V30 3831 H 371.671 0.209579 -5.72917 0
M  V30 3832 H 370.068 -0.541962 -5.97648 0
M  V30 3833 H 371.138 -1.16409 -4.7072 0
M  V30 3834 N 372.481 1.55866 -0.233164 0
M  V30 3835 C 373.429 2.22176 0.68851 0
M  V30 3836 C 374.423 1.20487 1.19076 0
M  V30 3837 O 375.629 1.38536 1.14925 0
M  V30 3838 H 372.004 0.712511 0.240483 0
M  V30 3839 H 373.975 2.98212 0.105935 0
M  V30 3840 C 372.724 2.92446 1.88071 0
M  V30 3841 H 372.047 3.70458 1.50337 0
M  V30 3842 H 373.487 3.42226 2.50314 0
M  V30 3843 C 371.946 1.95555 2.74335 0
M  V30 3844 O 372.476 1.47986 3.73447 0
M  V30 3845 N 370.682 1.62953 2.40613 0
M  V30 3846 H 370.229 2.01831 1.60069 0
M  V30 3847 H 370.187 0.983886 2.98609 0
M  V30 3848 N 373.959 -0.0401083 1.57549 0
M  V30 3849 C 375.184 -0.748931 1.93406 0
M  V30 3850 C 375.609 -1.68686 0.832274 0
M  V30 3851 O 374.967 -1.80047 -0.212818 0
M  V30 3852 C 375.015 -1.4916 3.28304 0
M  V30 3853 O 374.119 -2.6042 3.19774 0
M  V30 3854 H 373.46 -0.202212 0.63246 0
M  V30 3855 H 375.99 0.00112086 2.046 0
M  V30 3856 H 376 -1.86395 3.62934 0
M  V30 3857 H 374.675 -0.80364 4.08062 0
M  V30 3858 H 373.252 -2.25808 2.96758 0
M  V30 3859 N 375.437 -1.54477 -0.31217 0
M  V30 3860 C 376.4 -1.83923 -1.36766 0
M  V30 3861 C 377.4 -0.711563 -1.44199 0
M  V30 3862 O 378.59 -0.979866 -1.44029 0
M  V30 3863 C 375.722 -2.0095 -2.75376 0
M  V30 3864 H 376.915 -2.78239 -1.11906 0
M  V30 3865 H 374.468 -1.46369 -0.548257 0
M  V30 3866 H 375.203 -1.08883 -3.05475 0
M  V30 3867 H 374.988 -2.83018 -2.71373 0
M  V30 3868 H 376.478 -2.2514 -3.51713 0
M  V30 3869 N 376.915 0.57481 -1.46744 0
M  V30 3870 C 378.161 1.3347 -1.52688 0
M  V30 3871 C 378.494 1.93353 -0.181229 0
M  V30 3872 O 377.769 1.76912 0.808237 0
M  V30 3873 C 378.052 2.45811 -2.63152 0
M  V30 3874 C 377.905 1.90912 -4.07275 0
M  V30 3875 C 379.224 3.47822 -2.69644 0
M  V30 3876 H 376.343 0.483935 -0.555856 0
M  V30 3877 H 378.985 0.644968 -1.78718 0
M  V30 3878 H 377.135 3.04646 -2.41088 0
M  V30 3879 H 378.807 1.36473 -4.4065 0
M  V30 3880 H 377.05 1.21691 -4.16382 0
M  V30 3881 H 377.721 2.72042 -4.80309 0
M  V30 3882 H 380.197 2.9888 -2.895 0
M  V30 3883 H 379.073 4.23876 -3.48742 0
M  V30 3884 H 379.334 4.05555 -1.76005 0
M  V30 3885 N 378.394 1.34581 0.820102 0
M  V30 3886 C 379.641 1.27096 1.57648 0
M  V30 3887 C 379.969 -0.158317 1.93855 0
M  V30 3888 O 379.224 -1.12028 1.60463 0
M  V30 3889 C 379.523 2.10997 2.8847 0
M  V30 3890 C 379.189 3.59966 2.71543 0
M  V30 3891 C 377.851 4.00575 2.66634 0
M  V30 3892 C 380.203 4.54548 2.55021 0
M  V30 3893 C 377.531 5.33953 2.43128 0
M  V30 3894 C 379.883 5.88109 2.33047 0
M  V30 3895 C 378.547 6.27878 2.26552 0
M  V30 3896 H 377.817 0.465078 0.576874 0
M  V30 3897 H 380.464 1.6635 0.948671 0
M  V30 3898 H 378.769 1.6458 3.55557 0
M  V30 3899 H 380.466 2.0255 3.46084 0
M  V30 3900 H 377.056 3.27733 2.76205 0
M  V30 3901 H 381.24 4.24069 2.57835 0
M  V30 3902 H 376.496 5.63781 2.3656 0
M  V30 3903 H 380.67 6.60985 2.19251 0
M  V30 3904 H 378.297 7.31162 2.081 0
M  V30 3905 N 379.872 -1.04064 1.18357 0
M  V30 3906 C 381.283 -1.58719 0.98312 0
M  V30 3907 C 381.634 -1.90556 -0.467193 0
M  V30 3908 O 380.759 -1.69561 -1.34454 0
M  V30 3909 C 381.354 -2.88379 1.77828 0
M  V30 3910 C 379.913 -3.3965 1.62218 0
M  V30 3911 C 379.06 -2.13235 1.77274 0
M  V30 3912 H 382.011 -0.867359 1.32901 0
M  V30 3913 H 382.032 -3.58773 1.26737 0
M  V30 3914 H 381.544 -2.65176 2.83379 0
M  V30 3915 H 379.645 -3.67866 0.592036 0
M  V30 3916 H 379.758 -4.13475 2.42023 0
M  V30 3917 H 378.122 -2.24542 1.20221 0
M  V30 3918 H 378.905 -1.92487 2.8426 0
M  V30 3919 N 381.35 -0.985608 -1.22978 0
M  V30 3920 C 382.598 -0.656087 -1.91154 0
M  V30 3921 C 382.919 0.813561 -1.77218 0
M  V30 3922 O 382.189 1.58244 -1.1548 0
M  V30 3923 H 380.769 -0.239674 -0.707506 0
M  V30 3924 H 383.431 -1.25054 -1.49491 0
M  V30 3925 H 382.527 -0.912253 -2.9847 0
M  V30 3926 N 382.828 1.3818 -0.7579 0
M  V30 3927 C 384.076 1.99624 -0.315361 0
M  V30 3928 C 384.397 1.60464 1.10799 0
M  V30 3929 O 383.667 0.863507 1.75842 0
M  V30 3930 H 382.247 0.73831 -0.113611 0
M  V30 3931 H 384.909 1.68878 -0.972952 0
M  V30 3932 H 384.005 3.09754 -0.381931 0
M  V30 3933 N 384.306 0.507319 1.49211 0
M  V30 3934 C 385.238 -0.304532 2.27168 0
M  V30 3935 C 386.251 -0.924956 1.33972 0
M  V30 3936 O 387.44 -0.807227 1.59205 0
M  V30 3937 C 384.54 -1.44431 3.06583 0
M  V30 3938 C 383.713 -0.930026 4.27398 0
M  V30 3939 C 382.772 -1.94817 4.88807 0
M  V30 3940 O 381.798 -1.51418 5.4869 0
M  V30 3941 N 383 -3.279 4.79022 0
M  V30 3942 H 385.765 0.36395 2.97482 0
M  V30 3943 H 383.326 0.340249 1.58284 0
M  V30 3944 H 385.318 -2.12311 3.44537 0
M  V30 3945 H 383.888 -2.01684 2.38835 0
M  V30 3946 H 383.108 -0.0759244 3.94127 0
M  V30 3947 H 384.396 -0.564932 5.05654 0
M  V30 3948 H 383.794 -3.65843 4.3148 0
M  V30 3949 H 382.351 -3.91476 5.21142 0
M  V30 3950 N 385.784 -1.5574 0.241426 0
M  V30 3951 C 387.032 -1.98417 -0.384075 0
M  V30 3952 C 387.353 -1.13078 -1.58866 0
M  V30 3953 O 386.623 -0.212312 -1.94746 0
M  V30 3954 H 385.203 -0.732813 -0.144894 0
M  V30 3955 H 387.865 -1.9193 0.338943 0
M  V30 3956 H 386.961 -3.04219 -0.696939 0
M  V30 3957 N 387.262 0.0317525 -1.57568 0
M  V30 3958 C 388.51 0.721676 -1.88776 0
M  V30 3959 C 388.831 1.76039 -0.838772 0
M  V30 3960 O 388.101 1.95482 0.127935 0
M  V30 3961 H 386.681 0.269534 -0.696678 0
M  V30 3962 H 389.343 -0.00165879 -1.949 0
M  V30 3963 H 388.439 1.21293 -2.87566 0
M  V30 3964 N 388.74 1.54641 0.303973 0
M  V30 3965 C 390.151 1.64811 0.877163 0
M  V30 3966 C 390.502 0.554838 1.88191 0
M  V30 3967 O 389.627 -0.309033 2.14182 0
M  V30 3968 C 390.222 2.9876 1.59775 0
M  V30 3969 C 388.781 3.11061 2.11938 0
M  V30 3970 C 387.928 2.60479 0.951097 0
M  V30 3971 H 390.879 1.58493 0.0810486 0
M  V30 3972 H 390.9 2.90017 2.46314 0
M  V30 3973 H 390.412 3.7831 0.866226 0
M  V30 3974 H 388.513 2.36225 2.88146 0
M  V30 3975 H 388.626 4.17171 2.35595 0
M  V30 3976 H 386.99 2.16859 1.33583 0
M  V30 3977 H 387.773 3.42504 0.233581 0
M  V30 3978 N 390.218 -0.567019 1.47046 0
M  V30 3979 C 391.148 -1.68482 1.61667 0
M  V30 3980 C 392.129 -1.6358 0.466418 0
M  V30 3981 O 393.314 -1.81354 0.694574 0
M  V30 3982 C 390.444 -3.07124 1.62148 0
M  V30 3983 C 389.398 -3.26867 2.76301 0
M  V30 3984 C 388.724 -4.66196 2.61849 0
M  V30 3985 C 390.024 -3.13186 4.17986 0
M  V30 3986 H 391.718 -1.56502 2.5524 0
M  V30 3987 H 389.264 -0.751486 1.22836 0
M  V30 3988 H 391.217 -3.8516 1.70968 0
M  V30 3989 H 389.941 -3.2004 0.651287 0
M  V30 3990 H 388.6 -2.51237 2.66975 0
M  V30 3991 H 388.248 -4.75898 1.62879 0
M  V30 3992 H 387.948 -4.80356 3.38425 0
M  V30 3993 H 389.472 -5.46379 2.72584 0
M  V30 3994 H 390.886 -3.81049 4.2834 0
M  V30 3995 H 389.283 -3.3886 4.95272 0
M  V30 3996 H 390.353 -2.10057 4.3704 0
M  V30 3997 N 391.696 -1.35014 -0.812953 0
M  V30 3998 C 392.629 -1.21761 -1.93001 0
M  V30 3999 C 393.607 -0.10694 -1.62248 0
M  V30 4000 O 394.791 -0.273891 -1.865 0
M  V30 4001 C 391.918 -0.873404 -3.27245 0
M  V30 4002 C 390.964 -1.99523 -3.76952 0
M  V30 4003 S 391.797 -3.61009 -3.95516 0
M  V30 4004 C 392.953 -3.28651 -5.32672 0
M  V30 4005 H 393.186 -2.16315 -2.03948 0
M  V30 4006 H 390.719 -1.20156 -0.969631 0
M  V30 4007 H 392.677 -0.68161 -4.04802 0
M  V30 4008 H 391.338 0.053971 -3.14054 0
M  V30 4009 H 390.531 -1.70838 -4.74163 0
M  V30 4010 H 390.133 -2.14503 -3.06373 0
M  V30 4011 H 392.425 -2.81085 -6.1644 0
M  V30 4012 H 393.368 -4.25039 -5.66346 0
M  V30 4013 H 393.776 -2.6458 -4.98656 0
M  V30 4014 N 393.175 1.03435 -1.18907 0
M  V30 4015 C 394.125 2.09924 -0.889706 0
M  V30 4016 C 395.109 1.60261 0.143216 0
M  V30 4017 O 396.301 1.76892 -0.0617122 0
M  V30 4018 C 393.43 3.40669 -0.424168 0
M  V30 4019 C 392.516 3.97082 -1.48952 0
M  V30 4020 N 392.907 4.27227 -2.70759 0
M  V30 4021 C 391.205 4.25029 -1.35152 0
M  V30 4022 C 391.906 4.7246 -3.39347 0
M  V30 4023 N 390.882 4.7366 -2.66735 0
M  V30 4024 H 394.684 2.31116 -1.81555 0
M  V30 4025 H 392.198 1.21246 -1.08042 0
M  V30 4026 H 394.195 4.16461 -0.191176 0
M  V30 4027 H 392.855 3.20901 0.495263 0
M  V30 4028 H 393.866 4.16678 -3.0757 0
M  V30 4029 H 390.543 4.14554 -0.495126 0
M  V30 4030 H 391.933 5.04751 -4.43481 0
M  V30 4031 N 394.653 0.992116 1.22453 0
M  V30 4032 C 395.899 0.668523 1.91464 0
M  V30 4033 C 396.232 -0.797313 1.77078 0
M  V30 4034 O 395.507 -1.5765 1.13916 0
M  V30 4035 C 395.79 1.07424 3.43703 0
M  V30 4036 C 395.643 2.59857 3.67143 0
M  V30 4037 C 396.962 0.626891 4.35612 0
M  V30 4038 H 394.081 0.244341 0.695318 0
M  V30 4039 H 396.723 1.2355 1.44345 0
M  V30 4040 H 394.873 0.591816 3.83966 0
M  V30 4041 H 396.545 3.15764 3.3629 0
M  V30 4042 H 394.788 3.01961 3.11451 0
M  V30 4043 H 395.459 2.83296 4.73759 0
M  V30 4044 H 397.935 1.04125 4.02861 0
M  V30 4045 H 396.811 0.939076 5.40807 0
M  V30 4046 H 397.072 -0.472457 4.39568 0
M  V30 4047 N 396.131 -1.37776 0.765217 0
M  V30 4048 C 397.38 -1.99092 0.323307 0
M  V30 4049 C 397.693 -1.61434 -1.10446 0
M  V30 4050 O 398.899 -2.15805 -1.64743 0
M  V30 4051 C 397.355 -3.56019 0.527098 0
M  V30 4052 C 396.963 -4.0262 1.96471 0
M  V30 4053 C 398.707 -4.2424 0.148483 0
M  V30 4054 C 396.614 -5.52233 2.11644 0
M  V30 4055 H 395.544 -0.744846 0.117137 0
M  V30 4056 H 398.195 -1.57391 0.943417 0
M  V30 4057 H 396.577 -3.95667 -0.162372 0
M  V30 4058 H 397.751 -3.74234 2.68859 0
M  V30 4059 H 396.066 -3.47161 2.29931 0
M  V30 4060 H 398.663 -5.34159 0.240456 0
M  V30 4061 H 399.006 -4.06446 -0.900422 0
M  V30 4062 H 399.539 -3.89872 0.79025 0
M  V30 4063 H 396.278 -5.74945 3.1483 0
M  V30 4064 H 395.798 -5.82324 1.4373 0
M  V30 4065 H 397.477 -6.18106 1.91193 0
M  V30 4066 N 397.609 -0.515225 -1.4894 0
M  V30 4067 C 398.572 0.244681 -2.2789 0
M  V30 4068 C 399.572 0.881166 -1.34507 0
M  V30 4069 O 400.762 0.743497 -1.57537 0
M  V30 4070 C 397.894 1.35247 -3.12923 0
M  V30 4071 H 399.087 -0.448289 -2.96531 0
M  V30 4072 H 396.64 -0.270656 -1.53939 0
M  V30 4073 H 397.375 2.07916 -2.48881 0
M  V30 4074 H 397.16 0.901374 -3.81599 0
M  V30 4075 H 398.65 1.88737 -3.72516 0
M  V30 4076 N 399.087 1.5561 -0.249682 0
M  V30 4077 C 400.335 1.98618 0.373548 0
M  V30 4078 C 400.656 1.13919 1.58264 0
M  V30 4079 O 399.926 0.222637 1.94631 0
M  V30 4080 H 398.506 0.733571 0.141006 0
M  V30 4081 H 401.168 1.91748 -0.349117 0
M  V30 4082 H 400.264 3.04584 0.680796 0
M  V30 4083 N 400.565 -0.0233959 1.57583 0
M  V30 4084 C 401.512 -1.02224 2.06927 0
M  V30 4085 C 402.482 -1.35575 0.959617 0
M  V30 4086 O 403.667 -1.45815 1.23055 0
M  V30 4087 C 400.807 -2.31636 2.5581 0
M  V30 4088 C 399.92 -2.04394 3.80588 0
M  V30 4089 C 399.055 -3.27717 4.18061 0
M  V30 4090 C 398.094 -2.96056 5.3574 0
M  V30 4091 N 397.231 -4.11847 5.68618 0
M  V30 4092 H 402.071 -0.594504 2.9201 0
M  V30 4093 H 399.608 -0.281921 1.44373 0
M  V30 4094 H 401.566 -3.07258 2.82221 0
M  V30 4095 H 400.196 -2.72122 1.73636 0
M  V30 4096 H 399.248 -1.19244 3.61227 0
M  V30 4097 H 400.56 -1.77042 4.66323 0
M  V30 4098 H 399.714 -4.11702 4.4563 0
M  V30 4099 H 398.453 -3.58188 3.30988 0
M  V30 4100 H 397.458 -2.10474 5.07918 0
M  V30 4101 H 398.683 -2.66857 6.24471 0
M  V30 4102 H 396.629 -4.42258 4.84504 0
M  V30 4103 H 396.546 -3.87938 6.48876 0
M  V30 4104 H 397.814 -4.96689 6.00766 0
M  V30 4105 N 402.043 -1.548 -0.295768 0
M  V30 4106 C 403.006 -1.85363 -1.34808 0
M  V30 4107 C 404.006 -0.726817 -1.43436 0
M  V30 4108 O 405.196 -0.995088 -1.42981 0
M  V30 4109 C 402.328 -2.03859 -2.73229 0
M  V30 4110 H 403.521 -2.7941 -1.08949 0
M  V30 4111 H 401.074 -1.46942 -0.532702 0
M  V30 4112 H 401.809 -1.12117 -3.04303 0
M  V30 4113 H 401.594 -2.8588 -2.68356 0
M  V30 4114 H 403.084 -2.28857 -3.49305 0
M  V30 4115 N 403.521 0.559213 -1.47345 0
M  V30 4116 C 404.767 1.31843 -1.54095 0
M  V30 4117 C 405.1 1.93149 -0.201726 0
M  V30 4118 O 404.375 1.77759 0.789428 0
M  V30 4119 C 404.658 2.43006 -2.65744 0
M  V30 4120 C 404.511 1.86581 -4.09277 0
M  V30 4121 C 405.83 3.44943 -2.73318 0
M  V30 4122 H 402.949 0.478012 -0.560957 0
M  V30 4123 H 405.591 0.625977 -1.79392 0
M  V30 4124 H 403.741 3.02072 -2.44305 0
M  V30 4125 H 405.413 1.31792 -4.42073 0
M  V30 4126 H 403.656 1.17268 -4.17649 0
M  V30 4127 H 404.327 2.66933 -4.83168 0
M  V30 4128 H 406.803 2.95793 -2.92653 0
M  V30 4129 H 405.679 4.20153 -3.53218 0
M  V30 4130 H 405.94 4.03665 -1.80296 0
M  V30 4131 N 404.999 1.35443 0.805782 0
M  V30 4132 C 405.962 1.28301 1.89925 0
M  V30 4133 C 406.962 0.194285 1.59622 0
M  V30 4134 O 408.152 0.448036 1.6834 0
M  V30 4135 C 405.284 0.984997 3.2636 0
M  V30 4136 H 406.477 2.2553 1.97677 0
M  V30 4137 H 404.03 1.19979 1.00173 0
M  V30 4138 H 404.765 0.016603 3.24296 0
M  V30 4139 H 404.55 1.77269 3.4974 0
M  V30 4140 H 406.04 0.960651 4.064 0
M  V30 4141 N 406.477 -1.02803 1.19454 0
M  V30 4142 C 407.407 -2.12999 0.956758 0
M  V30 4143 C 408.388 -1.69743 -0.110188 0
M  V30 4144 O 409.573 -1.94148 0.0450038 0
M  V30 4145 C 406.703 -3.43746 0.495553 0
M  V30 4146 C 405.657 -4.00688 1.50443 0
M  V30 4147 C 404.983 -5.27067 0.900275 0
M  V30 4148 C 406.283 -4.35397 2.8849 0
M  V30 4149 H 407.977 -2.33148 1.87836 0
M  V30 4150 H 405.523 -1.12045 0.904539 0
M  V30 4151 H 407.476 -4.2021 0.316493 0
M  V30 4152 H 406.2 -3.23321 -0.461646 0
M  V30 4153 H 404.859 -3.2632 1.67065 0
M  V30 4154 H 404.507 -5.02959 -0.064503 0
M  V30 4155 H 404.207 -5.66127 1.57397 0
M  V30 4156 H 405.731 -6.06196 0.73203 0
M  V30 4157 H 407.145 -5.02795 2.75446 0
M  V30 4158 H 405.542 -4.85541 3.52661 0
M  V30 4159 H 406.612 -3.44662 3.41081 0
M  V30 4160 N 407.956 -0.998596 -1.21925 0
M  V30 4161 C 408.903 -0.553621 -2.24062 0
M  V30 4162 C 409.873 0.416999 -1.6078 0
M  V30 4163 O 411.058 0.320482 -1.88089 0
M  V30 4164 C 408.198 0.119959 -3.44891 0
M  V30 4165 C 407.311 -0.893077 -4.22668 0
M  V30 4166 C 406.446 -0.192424 -5.30851 0
M  V30 4167 C 405.485 -1.19344 -6.00353 0
M  V30 4168 N 404.622 -0.520707 -7.00166 0
M  V30 4169 H 409.462 -1.4293 -2.61486 0
M  V30 4170 H 406.999 -0.715838 -1.28507 0
M  V30 4171 H 408.957 0.527459 -4.13852 0
M  V30 4172 H 407.587 0.959389 -3.08214 0
M  V30 4173 H 406.639 -1.41886 -3.52948 0
M  V30 4174 H 407.951 -1.65512 -4.70539 0
M  V30 4175 H 407.105 0.271515 -6.06092 0
M  V30 4176 H 405.844 0.602075 -4.83969 0
M  V30 4177 H 404.849 -1.66795 -5.23889 0
M  V30 4178 H 406.074 -1.98891 -6.49322 0
M  V30 4179 H 404.02 0.254252 -6.55507 0
M  V30 4180 H 403.937 -1.2211 -7.46073 0
M  V30 4181 H 405.205 -0.0797596 -7.79459 0
M  V30 4182 N 409.434 1.37368 -0.772513 0
M  V30 4183 C 410.344 2.34053 -0.160081 0
M  V30 4184 C 411.36 1.60216 0.678728 0
M  V30 4185 O 412.536 1.92303 0.59847 0
M  V30 4186 C 409.601 3.3939 0.708182 0
M  V30 4187 C 408.662 4.29048 -0.147172 0
M  V30 4188 C 407.895 5.29354 0.679744 0
M  V30 4189 O 408.118 5.3723 1.91678 0
M  V30 4190 O 407.052 6.01835 0.0885444 0
M  V30 4191 H 410.878 2.88159 -0.959053 0
M  V30 4192 H 408.463 1.39543 -0.533685 0
M  V30 4193 H 410.345 4.03839 1.20384 0
M  V30 4194 H 409.02 2.8761 1.48533 0
M  V30 4195 H 407.927 3.67697 -0.689205 0
M  V30 4196 H 409.26 4.84134 -0.887423 0
M  V30 4197 N 410.912 0.523116 1.48665 0
M  V30 4198 C 411.875 -0.232592 2.28017 0
M  V30 4199 C 412.875 -0.874021 1.34972 0
M  V30 4200 O 414.065 -0.735132 1.57929 0
M  V30 4201 C 411.197 -1.33586 3.13636 0
M  V30 4202 H 412.39 0.464008 2.96289 0
M  V30 4203 H 409.943 0.278816 1.53793 0
M  V30 4204 H 410.678 -2.06593 2.4998 0
M  V30 4205 H 410.463 -0.881125 3.82071 0
M  V30 4206 H 411.953 -1.86759 3.73511 0
M  V30 4207 N 412.39 -1.55475 0.257931 0
M  V30 4208 C 413.323 -2.179 -0.677862 0
M  V30 4209 C 414.301 -1.13448 -1.16483 0
M  V30 4210 O 415.485 -1.41889 -1.24095 0
M  V30 4211 C 412.612 -2.78851 -1.92249 0
M  V30 4212 C 411.658 -3.96454 -1.57246 0
M  V30 4213 S 412.491 -5.31349 -0.665501 0
M  V30 4214 C 413.647 -5.9576 -1.91889 0
M  V30 4215 H 413.88 -2.96934 -0.147396 0
M  V30 4216 H 411.413 -1.54342 0.0423023 0
M  V30 4217 H 413.371 -3.14602 -2.63697 0
M  V30 4218 H 412.032 -1.99742 -2.42409 0
M  V30 4219 H 411.225 -4.37731 -2.49814 0
M  V30 4220 H 410.827 -3.62038 -0.938325 0
M  V30 4221 H 413.119 -6.13947 -2.86487 0
M  V30 4222 H 414.062 -6.9094 -1.54942 0
M  V30 4223 H 414.47 -5.2494 -2.076 0
M  V30 4224 N 413.868 0.0150385 -1.57593 0
M  V30 4225 C 414.778 1.02791 -2.10882 0
M  V30 4226 C 415.794 1.38702 -1.0506 0
M  V30 4227 O 416.97 1.47739 -1.36877 0
M  V30 4228 C 414.035 2.30568 -2.58919 0
M  V30 4229 C 413.096 2.01108 -3.79281 0
M  V30 4230 C 412.329 3.22794 -4.25018 0
M  V30 4231 O 412.552 4.33959 -3.70183 0
M  V30 4232 O 411.486 3.07672 -5.17322 0
M  V30 4233 H 415.312 0.604973 -2.97613 0
M  V30 4234 H 412.897 0.23292 -1.47573 0
M  V30 4235 H 414.779 3.05662 -2.90084 0
M  V30 4236 H 413.454 2.72129 -1.75293 0
M  V30 4237 H 412.361 1.23537 -3.53114 0
M  V30 4238 H 413.694 1.64394 -4.63935 0
M  V30 4239 N 415.346 1.54954 0.287554 0
M  V30 4240 C 416.757 1.65732 0.859634 0
M  V30 4241 C 417.108 0.574767 1.87592 0
M  V30 4242 O 416.233 -0.286299 2.14498 0
M  V30 4243 C 416.828 3.00438 1.56597 0
M  V30 4244 C 415.387 3.13292 2.08627 0
M  V30 4245 C 414.534 2.61473 0.923416 0
M  V30 4246 H 417.485 1.5857 0.0642338 0
M  V30 4247 H 417.506 2.92613 2.43224 0
M  V30 4248 H 417.018 3.79207 0.826053 0
M  V30 4249 H 415.119 2.39268 2.85625 0
M  V30 4250 H 415.232 4.19647 2.31157 0
M  V30 4251 H 413.596 2.18264 1.31275 0
M  V30 4252 H 414.379 3.42733 0.197241 0
M  V30 4253 N 416.824 -0.551391 1.4764 0
M  V30 4254 C 417.734 -1.68525 1.63207 0
M  V30 4255 C 418.75 -1.6621 0.514815 0
M  V30 4256 O 419.926 -1.85551 0.783113 0
M  V30 4257 C 416.991 -3.05025 1.64805 0
M  V30 4258 C 416.052 -3.18362 2.88 0
M  V30 4259 C 415.285 -4.4835 2.89513 0
M  V30 4260 O 415.508 -5.34163 2.00065 0
M  V30 4261 O 414.442 -4.65602 3.81443 0
M  V30 4262 H 418.268 -1.58333 2.59161 0
M  V30 4263 H 415.853 -0.722063 1.30792 0
M  V30 4264 H 417.735 -3.86245 1.68502 0
M  V30 4265 H 416.41 -3.15587 0.720197 0
M  V30 4266 H 415.317 -2.36518 2.89845 0
M  V30 4267 H 416.65 -3.12707 3.80099 0
M  V30 4268 N 418.302 -1.35869 -0.798587 0
M  V30 4269 C 419.549 -1.29588 -1.55606 0
M  V30 4270 C 419.877 0.127456 -1.94082 0
M  V30 4271 O 419.132 1.09461 -1.62225 0
M  V30 4272 C 419.431 -2.1556 -2.85077 0
M  V30 4273 C 419.097 -3.6424 -2.65781 0
M  V30 4274 C 417.759 -4.04766 -2.60227 0
M  V30 4275 C 420.111 -4.58547 -2.47758 0
M  V30 4276 C 417.439 -5.37753 -2.34603 0
M  V30 4277 C 419.791 -5.91742 -2.23662 0
M  V30 4278 C 418.455 -6.31402 -2.16534 0
M  V30 4279 H 417.725 -0.474197 -0.569402 0
M  V30 4280 H 420.372 -1.67839 -0.922086 0
M  V30 4281 H 418.677 -1.70216 -3.52893 0
M  V30 4282 H 420.374 -2.08031 -3.42818 0
M  V30 4283 H 416.964 -3.32086 -2.70956 0
M  V30 4284 H 421.148 -4.28117 -2.51056 0
M  V30 4285 H 416.404 -5.67474 -2.2756 0
M  V30 4286 H 420.578 -6.6439 -2.08708 0
M  V30 4287 H 418.205 -7.34381 -1.96441 0
M  V30 4288 N 419.78 1.02168 -1.19998 0
M  V30 4289 C 420.727 2.10601 -0.944228 0
M  V30 4290 C 421.697 1.65639 0.123664 0
M  V30 4291 O 422.882 1.9079 -0.0199941 0
M  V30 4292 C 420.022 3.41504 -0.496865 0
M  V30 4293 C 419.135 3.99973 -1.63234 0
M  V30 4294 C 418.27 5.18915 -1.13579 0
M  V30 4295 C 417.309 5.69456 -2.24468 0
M  V30 4296 N 416.446 6.79665 -1.76068 0
M  V30 4297 H 421.286 2.31814 -1.8726 0
M  V30 4298 H 418.823 1.13686 -0.933483 0
M  V30 4299 H 420.781 4.16626 -0.218843 0
M  V30 4300 H 419.411 3.2038 0.394508 0
M  V30 4301 H 418.463 3.21997 -2.0254 0
M  V30 4302 H 419.775 4.33492 -2.46752 0
M  V30 4303 H 418.929 6.01222 -0.813429 0
M  V30 4304 H 417.668 4.8695 -0.270434 0
M  V30 4305 H 416.673 4.85757 -2.57526 0
M  V30 4306 H 417.898 6.03459 -3.11472 0
M  V30 4307 H 415.844 6.49538 -0.918516 0
M  V30 4308 H 415.761 7.12349 -2.5317 0
M  V30 4309 H 417.029 7.65549 -1.46817 0
M  V30 4310 N 421.258 1.00505 1.21394 0
M  V30 4311 C 422.486 0.706609 1.9446 0
M  V30 4312 C 422.901 -0.73081 1.74082 0
M  V30 4313 O 422.258 -1.49446 1.04747 0
M  V30 4314 C 422.309 1.01824 3.46863 0
M  V30 4315 O 422.03 2.39919 3.66566 0
M  V30 4316 C 423.531 0.739216 4.37093 0
M  V30 4317 H 420.751 0.260394 0.618414 0
M  V30 4318 H 423.295 1.34311 1.54211 0
M  V30 4319 H 421.45 0.427343 3.85036 0
M  V30 4320 H 421.864 2.50784 4.6066 0
M  V30 4321 H 423.338 1.00744 5.42729 0
M  V30 4322 H 423.815 -0.326746 4.37983 0
M  V30 4323 H 424.421 1.31173 4.04566 0
M  V30 4324 N 422.737 -1.36956 0.779787 0
M  V30 4325 C 423.967 -2.03459 0.358877 0
M  V30 4326 C 424.375 -1.58939 -1.02641 0
M  V30 4327 O 423.718 -0.769777 -1.66794 0
M  V30 4328 C 423.78 -3.5796 0.332393 0
M  V30 4329 C 423.444 -4.25644 1.66362 0
M  V30 4330 C 424.441 -4.49205 2.61746 0
M  V30 4331 C 422.126 -4.63313 1.94027 0
M  V30 4332 C 424.12 -5.09503 3.82996 0
M  V30 4333 C 421.807 -5.2333 3.15546 0
M  V30 4334 C 422.805 -5.46363 4.0985 0
M  V30 4335 O 422.493 -6.05122 5.29228 0
M  V30 4336 H 422.225 -0.659767 0.147254 0
M  V30 4337 H 424.779 -1.76111 1.05708 0
M  V30 4338 H 423.009 -3.84388 -0.422237 0
M  V30 4339 H 424.698 -4.05852 -0.0625389 0
M  V30 4340 H 425.464 -4.20508 2.41657 0
M  V30 4341 H 421.343 -4.44715 1.21448 0
M  V30 4342 H 424.887 -5.27397 4.56617 0
M  V30 4343 H 420.784 -5.51451 3.35517 0
M  V30 4344 H 421.552 -6.23595 5.30161 0
M  V30 4345 N 424.215 -0.530993 -1.48385 0
M  V30 4346 C 425.147 0.268353 -2.27624 0
M  V30 4347 C 426.16 0.903525 -1.35426 0
M  V30 4348 O 427.349 0.781796 -1.60469 0
M  V30 4349 C 424.449 1.39535 -3.08842 0
M  V30 4350 C 423.622 0.861913 -4.28824 0
M  V30 4351 C 422.681 1.87016 -4.91845 0
M  V30 4352 O 421.707 1.4267 -5.5103 0
M  V30 4353 N 422.909 3.20238 -4.84178 0
M  V30 4354 H 425.674 -0.41123 -2.96865 0
M  V30 4355 H 423.235 -0.365387 -1.57723 0
M  V30 4356 H 425.227 2.06803 -3.47871 0
M  V30 4357 H 423.797 1.97859 -2.42014 0
M  V30 4358 H 423.017 0.0132126 -3.94198 0
M  V30 4359 H 424.305 0.484415 -5.06489 0
M  V30 4360 H 423.703 3.58932 -4.37246 0
M  V30 4361 H 422.26 3.83136 -5.27305 0
M  V30 4362 N 425.693 1.55336 -0.266172 0
M  V30 4363 C 426.625 2.19544 0.658247 0
M  V30 4364 C 427.638 1.17746 1.12427 0
M  V30 4365 O 428.827 1.44517 1.04772 0
M  V30 4366 C 425.927 2.80032 1.9088 0
M  V30 4367 C 425.1 4.07436 1.59106 0
M  V30 4368 C 424.159 4.52056 2.69317 0
M  V30 4369 O 423.185 5.18023 2.35883 0
M  V30 4370 N 424.387 4.21448 3.99201 0
M  V30 4371 H 427.152 2.99503 0.108754 0
M  V30 4372 H 424.713 1.61667 -0.0869059 0
M  V30 4373 H 426.705 3.06831 2.63888 0
M  V30 4374 H 425.275 2.04119 2.36758 0
M  V30 4375 H 424.495 3.88021 0.695243 0
M  V30 4376 H 425.783 4.90462 1.35367 0
M  V30 4377 H 425.181 3.68528 4.29189 0
M  V30 4378 H 423.738 4.53039 4.68614 0
M  V30 4379 N 427.171 -0.0066808 1.57599 0
M  V30 4380 C 428.103 -1.02827 2.04839 0
M  V30 4381 C 429.116 -1.31108 0.965113 0
M  V30 4382 O 430.305 -1.28202 1.24203 0
M  V30 4383 C 427.405 -2.36464 2.42771 0
M  V30 4384 C 426.578 -2.27219 3.73751 0
M  V30 4385 C 425.637 -3.43489 3.98625 0
M  V30 4386 O 424.663 -3.21976 4.69382 0
M  V30 4387 N 425.865 -4.66116 3.46 0
M  V30 4388 H 428.63 -0.625455 2.93101 0
M  V30 4389 H 426.191 -0.194198 1.60731 0
M  V30 4390 H 428.183 -3.13008 2.56531 0
M  V30 4391 H 426.753 -2.68512 1.60063 0
M  V30 4392 H 425.973 -1.35629 3.70133 0
M  V30 4393 H 427.261 -2.18208 4.59633 0
M  V30 4394 H 426.659 -4.86493 2.88688 0
M  V30 4395 H 425.216 -5.39949 3.65101 0
M  V30 4396 N 428.649 -1.55105 -0.279332 0
M  V30 4397 C 429.895 -1.75672 -1.01327 0
M  V30 4398 C 430.228 -0.552739 -1.86168 0
M  V30 4399 O 429.503 0.449827 -1.89227 0
M  V30 4400 C 429.786 -3.05825 -1.90114 0
M  V30 4401 C 429.639 -4.36565 -1.08309 0
M  V30 4402 C 430.958 -3.31975 -2.8893 0
M  V30 4403 H 428.077 -0.639149 -0.366957 0
M  V30 4404 H 430.719 -1.87833 -0.286154 0
M  V30 4405 H 428.869 -2.95588 -2.52111 0
M  V30 4406 H 430.541 -4.58751 -0.484314 0
M  V30 4407 H 428.784 -4.32076 -0.386362 0
M  V30 4408 H 429.455 -5.23946 -1.73737 0
M  V30 4409 H 431.931 -3.41963 -2.37067 0
M  V30 4410 H 430.807 -4.2432 -3.48201 0
M  V30 4411 H 431.068 -2.51309 -3.63725 0
M  V30 4412 N 430.127 0.543554 -1.4793 0
M  V30 4413 C 431.09 1.63156 -1.60975 0
M  V30 4414 C 432.09 1.53346 -0.483899 0
M  V30 4415 O 433.28 1.5726 -0.749339 0
M  V30 4416 C 430.412 3.02743 -1.56716 0
M  V30 4417 H 431.605 1.52934 -2.57975 0
M  V30 4418 H 429.158 0.764557 -1.36324 0
M  V30 4419 H 429.893 3.18484 -0.611418 0
M  V30 4420 H 429.678 3.11272 -2.38438 0
M  V30 4421 H 431.168 3.81871 -1.6901 0
M  V30 4422 N 431.605 1.3629 0.791371 0
M  V30 4423 C 432.552 1.30458 1.90393 0
M  V30 4424 C 433.522 0.173632 1.6519 0
M  V30 4425 O 434.707 0.35983 1.87376 0
M  V30 4426 C 431.847 1.09777 3.27174 0
M  V30 4427 C 430.96 2.31929 3.64462 0
M  V30 4428 C 430.095 2.04276 4.90352 0
M  V30 4429 C 429.134 3.224 5.20312 0
M  V30 4430 N 428.271 2.94424 6.37385 0
M  V30 4431 H 433.111 2.25589 1.94714 0
M  V30 4432 H 430.648 1.12122 0.952216 0
M  V30 4433 H 432.606 0.958133 4.06049 0
M  V30 4434 H 431.236 0.183014 3.22281 0
M  V30 4435 H 430.288 2.56703 2.80727 0
M  V30 4436 H 431.6 3.20085 3.82553 0
M  V30 4437 H 430.754 1.87231 5.77087 0
M  V30 4438 H 429.493 1.13428 4.74326 0
M  V30 4439 H 428.498 3.40005 4.32061 0
M  V30 4440 H 429.723 4.14071 5.38258 0
M  V30 4441 H 427.669 2.06185 6.22755 0
M  V30 4442 H 427.586 3.76118 6.55798 0
M  V30 4443 H 428.854 2.80953 7.27108 0
M  V30 4444 N 433.083 -1.0153 1.20538 0
M  V30 4445 C 434.031 -2.12215 0.952235 0
M  V30 4446 C 435.025 -1.69123 -0.0968735 0
M  V30 4447 O 436.231 -1.7992 0.0536006 0
M  V30 4448 H 432.606 -0.693576 0.290613 0
M  V30 4449 H 434.577 -2.3075 1.89201 0
M  V30 4450 C 433.326 -3.43755 0.522287 0
M  V30 4451 H 432.649 -3.7734 1.32115 0
M  V30 4452 H 434.089 -4.22254 0.384389 0
M  V30 4453 C 432.548 -3.28088 -0.765489 0
M  V30 4454 O 433.078 -3.57921 -1.8236 0
M  V30 4455 N 431.284 -2.81333 -0.728011 0
M  V30 4456 H 430.831 -2.57255 0.133332 0
M  V30 4457 H 430.789 -2.71232 -1.58999 0
M  V30 4458 N 434.561 -1.01147 -1.20859 0
M  V30 4459 C 435.524 -0.582224 -2.21682 0
M  V30 4460 C 436.524 0.344887 -1.57058 0
M  V30 4461 O 437.714 0.134281 -1.73682 0
M  V30 4462 C 434.846 0.150496 -3.40568 0
M  V30 4463 H 436.039 -1.47408 -2.61172 0
M  V30 4464 H 433.592 -0.800695 -1.34233 0
M  V30 4465 H 434.327 1.0575 -3.06574 0
M  V30 4466 H 434.112 -0.515444 -3.88697 0
M  V30 4467 H 435.602 0.438344 -4.15293 0
M  V30 4468 N 436.039 1.36541 -0.78704 0
M  V30 4469 C 436.986 2.30082 -0.181901 0
M  V30 4470 C 437.956 1.5186 0.672896 0
M  V30 4471 O 439.141 1.80374 0.622072 0
M  V30 4472 C 436.281 3.3835 0.679197 0
M  V30 4473 C 435.394 4.31565 -0.193882 0
M  V30 4474 C 434.529 5.26915 0.673364 0
M  V30 4475 C 433.568 6.11769 -0.201315 0
M  V30 4476 N 432.705 6.99315 0.624777 0
M  V30 4477 H 437.545 2.81248 -0.985064 0
M  V30 4478 H 435.082 1.38437 -0.497342 0
M  V30 4479 H 437.04 3.99767 1.19341 0
M  V30 4480 H 435.67 2.8851 1.44781 0
M  V30 4481 H 434.722 3.71323 -0.826044 0
M  V30 4482 H 436.034 4.91191 -0.867937 0
M  V30 4483 H 435.188 5.9361 1.25348 0
M  V30 4484 H 433.927 4.67737 1.38105 0
M  V30 4485 H 432.932 5.44039 -0.793849 0
M  V30 4486 H 434.157 6.73022 -0.906568 0
M  V30 4487 H 432.103 6.42648 1.3168 0
M  V30 4488 H 432.02 7.56 0.00835237 0
M  V30 4489 H 433.288 7.70382 1.18879 0
M  V30 4490 N 437.518 0.538854 1.48102 0
M  V30 4491 C 438.481 -0.208395 2.28251 0
M  V30 4492 C 439.481 -0.859656 1.35892 0
M  V30 4493 O 440.671 -0.71834 1.58699 0
M  V30 4494 C 437.803 -1.30252 3.15035 0
M  V30 4495 H 438.996 0.495407 2.9578 0
M  V30 4496 H 436.549 0.295112 1.53489 0
M  V30 4497 H 437.284 -2.0393 2.52157 0
M  V30 4498 H 437.069 -0.840551 3.82985 0
M  V30 4499 H 438.559 -1.82787 3.75471 0
M  V30 4500 N 438.996 -1.55193 0.274407 0
M  V30 4501 C 439.929 -2.18606 -0.654712 0
M  V30 4502 C 440.907 -1.14677 -1.15273 0
M  V30 4503 O 442.091 -1.43198 -1.22583 0
M  V30 4504 C 439.218 -2.80875 -1.89281 0
M  V30 4505 C 438.264 -3.981 -1.53032 0
M  V30 4506 S 439.097 -5.32025 -0.609107 0
M  V30 4507 C 440.253 -5.97761 -1.85559 0
M  V30 4508 H 440.486 -2.97074 -0.115894 0
M  V30 4509 H 438.019 -1.54288 0.05867 0
M  V30 4510 H 439.977 -3.17381 -2.60345 0
M  V30 4511 H 438.638 -2.02302 -2.40277 0
M  V30 4512 H 437.831 -4.40356 -2.45158 0
M  V30 4513 H 437.433 -3.63013 -0.899874 0
M  V30 4514 H 439.725 -6.16951 -2.7996 0
M  V30 4515 H 440.668 -6.92545 -1.47605 0
M  V30 4516 H 441.076 -5.27113 -2.02021 0
M  V30 4517 N 440.474 -0.00167713 -1.576 0
M  V30 4518 C 441.72 0.683832 -1.90923 0
M  V30 4519 C 442.053 1.7333 -0.875799 0
M  V30 4520 O 441.328 1.94215 0.10525 0
M  V30 4521 C 441.611 1.32543 -3.3482 0
M  V30 4522 C 441.464 0.287387 -4.48881 0
M  V30 4523 C 442.783 2.25114 -3.78169 0
M  V30 4524 H 439.902 0.247125 -0.694333 0
M  V30 4525 H 442.544 -0.0533149 -1.89925 0
M  V30 4526 H 440.694 1.95372 -3.35801 0
M  V30 4527 H 442.366 -0.341346 -4.60035 0
M  V30 4528 H 440.609 -0.39017 -4.32042 0
M  V30 4529 H 441.28 0.775393 -5.46527 0
M  V30 4530 H 443.756 1.723 -3.7875 0
M  V30 4531 H 442.632 2.66971 -4.79602 0
M  V30 4532 H 442.893 3.13092 -3.12131 0
M  V30 4533 N 441.952 1.55251 0.271103 0
M  V30 4534 C 442.862 1.9136 1.35714 0
M  V30 4535 C 443.878 0.811075 1.5394 0
M  V30 4536 O 445.054 1.11031 1.6803 0
M  V30 4537 C 442.119 2.1798 2.69603 0
M  V30 4538 C 441.18 3.4153 2.60107 0
M  V30 4539 C 440.413 3.66871 3.8761 0
M  V30 4540 O 440.636 2.94689 4.8838 0
M  V30 4541 O 439.57 4.60405 3.87699 0
M  V30 4542 H 443.396 2.83815 1.08088 0
M  V30 4543 H 440.981 1.41821 0.469792 0
M  V30 4544 H 442.863 2.36518 3.48765 0
M  V30 4545 H 441.538 1.28708 2.97012 0
M  V30 4546 H 440.445 3.28325 1.79314 0
M  V30 4547 H 441.778 4.31027 2.37647 0
M  V30 4548 N 443.43 -0.535701 1.48216 0
M  V30 4549 C 444.676 -1.29375 1.56173 0
M  V30 4550 C 445.009 -1.92804 0.232429 0
M  V30 4551 O 444.284 -1.78992 -0.761048 0
M  V30 4552 C 444.567 -2.38747 2.69577 0
M  V30 4553 C 444.42 -1.80046 4.12193 0
M  V30 4554 C 445.739 -3.40551 2.78771 0
M  V30 4555 H 442.858 -0.469027 0.568491 0
M  V30 4556 H 445.5 -0.597358 1.80365 0
M  V30 4557 H 443.65 -2.98147 2.4908 0
M  V30 4558 H 445.322 -1.24742 4.44114 0
M  V30 4559 H 443.565 -1.10609 4.19462 0
M  V30 4560 H 444.236 -2.59212 4.87353 0
M  V30 4561 H 446.712 -2.91099 2.97322 0
M  V30 4562 H 445.588 -4.1448 3.59857 0
M  V30 4563 H 445.849 -4.00746 1.86696 0
M  V30 4564 N 444.908 -1.36708 -0.784132 0
M  V30 4565 C 446.155 -1.31231 -1.54222 0
M  V30 4566 C 446.483 0.106864 -1.94206 0
M  V30 4567 O 445.738 1.07734 -1.63376 0
M  V30 4568 C 446.037 -2.18571 -2.82774 0
M  V30 4569 C 445.703 -3.67039 -2.61903 0
M  V30 4570 C 444.365 -4.07503 -2.55919 0
M  V30 4571 C 446.717 -4.61149 -2.4288 0
M  V30 4572 C 444.045 -5.40211 -2.28886 0
M  V30 4573 C 446.397 -5.94081 -2.17373 0
M  V30 4574 C 445.061 -6.33664 -2.09825 0
M  V30 4575 H 444.331 -0.48021 -0.56434 0
M  V30 4576 H 446.978 -1.68807 -0.904233 0
M  V30 4577 H 445.283 -1.73949 -3.51068 0
M  V30 4578 H 446.98 -2.11655 -3.40592 0
M  V30 4579 H 443.57 -3.34941 -2.67418 0
M  V30 4580 H 447.754 -4.30756 -2.46501 0
M  V30 4581 H 443.01 -5.69855 -2.21529 0
M  V30 4582 H 447.184 -6.66566 -2.01649 0
M  V30 4583 H 444.811 -7.36423 -1.88641 0
M  V30 4584 N 446.386 1.0089 -1.21074 0
M  V30 4585 C 447.316 2.1145 -0.990523 0
M  V30 4586 C 448.297 1.69897 0.0831699 0
M  V30 4587 O 449.482 1.94052 -0.0758853 0
M  V30 4588 C 446.612 3.42914 -0.550177 0
M  V30 4589 C 445.566 3.98244 -1.56799 0
M  V30 4590 C 444.892 5.25568 -0.984013 0
M  V30 4591 C 446.192 4.30752 -2.95381 0
M  V30 4592 H 447.886 2.3013 -1.91521 0
M  V30 4593 H 445.432 1.10592 -0.92225 0
M  V30 4594 H 447.385 4.19653 -0.383305 0
M  V30 4595 H 446.109 3.24014 0.41015 0
M  V30 4596 H 444.768 3.23621 -1.72236 0
M  V30 4597 H 444.416 5.02998 -0.0155216 0
M  V30 4598 H 444.116 5.63551 -1.66384 0
M  V30 4599 H 445.64 6.04955 -0.828378 0
M  V30 4600 H 447.054 4.98349 -2.8341 0
M  V30 4601 H 445.451 4.79869 -3.60341 0
M  V30 4602 H 446.521 3.39192 -3.46521 0
M  V30 4603 N 447.864 1.01787 1.20321 0
M  V30 4604 C 448.774 0.598898 2.26827 0
M  V30 4605 C 449.79 -0.36418 1.70146 0
M  V30 4606 O 450.966 -0.224812 2.00141 0
M  V30 4607 C 448.031 -0.0549769 3.46656 0
M  V30 4608 C 447.092 0.954205 4.18561 0
M  V30 4609 C 446.325 0.331439 5.3267 0
M  V30 4610 O 446.548 -0.86851 5.63749 0
M  V30 4611 O 445.482 1.0488 5.92692 0
M  V30 4612 H 449.308 1.48562 2.64883 0
M  V30 4613 H 446.893 0.787434 1.26964 0
M  V30 4614 H 448.775 -0.420102 4.19301 0
M  V30 4615 H 447.45 -0.915876 3.10473 0
M  V30 4616 H 446.357 1.37072 3.48083 0
M  V30 4617 H 447.69 1.78511 4.58688 0
M  V30 4618 N 449.342 -1.36122 0.79427 0
M  V30 4619 C 450.758 -1.5232 0.476525 0
M  V30 4620 C 450.958 -1.74685 -1.00436 0
M  V30 4621 O 450.014 -1.78115 -1.78973 0
M  V30 4622 C 451.327 -2.70607 1.31119 0
M  V30 4623 C 452.875 -2.8448 1.30537 0
M  V30 4624 C 453.35 -4.05778 2.12387 0
M  V30 4625 N 454.841 -4.12933 2.09859 0
M  V30 4626 C 455.576 -5.05876 2.69957 0
M  V30 4627 N 455.072 -6.04232 3.38934 0
M  V30 4628 N 456.865 -4.98528 2.59665 0
M  V30 4629 H 449.016 -1.1986 1.75349 0
M  V30 4630 H 451.279 -0.585418 0.745647 0
M  V30 4631 H 450.985 -2.60619 2.36158 0
M  V30 4632 H 450.859 -3.64888 0.955843 0
M  V30 4633 H 453.246 -2.93927 0.262876 0
M  V30 4634 H 453.327 -1.91093 1.70051 0
M  V30 4635 H 452.971 -3.97092 3.1667 0
M  V30 4636 H 452.901 -4.98323 1.70242 0
M  V30 4637 H 455.392 -3.42515 1.59662 0
M  V30 4638 H 455.705 -6.71724 3.82109 0
M  V30 4639 H 454.05 -6.04443 3.43036 0
M  V30 4640 H 457.241 -4.20641 2.05375 0
M  V30 4641 H 457.414 -5.70773 3.06793 0
M  V30 4642 N 450.82 -0.546701 -1.47814 0
M  V30 4643 C 452.068 -0.0187037 -2.02091 0
M  V30 4644 C 452.389 1.33168 -1.42447 0
M  V30 4645 O 451.659 1.86619 -0.595839 0
M  V30 4646 H 450.239 -0.00392531 -0.74699 0
M  V30 4647 H 452.901 -0.714327 -1.81338 0
M  V30 4648 H 451.997 0.0772219 -3.12004 0
M  V30 4649 N 452.299 1.55045 -0.282633 0
M  V30 4650 C 453.529 2.03872 0.334635 0
M  V30 4651 C 453.937 1.16018 1.49454 0
M  V30 4652 O 453.28 0.174449 1.8287 0
M  V30 4653 C 453.342 3.48791 0.870905 0
M  V30 4654 C 453.006 4.56715 -0.161338 0
M  V30 4655 C 454.003 5.10513 -0.983466 0
M  V30 4656 C 451.688 5.01417 -0.297745 0
M  V30 4657 C 453.682 6.07538 -1.92811 0
M  V30 4658 C 451.369 5.98265 -1.24586 0
M  V30 4659 C 452.367 6.51208 -2.05954 0
M  V30 4660 O 452.055 7.46162 -2.99162 0
M  V30 4661 H 451.787 0.671324 0.0793742 0
M  V30 4662 H 454.341 2.01169 -0.41473 0
M  V30 4663 H 452.571 3.48758 1.67047 0
M  V30 4664 H 454.26 3.80916 1.40207 0
M  V30 4665 H 455.026 4.76785 -0.888856 0
M  V30 4666 H 450.905 4.59849 0.325604 0
M  V30 4667 H 454.449 6.48787 -2.56363 0
M  V30 4668 H 450.346 6.31412 -1.34126 0
M  V30 4669 H 451.114 7.63903 -2.93929 0
M  V30 4670 N 453.777 0.010035 1.57597 0
M  V30 4671 C 454.724 -0.978122 2.09049 0
M  V30 4672 C 455.694 -1.33509 0.988159 0
M  V30 4673 O 456.879 -1.43172 1.26121 0
M  V30 4674 C 454.019 -2.26158 2.60666 0
M  V30 4675 C 453.132 -1.96275 3.84838 0
M  V30 4676 C 452.267 -3.18776 4.24918 0
M  V30 4677 C 451.306 -2.84625 5.41899 0
M  V30 4678 N 450.443 -3.99693 5.77226 0
M  V30 4679 H 455.283 -0.532431 2.93205 0
M  V30 4680 H 452.82 -0.251234 1.44939 0
M  V30 4681 H 454.778 -3.01202 2.88675 0
M  V30 4682 H 453.408 -2.68378 1.79369 0
M  V30 4683 H 452.46 -1.11555 3.63675 0
M  V30 4684 H 453.772 -1.67111 4.69974 0
M  V30 4685 H 452.926 -4.02157 4.54262 0
M  V30 4686 H 451.665 -3.51087 3.38511 0
M  V30 4687 H 450.67 -1.99653 5.12268 0
M  V30 4688 H 451.895 -2.53551 6.29991 0
M  V30 4689 H 449.841 -4.31882 4.93776 0
M  V30 4690 H 449.758 -3.74087 6.56959 0
M  V30 4691 H 451.026 -4.83834 6.11167 0
M  V30 4692 N 455.255 -1.55392 -0.262866 0
M  V30 4693 C 456.501 -1.76737 -0.99458 0
M  V30 4694 C 456.834 -0.572453 -1.85571 0
M  V30 4695 O 456.109 0.429732 -1.89693 0
M  V30 4696 C 456.392 -3.07824 -1.8686 0
M  V30 4697 C 456.245 -4.3769 -1.03672 0
M  V30 4698 C 457.564 -3.35021 -2.85393 0
M  V30 4699 H 454.683 -0.643005 -0.360157 0
M  V30 4700 H 457.325 -1.88126 -0.266216 0
M  V30 4701 H 455.475 -2.98245 -2.48962 0
M  V30 4702 H 457.147 -4.59238 -0.43563 0
M  V30 4703 H 455.39 -4.32461 -0.340513 0
M  V30 4704 H 456.061 -5.25759 -1.6817 0
M  V30 4705 H 458.537 -3.44458 -2.33426 0
M  V30 4706 H 457.413 -4.27989 -3.43681 0
M  V30 4707 H 457.674 -2.55153 -3.61039 0
M  V30 4708 N 456.733 0.527833 -1.48498 0
M  V30 4709 C 457.979 1.28545 -1.56857 0
M  V30 4710 C 458.312 1.92678 -0.242651 0
M  V30 4711 O 457.587 1.79394 0.751545 0
M  V30 4712 C 457.87 2.37314 -2.70839 0
M  V30 4713 C 457.723 1.77858 -4.13142 0
M  V30 4714 C 459.042 3.39068 -2.80573 0
M  V30 4715 H 456.161 0.466006 -0.570971 0
M  V30 4716 H 458.803 0.587784 -1.8068 0
M  V30 4717 H 456.953 2.96821 -2.50658 0
M  V30 4718 H 458.625 1.22385 -4.44769 0
M  V30 4719 H 456.868 1.08383 -4.20042 0
M  V30 4720 H 457.539 2.56624 -4.88721 0
M  V30 4721 H 460.015 2.89518 -2.98862 0
M  V30 4722 H 458.891 4.12566 -3.6205 0
M  V30 4723 H 459.152 3.9975 -1.88818 0
M  V30 4724 N 458.211 1.37122 0.776871 0
M  V30 4725 C 459.436 1.354 1.57104 0
M  V30 4726 C 459.861 -0.0595562 1.88006 0
M  V30 4727 O 459.219 -1.03514 1.48844 0
M  V30 4728 C 459.267 2.19472 2.8612 0
M  V30 4729 O 458.371 1.59582 3.80273 0
M  V30 4730 H 457.712 0.462869 0.476076 0
M  V30 4731 H 460.242 1.80577 0.961932 0
M  V30 4732 H 460.252 2.32502 3.35271 0
M  V30 4733 H 458.927 3.22222 2.62956 0
M  V30 4734 H 457.504 1.55564 3.38902 0
M  V30 4735 N 459.689 -1.00246 1.21608 0
M  V30 4736 C 460.937 -1.73717 1.0328 0
M  V30 4737 C 461.258 -1.90102 -0.434318 0
M  V30 4738 O 460.528 -1.45376 -1.31311 0
M  V30 4739 H 459.108 -0.643613 0.379172 0
M  V30 4740 H 461.77 -1.20787 1.52959 0
M  V30 4741 H 460.866 -2.73535 1.50283 0
M  V30 4742 N 461.167 -1.02423 -1.1978 0
M  V30 4743 C 462.415 -0.716569 -1.8897 0
M  V30 4744 C 462.736 0.756769 -1.79716 0
M  V30 4745 O 462.006 1.5449 -1.20456 0
M  V30 4746 H 460.586 -0.262062 -0.699523 0
M  V30 4747 H 463.248 -1.29747 -1.45436 0
M  V30 4748 H 462.344 -1.00675 -2.95417 0
M  V30 4749 N 462.645 1.35699 -0.801477 0
M  V30 4750 C 463.873 2.03157 -0.391768 0
M  V30 4751 C 464.288 1.60412 0.995668 0
M  V30 4752 O 463.645 0.799228 1.64069 0
M  V30 4753 C 463.696 3.58566 -0.459671 0
M  V30 4754 O 463.417 3.99756 -1.7924 0
M  V30 4755 C 464.918 4.4328 -0.0421205 0
M  V30 4756 H 462.138 0.651688 -0.159825 0
M  V30 4757 H 464.682 1.73426 -1.08368 0
M  V30 4758 H 462.837 3.86963 0.183939 0
M  V30 4759 H 463.251 4.94387 -1.75162 0
M  V30 4760 H 464.725 5.51821 -0.140754 0
M  V30 4761 H 465.202 4.27383 1.01196 0
M  V30 4762 H 465.808 4.20168 -0.658687 0
M  V30 4763 N 464.123 0.554532 1.47522 0
M  V30 4764 C 465.4 -0.0360704 1.95567 0
M  V30 4765 C 465.78 -1.48828 1.49711 0
M  V30 4766 O 465.128 -2.16366 0.734717 0
M  V30 4767 C 465.338 0.106631 3.48837 0
M  V30 4768 C 466.686 -0.0400899 4.24581 0
M  V30 4769 O 467.71 0.0340453 3.56184 0
M  V30 4770 O 466.569 -0.199111 5.46137 0
M  V30 4771 H 463.663 -0.0656294 0.824392 0
M  V30 4772 H 466.209 0.620867 1.57935 0
M  V30 4773 H 464.981 1.11727 3.7501 0
M  V30 4774 H 464.604 -0.58804 3.93227 0
M  V30 4775 N 465.601 -1.54893 0.290851 0
M  V30 4776 C 466.549 -2.24579 -0.605576 0
M  V30 4777 C 467.543 -1.24824 -1.14522 0
M  V30 4778 O 468.749 -1.42706 -1.09704 0
M  V30 4779 H 465.124 -0.720946 -0.213872 0
M  V30 4780 H 467.095 -2.984 0.0048173 0
M  V30 4781 C 465.844 -2.99224 -1.77088 0
M  V30 4782 H 465.167 -3.75782 -1.36484 0
M  V30 4783 H 466.607 -3.51281 -2.3744 0
M  V30 4784 C 465.066 -2.05602 -2.66888 0
M  V30 4785 O 465.596 -1.61745 -3.67698 0
M  V30 4786 N 463.802 -1.71771 -2.34399 0
M  V30 4787 H 463.349 -2.07633 -1.52468 0
M  V30 4788 H 463.307 -1.09403 -2.94751 0
M  V30 4789 N 467.08 -0.0183926 -1.57589 0
M  V30 4790 C 468.03 0.975944 -2.06057 0
M  V30 4791 C 469.014 1.29204 -0.958908 0
M  V30 4792 O 470.206 1.27995 -1.22255 0
M  V30 4793 C 467.335 2.26194 -2.58247 0
M  V30 4794 C 466.421 1.97467 -3.75323 0
M  V30 4795 N 466.812 1.38968 -4.86335 0
M  V30 4796 C 465.11 2.27515 -3.83605 0
M  V30 4797 C 465.811 1.27131 -5.67638 0
M  V30 4798 N 464.787 1.76319 -5.14211 0
M  V30 4799 H 468.589 0.518444 -2.89291 0
M  V30 4800 H 466.103 0.18688 -1.61321 0
M  V30 4801 H 468.1 2.98289 -2.91255 0
M  V30 4802 H 466.76 2.7258 -1.76438 0
M  V30 4803 H 467.771 1.06608 -5.06809 0
M  V30 4804 H 464.448 2.76649 -3.12684 0
M  V30 4805 H 465.838 0.819882 -6.66879 0
M  V30 4806 N 468.558 1.5553 0.254621 0
M  V30 4807 C 469.488 1.9268 1.31897 0
M  V30 4808 C 470.469 0.790797 1.506 0
M  V30 4809 O 471.654 1.05045 1.63337 0
M  V30 4810 C 468.784 2.21477 2.67517 0
M  V30 4811 C 467.738 3.37256 2.63519 0
M  V30 4812 C 467.064 3.51576 4.02862 0
M  V30 4813 C 468.364 4.73157 2.21179 0
M  V30 4814 H 470.058 2.81832 1.01051 0
M  V30 4815 H 467.604 1.35599 0.484662 0
M  V30 4816 H 469.557 2.46055 3.42104 0
M  V30 4817 H 468.281 1.29144 2.99982 0
M  V30 4818 H 466.94 3.12675 1.9139 0
M  V30 4819 H 466.588 2.56676 4.32581 0
M  V30 4820 H 466.288 4.2943 4.01078 0
M  V30 4821 H 467.812 3.78467 4.79161 0
M  V30 4822 H 469.226 4.97158 2.85494 0
M  V30 4823 H 467.623 5.54058 2.30521 0
M  V30 4824 H 468.693 4.70739 1.16332 0
M  V30 4825 N 470.036 -0.519951 1.48776 0
M  V30 4826 C 471.283 -1.27522 1.57303 0
M  V30 4827 C 471.611 -1.92869 0.251328 0
M  V30 4828 O 470.866 -1.80372 -0.759243 0
M  V30 4829 C 471.165 -2.37864 2.6675 0
M  V30 4830 C 470.831 -1.90103 4.08867 0
M  V30 4831 C 469.493 -1.76795 4.47546 0
M  V30 4832 C 471.845 -1.54133 4.97888 0
M  V30 4833 C 469.173 -1.25868 5.73039 0
M  V30 4834 C 471.525 -1.04665 6.23881 0
M  V30 4835 C 470.189 -0.899823 6.61407 0
M  V30 4836 H 469.459 -0.466636 0.575614 0
M  V30 4837 H 472.106 -0.579109 1.82534 0
M  V30 4838 H 470.411 -3.13186 2.35418 0
M  V30 4839 H 472.108 -2.95969 2.70561 0
M  V30 4840 H 468.698 -2.01414 3.78326 0
M  V30 4841 H 472.882 -1.6327 4.68675 0
M  V30 4842 H 468.138 -1.13196 6.0083 0
M  V30 4843 H 472.312 -0.759074 6.92251 0
M  V30 4844 H 469.939 -0.503011 7.58534 0
M  V30 4845 N 471.514 -1.37532 -0.769588 0
M  V30 4846 C 472.444 -1.36172 -1.89682 0
M  V30 4847 C 473.425 -0.23001 -1.68538 0
M  V30 4848 O 474.61 -0.43069 -1.89364 0
M  V30 4849 C 471.74 -1.1701 -3.26995 0
M  V30 4850 C 470.694 -2.27216 -3.62708 0
M  V30 4851 C 470.02 -1.93174 -4.98586 0
M  V30 4852 C 471.32 -3.6941 -3.69234 0
M  V30 4853 H 473.014 -2.30499 -1.91078 0
M  V30 4854 H 470.56 -1.10953 -0.917902 0
M  V30 4855 H 472.513 -1.14688 -4.05493 0
M  V30 4856 H 471.237 -0.191395 -3.26039 0
M  V30 4857 H 469.896 -2.28697 -2.86519 0
M  V30 4858 H 469.544 -0.938281 -4.94171 0
M  V30 4859 H 469.244 -2.66973 -5.23449 0
M  V30 4860 H 470.768 -1.92443 -5.79481 0
M  V30 4861 H 472.182 -3.70047 -4.37879 0
M  V30 4862 H 470.579 -4.4228 -4.05597 0
M  V30 4863 H 471.649 -4.0288 -2.69844 0
M  V30 4864 N 472.992 0.995999 -1.22138 0
M  V30 4865 C 474.238 1.73767 -1.04561 0
M  V30 4866 C 474.571 1.89633 0.418698 0
M  V30 4867 O 473.846 1.43723 1.3105 0
M  V30 4868 C 474.129 3.14505 -1.75382 0
M  V30 4869 C 473.982 3.06306 -3.29388 0
M  V30 4870 C 475.301 4.13615 -1.50369 0
M  V30 4871 H 472.42 0.630728 -0.38125 0
M  V30 4872 H 475.062 1.16057 -1.50435 0
M  V30 4873 H 473.212 3.63775 -1.36383 0
M  V30 4874 H 474.884 2.64681 -3.77812 0
M  V30 4875 H 473.127 2.43186 -3.59226 0
M  V30 4876 H 473.798 4.05884 -3.74116 0
M  V30 4877 H 476.274 3.73089 -1.84239 0
M  V30 4878 H 475.15 5.10212 -2.02421 0
M  V30 4879 H 475.411 4.39949 -0.435611 0
M  V30 4880 N 474.47 1.03057 1.19235 0
M  V30 4881 C 475.747 0.642608 1.84743 0
M  V30 4882 C 476.127 -0.878577 1.91948 0
M  V30 4883 O 475.475 -1.77597 1.43776 0
M  V30 4884 C 475.685 1.30665 3.23616 0
M  V30 4885 C 477.033 1.43098 3.9976 0
M  V30 4886 O 478.057 1.26396 3.3302 0
M  V30 4887 O 476.916 1.70223 5.19313 0
M  V30 4888 H 474.01 0.223573 0.796206 0
M  V30 4889 H 476.556 1.12883 1.26711 0
M  V30 4890 H 475.328 2.34544 3.13217 0
M  V30 4891 H 474.951 0.808405 3.89295 0
M  V30 4892 N 475.948 -1.35272 0.808662 0
M  V30 4893 C 476.878 -2.32315 0.234981 0
M  V30 4894 C 477.859 -1.57572 -0.64071 0
M  V30 4895 O 479.044 -1.8563 -0.570551 0
M  V30 4896 C 476.174 -3.41801 -0.615601 0
M  V30 4897 C 475.128 -4.27694 0.161767 0
M  V30 4898 C 474.454 -5.28519 -0.810649 0
M  V30 4899 C 475.754 -5.04231 1.36193 0
M  V30 4900 H 477.448 -2.80543 1.04575 0
M  V30 4901 H 474.994 -1.3488 0.504315 0
M  V30 4902 H 476.947 -4.08693 -1.02702 0
M  V30 4903 H 475.671 -2.92186 -1.45928 0
M  V30 4904 H 474.33 -3.62384 0.554382 0
M  V30 4905 H 473.978 -4.75171 -1.64988 0
M  V30 4906 H 473.678 -5.8686 -0.294822 0
M  V30 4907 H 475.202 -5.98283 -1.22023 0
M  V30 4908 H 476.616 -5.64058 1.02528 0
M  V30 4909 H 475.013 -5.72077 1.81239 0
M  V30 4910 H 476.083 -4.34753 2.14751 0
M  V30 4911 N 477.426 -0.562348 -1.47226 0
M  V30 4912 C 478.672 -0.0402761 -2.0276 0
M  V30 4913 C 479.005 1.30823 -1.43523 0
M  V30 4914 O 478.28 1.85249 -0.592705 0
M  V30 4915 C 478.563 0.047311 -3.60069 0
M  V30 4916 C 478.416 -1.32865 -4.29729 0
M  V30 4917 C 479.735 0.758182 -4.3352 0
M  V30 4918 H 476.854 -0.0161105 -0.736824 0
M  V30 4919 H 479.496 -0.725628 -1.75598 0
M  V30 4920 H 477.646 0.630986 -3.83342 0
M  V30 4921 H 479.318 -1.95593 -4.17781 0
M  V30 4922 H 477.561 -1.90195 -3.89882 0
M  V30 4923 H 478.232 -1.22004 -5.38349 0
M  V30 4924 H 480.708 0.262546 -4.15271 0
M  V30 4925 H 479.584 0.78844 -5.43208 0
M  V30 4926 H 479.845 1.81537 -4.03109 0
M  V30 4927 N 478.904 1.54736 -0.299062 0
M  V30 4928 C 480.181 1.92187 0.363802 0
M  V30 4929 C 480.561 1.22607 1.71845 0
M  V30 4930 O 479.909 0.361141 2.25628 0
M  V30 4931 C 480.119 3.45678 0.480377 0
M  V30 4932 C 481.467 4.17885 0.752147 0
M  V30 4933 O 482.491 3.51702 0.564264 0
M  V30 4934 O 481.35 5.35048 1.11294 0
M  V30 4935 H 478.444 0.801681 0.203066 0
M  V30 4936 H 480.99 1.66115 -0.346978 0
M  V30 4937 H 479.762 3.88443 -0.471999 0
M  V30 4938 H 479.385 3.77779 1.2397 0
M  V30 4939 N 480.382 0.0267497 1.57577 0
M  V30 4940 C 481.329 -0.955894 2.10075 0
M  V30 4941 C 482.299 -1.32453 1.00226 0
M  V30 4942 O 483.484 -1.41826 1.27632 0
M  V30 4943 C 480.624 -2.2338 2.6305 0
M  V30 4944 C 479.737 -1.92183 3.86898 0
M  V30 4945 C 478.872 -3.14251 4.28275 0
M  V30 4946 C 477.911 -2.78862 5.44888 0
M  V30 4947 N 477.048 -3.93548 5.81433 0
M  V30 4948 H 481.888 -0.501303 2.93753 0
M  V30 4949 H 479.425 -0.235847 1.45197 0
M  V30 4950 H 481.383 -2.98124 2.91853 0
M  V30 4951 H 480.013 -2.6646 1.82205 0
M  V30 4952 H 479.065 -1.07692 3.64838 0
M  V30 4953 H 480.377 -1.62117 4.7172 0
M  V30 4954 H 479.531 -3.97317 4.58502 0
M  V30 4955 H 478.27 -3.47476 3.42215 0
M  V30 4956 H 477.275 -1.94208 5.14357 0
M  V30 4957 H 478.5 -2.46855 6.32645 0
M  V30 4958 H 476.446 -4.2662 4.98328 0
M  V30 4959 H 476.363 -3.67098 6.6089 0
M  V30 4960 H 477.631 -4.77325 6.16264 0
M  V30 4961 N 481.861 -1.55662 -0.24637 0
M  V30 4962 C 482.809 -1.91186 -1.3248 0
M  V30 4963 C 483.803 -0.790996 -1.49799 0
M  V30 4964 O 485.009 -0.975617 -1.51267 0
M  V30 4965 H 481.384 -0.607207 -0.443626 0
M  V30 4966 H 483.355 -2.81221 -0.997853 0
M  V30 4967 C 482.104 -2.22349 -2.67313 0
M  V30 4968 H 481.427 -3.08097 -2.54786 0
M  V30 4969 H 482.867 -2.51107 -3.41645 0
M  V30 4970 C 481.326 -1.04001 -3.20446 0
M  V30 4971 O 481.856 -0.28828 -4.00664 0
M  V30 4972 N 480.062 -0.830494 -2.7848 0
M  V30 4973 H 479.609 -1.4435 -2.13356 0
M  V30 4974 H 479.567 -0.0403258 -3.14374 0
M  V30 4975 N 483.339 0.512053 -1.4905 0
M  V30 4976 C 484.269 1.62365 -1.67809 0
M  V30 4977 C 485.25 1.61737 -0.526809 0
M  V30 4978 O 486.435 1.78651 -0.761404 0
M  V30 4979 C 483.565 3.00895 -1.73435 0
M  V30 4980 C 482.519 3.16387 -2.88242 0
M  V30 4981 C 481.845 4.56157 -2.78971 0
M  V30 4982 C 483.145 2.97457 -4.29321 0
M  V30 4983 H 484.839 1.46921 -2.60873 0
M  V30 4984 H 482.385 0.705379 -1.2554 0
M  V30 4985 H 484.338 3.78549 -1.85145 0
M  V30 4986 H 483.062 3.17403 -0.769619 0
M  V30 4987 H 481.721 2.41155 -2.76116 0
M  V30 4988 H 481.369 4.69525 -1.8043 0
M  V30 4989 H 481.069 4.67465 -3.5602 0
M  V30 4990 H 482.593 5.35886 -2.92675 0
M  V30 4991 H 484.007 3.64888 -4.42187 0
M  V30 4992 H 482.404 3.20245 -5.07507 0
M  V30 4993 H 483.474 1.93692 -4.44535 0
M  V30 4994 N 484.817 1.37938 0.762283 0
M  V30 4995 C 486.045 1.36883 1.55147 0
M  V30 4996 C 486.46 -0.0435348 1.8875 0
M  V30 4997 O 485.817 -1.00786 1.52146 0
M  V30 4998 C 485.868 2.21624 2.85596 0
M  V30 4999 O 485.589 3.57358 2.5343 0
M  V30 5000 C 487.09 2.28653 3.7978 0
M  V30 5001 H 484.31 0.468521 0.480343 0
M  V30 5002 H 486.854 1.81404 0.944079 0
M  V30 5003 H 485.009 1.80588 3.42734 0
M  V30 5004 H 485.423 4.01883 3.37032 0
M  V30 5005 H 486.897 2.9225 4.68288 0
M  V30 5006 H 487.374 1.29767 4.19592 0
M  V30 5007 H 487.98 2.70043 3.28568 0
M  V30 5008 N 486.295 -0.989507 1.22664 0
M  V30 5009 C 487.543 -1.72612 1.05117 0
M  V30 5010 C 487.864 -1.90552 -0.414131 0
M  V30 5011 O 487.134 -1.4676 -1.29762 0
M  V30 5012 H 485.714 -0.639555 0.385977 0
M  V30 5013 H 488.376 -1.19158 1.54232 0
M  V30 5014 H 487.472 -2.71926 1.53175 0
M  V30 5015 N 487.773 -1.03688 -1.18687 0
M  V30 5016 C 488.72 -0.624624 -2.22187 0
M  V30 5017 C 489.69 0.365636 -1.62026 0
M  V30 5018 O 490.875 0.260481 -1.89014 0
M  V30 5019 C 488.015 0.0101738 -3.45099 0
M  V30 5020 C 487.128 -1.02709 -4.19613 0
M  V30 5021 C 486.263 -0.361213 -5.2997 0
M  V30 5022 C 485.302 -1.38384 -5.96252 0
M  V30 5023 N 484.439 -0.743196 -6.98155 0
M  V30 5024 H 489.279 -1.51176 -2.56807 0
M  V30 5025 H 486.816 -0.75636 -1.26165 0
M  V30 5026 H 488.774 0.395528 -4.15321 0
M  V30 5027 H 487.404 0.860848 -3.1111 0
M  V30 5028 H 486.456 -1.53043 -3.48256 0
M  V30 5029 H 487.768 -1.80398 -4.65036 0
M  V30 5030 H 486.922 0.0785537 -6.06649 0
M  V30 5031 H 485.661 0.447799 -4.8564 0
M  V30 5032 H 484.666 -1.83378 -5.18317 0
M  V30 5033 H 485.891 -2.19448 -6.42666 0
M  V30 5034 H 483.837 0.0455789 -6.55984 0
M  V30 5035 H 483.754 -1.45784 -7.41811 0
M  V30 5036 H 485.022 -0.327698 -7.78811 0
M  V30 5037 N 489.251 1.34841 -0.815825 0
M  V30 5038 C 490.161 2.33425 -0.234462 0
M  V30 5039 C 491.177 1.62295 0.627413 0
M  V30 5040 O 492.353 1.94109 0.536987 0
M  V30 5041 C 489.418 3.41471 0.599849 0
M  V30 5042 C 488.479 4.28362 -0.283596 0
M  V30 5043 C 487.712 5.31248 0.51099 0
M  V30 5044 O 487.935 5.43056 1.7449 0
M  V30 5045 O 486.869 6.01812 -0.10297 0
M  V30 5046 H 490.695 2.84962 -1.05024 0
M  V30 5047 H 488.28 1.37774 -0.577809 0
M  V30 5048 H 490.162 4.07464 1.07475 0
M  V30 5049 H 488.837 2.9219 1.39308 0
M  V30 5050 H 487.744 3.65318 -0.805836 0
M  V30 5051 H 489.077 4.81066 -1.041 0
M  V30 5052 N 490.729 0.570148 1.46925 0
M  V30 5053 C 491.692 -0.159933 2.28641 0
M  V30 5054 C 492.692 -0.830638 1.37685 0
M  V30 5055 O 493.882 -0.684516 1.60187 0
M  V30 5056 C 491.014 -1.2354 3.17727 0
M  V30 5057 H 492.207 0.558035 2.94662 0
M  V30 5058 H 489.76 0.327603 1.52828 0
M  V30 5059 H 490.495 -1.98535 2.56426 0
M  V30 5060 H 490.28 -0.759125 3.84681 0
M  V30 5061 H 491.77 -1.74782 3.79264 0
M  V30 5062 N 492.207 -1.54576 0.307264 0
M  V30 5063 C 493.484 -1.92377 -0.353605 0
M  V30 5064 C 493.864 -1.23517 -1.71192 0
M  V30 5065 O 493.212 -0.373101 -2.25433 0
M  V30 5066 C 493.422 -3.45928 -0.462039 0
M  V30 5067 C 494.77 -4.18278 -0.729975 0
M  V30 5068 O 495.794 -3.51997 -0.545605 0
M  V30 5069 O 494.653 -5.3563 -1.08454 0
M  V30 5070 H 491.747 -0.802747 -0.198812 0
M  V30 5071 H 494.293 -1.65929 0.355783 0
M  V30 5072 H 493.065 -3.88187 0.492592 0
M  V30 5073 H 492.688 -3.78431 -1.21965 0
M  V30 5074 N 493.685 -0.035106 -1.57561 0
M  V30 5075 C 494.648 0.929819 -2.09492 0
M  V30 5076 C 495.648 1.25026 -1.01119 0
M  V30 5077 O 496.838 1.18961 -1.27255 0
M  V30 5078 C 493.97 2.24457 -2.56577 0
M  V30 5079 H 495.163 0.479935 -2.96035 0
M  V30 5080 H 492.716 0.213033 -1.54841 0
M  V30 5081 H 493.451 2.74061 -1.73382 0
M  V30 5082 H 493.236 2.02508 -3.35757 0
M  V30 5083 H 494.726 2.93607 -2.96959 0
M  V30 5084 N 495.163 1.55791 0.238111 0
M  V30 5085 C 496.126 1.90239 1.27835 0
M  V30 5086 C 497.126 0.779552 1.4064 0
M  V30 5087 O 498.316 1.04747 1.3919 0
M  V30 5088 C 495.448 2.13859 2.65475 0
M  V30 5089 H 496.641 2.83262 0.985034 0
M  V30 5090 H 494.194 1.48818 0.477799 0
M  V30 5091 H 494.929 1.23334 2.99932 0
M  V30 5092 H 494.714 2.95643 2.57561 0
M  V30 5093 H 496.204 2.41664 3.40571 0
M  V30 5094 N 496.642 -0.504142 1.49319 0
M  V30 5095 C 497.572 -1.61473 1.68667 0
M  V30 5096 C 498.553 -1.61455 0.535378 0
M  V30 5097 O 499.738 -1.78245 0.770868 0
M  V30 5098 C 496.868 -2.99971 1.75028 0
M  V30 5099 C 495.822 -3.14854 2.89916 0
M  V30 5100 C 495.148 -4.54671 2.81387 0
M  V30 5101 C 496.448 -2.95176 4.30893 0
M  V30 5102 H 498.142 -1.45535 2.61648 0
M  V30 5103 H 495.688 -0.698711 1.25913 0
M  V30 5104 H 497.641 -3.77562 1.8715 0
M  V30 5105 H 496.365 -3.1699 0.786441 0
M  V30 5106 H 495.024 -2.39687 2.77391 0
M  V30 5107 H 494.672 -4.68562 1.82917 0
M  V30 5108 H 494.372 -4.6557 3.58494 0
M  V30 5109 H 495.896 -5.34327 2.95512 0
M  V30 5110 H 497.31 -3.62538 4.44116 0
M  V30 5111 H 495.707 -3.17549 5.09198 0
M  V30 5112 H 496.777 -1.91332 4.45556 0
M  V30 5113 N 498.12 -1.38341 -0.754957 0
M  V30 5114 C 499.368 -1.34208 -1.51105 0
M  V30 5115 C 499.689 0.0677634 -1.94882 0
M  V30 5116 O 498.959 1.01517 -1.67544 0
M  V30 5117 H 497.539 -0.493819 -0.560493 0
M  V30 5118 H 500.201 -1.73005 -0.897507 0
M  V30 5119 H 499.297 -1.99203 -2.4026 0
M  V30 5120 N 499.598 0.982988 -1.23187 0
M  V30 5121 C 501.014 1.2487 -0.993967 0
M  V30 5122 C 501.214 1.99155 0.306498 0
M  V30 5123 O 500.27 2.30688 1.0266 0
M  V30 5124 C 501.583 2.05078 -2.19917 0
M  V30 5125 C 503.131 2.18227 -2.2438 0
M  V30 5126 C 503.606 3.01825 -3.44479 0
M  V30 5127 N 505.097 3.09411 -3.44702 0
M  V30 5128 C 505.832 3.74412 -4.34285 0
M  V30 5129 N 505.328 4.41259 -5.341 0
M  V30 5130 N 507.121 3.71273 -4.22035 0
M  V30 5131 H 499.272 0.485253 -2.06783 0
M  V30 5132 H 501.535 0.276979 -0.906635 0
M  V30 5133 H 501.241 1.57867 -3.14279 0
M  V30 5134 H 501.115 3.05829 -2.2079 0
M  V30 5135 H 503.502 2.64648 -1.30559 0
M  V30 5136 H 503.583 1.16873 -2.2754 0
M  V30 5137 H 503.227 2.56102 -4.38605 0
M  V30 5138 H 503.157 4.03342 -3.38559 0
M  V30 5139 H 505.648 2.61845 -2.7248 0
M  V30 5140 H 505.961 4.88629 -5.98717 0
M  V30 5141 H 504.306 4.39975 -5.38002 0
M  V30 5142 H 507.497 3.18217 -3.43301 0
M  V30 5143 H 507.67 4.21649 -4.92053 0
M  V30 5144 N 501.076 1.04316 1.18135 0
M  V30 5145 C 502.039 0.640794 2.2006 0
M  V30 5146 C 503.039 -0.303124 1.57917 0
M  V30 5147 O 504.229 -0.0881855 1.73977 0
M  V30 5148 C 501.361 -0.060148 3.40847 0
M  V30 5149 H 502.554 1.54281 2.57172 0
M  V30 5150 H 500.107 0.836004 1.32063 0
M  V30 5151 H 500.842 -0.975845 3.0927 0
M  V30 5152 H 500.627 0.618319 3.87194 0
M  V30 5153 H 502.117 -0.328082 4.16309 0
M  V30 5154 N 502.554 -1.34406 0.822964 0
M  V30 5155 C 503.502 -2.31428 0.233165 0
M  V30 5156 C 504.496 -1.57404 -0.626118 0
M  V30 5157 O 505.702 -1.72402 -0.517453 0
M  V30 5158 H 502.077 -0.749863 0.0566557 0
M  V30 5159 H 504.048 -2.78699 1.06628 0
M  V30 5160 C 502.797 -3.42653 -0.590264 0
M  V30 5161 H 502.12 -3.99753 0.0616129 0
M  V30 5162 H 503.56 -4.12778 -0.969054 0
M  V30 5163 C 502.019 -2.87112 -1.76262 0
M  V30 5164 O 502.549 -2.81995 -2.8608 0
M  V30 5165 N 500.755 -2.43934 -1.57938 0
M  V30 5166 H 500.302 -2.48296 -0.686078 0
M  V30 5167 H 500.26 -2.07123 -2.36532 0
M  V30 5168 N 504.032 -0.577932 -1.46621 0
M  V30 5169 C 505.281 -0.0594281 -2.01612 0
M  V30 5170 C 505.594 1.30663 -1.45556 0
M  V30 5171 O 506.8 1.91621 -1.92337 0
M  V30 5172 C 505.256 -0.0556666 -3.59857 0
M  V30 5173 C 504.864 -1.41975 -4.24908 0
M  V30 5174 C 506.608 0.409143 -4.22524 0
M  V30 5175 C 504.515 -1.37397 -5.75218 0
M  V30 5176 H 503.445 -0.0184469 -0.753774 0
M  V30 5177 H 506.096 -0.728869 -1.68404 0
M  V30 5178 H 504.478 0.679843 -3.90121 0
M  V30 5179 H 505.652 -2.17461 -4.0626 0
M  V30 5180 H 503.967 -1.82419 -3.74316 0
M  V30 5181 H 506.564 0.46211 -5.32699 0
M  V30 5182 H 506.907 1.42565 -3.91128 0
M  V30 5183 H 507.44 -0.272152 -3.96868 0
M  V30 5184 H 504.179 -2.36714 -6.11267 0
M  V30 5185 H 503.699 -0.661239 -5.96144 0
M  V30 5186 H 505.378 -1.08484 -6.3784 0
M  V30 5187 N 505.51 1.54411 -0.315457 0
M  V30 5188 C 506.738 2.04833 0.291738 0
M  V30 5189 C 507.153 1.19203 1.46411 0
M  V30 5190 O 506.51 0.220867 1.81159 0
M  V30 5191 C 506.561 3.53969 0.73404 0
M  V30 5192 O 506.282 4.36346 -0.391682 0
M  V30 5193 C 507.783 4.2045 1.40489 0
M  V30 5194 H 505.003 0.668195 0.0612947 0
M  V30 5195 H 507.547 1.99276 -0.45929 0
M  V30 5196 H 505.702 3.5984 1.43506 0
M  V30 5197 H 506.116 5.24481 -0.0447088 0
M  V30 5198 H 507.59 5.26278 1.66539 0
M  V30 5199 H 508.067 3.71067 2.3496 0
M  V30 5200 H 508.673 4.18694 0.746662 0
M  V30 5201 N 506.988 0.0434614 1.5754 0
M  V30 5202 C 508.234 -0.632971 1.92669 0
M  V30 5203 C 508.567 -1.70947 0.921446 0
M  V30 5204 O 507.842 -1.94426 -0.0537202 0
M  V30 5205 C 508.125 -1.23619 3.38216 0
M  V30 5206 C 507.978 -0.168274 4.49485 0
M  V30 5207 C 509.297 -2.15008 3.84005 0
M  V30 5208 H 506.416 -0.228629 0.700641 0
M  V30 5209 H 509.058 0.103651 1.89717 0
M  V30 5210 H 507.208 -1.864 3.40863 0
M  V30 5211 H 508.88 0.463196 4.58969 0
M  V30 5212 H 507.123 0.504581 4.30855 0
M  V30 5213 H 507.794 -0.630218 5.48391 0
M  V30 5214 H 510.27 -1.62198 3.83185 0
M  V30 5215 H 509.146 -2.54161 4.86511 0
M  V30 5216 H 509.407 -3.04707 3.20322 0
M  V30 5217 N 508.466 -1.55915 -0.229846 0
M  V30 5218 C 509.414 -1.9258 -1.30444 0
M  V30 5219 C 510.408 -0.806839 -1.48951 0
M  V30 5220 O 511.614 -0.991606 -1.50224 0
M  V30 5221 H 507.989 -0.611878 -0.437161 0
M  V30 5222 H 509.96 -2.82264 -0.96797 0
M  V30 5223 C 508.709 -2.25171 -2.6494 0
M  V30 5224 H 508.032 -3.10782 -2.51504 0
M  V30 5225 H 509.472 -2.54716 -3.38963 0
M  V30 5226 C 507.931 -1.07394 -3.19324 0
M  V30 5227 O 508.461 -0.330759 -4.00336 0
M  V30 5228 N 506.667 -0.859984 -2.77584 0
M  V30 5229 H 506.214 -1.46605 -2.11813 0
M  V30 5230 H 506.172 -0.0736671 -3.14314 0
M  V30 5231 N 509.944 0.496216 -1.49584 0
M  V30 5232 C 510.891 1.59722 -1.66606 0
M  V30 5233 C 511.861 1.58158 -0.507477 0
M  V30 5234 O 513.046 1.76072 -0.735076 0
M  V30 5235 C 510.186 2.97844 -1.74308 0
M  V30 5236 C 509.299 3.09388 -3.01502 0
M  V30 5237 C 508.434 4.38271 -3.00153 0
M  V30 5238 C 507.473 4.43466 -4.21906 0
M  V30 5239 N 506.61 5.63784 -4.1844 0
M  V30 5240 H 511.45 1.44515 -2.60613 0
M  V30 5241 H 508.987 0.703048 -1.29212 0
M  V30 5242 H 510.945 3.77907 -1.76754 0
M  V30 5243 H 509.575 3.11743 -0.837619 0
M  V30 5244 H 508.627 2.22357 -3.08645 0
M  V30 5245 H 509.939 3.09085 -3.91494 0
M  V30 5246 H 509.093 5.2666 -3.01188 0
M  V30 5247 H 507.832 4.41146 -2.07947 0
M  V30 5248 H 506.837 3.53478 -4.21109 0
M  V30 5249 H 508.062 4.42303 -5.1531 0
M  V30 5250 H 506.008 5.67491 -3.29074 0
M  V30 5251 H 505.925 5.65118 -5.02173 0
M  V30 5252 H 507.193 6.54367 -4.23585 0
M  V30 5253 N 511.423 1.38739 0.74761 0
M  V30 5254 C 512.371 1.36573 1.88283 0
M  V30 5255 C 513.365 0.250712 1.67534 0
M  V30 5256 O 514.571 0.420073 1.7503 0
M  V30 5257 H 510.946 0.42619 0.619569 0
M  V30 5258 H 512.917 2.32356 1.87226 0
M  V30 5259 C 511.666 1.21361 3.25832 0
M  V30 5260 H 510.989 2.06424 3.42388 0
M  V30 5261 H 512.429 1.23901 4.05493 0
M  V30 5262 C 510.888 -0.0790099 3.36807 0
M  V30 5263 O 511.418 -1.05385 3.8763 0
M  V30 5264 N 509.624 -0.13785 2.90273 0
M  V30 5265 H 509.171 0.656128 2.49104 0
M  V30 5266 H 509.129 -1.00228 2.97996 0
M  V30 5267 N 512.901 -0.976442 1.23707 0
M  V30 5268 C 514.126 -1.75875 1.09922 0
M  V30 5269 C 514.551 -1.84911 -0.34489 0
M  V30 5270 O 513.909 -1.31363 -1.24954 0
M  V30 5271 C 513.957 -3.16179 1.73388 0
M  V30 5272 O 513.061 -4.00124 0.99871 0
M  V30 5273 H 512.402 -0.540954 0.385052 0
M  V30 5274 H 514.932 -1.22546 1.6384 0
M  V30 5275 H 514.942 -3.66741 1.78788 0
M  V30 5276 H 513.617 -3.08917 2.78466 0
M  V30 5277 H 512.194 -3.58624 1.02193 0
M  V30 5278 N 514.379 -1.04941 -1.1758 0
M  V30 5279 C 515.625 -0.759112 -1.88057 0
M  V30 5280 C 515.958 0.711918 -1.8068 0
M  V30 5281 O 515.233 1.52035 -1.21308 0
M  V30 5282 C 515.516 -1.237 -3.38187 0
M  V30 5283 C 515.369 -2.77078 -3.54327 0
M  V30 5284 C 516.688 -0.834014 -4.32125 0
M  V30 5285 H 513.807 -0.277237 -0.682868 0
M  V30 5286 H 516.449 -1.30296 -1.38286 0
M  V30 5287 H 514.599 -0.774337 -3.80705 0
M  V30 5288 H 516.271 -3.31449 -3.20842 0
M  V30 5289 H 514.514 -3.16477 -2.96689 0
M  V30 5290 H 515.185 -3.05577 -4.59703 0
M  V30 5291 H 517.661 -1.23228 -3.97434 0
M  V30 5292 H 516.537 -1.19603 -5.35711 0
M  V30 5293 H 516.798 0.262195 -4.41322 0
M  V30 5294 N 515.857 1.33968 -0.830081 0
M  V30 5295 C 517.268 1.80439 -0.479455 0
M  V30 5296 C 517.619 1.68756 1.00079 0
M  V30 5297 O 516.744 1.23171 1.77927 0
M  V30 5298 C 517.339 3.27611 -0.863505 0
M  V30 5299 C 515.898 3.72133 -0.565145 0
M  V30 5300 C 515.045 2.55549 -1.07657 0
M  V30 5301 H 517.996 1.21614 -1.0196 0
M  V30 5302 H 518.017 3.8012 -0.170083 0
M  V30 5303 H 517.529 3.36082 -1.94089 0
M  V30 5304 H 515.63 3.69196 0.502536 0
M  V30 5305 H 515.743 4.65963 -1.11422 0
M  V30 5306 H 514.107 2.49788 -0.497807 0
M  V30 5307 H 514.89 2.66786 -2.16055 0
M  V30 5308 N 517.335 0.585699 1.46312 0
M  V30 5309 C 518.283 -0.158577 2.32059 0
M  V30 5310 C 519.277 -0.881427 1.44662 0
M  V30 5311 O 520.483 -0.799476 1.61271 0
M  V30 5312 H 516.858 -0.0700066 0.748734 0
M  V30 5313 H 518.829 0.583383 2.92642 0
M  V30 5314 C 517.578 -1.15701 3.27885 0
M  V30 5315 H 516.901 -0.610215 3.95116 0
M  V30 5316 H 518.341 -1.64812 3.90657 0
M  V30 5317 C 516.8 -2.21951 2.53455 0
M  V30 5318 O 517.33 -3.29352 2.29978 0
M  V30 5319 N 515.536 -1.9664 2.13965 0
M  V30 5320 H 515.083 -1.09309 2.33258 0
M  V30 5321 H 515.041 -2.6794 1.64485 0
M  V30 5322 N 518.813 -1.54241 0.323641 0
M  V30 5323 C 520.09 -1.92741 -0.333181 0
M  V30 5324 C 520.47 -1.25326 -1.69872 0
M  V30 5325 O 519.818 -0.396991 -2.25025 0
M  V30 5326 C 520.028 -3.46399 -0.425322 0
M  V30 5327 C 521.376 -4.19029 -0.68557 0
M  V30 5328 O 522.4 -3.52555 -0.50824 0
M  V30 5329 O 521.259 -5.36751 -1.02767 0
M  V30 5330 H 518.353 -0.804811 -0.190286 0
M  V30 5331 H 520.899 -1.65542 0.373361 0
M  V30 5332 H 519.671 -3.87643 0.533737 0
M  V30 5333 H 519.294 -3.79704 -1.17944 0
M  V30 5334 N 520.291 -0.0518155 -1.57515 0
M  V30 5335 C 521.702 0.483787 -1.80323 0
M  V30 5336 C 522.053 1.70879 -0.964099 0
M  V30 5337 O 521.178 2.15643 -0.180872 0
M  V30 5338 C 521.773 0.884459 -3.27052 0
M  V30 5339 C 520.332 1.36504 -3.50776 0
M  V30 5340 C 519.479 0.340539 -2.75201 0
M  V30 5341 H 522.43 -0.277691 -1.56252 0
M  V30 5342 H 522.451 1.74733 -3.38007 0
M  V30 5343 H 521.963 -0.00731093 -3.88099 0
M  V30 5344 H 520.064 2.27598 -2.95009 0
M  V30 5345 H 520.177 1.35675 -4.59488 0
M  V30 5346 H 518.541 0.81356 -2.41357 0
M  V30 5347 H 519.324 -0.543156 -3.38976 0
M  V30 5348 N 521.769 1.56035 0.221574 0
M  V30 5349 C 522.716 1.92413 1.27459 0
M  V30 5350 C 523.686 0.781323 1.46576 0
M  V30 5351 O 524.871 1.03721 1.60145 0
M  V30 5352 C 522.011 2.24617 2.61995 0
M  V30 5353 C 521.124 3.51831 2.50677 0
M  V30 5354 C 520.259 3.73482 3.77736 0
M  V30 5355 C 519.298 4.94211 3.6114 0
M  V30 5356 N 518.435 5.12252 4.80148 0
M  V30 5357 H 523.275 2.82203 0.957355 0
M  V30 5358 H 520.812 1.39676 0.461415 0
M  V30 5359 H 522.77 2.41298 3.40339 0
M  V30 5360 H 521.4 1.38 2.91815 0
M  V30 5361 H 520.452 3.43343 1.63767 0
M  V30 5362 H 521.764 4.40328 2.34334 0
M  V30 5363 H 520.918 3.9026 4.64523 0
M  V30 5364 H 519.657 2.83266 3.97003 0
M  V30 5365 H 518.662 4.77384 2.72736 0
M  V30 5366 H 519.887 5.85912 3.43343 0
M  V30 5367 H 517.833 4.24978 4.99729 0
M  V30 5368 H 517.75 5.94881 4.66532 0
M  V30 5369 H 519.018 5.33465 5.68362 0
M  V30 5370 N 523.247 -0.488276 1.49845 0
M  V30 5371 C 524.472 -1.26997 1.63971 0
M  V30 5372 C 524.897 -1.85427 0.315994 0
M  V30 5373 O 524.255 -1.66475 -0.718032 0
M  V30 5374 C 524.303 -2.36689 2.72049 0
M  V30 5375 O 523.407 -3.40882 2.32107 0
M  V30 5376 H 522.748 -0.374376 0.548396 0
M  V30 5377 H 525.278 -0.583104 1.96115 0
M  V30 5378 H 525.288 -2.82262 2.94605 0
M  V30 5379 H 523.963 -1.93529 3.68129 0
M  V30 5380 H 522.54 -3.01139 2.19931 0
M  V30 5381 N 524.725 -1.39134 -0.740242 0
M  V30 5382 C 526.136 -1.32208 -1.31825 0
M  V30 5383 C 526.487 0.0159919 -1.96193 0
M  V30 5384 O 525.612 0.918111 -1.95958 0
M  V30 5385 C 526.207 -2.39436 -2.39699 0
M  V30 5386 C 524.766 -2.36048 -2.93187 0
M  V30 5387 C 523.913 -2.21599 -1.66701 0
M  V30 5388 H 526.864 -1.49298 -0.538133 0
M  V30 5389 H 526.885 -2.05922 -3.19963 0
M  V30 5390 H 526.397 -3.36811 -1.92821 0
M  V30 5391 H 524.498 -1.42295 -3.44359 0
M  V30 5392 H 524.611 -3.30704 -3.46658 0
M  V30 5393 H 522.975 -1.68681 -1.90837 0
M  V30 5394 H 523.758 -3.20936 -1.21882 0
M  V30 5395 N 526.204 0.969867 -1.24223 0
M  V30 5396 C 527.451 1.71256 -1.08063 0
M  V30 5397 C 527.779 1.90734 0.380872 0
M  V30 5398 O 527.034 1.46469 1.29789 0
M  V30 5399 C 527.333 3.10883 -1.76314 0
M  V30 5400 C 526.999 3.11252 -3.26241 0
M  V30 5401 C 525.661 3.1106 -3.67144 0
M  V30 5402 C 528.013 3.05751 -4.22097 0
M  V30 5403 C 525.341 3.03097 -5.02344 0
M  V30 5404 C 527.693 2.9933 -5.57301 0
M  V30 5405 C 526.357 2.97466 -5.97554 0
M  V30 5406 H 525.627 0.62667 -0.395431 0
M  V30 5407 H 528.274 1.13422 -1.54297 0
M  V30 5408 H 526.579 3.72168 -1.22468 0
M  V30 5409 H 528.276 3.67138 -1.61277 0
M  V30 5410 H 524.866 3.12165 -2.93685 0
M  V30 5411 H 529.05 3.05031 -3.91497 0
M  V30 5412 H 524.306 3.00013 -5.32731 0
M  V30 5413 H 528.48 2.94033 -6.31283 0
M  V30 5414 H 526.107 2.91051 -7.02277 0
M  V30 5415 N 527.682 1.05563 1.17022 0
M  V30 5416 C 528.928 0.769074 1.87652 0
M  V30 5417 C 529.261 -0.702326 1.81055 0
M  V30 5418 O 528.536 -1.5139 1.22112 0
M  V30 5419 C 528.819 1.25492 3.37526 0
M  V30 5420 C 528.672 2.78953 3.52853 0
M  V30 5421 C 529.991 0.856919 4.31677 0
M  V30 5422 H 527.11 0.280854 0.681388 0
M  V30 5423 H 529.752 1.31027 1.37593 0
M  V30 5424 H 527.902 0.794516 3.80289 0
M  V30 5425 H 529.574 3.33146 3.19079 0
M  V30 5426 H 527.817 3.18046 2.95007 0
M  V30 5427 H 528.488 3.08011 4.58076 0
M  V30 5428 H 530.964 1.25334 3.96775 0
M  V30 5429 H 529.84 1.22443 5.35069 0
M  V30 5430 H 530.101 -0.238787 4.41455 0
M  V30 5431 N 529.16 -1.33526 0.837174 0
M  V30 5432 C 530.388 -2.02047 0.445494 0
M  V30 5433 C 530.803 -1.62995 -0.952788 0
M  V30 5434 O 530.16 -0.842447 -1.61892 0
M  V30 5435 C 530.211 -3.57221 0.554577 0
M  V30 5436 O 529.932 -3.94863 1.89776 0
M  V30 5437 C 531.433 -4.43012 0.159634 0
M  V30 5438 H 528.653 -0.647221 0.177048 0
M  V30 5439 H 531.197 -1.70492 1.12928 0
M  V30 5440 H 529.352 -3.87315 -0.0812781 0
M  V30 5441 H 529.766 -4.89569 1.88208 0
M  V30 5442 H 531.24 -5.51253 0.28701 0
M  V30 5443 H 531.717 -4.29916 -0.898289 0
M  V30 5444 H 532.323 -4.18274 0.769855 0
M  V30 5445 N 530.638 -0.59345 -1.46 0
M  V30 5446 C 531.863 -0.0872365 -2.07216 0
M  V30 5447 C 532.288 1.2131 -1.43755 0
M  V30 5448 O 531.646 1.73528 -0.525152 0
M  V30 5449 C 531.694 0.0538197 -3.6056 0
M  V30 5450 O 530.798 1.10765 -3.97247 0
M  V30 5451 H 530.139 -0.0676598 -0.660544 0
M  V30 5452 H 532.669 -0.819445 -1.87473 0
M  V30 5453 H 532.679 0.256567 -4.07193 0
M  V30 5454 H 531.354 -0.895739 -4.0614 0
M  V30 5455 H 529.931 0.882501 -3.62307 0
M  V30 5456 N 532.116 1.54067 -0.331816 0
M  V30 5457 C 533.364 2.00319 0.267739 0
M  V30 5458 C 533.685 1.22148 1.52003 0
M  V30 5459 O 532.955 0.325494 1.93177 0
M  V30 5460 H 531.535 0.740014 0.101922 0
M  V30 5461 H 534.197 1.89628 -0.450267 0
M  V30 5462 H 533.293 3.07765 0.518385 0
M  V30 5463 N 533.594 0.0601682 1.57485 0
M  V30 5464 C 534.843 -0.611101 1.9222 0
M  V30 5465 C 535.156 -1.71469 0.941159 0
M  V30 5466 O 536.362 -2.44473 1.18089 0
M  V30 5467 C 534.818 -1.13832 3.41424 0
M  V30 5468 C 534.426 -0.0663596 4.47951 0
M  V30 5469 C 536.17 -1.78432 3.85178 0
M  V30 5470 C 534.077 -0.606965 5.88277 0
M  V30 5471 H 533.007 -0.232033 0.71741 0
M  V30 5472 H 535.658 0.130518 1.83035 0
M  V30 5473 H 534.04 -1.93254 3.45643 0
M  V30 5474 H 535.214 0.707682 4.55333 0
M  V30 5475 H 533.529 0.482715 4.13593 0
M  V30 5476 H 536.126 -2.1989 4.87394 0
M  V30 5477 H 536.469 -2.63966 3.21913 0
M  V30 5478 H 537.002 -1.05651 3.83514 0
M  V30 5479 H 533.741 0.21095 6.5516 0
M  V30 5480 H 533.261 -1.34879 5.84438 0
M  V30 5481 H 534.94 -1.08704 6.37803 0
M  V30 5482 N 535.072 -1.5615 -0.213296 0
M  V30 5483 C 536.488 -1.49327 -0.56336 0
M  V30 5484 C 536.688 -0.756826 -1.86747 0
M  V30 5485 O 535.744 -0.299866 -2.50713 0
M  V30 5486 C 537.057 -2.9392 -0.634944 0
M  V30 5487 C 538.605 -3.04487 -0.725013 0
M  V30 5488 C 539.08 -4.50456 -0.82787 0
M  V30 5489 N 540.571 -4.54533 -0.891876 0
M  V30 5490 C 541.306 -5.64766 -0.991315 0
M  V30 5491 N 540.802 -6.84733 -1.05419 0
M  V30 5492 N 542.595 -5.52637 -1.02709 0
M  V30 5493 H 534.746 -2.02453 0.642366 0
M  V30 5494 H 537.009 -0.920548 0.226487 0
M  V30 5495 H 536.715 -3.50783 0.253859 0
M  V30 5496 H 536.589 -3.46274 -1.49579 0
M  V30 5497 H 538.976 -2.47685 -1.60425 0
M  V30 5498 H 539.057 -2.55289 0.161669 0
M  V30 5499 H 538.701 -5.07878 0.0469464 0
M  V30 5500 H 538.631 -4.97369 -1.73009 0
M  V30 5501 H 541.122 -3.68141 -0.85327 0
M  V30 5502 H 541.435 -7.64493 -1.13007 0
M  V30 5503 H 539.78 -6.87427 -1.02318 0
M  V30 5504 H 542.971 -4.5784 -0.974687 0
M  V30 5505 H 543.144 -6.38576 -1.10113 0
M  V30 5506 N 536.55 0.480323 -1.50102 0
M  V30 5507 C 537.796 1.23489 -1.60867 0
M  V30 5508 C 538.129 1.91809 -0.303827 0
M  V30 5509 O 537.404 1.81694 0.694092 0
M  V30 5510 C 537.687 2.28578 -2.78252 0
M  V30 5511 C 537.54 1.64624 -4.18592 0
M  V30 5512 C 538.859 3.2997 -2.91218 0
M  V30 5513 H 535.978 0.447605 -0.585507 0
M  V30 5514 H 538.62 0.530005 -1.82458 0
M  V30 5515 H 536.77 2.88697 -2.59974 0
M  V30 5516 H 538.442 1.08173 -4.48438 0
M  V30 5517 H 536.685 0.949645 -4.23278 0
M  V30 5518 H 537.356 2.40946 -4.96638 0
M  V30 5519 H 539.832 2.79864 -3.07921 0
M  V30 5520 H 538.708 4.00839 -3.74993 0
M  V30 5521 H 538.969 3.93541 -2.0144 0
M  V30 5522 N 538.028 1.39524 0.732853 0
M  V30 5523 C 539.276 1.36594 1.48951 0
M  V30 5524 C 539.597 -0.0367507 1.94965 0
M  V30 5525 O 538.867 -0.988391 1.69138 0
M  V30 5526 H 537.447 0.502673 0.552566 0
M  V30 5527 H 540.109 1.74411 0.869869 0
M  V30 5528 H 539.205 2.03 2.3706 0
M  V30 5529 N 539.506 -0.963266 1.24736 0
M  V30 5530 C 540.734 -1.74166 1.11686 0
M  V30 5531 C 541.149 -1.8589 -0.330187 0
M  V30 5532 O 540.506 -1.35042 -1.2276 0
M  V30 5533 C 540.557 -3.15989 1.75595 0
M  V30 5534 O 540.278 -3.04847 3.14642 0
M  V30 5535 C 541.779 -4.10145 1.68213 0
M  V30 5536 H 538.999 -0.546031 0.389989 0
M  V30 5537 H 541.543 -1.20907 1.64929 0
M  V30 5538 H 539.698 -3.66219 1.26343 0
M  V30 5539 H 540.112 -3.9425 3.4593 0
M  V30 5540 H 541.586 -5.07299 2.17604 0
M  V30 5541 H 542.063 -4.3445 0.644208 0
M  V30 5542 H 542.669 -3.65827 2.16912 0
M  V30 5543 N 540.985 -1.06182 -1.16461 0
M  V30 5544 C 542.396 -0.802426 -1.68576 0
M  V30 5545 C 542.747 0.67412 -1.84255 0
M  V30 5546 O 541.872 1.52303 -1.5373 0
M  V30 5547 C 542.467 -1.45002 -3.06202 0
M  V30 5548 C 541.026 -1.23843 -3.55443 0
M  V30 5549 C 540.173 -1.52724 -2.31454 0
M  V30 5550 H 543.124 -1.22545 -1.00839 0
M  V30 5551 H 543.145 -0.864731 -3.70544 0
M  V30 5552 H 542.657 -2.52466 -2.94759 0
M  V30 5553 H 540.758 -0.183487 -3.72148 0
M  V30 5554 H 540.871 -1.95036 -4.37604 0
M  V30 5555 H 539.235 -0.947726 -2.36411 0
M  V30 5556 H 540.018 -2.61343 -2.22609 0
M  V30 5557 N 542.463 1.3308 -0.844243 0
M  V30 5558 C 543.426 2.27403 -0.286485 0
M  V30 5559 C 544.426 1.51179 0.547872 0
M  V30 5560 O 545.616 1.70421 0.360886 0
M  V30 5561 C 542.748 3.35653 0.595813 0
M  V30 5562 H 543.941 2.78248 -1.11885 0
M  V30 5563 H 541.494 1.43574 -0.617749 0
M  V30 5564 H 542.229 2.90058 1.4504 0
M  V30 5565 H 542.014 3.921 -0.00125994 0
M  V30 5566 H 543.504 4.05958 0.979168 0
M  V30 5567 N 543.941 0.601185 1.45683 0
M  V30 5568 C 545.19 0.0914953 2.01492 0
M  V30 5569 C 545.503 -1.28331 1.47616 0
M  V30 5570 O 546.709 -1.88537 1.95362 0
M  V30 5571 C 545.165 0.11291 3.59723 0
M  V30 5572 C 544.773 1.48717 4.22596 0
M  V30 5573 C 546.517 -0.341871 4.23121 0
M  V30 5574 C 544.424 1.46531 5.7296 0
M  V30 5575 H 543.354 0.0304365 0.753385 0
M  V30 5576 H 546.005 0.755568 1.67223 0
M  V30 5577 H 544.387 -0.617692 3.91153 0
M  V30 5578 H 545.561 2.23897 4.02749 0
M  V30 5579 H 543.876 1.88351 3.71366 0
M  V30 5580 H 546.473 -0.377304 5.33367 0
M  V30 5581 H 546.816 -1.36325 3.93346 0
M  V30 5582 H 547.349 0.335256 3.96385 0
M  V30 5583 H 544.088 2.46408 6.07423 0
M  V30 5584 H 543.608 0.755997 5.95017 0
M  V30 5585 H 545.287 1.18618 6.36034 0
M  V30 5586 N 545.419 -1.53889 0.339982 0
M  V30 5587 C 546.647 -2.05271 -0.259114 0
M  V30 5588 C 547.062 -1.21517 -1.44496 0
M  V30 5589 O 546.419 -0.24966 -1.80784 0
M  V30 5590 C 546.47 -3.55092 -0.677634 0
M  V30 5591 O 546.191 -4.35667 0.461051 0
M  V30 5592 C 547.692 -4.22631 -1.33782 0
M  V30 5593 H 544.912 -0.669085 -0.0506566 0
M  V30 5594 H 547.456 -1.9852 0.490935 0
M  V30 5595 H 545.611 -3.62077 -1.37763 0
M  V30 5596 H 546.025 -5.24343 0.128144 0
M  V30 5597 H 547.499 -5.28861 -1.58145 0
M  V30 5598 H 547.976 -3.74758 -2.29027 0
M  V30 5599 H 548.582 -4.19829 -0.679957 0
M  V30 5600 N 546.897 -0.0685191 -1.57451 0
M  V30 5601 C 548.313 0.288101 -1.56978 0
M  V30 5602 C 548.513 1.70262 -1.07765 0
M  V30 5603 O 547.569 2.4135 -0.742054 0
M  V30 5604 C 548.882 0.100745 -3.00531 0
M  V30 5605 C 550.43 0.170531 -3.12535 0
M  V30 5606 C 550.905 0.0114944 -4.57999 0
M  V30 5607 N 552.396 0.0672065 -4.63151 0
M  V30 5608 C 553.131 -0.0314813 -5.73391 0
M  V30 5609 N 552.627 -0.183503 -6.92557 0
M  V30 5610 N 554.42 0.0253489 -5.62094 0
M  V30 5611 H 546.571 -0.993026 -1.87757 0
M  V30 5612 H 548.834 -0.386981 -0.865419 0
M  V30 5613 H 548.54 -0.875197 -3.40636 0
M  V30 5614 H 548.414 0.854457 -3.67395 0
M  V30 5615 H 550.801 1.13696 -2.72318 0
M  V30 5616 H 550.882 -0.614229 -2.48316 0
M  V30 5617 H 550.526 -0.951684 -4.98904 0
M  V30 5618 H 550.456 0.815617 -5.20245 0
M  V30 5619 H 552.947 0.183246 -3.77455 0
M  V30 5620 H 553.26 -0.251041 -7.72392 0
M  V30 5621 H 551.605 -0.218822 -6.94655 0
M  V30 5622 H 554.796 0.142794 -4.67882 0
M  V30 5623 H 554.969 -0.0550166 -6.47977 0
M  V30 5624 N 548.375 1.56261 0.205012 0
M  V30 5625 C 549.791 1.49623 0.555433 0
M  V30 5626 C 549.991 0.766719 1.86343 0
M  V30 5627 O 549.047 0.313158 2.50551 0
M  V30 5628 C 550.36 2.94253 0.619347 0
M  V30 5629 C 551.908 3.04868 0.708855 0
M  V30 5630 C 552.383 4.50888 0.803969 0
M  V30 5631 N 553.874 4.54999 0.867758 0
M  V30 5632 C 554.609 5.65284 0.96135 0
M  V30 5633 N 554.105 6.85282 1.01786 0
M  V30 5634 N 555.898 5.53174 0.997771 0
M  V30 5635 H 548.049 2.0211 -0.653094 0
M  V30 5636 H 550.312 0.919333 -0.231366 0
M  V30 5637 H 550.018 3.50643 -0.272458 0
M  V30 5638 H 549.892 3.47063 1.47741 0
M  V30 5639 H 552.279 2.48532 1.5911 0
M  V30 5640 H 552.36 2.55199 -0.175205 0
M  V30 5641 H 552.004 5.07846 -0.0738798 0
M  V30 5642 H 551.934 4.98279 1.70369 0
M  V30 5643 H 554.425 3.68588 0.833735 0
M  V30 5644 H 554.738 7.65081 1.08951 0
M  V30 5645 H 553.083 6.8796 0.986706 0
M  V30 5646 H 556.274 4.5835 0.950392 0
M  V30 5647 H 556.447 6.39151 1.06725 0
M  V30 5648 N 549.853 -0.472356 1.50355 0
M  V30 5649 C 551.101 -1.22211 1.60962 0
M  V30 5650 C 551.422 -1.92497 0.311439 0
M  V30 5651 O 550.692 -1.8405 -0.671002 0
M  V30 5652 H 549.272 -0.454092 0.593135 0
M  V30 5653 H 551.934 -0.544977 1.87126 0
M  V30 5654 H 551.03 -1.9707 2.42012 0
M  V30 5655 N 551.331 -1.39911 -0.725443 0
M  V30 5656 C 552.578 -1.37654 -1.48518 0
M  V30 5657 C 552.906 0.0243982 -1.94485 0
M  V30 5658 O 552.161 1.00708 -1.67799 0
M  V30 5659 C 552.46 -2.30368 -2.7325 0
M  V30 5660 C 552.126 -3.77817 -2.461 0
M  V30 5661 C 550.788 -4.17991 -2.38405 0
M  V30 5662 C 553.14 -4.71036 -2.23103 0
M  V30 5663 C 550.468 -5.49433 -2.05768 0
M  V30 5664 C 552.82 -6.02766 -1.9198 0
M  V30 5665 C 551.484 -6.41993 -1.82761 0
M  V30 5666 H 550.754 -0.503713 -0.543465 0
M  V30 5667 H 553.401 -1.7249 -0.831822 0
M  V30 5668 H 551.706 -1.88683 -3.43375 0
M  V30 5669 H 553.403 -2.2591 -3.31309 0
M  V30 5670 H 549.993 -3.45982 -2.52972 0
M  V30 5671 H 554.177 -4.40823 -2.2801 0
M  V30 5672 H 549.433 -5.78738 -1.9716 0
M  V30 5673 H 553.607 -6.74519 -1.73197 0
M  V30 5674 H 551.234 -7.43761 -1.57237 0
M  V30 5675 N 552.809 0.956637 -1.25245 0
M  V30 5676 C 553.756 2.053 -1.05454 0
M  V30 5677 C 554.726 1.66062 0.0356889 0
M  V30 5678 O 555.911 1.90415 -0.121099 0
M  V30 5679 C 553.051 3.38391 -0.677191 0
M  V30 5680 C 552.164 3.90758 -1.84206 0
M  V30 5681 C 551.299 5.12165 -1.40926 0
M  V30 5682 C 550.338 5.56757 -2.54338 0
M  V30 5683 N 549.475 6.69376 -2.11848 0
M  V30 5684 H 554.315 2.21562 -1.99284 0
M  V30 5685 H 551.852 1.08578 -0.992434 0
M  V30 5686 H 553.81 4.1488 -0.43938 0
M  V30 5687 H 552.44 3.22021 0.224127 0
M  V30 5688 H 551.492 3.10808 -2.19323 0
M  V30 5689 H 552.804 4.19802 -2.69383 0
M  V30 5690 H 551.958 5.96065 -1.13098 0
M  V30 5691 H 550.697 4.84832 -0.528175 0
M  V30 5692 H 549.702 4.71423 -2.82913 0
M  V30 5693 H 550.927 5.861 -3.43022 0
M  V30 5694 H 548.873 6.43756 -1.26153 0
M  V30 5695 H 548.79 6.97927 -2.90574 0
M  V30 5696 H 550.058 7.5669 -1.87191 0
M  V30 5697 N 554.287 1.06798 1.15896 0
M  V30 5698 C 555.197 0.694564 2.24083 0
M  V30 5699 C 556.213 -0.291687 1.71538 0
M  V30 5700 O 557.389 -0.139723 2.00915 0
M  V30 5701 C 554.454 0.0921014 3.46578 0
M  V30 5702 C 553.515 1.13087 4.14137 0
M  V30 5703 C 552.748 0.557064 5.30785 0
M  V30 5704 O 552.971 -0.628623 5.66925 0
M  V30 5705 O 551.905 1.29924 5.8771 0
M  V30 5706 H 555.731 1.59663 2.58344 0
M  V30 5707 H 553.316 0.840575 1.2351 0
M  V30 5708 H 555.198 -0.241884 4.20705 0
M  V30 5709 H 553.873 -0.78337 3.14078 0
M  V30 5710 H 552.78 1.51712 3.41957 0
M  V30 5711 H 554.113 1.97805 4.50704 0
M  V30 5712 N 555.766 -1.3263 0.851289 0
M  V30 5713 C 556.729 -2.27247 0.298541 0
M  V30 5714 C 557.729 -1.51467 -0.539847 0
M  V30 5715 O 558.919 -1.7061 -0.351843 0
M  V30 5716 C 556.051 -3.35964 -0.578004 0
M  V30 5717 H 557.244 -2.7765 1.13359 0
M  V30 5718 H 554.797 -1.43245 0.625354 0
M  V30 5719 H 555.532 -2.90823 -1.435 0
M  V30 5720 H 555.317 -3.92094 0.0220539 0
M  V30 5721 H 556.807 -4.06472 -0.957626 0
M  V30 5722 N 557.244 -0.608902 -1.45362 0
M  V30 5723 C 558.154 0.110969 -2.34337 0
M  V30 5724 C 559.17 0.859007 -1.51318 0
M  V30 5725 O 560.346 0.816296 -1.84116 0
M  V30 5726 C 557.411 1.09494 -3.28956 0
M  V30 5727 C 556.472 0.348718 -4.27881 0
M  V30 5728 C 555.705 1.28582 -5.17979 0
M  V30 5729 O 555.928 2.52369 -5.11533 0
M  V30 5730 O 554.862 0.782172 -5.96796 0
M  V30 5731 H 558.688 -0.620258 -2.97299 0
M  V30 5732 H 556.273 -0.36916 -1.44767 0
M  V30 5733 H 558.155 1.66163 -3.87257 0
M  V30 5734 H 556.83 1.80717 -2.68557 0
M  V30 5735 H 555.737 -0.260465 -3.73192 0
M  V30 5736 H 557.07 -0.323049 -4.91139 0
M  V30 5737 N 558.722 1.53707 -0.348139 0
M  V30 5738 C 559.685 2.23812 0.494058 0
M  V30 5739 C 560.685 1.23989 1.02388 0
M  V30 5740 O 561.875 1.48395 0.912396 0
M  V30 5741 C 559.007 2.96133 1.68872 0
M  V30 5742 H 560.2 2.99663 -0.119141 0
M  V30 5743 H 557.753 1.55983 -0.0995539 0
M  V30 5744 H 558.488 2.24481 2.34049 0
M  V30 5745 H 558.273 3.69357 1.31596 0
M  V30 5746 H 559.763 3.49475 2.28597 0
M  V30 5747 N 560.2 0.0768682 1.57412 0
M  V30 5748 C 561.147 -0.888577 2.13009 0
M  V30 5749 C 562.117 -1.29198 1.0439 0
M  V30 5750 O 563.302 -1.37694 1.3208 0
M  V30 5751 C 560.442 -2.14899 2.70023 0
M  V30 5752 C 559.555 -1.79777 3.92816 0
M  V30 5753 C 558.69 -3.00467 4.38056 0
M  V30 5754 C 557.729 -2.61385 5.53484 0
M  V30 5755 N 556.866 -3.74851 5.93659 0
M  V30 5756 H 561.706 -0.407593 2.95199 0
M  V30 5757 H 559.243 -0.189534 1.45874 0
M  V30 5758 H 561.201 -2.88688 3.0119 0
M  V30 5759 H 559.831 -2.60529 1.9059 0
M  V30 5760 H 558.883 -0.960301 3.68079 0
M  V30 5761 H 560.195 -1.47027 4.76639 0
M  V30 5762 H 559.349 -3.82529 4.7091 0
M  V30 5763 H 558.088 -3.36413 3.53097 0
M  V30 5764 H 557.093 -1.77746 5.20275 0
M  V30 5765 H 558.318 -2.26603 6.40178 0
M  V30 5766 H 556.264 -4.1055 5.11649 0
M  V30 5767 H 556.181 -3.45887 6.72234 0
M  V30 5768 H 557.449 -4.57477 6.31138 0
M  V30 5769 N 561.678 -1.56367 -0.196722 0
M  V30 5770 C 562.588 -1.97617 -1.2643 0
M  V30 5771 C 563.604 -0.883598 -1.49895 0
M  V30 5772 O 564.78 -1.18921 -1.62541 0
M  V30 5773 C 561.845 -2.30595 -2.58895 0
M  V30 5774 C 560.906 -3.53551 -2.43516 0
M  V30 5775 C 560.139 -3.84946 -3.69665 0
M  V30 5776 O 560.362 -3.17655 -4.73763 0
M  V30 5777 O 559.296 -4.78379 -3.65291 0
M  V30 5778 H 563.122 -2.88648 -0.944233 0
M  V30 5779 H 560.707 -1.43901 -0.401592 0
M  V30 5780 H 562.589 -2.52889 -3.37083 0
M  V30 5781 H 561.264 -1.42732 -2.90533 0
M  V30 5782 H 560.171 -3.36507 -1.63445 0
M  V30 5783 H 561.504 -4.41875 -2.16812 0
M  V30 5784 N 563.156 0.464375 -1.50603 0
M  V30 5785 C 564.086 1.56944 -1.72889 0
M  V30 5786 C 565.067 1.59979 -0.577997 0
M  V30 5787 O 566.252 1.76138 -0.817855 0
M  V30 5788 C 563.382 2.95225 -1.8292 0
M  V30 5789 C 562.336 3.07056 -2.98162 0
M  V30 5790 C 561.662 4.47051 -2.93343 0
M  V30 5791 C 562.962 2.83648 -4.38567 0
M  V30 5792 H 564.656 1.38547 -2.65415 0
M  V30 5793 H 562.202 0.665082 -1.27721 0
M  V30 5794 H 564.155 3.72467 -1.97095 0
M  V30 5795 H 562.879 3.14793 -0.870209 0
M  V30 5796 H 561.538 2.32248 -2.83648 0
M  V30 5797 H 561.186 4.63547 -1.95276 0
M  V30 5798 H 560.886 4.55902 -3.70712 0
M  V30 5799 H 562.41 5.26304 -3.09575 0
M  V30 5800 H 563.824 3.50636 -4.53572 0
M  V30 5801 H 562.221 3.03937 -5.17438 0
M  V30 5802 H 563.291 1.79451 -4.50472 0
M  V30 5803 N 564.634 1.40294 0.718013 0
M  V30 5804 C 565.597 1.4012 1.81381 0
M  V30 5805 C 566.597 0.295405 1.58063 0
M  V30 5806 O 567.787 0.554187 1.6515 0
M  V30 5807 C 564.919 1.19056 3.19435 0
M  V30 5808 H 566.112 2.37645 1.82933 0
M  V30 5809 H 563.665 1.26107 0.923405 0
M  V30 5810 H 564.4 0.222809 3.23534 0
M  V30 5811 H 564.185 1.99152 3.37758 0
M  V30 5812 H 565.675 1.21716 3.99468 0
M  V30 5813 N 566.112 -0.949982 1.2575 0
M  V30 5814 C 567.36 -1.6918 1.10555 0
M  V30 5815 C 567.681 -1.91773 -0.353298 0
M  V30 5816 O 566.951 -1.50814 -1.25027 0
M  V30 5817 H 565.531 -0.626952 0.406129 0
M  V30 5818 H 568.193 -1.1419 1.57945 0
M  V30 5819 H 567.289 -2.66915 1.61749 0
M  V30 5820 N 567.59 -1.07411 -1.15328 0
M  V30 5821 C 568.836 -0.808666 -1.86634 0
M  V30 5822 C 569.191 0.65816 -1.80793 0
M  V30 5823 O 568.484 1.47689 -1.22059 0
M  V30 5824 C 568.678 -1.25191 -3.34757 0
M  V30 5825 C 568.507 -2.76028 -3.55019 0
M  V30 5826 C 567.277 -3.43644 -3.70455 0
M  V30 5827 C 569.475 -3.74224 -3.5279 0
M  V30 5828 N 567.457 -4.83117 -3.78776 0
M  V30 5829 C 568.828 -4.9954 -3.67233 0
M  V30 5830 C 570.883 -3.67373 -3.36068 0
M  V30 5831 C 569.586 -6.18819 -3.66682 0
M  V30 5832 C 571.612 -4.86116 -3.36816 0
M  V30 5833 C 570.974 -6.10266 -3.51789 0
M  V30 5834 H 567.073 -0.348478 -0.700062 0
M  V30 5835 H 569.657 -1.37049 -1.38295 0
M  V30 5836 H 567.828 -0.717775 -3.8171 0
M  V30 5837 H 569.56 -0.933936 -3.93776 0
M  V30 5838 H 566.315 -2.94051 -3.71256 0
M  V30 5839 H 566.739 -5.55705 -3.86679 0
M  V30 5840 H 571.381 -2.72334 -3.2341 0
M  V30 5841 H 569.099 -7.14179 -3.78118 0
M  V30 5842 H 572.685 -4.82492 -3.25103 0
M  V30 5843 H 571.565 -7.00609 -3.52301 0
M  V30 5844 N 569.068 1.32177 -0.85831 0
M  V30 5845 C 570.001 2.26823 -0.25035 0
M  V30 5846 C 570.979 1.50571 0.61378 0
M  V30 5847 O 572.163 1.79682 0.569777 0
M  V30 5848 C 569.29 3.32472 0.646556 0
M  V30 5849 C 568.336 4.26255 -0.144675 0
M  V30 5850 S 569.169 5.13608 -1.5155 0
M  V30 5851 C 570.325 6.22778 -0.624408 0
M  V30 5852 H 570.558 2.7804 -1.05267 0
M  V30 5853 H 568.091 1.39764 -0.656152 0
M  V30 5854 H 570.049 3.93817 1.15837 0
M  V30 5855 H 568.71 2.80031 1.42272 0
M  V30 5856 H 567.903 5.01114 0.538613 0
M  V30 5857 H 567.505 3.69346 -0.588198 0
M  V30 5858 H 569.797 6.77287 0.169846 0
M  V30 5859 H 570.74 6.95233 -1.34376 0
M  V30 5860 H 571.148 5.64156 -0.197128 0
M  V30 5861 N 570.547 0.616602 1.45037 0
M  V30 5862 C 571.787 0.118453 2.04056 0
M  V30 5863 C 572.151 -1.23104 1.47341 0
M  V30 5864 O 573.352 -1.82044 1.97771 0
M  V30 5865 C 571.623 0.0892842 3.57288 0
M  V30 5866 S 573.182 -0.346361 4.37431 0
M  V30 5867 H 570 0.0539728 0.708948 0
M  V30 5868 H 572.602 0.816731 1.77623 0
M  V30 5869 H 571.306 1.07481 3.96076 0
M  V30 5870 H 570.837 -0.630703 3.88311 0
M  V30 5871 H 572.852 -1.59389 4.69904 0
M  V30 5872 N 572.025 -1.5352 0.356285 0
M  V30 5873 C 573.302 -1.93405 -0.292223 0
M  V30 5874 C 573.682 -1.28901 -1.67176 0
M  V30 5875 O 573.03 -0.444632 -2.24132 0
M  V30 5876 C 573.24 -3.47223 -0.35175 0
M  V30 5877 C 574.588 -4.20389 -0.596534 0
M  V30 5878 O 575.612 -3.53554 -0.433344 0
M  V30 5879 O 574.471 -5.3881 -0.913589 0
M  V30 5880 H 571.565 -0.808666 -0.173172 0
M  V30 5881 H 574.111 -1.64713 0.408391 0
M  V30 5882 H 572.883 -3.86423 0.615841 0
M  V30 5883 H 572.506 -3.8212 -1.09864 0
M  V30 5884 N 573.503 -0.0852151 -1.57369 0
M  V30 5885 C 574.749 0.581666 -1.94279 0
M  V30 5886 C 575.082 1.68444 -0.966446 0
M  V30 5887 O 574.357 1.945 0.00215277 0
M  V30 5888 C 574.64 1.14609 -3.41375 0
M  V30 5889 C 574.493 0.0490414 -4.49773 0
M  V30 5890 C 575.812 2.04751 -3.8957 0
M  V30 5891 H 572.931 0.209972 -0.706456 0
M  V30 5892 H 575.573 -0.153915 -1.89376 0
M  V30 5893 H 573.723 1.77297 -3.45685 0
M  V30 5894 H 575.395 -0.584721 -4.57579 0
M  V30 5895 H 573.638 -0.618638 -4.29366 0
M  V30 5896 H 574.309 0.484601 -5.49869 0
M  V30 5897 H 576.785 1.51981 -3.87351 0
M  V30 5898 H 575.661 2.41173 -4.93079 0
M  V30 5899 H 575.922 2.96107 -3.28288 0
M  V30 5900 N 574.981 1.5647 0.188427 0
M  V30 5901 C 575.911 1.98101 1.23606 0
M  V30 5902 C 576.892 0.853961 1.47111 0
M  V30 5903 O 578.077 1.11879 1.58735 0
M  V30 5904 C 575.207 2.32624 2.57882 0
M  V30 5905 C 574.161 3.48129 2.48978 0
M  V30 5906 C 573.487 3.68347 3.87588 0
M  V30 5907 C 574.787 4.82112 2.00911 0
M  V30 5908 H 576.481 2.85864 0.890068 0
M  V30 5909 H 574.027 1.37532 0.426714 0
M  V30 5910 H 575.98 2.60343 3.3136 0
M  V30 5911 H 574.704 1.41751 2.94235 0
M  V30 5912 H 573.363 3.20511 1.77956 0
M  V30 5913 H 573.011 2.74793 4.21305 0
M  V30 5914 H 572.711 4.46055 3.82503 0
M  V30 5915 H 574.235 3.98449 4.62678 0
M  V30 5916 H 575.649 5.08819 2.64151 0
M  V30 5917 H 574.046 5.63337 2.06814 0
M  V30 5918 H 575.116 4.75249 0.96262 0
M  V30 5919 N 576.459 -0.456382 1.50847 0
M  V30 5920 C 577.736 -1.21739 1.53098 0
M  V30 5921 C 578.116 -2.09179 0.284132 0
M  V30 5922 O 577.464 -2.16466 -0.731773 0
M  V30 5923 C 577.674 -2.03573 2.83477 0
M  V30 5924 C 579.022 -2.61264 3.34703 0
M  V30 5925 O 580.046 -2.13802 2.84898 0
M  V30 5926 O 578.905 -3.47779 4.21559 0
M  V30 5927 H 575.999 -0.553219 0.614718 0
M  V30 5928 H 578.545 -0.467003 1.63148 0
M  V30 5929 H 577.317 -1.39232 3.65691 0
M  V30 5930 H 576.94 -2.85716 2.76499 0
M  V30 5931 N 577.937 -1.40673 -0.710563 0
M  V30 5932 C 579.162 -1.42741 -1.50465 0
M  V30 5933 C 579.587 -0.0302116 -1.88076 0
M  V30 5934 O 578.945 0.962945 -1.53613 0
M  V30 5935 C 578.993 -2.32873 -2.75322 0
M  V30 5936 O 578.097 -1.77544 -3.72226 0
M  V30 5937 H 577.438 -0.485056 -0.45345 0
M  V30 5938 H 579.968 -1.84961 -0.874681 0
M  V30 5939 H 579.978 -2.48233 -3.23797 0
M  V30 5940 H 578.653 -3.34401 -2.47283 0
M  V30 5941 H 577.23 -1.71556 -3.31093 0
M  V30 5942 N 579.415 0.9433 -1.26252 0
M  V30 5943 C 580.664 1.68369 -1.11062 0
M  V30 5944 C 580.977 1.92514 0.346104 0
M  V30 5945 O 582.183 2.64358 0.618646 0
M  V30 5946 C 580.639 3.03171 -1.93946 0
M  V30 5947 C 580.247 2.86782 -3.4418 0
M  V30 5948 C 581.991 3.80916 -1.87359 0
M  V30 5949 C 579.898 4.17044 -4.19319 0
M  V30 5950 H 578.828 0.631469 -0.412023 0
M  V30 5951 H 581.479 1.04922 -1.50544 0
M  V30 5952 H 579.861 3.67587 -1.47296 0
M  V30 5953 H 581.035 2.31229 -3.98585 0
M  V30 5954 H 579.35 2.22482 -3.51981 0
M  V30 5955 H 581.947 4.77417 -2.40784 0
M  V30 5956 H 582.29 4.07658 -0.843857 0
M  V30 5957 H 582.823 3.2327 -2.31821 0
M  V30 5958 H 579.562 3.95487 -5.22753 0
M  V30 5959 H 579.082 4.72319 -3.69696 0
M  V30 5960 H 580.761 4.85513 -4.27651 0
M  V30 5961 N 580.893 1.08022 1.14757 0
M  V30 5962 C 581.841 0.701088 2.21783 0
M  V30 5963 C 582.835 -0.291311 1.66876 0
M  V30 5964 O 584.041 -0.154296 1.79337 0
M  V30 5965 H 580.416 0.208668 0.722469 0
M  V30 5966 H 582.387 1.61321 2.51034 0
M  V30 5967 C 581.136 0.122278 3.47485 0
M  V30 5968 H 580.459 0.877065 3.90061 0
M  V30 5969 H 581.899 -0.105248 4.23869 0
M  V30 5970 C 580.358 -1.13883 3.17068 0
M  V30 5971 O 580.888 -2.22429 3.34497 0
M  V30 5972 N 579.094 -1.04767 2.71058 0
M  V30 5973 H 578.641 -0.164302 2.57075 0
M  V30 5974 H 578.599 -1.89224 2.51081 0
M  V30 5975 N 582.371 -1.3172 0.865308 0
M  V30 5976 C 583.648 -1.91574 0.394789 0
M  V30 5977 C 584.028 -1.78769 -1.12271 0
M  V30 5978 O 583.376 -1.19245 -1.94918 0
M  V30 5979 C 583.586 -3.37957 0.870982 0
M  V30 5980 C 584.934 -4.15073 0.894384 0
M  V30 5981 O 585.958 -3.4672 0.816325 0
M  V30 5982 O 584.817 -5.37151 1.00651 0
M  V30 5983 H 581.911 -0.818649 0.117229 0
M  V30 5984 H 584.457 -1.4042 0.952913 0
M  V30 5985 H 583.229 -3.41269 1.91444 0
M  V30 5986 H 582.852 -3.96534 0.290907 0
M  V30 5987 N 583.85 -0.624285 -1.44708 0
M  V30 5988 C 584.76 0.0861083 -2.34442 0
M  V30 5989 C 585.776 0.84291 -1.5222 0
M  V30 5990 O 586.952 0.796723 -1.84971 0
M  V30 5991 C 584.017 1.05999 -3.30099 0
M  V30 5992 C 583.077 0.303316 -4.28227 0
M  V30 5993 C 582.311 1.23081 -5.19314 0
M  V30 5994 O 582.534 2.46929 -5.14181 0
M  V30 5995 O 581.468 0.71883 -5.97592 0
M  V30 5996 H 585.293 -0.651756 -2.96624 0
M  V30 5997 H 582.879 -0.384493 -1.44368 0
M  V30 5998 H 584.76 1.62046 -3.88997 0
M  V30 5999 H 583.436 1.77859 -2.70459 0
M  V30 6000 H 582.343 -0.300033 -3.72895 0
M  V30 6001 H 583.676 -0.375123 -4.90768 0
M  V30 6002 N 585.328 1.53329 -0.364422 0
M  V30 6003 C 586.291 2.24323 0.470292 0
M  V30 6004 C 587.291 1.25068 1.01067 0
M  V30 6005 O 588.481 1.49354 0.896605 0
M  V30 6006 C 585.613 2.97908 1.65722 0
M  V30 6007 H 586.806 2.9952 -0.150917 0
M  V30 6008 H 584.359 1.55868 -0.116092 0
M  V30 6009 H 585.094 2.2695 2.31655 0
M  V30 6010 H 584.879 3.70732 1.27671 0
M  V30 6011 H 586.369 3.5188 2.24878 0
M  V30 6012 N 586.806 0.0935595 1.57322 0
M  V30 6013 C 588.052 -0.571355 1.94585 0
M  V30 6014 C 588.385 -1.67929 0.975366 0
M  V30 6015 O 587.66 -1.94498 0.00816206 0
M  V30 6016 C 587.943 -1.12797 3.41978 0
M  V30 6017 C 587.796 -0.0251881 4.49793 0
M  V30 6018 C 589.115 -2.02682 3.90651 0
M  V30 6019 H 586.234 -0.206223 0.70756 0
M  V30 6020 H 588.876 0.163956 1.89291 0
M  V30 6021 H 587.026 -1.75461 3.4662 0
M  V30 6022 H 588.698 0.608979 4.57263 0
M  V30 6023 H 586.941 0.641399 4.29032 0
M  V30 6024 H 587.612 -0.455433 5.50118 0
M  V30 6025 H 590.088 -1.49925 3.88152 0
M  V30 6026 H 588.964 -2.38555 4.94351 0
M  V30 6027 H 589.225 -2.94362 3.29854 0
M  V30 6028 N 588.284 -1.56567 -0.180126 0
M  V30 6029 C 589.533 -1.80685 -0.896426 0
M  V30 6030 C 589.846 -0.669335 -1.83791 0
M  V30 6031 O 591.052 -0.795209 -2.59593 0
M  V30 6032 C 589.508 -3.20132 -1.6445 0
M  V30 6033 C 589.116 -4.41727 -0.747088 0
M  V30 6034 C 590.86 -3.53549 -2.34955 0
M  V30 6035 C 588.767 -5.72195 -1.49489 0
M  V30 6036 H 587.697 -0.673758 -0.338477 0
M  V30 6037 H 590.348 -1.8289 -0.149467 0
M  V30 6038 H 588.73 -3.12218 -2.43589 0
M  V30 6039 H 589.904 -4.608 0.00671129 0
M  V30 6040 H 588.219 -4.16122 -0.152134 0
M  V30 6041 H 590.816 -4.48267 -2.91481 0
M  V30 6042 H 591.159 -2.78006 -3.09868 0
M  V30 6043 H 591.692 -3.62976 -1.62768 0
M  V30 6044 H 588.431 -6.50743 -0.788251 0
M  V30 6045 H 587.951 -5.57115 -2.22224 0
M  V30 6046 H 589.63 -6.1384 -2.04472 0
M  V30 6047 N 589.762 0.448376 -1.51087 0
M  V30 6048 C 590.672 1.56882 -1.74428 0
M  V30 6049 C 591.688 1.62268 -0.62809 0
M  V30 6050 O 592.864 1.79716 -0.909075 0
M  V30 6051 C 589.929 2.92947 -1.85426 0
M  V30 6052 C 588.99 2.97766 -3.09247 0
M  V30 6053 C 588.223 4.27341 -3.19711 0
M  V30 6054 O 588.446 5.19112 -2.36387 0
M  V30 6055 O 587.38 4.38219 -4.12611 0
M  V30 6056 H 591.206 1.40104 -2.69452 0
M  V30 6057 H 588.791 0.630247 -1.35456 0
M  V30 6058 H 590.673 3.73719 -1.94709 0
M  V30 6059 H 589.348 3.09876 -0.935887 0
M  V30 6060 H 588.255 2.15989 -3.0545 0
M  V30 6061 H 589.588 2.8578 -4.00738 0
M  V30 6062 N 591.24 1.41047 0.703093 0
M  V30 6063 C 592.656 1.23351 1.01275 0
M  V30 6064 C 592.856 0.11754 2.01157 0
M  V30 6065 O 591.912 -0.520518 2.47077 0
M  V30 6066 C 593.225 2.58001 1.54454 0
M  V30 6067 C 594.773 2.65119 1.66376 0
M  V30 6068 C 595.248 4.00067 2.22958 0
M  V30 6069 N 596.739 4.01875 2.30328 0
M  V30 6070 C 597.474 5.03087 2.75119 0
M  V30 6071 N 596.97 6.14692 3.19571 0
M  V30 6072 N 598.763 4.90451 2.74616 0
M  V30 6073 H 590.914 2.1236 0.0412686 0
M  V30 6074 H 593.177 0.944543 0.08089 0
M  V30 6075 H 592.883 3.40378 0.88521 0
M  V30 6076 H 592.757 2.79962 2.52786 0
M  V30 6077 H 595.144 1.83106 2.31422 0
M  V30 6078 H 595.225 2.46975 0.666089 0
M  V30 6079 H 594.869 4.82526 1.58529 0
M  V30 6080 H 594.799 4.15547 3.23462 0
M  V30 6081 H 597.29 3.21291 1.98949 0
M  V30 6082 H 597.603 6.87799 3.52352 0
M  V30 6083 H 595.948 6.18239 3.17498 0
M  V30 6084 H 599.139 4.0235 2.39233 0
M  V30 6085 H 599.312 5.6947 3.09206 0
M  V30 6086 N 592.718 -0.936591 1.26751 0
M  V30 6087 C 593.967 -1.67778 1.11953 0
M  V30 6088 C 594.28 -1.92694 -0.33589 0
M  V30 6089 O 595.486 -2.64682 -0.604618 0
M  V30 6090 C 593.942 -3.02138 1.95551 0
M  V30 6091 C 593.55 -2.84953 3.45696 0
M  V30 6092 C 595.294 -3.79917 1.89377 0
M  V30 6093 C 593.201 -4.14814 4.21525 0
M  V30 6094 H 592.131 -0.629275 0.415366 0
M  V30 6095 H 594.782 -1.04122 1.51099 0
M  V30 6096 H 593.164 -3.668 1.49243 0
M  V30 6097 H 594.338 -2.29112 3.99805 0
M  V30 6098 H 592.653 -2.20612 3.53156 0
M  V30 6099 H 595.25 -4.76134 2.43312 0
M  V30 6100 H 595.593 -4.07204 0.865464 0
M  V30 6101 H 596.126 -3.22037 2.33532 0
M  V30 6102 H 592.865 -3.92709 5.24843 0
M  V30 6103 H 592.385 -4.70352 3.72195 0
M  V30 6104 H 594.064 -4.83239 4.3022 0
M  V30 6105 N 594.196 -1.08629 -1.14182 0
M  V30 6106 C 595.143 -0.718299 -2.19338 0
M  V30 6107 C 596.113 0.296587 -1.63431 0
M  V30 6108 O 597.298 0.180079 -1.89948 0
M  V30 6109 C 594.438 -0.136203 -3.44831 0
M  V30 6110 C 593.551 -1.20414 -4.14879 0
M  V30 6111 C 592.686 -0.585666 -5.27962 0
M  V30 6112 C 591.725 -1.63548 -5.89846 0
M  V30 6113 N 590.862 -1.03864 -6.94375 0
M  V30 6114 H 595.702 -1.61932 -2.50164 0
M  V30 6115 H 593.239 -0.80919 -1.22844 0
M  V30 6116 H 595.197 0.219021 -4.16625 0
M  V30 6117 H 593.827 0.728121 -3.14481 0
M  V30 6118 H 592.879 -1.67676 -3.41451 0
M  V30 6119 H 594.191 -1.99959 -4.56966 0
M  V30 6120 H 593.345 -0.178818 -6.06436 0
M  V30 6121 H 592.084 0.24142 -4.87102 0
M  V30 6122 H 591.089 -2.05197 -5.10073 0
M  V30 6123 H 592.314 -2.46509 -6.3278 0
M  V30 6124 H 590.26 -0.232687 -6.55587 0
M  V30 6125 H 590.177 -1.77116 -7.3496 0
M  V30 6126 H 591.445 -0.657724 -7.7672 0
M  V30 6127 N 595.674 1.31259 -0.872281 0
M  V30 6128 C 596.922 1.96233 -0.483409 0
M  V30 6129 C 597.243 1.69276 0.968012 0
M  V30 6130 O 596.513 1.00943 1.67891 0
M  V30 6131 H 595.093 0.726025 -0.175774 0
M  V30 6132 H 597.755 1.60024 -1.11258 0
M  V30 6133 H 596.851 3.05403 -0.643075 0
M  V30 6134 N 597.152 0.631951 1.44375 0
M  V30 6135 C 598.099 -0.0724807 2.30686 0
M  V30 6136 C 599.069 -0.835975 1.43529 0
M  V30 6137 O 600.254 -0.816849 1.7243 0
M  V30 6138 C 597.394 -1.04753 3.28817 0
M  V30 6139 C 596.507 -0.282367 4.31076 0
M  V30 6140 C 595.642 -1.2493 5.163 0
M  V30 6141 C 594.681 -0.473349 6.10267 0
M  V30 6142 N 593.818 -1.39079 6.88187 0
M  V30 6143 H 598.658 0.669477 2.90383 0
M  V30 6144 H 596.195 0.341927 1.43071 0
M  V30 6145 H 598.153 -1.62623 3.842 0
M  V30 6146 H 596.783 -1.75661 2.70819 0
M  V30 6147 H 595.835 0.412268 3.78159 0
M  V30 6148 H 597.147 0.321955 4.9776 0
M  V30 6149 H 596.301 -1.89931 5.76204 0
M  V30 6150 H 595.04 -1.88755 4.49692 0
M  V30 6151 H 594.045 0.190142 5.49471 0
M  V30 6152 H 595.27 0.16019 6.78911 0
M  V30 6153 H 593.216 -2.01623 6.24247 0
M  V30 6154 H 593.133 -0.840513 7.51313 0
M  V30 6155 H 594.401 -2.02961 7.52613 0
M  V30 6156 N 598.631 -1.53133 0.372548 0
M  V30 6157 C 599.877 -2.01654 -0.215277 0
M  V30 6158 C 600.21 -1.25914 -1.47849 0
M  V30 6159 O 599.485 -0.3548 -1.91237 0
M  V30 6160 C 599.768 -3.56609 -0.500187 0
M  V30 6161 C 599.621 -4.43036 0.777145 0
M  V30 6162 C 600.94 -4.20528 -1.29786 0
M  V30 6163 H 598.059 -0.732991 -0.0767686 0
M  V30 6164 H 600.701 -1.83335 0.498814 0
M  V30 6165 H 598.851 -3.7235 -1.10852 0
M  V30 6166 H 600.523 -4.39079 1.41447 0
M  V30 6167 H 598.766 -4.10723 1.39604 0
M  V30 6168 H 599.437 -5.49424 0.532662 0
M  V30 6169 H 601.913 -4.08663 -0.783198 0
M  V30 6170 H 600.789 -5.28962 -1.46596 0
M  V30 6171 H 601.05 -3.77051 -2.30836 0
M  V30 6172 N 600.109 -0.101901 -1.5727 0
M  V30 6173 C 601.039 0.851544 -2.17419 0
M  V30 6174 C 602.02 1.28942 -1.10941 0
M  V30 6175 O 603.205 1.35509 -1.39107 0
M  V30 6176 C 600.335 2.10816 -2.75996 0
M  V30 6177 C 599.289 1.80867 -3.87906 0
M  V30 6178 C 598.615 3.13413 -4.33216 0
M  V30 6179 C 599.915 1.0903 -5.10793 0
M  V30 6180 H 601.609 0.350381 -2.97343 0
M  V30 6181 H 599.155 0.16709 -1.43027 0
M  V30 6182 H 601.108 2.77959 -3.16729 0
M  V30 6183 H 599.832 2.63227 -1.93337 0
M  V30 6184 H 598.491 1.16119 -3.47724 0
M  V30 6185 H 598.139 3.63725 -3.47438 0
M  V30 6186 H 597.839 2.94155 -5.08671 0
M  V30 6187 H 599.363 3.81704 -4.76586 0
M  V30 6188 H 600.777 1.66295 -5.48652 0
M  V30 6189 H 599.174 0.99927 -5.91722 0
M  V30 6190 H 600.244 0.0741704 -4.84843 0
M  V30 6191 N 601.587 1.56661 0.17182 0
M  V30 6192 C 602.864 1.72838 0.915778 0
M  V30 6193 C 603.244 0.66316 2.00413 0
M  V30 6194 O 602.592 -0.322123 2.26218 0
M  V30 6195 C 602.802 3.16019 1.48097 0
M  V30 6196 C 604.15 3.76962 1.95408 0
M  V30 6197 O 605.174 3.19294 1.57892 0
M  V30 6198 O 604.033 4.78219 2.64516 0
M  V30 6199 H 601.127 0.705797 0.431021 0
M  V30 6200 H 603.673 1.68947 0.159689 0
M  V30 6201 H 602.445 3.85031 0.697618 0
M  V30 6202 H 602.068 3.24234 2.30126 0
M  V30 6203 N 603.065 -0.440357 1.51323 0
M  V30 6204 C 604.314 -1.18697 1.63076 0
M  V30 6205 C 604.627 -1.92418 0.35136 0
M  V30 6206 O 605.833 -2.69258 0.348221 0
M  V30 6207 C 604.289 -2.15849 2.87988 0
M  V30 6208 C 603.897 -1.47789 4.22921 0
M  V30 6209 C 605.641 -2.90962 3.09098 0
M  V30 6210 C 603.548 -2.43407 5.38987 0
M  V30 6211 H 602.478 -0.44676 0.607389 0
M  V30 6212 H 605.129 -0.454313 1.77787 0
M  V30 6213 H 603.511 -2.92537 2.66905 0
M  V30 6214 H 604.685 -0.7668 4.54375 0
M  V30 6215 H 603 -0.848404 4.07665 0
M  V30 6216 H 605.597 -3.62584 3.92985 0
M  V30 6217 H 605.94 -3.52133 2.22053 0
M  V30 6218 H 606.473 -2.21381 3.30507 0
M  V30 6219 H 603.212 -1.86929 6.28282 0
M  V30 6220 H 602.732 -3.12579 5.11913 0
M  V30 6221 H 604.411 -3.046 5.70813 0
M  V30 6222 N 604.543 -1.41418 -0.695603 0
M  V30 6223 C 605.783 -1.42241 -1.46788 0
M  V30 6224 C 606.147 -0.0300827 -1.91976 0
M  V30 6225 O 607.348 0.0868914 -2.6866 0
M  V30 6226 C 605.619 -2.4011 -2.6473 0
M  V30 6227 S 607.178 -2.59462 -3.53871 0
M  V30 6228 H 603.996 -0.503893 -0.50161 0
M  V30 6229 H 606.598 -1.77855 -0.811654 0
M  V30 6230 H 605.302 -3.40073 -2.29736 0
M  V30 6231 H 604.833 -2.05849 -3.35246 0
M  V30 6232 H 606.848 -1.862 -4.59939 0
M  V30 6233 N 606.021 0.929856 -1.27246 0
M  V30 6234 C 606.984 2.01172 -1.09829 0
M  V30 6235 C 607.984 1.60743 -0.0429687 0
M  V30 6236 O 609.174 1.71813 -0.287373 0
M  V30 6237 C 606.306 3.34191 -0.673003 0
M  V30 6238 H 607.499 2.18054 -2.05895 0
M  V30 6239 H 605.052 1.11036 -1.10003 0
M  V30 6240 H 605.787 3.23009 0.289134 0
M  V30 6241 H 605.572 3.64892 -1.43515 0
M  V30 6242 H 607.062 4.13646 -0.573323 0
M  V30 6243 N 607.499 1.09233 1.13605 0
M  V30 6244 C 608.915 0.82163 1.36826 0
M  V30 6245 C 609.115 -0.565021 1.93416 0
M  V30 6246 O 608.171 -1.32026 2.15234 0
M  V30 6247 C 609.484 1.91124 2.32147 0
M  V30 6248 C 611.032 1.93824 2.45767 0
M  V30 6249 C 611.507 3.01923 3.44393 0
M  V30 6250 N 612.998 3.01149 3.51942 0
M  V30 6251 C 613.733 3.81434 4.2813 0
M  V30 6252 N 613.229 4.71621 5.07489 0
M  V30 6253 N 615.022 3.69702 4.23411 0
M  V30 6254 H 607.173 1.98633 0.752234 0
M  V30 6255 H 609.436 0.862482 0.393482 0
M  V30 6256 H 609.142 2.90862 1.97717 0
M  V30 6257 H 609.016 1.78777 3.32142 0
M  V30 6258 H 611.403 0.94726 2.79483 0
M  V30 6259 H 611.484 2.10248 1.45703 0
M  V30 6260 H 611.128 4.01232 3.11408 0
M  V30 6261 H 611.058 2.82742 4.44257 0
M  V30 6262 H 613.549 2.35789 2.95317 0
M  V30 6263 H 613.862 5.29468 5.62924 0
M  V30 6264 H 612.207 4.75658 5.06729 0
M  V30 6265 H 615.398 2.98606 3.60489 0
M  V30 6266 H 615.571 4.32509 4.82535 0
M  V30 6267 N 608.977 -1.30795 0.87923 0
M  V30 6268 C 610.207 -2.00237 0.50881 0
M  V30 6269 C 610.615 -1.66115 -0.905682 0
M  V30 6270 O 609.958 -0.89138 -1.60624 0
M  V30 6271 C 610.02 -3.54508 0.597003 0
M  V30 6272 C 609.684 -4.12131 1.97477 0
M  V30 6273 C 610.681 -4.28552 2.94346 0
M  V30 6274 C 608.366 -4.47644 2.2786 0
M  V30 6275 C 610.36 -4.79689 4.19735 0
M  V30 6276 C 608.047 -4.98481 3.53496 0
M  V30 6277 C 609.045 -5.14456 4.49248 0
M  V30 6278 O 608.733 -5.64199 5.72656 0
M  V30 6279 H 608.465 -0.647026 0.195788 0
M  V30 6280 H 611.019 -1.67785 1.1848 0
M  V30 6281 H 609.249 -3.86461 -0.135945 0
M  V30 6282 H 610.938 -4.05198 0.238684 0
M  V30 6283 H 611.704 -4.01424 2.72183 0
M  V30 6284 H 607.583 -4.34481 1.54102 0
M  V30 6285 H 611.127 -4.92073 4.9448 0
M  V30 6286 H 607.024 -5.25044 3.75498 0
M  V30 6287 H 607.792 -5.82551 5.74957 0
M  V30 6288 N 610.455 -0.639598 -1.44038 0
M  V30 6289 C 611.866 -0.228866 -1.85292 0
M  V30 6290 C 612.217 1.22161 -1.53529 0
M  V30 6291 O 611.342 1.93064 -0.977518 0
M  V30 6292 C 611.937 -0.408592 -3.36327 0
M  V30 6293 C 610.496 -0.0522953 -3.76364 0
M  V30 6294 C 609.643 -0.717959 -2.67844 0
M  V30 6295 H 612.594 -0.844194 -1.34384 0
M  V30 6296 H 612.615 0.349968 -3.78887 0
M  V30 6297 H 612.127 -1.46435 -3.59414 0
M  V30 6298 H 610.228 1.0014 -3.58891 0
M  V30 6299 H 610.341 -0.468261 -4.76806 0
M  V30 6300 H 608.705 -0.152459 -2.54243 0
M  V30 6301 H 609.488 -1.77648 -2.93762 0
M  V30 6302 N 611.933 1.52934 -0.380664 0
M  V30 6303 C 613.179 2.01765 0.20458 0
M  V30 6304 C 613.512 1.26696 1.47179 0
M  V30 6305 O 612.787 0.364936 1.91046 0
M  V30 6306 C 613.07 3.56869 0.481269 0
M  V30 6307 C 612.923 4.42617 -0.800629 0
M  V30 6308 C 614.242 4.2121 1.27554 0
M  V30 6309 H 611.361 0.733388 0.0728803 0
M  V30 6310 H 614.003 1.83068 -0.50853 0
M  V30 6311 H 612.153 3.72932 1.08875 0
M  V30 6312 H 613.825 4.38323 -1.43773 0
M  V30 6313 H 612.068 4.09977 -1.4178 0
M  V30 6314 H 612.739 5.49134 -0.561791 0
M  V30 6315 H 615.215 4.09072 0.761514 0
M  V30 6316 H 614.091 5.29732 1.43788 0
M  V30 6317 H 614.352 3.78269 2.28833 0
M  V30 6318 N 613.412 0.11024 1.57214 0
M  V30 6319 C 614.642 -0.557025 1.98949 0
M  V30 6320 C 615.05 -1.61317 0.988606 0
M  V30 6321 O 614.393 -1.83679 -0.0279159 0
M  V30 6322 C 614.455 -1.24956 3.37085 0
M  V30 6323 C 614.119 -0.342398 4.55716 0
M  V30 6324 C 615.116 0.415511 5.18237 0
M  V30 6325 C 612.801 -0.256029 5.01647 0
M  V30 6326 C 614.795 1.24761 6.25071 0
M  V30 6327 C 612.482 0.579713 6.08344 0
M  V30 6328 C 613.48 1.33017 6.69922 0
M  V30 6329 O 613.168 2.15205 7.74559 0
M  V30 6330 H 612.9 -0.152792 0.658506 0
M  V30 6331 H 615.454 0.19076 2.04512 0
M  V30 6332 H 613.684 -2.04424 3.2825 0
M  V30 6333 H 615.373 -1.81286 3.63167 0
M  V30 6334 H 616.139 0.358605 4.83672 0
M  V30 6335 H 612.018 -0.829831 4.5347 0
M  V30 6336 H 615.562 1.83386 6.73064 0
M  V30 6337 H 611.459 0.638044 6.42339 0
M  V30 6338 H 612.227 2.08052 7.91617 0
M  V30 6339 N 614.89 -1.56749 -0.16351 0
M  V30 6340 C 615.853 -1.96121 -1.18613 0
M  V30 6341 C 616.853 -0.845765 -1.36761 0
M  V30 6342 O 618.043 -1.11268 -1.34033 0
M  V30 6343 C 615.175 -2.26282 -2.54969 0
M  V30 6344 H 616.368 -2.87639 -0.848764 0
M  V30 6345 H 613.921 -1.50928 -0.406251 0
M  V30 6346 H 614.656 -1.37504 -2.93706 0
M  V30 6347 H 614.441 -3.07595 -2.43162 0
M  V30 6348 H 615.931 -2.57638 -3.28653 0
M  V30 6349 O 616.407 0.308401 -1.58528 0
M  V30 6350 H 617.098 0.955962 -1.68467 0
M  V30 END ATOM
M  V30 BEGIN BOND
M  V30 END BOND
M  V30 END CTAB
M  END
$$$$
