drugbank_target|P0A8Q3 Fumarate reductase subunit D (DB07490; DB07918)
 OpenBabel12092120443D

  0  0  0     0  0            999 V3000
M  V30 BEGIN CTAB
M  V30 COUNTS 1897 1927 0 0 0
M  V30 BEGIN ATOM
M  V30 1 H -0.908 1.98254 -0.117106 0
M  V30 2 N 0 1.576 0 0
M  V30 3 C 0.933 2.03868 1.02534 0
M  V30 4 C 1.911 0.928543 1.3348 0
M  V30 5 O 3.095 1.19667 1.45644 0
M  V30 6 C 0.222 2.43627 2.35294 0
M  V30 7 C -0.732 3.65373 2.2001 0
M  V30 8 S 0.101 5.13292 1.52614 0
M  V30 9 C 1.257 5.56322 2.86805 0
M  V30 10 H 1.49 2.90518 0.631377 0
M  V30 11 H -0.977 1.52953 0.210867 0
M  V30 12 H 0.981 2.67203 3.11629 0
M  V30 13 H -0.358 1.57376 2.7183 0
M  V30 14 H -1.165 3.90944 3.18086 0
M  V30 15 H -1.563 3.418 1.51819 0
M  V30 16 H 0.729 5.58782 3.83104 0
M  V30 17 H 1.672 6.56266 2.65933 0
M  V30 18 H 2.08 4.83886 2.90714 0
M  V30 19 N 1.4781 -0.272755 1.55222 0
M  V30 20 C 2.7271 -1.00211 1.75045 0
M  V30 21 C 3.0401 -1.87441 0.559046 0
M  V30 22 O 4.2461 -2.63856 0.639698 0
M  V30 23 C 2.7021 -1.83165 3.09804 0
M  V30 24 C 2.3101 -1.008 4.36513 0
M  V30 25 C 4.0541 -2.55529 3.38977 0
M  V30 26 C 1.9611 -1.83194 5.62311 0
M  V30 27 H 0.8911 -0.377878 0.652476 0
M  V30 28 H 3.5421 -0.257776 1.8168 0
M  V30 29 H 1.9241 -2.61694 2.97207 0
M  V30 30 H 3.0981 -0.266855 4.60027 0
M  V30 31 H 1.4131 -0.398897 4.14485 0
M  V30 32 H 4.0101 -3.17578 4.30172 0
M  V30 33 H 4.3531 -3.25825 2.59121 0
M  V30 34 H 4.8861 -1.84029 3.52673 0
M  V30 35 H 1.6251 -1.17318 6.44916 0
M  V30 36 H 1.1451 -2.54905 5.4294 0
M  V30 37 H 2.8241 -2.40552 6.00619 0
M  V30 38 N 2.9562 -1.48159 -0.537278 0
M  V30 39 C 3.9042 -1.62573 -1.66352 0
M  V30 40 C 4.8982 -0.492366 -1.62087 0
M  V30 41 O 6.1042 -0.670847 -1.67032 0
M  V30 42 H 2.4792 -0.511992 -0.550789 0
M  V30 43 H 4.4502 -2.57176 -1.51337 0
M  V30 44 C 3.1992 -1.67583 -3.04649 0
M  V30 45 H 2.5222 -2.54151 -3.08622 0
M  V30 46 H 3.9622 -1.81713 -3.83088 0
M  V30 47 C 2.4212 -0.413039 -3.34358 0
M  V30 48 O 2.9512 0.477259 -3.98855 0
M  V30 49 N 1.1572 -0.286961 -2.8918 0
M  V30 50 H 0.7042 -1.01241 -2.36871 0
M  V30 51 H 0.6622 0.556963 -3.09427 0
M  V30 52 N 4.4343 0.785586 -1.36625 0
M  V30 53 C 5.8453 1.36101 -1.27803 0
M  V30 54 C 6.1963 1.96035 0.0804875 0
M  V30 55 O 5.3213 1.92834 0.982042 0
M  V30 56 C 5.9163 2.47442 -2.31426 0
M  V30 57 C 4.4753 3.00789 -2.26281 0
M  V30 58 C 3.6223 1.73896 -2.15999 0
M  V30 59 H 6.5733 0.586928 -1.47448 0
M  V30 60 H 6.5943 3.2656 -1.95291 0
M  V30 61 H 6.1063 2.03791 -3.30289 0
M  V30 62 H 4.2073 3.48851 -1.30896 0
M  V30 63 H 4.3203 3.57343 -3.19128 0
M  V30 64 H 2.6843 1.9628 -1.62316 0
M  V30 65 H 3.4673 1.32368 -3.16755 0
M  V30 66 N 5.9124 1.20967 1.01018 0
M  V30 67 C 6.8604 0.961223 2.1181 0
M  V30 68 C 7.8544 -0.0897034 1.69162 0
M  V30 69 O 9.0604 0.0612271 1.79896 0
M  V30 70 H 5.4354 0.29355 0.692338 0
M  V30 71 H 7.4064 1.90178 2.29946 0
M  V30 72 C 6.1554 0.536854 3.4353 0
M  V30 73 H 5.4784 1.33713 3.76777 0
M  V30 74 H 6.9184 0.402286 4.22087 0
M  V30 75 C 5.3774 -0.751574 3.2841 0
M  V30 76 O 5.9074 -1.80841 3.58691 0
M  V30 77 N 4.1134 -0.716079 2.81639 0
M  V30 78 H 3.6604 0.144236 2.57196 0
M  V30 79 H 3.6184 -1.57847 2.71904 0
M  V30 80 N 7.3905 -1.2043 1.01659 0
M  V30 81 C 8.8015 -1.71517 0.737482 0
M  V30 82 C 9.1525 -1.81547 -0.743973 0
M  V30 83 O 8.2775 -1.47803 -1.58061 0
M  V30 84 C 8.8725 -3.11515 1.33206 0
M  V30 85 C 7.4315 -3.59912 1.10183 0
M  V30 86 C 6.5785 -2.37116 1.43776 0
M  V30 87 H 9.5295 -1.05444 1.18606 0
M  V30 88 H 9.5505 -3.73575 0.722636 0
M  V30 89 H 9.0625 -3.04182 2.41028 0
M  V30 90 H 7.1635 -3.72577 0.0412756 0
M  V30 91 H 7.2765 -4.44731 1.78188 0
M  V30 92 H 5.6405 -2.39857 0.856778 0
M  V30 93 H 6.4235 -2.32424 2.52654 0
M  V30 94 N 8.8686 -0.792821 -1.36206 0
M  V30 95 C 9.8156 -0.191653 -2.30003 0
M  V30 96 C 10.7856 0.666453 -1.52143 0
M  V30 97 O 11.9706 0.61442 -1.80636 0
M  V30 98 C 9.1106 0.664848 -3.38635 0
M  V30 99 C 8.2236 -0.212175 -4.31479 0
M  V30 100 C 7.3586 0.651022 -5.27196 0
M  V30 101 C 6.3976 -0.227247 -6.11678 0
M  V30 102 N 5.5346 0.595127 -6.99573 0
M  V30 103 H 10.3746 -0.996978 -2.80828 0
M  V30 104 H 7.9116 -0.503206 -1.38225 0
M  V30 105 H 9.8696 1.17645 -4.00269 0
M  V30 106 H 8.4996 1.43557 -2.89122 0
M  V30 107 H 7.5516 -0.841777 -3.70969 0
M  V30 108 H 8.8636 -0.888751 -4.90818 0
M  V30 109 H 8.0176 1.2283 -5.94136 0
M  V30 110 H 6.7566 1.36121 -4.68319 0
M  V30 111 H 5.7616 -0.816904 -5.43697 0
M  V30 112 H 6.9866 -0.93509 -6.72631 0
M  V30 113 H 4.9326 1.28955 -6.432 0
M  V30 114 H 4.8496 -0.0236952 -7.55996 0
M  V30 115 H 6.1176 1.15613 -7.70879 0
M  V30 116 N 10.3467 1.47872 -0.545128 0
M  V30 117 C 11.7627 1.5829 -0.204032 0
M  V30 118 C 11.9627 1.54529 1.29317 0
M  V30 119 O 11.0187 1.44232 2.07252 0
M  V30 120 C 12.3317 2.89304 -0.819987 0
M  V30 121 C 13.8797 3.02864 -0.790105 0
M  V30 122 C 14.3547 4.3656 -1.38491 0
M  V30 123 N 15.8457 4.43165 -1.34755 0
M  V30 124 C 16.5807 5.45153 -1.77753 0
M  V30 125 N 16.0767 6.54016 -2.2855 0
M  V30 126 N 17.8697 5.36125 -1.68897 0
M  V30 127 H 10.0207 1.4856 -1.51802 0
M  V30 128 H 12.2837 0.706305 -0.632327 0
M  V30 129 H 11.9897 2.97757 -1.87173 0
M  V30 130 H 11.8637 3.75957 -0.305915 0
M  V30 131 H 14.2507 2.94014 0.252913 0
M  V30 132 H 14.3317 2.17782 -1.34181 0
M  V30 133 H 13.9757 4.46164 -2.42693 0
M  V30 134 H 13.9057 5.20353 -0.808754 0
M  V30 135 H 16.3967 3.65083 -0.975855 0
M  V30 136 H 16.7097 7.27994 -2.59314 0
M  V30 137 H 15.0547 6.54938 -2.32553 0
M  V30 138 H 18.2457 4.49975 -1.28998 0
M  V30 139 H 18.4187 6.15472 -2.02726 0
M  V30 140 N 11.8248 0.280983 1.55075 0
M  V30 141 C 13.0498 -0.340154 2.04592 0
M  V30 142 C 13.4748 -1.48246 1.15779 0
M  V30 143 O 12.8328 -1.80614 0.15761 0
M  V30 144 C 12.8808 -0.793104 3.5177 0
M  V30 145 O 11.9848 -1.89981 3.66034 0
M  V30 146 H 11.3258 -0.0694289 0.66036 0
M  V30 147 H 13.8558 0.416993 2.00306 0
M  V30 148 H 13.8658 -1.08729 3.93245 0
M  V30 149 H 12.5408 0.0426163 4.15878 0
M  V30 150 H 11.1178 -1.60771 3.36463 0
M  V30 151 N 13.3029 -1.57598 0.00835791 0
M  V30 152 C 14.5799 -1.82172 -0.712235 0
M  V30 153 C 14.9599 -0.887873 -1.9152 0
M  V30 154 O 14.3079 0.06146 -2.28417 0
M  V30 155 C 14.5179 -3.30875 -1.11008 0
M  V30 156 C 15.8659 -3.96826 -1.51044 0
M  V30 157 O 16.8899 -3.35248 -1.20364 0
M  V30 158 O 15.7489 -5.05318 -2.08125 0
M  V30 159 H 12.8429 -0.750435 -0.347529 0
M  V30 160 H 15.3889 -1.69665 0.0344523 0
M  V30 161 H 14.1609 -3.90481 -0.252982 0
M  V30 162 H 13.7839 -3.48412 -1.9156 0
M  V30 163 N 14.781 0.264519 -1.55364 0
M  V30 164 C 15.691 1.34902 -1.91934 0
M  V30 165 C 16.707 1.53595 -0.817593 0
M  V30 166 O 17.883 1.67558 -1.11742 0
M  V30 167 C 14.948 2.68676 -2.19121 0
M  V30 168 C 14.009 2.58657 -3.4263 0
M  V30 169 C 13.242 3.86051 -3.68511 0
M  V30 170 O 13.465 4.87126 -2.96757 0
M  V30 171 O 12.399 3.85744 -4.62045 0
M  V30 172 H 16.225 1.06883 -2.8427 0
M  V30 173 H 13.81 0.463775 -1.42019 0
M  V30 174 H 15.692 3.47759 -2.37995 0
M  V30 175 H 14.367 2.96463 -1.29966 0
M  V30 176 H 13.274 1.7792 -3.29082 0
M  V30 177 H 14.607 2.35818 -4.32031 0
M  V30 178 N 16.2591 1.48442 0.529413 0
M  V30 179 C 17.6701 1.5002 1.11134 0
M  V30 180 C 18.0211 0.27031 1.94329 0
M  V30 181 O 17.1461 -0.622507 2.07253 0
M  V30 182 C 17.7411 2.71834 2.02217 0
M  V30 183 C 16.3001 2.76283 2.55627 0
M  V30 184 C 15.4471 2.43542 1.326 0
M  V30 185 H 18.3981 1.5555 0.314641 0
M  V30 186 H 18.4191 2.50384 2.8651 0
M  V30 187 H 17.9311 3.61331 1.41639 0
M  V30 188 H 16.0321 1.90995 3.19924 0
M  V30 189 H 16.1451 3.77725 2.94721 0
M  V30 190 H 14.5091 1.94709 1.64196 0
M  V30 191 H 15.2921 3.3528 0.737734 0
M  V30 192 N 17.7372 -0.778329 1.37039 0
M  V30 193 C 18.9832 -1.53892 1.32079 0
M  V30 194 C 19.3162 -1.9396 -0.0965386 0
M  V30 195 O 18.5912 -1.63568 -1.05242 0
M  V30 196 C 18.8742 -2.80847 2.25382 0
M  V30 197 C 18.7272 -2.47076 3.75864 0
M  V30 198 C 20.0462 -3.82741 2.1725 0
M  V30 199 H 17.1652 -0.558303 0.48111 0
M  V30 200 H 19.8072 -0.893397 1.67685 0
M  V30 201 H 17.9572 -3.35931 1.95148 0
M  V30 202 H 19.6292 -1.97957 4.16666 0
M  V30 203 H 17.8722 -1.79863 3.94755 0
M  V30 204 H 18.5432 -3.37798 4.36574 0
M  V30 205 H 21.0192 -3.37133 2.43887 0
M  V30 206 H 19.8952 -4.69303 2.84686 0
M  V30 207 H 20.1562 -4.2652 1.16331 0
M  V30 208 N 19.2153 -1.21501 -1.00376 0
M  V30 209 C 20.4623 -1.03299 -1.74171 0
M  V30 210 C 20.7903 0.433326 -1.89612 0
M  V30 211 O 20.0453 1.33779 -1.42834 0
M  V30 212 C 20.3443 -1.67673 -3.15627 0
M  V30 213 C 20.0103 -3.17533 -3.2013 0
M  V30 214 C 18.6723 -3.58427 -3.21067 0
M  V30 215 C 21.0243 -4.13504 -3.17275 0
M  V30 216 C 18.3523 -4.93794 -3.16835 0
M  V30 217 C 20.7043 -5.48834 -3.14585 0
M  V30 218 C 19.3683 -5.89123 -3.13831 0
M  V30 219 H 18.6383 -0.377999 -0.637336 0
M  V30 220 H 21.2853 -1.51111 -1.17634 0
M  V30 221 H 19.5903 -1.12158 -3.75404 0
M  V30 222 H 21.2873 -1.51091 -3.71446 0
M  V30 223 H 17.8773 -2.84965 -3.20145 0
M  V30 224 H 22.0613 -3.82936 -3.15711 0
M  V30 225 H 17.3173 -5.24255 -3.1459 0
M  V30 226 H 21.4913 -6.22934 -3.1133 0
M  V30 227 H 19.1183 -6.93984 -3.10307 0
M  V30 228 N 20.6934 1.19889 -1.02296 0
M  V30 229 C 21.9394 1.89973 -0.726759 0
M  V30 230 C 22.2944 1.7776 0.73614 0
M  V30 231 O 21.5874 1.15523 1.52856 0
M  V30 232 C 21.7814 3.39883 -1.10518 0
M  V30 233 C 21.6104 3.66684 -2.60332 0
M  V30 234 C 20.3804 3.85045 -3.27213 0
M  V30 235 C 22.5784 3.68727 -3.58532 0
M  V30 236 N 20.5604 3.99422 -4.66192 0
M  V30 237 C 21.9314 3.88604 -4.83101 0
M  V30 238 C 23.9864 3.51722 -3.52414 0
M  V30 239 C 22.6894 3.9324 -6.02292 0
M  V30 240 C 24.7154 3.57632 -4.71013 0
M  V30 241 C 24.0774 3.77988 -5.94394 0
M  V30 242 H 20.1764 0.714551 -0.317712 0
M  V30 243 H 22.7604 1.44123 -1.30907 0
M  V30 244 H 20.9314 3.8447 -0.551142 0
M  V30 245 H 22.6634 3.97464 -0.761853 0
M  V30 246 H 19.4184 3.83689 -2.77632 0
M  V30 247 H 19.8424 4.10473 -5.38368 0
M  V30 248 H 24.4844 3.34945 -2.58015 0
M  V30 249 H 22.2024 4.08811 -6.97065 0
M  V30 250 H 25.7884 3.45773 -4.67902 0
M  V30 251 H 24.6684 3.82428 -6.8463 0
M  V30 252 N 22.1715 0.800033 1.35784 0
M  V30 253 C 23.4195 0.376597 1.9856 0
M  V30 254 C 23.7405 -1.05812 1.63795 0
M  V30 255 O 23.0105 -1.73103 0.917171 0
M  V30 256 H 21.5905 0.136261 0.734467 0
M  V30 257 H 24.2525 1.02442 1.65806 0
M  V30 258 H 23.3485 0.477002 3.08433 0
M  V30 259 N 23.6496 -1.47581 0.552962 0
M  V30 260 C 24.5796 -2.32762 -0.185451 0
M  V30 261 C 25.5606 -1.43527 -0.912905 0
M  V30 262 O 26.7456 -1.72388 -0.894201 0
M  V30 263 C 23.8756 -3.25219 -1.21859 0
M  V30 264 C 22.8296 -4.23661 -0.607864 0
M  V30 265 C 22.1556 -5.05413 -1.74533 0
M  V30 266 C 23.4556 -5.20481 0.435582 0
M  V30 267 H 25.1496 -2.94749 0.525684 0
M  V30 268 H 22.6956 -1.41738 0.254251 0
M  V30 269 H 24.6486 -3.8365 -1.7433 0
M  V30 270 H 23.3726 -2.61279 -1.95961 0
M  V30 271 H 22.0316 -3.66451 -0.104489 0
M  V30 272 H 21.6796 -4.3788 -2.47529 0
M  V30 273 H 21.3796 -5.72059 -1.34249 0
M  V30 274 H 22.9036 -5.66701 -2.27338 0
M  V30 275 H 24.3176 -5.733 -0.00290157 0
M  V30 276 H 22.7146 -5.95305 0.757067 0
M  V30 277 H 23.7846 -4.66217 1.33303 0
M  V30 278 N 25.1277 -0.289203 -1.54924 0
M  V30 279 C 26.3747 0.323519 -1.99899 0
M  V30 280 C 26.7027 1.54797 -1.17762 0
M  V30 281 O 25.9577 1.94237 -0.238835 0
M  V30 282 C 26.2567 0.736119 -3.49737 0
M  V30 283 C 25.9227 -0.385276 -4.49251 0
M  V30 284 C 24.5847 -0.693156 -4.76181 0
M  V30 285 C 26.9367 -1.14021 -5.08575 0
M  V30 286 C 24.2647 -1.7593 -5.59701 0
M  V30 287 C 26.6167 -2.19619 -5.93254 0
M  V30 288 C 25.2807 -2.51026 -6.185 0
M  V30 289 H 24.5507 0.118384 -0.731482 0
M  V30 290 H 27.1977 -0.405847 -1.8715 0
M  V30 291 H 25.5027 1.54539 -3.60035 0
M  V30 292 H 27.1997 1.22118 -3.81953 0
M  V30 293 H 23.7897 -0.135202 -4.28387 0
M  V30 294 H 27.9737 -0.915611 -4.87781 0
M  V30 295 H 23.2297 -2.0075 -5.77503 0
M  V30 296 H 27.4037 -2.78581 -6.38252 0
M  V30 297 H 25.0307 -3.33772 -6.83008 0
M  V30 298 N 26.6058 1.57591 -0.0167156 0
M  V30 299 C 27.8538 1.90906 0.663285 0
M  V30 300 C 28.1748 0.892509 1.73376 0
M  V30 301 O 27.4448 -0.0677623 1.95783 0
M  V30 302 H 26.0248 0.704637 0.247983 0
M  V30 303 H 28.6868 1.94803 -0.0615909 0
M  V30 304 H 27.7828 2.9116 1.12393 0
M  V30 305 N 28.0839 -0.256276 1.55502 0
M  V30 306 C 29.0469 -1.30047 1.88734 0
M  V30 307 C 30.0469 -1.4154 0.763086 0
M  V30 308 O 31.2369 -1.40403 1.03115 0
M  V30 309 C 28.3689 -2.67953 2.10747 0
M  V30 310 H 29.5619 -1.01802 2.82093 0
M  V30 311 H 27.1149 -0.495134 1.4825 0
M  V30 312 H 27.8499 -3.01351 1.19825 0
M  V30 313 H 27.6349 -2.60993 2.92617 0
M  V30 314 H 29.1249 -3.43368 2.37673 0
M  V30 315 N 29.562 -1.4872 -0.521534 0
M  V30 316 C 30.81 -1.56857 -1.27437 0
M  V30 317 C 31.131 -0.247982 -1.93417 0
M  V30 318 O 30.401 0.731151 -1.81744 0
M  V30 319 H 28.981 -0.577885 -0.473347 0
M  V30 320 H 31.643 -1.85233 -0.606205 0
M  V30 321 H 30.739 -2.35402 -2.0492 0
M  V30 322 N 31.0401 0.771051 -1.3745 0
M  V30 323 C 32.2881 1.52661 -1.32435 0
M  V30 324 C 32.6091 1.9479 0.0905024 0
M  V30 325 O 31.8791 1.66348 1.03466 0
M  V30 326 H 30.4591 0.566218 -0.487244 0
M  V30 327 H 33.1211 0.917636 -1.71946 0
M  V30 328 H 32.2171 2.42568 -1.96385 0
M  V30 329 N 32.5182 1.22032 0.997298 0
M  V30 330 C 33.4512 0.929735 2.08401 0
M  V30 331 C 34.4292 -0.125681 1.62114 0
M  V30 332 O 35.6132 0.00495409 1.88499 0
M  V30 333 C 32.7402 0.397488 3.3636 0
M  V30 334 C 31.7862 1.4369 4.01566 0
M  V30 335 S 32.6192 3.00874 4.42984 0
M  V30 336 C 33.7752 2.49276 5.74119 0
M  V30 337 H 34.0082 1.84998 2.32729 0
M  V30 338 H 31.5412 1.0509 1.13117 0
M  V30 339 H 33.4992 0.0969846 4.10385 0
M  V30 340 H 32.1602 -0.501571 3.10069 0
M  V30 341 H 31.3532 1.01427 4.93689 0
M  V30 342 H 30.9552 1.68588 3.33847 0
M  V30 343 H 33.2472 1.90242 6.50242 0
M  V30 344 H 34.1902 3.39872 6.21203 0
M  V30 345 H 34.5982 1.90714 5.31308 0
M  V30 346 N 33.9963 -1.19345 1.0293 0
M  V30 347 C 35.2423 -1.89585 0.736824 0
M  V30 348 C 35.5973 -1.78148 -0.726703 0
M  V30 349 O 34.8903 -1.16332 -1.52242 0
M  V30 350 C 35.0843 -3.39292 1.12319 0
M  V30 351 C 34.9133 -3.65298 2.62273 0
M  V30 352 C 33.6833 -3.83304 3.29251 0
M  V30 353 C 35.8813 -3.6682 3.60482 0
M  V30 354 N 33.8633 -3.96944 4.68304 0
M  V30 355 C 35.2343 -3.86037 4.85155 0
M  V30 356 C 37.2893 -3.49848 3.54275 0
M  V30 357 C 35.9923 -3.9004 6.04369 0
M  V30 358 C 38.0183 -3.55129 4.72903 0
M  V30 359 C 37.3803 -3.74831 5.9639 0
M  V30 360 H 33.4793 -0.712856 0.321497 0
M  V30 361 H 36.0633 -1.43427 1.31669 0
M  V30 362 H 34.2343 -3.84172 0.571524 0
M  V30 363 H 35.9663 -3.97055 0.78292 0
M  V30 364 H 32.7213 -3.82211 2.79663 0
M  V30 365 H 33.1453 -4.07613 5.40538 0
M  V30 366 H 37.7873 -3.33572 2.59788 0
M  V30 367 H 35.5053 -4.05108 6.99223 0
M  V30 368 H 39.0913 -3.43287 4.69729 0
M  V30 369 H 37.9713 -3.78792 6.86649 0
M  V30 370 N 35.4744 -0.807222 -1.35358 0
M  V30 371 C 36.6994 -0.399309 -2.0352 0
M  V30 372 C 37.1244 0.981986 -1.60433 0
M  V30 373 O 36.4824 1.63601 -0.781299 0
M  V30 374 C 36.5304 -0.491552 -3.57234 0
M  V30 375 O 35.6344 0.494754 -4.09421 0
M  V30 376 H 34.9754 -0.166682 -0.642739 0
M  V30 377 H 37.5054 -1.09328 -1.72941 0
M  V30 378 H 37.5154 -0.361588 -4.06395 0
M  V30 379 H 36.1904 -1.49907 -3.87944 0
M  V30 380 H 34.7674 0.324977 -3.71481 0
M  V30 381 N 36.9525 1.47285 -0.560781 0
M  V30 382 C 37.9155 2.28535 0.174488 0
M  V30 383 C 38.9155 1.37153 0.839388 0
M  V30 384 O 40.1055 1.59748 0.694702 0
M  V30 385 C 37.2375 3.16934 1.25561 0
M  V30 386 H 38.4305 2.95012 -0.539262 0
M  V30 387 H 35.9835 1.53034 -0.317865 0
M  V30 388 H 36.7185 2.55157 2.00164 0
M  V30 389 H 36.5035 3.8419 0.783604 0
M  V30 390 H 37.9935 3.78143 1.77193 0
M  V30 391 N 38.4306 0.297415 1.54768 0
M  V30 392 C 39.6796 -0.313669 1.99246 0
M  V30 393 C 39.9926 -1.55281 1.18942 0
M  V30 394 O 41.1986 -2.23825 1.5367 0
M  V30 395 C 39.6546 -0.609407 3.54703 0
M  V30 396 C 39.2626 0.611192 4.43811 0
M  V30 397 C 41.0066 -1.18188 4.07715 0
M  V30 398 C 38.9136 0.288805 5.90694 0
M  V30 399 H 37.8436 -0.120979 0.744231 0
M  V30 400 H 40.4946 0.40556 1.78962 0
M  V30 401 H 38.8766 -1.38813 3.70873 0
M  V30 402 H 40.0506 1.3875 4.39414 0
M  V30 403 H 38.3656 1.10205 4.01552 0
M  V30 404 H 40.9626 -1.43727 5.15021 0
M  V30 405 H 41.3056 -2.12299 3.58099 0
M  V30 406 H 41.8386 -0.464944 3.95074 0
M  V30 407 H 38.5776 1.19838 6.44453 0
M  V30 408 H 38.0976 -0.450305 5.98107 0
M  V30 409 H 39.7766 -0.110933 6.46905 0
M  V30 410 N 39.9087 -1.5758 0.0250728 0
M  V30 411 C 41.1577 -1.90811 -0.653767 0
M  V30 412 C 41.4707 -0.90273 -1.73523 0
M  V30 413 O 42.6767 -1.12614 -2.47043 0
M  V30 414 C 41.1327 -3.38804 -1.21409 0
M  V30 415 C 40.7407 -4.47692 -0.166126 0
M  V30 416 C 42.4847 -3.81108 -1.86967 0
M  V30 417 C 40.3917 -5.86779 -0.737856 0
M  V30 418 H 39.3217 -0.712063 -0.247956 0
M  V30 419 H 41.9727 -1.83281 0.0897137 0
M  V30 420 H 40.3547 -3.41252 -2.00905 0
M  V30 421 H 41.5287 -4.56797 0.606079 0
M  V30 422 H 39.8437 -4.14565 0.390466 0
M  V30 423 H 42.4407 -4.82375 -2.30692 0
M  V30 424 H 42.7837 -3.15953 -2.71071 0
M  V30 425 H 43.3167 -3.81065 -1.14167 0
M  V30 426 H 40.0557 -6.55468 0.0649577 0
M  V30 427 H 39.5757 -5.81288 -1.47864 0
M  V30 428 H 41.2547 -6.35223 -1.22884 0
M  V30 429 N 41.3868 0.248026 -1.55636 0
M  V30 430 C 42.3498 1.29044 -1.89421 0
M  V30 431 C 43.3498 1.41134 -0.770581 0
M  V30 432 O 44.5398 1.39854 -1.03858 0
M  V30 433 C 41.6718 2.66831 -2.12165 0
M  V30 434 H 42.8648 1.00305 -2.82629 0
M  V30 435 H 40.4178 0.487265 -1.48511 0
M  V30 436 H 41.1528 3.00711 -1.21422 0
M  V30 437 H 40.9378 2.59438 -2.93997 0
M  V30 438 H 42.4278 3.42103 -2.3949 0
M  V30 439 N 42.8649 1.48995 0.513639 0
M  V30 440 C 44.2759 1.5119 1.09537 0
M  V30 441 C 44.6269 0.290906 1.94031 0
M  V30 442 O 43.7519 -0.60049 2.07902 0
M  V30 443 C 44.3469 2.73964 1.99322 0
M  V30 444 C 42.9059 2.78978 2.52682 0
M  V30 445 C 42.0529 2.44934 1.30009 0
M  V30 446 H 45.0039 1.55875 0.298125 0
M  V30 447 H 45.0249 2.53409 2.83838 0
M  V30 448 H 44.5369 3.62813 1.37799 0
M  V30 449 H 42.6379 1.94378 3.1788 0
M  V30 450 H 42.7509 3.8083 2.90698 0
M  V30 451 H 41.1149 1.9644 1.62122 0
M  V30 452 H 41.8979 3.36043 0.702131 0
M  V30 453 N 44.343 -0.763751 1.37857 0
M  V30 454 C 45.589 -1.52483 1.33704 0
M  V30 455 C 45.922 -1.94051 -0.0759612 0
M  V30 456 O 45.197 -1.64675 -1.03501 0
M  V30 457 C 45.48 -2.78441 2.28348 0
M  V30 458 C 45.333 -2.43075 3.78463 0
M  V30 459 C 46.652 -3.80415 2.21298 0
M  V30 460 H 43.771 -0.553169 0.487005 0
M  V30 461 H 46.413 -0.875562 1.68624 0
M  V30 462 H 44.563 -3.33842 1.987 0
M  V30 463 H 46.235 -1.93527 4.18742 0
M  V30 464 H 44.478 -1.75666 3.96641 0
M  V30 465 H 45.149 -3.33149 4.40132 0
M  V30 466 H 47.625 -3.34527 2.47449 0
M  V30 467 H 46.501 -4.66257 2.89647 0
M  V30 468 H 46.762 -4.25262 1.20849 0
M  V30 469 N 45.8211 -1.22559 -0.990812 0
M  V30 470 C 46.7541 -0.940773 -2.07905 0
M  V30 471 C 47.7321 0.117082 -1.62178 0
M  V30 472 O 48.9161 -0.0149506 -1.88494 0
M  V30 473 C 46.0431 -0.415321 -3.36144 0
M  V30 474 C 45.0891 -1.45818 -4.00799 0
M  V30 475 S 45.9221 -3.03219 -4.41382 0
M  V30 476 C 47.0781 -2.52317 -5.72789 0
M  V30 477 H 47.3111 -1.8623 -2.31745 0
M  V30 478 H 44.8441 -1.05688 -1.12558 0
M  V30 479 H 46.8021 -0.118747 -4.10328 0
M  V30 480 H 45.4631 0.485121 -3.10331 0
M  V30 481 H 44.6561 -1.04044 -4.93144 0
M  V30 482 H 44.2581 -1.70356 -3.32949 0
M  V30 483 H 46.5501 -1.93688 -6.49224 0
M  V30 484 H 47.4931 -3.43161 -6.19392 0
M  V30 485 H 47.9011 -1.93529 -5.30289 0
M  V30 486 N 47.2992 1.18797 -1.03562 0
M  V30 487 C 48.5482 1.87978 -0.731235 0
M  V30 488 C 48.8612 1.80911 0.743671 0
M  V30 489 O 50.0672 2.45407 1.16137 0
M  V30 490 C 48.5232 3.3721 -1.25768 0
M  V30 491 C 48.1312 3.52818 -2.76085 0
M  V30 492 C 49.8752 4.11825 -1.0296 0
M  V30 493 C 47.7822 4.9598 -3.22114 0
M  V30 494 H 46.7122 0.704063 -0.269835 0
M  V30 495 H 49.3632 1.34266 -1.25079 0
M  V30 496 H 47.7452 3.90359 -0.666011 0
M  V30 497 H 48.9192 3.09965 -3.40966 0
M  V30 498 H 47.2342 2.91602 -2.97249 0
M  V30 499 H 49.8312 5.17411 -1.34869 0
M  V30 500 H 50.1742 4.16287 0.0333546 0
M  V30 501 H 50.7072 3.64833 -1.58562 0
M  V30 502 H 47.4462 4.96684 -4.27768 0
M  V30 503 H 46.9662 5.39569 -2.61965 0
M  V30 504 H 48.6452 5.6467 -3.15844 0
M  V30 505 N 48.7773 0.814389 1.34928 0
M  V30 506 C 49.7073 0.244827 2.32213 0
M  V30 507 C 50.6883 -0.634024 1.57842 0
M  V30 508 O 51.8733 -0.562676 1.8587 0
M  V30 509 C 49.0033 -0.601106 3.42058 0
M  V30 510 C 47.9573 0.179896 4.27622 0
M  V30 511 C 47.2833 -0.788237 5.28858 0
M  V30 512 C 48.5833 1.38329 5.03649 0
M  V30 513 H 50.2773 1.05763 2.80097 0
M  V30 514 H 47.8233 0.510029 1.34665 0
M  V30 515 H 49.7763 -1.00968 4.09125 0
M  V30 516 H 48.5003 -1.44688 2.92802 0
M  V30 517 H 47.1593 0.569739 3.62146 0
M  V30 518 H 46.8073 -1.62973 4.75866 0
M  V30 519 H 46.5073 -0.269942 5.8698 0
M  V30 520 H 48.0313 -1.19485 5.98795 0
M  V30 521 H 49.4453 1.04918 5.63618 0
M  V30 522 H 47.8423 1.83662 5.71304 0
M  V30 523 H 48.9123 2.16592 4.33839 0
M  V30 524 N 50.2554 -1.46986 0.568584 0
M  V30 525 C 51.1854 -2.32946 -0.160753 0
M  V30 526 C 52.1664 -1.44487 -0.897631 0
M  V30 527 O 53.3514 -1.73327 -0.875867 0
M  V30 528 C 50.4814 -3.26494 -1.18403 0
M  V30 529 C 49.4354 -4.24282 -0.562895 0
M  V30 530 C 48.7614 -5.07236 -1.69163 0
M  V30 531 C 50.0614 -5.19989 0.490761 0
M  V30 532 H 51.7554 -2.94175 0.556916 0
M  V30 533 H 49.3014 -1.4146 0.26927 0
M  V30 534 H 51.2544 -3.85477 -1.70251 0
M  V30 535 H 49.9784 -2.63343 -1.93179 0
M  V30 536 H 48.6374 -3.66541 -0.0656164 0
M  V30 537 H 48.2854 -4.4048 -2.42871 0
M  V30 538 H 47.9854 -5.7345 -1.28174 0
M  V30 539 H 49.5094 -5.6908 -2.21314 0
M  V30 540 H 50.9234 -5.73271 0.0579047 0
M  V30 541 H 49.3204 -5.94469 0.820165 0
M  V30 542 H 50.3904 -4.64777 1.3824 0
M  V30 543 N 51.7335 -0.305618 -1.54608 0
M  V30 544 C 52.9795 0.302746 -2.00528 0
M  V30 545 C 53.3125 1.53184 -1.19367 0
M  V30 546 O 52.5875 1.92598 -0.271321 0
M  V30 547 C 52.8705 0.654756 -3.54097 0
M  V30 548 C 52.7235 -0.583793 -4.45995 0
M  V30 549 C 54.0425 1.47947 -4.14487 0
M  V30 550 H 51.1615 0.108564 -0.72896 0
M  V30 551 H 53.8035 -0.418634 -1.85331 0
M  V30 552 H 51.9535 1.26935 -3.67178 0
M  V30 553 H 53.6255 -1.22224 -4.44814 0
M  V30 554 H 51.8685 -1.21615 -4.16404 0
M  V30 555 H 52.5395 -0.293287 -5.5122 0
M  V30 556 H 55.0155 0.96013 -4.04871 0
M  V30 557 H 53.8915 1.69454 -5.22088 0
M  V30 558 H 54.1525 2.47011 -3.66658 0
M  V30 559 N 53.2116 1.57565 -0.0334293 0
M  V30 560 C 54.4596 1.91598 0.642999 0
M  V30 561 C 54.7806 0.910847 1.7242 0
M  V30 562 O 54.0506 -0.0469931 1.95844 0
M  V30 563 H 52.6306 0.707228 0.240496 0
M  V30 564 H 55.2926 1.94726 -0.0822488 0
M  V30 565 H 54.3886 2.92336 1.09298 0
M  V30 566 N 54.6897 -0.239769 1.55765 0
M  V30 567 C 55.9387 -0.964754 1.77131 0
M  V30 568 C 56.2517 -1.86213 0.59868 0
M  V30 569 O 57.4577 -2.6244 0.695522 0
M  V30 570 C 55.9137 -1.76552 3.1362 0
M  V30 571 C 55.5217 -0.915185 4.38553 0
M  V30 572 C 57.2657 -2.48281 3.44321 0
M  V30 573 C 55.1727 -1.71225 5.66071 0
M  V30 574 H 54.1027 -0.363953 0.660344 0
M  V30 575 H 56.7537 -0.219181 1.82186 0
M  V30 576 H 55.1357 -2.55331 3.02691 0
M  V30 577 H 56.3097 -0.169217 4.60489 0
M  V30 578 H 54.6247 -0.310889 4.15238 0
M  V30 579 H 57.2217 -3.08382 4.36812 0
M  V30 580 H 57.5647 -3.20256 2.65973 0
M  V30 581 H 58.0977 -1.76507 3.56497 0
M  V30 582 H 54.8367 -1.03612 6.4726 0
M  V30 583 H 54.3567 -2.43331 5.48224 0
M  V30 584 H 56.0357 -2.27758 6.05587 0
M  V30 585 N 56.1678 -1.49265 -0.50573 0
M  V30 586 C 57.0978 -1.68495 -1.61653 0
M  V30 587 C 58.0788 -0.53366 -1.61512 0
M  V30 588 O 59.2638 -0.76897 -1.78327 0
M  V30 589 C 56.3938 -1.74709 -3.00157 0
M  V30 590 C 55.3478 -2.89581 -3.15162 0
M  V30 591 C 54.6738 -2.80903 -4.5497 0
M  V30 592 C 55.9738 -4.30578 -2.95634 0
M  V30 593 H 57.6678 -2.61493 -1.45814 0
M  V30 594 H 55.2138 -1.25838 -0.70005 0
M  V30 595 H 57.1668 -1.86748 -3.77761 0
M  V30 596 H 55.8908 -0.783067 -3.17074 0
M  V30 597 H 54.5498 -2.77136 -2.39982 0
M  V30 598 H 54.1978 -1.82419 -4.68756 0
M  V30 599 H 53.8978 -3.57999 -4.65951 0
M  V30 600 H 55.4218 -2.94944 -5.34641 0
M  V30 601 H 56.8358 -4.4373 -3.63011 0
M  V30 602 H 55.2328 -5.0886 -3.18091 0
M  V30 603 H 56.3028 -4.45352 -1.91806 0
M  V30 604 N 57.6459 0.756429 -1.3826 0
M  V30 605 C 58.5759 1.88374 -1.37976 0
M  V30 606 C 59.5569 1.68311 -0.246082 0
M  V30 607 O 60.7419 1.88944 -0.44874 0
M  V30 608 C 57.8719 3.25864 -1.20125 0
M  V30 609 C 56.8259 3.60523 -2.30666 0
M  V30 610 C 56.1519 4.9672 -1.97923 0
M  V30 611 C 57.4519 3.65692 -3.72916 0
M  V30 612 H 59.1459 1.88869 -2.32312 0
M  V30 613 H 56.6919 0.907272 -1.11824 0
M  V30 614 H 58.6449 4.0438 -1.18552 0
M  V30 615 H 57.3689 3.25841 -0.222498 0
M  V30 616 H 56.0279 2.84324 -2.3142 0
M  V30 617 H 55.6759 4.93253 -0.985393 0
M  V30 618 H 55.3759 5.20878 -2.71955 0
M  V30 619 H 56.8999 5.77618 -1.97964 0
M  V30 620 H 58.3139 4.34328 -3.74208 0
M  V30 621 H 56.7109 4.01358 -4.4613 0
M  V30 622 H 57.7809 2.65987 -4.05436 0
M  V30 623 N 59.124 1.23083 0.984299 0
M  V30 624 C 60.535 1.05609 1.5396 0
M  V30 625 C 60.886 -0.377793 1.92528 0
M  V30 626 O 60.011 -1.26398 1.75649 0
M  V30 627 C 60.606 1.91087 2.7977 0
M  V30 628 C 59.165 1.77885 3.31713 0
M  V30 629 C 58.312 1.87028 2.04733 0
M  V30 630 H 61.263 1.36802 0.804419 0
M  V30 631 H 61.284 1.43336 3.5247 0
M  V30 632 H 60.796 2.9544 2.51668 0
M  V30 633 H 58.897 0.762995 3.64704 0
M  V30 634 H 59.01 2.61047 4.01735 0
M  V30 635 H 57.374 1.30565 2.18689 0
M  V30 636 H 58.157 2.92929 1.79017 0
M  V30 637 N 60.6021 -1.18246 1.0419 0
M  V30 638 C 61.5321 -2.24127 0.654914 0
M  V30 639 C 62.5131 -1.66617 -0.342451 0
M  V30 640 O 63.6981 -1.92924 -0.222277 0
M  V30 641 C 60.8281 -3.47295 0.0183757 0
M  V30 642 C 59.7821 -4.17563 0.939414 0
M  V30 643 C 59.1081 -5.34438 0.167286 0
M  V30 644 C 60.4081 -4.70917 2.25908 0
M  V30 645 H 62.1021 -2.56753 1.54007 0
M  V30 646 H 59.6481 -1.23414 0.74195 0
M  V30 647 H 61.6011 -4.20572 -0.264082 0
M  V30 648 H 60.3251 -3.13907 -0.901664 0
M  V30 649 H 58.9841 -3.46186 1.20628 0
M  V30 650 H 58.6321 -4.97298 -0.7552 0
M  V30 651 H 58.3321 -5.82388 0.780901 0
M  V30 652 H 59.8561 -6.10504 -0.108125 0
M  V30 653 H 61.2701 -5.35882 2.03724 0
M  V30 654 H 59.6671 -5.29406 2.82577 0
M  V30 655 H 60.7371 -3.88272 2.9047 0
M  V30 656 N 62.0802 -0.821533 -1.34494 0
M  V30 657 C 63.3282 -0.408139 -1.97936 0
M  V30 658 C 63.6492 1.03193 -1.65457 0
M  V30 659 O 62.9192 1.71622 -0.944595 0
M  V30 660 H 61.4992 -0.147928 -0.732206 0
M  V30 661 H 64.1612 -1.05067 -1.64155 0
M  V30 662 H 63.2572 -0.52601 -3.07635 0
M  V30 663 N 63.5583 1.46682 -0.576371 0
M  V30 664 C 64.4883 2.33028 0.148397 0
M  V30 665 C 65.4693 1.44961 0.889956 0
M  V30 666 O 66.6543 1.73789 0.866662 0
M  V30 667 C 63.7843 3.27117 1.1667 0
M  V30 668 C 62.7383 4.24575 0.540386 0
M  V30 669 C 62.0643 5.08126 1.6647 0
M  V30 670 C 63.3643 5.19722 -0.518331 0
M  V30 671 H 65.0583 2.93875 -0.572509 0
M  V30 672 H 62.6043 1.41315 -0.276768 0
M  V30 673 H 64.5573 3.86374 1.68204 0
M  V30 674 H 63.2813 2.64364 1.9178 0
M  V30 675 H 61.9403 3.66571 0.0461769 0
M  V30 676 H 61.5883 4.41762 2.40531 0
M  V30 677 H 61.2883 5.74122 1.25131 0
M  V30 678 H 62.8123 5.70246 2.18293 0
M  V30 679 H 64.2263 5.73232 -0.0883058 0
M  V30 680 H 62.6233 5.94026 -0.851679 0
M  V30 681 H 63.6933 4.64037 -1.40703 0
M  V30 682 N 65.0364 0.313813 1.54444 0
M  V30 683 C 66.2834 -0.291675 2.00388 0
M  V30 684 C 66.6114 -1.52904 1.2021 0
M  V30 685 O 65.8664 -1.93833 0.269707 0
M  V30 686 C 66.1654 -0.680386 3.50864 0
M  V30 687 C 65.8314 0.456699 4.48581 0
M  V30 688 C 64.4934 0.768824 4.75018 0
M  V30 689 C 66.8454 1.22098 5.06697 0
M  V30 690 C 64.1734 1.84812 5.56831 0
M  V30 691 C 66.5254 2.29029 5.89685 0
M  V30 692 C 65.1894 2.60834 6.14428 0
M  V30 693 H 64.4594 -0.106732 0.733273 0
M  V30 694 H 67.1064 0.43557 1.86481 0
M  V30 695 H 65.4114 -1.48791 3.62448 0
M  V30 696 H 67.1084 -1.16026 3.83847 0
M  V30 697 H 63.6984 0.203337 4.28117 0
M  V30 698 H 67.8824 0.993096 4.86263 0
M  V30 699 H 63.1384 2.09912 5.74236 0
M  V30 700 H 67.3124 2.887 6.33739 0
M  V30 701 H 64.9394 3.44596 6.77612 0
M  V30 702 N 66.5145 -1.57545 0.0417849 0
M  V30 703 C 67.9255 -1.80011 -0.495259 0
M  V30 704 C 68.2765 -0.953199 -1.71489 0
M  V30 705 O 67.4015 -0.167138 -2.15754 0
M  V30 706 C 67.9965 -3.26482 -0.905265 0
M  V30 707 C 66.5555 -3.499 -1.38734 0
M  V30 708 C 65.7025 -2.74979 -0.358056 0
M  V30 709 H 68.6535 -1.56425 0.267736 0
M  V30 710 H 68.6745 -3.36887 -1.76882 0
M  V30 711 H 68.1865 -3.88096 -0.017401 0
M  V30 712 H 66.2875 -2.93553 -2.29471 0
M  V30 713 H 66.4005 -4.58615 -1.38598 0
M  V30 714 H 64.7645 -2.40834 -0.828912 0
M  V30 715 H 65.5475 -3.39315 0.521561 0
M  V30 716 N 67.9926 0.231505 -1.5589 0
M  V30 717 C 69.2406 0.955461 -1.78088 0
M  V30 718 C 69.5616 1.85262 -0.608533 0
M  V30 719 O 68.8316 1.92277 0.375035 0
M  V30 720 H 67.4116 0.355787 -0.656829 0
M  V30 721 H 70.0736 0.245751 -1.93344 0
M  V30 722 H 69.1696 1.56814 -2.69844 0
M  V30 723 N 69.4707 1.49531 0.497807 0
M  V30 724 C 70.7477 1.49682 1.25915 0
M  V30 725 C 71.1277 0.226339 2.09883 0
M  V30 726 O 70.4757 -0.791189 2.14365 0
M  V30 727 C 70.6857 2.77755 2.11313 0
M  V30 728 C 72.0337 3.27371 2.70395 0
M  V30 729 O 73.0577 2.78894 2.21578 0
M  V30 730 O 71.9167 4.11808 3.59272 0
M  V30 731 H 69.0107 0.599228 0.56996 0
M  V30 732 H 71.5567 1.61798 0.511816 0
M  V30 733 H 70.3287 3.61713 1.49264 0
M  V30 734 H 69.9517 2.68515 2.93233 0
M  V30 735 N 70.9488 -0.749086 1.3866 0
M  V30 736 C 71.9118 -1.84457 1.36045 0
M  V30 737 C 72.9118 -1.58682 0.260122 0
M  V30 738 O 74.1018 -1.66343 0.517261 0
M  V30 739 C 71.2338 -3.22008 1.11911 0
M  V30 740 H 72.4268 -1.88182 2.33512 0
M  V30 741 H 69.9798 -0.951266 1.24019 0
M  V30 742 H 70.7148 -3.2395 0.150686 0
M  V30 743 H 70.4998 -3.42111 1.91579 0
M  V30 744 H 71.9898 -4.0208 1.12788 0
M  V30 745 N 72.4269 -1.23603 -0.977757 0
M  V30 746 C 73.3569 -1.04401 -2.0886 0
M  V30 747 C 74.3379 0.0399052 -1.70053 0
M  V30 748 O 75.5229 -0.125246 -1.93796 0
M  V30 749 C 72.6529 -0.637269 -3.41403 0
M  V30 750 C 71.6069 -1.66883 -3.94124 0
M  V30 751 C 70.9329 -1.11745 -5.22893 0
M  V30 752 C 72.2329 -3.06247 -4.23096 0
M  V30 753 H 73.9269 -1.97316 -2.25182 0
M  V30 754 H 71.4729 -0.950096 -1.08209 0
M  V30 755 H 73.4259 -0.48998 -4.18542 0
M  V30 756 H 72.1499 0.327557 -3.24953 0
M  V30 757 H 70.8089 -1.80416 -3.19133 0
M  V30 758 H 70.4569 -0.143527 -5.02795 0
M  V30 759 H 70.1569 -1.80672 -5.59134 0
M  V30 760 H 71.6809 -0.982067 -6.02651 0
M  V30 761 H 73.0949 -2.96001 -4.90975 0
M  V30 762 H 71.4919 -3.72436 -4.70544 0
M  V30 763 H 72.5619 -3.55041 -3.30263 0
M  V30 764 N 73.905 1.17692 -1.04816 0
M  V30 765 C 75.13 1.92327 -0.776207 0
M  V30 766 C 75.555 1.76082 0.661581 0
M  V30 767 O 74.913 1.076 1.45917 0
M  V30 768 C 74.961 3.41539 -1.15687 0
M  V30 769 O 74.065 4.11402 -0.286775 0
M  V30 770 H 73.406 0.599735 -0.284981 0
M  V30 771 H 75.936 1.49201 -1.4 0
M  V30 772 H 75.946 3.92269 -1.12202 0
M  V30 773 H 74.621 3.52684 -2.20425 0
M  V30 774 H 73.198 3.70939 -0.381903 0
M  V30 775 N 75.3831 0.828654 1.34056 0
M  V30 776 C 76.6131 0.431993 2.02033 0
M  V30 777 C 77.0211 -0.96844 1.62536 0
M  V30 778 O 76.3641 -1.6391 0.829408 0
M  V30 779 C 76.4261 0.461224 3.56529 0
M  V30 780 C 76.0901 1.81599 4.1937 0
M  V30 781 C 77.0871 2.7777 4.39477 0
M  V30 782 C 74.7721 2.10604 4.56017 0
M  V30 783 C 76.7661 4.01115 4.95364 0
M  V30 784 C 74.4531 3.34207 5.11614 0
M  V30 785 C 75.4511 4.2928 5.31232 0
M  V30 786 O 75.1391 5.50699 5.8565 0
M  V30 787 H 74.8711 0.170943 0.654029 0
M  V30 788 H 77.4251 1.11988 1.72185 0
M  V30 789 H 75.6551 -0.283388 3.8566 0
M  V30 790 H 77.3441 0.0838149 4.05813 0
M  V30 791 H 78.1101 2.56659 4.11523 0
M  V30 792 H 73.9891 1.37402 4.40047 0
M  V30 793 H 77.5331 4.75333 5.10592 0
M  V30 794 H 73.4301 3.55179 5.38997 0
M  V30 795 H 74.1981 5.52298 6.04077 0
M  V30 796 N 76.8612 -1.46375 0.584142 0
M  V30 797 C 77.7712 -2.34115 -0.150728 0
M  V30 798 C 78.7872 -1.49838 -0.884567 0
M  V30 799 O 79.9632 -1.82704 -0.847429 0
M  V30 800 C 77.0282 -3.2705 -1.15062 0
M  V30 801 C 76.0892 -4.27228 -0.421293 0
M  V30 802 C 75.3222 -5.15722 -1.37355 0
M  V30 803 O 75.5452 -5.07176 -2.61014 0
M  V30 804 O 74.4792 -5.95383 -0.883355 0
M  V30 805 H 78.3052 -2.98309 0.569708 0
M  V30 806 H 75.8902 -1.45373 0.344535 0
M  V30 807 H 77.7722 -3.84381 -1.72712 0
M  V30 808 H 76.4472 -2.65451 -1.8525 0
M  V30 809 H 75.3542 -3.7358 0.197085 0
M  V30 810 H 76.6872 -4.91616 0.239641 0
M  V30 811 N 78.3393 -0.321999 -1.54275 0
M  V30 812 C 79.7553 0.0306999 -1.5957 0
M  V30 813 C 79.9553 1.50614 -1.33857 0
M  V30 814 O 79.0113 2.2619 -1.12223 0
M  V30 815 C 80.3243 -0.386122 -2.98211 0
M  V30 816 C 81.8723 -0.336647 -3.11184 0
M  V30 817 C 82.3473 -0.728607 -4.52167 0
M  V30 818 N 83.8383 -0.681952 -4.58152 0
M  V30 819 C 84.5733 -0.957449 -5.6535 0
M  V30 820 N 84.0693 -1.3 -6.80494 0
M  V30 821 N 85.8623 -0.883113 -5.55119 0
M  V30 822 H 78.0133 -1.28332 -1.69247 0
M  V30 823 H 80.2763 -0.521716 -0.791528 0
M  V30 824 H 79.9823 -1.41404 -3.22022 0
M  V30 825 H 79.8563 0.249662 -3.76373 0
M  V30 826 H 82.2433 0.682058 -2.8711 0
M  V30 827 H 82.3243 -1.00734 -2.3513 0
M  V30 828 H 81.9683 -1.74522 -4.76974 0
M  V30 829 H 81.8983 -0.0356152 -5.26588 0
M  V30 830 H 84.3893 -0.428985 -3.75457 0
M  V30 831 H 84.7023 -1.49563 -7.58189 0
M  V30 832 H 83.0473 -1.33824 -6.81994 0
M  V30 833 H 86.2383 -0.615001 -4.64042 0
M  V30 834 H 86.4113 -1.10118 -6.38575 0
M  V30 835 N 79.8174 1.5752 -0.0501392 0
M  V30 836 C 81.0634 1.92936 0.624798 0
M  V30 837 C 81.3964 0.928685 1.70555 0
M  V30 838 O 80.6714 -0.0454779 1.94447 0
M  V30 839 C 80.9544 3.38737 1.22185 0
M  V30 840 C 80.8074 4.49552 0.149218 0
M  V30 841 C 82.1264 3.84913 2.13378 0
M  V30 842 H 79.2454 0.701604 0.225657 0
M  V30 843 H 81.8874 1.89671 -0.111693 0
M  V30 844 H 80.0374 3.4165 1.84953 0
M  V30 845 H 81.7094 4.58768 -0.482648 0
M  V30 846 H 79.9524 4.30638 -0.522841 0
M  V30 847 H 80.6234 5.48653 0.606966 0
M  V30 848 H 83.0994 3.8387 1.60572 0
M  V30 849 H 81.9754 4.87584 2.52097 0
M  V30 850 H 82.2364 3.21611 3.03346 0
M  V30 851 N 81.2955 -0.223234 1.56011 0
M  V30 852 C 82.2255 -1.27988 1.95298 0
M  V30 853 C 83.2065 -1.48976 0.820979 0
M  V30 854 O 84.3915 -1.61188 1.08315 0
M  V30 855 C 81.5215 -2.63 2.26822 0
M  V30 856 C 80.4755 -2.56671 3.42497 0
M  V30 857 C 79.8015 -3.95697 3.59622 0
M  V30 858 C 81.1015 -2.11601 4.77517 0
M  V30 859 H 82.7955 -0.953525 2.8381 0
M  V30 860 H 80.3415 -0.457244 1.36548 0
M  V30 861 H 82.2945 -3.37077 2.52898 0
M  V30 862 H 81.0185 -2.9732 1.35161 0
M  V30 863 H 79.6775 -1.85051 3.16467 0
M  V30 864 H 79.3255 -4.27322 2.6534 0
M  V30 865 H 79.0255 -3.92345 4.37424 0
M  V30 866 H 80.5495 -4.71438 3.88044 0
M  V30 867 H 81.9635 -2.7542 5.02809 0
M  V30 868 H 80.3605 -2.19311 5.5859 0
M  V30 869 H 81.4305 -1.06824 4.72987 0
M  V30 870 N 82.7736 -1.49793 -0.48987 0
M  V30 871 C 83.7366 -1.66752 -1.57246 0
M  V30 872 C 84.7366 -0.538867 -1.51502 0
M  V30 873 O 85.9266 -0.805545 -1.54456 0
M  V30 874 C 83.0586 -1.67528 -2.96896 0
M  V30 875 H 84.2516 -2.63321 -1.43534 0
M  V30 876 H 81.8046 -1.38992 -0.714914 0
M  V30 877 H 82.5396 -0.725837 -3.16073 0
M  V30 878 H 82.3246 -2.49504 -3.02473 0
M  V30 879 H 83.8146 -1.82667 -3.7553 0
M  V30 880 N 84.2517 0.741722 -1.39055 0
M  V30 881 C 85.4987 1.50114 -1.35912 0
M  V30 882 C 85.8267 1.94443 0.0470937 0
M  V30 883 O 85.0817 1.66612 1.02659 0
M  V30 884 C 85.3807 2.7592 -2.27163 0
M  V30 885 C 85.0467 2.50493 -3.74919 0
M  V30 886 C 83.7087 2.43267 -4.1518 0
M  V30 887 C 86.0607 2.28585 -4.684 0
M  V30 888 C 83.3887 2.12166 -5.46994 0
M  V30 889 C 85.7407 1.99002 -6.00484 0
M  V30 890 C 84.4047 1.90241 -6.39816 0
M  V30 891 H 83.6747 0.549306 -0.497336 0
M  V30 892 H 86.3217 0.851896 -1.71508 0
M  V30 893 H 84.6267 3.45553 -1.84663 0
M  V30 894 H 86.3237 3.33923 -2.22028 0
M  V30 895 H 82.9137 2.56992 -3.43006 0
M  V30 896 H 87.0977 2.33139 -4.38132 0
M  V30 897 H 82.3537 2.03901 -5.76398 0
M  V30 898 H 86.5277 1.81057 -6.72452 0
M  V30 899 H 84.1547 1.65907 -7.41875 0
M  V30 900 N 85.7298 1.2412 0.971189 0
M  V30 901 C 86.6928 1.03156 2.04674 0
M  V30 902 C 87.6928 -0.00990322 1.60797 0
M  V30 903 O 88.8828 0.230729 1.72665 0
M  V30 904 C 86.0148 0.562765 3.36223 0
M  V30 905 H 87.2078 1.98614 2.24705 0
M  V30 906 H 84.7608 1.06293 1.14593 0
M  V30 907 H 85.4958 -0.395176 3.21883 0
M  V30 908 H 85.2808 1.31441 3.69413 0
M  V30 909 H 86.7708 0.437015 4.15307 0
M  V30 910 N 87.2079 -1.17134 1.05439 0
M  V30 911 C 88.1399 -2.2078 0.615539 0
M  V30 912 C 89.1529 -1.59584 -0.322001 0
M  V30 913 O 90.3419 -1.78133 -0.114344 0
M  V30 914 C 87.4419 -3.38691 -0.118938 0
M  V30 915 C 86.6149 -4.29454 0.829924 0
M  V30 916 C 85.6739 -5.26024 0.136258 0
M  V30 917 O 84.6999 -5.63952 0.77115 0
M  V30 918 N 85.9019 -5.69487 -1.1254 0
M  V30 919 H 88.6669 -2.59052 1.50705 0
M  V30 920 H 86.2279 -1.32058 0.936603 0
M  V30 921 H 88.2199 -4.00329 -0.593179 0
M  V30 922 H 86.7899 -2.98996 -0.91215 0
M  V30 923 H 86.0099 -3.65211 1.48373 0
M  V30 924 H 87.2979 -4.86984 1.47392 0
M  V30 925 H 86.6959 -5.4075 -1.6615 0
M  V30 926 H 85.2529 -6.33257 -1.54366 0
M  V30 927 N 88.686 -0.835752 -1.33615 0
M  V30 928 C 89.911 -0.442389 -2.02627 0
M  V30 929 C 90.336 0.947735 -1.62479 0
M  V30 930 O 89.694 1.61907 -0.815826 0
M  V30 931 C 89.742 -0.567216 -3.56111 0
M  V30 932 O 88.846 0.407799 -4.10379 0
M  V30 933 H 88.187 -0.180278 -0.639059 0
M  V30 934 H 90.717 -1.12972 -1.70583 0
M  V30 935 H 90.727 -0.447708 -4.05536 0
M  V30 936 H 89.402 -1.58103 -3.84677 0
M  V30 937 H 87.979 0.246107 -3.72087 0
M  V30 938 N 90.1641 1.46063 -0.591896 0
M  V30 939 C 91.4111 2.02338 -0.0809991 0
M  V30 940 C 91.7391 1.46228 1.28249 0
M  V30 941 O 90.9941 0.620818 1.85592 0
M  V30 942 C 91.2931 3.57391 0.0249813 0
M  V30 943 C 90.9591 4.32583 -1.27211 0
M  V30 944 C 89.6211 4.52844 -1.62745 0
M  V30 945 C 91.9731 4.75687 -2.13005 0
M  V30 946 C 89.3011 5.13462 -2.83855 0
M  V30 947 C 91.6531 5.37644 -3.3335 0
M  V30 948 C 90.3171 5.5613 -3.69155 0
M  V30 949 H 89.5871 0.740407 -0.0296397 0
M  V30 950 H 92.2341 1.75321 -0.770374 0
M  V30 951 H 90.5391 3.83597 0.797537 0
M  V30 952 H 92.2361 3.98621 0.436184 0
M  V30 953 H 88.8261 4.17116 -0.985499 0
M  V30 954 H 93.0101 4.59782 -1.86855 0
M  V30 955 H 88.2661 5.25965 -3.11722 0
M  V30 956 H 92.4401 5.7 -4.00092 0
M  V30 957 H 90.0671 6.0287 -4.63089 0
M  V30 958 N 91.6422 0.330177 1.54103 0
M  V30 959 C 92.8912 -0.271336 1.99867 0
M  V30 960 C 93.2042 -1.52723 1.22209 0
M  V30 961 O 94.4102 -2.20515 1.58383 0
M  V30 962 C 92.8662 -0.534032 3.55916 0
M  V30 963 C 92.4742 0.705193 4.42415 0
M  V30 964 C 94.2182 -1.09514 4.1013 0
M  V30 965 C 92.1252 0.414035 5.89949 0
M  V30 966 H 91.0552 -0.105166 0.74663 0
M  V30 967 H 93.7062 0.443429 1.78062 0
M  V30 968 H 92.0882 -1.30915 3.73734 0
M  V30 969 H 93.2622 1.4804 4.36372 0
M  V30 970 H 91.5772 1.18698 3.99124 0
M  V30 971 H 94.1742 -1.3277 5.17954 0
M  V30 972 H 94.5172 -2.04656 3.62521 0
M  V30 973 H 95.0502 -0.381038 3.95971 0
M  V30 974 H 91.7892 1.33481 6.41766 0
M  V30 975 H 91.3092 -0.323336 5.98928 0
M  V30 976 H 92.9882 0.0263105 6.46995 0
M  V30 977 N 93.1203 -1.57491 0.0584922 0
M  V30 978 C 94.3683 -1.92597 -0.612436 0
M  V30 979 C 94.6893 -0.938162 -1.70949 0
M  V30 980 O 93.9593 0.0158301 -1.95894 0
M  V30 981 H 92.5393 -0.710964 -0.229214 0
M  V30 982 H 95.2013 -1.94571 0.113218 0
M  V30 983 H 94.2973 -2.94038 -1.04633 0
M  V30 984 N 94.5984 0.214957 -1.56127 0
M  V30 985 C 96.0144 0.564948 -1.49267 0
M  V30 986 C 96.2144 1.86827 -0.754838 0
M  V30 987 O 95.2704 2.50745 -0.297198 0
M  V30 988 C 96.5834 0.638071 -2.93852 0
M  V30 989 C 98.1314 0.728253 -3.0441 0
M  V30 990 C 98.6064 0.832663 -4.50367 0
M  V30 991 N 100.097 0.896712 -4.54437 0
M  V30 992 C 100.832 0.997324 -5.6466 0
M  V30 993 N 100.328 1.06147 -6.8462 0
M  V30 994 N 102.121 1.03297 -5.52527 0
M  V30 995 H 94.2724 -0.640211 -2.02522 0
M  V30 996 H 96.5354 -0.225507 -0.920788 0
M  V30 997 H 96.2414 -0.250126 -3.50809 0
M  V30 998 H 96.1154 1.49947 -3.46115 0
M  V30 999 H 98.5024 1.60689 -2.47514 0
M  V30 1000 H 98.5834 -0.158952 -2.55306 0
M  V30 1001 H 98.2274 -0.0415417 -5.07883 0
M  V30 1002 H 98.1574 1.73538 -4.97184 0
M  V30 1003 H 100.648 0.857188 -3.6805 0
M  V30 1004 H 100.961 1.1382 -7.64372 0
M  V30 1005 H 99.3064 1.03049 -6.87318 0
M  V30 1006 H 102.497 0.979558 -4.57736 0
M  V30 1007 H 102.67 1.10793 -6.38458 0
M  V30 1008 N 96.0765 1.50051 0.48192 0
M  V30 1009 C 97.3225 1.60736 1.2366 0
M  V30 1010 C 97.6555 0.301786 1.91841 0
M  V30 1011 O 96.9305 -0.696025 1.8162 0
M  V30 1012 C 97.2135 2.78009 2.28874 0
M  V30 1013 C 97.0665 4.18416 1.65069 0
M  V30 1014 C 98.3855 2.90867 3.30279 0
M  V30 1015 H 95.5045 0.585031 0.448228 0
M  V30 1016 H 98.1465 1.82402 0.531946 0
M  V30 1017 H 96.2965 2.59667 2.88973 0
M  V30 1018 H 97.9685 4.48322 1.0865 0
M  V30 1019 H 96.2115 4.23177 0.954148 0
M  V30 1020 H 96.8825 4.96381 2.41474 0
M  V30 1021 H 99.3585 3.07623 2.80191 0
M  V30 1022 H 98.2345 3.74566 4.01238 0
M  V30 1023 H 98.4955 2.01021 3.93755 0
M  V30 1024 N 97.5546 -0.734337 1.39446 0
M  V30 1025 C 98.8016 -1.49391 1.36706 0
M  V30 1026 C 99.1296 -1.94465 -0.0367813 0
M  V30 1027 O 98.3846 -1.67154 -1.01774 0
M  V30 1028 C 98.6836 -2.74711 2.28623 0
M  V30 1029 C 98.3496 -2.48501 3.76242 0
M  V30 1030 C 97.0116 -2.41062 4.16464 0
M  V30 1031 C 99.3636 -2.26098 4.69606 0
M  V30 1032 C 96.6916 -2.09262 5.48112 0
M  V30 1033 C 99.0436 -1.95814 6.01531 0
M  V30 1034 C 97.7076 -1.86845 6.40816 0
M  V30 1035 H 96.9776 -0.546661 0.500243 0
M  V30 1036 H 99.6246 -0.842788 1.71957 0
M  V30 1037 H 97.9296 -3.44569 1.86492 0
M  V30 1038 H 99.6266 -3.32741 2.23796 0
M  V30 1039 H 96.2166 -2.55169 3.44364 0
M  V30 1040 H 100.401 -2.30812 4.39363 0
M  V30 1041 H 95.6566 -2.00841 5.77471 0
M  V30 1042 H 99.8306 -1.77488 6.73403 0
M  V30 1043 H 97.4576 -1.6197 7.42745 0
M  V30 1044 N 99.0327 -1.24633 -0.964593 0
M  V30 1045 C 99.9627 -1.06611 -2.07741 0
M  V30 1046 C 100.944 0.0218666 -1.70086 0
M  V30 1047 O 102.129 -0.145793 -1.93652 0
M  V30 1048 C 99.2587 -0.673444 -3.40708 0
M  V30 1049 C 98.2127 -1.71054 -3.92332 0
M  V30 1050 C 97.5387 -1.17285 -5.21678 0
M  V30 1051 C 98.8387 -3.10718 -4.19824 0
M  V30 1052 H 100.533 -1.99693 -2.23076 0
M  V30 1053 H 98.0787 -0.96152 -1.07195 0
M  V30 1054 H 100.032 -0.534345 -4.17998 0
M  V30 1055 H 98.7557 0.293073 -3.25282 0
M  V30 1056 H 97.4147 -1.83791 -3.17201 0
M  V30 1057 H 97.0627 -0.196847 -5.02615 0
M  V30 1058 H 96.7627 -1.86592 -5.57187 0
M  V30 1059 H 98.2867 -1.04593 -6.01575 0
M  V30 1060 H 99.7007 -3.01192 -4.87808 0
M  V30 1061 H 98.0977 -3.77406 -4.66567 0
M  V30 1062 H 99.1677 -3.58524 -3.26479 0
M  V30 1063 N 100.511 1.16574 -1.06058 0
M  V30 1064 C 101.758 1.87047 -0.775873 0
M  V30 1065 C 102.086 1.81562 0.697534 0
M  V30 1066 O 101.341 1.22445 1.52662 0
M  V30 1067 C 101.64 3.36195 -1.21275 0
M  V30 1068 C 101.306 3.6188 -2.68986 0
M  V30 1069 C 99.9678 3.68599 -3.09335 0
M  V30 1070 C 102.32 3.72648 -3.64394 0
M  V30 1071 C 99.6478 3.83584 -4.43937 0
M  V30 1072 C 102 3.89154 -4.98741 0
M  V30 1073 C 100.664 3.94114 -5.3873 0
M  V30 1074 H 99.9338 0.684452 -0.283912 0
M  V30 1075 H 102.581 1.37853 -1.32925 0
M  V30 1076 H 100.886 3.87505 -0.578528 0
M  V30 1077 H 102.583 3.89103 -0.969542 0
M  V30 1078 H 99.1728 3.57281 -2.36744 0
M  V30 1079 H 103.357 3.66769 -3.34356 0
M  V30 1080 H 98.6128 3.85677 -4.74409 0
M  V30 1081 H 102.787 3.96427 -5.72554 0
M  V30 1082 H 100.414 4.05478 -6.43033 0
M  V30 1083 N 101.989 0.842826 1.3317 0
M  V30 1084 C 102.919 0.294028 2.31641 0
M  V30 1085 C 103.9 -0.600401 1.59151 0
M  V30 1086 O 105.085 -0.523124 1.87022 0
M  V30 1087 C 102.215 -0.528416 3.43257 0
M  V30 1088 C 101.169 0.27056 4.27144 0
M  V30 1089 C 100.495 -0.675881 5.30411 0
M  V30 1090 C 101.795 1.48981 5.00602 0
M  V30 1091 H 103.489 1.11681 2.77791 0
M  V30 1092 H 101.035 0.538478 1.33553 0
M  V30 1093 H 102.988 -0.922674 4.11175 0
M  V30 1094 H 101.712 -1.38445 2.95805 0
M  V30 1095 H 100.371 0.646427 3.60856 0
M  V30 1096 H 100.019 -1.52842 4.79216 0
M  V30 1097 H 99.7189 -0.145374 5.8742 0
M  V30 1098 H 101.243 -1.06757 6.01195 0
M  V30 1099 H 102.657 1.16849 5.61266 0
M  V30 1100 H 101.054 1.95739 5.6728 0
M  V30 1101 H 102.124 2.25746 4.29147 0
M  V30 1102 N 103.467 -1.45747 0.599634 0
M  V30 1103 C 104.4 -2.27547 -0.172552 0
M  V30 1104 C 105.378 -1.36657 -0.881116 0
M  V30 1105 O 106.562 -1.66081 -0.891595 0
M  V30 1106 C 103.689 -3.14829 -1.24903 0
M  V30 1107 C 102.735 -4.21603 -0.644465 0
M  V30 1108 S 103.568 -5.32754 0.541606 0
M  V30 1109 C 104.724 -6.23604 -0.535656 0
M  V30 1110 H 104.957 -2.92691 0.521468 0
M  V30 1111 H 102.49 -1.49473 0.386947 0
M  V30 1112 H 104.448 -3.65675 -1.86527 0
M  V30 1113 H 103.109 -2.48965 -1.91508 0
M  V30 1114 H 102.302 -4.82566 -1.45417 0
M  V30 1115 H 101.904 -3.73857 -0.103534 0
M  V30 1116 H 104.196 -6.62519 -1.41686 0
M  V30 1117 H 105.139 -7.0809 0.0376246 0
M  V30 1118 H 105.547 -5.58103 -0.84741 0
M  V30 1119 N 104.945 -0.338344 -1.53925 0
M  V30 1120 C 106.194 0.260732 -2.00008 0
M  V30 1121 C 106.507 1.52073 -1.23017 0
M  V30 1122 O 107.713 2.19672 -1.5955 0
M  V30 1123 C 106.169 0.51515 -3.56194 0
M  V30 1124 C 105.777 -0.728645 -4.42035 0
M  V30 1125 C 107.521 1.07337 -4.10706 0
M  V30 1126 C 105.428 -0.445315 -5.89721 0
M  V30 1127 H 104.358 0.101205 -0.747177 0
M  V30 1128 H 107.009 -0.452866 -1.77824 0
M  V30 1129 H 105.391 1.28932 -3.74423 0
M  V30 1130 H 106.565 -1.50352 -4.35581 0
M  V30 1131 H 104.88 -1.20813 -3.98489 0
M  V30 1132 H 107.477 1.30022 -5.18651 0
M  V30 1133 H 107.82 2.0273 -3.63602 0
M  V30 1134 H 108.353 0.360034 -3.96167 0
M  V30 1135 H 105.092 -1.36883 -6.41049 0
M  V30 1136 H 104.612 0.291569 -5.99091 0
M  V30 1137 H 106.291 -0.0606218 -6.46972 0
M  V30 1138 N 106.423 1.57458 -0.0668435 0
M  V30 1139 C 107.669 1.93587 0.6043 0
M  V30 1140 C 108.002 0.946722 1.69561 0
M  V30 1141 O 107.277 -0.0248516 1.94484 0
M  V30 1142 C 107.56 3.40014 1.18585 0
M  V30 1143 C 107.413 4.49685 0.101529 0
M  V30 1144 C 108.732 3.87154 2.09284 0
M  V30 1145 H 105.851 0.703958 0.218202 0
M  V30 1146 H 108.493 1.89542 -0.131804 0
M  V30 1147 H 106.643 3.43592 1.81319 0
M  V30 1148 H 108.315 4.5823 -0.531279 0
M  V30 1149 H 106.558 4.30059 -0.568487 0
M  V30 1150 H 107.229 5.49266 0.54874 0
M  V30 1151 H 109.705 3.85551 1.56491 0
M  V30 1152 H 108.581 4.90231 2.46911 0
M  V30 1153 H 108.842 3.2481 2.99918 0
M  V30 1154 N 107.901 -0.206675 1.56239 0
M  V30 1155 C 108.831 -1.25909 1.96645 0
M  V30 1156 C 109.812 -1.48097 0.836734 0
M  V30 1157 O 110.997 -1.6003 1.10019 0
M  V30 1158 C 108.127 -2.6058 2.29599 0
M  V30 1159 C 107.081 -2.53024 3.452 0
M  V30 1160 C 106.407 -3.91861 3.63798 0
M  V30 1161 C 107.707 -2.06524 4.79734 0
M  V30 1162 H 109.401 -0.923369 2.84806 0
M  V30 1163 H 106.947 -0.442735 1.37025 0
M  V30 1164 H 108.9 -3.34375 2.56459 0
M  V30 1165 H 107.624 -2.95869 1.38307 0
M  V30 1166 H 106.283 -1.81684 3.18412 0
M  V30 1167 H 105.931 -4.24483 2.69857 0
M  V30 1168 H 105.631 -3.87683 4.4156 0
M  V30 1169 H 107.155 -4.67296 3.93022 0
M  V30 1170 H 108.569 -2.70072 5.05702 0
M  V30 1171 H 106.966 -2.13374 5.60885 0
M  V30 1172 H 108.036 -1.01802 4.74093 0
M  V30 1173 N 109.379 -1.50304 -0.473955 0
M  V30 1174 C 110.79 -1.54042 -1.0549 0
M  V30 1175 C 111.141 -0.342248 -1.93192 0
M  V30 1176 O 110.266 0.545157 -2.09421 0
M  V30 1177 C 110.861 -2.79152 -1.91989 0
M  V30 1178 C 109.42 -2.8558 -2.45196 0
M  V30 1179 C 108.567 -2.48295 -1.2347 0
M  V30 1180 H 111.518 -1.5661 -0.256693 0
M  V30 1181 H 111.539 -2.60845 -2.7702 0
M  V30 1182 H 111.051 -3.66339 -1.28131 0
M  V30 1183 H 109.152 -2.02738 -3.12615 0
M  V30 1184 H 109.265 -3.88403 -2.80499 0
M  V30 1185 H 107.629 -2.00669 -1.56856 0
M  V30 1186 H 108.412 -3.37787 -0.612789 0
M  V30 1187 N 110.857 0.726932 -1.39834 0
M  V30 1188 C 111.787 1.85405 -1.41941 0
M  V30 1189 C 112.768 1.67751 -0.281728 0
M  V30 1190 O 113.953 1.8795 -0.488717 0
M  V30 1191 C 111.083 3.23243 -1.2701 0
M  V30 1192 C 110.037 3.55549 -2.38262 0
M  V30 1193 C 109.363 4.9241 -2.08415 0
M  V30 1194 C 110.663 3.577 -3.80589 0
M  V30 1195 H 112.357 1.83899 -2.36266 0
M  V30 1196 H 109.903 0.883349 -1.13723 0
M  V30 1197 H 111.856 4.01775 -1.27103 0
M  V30 1198 H 110.58 3.25296 -0.291564 0
M  V30 1199 H 109.239 2.79351 -2.37399 0
M  V30 1200 H 108.887 4.91052 -1.0898 0
M  V30 1201 H 108.587 5.14992 -2.82943 0
M  V30 1202 H 110.111 5.73289 -2.10171 0
M  V30 1203 H 111.525 4.26293 -3.83337 0
M  V30 1204 H 109.922 3.91804 -4.54543 0
M  V30 1205 H 110.992 2.57328 -4.10987 0
M  V30 1206 N 112.336 1.25143 0.95797 0
M  V30 1207 C 113.582 1.10863 1.70531 0
M  V30 1208 C 113.937 -0.347391 1.89238 0
M  V30 1209 O 113.23 -1.25262 1.44983 0
M  V30 1210 C 113.424 1.79272 3.09187 0
M  V30 1211 C 113.253 3.31376 3.04006 0
M  V30 1212 C 112.023 4.0062 3.07948 0
M  V30 1213 C 114.221 4.27825 2.8543 0
M  V30 1214 N 112.203 5.39526 2.9289 0
M  V30 1215 C 113.574 5.53794 2.78769 0
M  V30 1216 C 115.629 4.1828 2.70085 0
M  V30 1217 C 114.332 6.7131 2.58331 0
M  V30 1218 C 116.358 5.35485 2.51017 0
M  V30 1219 C 115.72 6.60393 2.45073 0
M  V30 1220 H 111.819 0.460362 0.632132 0
M  V30 1221 H 114.403 1.58196 1.13499 0
M  V30 1222 H 112.574 1.34439 3.64391 0
M  V30 1223 H 114.306 1.57764 3.72683 0
M  V30 1224 H 111.061 3.51855 3.17009 0
M  V30 1225 H 111.485 6.12416 2.88574 0
M  V30 1226 H 116.127 3.22461 2.73457 0
M  V30 1227 H 113.845 7.67243 2.53701 0
M  V30 1228 H 117.431 5.29959 2.40073 0
M  V30 1229 H 116.311 7.49557 2.30509 0
M  V30 1230 N 113.814 -1.1601 1.06675 0
M  V30 1231 C 115.054 -1.88304 0.795037 0
M  V30 1232 C 115.418 -1.80062 -0.666466 0
M  V30 1233 O 116.619 -2.47319 -1.05293 0
M  V30 1234 C 114.89 -3.33664 1.28076 0
M  V30 1235 S 116.449 -4.23768 1.13868 0
M  V30 1236 H 113.267 -0.649928 0.288296 0
M  V30 1237 H 115.869 -1.4001 1.36445 0
M  V30 1238 H 114.573 -3.37203 2.33927 0
M  V30 1239 H 114.104 -3.87009 0.706253 0
M  V30 1240 H 116.119 -4.96148 0.0719668 0
M  V30 1241 N 115.292 -0.849877 -1.32721 0
M  V30 1242 C 116.54 -0.450032 -1.97026 0
M  V30 1243 C 116.861 0.996604 -1.67609 0
M  V30 1244 O 116.131 1.6958 -0.980786 0
M  V30 1245 H 114.711 -0.163426 -0.728904 0
M  V30 1246 H 117.373 -1.08526 -1.6189 0
M  V30 1247 H 116.469 -0.591146 -3.0645 0
M  V30 1248 N 116.77 1.45427 -0.607355 0
M  V30 1249 C 117.7 2.3329 0.0989352 0
M  V30 1250 C 118.681 1.46816 0.859007 0
M  V30 1251 O 119.866 1.75588 0.829604 0
M  V30 1252 C 116.996 3.29518 1.09705 0
M  V30 1253 C 115.95 4.25626 0.450206 0
M  V30 1254 C 115.276 5.11542 1.55655 0
M  V30 1255 C 116.576 5.18505 -0.628455 0
M  V30 1256 H 118.27 2.92595 -0.634716 0
M  V30 1257 H 115.816 1.40696 -0.306681 0
M  V30 1258 H 117.769 3.89855 1.59971 0
M  V30 1259 H 116.493 2.68372 1.86129 0
M  V30 1260 H 115.152 3.66586 -0.0315886 0
M  V30 1261 H 114.8 4.46765 2.31107 0
M  V30 1262 H 114.5 5.76647 1.12925 0
M  V30 1263 H 116.024 5.74748 2.06148 0
M  V30 1264 H 117.438 5.72916 -0.209877 0
M  V30 1265 H 115.835 5.92085 -0.977489 0
M  V30 1266 H 116.905 4.60948 -1.50514 0
M  V30 1267 N 118.248 0.346503 1.53744 0
M  V30 1268 C 119.198 -0.524953 2.21874 0
M  V30 1269 C 120.182 -1.06376 1.20718 0
M  V30 1270 O 121.374 -0.996972 1.46251 0
M  V30 1271 C 118.503 -1.6739 2.99726 0
M  V30 1272 C 117.589 -1.14888 4.08242 0
M  V30 1273 N 117.98 -0.345329 5.0462 0
M  V30 1274 C 116.278 -1.4255 4.22606 0
M  V30 1275 C 116.979 -0.0600706 5.81669 0
M  V30 1276 N 115.955 -0.65252 5.39669 0
M  V30 1277 H 119.757 0.0960091 2.93743 0
M  V30 1278 H 117.271 0.15352 1.61673 0
M  V30 1279 H 119.268 -2.3102 3.47038 0
M  V30 1280 H 117.928 -2.29811 2.29384 0
M  V30 1281 H 118.939 0.0138439 5.17898 0
M  V30 1282 H 115.616 -2.05389 3.63486 0
M  V30 1283 H 117.006 0.588321 6.69319 0
M  V30 1284 N 119.726 -1.57421 0.075193 0
M  V30 1285 C 121.142 -1.57099 -0.281444 0
M  V30 1286 C 121.342 -1.08486 -1.69803 0
M  V30 1287 O 120.398 -0.752279 -2.41033 0
M  V30 1288 C 121.711 -3.00571 -0.0880041 0
M  V30 1289 C 123.259 -3.12605 -0.157281 0
M  V30 1290 C 123.734 -4.57999 0.0079207 0
M  V30 1291 N 125.225 -4.63176 -0.0475725 0
M  V30 1292 C 125.96 -5.73373 0.0557876 0
M  V30 1293 N 125.456 -6.92473 0.21286 0
M  V30 1294 N 127.249 -5.621 -0.00152098 0
M  V30 1295 H 119.4 -1.87335 1.00098 0
M  V30 1296 H 121.663 -0.86377 0.390646 0
M  V30 1297 H 121.369 -3.40262 0.889629 0
M  V30 1298 H 121.243 -3.67754 -0.838875 0
M  V30 1299 H 123.63 -2.72798 -1.1254 0
M  V30 1300 H 123.711 -2.48053 0.62475 0
M  V30 1301 H 123.355 -4.98496 0.972824 0
M  V30 1302 H 123.285 -5.20586 -0.793556 0
M  V30 1303 H 125.776 -3.7753 -0.167244 0
M  V30 1304 H 126.089 -7.72279 0.283781 0
M  V30 1305 H 124.434 -6.94556 0.248267 0
M  V30 1306 H 127.625 -4.67938 -0.122958 0
M  V30 1307 H 127.798 -6.47948 0.0824844 0
M  V30 1308 N 121.204 0.198386 -1.56346 0
M  V30 1309 C 122.137 1.27381 -1.89339 0
M  V30 1310 C 123.115 1.44106 -0.753134 0
M  V30 1311 O 124.299 1.59549 -1.00381 0
M  V30 1312 C 121.426 2.6409 -2.12071 0
M  V30 1313 C 120.472 2.64253 -3.34772 0
M  V30 1314 S 121.305 2.16013 -4.89999 0
M  V30 1315 C 122.461 3.54553 -5.15794 0
M  V30 1316 H 122.694 0.992058 -2.8026 0
M  V30 1317 H 120.227 0.401726 -1.49082 0
M  V30 1318 H 122.185 3.42786 -2.2585 0
M  V30 1319 H 120.846 2.89478 -1.21906 0
M  V30 1320 H 120.039 3.64768 -3.47794 0
M  V30 1321 H 119.641 1.93637 -3.1997 0
M  V30 1322 H 121.933 4.50396 -5.06112 0
M  V30 1323 H 122.876 3.46428 -6.1757 0
M  V30 1324 H 123.284 3.49313 -4.43442 0
M  V30 1325 N 122.682 1.50554 0.465978 0
M  V30 1326 C 123.632 1.66177 1.56106 0
M  V30 1327 C 124.616 0.516265 1.52393 0
M  V30 1328 O 125.808 0.770906 1.5933 0
M  V30 1329 C 122.937 1.76396 2.94515 0
M  V30 1330 C 122.023 2.9664 3.03093 0
M  V30 1331 N 122.414 4.20245 2.81474 0
M  V30 1332 C 120.712 2.95304 3.34233 0
M  V30 1333 C 121.413 5.01259 2.95151 0
M  V30 1334 N 120.389 4.35318 3.25576 0
M  V30 1335 H 124.191 2.59434 1.38099 0
M  V30 1336 H 121.705 1.47808 0.6728 0
M  V30 1337 H 123.702 1.85694 3.73261 0
M  V30 1338 H 122.362 0.843017 3.13565 0
M  V30 1339 H 123.373 4.4966 2.56956 0
M  V30 1340 H 120.05 2.12729 3.59239 0
M  V30 1341 H 121.44 6.09564 2.82632 0
M  V30 1342 N 124.16 -0.719506 1.40217 0
M  V30 1343 C 125.11 -1.8251 1.36653 0
M  V30 1344 C 126.094 -1.59028 0.244732 0
M  V30 1345 O 127.286 -1.70268 0.483524 0
M  V30 1346 C 124.415 -3.20599 1.22763 0
M  V30 1347 C 123.501 -3.49858 2.39708 0
M  V30 1348 N 123.892 -3.49957 3.6519 0
M  V30 1349 C 122.19 -3.80297 2.33002 0
M  V30 1350 C 122.891 -3.77449 4.42614 0
M  V30 1351 N 121.867 -3.96002 3.72402 0
M  V30 1352 H 125.669 -1.80914 2.31619 0
M  V30 1353 H 123.183 -0.918455 1.33933 0
M  V30 1354 H 125.18 -3.99766 1.18292 0
M  V30 1355 H 123.84 -3.23424 0.287614 0
M  V30 1356 H 124.851 -3.309 3.98404 0
M  V30 1357 H 121.528 -3.90635 1.47346 0
M  V30 1358 H 122.918 -3.83863 5.51451 0
M  V30 1359 N 125.638 -1.25649 -0.95132 0
M  V30 1360 C 126.601 -1.06399 -2.03007 0
M  V30 1361 C 127.601 -0.0156794 -1.60792 0
M  V30 1362 O 128.791 -0.25817 -1.72276 0
M  V30 1363 C 125.923 -0.616184 -3.35285 0
M  V30 1364 H 127.116 -2.02164 -2.21517 0
M  V30 1365 H 124.669 -1.08103 -1.12887 0
M  V30 1366 H 125.404 0.343917 -3.22471 0
M  V30 1367 H 125.189 -1.37301 -3.67275 0
M  V30 1368 H 126.679 -0.503032 -4.14559 0
M  V30 1369 N 127.117 1.15442 -1.07289 0
M  V30 1370 C 128.05 2.19135 -0.636798 0
M  V30 1371 C 129.028 1.58884 0.34562 0
M  V30 1372 O 130.212 1.86805 0.252195 0
M  V30 1373 C 127.339 3.38638 0.0650014 0
M  V30 1374 C 126.385 4.17412 -0.87576 0
M  V30 1375 S 127.218 4.79882 -2.37642 0
M  V30 1376 C 128.374 6.02753 -1.6864 0
M  V30 1377 H 128.607 2.55787 -1.51526 0
M  V30 1378 H 126.14 1.26394 -0.886793 0
M  V30 1379 H 128.098 4.07873 0.463664 0
M  V30 1380 H 126.759 3.00331 0.919801 0
M  V30 1381 H 125.952 5.02909 -0.33143 0
M  V30 1382 H 125.554 3.53722 -1.21478 0
M  V30 1383 H 127.846 6.70113 -0.997753 0
M  V30 1384 H 128.789 6.61754 -2.51967 0
M  V30 1385 H 129.197 5.52355 -1.16465 0
M  V30 1386 N 128.595 0.856903 1.32268 0
M  V30 1387 C 129.545 0.274899 2.26337 0
M  V30 1388 C 130.529 -0.580543 1.50062 0
M  V30 1389 O 131.721 -0.429559 1.71708 0
M  V30 1390 C 128.85 -0.533841 3.39124 0
M  V30 1391 C 127.936 0.334114 4.22782 0
M  V30 1392 N 128.327 1.42143 4.85416 0
M  V30 1393 C 126.625 0.124256 4.45827 0
M  V30 1394 C 127.326 1.95559 5.47843 0
M  V30 1395 N 126.302 1.25444 5.28928 0
M  V30 1396 H 130.104 1.10612 2.72291 0
M  V30 1397 H 127.618 0.703258 1.46383 0
M  V30 1398 H 129.615 -0.96722 4.05525 0
M  V30 1399 H 128.275 -1.36283 2.94715 0
M  V30 1400 H 129.286 1.80436 4.85451 0
M  V30 1401 H 125.963 -0.669837 4.12092 0
M  V30 1402 H 127.353 2.86714 6.07655 0
M  V30 1403 N 130.073 -1.45103 0.615059 0
M  V30 1404 C 131.35 -1.95549 0.0448276 0
M  V30 1405 C 131.73 -1.55737 -1.4251 0
M  V30 1406 O 131.078 -0.823556 -2.13143 0
M  V30 1407 C 131.288 -3.48098 0.250785 0
M  V30 1408 C 132.636 -4.24384 0.135509 0
M  V30 1409 O 133.66 -3.55738 0.181299 0
M  V30 1410 O 132.519 -5.46493 0.0268878 0
M  V30 1411 H 129.613 -0.8264 -0.0314845 0
M  V30 1412 H 132.159 -1.55232 0.685642 0
M  V30 1413 H 130.931 -3.7007 1.27139 0
M  V30 1414 H 130.554 -3.95323 -0.424937 0
M  V30 1415 N 131.551 -0.354651 -1.53558 0
M  V30 1416 C 132.481 0.489091 -2.2832 0
M  V30 1417 C 133.462 1.09324 -1.30316 0
M  V30 1418 O 134.647 1.11255 -1.59173 0
M  V30 1419 C 131.777 1.63456 -3.0643 0
M  V30 1420 C 130.731 1.1582 -4.12031 0
M  V30 1421 C 130.057 2.39305 -4.7816 0
M  V30 1422 C 131.357 0.250731 -5.21698 0
M  V30 1423 H 133.051 -0.134614 -2.99097 0
M  V30 1424 H 130.597 -0.0661826 -1.43848 0
M  V30 1425 H 132.55 2.23136 -3.57475 0
M  V30 1426 H 131.274 2.28533 -2.33325 0
M  V30 1427 H 129.933 0.584146 -3.61916 0
M  V30 1428 H 129.581 3.02814 -4.01637 0
M  V30 1429 H 129.281 2.08109 -5.49513 0
M  V30 1430 H 130.805 2.99691 -5.31994 0
M  V30 1431 H 132.219 0.754695 -5.68311 0
M  V30 1432 H 130.616 0.0301468 -6.00092 0
M  V30 1433 H 131.686 -0.710125 -4.79672 0
M  V30 1434 N 133.029 1.57378 -0.0835403 0
M  V30 1435 C 133.976 2.13384 0.879539 0
M  V30 1436 C 134.946 1.04936 1.28754 0
M  V30 1437 O 136.131 1.32662 1.37133 0
M  V30 1438 C 133.271 2.70932 2.13752 0
M  V30 1439 C 132.384 3.93575 1.7811 0
M  V30 1440 C 131.519 4.39326 2.98607 0
M  V30 1441 C 130.558 5.54587 2.59037 0
M  V30 1442 N 129.695 5.95243 3.72331 0
M  V30 1443 H 134.535 2.9537 0.395076 0
M  V30 1444 H 132.072 1.45953 0.183349 0
M  V30 1445 H 134.03 3.02411 2.87408 0
M  V30 1446 H 132.66 1.91693 2.59718 0
M  V30 1447 H 131.712 3.68483 0.94469 0
M  V30 1448 H 133.024 4.77258 1.45005 0
M  V30 1449 H 132.178 4.72528 3.80529 0
M  V30 1450 H 130.917 3.5452 3.34913 0
M  V30 1451 H 129.922 5.21024 1.75539 0
M  V30 1452 H 131.147 6.41133 2.23887 0
M  V30 1453 H 129.093 5.13385 4.08378 0
M  V30 1454 H 129.01 6.73694 3.43034 0
M  V30 1455 H 130.278 6.33072 4.54797 0
M  V30 1456 N 134.507 -0.190092 1.56449 0
M  V30 1457 C 135.756 -0.907912 1.80111 0
M  V30 1458 C 136.069 -1.84214 0.657619 0
M  V30 1459 O 137.275 -2.60094 0.778663 0
M  V30 1460 C 135.731 -1.66485 3.19078 0
M  V30 1461 C 135.339 -0.7752 4.41242 0
M  V30 1462 C 137.083 -2.37201 3.52045 0
M  V30 1463 C 134.99 -1.53129 5.71231 0
M  V30 1464 H 133.92 -0.34276 0.671589 0
M  V30 1465 H 136.571 -0.161109 1.82791 0
M  V30 1466 H 134.953 -2.45572 3.10661 0
M  V30 1467 H 136.127 -0.0226298 4.60794 0
M  V30 1468 H 134.442 -0.178627 4.16017 0
M  V30 1469 H 137.039 -2.94329 4.46402 0
M  V30 1470 H 137.382 -3.11632 2.76028 0
M  V30 1471 H 137.915 -1.65075 3.61932 0
M  V30 1472 H 134.654 -0.82967 6.50228 0
M  V30 1473 H 134.174 -2.25767 5.55688 0
M  V30 1474 H 135.853 -2.08377 6.12526 0
M  V30 1475 N 135.985 -1.50799 -0.457987 0
M  V30 1476 C 136.935 -1.67003 -1.55222 0
M  V30 1477 C 137.919 -0.52434 -1.52117 0
M  V30 1478 O 139.111 -0.779345 -1.58919 0
M  V30 1479 C 136.24 -1.77956 -2.93576 0
M  V30 1480 C 135.326 -2.98243 -3.01516 0
M  V30 1481 N 135.717 -4.21732 -2.79241 0
M  V30 1482 C 134.015 -2.97072 -3.32662 0
M  V30 1483 C 134.716 -5.02817 -2.92489 0
M  V30 1484 N 133.692 -4.37038 -3.23262 0
M  V30 1485 H 137.494 -2.60163 -1.36721 0
M  V30 1486 H 135.008 -1.48163 -0.664952 0
M  V30 1487 H 137.005 -1.87671 -3.72271 0
M  V30 1488 H 135.665 -0.859634 -3.13114 0
M  V30 1489 H 136.676 -4.51016 -2.54567 0
M  V30 1490 H 133.353 -2.14631 -3.58106 0
M  V30 1491 H 134.743 -6.11054 -2.79396 0
M  V30 1492 N 137.463 0.71206 -1.40597 0
M  V30 1493 C 138.709 1.47416 -1.39271 0
M  V30 1494 C 139.042 1.942 0.00388791 0
M  V30 1495 O 138.317 1.68403 0.973179 0
M  V30 1496 C 138.6 2.69774 -2.38525 0
M  V30 1497 C 138.453 2.28861 -3.87224 0
M  V30 1498 C 139.772 3.71939 -2.35264 0
M  V30 1499 H 136.891 0.534713 -0.5072 0
M  V30 1500 H 139.533 0.812375 -1.71757 0
M  V30 1501 H 137.683 3.26238 -2.10953 0
M  V30 1502 H 139.355 1.77852 -4.25636 0
M  V30 1503 H 137.598 1.60824 -4.02887 0
M  V30 1504 H 138.269 3.16584 -4.52193 0
M  V30 1505 H 140.745 3.25113 -2.59694 0
M  V30 1506 H 139.621 4.55186 -3.06753 0
M  V30 1507 H 139.882 4.20484 -1.36549 0
M  V30 1508 N 138.941 1.26152 0.944643 0
M  V30 1509 C 140.352 1.10454 1.50522 0
M  V30 1510 C 140.703 -0.31635 1.93633 0
M  V30 1511 O 139.828 -1.20746 1.79581 0
M  V30 1512 C 140.423 1.99891 2.73549 0
M  V30 1513 C 138.982 1.88348 3.25886 0
M  V30 1514 C 138.129 1.93447 1.9868 0
M  V30 1515 H 141.08 1.39292 0.760489 0
M  V30 1516 H 141.101 1.54477 3.47732 0
M  V30 1517 H 140.613 3.03297 2.42141 0
M  V30 1518 H 138.714 0.878636 3.62092 0
M  V30 1519 H 138.827 2.73696 3.93227 0
M  V30 1520 H 137.191 1.37456 2.14425 0
M  V30 1521 H 137.974 2.98476 1.69607 0
M  V30 1522 N 140.419 -1.14872 1.07899 0
M  V30 1523 C 141.382 -2.17986 0.708161 0
M  V30 1524 C 142.382 -1.58775 -0.25442 0
M  V30 1525 O 143.572 -1.74166 -0.034645 0
M  V30 1526 C 140.704 -3.40871 0.0446929 0
M  V30 1527 H 141.897 -2.52306 1.62116 0
M  V30 1528 H 139.45 -1.2943 0.876218 0
M  V30 1529 H 140.185 -3.12124 -0.880281 0
M  V30 1530 H 139.97 -3.8511 0.737091 0
M  V30 1531 H 141.46 -4.17121 -0.19991 0
M  V30 1532 N 141.898 -0.863906 -1.31812 0
M  V30 1533 C 143.146 -0.470904 -1.96537 0
M  V30 1534 C 143.467 0.978771 -1.68657 0
M  V30 1535 O 142.737 1.6853 -0.998717 0
M  V30 1536 H 141.317 -0.171148 -0.72713 0
M  V30 1537 H 143.979 -1.10236 -1.60729 0
M  V30 1538 H 143.075 -0.623616 -3.05806 0
M  V30 1539 N 143.376 1.44774 -0.622745 0
M  V30 1540 C 144.323 2.30635 0.0871679 0
M  V30 1541 C 145.293 1.42994 0.845097 0
M  V30 1542 O 146.478 1.71907 0.827812 0
M  V30 1543 C 143.618 3.28144 1.06844 0
M  V30 1544 C 142.731 4.30888 0.309809 0
M  V30 1545 C 141.866 5.15494 1.28215 0
M  V30 1546 C 140.905 6.09953 0.512198 0
M  V30 1547 N 140.042 6.87287 1.43458 0
M  V30 1548 H 144.882 2.90803 -0.650974 0
M  V30 1549 H 142.419 1.43286 -0.33281 0
M  V30 1550 H 144.377 3.83157 1.65066 0
M  V30 1551 H 143.007 2.69695 1.77382 0
M  V30 1552 H 142.059 3.78414 -0.388181 0
M  V30 1553 H 143.371 4.97955 -0.290254 0
M  V30 1554 H 142.525 5.74983 1.93596 0
M  V30 1555 H 141.264 4.48481 1.91614 0
M  V30 1556 H 140.269 5.49581 -0.155151 0
M  V30 1557 H 141.494 6.78999 -0.116958 0
M  V30 1558 H 139.44 6.2295 2.05594 0
M  V30 1559 H 139.357 7.50763 0.888335 0
M  V30 1560 H 140.625 7.51306 2.07749 0
M  V30 1561 N 144.854 0.36279 1.53368 0
M  V30 1562 C 146.1 -0.220702 2.02199 0
M  V30 1563 C 146.455 -1.46649 1.24546 0
M  V30 1564 O 145.748 -1.88737 0.32996 0
M  V30 1565 C 145.942 -0.568417 3.52851 0
M  V30 1566 C 145.771 0.642126 4.45092 0
M  V30 1567 C 144.541 1.15335 4.91961 0
M  V30 1568 C 146.739 1.50649 4.91741 0
M  V30 1569 N 144.721 2.3242 5.68202 0
M  V30 1570 C 146.092 2.52404 5.66297 0
M  V30 1571 C 148.147 1.52969 4.73819 0
M  V30 1572 C 146.85 3.56331 6.24836 0
M  V30 1573 C 148.876 2.55789 5.33222 0
M  V30 1574 C 148.238 3.56268 6.07662 0
M  V30 1575 H 144.337 -0.0435508 0.780786 0
M  V30 1576 H 146.921 0.506704 1.87991 0
M  V30 1577 H 145.092 -1.2649 3.67226 0
M  V30 1578 H 146.824 -1.13676 3.88407 0
M  V30 1579 H 143.579 0.718412 4.68119 0
M  V30 1580 H 144.003 2.91591 6.10986 0
M  V30 1581 H 148.645 0.766418 4.15795 0
M  V30 1582 H 146.363 4.33543 6.81958 0
M  V30 1583 H 149.949 2.58435 5.21251 0
M  V30 1584 H 148.829 4.34524 6.52808 0
M  V30 1585 N 146.332 -1.57332 0.0918853 0
M  V30 1586 C 147.578 -1.94524 -0.573425 0
M  V30 1587 C 147.911 -0.973578 -1.68033 0
M  V30 1588 O 147.186 -0.00609226 -1.94499 0
M  V30 1589 C 147.469 -3.41858 -1.13161 0
M  V30 1590 C 147.322 -4.4979 -0.0299747 0
M  V30 1591 C 148.641 -3.90435 -2.03098 0
M  V30 1592 H 145.76 -0.70734 -0.206975 0
M  V30 1593 H 148.402 -1.89309 0.161942 0
M  V30 1594 H 146.552 -3.46433 -1.7583 0
M  V30 1595 H 148.224 -4.57327 0.604112 0
M  V30 1596 H 146.467 -4.291 0.636833 0
M  V30 1597 H 147.138 -5.50069 -0.461287 0
M  V30 1598 H 149.614 -3.87992 -1.50338 0
M  V30 1599 H 148.49 -4.94097 -2.39081 0
M  V30 1600 H 148.751 -3.29541 -2.94712 0
M  V30 1601 N 147.81 0.181792 -1.56548 0
M  V30 1602 C 149.057 0.900097 -1.81396 0
M  V30 1603 C 149.385 1.82695 -0.667281 0
M  V30 1604 O 148.64 1.92614 0.346146 0
M  V30 1605 C 148.939 1.73728 -3.12335 0
M  V30 1606 C 148.605 0.960255 -4.40556 0
M  V30 1607 C 147.267 0.745766 -4.75386 0
M  V30 1608 C 149.619 0.414477 -5.19549 0
M  V30 1609 C 146.947 -0.0257694 -5.86694 0
M  V30 1610 C 149.299 -0.343916 -6.31664 0
M  V30 1611 C 147.963 -0.569301 -6.65068 0
M  V30 1612 H 147.233 0.329369 -0.663775 0
M  V30 1613 H 149.88 0.165647 -1.90782 0
M  V30 1614 H 148.185 2.54081 -2.98245 0
M  V30 1615 H 149.882 2.29591 -3.28769 0
M  V30 1616 H 146.472 1.13746 -4.13231 0
M  V30 1617 H 150.656 0.567554 -4.93044 0
M  V30 1618 H 145.912 -0.210233 -6.11038 0
M  V30 1619 H 150.086 -0.774133 -6.92084 0
M  V30 1620 H 147.713 -1.16903 -7.51158 0
M  V30 1621 N 149.288 1.51039 0.449983 0
M  V30 1622 C 150.518 1.66627 1.22143 0
M  V30 1623 C 150.926 0.357776 1.85786 0
M  V30 1624 O 150.269 -0.672424 1.70951 0
M  V30 1625 C 150.331 2.71562 2.35573 0
M  V30 1626 C 149.995 4.14526 1.92399 0
M  V30 1627 C 150.992 4.99717 1.43453 0
M  V30 1628 C 148.677 4.60559 2.00475 0
M  V30 1629 C 150.671 6.28998 1.03155 0
M  V30 1630 C 148.358 5.8984 1.59788 0
M  V30 1631 C 149.356 6.73886 1.11208 0
M  V30 1632 O 149.044 8.0075 0.710935 0
M  V30 1633 H 148.776 0.562635 0.374724 0
M  V30 1634 H 151.33 1.98146 0.541036 0
M  V30 1635 H 149.56 2.3533 3.06849 0
M  V30 1636 H 151.249 2.76156 2.97478 0
M  V30 1637 H 152.015 4.65361 1.36618 0
M  V30 1638 H 147.894 3.95273 2.37235 0
M  V30 1639 H 151.438 6.9455 0.651663 0
M  V30 1640 H 147.335 6.23713 1.66289 0
M  V30 1641 H 148.103 8.142 0.837913 0
M  V30 1642 N 150.766 -0.704594 1.40972 0
M  V30 1643 C 152.014 -1.46169 1.39568 0
M  V30 1644 C 152.335 -1.95 0.00253745 0
M  V30 1645 O 151.605 -1.71095 -0.954114 0
M  V30 1646 H 150.185 -0.542326 0.513704 0
M  V30 1647 H 152.847 -0.834553 1.76128 0
M  V30 1648 H 151.943 -2.32922 2.07735 0
M  V30 1649 N 152.244 -1.26651 -0.937939 0
M  V30 1650 C 153.174 -1.10993 -2.05433 0
M  V30 1651 C 154.155 -0.0142161 -1.70094 0
M  V30 1652 O 155.34 -0.186837 -1.93299 0
M  V30 1653 C 152.47 -0.745561 -3.39203 0
M  V30 1654 C 151.424 -1.79337 -3.88616 0
M  V30 1655 C 150.75 -1.28324 -5.19073 0
M  V30 1656 C 152.05 -3.19553 -4.13138 0
M  V30 1657 H 153.744 -2.0438 -2.1879 0
M  V30 1658 H 151.29 -0.984041 -1.05131 0
M  V30 1659 H 153.243 -0.622888 -4.16771 0
M  V30 1660 H 151.967 0.22401 -3.25831 0
M  V30 1661 H 150.626 -1.90477 -3.13231 0
M  V30 1662 H 150.274 -0.303414 -5.02084 0
M  V30 1663 H 149.974 -1.98369 -5.53103 0
M  V30 1664 H 151.498 -1.1733 -5.99221 0
M  V30 1665 H 152.912 -3.11471 -4.81309 0
M  V30 1666 H 151.309 -3.87218 -4.58457 0
M  V30 1667 H 152.379 -3.65368 -3.18801 0
M  V30 1668 N 153.722 1.14298 -1.08507 0
M  V30 1669 C 154.685 2.17607 -0.719711 0
M  V30 1670 C 155.685 1.58907 0.245997 0
M  V30 1671 O 156.875 1.74181 0.0254081 0
M  V30 1672 C 154.007 3.40842 -0.0627695 0
M  V30 1673 H 155.2 2.51443 -1.63452 0
M  V30 1674 H 152.753 1.28963 -0.88307 0
M  V30 1675 H 153.488 3.12587 0.863716 0
M  V30 1676 H 153.273 3.84713 -0.757504 0
M  V30 1677 H 154.763 4.17221 0.177786 0
M  V30 1678 N 155.201 0.870884 1.31352 0
M  V30 1679 C 156.164 0.332243 2.26779 0
M  V30 1680 C 157.164 -0.517302 1.52252 0
M  V30 1681 O 158.354 -0.326477 1.71113 0
M  V30 1682 C 155.486 -0.528066 3.36785 0
M  V30 1683 H 156.679 1.17469 2.75937 0
M  V30 1684 H 154.232 0.64655 1.423 0
M  V30 1685 H 154.967 -1.39167 2.92922 0
M  V30 1686 H 154.752 0.0802582 3.92018 0
M  V30 1687 H 156.242 -0.897179 4.07849 0
M  V30 1688 N 156.679 -1.44442 0.630414 0
M  V30 1689 C 157.928 -2.01267 0.132073 0
M  V30 1690 C 158.241 -1.50172 -1.25331 0
M  V30 1691 O 159.447 -1.9912 -1.84562 0
M  V30 1692 C 157.903 -3.59422 0.185362 0
M  V30 1693 C 157.511 -4.19514 1.57201 0
M  V30 1694 C 159.255 -4.23724 -0.256553 0
M  V30 1695 C 157.162 -5.69891 1.58045 0
M  V30 1696 H 156.092 -0.752619 0.0456092 0
M  V30 1697 H 158.743 -1.65666 0.789106 0
M  V30 1698 H 157.125 -3.92318 -0.538759 0
M  V30 1699 H 158.299 -3.98156 2.31966 0
M  V30 1700 H 156.614 -3.67496 1.95795 0
M  V30 1701 H 159.211 -5.34019 -0.269767 0
M  V30 1702 H 159.554 -3.96013 -1.28372 0
M  V30 1703 H 160.087 -3.95629 0.41505 0
M  V30 1704 H 156.826 -6.02336 2.58597 0
M  V30 1705 H 156.346 -5.93373 0.875725 0
M  V30 1706 H 158.025 -6.33515 1.31408 0
M  V30 1707 N 158.157 -0.370918 -1.53173 0
M  V30 1708 C 159.087 0.464847 -2.28826 0
M  V30 1709 C 160.068 1.07936 -1.31468 0
M  V30 1710 O 161.253 1.0956 -1.60344 0
M  V30 1711 C 158.383 1.60196 -3.08147 0
M  V30 1712 C 157.337 1.11443 -4.13237 0
M  V30 1713 C 156.663 2.3422 -4.80672 0
M  V30 1714 C 157.963 0.195384 -5.21934 0
M  V30 1715 H 159.657 -0.166329 -2.98938 0
M  V30 1716 H 157.203 -0.0814359 -1.4377 0
M  V30 1717 H 159.156 2.19332 -3.59822 0
M  V30 1718 H 157.88 2.26045 -2.35735 0
M  V30 1719 H 156.539 0.545727 -3.62515 0
M  V30 1720 H 156.187 2.98537 -4.04827 0
M  V30 1721 H 155.887 2.02269 -5.51689 0
M  V30 1722 H 157.411 2.94032 -5.35143 0
M  V30 1723 H 158.825 0.694375 -5.69079 0
M  V30 1724 H 157.222 -0.0335027 -6.00091 0
M  V30 1725 H 158.292 -0.760961 -4.78892 0
M  V30 1726 N 159.635 1.57281 -0.100228 0
M  V30 1727 C 160.863 1.98879 0.570509 0
M  V30 1728 C 161.278 0.979476 1.61405 0
M  V30 1729 O 160.635 -0.0302288 1.82475 0
M  V30 1730 C 160.686 3.4052 1.2136 0
M  V30 1731 O 160.407 4.37588 0.211786 0
M  V30 1732 C 161.908 3.97149 1.96945 0
M  V30 1733 H 159.128 0.653428 0.152555 0
M  V30 1734 H 161.672 2.03697 -0.18103 0
M  V30 1735 H 159.827 3.367 1.91603 0
M  V30 1736 H 160.241 5.20118 0.676607 0
M  V30 1737 H 161.715 4.98393 2.37294 0
M  V30 1738 H 162.192 3.3525 2.83733 0
M  V30 1739 H 162.798 4.04458 1.31506 0
M  V30 1740 N 161.113 -0.173488 1.56642 0
M  V30 1741 C 162.359 -0.891784 1.8214 0
M  V30 1742 C 162.692 -1.8199 0.677736 0
M  V30 1743 O 161.967 -1.91842 -0.320446 0
M  V30 1744 C 162.25 -1.68933 3.18015 0
M  V30 1745 C 162.103 -0.784487 4.42906 0
M  V30 1746 C 163.422 -2.65748 3.50808 0
M  V30 1747 H 160.541 -0.322761 0.662567 0
M  V30 1748 H 163.183 -0.158095 1.89341 0
M  V30 1749 H 161.333 -2.31482 3.12007 0
M  V30 1750 H 163.005 -0.172046 4.60979 0
M  V30 1751 H 161.248 -0.0924117 4.33702 0
M  V30 1752 H 161.919 -1.37799 5.34524 0
M  V30 1753 H 164.395 -2.13327 3.57255 0
M  V30 1754 H 163.271 -3.18619 4.4696 0
M  V30 1755 H 163.532 -3.45842 2.75401 0
M  V30 1756 N 162.591 -1.51276 -0.441967 0
M  V30 1757 C 163.837 -1.63958 -1.19355 0
M  V30 1758 C 164.17 -0.352543 -1.90973 0
M  V30 1759 O 163.445 0.647627 -1.83401 0
M  V30 1760 C 163.728 -2.83979 -2.21422 0
M  V30 1761 C 163.581 -4.22646 -1.53918 0
M  V30 1762 C 164.9 -2.99521 -3.22451 0
M  V30 1763 H 162.019 -0.596709 -0.432559 0
M  V30 1764 H 164.661 -1.83748 -0.483398 0
M  V30 1765 H 162.811 -2.67237 -2.81987 0
M  V30 1766 H 164.483 -4.51045 -0.967256 0
M  V30 1767 H 162.726 -4.25558 -0.841615 0
M  V30 1768 H 163.397 -5.02609 -2.28229 0
M  V30 1769 H 165.873 -3.14944 -2.71937 0
M  V30 1770 H 164.749 -3.85072 -3.91166 0
M  V30 1771 H 165.01 -2.11391 -3.88287 0
M  V30 1772 N 164.069 0.697108 -1.41344 0
M  V30 1773 C 165.297 1.48593 -1.43972 0
M  V30 1774 C 165.712 1.88747 -0.0445612 0
M  V30 1775 O 165.069 1.56682 0.935785 0
M  V30 1776 C 165.12 2.74946 -2.34706 0
M  V30 1777 O 164.841 2.36484 -3.68791 0
M  V30 1778 C 166.342 3.687 -2.46121 0
M  V30 1779 H 163.562 0.457964 -0.490418 0
M  V30 1780 H 166.106 0.858429 -1.8561 0
M  V30 1781 H 164.261 3.33937 -1.9638 0
M  V30 1782 H 164.675 3.17918 -4.17167 0
M  V30 1783 H 166.149 4.54145 -3.13777 0
M  V30 1784 H 166.626 4.13081 -1.49199 0
M  V30 1785 H 167.232 3.15613 -2.85076 0
M  V30 1786 N 165.547 1.27147 0.931209 0
M  V30 1787 C 166.477 1.12081 2.04842 0
M  V30 1788 C 167.458 0.0232364 1.70084 0
M  V30 1789 O 168.643 0.197085 1.93197 0
M  V30 1790 C 165.773 0.76354 3.38803 0
M  V30 1791 C 164.727 1.81396 3.87659 0
M  V30 1792 C 164.053 1.31075 5.18385 0
M  V30 1793 C 165.353 3.21739 4.11438 0
M  V30 1794 H 167.047 2.05537 2.17703 0
M  V30 1795 H 164.593 0.989603 1.04608 0
M  V30 1796 H 166.546 0.644982 4.16435 0
M  V30 1797 H 165.27 -0.206727 3.25945 0
M  V30 1798 H 163.929 1.92136 3.12217 0
M  V30 1799 H 163.577 0.330037 5.01916 0
M  V30 1800 H 163.277 2.013 5.52044 0
M  V30 1801 H 164.801 1.20506 5.98591 0
M  V30 1802 H 166.215 3.14019 4.79651 0
M  V30 1803 H 164.612 3.89644 4.56397 0
M  V30 1804 H 165.682 3.67054 3.16859 0
M  V30 1805 N 167.025 -1.13721 1.09112 0
M  V30 1806 C 168.274 -1.84275 0.82009 0
M  V30 1807 C 168.587 -1.84253 -0.656509 0
M  V30 1808 O 169.793 -2.50668 -1.04296 0
M  V30 1809 C 168.249 -3.30825 1.41714 0
M  V30 1810 C 167.857 -3.39244 2.92605 0
M  V30 1811 C 169.601 -4.06443 1.22492 0
M  V30 1812 C 167.508 -4.80047 3.45411 0
M  V30 1813 H 166.438 -0.690387 0.30312 0
M  V30 1814 H 169.089 -1.28146 1.31343 0
M  V30 1815 H 167.471 -3.86737 0.851498 0
M  V30 1816 H 168.645 -2.93344 3.55367 0
M  V30 1817 H 166.96 -2.77088 3.10823 0
M  V30 1818 H 169.557 -5.10387 1.59402 0
M  V30 1819 H 169.9 -4.15972 0.165299 0
M  V30 1820 H 170.433 -3.56852 1.75788 0
M  V30 1821 H 167.172 -4.75709 4.50978 0
M  V30 1822 H 166.692 -5.26455 2.87411 0
M  V30 1823 H 168.371 -5.48957 3.42425 0
M  V30 1824 N 168.503 -0.877838 -1.30888 0
M  V30 1825 C 169.751 -0.491723 -1.96027 0
M  V30 1826 C 170.072 0.960827 -1.69685 0
M  V30 1827 O 169.342 1.67462 -1.01654 0
M  V30 1828 H 167.922 -0.17885 -0.725273 0
M  V30 1829 H 170.584 -1.11935 -1.59551 0
M  V30 1830 H 169.68 -0.656016 -3.05128 0
M  V30 1831 N 169.982 1.44106 -0.638065 0
M  V30 1832 C 171.228 2.02277 -0.145546 0
M  V30 1833 C 171.561 1.50125 1.23191 0
M  V30 1834 O 170.836 0.688133 1.8192 0
M  V30 1835 C 171.119 3.59829 -0.139791 0
M  V30 1836 C 170.972 4.22247 -1.55008 0
M  V30 1837 C 172.291 4.36873 0.531966 0
M  V30 1838 H 169.41 0.734992 -0.0543632 0
M  V30 1839 H 172.052 1.71592 -0.815863 0
M  V30 1840 H 170.202 3.86102 0.431007 0
M  V30 1841 H 171.874 4.07057 -2.1703 0
M  V30 1842 H 170.117 3.79476 -2.10191 0
M  V30 1843 H 170.788 5.31284 -1.49804 0
M  V30 1844 H 173.264 4.16074 0.0464781 0
M  V30 1845 H 172.14 5.4657 0.505206 0
M  V30 1846 H 172.401 4.11995 1.60352 0
M  V30 1847 N 171.46 0.379036 1.52974 0
M  V30 1848 C 172.706 -0.206727 2.01744 0
M  V30 1849 C 173.039 -1.47314 1.26539 0
M  V30 1850 O 172.314 -1.91084 0.362903 0
M  V30 1851 C 172.597 -0.485066 3.56818 0
M  V30 1852 C 172.45 0.795919 4.42702 0
M  V30 1853 C 173.769 -1.28003 4.21074 0
M  V30 1854 H 170.888 -0.0736607 0.73331 0
M  V30 1855 H 173.53 0.506581 1.83122 0
M  V30 1856 H 171.68 -1.09272 3.72816 0
M  V30 1857 H 173.352 1.43307 4.38476 0
M  V30 1858 H 171.595 1.41344 4.10127 0
M  V30 1859 H 172.266 0.555947 5.49193 0
M  V30 1860 H 174.742 -0.765867 4.08991 0
M  V30 1861 H 173.618 -1.44352 5.29579 0
M  V30 1862 H 173.879 -2.29236 3.78026 0
M  V30 1863 N 172.938 -1.57226 0.108567 0
M  V30 1864 C 174.166 -1.99179 -0.559954 0
M  V30 1865 C 174.581 -0.988022 -1.60884 0
M  V30 1866 O 173.938 0.0205512 -1.82488 0
M  V30 1867 C 173.989 -3.41159 -1.19552 0
M  V30 1868 O 173.71 -4.37694 -0.188577 0
M  V30 1869 C 175.211 -3.98188 -1.94837 0
M  V30 1870 H 172.431 -0.654228 -0.149088 0
M  V30 1871 H 174.975 -2.03598 0.19183 0
M  V30 1872 H 173.13 -3.37711 -1.89815 0
M  V30 1873 H 173.544 -5.20469 -0.649014 0
M  V30 1874 H 175.018 -4.99644 -2.34648 0
M  V30 1875 H 175.495 -3.3675 -2.81951 0
M  V30 1876 H 176.101 -4.0515 -1.2936 0
M  V30 1877 N 174.416 0.165178 -1.56732 0
M  V30 1878 C 175.665 0.879143 -1.81532 0
M  V30 1879 C 175.978 1.83144 -0.686842 0
M  V30 1880 O 177.184 2.58823 -0.819944 0
M  V30 1881 C 175.64 1.61388 -3.21686 0
M  V30 1882 C 175.248 0.704904 -4.4242 0
M  V30 1883 C 176.992 2.3157 -3.55774 0
M  V30 1884 C 174.899 1.44022 -5.73595 0
M  V30 1885 H 173.829 0.332033 -0.676957 0
M  V30 1886 H 176.48 0.132008 -1.83025 0
M  V30 1887 H 174.862 2.40599 -3.14529 0
M  V30 1888 H 176.036 -0.0506815 -4.60772 0
M  V30 1889 H 174.351 0.112419 -4.16248 0
M  V30 1890 H 176.948 2.8719 -4.51028 0
M  V30 1891 H 177.291 3.07201 -2.8095 0
M  V30 1892 H 177.824 1.59297 -3.64513 0
M  V30 1893 H 174.563 0.72612 -6.51466 0
M  V30 1894 H 174.083 2.16898 -5.5921 0
M  V30 1895 H 175.762 1.98606 -6.15764 0
M  V30 1896 O 175.933 1.58495 0.310088 0
M  V30 1897 H 176.624 1.68365 0.957755 0
M  V30 END ATOM
M  V30 BEGIN BOND
M  V30 END BOND
M  V30 END CTAB
M  END
$$$$
