drugbank_target|P0A9M2 Hypoxanthine phosphoribosyltransferase (DB04566)
 OpenBabel12092120043D

  0  0  0     0  0            999 V3000
M  V30 BEGIN CTAB
M  V30 COUNTS 2846 2866 0 0 0
M  V30 BEGIN ATOM
M  V30 1 H -0.908 1.98254 -0.117106 0
M  V30 2 N 0 1.576 0 0
M  V30 3 C 0.933 2.03868 1.02534 0
M  V30 4 C 1.911 0.928543 1.3348 0
M  V30 5 O 3.095 1.19667 1.45644 0
M  V30 6 C 0.222 2.43627 2.35294 0
M  V30 7 C -0.732 3.65373 2.2001 0
M  V30 8 S 0.101 5.13292 1.52614 0
M  V30 9 C 1.257 5.56322 2.86805 0
M  V30 10 H 1.49 2.90518 0.631377 0
M  V30 11 H -0.977 1.52953 0.210867 0
M  V30 12 H 0.981 2.67203 3.11629 0
M  V30 13 H -0.358 1.57376 2.7183 0
M  V30 14 H -1.165 3.90944 3.18086 0
M  V30 15 H -1.563 3.418 1.51819 0
M  V30 16 H 0.729 5.58782 3.83104 0
M  V30 17 H 1.672 6.56266 2.65933 0
M  V30 18 H 2.08 4.83886 2.90714 0
M  V30 19 N 1.4781 -0.272755 1.55222 0
M  V30 20 C 2.4251 -1.33716 1.88119 0
M  V30 21 C 3.3951 -1.49066 0.73271 0
M  V30 22 O 4.5801 -1.63469 0.984002 0
M  V30 23 C 1.7201 -2.69238 2.15882 0
M  V30 24 C 0.8331 -2.62108 3.43399 0
M  V30 25 C -0.0319 -3.89811 3.60861 0
M  V30 26 C -0.9929 -3.77193 4.8207 0
M  V30 27 N -1.8559 -4.9673 4.96189 0
M  V30 28 H 2.9841 -1.04962 2.78903 0
M  V30 29 H 0.5211 -0.507088 1.38083 0
M  V30 30 H 2.4791 -3.48089 2.29978 0
M  V30 31 H 1.1091 -2.96194 1.28331 0
M  V30 32 H 0.1611 -1.74967 3.37773 0
M  V30 33 H 1.4731 -2.48685 4.32386 0
M  V30 34 H 0.6271 -4.77103 3.74777 0
M  V30 35 H -0.6339 -4.06102 2.7006 0
M  V30 36 H -1.6289 -2.88284 4.68159 0
M  V30 37 H -0.4039 -3.62421 5.74307 0
M  V30 38 H -2.4579 -5.13431 4.08319 0
M  V30 39 H -2.5409 -4.85839 5.79221 0
M  V30 40 H -1.2729 -5.85594 5.1449 0
M  V30 41 N 2.9562 -1.48159 -0.537278 0
M  V30 42 C 3.9062 -1.5854 -1.63857 0
M  V30 43 C 4.8902 -0.442969 -1.54682 0
M  V30 44 O 6.0822 -0.69401 -1.62827 0
M  V30 45 C 3.2112 -1.62144 -3.02596 0
M  V30 46 C 2.2972 -2.81841 -3.16901 0
M  V30 47 N 2.6882 -4.06337 -3.01204 0
M  V30 48 C 0.9862 -2.79021 -3.47942 0
M  V30 49 C 1.6872 -4.86606 -3.18731 0
M  V30 50 N 0.6632 -4.19288 -3.45974 0
M  V30 51 H 4.4652 -2.5255 -1.50319 0
M  V30 52 H 1.9792 -1.4443 -0.742555 0
M  V30 53 H 3.9762 -1.67674 -3.81695 0
M  V30 54 H 2.6362 -0.69245 -3.17231 0
M  V30 55 H 3.6472 -4.36888 -2.78117 0
M  V30 56 H 0.3242 -1.95347 -3.6898 0
M  V30 57 H 1.7142 -5.95385 -3.11394 0
M  V30 58 N 4.4343 0.785586 -1.36625 0
M  V30 59 C 5.6623 1.57448 -1.3423 0
M  V30 60 C 6.0773 1.88649 0.0755653 0
M  V30 61 O 5.4343 1.50414 1.03354 0
M  V30 62 C 5.4853 2.89316 -2.16745 0
M  V30 63 O 5.2063 2.59459 -3.53005 0
M  V30 64 C 6.7073 3.83606 -2.22174 0
M  V30 65 H 3.9273 0.488226 -0.4603 0
M  V30 66 H 6.4713 0.974733 -1.79775 0
M  V30 67 H 4.6263 3.4575 -1.74745 0
M  V30 68 H 5.0403 3.43804 -3.96105 0
M  V30 69 H 6.5143 4.73181 -2.8426 0
M  V30 70 H 6.9913 4.21734 -1.22627 0
M  V30 71 H 7.5973 3.33104 -2.64427 0
M  V30 72 N 5.9124 1.20967 1.01018 0
M  V30 73 C 7.1584 1.02526 1.74975 0
M  V30 74 C 7.4914 -0.4408 1.89131 0
M  V30 75 O 6.7664 -1.32718 1.42184 0
M  V30 76 C 7.0494 1.71699 3.1653 0
M  V30 77 C 6.9024 3.25791 3.10129 0
M  V30 78 C 8.2214 1.45531 4.15342 0
M  V30 79 H 5.3404 0.373863 0.635134 0
M  V30 80 H 7.9824 1.49071 1.17805 0
M  V30 81 H 6.1324 1.32128 3.65341 0
M  V30 82 H 7.8044 3.74697 2.69072 0
M  V30 83 H 6.0474 3.56363 2.47362 0
M  V30 84 H 6.7184 3.69353 4.10222 0
M  V30 85 H 9.1944 1.79872 3.75213 0
M  V30 86 H 8.0704 1.96453 5.1254 0
M  V30 87 H 8.3314 0.384237 4.40427 0
M  V30 88 N 7.3905 -1.2043 1.01659 0
M  V30 89 C 8.3005 -2.2689 0.596484 0
M  V30 90 C 9.3165 -1.70107 -0.36599 0
M  V30 91 O 10.4925 -2.00117 -0.226942 0
M  V30 92 C 7.5575 -3.4665 -0.0586659 0
M  V30 93 C 6.6185 -4.18662 0.949751 0
M  V30 94 C 5.8515 -5.32705 0.32577 0
M  V30 95 O 6.0745 -5.63656 -0.874509 0
M  V30 96 O 5.0085 -5.92803 1.04249 0
M  V30 97 H 8.8345 -2.65041 1.4828 0
M  V30 98 H 6.4195 -1.27048 0.786082 0
M  V30 99 H 8.3015 -4.19256 -0.424564 0
M  V30 100 H 6.9765 -3.10375 -0.91918 0
M  V30 101 H 5.8835 -3.48229 1.36702 0
M  V30 102 H 7.2165 -4.58878 1.78023 0
M  V30 103 N 8.8686 -0.792821 -1.36206 0
M  V30 104 C 10.1146 -0.36733 -1.99446 0
M  V30 105 C 10.4476 1.05917 -1.62774 0
M  V30 106 O 9.7226 1.7324 -0.88421 0
M  V30 107 C 10.0056 -0.535044 -3.56103 0
M  V30 108 C 9.8586 -2.00548 -4.02617 0
M  V30 109 C 11.1776 0.0478191 -4.40074 0
M  V30 110 H 8.2966 -0.134941 -0.724541 0
M  V30 111 H 10.9386 -0.999794 -1.61568 0
M  V30 112 H 9.0886 0.00336329 -3.885 0
M  V30 113 H 10.7606 -2.60521 -3.80692 0
M  V30 114 H 9.0036 -2.50686 -3.54032 0
M  V30 115 H 9.6746 -2.07377 -5.11565 0
M  V30 116 H 12.1506 -0.411822 -4.14057 0
M  V30 117 H 11.0266 -0.0995336 -5.4881 0
M  V30 118 H 11.2876 1.14025 -4.27142 0
M  V30 119 N 10.3467 1.47872 -0.545128 0
M  V30 120 C 11.2797 2.2675 0.256885 0
M  V30 121 C 12.2577 1.33293 0.931228 0
M  V30 122 O 13.4417 1.62657 0.95262 0
M  V30 123 C 10.5687 3.09976 1.36501 0
M  V30 124 C 9.6147 4.1892 0.800496 0
M  V30 125 S 10.4477 5.34397 -0.343505 0
M  V30 126 C 11.6037 6.21186 0.766733 0
M  V30 127 H 11.8367 2.94425 -0.412479 0
M  V30 128 H 9.3697 1.50806 -0.331204 0
M  V30 129 H 11.3277 3.585 1.9997 0
M  V30 130 H 9.9887 2.41686 2.00616 0
M  V30 131 H 9.1817 4.76836 1.63227 0
M  V30 132 H 8.7837 3.73215 0.242217 0
M  V30 133 H 11.0757 6.56804 1.66178 0
M  V30 134 H 12.0187 7.07742 0.225204 0
M  V30 135 H 12.4267 5.54574 1.05396 0
M  V30 136 N 11.8248 0.280983 1.55075 0
M  V30 137 C 13.0738 -0.334784 1.98902 0
M  V30 138 C 13.3868 -1.56534 1.17288 0
M  V30 139 O 14.5928 -2.25443 1.51287 0
M  V30 140 C 13.0488 -0.646994 3.54037 0
M  V30 141 C 12.6568 0.564085 4.44435 0
M  V30 142 C 14.4008 -1.22506 4.06439 0
M  V30 143 C 12.3078 0.226137 5.90967 0
M  V30 144 H 11.2378 -0.128866 0.742906 0
M  V30 145 H 13.8888 0.386556 1.79382 0
M  V30 146 H 12.2708 -1.42739 3.6938 0
M  V30 147 H 13.4448 1.34082 4.40861 0
M  V30 148 H 11.7598 1.0594 4.02698 0
M  V30 149 H 14.3568 -1.49182 5.13468 0
M  V30 150 H 14.6998 -2.16085 3.55827 0
M  V30 151 H 15.2328 -0.50682 3.94558 0
M  V30 152 H 11.9718 1.12996 6.45687 0
M  V30 153 H 11.4918 -0.513717 5.97596 0
M  V30 154 H 13.1708 -0.179539 6.46751 0
M  V30 155 N 13.3029 -1.57598 0.00835791 0
M  V30 156 C 14.7139 -1.7892 -0.53333 0
M  V30 157 C 15.0649 -0.916609 -1.73473 0
M  V30 158 O 14.1899 -0.121336 -2.1606 0
M  V30 159 C 14.7849 -3.24488 -0.974313 0
M  V30 160 C 13.3439 -3.46878 -1.46125 0
M  V30 161 C 12.4909 -2.74157 -0.416302 0
M  V30 162 H 15.4419 -1.56958 0.234495 0
M  V30 163 H 15.4629 -3.3306 -1.83988 0
M  V30 164 H 14.9749 -3.87972 -0.099718 0
M  V30 165 H 13.0759 -2.8862 -2.35646 0
M  V30 166 H 13.1889 -4.55572 -1.48295 0
M  V30 167 H 11.5529 -2.39022 -0.87981 0
M  V30 168 H 12.3359 -3.40345 0.44947 0
M  V30 169 N 14.781 0.264519 -1.55364 0
M  V30 170 C 15.691 1.34902 -1.91934 0
M  V30 171 C 16.707 1.53595 -0.817593 0
M  V30 172 O 17.883 1.67558 -1.11742 0
M  V30 173 C 14.948 2.68676 -2.19121 0
M  V30 174 C 14.009 2.58657 -3.4263 0
M  V30 175 C 13.242 3.86051 -3.68511 0
M  V30 176 O 13.465 4.87126 -2.96757 0
M  V30 177 O 12.399 3.85744 -4.62045 0
M  V30 178 H 16.225 1.06883 -2.8427 0
M  V30 179 H 13.81 0.463775 -1.42019 0
M  V30 180 H 15.692 3.47759 -2.37995 0
M  V30 181 H 14.367 2.96463 -1.29966 0
M  V30 182 H 13.274 1.7792 -3.29082 0
M  V30 183 H 14.607 2.35818 -4.32031 0
M  V30 184 N 16.2591 1.48442 0.529413 0
M  V30 185 C 17.2221 1.62524 1.61612 0
M  V30 186 C 18.2221 0.498509 1.52877 0
M  V30 187 O 19.4121 0.76431 1.56537 0
M  V30 188 C 16.5441 1.59597 3.01233 0
M  V30 189 H 17.7371 2.59423 1.50465 0
M  V30 190 H 15.2901 1.37047 0.751514 0
M  V30 191 H 16.0251 0.641781 3.17886 0
M  V30 192 H 15.8101 2.41397 3.08982 0
M  V30 193 H 17.3001 1.72646 3.80241 0
M  V30 194 N 17.7372 -0.778329 1.37039 0
M  V30 195 C 18.6472 -1.92253 1.34446 0
M  V30 196 C 19.6632 -1.72267 0.244991 0
M  V30 197 O 20.8392 -1.95615 0.479258 0
M  V30 198 C 17.9042 -3.27282 1.144 0
M  V30 199 C 16.9652 -3.59969 2.33925 0
M  V30 200 C 16.1982 -4.88555 2.14825 0
M  V30 201 O 16.4212 -5.59113 1.12912 0
M  V30 202 O 15.3552 -5.20153 3.02861 0
M  V30 203 H 19.1812 -1.97392 2.30803 0
M  V30 204 H 16.7662 -0.920154 1.17701 0
M  V30 205 H 18.6482 -4.08062 1.05182 0
M  V30 206 H 17.3232 -3.23011 0.211124 0
M  V30 207 H 16.2302 -2.7945 2.48714 0
M  V30 208 H 17.5632 -3.68976 3.25757 0
M  V30 209 N 19.2153 -1.21501 -1.00376 0
M  V30 210 C 20.4643 -1.02718 -1.73586 0
M  V30 211 C 20.7773 0.439589 -1.90596 0
M  V30 212 O 21.9833 0.746848 -2.61026 0
M  V30 213 C 20.4393 -1.78929 -3.1227 0
M  V30 214 C 20.0473 -3.29783 -3.03228 0
M  V30 215 C 21.7913 -1.68557 -3.89601 0
M  V30 216 C 19.6983 -3.98479 -4.36999 0
M  V30 217 H 18.6283 -0.380733 -0.650814 0
M  V30 218 H 21.2793 -1.45248 -1.1214 0
M  V30 219 H 19.6613 -1.29192 -3.74333 0
M  V30 220 H 20.8353 -3.86832 -2.50395 0
M  V30 221 H 19.1503 -3.40711 -2.39385 0
M  V30 222 H 21.7473 -2.17211 -4.88593 0
M  V30 223 H 22.0903 -0.644021 -4.11288 0
M  V30 224 H 22.6233 -2.15778 -3.34193 0
M  V30 225 H 19.3623 -5.02841 -4.20513 0
M  V30 226 H 18.8823 -3.46219 -4.89788 0
M  V30 227 H 20.5613 -4.03462 -5.05794 0
M  V30 228 N 20.6934 1.19889 -1.02296 0
M  V30 229 C 21.6404 2.22901 -0.598651 0
M  V30 230 C 22.6104 1.61588 0.384521 0
M  V30 231 O 23.7954 1.88697 0.282522 0
M  V30 232 C 20.9354 3.45063 0.0504476 0
M  V30 233 C 20.0484 4.20783 -0.978053 0
M  V30 234 C 19.1834 5.30356 -0.299338 0
M  V30 235 C 18.2224 5.97826 -1.31416 0
M  V30 236 N 17.3594 6.98975 -0.661667 0
M  V30 237 H 22.1994 2.58554 -1.48169 0
M  V30 238 H 19.7364 1.27039 -0.741584 0
M  V30 239 H 21.6944 4.14831 0.443971 0
M  V30 240 H 20.3244 3.10084 0.897097 0
M  V30 241 H 19.3764 3.50018 -1.48969 0
M  V30 242 H 20.6884 4.67109 -1.74958 0
M  V30 243 H 19.8424 6.06516 0.149347 0
M  V30 244 H 18.5814 4.85084 0.504445 0
M  V30 245 H 17.5864 5.20422 -1.77317 0
M  V30 246 H 18.8114 6.45183 -2.11933 0
M  V30 247 H 16.7574 6.55886 0.122132 0
M  V30 248 H 16.6744 7.43461 -1.37117 0
M  V30 249 H 17.9424 7.7914 -0.236785 0
M  V30 250 N 22.1715 0.800033 1.35784 0
M  V30 251 C 23.1345 0.211565 2.28221 0
M  V30 252 C 24.1345 -0.59728 1.49296 0
M  V30 253 O 25.3245 -0.416721 1.69142 0
M  V30 254 C 22.4565 -0.705846 3.33513 0
M  V30 255 H 23.6495 1.02677 2.81776 0
M  V30 256 H 21.2025 0.570211 1.45528 0
M  V30 257 H 21.9375 -1.54498 2.85133 0
M  V30 258 H 21.7225 -0.127655 3.91892 0
M  V30 259 H 23.2125 -1.11211 4.02519 0
M  V30 260 N 23.6496 -1.47581 0.552962 0
M  V30 261 C 25.0656 -1.5818 0.212424 0
M  V30 262 C 25.2656 -1.55213 -1.28496 0
M  V30 263 O 24.3216 -1.45329 -2.06484 0
M  V30 264 C 25.6346 -2.88865 0.835318 0
M  V30 265 C 27.1826 -3.0244 0.806156 0
M  V30 266 C 27.6576 -4.35819 1.40804 0
M  V30 267 N 29.1486 -4.42444 1.37103 0
M  V30 268 C 29.8836 -5.44202 1.80641 0
M  V30 269 N 29.3796 -6.52795 2.32015 0
M  V30 270 N 31.1726 -5.35222 1.71738 0
M  V30 271 H 23.3236 -1.47753 1.52587 0
M  V30 272 H 25.5866 -0.702941 0.636064 0
M  V30 273 H 25.2926 -2.9676 1.88749 0
M  V30 274 H 25.1666 -3.7579 0.325848 0
M  V30 275 H 27.5536 -2.94144 -0.237317 0
M  V30 276 H 27.6346 -2.17068 1.35334 0
M  V30 277 H 27.2786 -4.44871 2.45056 0
M  V30 278 H 27.2086 -5.19916 0.836338 0
M  V30 279 H 29.6996 -3.6456 0.995202 0
M  V30 280 H 30.0126 -7.26609 2.63171 0
M  V30 281 H 28.3576 -6.53696 2.36023 0
M  V30 282 H 31.5486 -4.49284 1.31382 0
M  V30 283 H 31.7216 -6.14389 2.05987 0
M  V30 284 N 25.1277 -0.289203 -1.54924 0
M  V30 285 C 26.3767 0.324231 -1.99077 0
M  V30 286 C 26.6897 1.5591 -1.18117 0
M  V30 287 O 27.8957 2.24637 -1.52481 0
M  V30 288 C 26.3517 0.628209 -3.54375 0
M  V30 289 C 25.9597 -0.587647 -4.44129 0
M  V30 290 C 27.7037 1.20349 -4.07083 0
M  V30 291 C 25.6107 -0.257475 -5.90839 0
M  V30 292 H 24.5407 0.124924 -0.743579 0
M  V30 293 H 27.1917 -0.396063 -1.79175 0
M  V30 294 H 25.5737 1.40778 -3.70132 0
M  V30 295 H 26.7477 -1.36418 -4.40144 0
M  V30 296 H 25.0627 -1.08074 -4.0213 0
M  V30 297 H 27.6597 1.46456 -5.14252 0
M  V30 298 H 28.0027 2.14195 -3.56968 0
M  V30 299 H 28.5357 0.485889 -3.94821 0
M  V30 300 H 25.2747 -1.16419 -6.45079 0
M  V30 301 H 24.7947 0.482018 -5.9786 0
M  V30 302 H 26.4737 0.145238 -6.46837 0
M  V30 303 N 26.6058 1.57591 -0.0167156 0
M  V30 304 C 27.5688 2.08393 0.954204 0
M  V30 305 C 28.5688 0.996531 1.26198 0
M  V30 306 O 29.7588 1.25858 1.20438 0
M  V30 307 C 26.8908 2.5394 2.27436 0
M  V30 308 H 28.0838 2.95455 0.514451 0
M  V30 309 H 25.6368 1.54582 0.231089 0
M  V30 310 H 26.3718 1.70171 2.76066 0
M  V30 311 H 26.1568 3.33371 2.06412 0
M  V30 312 H 27.6468 2.93512 2.97053 0
M  V30 313 N 28.0839 -0.256276 1.55502 0
M  V30 314 C 28.9939 -1.33882 1.92647 0
M  V30 315 C 30.0099 -1.53159 0.825727 0
M  V30 316 O 31.1859 -1.66963 1.12629 0
M  V30 317 C 28.2509 -2.6751 2.20543 0
M  V30 318 C 27.3119 -2.56836 3.43997 0
M  V30 319 C 26.5449 -3.84092 3.70553 0
M  V30 320 O 26.7679 -4.85545 2.99336 0
M  V30 321 O 25.7019 -3.83288 4.64084 0
M  V30 322 H 29.5279 -1.05374 2.84833 0
M  V30 323 H 27.1129 -0.456237 1.42263 0
M  V30 324 H 28.9949 -3.46492 2.39835 0
M  V30 325 H 27.6699 -2.9577 1.31536 0
M  V30 326 H 26.5769 -1.76172 3.30021 0
M  V30 327 H 27.9099 -2.33523 4.33275 0
M  V30 328 N 29.562 -1.4872 -0.521534 0
M  V30 329 C 30.492 -1.66771 -1.63431 0
M  V30 330 C 31.473 -0.516499 -1.62069 0
M  V30 331 O 32.658 -0.750013 -1.79132 0
M  V30 332 C 29.788 -1.71515 -3.01993 0
M  V30 333 C 28.742 -2.86222 -3.18216 0
M  V30 334 C 28.068 -2.76061 -4.57924 0
M  V30 335 C 29.368 -4.27419 -3.00184 0
M  V30 336 H 31.062 -2.59932 -1.48579 0
M  V30 337 H 28.608 -1.25089 -0.713358 0
M  V30 338 H 30.561 -1.82731 -3.7972 0
M  V30 339 H 29.285 -0.749393 -3.17886 0
M  V30 340 H 27.944 -2.74575 -2.42908 0
M  V30 341 H 27.592 -1.77437 -4.70665 0
M  V30 342 H 27.292 -3.53037 -4.69722 0
M  V30 343 H 28.816 -2.89256 -5.37739 0
M  V30 344 H 30.23 -4.39855 -3.67697 0
M  V30 345 H 28.627 -5.05458 -3.2347 0
M  V30 346 H 29.697 -4.43293 -1.96518 0
M  V30 347 N 31.0401 0.771051 -1.3745 0
M  V30 348 C 32.2881 1.52661 -1.32435 0
M  V30 349 C 32.6091 1.9479 0.0905024 0
M  V30 350 O 31.8791 1.66348 1.03466 0
M  V30 351 H 30.4591 0.566218 -0.487244 0
M  V30 352 H 33.1211 0.917636 -1.71946 0
M  V30 353 H 32.2171 2.42568 -1.96385 0
M  V30 354 N 32.5182 1.22032 0.997298 0
M  V30 355 C 33.9342 0.979326 1.26021 0
M  V30 356 C 34.1342 -0.32972 1.98784 0
M  V30 357 O 33.1902 -1.05345 2.29475 0
M  V30 358 C 34.5032 2.17509 2.07631 0
M  V30 359 C 36.0512 2.21817 2.2083 0
M  V30 360 C 36.5262 3.40933 3.05825 0
M  V30 361 N 38.0172 3.41067 3.13412 0
M  V30 362 C 38.7522 4.29885 3.79455 0
M  V30 363 N 38.2482 5.28914 4.47462 0
M  V30 364 N 40.0412 4.17673 3.76173 0
M  V30 365 H 32.1922 2.06202 0.509352 0
M  V30 366 H 34.4552 0.90334 0.287541 0
M  V30 367 H 34.1612 3.12415 1.61524 0
M  V30 368 H 34.0352 2.17206 3.08385 0
M  V30 369 H 36.4222 1.27462 2.66153 0
M  V30 370 H 36.5032 2.2616 1.1952 0
M  V30 371 H 36.1472 4.35586 2.61203 0
M  V30 372 H 36.0772 3.33829 4.07266 0
M  V30 373 H 38.5682 2.69406 2.65007 0
M  V30 374 H 38.8812 5.92973 4.95583 0
M  V30 375 H 37.2262 5.32831 4.46224 0
M  V30 376 H 40.4172 3.39564 3.22202 0
M  V30 377 H 40.5902 4.87098 4.27363 0
M  V30 378 N 33.9963 -1.19345 1.0293 0
M  V30 379 C 34.9283 -2.22036 0.56857 0
M  V30 380 C 35.9413 -1.58865 -0.355779 0
M  V30 381 O 37.1303 -1.77851 -0.152103 0
M  V30 382 C 34.2303 -3.38363 -0.190752 0
M  V30 383 C 33.4033 -4.31118 0.738643 0
M  V30 384 C 32.4623 -5.26194 0.0246497 0
M  V30 385 O 31.4883 -5.65461 0.651354 0
M  V30 386 N 32.6903 -5.66971 -1.24594 0
M  V30 387 H 35.4553 -2.6219 1.45177 0
M  V30 388 H 33.0163 -1.34015 0.908381 0
M  V30 389 H 35.0083 -3.98981 -0.677961 0
M  V30 390 H 33.5783 -2.96994 -0.975366 0
M  V30 391 H 32.7983 -3.68276 1.40593 0
M  V30 392 H 34.0863 -4.90001 1.37029 0
M  V30 393 H 33.4843 -5.37104 -1.77583 0
M  V30 394 H 32.0413 -6.2984 -1.67764 0
M  V30 395 N 35.4744 -0.807222 -1.35358 0
M  V30 396 C 36.7234 -0.384376 -1.98004 0
M  V30 397 C 37.0364 1.0543 -1.64754 0
M  V30 398 O 38.2424 1.58029 -2.20769 0
M  V30 399 C 36.6984 -0.636326 -3.5423 0
M  V30 400 C 36.3064 -2.08759 -3.96388 0
M  V30 401 C 38.0504 -0.278869 -4.23583 0
M  V30 402 C 35.9574 -2.28525 -5.45463 0
M  V30 403 H 34.8874 -0.139986 -0.740891 0
M  V30 404 H 37.5384 -0.991369 -1.54415 0
M  V30 405 H 35.9204 0.0406256 -3.95979 0
M  V30 406 H 37.0944 -2.8024 -3.6579 0
M  V30 407 H 35.4094 -2.40497 -3.39926 0
M  V30 408 H 38.0064 -0.404599 -5.33167 0
M  V30 409 H 38.3494 0.775012 -4.09022 0
M  V30 410 H 38.8824 -0.909764 -3.87257 0
M  V30 411 H 35.6214 -3.32361 -5.64992 0
M  V30 412 H 35.1414 -1.61569 -5.77629 0
M  V30 413 H 36.8204 -2.10109 -6.11934 0
M  V30 414 N 36.9525 1.47285 -0.560781 0
M  V30 415 C 38.1805 2.06855 -0.0430262 0
M  V30 416 C 38.5955 1.41291 1.25229 0
M  V30 417 O 37.9525 0.510648 1.7521 0
M  V30 418 C 38.0035 3.61178 0.152518 0
M  V30 419 O 37.7245 4.24285 -1.0915 0
M  V30 420 C 39.2255 4.37624 0.707145 0
M  V30 421 H 36.4455 0.669319 -0.0474652 0
M  V30 422 H 38.9895 1.89237 -0.77521 0
M  V30 423 H 37.1445 3.78298 0.834843 0
M  V30 424 H 37.5585 5.16868 -0.891482 0
M  V30 425 H 39.0325 5.46271 0.793244 0
M  V30 426 H 39.5095 4.04152 1.71923 0
M  V30 427 H 40.1155 4.25257 0.0604027 0
M  V30 428 N 38.4306 0.297415 1.54768 0
M  V30 429 C 39.3406 -0.58983 2.27064 0
M  V30 430 C 40.3566 -1.15144 1.30453 0
M  V30 431 O 41.5326 -1.17699 1.63428 0
M  V30 432 C 38.5976 -1.74714 2.9946 0
M  V30 433 C 37.6586 -1.21997 4.11601 0
M  V30 434 C 36.8916 -2.32212 4.80535 0
M  V30 435 O 37.1146 -3.52036 4.48806 0
M  V30 436 O 36.0486 -1.99106 5.68014 0
M  V30 437 H 39.8746 -0.00348199 3.037 0
M  V30 438 H 37.4596 0.0640035 1.49263 0
M  V30 439 H 39.3416 -2.42147 3.44881 0
M  V30 440 H 38.0166 -2.32016 2.25722 0
M  V30 441 H 36.9236 -0.511458 3.70587 0
M  V30 442 H 38.2566 -0.692419 4.87305 0
M  V30 443 N 39.9087 -1.5758 0.0250728 0
M  V30 444 C 41.3247 -1.56124 -0.331282 0
M  V30 445 C 41.5247 -1.03029 -1.73169 0
M  V30 446 O 40.5807 -0.675215 -2.43305 0
M  V30 447 C 41.8937 -3.00139 -0.183584 0
M  V30 448 C 43.4417 -3.11946 -0.256654 0
M  V30 449 C 43.9167 -4.57793 -0.137792 0
M  V30 450 N 45.4077 -4.6279 -0.194904 0
M  V30 451 C 46.1427 -5.7326 -0.126655 0
M  V30 452 N 45.6387 -6.928 -0.00755288 0
M  V30 453 N 47.4317 -5.61811 -0.180348 0
M  V30 454 H 39.5827 -1.90424 0.94087 0
M  V30 455 H 41.8457 -0.875761 0.362968 0
M  V30 456 H 41.5517 -3.4292 0.780927 0
M  V30 457 H 41.4257 -3.64899 -0.955448 0
M  V30 458 H 43.8127 -2.69079 -1.21162 0
M  V30 459 H 43.8937 -2.49915 0.545517 0
M  V30 460 H 43.5377 -5.01339 0.813739 0
M  V30 461 H 43.4677 -5.17798 -0.958775 0
M  V30 462 H 45.9587 -3.76807 -0.287267 0
M  V30 463 H 46.2717 -7.72791 0.0379428 0
M  V30 464 H 44.6167 -6.94995 0.0271731 0
M  V30 465 H 47.8077 -4.6731 -0.271767 0
M  V30 466 H 47.9807 -6.47882 -0.123697 0
M  V30 467 N 41.3868 0.248026 -1.55636 0
M  V30 468 C 42.6168 0.992367 -1.81206 0
M  V30 469 C 43.0248 1.7949 -0.598324 0
M  V30 470 O 42.3678 1.78292 0.442434 0
M  V30 471 C 42.4298 1.97926 -3.00109 0
M  V30 472 C 42.0938 1.36377 -4.36177 0
M  V30 473 C 43.0908 0.76682 -5.14214 0
M  V30 474 C 40.7758 1.38347 -4.82872 0
M  V30 475 C 42.7698 0.197778 -6.37093 0
M  V30 476 C 40.4568 0.810574 -6.057 0
M  V30 477 C 41.4548 0.218754 -6.8265 0
M  V30 478 O 41.1428 -0.345298 -8.03158 0
M  V30 479 H 40.8748 0.297704 -0.606917 0
M  V30 480 H 43.4288 0.276517 -2.0353 0
M  V30 481 H 41.6588 2.73339 -2.73538 0
M  V30 482 H 43.3478 2.58694 -3.12781 0
M  V30 483 H 44.1138 0.744114 -4.79258 0
M  V30 484 H 39.9928 1.8335 -4.2297 0
M  V30 485 H 43.5368 -0.264788 -6.97097 0
M  V30 486 H 39.4338 0.830604 -6.40134 0
M  V30 487 H 40.2018 -0.237055 -8.18157 0
M  V30 488 N 42.8649 1.48995 0.513639 0
M  V30 489 C 43.8119 1.6473 1.61656 0
M  V30 490 C 44.7819 0.488984 1.58739 0
M  V30 491 O 45.9669 0.714478 1.76918 0
M  V30 492 C 43.1069 1.7082 2.99858 0
M  V30 493 C 42.2199 2.9787 3.12885 0
M  V30 494 C 41.3549 2.95017 4.41744 0
M  V30 495 C 40.3939 4.16702 4.48359 0
M  V30 496 N 39.5309 4.11832 5.68629 0
M  V30 497 H 44.3709 2.58909 1.47547 0
M  V30 498 H 41.9079 1.28382 0.71808 0
M  V30 499 H 43.8659 1.72331 3.79944 0
M  V30 500 H 42.4959 0.801181 3.12699 0
M  V30 501 H 41.5479 3.06029 2.25944 0
M  V30 502 H 42.8599 3.8786 3.13633 0
M  V30 503 H 42.0139 2.95021 5.30139 0
M  V30 504 H 40.7529 2.02784 4.43542 0
M  V30 505 H 39.7579 4.16955 3.58369 0
M  V30 506 H 40.9829 5.10113 4.48287 0
M  V30 507 H 38.9289 3.22428 5.71293 0
M  V30 508 H 38.8459 4.95543 5.7094 0
M  V30 509 H 40.1139 4.1592 6.59266 0
M  V30 510 N 44.343 -0.763751 1.37857 0
M  V30 511 C 45.62 -1.51244 1.24035 0
M  V30 512 C 46 -2.10472 -0.162649 0
M  V30 513 O 45.348 -1.96206 -1.17112 0
M  V30 514 C 45.558 -2.58694 2.34261 0
M  V30 515 C 46.906 -3.25878 2.72193 0
M  V30 516 O 47.93 -2.68993 2.33497 0
M  V30 517 O 46.789 -4.2874 3.38887 0
M  V30 518 H 43.883 -0.670243 0.484462 0
M  V30 519 H 46.429 -0.800031 1.49658 0
M  V30 520 H 45.201 -2.13105 3.2818 0
M  V30 521 H 44.824 -3.37527 2.10146 0
M  V30 522 N 45.8211 -1.22559 -0.990812 0
M  V30 523 C 47.0461 -1.07862 -1.77145 0
M  V30 524 C 47.4711 0.366447 -1.84496 0
M  V30 525 O 46.8291 1.26478 -1.29896 0
M  V30 526 C 46.8771 -1.69686 -3.18181 0
M  V30 527 O 45.9811 -0.951946 -4.01263 0
M  V30 528 H 45.3221 -0.378712 -0.545411 0
M  V30 529 H 47.8521 -1.62399 -1.2445 0
M  V30 530 H 47.8621 -1.74496 -3.68802 0
M  V30 531 H 46.5371 -2.74841 -3.12146 0
M  V30 532 H 45.1141 -0.980011 -3.59792 0
M  V30 533 N 47.2992 1.18797 -1.03562 0
M  V30 534 C 48.5472 1.88278 -0.734569 0
M  V30 535 C 48.8682 1.8043 0.739586 0
M  V30 536 O 48.1382 1.21925 1.53333 0
M  V30 537 H 46.7182 0.696991 -0.268725 0
M  V30 538 H 49.3802 1.44192 -1.31129 0
M  V30 539 H 48.4762 2.94443 -1.03489 0
M  V30 540 N 48.7773 0.814389 1.34928 0
M  V30 541 C 50.0023 0.410097 2.03305 0
M  V30 542 C 50.4273 -0.973464 1.60951 0
M  V30 543 O 49.7853 -1.63185 0.789964 0
M  V30 544 C 49.8333 0.51049 3.56968 0
M  V30 545 O 48.9373 -0.473035 4.09678 0
M  V30 546 H 48.2783 0.170088 0.641846 0
M  V30 547 H 50.8083 1.10244 1.72358 0
M  V30 548 H 50.8183 0.383135 4.06197 0
M  V30 549 H 49.4933 1.51963 3.87144 0
M  V30 550 H 48.0703 -0.305272 3.71648 0
M  V30 551 N 50.2554 -1.46986 0.568584 0
M  V30 552 C 51.5324 -1.95592 -0.0174074 0
M  V30 553 C 51.9124 -1.51124 -1.47393 0
M  V30 554 O 51.2604 -0.755329 -2.15655 0
M  V30 555 C 51.4704 -3.48719 0.139913 0
M  V30 556 C 52.8184 -4.246 0.000426376 0
M  V30 557 O 53.8424 -3.56135 0.0680316 0
M  V30 558 O 52.7014 -5.46302 -0.146988 0
M  V30 559 H 49.7954 -0.82498 -0.0577599 0
M  V30 560 H 52.3414 -1.57335 0.635909 0
M  V30 561 H 51.1134 -3.73927 1.15301 0
M  V30 562 H 50.7364 -3.93771 -0.550491 0
M  V30 563 N 51.7335 -0.305618 -1.54608 0
M  V30 564 C 52.6665 0.610536 -2.19881 0
M  V30 565 C 53.6445 1.1294 -1.16976 0
M  V30 566 O 54.8285 1.19673 -1.45638 0
M  V30 567 C 51.9555 1.83583 -2.84631 0
M  V30 568 C 51.0015 1.4498 -4.01102 0
M  V30 569 S 51.8345 0.501793 -5.33144 0
M  V30 570 C 52.9905 1.73478 -6.01379 0
M  V30 571 H 53.2235 0.0560177 -2.97247 0
M  V30 572 H 50.7565 -0.0897434 -1.54139 0
M  V30 573 H 52.7145 2.53898 -3.22562 0
M  V30 574 H 51.3755 2.36152 -2.07102 0
M  V30 575 H 50.5685 2.36236 -4.45206 0
M  V30 576 H 50.1705 0.826553 -3.64752 0
M  V30 577 H 52.4625 2.67473 -6.22467 0
M  V30 578 H 53.4055 1.33622 -6.95378 0
M  V30 579 H 53.8135 1.9136 -5.31076 0
M  V30 580 N 53.2116 1.57565 -0.0334293 0
M  V30 581 C 54.4576 1.92262 0.645226 0
M  V30 582 C 54.7906 0.910543 1.71531 0
M  V30 583 O 54.0656 -0.066099 1.94388 0
M  V30 584 C 54.3486 3.37422 1.2577 0
M  V30 585 C 54.2016 4.49369 0.196891 0
M  V30 586 C 55.5206 3.82628 2.17449 0
M  V30 587 H 52.6396 0.699171 0.233085 0
M  V30 588 H 55.2816 1.89779 -0.0915694 0
M  V30 589 H 53.4316 3.39669 1.88566 0
M  V30 590 H 55.1036 4.59254 -0.433962 0
M  V30 591 H 53.3466 4.31168 -0.477137 0
M  V30 592 H 54.0176 5.47978 0.665124 0
M  V30 593 H 56.4936 3.82145 1.64634 0
M  V30 594 H 55.3696 4.84883 2.57254 0
M  V30 595 H 55.6306 3.18376 3.0674 0
M  V30 596 N 54.6897 -0.239769 1.55765 0
M  V30 597 C 55.6197 -1.30052 1.9393 0
M  V30 598 C 56.6007 -1.49839 0.805132 0
M  V30 599 O 57.7857 -1.62328 1.06599 0
M  V30 600 C 54.9157 -2.65391 2.2402 0
M  V30 601 C 53.8697 -2.60289 3.39755 0
M  V30 602 C 53.1957 -3.99489 3.55405 0
M  V30 603 C 54.4957 -2.16654 4.75246 0
M  V30 604 H 56.1897 -0.983573 2.82783 0
M  V30 605 H 53.7357 -0.471701 1.36055 0
M  V30 606 H 55.6887 -3.3974 2.49308 0
M  V30 607 H 54.4127 -2.98736 1.32 0
M  V30 608 H 53.0717 -1.88398 3.14487 0
M  V30 609 H 52.7197 -4.30112 2.60793 0
M  V30 610 H 52.4197 -3.96962 4.33238 0
M  V30 611 H 53.9437 -4.75528 3.83022 0
M  V30 612 H 55.3577 -2.80737 4.99859 0
M  V30 613 H 53.7547 -2.25223 5.56232 0
M  V30 614 H 54.8247 -1.11835 4.71827 0
M  V30 615 N 56.1678 -1.49265 -0.50573 0
M  V30 616 C 57.4138 -1.58748 -1.26202 0
M  V30 617 C 57.7468 -0.271227 -1.92297 0
M  V30 618 O 57.0218 0.724831 -1.80489 0
M  V30 619 C 57.3048 -2.74332 -2.33268 0
M  V30 620 C 57.1578 -4.15737 -1.71705 0
M  V30 621 C 58.4768 -2.85576 -3.34865 0
M  V30 622 H 55.5958 -0.577826 -0.457478 0
M  V30 623 H 58.2378 -1.81532 -0.560897 0
M  V30 624 H 56.3878 -2.55036 -2.93068 0
M  V30 625 H 58.0598 -4.46537 -1.15769 0
M  V30 626 H 56.3028 -4.21605 -1.02135 0
M  V30 627 H 56.9738 -4.92477 -2.49341 0
M  V30 628 H 59.4498 -3.03127 -2.8505 0
M  V30 629 H 58.3258 -3.68135 -4.07146 0
M  V30 630 H 58.5868 -1.94732 -3.96903 0
M  V30 631 N 57.6459 0.756429 -1.3826 0
M  V30 632 C 58.8939 1.51248 -1.34047 0
M  V30 633 C 59.2149 1.94875 0.0698372 0
M  V30 634 O 58.4849 1.67436 1.01696 0
M  V30 635 H 57.0649 0.561018 -0.493222 0
M  V30 636 H 59.7269 0.899347 -1.7291 0
M  V30 637 H 58.8229 2.40472 -1.98947 0
M  V30 638 N 59.124 1.23083 0.984299 0
M  V30 639 C 60.054 1.03292 2.09411 0
M  V30 640 C 61.035 -0.048923 1.7003 0
M  V30 641 O 62.22 0.114967 1.93859 0
M  V30 642 C 59.35 0.619155 3.41736 0
M  V30 643 C 58.304 1.64791 3.95004 0
M  V30 644 C 57.63 1.0897 5.23478 0
M  V30 645 C 58.93 3.03999 4.24714 0
M  V30 646 H 60.624 1.96119 2.26225 0
M  V30 647 H 58.17 0.944344 1.08711 0
M  V30 648 H 60.123 0.467777 4.18796 0
M  V30 649 H 58.847 -0.344786 3.24775 0
M  V30 650 H 57.506 1.78721 3.20085 0
M  V30 651 H 57.154 0.11686 5.02864 0
M  V30 652 H 56.854 1.77704 5.60085 0
M  V30 653 H 58.378 0.950093 6.03163 0
M  V30 654 H 59.792 2.93393 4.92538 0
M  V30 655 H 58.189 3.69936 4.72512 0
M  V30 656 H 59.259 3.53285 3.32142 0
M  V30 657 N 60.6021 -1.18246 1.0419 0
M  V30 658 C 61.5321 -2.24127 0.654914 0
M  V30 659 C 62.5131 -1.66617 -0.342451 0
M  V30 660 O 63.6981 -1.92924 -0.222277 0
M  V30 661 C 60.8281 -3.47295 0.0183757 0
M  V30 662 C 59.7821 -4.17563 0.939414 0
M  V30 663 C 59.1081 -5.34438 0.167286 0
M  V30 664 C 60.4081 -4.70917 2.25908 0
M  V30 665 H 62.1021 -2.56753 1.54007 0
M  V30 666 H 59.6481 -1.23414 0.74195 0
M  V30 667 H 61.6011 -4.20572 -0.264082 0
M  V30 668 H 60.3251 -3.13907 -0.901664 0
M  V30 669 H 58.9841 -3.46186 1.20628 0
M  V30 670 H 58.6321 -4.97298 -0.7552 0
M  V30 671 H 58.3321 -5.82388 0.780901 0
M  V30 672 H 59.8561 -6.10504 -0.108125 0
M  V30 673 H 61.2701 -5.35882 2.03724 0
M  V30 674 H 59.6671 -5.29406 2.82577 0
M  V30 675 H 60.7371 -3.88272 2.9047 0
M  V30 676 N 62.0802 -0.821533 -1.34494 0
M  V30 677 C 63.4962 -0.507117 -1.51329 0
M  V30 678 C 63.6962 0.968964 -1.76673 0
M  V30 679 O 62.7522 1.75348 -1.81685 0
M  V30 680 C 64.0652 -1.36544 -2.67911 0
M  V30 681 C 65.6132 -1.36242 -2.81793 0
M  V30 682 C 66.0882 -2.2052 -4.01416 0
M  V30 683 N 67.5792 -2.18136 -4.08621 0
M  V30 684 C 68.3142 -2.80095 -5.00334 0
M  V30 685 N 67.8102 -3.51039 -5.9728 0
M  V30 686 N 69.6032 -2.69656 -4.93196 0
M  V30 687 H 61.7542 -1.77729 -1.16302 0
M  V30 688 H 64.0172 -0.757291 -0.570276 0
M  V30 689 H 63.7232 -2.41361 -2.55808 0
M  V30 690 H 63.5972 -1.02917 -3.62888 0
M  V30 691 H 65.9842 -0.322041 -2.93338 0
M  V30 692 H 66.0652 -1.73866 -1.87628 0
M  V30 693 H 65.7092 -3.24607 -3.90631 0
M  V30 694 H 65.6392 -1.80247 -4.94791 0
M  V30 695 H 68.1302 -1.6653 -3.39229 0
M  V30 696 H 68.4432 -3.95565 -6.63889 0
M  V30 697 H 66.7882 -3.55145 -5.97409 0
M  V30 698 H 69.9792 -2.13808 -4.16418 0
M  V30 699 H 70.1522 -3.1823 -5.64476 0
M  V30 700 N 63.5583 1.46682 -0.576371 0
M  V30 701 C 64.8063 2.02013 -0.0594163 0
M  V30 702 C 65.1273 1.45101 1.30271 0
M  V30 703 O 64.3973 0.633317 1.8538 0
M  V30 704 H 62.9773 0.746759 -0.0189745 0
M  V30 705 H 65.6393 1.79862 -0.750717 0
M  V30 706 H 64.7353 3.12097 0.014345 0
M  V30 707 N 65.0364 0.313813 1.54444 0
M  V30 708 C 66.2614 -0.296681 2.05267 0
M  V30 709 C 66.6864 -1.45757 1.18897 0
M  V30 710 O 66.0444 -1.80239 0.195886 0
M  V30 711 C 66.0924 -0.71831 3.53373 0
M  V30 712 O 65.1964 -1.82175 3.69981 0
M  V30 713 H 64.5374 -0.0554061 0.661684 0
M  V30 714 H 67.0674 0.459387 1.99376 0
M  V30 715 H 67.0774 -1.00364 3.95463 0
M  V30 716 H 65.7524 0.130821 4.15694 0
M  V30 717 H 64.3294 -1.53598 3.39797 0
M  V30 718 N 66.5145 -1.57545 0.0417849 0
M  V30 719 C 67.7615 -1.92317 -0.634082 0
M  V30 720 C 68.0895 -0.919334 -1.71402 0
M  V30 721 O 67.3445 0.0698253 -1.95575 0
M  V30 722 C 67.6435 -3.33794 -1.27735 0
M  V30 723 C 67.3095 -4.49716 -0.326543 0
M  V30 724 C 65.9715 -4.81156 -0.0648814 0
M  V30 725 C 68.3235 -5.20182 0.325623 0
M  V30 726 C 65.6515 -5.80414 0.856539 0
M  V30 727 C 68.0035 -6.20424 1.23518 0
M  V30 728 C 66.6675 -6.50298 1.5056 0
M  V30 729 H 65.9375 -0.703736 -0.232027 0
M  V30 730 H 68.5845 -1.91205 0.106259 0
M  V30 731 H 66.8895 -3.31228 -2.09274 0
M  V30 732 H 68.5865 -3.57975 -1.80707 0
M  V30 733 H 65.1765 -4.25176 -0.540665 0
M  V30 734 H 69.3605 -4.96112 0.136546 0
M  V30 735 H 64.6165 -6.019 1.07363 0
M  V30 736 H 68.7905 -6.74141 1.74664 0
M  V30 737 H 66.4175 -7.27025 2.22123 0
M  V30 738 N 67.9926 0.231505 -1.5589 0
M  V30 739 C 68.9256 1.31369 -1.86595 0
M  V30 740 C 69.9036 1.45671 -0.722397 0
M  V30 741 O 71.0876 1.61642 -0.969743 0
M  V30 742 C 68.2146 2.68529 -2.06421 0
M  V30 743 C 67.2606 2.71295 -3.29092 0
M  V30 744 S 68.0936 2.26358 -4.85306 0
M  V30 745 C 69.2496 3.65414 -5.08157 0
M  V30 746 H 69.4826 1.05128 -2.78092 0
M  V30 747 H 67.0156 0.433259 -1.48197 0
M  V30 748 H 68.9736 3.47499 -2.18528 0
M  V30 749 H 67.6346 2.91999 -1.15738 0
M  V30 750 H 66.8276 3.72063 -3.39978 0
M  V30 751 H 66.4296 2.0038 -3.15791 0
M  V30 752 H 68.7216 4.6103 -4.96445 0
M  V30 753 H 69.6646 3.5945 -6.10083 0
M  V30 754 H 70.0726 3.5864 -4.35933 0
M  V30 755 N 69.4707 1.49531 0.497807 0
M  V30 756 C 70.7177 1.59179 1.25173 0
M  V30 757 C 71.0457 0.279932 1.92475 0
M  V30 758 O 70.3007 -0.732383 1.81479 0
M  V30 759 C 70.5997 2.70252 2.33878 0
M  V30 760 C 70.2657 4.11644 1.84012 0
M  V30 761 C 68.9277 4.50121 1.70132 0
M  V30 762 C 71.2797 5.00121 1.46725 0
M  V30 763 C 68.6077 5.74845 1.17348 0
M  V30 764 C 70.9597 6.25366 0.95392 0
M  V30 765 C 69.6237 6.6267 0.801538 0
M  V30 766 H 68.8937 0.582478 0.45804 0
M  V30 767 H 71.5407 1.83373 0.551948 0
M  V30 768 H 69.8457 2.40041 3.09657 0
M  V30 769 H 71.5427 2.74925 2.9192 0
M  V30 770 H 68.1327 3.81274 1.95775 0
M  V30 771 H 72.3167 4.71048 1.56294 0
M  V30 772 H 67.5727 6.02444 1.04264 0
M  V30 773 H 71.7467 6.93301 0.656225 0
M  V30 774 H 69.3737 7.59197 0.390351 0
M  V30 775 N 70.9488 -0.749086 1.3866 0
M  V30 776 C 71.8818 -1.87111 1.30631 0
M  V30 777 C 72.8598 -1.61572 0.18251 0
M  V30 778 O 74.0438 -1.85019 0.360592 0
M  V30 779 C 71.1708 -3.22815 1.02511 0
M  V30 780 C 70.2168 -3.67234 2.1689 0
M  V30 781 S 71.0498 -3.78245 3.79066 0
M  V30 782 C 72.2058 -5.16761 3.53142 0
M  V30 783 H 72.4388 -1.93636 2.25594 0
M  V30 784 H 69.9718 -0.912525 1.24549 0
M  V30 785 H 71.9298 -4.01181 0.869701 0
M  V30 786 H 70.5908 -3.13964 0.0925884 0
M  V30 787 H 69.7838 -4.65677 1.92771 0
M  V30 788 H 69.3858 -2.96034 2.28561 0
M  V30 789 H 71.6778 -6.02656 3.09534 0
M  V30 790 H 72.6208 -5.45902 4.50995 0
M  V30 791 H 73.0288 -4.85771 2.87554 0
M  V30 792 N 72.4269 -1.23603 -0.977757 0
M  V30 793 C 73.3899 -1.02069 -2.05218 0
M  V30 794 C 74.3899 0.0184305 -1.60789 0
M  V30 795 O 75.5799 -0.221569 -1.72785 0
M  V30 796 C 72.7119 -0.544926 -3.36517 0
M  V30 797 H 73.9049 -1.9742 -2.25755 0
M  V30 798 H 71.4579 -1.05684 -1.15155 0
M  V30 799 H 72.1929 0.412241 -3.21669 0
M  V30 800 H 71.9779 -1.2948 -3.70105 0
M  V30 801 H 73.4679 -0.414985 -4.15533 0
M  V30 802 N 73.905 1.17692 -1.04816 0
M  V30 803 C 75.182 1.83768 -0.669963 0
M  V30 804 C 75.562 1.93232 0.849986 0
M  V30 805 O 74.91 1.46397 1.75443 0
M  V30 806 C 75.12 3.21641 -1.35455 0
M  V30 807 C 76.468 3.97592 -1.49017 0
M  V30 808 O 77.492 3.31107 -1.31326 0
M  V30 809 O 76.351 5.16729 -1.77914 0
M  V30 810 H 73.445 0.792799 -0.235368 0
M  V30 811 H 75.991 1.25021 -1.14751 0
M  V30 812 H 74.763 3.097 -2.39168 0
M  V30 813 H 74.386 3.88052 -0.866107 0
M  V30 814 N 75.3831 0.828654 1.34056 0
M  V30 815 C 76.3131 0.269443 2.3194 0
M  V30 816 C 77.2941 -0.617247 1.58506 0
M  V30 817 O 78.4791 -0.542931 1.86456 0
M  V30 818 C 75.6091 -0.564793 3.42677 0
M  V30 819 C 74.5631 0.225241 4.27407 0
M  V30 820 C 73.8891 -0.7321 5.29664 0
M  V30 821 C 75.1891 1.43663 5.02154 0
M  V30 822 H 76.8831 1.08728 2.7896 0
M  V30 823 H 74.4291 0.524283 1.34117 0
M  V30 824 H 76.3821 -0.966233 4.10173 0
M  V30 825 H 75.1061 -1.41574 2.9432 0
M  V30 826 H 73.7651 0.608117 3.61521 0
M  V30 827 H 73.4131 -1.57916 4.77568 0
M  V30 828 H 73.1131 -0.20767 5.87233 0
M  V30 829 H 74.6371 -1.13128 6.00029 0
M  V30 830 H 76.0511 1.1089 5.62473 0
M  V30 831 H 74.4481 1.89711 5.69324 0
M  V30 832 H 75.5181 2.21181 4.31517 0
M  V30 833 N 76.8612 -1.46375 0.584142 0
M  V30 834 C 78.1012 -2.0427 0.0729695 0
M  V30 835 C 78.4652 -1.44563 -1.26355 0
M  V30 836 O 79.6662 -1.93667 -1.86405 0
M  V30 837 C 77.9372 -3.57399 0.00967464 0
M  V30 838 S 79.4962 -4.36551 -0.443714 0
M  V30 839 H 76.3142 -0.709975 0.0381673 0
M  V30 840 H 78.9162 -1.79398 0.776962 0
M  V30 841 H 77.6202 -3.98372 0.986319 0
M  V30 842 H 77.1512 -3.8681 -0.717044 0
M  V30 843 H 79.1662 -4.66237 -1.69816 0
M  V30 844 N 78.3393 -0.321999 -1.54275 0
M  V30 845 C 79.7553 0.0306999 -1.5957 0
M  V30 846 C 79.9553 1.50614 -1.33857 0
M  V30 847 O 79.0113 2.2619 -1.12223 0
M  V30 848 C 80.3243 -0.386122 -2.98211 0
M  V30 849 C 81.8723 -0.336647 -3.11184 0
M  V30 850 C 82.3473 -0.728607 -4.52167 0
M  V30 851 N 83.8383 -0.681952 -4.58152 0
M  V30 852 C 84.5733 -0.957449 -5.6535 0
M  V30 853 N 84.0693 -1.3 -6.80494 0
M  V30 854 N 85.8623 -0.883113 -5.55119 0
M  V30 855 H 78.0133 -1.28332 -1.69247 0
M  V30 856 H 80.2763 -0.521716 -0.791528 0
M  V30 857 H 79.9823 -1.41404 -3.22022 0
M  V30 858 H 79.8563 0.249662 -3.76373 0
M  V30 859 H 82.2433 0.682058 -2.8711 0
M  V30 860 H 82.3243 -1.00734 -2.3513 0
M  V30 861 H 81.9683 -1.74522 -4.76974 0
M  V30 862 H 81.8983 -0.0356152 -5.26588 0
M  V30 863 H 84.3893 -0.428985 -3.75457 0
M  V30 864 H 84.7023 -1.49563 -7.58189 0
M  V30 865 H 83.0473 -1.33824 -6.81994 0
M  V30 866 H 86.2383 -0.615001 -4.64042 0
M  V30 867 H 86.4113 -1.10118 -6.38575 0
M  V30 868 N 79.8174 1.5752 -0.0501392 0
M  V30 869 C 80.7274 2.14952 0.939827 0
M  V30 870 C 81.7434 1.10706 1.34239 0
M  V30 871 O 82.9194 1.42869 1.41952 0
M  V30 872 C 79.9844 2.68232 2.19665 0
M  V30 873 C 79.0454 3.87272 1.85253 0
M  V30 874 C 78.2784 4.38002 3.04943 0
M  V30 875 O 78.5014 3.87811 4.18281 0
M  V30 876 O 77.4354 5.29602 2.86017 0
M  V30 877 H 81.2614 2.9986 0.481392 0
M  V30 878 H 78.8464 1.4841 0.171699 0
M  V30 879 H 80.7284 3.02475 2.93406 0
M  V30 880 H 79.4034 1.86395 2.64648 0
M  V30 881 H 78.3104 3.5792 1.0883 0
M  V30 882 H 79.6434 4.70336 1.4507 0
M  V30 883 N 81.2955 -0.223234 1.56011 0
M  V30 884 C 82.5415 -0.949279 1.79211 0
M  V30 885 C 82.8745 -1.84054 0.619494 0
M  V30 886 O 82.1495 -1.90726 -0.381317 0
M  V30 887 C 82.4325 -1.78965 3.12479 0
M  V30 888 C 82.2855 -0.924997 4.40186 0
M  V30 889 C 83.6045 -2.76774 3.42175 0
M  V30 890 H 80.7235 -0.343676 0.651963 0
M  V30 891 H 83.3655 -0.218253 1.88742 0
M  V30 892 H 81.5155 -2.41291 3.04485 0
M  V30 893 H 83.1875 -0.318615 4.60198 0
M  V30 894 H 81.4305 -0.230344 4.33188 0
M  V30 895 H 82.1015 -1.54735 5.29869 0
M  V30 896 H 84.5775 -2.24584 3.50287 0
M  V30 897 H 83.4535 -3.32678 4.36597 0
M  V30 898 H 83.7145 -3.54429 2.64258 0
M  V30 899 N 82.7736 -1.49793 -0.48987 0
M  V30 900 C 83.7056 -1.63413 -1.60713 0
M  V30 901 C 84.7186 -0.516329 -1.54395 0
M  V30 902 O 85.9076 -0.788812 -1.60125 0
M  V30 903 C 83.0076 -1.58516 -2.99543 0
M  V30 904 C 82.1806 -2.86016 -3.30928 0
M  V30 905 C 81.2396 -2.74018 -4.49222 0
M  V30 906 O 80.2656 -3.47964 -4.50455 0
M  V30 907 N 81.4676 -1.86309 -5.4979 0
M  V30 908 H 84.2326 -2.59777 -1.49452 0
M  V30 909 H 81.7936 -1.47022 -0.677955 0
M  V30 910 H 83.7856 -1.48128 -3.76617 0
M  V30 911 H 82.3556 -0.69965 -3.0467 0
M  V30 912 H 81.5756 -3.10672 -2.42645 0
M  V30 913 H 82.8636 -3.70521 -3.487 0
M  V30 914 H 82.2616 -1.2551 -5.51601 0
M  V30 915 H 80.8186 -1.81837 -6.25922 0
M  V30 916 N 84.2517 0.741722 -1.39055 0
M  V30 917 C 85.4977 1.50336 -1.36113 0
M  V30 918 C 85.8307 1.94148 0.0450796 0
M  V30 919 O 85.1057 1.66301 1.00868 0
M  V30 920 C 85.3887 2.74773 -2.32749 0
M  V30 921 C 85.2417 2.37023 -3.82283 0
M  V30 922 C 86.5607 3.76846 -2.27322 0
M  V30 923 H 83.6797 0.545351 -0.495743 0
M  V30 924 H 86.3217 0.848624 -1.69995 0
M  V30 925 H 84.4717 3.30639 -2.03986 0
M  V30 926 H 86.1437 1.8684 -4.21768 0
M  V30 927 H 84.3867 1.69334 -3.99385 0
M  V30 928 H 85.0577 3.26104 -4.45376 0
M  V30 929 H 87.5337 3.30548 -2.5274 0
M  V30 930 H 86.4097 4.6159 -2.97028 0
M  V30 931 H 86.6707 4.23286 -1.27599 0
M  V30 932 N 85.7298 1.2412 0.971189 0
M  V30 933 C 86.9548 1.10667 1.75407 0
M  V30 934 C 87.3798 -0.337048 1.85056 0
M  V30 935 O 86.7378 -1.24396 1.31892 0
M  V30 936 C 86.7858 1.74726 3.15441 0
M  V30 937 O 85.8898 1.01566 3.99697 0
M  V30 938 H 85.2308 0.387341 0.539317 0
M  V30 939 H 87.7608 1.64358 1.2185 0
M  V30 940 H 87.7708 1.80341 3.6598 0
M  V30 941 H 86.4458 2.79773 3.07734 0
M  V30 942 H 85.0228 1.03713 3.58187 0
M  V30 943 N 87.2079 -1.17134 1.05439 0
M  V30 944 C 88.1579 -2.1919 0.627675 0
M  V30 945 C 89.1419 -1.57328 -0.337147 0
M  V30 946 O 90.3339 -1.76329 -0.153976 0
M  V30 947 C 87.4629 -3.43299 0.00651435 0
M  V30 948 C 86.5489 -4.12255 0.995312 0
M  V30 949 N 86.9399 -4.56997 2.16765 0
M  V30 950 C 85.2379 -4.38316 0.824336 0
M  V30 951 C 85.9389 -5.10239 2.7934 0
M  V30 952 N 84.9149 -5.02595 2.07122 0
M  V30 953 H 88.7169 -2.5149 1.52086 0
M  V30 954 H 86.2309 -1.33491 0.924868 0
M  V30 955 H 88.2279 -4.15693 -0.316965 0
M  V30 956 H 86.8879 -3.1249 -0.882033 0
M  V30 957 H 87.8989 -4.51006 2.54587 0
M  V30 958 H 84.5759 -4.17498 -0.0129526 0
M  V30 959 H 85.9659 -5.54961 3.78772 0
M  V30 960 N 88.686 -0.835752 -1.33615 0
M  V30 961 C 89.596 -0.269088 -2.33052 0
M  V30 962 C 90.612 0.603251 -1.63208 0
M  V30 963 O 91.788 0.508112 -1.94885 0
M  V30 964 C 88.853 0.549091 -3.42324 0
M  V30 965 C 87.914 -0.347156 -4.27894 0
M  V30 966 C 87.147 0.43207 -5.31948 0
M  V30 967 O 87.37 1.66409 -5.45586 0
M  V30 968 O 86.304 -0.192298 -6.01593 0
M  V30 969 H 90.13 -1.09243 -2.83372 0
M  V30 970 H 87.715 -0.598198 -1.36901 0
M  V30 971 H 89.597 1.01414 -4.09015 0
M  V30 972 H 88.272 1.34955 -2.94226 0
M  V30 973 H 87.179 -0.859979 -3.64081 0
M  V30 974 H 88.512 -1.1123 -4.79467 0
M  V30 975 N 90.1641 1.46063 -0.591896 0
M  V30 976 C 91.4101 2.02638 -0.0811191 0
M  V30 977 C 91.7431 1.4613 1.27905 0
M  V30 978 O 91.0181 0.629908 1.84017 0
M  V30 979 C 91.3011 3.60091 -0.0252436 0
M  V30 980 C 91.1541 4.26965 -1.41496 0
M  V30 981 C 92.4731 4.3496 0.670685 0
M  V30 982 H 89.5921 0.73635 -0.0309524 0
M  V30 983 H 92.2341 1.741 -0.760859 0
M  V30 984 H 90.3841 3.84535 0.553624 0
M  V30 985 H 92.0561 4.13756 -2.0397 0
M  V30 986 H 90.2991 3.85971 -1.98011 0
M  V30 987 H 90.9701 5.35781 -1.32825 0
M  V30 988 H 93.4461 4.15716 0.178825 0
M  V30 989 H 92.3221 5.44686 0.678837 0
M  V30 990 H 92.5831 4.06685 1.73379 0
M  V30 991 N 91.6422 0.330177 1.54103 0
M  V30 992 C 92.9192 -0.325007 1.92881 0
M  V30 993 C 93.2992 -1.6934 1.26045 0
M  V30 994 O 92.6472 -2.24855 0.406526 0
M  V30 995 C 92.8572 -0.410634 3.46576 0
M  V30 996 C 94.2052 -0.667801 4.19316 0
M  V30 997 O 95.2292 -0.49329 3.52768 0
M  V30 998 O 94.0882 -1.00491 5.37181 0
M  V30 999 H 91.1822 -0.186873 0.80561 0
M  V30 1000 H 93.7282 0.380376 1.65382 0
M  V30 1001 H 92.5002 0.550164 3.87413 0
M  V30 1002 H 92.1232 -1.16333 3.802 0
M  V30 1003 N 93.1203 -1.57491 0.0584922 0
M  V30 1004 C 94.3673 -1.92978 -0.613648 0
M  V30 1005 C 94.6953 -0.937461 -1.70417 0
M  V30 1006 O 93.9503 0.049078 -1.95638 0
M  V30 1007 C 94.2493 -3.3513 -1.24188 0
M  V30 1008 C 93.9153 -4.50037 -0.278826 0
M  V30 1009 C 92.5773 -4.81198 -0.0138447 0
M  V30 1010 C 94.9293 -5.19807 0.380777 0
M  V30 1011 C 92.2573 -5.79473 0.918052 0
M  V30 1012 C 94.6093 -6.19079 1.30091 0
M  V30 1013 C 93.2733 -6.48665 1.57449 0
M  V30 1014 H 92.5433 -0.706157 -0.22455 0
M  V30 1015 H 95.1903 -1.91082 0.126533 0
M  V30 1016 H 93.4953 -3.33429 -2.05749 0
M  V30 1017 H 95.1923 -3.59871 -1.769 0
M  V30 1018 H 91.7823 -4.25726 -0.495539 0
M  V30 1019 H 95.9663 -4.95939 0.189158 0
M  V30 1020 H 91.2223 -6.00727 1.1374 0
M  V30 1021 H 95.3963 -6.7225 1.81804 0
M  V30 1022 H 93.0233 -7.24628 2.29822 0
M  V30 1023 N 94.5984 0.214957 -1.56127 0
M  V30 1024 C 95.5314 1.29382 -1.87977 0
M  V30 1025 C 96.5094 1.44897 -0.737807 0
M  V30 1026 O 97.6934 1.60605 -0.986833 0
M  V30 1027 C 94.8204 2.66325 -2.09258 0
M  V30 1028 C 93.8664 2.67789 -3.31951 0
M  V30 1029 S 94.6994 2.21198 -4.8768 0
M  V30 1030 C 95.8554 3.60003 -5.12004 0
M  V30 1031 H 96.0884 1.02173 -2.79192 0
M  V30 1032 H 93.6214 0.417516 -1.48648 0
M  V30 1033 H 95.5794 3.45162 -2.22201 0
M  V30 1034 H 94.2404 2.90755 -1.18829 0
M  V30 1035 H 93.4334 3.68436 -3.43906 0
M  V30 1036 H 93.0354 1.9702 -3.17898 0
M  V30 1037 H 95.3274 4.55739 -5.01307 0
M  V30 1038 H 96.2704 3.52959 -6.13861 0
M  V30 1039 H 96.6784 3.53996 -4.39712 0
M  V30 1040 N 96.0765 1.50051 0.48192 0
M  V30 1041 C 97.3045 1.64237 1.25832 0
M  V30 1042 C 97.7195 0.321336 1.86045 0
M  V30 1043 O 97.0765 -0.695478 1.68729 0
M  V30 1044 C 97.1275 2.72548 2.37487 0
M  V30 1045 O 96.8485 3.99529 1.79745 0
M  V30 1046 C 98.3495 2.9761 3.28547 0
M  V30 1047 H 95.5695 0.55237 0.380957 0
M  V30 1048 H 98.1135 1.96207 0.576467 0
M  V30 1049 H 96.2685 2.43303 3.01467 0
M  V30 1050 H 96.6825 4.59342 2.5319 0
M  V30 1051 H 98.1565 3.77084 4.03127 0
M  V30 1052 H 98.6335 2.0826 3.86684 0
M  V30 1053 H 99.2395 3.28345 2.70314 0
M  V30 1054 N 97.5546 -0.734337 1.39446 0
M  V30 1055 C 98.5176 -1.83004 1.37994 0
M  V30 1056 C 99.5176 -1.58397 0.276938 0
M  V30 1057 O 100.708 -1.65785 0.534875 0
M  V30 1058 C 97.8396 -3.20802 1.1532 0
M  V30 1059 H 99.0326 -1.85694 2.35494 0
M  V30 1060 H 96.5856 -0.938059 1.25021 0
M  V30 1061 H 97.3206 -3.23772 0.185036 0
M  V30 1062 H 97.1056 -3.4006 1.95197 0
M  V30 1063 H 98.5956 -4.00862 1.17046 0
M  V30 1064 N 99.0327 -1.24633 -0.964593 0
M  V30 1065 C 100.258 -1.11596 -1.74818 0
M  V30 1066 C 100.683 0.32723 -1.85232 0
M  V30 1067 O 100.041 1.23695 -1.32549 0
M  V30 1068 C 100.089 -1.76397 -3.1451 0
M  V30 1069 O 99.1927 -1.03685 -3.99153 0
M  V30 1070 H 98.5337 -0.390196 -0.537255 0
M  V30 1071 H 101.064 -1.65002 -1.20977 0
M  V30 1072 H 101.074 -1.8228 -3.65018 0
M  V30 1073 H 99.7487 -2.81401 -3.06246 0
M  V30 1074 H 98.3257 -1.05611 -3.57632 0
M  V30 1075 N 100.511 1.16574 -1.06058 0
M  V30 1076 C 101.736 1.91493 -0.796562 0
M  V30 1077 C 102.161 1.76773 0.642868 0
M  V30 1078 O 101.519 1.09142 1.44768 0
M  V30 1079 C 101.567 3.40293 -1.19303 0
M  V30 1080 O 100.671 4.11074 -0.330394 0
M  V30 1081 H 100.012 0.596678 -0.291326 0
M  V30 1082 H 102.542 1.47708 -1.41575 0
M  V30 1083 H 102.552 3.91057 -1.16356 0
M  V30 1084 H 101.227 3.50326 -2.24153 0
M  V30 1085 H 99.8038 3.70513 -0.421225 0
M  V30 1086 N 101.989 0.842826 1.3317 0
M  V30 1087 C 103.219 0.453397 2.01564 0
M  V30 1088 C 103.627 -0.951147 1.63554 0
M  V30 1089 O 102.97 -1.63021 0.846746 0
M  V30 1090 C 103.032 0.499013 3.5602 0
M  V30 1091 C 102.696 1.86037 4.1742 0
M  V30 1092 C 103.693 2.82416 4.36506 0
M  V30 1093 C 101.378 2.15428 4.53757 0
M  V30 1094 C 103.372 4.06346 4.91082 0
M  V30 1095 C 101.059 3.39615 5.0804 0
M  V30 1096 C 102.057 4.3489 5.26649 0
M  V30 1097 O 101.745 5.5688 5.79776 0
M  V30 1098 H 101.477 0.177871 0.652179 0
M  V30 1099 H 104.031 1.13808 1.70988 0
M  V30 1100 H 102.261 -0.242467 3.85939 0
M  V30 1101 H 103.95 0.126852 4.05702 0
M  V30 1102 H 104.716 2.6101 4.08777 0
M  V30 1103 H 100.595 1.42061 4.38565 0
M  V30 1104 H 104.139 4.80722 5.05522 0
M  V30 1105 H 100.036 3.60876 5.352 0
M  V30 1106 H 100.804 5.58674 5.98185 0
M  V30 1107 N 103.467 -1.45747 0.599634 0
M  V30 1108 C 104.715 -2.01893 0.0915472 0
M  V30 1109 C 105.036 -1.47155 -1.27946 0
M  V30 1110 O 104.306 -0.66273 -1.84349 0
M  V30 1111 H 102.886 -0.746363 0.0308524 0
M  V30 1112 H 105.548 -1.78645 0.779237 0
M  V30 1113 H 104.644 -3.1208 0.0353086 0
M  V30 1114 N 104.945 -0.338344 -1.53925 0
M  V30 1115 C 106.17 0.263987 -2.05713 0
M  V30 1116 C 106.595 1.43847 -1.21201 0
M  V30 1117 O 105.953 1.79904 -0.224535 0
M  V30 1118 C 106.001 0.662 -3.54471 0
M  V30 1119 O 105.105 1.76265 -3.72833 0
M  V30 1120 H 104.446 0.0448722 -0.662482 0
M  V30 1121 H 106.976 -0.491048 -1.9862 0
M  V30 1122 H 106.986 0.940594 -3.9701 0
M  V30 1123 H 105.661 -0.196937 -4.15433 0
M  V30 1124 H 104.238 1.48173 -3.42198 0
M  V30 1125 N 106.423 1.57458 -0.0668435 0
M  V30 1126 C 107.671 1.92919 0.602214 0
M  V30 1127 C 107.992 0.947215 1.70449 0
M  V30 1128 O 107.262 -0.00544117 1.95899 0
M  V30 1129 H 105.842 0.71217 0.22544 0
M  V30 1130 H 108.504 1.94508 -0.123535 0
M  V30 1131 H 107.6 2.94589 1.03073 0
M  V30 1132 N 107.901 -0.206675 1.56239 0
M  V30 1133 C 108.834 -1.28383 1.88661 0
M  V30 1134 C 109.812 -1.44504 0.745481 0
M  V30 1135 O 110.996 -1.60079 0.995336 0
M  V30 1136 C 108.123 -2.65211 2.10667 0
M  V30 1137 C 107.169 -2.66025 3.33366 0
M  V30 1138 S 108.002 -2.18609 4.88846 0
M  V30 1139 C 109.158 -3.57283 5.13906 0
M  V30 1140 H 109.391 -1.00691 2.7973 0
M  V30 1141 H 106.924 -0.409627 1.48867 0
M  V30 1142 H 108.882 -3.43979 2.24029 0
M  V30 1143 H 107.543 -2.90121 1.20369 0
M  V30 1144 H 106.736 -3.66607 3.45855 0
M  V30 1145 H 106.338 -1.95331 3.18938 0
M  V30 1146 H 108.63 -4.53074 5.03717 0
M  V30 1147 H 109.573 -3.49699 6.15724 0
M  V30 1148 H 109.981 -3.51659 4.41583 0
M  V30 1149 N 109.379 -1.50304 -0.473955 0
M  V30 1150 C 110.604 -1.65175 -1.25427 0
M  V30 1151 C 111.029 -0.333673 -1.85117 0
M  V30 1152 O 110.387 0.702114 -1.67153 0
M  V30 1153 C 110.435 -2.74295 -2.34082 0
M  V30 1154 O 109.539 -2.35349 -3.38651 0
M  V30 1155 H 108.88 -0.551944 -0.369126 0
M  V30 1156 H 111.41 -1.96662 -0.564364 0
M  V30 1157 H 111.42 -2.97285 -2.79438 0
M  V30 1158 H 110.095 -3.69959 -1.90008 0
M  V30 1159 H 108.672 -2.22794 -2.99027 0
M  V30 1160 N 110.857 0.726932 -1.39834 0
M  V30 1161 C 112.085 1.51613 -1.40787 0
M  V30 1162 C 112.5 1.88799 -0.00451505 0
M  V30 1163 O 111.857 1.54662 0.968809 0
M  V30 1164 C 111.908 2.79863 -2.28821 0
M  V30 1165 O 111.629 2.44253 -3.63692 0
M  V30 1166 C 113.13 3.73837 -2.38245 0
M  V30 1167 H 110.35 0.468264 -0.480593 0
M  V30 1168 H 112.894 0.897607 -1.83748 0
M  V30 1169 H 111.049 3.38027 -1.89252 0
M  V30 1170 H 111.463 3.26695 -4.1033 0
M  V30 1171 H 112.937 4.60699 -3.04073 0
M  V30 1172 H 113.414 4.16153 -1.40403 0
M  V30 1173 H 114.02 3.21589 -2.78317 0
M  V30 1174 N 112.336 1.25143 0.95797 0
M  V30 1175 C 113.564 1.12424 1.73691 0
M  V30 1176 C 113.979 -0.322304 1.86029 0
M  V30 1177 O 113.336 -1.22186 1.35561 0
M  V30 1178 C 113.387 1.76933 3.15241 0
M  V30 1179 O 113.108 3.15932 3.03511 0
M  V30 1180 C 114.609 1.6995 4.09429 0
M  V30 1181 H 111.829 0.3923 0.544373 0
M  V30 1182 H 114.373 1.6544 1.20207 0
M  V30 1183 H 112.528 1.27895 3.6568 0
M  V30 1184 H 112.942 3.47598 3.9278 0
M  V30 1185 H 114.416 2.19753 5.06372 0
M  V30 1186 H 114.893 0.662619 4.34173 0
M  V30 1187 H 115.499 2.18461 3.64904 0
M  V30 1188 N 113.814 -1.1601 1.06675 0
M  V30 1189 C 115.23 -1.38622 0.790948 0
M  V30 1190 C 115.43 -1.92109 -0.607965 0
M  V30 1191 O 114.486 -2.12239 -1.36787 0
M  V30 1192 C 115.799 -2.36347 1.85905 0
M  V30 1193 C 117.347 -2.50023 1.88301 0
M  V30 1194 C 117.822 -3.51033 2.94176 0
M  V30 1195 N 119.313 -3.58563 2.93235 0
M  V30 1196 C 120.048 -4.36521 3.71803 0
M  V30 1197 N 119.544 -5.17869 4.602 0
M  V30 1198 N 121.337 -4.31541 3.60178 0
M  V30 1199 H 113.488 -0.796294 1.96908 0
M  V30 1200 H 115.751 -0.412597 0.853503 0
M  V30 1201 H 115.457 -2.04147 2.86386 0
M  V30 1202 H 115.331 -3.36042 1.71334 0
M  V30 1203 H 117.718 -2.81524 0.884769 0
M  V30 1204 H 117.799 -1.5035 2.06951 0
M  V30 1205 H 117.443 -3.20268 3.94196 0
M  V30 1206 H 117.373 -4.50445 2.72776 0
M  V30 1207 H 119.864 -3.00496 2.29152 0
M  V30 1208 H 120.177 -5.74578 5.16797 0
M  V30 1209 H 118.522 -5.17199 4.64253 0
M  V30 1210 H 121.713 -3.67051 2.90502 0
M  V30 1211 H 121.886 -4.9205 4.21653 0
M  V30 1212 N 115.292 -0.849877 -1.32721 0
M  V30 1213 C 116.569 -0.372405 -1.92022 0
M  V30 1214 C 116.949 1.1435 -1.77447 0
M  V30 1215 O 116.297 1.96296 -1.16962 0
M  V30 1216 C 116.507 -0.831482 -3.3895 0
M  V30 1217 C 117.855 -0.845882 -4.16089 0
M  V30 1218 O 118.879 -0.775806 -3.47649 0
M  V30 1219 O 117.738 -0.943753 -5.38289 0
M  V30 1220 H 114.832 -0.107667 -0.819961 0
M  V30 1221 H 117.378 -0.93646 -1.41522 0
M  V30 1222 H 116.15 -1.87448 -3.4348 0
M  V30 1223 H 115.773 -0.24461 -3.96847 0
M  V30 1224 N 116.77 1.45427 -0.607355 0
M  V30 1225 C 118.016 2.0254 -0.102607 0
M  V30 1226 C 118.349 1.47478 1.26348 0
M  V30 1227 O 117.624 0.64939 1.83339 0
M  V30 1228 C 117.907 3.60044 -0.0634347 0
M  V30 1229 C 117.76 4.2544 -1.46017 0
M  V30 1230 C 119.079 4.35646 0.624514 0
M  V30 1231 H 116.198 0.73598 -0.0387607 0
M  V30 1232 H 118.84 1.73284 -0.779282 0
M  V30 1233 H 116.99 3.85101 0.512808 0
M  V30 1234 H 118.662 4.11569 -2.08347 0
M  V30 1235 H 116.905 3.83849 -2.02094 0
M  V30 1236 H 117.576 5.34342 -1.385 0
M  V30 1237 H 120.052 4.15882 0.134723 0
M  V30 1238 H 118.928 5.45376 0.621028 0
M  V30 1239 H 119.189 4.08501 1.69055 0
M  V30 1240 N 118.248 0.346503 1.53744 0
M  V30 1241 C 119.195 -0.508914 2.25119 0
M  V30 1242 C 120.165 -1.09315 1.25058 0
M  V30 1243 O 121.35 -1.12921 1.53797 0
M  V30 1244 C 118.49 -1.65246 3.02965 0
M  V30 1245 C 117.603 -1.09525 4.17886 0
M  V30 1246 C 116.738 -2.20634 4.83212 0
M  V30 1247 C 115.777 -1.62279 5.90196 0
M  V30 1248 N 114.914 -2.67143 6.49291 0
M  V30 1249 H 119.754 0.106283 2.9781 0
M  V30 1250 H 117.291 0.0642227 1.4696 0
M  V30 1251 H 119.249 -2.32574 3.4636 0
M  V30 1252 H 117.879 -2.2386 2.32565 0
M  V30 1253 H 116.931 -0.312818 3.79112 0
M  V30 1254 H 118.243 -0.628444 4.94825 0
M  V30 1255 H 117.397 -2.95821 5.29693 0
M  V30 1256 H 116.136 -2.70659 4.05703 0
M  V30 1257 H 115.141 -0.855989 5.43096 0
M  V30 1258 H 116.366 -1.13102 6.69615 0
M  V30 1259 H 114.312 -3.16417 5.74645 0
M  V30 1260 H 114.229 -2.25093 7.21713 0
M  V30 1261 H 115.497 -3.4209 7.00425 0
M  V30 1262 N 119.726 -1.57421 0.075193 0
M  V30 1263 C 120.975 -1.92794 -0.592731 0
M  V30 1264 C 121.288 -0.957478 -1.70563 0
M  V30 1265 O 122.494 -1.20417 -2.43335 0
M  V30 1266 C 120.95 -3.42495 -1.10569 0
M  V30 1267 C 120.558 -4.47994 -0.0236121 0
M  V30 1268 C 122.302 -3.86864 -1.74748 0
M  V30 1269 C 120.209 -5.88829 -0.550803 0
M  V30 1270 H 119.139 -0.719591 -0.225177 0
M  V30 1271 H 121.79 -1.82902 0.147978 0
M  V30 1272 H 120.172 -3.47471 -1.89947 0
M  V30 1273 H 121.346 -4.54637 0.751099 0
M  V30 1274 H 119.661 -4.13113 0.522159 0
M  V30 1275 H 122.258 -4.8947 -2.15229 0
M  V30 1276 H 122.601 -3.24417 -2.60882 0
M  V30 1277 H 123.134 -3.84504 -1.01986 0
M  V30 1278 H 119.873 -6.54929 0.273457 0
M  V30 1279 H 119.393 -5.85698 -1.29296 0
M  V30 1280 H 121.072 -6.38811 -1.02613 0
M  V30 1281 N 121.204 0.198386 -1.56346 0
M  V30 1282 C 122.134 1.24865 -1.9731 0
M  V30 1283 C 123.115 1.47651 -0.844576 0
M  V30 1284 O 124.3 1.59444 -1.10866 0
M  V30 1285 C 121.43 2.59358 -2.30977 0
M  V30 1286 C 120.384 2.5119 -3.46537 0
M  V30 1287 C 119.71 3.89926 -3.65871 0
M  V30 1288 C 121.01 2.03977 -4.80823 0
M  V30 1289 H 122.704 0.908252 -2.85291 0
M  V30 1290 H 120.25 0.435462 -1.37258 0
M  V30 1291 H 122.203 3.33011 -2.58228 0
M  V30 1292 H 120.927 2.95132 -1.39874 0
M  V30 1293 H 119.586 1.79993 -3.19371 0
M  V30 1294 H 119.234 4.23046 -2.72105 0
M  V30 1295 H 118.934 3.85336 -4.4361 0
M  V30 1296 H 120.458 4.65205 -3.95495 0
M  V30 1297 H 121.872 2.67386 -5.07127 0
M  V30 1298 H 120.269 2.10397 -5.62008 0
M  V30 1299 H 121.339 0.992861 -4.74626 0
M  V30 1300 N 122.682 1.50554 0.465978 0
M  V30 1301 C 123.629 1.6979 1.56333 0
M  V30 1302 C 124.599 0.539239 1.57103 0
M  V30 1303 O 125.784 0.770401 1.74555 0
M  V30 1304 C 122.924 1.80273 2.94271 0
M  V30 1305 C 122.037 3.07674 3.0325 0
M  V30 1306 C 121.172 3.08922 4.32135 0
M  V30 1307 C 120.211 4.30755 4.34875 0
M  V30 1308 N 119.348 4.29714 5.55239 0
M  V30 1309 H 124.188 2.63472 1.39235 0
M  V30 1310 H 121.725 1.30602 0.676873 0
M  V30 1311 H 123.683 1.84332 3.74269 0
M  V30 1312 H 122.313 0.900258 3.09992 0
M  V30 1313 H 121.365 3.13062 2.16094 0
M  V30 1314 H 122.677 3.97642 3.01135 0
M  V30 1315 H 121.831 3.11738 5.20485 0
M  V30 1316 H 120.57 2.16792 4.36866 0
M  V30 1317 H 119.575 4.28146 3.44922 0
M  V30 1318 H 120.8 5.24117 4.31831 0
M  V30 1319 H 118.746 3.4044 5.60746 0
M  V30 1320 H 118.663 5.13456 5.54886 0
M  V30 1321 H 119.931 4.36683 6.457 0
M  V30 1322 N 124.16 -0.719506 1.40217 0
M  V30 1323 C 125.437 -1.47221 1.28784 0
M  V30 1324 C 125.817 -2.10883 -0.0956067 0
M  V30 1325 O 125.165 -1.99833 -1.10811 0
M  V30 1326 C 125.375 -2.5111 2.42373 0
M  V30 1327 C 126.723 -3.17053 2.82423 0
M  V30 1328 O 127.747 -2.61429 2.41937 0
M  V30 1329 O 126.606 -4.17742 3.52355 0
M  V30 1330 H 123.7 -0.654491 0.50554 0
M  V30 1331 H 126.246 -0.752014 1.52128 0
M  V30 1332 H 125.018 -2.02556 3.34793 0
M  V30 1333 H 124.641 -3.3067 2.20778 0
M  V30 1334 N 125.638 -1.25649 -0.95132 0
M  V30 1335 C 126.568 -1.08808 -2.06599 0
M  V30 1336 C 127.549 0.00382547 -1.701 0
M  V30 1337 O 128.734 -0.166325 -1.93486 0
M  V30 1338 C 125.864 -0.709542 -3.39975 0
M  V30 1339 C 124.818 -1.75206 -3.90496 0
M  V30 1340 C 124.144 -1.22811 -5.20405 0
M  V30 1341 C 125.444 -3.15153 -4.16504 0
M  V30 1342 H 127.138 -2.02048 -2.20946 0
M  V30 1343 H 124.684 -0.972835 -1.06169 0
M  V30 1344 H 126.637 -0.578649 -4.17408 0
M  V30 1345 H 125.361 0.258556 -3.25575 0
M  V30 1346 H 124.02 -1.87145 -3.15234 0
M  V30 1347 H 123.668 -0.250145 -5.02378 0
M  V30 1348 H 123.368 -1.92492 -5.55176 0
M  V30 1349 H 124.892 -1.10968 -6.00432 0
M  V30 1350 H 126.306 -3.06349 -4.84586 0
M  V30 1351 H 124.703 -3.82333 -4.62538 0
M  V30 1352 H 125.773 -3.61966 -3.22658 0
M  V30 1353 N 127.117 1.15442 -1.07289 0
M  V30 1354 C 128.394 1.82306 -0.708792 0
M  V30 1355 C 128.774 1.94991 0.808807 0
M  V30 1356 O 128.122 1.50085 1.72298 0
M  V30 1357 C 128.332 3.18695 -1.42247 0
M  V30 1358 C 129.68 3.94341 -1.57417 0
M  V30 1359 O 130.704 3.28247 -1.38319 0
M  V30 1360 O 129.563 5.12839 -1.88834 0
M  V30 1361 H 126.657 0.787628 -0.252132 0
M  V30 1362 H 129.203 1.22559 -1.17377 0
M  V30 1363 H 127.975 3.04557 -2.45684 0
M  V30 1364 H 127.598 3.86128 -0.948223 0
M  V30 1365 N 128.595 0.856903 1.32268 0
M  V30 1366 C 129.505 0.306131 2.32594 0
M  V30 1367 C 130.521 -0.577209 1.64147 0
M  V30 1368 O 131.697 -0.477043 1.95669 0
M  V30 1369 C 128.762 -0.494561 3.43154 0
M  V30 1370 C 127.823 0.415186 4.27288 0
M  V30 1371 C 127.056 -0.347387 5.32568 0
M  V30 1372 O 127.279 -1.57708 5.48165 0
M  V30 1373 O 126.213 0.287982 6.01211 0
M  V30 1374 H 130.039 1.13737 2.81598 0
M  V30 1375 H 127.624 0.619902 1.35932 0
M  V30 1376 H 129.506 -0.948944 4.10576 0
M  V30 1377 H 128.181 -1.30257 2.96336 0
M  V30 1378 H 127.088 0.917793 3.62667 0
M  V30 1379 H 128.421 1.18844 4.77637 0
M  V30 1380 N 130.073 -1.45103 0.615059 0
M  V30 1381 C 131.35 -1.95549 0.0448276 0
M  V30 1382 C 131.73 -1.55737 -1.4251 0
M  V30 1383 O 131.078 -0.823556 -2.13143 0
M  V30 1384 C 131.288 -3.48098 0.250785 0
M  V30 1385 C 132.636 -4.24384 0.135509 0
M  V30 1386 O 133.66 -3.55738 0.181299 0
M  V30 1387 O 132.519 -5.46493 0.0268878 0
M  V30 1388 H 129.613 -0.8264 -0.0314845 0
M  V30 1389 H 132.159 -1.55232 0.685642 0
M  V30 1390 H 130.931 -3.7007 1.27139 0
M  V30 1391 H 130.554 -3.95323 -0.424937 0
M  V30 1392 N 131.551 -0.354651 -1.53558 0
M  V30 1393 C 132.8 0.239504 -2.00273 0
M  V30 1394 C 133.113 1.50759 -1.24623 0
M  V30 1395 O 134.319 2.17968 -1.61871 0
M  V30 1396 C 132.775 0.477341 -3.5672 0
M  V30 1397 C 132.383 -0.775488 -4.41237 0
M  V30 1398 C 134.127 1.02975 -4.11821 0
M  V30 1399 C 132.034 -0.507838 -5.89216 0
M  V30 1400 H 130.964 0.0932743 -0.748208 0
M  V30 1401 H 133.615 -0.471701 -1.77334 0
M  V30 1402 H 131.997 1.24953 -3.7577 0
M  V30 1403 H 133.171 -1.54963 -4.33962 0
M  V30 1404 H 131.486 -1.25033 -3.97185 0
M  V30 1405 H 134.083 1.24513 -5.2 0
M  V30 1406 H 134.426 1.98862 -3.65731 0
M  V30 1407 H 134.959 0.317994 -3.96527 0
M  V30 1408 H 131.698 -1.43674 -6.39561 0
M  V30 1409 H 131.218 0.228011 -5.99366 0
M  V30 1410 H 132.897 -0.129238 -6.46871 0
M  V30 1411 N 133.029 1.57378 -0.0835403 0
M  V30 1412 C 134.445 1.57246 0.273109 0
M  V30 1413 C 134.645 1.09385 1.69225 0
M  V30 1414 O 133.701 0.765051 2.40631 0
M  V30 1415 C 135.014 3.00614 0.0720628 0
M  V30 1416 C 136.562 3.12684 0.1407 0
M  V30 1417 C 137.037 4.57989 -0.0322094 0
M  V30 1418 N 138.528 4.63194 0.0230085 0
M  V30 1419 C 139.263 5.73335 -0.0861941 0
M  V30 1420 N 138.759 6.9235 -0.24958 0
M  V30 1421 N 140.552 5.62093 -0.0282886 0
M  V30 1422 H 132.703 1.86801 -1.0109 0
M  V30 1423 H 134.966 0.861687 -0.395222 0
M  V30 1424 H 134.672 3.39786 -0.907662 0
M  V30 1425 H 134.546 3.68193 0.81936 0
M  V30 1426 H 136.933 2.73391 1.11092 0
M  V30 1427 H 137.014 2.47719 -0.637896 0
M  V30 1428 H 136.658 4.97973 -0.999247 0
M  V30 1429 H 136.588 5.21 0.765937 0
M  V30 1430 H 139.079 3.77613 0.14722 0
M  V30 1431 H 139.392 7.72117 -0.324733 0
M  V30 1432 H 137.737 6.94415 -0.285097 0
M  V30 1433 H 140.928 4.67997 0.0981408 0
M  V30 1434 H 141.101 6.47895 -0.116845 0
M  V30 1435 N 134.507 -0.190092 1.56449 0
M  V30 1436 C 135.755 -0.907908 1.80559 0
M  V30 1437 C 136.076 -1.83583 0.657438 0
M  V30 1438 O 135.346 -1.93203 -0.323924 0
M  V30 1439 H 133.926 -0.338247 0.666032 0
M  V30 1440 H 136.588 -0.194403 1.93928 0
M  V30 1441 H 135.684 -1.49604 2.73907 0
M  V30 1442 N 135.985 -1.50799 -0.457987 0
M  V30 1443 C 136.932 -1.70617 -1.5543 0
M  V30 1444 C 137.902 -0.547562 -1.56815 0
M  V30 1445 O 139.087 -0.779647 -1.74144 0
M  V30 1446 C 136.227 -1.81831 -2.93311 0
M  V30 1447 C 135.34 -3.09278 -3.01615 0
M  V30 1448 C 134.475 -3.11209 -4.30491 0
M  V30 1449 C 133.514 -4.33055 -4.32585 0
M  V30 1450 N 132.651 -4.32652 -5.52952 0
M  V30 1451 H 137.491 -2.64207 -1.37836 0
M  V30 1452 H 135.028 -1.30959 -0.669937 0
M  V30 1453 H 136.986 -1.86314 -3.73287 0
M  V30 1454 H 135.616 -0.916685 -3.0951 0
M  V30 1455 H 134.668 -3.14203 -2.1443 0
M  V30 1456 H 135.98 -3.99233 -2.99022 0
M  V30 1457 H 135.134 -3.14494 -5.18824 0
M  V30 1458 H 133.873 -2.19106 -4.35711 0
M  V30 1459 H 132.878 -4.29969 -3.42647 0
M  V30 1460 H 134.103 -5.264 -4.29046 0
M  V30 1461 H 132.049 -3.43409 -5.58933 0
M  V30 1462 H 131.966 -5.16392 -5.52155 0
M  V30 1463 H 133.234 -4.40101 -6.43375 0
M  V30 1464 N 137.463 0.71206 -1.40597 0
M  V30 1465 C 138.74 1.46536 -1.29563 0
M  V30 1466 C 139.12 2.10931 0.0844217 0
M  V30 1467 O 138.468 2.00418 1.0975 0
M  V30 1468 C 138.678 2.49821 -2.43701 0
M  V30 1469 C 140.026 3.15551 -2.841 0
M  V30 1470 O 141.05 2.60142 -2.4332 0
M  V30 1471 O 139.909 4.15867 -3.54566 0
M  V30 1472 H 137.003 0.651801 -0.509004 0
M  V30 1473 H 139.549 0.743935 -1.52524 0
M  V30 1474 H 138.321 2.00778 -3.35863 0
M  V30 1475 H 137.944 3.29495 -2.22528 0
M  V30 1476 N 138.941 1.26152 0.944643 0
M  V30 1477 C 140.187 1.11657 1.69294 0
M  V30 1478 C 140.52 -0.339926 1.91202 0
M  V30 1479 O 139.795 -1.24994 1.49019 0
M  V30 1480 C 140.078 1.88236 3.06984 0
M  V30 1481 C 139.931 3.41772 2.92424 0
M  V30 1482 C 141.25 1.67343 4.07043 0
M  V30 1483 H 138.369 0.407004 0.614424 0
M  V30 1484 H 141.011 1.55106 1.09737 0
M  V30 1485 H 139.161 1.51308 3.57824 0
M  V30 1486 H 140.833 3.88433 2.48832 0
M  V30 1487 H 139.076 3.68974 2.28124 0
M  V30 1488 H 139.747 3.90579 3.90067 0
M  V30 1489 H 142.223 1.99509 3.65151 0
M  V30 1490 H 141.099 2.23346 5.01406 0
M  V30 1491 H 141.36 0.617158 4.37771 0
M  V30 1492 N 140.419 -1.14872 1.07899 0
M  V30 1493 C 141.349 -2.2193 0.725887 0
M  V30 1494 C 142.33 -1.67622 -0.28927 0
M  V30 1495 O 143.515 -1.93533 -0.160787 0
M  V30 1496 C 140.645 -3.47061 0.128856 0
M  V30 1497 C 139.599 -4.14363 1.07178 0
M  V30 1498 C 138.925 -5.33636 0.337229 0
M  V30 1499 C 140.225 -4.63492 2.40775 0
M  V30 1500 H 141.919 -2.51724 1.62097 0
M  V30 1501 H 139.465 -1.20991 0.780838 0
M  V30 1502 H 141.418 -4.21199 -0.130147 0
M  V30 1503 H 140.142 -3.16617 -0.80134 0
M  V30 1504 H 138.801 -3.42173 1.3158 0
M  V30 1505 H 138.449 -4.99449 -0.596606 0
M  V30 1506 H 138.149 -5.79609 0.965788 0
M  V30 1507 H 139.673 -6.10539 0.0861567 0
M  V30 1508 H 141.087 -5.2913 2.20669 0
M  V30 1509 H 139.484 -5.20148 2.99276 0
M  V30 1510 H 140.554 -3.78834 3.02676 0
M  V30 1511 N 141.898 -0.863906 -1.31812 0
M  V30 1512 C 143.147 -0.46801 -1.96195 0
M  V30 1513 C 143.46 0.983474 -1.69077 0
M  V30 1514 O 144.666 1.48523 -2.27273 0
M  V30 1515 C 143.122 -0.785995 -3.51212 0
M  V30 1516 C 142.73 -2.25383 -3.87178 0
M  V30 1517 C 144.474 -0.458274 -4.22019 0
M  V30 1518 C 142.381 -2.51455 -5.3528 0
M  V30 1519 H 141.311 -0.171283 -0.734287 0
M  V30 1520 H 143.962 -1.05597 -1.50072 0
M  V30 1521 H 142.344 -0.127359 -3.95795 0
M  V30 1522 H 143.518 -2.95502 -3.53575 0
M  V30 1523 H 141.833 -2.54698 -3.2942 0
M  V30 1524 H 144.43 -0.630369 -5.30971 0
M  V30 1525 H 144.773 0.600834 -4.11941 0
M  V30 1526 H 145.306 -1.07319 -3.8305 0
M  V30 1527 H 142.045 -3.56025 -5.50387 0
M  V30 1528 H 141.565 -1.85923 -5.70257 0
M  V30 1529 H 143.244 -2.35874 -6.02472 0
M  V30 1530 N 143.376 1.44774 -0.622745 0
M  V30 1531 C 144.622 2.0242 -0.124083 0
M  V30 1532 C 144.955 1.4881 1.24777 0
M  V30 1533 O 144.23 0.668799 1.8264 0
M  V30 1534 C 144.513 3.59957 -0.101619 0
M  V30 1535 C 144.366 4.23867 -1.50521 0
M  V30 1536 C 145.685 4.36284 0.578272 0
M  V30 1537 H 142.804 0.735528 -0.0465645 0
M  V30 1538 H 145.446 1.72447 -0.797617 0
M  V30 1539 H 143.596 3.85623 0.471934 0
M  V30 1540 H 145.268 4.09336 -2.12701 0
M  V30 1541 H 143.511 3.81684 -2.06154 0
M  V30 1542 H 144.182 5.32843 -1.4416 0
M  V30 1543 H 146.658 4.16001 0.0906057 0
M  V30 1544 H 145.534 5.46004 0.563149 0
M  V30 1545 H 145.795 4.10271 1.64713 0
M  V30 1546 N 144.854 0.36279 1.53368 0
M  V30 1547 C 145.764 -0.492994 2.29362 0
M  V30 1548 C 146.78 -1.09507 1.35219 0
M  V30 1549 O 147.956 -1.10662 1.68273 0
M  V30 1550 C 145.021 -1.61855 3.066 0
M  V30 1551 C 144.082 -1.04429 4.16405 0
M  V30 1552 C 143.315 -2.11621 4.89951 0
M  V30 1553 O 143.538 -3.32684 4.63333 0
M  V30 1554 O 142.472 -1.74835 5.75948 0
M  V30 1555 H 146.298 0.125331 3.03441 0
M  V30 1556 H 143.883 0.127253 1.48857 0
M  V30 1557 H 145.765 -2.27302 3.54841 0
M  V30 1558 H 144.44 -2.22233 2.3536 0
M  V30 1559 H 143.347 -0.353819 3.72423 0
M  V30 1560 H 144.68 -0.485113 4.89804 0
M  V30 1561 N 146.332 -1.57332 0.0918853 0
M  V30 1562 C 147.609 -1.85691 -0.614668 0
M  V30 1563 C 147.989 -0.988146 -1.86545 0
M  V30 1564 O 147.337 -0.0597055 -2.28422 0
M  V30 1565 C 147.547 -3.36294 -0.933126 0
M  V30 1566 C 148.895 -4.04275 -1.29796 0
M  V30 1567 O 149.919 -3.41157 -1.02424 0
M  V30 1568 O 148.778 -5.1564 -1.81047 0
M  V30 1569 H 145.872 -0.767802 -0.307261 0
M  V30 1570 H 148.418 -1.69244 0.12434 0
M  V30 1571 H 147.19 -3.91273 -0.0456404 0
M  V30 1572 H 146.813 -3.58076 -1.72822 0
M  V30 1573 N 147.81 0.181792 -1.56548 0
M  V30 1574 C 149.059 0.898348 -1.8059 0
M  V30 1575 C 149.372 1.83862 -0.667379 0
M  V30 1576 O 150.578 2.59678 -0.792446 0
M  V30 1577 C 149.034 1.64791 -3.19956 0
M  V30 1578 C 148.642 0.751789 -4.41647 0
M  V30 1579 C 150.386 2.35331 -3.53298 0
M  V30 1580 C 148.293 1.50098 -5.72035 0
M  V30 1581 H 147.223 0.339194 -0.673397 0
M  V30 1582 H 149.874 0.151413 -1.82874 0
M  V30 1583 H 148.256 2.43921 -3.11959 0
M  V30 1584 H 149.43 -0.0018076 -4.608 0
M  V30 1585 H 147.745 0.156562 -4.16106 0
M  V30 1586 H 150.342 2.91958 -4.47956 0
M  V30 1587 H 150.685 3.10164 -2.77676 0
M  V30 1588 H 151.218 1.63154 -3.62803 0
M  V30 1589 H 147.957 0.795175 -6.50659 0
M  V30 1590 H 147.477 2.22817 -5.56878 0
M  V30 1591 H 149.156 2.05125 -6.13622 0
M  V30 1592 N 149.288 1.51039 0.449983 0
M  V30 1593 C 150.537 1.62317 1.19733 0
M  V30 1594 C 150.85 0.339101 1.92638 0
M  V30 1595 O 152.056 0.331069 2.69474 0
M  V30 1596 C 150.512 2.86608 2.17678 0
M  V30 1597 C 150.12 4.21972 1.50479 0
M  V30 1598 C 151.864 3.07239 2.92924 0
M  V30 1599 C 149.771 5.37426 2.46834 0
M  V30 1600 H 148.701 0.604532 0.450619 0
M  V30 1601 H 151.352 1.77494 0.465625 0
M  V30 1602 H 149.734 2.65037 2.94231 0
M  V30 1603 H 150.908 4.53878 0.795716 0
M  V30 1604 H 149.223 4.07117 0.874344 0
M  V30 1605 H 151.82 3.90668 3.65079 0
M  V30 1606 H 152.163 2.19807 3.5354 0
M  V30 1607 H 152.696 3.29091 2.23481 0
M  V30 1608 H 149.435 6.27079 1.90926 0
M  V30 1609 H 148.955 5.09912 3.15832 0
M  V30 1610 H 150.634 5.68862 3.08228 0
M  V30 1611 N 150.766 -0.704594 1.40972 0
M  V30 1612 C 152.043 -1.45847 1.30338 0
M  V30 1613 C 152.423 -2.10973 -0.0732344 0
M  V30 1614 O 151.771 -2.00997 -1.08685 0
M  V30 1615 C 151.981 -2.48525 2.45023 0
M  V30 1616 C 153.329 -3.1404 2.8577 0
M  V30 1617 O 154.353 -2.58848 2.44696 0
M  V30 1618 O 153.212 -4.13981 3.56766 0
M  V30 1619 H 150.306 -0.649092 0.512454 0
M  V30 1620 H 152.852 -0.735836 1.52917 0
M  V30 1621 H 151.624 -1.98994 3.36923 0
M  V30 1622 H 151.247 -3.2831 2.24272 0
M  V30 1623 N 152.244 -1.26651 -0.937939 0
M  V30 1624 C 153.469 -1.15279 -1.72411 0
M  V30 1625 C 153.894 0.287866 -1.85884 0
M  V30 1626 O 153.252 1.20855 -1.35143 0
M  V30 1627 C 153.3 -1.83028 -3.10698 0
M  V30 1628 O 152.404 -1.12128 -3.96864 0
M  V30 1629 H 151.745 -0.401504 -0.528858 0
M  V30 1630 H 154.275 -1.67531 -1.1745 0
M  V30 1631 H 154.285 -1.89981 -3.6107 0
M  V30 1632 H 152.96 -2.87833 -3.00208 0
M  V30 1633 H 151.537 -1.13173 -3.55312 0
M  V30 1634 N 153.722 1.14298 -1.08507 0
M  V30 1635 C 154.97 1.84993 -0.813763 0
M  V30 1636 C 155.291 1.83405 0.662393 0
M  V30 1637 O 154.561 1.28319 1.48024 0
M  V30 1638 H 153.141 0.684966 -0.298045 0
M  V30 1639 H 155.803 1.385 -1.37126 0
M  V30 1640 H 154.899 2.89788 -1.15884 0
M  V30 1641 N 155.201 0.870884 1.31352 0
M  V30 1642 C 156.149 0.316445 2.30437 0
M  V30 1643 C 157.143 -0.568965 1.59559 0
M  V30 1644 O 158.349 -0.454964 1.74155 0
M  V30 1645 H 154.724 0.0836521 0.747333 0
M  V30 1646 H 156.695 1.16606 2.74673 0
M  V30 1647 C 155.444 -0.46635 3.44558 0
M  V30 1648 H 154.767 0.205687 3.99271 0
M  V30 1649 H 156.207 -0.819614 4.16003 0
M  V30 1650 C 154.666 -1.65797 2.9328 0
M  V30 1651 O 155.196 -2.75728 2.92125 0
M  V30 1652 N 153.402 -1.49041 2.4947 0
M  V30 1653 H 152.949 -0.59612 2.50608 0
M  V30 1654 H 152.907 -2.28911 2.15516 0
M  V30 1655 N 156.679 -1.44442 0.630414 0
M  V30 1656 C 157.907 -2.06414 0.141671 0
M  V30 1657 C 158.322 -1.47105 -1.18345 0
M  V30 1658 O 157.679 -0.593662 -1.72574 0
M  V30 1659 C 157.73 -3.61494 0.0199784 0
M  V30 1660 O 157.451 -4.18594 1.29269 0
M  V30 1661 C 158.952 -4.40499 -0.497544 0
M  V30 1662 H 156.172 -0.666292 0.0793452 0
M  V30 1663 H 158.716 -1.85323 0.864614 0
M  V30 1664 H 156.871 -3.8185 -0.653402 0
M  V30 1665 H 157.285 -5.12026 1.13707 0
M  V30 1666 H 158.759 -5.49433 -0.531708 0
M  V30 1667 H 159.236 -4.11895 -1.52445 0
M  V30 1668 H 159.842 -4.25061 0.142562 0
M  V30 1669 N 158.157 -0.370918 -1.53173 0
M  V30 1670 C 159.087 0.464847 -2.28826 0
M  V30 1671 C 160.068 1.07936 -1.31468 0
M  V30 1672 O 161.253 1.0956 -1.60344 0
M  V30 1673 C 158.383 1.60196 -3.08147 0
M  V30 1674 C 157.337 1.11443 -4.13237 0
M  V30 1675 C 156.663 2.3422 -4.80672 0
M  V30 1676 C 157.963 0.195384 -5.21934 0
M  V30 1677 H 159.657 -0.166329 -2.98938 0
M  V30 1678 H 157.203 -0.0814359 -1.4377 0
M  V30 1679 H 159.156 2.19332 -3.59822 0
M  V30 1680 H 157.88 2.26045 -2.35735 0
M  V30 1681 H 156.539 0.545727 -3.62515 0
M  V30 1682 H 156.187 2.98537 -4.04827 0
M  V30 1683 H 155.887 2.02269 -5.51689 0
M  V30 1684 H 157.411 2.94032 -5.35143 0
M  V30 1685 H 158.825 0.694375 -5.69079 0
M  V30 1686 H 157.222 -0.0335027 -6.00091 0
M  V30 1687 H 158.292 -0.760961 -4.78892 0
M  V30 1688 N 159.635 1.57281 -0.100228 0
M  V30 1689 C 160.86 1.99302 0.573881 0
M  V30 1690 C 161.285 0.979059 1.60611 0
M  V30 1691 O 160.643 -0.0517803 1.81226 0
M  V30 1692 C 160.691 3.40274 1.19358 0
M  V30 1693 O 159.795 3.41676 2.30935 0
M  V30 1694 H 159.136 0.647944 0.145138 0
M  V30 1695 H 161.666 2.03779 -0.183156 0
M  V30 1696 H 161.676 3.78078 1.53365 0
M  V30 1697 H 160.351 4.13594 0.437385 0
M  V30 1698 H 158.928 3.15672 1.98509 0
M  V30 1699 N 161.113 -0.173488 1.56642 0
M  V30 1700 C 162.06 -1.21482 1.96242 0
M  V30 1701 C 163.03 -1.44104 0.826027 0
M  V30 1702 O 164.215 -1.5688 1.08597 0
M  V30 1703 C 161.355 -2.54964 2.32567 0
M  V30 1704 C 160.468 -2.39739 3.59373 0
M  V30 1705 C 159.603 -3.66072 3.84921 0
M  V30 1706 C 158.642 -3.45771 5.05083 0
M  V30 1707 N 157.779 -4.64169 5.26775 0
M  V30 1708 H 162.619 -0.870123 2.85014 0
M  V30 1709 H 160.156 -0.418245 1.41029 0
M  V30 1710 H 162.114 -3.32758 2.5165 0
M  V30 1711 H 160.744 -2.87433 1.46908 0
M  V30 1712 H 159.796 -1.53131 3.48217 0
M  V30 1713 H 161.108 -2.20683 4.47326 0
M  V30 1714 H 160.262 -4.52303 4.0436 0
M  V30 1715 H 159.001 -3.88105 2.9534 0
M  V30 1716 H 158.006 -2.57927 4.85545 0
M  V30 1717 H 159.231 -3.25163 5.96193 0
M  V30 1718 H 157.177 -4.86425 4.40144 0
M  V30 1719 H 157.094 -4.48019 6.08946 0
M  V30 1720 H 158.362 -5.51689 5.5069 0
M  V30 1721 N 162.591 -1.51276 -0.441967 0
M  V30 1722 C 163.837 -1.63958 -1.19355 0
M  V30 1723 C 164.17 -0.352543 -1.90973 0
M  V30 1724 O 163.445 0.647627 -1.83401 0
M  V30 1725 C 163.728 -2.83979 -2.21422 0
M  V30 1726 C 163.581 -4.22646 -1.53918 0
M  V30 1727 C 164.9 -2.99521 -3.22451 0
M  V30 1728 H 162.019 -0.596709 -0.432559 0
M  V30 1729 H 164.661 -1.83748 -0.483398 0
M  V30 1730 H 162.811 -2.67237 -2.81987 0
M  V30 1731 H 164.483 -4.51045 -0.967256 0
M  V30 1732 H 162.726 -4.25558 -0.841615 0
M  V30 1733 H 163.397 -5.02609 -2.28229 0
M  V30 1734 H 165.873 -3.14944 -2.71937 0
M  V30 1735 H 164.749 -3.85072 -3.91166 0
M  V30 1736 H 165.01 -2.11391 -3.88287 0
M  V30 1737 N 164.069 0.697108 -1.41344 0
M  V30 1738 C 165.485 1.00751 -1.2378 0
M  V30 1739 C 165.685 2.01105 -0.126066 0
M  V30 1740 O 164.741 2.47295 0.51004 0
M  V30 1741 C 166.054 1.53359 -2.58653 0
M  V30 1742 C 167.602 1.6525 -2.65822 0
M  V30 1743 C 168.077 2.2126 -4.01009 0
M  V30 1744 N 169.568 2.28622 -4.02847 0
M  V30 1745 C 170.303 2.72984 -5.04249 0
M  V30 1746 N 169.799 3.16962 -6.16041 0
M  V30 1747 N 171.592 2.72534 -4.91611 0
M  V30 1748 H 163.743 0.0322662 -2.12375 0
M  V30 1749 H 166.006 0.0768853 -0.944877 0
M  V30 1750 H 165.712 0.870773 -3.4075 0
M  V30 1751 H 165.586 2.51597 -2.81032 0
M  V30 1752 H 167.973 2.30644 -1.84086 0
M  V30 1753 H 168.054 0.655614 -2.47256 0
M  V30 1754 H 167.698 1.56482 -4.83193 0
M  V30 1755 H 167.628 3.21698 -4.16915 0
M  V30 1756 H 170.119 1.97585 -3.22131 0
M  V30 1757 H 170.432 3.49434 -6.89287 0
M  V30 1758 H 168.777 3.14875 -6.1958 0
M  V30 1759 H 171.968 2.37525 -4.0336 0
M  V30 1760 H 172.141 3.06789 -5.70775 0
M  V30 1761 N 165.547 1.27147 0.931209 0
M  V30 1762 C 166.457 1.11372 2.06478 0
M  V30 1763 C 167.473 0.044645 1.73943 0
M  V30 1764 O 168.649 0.250417 1.99837 0
M  V30 1765 C 165.714 0.758838 3.38294 0
M  V30 1766 C 164.775 1.90841 3.84549 0
M  V30 1767 C 164.008 1.57036 5.10074 0
M  V30 1768 O 164.231 0.476645 5.68405 0
M  V30 1769 O 163.165 2.40839 5.51616 0
M  V30 1770 H 166.991 2.06493 2.22698 0
M  V30 1771 H 164.576 1.06301 1.04978 0
M  V30 1772 H 166.458 0.574098 4.17471 0
M  V30 1773 H 165.133 -0.162879 3.2329 0
M  V30 1774 H 164.04 2.14819 3.06274 0
M  V30 1775 H 165.373 2.81021 4.04089 0
M  V30 1776 N 167.025 -1.13721 1.09112 0
M  V30 1777 C 168.274 -1.84275 0.82009 0
M  V30 1778 C 168.587 -1.84253 -0.656509 0
M  V30 1779 O 169.793 -2.50668 -1.04296 0
M  V30 1780 C 168.249 -3.30825 1.41714 0
M  V30 1781 C 167.857 -3.39244 2.92605 0
M  V30 1782 C 169.601 -4.06443 1.22492 0
M  V30 1783 C 167.508 -4.80047 3.45411 0
M  V30 1784 H 166.438 -0.690387 0.30312 0
M  V30 1785 H 169.089 -1.28146 1.31343 0
M  V30 1786 H 167.471 -3.86737 0.851498 0
M  V30 1787 H 168.645 -2.93344 3.55367 0
M  V30 1788 H 166.96 -2.77088 3.10823 0
M  V30 1789 H 169.557 -5.10387 1.59402 0
M  V30 1790 H 169.9 -4.15972 0.165299 0
M  V30 1791 H 170.433 -3.56852 1.75788 0
M  V30 1792 H 167.172 -4.75709 4.50978 0
M  V30 1793 H 166.692 -5.26455 2.87411 0
M  V30 1794 H 168.371 -5.48957 3.42425 0
M  V30 1795 N 168.503 -0.877838 -1.30888 0
M  V30 1796 C 169.433 -0.35534 -2.3078 0
M  V30 1797 C 170.414 0.557994 -1.60687 0
M  V30 1798 O 171.599 0.473355 -1.88343 0
M  V30 1799 C 168.729 0.437221 -3.44537 0
M  V30 1800 C 167.683 -0.383715 -4.26276 0
M  V30 1801 C 167.009 0.535014 -5.32017 0
M  V30 1802 C 168.309 -1.62201 -4.96476 0
M  V30 1803 H 170.003 -1.19007 -2.74732 0
M  V30 1804 H 167.549 -0.573698 -1.32078 0
M  V30 1805 H 169.502 0.813334 -4.13477 0
M  V30 1806 H 168.226 1.30553 -2.99372 0
M  V30 1807 H 166.885 -0.741874 -3.59015 0
M  V30 1808 H 166.533 1.40083 -4.831 0
M  V30 1809 H 166.233 -0.0104211 -5.87599 0
M  V30 1810 H 167.757 0.907799 -6.03814 0
M  V30 1811 H 169.171 -1.31689 -5.5797 0
M  V30 1812 H 167.568 -2.10711 -5.61891 0
M  V30 1813 H 168.638 -2.37044 -4.23011 0
M  V30 1814 N 169.982 1.44106 -0.638065 0
M  V30 1815 C 171.207 2.0685 -0.150916 0
M  V30 1816 C 171.632 1.47417 1.16833 0
M  V30 1817 O 170.99 0.578264 1.71831 0
M  V30 1818 C 171.038 3.60555 -0.05708 0
M  V30 1819 O 170.142 4.00465 0.984972 0
M  V30 1820 H 169.483 0.658151 -0.0879399 0
M  V30 1821 H 172.013 1.84865 -0.876707 0
M  V30 1822 H 172.023 4.07789 0.131232 0
M  V30 1823 H 170.698 4.03193 -1.02021 0
M  V30 1824 H 169.275 3.64849 0.770672 0
M  V30 1825 N 171.46 0.379036 1.52974 0
M  V30 1826 C 172.39 -0.452706 2.29069 0
M  V30 1827 C 173.371 -1.07237 1.32039 0
M  V30 1828 O 174.556 -1.08708 1.60923 0
M  V30 1829 C 171.686 -1.5856 3.08992 0
M  V30 1830 C 170.64 -1.0925 4.13822 0
M  V30 1831 C 169.966 -2.31668 4.81907 0
M  V30 1832 C 171.266 -0.167702 5.22031 0
M  V30 1833 H 172.96 0.182181 2.98845 0
M  V30 1834 H 170.506 0.0890592 1.43724 0
M  V30 1835 H 172.459 -2.1742 3.6098 0
M  V30 1836 H 171.183 -2.24792 2.36931 0
M  V30 1837 H 169.842 -0.526494 3.628 0
M  V30 1838 H 169.49 -2.96386 4.06404 0
M  V30 1839 H 169.19 -1.9934 5.52754 0
M  V30 1840 H 170.714 -2.91189 5.36695 0
M  V30 1841 H 172.128 -0.664186 5.6944 0
M  V30 1842 H 170.525 0.0653265 6.00064 0
M  V30 1843 H 171.595 0.786347 4.78482 0
M  V30 1844 N 172.938 -1.57226 0.108567 0
M  V30 1845 C 174.354 -1.5766 -0.248058 0
M  V30 1846 C 174.554 -1.12063 -1.67464 0
M  V30 1847 O 173.61 -0.803236 -2.39383 0
M  V30 1848 C 174.923 -3.0069 -0.0242287 0
M  V30 1849 C 176.471 -3.12868 -0.0909372 0
M  V30 1850 C 176.946 -4.57879 0.105067 0
M  V30 1851 N 178.437 -4.63172 0.0506846 0
M  V30 1852 C 179.172 -5.73126 0.177396 0
M  V30 1853 N 178.668 -6.91866 0.359696 0
M  V30 1854 N 180.461 -5.61977 0.117709 0
M  V30 1855 H 172.612 -1.85169 1.04049 0
M  V30 1856 H 174.875 -0.85529 0.40888 0
M  V30 1857 H 174.581 -3.38299 0.961604 0
M  V30 1858 H 174.455 -3.6945 -0.76068 0
M  V30 1859 H 176.842 -2.75124 -1.06729 0
M  V30 1860 H 176.923 -2.46672 0.677225 0
M  V30 1861 H 176.567 -4.96321 1.07834 0
M  V30 1862 H 176.497 -5.22153 -0.682954 0
M  V30 1863 H 178.988 -3.778 -0.0871266 0
M  V30 1864 H 179.301 -7.71503 0.447529 0
M  V30 1865 H 177.646 -6.93874 0.395536 0
M  V30 1866 H 180.837 -4.68094 -0.0236741 0
M  V30 1867 H 181.01 -6.47627 0.219905 0
M  V30 1868 N 174.416 0.165178 -1.56732 0
M  V30 1869 C 175.326 1.22423 -2.00125 0
M  V30 1870 C 176.342 1.48084 -0.913619 0
M  V30 1871 O 177.518 1.60112 -1.22172 0
M  V30 1872 C 174.583 2.54197 -2.35764 0
M  V30 1873 C 173.644 2.36343 -3.58386 0
M  V30 1874 C 172.877 3.61834 -3.92316 0
M  V30 1875 O 173.1 4.67267 -3.27135 0
M  V30 1876 O 172.034 3.55579 -4.85641 0
M  V30 1877 H 175.86 0.885886 -2.90492 0
M  V30 1878 H 173.445 0.372518 -1.44681 0
M  V30 1879 H 175.327 3.3192 -2.59629 0
M  V30 1880 H 174.002 2.87598 -1.48557 0
M  V30 1881 H 172.909 1.56632 -3.39731 0
M  V30 1882 H 174.242 2.07865 -4.46154 0
M  V30 1883 N 175.894 1.51508 0.433938 0
M  V30 1884 C 177.305 1.56784 1.01369 0
M  V30 1885 C 177.656 0.393349 1.92217 0
M  V30 1886 O 176.781 -0.489441 2.10792 0
M  V30 1887 C 177.376 2.84144 1.8452 0
M  V30 1888 C 175.935 2.9198 2.37539 0
M  V30 1889 C 175.082 2.51482 1.16843 0
M  V30 1890 H 178.033 1.57236 0.215081 0
M  V30 1891 H 178.054 2.68098 2.70007 0
M  V30 1892 H 177.566 3.69607 1.18373 0
M  V30 1893 H 175.667 2.10955 3.0713 0
M  V30 1894 H 175.78 3.95704 2.70103 0
M  V30 1895 H 174.144 2.04758 1.51481 0
M  V30 1896 H 174.927 3.39293 0.523015 0
M  V30 1897 N 177.372 -0.689602 1.41712 0
M  V30 1898 C 178.319 -1.80345 1.44029 0
M  V30 1899 C 179.289 -1.63478 0.293948 0
M  V30 1900 O 180.474 -1.84244 0.495869 0
M  V30 1901 C 177.614 -3.18272 1.33405 0
M  V30 1902 C 176.727 -3.46529 2.57956 0
M  V30 1903 C 175.862 -4.74103 2.39582 0
M  V30 1904 C 174.901 -4.95347 3.5958 0
M  V30 1905 N 174.038 -6.14151 3.40239 0
M  V30 1906 H 178.878 -1.77698 2.39222 0
M  V30 1907 H 176.415 -0.867688 1.18784 0
M  V30 1908 H 178.373 -3.97956 1.25246 0
M  V30 1909 H 177.003 -3.2008 0.418164 0
M  V30 1910 H 176.055 -2.61207 2.76542 0
M  V30 1911 H 177.367 -3.58126 3.47199 0
M  V30 1912 H 176.521 -5.61853 2.28924 0
M  V30 1913 H 175.26 -4.64763 1.47805 0
M  V30 1914 H 174.265 -4.06044 3.70686 0
M  V30 1915 H 175.49 -5.06542 4.52318 0
M  V30 1916 H 173.436 -6.06013 2.51167 0
M  V30 1917 H 173.353 -6.26543 4.23061 0
M  V30 1918 H 174.621 -7.04619 3.33365 0
M  V30 1919 N 178.85 -1.27639 -0.924453 0
M  V30 1920 C 180.075 -1.17101 -1.71179 0
M  V30 1921 C 180.5 0.268134 -1.86179 0
M  V30 1922 O 179.858 1.19415 -1.36418 0
M  V30 1923 C 179.906 -1.86313 -3.08739 0
M  V30 1924 O 179.01 -1.16331 -3.95652 0
M  V30 1925 H 178.351 -0.407091 -0.524569 0
M  V30 1926 H 180.881 -1.68767 -1.15666 0
M  V30 1927 H 180.891 -1.938 -3.59034 0
M  V30 1928 H 179.566 -2.91001 -2.97138 0
M  V30 1929 H 178.143 -1.16935 -3.54091 0
M  V30 1930 N 180.328 1.1314 -1.09713 0
M  V30 1931 C 181.258 2.20748 -0.761102 0
M  V30 1932 C 182.239 1.68061 0.262566 0
M  V30 1933 O 183.424 1.93765 0.129977 0
M  V30 1934 C 180.554 3.46812 -0.184054 0
M  V30 1935 C 179.508 4.12606 -1.13757 0
M  V30 1936 C 178.834 5.33031 -0.422083 0
M  V30 1937 C 180.134 4.59603 -2.48118 0
M  V30 1938 H 181.828 2.49113 -1.66082 0
M  V30 1939 H 179.374 1.19734 -0.799987 0
M  V30 1940 H 181.327 4.21353 0.0631215 0
M  V30 1941 H 180.051 3.17851 0.750868 0
M  V30 1942 H 178.71 3.40036 -1.37007 0
M  V30 1943 H 178.358 5.00335 0.517072 0
M  V30 1944 H 178.058 5.77999 -1.05788 0
M  V30 1945 H 179.582 6.10325 -0.183277 0
M  V30 1946 H 180.996 5.25552 -2.29059 0
M  V30 1947 H 179.393 5.15321 -3.07514 0
M  V30 1948 H 180.463 3.73971 -3.08665 0
M  V30 1949 N 181.806 0.884767 1.30421 0
M  V30 1950 C 182.769 0.356277 2.26414 0
M  V30 1951 C 183.769 -0.501124 1.52792 0
M  V30 1952 O 184.959 -0.30831 1.7145 0
M  V30 1953 C 182.091 -0.492316 3.37326 0
M  V30 1954 H 183.284 1.20389 2.74675 0
M  V30 1955 H 180.837 0.661607 1.41607 0
M  V30 1956 H 181.572 -1.36052 2.94381 0
M  V30 1957 H 181.357 0.121832 3.91911 0
M  V30 1958 H 182.847 -0.853871 4.08777 0
M  V30 1959 N 183.284 -1.43765 0.645699 0
M  V30 1960 C 184.533 -2.01116 0.153412 0
M  V30 1961 C 184.846 -1.51493 -1.23731 0
M  V30 1962 O 186.052 -2.01067 -1.8244 0
M  V30 1963 C 184.508 -3.59206 0.223473 0
M  V30 1964 C 184.116 -4.17823 1.61642 0
M  V30 1965 C 185.86 -4.23972 -0.211597 0
M  V30 1966 C 183.767 -5.68183 1.64081 0
M  V30 1967 H 182.697 -0.752093 0.0535891 0
M  V30 1968 H 185.348 -1.6482 0.806633 0
M  V30 1969 H 183.73 -3.92867 -0.497118 0
M  V30 1970 H 184.904 -3.95674 2.36176 0
M  V30 1971 H 183.219 -3.65399 1.99681 0
M  V30 1972 H 185.816 -5.34275 -0.213112 0
M  V30 1973 H 186.159 -3.97352 -1.24165 0
M  V30 1974 H 186.692 -3.95166 0.456988 0
M  V30 1975 H 183.431 -5.99559 2.64971 0
M  V30 1976 H 182.951 -5.9241 0.938611 0
M  V30 1977 H 184.63 -6.32085 1.3812 0
M  V30 1978 N 184.763 -0.387143 -1.52771 0
M  V30 1979 C 186.003 0.195537 -2.03463 0
M  V30 1980 C 186.367 1.44222 -1.26744 0
M  V30 1981 O 187.568 2.10192 -1.67549 0
M  V30 1982 C 185.839 0.459097 -3.54439 0
M  V30 1983 S 187.398 1.01237 -4.26962 0
M  V30 1984 H 184.216 0.0552675 -0.708849 0
M  V30 1985 H 186.818 -0.534992 -1.88037 0
M  V30 1986 H 185.522 -0.455382 -4.07866 0
M  V30 1987 H 185.053 1.21811 -3.74066 0
M  V30 1988 H 187.068 2.29492 -4.39941 0
M  V30 1989 N 186.241 1.57166 -0.116904 0
M  V30 1990 C 187.469 1.99473 0.549383 0
M  V30 1991 C 187.884 0.996541 1.60357 0
M  V30 1992 O 187.241 -0.0108731 1.82497 0
M  V30 1993 C 187.292 3.41788 1.17741 0
M  V30 1994 O 187.013 4.37788 0.165362 0
M  V30 1995 C 188.514 3.99216 1.92722 0
M  V30 1996 H 185.734 0.655009 0.145616 0
M  V30 1997 H 188.278 2.03494 -0.202625 0
M  V30 1998 H 186.433 3.38713 1.88021 0
M  V30 1999 H 186.847 5.20806 0.621403 0
M  V30 2000 H 188.321 5.00882 2.31995 0
M  V30 2001 H 188.798 3.3824 2.80161 0
M  V30 2002 H 189.404 4.0583 1.27209 0
M  V30 2003 N 187.719 -0.156864 1.56817 0
M  V30 2004 C 188.649 -1.19589 2.00551 0
M  V30 2005 C 189.63 -1.4536 0.883426 0
M  V30 2006 O 190.815 -1.56449 1.15054 0
M  V30 2007 C 187.945 -2.53143 2.37773 0
M  V30 2008 C 186.899 -2.41913 3.53075 0
M  V30 2009 C 186.225 -3.80088 3.76081 0
M  V30 2010 C 187.525 -1.91157 4.86062 0
M  V30 2011 H 189.219 -0.832293 2.87599 0
M  V30 2012 H 186.765 -0.398918 1.38364 0
M  V30 2013 H 188.718 -3.26047 2.66967 0
M  V30 2014 H 187.442 -2.91319 1.4765 0
M  V30 2015 H 186.101 -1.71462 3.24031 0
M  V30 2016 H 185.749 -4.15683 2.83225 0
M  V30 2017 H 185.449 -3.73439 4.53671 0
M  V30 2018 H 186.973 -4.54556 4.0769 0
M  V30 2019 H 188.387 -2.53846 5.14038 0
M  V30 2020 H 186.784 -1.95422 5.67389 0
M  V30 2021 H 187.854 -0.866673 4.77092 0
M  V30 2022 N 189.197 -1.51736 -0.425897 0
M  V30 2023 C 190.127 -1.76827 -1.52494 0
M  V30 2024 C 191.108 -0.618524 -1.58456 0
M  V30 2025 O 192.293 -0.862416 -1.74 0
M  V30 2026 C 189.423 -1.90374 -2.90474 0
M  V30 2027 C 188.377 -3.0588 -2.99369 0
M  V30 2028 C 187.703 -3.04625 -4.3944 0
M  V30 2029 C 189.003 -4.45644 -2.72394 0
M  V30 2030 H 190.697 -2.68855 -1.31748 0
M  V30 2031 H 188.243 -1.29372 -0.632362 0
M  V30 2032 H 190.196 -2.0651 -3.6733 0
M  V30 2033 H 188.92 -0.95004 -3.12477 0
M  V30 2034 H 187.579 -2.89467 -2.24954 0
M  V30 2035 H 187.227 -2.0701 -4.58428 0
M  V30 2036 H 186.927 -3.82195 -4.46319 0
M  V30 2037 H 188.451 -3.22869 -5.18255 0
M  V30 2038 H 189.865 -4.62348 -3.38979 0
M  V30 2039 H 188.262 -5.25006 -2.9067 0
M  V30 2040 H 189.332 -4.54893 -1.67929 0
M  V30 2041 N 190.675 0.682077 -1.42076 0
M  V30 2042 C 191.952 1.43755 -1.32642 0
M  V30 2043 C 192.332 2.11063 0.0396611 0
M  V30 2044 O 191.68 2.02701 1.05474 0
M  V30 2045 C 191.89 2.44596 -2.48946 0
M  V30 2046 C 193.238 3.09454 -2.9073 0
M  V30 2047 O 194.262 2.54922 -2.48783 0
M  V30 2048 O 193.121 4.08253 -3.63307 0
M  V30 2049 H 190.215 0.640857 -0.522715 0
M  V30 2050 H 192.761 0.711415 -1.54068 0
M  V30 2051 H 191.533 1.93609 -3.40046 0
M  V30 2052 H 191.156 3.24701 -2.29467 0
M  V30 2053 N 192.153 1.28127 0.917671 0
M  V30 2054 C 193.1 1.11717 2.0196 0
M  V30 2055 C 194.07 0.0153929 1.66093 0
M  V30 2056 O 195.255 0.179596 1.89953 0
M  V30 2057 C 192.395 0.780927 3.36148 0
M  V30 2058 C 191.508 1.96135 3.84909 0
M  V30 2059 C 190.643 1.56609 5.0759 0
M  V30 2060 C 189.682 2.71339 5.48673 0
M  V30 2061 N 188.819 2.32332 6.62545 0
M  V30 2062 H 193.659 2.06003 2.15329 0
M  V30 2063 H 191.196 1.02535 1.05475 0
M  V30 2064 H 193.154 0.56675 4.13333 0
M  V30 2065 H 191.784 -0.124998 3.22558 0
M  V30 2066 H 190.836 2.28777 3.03916 0
M  V30 2067 H 192.148 2.82165 4.1132 0
M  V30 2068 H 191.302 1.31374 5.92305 0
M  V30 2069 H 190.041 0.677014 4.82978 0
M  V30 2070 H 189.046 2.97276 4.62501 0
M  V30 2071 H 190.271 3.60882 5.75274 0
M  V30 2072 H 188.217 1.45889 6.39572 0
M  V30 2073 H 188.134 3.11899 6.88662 0
M  V30 2074 H 189.402 2.10371 7.50576 0
M  V30 2075 N 193.631 -1.12557 1.10312 0
M  V30 2076 C 195.042 -1.65574 0.862678 0
M  V30 2077 C 195.393 -1.86566 -0.607256 0
M  V30 2078 O 194.518 -1.59121 -1.46662 0
M  V30 2079 C 195.113 -3.00776 1.55947 0
M  V30 2080 C 193.672 -3.50748 1.36576 0
M  V30 2081 C 192.819 -2.25797 1.60968 0
M  V30 2082 H 195.77 -0.963552 1.26101 0
M  V30 2083 H 195.791 -3.67185 0.997753 0
M  V30 2084 H 195.303 -2.85465 2.62928 0
M  V30 2085 H 193.404 -3.71245 0.317531 0
M  V30 2086 H 193.517 -4.30289 2.10686 0
M  V30 2087 H 191.881 -2.32841 1.03234 0
M  V30 2088 H 192.664 -2.13043 2.69198 0
M  V30 2089 N 195.109 -0.891671 -1.2995 0
M  V30 2090 C 196.334 -0.527932 -2.00568 0
M  V30 2091 C 196.759 0.877969 -1.66353 0
M  V30 2092 O 196.117 1.58301 -0.883762 0
M  V30 2093 C 196.165 -0.717745 -3.53385 0
M  V30 2094 O 195.269 0.233376 -4.11739 0
M  V30 2095 H 194.61 -0.20722 -0.630837 0
M  V30 2096 H 197.14 -1.20105 -1.65638 0
M  V30 2097 H 197.15 -0.619307 -4.03272 0
M  V30 2098 H 195.825 -1.74276 -3.77625 0
M  V30 2099 H 194.402 0.0880706 -3.72796 0
M  V30 2100 N 196.587 1.43421 -0.653314 0
M  V30 2101 C 198.003 1.56341 -0.320886 0
M  V30 2102 C 198.203 1.63696 1.17499 0
M  V30 2103 O 197.259 1.59208 1.95982 0
M  V30 2104 C 198.572 2.82424 -1.03233 0
M  V30 2105 C 200.12 2.96168 -1.01259 0
M  V30 2106 C 200.595 4.25084 -1.70492 0
M  V30 2107 N 202.086 4.31948 -1.67257 0
M  V30 2108 C 202.821 5.30466 -2.17701 0
M  V30 2109 N 202.317 6.35261 -2.76434 0
M  V30 2110 N 204.11 5.2212 -2.082 0
M  V30 2111 H 196.261 1.3689 -1.62403 0
M  V30 2112 H 198.524 0.657455 -0.682977 0
M  V30 2113 H 198.23 2.83053 -2.08744 0
M  V30 2114 H 198.104 3.72653 -0.583948 0
M  V30 2115 H 200.491 2.9508 0.0341235 0
M  V30 2116 H 200.572 2.07229 -1.49966 0
M  V30 2117 H 200.216 4.26932 -2.7512 0
M  V30 2118 H 200.146 5.1292 -1.19251 0
M  V30 2119 H 202.637 3.56838 -1.24398 0
M  V30 2120 H 202.95 7.06754 -3.12601 0
M  V30 2121 H 201.295 6.35884 -2.80495 0
M  V30 2122 H 204.486 4.39166 -1.62021 0
M  V30 2123 H 204.659 5.98739 -2.47822 0
M  V30 2124 N 198.065 0.39524 1.52563 0
M  V30 2125 C 199.481 0.0454682 1.59535 0
M  V30 2126 C 199.681 -1.44056 1.4089 0
M  V30 2127 O 198.737 -2.20579 1.22888 0
M  V30 2128 C 200.05 0.527963 2.96029 0
M  V30 2129 C 201.598 0.484733 3.09224 0
M  V30 2130 C 202.073 0.943512 4.48176 0
M  V30 2131 N 203.564 0.899765 4.54377 0
M  V30 2132 C 204.299 1.22609 5.60138 0
M  V30 2133 N 203.795 1.62319 6.73516 0
M  V30 2134 N 205.588 1.14696 5.50274 0
M  V30 2135 H 197.739 1.36261 1.62931 0
M  V30 2136 H 200.002 0.558887 0.765735 0
M  V30 2137 H 199.708 1.56607 3.14908 0
M  V30 2138 H 199.582 -0.0698056 3.77135 0
M  V30 2139 H 201.969 -0.544298 2.90037 0
M  V30 2140 H 202.05 1.11838 2.30056 0
M  V30 2141 H 201.694 1.9708 4.68104 0
M  V30 2142 H 201.624 0.286817 5.25818 0
M  V30 2143 H 204.115 0.607632 3.72983 0
M  V30 2144 H 204.428 1.85567 7.5019 0
M  V30 2145 H 202.773 1.66211 6.74833 0
M  V30 2146 H 205.964 0.835701 4.6058 0
M  V30 2147 H 206.137 1.40459 6.32594 0
M  V30 2148 N 199.544 -1.57102 0.125237 0
M  V30 2149 C 200.454 -2.19191 -0.8362 0
M  V30 2150 C 201.47 -1.16985 -1.28805 0
M  V30 2151 O 202.646 -1.49479 -1.34974 0
M  V30 2152 C 199.711 -2.78407 -2.06617 0
M  V30 2153 C 198.772 -3.9567 -1.66565 0
M  V30 2154 C 198.005 -4.52052 -2.83698 0
M  V30 2155 O 198.228 -4.07326 -3.99302 0
M  V30 2156 O 197.162 -5.42645 -2.60423 0
M  V30 2157 H 200.988 -3.01816 -0.337776 0
M  V30 2158 H 198.573 -1.4906 -0.100695 0
M  V30 2159 H 200.455 -3.16129 -2.7864 0
M  V30 2160 H 199.13 -1.9881 -2.55453 0
M  V30 2161 H 198.037 -3.62705 -0.916296 0
M  V30 2162 H 199.37 -4.76722 -1.22464 0
M  V30 2163 N 201.022 0.148545 -1.56898 0
M  V30 2164 C 202.268 0.862694 -1.83536 0
M  V30 2165 C 202.601 1.80889 -0.706604 0
M  V30 2166 O 201.876 1.92328 0.289885 0
M  V30 2167 C 202.159 1.63853 -3.20662 0
M  V30 2168 C 202.012 0.713925 -4.44098 0
M  V30 2169 C 203.331 2.60133 -3.54991 0
M  V30 2170 H 200.45 0.312179 -0.667618 0
M  V30 2171 H 203.092 0.127953 -1.89569 0
M  V30 2172 H 201.242 2.26489 -3.1565 0
M  V30 2173 H 202.914 0.098686 -4.61194 0
M  V30 2174 H 201.157 0.0234019 -4.33794 0
M  V30 2175 H 201.828 1.29278 -5.36648 0
M  V30 2176 H 204.304 2.07616 -3.60603 0
M  V30 2177 H 203.18 3.11468 -4.51972 0
M  V30 2178 H 203.441 3.41417 -2.80868 0
M  V30 2179 N 202.5 1.5196 0.417844 0
M  V30 2180 C 203.448 1.75278 1.52907 0
M  V30 2181 C 204.442 0.619611 1.57662 0
M  V30 2182 O 205.648 0.801457 1.61173 0
M  V30 2183 H 202.023 0.554141 0.508362 0
M  V30 2184 H 203.994 2.68389 1.30422 0
M  V30 2185 C 202.743 1.91262 2.90369 0
M  V30 2186 H 202.066 2.77872 2.8745 0
M  V30 2187 H 203.506 2.11581 3.67436 0
M  V30 2188 C 201.965 0.677431 3.30019 0
M  V30 2189 O 202.495 -0.158799 4.01386 0
M  V30 2190 N 200.701 0.515851 2.85985 0
M  V30 2191 H 200.248 1.19744 2.28077 0
M  V30 2192 H 200.206 -0.309315 3.12875 0
M  V30 2193 N 203.978 -0.674533 1.42435 0
M  V30 2194 C 205.224 -1.43671 1.43131 0
M  V30 2195 C 205.557 -1.94142 0.0476021 0
M  V30 2196 O 204.832 -1.70924 -0.928188 0
M  V30 2197 C 205.115 -2.63355 2.45594 0
M  V30 2198 C 204.968 -2.18514 3.93156 0
M  V30 2199 C 206.287 -3.65571 2.45043 0
M  V30 2200 H 203.406 -0.521077 0.521198 0
M  V30 2201 H 206.048 -0.766551 1.7385 0
M  V30 2202 H 204.198 -3.2053 2.19528 0
M  V30 2203 H 205.87 -1.66504 4.30202 0
M  V30 2204 H 204.113 -1.50086 4.07009 0
M  V30 2205 H 204.784 -3.04484 4.60428 0
M  V30 2206 H 207.26 -3.18113 2.68223 0
M  V30 2207 H 206.136 -4.46893 3.18713 0
M  V30 2208 H 206.397 -4.16716 1.47649 0
M  V30 2209 N 205.456 -1.28612 -0.910864 0
M  V30 2210 C 206.867 -1.14406 -1.47541 0
M  V30 2211 C 207.218 0.264901 -1.94403 0
M  V30 2212 O 206.343 1.15942 -1.82719 0
M  V30 2213 C 206.938 -2.07073 -2.68153 0
M  V30 2214 C 205.497 -1.96923 -3.20778 0
M  V30 2215 C 204.644 -1.98646 -1.93481 0
M  V30 2216 H 207.595 -1.41259 -0.723291 0
M  V30 2217 H 207.616 -1.63642 -3.43514 0
M  V30 2218 H 207.128 -3.09611 -2.34015 0
M  V30 2219 H 205.229 -0.97433 -3.59635 0
M  V30 2220 H 205.342 -2.84026 -3.85832 0
M  V30 2221 H 203.706 -1.43093 -2.10705 0
M  V30 2222 H 204.489 -3.02868 -1.61634 0
M  V30 2223 N 206.934 1.1197 -1.10907 0
M  V30 2224 C 208.18 1.8386 -0.855773 0
M  V30 2225 C 208.513 1.84134 0.617103 0
M  V30 2226 O 207.788 1.29041 1.45529 0
M  V30 2227 C 208.071 3.31305 -1.411 0
M  V30 2228 C 207.924 3.39456 -2.9511 0
M  V30 2229 C 209.243 4.2721 -1.05736 0
M  V30 2230 H 206.362 0.667545 -0.312334 0
M  V30 2231 H 209.004 1.31331 -1.37303 0
M  V30 2232 H 207.154 3.76169 -0.97105 0
M  V30 2233 H 208.826 3.03191 -3.47668 0
M  V30 2234 H 207.069 2.79849 -3.31462 0
M  V30 2235 H 207.74 4.43209 -3.29044 0
M  V30 2236 H 210.216 3.90497 -1.43706 0
M  V30 2237 H 209.092 5.28775 -1.47269 0
M  V30 2238 H 209.353 4.42088 0.0325958 0
M  V30 2239 N 208.412 0.89855 1.29475 0
M  V30 2240 C 209.322 0.379974 2.31502 0
M  V30 2241 C 210.338 -0.524695 1.659 0
M  V30 2242 O 211.514 -0.414551 1.97087 0
M  V30 2243 C 208.579 -0.385138 3.44554 0
M  V30 2244 C 207.64 0.550914 4.2575 0
M  V30 2245 C 206.873 -0.177778 5.33404 0
M  V30 2246 O 207.096 -1.40189 5.52904 0
M  V30 2247 O 206.03 0.479106 5.9999 0
M  V30 2248 H 209.856 1.22639 2.77837 0
M  V30 2249 H 207.441 0.662834 1.33891 0
M  V30 2250 H 209.323 -0.817841 4.13388 0
M  V30 2251 H 207.998 -1.20763 3.0033 0
M  V30 2252 H 206.905 1.03271 3.59564 0
M  V30 2253 H 208.238 1.33979 4.73614 0
M  V30 2254 N 209.89 -1.43072 0.660911 0
M  V30 2255 C 211.137 -2.01721 0.177445 0
M  V30 2256 C 211.465 -1.5218 -1.21126 0
M  V30 2257 O 210.72 -0.708659 -1.82419 0
M  V30 2258 C 211.019 -3.57103 0.145563 0
M  V30 2259 C 210.685 -4.26021 1.47705 0
M  V30 2260 C 209.347 -4.44563 1.84165 0
M  V30 2261 C 211.699 -4.64983 2.35458 0
M  V30 2262 C 209.027 -4.99334 3.0803 0
M  V30 2263 C 211.379 -5.21127 3.58622 0
M  V30 2264 C 210.043 -5.37884 3.95268 0
M  V30 2265 H 209.313 -0.73815 0.0649317 0
M  V30 2266 H 211.96 -1.71446 0.853144 0
M  V30 2267 H 210.265 -3.86965 -0.61361 0
M  V30 2268 H 211.962 -4.00248 -0.2455 0
M  V30 2269 H 208.552 -4.11939 1.18339 0
M  V30 2270 H 212.736 -4.50343 2.08579 0
M  V30 2271 H 207.992 -5.10493 3.36462 0
M  V30 2272 H 212.166 -5.50262 4.26831 0
M  V30 2273 H 209.793 -5.80089 4.91325 0
M  V30 2274 N 211.368 -0.403325 -1.52352 0
M  V30 2275 C 212.617 0.175668 -2.00934 0
M  V30 2276 C 212.93 1.46718 -1.29356 0
M  V30 2277 O 214.136 2.12708 -1.68724 0
M  V30 2278 C 212.592 0.363612 -3.58058 0
M  V30 2279 C 212.2 -0.915472 -4.38547 0
M  V30 2280 C 213.944 0.89821 -4.14888 0
M  V30 2281 C 211.851 -0.695035 -5.87302 0
M  V30 2282 H 210.781 0.0694234 -0.750797 0
M  V30 2283 H 213.432 -0.527879 -1.75743 0
M  V30 2284 H 211.814 1.12935 -3.79555 0
M  V30 2285 H 212.988 -1.68691 -4.28812 0
M  V30 2286 H 211.303 -1.37606 -3.93006 0
M  V30 2287 H 213.9 1.07907 -5.23699 0
M  V30 2288 H 214.243 1.87126 -3.71873 0
M  V30 2289 H 214.776 0.191681 -3.97338 0
M  V30 2290 H 211.515 -1.63948 -6.34666 0
M  V30 2291 H 211.035 0.0372116 -5.99788 0
M  V30 2292 H 212.714 -0.33497 -6.46132 0
M  V30 2293 N 212.846 1.57033 -0.133567 0
M  V30 2294 C 214.094 1.953 0.519848 0
M  V30 2295 C 214.415 1.01866 1.66278 0
M  V30 2296 O 213.685 0.0776513 1.95746 0
M  V30 2297 H 212.265 0.721091 0.195032 0
M  V30 2298 H 214.927 1.93809 -0.205921 0
M  V30 2299 H 214.023 2.98695 0.904854 0
M  V30 2300 N 214.325 -0.140222 1.56975 0
M  V30 2301 C 215.572 -0.851687 1.83719 0
M  V30 2302 C 215.9 -1.80862 0.715485 0
M  V30 2303 O 215.155 -1.93464 -0.294956 0
M  V30 2304 C 215.454 -1.65386 3.16832 0
M  V30 2305 C 215.12 -0.843112 4.42947 0
M  V30 2306 C 213.782 -0.619464 4.77196 0
M  V30 2307 C 216.134 -0.276582 5.20466 0
M  V30 2308 C 213.462 0.181312 5.8642 0
M  V30 2309 C 215.814 0.51127 6.30531 0
M  V30 2310 C 214.478 0.745432 6.63325 0
M  V30 2311 H 213.748 -0.311654 0.672274 0
M  V30 2312 H 216.395 -0.115006 1.91154 0
M  V30 2313 H 214.7 -2.46084 3.04877 0
M  V30 2314 H 216.397 -2.20793 3.34741 0
M  V30 2315 H 212.987 -1.0275 4.16101 0
M  V30 2316 H 217.171 -0.436632 4.94376 0
M  V30 2317 H 212.427 0.372165 6.10266 0
M  V30 2318 H 216.601 0.957354 6.89788 0
M  V30 2319 H 214.228 1.36778 7.47794 0
M  V30 2320 N 215.803 -1.52179 -0.40978 0
M  V30 2321 C 217.028 -1.70347 -1.18308 0
M  V30 2322 C 217.453 -0.411887 -1.83535 0
M  V30 2323 O 216.811 0.630587 -1.6998 0
M  V30 2324 C 216.859 -2.83977 -2.22238 0
M  V30 2325 O 215.963 -2.495 -3.28365 0
M  V30 2326 H 215.304 -0.567103 -0.345384 0
M  V30 2327 H 217.834 -1.98879 -0.480445 0
M  V30 2328 H 217.844 -3.0887 -2.66577 0
M  V30 2329 H 216.519 -3.77685 -1.74146 0
M  V30 2330 H 215.096 -2.35277 -2.89308 0
M  V30 2331 N 217.281 0.66697 -1.42791 0
M  V30 2332 C 218.53 1.42278 -1.42968 0
M  V30 2333 C 218.843 1.9553 -0.0524489 0
M  V30 2334 O 220.049 2.71414 0.068363 0
M  V30 2335 C 218.505 2.57418 -2.51524 0
M  V30 2336 C 218.113 2.10832 -3.9529 0
M  V30 2337 C 219.857 3.34878 -2.60877 0
M  V30 2338 C 217.764 3.23101 -4.95338 0
M  V30 2339 H 216.694 0.534533 -0.531781 0
M  V30 2340 H 219.345 0.721302 -1.68729 0
M  V30 2341 H 217.727 3.29971 -2.18941 0
M  V30 2342 H 218.901 1.4538 -4.37266 0
M  V30 2343 H 217.216 1.46289 -3.89857 0
M  V30 2344 H 219.813 4.18505 -3.32802 0
M  V30 2345 H 220.156 3.81993 -1.6549 0
M  V30 2346 H 220.689 2.69398 -2.92693 0
M  V30 2347 H 217.428 2.80969 -5.9223 0
M  V30 2348 H 216.948 3.87309 -4.57987 0
M  V30 2349 H 218.627 3.88447 -5.17415 0
M  V30 2350 N 218.759 1.29093 0.90403 0
M  V30 2351 C 220.17 1.15186 1.46932 0
M  V30 2352 C 220.521 -0.254587 1.94541 0
M  V30 2353 O 219.646 -1.14972 1.83332 0
M  V30 2354 C 220.241 2.08492 2.67051 0
M  V30 2355 C 218.8 1.98621 3.19729 0
M  V30 2356 C 217.947 1.9967 1.92425 0
M  V30 2357 H 220.898 1.41641 0.715789 0
M  V30 2358 H 220.919 1.65461 3.42641 0
M  V30 2359 H 220.431 3.10847 2.3237 0
M  V30 2360 H 218.532 0.993389 3.59114 0
M  V30 2361 H 218.645 2.86068 3.8432 0
M  V30 2362 H 217.009 1.44208 2.09943 0
M  V30 2363 H 217.792 3.03721 1.60026 0
M  V30 2364 N 220.237 -1.11381 1.11499 0
M  V30 2365 C 221.514 -1.7955 0.775965 0
M  V30 2366 C 221.894 -1.97859 -0.73588 0
M  V30 2367 O 221.242 -1.56376 -1.66609 0
M  V30 2368 C 221.452 -3.13196 1.53977 0
M  V30 2369 C 222.8 -3.88227 1.71944 0
M  V30 2370 O 223.824 -3.22887 1.50407 0
M  V30 2371 O 222.683 -5.05477 2.07738 0
M  V30 2372 H 219.777 -0.777728 0.28119 0
M  V30 2373 H 222.323 -1.18118 1.21845 0
M  V30 2374 H 221.095 -2.95229 2.56818 0
M  V30 2375 H 220.718 -3.82342 1.09088 0
M  V30 2376 N 221.715 -0.905404 -1.28997 0
M  V30 2377 C 222.625 -0.392246 -2.31298 0
M  V30 2378 C 223.641 0.515889 -1.66176 0
M  V30 2379 O 224.817 0.404093 -1.97304 0
M  V30 2380 C 221.882 0.36686 -3.44754 0
M  V30 2381 C 220.943 -0.573485 -4.25452 0
M  V30 2382 C 220.176 0.149488 -5.33491 0
M  V30 2383 O 220.399 1.37255 -5.5364 0
M  V30 2384 O 219.333 -0.510919 -5.99728 0
M  V30 2385 H 223.159 -1.2411 -2.77183 0
M  V30 2386 H 220.744 -0.669926 -1.33538 0
M  V30 2387 H 222.626 0.795907 -4.13816 0
M  V30 2388 H 221.301 1.19169 -3.00966 0
M  V30 2389 H 220.208 -1.05176 -3.59011 0
M  V30 2390 H 221.541 -1.36489 -4.72897 0
M  V30 2391 N 223.193 1.4272 -0.668489 0
M  V30 2392 C 224.44 2.01624 -0.18814 0
M  V30 2393 C 224.768 1.5282 1.20317 0
M  V30 2394 O 224.023 0.718323 1.8204 0
M  V30 2395 C 224.322 3.57021 -0.164499 0
M  V30 2396 C 223.988 4.25232 -1.49962 0
M  V30 2397 C 222.65 4.4358 -1.8652 0
M  V30 2398 C 225.002 4.63727 -2.37921 0
M  V30 2399 C 222.33 4.97694 -3.10674 0
M  V30 2400 C 224.682 5.19218 -3.6138 0
M  V30 2401 C 223.346 5.3578 -3.98115 0
M  V30 2402 H 222.616 0.737795 -0.0688454 0
M  V30 2403 H 225.263 1.70991 -0.862225 0
M  V30 2404 H 223.568 3.87285 0.593079 0
M  V30 2405 H 225.265 4.00372 0.224271 0
M  V30 2406 H 221.855 4.11306 -1.20522 0
M  V30 2407 H 226.039 4.4923 -2.10964 0
M  V30 2408 H 221.295 5.08702 -3.39164 0
M  V30 2409 H 225.469 5.4799 -4.29743 0
M  V30 2410 H 223.096 5.77475 -4.94395 0
M  V30 2411 N 224.671 0.411399 1.52136 0
M  V30 2412 C 225.917 -0.163888 2.02137 0
M  V30 2413 C 226.25 -1.44597 1.29636 0
M  V30 2414 O 225.525 -1.90272 0.403353 0
M  V30 2415 C 225.808 -0.40927 3.57767 0
M  V30 2416 C 225.661 0.889643 4.40914 0
M  V30 2417 C 226.98 -1.19042 4.23694 0
M  V30 2418 H 224.099 -0.0580896 0.734707 0
M  V30 2419 H 226.741 0.54531 1.82007 0
M  V30 2420 H 224.891 -1.0134 3.7505 0
M  V30 2421 H 226.563 1.52575 4.35337 0
M  V30 2422 H 224.806 1.50011 4.07037 0
M  V30 2423 H 225.477 0.672314 5.4789 0
M  V30 2424 H 227.953 -0.678942 4.10524 0
M  V30 2425 H 226.829 -1.33086 5.32522 0
M  V30 2426 H 227.09 -2.21166 3.82803 0
M  V30 2427 N 226.149 -1.5696 0.141893 0
M  V30 2428 C 227.395 -1.9625 -0.511248 0
M  V30 2429 C 227.728 -1.02654 -1.64851 0
M  V30 2430 O 227.003 -0.0679676 -1.94381 0
M  V30 2431 C 227.286 -3.45285 -1.02227 0
M  V30 2432 C 227.139 -4.49658 0.113138 0
M  V30 2433 C 228.458 -3.96698 -1.90574 0
M  V30 2434 H 225.577 -0.713567 -0.184367 0
M  V30 2435 H 228.219 -1.88698 0.222087 0
M  V30 2436 H 226.369 -3.51852 -1.64719 0
M  V30 2437 H 228.041 -4.55174 0.749302 0
M  V30 2438 H 226.284 -4.26857 0.773026 0
M  V30 2439 H 226.955 -5.51258 -0.286053 0
M  V30 2440 H 229.431 -3.92578 -1.37918 0
M  V30 2441 H 228.307 -5.01453 -2.2324 0
M  V30 2442 H 228.568 -3.3875 -2.84079 0
M  V30 2443 N 227.627 0.131896 -1.57047 0
M  V30 2444 C 228.875 0.840269 -1.83804 0
M  V30 2445 C 229.196 1.81017 -0.72512 0
M  V30 2446 O 228.466 1.94272 0.251995 0
M  V30 2447 H 227.046 0.313294 -0.678127 0
M  V30 2448 H 229.708 0.122294 -1.94516 0
M  V30 2449 H 228.804 1.39335 -2.79271 0
M  V30 2450 N 229.106 1.52395 0.401703 0
M  V30 2451 C 230.336 1.70429 1.1678 0
M  V30 2452 C 230.744 0.416702 1.84554 0
M  V30 2453 O 230.087 -0.617697 1.73003 0
M  V30 2454 C 230.149 2.78919 2.26814 0
M  V30 2455 C 229.813 4.20437 1.79113 0
M  V30 2456 C 230.81 5.04028 1.27482 0
M  V30 2457 C 228.495 4.66704 1.85722 0
M  V30 2458 C 230.489 6.31961 0.830913 0
M  V30 2459 C 228.176 5.94625 1.40942 0
M  V30 2460 C 229.174 6.77082 0.897128 0
M  V30 2461 O 228.862 8.02607 0.455822 0
M  V30 2462 H 228.594 0.574272 0.356634 0
M  V30 2463 H 231.148 1.99767 0.477724 0
M  V30 2464 H 229.378 2.44973 2.99207 0
M  V30 2465 H 231.067 2.8548 2.88541 0
M  V30 2466 H 231.833 4.69471 1.21744 0
M  V30 2467 H 227.712 4.0262 2.24539 0
M  V30 2468 H 231.256 6.96271 0.430368 0
M  V30 2469 H 227.153 6.28688 1.46362 0
M  V30 2470 H 227.921 8.16453 0.578457 0
M  V30 2471 N 230.584 -0.659388 1.43143 0
M  V30 2472 C 231.832 -1.41654 1.44147 0
M  V30 2473 C 232.153 -1.94893 0.0645739 0
M  V30 2474 O 231.423 -1.74044 -0.899198 0
M  V30 2475 H 230.003 -0.525708 0.530697 0
M  V30 2476 H 232.665 -0.778097 1.78694 0
M  V30 2477 H 231.761 -2.26195 2.1504 0
M  V30 2478 N 232.062 -1.29571 -0.897171 0
M  V30 2479 C 233.311 -1.1706 -1.64256 0
M  V30 2480 C 233.624 0.276476 -1.93636 0
M  V30 2481 O 234.83 0.52294 -2.66416 0
M  V30 2482 C 233.286 -2.0475 -2.95982 0
M  V30 2483 C 232.894 -3.54295 -2.74187 0
M  V30 2484 C 234.638 -2.0097 -3.73914 0
M  V30 2485 C 232.545 -4.34081 -4.01656 0
M  V30 2486 H 231.475 -0.43452 -0.616205 0
M  V30 2487 H 234.126 -1.54229 -0.994268 0
M  V30 2488 H 232.508 -1.60452 -3.62038 0
M  V30 2489 H 233.682 -4.06662 -2.1671 0
M  V30 2490 H 231.997 -3.59773 -2.09648 0
M  V30 2491 H 234.594 -2.57838 -4.68427 0
M  V30 2492 H 234.937 -0.990273 -4.0435 0
M  V30 2493 H 235.47 -2.43325 -3.14703 0
M  V30 2494 H 232.209 -5.36671 -3.76384 0
M  V30 2495 H 231.729 -3.86483 -4.58684 0
M  V30 2496 H 233.408 -4.44877 -4.69781 0
M  V30 2497 N 233.54 1.10788 -1.12088 0
M  V30 2498 C 234.817 1.79136 -0.785476 0
M  V30 2499 C 235.197 1.98246 0.725377 0
M  V30 2500 O 234.545 1.57258 1.65778 0
M  V30 2501 C 234.755 3.12375 -1.55636 0
M  V30 2502 C 236.103 3.8731 -1.74001 0
M  V30 2503 O 237.127 3.22085 -1.52117 0
M  V30 2504 O 235.986 5.04369 -2.10415 0
M  V30 2505 H 233.08 0.776226 -0.285311 0
M  V30 2506 H 235.626 1.1747 -1.2247 0
M  V30 2507 H 234.398 2.93863 -2.5838 0
M  V30 2508 H 234.021 3.81758 -1.11114 0
M  V30 2509 N 235.018 0.912232 1.28515 0
M  V30 2510 C 236.248 0.559604 1.98877 0
M  V30 2511 C 236.656 -0.863113 1.68366 0
M  V30 2512 O 235.999 -1.58304 0.931969 0
M  V30 2513 C 236.061 0.68703 3.52874 0
M  V30 2514 C 235.725 2.07901 4.06972 0
M  V30 2515 C 236.722 3.05157 4.20922 0
M  V30 2516 C 234.407 2.39178 4.417 0
M  V30 2517 C 236.401 4.31806 4.68852 0
M  V30 2518 C 234.088 3.66068 4.89324 0
M  V30 2519 C 235.086 4.62195 5.02856 0
M  V30 2520 O 234.774 5.86829 5.49442 0
M  V30 2521 H 234.506 0.212191 0.641834 0
M  V30 2522 H 237.06 1.22712 1.64715 0
M  V30 2523 H 235.29 -0.0375486 3.86682 0
M  V30 2524 H 236.979 0.341727 4.04459 0
M  V30 2525 H 237.745 2.82311 3.94367 0
M  V30 2526 H 233.624 1.65109 4.30418 0
M  V30 2527 H 237.168 5.06842 4.79329 0
M  V30 2528 H 233.065 3.88739 5.15318 0
M  V30 2529 H 233.833 5.89597 5.6773 0
M  V30 2530 N 236.496 -1.42363 0.676048 0
M  V30 2531 C 237.459 -2.29199 0.00766941 0
M  V30 2532 C 238.459 -1.43389 -0.727745 0
M  V30 2533 O 239.649 -1.64764 -0.56556 0
M  V30 2534 C 236.781 -3.2591 -0.999785 0
M  V30 2535 H 237.974 -2.89794 0.771988 0
M  V30 2536 H 235.527 -1.50024 0.438468 0
M  V30 2537 H 236.262 -2.70256 -1.79255 0
M  V30 2538 H 236.047 -3.89202 -0.475829 0
M  V30 2539 H 237.537 -3.91028 -1.46583 0
M  V30 2540 N 237.974 -0.419461 -1.51915 0
M  V30 2541 C 238.906 0.43646 -2.25006 0
M  V30 2542 C 239.919 1.00149 -1.28351 0
M  V30 2543 O 241.108 0.898674 -1.54227 0
M  V30 2544 C 238.208 1.6206 -2.9764 0
M  V30 2545 C 237.381 1.17763 -4.21249 0
M  V30 2546 C 236.44 2.22985 -4.76617 0
M  V30 2547 O 235.466 1.83151 -5.38929 0
M  V30 2548 N 236.668 3.55271 -4.59089 0
M  V30 2549 H 239.433 -0.18989 -2.99098 0
M  V30 2550 H 236.994 -0.247386 -1.59999 0
M  V30 2551 H 238.986 2.32038 -3.31573 0
M  V30 2552 H 237.556 2.15266 -2.2667 0
M  V30 2553 H 236.776 0.305582 -3.93014 0
M  V30 2554 H 238.064 0.858781 -5.015 0
M  V30 2555 H 237.462 3.90377 -4.09417 0
M  V30 2556 H 236.019 4.21195 -4.97432 0
M  V30 2557 N 239.452 1.56882 -0.150215 0
M  V30 2558 C 240.868 1.58263 0.20617 0
M  V30 2559 C 241.068 1.16464 1.64434 0
M  V30 2560 O 240.124 0.866422 2.3717 0
M  V30 2561 C 241.437 3.00649 -0.0555025 0
M  V30 2562 C 242.985 3.12999 0.00795388 0
M  V30 2563 C 243.46 4.5744 -0.226429 0
M  V30 2564 N 244.951 4.62875 -0.173469 0
M  V30 2565 C 245.686 5.72454 -0.329288 0
M  V30 2566 N 245.182 6.90669 -0.543005 0
M  V30 2567 N 246.975 5.61467 -0.266666 0
M  V30 2568 H 239.126 1.82345 -1.08922 0
M  V30 2569 H 241.389 0.844149 -0.431413 0
M  V30 2570 H 241.095 3.3563 -1.05096 0
M  V30 2571 H 240.969 3.71337 0.66246 0
M  V30 2572 H 243.356 2.77857 0.993966 0
M  V30 2573 H 243.437 2.4479 -0.742388 0
M  V30 2574 H 243.081 4.93287 -1.20956 0
M  V30 2575 H 243.011 5.2378 0.544274 0
M  V30 2576 H 245.502 3.77898 -0.0130709 0
M  V30 2577 H 245.815 7.70045 -0.651922 0
M  V30 2578 H 244.16 6.92581 -0.579366 0
M  V30 2579 H 247.351 4.67992 -0.100441 0
M  V30 2580 H 247.524 6.46816 -0.391535 0
M  V30 2581 N 240.93 -0.123565 1.57115 0
M  V30 2582 C 242.16 -0.845233 1.88519 0
M  V30 2583 C 242.568 -1.74168 0.739064 0
M  V30 2584 O 241.911 -1.81244 -0.299355 0
M  V30 2585 C 241.973 -1.73452 3.14888 0
M  V30 2586 C 241.637 -1.01285 4.45635 0
M  V30 2587 C 242.634 -0.355774 5.18681 0
M  V30 2588 C 240.319 -0.99538 4.92339 0
M  V30 2589 C 242.313 0.309114 6.3665 0
M  V30 2590 C 240 -0.32669 6.10226 0
M  V30 2591 C 240.998 0.324406 6.82229 0
M  V30 2592 O 240.686 0.982437 7.97874 0
M  V30 2593 H 240.418 -0.248534 0.628655 0
M  V30 2594 H 242.972 -0.113907 2.05084 0
M  V30 2595 H 241.202 -2.50737 2.94394 0
M  V30 2596 H 242.891 -2.33021 3.32349 0
M  V30 2597 H 243.657 -0.360918 4.83655 0
M  V30 2598 H 239.536 -1.49159 4.36202 0
M  V30 2599 H 243.08 0.8179 6.92789 0
M  V30 2600 H 238.977 -0.319294 6.4471 0
M  V30 2601 H 239.745 0.886454 8.13686 0
M  V30 2602 N 242.408 -1.52605 -0.393616 0
M  V30 2603 C 243.824 -1.41753 -0.733357 0
M  V30 2604 C 244.024 -0.534293 -1.94287 0
M  V30 2605 O 243.08 -0.0059787 -2.52499 0
M  V30 2606 C 244.393 -2.84531 -0.972772 0
M  V30 2607 C 245.941 -2.93978 -1.07453 0
M  V30 2608 C 246.416 -4.37756 -1.3466 0
M  V30 2609 N 247.907 -4.4106 -1.41492 0
M  V30 2610 C 248.642 -5.49387 -1.642 0
M  V30 2611 N 248.138 -6.67806 -1.8441 0
M  V30 2612 N 249.931 -5.36923 -1.66342 0
M  V30 2613 H 242.082 -2.08555 0.402328 0
M  V30 2614 H 244.345 -0.940654 0.117789 0
M  V30 2615 H 244.051 -3.51353 -0.156204 0
M  V30 2616 H 243.925 -3.26508 -1.88871 0
M  V30 2617 H 246.312 -2.27326 -1.88167 0
M  V30 2618 H 246.393 -2.55435 -0.136605 0
M  V30 2619 H 246.037 -5.04972 -0.544581 0
M  V30 2620 H 245.967 -4.73848 -2.2973 0
M  V30 2621 H 248.458 -3.55705 -1.27601 0
M  V30 2622 H 248.771 -7.46141 -2.01231 0
M  V30 2623 H 247.116 -6.70843 -1.81644 0
M  V30 2624 H 250.307 -4.43381 -1.50102 0
M  V30 2625 H 250.48 -6.21416 -1.837 0
M  V30 2626 N 243.887 0.651787 -1.4349 0
M  V30 2627 C 244.837 1.75783 -1.45205 0
M  V30 2628 C 245.821 1.57679 -0.320328 0
M  V30 2629 O 247.013 1.67767 -0.564211 0
M  V30 2630 C 244.142 3.14377 -1.3792 0
M  V30 2631 C 243.228 3.38023 -2.56127 0
M  V30 2632 N 243.619 3.32135 -3.81471 0
M  V30 2633 C 241.917 3.68747 -2.50882 0
M  V30 2634 C 242.618 3.55902 -4.60118 0
M  V30 2635 N 241.594 3.77783 -3.90872 0
M  V30 2636 H 245.396 1.69657 -2.39987 0
M  V30 2637 H 242.91 0.853508 -1.38163 0
M  V30 2638 H 244.907 3.93666 -1.37231 0
M  V30 2639 H 243.567 3.21683 -0.441596 0
M  V30 2640 H 244.578 3.11515 -4.13738 0
M  V30 2641 H 241.255 3.8316 -1.65816 0
M  V30 2642 H 242.645 3.57116 -5.69138 0
M  V30 2643 N 245.365 1.30045 0.890287 0
M  V30 2644 C 246.295 1.18541 2.01172 0
M  V30 2645 C 247.276 0.0773356 1.69924 0
M  V30 2646 O 248.461 0.25845 1.92473 0
M  V30 2647 C 245.591 0.870941 3.36202 0
M  V30 2648 C 244.545 1.93637 3.81692 0
M  V30 2649 C 243.871 1.475 5.13953 0
M  V30 2650 C 245.171 3.34666 4.00994 0
M  V30 2651 H 246.865 2.12359 2.11054 0
M  V30 2652 H 244.411 1.02238 1.01407 0
M  V30 2653 H 246.364 0.777141 4.14172 0
M  V30 2654 H 245.088 -0.102926 3.26438 0
M  V30 2655 H 243.747 2.01972 3.05946 0
M  V30 2656 H 243.395 0.489551 5.00612 0
M  V30 2657 H 243.095 2.1876 5.4536 0
M  V30 2658 H 244.619 1.39489 5.94454 0
M  V30 2659 H 246.033 3.2912 4.69417 0
M  V30 2660 H 244.43 4.03966 4.43769 0
M  V30 2661 H 245.5 3.76949 3.05021 0
M  V30 2662 N 246.843 -1.10192 1.12674 0
M  V30 2663 C 248.254 -1.63707 0.897604 0
M  V30 2664 C 248.605 -1.87812 -0.567546 0
M  V30 2665 O 247.73 -1.62196 -1.43253 0
M  V30 2666 C 248.325 -2.974 1.62292 0
M  V30 2667 C 246.884 -3.47772 1.43986 0
M  V30 2668 C 246.031 -2.22332 1.65722 0
M  V30 2669 H 248.982 -0.936587 1.28116 0
M  V30 2670 H 249.003 -3.64986 1.07541 0
M  V30 2671 H 248.515 -2.79824 2.68924 0
M  V30 2672 H 246.616 -3.70487 0.396206 0
M  V30 2673 H 246.729 -4.25723 2.19765 0
M  V30 2674 H 245.093 -2.30599 1.08149 0
M  V30 2675 H 245.876 -2.07285 2.73657 0
M  V30 2676 N 248.321 -0.919034 -1.28029 0
M  V30 2677 C 249.551 -0.570143 -1.98577 0
M  V30 2678 C 249.959 0.854172 -1.68821 0
M  V30 2679 O 249.302 1.57807 -0.940351 0
M  V30 2680 C 249.364 -0.705734 -3.52505 0
M  V30 2681 C 249.028 -2.10057 -4.05863 0
M  V30 2682 C 250.025 -3.07385 -4.19298 0
M  V30 2683 C 247.71 -2.41517 -4.40426 0
M  V30 2684 C 249.704 -4.34287 -4.66555 0
M  V30 2685 C 247.391 -3.68657 -4.87376 0
M  V30 2686 C 248.389 -4.64856 -5.00398 0
M  V30 2687 O 248.077 -5.89735 -5.46322 0
M  V30 2688 H 247.809 -0.215592 -0.6407 0
M  V30 2689 H 250.363 -1.23583 -1.64062 0
M  V30 2690 H 248.593 0.0170414 -3.86696 0
M  V30 2691 H 250.282 -0.363172 -4.04272 0
M  V30 2692 H 251.048 -2.84398 -3.92865 0
M  V30 2693 H 246.927 -1.67389 -4.29537 0
M  V30 2694 H 250.471 -5.09377 -4.76635 0
M  V30 2695 H 246.368 -3.91466 -5.13249 0
M  V30 2696 H 247.136 -5.92599 -5.64596 0
M  V30 2697 N 249.799 1.42003 -0.683588 0
M  V30 2698 C 251.048 2.00638 -0.206681 0
M  V30 2699 C 251.361 1.5472 1.19671 0
M  V30 2700 O 252.567 2.05833 1.77045 0
M  V30 2701 C 251.023 3.58487 -0.318632 0
M  V30 2702 C 250.631 4.1339 -1.72663 0
M  V30 2703 C 252.375 4.24384 0.0991141 0
M  V30 2704 C 250.282 5.63633 -1.79087 0
M  V30 2705 H 249.212 0.750408 -0.0735107 0
M  V30 2706 H 251.863 1.62624 -0.850048 0
M  V30 2707 H 250.245 3.94047 0.392781 0
M  V30 2708 H 251.419 3.89273 -2.46583 0
M  V30 2709 H 249.734 3.59976 -2.09299 0
M  V30 2710 H 252.331 5.34652 0.0713833 0
M  V30 2711 H 252.674 4.00505 1.13586 0
M  V30 2712 H 253.207 3.93816 -0.561599 0
M  V30 2713 H 249.946 5.92323 -2.80774 0
M  V30 2714 H 249.466 5.89714 -1.09535 0
M  V30 2715 H 251.145 6.28201 -1.5483 0
M  V30 2716 N 251.277 0.427512 1.51691 0
M  V30 2717 C 252.525 -0.141948 2.01601 0
M  V30 2718 C 252.846 -1.44067 1.31414 0
M  V30 2719 O 252.116 -1.90763 0.445658 0
M  V30 2720 H 250.696 -0.0554468 0.744939 0
M  V30 2721 H 253.358 0.567968 1.86441 0
M  V30 2722 H 252.454 -0.324913 3.10404 0
M  V30 2723 N 252.755 -1.56801 0.158532 0
M  V30 2724 C 253.702 -2.17337 -0.776729 0
M  V30 2725 C 254.672 -1.1096 -1.23601 0
M  V30 2726 O 255.857 -1.39054 -1.30647 0
M  V30 2727 C 252.997 -2.80822 -2.00582 0
M  V30 2728 C 252.11 -4.01624 -1.59129 0
M  V30 2729 C 251.245 -4.53072 -2.77306 0
M  V30 2730 C 250.284 -5.66314 -2.32282 0
M  V30 2731 N 249.421 -6.12329 -3.43508 0
M  V30 2732 H 254.261 -2.96918 -0.253701 0
M  V30 2733 H 251.798 -1.46661 -0.113504 0
M  V30 2734 H 253.756 -3.15779 -2.72652 0
M  V30 2735 H 252.386 -2.03866 -2.50277 0
M  V30 2736 H 251.438 -3.72571 -0.767806 0
M  V30 2737 H 252.75 -4.83633 -1.2207 0
M  V30 2738 H 251.904 -4.90145 -3.57551 0
M  V30 2739 H 250.643 -3.70095 -3.17617 0
M  V30 2740 H 249.648 -5.28806 -1.5048 0
M  V30 2741 H 250.873 -6.51085 -1.93043 0
M  V30 2742 H 248.819 -5.32284 -3.83418 0
M  V30 2743 H 248.736 -6.89293 -3.105 0
M  V30 2744 H 250.004 -6.5405 -4.24075 0
M  V30 2745 N 254.233 0.115231 -1.57178 0
M  V30 2746 C 255.479 0.82357 -1.85325 0
M  V30 2747 C 255.812 1.79349 -0.744814 0
M  V30 2748 O 255.087 1.92899 0.249024 0
M  V30 2749 C 255.37 1.57014 -3.24066 0
M  V30 2750 C 255.223 0.619565 -4.45513 0
M  V30 2751 C 256.542 2.52545 -3.60429 0
M  V30 2752 H 253.661 0.297948 -0.674089 0
M  V30 2753 H 256.303 0.0877138 -1.89797 0
M  V30 2754 H 254.453 2.19742 -3.20383 0
M  V30 2755 H 256.125 0.000837639 -4.613 0
M  V30 2756 H 254.368 -0.0686174 -4.33746 0
M  V30 2757 H 255.039 1.17866 -5.3927 0
M  V30 2758 H 257.515 1.9992 -3.64926 0
M  V30 2759 H 256.391 3.01811 -4.58477 0
M  V30 2760 H 256.652 3.35383 -2.88047 0
M  V30 2761 N 255.711 1.52812 0.385517 0
M  V30 2762 C 256.96 1.67249 1.12741 0
M  V30 2763 C 257.273 0.4205 1.91027 0
M  V30 2764 O 258.479 0.445064 2.67827 0
M  V30 2765 C 256.935 2.95583 2.05326 0
M  V30 2766 C 256.543 4.27974 1.32447 0
M  V30 2767 C 258.287 3.19386 2.7963 0
M  V30 2768 C 256.194 5.47412 2.23818 0
M  V30 2769 H 255.124 0.6231 0.424573 0
M  V30 2770 H 257.775 1.79309 0.389924 0
M  V30 2771 H 256.157 2.77277 2.82725 0
M  V30 2772 H 257.331 4.56844 0.602495 0
M  V30 2773 H 255.646 4.10459 0.700885 0
M  V30 2774 H 258.243 4.05801 3.48181 0
M  V30 2775 H 258.586 2.34604 3.43899 0
M  V30 2776 H 259.119 3.38274 2.09322 0
M  V30 2777 H 255.858 6.34612 1.64157 0
M  V30 2778 H 255.378 5.22849 2.93921 0
M  V30 2779 H 257.057 5.81423 2.83824 0
M  V30 2780 N 257.189 -0.644168 1.43834 0
M  V30 2781 C 258.119 -1.76814 1.52509 0
M  V30 2782 C 259.1 -1.65823 0.379052 0
M  V30 2783 O 260.285 -1.84781 0.597466 0
M  V30 2784 C 257.415 -3.15288 1.4564 0
M  V30 2785 C 256.369 -3.41053 2.58586 0
M  V30 2786 C 255.695 -4.79421 2.36769 0
M  V30 2787 C 256.995 -3.34902 4.00797 0
M  V30 2788 H 258.689 -1.69812 2.46586 0
M  V30 2789 H 256.235 -0.815542 1.1868 0
M  V30 2790 H 258.188 -3.93681 1.50311 0
M  V30 2791 H 256.912 -3.23043 0.480725 0
M  V30 2792 H 255.571 -2.65035 2.53282 0
M  V30 2793 H 255.219 -4.83863 1.37424 0
M  V30 2794 H 254.919 -4.9762 3.12487 0
M  V30 2795 H 256.443 -5.6006 2.43238 0
M  V30 2796 H 257.857 -4.03218 4.07539 0
M  V30 2797 H 256.254 -3.64637 4.76613 0
M  V30 2798 H 257.324 -2.32928 4.25291 0
M  V30 2799 N 258.668 -1.30515 -0.883378 0
M  V30 2800 C 259.598 -1.19607 -2.00541 0
M  V30 2801 C 260.579 -0.086346 -1.69881 0
M  V30 2802 O 261.764 -0.268654 -1.92333 0
M  V30 2803 C 258.894 -0.888758 -3.35736 0
M  V30 2804 C 257.848 -1.95659 -3.8066 0
M  V30 2805 C 257.174 -1.50224 -5.13164 0
M  V30 2806 C 258.474 -3.36788 -3.99213 0
M  V30 2807 H 260.168 -2.13476 -2.09925 0
M  V30 2808 H 257.714 -1.02775 -1.00863 0
M  V30 2809 H 259.667 -0.799094 -4.13754 0
M  V30 2810 H 258.391 0.0856125 -3.26488 0
M  V30 2811 H 257.05 -2.03591 -3.04871 0
M  V30 2812 H 256.698 -0.516092 -5.00345 0
M  V30 2813 H 256.398 -2.2165 -5.44192 0
M  V30 2814 H 257.922 -1.42639 -5.93706 0
M  V30 2815 H 259.336 -3.31605 -4.67665 0
M  V30 2816 H 257.733 -4.06314 -4.41621 0
M  V30 2817 H 258.803 -3.78561 -3.03017 0
M  V30 2818 N 260.146 1.09593 -1.13257 0
M  V30 2819 C 261.423 1.78293 -0.804432 0
M  V30 2820 C 261.803 1.99004 0.70431 0
M  V30 2821 O 261.151 1.59007 1.641 0
M  V30 2822 C 261.361 3.10707 -1.5894 0
M  V30 2823 C 262.709 3.85443 -1.78099 0
M  V30 2824 O 263.733 3.20454 -1.55525 0
M  V30 2825 O 262.592 5.02108 -2.15753 0
M  V30 2826 H 259.686 0.773156 -0.293528 0
M  V30 2827 H 262.232 1.16164 -1.23709 0
M  V30 2828 H 261.004 2.91106 -2.61482 0
M  V30 2829 H 260.627 3.80558 -1.15157 0
M  V30 2830 N 261.624 0.925811 1.2754 0
M  V30 2831 C 262.534 0.428993 2.30644 0
M  V30 2832 C 263.55 -0.489387 1.66976 0
M  V30 2833 O 264.726 -0.372653 1.97922 0
M  V30 2834 C 261.791 -0.311967 3.45294 0
M  V30 2835 C 260.852 0.641098 4.24486 0
M  V30 2836 C 260.085 -0.0645955 5.33661 0
M  V30 2837 O 260.308 -1.28429 5.55754 0
M  V30 2838 O 259.242 0.606265 5.98839 0
M  V30 2839 H 263.068 1.28504 2.75173 0
M  V30 2840 H 260.653 0.691086 1.32455 0
M  V30 2841 H 262.535 -0.729972 4.15029 0
M  V30 2842 H 261.21 -1.14365 3.02824 0
M  V30 2843 H 260.117 1.10874 3.57292 0
M  V30 2844 H 261.45 1.43995 4.70666 0
M  V30 2845 O 263.141 -1.38545 0.829904 0
M  V30 2846 H 263.832 -1.89212 0.414565 0
M  V30 END ATOM
M  V30 BEGIN BOND
M  V30 END BOND
M  V30 END CTAB
M  END
$$$$
