drugbank_target|P0A921 Phospholipase A1 (DB03692)
 OpenBabel12092120033D

  0  0  0     0  0            999 V3000
M  V30 BEGIN CTAB
M  V30 COUNTS 4574 4644 0 0 0
M  V30 BEGIN ATOM
M  V30 1 H -0.908 1.98254 -0.117106 0
M  V30 2 N 0 1.576 0 0
M  V30 3 C 0.933 2.03868 1.02534 0
M  V30 4 C 1.911 0.928543 1.3348 0
M  V30 5 O 3.095 1.19667 1.45644 0
M  V30 6 C 0.222 2.43627 2.35294 0
M  V30 7 C -0.732 3.65373 2.2001 0
M  V30 8 S 0.101 5.13292 1.52614 0
M  V30 9 C 1.257 5.56322 2.86805 0
M  V30 10 H 1.49 2.90518 0.631377 0
M  V30 11 H -0.977 1.52953 0.210867 0
M  V30 12 H 0.981 2.67203 3.11629 0
M  V30 13 H -0.358 1.57376 2.7183 0
M  V30 14 H -1.165 3.90944 3.18086 0
M  V30 15 H -1.563 3.418 1.51819 0
M  V30 16 H 0.729 5.58782 3.83104 0
M  V30 17 H 1.672 6.56266 2.65933 0
M  V30 18 H 2.08 4.83886 2.90714 0
M  V30 19 N 1.4781 -0.272755 1.55222 0
M  V30 20 C 2.8941 -0.619959 1.47067 0
M  V30 21 C 3.0941 -1.895 0.684978 0
M  V30 22 O 2.1501 -2.51675 0.203931 0
M  V30 23 C 3.4631 -0.746693 2.91282 0
M  V30 24 C 5.0111 -0.840731 3.01497 0
M  V30 25 C 5.4861 -0.99924 4.46967 0
M  V30 26 N 6.9771 -1.06476 4.50796 0
M  V30 27 C 7.7121 -1.20621 5.6057 0
M  V30 28 N 7.2081 -1.31483 6.80209 0
M  V30 29 N 9.0011 -1.23733 5.48312 0
M  V30 30 H 1.1521 0.564606 2.04758 0
M  V30 31 H 3.4151 0.191177 0.928523 0
M  V30 32 H 3.1211 0.119753 3.51496 0
M  V30 33 H 2.9951 -1.6269 3.40311 0
M  V30 34 H 5.3821 -1.69764 2.41379 0
M  V30 35 H 5.4631 0.0640874 2.5572 0
M  V30 36 H 5.1071 -0.146984 5.07687 0
M  V30 37 H 5.0371 -1.91871 4.90401 0
M  V30 38 H 7.5281 -0.993196 3.64615 0
M  V30 39 H 7.8411 -1.42111 7.59621 0
M  V30 40 H 6.1861 -1.28487 6.8302 0
M  V30 41 H 9.3771 -1.14877 4.53785 0
M  V30 42 H 9.5501 -1.34412 6.33906 0
M  V30 43 N 2.9562 -1.48159 -0.537278 0
M  V30 44 C 4.1842 -1.59454 -1.31841 0
M  V30 45 C 4.5992 -0.252065 -1.8711 0
M  V30 46 O 3.9562 0.757621 -1.66031 0
M  V30 47 C 4.0072 -2.63546 -2.47439 0
M  V30 48 O 3.7282 -3.92583 -1.94449 0
M  V30 49 C 5.2292 -2.85212 -3.39366 0
M  V30 50 H 2.4492 -0.53785 -0.401196 0
M  V30 51 H 4.9932 -1.93932 -0.648891 0
M  V30 52 H 3.1482 -2.31946 -3.1029 0
M  V30 53 H 3.5622 -4.49629 -2.70063 0
M  V30 54 H 5.0362 -3.61863 -4.16844 0
M  V30 55 H 5.5132 -1.93765 -3.94147 0
M  V30 56 H 6.1192 -3.18086 -2.82314 0
M  V30 57 N 4.4343 0.785586 -1.36625 0
M  V30 58 C 5.3643 1.91259 -1.33949 0
M  V30 59 C 6.3453 1.68795 -0.210325 0
M  V30 60 O 7.5303 1.89854 -0.408561 0
M  V30 61 C 4.6603 3.28339 -1.13186 0
M  V30 62 C 3.6143 3.65335 -2.22967 0
M  V30 63 C 2.9403 5.00806 -1.87342 0
M  V30 64 C 4.2403 3.7352 -3.65075 0
M  V30 65 H 5.9343 1.93755 -2.28253 0
M  V30 66 H 3.4803 0.930788 -1.09874 0
M  V30 67 H 5.4333 4.06804 -1.09948 0
M  V30 68 H 4.1573 3.2624 -0.153332 0
M  V30 69 H 2.8163 2.89169 -2.25337 0
M  V30 70 H 2.4643 4.95233 -0.880545 0
M  V30 71 H 2.1643 5.26529 -2.60846 0
M  V30 72 H 3.6883 5.81687 -1.85667 0
M  V30 73 H 5.1023 4.42168 -3.64911 0
M  V30 74 H 3.4993 4.10731 -4.37516 0
M  V30 75 H 4.5693 2.74527 -3.99703 0
M  V30 76 N 5.9124 1.20967 1.01018 0
M  V30 77 C 6.8444 0.922059 2.09835 0
M  V30 78 C 7.8574 -0.0927106 1.62536 0
M  V30 79 O 9.0464 0.139127 1.77957 0
M  V30 80 C 6.1464 0.362004 3.36961 0
M  V30 81 C 5.3194 1.42986 4.13369 0
M  V30 82 C 4.3784 0.879976 5.1879 0
M  V30 83 O 3.4044 1.56219 5.47343 0
M  V30 84 N 4.6064 -0.307396 5.79686 0
M  V30 85 H 7.3714 1.8588 2.35093 0
M  V30 86 H 4.9324 1.11422 1.1746 0
M  V30 87 H 6.9244 -0.0201474 4.04695 0
M  V30 88 H 5.4944 -0.479437 3.08902 0
M  V30 89 H 4.7144 1.98608 3.40512 0
M  V30 90 H 6.0024 2.14885 4.61196 0
M  V30 91 H 5.4004 -0.878796 5.58832 0
M  V30 92 H 3.9574 -0.631115 6.48737 0
M  V30 93 N 7.3905 -1.2043 1.01659 0
M  V30 94 C 8.6385 -1.89423 0.704522 0
M  V30 95 C 8.9595 -1.79231 -0.768197 0
M  V30 96 O 8.2295 -1.1947 -1.55254 0
M  V30 97 H 6.8095 -0.701178 0.257602 0
M  V30 98 H 9.4715 -1.4626 1.28818 0
M  V30 99 H 8.5675 -2.96052 0.987916 0
M  V30 100 N 8.8686 -0.792821 -1.36206 0
M  V30 101 C 10.1146 -0.376415 -1.99887 0
M  V30 102 C 10.4696 1.04127 -1.61788 0
M  V30 103 O 9.7626 1.71004 -0.864193 0
M  V30 104 C 9.9566 -0.481501 -3.54142 0
M  V30 105 C 9.7856 -1.90786 -4.07223 0
M  V30 106 C 8.5556 -2.53322 -4.37214 0
M  V30 107 C 10.7536 -2.87048 -4.26741 0
M  V30 108 N 8.7356 -3.8751 -4.7614 0
M  V30 109 C 10.1066 -4.06077 -4.6851 0
M  V30 110 C 12.1616 -2.8406 -4.08918 0
M  V30 111 C 10.8646 -5.22532 -4.94321 0
M  V30 112 C 12.8906 -3.99705 -4.35878 0
M  V30 113 C 12.2526 -5.1748 -4.77906 0
M  V30 114 H 8.3516 -0.185226 -0.759747 0
M  V30 115 H 10.9356 -1.03114 -1.65153 0
M  V30 116 H 9.1066 0.143154 -3.88136 0
M  V30 117 H 10.8386 -0.0410128 -4.04679 0
M  V30 118 H 7.5936 -2.04777 -4.2704 0
M  V30 119 H 8.0176 -4.5656 -4.99882 0
M  V30 120 H 12.6596 -1.94165 -3.75579 0
M  V30 121 H 10.3776 -6.1301 -5.2654 0
M  V30 122 H 13.9636 -3.98758 -4.23655 0
M  V30 123 H 12.8436 -6.05478 -4.98363 0
M  V30 124 N 10.3467 1.47872 -0.545128 0
M  V30 125 C 11.2767 2.32661 0.197793 0
M  V30 126 C 12.2577 1.43041 0.920504 0
M  V30 127 O 13.4427 1.71912 0.90333 0
M  V30 128 C 10.5727 3.24569 1.23582 0
M  V30 129 C 9.5267 4.23333 0.630323 0
M  V30 130 C 8.8527 5.0448 1.77211 0
M  V30 131 C 10.1527 5.20704 -0.407974 0
M  V30 132 H 11.8467 2.95024 -0.510045 0
M  V30 133 H 9.3927 1.4187 -0.246731 0
M  V30 134 H 11.3457 3.8272 1.76362 0
M  V30 135 H 10.0697 2.60236 1.97344 0
M  V30 136 H 8.7287 3.6639 0.123922 0
M  V30 137 H 8.3767 4.36561 2.49847 0
M  V30 138 H 8.0767 5.71339 1.37281 0
M  V30 139 H 9.6007 5.65487 2.3034 0
M  V30 140 H 11.0147 5.7329 0.033305 0
M  V30 141 H 9.4117 5.95699 -0.725486 0
M  V30 142 H 10.4817 4.66917 -1.30828 0
M  V30 143 N 11.8248 0.280983 1.55075 0
M  V30 144 C 12.7548 -0.597469 2.25727 0
M  V30 145 C 13.7358 -1.15417 1.24952 0
M  V30 146 O 14.9208 -1.18722 1.53684 0
M  V30 147 C 12.0508 -1.7789 2.98283 0
M  V30 148 C 11.0048 -1.35347 4.06036 0
M  V30 149 C 10.3308 -2.61846 4.66198 0
M  V30 150 C 11.6308 -0.499354 5.19907 0
M  V30 151 H 13.3248 -0.00824265 2.99399 0
M  V30 152 H 10.8708 -0.0025244 1.44 0
M  V30 153 H 12.8238 -2.39937 3.46422 0
M  V30 154 H 11.5478 -2.39405 2.22155 0
M  V30 155 H 10.2068 -0.756156 3.58717 0
M  V30 156 H 9.8548 -3.21632 3.86732 0
M  V30 157 H 9.5548 -2.3409 5.38958 0
M  V30 158 H 11.0788 -3.24732 5.1709 0
M  V30 159 H 12.4928 -1.02498 5.64063 0
M  V30 160 H 10.8898 -0.316424 5.99265 0
M  V30 161 H 11.9598 0.480459 4.82514 0
M  V30 162 N 13.3029 -1.57598 0.00835791 0
M  V30 163 C 14.7139 -1.7892 -0.53333 0
M  V30 164 C 15.0649 -0.916609 -1.73473 0
M  V30 165 O 14.1899 -0.121336 -2.1606 0
M  V30 166 C 14.7849 -3.24488 -0.974313 0
M  V30 167 C 13.3439 -3.46878 -1.46125 0
M  V30 168 C 12.4909 -2.74157 -0.416302 0
M  V30 169 H 15.4419 -1.56958 0.234495 0
M  V30 170 H 15.4629 -3.3306 -1.83988 0
M  V30 171 H 14.9749 -3.87972 -0.099718 0
M  V30 172 H 13.0759 -2.8862 -2.35646 0
M  V30 173 H 13.1889 -4.55572 -1.48295 0
M  V30 174 H 11.5529 -2.39022 -0.87981 0
M  V30 175 H 12.3359 -3.40345 0.44947 0
M  V30 176 N 14.781 0.264519 -1.55364 0
M  V30 177 C 16.027 0.99646 -1.76631 0
M  V30 178 C 16.36 1.85632 -0.570478 0
M  V30 179 O 15.635 1.89647 0.43175 0
M  V30 180 C 15.918 1.87187 -3.07625 0
M  V30 181 C 15.771 1.04138 -4.37579 0
M  V30 182 C 17.09 2.85749 -3.34717 0
M  V30 183 H 14.209 0.360841 -0.642622 0
M  V30 184 H 16.851 0.268218 -1.88097 0
M  V30 185 H 15.001 2.49279 -2.9798 0
M  V30 186 H 16.673 0.440517 -4.59192 0
M  V30 187 H 14.916 0.345115 -4.32425 0
M  V30 188 H 15.587 1.68729 -5.2558 0
M  V30 189 H 18.063 2.33793 -3.4421 0
M  V30 190 H 16.939 3.44136 -4.27623 0
M  V30 191 H 17.2 3.61311 -2.54768 0
M  V30 192 N 16.2591 1.48442 0.529413 0
M  V30 193 C 17.5061 1.56488 1.28521 0
M  V30 194 C 17.8341 0.239042 1.93025 0
M  V30 195 O 17.0891 -0.770713 1.79885 0
M  V30 196 C 17.3881 2.6523 2.39558 0
M  V30 197 C 17.0541 4.07648 1.92702 0
M  V30 198 C 15.7161 4.46411 1.79641 0
M  V30 199 C 18.0681 4.96896 1.573 0
M  V30 200 C 15.3961 5.72226 1.29514 0
M  V30 201 C 17.7481 6.23202 1.08636 0
M  V30 202 C 16.4121 6.60821 0.941919 0
M  V30 203 H 15.6821 0.572631 0.470292 0
M  V30 204 H 18.3291 1.82161 0.59072 0
M  V30 205 H 16.6341 2.33419 3.14679 0
M  V30 206 H 18.3311 2.68671 2.97686 0
M  V30 207 H 14.9211 3.77036 2.03819 0
M  V30 208 H 19.1051 4.67626 1.66251 0
M  V30 209 H 14.3611 6.00097 1.17019 0
M  V30 210 H 18.5351 6.91753 0.803136 0
M  V30 211 H 16.1621 7.58198 0.5513 0
M  V30 212 N 17.7372 -0.778329 1.37039 0
M  V30 213 C 18.6702 -1.8984 1.26633 0
M  V30 214 C 19.6482 -1.61923 0.148197 0
M  V30 215 O 20.8322 -1.85742 0.321265 0
M  V30 216 C 17.9592 -3.24916 0.956403 0
M  V30 217 C 17.0052 -3.71752 2.09051 0
M  V30 218 S 17.8382 -3.86201 3.70957 0
M  V30 219 C 18.9942 -5.24135 3.42101 0
M  V30 220 H 19.2272 -1.98377 2.21436 0
M  V30 221 H 16.7602 -0.938738 1.22585 0
M  V30 222 H 18.7182 -4.02936 0.784409 0
M  V30 223 H 17.3792 -3.14089 0.0259713 0
M  V30 224 H 16.5722 -4.69661 1.8285 0
M  V30 225 H 16.1742 -3.00815 2.2223 0
M  V30 226 H 18.4662 -6.09086 2.96682 0
M  V30 227 H 19.4092 -5.55346 4.39314 0
M  V30 228 H 19.8172 -4.91761 2.77185 0
M  V30 229 N 19.2153 -1.21501 -1.00376 0
M  V30 230 C 20.1453 -0.999478 -2.11028 0
M  V30 231 C 21.1263 0.0759671 -1.6993 0
M  V30 232 O 22.3113 -0.0841106 -1.94018 0
M  V30 233 C 19.4413 -0.564709 -3.42678 0
M  V30 234 C 18.3953 -1.58486 -3.97576 0
M  V30 235 C 17.7213 -1.00628 -5.25146 0
M  V30 236 C 19.0213 -2.97204 -4.29496 0
M  V30 237 H 20.7153 -1.92495 -2.29317 0
M  V30 238 H 18.2613 -0.92693 -1.102 0
M  V30 239 H 20.2143 -0.401091 -4.19487 0
M  V30 240 H 18.9383 0.396411 -3.24185 0
M  V30 241 H 17.5973 -1.73606 -3.22888 0
M  V30 242 H 17.2453 -0.0368439 -5.02987 0
M  V30 243 H 16.9453 -1.68771 -5.62841 0
M  V30 244 H 18.4693 -0.854015 -6.04598 0
M  V30 245 H 19.8833 -2.8552 -4.97143 0
M  V30 246 H 18.2803 -3.62372 -4.78338 0
M  V30 247 H 19.3503 -3.47956 -3.3772 0
M  V30 248 N 20.6934 1.19889 -1.02296 0
M  V30 249 C 22.1044 1.71124 -0.746568 0
M  V30 250 C 22.4554 1.81939 0.734335 0
M  V30 251 O 21.5804 1.48639 1.57275 0
M  V30 252 C 22.1754 3.10804 -1.34857 0
M  V30 253 C 20.7344 3.59323 -1.1209 0
M  V30 254 C 19.8814 2.3635 -1.45031 0
M  V30 255 H 22.8324 1.04813 -1.19163 0
M  V30 256 H 22.8534 3.73186 -0.742437 0
M  V30 257 H 22.3654 3.029 -2.42638 0
M  V30 258 H 20.4664 3.7255 -0.0610337 0
M  V30 259 H 20.5794 4.4378 -1.80544 0
M  V30 260 H 18.9434 2.39399 -0.869487 0
M  V30 261 H 19.7264 2.31081 -2.53883 0
M  V30 262 N 22.1715 0.800033 1.35784 0
M  V30 263 C 23.1045 0.151499 2.27697 0
M  V30 264 C 24.0825 -0.678663 1.4776 0
M  V30 265 O 25.2665 -0.647358 1.77035 0
M  V30 266 C 22.3935 -0.790492 3.29346 0
M  V30 267 C 21.4395 -0.0407832 4.26481 0
M  V30 268 S 22.2725 1.29077 5.19711 0
M  V30 269 C 23.4285 0.353055 6.24903 0
M  V30 270 H 23.6615 0.930796 2.82353 0
M  V30 271 H 21.1945 0.594767 1.42485 0
M  V30 272 H 23.1525 -1.3285 3.88409 0
M  V30 273 H 21.8135 -1.54312 2.73581 0
M  V30 274 H 21.0065 -0.755971 4.98298 0
M  V30 275 H 20.6085 0.427063 3.71554 0
M  V30 276 H 22.9005 -0.464147 6.75908 0
M  V30 277 H 23.8435 1.04023 7.00418 0
M  V30 278 H 24.2515 -0.0483344 5.64479 0
M  V30 279 N 23.6496 -1.47581 0.552962 0
M  V30 280 C 24.6126 -2.28439 -0.186605 0
M  V30 281 C 25.6126 -1.36706 -0.84665 0
M  V30 282 O 26.8026 -1.59378 -0.703164 0
M  V30 283 C 23.9346 -3.16264 -1.2724 0
M  V30 284 H 25.1276 -2.95294 0.523609 0
M  V30 285 H 22.6806 -1.532 0.309745 0
M  V30 286 H 23.4156 -2.54091 -2.01514 0
M  V30 287 H 23.2006 -3.83769 -0.803968 0
M  V30 288 H 24.6906 -3.77198 -1.79196 0
M  V30 289 N 25.1277 -0.289203 -1.54924 0
M  V30 290 C 26.3737 0.323998 -2.00195 0
M  V30 291 C 26.7067 1.54441 -1.17735 0
M  V30 292 O 25.9817 1.92875 -0.250878 0
M  V30 293 C 26.2647 0.692276 -3.53383 0
M  V30 294 C 26.1177 -0.536457 -4.46589 0
M  V30 295 C 27.4367 1.52335 -4.12895 0
M  V30 296 H 24.5557 0.116289 -0.727768 0
M  V30 297 H 27.1977 -0.398954 -1.85764 0
M  V30 298 H 25.3477 1.30822 -3.65811 0
M  V30 299 H 27.0197 -1.17499 -4.46085 0
M  V30 300 H 25.2627 -1.17192 -4.1767 0
M  V30 301 H 25.9337 -0.234806 -5.515 0
M  V30 302 H 28.4097 1.00302 -4.0383 0
M  V30 303 H 27.2857 1.74982 -5.20262 0
M  V30 304 H 27.5467 2.50886 -3.64018 0
M  V30 305 N 26.6058 1.57591 -0.0167156 0
M  V30 306 C 27.8358 1.95292 0.674149 0
M  V30 307 C 28.2438 0.891097 1.66901 0
M  V30 308 O 27.5868 -0.136908 1.83189 0
M  V30 309 C 27.6488 3.29072 1.44747 0
M  V30 310 C 27.3128 4.52879 0.612331 0
M  V30 311 C 28.3098 5.1979 -0.107126 0
M  V30 312 C 25.9948 4.99242 0.553381 0
M  V30 313 C 27.9888 6.31375 -0.874339 0
M  V30 314 C 25.6758 6.10713 -0.217546 0
M  V30 315 C 26.6738 6.76637 -0.930123 0
M  V30 316 O 26.3618 7.85969 -1.68844 0
M  V30 317 H 26.0938 0.648275 0.191615 0
M  V30 318 H 28.6478 2.05284 -0.0690148 0
M  V30 319 H 26.8778 3.15535 2.2355 0
M  V30 320 H 28.5668 3.51764 2.02526 0
M  V30 321 H 29.3328 4.84948 -0.0708392 0
M  V30 322 H 25.2118 4.47744 1.09757 0
M  V30 323 H 28.7558 6.82764 -1.43106 0
M  V30 324 H 24.6528 6.44994 -0.255593 0
M  V30 325 H 25.4208 8.02571 -1.6069 0
M  V30 326 N 28.0839 -0.256276 1.55502 0
M  V30 327 C 29.0469 -1.30047 1.88734 0
M  V30 328 C 30.0469 -1.4154 0.763086 0
M  V30 329 O 31.2369 -1.40403 1.03115 0
M  V30 330 C 28.3689 -2.67953 2.10747 0
M  V30 331 H 29.5619 -1.01802 2.82093 0
M  V30 332 H 27.1149 -0.495134 1.4825 0
M  V30 333 H 27.8499 -3.01351 1.19825 0
M  V30 334 H 27.6349 -2.60993 2.92617 0
M  V30 335 H 29.1249 -3.43368 2.37673 0
M  V30 336 N 29.562 -1.4872 -0.521534 0
M  V30 337 C 30.494 -1.59968 -1.64143 0
M  V30 338 C 31.507 -0.483463 -1.55456 0
M  V30 339 O 32.696 -0.75467 -1.61762 0
M  V30 340 C 29.796 -1.52127 -3.02838 0
M  V30 341 C 28.969 -2.78932 -3.36921 0
M  V30 342 C 28.028 -2.64428 -4.54933 0
M  V30 343 O 27.054 -3.38331 -4.57735 0
M  V30 344 N 28.256 -1.74606 -5.53618 0
M  V30 345 H 31.021 -2.56548 -1.54929 0
M  V30 346 H 28.582 -1.45551 -0.708988 0
M  V30 347 H 30.574 -1.40106 -3.79674 0
M  V30 348 H 29.144 -0.634868 -3.06085 0
M  V30 349 H 28.364 -3.05455 -2.4918 0
M  V30 350 H 29.652 -3.63041 -3.56481 0
M  V30 351 H 29.05 -1.13782 -5.54139 0
M  V30 352 H 27.607 -1.6852 -6.29638 0
M  V30 353 N 31.0401 0.771051 -1.3745 0
M  V30 354 C 31.9501 1.91538 -1.35464 0
M  V30 355 C 32.9661 1.72134 -0.254123 0
M  V30 356 O 34.1421 1.95358 -0.489626 0
M  V30 357 C 31.2071 3.26671 -1.16134 0
M  V30 358 C 30.2681 3.58723 -2.35831 0
M  V30 359 C 29.5011 4.87409 -2.17413 0
M  V30 360 O 29.7241 5.58506 -1.15876 0
M  V30 361 O 28.6581 5.18539 -3.05615 0
M  V30 362 H 32.4841 1.96165 -2.31847 0
M  V30 363 H 30.0691 0.9139 -1.18187 0
M  V30 364 H 31.9511 4.07499 -1.07345 0
M  V30 365 H 30.6261 3.22894 -0.228251 0
M  V30 366 H 29.5331 2.78127 -2.50192 0
M  V30 367 H 30.8661 3.67243 -3.27709 0
M  V30 368 N 32.5182 1.22032 0.997298 0
M  V30 369 C 33.4812 0.987909 2.06816 0
M  V30 370 C 34.4812 -0.0440084 1.6074 0
M  V30 371 O 35.6712 0.194053 1.73116 0
M  V30 372 C 32.8032 0.49132 3.37341 0
M  V30 373 H 33.9962 1.93803 2.28868 0
M  V30 374 H 31.5492 1.03838 1.16822 0
M  V30 375 H 32.2842 -0.463364 3.20973 0
M  V30 376 H 32.0692 1.23575 3.72118 0
M  V30 377 H 33.5592 0.348824 4.16141 0
M  V30 378 N 33.9963 -1.19345 1.0293 0
M  V30 379 C 35.2243 -1.92997 0.745644 0
M  V30 380 C 35.6393 -1.75519 -0.695589 0
M  V30 381 O 34.9963 -1.07737 -1.47306 0
M  V30 382 C 35.0473 -3.44741 1.08792 0
M  V30 383 O 34.7683 -3.61658 2.47256 0
M  V30 384 C 36.2693 -4.35515 0.827129 0
M  V30 385 H 33.4893 -0.613042 0.272801 0
M  V30 386 H 36.0333 -1.51473 1.3739 0
M  V30 387 H 34.1883 -3.84097 0.504832 0
M  V30 388 H 34.6023 -4.55514 2.60015 0
M  V30 389 H 36.0763 -5.40589 1.11658 0
M  V30 390 H 36.5533 -4.38552 -0.238436 0
M  V30 391 H 37.1593 -4.01841 1.39297 0
M  V30 392 N 35.4744 -0.807222 -1.35358 0
M  V30 393 C 36.7204 -0.388463 -1.99045 0
M  V30 394 C 37.0534 1.04184 -1.63888 0
M  V30 395 O 36.3284 1.72292 -0.902535 0
M  V30 396 C 36.6114 -0.572783 -3.55515 0
M  V30 397 C 36.4644 -2.04807 -4.00468 0
M  V30 398 C 37.7834 0.00114064 -4.401 0
M  V30 399 H 34.9024 -0.142619 -0.723069 0
M  V30 400 H 37.5444 -1.01687 -1.60498 0
M  V30 401 H 35.6944 -0.0378425 -3.88482 0
M  V30 402 H 37.3664 -2.64544 -3.77908 0
M  V30 403 H 35.6094 -2.54427 -3.51353 0
M  V30 404 H 36.2804 -2.12792 -5.09337 0
M  V30 405 H 38.7564 -0.455716 -4.13597 0
M  V30 406 H 37.6324 -0.157737 -5.48673 0
M  V30 407 H 37.8934 1.09488 -4.28328 0
M  V30 408 N 36.9525 1.47285 -0.560781 0
M  V30 409 C 37.8995 2.30058 0.18491 0
M  V30 410 C 38.8695 1.39281 0.904986 0
M  V30 411 O 40.0545 1.68241 0.899979 0
M  V30 412 C 37.1945 3.23317 1.20666 0
M  V30 413 C 36.3075 4.29186 0.492285 0
M  V30 414 C 35.4425 5.09592 1.49964 0
M  V30 415 C 34.4815 6.07232 0.770439 0
M  V30 416 N 33.6185 6.80584 1.72479 0
M  V30 417 H 38.4585 2.93302 -0.527048 0
M  V30 418 H 35.9955 1.44568 -0.271738 0
M  V30 419 H 37.9535 3.75811 1.81168 0
M  V30 420 H 36.5835 2.61929 1.88661 0
M  V30 421 H 35.6355 3.7972 -0.227333 0
M  V30 422 H 36.9475 4.98738 -0.0787929 0
M  V30 423 H 36.1015 5.66254 2.17809 0
M  V30 424 H 34.8405 4.3995 2.10464 0
M  V30 425 H 33.8455 5.49745 0.0780846 0
M  V30 426 H 35.0705 6.78884 0.171134 0
M  V30 427 H 33.0165 6.1367 2.3183 0
M  V30 428 H 32.9335 7.46319 1.20596 0
M  V30 429 H 34.2015 7.41818 2.39428 0
M  V30 430 N 38.4306 0.297415 1.54768 0
M  V30 431 C 39.3406 -0.58983 2.27064 0
M  V30 432 C 40.3566 -1.15144 1.30453 0
M  V30 433 O 41.5326 -1.17699 1.63428 0
M  V30 434 C 38.5976 -1.74714 2.9946 0
M  V30 435 C 37.6586 -1.21997 4.11601 0
M  V30 436 C 36.8916 -2.32212 4.80535 0
M  V30 437 O 37.1146 -3.52036 4.48806 0
M  V30 438 O 36.0486 -1.99106 5.68014 0
M  V30 439 H 39.8746 -0.00348199 3.037 0
M  V30 440 H 37.4596 0.0640035 1.49263 0
M  V30 441 H 39.3416 -2.42147 3.44881 0
M  V30 442 H 38.0166 -2.32016 2.25722 0
M  V30 443 H 36.9236 -0.511458 3.70587 0
M  V30 444 H 38.2566 -0.692419 4.87305 0
M  V30 445 N 39.9087 -1.5758 0.0250728 0
M  V30 446 C 41.1547 -1.91917 -0.655413 0
M  V30 447 C 41.4877 -0.901433 -1.72011 0
M  V30 448 O 40.7627 0.0764069 -1.9435 0
M  V30 449 C 41.0457 -3.36751 -1.27558 0
M  V30 450 C 40.8987 -4.49258 -0.220719 0
M  V30 451 C 42.2177 -3.81469 -2.19475 0
M  V30 452 H 39.3367 -0.697925 -0.23679 0
M  V30 453 H 41.9787 -1.89825 0.0815036 0
M  V30 454 H 40.1287 -3.38664 -1.90365 0
M  V30 455 H 41.8007 -4.59478 0.409601 0
M  V30 456 H 40.0437 -4.31415 0.454264 0
M  V30 457 H 40.7147 -5.47618 -0.694175 0
M  V30 458 H 43.1907 -3.81266 -1.66659 0
M  V30 459 H 42.0667 -4.83512 -2.59822 0
M  V30 460 H 42.3277 -3.16744 -3.08424 0
M  V30 461 N 41.3868 0.248026 -1.55636 0
M  V30 462 C 42.3368 1.30994 -1.86614 0
M  V30 463 C 43.3208 1.43543 -0.726918 0
M  V30 464 O 44.5128 1.46804 -0.988818 0
M  V30 465 C 41.6418 2.6656 -2.16335 0
M  V30 466 C 40.7278 2.58019 -3.36581 0
M  V30 467 N 41.1188 2.1911 -4.55878 0
M  V30 468 C 39.4168 2.89035 -3.39669 0
M  V30 469 C 40.1178 2.21174 -5.38012 0
M  V30 470 N 39.0938 2.60632 -4.77045 0
M  V30 471 H 42.8958 0.999583 -2.76379 0
M  V30 472 H 40.4098 0.456652 -1.55848 0
M  V30 473 H 42.4068 3.43194 -2.36692 0
M  V30 474 H 41.0668 2.98463 -1.27867 0
M  V30 475 H 42.0778 1.90672 -4.81523 0
M  V30 476 H 38.7548 3.25485 -2.61469 0
M  V30 477 H 40.1448 1.9344 -6.43452 0
M  V30 478 N 42.8649 1.48995 0.513639 0
M  V30 479 C 44.1419 1.48338 1.27495 0
M  V30 480 C 44.5219 0.204065 2.10111 0
M  V30 481 O 43.8699 -0.813881 2.13514 0
M  V30 482 C 44.0799 2.75498 2.14247 0
M  V30 483 C 45.4279 3.24484 2.73852 0
M  V30 484 O 46.4519 2.76528 2.24523 0
M  V30 485 O 45.3109 4.07974 3.6362 0
M  V30 486 H 42.4049 0.593149 0.576284 0
M  V30 487 H 44.9509 1.61246 0.528948 0
M  V30 488 H 43.7229 3.60109 1.53092 0
M  V30 489 H 43.3459 2.6539 2.96064 0
M  V30 490 N 44.343 -0.763751 1.37857 0
M  V30 491 C 45.306 -1.85889 1.34081 0
M  V30 492 C 46.306 -1.58949 0.243277 0
M  V30 493 O 47.496 -1.66882 0.499589 0
M  V30 494 C 44.628 -3.23176 1.08489 0
M  V30 495 H 45.821 -1.90648 2.31502 0
M  V30 496 H 43.374 -0.964367 1.23003 0
M  V30 497 H 44.109 -3.24091 0.116318 0
M  V30 498 H 43.894 -3.44124 1.8794 0
M  V30 499 H 45.384 -4.03254 1.08517 0
M  V30 500 N 45.8211 -1.22559 -0.990812 0
M  V30 501 C 47.2321 -1.04791 -1.54518 0
M  V30 502 C 47.5831 0.387998 -1.92325 0
M  V30 503 O 46.7081 1.27328 -1.74976 0
M  V30 504 C 47.3031 -1.896 -2.80779 0
M  V30 505 C 45.8621 -1.76124 -3.32652 0
M  V30 506 C 45.0091 -1.8594 -2.05722 0
M  V30 507 H 47.9601 -1.36374 -0.811662 0
M  V30 508 H 47.9811 -1.41464 -3.53225 0
M  V30 509 H 47.4931 -2.94101 -2.53231 0
M  V30 510 H 45.5941 -0.743643 -3.65104 0
M  V30 511 H 45.7071 -2.58913 -4.03114 0
M  V30 512 H 44.0711 -1.29403 -2.19379 0
M  V30 513 H 44.8541 -2.91976 -1.80568 0
M  V30 514 N 47.2992 1.18797 -1.03562 0
M  V30 515 C 48.2622 2.20464 -0.626769 0
M  V30 516 C 49.2622 1.57721 0.313173 0
M  V30 517 O 50.4522 1.73917 0.0992615 0
M  V30 518 C 47.5842 3.40802 0.0818498 0
M  V30 519 H 48.7772 2.58149 -1.5264 0
M  V30 520 H 46.3302 1.32593 -0.827578 0
M  V30 521 H 47.0652 3.08642 0.995518 0
M  V30 522 H 46.8502 3.8758 -0.593652 0
M  V30 523 H 48.3402 4.16092 0.354584 0
M  V30 524 N 48.7773 0.814389 1.34928 0
M  V30 525 C 50.0233 0.399013 1.98836 0
M  V30 526 C 50.3563 -1.03314 1.64438 0
M  V30 527 O 49.6313 -1.71811 0.911659 0
M  V30 528 C 49.9143 0.591629 3.55207 0
M  V30 529 C 49.7673 2.06928 3.99376 0
M  V30 530 C 51.0863 0.022199 4.40094 0
M  V30 531 H 48.2053 0.146451 0.722303 0
M  V30 532 H 50.8473 1.02537 1.59957 0
M  V30 533 H 48.9973 0.0584441 3.88456 0
M  V30 534 H 50.6693 2.66544 3.76499 0
M  V30 535 H 48.9123 2.56287 3.49999 0
M  V30 536 H 49.5833 2.1549 5.08201 0
M  V30 537 H 52.0593 0.477643 4.13349 0
M  V30 538 H 50.9353 0.186832 5.48582 0
M  V30 539 H 51.1963 -1.07215 4.28902 0
M  V30 540 N 50.2554 -1.46986 0.568584 0
M  V30 541 C 51.6714 -1.57946 0.229189 0
M  V30 542 C 51.8714 -1.56567 -1.26843 0
M  V30 543 O 50.9274 -1.47511 -2.04931 0
M  V30 544 C 52.2404 -2.87963 0.865909 0
M  V30 545 C 53.7884 -3.01568 0.838188 0
M  V30 546 C 54.2634 -4.34301 1.45419 0
M  V30 547 N 55.7544 -4.40965 1.41788 0
M  V30 548 C 56.4894 -5.42256 1.86403 0
M  V30 549 N 55.9854 -6.50297 2.38926 0
M  V30 550 N 57.7784 -5.3337 1.77405 0
M  V30 551 H 49.9294 -1.46126 1.54146 0
M  V30 552 H 52.1924 -0.696156 0.643484 0
M  V30 553 H 51.8984 -2.94742 1.91886 0
M  V30 554 H 51.7724 -3.75423 0.365687 0
M  V30 555 H 54.1594 -2.94379 -0.206106 0
M  V30 556 H 54.2404 -2.1562 1.37629 0
M  V30 557 H 53.8844 -4.42247 2.49761 0
M  V30 558 H 53.8144 -5.19 0.891435 0
M  V30 559 H 56.3054 -3.63484 1.03381 0
M  V30 560 H 56.6184 -7.23777 2.70863 0
M  V30 561 H 54.9634 -6.51155 2.42944 0
M  V30 562 H 58.1544 -4.47865 1.3614 0
M  V30 563 H 58.3274 -6.12169 2.12492 0
M  V30 564 N 51.7335 -0.305618 -1.54608 0
M  V30 565 C 52.9815 0.301701 -1.99835 0
M  V30 566 C 53.3025 1.54054 -1.19551 0
M  V30 567 O 52.5725 1.93702 -0.292658 0
M  V30 568 H 51.1525 0.114468 -0.738178 0
M  V30 569 H 53.8145 -0.418016 -1.90364 0
M  V30 570 H 52.9105 0.570548 -3.06841 0
M  V30 571 N 53.2116 1.57565 -0.0334293 0
M  V30 572 C 54.4366 1.96689 0.657895 0
M  V30 573 C 54.8616 0.910057 1.64619 0
M  V30 574 O 54.2196 -0.128598 1.80843 0
M  V30 575 C 54.2676 3.34905 1.33683 0
M  V30 576 O 53.3716 3.31574 2.45219 0
M  V30 577 H 52.7126 0.641205 0.172489 0
M  V30 578 H 55.2426 2.04372 -0.0965621 0
M  V30 579 H 55.2526 3.71234 1.69262 0
M  V30 580 H 53.9276 4.11366 0.612411 0
M  V30 581 H 52.5046 3.06968 2.11719 0
M  V30 582 N 54.6897 -0.239769 1.55765 0
M  V30 583 C 55.9387 -0.964754 1.77131 0
M  V30 584 C 56.2517 -1.86213 0.59868 0
M  V30 585 O 57.4577 -2.6244 0.695522 0
M  V30 586 C 55.9137 -1.76552 3.1362 0
M  V30 587 C 55.5217 -0.915185 4.38553 0
M  V30 588 C 57.2657 -2.48281 3.44321 0
M  V30 589 C 55.1727 -1.71225 5.66071 0
M  V30 590 H 54.1027 -0.363953 0.660344 0
M  V30 591 H 56.7537 -0.219181 1.82186 0
M  V30 592 H 55.1357 -2.55331 3.02691 0
M  V30 593 H 56.3097 -0.169217 4.60489 0
M  V30 594 H 54.6247 -0.310889 4.15238 0
M  V30 595 H 57.2217 -3.08382 4.36812 0
M  V30 596 H 57.5647 -3.20256 2.65973 0
M  V30 597 H 58.0977 -1.76507 3.56497 0
M  V30 598 H 54.8367 -1.03612 6.4726 0
M  V30 599 H 54.3567 -2.43331 5.48224 0
M  V30 600 H 56.0357 -2.27758 6.05587 0
M  V30 601 N 56.1678 -1.49265 -0.50573 0
M  V30 602 C 57.4168 -1.57761 -1.25675 0
M  V30 603 C 57.7298 -0.267371 -1.93764 0
M  V30 604 O 58.9358 -0.230827 -2.70517 0
M  V30 605 C 57.3918 -2.78332 -2.28165 0
M  V30 606 C 56.9998 -4.16096 -1.66037 0
M  V30 607 C 58.7438 -2.96155 -3.04125 0
M  V30 608 C 56.6508 -5.27895 -2.6661 0
M  V30 609 H 55.5808 -0.587391 -0.472745 0
M  V30 610 H 58.2318 -1.75644 -0.53118 0
M  V30 611 H 56.6138 -2.53934 -3.03865 0
M  V30 612 H 57.7878 -4.50612 -0.963622 0
M  V30 613 H 56.1028 -4.03591 -1.02484 0
M  V30 614 H 58.6998 -3.76849 -3.79327 0
M  V30 615 H 59.0428 -2.06534 -3.61455 0
M  V30 616 H 59.5758 -3.2057 -2.35541 0
M  V30 617 H 56.3148 -6.1956 -2.14068 0
M  V30 618 H 55.8348 -4.97839 -3.34539 0
M  V30 619 H 57.5138 -5.57031 -3.29129 0
M  V30 620 N 57.6459 0.756429 -1.3826 0
M  V30 621 C 58.6089 1.85176 -1.35065 0
M  V30 622 C 59.6089 1.58818 -0.251703 0
M  V30 623 O 60.7989 1.66615 -0.508433 0
M  V30 624 C 57.9309 3.22596 -1.10201 0
M  V30 625 H 59.1239 1.89417 -2.3251 0
M  V30 626 H 56.6769 0.95783 -1.23512 0
M  V30 627 H 57.4119 3.24025 -0.133504 0
M  V30 628 H 57.1969 3.43122 -1.89762 0
M  V30 629 H 58.6869 4.02673 -1.10654 0
M  V30 630 N 59.124 1.23083 0.984299 0
M  V30 631 C 60.072 1.00593 2.09723 0
M  V30 632 C 61.066 -0.0538014 1.69315 0
M  V30 633 O 62.272 0.0993719 1.79725 0
M  V30 634 H 58.647 0.30817 0.685956 0
M  V30 635 H 60.618 1.95012 2.2586 0
M  V30 636 C 59.367 0.609601 3.42314 0
M  V30 637 H 58.69 1.41675 3.73856 0
M  V30 638 H 60.13 0.491726 4.21139 0
M  V30 639 C 58.589 -0.681745 3.2993 0
M  V30 640 O 59.119 -1.73192 3.62446 0
M  V30 641 N 57.325 -0.656178 2.83095 0
M  V30 642 H 56.872 0.198759 2.56832 0
M  V30 643 H 56.83 -1.52044 2.75191 0
M  V30 644 N 60.6021 -1.18246 1.0419 0
M  V30 645 C 61.5351 -2.20746 0.578474 0
M  V30 646 C 62.5131 -1.57912 -0.387624 0
M  V30 647 O 63.6971 -1.86071 -0.301634 0
M  V30 648 C 60.8241 -3.38346 -0.154762 0
M  V30 649 C 59.8701 -4.19587 0.764782 0
M  V30 650 S 60.7031 -4.86014 2.24835 0
M  V30 651 C 61.8591 -6.07012 1.526 0
M  V30 652 H 62.0921 -2.59715 1.44691 0
M  V30 653 H 59.6251 -1.287 0.85297 0
M  V30 654 H 61.5831 -4.065 -0.571641 0
M  V30 655 H 60.2441 -2.97786 -0.999105 0
M  V30 656 H 59.4371 -5.03611 0.197976 0
M  V30 657 H 59.0391 -3.56818 1.12057 0
M  V30 658 H 61.3311 -6.72523 0.819733 0
M  V30 659 H 62.2741 -6.68202 2.34333 0
M  V30 660 H 62.6821 -5.55249 1.01779 0
M  V30 661 N 62.0802 -0.821533 -1.34494 0
M  V30 662 C 63.0102 -0.257138 -2.3208 0
M  V30 663 C 63.9912 0.625645 -1.58176 0
M  V30 664 O 65.1762 0.552811 -1.86166 0
M  V30 665 C 62.3062 0.582958 -3.42372 0
M  V30 666 C 61.2602 -0.202571 -4.2752 0
M  V30 667 C 60.5862 0.760179 -5.29269 0
M  V30 668 C 61.8862 -1.40998 -5.02908 0
M  V30 669 H 63.5802 -1.07247 -2.79532 0
M  V30 670 H 61.1262 -0.517163 -1.34393 0
M  V30 671 H 63.0792 0.987972 -4.09655 0
M  V30 672 H 61.8032 1.43133 -2.93565 0
M  V30 673 H 60.4622 -0.588936 -3.61838 0
M  V30 674 H 60.1102 1.60447 -4.76724 0
M  V30 675 H 59.8102 0.238809 -5.87115 0
M  V30 676 H 61.3342 1.16308 -5.9942 0
M  V30 677 H 62.7482 -1.07905 -5.63054 0
M  V30 678 H 61.1452 -1.86689 -5.70322 0
M  V30 679 H 62.2152 -2.1889 -4.32684 0
M  V30 680 N 63.5583 1.46682 -0.576371 0
M  V30 681 C 64.4903 2.28341 0.198231 0
M  V30 682 C 65.5033 1.38141 0.861453 0
M  V30 683 O 66.6923 1.62797 0.732082 0
M  V30 684 C 63.7923 3.12986 1.29972 0
M  V30 685 C 62.9653 4.31271 0.729639 0
M  V30 686 C 62.0243 4.97363 1.71803 0
M  V30 687 O 61.0503 5.55156 1.25658 0
M  V30 688 N 62.2523 4.93796 3.05198 0
M  V30 689 H 65.0173 2.9546 -0.502324 0
M  V30 690 H 62.5783 1.56525 -0.413715 0
M  V30 691 H 64.5703 3.54066 1.96008 0
M  V30 692 H 63.1403 2.47984 1.90323 0
M  V30 693 H 62.3603 3.94052 -0.108012 0
M  V30 694 H 63.6483 5.07739 0.328438 0
M  V30 695 H 63.0463 4.48077 3.45317 0
M  V30 696 H 61.6033 5.38837 3.6674 0
M  V30 697 N 65.0364 0.313813 1.54444 0
M  V30 698 C 65.9464 -0.565714 2.27677 0
M  V30 699 C 66.9624 -1.13754 1.31666 0
M  V30 700 O 68.1384 -1.15959 1.64668 0
M  V30 701 C 65.2034 -1.71528 3.01296 0
M  V30 702 C 64.2644 -1.17624 4.12872 0
M  V30 703 C 63.4974 -2.27102 4.8297 0
M  V30 704 O 63.7204 -3.47256 4.52514 0
M  V30 705 O 62.6544 -1.9307 5.70094 0
M  V30 706 H 66.4804 0.0287296 3.03686 0
M  V30 707 H 64.0654 0.0798312 1.49187 0
M  V30 708 H 65.9474 -2.38476 3.4743 0
M  V30 709 H 64.6224 -2.29608 2.2817 0
M  V30 710 H 63.5294 -0.472124 3.71109 0
M  V30 711 H 64.8624 -0.640695 4.88012 0
M  V30 712 N 66.5145 -1.57545 0.0417849 0
M  V30 713 C 67.4645 -2.07483 -0.945247 0
M  V30 714 C 68.4485 -0.977983 -1.27767 0
M  V30 715 O 69.6405 -1.24142 -1.26166 0
M  V30 716 C 66.7695 -2.61576 -2.22335 0
M  V30 717 C 65.8555 -3.78213 -1.91874 0
M  V30 718 N 66.2465 -4.88344 -1.31733 0
M  V30 719 C 64.5445 -3.8694 -2.21796 0
M  V30 720 C 65.2455 -5.69462 -1.1869 0
M  V30 721 N 64.2215 -5.16771 -1.68666 0
M  V30 722 H 68.0235 -2.90029 -0.475441 0
M  V30 723 H 65.5375 -1.61581 -0.162911 0
M  V30 724 H 67.5345 -2.95651 -2.93932 0
M  V30 725 H 66.1945 -1.80465 -2.69931 0
M  V30 726 H 67.2055 -5.08335 -0.990729 0
M  V30 727 H 63.8825 -3.16757 -2.71977 0
M  V30 728 H 65.2725 -6.68023 -0.720793 0
M  V30 729 N 67.9926 0.231505 -1.5589 0
M  V30 730 C 69.2696 0.981096 -1.69215 0
M  V30 731 C 69.6496 2.02799 -0.586164 0
M  V30 732 O 68.9976 2.24823 0.408253 0
M  V30 733 C 69.2076 1.60054 -3.10135 0
M  V30 734 C 70.5556 2.09658 -3.69227 0
M  V30 735 O 71.5796 1.69967 -3.13033 0
M  V30 736 O 70.4386 2.8258 -4.67772 0
M  V30 737 H 67.5326 0.457653 -0.688827 0
M  V30 738 H 70.0786 0.224073 -1.68214 0
M  V30 739 H 68.8506 0.844105 -3.82087 0
M  V30 740 H 68.4736 2.42336 -3.15212 0
M  V30 741 N 69.4707 1.49531 0.497807 0
M  V30 742 C 70.4187 1.66926 1.61983 0
M  V30 743 C 71.4127 0.535167 1.60724 0
M  V30 744 O 72.6187 0.714896 1.65195 0
M  V30 745 H 68.9937 0.526415 0.537021 0
M  V30 746 H 70.9647 2.61098 1.44465 0
M  V30 747 C 69.7137 1.75602 3.00099 0
M  V30 748 H 69.0367 2.62244 3.01775 0
M  V30 749 H 70.4767 1.91807 3.78135 0
M  V30 750 C 68.9357 0.501543 3.33146 0
M  V30 751 O 69.4657 -0.371342 3.9998 0
M  V30 752 N 67.6717 0.363531 2.88317 0
M  V30 753 H 67.2187 1.07485 2.34104 0
M  V30 754 H 67.1767 -0.474728 3.10795 0
M  V30 755 N 70.9488 -0.749086 1.3866 0
M  V30 756 C 72.3598 -1.32664 1.31366 0
M  V30 757 C 72.7108 -1.96179 -0.028484 0
M  V30 758 O 71.8358 -1.9537 -0.93057 0
M  V30 759 C 72.4308 -2.41219 2.37905 0
M  V30 760 C 70.9898 -2.94684 2.34176 0
M  V30 761 C 70.1368 -1.68108 2.20533 0
M  V30 762 H 73.0878 -0.547628 1.48952 0
M  V30 763 H 73.1088 -3.21268 2.0388 0
M  V30 764 H 72.6208 -1.94962 3.35576 0
M  V30 765 H 70.7218 -3.45258 1.401 0
M  V30 766 H 70.8348 -3.48757 3.2849 0
M  V30 767 H 69.1988 -1.91907 1.67463 0
M  V30 768 H 69.9818 -1.23923 3.20153 0
M  V30 769 N 72.4269 -1.23603 -0.977757 0
M  V30 770 C 73.6739 -1.06971 -1.71941 0
M  V30 771 C 74.0019 0.393009 -1.90488 0
M  V30 772 O 73.2569 1.30719 -1.4564 0
M  V30 773 C 73.5559 -1.7433 -3.11999 0
M  V30 774 C 73.2219 -3.24252 -3.13323 0
M  V30 775 C 71.8839 -3.65156 -3.13392 0
M  V30 776 C 74.2359 -4.20141 -3.08433 0
M  V30 777 C 71.5639 -5.00403 -3.0629 0
M  V30 778 C 73.9159 -5.55384 -3.02873 0
M  V30 779 C 72.5799 -5.95647 -3.01265 0
M  V30 780 H 71.8499 -0.391433 -0.629175 0
M  V30 781 H 74.4969 -1.53572 -1.14403 0
M  V30 782 H 72.8019 -1.20096 -3.7294 0
M  V30 783 H 74.4989 -1.58936 -3.68158 0
M  V30 784 H 71.0889 -2.91692 -3.14029 0
M  V30 785 H 75.2729 -3.89547 -3.07517 0
M  V30 786 H 70.5289 -5.3081 -3.03399 0
M  V30 787 H 74.7029 -6.29398 -2.98046 0
M  V30 788 H 72.3299 -7.0041 -2.95516 0
M  V30 789 N 73.905 1.17692 -1.04816 0
M  V30 790 C 75.133 1.91786 -0.776254 0
M  V30 791 C 75.548 1.76604 0.667577 0
M  V30 792 O 74.905 1.10067 1.45573 0
M  V30 793 C 74.956 3.42967 -1.14263 0
M  V30 794 O 74.677 3.57678 -2.52978 0
M  V30 795 C 76.178 4.34144 -0.896311 0
M  V30 796 H 73.398 0.608624 -0.282519 0
M  V30 797 H 75.942 1.49268 -1.39783 0
M  V30 798 H 74.097 3.83245 -0.565874 0
M  V30 799 H 74.511 4.51319 -2.67229 0
M  V30 800 H 75.985 5.38744 -1.20244 0
M  V30 801 H 76.462 4.38876 0.168636 0
M  V30 802 H 77.068 3.99574 -1.45672 0
M  V30 803 N 75.3831 0.828654 1.34056 0
M  V30 804 C 76.3131 0.269443 2.3194 0
M  V30 805 C 77.2941 -0.617247 1.58506 0
M  V30 806 O 78.4791 -0.542931 1.86456 0
M  V30 807 C 75.6091 -0.564793 3.42677 0
M  V30 808 C 74.5631 0.225241 4.27407 0
M  V30 809 C 73.8891 -0.7321 5.29664 0
M  V30 810 C 75.1891 1.43663 5.02154 0
M  V30 811 H 76.8831 1.08728 2.7896 0
M  V30 812 H 74.4291 0.524283 1.34117 0
M  V30 813 H 76.3821 -0.966233 4.10173 0
M  V30 814 H 75.1061 -1.41574 2.9432 0
M  V30 815 H 73.7651 0.608117 3.61521 0
M  V30 816 H 73.4131 -1.57916 4.77568 0
M  V30 817 H 73.1131 -0.20767 5.87233 0
M  V30 818 H 74.6371 -1.13128 6.00029 0
M  V30 819 H 76.0511 1.1089 5.62473 0
M  V30 820 H 74.4481 1.89711 5.69324 0
M  V30 821 H 75.5181 2.21181 4.31517 0
M  V30 822 N 76.8612 -1.46375 0.584142 0
M  V30 823 C 78.0912 -2.06461 0.0758195 0
M  V30 824 C 78.4992 -1.43322 -1.23512 0
M  V30 825 O 77.8422 -0.533216 -1.75791 0
M  V30 826 C 77.9042 -3.59131 -0.162773 0
M  V30 827 C 77.5682 -4.4447 1.06279 0
M  V30 828 C 78.5652 -4.80918 1.97519 0
M  V30 829 C 76.2502 -4.85584 1.28504 0
M  V30 830 C 78.2442 -5.57309 3.09331 0
M  V30 831 C 75.9312 -5.61734 2.4062 0
M  V30 832 C 76.9292 -5.9751 3.30863 0
M  V30 833 O 76.6172 -6.72121 4.41032 0
M  V30 834 H 76.3492 -0.673745 0.0551725 0
M  V30 835 H 78.9032 -1.88969 0.804984 0
M  V30 836 H 77.1332 -3.74936 -0.946565 0
M  V30 837 H 78.8222 -4.0114 -0.619782 0
M  V30 838 H 79.5882 -4.49732 1.81565 0
M  V30 839 H 75.4672 -4.57187 0.591702 0
M  V30 840 H 79.0112 -5.85152 3.79793 0
M  V30 841 H 74.9082 -5.92334 2.56537 0
M  V30 842 H 75.6762 -6.90547 4.39417 0
M  V30 843 N 78.3393 -0.321999 -1.54275 0
M  V30 844 C 79.7503 0.166384 -1.85957 0
M  V30 845 C 80.1013 1.51747 -1.24367 0
M  V30 846 O 79.2263 2.09317 -0.549124 0
M  V30 847 C 79.8213 0.308681 -3.37391 0
M  V30 848 C 78.3803 0.741286 -3.69028 0
M  V30 849 C 77.5273 -0.137937 -2.76957 0
M  V30 850 H 80.4783 -0.542335 -1.49146 0
M  V30 851 H 80.4993 1.13984 -3.63026 0
M  V30 852 H 80.0113 -0.674809 -3.82188 0
M  V30 853 H 78.1123 1.73458 -3.29762 0
M  V30 854 H 78.2253 0.546118 -4.75977 0
M  V30 855 H 76.5893 0.386251 -2.51754 0
M  V30 856 H 77.3723 -1.11816 -3.2458 0
M  V30 857 N 79.8174 1.5752 -0.0501392 0
M  V30 858 C 81.0474 1.96678 0.632573 0
M  V30 859 C 81.4554 0.926298 1.64974 0
M  V30 860 O 80.7984 -0.09802 1.83438 0
M  V30 861 C 80.8604 3.32068 1.37735 0
M  V30 862 C 80.5244 4.54076 0.516131 0
M  V30 863 C 81.5214 5.19445 -0.217357 0
M  V30 864 C 79.2064 5.00304 0.44736 0
M  V30 865 C 81.2004 6.29378 -1.00807 0
M  V30 866 C 78.8874 6.10114 -0.347038 0
M  V30 867 C 79.8854 6.74512 -1.07344 0
M  V30 868 O 79.5734 7.82211 -1.85477 0
M  V30 869 H 79.3054 0.652193 0.177821 0
M  V30 870 H 81.8594 2.05091 -0.112543 0
M  V30 871 H 80.0894 3.20206 2.16807 0
M  V30 872 H 81.7784 3.55981 1.95019 0
M  V30 873 H 82.5444 4.84689 -0.173688 0
M  V30 874 H 78.4234 4.49971 1.00235 0
M  V30 875 H 81.9674 6.79575 -1.57556 0
M  V30 876 H 77.8644 6.44307 -0.392349 0
M  V30 877 H 78.6324 7.98982 -1.77678 0
M  V30 878 N 81.2955 -0.223234 1.56011 0
M  V30 879 C 82.5725 -0.972108 1.69733 0
M  V30 880 C 82.9525 -2.02485 0.59691 0
M  V30 881 O 82.3005 -2.25037 -0.396324 0
M  V30 882 C 82.5105 -1.58407 3.10979 0
M  V30 883 C 83.8585 -2.07696 3.70334 0
M  V30 884 O 84.8825 -1.68304 3.1393 0
M  V30 885 O 83.7415 -2.80096 4.69264 0
M  V30 886 H 80.8355 -0.453993 0.691245 0
M  V30 887 H 83.3815 -0.215149 1.68331 0
M  V30 888 H 82.1535 -0.823831 3.82529 0
M  V30 889 H 81.7765 -2.40661 3.16493 0
M  V30 890 N 82.7736 -1.49793 -0.48987 0
M  V30 891 C 84.0016 -1.63568 -1.26701 0
M  V30 892 C 84.4166 -0.311465 -1.86213 0
M  V30 893 O 83.7736 0.704416 -1.68357 0
M  V30 894 C 83.8246 -2.71284 -2.38929 0
M  V30 895 O 83.5456 -3.9857 -1.81861 0
M  V30 896 C 85.0466 -2.95864 -3.3012 0
M  V30 897 H 82.2666 -0.550342 -0.383881 0
M  V30 898 H 84.8106 -1.95898 -0.586864 0
M  V30 899 H 82.9656 -2.417 -3.02753 0
M  V30 900 H 83.3796 -4.57993 -2.55622 0
M  V30 901 H 84.8536 -3.74941 -4.05121 0
M  V30 902 H 85.3306 -2.06206 -3.87783 0
M  V30 903 H 85.9366 -3.26907 -2.72051 0
M  V30 904 N 84.2517 0.741722 -1.39055 0
M  V30 905 C 85.1997 1.87702 -1.3737 0
M  V30 906 C 86.1937 1.67427 -0.257812 0
M  V30 907 O 87.3997 1.7485 -0.427489 0
M  V30 908 H 83.7747 0.617757 -0.428812 0
M  V30 909 H 85.7457 1.86239 -2.33147 0
M  V30 910 C 84.4947 3.25315 -1.22741 0
M  V30 911 H 83.8177 3.41509 -2.07873 0
M  V30 912 H 85.2577 4.04964 -1.25618 0
M  V30 913 C 83.7167 3.36838 0.0647316 0
M  V30 914 O 84.2467 3.88073 1.03741 0
M  V30 915 N 82.4527 2.90329 0.125544 0
M  V30 916 H 81.9997 2.48823 -0.666682 0
M  V30 917 H 81.9577 2.98418 0.989639 0
M  V30 918 N 85.7298 1.2412 0.971189 0
M  V30 919 C 86.9598 1.10415 1.7462 0
M  V30 920 C 87.3678 -0.346462 1.86001 0
M  V30 921 O 86.7108 -1.25104 1.34517 0
M  V30 922 C 86.7728 1.66596 3.18568 0
M  V30 923 C 86.4368 3.15446 3.3067 0
M  V30 924 C 87.4338 4.12636 3.16271 0
M  V30 925 C 85.1188 3.55337 3.55022 0
M  V30 926 C 87.1128 5.47699 3.26044 0
M  V30 927 C 84.7998 4.90542 3.64434 0
M  V30 928 C 85.7978 5.86532 3.49956 0
M  V30 929 O 85.4858 7.19279 3.59017 0
M  V30 930 H 85.2178 0.386616 0.55453 0
M  V30 931 H 87.7718 1.64633 1.22821 0
M  V30 932 H 86.0018 1.06808 3.71657 0
M  V30 933 H 87.6908 1.48232 3.77865 0
M  V30 934 H 88.4568 3.8316 2.97344 0
M  V30 935 H 84.3358 2.8113 3.65359 0
M  V30 936 H 87.8798 6.22603 3.14661 0
M  V30 937 H 83.7768 5.19691 3.82873 0
M  V30 938 H 84.5448 7.27153 3.75754 0
M  V30 939 N 87.2079 -1.17134 1.05439 0
M  V30 940 C 88.1379 -2.2342 0.678649 0
M  V30 941 C 89.1189 -1.66971 -0.32476 0
M  V30 942 O 90.3039 -1.93149 -0.201802 0
M  V30 943 C 87.4339 -3.47256 0.0552099 0
M  V30 944 C 86.3879 -4.16543 0.98365 0
M  V30 945 C 85.7139 -5.34231 0.223961 0
M  V30 946 C 87.0139 -4.68495 2.3089 0
M  V30 947 H 88.7079 -2.55105 1.56722 0
M  V30 948 H 86.2539 -1.2262 0.754998 0
M  V30 949 H 88.2069 -4.20828 -0.21946 0
M  V30 950 H 86.9309 -3.14846 -0.868319 0
M  V30 951 H 85.5899 -3.44887 1.24293 0
M  V30 952 H 85.2379 -4.98071 -0.702412 0
M  V30 953 H 84.9379 -5.81527 0.842627 0
M  V30 954 H 86.4619 -6.10585 -0.0433671 0
M  V30 955 H 87.8759 -5.33691 2.09396 0
M  V30 956 H 86.2729 -5.26379 2.88176 0
M  V30 957 H 87.3429 -3.85169 2.94572 0
M  V30 958 N 88.686 -0.835752 -1.33615 0
M  V30 959 C 89.935 -0.426289 -1.97144 0
M  V30 960 C 90.248 1.01912 -1.66953 0
M  V30 961 O 91.454 1.53311 -2.24072 0
M  V30 962 C 89.91 -0.711321 -3.52801 0
M  V30 963 C 89.518 -2.1712 -3.91871 0
M  V30 964 C 91.262 -0.368654 -4.22896 0
M  V30 965 C 89.169 -2.40044 -5.40493 0
M  V30 966 H 88.099 -0.15567 -0.737755 0
M  V30 967 H 90.75 -1.0239 -1.52278 0
M  V30 968 H 89.132 -0.0433766 -3.95976 0
M  V30 969 H 90.306 -2.87936 -3.59763 0
M  V30 970 H 88.621 -2.47654 -3.34749 0
M  V30 971 H 91.218 -0.517601 -5.32189 0
M  V30 972 H 91.561 0.688078 -4.10574 0
M  V30 973 H 92.094 -0.991702 -3.8524 0
M  V30 974 H 88.833 -3.44271 -5.57815 0
M  V30 975 H 88.353 -1.73785 -5.74072 0
M  V30 976 H 90.032 -2.23042 -6.0734 0
M  V30 977 N 90.1641 1.46063 -0.591896 0
M  V30 978 C 91.3941 2.06418 -0.0867676 0
M  V30 979 C 91.8021 1.43975 1.22751 0
M  V30 980 O 91.1451 0.542531 1.75506 0
M  V30 981 C 91.2071 3.59213 0.143725 0
M  V30 982 C 90.8711 4.439 -1.08635 0
M  V30 983 C 91.8681 4.79864 -2.00067 0
M  V30 984 C 89.5531 4.84896 -1.31077 0
M  V30 985 C 91.5471 5.55661 -3.12282 0
M  V30 986 C 89.2341 5.6045 -2.43596 0
M  V30 987 C 90.2321 5.95747 -3.34027 0
M  V30 988 O 89.9201 6.69772 -4.4459 0
M  V30 989 H 89.6521 0.673443 -0.0587447 0
M  V30 990 H 92.2061 1.88539 -0.814994 0
M  V30 991 H 90.4361 3.75433 0.926668 0
M  V30 992 H 92.1251 4.01463 0.5985 0
M  V30 993 H 92.8911 4.48763 -1.83947 0
M  V30 994 H 88.7701 4.56867 -0.61594 0
M  V30 995 H 92.3141 5.8313 -3.82891 0
M  V30 996 H 88.2111 5.90965 -2.59674 0
M  V30 997 H 88.9791 6.88207 -4.43073 0
M  V30 998 N 91.6422 0.330177 1.54103 0
M  V30 999 C 92.8702 -0.272179 2.05102 0
M  V30 1000 C 93.2852 -1.45267 1.20595 0
M  V30 1001 O 92.6422 -1.8094 0.238144 0
M  V30 1002 C 92.6932 -0.70023 3.54653 0
M  V30 1003 O 92.4142 0.433301 4.35952 0
M  V30 1004 C 93.9152 -1.3647 4.21771 0
M  V30 1005 H 91.1352 -0.0549159 0.668749 0
M  V30 1006 H 93.6792 0.478285 1.98828 0
M  V30 1007 H 91.8342 -1.40066 3.61193 0
M  V30 1008 H 92.2482 0.0947539 5.24414 0
M  V30 1009 H 93.7222 -1.61509 5.27843 0
M  V30 1010 H 94.1992 -2.31409 3.73292 0
M  V30 1011 H 94.8052 -0.706675 4.19388 0
M  V30 1012 N 93.1203 -1.57491 0.0584922 0
M  V30 1013 C 94.0523 -2.08916 -0.942694 0
M  V30 1014 C 95.0653 -1.0185 -1.27006 0
M  V30 1015 O 96.2543 -1.29398 -1.22957 0
M  V30 1016 C 93.3543 -2.52341 -2.26224 0
M  V30 1017 C 92.5273 -3.82827 -2.1157 0
M  V30 1018 C 91.5863 -4.12487 -3.26712 0
M  V30 1019 O 90.6123 -4.82295 -3.02292 0
M  V30 1020 N 91.8143 -3.64978 -4.5141 0
M  V30 1021 H 94.5793 -2.95437 -0.503722 0
M  V30 1022 H 92.1403 -1.61397 -0.12757 0
M  V30 1023 H 94.1323 -2.69254 -3.02133 0
M  V30 1024 H 92.7023 -1.7103 -2.61663 0
M  V30 1025 H 91.9223 -3.75425 -1.20208 0
M  V30 1026 H 93.2103 -4.68263 -1.99015 0
M  V30 1027 H 92.6083 -3.08558 -4.7414 0
M  V30 1028 H 91.1653 -3.87115 -5.2439 0
M  V30 1029 N 94.5984 0.214957 -1.56127 0
M  V30 1030 C 95.8264 0.955092 -1.83536 0
M  V30 1031 C 96.2414 1.77677 -0.638472 0
M  V30 1032 O 95.5984 1.78219 0.392968 0
M  V30 1033 C 95.6494 1.86734 -3.09536 0
M  V30 1034 O 95.3704 1.07887 -4.24608 0
M  V30 1035 C 96.8714 2.72082 -3.4998 0
M  V30 1036 H 94.0914 0.279611 -0.609966 0
M  V30 1037 H 96.6354 0.228197 -2.03223 0
M  V30 1038 H 94.7904 2.5481 -2.91806 0
M  V30 1039 H 95.2044 1.69872 -4.9623 0
M  V30 1040 H 96.6784 3.31782 -4.41163 0
M  V30 1041 H 97.1554 3.44806 -2.7204 0
M  V30 1042 H 97.7614 2.09409 -3.70173 0
M  V30 1043 N 96.0765 1.50051 0.48192 0
M  V30 1044 C 97.3015 1.64508 1.26301 0
M  V30 1045 C 97.7265 0.323851 1.85291 0
M  V30 1046 O 97.0845 -0.710969 1.66778 0
M  V30 1047 C 97.1325 2.7305 2.35533 0
M  V30 1048 O 96.2365 2.3355 3.39895 0
M  V30 1049 H 95.5775 0.549978 0.372048 0
M  V30 1050 H 98.1075 1.9636 0.574786 0
M  V30 1051 H 98.1175 2.95799 2.8101 0
M  V30 1052 H 96.7925 3.68946 1.91967 0
M  V30 1053 H 95.3695 2.21205 3.00204 0
M  V30 1054 N 97.5546 -0.734337 1.39446 0
M  V30 1055 C 98.8316 -1.48579 1.27215 0
M  V30 1056 C 99.2116 -2.1077 -0.117968 0
M  V30 1057 O 98.5596 -1.98646 -1.12924 0
M  V30 1058 C 98.7696 -2.53667 2.39696 0
M  V30 1059 C 100.118 -3.20031 2.79044 0
M  V30 1060 O 101.142 -2.6398 2.39151 0
M  V30 1061 O 100.001 -4.21455 3.47905 0
M  V30 1062 H 97.0946 -0.659816 0.49857 0
M  V30 1063 H 99.6406 -0.768106 1.51322 0
M  V30 1064 H 98.4126 -2.06096 3.32626 0
M  V30 1065 H 98.0356 -3.32994 2.17258 0
M  V30 1066 N 99.0327 -1.24633 -0.964593 0
M  V30 1067 C 99.9627 -1.06611 -2.07741 0
M  V30 1068 C 100.944 0.0218666 -1.70086 0
M  V30 1069 O 102.129 -0.145793 -1.93652 0
M  V30 1070 C 99.2587 -0.673444 -3.40708 0
M  V30 1071 C 98.2127 -1.71054 -3.92332 0
M  V30 1072 C 97.5387 -1.17285 -5.21678 0
M  V30 1073 C 98.8387 -3.10718 -4.19824 0
M  V30 1074 H 100.533 -1.99693 -2.23076 0
M  V30 1075 H 98.0787 -0.96152 -1.07195 0
M  V30 1076 H 100.032 -0.534345 -4.17998 0
M  V30 1077 H 98.7557 0.293073 -3.25282 0
M  V30 1078 H 97.4147 -1.83791 -3.17201 0
M  V30 1079 H 97.0627 -0.196847 -5.02615 0
M  V30 1080 H 96.7627 -1.86592 -5.57187 0
M  V30 1081 H 98.2867 -1.04593 -6.01575 0
M  V30 1082 H 99.7007 -3.01192 -4.87808 0
M  V30 1083 H 98.0977 -3.77406 -4.66567 0
M  V30 1084 H 99.1677 -3.58524 -3.26479 0
M  V30 1085 N 100.511 1.16574 -1.06058 0
M  V30 1086 C 101.459 2.22941 -0.663343 0
M  V30 1087 C 102.453 1.66358 0.319593 0
M  V30 1088 O 103.659 1.7905 0.184713 0
M  V30 1089 H 100.034 0.725907 -0.196376 0
M  V30 1090 H 102.005 2.53736 -1.57037 0
M  V30 1091 C 100.754 3.47642 -0.0632808 0
M  V30 1092 H 100.077 3.91493 -0.810733 0
M  V30 1093 H 101.517 4.2363 0.177177 0
M  V30 1094 C 99.9758 3.1509 1.19248 0
M  V30 1095 O 100.506 3.30673 2.28075 0
M  V30 1096 N 98.7118 2.6924 1.09353 0
M  V30 1097 H 98.2588 2.5676 0.207912 0
M  V30 1098 H 98.2168 2.47833 1.93458 0
M  V30 1099 N 101.989 0.842826 1.3317 0
M  V30 1100 C 102.936 0.276885 2.29133 0
M  V30 1101 C 103.906 -0.609527 1.54512 0
M  V30 1102 O 105.091 -0.546955 1.82792 0
M  V30 1103 C 102.231 -0.538707 3.40869 0
M  V30 1104 C 101.344 0.372169 4.30394 0
M  V30 1105 C 100.479 -0.454908 5.29249 0
M  V30 1106 C 99.5179 0.45411 6.10413 0
M  V30 1107 N 98.6549 -0.335075 7.013 0
M  V30 1108 H 103.495 1.10052 2.76934 0
M  V30 1109 H 101.032 0.554161 1.36262 0
M  V30 1110 H 102.99 -1.02709 4.0436 0
M  V30 1111 H 101.62 -1.32727 2.9425 0
M  V30 1112 H 100.672 0.97888 3.6759 0
M  V30 1113 H 101.984 1.0703 4.87182 0
M  V30 1114 H 101.138 -1.00695 5.98285 0
M  V30 1115 H 99.8769 -1.18646 4.73048 0
M  V30 1116 H 98.8819 1.01813 5.40291 0
M  V30 1117 H 100.107 1.18409 6.68697 0
M  V30 1118 H 98.0529 -1.04994 6.47543 0
M  V30 1119 H 97.9699 0.304262 7.55387 0
M  V30 1120 H 99.2379 -0.869224 7.74638 0
M  V30 1121 N 103.467 -1.45747 0.599634 0
M  V30 1122 C 104.377 -2.34262 -0.125888 0
M  V30 1123 C 105.393 -1.50768 -0.868625 0
M  V30 1124 O 106.569 -1.83592 -0.828003 0
M  V30 1125 C 103.634 -3.28252 -1.11587 0
M  V30 1126 C 102.695 -4.27651 -0.375956 0
M  V30 1127 C 101.928 -5.1715 -1.31877 0
M  V30 1128 O 102.151 -5.09916 -2.55621 0
M  V30 1129 O 101.085 -5.96286 -0.820157 0
M  V30 1130 H 104.911 -2.97688 0.601315 0
M  V30 1131 H 102.496 -1.44999 0.359934 0
M  V30 1132 H 104.378 -3.86191 -1.68626 0
M  V30 1133 H 103.053 -2.67401 -1.82424 0
M  V30 1134 H 101.96 -3.7335 0.236698 0
M  V30 1135 H 103.293 -4.91334 0.29177 0
M  V30 1136 N 104.945 -0.338344 -1.53925 0
M  V30 1137 C 105.908 0.508299 -2.23493 0
M  V30 1138 C 106.908 1.03175 -1.23335 0
M  V30 1139 O 108.098 0.921826 -1.47811 0
M  V30 1140 C 105.23 1.70754 -2.95052 0
M  V30 1141 H 106.423 -0.100058 -2.99733 0
M  V30 1142 H 103.976 -0.0896198 -1.56043 0
M  V30 1143 H 104.711 2.35474 -2.22986 0
M  V30 1144 H 104.496 1.33946 -3.68512 0
M  V30 1145 H 105.986 2.30818 -3.48013 0
M  V30 1146 N 106.423 1.57458 -0.0668435 0
M  V30 1147 C 107.672 1.92477 0.602947 0
M  V30 1148 C 107.985 0.948419 1.71068 0
M  V30 1149 O 109.191 1.19124 2.43971 0
M  V30 1150 C 107.647 3.41903 1.12383 0
M  V30 1151 C 107.255 4.47975 0.04737 0
M  V30 1152 C 108.999 3.85931 1.76797 0
M  V30 1153 C 106.906 5.88529 0.582022 0
M  V30 1154 H 105.836 0.718387 0.22899 0
M  V30 1155 H 108.487 1.82978 -0.138276 0
M  V30 1156 H 106.869 3.46459 1.91787 0
M  V30 1157 H 108.043 4.55029 -0.726978 0
M  V30 1158 H 106.358 4.13384 -0.500243 0
M  V30 1159 H 108.955 4.88322 2.17821 0
M  V30 1160 H 109.298 3.23029 2.62599 0
M  V30 1161 H 109.831 3.83958 1.04024 0
M  V30 1162 H 106.57 6.55065 -0.238721 0
M  V30 1163 H 106.09 5.85004 1.324 0
M  V30 1164 H 107.769 6.38258 1.05999 0
M  V30 1165 N 107.901 -0.206675 1.56239 0
M  V30 1166 C 108.864 -1.23976 1.92776 0
M  V30 1167 C 109.864 -1.39041 0.807729 0
M  V30 1168 O 111.054 -1.37051 1.0753 0
M  V30 1169 C 108.186 -2.61112 2.19165 0
M  V30 1170 H 109.379 -0.927764 2.85189 0
M  V30 1171 H 106.932 -0.447718 1.4975 0
M  V30 1172 H 107.667 -2.97386 1.29352 0
M  V30 1173 H 107.452 -2.51552 3.00772 0
M  V30 1174 H 108.942 -3.35633 2.48476 0
M  V30 1175 N 109.379 -1.50304 -0.473955 0
M  V30 1176 C 110.604 -1.65175 -1.25427 0
M  V30 1177 C 111.029 -0.333673 -1.85117 0
M  V30 1178 O 110.387 0.702114 -1.67153 0
M  V30 1179 C 110.435 -2.74295 -2.34082 0
M  V30 1180 O 109.539 -2.35349 -3.38651 0
M  V30 1181 H 108.88 -0.551944 -0.369126 0
M  V30 1182 H 111.41 -1.96662 -0.564364 0
M  V30 1183 H 111.42 -2.97285 -2.79438 0
M  V30 1184 H 110.095 -3.69959 -1.90008 0
M  V30 1185 H 108.672 -2.22794 -2.99027 0
M  V30 1186 N 110.857 0.726932 -1.39834 0
M  V30 1187 C 112.087 1.51393 -1.40583 0
M  V30 1188 C 112.495 1.892 -0.000740625 0
M  V30 1189 O 111.838 1.55189 0.982951 0
M  V30 1190 C 111.9 2.82588 -2.22226 0
M  V30 1191 C 111.564 2.67169 -3.70769 0
M  V30 1192 C 112.561 2.3518 -4.63666 0
M  V30 1193 C 110.246 2.83788 -4.14451 0
M  V30 1194 C 112.24 2.20002 -5.98229 0
M  V30 1195 C 109.927 2.68229 -5.49087 0
M  V30 1196 C 110.925 2.36382 -6.4079 0
M  V30 1197 O 110.613 2.2093 -7.72946 0
M  V30 1198 H 110.345 0.474168 -0.48181 0
M  V30 1199 H 112.899 0.905247 -1.84376 0
M  V30 1200 H 111.129 3.45746 -1.73195 0
M  V30 1201 H 112.818 3.44247 -2.15055 0
M  V30 1202 H 113.584 2.21984 -4.31217 0
M  V30 1203 H 109.463 3.07566 -3.43401 0
M  V30 1204 H 113.007 1.95067 -6.69772 0
M  V30 1205 H 108.904 2.81006 -5.81125 0
M  V30 1206 H 109.672 2.35937 -7.83757 0
M  V30 1207 N 112.336 1.25143 0.95797 0
M  V30 1208 C 113.613 1.00472 1.67823 0
M  V30 1209 C 113.993 -0.470056 2.058 0
M  V30 1210 O 113.341 -1.44663 1.76875 0
M  V30 1211 C 113.551 1.9372 2.90299 0
M  V30 1212 C 114.899 2.21371 3.62326 0
M  V30 1213 O 115.923 1.91451 3.00375 0
M  V30 1214 O 114.782 2.72231 4.7387 0
M  V30 1215 H 111.876 0.380752 0.734137 0
M  V30 1216 H 114.422 1.36283 1.01119 0
M  V30 1217 H 113.194 2.93316 2.59001 0
M  V30 1218 H 112.817 1.58286 3.64735 0
M  V30 1219 N 113.814 -1.1601 1.06675 0
M  V30 1220 C 115.06 -1.87145 0.796766 0
M  V30 1221 C 115.415 -1.8037 -0.669658 0
M  V30 1222 O 114.708 -1.21116 -1.48463 0
M  V30 1223 C 114.902 -3.35547 1.23057 0
M  V30 1224 C 114.731 -3.56769 2.73762 0
M  V30 1225 C 113.501 -3.72635 3.41279 0
M  V30 1226 C 115.699 -3.55166 3.7197 0
M  V30 1227 N 113.681 -3.81845 4.80695 0
M  V30 1228 C 115.052 -3.70406 4.97191 0
M  V30 1229 C 117.107 -3.384 3.65226 0
M  V30 1230 C 115.81 -3.70615 6.16471 0
M  V30 1231 C 117.836 -3.39904 4.83962 0
M  V30 1232 C 117.198 -3.55667 6.08013 0
M  V30 1233 H 113.297 -0.702267 0.344014 0
M  V30 1234 H 115.881 -1.39165 1.36166 0
M  V30 1235 H 114.052 -3.82159 0.693456 0
M  V30 1236 H 115.784 -3.94363 0.908844 0
M  V30 1237 H 112.539 -3.73121 2.91681 0
M  V30 1238 H 112.963 -3.90209 5.53232 0
M  V30 1239 H 117.605 -3.25138 2.70269 0
M  V30 1240 H 115.323 -3.82658 7.11757 0
M  V30 1241 H 118.909 -3.28169 4.80413 0
M  V30 1242 H 117.789 -3.56755 6.98352 0
M  V30 1243 N 115.292 -0.849877 -1.32721 0
M  V30 1244 C 116.255 -0.296122 -2.27279 0
M  V30 1245 C 117.255 0.541458 -1.5141 0
M  V30 1246 O 118.445 0.353658 -1.70572 0
M  V30 1247 C 115.577 0.581579 -3.35902 0
M  V30 1248 H 116.77 -1.13064 -2.77771 0
M  V30 1249 H 114.323 -0.62383 -1.43311 0
M  V30 1250 H 115.058 1.43809 -2.9067 0
M  V30 1251 H 114.843 -0.0178814 -3.92096 0
M  V30 1252 H 116.333 0.961951 -4.0637 0
M  V30 1253 N 116.77 1.45427 -0.607355 0
M  V30 1254 C 117.68 2.34325 0.113463 0
M  V30 1255 C 118.696 1.51226 0.860617 0
M  V30 1256 O 119.872 1.84029 0.818255 0
M  V30 1257 C 116.937 3.28839 1.09844 0
M  V30 1258 C 115.998 4.27844 0.353271 0
M  V30 1259 C 115.231 5.17842 1.29133 0
M  V30 1260 O 115.454 5.11264 2.52913 0
M  V30 1261 O 114.388 5.96713 0.788523 0
M  V30 1262 H 118.214 2.97364 -0.617094 0
M  V30 1263 H 115.799 1.44807 -0.367619 0
M  V30 1264 H 117.681 3.8708 1.66575 0
M  V30 1265 H 116.356 2.68365 1.81003 0
M  V30 1266 H 115.263 3.7322 -0.256494 0
M  V30 1267 H 116.596 4.91173 -0.317822 0
M  V30 1268 N 118.248 0.346503 1.53744 0
M  V30 1269 C 119.196 -0.52422 2.26616 0
M  V30 1270 C 120.19 -1.09948 1.28871 0
M  V30 1271 O 121.396 -1.04488 1.46568 0
M  V30 1272 H 117.771 -0.187743 0.728187 0
M  V30 1273 H 119.742 0.11239 2.98188 0
M  V30 1274 C 118.491 -1.66186 3.05414 0
M  V30 1275 H 117.814 -1.22848 3.80458 0
M  V30 1276 H 119.254 -2.24622 3.59612 0
M  V30 1277 C 117.713 -2.59302 2.1509 0
M  V30 1278 O 118.243 -3.61628 1.74895 0
M  V30 1279 N 116.449 -2.28055 1.8011 0
M  V30 1280 H 115.996 -1.44883 2.12994 0
M  V30 1281 H 115.954 -2.90615 1.19958 0
M  V30 1282 N 119.726 -1.57421 0.075193 0
M  V30 1283 C 120.689 -2.11791 -0.876203 0
M  V30 1284 C 121.689 -1.04268 -1.22412 0
M  V30 1285 O 122.879 -1.30242 -1.15684 0
M  V30 1286 C 120.011 -2.62207 -2.17854 0
M  V30 1287 H 121.204 -2.9716 -0.40444 0
M  V30 1288 H 118.757 -1.55333 -0.173557 0
M  V30 1289 H 119.492 -1.803 -2.6956 0
M  V30 1290 H 119.277 -3.40802 -1.93897 0
M  V30 1291 H 120.767 -3.04335 -2.85955 0
M  V30 1292 N 121.204 0.198386 -1.56346 0
M  V30 1293 C 122.62 0.549085 -1.49857 0
M  V30 1294 C 122.82 1.86016 -0.774611 0
M  V30 1295 O 121.876 2.50416 -0.323776 0
M  V30 1296 C 123.189 0.606868 -2.94512 0
M  V30 1297 C 124.737 0.695925 -3.05165 0
M  V30 1298 C 125.212 0.784848 -4.51225 0
M  V30 1299 N 126.703 0.848463 -4.55363 0
M  V30 1300 C 127.438 0.937378 -5.65686 0
M  V30 1301 N 126.934 0.9888 -6.85707 0
M  V30 1302 N 128.727 0.974312 -5.53592 0
M  V30 1303 H 120.878 -0.661655 -2.01831 0
M  V30 1304 H 123.141 -0.235261 -0.918344 0
M  V30 1305 H 122.847 -0.28732 -3.50524 0
M  V30 1306 H 122.721 1.46268 -3.47686 0
M  V30 1307 H 125.108 1.58055 -2.49204 0
M  V30 1308 H 125.189 -0.186022 -2.55123 0
M  V30 1309 H 124.833 -0.0954072 -5.0781 0
M  V30 1310 H 124.763 1.68255 -4.98997 0
M  V30 1311 H 127.254 0.818103 -3.68938 0
M  V30 1312 H 127.567 1.05707 -7.65536 0
M  V30 1313 H 125.912 0.957534 -6.88372 0
M  V30 1314 H 129.103 0.930954 -4.58749 0
M  V30 1315 H 129.276 1.04015 -6.39597 0
M  V30 1316 N 122.682 1.50554 0.465978 0
M  V30 1317 C 123.629 1.6979 1.56333 0
M  V30 1318 C 124.599 0.539239 1.57103 0
M  V30 1319 O 125.784 0.770401 1.74555 0
M  V30 1320 C 122.924 1.80273 2.94271 0
M  V30 1321 C 122.037 3.07674 3.0325 0
M  V30 1322 C 121.172 3.08922 4.32135 0
M  V30 1323 C 120.211 4.30755 4.34875 0
M  V30 1324 N 119.348 4.29714 5.55239 0
M  V30 1325 H 124.188 2.63472 1.39235 0
M  V30 1326 H 121.725 1.30602 0.676873 0
M  V30 1327 H 123.683 1.84332 3.74269 0
M  V30 1328 H 122.313 0.900258 3.09992 0
M  V30 1329 H 121.365 3.13062 2.16094 0
M  V30 1330 H 122.677 3.97642 3.01135 0
M  V30 1331 H 121.831 3.11738 5.20485 0
M  V30 1332 H 120.57 2.16792 4.36866 0
M  V30 1333 H 119.575 4.28146 3.44922 0
M  V30 1334 H 120.8 5.24117 4.31831 0
M  V30 1335 H 118.746 3.4044 5.60746 0
M  V30 1336 H 118.663 5.13456 5.54886 0
M  V30 1337 H 119.931 4.36683 6.457 0
M  V30 1338 N 124.16 -0.719506 1.40217 0
M  V30 1339 C 125.437 -1.47221 1.28784 0
M  V30 1340 C 125.817 -2.10883 -0.0956067 0
M  V30 1341 O 125.165 -1.99833 -1.10811 0
M  V30 1342 C 125.375 -2.5111 2.42373 0
M  V30 1343 C 126.723 -3.17053 2.82423 0
M  V30 1344 O 127.747 -2.61429 2.41937 0
M  V30 1345 O 126.606 -4.17742 3.52355 0
M  V30 1346 H 123.7 -0.654491 0.50554 0
M  V30 1347 H 126.246 -0.752014 1.52128 0
M  V30 1348 H 125.018 -2.02556 3.34793 0
M  V30 1349 H 124.641 -3.3067 2.20778 0
M  V30 1350 N 125.638 -1.25649 -0.95132 0
M  V30 1351 C 126.548 -1.08073 -2.08224 0
M  V30 1352 C 127.564 -0.0169666 -1.73992 0
M  V30 1353 O 128.74 -0.218593 -2.0021 0
M  V30 1354 C 125.805 -0.704922 -3.39458 0
M  V30 1355 C 124.866 -1.84699 -3.87537 0
M  V30 1356 C 124.099 -1.48902 -5.12508 0
M  V30 1357 O 124.322 -0.386156 -5.69091 0
M  V30 1358 O 123.256 -2.32033 -5.55378 0
M  V30 1359 H 127.082 -2.02924 -2.25954 0
M  V30 1360 H 124.667 -1.04618 -1.06656 0
M  V30 1361 H 126.549 -0.507609 -4.18332 0
M  V30 1362 H 125.224 0.214291 -3.2299 0
M  V30 1363 H 124.131 -2.09919 -3.09653 0
M  V30 1364 H 125.464 -2.74557 -4.08509 0
M  V30 1365 N 127.117 1.15442 -1.07289 0
M  V30 1366 C 128.363 1.86489 -0.796846 0
M  V30 1367 C 128.696 1.82078 0.675371 0
M  V30 1368 O 127.971 1.24346 1.4956 0
M  V30 1369 C 128.254 3.35626 -1.30489 0
M  V30 1370 C 128.107 3.48673 -2.84161 0
M  V30 1371 C 129.426 4.30357 -0.920907 0
M  V30 1372 H 126.545 0.677144 -0.290939 0
M  V30 1373 H 129.187 1.35633 -1.33056 0
M  V30 1374 H 127.337 3.79068 -0.850883 0
M  V30 1375 H 129.009 3.14099 -3.37846 0
M  V30 1376 H 127.252 2.90253 -3.22391 0
M  V30 1377 H 127.923 4.53453 -3.14777 0
M  V30 1378 H 130.399 3.94871 -1.3121 0
M  V30 1379 H 129.275 5.33193 -1.30372 0
M  V30 1380 H 129.536 4.4176 0.173226 0
M  V30 1381 N 128.595 0.856903 1.32268 0
M  V30 1382 C 129.542 0.301172 2.28827 0
M  V30 1383 C 130.512 -0.593104 1.5515 0
M  V30 1384 O 131.697 -0.527537 1.83362 0
M  V30 1385 C 128.837 -0.502523 3.41422 0
M  V30 1386 C 127.95 0.417797 4.29975 0
M  V30 1387 C 127.085 -0.398749 5.29701 0
M  V30 1388 C 126.124 0.518827 6.09897 0
M  V30 1389 N 125.261 -0.260674 7.01616 0
M  V30 1390 H 130.101 1.12983 2.75751 0
M  V30 1391 H 127.638 0.568582 1.35667 0
M  V30 1392 H 129.596 -0.984141 4.05426 0
M  V30 1393 H 128.226 -1.29599 2.95642 0
M  V30 1394 H 127.278 1.01781 3.66531 0
M  V30 1395 H 128.59 1.12191 4.86019 0
M  V30 1396 H 127.744 -0.943435 5.9932 0
M  V30 1397 H 126.483 -1.13622 4.7428 0
M  V30 1398 H 125.488 1.07538 5.39181 0
M  V30 1399 H 126.713 1.25495 6.67404 0
M  V30 1400 H 124.659 -0.981198 6.4862 0
M  V30 1401 H 124.576 0.384364 7.55022 0
M  V30 1402 H 125.844 -0.787014 7.75517 0
M  V30 1403 N 130.073 -1.45103 0.615059 0
M  V30 1404 C 131.32 -2.02183 0.113179 0
M  V30 1405 C 131.648 -1.48249 -1.25906 0
M  V30 1406 O 130.903 -0.650265 -1.84581 0
M  V30 1407 C 131.202 -3.57386 0.0318797 0
M  V30 1408 C 130.868 -4.30505 1.34077 0
M  V30 1409 C 129.53 -4.50197 1.69929 0
M  V30 1410 C 131.882 -4.72238 2.20546 0
M  V30 1411 C 129.21 -5.08881 2.91988 0
M  V30 1412 C 131.562 -5.32272 3.41861 0
M  V30 1413 C 130.226 -5.50187 3.77956 0
M  V30 1414 H 129.496 -0.739842 0.0414151 0
M  V30 1415 H 132.143 -1.74073 0.798168 0
M  V30 1416 H 130.448 -3.84817 -0.736409 0
M  V30 1417 H 132.145 -3.99264 -0.372712 0
M  V30 1418 H 128.735 -4.15496 1.05173 0
M  V30 1419 H 132.919 -4.56751 1.94146 0
M  V30 1420 H 128.175 -5.20939 3.2005 0
M  V30 1421 H 132.349 -5.63563 4.09109 0
M  V30 1422 H 129.976 -5.95427 4.72622 0
M  V30 1423 N 131.551 -0.354651 -1.53558 0
M  V30 1424 C 132.483 0.5315 -2.22952 0
M  V30 1425 C 133.496 1.05503 -1.23988 0
M  V30 1426 O 134.685 0.963279 -1.50277 0
M  V30 1427 C 131.785 1.74538 -2.90499 0
M  V30 1428 C 130.958 1.35524 -4.15875 0
M  V30 1429 C 130.017 2.42999 -4.66731 0
M  V30 1430 O 129.043 2.05844 -5.30676 0
M  V30 1431 N 130.245 3.74423 -4.43608 0
M  V30 1432 H 133.01 -0.0628615 -2.99634 0
M  V30 1433 H 130.571 -0.179302 -1.60904 0
M  V30 1434 H 132.563 2.45892 -3.21433 0
M  V30 1435 H 131.133 2.24686 -2.17336 0
M  V30 1436 H 130.353 0.471998 -3.91364 0
M  V30 1437 H 131.641 1.07071 -4.97406 0
M  V30 1438 H 131.039 4.07391 -3.92491 0
M  V30 1439 H 129.596 4.41913 -4.7912 0
M  V30 1440 N 133.029 1.57378 -0.0835403 0
M  V30 1441 C 133.959 2.1641 0.87686 0
M  V30 1442 C 134.94 1.09429 1.30228 0
M  V30 1443 O 136.125 1.37516 1.37124 0
M  V30 1444 C 133.255 2.73517 2.14022 0
M  V30 1445 C 132.209 3.85769 1.85381 0
M  V30 1446 C 131.535 4.29529 3.18448 0
M  V30 1447 C 132.835 5.09486 1.14984 0
M  V30 1448 H 134.529 2.96914 0.385059 0
M  V30 1449 H 132.075 1.42823 0.18377 0
M  V30 1450 H 134.028 3.13463 2.81636 0
M  V30 1451 H 132.752 1.90252 2.65465 0
M  V30 1452 H 131.411 3.46345 1.20169 0
M  V30 1453 H 131.059 3.43169 3.67755 0
M  V30 1454 H 130.759 5.05204 3.00071 0
M  V30 1455 H 132.283 4.72099 3.8724 0
M  V30 1456 H 133.697 5.46674 1.72687 0
M  V30 1457 H 132.094 5.90515 1.06826 0
M  V30 1458 H 133.164 4.84724 0.130749 0
M  V30 1459 N 134.507 -0.190092 1.56449 0
M  V30 1460 C 135.732 -0.929864 1.85387 0
M  V30 1461 C 136.157 -1.7585 0.667704 0
M  V30 1462 O 135.515 -1.77198 -0.383459 0
M  V30 1463 C 135.563 -1.79773 3.12593 0
M  V30 1464 O 134.667 -2.89713 2.93496 0
M  V30 1465 H 134.008 -0.261574 0.610307 0
M  V30 1466 H 136.538 -0.193896 2.03679 0
M  V30 1467 H 136.548 -2.20139 3.43515 0
M  V30 1468 H 135.223 -1.18892 3.98544 0
M  V30 1469 H 133.8 -2.53065 2.73884 0
M  V30 1470 N 135.985 -1.50799 -0.457987 0
M  V30 1471 C 136.915 -1.73553 -1.5621 0
M  V30 1472 C 137.896 -0.584774 -1.59732 0
M  V30 1473 O 139.081 -0.825314 -1.7579 0
M  V30 1474 C 136.211 -1.84169 -2.94447 0
M  V30 1475 C 135.165 -2.99461 -3.0579 0
M  V30 1476 C 134.491 -2.95235 -4.45803 0
M  V30 1477 C 135.791 -4.39766 -2.81786 0
M  V30 1478 H 137.485 -2.66 -1.37421 0
M  V30 1479 H 135.031 -1.28002 -0.659662 0
M  V30 1480 H 136.984 -1.98672 -3.71628 0
M  V30 1481 H 135.708 -0.883545 -3.14422 0
M  V30 1482 H 134.367 -2.8463 -2.31044 0
M  V30 1483 H 134.015 -1.97239 -4.62715 0
M  V30 1484 H 133.715 -3.72642 -4.54326 0
M  V30 1485 H 135.239 -3.11803 -5.24987 0
M  V30 1486 H 136.653 -4.55054 -3.4871 0
M  V30 1487 H 135.05 -5.18722 -3.0174 0
M  V30 1488 H 136.12 -4.51229 -1.7754 0
M  V30 1489 N 137.463 0.71206 -1.40597 0
M  V30 1490 C 138.426 1.80785 -1.40888 0
M  V30 1491 C 139.426 1.57937 -0.302103 0
M  V30 1492 O 140.616 1.64913 -0.561182 0
M  V30 1493 C 137.748 3.18927 -1.20409 0
M  V30 1494 H 138.941 1.81924 -2.38419 0
M  V30 1495 H 136.494 0.91805 -1.26497 0
M  V30 1496 H 137.229 3.23436 -0.236522 0
M  V30 1497 H 137.014 3.36911 -2.00582 0
M  V30 1498 H 138.504 3.98949 -1.23408 0
M  V30 1499 N 138.941 1.26152 0.944643 0
M  V30 1500 C 140.188 1.11492 1.69044 0
M  V30 1501 C 140.516 -0.342366 1.91463 0
M  V30 1502 O 139.771 -1.26812 1.49054 0
M  V30 1503 C 140.07 1.82541 3.07268 0
M  V30 1504 C 139.736 3.32445 3.04616 0
M  V30 1505 C 138.398 3.73337 3.036 0
M  V30 1506 C 140.75 4.28171 2.97185 0
M  V30 1507 C 138.078 5.08348 2.92915 0
M  V30 1508 C 140.43 5.63218 2.88041 0
M  V30 1509 C 139.094 6.03426 2.85366 0
M  V30 1510 H 138.364 0.407977 0.618576 0
M  V30 1511 H 141.011 1.56551 1.10291 0
M  V30 1512 H 139.316 1.29941 3.69625 0
M  V30 1513 H 141.013 1.68642 3.63815 0
M  V30 1514 H 137.603 2.99915 3.06185 0
M  V30 1515 H 141.787 3.97563 2.97081 0
M  V30 1516 H 137.043 5.38667 2.89219 0
M  V30 1517 H 141.217 6.37078 2.81254 0
M  V30 1518 H 138.844 7.07999 2.76842 0
M  V30 1519 N 140.419 -1.14872 1.07899 0
M  V30 1520 C 141.83 -1.67367 0.827363 0
M  V30 1521 C 142.181 -1.85236 -0.646693 0
M  V30 1522 O 141.306 -1.55974 -1.50004 0
M  V30 1523 C 141.901 -3.04016 1.49532 0
M  V30 1524 C 140.46 -3.53566 1.29106 0
M  V30 1525 C 139.607 -2.29161 1.56143 0
M  V30 1526 H 142.558 -0.990083 1.24028 0
M  V30 1527 H 142.579 -3.69219 0.919643 0
M  V30 1528 H 142.091 -2.90978 2.56814 0
M  V30 1529 H 140.192 -3.71835 0.238713 0
M  V30 1530 H 140.305 -4.34661 2.01511 0
M  V30 1531 H 138.669 -2.34978 0.982717 0
M  V30 1532 H 139.452 -2.18705 2.64619 0
M  V30 1533 N 141.898 -0.863906 -1.31812 0
M  V30 1534 C 142.828 -0.330843 -2.31144 0
M  V30 1535 C 143.809 0.575005 -1.60087 0
M  V30 1536 O 144.994 0.493304 -1.8783 0
M  V30 1537 C 142.124 0.47374 -3.44054 0
M  V30 1538 C 141.078 -0.338481 -4.26659 0
M  V30 1539 C 140.404 0.591412 -5.31419 0
M  V30 1540 C 141.704 -1.56926 -4.98168 0
M  V30 1541 H 143.398 -1.16086 -2.75979 0
M  V30 1542 H 140.944 -0.559657 -1.32679 0
M  V30 1543 H 142.897 0.857143 -4.12591 0
M  V30 1544 H 141.621 1.33721 -2.9797 0
M  V30 1545 H 140.28 -0.703754 -3.59782 0
M  V30 1546 H 139.928 1.45199 -4.81587 0
M  V30 1547 H 139.628 0.0519022 -5.87577 0
M  V30 1548 H 141.152 0.97179 -6.02817 0
M  V30 1549 H 142.566 -1.25764 -5.59336 0
M  V30 1550 H 140.963 -2.04739 -5.64094 0
M  V30 1551 H 142.033 -2.32544 -4.25501 0
M  V30 1552 N 143.376 1.44774 -0.622745 0
M  V30 1553 C 144.622 2.02968 -0.13257 0
M  V30 1554 C 144.977 1.48047 1.22881 0
M  V30 1555 O 144.27 0.651625 1.80179 0
M  V30 1556 C 144.464 3.57364 -0.0508323 0
M  V30 1557 C 144.293 4.27262 -1.40275 0
M  V30 1558 C 143.063 4.64577 -1.98737 0
M  V30 1559 C 145.261 4.58248 -2.3348 0
M  V30 1560 N 143.243 5.19404 -3.27251 0
M  V30 1561 C 144.614 5.14069 -3.46603 0
M  V30 1562 C 146.669 4.40195 -2.32664 0
M  V30 1563 C 145.372 5.53738 -4.59093 0
M  V30 1564 C 147.398 4.80907 -3.44213 0
M  V30 1565 C 146.76 5.36834 -4.56058 0
M  V30 1566 H 142.859 0.776541 -0.0922354 0
M  V30 1567 H 145.443 1.76385 -0.82441 0
M  V30 1568 H 143.614 3.83576 0.610265 0
M  V30 1569 H 145.346 4.02219 0.447397 0
M  V30 1570 H 142.101 4.48622 -1.51774 0
M  V30 1571 H 142.525 5.51301 -3.92933 0
M  V30 1572 H 147.167 3.96257 -1.47446 0
M  V30 1573 H 144.885 5.96635 -5.45025 0
M  V30 1574 H 148.471 4.68659 -3.44747 0
M  V30 1575 H 147.351 5.67755 -5.40947 0
M  V30 1576 N 144.854 0.36279 1.53368 0
M  V30 1577 C 146.27 0.0116182 1.59596 0
M  V30 1578 C 146.47 -1.47012 1.37803 0
M  V30 1579 O 145.526 -2.23136 1.18181 0
M  V30 1580 C 146.839 0.465052 2.97082 0
M  V30 1581 C 148.387 0.419033 3.10182 0
M  V30 1582 C 148.862 0.848235 4.50077 0
M  V30 1583 N 150.353 0.803183 4.56183 0
M  V30 1584 C 151.088 1.107 5.62613 0
M  V30 1585 N 150.584 1.47996 6.76808 0
M  V30 1586 N 152.377 1.02998 5.52583 0
M  V30 1587 H 144.528 1.32775 1.65785 0
M  V30 1588 H 146.791 0.542518 0.777417 0
M  V30 1589 H 146.497 1.49892 3.18159 0
M  V30 1590 H 146.371 -0.149786 3.76902 0
M  V30 1591 H 148.758 -0.605696 2.88817 0
M  V30 1592 H 148.839 1.06933 2.32377 0
M  V30 1593 H 148.483 1.87107 4.7218 0
M  V30 1594 H 148.413 0.175218 5.26308 0
M  V30 1595 H 150.904 0.52838 3.74188 0
M  V30 1596 H 151.217 1.69613 7.53957 0
M  V30 1597 H 149.562 1.51859 6.78206 0
M  V30 1598 H 152.753 0.737817 4.62249 0
M  V30 1599 H 152.926 1.2701 6.35431 0
M  V30 1600 N 146.332 -1.57332 0.0918853 0
M  V30 1601 C 147.58 -1.93853 -0.571446 0
M  V30 1602 C 147.901 -0.974212 -1.6892 0
M  V30 1603 O 147.171 -0.0257254 -1.95883 0
M  V30 1604 H 145.751 -0.715666 -0.214082 0
M  V30 1605 H 148.413 -1.94287 0.154464 0
M  V30 1606 H 147.509 -2.96191 -0.983729 0
M  V30 1607 N 147.81 0.181792 -1.56548 0
M  V30 1608 C 149.059 0.898348 -1.8059 0
M  V30 1609 C 149.372 1.83862 -0.667379 0
M  V30 1610 O 150.578 2.59678 -0.792446 0
M  V30 1611 C 149.034 1.64791 -3.19956 0
M  V30 1612 C 148.642 0.751789 -4.41647 0
M  V30 1613 C 150.386 2.35331 -3.53298 0
M  V30 1614 C 148.293 1.50098 -5.72035 0
M  V30 1615 H 147.223 0.339194 -0.673397 0
M  V30 1616 H 149.874 0.151413 -1.82874 0
M  V30 1617 H 148.256 2.43921 -3.11959 0
M  V30 1618 H 149.43 -0.0018076 -4.608 0
M  V30 1619 H 147.745 0.156562 -4.16106 0
M  V30 1620 H 150.342 2.91958 -4.47956 0
M  V30 1621 H 150.685 3.10164 -2.77676 0
M  V30 1622 H 151.218 1.63154 -3.62803 0
M  V30 1623 H 147.957 0.795175 -6.50659 0
M  V30 1624 H 147.477 2.22817 -5.56878 0
M  V30 1625 H 149.156 2.05125 -6.13622 0
M  V30 1626 N 149.288 1.51039 0.449983 0
M  V30 1627 C 150.218 1.74379 1.55288 0
M  V30 1628 C 151.199 0.593236 1.5942 0
M  V30 1629 O 152.384 0.834625 1.7535 0
M  V30 1630 C 149.514 1.85728 2.93466 0
M  V30 1631 C 148.468 3.01078 3.04197 0
M  V30 1632 C 147.794 2.97595 4.44231 0
M  V30 1633 C 149.094 4.41254 2.7945 0
M  V30 1634 H 150.788 2.66725 1.36008 0
M  V30 1635 H 148.334 1.2835 0.652864 0
M  V30 1636 H 150.287 2.0064 3.70569 0
M  V30 1637 H 149.011 0.900207 3.13949 0
M  V30 1638 H 147.67 2.85851 2.29531 0
M  V30 1639 H 147.318 1.99691 4.61663 0
M  V30 1640 H 147.018 3.75046 4.52343 0
M  V30 1641 H 148.542 3.14583 5.23326 0
M  V30 1642 H 149.956 4.56897 3.46292 0
M  V30 1643 H 148.353 5.20315 2.98985 0
M  V30 1644 H 149.423 4.52164 1.75144 0
M  V30 1645 N 150.766 -0.704594 1.40972 0
M  V30 1646 C 152.014 -1.46169 1.39568 0
M  V30 1647 C 152.335 -1.95 0.00253745 0
M  V30 1648 O 151.605 -1.71095 -0.954114 0
M  V30 1649 H 150.185 -0.542326 0.513704 0
M  V30 1650 H 152.847 -0.834553 1.76128 0
M  V30 1651 H 151.943 -2.32922 2.07735 0
M  V30 1652 N 152.244 -1.26651 -0.937939 0
M  V30 1653 C 153.655 -1.1125 -1.49934 0
M  V30 1654 C 154.006 0.306077 -1.93798 0
M  V30 1655 O 153.131 1.19792 -1.80219 0
M  V30 1656 C 153.726 -2.01339 -2.72485 0
M  V30 1657 C 152.285 -1.90074 -3.24883 0
M  V30 1658 C 151.432 -1.94498 -1.97651 0
M  V30 1659 H 154.383 -1.39693 -0.753091 0
M  V30 1660 H 154.404 -1.56319 -3.46907 0
M  V30 1661 H 153.916 -3.04577 -2.40529 0
M  V30 1662 H 152.017 -0.897827 -3.61621 0
M  V30 1663 H 152.13 -2.75778 -3.9177 0
M  V30 1664 H 150.494 -1.38591 -2.13693 0
M  V30 1665 H 151.277 -2.99372 -1.68022 0
M  V30 1666 N 153.722 1.14298 -1.08507 0
M  V30 1667 C 154.67 2.21483 -0.710483 0
M  V30 1668 C 155.664 1.66998 0.284234 0
M  V30 1669 O 156.87 1.79401 0.146692 0
M  V30 1670 H 153.245 0.721578 -0.211729 0
M  V30 1671 H 155.216 2.50348 -1.62384 0
M  V30 1672 C 153.965 3.4743 -0.137007 0
M  V30 1673 H 153.288 3.89686 -0.893592 0
M  V30 1674 H 154.728 4.2391 0.0872789 0
M  V30 1675 C 153.187 3.17548 1.12538 0
M  V30 1676 O 153.717 3.35437 2.21009 0
M  V30 1677 N 151.923 2.71499 1.03617 0
M  V30 1678 H 151.47 2.57143 0.153403 0
M  V30 1679 H 151.428 2.51881 1.88158 0
M  V30 1680 N 155.201 0.870884 1.31352 0
M  V30 1681 C 156.426 0.495957 2.01383 0
M  V30 1682 C 156.851 -0.904324 1.64935 0
M  V30 1683 O 156.209 -1.59687 0.858466 0
M  V30 1684 C 156.257 0.661433 3.54482 0
M  V30 1685 O 155.361 -0.298851 4.11316 0
M  V30 1686 H 154.702 0.197158 0.634054 0
M  V30 1687 H 157.232 1.17455 1.67527 0
M  V30 1688 H 157.242 0.555072 4.04207 0
M  V30 1689 H 155.917 1.68246 3.8035 0
M  V30 1690 H 154.494 -0.147368 3.72609 0
M  V30 1691 N 156.679 -1.44442 0.630414 0
M  V30 1692 C 157.925 -2.02351 0.134816 0
M  V30 1693 C 158.258 -1.4947 -1.23986 0
M  V30 1694 O 157.533 -0.678475 -1.82283 0
M  V30 1695 C 157.816 -3.59898 0.120707 0
M  V30 1696 C 157.669 -4.23063 1.52767 0
M  V30 1697 C 158.988 -4.36585 -0.555127 0
M  V30 1698 H 156.107 -0.73527 0.0504646 0
M  V30 1699 H 158.749 -1.72022 0.806751 0
M  V30 1700 H 156.899 -3.85868 -0.451477 0
M  V30 1701 H 158.571 -4.08202 2.14869 0
M  V30 1702 H 156.814 -3.80586 2.08175 0
M  V30 1703 H 157.485 -5.32071 1.46984 0
M  V30 1704 H 159.961 -4.16044 -0.0685429 0
M  V30 1705 H 158.837 -5.46294 -0.534185 0
M  V30 1706 H 159.098 -4.11138 -1.62535 0
M  V30 1707 N 158.157 -0.370918 -1.53173 0
M  V30 1708 C 159.087 0.464847 -2.28826 0
M  V30 1709 C 160.068 1.07936 -1.31468 0
M  V30 1710 O 161.253 1.0956 -1.60344 0
M  V30 1711 C 158.383 1.60196 -3.08147 0
M  V30 1712 C 157.337 1.11443 -4.13237 0
M  V30 1713 C 156.663 2.3422 -4.80672 0
M  V30 1714 C 157.963 0.195384 -5.21934 0
M  V30 1715 H 159.657 -0.166329 -2.98938 0
M  V30 1716 H 157.203 -0.0814359 -1.4377 0
M  V30 1717 H 159.156 2.19332 -3.59822 0
M  V30 1718 H 157.88 2.26045 -2.35735 0
M  V30 1719 H 156.539 0.545727 -3.62515 0
M  V30 1720 H 156.187 2.98537 -4.04827 0
M  V30 1721 H 155.887 2.02269 -5.51689 0
M  V30 1722 H 157.411 2.94032 -5.35143 0
M  V30 1723 H 158.825 0.694375 -5.69079 0
M  V30 1724 H 157.222 -0.0335027 -6.00091 0
M  V30 1725 H 158.292 -0.760961 -4.78892 0
M  V30 1726 N 159.635 1.57281 -0.100228 0
M  V30 1727 C 160.883 1.94153 0.561157 0
M  V30 1728 C 161.204 0.983157 1.68401 0
M  V30 1729 O 160.474 0.0361132 1.95867 0
M  V30 1730 H 159.054 0.716791 0.210283 0
M  V30 1731 H 161.716 1.94202 -0.164765 0
M  V30 1732 H 160.812 2.96709 0.968008 0
M  V30 1733 N 161.113 -0.173488 1.56642 0
M  V30 1734 C 162.076 -1.19859 1.95362 0
M  V30 1735 C 163.076 -1.37296 0.83704 0
M  V30 1736 O 164.266 -1.34739 1.10413 0
M  V30 1737 C 161.398 -2.56405 2.24654 0
M  V30 1738 H 162.591 -0.867062 2.87092 0
M  V30 1739 H 160.144 -0.415853 1.50666 0
M  V30 1740 H 160.879 -2.94576 1.35631 0
M  V30 1741 H 160.664 -2.45115 3.06041 0
M  V30 1742 H 162.154 -3.30287 2.5554 0
M  V30 1743 N 162.591 -1.51276 -0.441967 0
M  V30 1744 C 163.816 -1.67799 -1.21895 0
M  V30 1745 C 164.241 -0.372864 -1.84367 0
M  V30 1746 O 163.599 0.666501 -1.68604 0
M  V30 1747 C 163.647 -2.79199 -2.28211 0
M  V30 1748 O 162.751 -2.42479 -3.33583 0
M  V30 1749 H 162.092 -0.559649 -0.357336 0
M  V30 1750 H 164.622 -1.97815 -0.522522 0
M  V30 1751 H 164.632 -3.03146 -2.73069 0
M  V30 1752 H 163.307 -3.73906 -1.82118 0
M  V30 1753 H 161.884 -2.29087 -2.94234 0
M  V30 1754 N 164.069 0.697108 -1.41344 0
M  V30 1755 C 165.299 1.48377 -1.43763 0
M  V30 1756 C 165.707 1.89156 -0.0408726 0
M  V30 1757 O 165.05 1.57239 0.949812 0
M  V30 1758 C 165.112 2.7781 -2.2817 0
M  V30 1759 C 164.776 2.59244 -3.76353 0
M  V30 1760 C 165.773 2.25292 -4.68551 0
M  V30 1761 C 163.458 2.74933 -4.20378 0
M  V30 1762 C 165.452 2.07264 -6.02761 0
M  V30 1763 C 163.139 2.56521 -5.54653 0
M  V30 1764 C 164.137 2.22737 -6.4566 0
M  V30 1765 O 163.825 2.04485 -7.77458 0
M  V30 1766 H 163.557 0.463842 -0.491759 0
M  V30 1767 H 166.111 0.865934 -1.86255 0
M  V30 1768 H 164.341 3.41995 -1.8049 0
M  V30 1769 H 166.03 3.39608 -2.22309 0
M  V30 1770 H 166.796 2.12787 -4.35829 0
M  V30 1771 H 162.675 3.00213 -3.49848 0
M  V30 1772 H 166.219 1.80817 -6.73759 0
M  V30 1773 H 162.116 2.68616 -5.86955 0
M  V30 1774 H 162.884 2.1926 -7.88586 0
M  V30 1775 N 165.547 1.27147 0.931209 0
M  V30 1776 C 166.775 1.16082 1.71267 0
M  V30 1777 C 167.19 -0.282772 1.8667 0
M  V30 1778 O 166.547 -1.19283 1.38122 0
M  V30 1779 C 166.598 1.8358 3.11417 0
M  V30 1780 O 166.319 3.22299 2.96741 0
M  V30 1781 C 167.82 1.78597 4.05732 0
M  V30 1782 H 165.04 0.403758 0.535929 0
M  V30 1783 H 167.584 1.67953 1.16671 0
M  V30 1784 H 165.739 1.35623 3.62885 0
M  V30 1785 H 166.153 3.55851 3.85319 0
M  V30 1786 H 167.627 2.30444 5.01597 0
M  V30 1787 H 168.104 0.754564 4.3267 0
M  V30 1788 H 168.71 2.26152 3.60188 0
M  V30 1789 N 167.025 -1.13721 1.09112 0
M  V30 1790 C 167.957 -2.1871 0.685467 0
M  V30 1791 C 168.97 -1.60527 -0.271068 0
M  V30 1792 O 170.159 -1.78407 -0.0576148 0
M  V30 1793 C 167.259 -3.38898 -0.0111255 0
M  V30 1794 C 166.432 -4.26597 0.966131 0
M  V30 1795 C 165.491 -5.25324 0.303539 0
M  V30 1796 O 164.517 -5.61213 0.950177 0
M  V30 1797 N 165.719 -5.72779 -0.943651 0
M  V30 1798 H 168.484 -2.54126 1.58871 0
M  V30 1799 H 166.045 -1.29012 0.978143 0
M  V30 1800 H 168.037 -4.02014 -0.465517 0
M  V30 1801 H 166.607 -3.01747 -0.816565 0
M  V30 1802 H 165.827 -3.60306 1.59917 0
M  V30 1803 H 167.115 -4.82048 1.6281 0
M  V30 1804 H 166.513 -5.45762 -1.48862 0
M  V30 1805 H 165.07 -6.37847 -1.34142 0
M  V30 1806 N 168.503 -0.877838 -1.30888 0
M  V30 1807 C 169.45 -0.337538 -2.28318 0
M  V30 1808 C 170.42 0.568346 -1.56074 0
M  V30 1809 O 171.605 0.498298 -1.84178 0
M  V30 1810 C 168.745 0.448142 -3.42178 0
M  V30 1811 C 167.858 -0.48615 -4.29256 0
M  V30 1812 C 166.993 0.314427 -5.30269 0
M  V30 1813 C 166.032 -0.615791 -6.08995 0
M  V30 1814 N 165.169 0.14902 -7.01942 0
M  V30 1815 H 170.009 -1.17356 -2.73919 0
M  V30 1816 H 167.546 -0.590094 -1.34745 0
M  V30 1817 H 169.504 0.919517 -4.06941 0
M  V30 1818 H 168.134 1.24879 -2.97666 0
M  V30 1819 H 167.186 -1.076 -3.64865 0
M  V30 1820 H 168.498 -1.19909 -4.84173 0
M  V30 1821 H 167.652 0.847969 -6.00745 0
M  V30 1822 H 166.391 1.06062 -4.76027 0
M  V30 1823 H 165.396 -1.16102 -5.37401 0
M  V30 1824 H 166.621 -1.36097 -6.65323 0
M  V30 1825 H 164.567 0.877884 -6.50099 0
M  V30 1826 H 164.484 -0.504433 -7.54315 0
M  V30 1827 H 165.752 0.663537 -7.76671 0
M  V30 1828 N 169.982 1.44106 -0.638065 0
M  V30 1829 C 171.207 2.0685 -0.150916 0
M  V30 1830 C 171.632 1.47417 1.16833 0
M  V30 1831 O 170.99 0.578264 1.71831 0
M  V30 1832 C 171.038 3.60555 -0.05708 0
M  V30 1833 O 170.142 4.00465 0.984972 0
M  V30 1834 H 169.483 0.658151 -0.0879399 0
M  V30 1835 H 172.013 1.84865 -0.876707 0
M  V30 1836 H 172.023 4.07789 0.131232 0
M  V30 1837 H 170.698 4.03193 -1.02021 0
M  V30 1838 H 169.275 3.64849 0.770672 0
M  V30 1839 N 171.46 0.379036 1.52974 0
M  V30 1840 C 172.706 -0.199244 2.02422 0
M  V30 1841 C 173.061 -1.4532 1.26095 0
M  V30 1842 O 172.354 -1.88377 0.34996 0
M  V30 1843 C 172.548 -0.53096 3.53434 0
M  V30 1844 C 172.377 0.689298 4.44386 0
M  V30 1845 C 171.147 1.20546 4.9071 0
M  V30 1846 C 173.345 1.55856 4.90116 0
M  V30 1847 N 171.327 2.38434 5.65705 0
M  V30 1848 C 172.698 2.58396 5.63588 0
M  V30 1849 C 174.753 1.57986 4.7217 0
M  V30 1850 C 173.456 3.62939 6.21022 0
M  V30 1851 C 175.482 2.6143 5.30479 0
M  V30 1852 C 174.844 3.62693 6.03849 0
M  V30 1853 H 170.943 -0.0352671 0.781204 0
M  V30 1854 H 173.527 0.526614 1.87443 0
M  V30 1855 H 171.698 -1.22588 3.68547 0
M  V30 1856 H 173.43 -1.0955 3.89591 0
M  V30 1857 H 170.185 0.768022 4.67331 0
M  V30 1858 H 170.609 2.98055 6.07859 0
M  V30 1859 H 175.251 0.810475 4.14959 0
M  V30 1860 H 172.969 4.40751 6.77321 0
M  V30 1861 H 176.555 2.63949 5.18481 0
M  V30 1862 H 175.435 4.41424 6.48163 0
M  V30 1863 N 172.938 -1.57226 0.108567 0
M  V30 1864 C 174.184 -1.95919 -0.546564 0
M  V30 1865 C 174.539 -0.990417 -1.6495 0
M  V30 1866 O 173.832 -0.0186593 -1.91591 0
M  V30 1867 C 174.026 -3.38911 -1.13463 0
M  V30 1868 C 173.855 -4.4961 -0.0901926 0
M  V30 1869 C 172.625 -5.04168 0.338008 0
M  V30 1870 C 174.823 -5.09693 0.686808 0
M  V30 1871 N 172.805 -5.98434 1.36931 0
M  V30 1872 C 174.176 -5.99804 1.56958 0
M  V30 1873 C 176.231 -4.92388 0.738846 0
M  V30 1874 C 174.934 -6.74463 2.49983 0
M  V30 1875 C 176.96 -5.67719 1.65676 0
M  V30 1876 C 176.322 -6.57507 2.52713 0
M  V30 1877 H 172.421 -0.763312 -0.169936 0
M  V30 1878 H 175.005 -1.93728 0.194264 0
M  V30 1879 H 173.176 -3.41769 -1.84522 0
M  V30 1880 H 174.908 -3.64752 -1.75322 0
M  V30 1881 H 171.663 -4.73571 -0.0523673 0
M  V30 1882 H 172.087 -6.5027 1.88356 0
M  V30 1883 H 176.729 -4.22724 0.080084 0
M  V30 1884 H 174.447 -7.4338 3.16878 0
M  V30 1885 H 178.033 -5.56338 1.70233 0
M  V30 1886 H 176.913 -7.14778 3.22586 0
M  V30 1887 N 174.416 0.165178 -1.56732 0
M  V30 1888 C 175.348 1.22911 -1.93457 0
M  V30 1889 C 176.361 1.40152 -0.828333 0
M  V30 1890 O 177.55 1.40046 -1.10677 0
M  V30 1891 C 174.65 2.59686 -2.17753 0
M  V30 1892 C 173.823 2.63663 -3.48999 0
M  V30 1893 C 172.882 3.81845 -3.62051 0
M  V30 1894 O 171.908 3.67559 -4.34613 0
M  V30 1895 N 173.11 4.98557 -2.97357 0
M  V30 1896 H 175.875 0.917118 -2.85323 0
M  V30 1897 H 173.436 0.354895 -1.57962 0
M  V30 1898 H 175.428 3.37225 -2.23743 0
M  V30 1899 H 173.998 2.83251 -1.32242 0
M  V30 1900 H 173.218 1.72173 -3.54612 0
M  V30 1901 H 174.506 2.63336 -4.35352 0
M  V30 1902 H 173.904 5.13065 -2.38287 0
M  V30 1903 H 172.461 5.73936 -3.08934 0
M  V30 1904 N 175.894 1.51508 0.433938 0
M  V30 1905 C 176.824 1.76016 1.53429 0
M  V30 1906 C 177.805 0.610112 1.58782 0
M  V30 1907 O 178.99 0.853177 1.74455 0
M  V30 1908 C 176.12 1.88831 2.9148 0
M  V30 1909 C 175.074 3.04288 3.00987 0
M  V30 1910 C 174.4 3.0229 4.4105 0
M  V30 1911 C 175.7 4.44193 2.74754 0
M  V30 1912 H 177.394 2.68152 1.33171 0
M  V30 1913 H 174.94 1.29035 0.639214 0
M  V30 1914 H 176.893 2.04559 3.6842 0
M  V30 1915 H 175.617 0.933455 3.12976 0
M  V30 1916 H 174.276 2.8827 2.26486 0
M  V30 1917 H 173.924 2.04576 4.59519 0
M  V30 1918 H 173.624 3.79822 4.4834 0
M  V30 1919 H 175.148 3.20116 5.1996 0
M  V30 1920 H 176.562 4.60544 3.41426 0
M  V30 1921 H 174.959 5.23457 2.9345 0
M  V30 1922 H 176.029 4.53996 1.70339 0
M  V30 1923 N 177.372 -0.689602 1.41712 0
M  V30 1924 C 178.597 -1.48329 1.44959 0
M  V30 1925 C 179.022 -1.8801 0.0581283 0
M  V30 1926 O 178.38 -1.55026 -0.940035 0
M  V30 1927 C 178.428 -2.71835 2.36935 0
M  V30 1928 O 177.532 -3.69549 1.8305 0
M  V30 1929 H 176.873 -0.446199 0.491734 0
M  V30 1930 H 179.403 -0.847127 1.86239 0
M  V30 1931 H 179.413 -3.20076 2.53013 0
M  V30 1932 H 178.088 -2.42291 3.38035 0
M  V30 1933 H 176.665 -3.2851 1.76452 0
M  V30 1934 N 178.85 -1.27639 -0.924453 0
M  V30 1935 C 179.798 -1.10485 -2.04685 0
M  V30 1936 C 180.792 -0.0270421 -1.69378 0
M  V30 1937 O 181.998 -0.185008 -1.79047 0
M  V30 1938 H 178.373 -0.340546 -0.670472 0
M  V30 1939 H 180.344 -2.05566 -2.16298 0
M  V30 1940 C 179.093 -0.772229 -3.39016 0
M  V30 1941 H 178.416 -1.59351 -3.66671 0
M  V30 1942 H 179.856 -0.692097 -4.18313 0
M  V30 1943 C 178.315 0.523554 -3.32807 0
M  V30 1944 O 178.845 1.55702 -3.70297 0
M  V30 1945 N 177.051 0.520363 -2.85903 0
M  V30 1946 H 176.598 -0.32107 -2.55591 0
M  V30 1947 H 176.556 1.38742 -2.82131 0
M  V30 1948 N 180.328 1.1314 -1.09713 0
M  V30 1949 C 181.553 1.88862 -0.857081 0
M  V30 1950 C 181.978 1.78729 0.586304 0
M  V30 1951 O 181.336 1.13692 1.41222 0
M  V30 1952 C 181.384 3.36325 -1.30069 0
M  V30 1953 O 180.488 4.09815 -0.461007 0
M  V30 1954 H 179.829 0.587108 -0.310162 0
M  V30 1955 H 182.359 1.43129 -1.46203 0
M  V30 1956 H 182.369 3.87157 -1.28738 0
M  V30 1957 H 181.044 3.43017 -2.35185 0
M  V30 1958 H 179.621 3.68986 -0.538888 0
M  V30 1959 N 181.806 0.884767 1.30421 0
M  V30 1960 C 182.716 0.355398 2.31892 0
M  V30 1961 C 183.732 -0.542261 1.65335 0
M  V30 1962 O 184.908 -0.435432 1.96637 0
M  V30 1963 C 181.973 -0.421661 3.44126 0
M  V30 1964 C 181.034 0.505727 4.26311 0
M  V30 1965 C 180.267 -0.234343 5.33185 0
M  V30 1966 O 180.49 -1.46045 5.51386 0
M  V30 1967 O 179.424 0.415443 6.00465 0
M  V30 1968 H 183.25 1.19685 2.79122 0
M  V30 1969 H 180.835 0.648596 1.34587 0
M  V30 1970 H 182.717 -0.861641 4.12497 0
M  V30 1971 H 181.392 -1.23942 2.99032 0
M  V30 1972 H 180.299 0.994513 3.60639 0
M  V30 1973 H 181.632 1.28948 4.75009 0
M  V30 1974 N 183.284 -1.43765 0.645699 0
M  V30 1975 C 184.194 -2.34544 -0.0512957 0
M  V30 1976 C 185.21 -1.53455 -0.82022 0
M  V30 1977 O 186.386 -1.86133 -0.769176 0
M  V30 1978 C 183.451 -3.31636 -1.01087 0
M  V30 1979 C 182.512 -4.2863 -0.239712 0
M  V30 1980 C 181.745 -5.21084 -1.15358 0
M  V30 1981 O 181.968 -5.1779 -2.39269 0
M  V30 1982 O 180.902 -5.98593 -0.630038 0
M  V30 1983 H 184.728 -2.95624 0.695718 0
M  V30 1984 H 182.313 -1.43781 0.405882 0
M  V30 1985 H 184.195 -3.9136 -1.56254 0
M  V30 1986 H 182.87 -2.73069 -1.73824 0
M  V30 1987 H 181.777 -3.72408 0.355356 0
M  V30 1988 H 183.11 -4.90157 0.447936 0
M  V30 1989 N 184.763 -0.387143 -1.52771 0
M  V30 1990 C 185.988 0.198407 -2.06449 0
M  V30 1991 C 186.413 1.39918 -1.25716 0
M  V30 1992 O 185.771 1.79099 -0.281657 0
M  V30 1993 C 185.819 0.548893 -3.56398 0
M  V30 1994 O 184.923 1.64315 -3.78252 0
M  V30 1995 H 184.264 0.0237731 -0.663574 0
M  V30 1996 H 186.794 -0.553989 -1.96957 0
M  V30 1997 H 186.804 0.813812 -3.99801 0
M  V30 1998 H 185.479 -0.329005 -4.14597 0
M  V30 1999 H 184.056 1.37211 -3.46738 0
M  V30 2000 N 186.241 1.57166 -0.116904 0
M  V30 2001 C 187.466 1.999 0.55271 0
M  V30 2002 C 187.891 0.996039 1.59564 0
M  V30 2003 O 187.249 -0.032556 1.81271 0
M  V30 2004 C 187.297 3.4152 1.15742 0
M  V30 2005 O 186.401 3.44106 2.27299 0
M  V30 2006 H 185.742 0.649447 0.138258 0
M  V30 2007 H 188.272 2.03573 -0.204759 0
M  V30 2008 H 188.282 3.79684 1.49346 0
M  V30 2009 H 186.957 4.14034 0.393493 0
M  V30 2010 H 185.534 3.17759 1.9515 0
M  V30 2011 N 187.719 -0.156864 1.56817 0
M  V30 2012 C 189.13 -0.717916 1.72345 0
M  V30 2013 C 189.481 -1.82124 0.729747 0
M  V30 2014 O 188.606 -2.16141 -0.105781 0
M  V30 2015 C 189.201 -1.30904 3.12489 0
M  V30 2016 C 187.76 -1.81676 3.29653 0
M  V30 2017 C 186.907 -0.701349 2.68284 0
M  V30 2018 H 189.858 0.0686989 1.58551 0
M  V30 2019 H 189.879 -2.17882 3.11942 0
M  V30 2020 H 189.391 -0.505796 3.8479 0
M  V30 2021 H 187.492 -2.64598 2.62333 0
M  V30 2022 H 187.605 -1.95226 4.3752 0
M  V30 2023 H 185.969 -1.12548 2.28484 0
M  V30 2024 H 186.752 0.0902846 3.43181 0
M  V30 2025 N 189.197 -1.51736 -0.425897 0
M  V30 2026 C 190.444 -1.6497 -1.17436 0
M  V30 2027 C 190.772 -0.371445 -1.9092 0
M  V30 2028 O 190.027 0.644963 -1.84767 0
M  V30 2029 C 190.326 -2.81103 -2.20717 0
M  V30 2030 C 189.992 -4.19954 -1.64162 0
M  V30 2031 C 188.654 -4.57725 -1.48462 0
M  V30 2032 C 191.006 -5.06552 -1.22696 0
M  V30 2033 C 188.334 -5.79789 -0.897873 0
M  V30 2034 C 190.686 -6.29205 -0.654464 0
M  V30 2035 C 189.35 -6.6574 -0.484456 0
M  V30 2036 H 188.62 -0.603668 -0.429727 0
M  V30 2037 H 191.267 -1.85798 -0.463829 0
M  V30 2038 H 189.572 -2.54542 -2.97852 0
M  V30 2039 H 191.269 -2.8854 -2.78471 0
M  V30 2040 H 187.859 -3.90181 -1.77361 0
M  V30 2041 H 192.043 -4.77968 -1.33642 0
M  V30 2042 H 187.299 -6.06733 -0.75402 0
M  V30 2043 H 191.473 -6.95643 -0.324694 0
M  V30 2044 H 189.1 -7.60195 -0.0276833 0
M  V30 2045 N 190.675 0.682077 -1.42076 0
M  V30 2046 C 192.091 0.994324 -1.24841 0
M  V30 2047 C 192.291 2.0096 -0.147389 0
M  V30 2048 O 191.347 2.47822 0.483782 0
M  V30 2049 C 192.66 1.50607 -2.60265 0
M  V30 2050 C 194.208 1.62421 -2.6756 0
M  V30 2051 C 194.683 2.16994 -4.03333 0
M  V30 2052 N 196.174 2.24337 -4.0525 0
M  V30 2053 C 196.909 2.67621 -5.07116 0
M  V30 2054 N 196.405 3.1041 -6.19368 0
M  V30 2055 N 198.198 2.67305 -4.94474 0
M  V30 2056 H 190.349 0.00973908 -2.12398 0
M  V30 2057 H 192.612 0.0668593 -0.945639 0
M  V30 2058 H 192.318 0.834583 -3.41654 0
M  V30 2059 H 192.192 2.48602 -2.83684 0
M  V30 2060 H 194.579 2.28678 -1.86521 0
M  V30 2061 H 194.66 0.629352 -2.47937 0
M  V30 2062 H 194.304 1.51349 -4.84826 0
M  V30 2063 H 194.234 3.17258 -4.20304 0
M  V30 2064 H 196.725 1.94158 -3.24209 0
M  V30 2065 H 197.038 3.42103 -6.92954 0
M  V30 2066 H 195.383 3.08286 -6.22884 0
M  V30 2067 H 198.574 2.33233 -4.05857 0
M  V30 2068 H 198.747 3.00718 -5.73997 0
M  V30 2069 N 192.153 1.28127 0.917671 0
M  V30 2070 C 193.063 1.13556 2.05286 0
M  V30 2071 C 194.079 0.0630914 1.73886 0
M  V30 2072 O 195.255 0.271598 1.9956 0
M  V30 2073 C 192.32 0.794676 3.3747 0
M  V30 2074 C 191.381 1.94909 3.82504 0
M  V30 2075 C 190.614 1.62437 5.0838 0
M  V30 2076 O 190.837 0.536905 5.67867 0
M  V30 2077 O 189.771 2.46677 5.4903 0
M  V30 2078 H 193.597 2.08844 2.20495 0
M  V30 2079 H 191.182 1.07409 1.03845 0
M  V30 2080 H 193.064 0.618344 4.16839 0
M  V30 2081 H 191.739 -0.128581 3.23445 0
M  V30 2082 H 190.646 2.18055 3.03978 0
M  V30 2083 H 191.979 2.85291 4.01086 0
M  V30 2084 N 193.631 -1.12557 1.10312 0
M  V30 2085 C 194.859 -1.87864 0.866873 0
M  V30 2086 C 195.274 -1.79588 -0.582557 0
M  V30 2087 O 194.631 -1.16887 -1.40156 0
M  V30 2088 C 194.682 -3.37125 1.30496 0
M  V30 2089 O 194.403 -3.45201 2.69755 0
M  V30 2090 C 195.904 -4.29373 1.10243 0
M  V30 2091 H 193.124 -0.594452 0.311236 0
M  V30 2092 H 195.668 -1.42429 1.46745 0
M  V30 2093 H 193.823 -3.80109 0.748081 0
M  V30 2094 H 194.237 -4.38056 2.88457 0
M  V30 2095 H 195.711 -5.32394 1.45811 0
M  V30 2096 H 196.188 -4.39181 0.0409492 0
M  V30 2097 H 196.794 -3.92169 1.64571 0
M  V30 2098 N 195.109 -0.891671 -1.2995 0
M  V30 2099 C 196.057 -0.353066 -2.29905 0
M  V30 2100 C 197.051 0.543509 -1.60444 0
M  V30 2101 O 198.257 0.4272 -1.74857 0
M  V30 2102 H 194.632 -0.095531 -0.745907 0
M  V30 2103 H 196.603 -1.20961 -2.72784 0
M  V30 2104 C 195.352 0.411475 -3.45257 0
M  V30 2105 H 194.675 -0.269182 -3.98893 0
M  V30 2106 H 196.115 0.753328 -4.17254 0
M  V30 2107 C 194.574 1.6111 -2.9588 0
M  V30 2108 O 195.104 2.71045 -2.96475 0
M  V30 2109 N 193.31 1.45054 -2.51809 0
M  V30 2110 H 192.857 0.556175 -2.51524 0
M  V30 2111 H 192.815 2.25453 -2.1913 0
M  V30 2112 N 196.587 1.43421 -0.653314 0
M  V30 2113 C 197.817 2.05864 -0.174238 0
M  V30 2114 C 198.225 1.49052 1.16534 0
M  V30 2115 O 197.568 0.616481 1.73047 0
M  V30 2116 C 197.63 3.59499 -0.00875873 0
M  V30 2117 C 197.294 4.38893 -1.27364 0
M  V30 2118 C 198.291 4.70947 -2.20239 0
M  V30 2119 C 195.976 4.789 -1.51525 0
M  V30 2120 C 197.97 5.41916 -3.35568 0
M  V30 2121 C 195.657 5.49614 -2.67147 0
M  V30 2122 C 196.655 5.81044 -3.58994 0
M  V30 2123 O 196.343 6.50313 -4.72597 0
M  V30 2124 H 196.075 0.670345 -0.0872549 0
M  V30 2125 H 198.629 1.84913 -0.894226 0
M  V30 2126 H 196.859 3.79025 0.7666 0
M  V30 2127 H 198.548 4.0364 0.427687 0
M  V30 2128 H 199.314 4.40558 -2.02815 0
M  V30 2129 H 195.193 4.53843 -0.809158 0
M  V30 2130 H 198.737 5.66365 -4.07279 0
M  V30 2131 H 194.634 5.79419 -2.84505 0
M  V30 2132 H 195.402 6.68795 -4.71864 0
M  V30 2133 N 198.065 0.39524 1.52563 0
M  V30 2134 C 198.975 -0.444232 2.30356 0
M  V30 2135 C 199.991 -1.06615 1.37511 0
M  V30 2136 O 201.167 -1.07067 1.70583 0
M  V30 2137 C 198.232 -1.55315 3.09964 0
M  V30 2138 C 197.293 -0.955734 4.18526 0
M  V30 2139 C 196.526 -2.01181 4.9433 0
M  V30 2140 O 196.749 -3.22781 4.70285 0
M  V30 2141 O 195.683 -1.62579 5.79527 0
M  V30 2142 H 199.509 0.189667 3.03107 0
M  V30 2143 H 197.094 0.1588 1.48554 0
M  V30 2144 H 198.976 -2.19724 3.59582 0
M  V30 2145 H 197.651 -2.17191 2.4002 0
M  V30 2146 H 196.558 -0.274743 3.7309 0
M  V30 2147 H 197.891 -0.381109 4.90722 0
M  V30 2148 N 199.544 -1.57102 0.125237 0
M  V30 2149 C 200.955 -1.82384 -0.399142 0
M  V30 2150 C 201.306 -1.04276 -1.66195 0
M  V30 2151 O 200.431 -0.281269 -2.14564 0
M  V30 2152 C 201.026 -3.30821 -0.730932 0
M  V30 2153 C 199.585 -3.56762 -1.19992 0
M  V30 2154 C 198.732 -2.7649 -0.211792 0
M  V30 2155 H 201.683 -1.54786 0.350277 0
M  V30 2156 H 201.704 -3.4579 -1.58775 0
M  V30 2157 H 201.216 -3.87643 0.188345 0
M  V30 2158 H 199.317 -3.05305 -2.13588 0
M  V30 2159 H 199.43 -4.65317 -1.14093 0
M  V30 2160 H 197.794 -2.4489 -0.700085 0
M  V30 2161 H 198.577 -3.36073 0.700691 0
M  V30 2162 N 201.022 0.148545 -1.56898 0
M  V30 2163 C 201.954 1.20852 -1.9475 0
M  V30 2164 C 202.967 1.39265 -0.843152 0
M  V30 2165 O 204.156 1.38864 -1.12156 0
M  V30 2166 C 201.256 2.57362 -2.20495 0
M  V30 2167 C 200.429 2.59947 -3.51776 0
M  V30 2168 C 199.488 3.77984 -3.6608 0
M  V30 2169 O 198.514 3.62929 -4.38487 0
M  V30 2170 N 199.716 4.95375 -3.02629 0
M  V30 2171 H 202.481 0.886804 -2.86279 0
M  V30 2172 H 200.042 0.338121 -1.5833 0
M  V30 2173 H 202.034 3.34833 -2.27307 0
M  V30 2174 H 200.604 2.81832 -1.35238 0
M  V30 2175 H 199.824 1.68403 -3.56419 0
M  V30 2176 H 201.112 2.58704 -4.38121 0
M  V30 2177 H 200.51 5.10509 -2.43715 0
M  V30 2178 H 199.067 5.70627 -3.15004 0
M  V30 2179 N 202.5 1.5196 0.417844 0
M  V30 2180 C 203.43 1.77634 1.51554 0
M  V30 2181 C 204.411 0.626918 1.58126 0
M  V30 2182 O 205.596 0.871632 1.7354 0
M  V30 2183 C 202.726 1.91911 2.8946 0
M  V30 2184 C 201.68 3.07463 2.97743 0
M  V30 2185 C 201.006 3.06951 4.37819 0
M  V30 2186 C 202.306 4.47082 2.70027 0
M  V30 2187 H 204 2.6955 1.3032 0
M  V30 2188 H 201.546 1.29706 0.625492 0
M  V30 2189 H 203.499 2.08455 3.6623 0
M  V30 2190 H 202.223 0.966598 3.11969 0
M  V30 2191 H 200.882 2.90656 2.23416 0
M  V30 2192 H 200.53 2.09438 4.57323 0
M  V30 2193 H 200.23 3.84556 4.44286 0
M  V30 2194 H 201.754 3.25613 5.16535 0
M  V30 2195 H 203.168 4.6414 3.36522 0
M  V30 2196 H 201.565 5.2654 2.87881 0
M  V30 2197 H 202.635 4.55777 1.65514 0
M  V30 2198 N 203.978 -0.674533 1.42435 0
M  V30 2199 C 205.225 -1.43459 1.42919 0
M  V30 2200 C 205.553 -1.94446 0.0457312 0
M  V30 2201 O 204.808 -1.7132 -0.94593 0
M  V30 2202 C 205.107 -2.64767 2.40069 0
M  V30 2203 C 204.773 -2.3232 3.86443 0
M  V30 2204 C 203.435 -2.23182 4.26314 0
M  V30 2205 C 205.787 -2.05977 4.78773 0
M  V30 2206 C 203.115 -1.85827 5.56494 0
M  V30 2207 C 205.467 -1.70125 6.09295 0
M  V30 2208 C 204.131 -1.59498 6.48164 0
M  V30 2209 H 203.401 -0.524952 0.522978 0
M  V30 2210 H 206.048 -0.769097 1.75377 0
M  V30 2211 H 204.353 -3.36349 2.00939 0
M  V30 2212 H 206.05 -3.22949 2.37707 0
M  V30 2213 H 202.64 -2.40334 3.54877 0
M  V30 2214 H 206.824 -2.11969 4.48757 0
M  V30 2215 H 202.08 -1.76168 5.8547 0
M  V30 2216 H 206.254 -1.48767 6.80324 0
M  V30 2217 H 203.881 -1.30322 7.48946 0
M  V30 2218 N 205.456 -1.28612 -0.910864 0
M  V30 2219 C 206.386 -1.15326 -2.03032 0
M  V30 2220 C 207.367 -0.0502924 -1.70026 0
M  V30 2221 O 208.552 -0.227797 -1.92859 0
M  V30 2222 C 205.682 -0.817343 -3.37545 0
M  V30 2223 C 204.636 -1.8754 -3.84724 0
M  V30 2224 C 203.962 -1.39305 -5.16235 0
M  V30 2225 C 205.262 -3.28244 -4.06267 0
M  V30 2226 H 206.956 -2.08975 -2.14406 0
M  V30 2227 H 204.502 -1.00612 -1.03021 0
M  V30 2228 H 206.455 -0.711151 -4.15356 0
M  V30 2229 H 205.179 0.154846 -3.26233 0
M  V30 2230 H 203.838 -1.97079 -3.09121 0
M  V30 2231 H 203.486 -0.409846 -5.01328 0
M  V30 2232 H 203.186 -2.10057 -5.48771 0
M  V30 2233 H 204.71 -1.30014 -5.96598 0
M  V30 2234 H 206.124 -3.21611 -4.74594 0
M  V30 2235 H 204.521 -3.96855 -4.5014 0
M  V30 2236 H 205.591 -3.72048 -3.10979 0
M  V30 2237 N 206.934 1.1197 -1.10907 0
M  V30 2238 C 208.182 1.83225 -0.852819 0
M  V30 2239 C 208.503 1.84769 0.623341 0
M  V30 2240 O 207.773 1.3143 1.45269 0
M  V30 2241 H 206.353 0.67849 -0.312507 0
M  V30 2242 H 209.015 1.3556 -1.40033 0
M  V30 2243 H 208.111 2.87265 -1.22005 0
M  V30 2244 N 208.412 0.89855 1.29475 0
M  V30 2245 C 209.659 0.523882 1.95606 0
M  V30 2246 C 209.987 -0.929608 1.70847 0
M  V30 2247 O 209.242 -1.67401 1.01367 0
M  V30 2248 C 209.541 0.761398 3.49195 0
M  V30 2249 C 209.207 2.19207 3.94029 0
M  V30 2250 C 207.869 2.58326 4.05982 0
M  V30 2251 C 210.221 3.12379 4.17216 0
M  V30 2252 C 207.549 3.898 4.38489 0
M  V30 2253 C 209.901 4.43401 4.51197 0
M  V30 2254 C 208.565 4.82394 4.61359 0
M  V30 2255 H 207.835 0.191702 0.715773 0
M  V30 2256 H 210.482 1.13699 1.54094 0
M  V30 2257 H 208.787 0.0653622 3.91745 0
M  V30 2258 H 210.484 0.450904 3.98457 0
M  V30 2259 H 207.074 1.87846 3.85242 0
M  V30 2260 H 211.258 2.83371 4.07449 0
M  V30 2261 H 206.514 4.19734 4.44559 0
M  V30 2262 H 210.688 5.15623 4.68087 0
M  V30 2263 H 208.315 5.84306 4.86303 0
M  V30 2264 N 209.89 -1.43072 0.660911 0
M  V30 2265 C 210.853 -2.29194 -0.0166406 0
M  V30 2266 C 211.853 -1.42609 -0.742912 0
M  V30 2267 O 213.043 -1.64155 -0.583004 0
M  V30 2268 C 210.175 -3.24831 -1.0343 0
M  V30 2269 H 211.368 -2.90596 0.741208 0
M  V30 2270 H 208.921 -1.5048 0.422532 0
M  V30 2271 H 209.656 -2.68339 -1.82111 0
M  V30 2272 H 209.441 -3.88676 -0.517082 0
M  V30 2273 H 210.931 -3.89451 -1.50723 0
M  V30 2274 N 211.368 -0.403325 -1.52352 0
M  V30 2275 C 212.596 0.174012 -2.06167 0
M  V30 2276 C 213.011 1.39347 -1.27388 0
M  V30 2277 O 212.368 1.79597 -0.324201 0
M  V30 2278 C 212.419 0.530223 -3.5759 0
M  V30 2279 O 212.14 -0.640806 -4.33388 0
M  V30 2280 C 213.641 1.16192 -4.27802 0
M  V30 2281 H 210.861 0.0229464 -0.670608 0
M  V30 2282 H 213.405 -0.572604 -1.9632 0
M  V30 2283 H 211.56 1.22673 -3.67464 0
M  V30 2284 H 211.974 -0.344851 -5.23365 0
M  V30 2285 H 213.448 1.36141 -5.34948 0
M  V30 2286 H 213.925 2.13335 -3.83907 0
M  V30 2287 H 214.531 0.505775 -4.22282 0
M  V30 2288 N 212.846 1.57033 -0.133567 0
M  V30 2289 C 214.123 1.87256 0.56522 0
M  V30 2290 C 214.503 1.03726 1.83859 0
M  V30 2291 O 213.851 0.120247 2.28183 0
M  V30 2292 C 214.061 3.3865 0.843636 0
M  V30 2293 C 215.409 4.07574 1.19032 0
M  V30 2294 O 216.433 3.43752 0.933429 0
M  V30 2295 O 215.292 5.20259 1.67312 0
M  V30 2296 H 212.386 0.775678 0.286796 0
M  V30 2297 H 214.932 1.68855 -0.169168 0
M  V30 2298 H 213.704 3.91257 -0.0581149 0
M  V30 2299 H 213.327 3.62532 1.63268 0
M  V30 2300 N 214.325 -0.140222 1.56975 0
M  V30 2301 C 215.555 -0.865181 1.87612 0
M  V30 2302 C 215.963 -1.74942 0.72055 0
M  V30 2303 O 215.306 -1.80917 -0.318561 0
M  V30 2304 C 215.368 -1.76782 3.13031 0
M  V30 2305 C 215.032 -1.06005 4.44536 0
M  V30 2306 C 216.029 -0.410768 5.18275 0
M  V30 2307 C 213.714 -1.04754 4.91255 0
M  V30 2308 C 215.708 0.241572 6.36942 0
M  V30 2309 C 213.395 -0.391394 6.09845 0
M  V30 2310 C 214.393 0.252029 6.82535 0
M  V30 2311 O 214.081 0.897757 7.98871 0
M  V30 2312 H 213.813 -0.255188 0.625983 0
M  V30 2313 H 216.367 -0.135653 2.04952 0
M  V30 2314 H 214.597 -2.53846 2.91718 0
M  V30 2315 H 216.286 -2.36533 3.29859 0
M  V30 2316 H 217.052 -0.412195 4.83245 0
M  V30 2317 H 212.931 -1.53777 4.34596 0
M  V30 2318 H 216.475 0.744375 6.93617 0
M  V30 2319 H 212.372 -0.387656 6.44335 0
M  V30 2320 H 213.14 0.800102 8.1458 0
M  V30 2321 N 215.803 -1.52179 -0.40978 0
M  V30 2322 C 217.219 -1.40968 -0.74835 0
M  V30 2323 C 217.419 -0.513657 -1.94843 0
M  V30 2324 O 216.475 0.0208026 -2.52491 0
M  V30 2325 C 217.788 -2.83483 -1.0029 0
M  V30 2326 C 219.336 -2.92821 -1.10565 0
M  V30 2327 C 219.811 -4.36303 -1.39296 0
M  V30 2328 N 221.302 -4.39535 -1.46162 0
M  V30 2329 C 222.037 -5.47614 -1.70018 0
M  V30 2330 N 221.533 -6.65812 -1.91483 0
M  V30 2331 N 223.326 -5.35129 -1.72027 0
M  V30 2332 H 215.477 -2.0897 0.380186 0
M  V30 2333 H 217.74 -0.94185 0.107805 0
M  V30 2334 H 217.446 -3.51168 -0.193461 0
M  V30 2335 H 217.32 -3.24487 -1.92323 0
M  V30 2336 H 219.707 -2.25318 -1.90568 0
M  V30 2337 H 219.788 -2.55276 -0.16369 0
M  V30 2338 H 219.432 -5.04366 -0.598109 0
M  V30 2339 H 219.362 -4.71385 -2.34743 0
M  V30 2340 H 221.853 -3.54332 -1.31367 0
M  V30 2341 H 222.166 -7.43964 -2.09134 0
M  V30 2342 H 220.511 -6.68879 -1.88749 0
M  V30 2343 H 223.702 -4.41764 -1.54796 0
M  V30 2344 H 223.875 -6.19433 -1.9028 0
M  V30 2345 N 217.281 0.66697 -1.42791 0
M  V30 2346 C 218.528 1.42699 -1.43678 0
M  V30 2347 C 218.856 1.94419 -0.0560425 0
M  V30 2348 O 218.111 1.7182 0.936831 0
M  V30 2349 C 218.41 2.6349 -2.4147 0
M  V30 2350 C 218.076 2.30267 -3.8767 0
M  V30 2351 C 216.738 2.20918 -4.27491 0
M  V30 2352 C 219.09 2.03435 -4.79858 0
M  V30 2353 C 216.418 1.82873 -5.57471 0
M  V30 2354 C 218.77 1.66892 -6.10188 0
M  V30 2355 C 217.434 1.56058 -6.49001 0
M  V30 2356 H 216.704 0.522171 -0.525755 0
M  V30 2357 H 219.351 0.759785 -1.75783 0
M  V30 2358 H 217.656 3.35279 -2.0272 0
M  V30 2359 H 219.353 3.21684 -2.39417 0
M  V30 2360 H 215.943 2.38449 -3.56146 0
M  V30 2361 H 220.127 2.09586 -4.49875 0
M  V30 2362 H 215.383 1.7306 -5.86396 0
M  V30 2363 H 219.557 1.45157 -6.81104 0
M  V30 2364 H 217.184 1.26348 -7.49627 0
M  V30 2365 N 218.759 1.29093 0.90403 0
M  V30 2366 C 219.722 1.1386 1.98919 0
M  V30 2367 C 220.722 0.0753457 1.60623 0
M  V30 2368 O 221.912 0.321931 1.71199 0
M  V30 2369 C 219.044 0.740198 3.32767 0
M  V30 2370 H 220.237 2.10246 2.13861 0
M  V30 2371 H 217.79 1.12218 1.08797 0
M  V30 2372 H 218.525 -0.223997 3.23525 0
M  V30 2373 H 218.31 1.50838 3.61926 0
M  V30 2374 H 219.8 0.656546 4.12407 0
M  V30 2375 N 220.237 -1.11381 1.11499 0
M  V30 2376 C 221.485 -1.8277 0.862524 0
M  V30 2377 C 221.806 -1.85097 -0.613534 0
M  V30 2378 O 221.076 -1.32198 -1.4457 0
M  V30 2379 H 219.656 -0.676823 0.316101 0
M  V30 2380 H 222.318 -1.34816 1.4075 0
M  V30 2381 H 221.414 -2.86614 1.23527 0
M  V30 2382 N 221.715 -0.905404 -1.28997 0
M  V30 2383 C 222.961 -0.544465 -1.95977 0
M  V30 2384 C 223.316 0.90041 -1.70031 0
M  V30 2385 O 222.609 1.63064 -1.00601 0
M  V30 2386 C 222.803 -0.779906 -3.48787 0
M  V30 2387 C 222.632 -2.24612 -3.89589 0
M  V30 2388 C 221.402 -2.89464 -4.14172 0
M  V30 2389 C 223.6 -3.22182 -4.00878 0
M  V30 2390 N 221.582 -4.26469 -4.41585 0
M  V30 2391 C 222.953 -4.44323 -4.32409 0
M  V30 2392 C 225.008 -3.17694 -3.83373 0
M  V30 2393 C 223.711 -5.62546 -4.48258 0
M  V30 2394 C 225.737 -4.35208 -4.00435 0
M  V30 2395 C 225.099 -5.56121 -4.3233 0
M  V30 2396 H 221.198 -0.248948 -0.741316 0
M  V30 2397 H 223.782 -1.1674 -1.5582 0
M  V30 2398 H 221.953 -0.186308 -3.87953 0
M  V30 2399 H 223.685 -0.383833 -4.02876 0
M  V30 2400 H 220.44 -2.40232 -4.08149 0
M  V30 2401 H 220.864 -4.97283 -4.5939 0
M  V30 2402 H 225.506 -2.25297 -3.57773 0
M  V30 2403 H 223.224 -6.55429 -4.72692 0
M  V30 2404 H 226.81 -4.33228 -3.88336 0
M  V30 2405 H 225.69 -6.45537 -4.45255 0
M  V30 2406 N 223.193 1.4272 -0.668489 0
M  V30 2407 C 224.421 2.05966 -0.196348 0
M  V30 2408 C 224.836 1.50191 1.14403 0
M  V30 2409 O 224.193 0.639208 1.7094 0
M  V30 2410 C 224.244 3.61314 -0.115815 0
M  V30 2411 O 223.965 4.1502 -1.40322 0
M  V30 2412 C 225.466 4.41663 0.380579 0
M  V30 2413 H 222.686 0.663954 -0.0969829 0
M  V30 2414 H 225.23 1.82966 -0.913446 0
M  V30 2415 H 223.385 3.83448 0.551931 0
M  V30 2416 H 223.799 5.08832 -1.27243 0
M  V30 2417 H 225.273 5.5065 0.385848 0
M  V30 2418 H 225.75 4.15792 1.41471 0
M  V30 2419 H 226.356 4.24534 -0.255209 0
M  V30 2420 N 224.671 0.411399 1.52136 0
M  V30 2421 C 225.601 -0.404015 2.29978 0
M  V30 2422 C 226.582 -1.04412 1.34284 0
M  V30 2423 O 227.767 -1.0527 1.63192 0
M  V30 2424 C 224.897 -1.5197 3.12286 0
M  V30 2425 C 223.851 -1.00448 4.16046 0
M  V30 2426 C 223.177 -2.21393 4.86712 0
M  V30 2427 C 224.477 -0.0569336 5.22269 0
M  V30 2428 H 226.171 0.245529 2.98392 0
M  V30 2429 H 223.717 0.119525 1.43503 0
M  V30 2430 H 225.67 -2.09715 3.6551 0
M  V30 2431 H 224.394 -2.19716 2.41646 0
M  V30 2432 H 223.053 -0.449421 3.63835 0
M  V30 2433 H 222.701 -2.87699 4.12599 0
M  V30 2434 H 222.401 -1.87571 5.56858 0
M  V30 2435 H 223.925 -2.7974 5.4275 0
M  V30 2436 H 225.339 -0.54325 5.7072 0
M  V30 2437 H 223.736 0.192594 5.99791 0
M  V30 2438 H 224.806 0.887663 4.76706 0
M  V30 2439 N 226.149 -1.5696 0.141893 0
M  V30 2440 C 227.565 -1.58151 -0.21456 0
M  V30 2441 C 227.765 -1.1559 -1.65049 0
M  V30 2442 O 226.821 -0.853832 -2.37626 0
M  V30 2443 C 228.134 -3.00674 0.0395576 0
M  V30 2444 C 229.682 -3.1299 -0.0245529 0
M  V30 2445 C 230.157 -4.57554 0.202167 0
M  V30 2446 N 231.648 -4.62961 0.148919 0
M  V30 2447 C 232.383 -5.7262 0.298924 0
M  V30 2448 N 231.879 -6.90947 0.50637 0
M  V30 2449 N 233.672 -5.61601 0.236886 0
M  V30 2450 H 225.823 -1.8292 1.07953 0
M  V30 2451 H 228.086 -0.846425 0.42693 0
M  V30 2452 H 227.792 -3.36183 1.03315 0
M  V30 2453 H 227.666 -3.70981 -0.682143 0
M  V30 2454 H 230.053 -2.77326 -1.00869 0
M  V30 2455 H 230.134 -2.4518 0.729396 0
M  V30 2456 H 229.778 -4.93922 1.18338 0
M  V30 2457 H 229.708 -5.23484 -0.572044 0
M  V30 2458 H 232.199 -3.77899 -0.00697015 0
M  V30 2459 H 232.512 -7.7038 0.611076 0
M  V30 2460 H 230.857 -6.92878 0.542628 0
M  V30 2461 H 234.048 -4.68039 0.0756209 0
M  V30 2462 H 234.221 -6.47015 0.357227 0
M  V30 2463 N 227.627 0.131896 -1.57047 0
M  V30 2464 C 228.904 0.871495 -1.75112 0
M  V30 2465 C 229.284 1.9866 -0.713949 0
M  V30 2466 O 228.632 2.26965 0.264447 0
M  V30 2467 C 228.842 1.40007 -3.19686 0
M  V30 2468 C 230.19 1.85752 -3.81813 0
M  V30 2469 O 231.214 1.49715 -3.23209 0
M  V30 2470 O 230.073 2.5226 -4.84796 0
M  V30 2471 H 227.167 0.412919 -0.716538 0
M  V30 2472 H 229.713 0.116641 -1.69299 0
M  V30 2473 H 228.485 0.599404 -3.86682 0
M  V30 2474 H 228.108 2.218 -3.29986 0
M  V30 2475 N 229.106 1.52395 0.401703 0
M  V30 2476 C 230.352 1.67065 1.14966 0
M  V30 2477 C 230.685 0.403052 1.89971 0
M  V30 2478 O 229.96 -0.598774 1.85054 0
M  V30 2479 C 230.243 2.8975 2.13815 0
M  V30 2480 C 230.096 4.26578 1.42658 0
M  V30 2481 C 231.415 3.07965 3.14397 0
M  V30 2482 H 228.534 0.607968 0.416587 0
M  V30 2483 H 231.176 1.84965 0.434511 0
M  V30 2484 H 229.326 2.74619 2.74803 0
M  V30 2485 H 230.998 4.53451 0.847329 0
M  V30 2486 H 229.241 4.27639 0.72849 0
M  V30 2487 H 229.912 5.08483 2.14823 0
M  V30 2488 H 232.388 3.22043 2.63491 0
M  V30 2489 H 231.264 3.95308 3.80819 0
M  V30 2490 H 231.525 2.21611 3.82545 0
M  V30 2491 N 230.584 -0.659388 1.43143 0
M  V30 2492 C 231.494 -1.80167 1.50256 0
M  V30 2493 C 232.51 -1.69571 0.390106 0
M  V30 2494 O 233.686 -1.90849 0.643319 0
M  V30 2495 C 230.751 -3.16409 1.41725 0
M  V30 2496 C 229.812 -3.38848 2.63591 0
M  V30 2497 C 229.045 -4.68591 2.55458 0
M  V30 2498 O 229.268 -5.47532 1.59891 0
M  V30 2499 O 228.202 -4.92614 3.45854 0
M  V30 2500 H 232.028 -1.77121 2.46702 0
M  V30 2501 H 229.613 -0.817092 1.25076 0
M  V30 2502 H 231.495 -3.9768 1.39387 0
M  V30 2503 H 230.17 -3.20059 0.484118 0
M  V30 2504 H 229.077 -2.57366 2.71502 0
M  V30 2505 H 230.41 -3.4004 3.55856 0
M  V30 2506 N 232.062 -1.29571 -0.897171 0
M  V30 2507 C 232.995 -1.0924 -2.00354 0
M  V30 2508 C 233.973 -0.00354011 -1.626 0
M  V30 2509 O 235.157 -0.15473 -1.87864 0
M  V30 2510 C 232.284 -0.66352 -3.32137 0
M  V30 2511 C 231.33 -1.75146 -3.88878 0
M  V30 2512 S 232.163 -3.35124 -4.17674 0
M  V30 2513 C 233.319 -2.9411 -5.52494 0
M  V30 2514 H 233.552 -2.02907 -2.17292 0
M  V30 2515 H 231.085 -1.13746 -1.04408 0
M  V30 2516 H 233.043 -0.422791 -4.08317 0
M  V30 2517 H 231.704 0.253588 -3.13075 0
M  V30 2518 H 230.897 -1.40337 -4.84068 0
M  V30 2519 H 230.499 -1.94584 -3.19395 0
M  V30 2520 H 232.791 -2.41312 -6.33068 0
M  V30 2521 H 233.734 -3.88161 -5.9223 0
M  V30 2522 H 234.142 -2.32332 -5.14473 0
M  V30 2523 N 233.54 1.10788 -1.12088 0
M  V30 2524 C 234.788 1.8231 -0.872205 0
M  V30 2525 C 235.109 1.85419 0.603709 0
M  V30 2526 O 234.379 1.32963 1.43867 0
M  V30 2527 H 232.959 0.675137 -0.319686 0
M  V30 2528 H 235.621 1.34068 -1.41463 0
M  V30 2529 H 234.717 2.85955 -1.25045 0
M  V30 2530 N 235.018 0.912232 1.28515 0
M  V30 2531 C 236.248 0.559604 1.98877 0
M  V30 2532 C 236.656 -0.863113 1.68366 0
M  V30 2533 O 235.999 -1.58304 0.931969 0
M  V30 2534 C 236.061 0.68703 3.52874 0
M  V30 2535 C 235.725 2.07901 4.06972 0
M  V30 2536 C 236.722 3.05157 4.20922 0
M  V30 2537 C 234.407 2.39178 4.417 0
M  V30 2538 C 236.401 4.31806 4.68852 0
M  V30 2539 C 234.088 3.66068 4.89324 0
M  V30 2540 C 235.086 4.62195 5.02856 0
M  V30 2541 O 234.774 5.86829 5.49442 0
M  V30 2542 H 234.506 0.212191 0.641834 0
M  V30 2543 H 237.06 1.22712 1.64715 0
M  V30 2544 H 235.29 -0.0375486 3.86682 0
M  V30 2545 H 236.979 0.341727 4.04459 0
M  V30 2546 H 237.745 2.82311 3.94367 0
M  V30 2547 H 233.624 1.65109 4.30418 0
M  V30 2548 H 237.168 5.06842 4.79329 0
M  V30 2549 H 233.065 3.88739 5.15318 0
M  V30 2550 H 233.833 5.89597 5.6773 0
M  V30 2551 N 236.496 -1.42363 0.676048 0
M  V30 2552 C 237.444 -2.32596 -0.0131507 0
M  V30 2553 C 238.438 -1.49891 -0.789238 0
M  V30 2554 O 239.644 -1.65955 -0.697061 0
M  V30 2555 H 236.019 -0.751647 -0.0230481 0
M  V30 2556 H 237.99 -2.88421 0.765243 0
M  V30 2557 C 236.739 -3.34479 -0.949702 0
M  V30 2558 H 236.062 -3.98158 -0.361938 0
M  V30 2559 H 237.502 -4.00199 -1.4006 0
M  V30 2560 C 235.961 -2.66838 -2.05667 0
M  V30 2561 O 236.491 -2.50124 -3.14326 0
M  V30 2562 N 234.697 -2.25843 -1.82875 0
M  V30 2563 H 234.244 -2.39637 -0.945085 0
M  V30 2564 H 234.202 -1.80918 -2.5713 0
M  V30 2565 N 237.974 -0.419461 -1.51915 0
M  V30 2566 C 238.924 0.418496 -2.24126 0
M  V30 2567 C 239.908 1.00495 -1.25656 0
M  V30 2568 O 241.1 0.926058 -1.50842 0
M  V30 2569 C 238.229 1.52899 -3.07371 0
M  V30 2570 C 237.315 0.952797 -4.13258 0
M  V30 2571 N 237.706 0.104175 -5.05693 0
M  V30 2572 C 236.004 1.22224 -4.28926 0
M  V30 2573 C 236.705 -0.21752 -5.81293 0
M  V30 2574 N 235.681 0.394293 -5.42168 0
M  V30 2575 H 239.483 -0.236048 -2.92951 0
M  V30 2576 H 236.997 -0.230481 -1.60756 0
M  V30 2577 H 238.994 2.14199 -3.57665 0
M  V30 2578 H 237.654 2.18605 -2.40088 0
M  V30 2579 H 238.665 -0.260924 -5.17242 0
M  V30 2580 H 235.342 1.87812 -3.72871 0
M  V30 2581 H 236.732 -0.906992 -6.6575 0
M  V30 2582 N 239.452 1.56882 -0.150215 0
M  V30 2583 C 240.729 1.87844 0.545327 0
M  V30 2584 C 241.109 1.0567 1.82749 0
M  V30 2585 O 240.457 0.144442 2.28043 0
M  V30 2586 C 240.667 3.39526 0.80767 0
M  V30 2587 C 242.015 4.08814 1.14703 0
M  V30 2588 O 243.039 3.44723 0.896917 0
M  V30 2589 O 241.898 5.22004 1.61784 0
M  V30 2590 H 238.992 0.778677 0.278553 0
M  V30 2591 H 241.538 1.68666 -0.187068 0
M  V30 2592 H 240.31 3.91173 -0.0996096 0
M  V30 2593 H 239.933 3.64243 1.59413 0
M  V30 2594 N 240.93 -0.123565 1.57115 0
M  V30 2595 C 242.155 -0.850398 1.89164 0
M  V30 2596 C 242.58 -1.7286 0.741688 0
M  V30 2597 O 241.938 -1.78665 -0.307958 0
M  V30 2598 C 241.986 -1.66353 3.19936 0
M  V30 2599 O 241.09 -2.77004 3.0552 0
M  V30 2600 H 240.431 -0.235454 0.620852 0
M  V30 2601 H 242.961 -0.107335 2.04318 0
M  V30 2602 H 242.971 -2.05372 3.52543 0
M  V30 2603 H 241.646 -1.01881 4.03228 0
M  V30 2604 H 240.223 -2.41221 2.84371 0
M  V30 2605 N 242.408 -1.52605 -0.393616 0
M  V30 2606 C 243.356 -1.77688 -1.50099 0
M  V30 2607 C 244.35 -0.644615 -1.56656 0
M  V30 2608 O 245.556 -0.826997 -1.59877 0
M  V30 2609 H 241.931 -0.562159 -0.499481 0
M  V30 2610 H 243.902 -2.7043 -1.26135 0
M  V30 2611 C 242.651 -1.95858 -2.87289 0
M  V30 2612 H 241.974 -2.8241 -2.82992 0
M  V30 2613 H 243.414 -2.174 -3.64024 0
M  V30 2614 C 241.873 -0.729848 -3.28899 0
M  V30 2615 O 242.403 0.0949217 -4.01588 0
M  V30 2616 N 240.609 -0.561283 -2.85128 0
M  V30 2617 H 240.156 -1.23357 -2.26143 0
M  V30 2618 H 240.114 0.2595 -3.13327 0
M  V30 2619 N 243.887 0.651787 -1.4349 0
M  V30 2620 C 245.135 1.40888 -1.44897 0
M  V30 2621 C 245.456 1.94856 -0.0749086 0
M  V30 2622 O 244.726 1.74518 0.889956 0
M  V30 2623 H 243.306 0.522887 -0.533478 0
M  V30 2624 H 245.968 0.768609 -1.79104 0
M  V30 2625 H 245.064 2.25052 -2.16236 0
M  V30 2626 N 245.365 1.30045 0.890287 0
M  V30 2627 C 246.781 1.08261 1.17268 0
M  V30 2628 C 246.981 -0.160063 2.00863 0
M  V30 2629 O 246.037 -0.855181 2.37577 0
M  V30 2630 C 247.35 2.34323 1.8845 0
M  V30 2631 C 248.898 2.39735 2.01237 0
M  V30 2632 C 249.373 3.65625 2.7583 0
M  V30 2633 N 250.864 3.66402 2.83379 0
M  V30 2634 C 251.599 4.60498 3.41657 0
M  V30 2635 N 251.095 5.64933 4.01026 0
M  V30 2636 N 252.888 4.48051 3.39421 0
M  V30 2637 H 245.039 2.09777 0.332762 0
M  V30 2638 H 247.302 0.92446 0.209948 0
M  V30 2639 H 247.008 3.2498 1.34465 0
M  V30 2640 H 246.882 2.4256 2.88867 0
M  V30 2641 H 249.269 1.4956 2.54393 0
M  V30 2642 H 249.35 2.35476 0.999232 0
M  V30 2643 H 248.994 4.56156 2.23347 0
M  V30 2644 H 248.924 3.67144 3.77509 0
M  V30 2645 H 251.415 2.90896 2.41222 0
M  V30 2646 H 251.728 6.32841 4.43545 0
M  V30 2647 H 250.073 5.68732 3.99461 0
M  V30 2648 H 253.264 3.65649 2.92264 0
M  V30 2649 H 253.437 5.21565 3.84544 0
M  V30 2650 N 246.843 -1.10192 1.12674 0
M  V30 2651 C 248.068 -1.86523 0.906853 0
M  V30 2652 C 248.493 -1.80221 -0.538711 0
M  V30 2653 O 247.851 -1.17396 -1.38158 0
M  V30 2654 C 247.899 -3.32758 1.3894 0
M  V30 2655 O 247.003 -4.08449 0.5695 0
M  V30 2656 H 246.344 -0.578678 0.325619 0
M  V30 2657 H 248.874 -1.39203 1.49946 0
M  V30 2658 H 248.884 -3.83608 1.38958 0
M  V30 2659 H 247.559 -3.36661 2.44197 0
M  V30 2660 H 246.136 -3.67427 0.636528 0
M  V30 2661 N 248.321 -0.919034 -1.28029 0
M  V30 2662 C 249.598 -0.473668 -1.89778 0
M  V30 2663 C 249.978 1.04783 -1.83259 0
M  V30 2664 O 249.326 1.8982 -1.27202 0
M  V30 2665 C 249.536 -1.00998 -3.34066 0
M  V30 2666 C 250.884 -1.06525 -4.1102 0
M  V30 2667 O 251.908 -0.958996 -3.43048 0
M  V30 2668 O 250.767 -1.22776 -5.3253 0
M  V30 2669 H 247.861 -0.15098 -0.813101 0
M  V30 2670 H 250.407 -1.01016 -1.36359 0
M  V30 2671 H 249.179 -2.05392 -3.33061 0
M  V30 2672 H 248.802 -0.454626 -3.94992 0
M  V30 2673 N 249.799 1.42003 -0.683588 0
M  V30 2674 C 251.21 1.84501 -0.285736 0
M  V30 2675 C 251.561 1.57213 1.17382 0
M  V30 2676 O 250.686 1.03642 1.89966 0
M  V30 2677 C 251.281 3.34912 -0.511821 0
M  V30 2678 C 249.84 3.76025 -0.168005 0
M  V30 2679 C 248.987 2.6551 -0.799983 0
M  V30 2680 H 251.938 1.31724 -0.885119 0
M  V30 2681 H 251.959 3.79784 0.233292 0
M  V30 2682 H 251.471 3.54741 -1.57418 0
M  V30 2683 H 249.572 3.61801 0.890567 0
M  V30 2684 H 249.685 4.75141 -0.614661 0
M  V30 2685 H 248.049 2.53654 -0.230568 0
M  V30 2686 H 248.832 2.8816 -1.86597 0
M  V30 2687 N 251.277 0.427512 1.51691 0
M  V30 2688 C 252.505 -0.141191 2.06418 0
M  V30 2689 C 252.92 -1.37303 1.29589 0
M  V30 2690 O 252.277 -1.79059 0.352732 0
M  V30 2691 C 252.328 -0.473266 3.58389 0
M  V30 2692 O 252.049 0.709673 4.32314 0
M  V30 2693 C 253.55 -1.09371 4.29596 0
M  V30 2694 H 250.77 -0.0122747 0.670888 0
M  V30 2695 H 253.314 0.603764 1.95384 0
M  V30 2696 H 251.469 -1.16812 3.69369 0
M  V30 2697 H 251.883 0.42807 5.2275 0
M  V30 2698 H 253.357 -1.27613 5.37046 0
M  V30 2699 H 253.834 -2.072 3.87253 0
M  V30 2700 H 254.44 -0.43853 4.23033 0
M  V30 2701 N 252.755 -1.56801 0.158532 0
M  V30 2702 C 253.98 -2.01295 -0.499516 0
M  V30 2703 C 254.405 -1.03799 -1.56867 0
M  V30 2704 O 253.763 -0.0155162 -1.81293 0
M  V30 2705 C 253.811 -3.44469 -1.06647 0
M  V30 2706 O 252.915 -3.50012 -2.18095 0
M  V30 2707 H 252.256 -0.652884 -0.12099 0
M  V30 2708 H 254.786 -2.02958 0.258661 0
M  V30 2709 H 254.796 -3.8351 -1.39227 0
M  V30 2710 H 253.471 -4.14932 -0.283581 0
M  V30 2711 H 252.048 -3.22822 -1.86656 0
M  V30 2712 N 254.233 0.115231 -1.57178 0
M  V30 2713 C 255.649 0.468877 -1.52557 0
M  V30 2714 C 255.849 1.81649 -0.872125 0
M  V30 2715 O 254.905 2.48347 -0.45606 0
M  V30 2716 C 256.218 0.4499 -2.97315 0
M  V30 2717 C 257.766 0.533185 -3.08425 0
M  V30 2718 C 258.241 0.54456 -4.54751 0
M  V30 2719 N 259.732 0.605892 -4.5922 0
M  V30 2720 C 260.467 0.636203 -5.6986 0
M  V30 2721 N 259.963 0.623931 -6.89985 0
M  V30 2722 N 261.756 0.679496 -5.57978 0
M  V30 2723 H 253.907 -0.767712 -1.9804 0
M  V30 2724 H 256.17 -0.283609 -0.904583 0
M  V30 2725 H 255.876 -0.472721 -3.48509 0
M  V30 2726 H 255.75 1.27632 -3.5495 0
M  V30 2727 H 258.137 1.44623 -2.57232 0
M  V30 2728 H 258.218 -0.320995 -2.53778 0
M  V30 2729 H 257.862 -0.364452 -5.06591 0
M  V30 2730 H 257.792 1.41568 -5.07214 0
M  V30 2731 H 260.283 0.621386 -3.72756 0
M  V30 2732 H 260.596 0.649787 -7.70063 0
M  V30 2733 H 258.941 0.591296 -6.9248 0
M  V30 2734 H 262.132 0.686472 -4.63039 0
M  V30 2735 H 262.305 0.69965 -6.44212 0
M  V30 2736 N 255.711 1.52812 0.385517 0
M  V30 2737 C 256.936 1.72207 1.15583 0
M  V30 2738 C 257.361 0.441034 1.82857 0
M  V30 2739 O 256.719 -0.603465 1.70962 0
M  V30 2740 C 256.767 2.87476 2.17692 0
M  V30 2741 O 255.871 2.54693 3.24354 0
M  V30 2742 H 255.212 0.572526 0.336319 0
M  V30 2743 H 257.742 1.99618 0.448744 0
M  V30 2744 H 257.752 3.13072 2.6163 0
M  V30 2745 H 256.427 3.80408 1.68115 0
M  V30 2746 H 255.004 2.3985 2.85529 0
M  V30 2747 N 257.189 -0.644168 1.43834 0
M  V30 2748 C 258.435 -1.40431 1.47141 0
M  V30 2749 C 258.79 -1.92153 0.0975577 0
M  V30 2750 O 258.083 -1.69924 -0.885232 0
M  V30 2751 C 258.277 -2.59615 2.45631 0
M  V30 2752 C 258.106 -2.1956 3.92458 0
M  V30 2753 C 256.876 -2.07456 4.60749 0
M  V30 2754 C 259.074 -1.79281 4.8204 0
M  V30 2755 N 257.056 -1.60827 5.92459 0
M  V30 2756 C 258.427 -1.43801 6.03093 0
M  V30 2757 C 260.482 -1.66545 4.6922 0
M  V30 2758 C 259.185 -0.968599 7.12749 0
M  V30 2759 C 261.211 -1.21008 5.78888 0
M  V30 2760 C 260.573 -0.864711 6.99072 0
M  V30 2761 H 256.672 -0.509182 0.593513 0
M  V30 2762 H 259.256 -0.740351 1.80075 0
M  V30 2763 H 257.427 -3.23658 2.1471 0
M  V30 2764 H 259.159 -3.26357 2.39318 0
M  V30 2765 H 255.914 -2.275 4.1538 0
M  V30 2766 H 256.338 -1.39848 6.62398 0
M  V30 2767 H 260.98 -1.91883 3.7675 0
M  V30 2768 H 258.698 -0.702715 8.05039 0
M  V30 2769 H 262.284 -1.11631 5.7099 0
M  V30 2770 H 261.164 -0.517736 7.82489 0
M  V30 2771 N 258.668 -1.30515 -0.883378 0
M  V30 2772 C 259.616 -1.16941 -2.01066 0
M  V30 2773 C 260.61 -0.0809148 -1.69207 0
M  V30 2774 O 261.816 -0.241877 -1.78367 0
M  V30 2775 H 258.191 -0.361705 -0.659298 0
M  V30 2776 H 260.162 -2.12344 -2.09649 0
M  V30 2777 C 258.911 -0.879694 -3.36388 0
M  V30 2778 H 258.234 -1.70936 -3.61415 0
M  V30 2779 H 259.674 -0.82483 -4.159 0
M  V30 2780 C 258.133 0.417409 -3.34304 0
M  V30 2781 O 258.663 1.43843 -3.75063 0
M  V30 2782 N 256.869 0.429141 -2.87414 0
M  V30 2783 H 256.416 -0.402222 -2.5444 0
M  V30 2784 H 256.374 1.29696 -2.86403 0
M  V30 2785 N 260.146 1.09593 -1.13257 0
M  V30 2786 C 261.562 1.33775 -0.870423 0
M  V30 2787 C 261.762 1.95327 0.494926 0
M  V30 2788 O 260.818 2.19853 1.2418 0
M  V30 2789 C 262.131 2.25106 -1.99369 0
M  V30 2790 C 263.679 2.3862 -2.02558 0
M  V30 2791 C 264.154 3.33285 -3.14142 0
M  V30 2792 N 265.645 3.40857 -3.13641 0
M  V30 2793 C 266.38 4.14101 -3.96621 0
M  V30 2794 N 265.876 4.90157 -4.8961 0
M  V30 2795 N 267.669 4.09808 -3.84726 0
M  V30 2796 H 259.82 0.680136 -2.01216 0
M  V30 2797 H 262.083 0.362133 -0.876107 0
M  V30 2798 H 261.789 1.87103 -2.97801 0
M  V30 2799 H 261.663 3.25481 -1.90635 0
M  V30 2800 H 264.05 2.75887 -1.0474 0
M  V30 2801 H 264.131 1.38028 -2.15364 0
M  V30 2802 H 263.775 2.96741 -4.12198 0
M  V30 2803 H 263.705 4.33776 -2.98574 0
M  V30 2804 H 266.196 2.86624 -2.46282 0
M  V30 2805 H 266.509 5.4347 -5.49418 0
M  V30 2806 H 264.854 4.89251 -4.93617 0
M  V30 2807 H 268.045 3.4949 -3.11408 0
M  V30 2808 H 268.218 4.66629 -4.49623 0
M  V30 2809 N 261.624 0.925811 1.2754 0
M  V30 2810 C 262.554 0.440748 2.29303 0
M  V30 2811 C 263.535 -0.497971 1.62648 0
M  V30 2812 O 264.72 -0.403126 1.8997 0
M  V30 2813 C 261.85 -0.309048 3.45922 0
M  V30 2814 C 260.804 0.54166 4.24559 0
M  V30 2815 C 260.13 -0.337191 5.33636 0
M  V30 2816 C 261.43 1.80516 4.90114 0
M  V30 2817 H 263.124 1.29121 2.70126 0
M  V30 2818 H 260.67 0.622323 1.29858 0
M  V30 2819 H 262.623 -0.659315 4.1621 0
M  V30 2820 H 261.347 -1.19352 3.04011 0
M  V30 2821 H 260.006 0.874609 3.56014 0
M  V30 2822 H 259.654 -1.22056 4.87966 0
M  V30 2823 H 259.354 0.228497 5.87156 0
M  V30 2824 H 260.878 -0.683072 6.06767 0
M  V30 2825 H 262.292 1.52307 5.52698 0
M  V30 2826 H 260.689 2.3142 5.53683 0
M  V30 2827 H 261.759 2.52581 4.13921 0
M  V30 2828 N 263.102 -1.41638 0.69111 0
M  V30 2829 C 264.332 -2.0533 0.228758 0
M  V30 2830 C 264.74 -1.52089 -1.12541 0
M  V30 2831 O 264.083 -0.662145 -1.71351 0
M  V30 2832 C 264.145 -3.59349 0.10407 0
M  V30 2833 C 263.809 -4.35362 1.38956 0
M  V30 2834 C 264.806 -4.64942 2.32648 0
M  V30 2835 C 262.491 -4.74714 1.64169 0
M  V30 2836 C 264.485 -5.32828 3.49818 0
M  V30 2837 C 262.172 -5.42338 2.81625 0
M  V30 2838 C 263.17 -5.71322 3.74273 0
M  V30 2839 O 262.858 -6.37554 4.89673 0
M  V30 2840 H 262.59 -0.667796 0.104997 0
M  V30 2841 H 265.144 -1.82477 0.942938 0
M  V30 2842 H 263.374 -3.80924 -0.665839 0
M  V30 2843 H 265.063 -4.04633 -0.320519 0
M  V30 2844 H 265.829 -4.35025 2.14425 0
M  V30 2845 H 261.708 -4.51538 0.929202 0
M  V30 2846 H 265.252 -5.55368 4.22152 0
M  V30 2847 H 261.149 -5.71673 2.99768 0
M  V30 2848 H 261.917 -6.56049 4.8943 0
M  V30 2849 N 264.58 -0.43555 -1.51462 0
M  V30 2850 C 265.808 0.130242 -2.0649 0
M  V30 2851 C 266.223 1.36614 -1.30315 0
M  V30 2852 O 265.58 1.78869 -0.362223 0
M  V30 2853 C 265.631 0.454253 -3.58635 0
M  V30 2854 O 265.352 -0.73259 -4.31931 0
M  V30 2855 C 266.853 1.07091 -4.3017 0
M  V30 2856 H 264.073 0.00871669 -0.670943 0
M  V30 2857 H 266.617 -0.614117 -1.95061 0
M  V30 2858 H 264.772 1.14851 -3.69984 0
M  V30 2859 H 265.186 -0.455787 -5.22516 0
M  V30 2860 H 266.66 1.24764 -5.37716 0
M  V30 2861 H 267.137 2.05144 -3.88346 0
M  V30 2862 H 267.743 0.416089 -4.2326 0
M  V30 2863 N 266.058 1.56714 -0.166846 0
M  V30 2864 C 267.474 1.58473 0.189372 0
M  V30 2865 C 267.674 1.18201 1.63189 0
M  V30 2866 O 266.73 0.891528 2.36237 0
M  V30 2867 C 268.043 3.00573 -0.0873872 0
M  V30 2868 C 269.591 3.1299 -0.0252443 0
M  V30 2869 C 270.066 4.57174 -0.274934 0
M  V30 2870 N 271.557 4.62665 -0.222553 0
M  V30 2871 C 272.292 5.72072 -0.389985 0
M  V30 2872 N 271.788 6.90054 -0.616229 0
M  V30 2873 N 273.581 5.61153 -0.326202 0
M  V30 2874 H 265.732 1.8118 -1.10849 0
M  V30 2875 H 267.995 0.839525 -0.440342 0
M  V30 2876 H 267.701 3.34497 -1.0865 0
M  V30 2877 H 267.575 3.72019 0.623037 0
M  V30 2878 H 269.962 2.78895 0.96444 0
M  V30 2879 H 270.043 2.43989 -0.768309 0
M  V30 2880 H 269.687 4.91976 -1.26181 0
M  V30 2881 H 269.617 5.24328 0.48869 0
M  V30 2882 H 272.108 3.77863 -0.0531512 0
M  V30 2883 H 272.421 7.69311 -0.733559 0
M  V30 2884 H 270.766 6.91927 -0.652791 0
M  V30 2885 H 273.957 4.67859 -0.150072 0
M  V30 2886 H 274.13 6.46364 -0.460116 0
M  V30 2887 N 267.536 -0.106894 1.57237 0
M  V30 2888 C 268.466 -1.13148 2.04254 0
M  V30 2889 C 269.447 -1.42476 0.929224 0
M  V30 2890 O 270.632 -1.52709 1.19973 0
M  V30 2891 C 267.762 -2.4545 2.45706 0
M  V30 2892 C 266.716 -2.30558 3.60592 0
M  V30 2893 C 266.042 -3.67931 3.87983 0
M  V30 2894 C 267.342 -1.75597 4.91897 0
M  V30 2895 H 269.036 -0.740374 2.90101 0
M  V30 2896 H 266.582 -0.354696 1.39563 0
M  V30 2897 H 268.535 -3.17389 2.77205 0
M  V30 2898 H 267.259 -2.86475 1.56843 0
M  V30 2899 H 265.918 -1.61067 3.29322 0
M  V30 2900 H 265.566 -4.06462 2.96306 0
M  V30 2901 H 265.266 -3.58817 4.65322 0
M  V30 2902 H 266.79 -4.41356 4.21945 0
M  V30 2903 H 268.204 -2.37364 5.21854 0
M  V30 2904 H 266.601 -1.77272 5.73319 0
M  V30 2905 H 267.671 -0.714451 4.79608 0
M  V30 2906 N 269.014 -1.53014 -0.377408 0
M  V30 2907 C 269.947 -1.73382 -1.48371 0
M  V30 2908 C 270.925 -0.581879 -1.51832 0
M  V30 2909 O 272.109 -0.81307 -1.70063 0
M  V30 2910 C 269.236 -1.80192 -2.8679 0
M  V30 2911 C 268.282 -3.02056 -3.01105 0
M  V30 2912 S 269.115 -4.61811 -2.71093 0
M  V30 2913 C 270.271 -4.71453 -4.11683 0
M  V30 2914 H 270.504 -2.66946 -1.30872 0
M  V30 2915 H 268.037 -1.43453 -0.571012 0
M  V30 2916 H 269.995 -1.84802 -3.6655 0
M  V30 2917 H 268.656 -0.877008 -3.01608 0
M  V30 2918 H 267.849 -3.03396 -4.02451 0
M  V30 2919 H 267.451 -2.95498 -2.29253 0
M  V30 2920 H 269.743 -4.50781 -5.0577 0
M  V30 2921 H 270.686 -5.73487 -4.15353 0
M  V30 2922 H 271.094 -4.00189 -3.98132 0
M  V30 2923 N 270.492 0.636531 -1.44174 0
M  V30 2924 C 271.455 1.73063 -1.50273 0
M  V30 2925 C 272.455 1.56113 -0.385397 0
M  V30 2926 O 273.645 1.61707 -0.64781 0
M  V30 2927 C 270.777 3.12096 -1.37145 0
M  V30 2928 H 271.97 1.69031 -2.47727 0
M  V30 2929 H 269.523 0.849706 -1.31186 0
M  V30 2930 H 270.258 3.21728 -0.407636 0
M  V30 2931 H 270.043 3.25805 -2.18159 0
M  V30 2932 H 271.533 3.91846 -1.44382 0
M  V30 2933 N 271.97 1.30982 0.876444 0
M  V30 2934 C 272.88 1.2003 2.01569 0
M  V30 2935 C 273.896 0.11838 1.73597 0
M  V30 2936 O 275.072 0.33495 1.98595 0
M  V30 2937 C 272.137 0.901637 3.34771 0
M  V30 2938 C 271.198 2.06979 3.76109 0
M  V30 2939 C 270.431 1.78529 5.02954 0
M  V30 2940 O 270.654 0.717296 5.65872 0
M  V30 2941 O 269.588 2.64019 5.40905 0
M  V30 2942 H 273.414 2.15753 2.13739 0
M  V30 2943 H 270.999 1.10658 1.00375 0
M  V30 2944 H 272.881 0.750645 4.1466 0
M  V30 2945 H 271.556 -0.0256141 3.2369 0
M  V30 2946 H 270.463 2.27616 2.96887 0
M  V30 2947 H 271.796 2.97907 3.91807 0
M  V30 2948 N 273.449 -1.08991 1.13837 0
M  V30 2949 C 274.397 -2.17841 0.815347 0
M  V30 2950 C 275.391 -1.68164 -0.204233 0
M  V30 2951 O 276.597 -1.79897 -0.0609304 0
M  V30 2952 H 272.972 -0.710654 0.245915 0
M  V30 2953 H 274.943 -2.42315 1.74143 0
M  V30 2954 C 273.692 -3.46381 0.302614 0
M  V30 2955 H 273.015 -3.84979 1.0785 0
M  V30 2956 H 274.455 -4.23844 0.115074 0
M  V30 2957 C 272.914 -3.22556 -0.972591 0
M  V30 2958 O 273.444 -3.45599 -2.04754 0
M  V30 2959 N 271.65 -2.76134 -0.905455 0
M  V30 2960 H 271.197 -2.57582 -0.0305421 0
M  V30 2961 H 271.155 -2.60571 -1.75926 0
M  V30 2962 N 274.927 -0.932562 -1.27047 0
M  V30 2963 C 276.175 -0.574422 -1.93765 0
M  V30 2964 C 276.496 0.887993 -1.73608 0
M  V30 2965 O 275.766 1.62999 -1.08665 0
M  V30 2966 H 274.346 -0.209451 -0.717035 0
M  V30 2967 H 277.008 -1.18601 -1.5466 0
M  V30 2968 H 276.104 -0.784841 -3.02071 0
M  V30 2969 N 276.405 1.4127 -0.698611 0
M  V30 2970 C 277.353 2.32588 -0.023855 0
M  V30 2971 C 278.347 1.51128 0.765292 0
M  V30 2972 O 279.553 1.67043 0.670571 0
M  V30 2973 H 275.928 0.751918 0.0110871 0
M  V30 2974 H 277.899 2.87167 -0.811031 0
M  V30 2975 C 276.648 3.35947 0.896369 0
M  V30 2976 H 275.971 3.98684 0.298548 0
M  V30 2977 H 277.411 4.02376 1.33676 0
M  V30 2978 C 275.87 2.70076 2.01396 0
M  V30 2979 O 276.4 2.55093 3.10307 0
M  V30 2980 N 274.606 2.28724 1.79259 0
M  V30 2981 H 274.153 2.4111 0.906841 0
M  V30 2982 H 274.111 1.84986 2.54219 0
M  V30 2983 N 277.883 0.443576 1.51229 0
M  V30 2984 C 279.129 -0.11321 2.03085 0
M  V30 2985 C 279.484 -1.39841 1.32145 0
M  V30 2986 O 278.777 -1.86723 0.429542 0
M  V30 2987 C 278.971 -0.380579 3.55368 0
M  V30 2988 C 278.8 0.877157 4.41062 0
M  V30 2989 C 277.57 1.4125 4.85156 0
M  V30 2990 C 279.768 1.76503 4.83064 0
M  V30 2991 N 277.75 2.62213 5.55083 0
M  V30 2992 C 279.121 2.82067 5.52122 0
M  V30 2993 C 281.176 1.7787 4.65045 0
M  V30 2994 C 279.879 3.88952 6.05069 0
M  V30 2995 C 281.905 2.83694 5.18914 0
M  V30 2996 C 281.267 3.87978 5.87922 0
M  V30 2997 H 277.366 -0.00210178 0.781997 0
M  V30 2998 H 279.95 0.605641 1.85041 0
M  V30 2999 H 278.121 -1.06847 3.73414 0
M  V30 3000 H 279.853 -0.929274 3.93887 0
M  V30 3001 H 276.608 0.965542 4.63653 0
M  V30 3002 H 277.032 3.23568 5.9467 0
M  V30 3003 H 281.674 0.985744 4.11148 0
M  V30 3004 H 279.392 4.69082 6.58018 0
M  V30 3005 H 282.978 2.85702 5.06819 0
M  V30 3006 H 281.858 4.68517 6.28857 0
M  V30 3007 N 279.361 -1.56624 0.175154 0
M  V30 3008 C 280.291 -2.21155 -0.749195 0
M  V30 3009 C 281.272 -1.16836 -1.23626 0
M  V30 3010 O 282.457 -1.45277 -1.28873 0
M  V30 3011 C 279.587 -2.8553 -1.97711 0
M  V30 3012 C 278.541 -3.95921 -1.62575 0
M  V30 3013 C 277.867 -4.47365 -2.92864 0
M  V30 3014 C 279.167 -5.15323 -0.850838 0
M  V30 3015 H 280.861 -2.98653 -0.211295 0
M  V30 3016 H 278.407 -1.43651 -0.100188 0
M  V30 3017 H 280.36 -3.2935 -2.62881 0
M  V30 3018 H 279.084 -2.05406 -2.53921 0
M  V30 3019 H 277.743 -3.52762 -0.997719 0
M  V30 3020 H 277.391 -3.64027 -3.47122 0
M  V30 3021 H 277.091 -5.21839 -2.70106 0
M  V30 3022 H 278.615 -4.93873 -3.59056 0
M  V30 3023 H 280.029 -5.55812 -1.40521 0
M  V30 3024 H 278.426 -5.95739 -0.722154 0
M  V30 3025 H 279.496 -4.84661 0.152082 0
M  V30 3026 N 280.839 0.0985539 -1.57292 0
M  V30 3027 C 282.085 0.803867 -1.86188 0
M  V30 3028 C 282.418 1.78549 -0.763794 0
M  V30 3029 O 281.693 1.93153 0.22855 0
M  V30 3030 C 281.976 1.53568 -3.25713 0
M  V30 3031 C 281.829 0.572277 -4.46145 0
M  V30 3032 C 283.148 2.48708 -3.63087 0
M  V30 3033 H 280.267 0.290781 -0.677211 0
M  V30 3034 H 282.909 0.0675783 -1.8988 0
M  V30 3035 H 281.059 2.16332 -3.22696 0
M  V30 3036 H 282.731 -0.0480894 -4.61275 0
M  V30 3037 H 280.974 -0.114618 -4.33649 0
M  V30 3038 H 281.645 1.12139 -5.40489 0
M  V30 3039 H 284.121 1.96039 -3.67026 0
M  V30 3040 H 282.997 2.96932 -4.61652 0
M  V30 3041 H 283.258 3.32309 -2.91588 0
M  V30 3042 N 282.317 1.53212 0.369288 0
M  V30 3043 C 283.227 1.82342 1.47609 0
M  V30 3044 C 284.243 0.711532 1.58787 0
M  V30 3045 O 285.419 1.0012 1.74751 0
M  V30 3046 C 282.484 2.00393 2.8292 0
M  V30 3047 C 281.545 3.24297 2.81301 0
M  V30 3048 C 280.778 3.41478 4.10157 0
M  V30 3049 O 281.001 2.63033 5.06132 0
M  V30 3050 O 279.935 4.34817 4.16194 0
M  V30 3051 H 283.761 2.76366 1.25918 0
M  V30 3052 H 281.346 1.38547 0.559034 0
M  V30 3053 H 283.228 2.13859 3.63101 0
M  V30 3054 H 281.903 1.09559 3.04596 0
M  V30 3055 H 280.81 3.16257 1.99831 0
M  V30 3056 H 282.143 4.15041 2.64578 0
M  V30 3057 N 283.795 -0.628877 1.44509 0
M  V30 3058 C 285.041 -1.39045 1.47629 0
M  V30 3059 C 285.374 -1.93892 0.109343 0
M  V30 3060 O 284.649 -1.7379 -0.87334 0
M  V30 3061 C 284.932 -2.55408 2.53848 0
M  V30 3062 C 284.785 -2.05896 3.99909 0
M  V30 3063 C 286.104 -3.5759 2.56549 0
M  V30 3064 H 283.223 -0.504232 0.537512 0
M  V30 3065 H 285.865 -0.710854 1.76201 0
M  V30 3066 H 284.015 -3.13384 2.29615 0
M  V30 3067 H 285.687 -1.52734 4.35282 0
M  V30 3068 H 283.93 -1.37061 4.11578 0
M  V30 3069 H 284.601 -2.89681 4.69882 0
M  V30 3070 H 287.077 -3.09419 2.78207 0
M  V30 3071 H 285.953 -4.36527 3.32769 0
M  V30 3072 H 286.214 -4.11808 1.60832 0
M  V30 3073 N 285.273 -1.31445 -0.869486 0
M  V30 3074 C 286.22 -1.19135 -1.97675 0
M  V30 3075 C 287.19 -0.0770266 -1.65921 0
M  V30 3076 O 288.375 -0.249972 -1.89155 0
M  V30 3077 C 285.515 -0.905149 -3.33018 0
M  V30 3078 C 284.628 -2.10285 -3.77365 0
M  V30 3079 C 283.763 -1.75339 -5.01427 0
M  V30 3080 C 282.802 -2.91515 -5.38224 0
M  V30 3081 N 281.939 -2.56762 -6.53466 0
M  V30 3082 H 286.779 -2.13853 -2.07535 0
M  V30 3083 H 284.316 -1.06379 -1.01597 0
M  V30 3084 H 286.274 -0.719765 -4.10944 0
M  V30 3085 H 284.904 0.00519624 -3.228 0
M  V30 3086 H 283.956 -2.39899 -2.95216 0
M  V30 3087 H 285.268 -2.97237 -4.00564 0
M  V30 3088 H 284.422 -1.53266 -5.87022 0
M  V30 3089 H 283.161 -0.855801 -4.80133 0
M  V30 3090 H 282.166 -3.14237 -4.51149 0
M  V30 3091 H 283.391 -3.81985 -5.61484 0
M  V30 3092 H 281.337 -1.69526 -6.33717 0
M  V30 3093 H 281.254 -3.37243 -6.76612 0
M  V30 3094 H 282.522 -2.38083 -7.42251 0
M  V30 3095 N 286.751 1.08385 -1.14413 0
M  V30 3096 C 288.162 1.62258 -0.923535 0
M  V30 3097 C 288.513 1.88691 0.537595 0
M  V30 3098 O 287.638 1.64454 1.40655 0
M  V30 3099 C 288.233 2.94781 -1.67002 0
M  V30 3100 C 286.792 3.45437 -1.495 0
M  V30 3101 C 285.939 2.19668 -1.69238 0
M  V30 3102 H 288.89 0.916086 -1.2959 0
M  V30 3103 H 288.911 3.63229 -1.13334 0
M  V30 3104 H 288.423 2.7551 -2.73342 0
M  V30 3105 H 286.524 3.6981 -0.455097 0
M  V30 3106 H 286.637 4.22173 -2.2651 0
M  V30 3107 H 285.001 2.28849 -1.11804 0
M  V30 3108 H 285.784 2.02905 -2.7692 0
M  V30 3109 N 288.23 0.939286 1.26551 0
M  V30 3110 C 289.476 0.596234 1.94465 0
M  V30 3111 C 289.831 -0.855013 1.72358 0
M  V30 3112 O 289.124 -1.6034 1.04889 0
M  V30 3113 C 289.318 0.872106 3.46596 0
M  V30 3114 C 289.147 2.34862 3.83497 0
M  V30 3115 C 287.917 3.00344 4.06352 0
M  V30 3116 C 290.115 3.32697 3.92195 0
M  V30 3117 N 288.097 4.38027 4.30123 0
M  V30 3118 C 289.468 4.55631 4.20476 0
M  V30 3119 C 291.523 3.27747 3.74815 0
M  V30 3120 C 290.226 5.74233 4.33185 0
M  V30 3121 C 292.252 4.45672 3.88755 0
M  V30 3122 C 291.614 5.67388 4.17433 0
M  V30 3123 H 287.713 0.268515 0.734455 0
M  V30 3124 H 290.297 1.2083 1.5267 0
M  V30 3125 H 288.468 0.289102 3.87323 0
M  V30 3126 H 290.2 0.490513 4.01716 0
M  V30 3127 H 286.955 2.50969 4.01636 0
M  V30 3128 H 287.379 5.09288 4.46044 0
M  V30 3129 H 292.021 2.34703 3.51673 0
M  V30 3130 H 289.739 6.67731 4.55149 0
M  V30 3131 H 293.325 4.43372 3.76713 0
M  V30 3132 H 292.205 6.57115 4.27983 0
M  V30 3133 N 289.708 -1.40897 0.706093 0
M  V30 3134 C 290.938 -2.05075 0.250523 0
M  V30 3135 C 291.346 -1.53275 -1.10921 0
M  V30 3136 O 290.689 -0.680281 -1.7064 0
M  V30 3137 C 290.751 -3.59219 0.142178 0
M  V30 3138 C 290.415 -4.33864 1.43566 0
M  V30 3139 C 291.412 -4.62448 2.37566 0
M  V30 3140 C 289.097 -4.72946 1.69195 0
M  V30 3141 C 291.091 -5.29088 3.5545 0
M  V30 3142 C 288.778 -5.3932 2.87362 0
M  V30 3143 C 289.776 -5.6732 3.80312 0
M  V30 3144 O 289.464 -6.32325 4.96408 0
M  V30 3145 H 289.196 -0.666645 0.112074 0
M  V30 3146 H 291.75 -1.81467 0.962239 0
M  V30 3147 H 289.98 -3.81609 -0.6254 0
M  V30 3148 H 291.669 -4.0495 -0.277584 0
M  V30 3149 H 292.435 -4.32727 2.19027 0
M  V30 3150 H 288.314 -4.50527 0.977042 0
M  V30 3151 H 291.858 -5.50859 4.28018 0
M  V30 3152 H 287.755 -5.68461 3.05814 0
M  V30 3153 H 288.523 -6.50821 4.9636 0
M  V30 3154 N 291.186 -0.45159 -1.50991 0
M  V30 3155 C 292.432 0.110237 -2.025 0
M  V30 3156 C 292.765 1.41109 -1.33424 0
M  V30 3157 O 292.04 1.89135 -0.453659 0
M  V30 3158 C 292.323 0.314271 -3.58726 0
M  V30 3159 C 292.176 -1.00623 -4.38401 0
M  V30 3160 C 293.495 1.07767 -4.26702 0
M  V30 3161 H 290.614 0.0385897 -0.735989 0
M  V30 3162 H 293.256 -0.593374 -1.80497 0
M  V30 3163 H 291.406 0.913601 -3.77605 0
M  V30 3164 H 293.078 -1.64064 -4.31139 0
M  V30 3165 H 291.321 -1.6075 -4.02917 0
M  V30 3166 H 291.992 -0.817341 -5.45915 0
M  V30 3167 H 294.468 0.56986 -4.12179 0
M  V30 3168 H 293.344 1.18921 -5.35863 0
M  V30 3169 H 293.605 2.10939 -3.88532 0
M  V30 3170 N 292.664 1.56529 -0.183458 0
M  V30 3171 C 293.91 1.97537 0.459036 0
M  V30 3172 C 294.243 1.06989 1.62071 0
M  V30 3173 O 293.518 0.11948 1.94133 0
M  V30 3174 C 293.801 3.47874 0.930368 0
M  V30 3175 C 293.654 4.492 -0.232317 0
M  V30 3176 C 294.973 4.01612 1.79989 0
M  V30 3177 H 292.092 0.718204 0.165383 0
M  V30 3178 H 294.734 1.88042 -0.272038 0
M  V30 3179 H 292.884 3.56095 1.55333 0
M  V30 3180 H 294.556 4.53027 -0.86972 0
M  V30 3181 H 292.799 4.24657 -0.885928 0
M  V30 3182 H 293.47 5.51823 0.139796 0
M  V30 3183 H 295.946 3.96097 1.27461 0
M  V30 3184 H 294.822 5.07195 2.09867 0
M  V30 3185 H 295.083 3.46163 2.74998 0
M  V30 3186 N 294.142 -0.090211 1.57342 0
M  V30 3187 C 295.39 -0.791241 1.85967 0
M  V30 3188 C 295.711 -1.7903 0.772859 0
M  V30 3189 O 294.981 -1.94872 -0.200398 0
M  V30 3190 H 293.561 -0.295205 0.686195 0
M  V30 3191 H 296.223 -0.0706782 1.94772 0
M  V30 3192 H 295.319 -1.31882 2.82867 0
M  V30 3193 N 295.62 -1.53406 -0.361157 0
M  V30 3194 C 296.568 -1.80832 -1.46296 0
M  V30 3195 C 297.562 -0.677699 -1.55253 0
M  V30 3196 O 298.768 -0.860723 -1.58087 0
M  V30 3197 H 295.143 -0.572627 -0.487445 0
M  V30 3198 H 297.114 -2.73045 -1.20371 0
M  V30 3199 C 295.863 -2.01907 -2.8307 0
M  V30 3200 H 295.186 -2.88349 -2.76938 0
M  V30 3201 H 296.626 -2.25072 -3.59331 0
M  V30 3202 C 295.085 -0.799449 -3.27277 0
M  V30 3203 O 295.615 0.00971761 -4.01699 0
M  V30 3204 N 293.821 -0.621637 -2.83873 0
M  V30 3205 H 293.368 -1.28126 -2.23476 0
M  V30 3206 H 293.326 0.19298 -3.13807 0
M  V30 3207 N 297.098 0.621204 -1.44841 0
M  V30 3208 C 298.326 1.40752 -1.51646 0
M  V30 3209 C 298.741 1.88246 -0.144549 0
M  V30 3210 O 298.098 1.61422 0.851416 0
M  V30 3211 C 298.149 2.62119 -2.4895 0
M  V30 3212 O 297.87 2.16602 -3.80808 0
M  V30 3213 C 299.371 3.55135 -2.65319 0
M  V30 3214 H 296.591 0.431325 -0.514004 0
M  V30 3215 H 299.135 0.758835 -1.899 0
M  V30 3216 H 297.29 3.23058 -2.13805 0
M  V30 3217 H 297.704 2.95358 -4.33433 0
M  V30 3218 H 299.178 4.36874 -3.37409 0
M  V30 3219 H 299.655 4.04592 -1.70886 0
M  V30 3220 H 300.261 3.00058 -3.01405 0
M  V30 3221 N 298.576 1.31904 0.862503 0
M  V30 3222 C 299.853 1.12644 1.59908 0
M  V30 3223 C 300.233 -0.316104 2.0872 0
M  V30 3224 O 299.581 -1.31145 1.87118 0
M  V30 3225 C 299.791 2.1472 2.7513 0
M  V30 3226 C 301.139 2.47637 3.44907 0
M  V30 3227 O 302.163 2.13205 2.85346 0
M  V30 3228 O 301.022 3.06632 4.52371 0
M  V30 3229 H 298.116 0.43416 0.703871 0
M  V30 3230 H 300.662 1.43408 0.907314 0
M  V30 3231 H 299.434 3.1172 2.3653 0
M  V30 3232 H 299.057 1.84905 3.51989 0
M  V30 3233 N 300.054 -1.07777 1.14986 0
M  V30 3234 C 301.331 -1.7699 0.832695 0
M  V30 3235 C 301.711 -2.001 -0.672561 0
M  V30 3236 O 301.059 -1.61598 -1.6155 0
M  V30 3237 C 301.269 -3.08139 1.63863 0
M  V30 3238 C 302.617 -3.8256 1.84208 0
M  V30 3239 O 303.641 -3.17939 1.60603 0
M  V30 3240 O 302.5 -4.98612 2.23714 0
M  V30 3241 H 299.594 -0.768389 0.305791 0
M  V30 3242 H 302.14 -1.14182 1.25541 0
M  V30 3243 H 300.912 -2.86909 2.6608 0
M  V30 3244 H 300.535 -3.78678 1.21197 0
M  V30 3245 N 301.532 -0.945985 -1.26051 0
M  V30 3246 C 302.48 -0.450259 -2.282 0
M  V30 3247 C 303.474 0.47497 -1.62605 0
M  V30 3248 O 304.68 0.352653 -1.76512 0
M  V30 3249 H 301.055 -0.127081 -0.741184 0
M  V30 3250 H 303.026 -1.32422 -2.67408 0
M  V30 3251 C 301.775 0.26467 -3.46691 0
M  V30 3252 H 301.098 -0.438123 -3.97392 0
M  V30 3253 H 302.538 0.575678 -4.20074 0
M  V30 3254 C 300.997 1.48416 -3.02447 0
M  V30 3255 O 301.527 2.58227 -3.07704 0
M  V30 3256 N 299.733 1.34243 -2.57735 0
M  V30 3257 H 299.28 0.448994 -2.53657 0
M  V30 3258 H 299.238 2.15957 -2.28495 0
M  V30 3259 N 303.011 1.40521 -0.713556 0
M  V30 3260 C 304.422 1.83853 -0.324807 0
M  V30 3261 C 304.773 1.59667 1.14021 0
M  V30 3262 O 303.898 1.07649 1.87725 0
M  V30 3263 C 304.493 3.33751 -0.582746 0
M  V30 3264 C 303.052 3.75584 -0.247727 0
M  V30 3265 C 302.199 2.63753 -0.856121 0
M  V30 3266 H 305.15 1.29817 -0.91286 0
M  V30 3267 H 305.171 3.80194 0.152682 0
M  V30 3268 H 304.683 3.51322 -1.64908 0
M  V30 3269 H 302.784 3.63608 0.813624 0
M  V30 3270 H 302.897 4.7373 -0.715307 0
M  V30 3271 H 301.261 2.53108 -0.28432 0
M  V30 3272 H 302.044 2.84137 -1.92668 0
M  V30 3273 N 304.489 0.459591 1.5075 0
M  V30 3274 C 305.766 -0.160371 1.94941 0
M  V30 3275 C 306.146 -1.58048 1.39943 0
M  V30 3276 O 305.494 -2.206 0.595629 0
M  V30 3277 C 305.704 -0.115432 3.48809 0
M  V30 3278 C 307.052 -0.310026 4.23467 0
M  V30 3279 O 308.076 -0.192543 3.55679 0
M  V30 3280 O 306.935 -0.546031 5.43765 0
M  V30 3281 H 304.029 -0.117925 0.818549 0
M  V30 3282 H 306.575 0.519169 1.61563 0
M  V30 3283 H 305.347 0.87652 3.81357 0
M  V30 3284 H 304.97 -0.836928 3.88692 0
M  V30 3285 N 305.967 -1.56429 0.191757 0
M  V30 3286 C 307.216 -1.9666 -0.448088 0
M  V30 3287 C 307.529 -1.08136 -1.62991 0
M  V30 3288 O 308.735 -1.38135 -2.33733 0
M  V30 3289 C 307.191 -3.49753 -0.848585 0
M  V30 3290 C 306.799 -4.46935 0.308764 0
M  V30 3291 C 308.543 -3.9876 -1.4557 0
M  V30 3292 C 306.45 -5.91293 -0.112506 0
M  V30 3293 H 305.38 -0.734312 -0.171179 0
M  V30 3294 H 308.031 -1.81301 0.283242 0
M  V30 3295 H 306.413 -3.60604 -1.63649 0
M  V30 3296 H 307.587 -4.47813 1.08627 0
M  V30 3297 H 305.902 -4.08102 0.827158 0
M  V30 3298 H 308.499 -5.04086 -1.78328 0
M  V30 3299 H 308.842 -3.42875 -2.36099 0
M  V30 3300 H 309.375 -3.9101 -0.731836 0
M  V30 3301 H 306.114 -6.51097 0.758514 0
M  V30 3302 H 305.634 -5.93676 -0.854941 0
M  V30 3303 H 307.313 -6.44663 -0.549448 0
M  V30 3304 N 307.445 0.0818655 -1.57387 0
M  V30 3305 C 308.673 0.796108 -1.9097 0
M  V30 3306 C 309.088 1.71626 -0.786757 0
M  V30 3307 O 308.445 1.80908 0.240513 0
M  V30 3308 C 308.496 1.59829 -3.24248 0
M  V30 3309 O 308.217 0.715131 -4.32224 0
M  V30 3310 C 309.718 2.41442 -3.7178 0
M  V30 3311 H 306.938 0.22691 -0.631469 0
M  V30 3312 H 309.482 0.0551439 -2.04426 0
M  V30 3313 H 307.637 2.29163 -3.12351 0
M  V30 3314 H 308.051 1.27205 -5.08841 0
M  V30 3315 H 309.525 2.932 -4.67694 0
M  V30 3316 H 310.002 3.2051 -3.00283 0
M  V30 3317 H 310.608 1.77283 -3.86589 0
M  V30 3318 N 308.923 1.53595 0.353017 0
M  V30 3319 C 309.87 1.80919 1.43308 0
M  V30 3320 C 310.84 0.654288 1.5267 0
M  V30 3321 O 312.025 0.897759 1.6836 0
M  V30 3322 C 309.165 2.01605 2.80089 0
M  V30 3323 C 308.278 3.29321 2.79593 0
M  V30 3324 C 307.413 3.40125 4.0803 0
M  V30 3325 C 306.452 4.61826 4.01725 0
M  V30 3326 N 305.589 4.69716 5.21834 0
M  V30 3327 H 310.429 2.73074 1.19308 0
M  V30 3328 H 307.966 1.35263 0.578131 0
M  V30 3329 H 309.924 2.11586 3.59565 0
M  V30 3330 H 308.554 1.12772 3.0246 0
M  V30 3331 H 307.606 3.28229 1.92276 0
M  V30 3332 H 308.918 4.18884 2.70809 0
M  V30 3333 H 308.072 3.49488 4.95927 0
M  V30 3334 H 306.811 2.48601 4.19582 0
M  V30 3335 H 305.816 4.52552 3.12213 0
M  V30 3336 H 307.041 5.54705 3.91764 0
M  V30 3337 H 304.987 3.81097 5.33948 0
M  V30 3338 H 304.904 5.53202 5.1527 0
M  V30 3339 H 306.172 4.83376 6.11529 0
M  V30 3340 N 310.401 -0.613514 1.45168 0
M  V30 3341 C 311.631 -1.39743 1.52169 0
M  V30 3342 C 312.039 -1.88596 0.151086 0
M  V30 3343 O 311.382 -1.6251 -0.856521 0
M  V30 3344 C 311.444 -2.64035 2.43979 0
M  V30 3345 C 311.108 -2.36861 3.90827 0
M  V30 3346 C 312.105 -1.97591 4.80889 0
M  V30 3347 C 309.79 -2.49956 4.35692 0
M  V30 3348 C 311.784 -1.71768 6.1382 0
M  V30 3349 C 309.471 -2.23747 5.68665 0
M  V30 3350 C 310.469 -1.84714 6.57548 0
M  V30 3351 O 310.157 -1.58809 7.88058 0
M  V30 3352 H 309.889 -0.434382 0.517966 0
M  V30 3353 H 312.443 -0.75587 1.90986 0
M  V30 3354 H 310.673 -3.3089 2.00122 0
M  V30 3355 H 312.362 -3.26069 2.41731 0
M  V30 3356 H 313.128 -1.87015 4.47493 0
M  V30 3357 H 309.007 -2.79305 3.66756 0
M  V30 3358 H 312.551 -1.41227 6.83155 0
M  V30 3359 H 308.448 -2.33938 6.01617 0
M  V30 3360 H 309.216 -1.7291 8.00028 0
M  V30 3361 N 311.879 -1.3236 -0.855495 0
M  V30 3362 C 312.812 -1.15559 -1.96777 0
M  V30 3363 C 313.79 -0.0552681 -1.62506 0
M  V30 3364 O 314.974 -0.214419 -1.87277 0
M  V30 3365 C 312.101 -0.768851 -3.29858 0
M  V30 3366 C 311.147 -1.87429 -3.83109 0
M  V30 3367 S 311.98 -3.48243 -4.06801 0
M  V30 3368 C 313.136 -3.11539 -5.42858 0
M  V30 3369 H 313.369 -2.09717 -2.10727 0
M  V30 3370 H 310.902 -1.17011 -1.00737 0
M  V30 3371 H 312.86 -0.55248 -4.06765 0
M  V30 3372 H 311.521 0.153857 -3.13723 0
M  V30 3373 H 310.714 -1.55667 -4.79358 0
M  V30 3374 H 310.316 -2.04647 -3.13042 0
M  V30 3375 H 312.608 -2.61331 -6.2507 0
M  V30 3376 H 313.551 -4.06806 -5.79582 0
M  V30 3377 H 313.959 -2.48582 -5.06821 0
M  V30 3378 N 313.357 1.07166 -1.15556 0
M  V30 3379 C 314.605 1.79443 -0.929764 0
M  V30 3380 C 314.926 1.87246 0.544414 0
M  V30 3381 O 314.196 1.37473 1.39564 0
M  V30 3382 H 312.776 0.664625 -0.341003 0
M  V30 3383 H 315.438 1.29499 -1.45657 0
M  V30 3384 H 314.534 2.81832 -1.34079 0
M  V30 3385 N 314.835 0.952656 1.25548 0
M  V30 3386 C 316.065 0.622592 1.96996 0
M  V30 3387 C 316.473 -0.809112 1.71026 0
M  V30 3388 O 315.816 -1.55258 0.981861 0
M  V30 3389 C 315.878 0.798946 3.5051 0
M  V30 3390 C 315.542 2.20744 4.00151 0
M  V30 3391 C 316.539 3.18394 4.11001 0
M  V30 3392 C 314.224 2.5311 4.33867 0
M  V30 3393 C 316.218 4.46504 4.54877 0
M  V30 3394 C 313.905 3.8145 4.7743 0
M  V30 3395 C 314.903 4.77959 4.87897 0
M  V30 3396 O 314.591 6.04012 5.30494 0
M  V30 3397 H 314.323 0.232503 0.634758 0
M  V30 3398 H 316.877 1.2789 1.60728 0
M  V30 3399 H 315.107 0.0854903 3.86605 0
M  V30 3400 H 316.796 0.47023 4.03167 0
M  V30 3401 H 317.562 2.94715 3.85186 0
M  V30 3402 H 313.441 1.78719 4.24948 0
M  V30 3403 H 316.985 5.21835 4.62962 0
M  V30 3404 H 312.882 4.04936 5.0269 0
M  V30 3405 H 313.65 6.0736 5.48685 0
M  V30 3406 N 316.313 -1.40141 0.720998 0
M  V30 3407 C 317.543 -2.04798 0.27226 0
M  V30 3408 C 317.951 -1.54442 -1.09289 0
M  V30 3409 O 317.294 -0.698342 -1.69908 0
M  V30 3410 C 317.356 -3.59048 0.18027 0
M  V30 3411 C 317.02 -4.32317 1.48159 0
M  V30 3412 C 318.017 -4.59902 2.42458 0
M  V30 3413 C 315.702 -4.71125 1.74202 0
M  V30 3414 C 317.696 -5.25288 3.61042 0
M  V30 3415 C 315.383 -5.36242 2.93066 0
M  V30 3416 C 316.381 -5.63254 3.86308 0
M  V30 3417 O 316.069 -6.27024 5.03086 0
M  V30 3418 H 315.801 -0.665419 0.119139 0
M  V30 3419 H 318.355 -1.80436 0.981432 0
M  V30 3420 H 316.585 -3.82251 -0.58489 0
M  V30 3421 H 318.274 -4.05221 -0.234618 0
M  V30 3422 H 319.04 -4.30379 2.23604 0
M  V30 3423 H 314.919 -4.49466 1.02477 0
M  V30 3424 H 318.463 -5.46289 4.33837 0
M  V30 3425 H 314.36 -5.65185 3.11826 0
M  V30 3426 H 315.128 -6.4552 5.03235 0
M  V30 3427 N 317.792 -0.46758 -1.50504 0
M  V30 3428 C 318.724 0.364655 -2.26281 0
M  V30 3429 C 319.737 0.960151 -1.31472 0
M  V30 3430 O 320.926 0.849153 -1.57008 0
M  V30 3431 C 318.026 1.52509 -3.02645 0
M  V30 3432 C 317.199 1.04302 -4.24782 0
M  V30 3433 C 316.258 2.07709 -4.8347 0
M  V30 3434 O 315.284 1.65913 -5.44483 0
M  V30 3435 N 316.486 3.40485 -4.70159 0
M  V30 3436 H 319.251 -0.28495 -2.98342 0
M  V30 3437 H 316.812 -0.298163 -1.59131 0
M  V30 3438 H 318.804 2.21371 -3.38787 0
M  V30 3439 H 317.374 2.07945 -2.33404 0
M  V30 3440 H 316.594 0.180393 -3.93787 0
M  V30 3441 H 317.882 0.698798 -5.03978 0
M  V30 3442 H 317.28 3.77155 -4.21629 0
M  V30 3443 H 315.837 4.05156 -5.1058 0
M  V30 3444 N 319.27 1.56325 -0.20005 0
M  V30 3445 C 320.2 2.22318 0.713916 0
M  V30 3446 C 321.181 1.18788 1.21752 0
M  V30 3447 O 322.366 1.47309 1.26545 0
M  V30 3448 C 319.496 2.88639 1.93144 0
M  V30 3449 C 318.45 3.98457 1.56255 0
M  V30 3450 C 317.776 4.51967 2.85709 0
M  V30 3451 C 319.076 5.16612 0.768747 0
M  V30 3452 H 320.77 2.98952 0.163755 0
M  V30 3453 H 318.316 1.43792 0.0773219 0
M  V30 3454 H 320.269 3.33491 2.57608 0
M  V30 3455 H 318.993 2.09419 2.50621 0
M  V30 3456 H 317.652 3.54305 0.941471 0
M  V30 3457 H 317.3 3.69503 3.41287 0
M  V30 3458 H 317 5.26071 2.6177 0
M  V30 3459 H 318.524 4.99523 3.51154 0
M  V30 3460 H 319.938 5.57977 1.3166 0
M  V30 3461 H 318.335 5.96812 0.627286 0
M  V30 3462 H 319.405 4.84358 -0.229168 0
M  V30 3463 N 320.748 -0.0735177 1.57428 0
M  V30 3464 C 321.695 -1.08756 2.0357 0
M  V30 3465 C 322.665 -1.38559 0.916 0
M  V30 3466 O 323.85 -1.49656 1.18354 0
M  V30 3467 C 320.99 -2.39657 2.48311 0
M  V30 3468 C 320.103 -2.16399 3.73892 0
M  V30 3469 C 319.238 -3.40852 4.07423 0
M  V30 3470 C 318.277 -3.1295 5.2605 0
M  V30 3471 N 317.414 -4.29729 5.55228 0
M  V30 3472 H 322.254 -0.687104 2.8997 0
M  V30 3473 H 319.791 -0.327709 1.43403 0
M  V30 3474 H 321.749 -3.16081 2.72303 0
M  V30 3475 H 320.379 -2.77508 1.64891 0
M  V30 3476 H 319.431 -1.30676 3.57251 0
M  V30 3477 H 320.743 -1.91788 4.60455 0
M  V30 3478 H 319.897 -4.25671 4.32306 0
M  V30 3479 H 318.636 -3.68537 3.19425 0
M  V30 3480 H 317.641 -2.26526 5.00965 0
M  V30 3481 H 318.866 -2.86589 6.15665 0
M  V30 3482 H 316.812 -4.57448 4.70188 0
M  V30 3483 H 316.729 -4.08385 6.36206 0
M  V30 3484 H 317.997 -5.1555 5.84661 0
M  V30 3485 N 322.226 -1.5378 -0.344866 0
M  V30 3486 C 323.475 -1.7018 -1.08267 0
M  V30 3487 C 323.788 -0.471 -1.89845 0
M  V30 3488 O 324.994 -0.515917 -2.66553 0
M  V30 3489 C 323.45 -3.00923 -1.97417 0
M  V30 3490 C 323.058 -4.31335 -1.21053 0
M  V30 3491 C 324.802 -3.26688 -2.71063 0
M  V30 3492 C 322.709 -5.53153 -2.09225 0
M  V30 3493 H 321.639 -0.634138 -0.407903 0
M  V30 3494 H 324.29 -1.8028 -0.342246 0
M  V30 3495 H 322.672 -2.84676 -2.75274 0
M  V30 3496 H 323.846 -4.58281 -0.481159 0
M  V30 3497 H 322.161 -4.12173 -0.591813 0
M  V30 3498 H 324.758 -4.1489 -3.37299 0
M  V30 3499 H 325.101 -2.43639 -3.37558 0
M  V30 3500 H 325.634 -3.43705 -2.0028 0
M  V30 3501 H 322.373 -6.38741 -1.47274 0
M  V30 3502 H 321.893 -5.30458 -2.79955 0
M  V30 3503 H 323.572 -5.88744 -2.68308 0
M  V30 3504 N 323.704 0.605807 -1.45491 0
M  V30 3505 C 324.952 1.36207 -1.49305 0
M  V30 3506 C 325.273 1.94519 -0.136863 0
M  V30 3507 O 324.543 1.77261 0.833983 0
M  V30 3508 H 323.123 0.50565 -0.549843 0
M  V30 3509 H 325.785 0.711239 -1.81459 0
M  V30 3510 H 324.881 2.18058 -2.23287 0
M  V30 3511 N 325.182 1.32811 0.848464 0
M  V30 3512 C 326.412 1.26556 1.63301 0
M  V30 3513 C 326.82 -0.1676 1.88456 0
M  V30 3514 O 326.163 -1.11713 1.45828 0
M  V30 3515 C 326.225 1.96202 3.01239 0
M  V30 3516 C 325.889 3.45528 2.99098 0
M  V30 3517 C 326.886 4.40903 2.75501 0
M  V30 3518 C 324.571 3.87558 3.19537 0
M  V30 3519 C 326.565 5.76282 2.72356 0
M  V30 3520 C 324.252 5.23044 3.16019 0
M  V30 3521 C 325.25 6.17217 2.92458 0
M  V30 3522 O 324.938 7.50223 2.88825 0
M  V30 3523 H 324.67 0.43771 0.515156 0
M  V30 3524 H 327.224 1.7559 1.0657 0
M  V30 3525 H 325.454 1.41746 3.59785 0
M  V30 3526 H 327.143 1.83573 3.62016 0
M  V30 3527 H 327.909 4.09756 2.5947 0
M  V30 3528 H 323.788 3.14674 3.369 0
M  V30 3529 H 327.332 6.4976 2.53886 0
M  V30 3530 H 323.229 5.53818 3.31596 0
M  V30 3531 H 323.997 7.59657 3.04735 0
M  V30 3532 N 326.66 -1.06551 1.16123 0
M  V30 3533 C 327.61 -2.12209 0.833736 0
M  V30 3534 C 328.594 -1.59825 -0.185656 0
M  V30 3535 O 329.786 -1.76994 0.0147906 0
M  V30 3536 C 326.915 -3.41674 0.333697 0
M  V30 3537 C 326.001 -4.00892 1.38372 0
M  V30 3538 N 326.392 -4.34256 2.59337 0
M  V30 3539 C 324.69 -4.28463 1.23836 0
M  V30 3540 C 325.391 -4.81291 3.26701 0
M  V30 3541 N 324.367 -4.80565 2.54083 0
M  V30 3542 H 328.169 -2.35849 1.75364 0
M  V30 3543 H 325.683 -1.24068 1.04789 0
M  V30 3544 H 327.68 -4.16822 0.0806918 0
M  V30 3545 H 326.34 -3.19475 -0.58017 0
M  V30 3546 H 327.351 -4.24687 2.96415 0
M  V30 3547 H 324.028 -4.15721 0.38504 0
M  V30 3548 H 325.418 -5.16332 4.29943 0
M  V30 3549 N 328.138 -0.959301 -1.25041 0
M  V30 3550 C 329.068 -0.501388 -2.28053 0
M  V30 3551 C 330.049 0.454673 -1.63911 0
M  V30 3552 O 331.234 0.352618 -1.90972 0
M  V30 3553 C 328.364 0.217224 -3.4662 0
M  V30 3554 C 327.318 -0.654034 -4.22973 0
M  V30 3555 C 326.644 0.195589 -5.34342 0
M  V30 3556 C 327.944 -1.93447 -4.85155 0
M  V30 3557 H 329.638 -1.36238 -2.66608 0
M  V30 3558 H 327.184 -0.656534 -1.28163 0
M  V30 3559 H 329.137 0.548732 -4.17812 0
M  V30 3560 H 327.861 1.1125 -3.07068 0
M  V30 3561 H 326.52 -0.968693 -3.5357 0
M  V30 3562 H 326.168 1.09076 -4.91031 0
M  V30 3563 H 325.868 -0.384091 -5.86343 0
M  V30 3564 H 327.392 0.521958 -6.08365 0
M  V30 3565 H 328.806 -1.66908 -5.48466 0
M  V30 3566 H 327.203 -2.46018 -5.47353 0
M  V30 3567 H 328.273 -2.63466 -4.07079 0
M  V30 3568 N 329.616 1.39756 -0.72842 0
M  V30 3569 C 330.864 2.00248 -0.272946 0
M  V30 3570 C 331.185 1.58077 1.14178 0
M  V30 3571 O 330.455 0.826014 1.77634 0
M  V30 3572 H 329.035 0.740554 -0.0979247 0
M  V30 3573 H 331.697 1.70903 -0.936912 0
M  V30 3574 H 330.793 3.10495 -0.316142 0
M  V30 3575 N 331.094 0.475555 1.50254 0
M  V30 3576 C 332.371 -0.139685 1.95101 0
M  V30 3577 C 332.751 -1.56555 1.41611 0
M  V30 3578 O 332.099 -2.19956 0.618993 0
M  V30 3579 C 332.309 -0.0784298 3.48912 0
M  V30 3580 C 333.657 -0.265095 4.23772 0
M  V30 3581 O 334.681 -0.154808 3.55863 0
M  V30 3582 O 333.54 -0.488327 5.44314 0
M  V30 3583 H 330.634 -0.109236 0.819754 0
M  V30 3584 H 333.18 0.536276 1.61004 0
M  V30 3585 H 331.952 0.916918 3.80405 0
M  V30 3586 H 331.575 -0.795655 3.89558 0
M  V30 3587 N 332.573 -1.56217 0.208337 0
M  V30 3588 C 333.536 -2.18455 -0.693557 0
M  V30 3589 C 334.536 -1.14268 -1.13135 0
M  V30 3590 O 335.726 -1.39577 -1.0423 0
M  V30 3591 C 332.858 -2.79727 -1.94848 0
M  V30 3592 H 334.051 -2.99519 -0.15114 0
M  V30 3593 H 331.604 -1.56245 -0.041287 0
M  V30 3594 H 332.339 -2.02497 -2.53309 0
M  V30 3595 H 332.124 -3.56009 -1.64316 0
M  V30 3596 H 333.614 -3.27475 -2.59133 0
M  V30 3597 N 334.051 0.0651679 -1.57465 0
M  V30 3598 C 335.297 0.764193 -1.87851 0
M  V30 3599 C 335.63 1.76889 -0.801495 0
M  V30 3600 O 334.905 1.93594 0.187528 0
M  V30 3601 C 335.188 1.46625 -3.28897 0
M  V30 3602 C 335.041 0.477515 -4.47258 0
M  V30 3603 C 336.36 2.4095 -3.68281 0
M  V30 3604 H 333.479 0.276351 -0.683227 0
M  V30 3605 H 336.121 0.0272868 -1.8998 0
M  V30 3606 H 334.271 2.09438 -3.27212 0
M  V30 3607 H 335.943 -0.145922 -4.61069 0
M  V30 3608 H 334.186 -0.206576 -4.33308 0
M  V30 3609 H 334.857 1.0065 -5.42746 0
M  V30 3610 H 337.333 1.88209 -3.71102 0
M  V30 3611 H 336.209 2.87072 -4.67847 0
M  V30 3612 H 336.47 3.26049 -2.98571 0
M  V30 3613 N 335.529 1.53961 0.336706 0
M  V30 3614 C 336.459 1.85417 1.41925 0
M  V30 3615 C 337.44 0.709856 1.5458 0
M  V30 3616 O 338.625 0.962396 1.68676 0
M  V30 3617 C 335.755 2.06985 2.78881 0
M  V30 3618 C 334.709 3.22813 2.81026 0
M  V30 3619 C 334.035 3.29727 4.20932 0
M  V30 3620 C 335.335 4.60767 2.45949 0
M  V30 3621 H 337.029 2.76079 1.15848 0
M  V30 3622 H 334.575 1.32839 0.555859 0
M  V30 3623 H 336.528 2.27575 3.54665 0
M  V30 3624 H 335.252 1.13061 3.06406 0
M  V30 3625 H 333.911 3.0209 2.07695 0
M  V30 3626 H 333.559 2.33385 4.45579 0
M  V30 3627 H 333.259 4.07566 4.23277 0
M  V30 3628 H 334.783 3.52536 4.98549 0
M  V30 3629 H 336.197 4.81325 3.11446 0
M  V30 3630 H 334.594 5.4106 2.59566 0
M  V30 3631 H 335.664 4.6391 1.41122 0
M  V30 3632 N 337.007 -0.598083 1.45811 0
M  V30 3633 C 338.232 -1.3881 1.54099 0
M  V30 3634 C 338.657 -1.8726 0.177578 0
M  V30 3635 O 338.015 -1.6069 -0.839541 0
M  V30 3636 C 338.063 -2.56217 2.53743 0
M  V30 3637 O 337.167 -3.5716 2.06182 0
M  V30 3638 H 336.508 -0.414024 0.519115 0
M  V30 3639 H 339.038 -0.726971 1.91249 0
M  V30 3640 H 339.048 -3.03337 2.72856 0
M  V30 3641 H 337.723 -2.20303 3.5276 0
M  V30 3642 H 336.3 -3.16624 1.96987 0
M  V30 3643 N 338.485 -1.33259 -0.841409 0
M  V30 3644 C 339.448 -1.23221 -1.9326 0
M  V30 3645 C 340.448 -0.151895 -1.60081 0
M  V30 3646 O 341.638 -0.403246 -1.69468 0
M  V30 3647 C 338.77 -0.898123 -3.28856 0
M  V30 3648 H 339.963 -2.2021 -2.03587 0
M  V30 3649 H 337.516 -1.17281 -1.03319 0
M  V30 3650 H 338.251 0.0693841 -3.24226 0
M  V30 3651 H 338.036 -1.67934 -3.54317 0
M  V30 3652 H 339.526 -0.852563 -4.08805 0
M  V30 3653 N 339.963 1.05934 -1.16686 0
M  V30 3654 C 340.91 2.13499 -0.876748 0
M  V30 3655 C 341.88 1.65162 0.176299 0
M  V30 3656 O 343.065 1.90757 0.0407143 0
M  V30 3657 C 340.205 3.42912 -0.387967 0
M  V30 3658 C 339.318 4.04964 -1.50426 0
M  V30 3659 C 338.453 5.22266 -0.970125 0
M  V30 3660 C 337.492 5.76309 -2.06238 0
M  V30 3661 N 336.629 6.84922 -1.54356 0
M  V30 3662 H 341.469 2.37654 -1.7979 0
M  V30 3663 H 339.006 1.16598 -0.896843 0
M  V30 3664 H 340.964 4.17111 -0.086186 0
M  V30 3665 H 339.594 3.18963 0.496235 0
M  V30 3666 H 338.646 3.28277 -1.92193 0
M  V30 3667 H 339.958 4.41122 -2.32836 0
M  V30 3668 H 339.112 6.03506 -0.621743 0
M  V30 3669 H 337.851 4.87564 -0.115377 0
M  V30 3670 H 336.856 4.93704 -2.41942 0
M  V30 3671 H 338.081 6.13062 -2.92115 0
M  V30 3672 H 336.027 6.52131 -0.711406 0
M  V30 3673 H 335.944 7.20043 -2.30379 0
M  V30 3674 H 337.212 7.69832 -1.22387 0
M  V30 3675 N 341.441 0.965919 1.2453 0
M  V30 3676 C 342.689 0.625593 1.92174 0
M  V30 3677 C 343.01 -0.841652 1.75901 0
M  V30 3678 O 342.28 -1.60061 1.12948 0
M  V30 3679 H 340.86 0.228388 0.71123 0
M  V30 3680 H 343.522 1.2266 1.51461 0
M  V30 3681 H 342.618 0.864653 2.99884 0
M  V30 3682 N 342.919 -1.39368 0.735821 0
M  V30 3683 C 343.851 -2.2913 0.0567723 0
M  V30 3684 C 344.864 -1.46859 -0.702589 0
M  V30 3685 O 346.053 -1.69925 -0.546616 0
M  V30 3686 C 343.153 -3.25492 -0.943823 0
M  V30 3687 C 342.326 -4.36709 -0.24581 0
M  V30 3688 C 341.385 -5.13376 -1.15463 0
M  V30 3689 O 340.411 -5.65683 -0.631803 0
M  V30 3690 N 341.613 -5.24656 -2.48427 0
M  V30 3691 H 344.378 -2.88047 0.827582 0
M  V30 3692 H 341.939 -1.50957 0.585112 0
M  V30 3693 H 343.931 -3.73657 -1.55443 0
M  V30 3694 H 342.501 -2.676 -1.61583 0
M  V30 3695 H 341.721 -3.9041 0.545286 0
M  V30 3696 H 343.009 -5.08244 0.237891 0
M  V30 3697 H 342.407 -4.83679 -2.93379 0
M  V30 3698 H 340.964 -5.76258 -3.04582 0
M  V30 3699 N 344.397 -0.483516 -1.5 0
M  V30 3700 C 345.627 0.0643896 -2.065 0
M  V30 3701 C 346.035 1.32949 -1.34615 0
M  V30 3702 O 345.378 1.79003 -0.412756 0
M  V30 3703 C 345.44 0.405983 -3.572 0
M  V30 3704 C 345.104 -0.758875 -4.50655 0
M  V30 3705 C 346.101 -1.64445 -4.93208 0
M  V30 3706 C 343.786 -0.952725 -4.93182 0
M  V30 3707 C 345.78 -2.70818 -5.77006 0
M  V30 3708 C 343.467 -2.01966 -5.76761 0
M  V30 3709 C 344.465 -2.89574 -6.18576 0
M  V30 3710 O 344.153 -3.94429 -7.00486 0
M  V30 3711 H 343.885 -0.00934786 -0.675935 0
M  V30 3712 H 346.439 -0.674959 -1.93993 0
M  V30 3713 H 344.669 1.19869 -3.67652 0
M  V30 3714 H 346.358 0.890433 -3.96013 0
M  V30 3715 H 347.124 -1.50643 -4.61012 0
M  V30 3716 H 343.003 -0.280247 -4.60147 0
M  V30 3717 H 346.547 -3.3923 -6.09565 0
M  V30 3718 H 342.444 -2.1577 -6.0837 0
M  V30 3719 H 343.212 -3.91568 -7.1876 0
M  V30 3720 N 345.875 1.56104 -0.216619 0
M  V30 3721 C 346.823 2.21434 0.712036 0
M  V30 3722 C 347.817 1.19218 1.20348 0
M  V30 3723 O 349.023 1.3731 1.16387 0
M  V30 3724 H 345.398 0.70992 0.248026 0
M  V30 3725 H 347.369 2.98083 0.137558 0
M  V30 3726 C 346.118 2.90434 1.91163 0
M  V30 3727 H 345.441 3.68842 1.54258 0
M  V30 3728 H 346.881 3.39552 2.5393 0
M  V30 3729 C 345.34 1.92635 2.76394 0
M  V30 3730 O 345.87 1.44017 3.74996 0
M  V30 3731 N 344.076 1.60392 2.42328 0
M  V30 3732 H 343.623 2.00122 1.622 0
M  V30 3733 H 343.581 0.952159 2.99635 0
M  V30 3734 N 347.353 -0.0568162 1.57498 0
M  V30 3735 C 348.599 -0.748893 1.89111 0
M  V30 3736 C 348.954 -1.74422 0.81208 0
M  V30 3737 O 348.247 -1.90731 -0.182247 0
M  V30 3738 C 348.441 -1.48359 3.25153 0
M  V30 3739 C 348.27 -0.560924 4.46188 0
M  V30 3740 C 347.04 -0.192264 5.04934 0
M  V30 3741 C 349.238 0.148824 5.14085 0
M  V30 3742 N 347.22 0.734555 6.0949 0
M  V30 3743 C 348.591 0.932286 6.12951 0
M  V30 3744 C 350.646 0.218713 4.97419 0
M  V30 3745 C 349.349 1.77917 6.96949 0
M  V30 3746 C 351.375 1.05262 5.81957 0
M  V30 3747 C 350.737 1.82409 6.80372 0
M  V30 3748 H 346.836 -0.249002 0.741298 0
M  V30 3749 H 349.42 -0.00984926 1.94698 0
M  V30 3750 H 347.591 -2.19326 3.20547 0
M  V30 3751 H 349.323 -2.12586 3.44368 0
M  V30 3752 H 346.078 -0.548421 4.70414 0
M  V30 3753 H 346.502 1.19165 6.6643 0
M  V30 3754 H 351.144 -0.363407 4.21235 0
M  V30 3755 H 348.862 2.3722 7.72497 0
M  V30 3756 H 352.448 1.10987 5.71116 0
M  V30 3757 H 351.328 2.45895 7.44651 0
M  V30 3758 N 348.832 -1.54138 -0.328536 0
M  V30 3759 C 349.78 -1.83894 -1.42428 0
M  V30 3760 C 350.774 -0.710478 -1.53781 0
M  V30 3761 O 351.98 -0.894062 -1.56226 0
M  V30 3762 H 348.355 -0.582837 -0.475189 0
M  V30 3763 H 350.326 -2.75537 -1.14552 0
M  V30 3764 C 349.075 -2.07866 -2.78724 0
M  V30 3765 H 348.398 -2.94158 -2.7076 0
M  V30 3766 H 349.838 -2.32644 -3.54476 0
M  V30 3767 C 348.297 -0.868689 -3.25508 0
M  V30 3768 O 348.827 -0.0754908 -4.01629 0
M  V30 3769 N 347.033 -0.681711 -2.82491 0
M  V30 3770 H 346.58 -1.32838 -2.20708 0
M  V30 3771 H 346.538 0.126374 -3.14146 0
M  V30 3772 N 350.31 0.590341 -1.46126 0
M  V30 3773 C 351.538 1.37504 -1.54597 0
M  V30 3774 C 351.953 1.87897 -0.184447 0
M  V30 3775 O 351.31 1.63192 0.816984 0
M  V30 3776 C 351.361 2.56779 -2.54454 0
M  V30 3777 O 351.082 2.08476 -3.85317 0
M  V30 3778 C 352.583 3.49427 -2.72792 0
M  V30 3779 H 349.803 0.420325 -0.523037 0
M  V30 3780 H 352.347 0.718383 -1.91467 0
M  V30 3781 H 350.502 3.1845 -2.20609 0
M  V30 3782 H 350.916 2.86097 -4.396 0
M  V30 3783 H 352.39 4.29619 -3.466 0
M  V30 3784 H 352.867 4.00876 -1.79429 0
M  V30 3785 H 353.473 2.93598 -3.07702 0
M  V30 3786 N 351.788 1.33704 0.83433 0
M  V30 3787 C 353.036 1.25169 1.58673 0
M  V30 3788 C 353.357 -0.18127 1.94156 0
M  V30 3789 O 352.627 -1.11113 1.6134 0
M  V30 3790 H 351.207 0.4603 0.58833 0
M  V30 3791 H 353.869 1.67478 0.996847 0
M  V30 3792 H 352.965 1.84856 2.51465 0
M  V30 3793 N 353.266 -1.05314 1.17247 0
M  V30 3794 C 354.496 -1.81707 0.983166 0
M  V30 3795 C 354.904 -1.83222 -0.471822 0
M  V30 3796 O 354.247 -1.25721 -1.3394 0
M  V30 3797 C 354.309 -3.29134 1.44606 0
M  V30 3798 C 353.973 -3.51304 2.92292 0
M  V30 3799 C 354.97 -3.4353 3.90235 0
M  V30 3800 C 352.655 -3.78306 3.30439 0
M  V30 3801 C 354.649 -3.62442 5.24323 0
M  V30 3802 C 352.336 -3.96866 4.64694 0
M  V30 3803 C 353.334 -3.88933 5.61445 0
M  V30 3804 O 353.022 -4.06976 6.93272 0
M  V30 3805 H 352.754 -0.579476 0.348114 0
M  V30 3806 H 355.308 -1.33705 1.55924 0
M  V30 3807 H 353.538 -3.78046 0.813537 0
M  V30 3808 H 355.227 -3.87049 1.22262 0
M  V30 3809 H 355.993 -3.22648 3.62109 0
M  V30 3810 H 351.872 -3.83585 2.55702 0
M  V30 3811 H 355.416 -3.56165 5.99827 0
M  V30 3812 H 351.313 -4.1724 4.92525 0
M  V30 3813 H 352.081 -4.24209 6.99992 0
M  V30 3814 N 354.744 -0.972509 -1.24016 0
M  V30 3815 C 355.992 -0.635776 -1.91839 0
M  V30 3816 C 356.313 0.832312 -1.76345 0
M  V30 3817 O 355.583 1.5946 -1.13795 0
M  V30 3818 H 354.163 -0.232157 -0.710009 0
M  V30 3819 H 356.825 -1.23462 -1.50809 0
M  V30 3820 H 355.921 -0.880545 -2.99421 0
M  V30 3821 N 356.222 1.38976 -0.743202 0
M  V30 3822 C 357.47 1.99948 -0.29417 0
M  V30 3823 C 357.791 1.59279 1.12495 0
M  V30 3824 O 357.061 0.844808 1.76748 0
M  V30 3825 H 355.641 0.739473 -0.105774 0
M  V30 3826 H 358.303 1.699 -0.954986 0
M  V30 3827 H 357.399 3.10142 -0.349056 0
M  V30 3828 N 357.7 0.491464 1.49741 0
M  V30 3829 C 358.663 -0.280906 2.27472 0
M  V30 3830 C 359.663 -0.902454 1.33088 0
M  V30 3831 O 360.853 -0.768465 1.56334 0
M  V30 3832 C 357.985 -1.40209 3.10732 0
M  V30 3833 H 359.178 0.401056 2.97206 0
M  V30 3834 H 356.731 0.246131 1.5435 0
M  V30 3835 H 357.466 -2.11849 2.45541 0
M  V30 3836 H 357.251 -0.961969 3.80117 0
M  V30 3837 H 358.741 -1.9464 3.69466 0
M  V30 3838 N 359.178 -1.55987 0.224894 0
M  V30 3839 C 360.088 -2.24066 -0.69511 0
M  V30 3840 C 361.104 -1.24939 -1.21104 0
M  V30 3841 O 362.28 -1.5776 -1.25195 0
M  V30 3842 C 359.345 -2.90983 -1.88493 0
M  V30 3843 C 358.406 -4.05462 -1.41064 0
M  V30 3844 C 357.639 -4.69179 -2.54375 0
M  V30 3845 O 357.862 -4.31895 -3.72589 0
M  V30 3846 O 356.796 -5.58108 -2.25386 0
M  V30 3847 H 360.622 -3.03353 -0.145149 0
M  V30 3848 H 358.207 -1.49399 -0.00569476 0
M  V30 3849 H 360.089 -3.33209 -2.57972 0
M  V30 3850 H 358.764 -2.14653 -2.42293 0
M  V30 3851 H 357.671 -3.67798 -0.683774 0
M  V30 3852 H 359.004 -4.83545 -0.918985 0
M  V30 3853 N 360.656 0.0484629 -1.57525 0
M  V30 3854 C 361.586 1.0549 -2.08313 0
M  V30 3855 C 362.567 1.38929 -0.981463 0
M  V30 3856 O 363.752 1.48151 -1.25558 0
M  V30 3857 C 360.882 2.36162 -2.54646 0
M  V30 3858 C 359.836 2.17016 -3.68901 0
M  V30 3859 C 359.162 3.53278 -4.01371 0
M  V30 3860 C 360.462 1.57219 -4.98076 0
M  V30 3861 H 362.156 0.632195 -2.92649 0
M  V30 3862 H 359.702 0.302654 -1.40784 0
M  V30 3863 H 361.655 3.06882 -2.88793 0
M  V30 3864 H 360.379 2.80456 -1.67368 0
M  V30 3865 H 359.038 1.48733 -3.35073 0
M  V30 3866 H 358.686 3.95185 -3.11188 0
M  V30 3867 H 358.386 3.41299 -4.78318 0
M  V30 3868 H 359.91 4.25391 -4.38035 0
M  V30 3869 H 361.324 2.17832 -5.30304 0
M  V30 3870 H 359.721 1.55871 -5.79503 0
M  V30 3871 H 360.791 0.535956 -4.81929 0
M  V30 3872 N 362.134 1.5431 0.320358 0
M  V30 3873 C 363.382 1.72327 1.05583 0
M  V30 3874 C 363.703 0.50149 1.88441 0
M  V30 3875 O 362.973 -0.48448 1.89815 0
M  V30 3876 H 361.553 0.635387 0.3928 0
M  V30 3877 H 364.215 1.91621 0.356019 0
M  V30 3878 H 363.311 2.60426 1.72003 0
M  V30 3879 N 363.613 -0.582584 1.46437 0
M  V30 3880 C 364.543 -1.70187 1.59871 0
M  V30 3881 C 365.524 -1.64066 0.449042 0
M  V30 3882 O 366.709 -1.82081 0.6753 0
M  V30 3883 C 363.839 -3.08827 1.58881 0
M  V30 3884 C 362.793 -3.29779 2.72819 0
M  V30 3885 C 362.119 -4.68947 2.5689 0
M  V30 3886 C 363.419 -3.17601 4.1464 0
M  V30 3887 H 365.113 -1.592 2.53566 0
M  V30 3888 H 362.659 -0.764472 1.22032 0
M  V30 3889 H 364.612 -3.86951 1.66873 0
M  V30 3890 H 363.336 -3.20713 0.617306 0
M  V30 3891 H 361.995 -2.54054 2.64296 0
M  V30 3892 H 361.643 -4.77599 1.57823 0
M  V30 3893 H 361.343 -4.83919 3.33312 0
M  V30 3894 H 362.867 -5.4924 2.66773 0
M  V30 3895 H 364.281 -3.8557 4.24274 0
M  V30 3896 H 362.678 -3.44094 4.9165 0
M  V30 3897 H 363.748 -2.14681 4.34788 0
M  V30 3898 N 365.091 -1.34144 -0.827227 0
M  V30 3899 C 366.316 -1.29476 -1.62021 0
M  V30 3900 C 366.741 0.129292 -1.87655 0
M  V30 3901 O 366.099 1.08967 -1.449 0
M  V30 3902 C 366.147 -2.08702 -2.94068 0
M  V30 3903 O 365.251 -1.45359 -3.85933 0
M  V30 3904 H 364.592 -0.444881 -0.492927 0
M  V30 3905 H 367.122 -1.76882 -1.02829 0
M  V30 3906 H 367.132 -2.19898 -3.43669 0
M  V30 3907 H 365.807 -3.12241 -2.74734 0
M  V30 3908 H 364.384 -1.42879 -3.44442 0
M  V30 3909 N 366.569 1.04691 -1.17803 0
M  V30 3910 C 367.799 1.81183 -0.992788 0
M  V30 3911 C 368.207 1.8347 0.462098 0
M  V30 3912 O 367.55 1.2643 1.33271 0
M  V30 3913 C 367.612 3.28363 -1.46349 0
M  V30 3914 C 367.276 3.49749 -2.94151 0
M  V30 3915 C 368.273 3.41456 -3.92051 0
M  V30 3916 C 365.958 3.76548 -3.32441 0
M  V30 3917 C 367.952 3.59656 -5.26238 0
M  V30 3918 C 365.639 3.94396 -4.66792 0
M  V30 3919 C 366.637 3.8595 -5.635 0
M  V30 3920 O 366.325 4.03294 -6.9542 0
M  V30 3921 H 366.057 0.577622 -0.351182 0
M  V30 3922 H 368.611 1.32876 -1.5663 0
M  V30 3923 H 366.841 3.77609 -0.833574 0
M  V30 3924 H 368.53 3.86395 -1.24313 0
M  V30 3925 H 369.296 3.20723 -3.63815 0
M  V30 3926 H 365.175 3.82224 -2.57732 0
M  V30 3927 H 368.719 3.52979 -6.01707 0
M  V30 3928 H 364.616 4.14622 -4.94731 0
M  V30 3929 H 365.384 4.2049 -7.02232 0
M  V30 3930 N 368.047 0.979072 1.23499 0
M  V30 3931 C 369.458 0.684391 1.73704 0
M  V30 3932 C 369.809 -0.799448 1.79174 0
M  V30 3933 O 368.934 -1.62531 1.42873 0
M  V30 3934 C 369.529 1.23564 3.15464 0
M  V30 3935 C 368.088 0.99063 3.6313 0
M  V30 3936 C 367.235 1.36416 2.41425 0
M  V30 3937 H 370.186 1.15307 1.09041 0
M  V30 3938 H 370.207 0.607417 3.7562 0
M  V30 3939 H 369.719 2.31561 3.1145 0
M  V30 3940 H 367.82 -0.0733136 3.72528 0
M  V30 3941 H 367.933 1.64427 4.5 0
M  V30 3942 H 366.297 0.782616 2.42378 0
M  V30 3943 H 367.08 2.45387 2.40083 0
M  V30 3944 N 369.525 -1.3858 0.750561 0
M  V30 3945 C 370.774 -1.99424 0.302172 0
M  V30 3946 C 371.087 -1.60254 -1.12152 0
M  V30 3947 O 372.293 -2.14046 -1.67023 0
M  V30 3948 C 370.749 -3.56558 0.489307 0
M  V30 3949 C 370.357 -4.04682 1.92189 0
M  V30 3950 C 372.101 -4.24374 0.103478 0
M  V30 3951 C 370.008 -5.54446 2.05775 0
M  V30 3952 H 368.938 -0.746046 0.10923 0
M  V30 3953 H 371.589 -1.58383 0.92667 0
M  V30 3954 H 369.971 -3.95472 -0.204329 0
M  V30 3955 H 371.145 -3.77065 2.64875 0
M  V30 3956 H 369.46 -3.4958 2.26236 0
M  V30 3957 H 372.057 -5.34384 0.183787 0
M  V30 3958 H 372.4 -4.05468 -0.943481 0
M  V30 3959 H 372.933 -3.90688 0.748854 0
M  V30 3960 H 369.672 -5.78252 3.08714 0
M  V30 3961 H 369.192 -5.83816 1.37546 0
M  V30 3962 H 370.871 -6.20099 1.84626 0
M  V30 3963 N 371.003 -0.499398 -1.49478 0
M  V30 3964 C 372.231 0.0425456 -2.06856 0
M  V30 3965 C 372.646 1.30964 -1.35992 0
M  V30 3966 O 372.003 1.77172 -0.437762 0
M  V30 3967 C 372.054 0.301735 -3.60239 0
M  V30 3968 O 371.775 -0.915127 -4.28436 0
M  V30 3969 C 373.276 0.887499 -4.34325 0
M  V30 3970 H 370.496 -0.0197482 -0.670709 0
M  V30 3971 H 373.04 -0.696297 -1.92281 0
M  V30 3972 H 371.195 0.990556 -3.74522 0
M  V30 3973 H 371.609 -0.676993 -5.20113 0
M  V30 3974 H 373.083 1.01845 -5.42523 0
M  V30 3975 H 373.56 1.88488 -3.96698 0
M  V30 3976 H 374.166 0.236196 -4.24644 0
M  V30 3977 N 372.481 1.55866 -0.233164 0
M  V30 3978 C 373.428 2.20796 0.67215 0
M  V30 3979 C 374.398 1.16731 1.18166 0
M  V30 3980 O 375.583 1.45129 1.23864 0
M  V30 3981 C 372.723 2.90072 1.86955 0
M  V30 3982 C 371.836 4.08759 1.39786 0
M  V30 3983 C 370.971 4.65787 2.55374 0
M  V30 3984 C 370.01 5.76752 2.04998 0
M  V30 3985 N 369.147 6.28021 3.13901 0
M  V30 3986 H 373.987 2.9779 0.111749 0
M  V30 3987 H 371.524 1.47036 0.0434007 0
M  V30 3988 H 373.482 3.28428 2.57276 0
M  V30 3989 H 372.112 2.15575 2.40265 0
M  V30 3990 H 371.164 3.7581 0.589173 0
M  V30 3991 H 372.476 4.88906 0.98856 0
M  V30 3992 H 371.63 5.06646 3.33758 0
M  V30 3993 H 370.369 3.84828 2.99598 0
M  V30 3994 H 369.374 5.35383 1.25079 0
M  V30 3995 H 370.599 6.59553 1.61759 0
M  V30 3996 H 368.545 5.49971 3.57586 0
M  V30 3997 H 368.462 7.03323 2.7726 0
M  V30 3998 H 369.73 6.73538 3.92386 0
M  V30 3999 N 373.959 -0.0401083 1.57549 0
M  V30 4000 C 374.909 -1.05175 2.02292 0
M  V30 4001 C 375.893 -1.32674 0.910294 0
M  V30 4002 O 377.085 -1.32444 1.17421 0
M  V30 4003 C 374.214 -2.35622 2.49674 0
M  V30 4004 C 373.3 -2.11261 3.67736 0
M  V30 4005 N 373.691 -1.56923 4.80842 0
M  V30 4006 C 371.989 -2.41596 3.74897 0
M  V30 4007 C 372.69 -1.48111 5.62528 0
M  V30 4008 N 371.666 -1.95282 5.07312 0
M  V30 4009 H 375.468 -0.625455 2.87168 0
M  V30 4010 H 372.982 -0.246624 1.60516 0
M  V30 4011 H 374.979 -3.08893 2.79983 0
M  V30 4012 H 373.639 -2.7894 1.662 0
M  V30 4013 H 374.65 -1.25345 5.02503 0
M  V30 4014 H 371.327 -2.88064 3.02201 0
M  V30 4015 H 372.717 -1.06683 6.63377 0
M  V30 4016 N 375.437 -1.54477 -0.31217 0
M  V30 4017 C 376.683 -1.73483 -1.0503 0
M  V30 4018 C 377.016 -0.513125 -1.87298 0
M  V30 4019 O 376.291 0.489864 -1.8823 0
M  V30 4020 C 376.574 -3.01723 -1.96558 0
M  V30 4021 C 376.427 -4.3417 -1.17545 0
M  V30 4022 C 377.746 -3.25772 -2.95907 0
M  V30 4023 H 374.865 -0.631222 -0.380432 0
M  V30 4024 H 377.507 -1.87184 -0.325932 0
M  V30 4025 H 375.657 -2.90174 -2.58324 0
M  V30 4026 H 377.329 -4.5762 -0.581513 0
M  V30 4027 H 375.572 -4.31159 -0.477925 0
M  V30 4028 H 376.243 -5.20143 -1.84811 0
M  V30 4029 H 378.719 -3.36857 -2.44267 0
M  V30 4030 H 377.595 -4.16838 -3.57123 0
M  V30 4031 H 377.856 -2.43537 -3.68974 0
M  V30 4032 N 376.915 0.57481 -1.46744 0
M  V30 4033 C 378.331 0.898981 -1.31873 0
M  V30 4034 C 378.531 1.99313 -0.29605 0
M  V30 4035 O 377.587 2.50728 0.298621 0
M  V30 4036 C 378.9 1.30886 -2.7072 0
M  V30 4037 C 380.448 1.42127 -2.78871 0
M  V30 4038 C 380.923 1.86478 -4.18318 0
M  V30 4039 N 382.414 1.93658 -4.20774 0
M  V30 4040 C 383.149 2.29267 -5.2557 0
M  V30 4041 N 382.645 2.63612 -6.40688 0
M  V30 4042 N 384.438 2.29889 -5.1294 0
M  V30 4043 H 376.589 -0.147839 -2.11885 0
M  V30 4044 H 378.852 -0.00347013 -0.947994 0
M  V30 4045 H 378.558 0.578853 -3.46904 0
M  V30 4046 H 378.432 2.26874 -3.01343 0
M  V30 4047 H 380.819 2.14213 -2.0297 0
M  V30 4048 H 380.9 0.443705 -2.51922 0
M  V30 4049 H 380.544 1.14968 -4.94717 0
M  V30 4050 H 380.474 2.85207 -4.42679 0
M  V30 4051 H 382.965 1.69574 -3.37718 0
M  V30 4052 H 383.278 2.89759 -7.16421 0
M  V30 4053 H 381.623 2.61232 -6.44036 0
M  V30 4054 H 384.814 2.02485 -4.22039 0
M  V30 4055 H 384.987 2.57312 -5.94722 0
M  V30 4056 N 378.394 1.34581 0.820102 0
M  V30 4057 C 379.324 1.29038 1.94606 0
M  V30 4058 C 380.305 0.1673 1.69275 0
M  V30 4059 O 381.49 0.360112 1.90832 0
M  V30 4060 C 378.62 1.04793 3.31113 0
M  V30 4061 C 377.574 2.13597 3.70891 0
M  V30 4062 C 376.9 1.74537 5.05412 0
M  V30 4063 C 378.2 3.55451 3.8269 0
M  V30 4064 H 379.894 2.23248 1.99501 0
M  V30 4065 H 377.44 1.0747 0.958449 0
M  V30 4066 H 379.393 0.995592 4.0947 0
M  V30 4067 H 378.117 0.0702565 3.26524 0
M  V30 4068 H 376.776 2.17905 2.9481 0
M  V30 4069 H 376.424 0.754226 4.97313 0
M  V30 4070 H 376.124 2.47361 5.32997 0
M  V30 4071 H 377.648 1.70803 5.86224 0
M  V30 4072 H 379.062 3.5354 4.51312 0
M  V30 4073 H 377.459 4.26922 4.21732 0
M  V30 4074 H 378.529 3.92587 2.84611 0
M  V30 4075 N 379.872 -1.04064 1.18357 0
M  V30 4076 C 381.102 -1.80654 1.00238 0
M  V30 4077 C 381.51 -1.83713 -0.452362 0
M  V30 4078 O 380.853 -1.27135 -1.32599 0
M  V30 4079 C 380.915 -3.27582 1.48088 0
M  V30 4080 C 380.579 -3.48184 2.96002 0
M  V30 4081 C 381.576 -3.39372 3.93856 0
M  V30 4082 C 379.261 -3.7478 3.34433 0
M  V30 4083 C 381.255 -3.5686 5.28138 0
M  V30 4084 C 378.942 -3.91915 4.68877 0
M  V30 4085 C 379.94 -3.82956 5.65539 0
M  V30 4086 O 379.628 -3.996 6.97549 0
M  V30 4087 H 379.36 -0.575751 0.354241 0
M  V30 4088 H 381.914 -1.32044 1.57333 0
M  V30 4089 H 380.144 -3.77161 0.853588 0
M  V30 4090 H 381.833 -3.8573 1.2636 0
M  V30 4091 H 382.599 -3.18789 3.65511 0
M  V30 4092 H 378.478 -3.80852 2.59756 0
M  V30 4093 H 382.022 -3.49783 6.03571 0
M  V30 4094 H 377.919 -4.11992 4.96923 0
M  V30 4095 H 378.687 -4.1676 7.04452 0
M  V30 4096 N 381.35 -0.985608 -1.22978 0
M  V30 4097 C 382.578 -0.675582 -1.95559 0
M  V30 4098 C 382.993 0.758413 -1.72897 0
M  V30 4099 O 382.35 1.51094 -1.02357 0
M  V30 4100 C 382.401 -0.96293 -3.48439 0
M  V30 4101 O 382.122 -2.34057 -3.70336 0
M  V30 4102 C 383.623 -0.669585 -4.38214 0
M  V30 4103 H 380.843 -0.250523 -0.622478 0
M  V30 4104 H 383.387 -1.3184 -1.56328 0
M  V30 4105 H 381.542 -0.366033 -3.85667 0
M  V30 4106 H 381.956 -2.43424 -4.64591 0
M  V30 4107 H 383.43 -0.920967 -5.44263 0
M  V30 4108 H 383.907 0.396383 -4.37408 0
M  V30 4109 H 384.513 -1.2472 -4.06602 0
M  V30 4110 N 382.828 1.3818 -0.7579 0
M  V30 4111 C 383.76 2.2901 -0.0932177 0
M  V30 4112 C 384.773 1.47958 0.679136 0
M  V30 4113 O 385.962 1.70773 0.519514 0
M  V30 4114 C 383.062 3.26953 0.89192 0
M  V30 4115 C 382.235 4.37045 0.176303 0
M  V30 4116 C 381.294 5.15148 1.07281 0
M  V30 4117 O 380.32 5.66616 0.541728 0
M  V30 4118 N 381.522 5.28542 2.40049 0
M  V30 4119 H 384.287 2.86694 -0.873303 0
M  V30 4120 H 381.848 1.50007 -0.609054 0
M  V30 4121 H 383.84 3.76083 1.49479 0
M  V30 4122 H 382.41 2.70136 1.57306 0
M  V30 4123 H 381.63 3.89493 -0.607328 0
M  V30 4124 H 382.918 5.07801 -0.318718 0
M  V30 4125 H 382.316 4.88285 2.85647 0
M  V30 4126 H 380.873 5.8103 2.95376 0
M  V30 4127 N 384.306 0.507319 1.49211 0
M  V30 4128 C 385.552 -0.0350047 2.0277 0
M  V30 4129 C 385.885 -1.3606 1.38569 0
M  V30 4130 O 385.16 -1.87321 0.523542 0
M  V30 4131 C 385.443 -0.180916 3.59645 0
M  V30 4132 C 385.296 1.16825 4.34364 0
M  V30 4133 C 386.615 -0.918558 4.30407 0
M  V30 4134 H 383.734 -0.0112473 0.736914 0
M  V30 4135 H 386.376 0.659956 1.7817 0
M  V30 4136 H 384.526 -0.772826 3.80736 0
M  V30 4137 H 386.198 1.79952 4.24753 0
M  V30 4138 H 384.441 1.75594 3.96673 0
M  V30 4139 H 385.112 1.01939 5.42506 0
M  V30 4140 H 387.588 -0.41649 4.1401 0
M  V30 4141 H 386.464 -0.989505 5.39907 0
M  V30 4142 H 386.725 -1.96373 3.96093 0
M  V30 4143 N 385.784 -1.5574 0.241426 0
M  V30 4144 C 387.014 -2.02913 -0.38857 0
M  V30 4145 C 387.422 -1.12014 -1.52478 0
M  V30 4146 O 386.765 -0.125903 -1.83268 0
M  V30 4147 C 386.827 -3.4636 -0.963075 0
M  V30 4148 C 386.491 -4.56982 0.0401916 0
M  V30 4149 C 387.488 -5.12941 0.847766 0
M  V30 4150 C 385.173 -5.0203 0.164699 0
M  V30 4151 C 387.167 -6.12437 1.76636 0
M  V30 4152 C 384.854 -6.01358 1.0868 0
M  V30 4153 C 385.852 -6.5644 1.88616 0
M  V30 4154 O 385.54 -7.53831 2.79273 0
M  V30 4155 H 385.272 -0.668983 -0.0971452 0
M  V30 4156 H 387.826 -2.02198 0.361248 0
M  V30 4157 H 386.056 -3.44206 -1.76235 0
M  V30 4158 H 387.745 -3.77065 -1.50257 0
M  V30 4159 H 388.511 -4.78974 0.762133 0
M  V30 4160 H 384.39 -4.58824 -0.447411 0
M  V30 4161 H 387.934 -6.55355 2.39071 0
M  V30 4162 H 383.831 -6.34746 1.17338 0
M  V30 4163 H 384.599 -7.71428 2.73572 0
M  V30 4164 N 387.262 0.0317525 -1.57568 0
M  V30 4165 C 388.487 0.738664 -1.938 0
M  V30 4166 C 388.912 1.68242 -0.841208 0
M  V30 4167 O 388.27 1.80157 0.203267 0
M  V30 4168 C 388.318 1.47417 -3.29091 0
M  V30 4169 O 387.422 2.5872 -3.2115 0
M  V30 4170 H 386.763 0.198856 -0.633524 0
M  V30 4171 H 389.293 -0.0119713 -2.04596 0
M  V30 4172 H 389.303 1.84468 -3.63917 0
M  V30 4173 H 387.978 0.781988 -4.08482 0
M  V30 4174 H 386.555 2.24231 -2.97951 0
M  V30 4175 N 388.74 1.54641 0.303973 0
M  V30 4176 C 389.988 1.73437 1.0375 0
M  V30 4177 C 390.309 0.521449 1.87899 0
M  V30 4178 O 389.579 -0.46432 1.90318 0
M  V30 4179 H 388.159 0.639518 0.386039 0
M  V30 4180 H 390.821 1.91988 0.335675 0
M  V30 4181 H 389.917 2.62235 1.69231 0
M  V30 4182 N 390.218 -0.567019 1.47046 0
M  V30 4183 C 391.448 -1.34831 1.56538 0
M  V30 4184 C 391.856 -1.8802 0.21101 0
M  V30 4185 O 391.199 -1.65152 -0.804387 0
M  V30 4186 C 391.261 -2.56139 2.52256 0
M  V30 4187 C 390.925 -2.24307 3.98165 0
M  V30 4188 C 391.922 -1.82192 4.86931 0
M  V30 4189 C 389.607 -2.35968 4.43423 0
M  V30 4190 C 391.601 -1.52153 6.18973 0
M  V30 4191 C 389.288 -2.05542 5.75496 0
M  V30 4192 C 390.286 -1.63701 6.63092 0
M  V30 4193 O 389.974 -1.33657 7.92711 0
M  V30 4194 H 389.706 -0.417683 0.531523 0
M  V30 4195 H 392.26 -0.694726 1.93294 0
M  V30 4196 H 390.49 -3.24356 2.10548 0
M  V30 4197 H 392.179 -3.18214 2.51982 0
M  V30 4198 H 392.945 -1.72684 4.53217 0
M  V30 4199 H 388.824 -2.67495 3.75456 0
M  V30 4200 H 392.368 -1.19421 6.87302 0
M  V30 4201 H 388.265 -2.14679 6.08755 0
M  V30 4202 H 389.033 -1.4737 8.05124 0
M  V30 4203 N 391.696 -1.35014 -0.812953 0
M  V30 4204 C 392.944 -1.27678 -1.56661 0
M  V30 4205 C 393.265 0.150359 -1.94419 0
M  V30 4206 O 392.535 1.08532 -1.63088 0
M  V30 4207 H 391.115 -0.469602 -0.580933 0
M  V30 4208 H 393.777 -1.69043 -0.970076 0
M  V30 4209 H 392.873 -1.88833 -2.48492 0
M  V30 4210 N 393.175 1.03435 -1.18907 0
M  V30 4211 C 394.085 2.15075 -0.937015 0
M  V30 4212 C 395.101 1.73706 0.101085 0
M  V30 4213 O 396.277 2.01232 -0.0822948 0
M  V30 4214 C 393.342 3.43458 -0.473057 0
M  V30 4215 C 392.403 3.99172 -1.57989 0
M  V30 4216 C 391.636 5.21427 -1.13797 0
M  V30 4217 O 391.859 5.704 0.000725941 0
M  V30 4218 O 390.793 5.69837 -1.9383 0
M  V30 4219 H 394.619 2.39198 -1.87131 0
M  V30 4220 H 392.204 1.13506 -0.971427 0
M  V30 4221 H 394.086 4.20811 -0.222702 0
M  V30 4222 H 392.761 3.20793 0.432869 0
M  V30 4223 H 391.668 3.23178 -1.88433 0
M  V30 4224 H 393.001 4.2619 -2.46217 0
M  V30 4225 N 394.653 0.992116 1.22453 0
M  V30 4226 C 395.878 0.685644 1.95739 0
M  V30 4227 C 396.303 -0.743 1.72804 0
M  V30 4228 O 395.661 -1.50778 1.00676 0
M  V30 4229 C 395.709 0.996293 3.46564 0
M  V30 4230 O 394.813 0.0945512 4.12292 0
M  V30 4231 H 394.154 0.256694 0.612376 0
M  V30 4232 H 396.684 1.32888 1.5557 0
M  V30 4233 H 396.694 0.93781 3.97076 0
M  V30 4234 H 395.369 2.03733 3.62582 0
M  V30 4235 H 393.946 0.208451 3.72317 0
M  V30 4236 N 396.131 -1.37776 0.765217 0
M  V30 4237 C 397.061 -2.32945 0.160953 0
M  V30 4238 C 398.042 -1.55454 -0.690516 0
M  V30 4239 O 399.227 -1.83721 -0.629318 0
M  V30 4240 C 396.357 -3.39669 -0.724031 0
M  V30 4241 C 395.311 -4.27992 0.0256173 0
M  V30 4242 C 394.637 -5.25673 -0.978383 0
M  V30 4243 C 395.937 -5.08309 1.20082 0
M  V30 4244 H 397.631 -2.83728 0.955969 0
M  V30 4245 H 395.177 -1.36416 0.461149 0
M  V30 4246 H 397.13 -4.05219 -1.15652 0
M  V30 4247 H 395.854 -2.87396 -1.5515 0
M  V30 4248 H 394.513 -3.63964 0.438812 0
M  V30 4249 H 394.161 -4.69682 -1.80022 0
M  V30 4250 H 393.861 -5.85625 -0.481378 0
M  V30 4251 H 395.385 -5.94098 -1.40995 0
M  V30 4252 H 396.799 -5.67034 0.845307 0
M  V30 4253 H 395.196 -5.77554 1.62947 0
M  V30 4254 H 396.266 -4.41365 2.00811 0
M  V30 4255 N 397.609 -0.515225 -1.4894 0
M  V30 4256 C 398.858 0.0261361 -2.01683 0
M  V30 4257 C 399.171 1.36719 -1.39883 0
M  V30 4258 O 400.377 1.99606 -1.84037 0
M  V30 4259 C 398.833 0.0970111 -3.59769 0
M  V30 4260 C 398.441 -1.23825 -4.30548 0
M  V30 4261 C 400.185 0.587981 -4.20408 0
M  V30 4262 C 398.092 -1.12877 -5.80528 0
M  V30 4263 H 397.022 0.0135398 -0.753878 0
M  V30 4264 H 399.673 -0.656787 -1.71343 0
M  V30 4265 H 398.055 0.844694 -3.86886 0
M  V30 4266 H 399.229 -2.00034 -4.15118 0
M  V30 4267 H 397.544 -1.66379 -3.81716 0
M  V30 4268 H 400.141 0.68763 -5.3026 0
M  V30 4269 H 400.484 1.59026 -3.84729 0
M  V30 4270 H 401.017 -0.103582 -3.97665 0
M  V30 4271 H 397.756 -2.10575 -6.20756 0
M  V30 4272 H 397.276 -0.407799 -5.98412 0
M  V30 4273 H 398.955 -0.813332 -6.41868 0
M  V30 4274 N 399.087 1.5561 -0.249682 0
M  V30 4275 C 400.364 1.90932 0.424761 0
M  V30 4276 C 400.744 1.17078 1.75658 0
M  V30 4277 O 400.092 0.289176 2.26663 0
M  V30 4278 C 400.302 3.43975 0.590109 0
M  V30 4279 C 401.65 4.15281 0.884714 0
M  V30 4280 O 402.674 3.49729 0.67587 0
M  V30 4281 O 401.533 5.31236 1.28259 0
M  V30 4282 H 398.627 0.794815 0.228468 0
M  V30 4283 H 401.173 1.67135 -0.293954 0
M  V30 4284 H 399.945 3.89748 -0.34818 0
M  V30 4285 H 399.568 3.73644 1.35926 0
M  V30 4286 N 400.565 -0.0233959 1.57583 0
M  V30 4287 C 401.795 -0.723631 1.93513 0
M  V30 4288 C 402.203 -1.69115 0.848333 0
M  V30 4289 O 401.546 -1.82781 -0.183484 0
M  V30 4290 C 401.608 -1.53075 3.25282 0
M  V30 4291 C 401.272 -0.727388 4.51174 0
M  V30 4292 C 402.269 -0.0251924 5.19894 0
M  V30 4293 C 399.954 -0.680256 4.97672 0
M  V30 4294 C 401.948 0.713374 6.33395 0
M  V30 4295 C 399.635 0.0620523 6.11068 0
M  V30 4296 C 400.633 0.757622 6.78785 0
M  V30 4297 O 400.321 1.48787 7.90011 0
M  V30 4298 H 400.053 -0.208051 0.643188 0
M  V30 4299 H 402.607 0.0167489 2.05393 0
M  V30 4300 H 400.837 -2.31508 3.09744 0
M  V30 4301 H 402.526 -2.11413 3.46496 0
M  V30 4302 H 403.292 -0.0526003 4.84971 0
M  V30 4303 H 399.171 -1.21116 4.44805 0
M  V30 4304 H 402.715 1.25683 6.86185 0
M  V30 4305 H 398.612 0.0913634 6.45435 0
M  V30 4306 H 399.38 1.40213 8.06401 0
M  V30 4307 N 402.043 -1.548 -0.295768 0
M  V30 4308 C 402.991 -1.86874 -1.38495 0
M  V30 4309 C 403.985 -0.742938 -1.52239 0
M  V30 4310 O 405.191 -0.926999 -1.54294 0
M  V30 4311 H 401.566 -0.592786 -0.462719 0
M  V30 4312 H 403.537 -2.77904 -1.08682 0
M  V30 4313 C 402.286 -2.13732 -2.74252 0
M  V30 4314 H 401.609 -2.99835 -2.64459 0
M  V30 4315 H 403.049 -2.4011 -3.49461 0
M  V30 4316 C 401.508 -0.937539 -3.23592 0
M  V30 4317 O 402.038 -0.160665 -4.01379 0
M  V30 4318 N 400.244 -0.741478 -2.80981 0
M  V30 4319 H 399.791 -1.37489 -2.1784 0
M  V30 4320 H 399.749 0.0597103 -3.14343 0
M  V30 4321 N 403.521 0.559213 -1.47345 0
M  V30 4322 C 404.768 1.31648 -1.53867 0
M  V30 4323 C 405.096 1.93468 -0.200104 0
M  V30 4324 O 404.351 1.78295 0.806799 0
M  V30 4325 C 404.65 2.44853 -2.6035 0
M  V30 4326 C 404.316 2.00876 -4.03683 0
M  V30 4327 C 402.978 1.88599 -4.42701 0
M  V30 4328 C 405.33 1.67279 -4.93626 0
M  V30 4329 C 402.658 1.41017 -5.69501 0
M  V30 4330 C 405.01 1.21169 -6.20887 0
M  V30 4331 C 403.674 1.07487 -6.58789 0
M  V30 4332 H 402.944 0.481734 -0.56304 0
M  V30 4333 H 405.591 0.627301 -1.80934 0
M  V30 4334 H 403.896 3.19318 -2.27032 0
M  V30 4335 H 405.593 3.03039 -2.62619 0
M  V30 4336 H 402.183 2.11374 -3.72853 0
M  V30 4337 H 406.367 1.75638 -4.64182 0
M  V30 4338 H 401.623 1.29086 -5.97618 0
M  V30 4339 H 405.797 0.942345 -6.89995 0
M  V30 4340 H 403.424 0.703946 -7.56934 0
M  V30 4341 N 404.999 1.35443 0.805782 0
M  V30 4342 C 405.947 1.28465 1.93906 0
M  V30 4343 C 406.941 0.17943 1.68447 0
M  V30 4344 O 408.147 0.345459 1.76654 0
M  V30 4345 H 404.522 0.399528 0.637088 0
M  V30 4346 H 406.493 2.24206 1.96912 0
M  V30 4347 C 405.242 1.07432 3.30687 0
M  V30 4348 H 404.565 1.91716 3.50835 0
M  V30 4349 H 406.005 1.06591 4.10383 0
M  V30 4350 C 404.464 -0.22179 3.36169 0
M  V30 4351 O 404.994 -1.21731 3.82811 0
M  V30 4352 N 403.2 -0.260841 2.89427 0
M  V30 4353 H 402.747 0.549884 2.51663 0
M  V30 4354 H 402.705 -1.12777 2.93477 0
M  V30 4355 N 406.477 -1.02803 1.19454 0
M  V30 4356 C 407.409 -2.11181 0.890807 0
M  V30 4357 C 408.422 -1.6238 -0.116829 0
M  V30 4358 O 409.611 -1.78144 0.112694 0
M  V30 4359 C 406.711 -3.37461 0.311942 0
M  V30 4360 C 405.884 -4.15446 1.36834 0
M  V30 4361 C 404.943 -5.20039 0.802864 0
M  V30 4362 O 403.969 -5.49602 1.48077 0
M  V30 4363 N 405.171 -5.79165 -0.393417 0
M  V30 4364 H 407.936 -2.37827 1.82369 0
M  V30 4365 H 405.497 -1.19101 1.09666 0
M  V30 4366 H 407.489 -4.0462 -0.0802225 0
M  V30 4367 H 406.059 -3.08156 -0.52524 0
M  V30 4368 H 405.279 -3.43423 1.93531 0
M  V30 4369 H 406.567 -4.64335 2.08015 0
M  V30 4370 H 405.965 -5.57466 -0.961658 0
M  V30 4371 H 404.522 -6.47729 -0.727351 0
M  V30 4372 N 407.956 -0.998596 -1.21925 0
M  V30 4373 C 409.184 -0.696286 -1.94832 0
M  V30 4374 C 409.599 0.740032 -1.73692 0
M  V30 4375 O 408.956 1.5 -1.03953 0
M  V30 4376 C 409.007 -0.999833 -3.47398 0
M  V30 4377 O 408.728 -2.37972 -3.67833 0
M  V30 4378 C 410.229 -0.716025 -4.37479 0
M  V30 4379 H 407.449 -0.257111 -0.619786 0
M  V30 4380 H 409.993 -1.33491 -1.54921 0
M  V30 4381 H 408.148 -0.406918 -3.85257 0
M  V30 4382 H 408.562 -2.48338 -4.61983 0
M  V30 4383 H 410.036 -0.978642 -5.43256 0
M  V30 4384 H 410.513 0.349968 -4.37803 0
M  V30 4385 H 411.119 -1.29025 -4.05256 0
M  V30 4386 N 409.434 1.37368 -0.772513 0
M  V30 4387 C 410.85 1.53059 -0.452231 0
M  V30 4388 C 411.05 1.73065 1.03203 0
M  V30 4389 O 410.106 1.75245 1.81784 0
M  V30 4390 C 411.419 2.72659 -1.26797 0
M  V30 4391 C 412.967 2.86521 -1.25995 0
M  V30 4392 C 413.442 4.09105 -2.05905 0
M  V30 4393 N 414.933 4.16219 -2.03263 0
M  V30 4394 C 415.668 5.10107 -2.61875 0
M  V30 4395 N 415.164 6.09547 -3.29278 0
M  V30 4396 N 416.957 5.02596 -2.51701 0
M  V30 4397 H 409.108 1.22634 -1.7342 0
M  V30 4398 H 411.371 0.597206 -0.736239 0
M  V30 4399 H 411.077 2.64343 -2.31982 0
M  V30 4400 H 410.951 3.66363 -0.897672 0
M  V30 4401 H 413.338 2.94308 -0.216081 0
M  V30 4402 H 413.419 1.93774 -1.66989 0
M  V30 4403 H 413.063 4.0208 -3.10313 0
M  V30 4404 H 412.993 5.00968 -1.62292 0
M  V30 4405 H 415.484 3.45012 -1.54192 0
M  V30 4406 H 415.797 6.77718 -3.71374 0
M  V30 4407 H 414.142 6.09824 -3.33377 0
M  V30 4408 H 417.333 4.23855 -1.98657 0
M  V30 4409 H 417.506 5.75582 -2.97673 0
M  V30 4410 N 410.912 0.523116 1.48665 0
M  V30 4411 C 412.158 -0.0134963 2.02796 0
M  V30 4412 C 412.491 -1.34582 1.40004 0
M  V30 4413 O 411.766 -1.86756 0.543381 0
M  V30 4414 C 412.049 -0.14276 3.59817 0
M  V30 4415 C 411.902 1.21425 4.331 0
M  V30 4416 C 413.221 -0.872856 4.31357 0
M  V30 4417 H 410.34 -0.00343074 0.736992 0
M  V30 4418 H 412.982 0.678816 1.7746 0
M  V30 4419 H 411.132 -0.732401 3.81534 0
M  V30 4420 H 412.804 1.84447 4.2282 0
M  V30 4421 H 411.047 1.79791 3.94788 0
M  V30 4422 H 411.718 1.07687 5.41394 0
M  V30 4423 H 414.194 -0.372555 4.14429 0
M  V30 4424 H 413.07 -0.932185 5.40927 0
M  V30 4425 H 413.331 -1.92161 3.98154 0
M  V30 4426 N 412.39 -1.55475 0.257931 0
M  V30 4427 C 413.638 -1.98813 -0.363009 0
M  V30 4428 C 413.959 -1.14757 -1.57657 0
M  V30 4429 O 413.229 -0.232956 -1.9451 0
M  V30 4430 H 411.809 -0.734308 -0.137113 0
M  V30 4431 H 414.471 -1.9156 0.359281 0
M  V30 4432 H 413.567 -3.04941 -0.664634 0
M  V30 4433 N 413.868 0.0150385 -1.57593 0
M  V30 4434 C 415.114 0.704043 -1.90187 0
M  V30 4435 C 415.447 1.74249 -0.857366 0
M  V30 4436 O 414.722 1.94092 0.125843 0
M  V30 4437 C 415.005 1.36087 -3.33395 0
M  V30 4438 C 414.858 0.334981 -4.48551 0
M  V30 4439 C 416.177 2.29112 -3.7576 0
M  V30 4440 H 413.296 0.254475 -0.691673 0
M  V30 4441 H 415.938 -0.0331678 -1.89971 0
M  V30 4442 H 414.088 1.98922 -3.3371 0
M  V30 4443 H 415.76 -0.292534 -4.60372 0
M  V30 4444 H 414.003 -0.344325 -4.32431 0
M  V30 4445 H 414.674 0.833316 -5.45674 0
M  V30 4446 H 417.15 1.76308 -3.76902 0
M  V30 4447 H 416.026 2.72043 -4.76743 0
M  V30 4448 H 416.287 3.16385 -3.08793 0
M  V30 4449 N 415.346 1.54954 0.287554 0
M  V30 4450 C 416.594 1.74528 1.01904 0
M  V30 4451 C 416.915 0.541349 1.87335 0
M  V30 4452 O 416.185 -0.444108 1.908 0
M  V30 4453 H 414.765 0.643576 0.379235 0
M  V30 4454 H 417.427 1.92333 0.315294 0
M  V30 4455 H 416.523 2.64015 1.6644 0
M  V30 4456 N 416.824 -0.551391 1.4764 0
M  V30 4457 C 418.07 -1.31024 1.54792 0
M  V30 4458 C 418.403 -1.9304 0.211967 0
M  V30 4459 O 417.678 -1.78175 -0.77999 0
M  V30 4460 C 417.961 -2.41593 2.67029 0
M  V30 4461 C 417.814 -1.84408 4.10261 0
M  V30 4462 C 419.133 -3.43488 2.75143 0
M  V30 4463 H 416.252 -0.475031 0.563485 0
M  V30 4464 H 418.894 -0.616454 1.79722 0
M  V30 4465 H 417.044 -3.00772 2.45904 0
M  V30 4466 H 418.716 -1.29445 4.42766 0
M  V30 4467 H 416.959 -1.15051 4.18265 0
M  V30 4468 H 417.63 -2.64367 4.84576 0
M  V30 4469 H 420.106 -2.94236 2.94218 0
M  V30 4470 H 418.982 -4.18274 3.55441 0
M  V30 4471 H 419.243 -4.02703 1.82435 0
M  V30 4472 N 418.302 -1.35869 -0.798587 0
M  V30 4473 C 419.235 -1.23801 -1.91699 0
M  V30 4474 C 420.213 -0.124143 -1.62125 0
M  V30 4475 O 421.397 -0.293656 -1.86199 0
M  V30 4476 C 418.524 -0.908063 -3.263 0
M  V30 4477 C 417.57 -2.0351 -3.74815 0
M  V30 4478 S 418.403 -3.65183 -3.91665 0
M  V30 4479 C 419.559 -3.34283 -5.29156 0
M  V30 4480 H 419.792 -2.18466 -2.01643 0
M  V30 4481 H 417.325 -1.21178 -0.956833 0
M  V30 4482 H 419.283 -0.724506 -4.04056 0
M  V30 4483 H 417.944 0.0206584 -3.14093 0
M  V30 4484 H 417.137 -1.75858 -4.72324 0
M  V30 4485 H 416.739 -2.1774 -3.04081 0
M  V30 4486 H 419.031 -2.87607 -6.13424 0
M  V30 4487 H 419.974 -4.31022 -5.61806 0
M  V30 4488 H 420.382 -2.69854 -4.95822 0
M  V30 4489 N 419.78 1.02168 -1.19998 0
M  V30 4490 C 420.71 2.12488 -0.96804 0
M  V30 4491 C 421.691 1.69799 0.101185 0
M  V30 4492 O 422.876 1.94121 -0.0552993 0
M  V30 4493 C 420.006 3.43479 -0.513776 0
M  V30 4494 C 418.96 3.99884 -1.52566 0
M  V30 4495 C 418.286 5.26582 -0.928214 0
M  V30 4496 C 419.586 4.33861 -2.90795 0
M  V30 4497 H 421.28 2.32149 -1.89069 0
M  V30 4498 H 418.826 1.11564 -0.910468 0
M  V30 4499 H 420.779 4.20036 -0.338774 0
M  V30 4500 H 419.503 3.23561 0.444493 0
M  V30 4501 H 418.162 3.25429 -1.68794 0
M  V30 4502 H 417.81 5.02986 0.0378289 0
M  V30 4503 H 417.51 5.65284 -1.60397 0
M  V30 4504 H 419.034 6.05799 -0.764167 0
M  V30 4505 H 420.448 5.01327 -2.78109 0
M  V30 4506 H 418.845 4.83664 -3.55231 0
M  V30 4507 H 419.915 3.42848 -3.42904 0
M  V30 4508 N 421.258 1.00505 1.21394 0
M  V30 4509 C 422.206 0.558623 2.25792 0
M  V30 4510 C 423.2 -0.396848 1.64686 0
M  V30 4511 O 424.406 -0.268035 1.77993 0
M  V30 4512 H 420.781 0.1623 0.734277 0
M  V30 4513 H 422.752 1.4503 2.60785 0
M  V30 4514 C 421.501 -0.0989574 3.47559 0
M  V30 4515 H 420.824 0.627225 3.94849 0
M  V30 4516 H 422.264 -0.3746 4.22342 0
M  V30 4517 C 420.723 -1.33817 3.09184 0
M  V30 4518 O 421.253 -2.43252 3.19674 0
M  V30 4519 N 419.459 -1.21793 2.63846 0
M  V30 4520 H 419.006 -0.32746 2.5551 0
M  V30 4521 H 418.964 -2.04809 2.38539 0
M  V30 4522 N 422.737 -1.36956 0.779787 0
M  V30 4523 C 424.014 -1.93697 0.272156 0
M  V30 4524 C 424.394 -1.71267 -1.23413 0
M  V30 4525 O 423.742 -1.06607 -2.02107 0
M  V30 4526 C 423.952 -3.42812 0.654291 0
M  V30 4527 C 425.3 -4.19921 0.628602 0
M  V30 4528 O 426.324 -3.51209 0.594172 0
M  V30 4529 O 425.183 -5.42465 0.662864 0
M  V30 4530 H 422.277 -0.824447 0.0649286 0
M  V30 4531 H 424.823 -1.46196 0.861682 0
M  V30 4532 H 423.595 -3.52754 1.69353 0
M  V30 4533 H 423.218 -3.97582 0.0381369 0
M  V30 4534 N 424.215 -0.530993 -1.48385 0
M  V30 4535 C 425.145 0.219985 -2.32461 0
M  V30 4536 C 426.126 0.934111 -1.42156 0
M  V30 4537 O 427.311 0.919694 -1.71042 0
M  V30 4538 C 424.441 1.26674 -3.23375 0
M  V30 4539 C 423.395 0.67069 -4.22712 0
M  V30 4540 C 422.721 1.82017 -5.02766 0
M  V30 4541 C 424.021 -0.358268 -5.2107 0
M  V30 4542 H 425.715 -0.48187 -2.95497 0
M  V30 4543 H 423.261 -0.233182 -1.42099 0
M  V30 4544 H 425.214 1.80006 -3.81019 0
M  V30 4545 H 423.938 1.99818 -2.58341 0
M  V30 4546 H 422.597 0.158878 -3.66256 0
M  V30 4547 H 422.245 2.54002 -4.34157 0
M  V30 4548 H 421.945 1.42727 -5.70003 0
M  V30 4549 H 423.469 2.35725 -5.63264 0
M  V30 4550 H 424.883 0.0880081 -5.73232 0
M  V30 4551 H 423.28 -0.66861 -5.96364 0
M  V30 4552 H 424.35 -1.26367 -4.68145 0
M  V30 4553 N 425.693 1.55336 -0.266172 0
M  V30 4554 C 426.94 1.99397 0.353158 0
M  V30 4555 C 427.268 1.15451 1.56529 0
M  V30 4556 O 426.523 0.209974 1.9457 0
M  V30 4557 C 426.822 3.48606 0.787957 0
M  V30 4558 C 426.488 4.49773 -0.318541 0
M  V30 4559 C 425.15 4.77158 -0.62239 0
M  V30 4560 C 427.502 5.10212 -1.06459 0
M  V30 4561 C 424.83 5.62251 -1.67602 0
M  V30 4562 C 427.182 5.96449 -2.10788 0
M  V30 4563 C 425.846 6.22158 -2.41817 0
M  V30 4564 H 425.116 0.729644 0.12923 0
M  V30 4565 H 427.763 1.87732 -0.37802 0
M  V30 4566 H 426.068 3.57701 1.59866 0
M  V30 4567 H 427.765 3.80098 1.27775 0
M  V30 4568 H 424.355 4.2854 -0.0715925 0
M  V30 4569 H 428.539 4.89086 -0.843098 0
M  V30 4570 H 423.795 5.80419 -1.92155 0
M  V30 4571 H 427.969 6.42317 -2.69076 0
M  V30 4572 H 425.596 6.87888 -3.23596 0
M  V30 4573 O 427.21 0.131478 1.60964 0
M  V30 4574 H 427.901 -0.465131 1.88033 0
M  V30 END ATOM
M  V30 BEGIN BOND
M  V30 END BOND
M  V30 END CTAB
M  END
$$$$
